Mass spectrum: Codeinone; LC-ESI-QTOF; MS2; 80 V
Name: Codeinone
Class: Pharmaceutical
Formula: C18H19NO3
Exact mass: 297.1365
SMILES: CN1CCC23C4C1CC5=C2C(=C(C=C5)OC)OC3C(=O)C=C4
InChI: InChI=1S/C18H19NO3/c1-19-8-7-18-11-4-5-13(20)17(18)22-16-14(21-2)6-3-10(15(16)18)9-12(11)19/h3-6,11-12,17H,7-9H2,1-2H3
Instrument: TripleTOF 5600 SCIEX
Instrument type: LC-ESI-QTOF
Ms type: MS2
Ion mode: POSITIVE
Collision energy: 80
Fragmentation mode: CID
Ionization: ESI
Column name: Zorbax Eclipse Plus C18 2.1 mm x 150 mm, 3.5 um, Agilent
Retention time: 5.057 min
Precursor m/z: 298.1438
Precursor type: [M+H]+
m/z	relative intensity
44.0646	16
58.074	28
77.0437	75
88.0369	13
89.0422	33
91.0559	18
101.04	19
102.0482	25
103.0567	22
113.0407	24
114.0487	74
115.056	276
116.0639	15
117.0696	12
126.0471	55
127.0552	246
128.0629	193
129.071	22
131.0511	16
138.0453	10
139.0552	999
140.0627	306
141.0709	211
142.0411	15
142.0757	21
143.0508	15
150.0464	42
151.0549	231
152.0631	893
153.0698	205
154.0701	28
155.0491	128
156.0553	12
163.055	49
164.0623	98
165.0704	249
166.073	15
167.0513	15
167.0802	16
168.057	166
169.0323	12
169.0648	51
170.0389	34
171.0452	12
176.0633	54
177.07	42
178.0772	89
179.0551	16
179.0882	16
180.0569	22
181.063	83
182.0704	10
183.0438	98
185.0602	10
187.0548	15
189.0677	48
192.0662	10
193.0616	12
195.0825	10
196.0522	10
197.0567	16
205.0676	22
208.0507	12
209.059	10
211.0793	12
221.0591	15
