Mass spectrum: Iobitridol; LC-ESI-QTOF; MS2; 80 V
Name: Iobitridol
Class: Pharmaceutical
Formula: C20H28I3N3O9
Exact mass: 834.896
SMILES: CN(CC(O)CO)C(=O)c1c(I)c(NC(=O)C(CO)CO)c(I)c(c1I)C(=O)N(C)CC(O)CO
InChI: InChI=1S/C20H28I3N3O9/c1-25(3-10(31)7-29)19(34)12-14(21)13(20(35)26(2)4-11(32)8-30)16(23)17(15(12)22)24-18(33)9(5-27)6-28/h9-11,27-32H,3-8H2,1-2H3,(H,24,33)
Instrument: TripleTOF 6600 SCIEX
Instrument type: LC-ESI-QTOF
Ms type: MS2
Ion mode: POSITIVE
Collision energy: 80
Fragmentation mode: CID
Ionization: ESI
Column name: Zorbax Eclipse Plus C18 2.1 mm x 150 mm, 3.5 um, Agilent
Retention time: 4.58 min
Precursor m/z: 835.9033
Precursor type: [M+H]+
m/z	relative intensity
170.0191	128
218.0449	128
296.9216	358
297.931	102
312.9272	102
313.9212	153
326.9338	256
339.9095	512
343.9365	435
369.9136	256
369.9869	153
387.9307	128
401.0	742
413.8082	204
423.8295	281
425.8148	102
426.9674	153
426.9972	102
430.9901	102
439.7897	717
451.8282	153
467.8156	384
470.8406	128
480.8421	102
497.8415	794
554.8843	999
