Mass spectrum: 2-Amino-5-methyl-1,3,4-thiadiazole; LC-ESI-QTOF; MS2; 70 V
Name: 2-Amino-5-methyl-1,3,4-thiadiazole
Class: Industrial_process
Formula: C3H5N3S
Exact mass: 115.0204
SMILES: CC1=NN=C(S1)N
InChI: InChI=1S/C3H5N3S/c1-2-5-6-3(4)7-2/h1H3,(H2,4,6)
Instrument: TripleTOF 6600 SCIEX
Instrument type: LC-ESI-QTOF
Ms type: MS2
Ion mode: POSITIVE
Collision energy: 70
Fragmentation mode: CID
Ionization: ESI
Column name: Zorbax Eclipse Plus C18 2.1 mm x 150 mm, 3.5 um, Agilent
Retention time: 2.467 min
Precursor m/z: 116.0277
Precursor type: [M+H]+
m/z	relative intensity
31.9707	45
32.9784	19
42.0208	47
42.0325	58
43.0286	999
43.971	14
44.9779	19
45.9737	42
46.9814	52
47.9894	107
57.9735	29
57.9858	13
58.9814	20
58.9938	31
59.9893	275
