Mass spectrum: Prallethrin; LC-ESI-QTOF; MS2; 110 V
Name: Prallethrin
Class: Insecticide
Formula: C19H24O3
Exact mass: 300.1725
SMILES: CC1=C(C(=O)CC1OC(=O)C2C(C2(C)C)C=C(C)C)CC#C
InChI: InChI=1S/C19H24O3/c1-7-8-13-12(4)16(10-15(13)20)22-18(21)17-14(9-11(2)3)19(17,5)6/h1,9,14,16-17H,8,10H2,2-6H3
Instrument: TripleTOF 6600 SCIEX
Instrument type: LC-ESI-QTOF
Ms type: MS2
Ion mode: POSITIVE
Collision energy: 110
Fragmentation mode: CID
Ionization: ESI
Column name: Zorbax Eclipse Plus C18 2.1 mm x 150 mm, 3.5 um, Agilent
Retention time: 14.861 min
Precursor m/z: 301.1798
Precursor type: [M+H]+
m/z	relative intensity
37.0078	54
38.0165	37
39.0235	223
41.0393	94
43.0189	23
49.0077	81
50.0157	321
51.0237	999
52.0326	16
53.0394	64
55.0554	16
62.016	27
63.0238	67
65.0392	115
66.0474	16
74.0155	27
75.0235	16
77.0391	900
78.0476	30
79.0552	71
89.0401	74
91.0547	74
102.0485	13
103.054	30
105.0444	27
115.0546	40
128.0629	16
