Mass spectrum: Terbinafine; LC-ESI-QTOF; MS2; 20 V
Name: Terbinafine
Class: Pharmaceutical; Fungicide
Formula: C21H25N
Exact mass: 291.1987
SMILES: CN(C\C=C\C#CC(C)(C)C)Cc1cccc2ccccc12
InChI: InChI=1S/C21H25N/c1-21(2,3)15-8-5-9-16-22(4)17-19-13-10-12-18-11-6-7-14-20(18)19/h5-7,9-14H,16-17H2,1-4H3/b9-5+
Instrument: TripleTOF 5600 SCIEX
Instrument type: LC-ESI-QTOF
Ms type: MS2
Ion mode: POSITIVE
Collision energy: 20
Fragmentation mode: CID
Ionization: ESI
Column name: Zorbax Eclipse Plus C18 2.1 mm x 150 mm, 3.5 um, Agilent
Retention time: 9.655 min
Precursor m/z: 292.206
Precursor type: [M+H]+
m/z	relative intensity
77.0408	10
79.056	17
91.0551	18
93.0715	183
105.0696	36
115.0531	14
121.1006	51
141.0697	836
150.1269	45
170.0958	93
179.0843	17
205.1003	67
261.1618	39
292.2046	999
