Mass spectrum: Edetol; LC-ESI-QTOF; MS2; 80 V
Name: Edetol
Formula: C14H32N2O4
Exact mass: 292.2362
SMILES: CC(CN(CCN(CC(C)O)CC(C)O)CC(C)O)O
InChI: InChI=1S/C14H32N2O4/c1-11(17)7-15(8-12(2)18)5-6-16(9-13(3)19)10-14(4)20/h11-14,17-20H,5-10H2,1-4H3
Instrument: TripleTOF 6600 SCIEX
Instrument type: LC-ESI-QTOF
Ms type: MS2
Ion mode: POSITIVE
Collision energy: 80
Fragmentation mode: CID
Ionization: ESI
Column name: Zorbax Eclipse Plus C18 2.1 mm x 150 mm, 3.5 um, Agilent
Retention time: 2.645 min
Precursor m/z: 293.2435
Precursor type: [M+H]+
m/z	relative intensity
31.0177	142
37.0076	40
38.0152	47
39.0227	679
41.0381	999
42.033	271
43.0172	40
44.0484	142
45.032	33
54.0332	47
55.0546	33
56.0488	346
58.0643	54
59.0482	373
67.0539	40
68.0492	81
69.0551	81
70.064	108
79.0505	33
80.0492	47
82.0645	67
84.0802	237
94.0653	40
98.0587	27
