Mass spectrum: 2-Methylquinoline; LC-ESI-QTOF; MS2; 60 V
Name: 2-Methylquinoline
Formula: C10H9N
Exact mass: 143.0735
SMILES: CC1=NC2=CC=CC=C2C=C1
InChI: InChI=1S/C10H9N/c1-8-6-7-9-4-2-3-5-10(9)11-8/h2-7H,1H3
Instrument: TripleTOF X500R SCIEX
Instrument type: LC-ESI-QTOF
Ms type: MS2
Ion mode: POSITIVE
Collision energy: 60
Fragmentation mode: CID
Ionization: ESI
Column name: Zorbax Eclipse Plus C18 2.1 mm x 150 mm, 3.5 um, Agilent
Retention time: 4.69 min
Precursor m/z: 144.0808
Precursor type: [M+H]+
m/z	relative intensity
39.0229	24
50.015	168
51.0232	999
52.0317	14
63.0231	31
65.0387	33
74.0154	57
75.023	142
76.0311	72
77.0389	777
78.0468	33
89.0383	79
90.0461	14
91.0546	40
101.0391	144
102.0471	262
103.0548	16
115.055	257
116.049	12
116.0634	19
117.0583	40
127.0413	9
128.0501	146
129.0558	12
140.051	19
141.0571	26
142.0641	16
143.0739	50
