Mass spectrum: o-Aminoazotoluene; LC-ESI-QTOF; MS2; 80 V
Name: o-Aminoazotoluene
Formula: C14H15N3
Exact mass: 225.1266
SMILES: CC1=CC=CC=C1N=NC2=CC(=C(C=C2)N)C
InChI: InChI=1S/C14H15N3/c1-10-5-3-4-6-14(10)17-16-12-7-8-13(15)11(2)9-12/h3-9H,15H2,1-2H3
Instrument: TripleTOF X500R SCIEX
Instrument type: LC-ESI-QTOF
Ms type: MS2
Ion mode: POSITIVE
Collision energy: 80
Fragmentation mode: CID
Ionization: ESI
Column name: Zorbax Eclipse Plus C18 2.1 mm x 150 mm, 3.5 um, Agilent
Retention time: 13.733 min
Precursor m/z: 226.1339
Precursor type: [M+H]+
m/z	relative intensity
37.0073	39
38.0152	48
39.0228	453
40.0305	11
41.0385	76
42.0338	12
50.0149	56
51.0229	284
53.0384	23
62.0153	48
63.0228	304
64.031	91
65.0384	493
66.0465	25
67.0535	17
75.023	26
77.0387	316
78.0333	35
79.0542	73
80.0492	33
89.0384	999
90.0463	46
91.0542	99
92.0482	25
93.057	57
94.0652	38
102.0361	13
104.0499	18
105.0452	26
106.0652	183
107.0729	25
115.0542	24
119.0607	17
139.0551	31
140.0496	20
152.0612	14
163.0552	18
164.0542	19
165.0689	14
166.0642	18
167.0717	14
192.0706	13
