Mass spectrum: Amitriptyline; LC-ESI-QTOF; MS2; 40 V
Name: Amitriptyline
Class: Pharmaceutical
Formula: C20H23N
Exact mass: 277.183
SMILES: CN(C)CCC=C1C2=CC=CC=C2CCC3=CC=CC=C31
InChI: InChI=1S/C20H23N/c1-21(2)15-7-12-20-18-10-5-3-8-16(18)13-14-17-9-4-6-11-19(17)20/h3-6,8-12H,7,13-15H2,1-2H3
Instrument: TripleTOF 6600 SCIEX
Instrument type: LC-ESI-QTOF
Ms type: MS2
Ion mode: POSITIVE
Collision energy: 40
Fragmentation mode: CID
Ionization: ESI
Column name: Zorbax Eclipse Plus C18 2.1 mm x 150 mm, 3.5 um, Agilent
Retention time: 8.708 min
Precursor m/z: 278.1903
Precursor type: [M+H]+
m/z	relative intensity
58.0651	51
65.0384	21
70.0651	22
77.0385	44
79.0543	56
84.081	154
85.0881	12
91.0545	999
103.0539	63
105.0701	707
115.0542	194
117.0703	731
127.0538	21
128.0619	45
129.0701	202
141.0699	75
153.0699	59
154.0778	23
155.0855	234
165.0696	36
178.078	316
179.0858	239
189.0701	35
190.078	109
191.0861	869
192.0936	118
193.1011	67
202.0779	66
203.0861	521
204.0937	288
205.1015	348
215.0855	20
216.0935	32
217.1016	190
218.1097	507
231.1168	26
233.1334	98
