Mass spectrum: Allethrin; LC-ESI-QTOF; MS2; 90 V
Name: Allethrin
Class: Insecticide
Formula: C19H26O3
Exact mass: 302.1882
SMILES: CC(C)=CC1C(C(=O)OC2CC(=O)C(=C2C)CC=C)C1(C)C
InChI: InChI=1S/C19H26O3/c1-7-8-13-12(4)16(10-15(13)20)22-18(21)17-14(9-11(2)3)19(17,5)6/h7,9,14,16-17H,1,8,10H2,2-6H3
Instrument: TripleTOF 5600 SCIEX
Instrument type: LC-ESI-QTOF
Ms type: MS2
Ion mode: POSITIVE
Collision energy: 90
Fragmentation mode: CID
Ionization: ESI
Column name: Zorbax Eclipse Plus C18 2.1 mm x 150 mm, 3.5 um, Agilent
Retention time: 16.132 min
Precursor m/z: 303.1955
Precursor type: [M+H]+
m/z	relative intensity
55.058	48
65.0422	492
66.0498	28
67.0576	96
77.0409	810
77.0774	24
78.0469	19
79.0566	405
81.0714	115
85.0656	24
89.0395	24
91.0553	999
91.0874	28
92.0621	19
93.0716	43
94.0404	24
95.0876	24
102.0466	28
103.0546	86
105.0691	154
107.0503	43
107.0881	24
115.0538	308
116.0611	28
117.0688	28
127.0547	19
128.0606	62
129.0688	19
141.0684	38
165.0725	19
