Mass spectrum: Bisoprolol; LC-ESI-QTOF; MS2; 35 V
Name: Bisoprolol
Class: Pharmaceutical
Formula: C18H31NO4
Exact mass: 325.2253
SMILES: CC(C)NCC(COC1=CC=C(C=C1)COCCOC(C)C)O
InChI: InChI=1S/C18H31NO4/c1-14(2)19-11-17(20)13-23-18-7-5-16(6-8-18)12-21-9-10-22-15(3)4/h5-8,14-15,17,19-20H,9-13H2,1-4H3
Instrument: TripleTOF 5600 SCIEX
Instrument type: LC-ESI-QTOF
Ms type: MS2
Ion mode: POSITIVE
Collision energy: 35
Fragmentation mode: CID
Ionization: ESI
Column name: Zorbax Eclipse Plus C18 2.1 mm x 150 mm, 3.5 um, Agilent
Retention time: 7.01 min
Precursor m/z: 326.2326
Precursor type: [M+H]+
m/z	relative intensity
56.0482	387
58.0638	28
72.0811	315
74.0601	892
75.0434	45
91.0545	42
98.0968	224
107.0476	111
116.1055	999
119.048	47
121.0659	23
133.0651	96
145.0649	81
147.0772	130
162.0919	141
163.0743	44
204.1395	51
326.2326	51
