Mass spectrum: Pendimethalin; LC-ESI-QTOF; MS2; 40 V
Name: Pendimethalin
Class: Herbicide
Formula: C13H19N3O4
Exact mass: 281.1376
SMILES: CCC(CC)Nc1c(cc(c(c1[N+](=O)[O-])C)C)[N+](=O)[O-]
InChI: InChI=1S/C13H19N3O4/c1-5-10(6-2)14-12-11(15(17)18)7-8(3)9(4)13(12)16(19)20/h7,10,14H,5-6H2,1-4H3
Instrument: TripleTOF 6600 SCIEX
Instrument type: LC-ESI-QTOF
Ms type: MS2
Ion mode: POSITIVE
Collision energy: 40
Fragmentation mode: CID
Ionization: ESI
Column name: Zorbax Eclipse Plus C18 2.1 mm x 150 mm, 3.5 um, Agilent
Retention time: 16.198 min
Precursor m/z: 282.1448
Precursor type: [M+H]+
m/z	relative intensity
38.016	13
39.024	65
41.0391	160
42.0346	19
43.0187	42
43.055	409
50.0161	16
51.0236	68
52.0192	32
52.0313	22
53.0145	13
53.0387	160
54.0343	22
55.0183	16
55.055	26
63.023	36
64.0314	85
65.0261	22
65.0392	373
66.0222	19
66.0343	137
66.0468	75
67.0305	16
67.042	65
67.0536	26
68.0127	16
68.0498	29
69.9939	13
71.0858	55
76.0197	22
76.0307	39
77.0263	52
77.0391	157
78.0347	311
79.0291	19
79.0416	39
79.0547	75
80.0497	248
81.0337	26
81.0577	32
82.0418	13
89.0386	39
90.0346	78
90.0461	39
91.0425	635
91.0539	78
92.0386	55
92.0501	622
93.0087	22
93.046	75
93.0576	140
94.0279	45
94.0411	39
94.066	42
95.049	19
95.0605	16
96.0453	19
96.0576	42
102.0344	49
103.0417	337
104.0368	124
104.0493	186
105.0452	314
106.029	81
106.0533	19
106.0656	98
107.035	22
107.0458	13
107.0609	88
108.0451	68
108.0686	13
109.0399	39
110.0618	13
116.0503	39
117.0446	206
117.0576	62
118.0533	494
119.0388	16
119.0613	877
120.0198	104
120.0444	160
120.0678	163
121.0038	26
121.0412	104
121.0779	19
122.0474	108
126.0569	72
129.0451	167
130.0403	72
130.0519	137
131.0237	16
131.0478	45
131.0603	307
132.0325	16
132.0561	117
133.0392	121
133.0643	32
134.0632	55
135.056	91
136.0632	65
145.0402	52
146.0477	19
147.0561	396
148.0635	999
149.0601	271
150.0669	19
160.0516	114
161.0572	16
162.0351	16
164.0585	170
166.0731	42
176.0462	75
177.0541	258
178.0619	376
194.0565	458
195.0645	278
212.0668	245
