Mass spectrum: Citalopram-N-oxide; LC-ESI-QTOF; MS2; 60 V
Name: Citalopram-N-oxide
Class: Metabolite; Pharmaceutical; Transformation_product; Transformation_product-Metabolite
Formula: C20H21FN2O2
Exact mass: 340.1587
SMILES: C[N+](C)(CCCC1(C2=C(CO1)C=C(C=C2)C#N)C3=CC=C(C=C3)F)[O-]
InChI: InChI=1S/C20H21FN2O2/c1-23(2,24)11-3-10-20(17-5-7-18(21)8-6-17)19-9-4-15(13-22)12-16(19)14-25-20/h4-9,12H,3,10-11,14H2,1-2H3
Instrument: TripleTOF 5600 SCIEX
Instrument type: LC-ESI-QTOF
Ms type: MS2
Ion mode: POSITIVE
Collision energy: 60
Fragmentation mode: CID
Ionization: ESI
Column name: Zorbax Eclipse Plus C18 2.1 mm x 150 mm, 3.5 um, Agilent
Retention time: 7.958 min
Precursor m/z: 341.166
Precursor type: [M+H]+
m/z	relative intensity
58.0704	31
83.0317	92
89.0404	71
95.0303	15
109.0458	999
115.0543	19
116.05	220
121.0451	10
123.0242	20
127.0542	14
128.0616	20
129.0702	29
133.0447	20
139.0539	35
140.0493	119
146.0518	10
156.0812	13
166.0649	111
183.0605	26
189.07	10
190.0649	70
194.0523	10
195.0598	24
200.0498	27
202.0723	25
207.0604	82
208.0559	111
213.0695	10
214.0657	69
215.0853	77
218.059	39
219.0592	50
220.066	162
221.0634	221
222.0716	43
226.0654	50
227.0732	299
228.0802	15
232.0549	50
233.0737	97
234.0716	267
235.0802	28
237.0566	19
240.0807	124
241.0882	46
242.0959	11
244.0672	30
245.0636	103
246.0718	464
247.0787	265
258.0732	14
259.0791	18
260.086	43
261.0941	39
262.1017	20
