Mass spectrum: Fenarimol; LC-ESI-QTOF; MS2; 110 V
Name: Fenarimol
Class: Fungicide
Formula: C17H12Cl2N2O
Exact mass: 330.0327
SMILES: C1=CC=C(C(=C1)C(C2=CC=C(C=C2)Cl)(C3=CN=CN=C3)O)Cl
InChI: InChI=1S/C17H12Cl2N2O/c18-14-7-5-12(6-8-14)17(22,13-9-20-11-21-10-13)15-3-1-2-4-16(15)19/h1-11,22H
Instrument: TripleTOF 6600 SCIEX
Instrument type: LC-ESI-QTOF
Ms type: MS2
Ion mode: POSITIVE
Collision energy: 110
Fragmentation mode: CID
Ionization: ESI
Column name: Zorbax Eclipse Plus C18 2.1 mm x 150 mm, 3.5 um, Agilent
Retention time: 11.9 min
Precursor m/z: 331.04
Precursor type: [M+H]+
m/z	relative intensity
50.0148	48
51.0227	52
52.0179	17
54.0339	122
63.0226	20
73.0071	24
74.0149	405
75.0229	999
76.0303	41
77.0386	41
81.0443	34
84.9836	87
87.0216	20
89.0377	27
98.0157	17
99.0216	13
102.0455	20
110.9992	251
111.0224	17
113.0376	17
114.0452	20
115.0532	24
126.0455	17
137.0381	31
139.0048	80
139.0536	38
150.0458	87
151.0538	111
152.0619	31
161.0379	73
162.0468	73
163.0541	258
164.047	13
164.0616	17
175.0531	34
176.062	136
185.0382	27
186.0472	118
187.0544	782
188.0621	213
189.0694	129
190.0635	24
200.0597	17
201.058	34
202.0635	34
203.0726	31
204.0805	13
212.05	27
213.0558	17
214.0649	76
216.08	17
