Mass spectrum: Proquinazid; LC-ESI-QTOF; MS2; 90 V
Name: Proquinazid
Class: Fungicide
Formula: C14H17IN2O2
Exact mass: 372.0335
SMILES: CCCN1C(=O)C2=C(C=CC(=C2)I)N=C1OCCC
InChI: InChI=1S/C14H17IN2O2/c1-3-7-17-13(18)11-9-10(15)5-6-12(11)16-14(17)19-8-4-2/h5-6,9H,3-4,7-8H2,1-2H3
Instrument: TripleTOF 6600 SCIEX
Instrument type: LC-ESI-QTOF
Ms type: MS2
Ion mode: POSITIVE
Collision energy: 90
Fragmentation mode: CID
Ionization: ESI
Column name: Zorbax Eclipse Plus C18 2.1 mm x 150 mm, 3.5 um, Agilent
Retention time: 17.121 min
Precursor m/z: 373.0408
Precursor type: [M+H]+
m/z	relative intensity
38.0189	10
39.027	14
41.0425	20
60.0029	15
61.0109	56
62.0191	239
63.0263	23
64.0342	17
65.0295	18
66.0138	42
88.0216	94
89.0299	394
90.0369	14
91.0452	38
92.0287	47
116.0398	74
117.0242	315
119.0397	27
140.9215	24
144.0336	26
145.0183	174
162.0446	25
164.9207	58
188.9202	30
215.9313	999
242.9392	10
270.9335	10
271.9188	65
