Mass spectrum: Sulfapyridine; LC-ESI-QTOF; MS2; 40 V
Name: Sulfapyridine
Class: Antimicrobial; Pharmaceutical
Formula: C11H11N3O2S
Exact mass: 249.0572
SMILES: C1=CC=NC(=C1)NS(=O)(=O)C2=CC=C(C=C2)N
InChI: InChI=1S/C11H11N3O2S/c12-9-4-6-10(7-5-9)17(15,16)14-11-3-1-2-8-13-11/h1-8H,12H2,(H,13,14)
Instrument: TripleTOF 5600 SCIEX
Instrument type: LC-ESI-QTOF
Ms type: MS2
Ion mode: POSITIVE
Collision energy: 40
Fragmentation mode: CID
Ionization: ESI
Column name: Zorbax Eclipse Plus C18 2.1 mm x 150 mm, 3.5 um, Agilent
Retention time: 5.55 min
Precursor m/z: 250.0645
Precursor type: [M+H]+
m/z	relative intensity
65.0448	291
67.0471	43
78.038	63
80.0521	109
92.0515	999
93.0525	139
94.0549	102
95.0617	390
108.0444	857
156.0089	152
157.0028	25
157.0723	14
166.0516	10
167.0574	140
168.0649	32
169.076	13
183.0767	44
184.0837	420
