Mass spectrum: Parathion; LC-ESI-QTOF; MS2; 40 V
Name: Parathion
Class: Insecticide
Formula: C10H14NO5PS
Exact mass: 291.033
SMILES: CCOP(=S)(OCC)Oc1ccc(cc1)[N+](=O)[O-]
InChI: InChI=1S/C10H14NO5PS/c1-3-14-17(18,15-4-2)16-10-7-5-9(6-8-10)11(12)13/h5-8H,3-4H2,1-2H3
Instrument: TripleTOF 5600 SCIEX
Instrument type: LC-ESI-QTOF
Ms type: MS2
Ion mode: POSITIVE
Collision energy: 40
Fragmentation mode: CID
Ionization: ESI
Column name: Zorbax Eclipse Plus C18 2.1 mm x 150 mm, 3.5 um, Agilent
Retention time: 14.107 min
Precursor m/z: 292.0403
Precursor type: [M+H]+
m/z	relative intensity
65.0396	22
66.0503	33
75.0276	33
93.0339	73
93.0574	39
94.0421	564
94.0689	39
96.9514	299
108.0035	22
109.0115	45
110.0177	383
122.9901	39
123.0308	412
125.0042	45
126.0127	22
139.0083	39
140.0331	265
153.9949	33
154.9686	33
155.9957	163
156.0081	163
171.9736	163
184.9793	22
187.969	28
189.9816	220
201.986	39
217.9644	225
218.9717	84
235.9749	999
