Mass spectrum: 14-Hydroxycodeinone; LC-ESI-QTOF; MS2; 130 V
Name: 14-Hydroxycodeinone
Class: Pharmaceutical; Transformation_product
Formula: C18H19NO4
Exact mass: 313.1314
SMILES: COc1ccc2C[C@H]3N(C)CC[C@@]45C(Oc1c24)C(=O)C=C[C@@]35O
InChI: InChI=1S/C18H19NO4/c1-19-8-7-17-14-10-3-4-12(22-2)15(14)23-16(17)11(20)5-6-18(17,21)13(19)9-10/h3-6,13,16,21H,7-9H2,1-2H3/t13-,16?,17+,18-/m1/s1
Instrument: TripleTOF 5600 SCIEX
Instrument type: LC-ESI-QTOF
Ms type: MS2
Ion mode: POSITIVE
Collision energy: 130
Fragmentation mode: CID
Ionization: ESI
Column name: Zorbax Eclipse Plus C18 2.1 mm x 150 mm, 3.5 um, Agilent
Retention time: 5.367 min
Precursor m/z: 314.1387
Precursor type: [M+H]+
m/z	relative intensity
42.0434	21
51.0278	54
65.0412	84
74.0183	61
75.0248	80
76.0334	49
77.0413	210
78.0357	12
78.0483	29
85.0094	15
86.0154	35
87.0247	59
88.0314	42
89.0405	273
90.0496	12
91.0565	21
92.0498	12
93.0593	10
98.0165	33
99.0231	22
100.0317	14
101.0398	36
102.0469	96
103.0549	15
110.0159	12
113.0384	215
114.033	14
114.046	54
114.0595	10
115.0543	376
116.0492	29
117.0589	15
125.0388	43
126.0461	219
127.0543	187
128.0624	110
129.0539	14
130.0652	14
137.0388	47
138.0459	59
139.0548	999
140.0502	347
141.06	43
142.0655	24
149.0401	24
150.0466	205
151.0542	266
152.0619	436
153.06	101
154.0638	87
155.0662	10
161.0397	14
162.0456	35
163.0542	224
164.0586	150
165.069	94
166.0652	308
167.0721	77
168.08	22
174.0445	12
175.054	19
176.0489	10
176.062	57
177.0594	31
178.0638	64
179.0733	17
180.0813	64
181.089	17
188.0496	10
189.0611	22
190.0653	43
191.0733	29
