Mass spectrum: Amprolium; LC-ESI-QTOF; MS2; 30 V
Name: Amprolium
Class: Pharmaceutical
Formula: [C14H19N4]+
Exact mass: 243.1604
SMILES: CCCC1=NC=C(C[N+]2=CC=CC=C2C)C(N)=N1
InChI: InChI=1S/C14H19N4/c1-3-6-13-16-9-12(14(15)17-13)10-18-8-5-4-7-11(18)2/h4-5,7-9H,3,6,10H2,1-2H3,(H2,15,16,17)/q+1
Instrument: TripleTOF 5600 SCIEX
Instrument type: LC-ESI-QTOF
Ms type: MS2
Ion mode: POSITIVE
Collision energy: 30
Fragmentation mode: CID
Ionization: ESI
Column name: Zorbax Eclipse Plus C18 2.1 mm x 150 mm, 3.5 um, Agilent
Retention time: 4.163 min
Precursor m/z: 243.1604
Precursor type: [M]+
m/z	relative intensity
94.0658	262
108.0559	107
122.0709	254
135.0789	99
150.1024	999
