Mass spectrum: Flutamide; LC-ESI-QTOF; MS2; 120 V
Name: Flutamide
Class: Pharmaceutical
Formula: C11H11F3N2O3
Exact mass: 276.0722
SMILES: CC(C)C(=O)NC1=CC(=C(C=C1)[N+](=O)[O-])C(F)(F)F
InChI: InChI=1S/C11H11F3N2O3/c1-6(2)10(17)15-7-3-4-9(16(18)19)8(5-7)11(12,13)14/h3-6H,1-2H3,(H,15,17)
Instrument: TripleTOF 6600 SCIEX
Instrument type: LC-ESI-QTOF
Ms type: MS2
Ion mode: POSITIVE
Collision energy: 120
Fragmentation mode: CID
Ionization: ESI
Column name: Zorbax Eclipse Plus C18 2.1 mm x 150 mm, 3.5 um, Agilent
Retention time: 12.297 min
Precursor m/z: 277.0795
Precursor type: [M+H]+
m/z	relative intensity
35.9992	40
37.0071	244
38.0029	101
38.0143	203
39.0103	20
39.0224	999
40.0059	20
41.0248	20
41.0386	754
42.0324	20
43.0166	20
43.0543	101
44.0109	20
46.0061	20
51.0028	20
51.0074	20
51.0205	20
52.0161	40
53.0117	81
57.0133	61
64.0312	61
65.0376	81
68.0069	20
68.9933	20
70.0164	20
73.0057	40
74.0143	244
75.0039	163
75.0214	122
76.0256	40
77.0375	40
80.0036	20
81.0153	40
83.0293	142
84.0378	61
85.0063	20
87.021	20
88.0134	81
89.0421	40
93.0128	40
94.0174	20
95.029	81
98.0125	20
99.0018	61
99.0127	40
105.0113	20
111.0502	40
113.0191	20
114.0359	20
