Mass spectrum: Estrone 3-methyl ether; LC-ESI-QTOF; MS2; 70 V
Name: Estrone 3-methyl ether
Class: Pharmaceutical
Formula: C19H24O2
Exact mass: 284.1776
SMILES: C[C@]12CC[C@@H]3c4ccc(cc4CC[C@H]3[C@@H]1CCC2=O)OC
InChI: InChI=1S/C19H24O2/c1-19-10-9-15-14-6-4-13(21-2)11-12(14)3-5-16(15)17(19)7-8-18(19)20/h4,6,11,15-17H,3,5,7-10H2,1-2H3/t15-,16-,17+,19+/m1/s1
Instrument: TripleTOF 5600 SCIEX
Instrument type: LC-ESI-QTOF
Ms type: MS2
Ion mode: POSITIVE
Collision energy: 70
Fragmentation mode: CID
Ionization: ESI
Column name: Zorbax Eclipse Plus C18 2.1 mm x 150 mm, 3.5 um, Agilent
Retention time: 10.549 min
Precursor m/z: 285.1849
Precursor type: [M+H]+
m/z	relative intensity
65.0431	70
67.06	37
77.0411	197
78.0501	98
79.0563	84
81.0715	28
89.0428	18
91.0561	631
91.0842	42
93.0717	28
102.0456	94
103.0544	117
103.0711	28
104.0611	84
105.07	28
107.0473	80
115.0538	999
115.099	28
116.0615	150
117.0681	61
117.0816	18
119.0869	23
121.0646	61
127.0544	160
128.0617	852
128.0966	23
129.0688	193
130.0397	37
130.0764	51
131.0486	155
132.0568	108
139.0525	28
141.0686	287
142.081	51
143.0489	80
144.0567	65
145.0645	80
146.0708	18
147.0796	89
151.0564	51
152.0616	188
153.0701	245
154.0795	47
155.0843	42
156.0563	28
157.0668	51
158.072	169
164.059	23
165.0699	292
166.077	47
167.0857	80
169.0682	51
170.0743	23
171.0797	122
173.0966	23
178.0803	108
179.0844	70
181.065	61
182.0727	47
183.0789	37
185.0981	28
195.0789	32
195.095	18
196.0884	28
211.1133	23
