Mass spectrum: Allopurinol riboside; LC-ESI-QTOF; MS2; 10 V
Name: Allopurinol riboside
Class: Pharmaceutical; Metabolite
Formula: C10H12N4O5
Exact mass: 268.0808
SMILES: OCC1OC(C(O)C1O)N2NC=C3C(=O)N=CN=C23
InChI: InChI=1S/C10H12N4O5/c15-2-5-6(16)7(17)10(19-5)14-8-4(1-13-14)9(18)12-3-11-8/h1,3,5-7,10,13,15-17H,2H2
Instrument: TripleTOF 5600 SCIEX
Instrument type: LC-ESI-QTOF
Ms type: MS2
Ion mode: POSITIVE
Collision energy: 10
Fragmentation mode: CID
Ionization: ESI
Column name: Zorbax Eclipse Plus C18 2.1 mm x 150 mm, 3.5 um, Agilent
Retention time: 4.313 min
Precursor m/z: 269.088
Precursor type: [M+H]+
m/z	relative intensity
137.0455	784
269.0881	999
