Mass spectrum: Fluquinconazole; LC-ESI-QTOF; MS2; 120 V
Name: Fluquinconazole
Class: Fungicide
Formula: C16H8Cl2FN5O
Exact mass: 375.009
SMILES: C1=CC2=C(C=C1F)C(=O)N(C(=N2)N3C=NC=N3)C4=C(C=C(C=C4)Cl)Cl
InChI: InChI=1S/C16H8Cl2FN5O/c17-9-1-4-14(12(18)5-9)24-15(25)11-6-10(19)2-3-13(11)22-16(24)23-8-20-7-21-23/h1-8H
Instrument: TripleTOF 6600 SCIEX
Instrument type: LC-ESI-QTOF
Ms type: MS2
Ion mode: POSITIVE
Collision energy: 120
Fragmentation mode: CID
Ionization: ESI
Column name: Zorbax Eclipse Plus C18 2.1 mm x 150 mm, 3.5 um, Agilent
Retention time: 12.549 min
Precursor m/z: 376.0163
Precursor type: [M+H]+
m/z	relative intensity
30.9973	84
33.0134	45
37.0075	27
39.0224	15
48.9827	79
50.0149	13
57.0131	703
58.0082	34
61.0065	49
62.0142	20
63.0221	31
64.0178	152
68.0066	27
72.9828	202
73.007	38
73.979	13
74.014	347
75.0223	52
76.0172	13
81.0125	356
82.0079	999
82.945	20
83.0292	13
83.9747	11
84.9819	11
87.0103	9
88.0174	54
93.0133	15
94.0208	27
96.9831	40
97.9783	43
99.0091	86
100.0173	217
105.0114	15
106.0074	11
106.0194	15
108.0234	821
108.9822	129
112.0176	11
123.9937	56
131.0268	18
132.0238	18
132.9588	29
135.0087	11
135.9933	20
155.0284	45
156.0221	27
158.0416	13
162.0363	22
163.9982	20
180.0243	27
181.0336	34
182.0378	120
183.0379	20
189.0422	13
207.0346	15
