Mass spectrum: Hydrocortisone; LC-ESI-QTOF; MS2; 110 V
Name: Hydrocortisone
Class: Pharmaceutical
Formula: C21H30O5
Exact mass: 362.2093
SMILES: C[C@]12CCC(=O)C=C1CC[C@H]3[C@@H]4CC[C@](O)(C(=O)CO)[C@@]4(C)C[C@H](O)[C@H]23
InChI: InChI=1S/C21H30O5/c1-19-7-5-13(23)9-12(19)3-4-14-15-6-8-21(26,17(25)11-22)20(15,2)10-16(24)18(14)19/h9,14-16,18,22,24,26H,3-8,10-11H2,1-2H3/t14-,15-,16-,18+,19-,20-,21-/m0/s1
Instrument: TripleTOF 5600 SCIEX
Instrument type: LC-ESI-QTOF
Ms type: MS2
Ion mode: POSITIVE
Collision energy: 110
Fragmentation mode: CID
Ionization: ESI
Column name: Zorbax Eclipse Plus C18 2.1 mm x 150 mm, 3.5 um, Agilent
Retention time: 8.323 min
Precursor m/z: 363.2166
Precursor type: [M+H]+
m/z	relative intensity
43.0259	36
43.0336	20
55.0264	24
65.0438	199
66.0536	20
67.0584	48
69.0742	28
75.0272	24
77.0417	999
78.0481	44
79.0564	236
81.0371	16
81.0719	28
83.053	28
89.0397	48
91.0559	892
93.0703	28
94.042	20
95.0854	20
97.066	53
102.0467	73
103.0543	179
104.0639	28
105.0454	16
105.07	203
107.0493	48
109.0681	20
115.0538	868
116.0633	93
117.07	118
119.0872	53
121.0653	48
126.047	44
127.0545	252
127.0738	16
128.0618	880
129.0701	179
130.0782	28
131.0499	40
131.0849	28
139.0528	20
141.0689	293
142.0764	44
145.0723	20
147.0777	36
151.0542	69
152.0619	346
153.0697	195
154.0745	36
155.0838	65
157.0661	28
164.0597	28
165.069	350
166.0772	32
167.0865	53
176.062	20
177.0694	24
178.0786	142
179.0867	40
189.0712	77
190.0772	40
191.0845	32
202.0806	53
203.0807	20
215.081	20
