Mass spectrum: N,N-didesmethyl-venlafaxine; LC-ESI-QTOF; MS2; 40 V
Name: N,N-didesmethyl-venlafaxine
Class: Pharmaceutical; Transformation_product; Transformation_product-Metabolite
Formula: C15H23NO2
Exact mass: 249.1729
SMILES: COC1=CC=C(C=C1)C(CN)C2(CCCCC2)O
InChI: InChI=1S/C15H23NO2/c1-18-13-7-5-12(6-8-13)14(11-16)15(17)9-3-2-4-10-15/h5-8,14,17H,2-4,9-11,16H2,1H3
Instrument: TripleTOF 5600 SCIEX
Instrument type: LC-ESI-QTOF
Ms type: MS2
Ion mode: POSITIVE
Collision energy: 40
Fragmentation mode: CID
Ionization: ESI
Column name: Zorbax Eclipse Plus C18 2.1 mm x 150 mm, 3.5 um, Agilent
Retention time: 6.316 min
Precursor m/z: 250.1802
Precursor type: [M+H]+
m/z	relative intensity
65.0391	9
69.0733	19
77.0415	57
78.0484	19
79.0559	59
81.0708	50
91.0554	344
93.0701	31
105.0688	16
107.0483	31
107.0851	21
115.0533	45
116.0597	14
117.069	50
119.0849	43
121.0646	999
127.0534	14
128.0611	14
128.0737	11
129.0668	19
131.0466	11
132.0563	76
135.0791	47
141.0671	16
144.0578	28
145.0637	26
147.0793	395
158.0716	88
159.0803	141
161.0965	14
173.0952	141
215.141	16
