Mass spectrum: Bixafen; LC-ESI-QTOF; MS2; 110 V
Name: Bixafen
Class: Fungicide
Formula: C18H12Cl2F3N3O
Exact mass: 413.031
SMILES: CN1C=C(C(=N1)C(F)F)C(=O)NC2=C(C=C(C=C2)F)C3=CC(=C(C=C3)Cl)Cl
InChI: InChI=1S/C18H12Cl2F3N3O/c1-26-8-12(16(25-26)17(22)23)18(27)24-15-5-3-10(21)7-11(15)9-2-4-13(19)14(20)6-9/h2-8,17H,1H3,(H,24,27)
Instrument: TripleTOF 6600 SCIEX
Instrument type: LC-ESI-QTOF
Ms type: MS2
Ion mode: POSITIVE
Collision energy: 110
Fragmentation mode: CID
Ionization: ESI
Column name: Zorbax Eclipse Plus C18 2.1 mm x 150 mm, 3.5 um, Agilent
Retention time: 13.359 min
Precursor m/z: 414.0382
Precursor type: [M+H]+
m/z	relative intensity
42.0341	69
43.0282	17
57.0123	27
74.0137	27
75.0227	39
82.0296	11
94.0221	15
98.0141	45
99.0217	77
107.0275	15
109.0392	23
116.0065	11
117.0124	13
122.0138	43
123.0218	206
124.0177	33
125.0373	9
131.0322	21
141.0123	25
142.0235	15
143.0274	65
144.0364	27
145.0295	11
146.0134	25
147.0224	87
148.0155	95
149.0378	386
150.0391	53
154.0242	11
155.0294	15
157.0422	23
158.0392	43
159.0331	23
161.0352	25
162.0309	13
163.0493	19
164.0462	9
166.0193	37
167.0273	376
168.0354	698
169.0434	999
170.0396	85
173.0346	59
174.0327	270
175.0397	97
176.0496	107
177.0502	21
177.9968	19
179.0256	45
180.0356	87
181.0426	204
182.041	85
183.0348	9
183.0488	15
184.007	39
185.0012	13
185.0333	15
186.0349	45
187.046	65
188.0484	115
189.0489	11
192.0368	47
193.0306	364
194.039	579
195.0473	531
196.0555	276
197.0471	63
198.0421	33
199.0464	65
200.052	133
201.0581	67
201.997	99
202.0576	15
203.0063	23
204.0122	360
204.0515	29
205.0432	451
206.0401	523
207.0478	246
208.0528	179
209.0016	39
210.0232	13
211.0165	13
211.0368	9
212.0477	79
213.0468	103
214.0451	17
214.0563	37
215.0057	57
215.0617	25
216.0126	13
217.026	35
217.0485	11
218.048	113
219.0479	161
220.0543	212
221.0615	135
222.0111	23
222.0443	133
222.0738	15
224.0229	9
225.0525	17
225.0661	13
226.0546	25
226.0672	41
227.0608	51
227.0841	11
228.0119	11
228.056	39
229.0082	425
230.0144	25
230.0375	97
231.0387	177
232.0534	519
233.0511	328
234.0579	91
235.0176	17
235.069	15
240.0091	13
240.0507	21
241.0183	71
242.0151	67
243.0467	25
244.0532	81
245.0603	159
246.0682	218
247.0661	87
248.0305	11
250.0295	11
253.0021	17
254.0098	19
255.0198	19
256.023	17
256.0439	17
257.053	29
258.0446	11
258.0626	23
259.0541	37
260.0623	35
266.0142	41
266.0311	11
267.0161	21
268.0183	27
274.0756	21
274.982	17
275.977	23
280.0262	37
281.0247	13
294.0265	15
295.0288	11
308.0256	17
