Mass spectrum: Valsartan; LC-ESI-QTOF; MS2; 60 V
Name: Valsartan
Class: Pharmaceutical
Formula: C24H29N5O3
Exact mass: 435.227
SMILES: CCCCC(=O)N(Cc1ccc(cc1)c2ccccc2c3n[nH]nn3)[C@@H](C(C)C)C(O)=O
InChI: InChI=1S/C24H29N5O3/c1-4-5-10-21(30)29(22(16(2)3)24(31)32)15-17-11-13-18(14-12-17)19-8-6-7-9-20(19)23-25-27-28-26-23/h6-9,11-14,16,22H,4-5,10,15H2,1-3H3,(H,31,32)(H,25,26,27,28)/t22-/m0/s1
Instrument: TripleTOF 5600 SCIEX
Instrument type: LC-ESI-QTOF
Ms type: MS2
Ion mode: POSITIVE
Collision energy: 60
Fragmentation mode: CID
Ionization: ESI
Column name: Zorbax Eclipse Plus C18 2.1 mm x 150 mm, 3.5 um, Agilent
Retention time: 11.443 min
Precursor m/z: 436.2343
Precursor type: [M+H]+
m/z	relative intensity
57.0739	13
77.041	25
80.0521	11
115.0533	20
129.0453	14
140.0494	68
141.0703	9
151.0544	49
152.0619	176
153.0697	377
154.065	13
163.054	91
164.0609	22
165.0697	153
166.0669	58
167.075	57
168.0682	16
177.0616	31
178.0767	454
179.0735	183
180.0813	999
181.0652	70
189.0562	13
190.0656	784
191.0727	159
192.0718	439
193.089	78
194.0965	52
195.0806	19
205.0759	352
206.084	522
207.0918	646
208.0755	140
209.1067	34
235.0907	40
291.15	17
