Mass spectrum: 2-Morpholin-4-yl-benzothiazole; LC-ESI-QTOF; MS2; 100 V
Name: 2-Morpholin-4-yl-benzothiazole
Class: Industrial_process
Formula: C11H12N2OS
Exact mass: 220.067
SMILES: c1ccc2c(c1)nc(s2)N3CCOCC3
InChI: InChI=1S/C11H12N2OS/c1-2-4-10-9(3-1)12-11(15-10)13-5-7-14-8-6-13/h1-4H,5-8H2
Instrument: TripleTOF 5600 SCIEX
Instrument type: LC-ESI-QTOF
Ms type: MS2
Ion mode: POSITIVE
Collision energy: 100
Fragmentation mode: CID
Ionization: ESI
Column name: Zorbax Eclipse Plus C18 2.1 mm x 150 mm, 3.5 um, Agilent
Retention time: 9.363 min
Precursor m/z: 221.0743
Precursor type: [M+H]+
m/z	relative intensity
37.0145	28
51.029	186
52.0348	14
53.0428	64
57.9926	47
64.0331	31
64.0429	19
64.0556	11
65.0432	596
67.9744	50
68.9833	999
69.0135	16
69.0298	14
69.9896	122
74.0171	16
75.0242	19
76.0306	19
77.041	191
78.0363	21
78.05	9
80.0517	103
80.9804	26
81.9895	237
89.0394	155
90.0396	69
91.0421	43
91.053	38
91.9757	11
92.98	98
93.976	11
94.9955	160
96.0034	150
97.0108	16
104.0491	9
105.0475	16
106.9968	35
108.0023	287
109.0101	126
115.054	14
117.0551	19
121.0078	11
122.0045	35
128.0604	23
133.0004	11
136.0215	11
