Mass spectrum: 4-Methoxyphenol; LC-ESI-QTOF; MS2; 20 V
Name: 4-Methoxyphenol
Class: Food_additive; Industrial_process; Metabolite; Pharmaceutical
Formula: C7H8O2
Exact mass: 124.0524
SMILES: COc1ccc(O)cc1
InChI: InChI=1S/C7H8O2/c1-9-7-4-2-6(8)3-5-7/h2-5,8H,1H3
Instrument: TripleTOF 5600 SCIEX
Instrument type: LC-ESI-QTOF
Ms type: MS2
Ion mode: POSITIVE
Collision energy: 20
Fragmentation mode: CID
Ionization: ESI
Column name: Zorbax Eclipse Plus C18 2.1 mm x 150 mm, 3.5 um, Agilent
Retention time: 6.955 min
Precursor m/z: 125.0597
Precursor type: [M+H]+
m/z	relative intensity
65.0424	261
77.0411	76
82.0424	105
92.0272	25
93.0347	335
94.0416	82
109.0289	22
110.0365	999
125.0596	771
