Mass spectrum: 2`-Deoxyguanosine; LC-ESI-QTOF; MS2; 10 V
Name: 2`-Deoxyguanosine
Class: Natural_product
Formula: C10H13N5O4
Exact mass: 267.0968
SMILES: C1C(C(OC1N2C=NC3=C2NC(=NC3=O)N)CO)O
InChI: InChI=1S/C10H13N5O4/c11-10-13-8-7(9(18)14-10)12-3-15(8)6-1-4(17)5(2-16)19-6/h3-6,16-17H,1-2H2,(H3,11,13,14,18)
Instrument: TripleTOF 5600 SCIEX
Instrument type: LC-ESI-QTOF
Ms type: MS2
Ion mode: POSITIVE
Collision energy: 10
Fragmentation mode: CID
Ionization: ESI
Column name: Zorbax Eclipse Plus C18 2.1 mm x 150 mm, 3.5 um, Agilent
Retention time: 4.09 min
Precursor m/z: 268.104
Precursor type: [M+H]+
m/z	relative intensity
152.0578	999
