Mass spectrum: 2-Methoxyethyl-N-(3-aminophenyl)carbamate; LC-ESI-QTOF; MS2; 100 V
Name: 2-Methoxyethyl-N-(3-aminophenyl)carbamate
Class: Industrial_process
Formula: C10H14N2O3
Exact mass: 210.1004
SMILES: COCCOC(=O)NC1=CC=CC(=C1)N
InChI: InChI=1S/C10H14N2O3/c1-14-5-6-15-10(13)12-9-4-2-3-8(11)7-9/h2-4,7H,5-6,11H2,1H3,(H,12,13)
Instrument: TripleTOF 5600 SCIEX
Instrument type: LC-ESI-QTOF
Ms type: MS2
Ion mode: POSITIVE
Collision energy: 100
Fragmentation mode: CID
Ionization: ESI
Column name: Zorbax Eclipse Plus C18 2.1 mm x 150 mm, 3.5 um, Agilent
Retention time: 4.802 min
Precursor m/z: 211.1077
Precursor type: [M+H]+
m/z	relative intensity
43.0332	374
65.0453	999
80.0531	686
