Mass spectrum: Omeprazole; LC-ESI-QTOF; MS2; 140 V
Name: Omeprazole
Class: Pharmaceutical
Formula: C17H19N3O3S
Exact mass: 345.1147
SMILES: COc1ccc2nc([nH]c2c1)[S](=O)Cc3ncc(C)c(OC)c3C
InChI: InChI=1S/C17H19N3O3S/c1-10-8-18-15(11(2)16(10)23-4)9-24(21)17-19-13-6-5-12(22-3)7-14(13)20-17/h5-8H,9H2,1-4H3,(H,19,20)
Instrument: TripleTOF 5600 SCIEX
Instrument type: LC-ESI-QTOF
Ms type: MS2
Ion mode: POSITIVE
Collision energy: 140
Fragmentation mode: CID
Ionization: ESI
Column name: Zorbax Eclipse Plus C18 2.1 mm x 150 mm, 3.5 um, Agilent
Retention time: 6.462 min
Precursor m/z: 346.122
Precursor type: [M+H]+
m/z	relative intensity
42.0465	54
52.0268	10
52.0352	19
53.046	97
54.0459	10
65.0456	312
66.0527	86
67.0527	138
68.0574	13
68.9862	23
69.9897	10
77.0436	999
78.0385	223
79.0583	439
80.0534	173
81.0717	34
81.9934	17
82.9872	36
89.0418	19
91.0411	23
91.0565	190
92.0534	312
93.0603	249
94.0673	73
96.0028	10
103.055	28
104.0504	99
105.0573	71
106.0665	602
107.0737	147
108.082	238
109.0019	10
109.0096	15
110.0058	21
117.0597	26
118.0653	52
119.0723	19
120.0818	377
121.0905	73
122.0966	147
136.022	130
136.0767	15
164.02	10
