Mass spectrum: 2-Methylbenzimidazole; LC-ESI-QTOF; MS2; 100 V
Name: 2-Methylbenzimidazole
Formula: C8H8N2
Exact mass: 132.0687
SMILES: CC1=NC2=CC=CC=C2N1
InChI: InChI=1S/C8H8N2/c1-6-9-7-4-2-3-5-8(7)10-6/h2-5H,1H3,(H,9,10)
Instrument: TripleTOF 6600 SCIEX
Instrument type: LC-ESI-QTOF
Ms type: MS2
Ion mode: POSITIVE
Collision energy: 100
Fragmentation mode: CID
Ionization: ESI
Column name: Zorbax Eclipse Plus C18 2.1 mm x 150 mm, 3.5 um, Agilent
Retention time: 4.68 min
Precursor m/z: 133.076
Precursor type: [M+H]+
m/z	relative intensity
35.9996	199
37.0073	999
38.003	46
38.0149	701
39.0228	854
40.0179	21
41.0259	17
42.034	46
49.0073	89
50.0147	233
51.0103	34
51.0228	76
52.0181	136
59.9989	25
61.0072	195
62.0147	318
63.0223	255
65.0384	21
74.0144	51
75.0094	21
