Mass spectrum: Tiapride; LC-ESI-QTOF; MS2; 50 V
Name: Tiapride
Class: Pharmaceutical
Formula: C15H24N2O4S
Exact mass: 328.1457
SMILES: CCN(CC)CCNC(=O)C1=C(C=CC(=C1)S(=O)(=O)C)OC
InChI: InChI=1S/C15H24N2O4S/c1-5-17(6-2)10-9-16-15(18)13-11-12(22(4,19)20)7-8-14(13)21-3/h7-8,11H,5-6,9-10H2,1-4H3,(H,16,18)
Instrument: TripleTOF 5600 SCIEX
Instrument type: LC-ESI-QTOF
Ms type: MS2
Ion mode: POSITIVE
Collision energy: 50
Fragmentation mode: CID
Ionization: ESI
Column name: Zorbax Eclipse Plus C18 2.1 mm x 150 mm, 3.5 um, Agilent
Retention time: 4.856 min
Precursor m/z: 329.153
Precursor type: [M+H]+
m/z	relative intensity
65.0448	10
74.1019	10
76.0367	10
77.0424	12
78.0511	33
100.1142	28
104.0517	25
105.0591	30
106.0439	26
107.0506	19
122.0385	13
132.0452	16
133.0534	238
134.0382	248
155.0179	24
162.0566	86
177.0798	373
178.0513	64
183.0232	28
185.0272	55
212.039	403
213.0226	999
226.0176	61
241.0411	82
256.0653	340
