Mass spectrum: Diaveridine; LC-ESI-QTOF; MS2; 80 V
Name: Diaveridine
Class: Pharmaceutical
Formula: C13H16N4O2
Exact mass: 260.1273
SMILES: COC1=C(C=C(C=C1)CC2=CN=C(N=C2N)N)OC
InChI: InChI=1S/C13H16N4O2/c1-18-10-4-3-8(6-11(10)19-2)5-9-7-16-13(15)17-12(9)14/h3-4,6-7H,5H2,1-2H3,(H4,14,15,16,17)
Instrument: TripleTOF 5600 SCIEX
Instrument type: LC-ESI-QTOF
Ms type: MS2
Ion mode: POSITIVE
Collision energy: 80
Fragmentation mode: CID
Ionization: ESI
Column name: Zorbax Eclipse Plus C18 2.1 mm x 150 mm, 3.5 um, Agilent
Retention time: 4.966 min
Precursor m/z: 261.1346
Precursor type: [M+H]+
m/z	relative intensity
41.041	58
43.042	123
52.0278	140
53.0202	22
53.0305	16
53.0443	11
54.0432	457
55.0316	11
55.0489	14
65.0444	61
67.0355	16
67.0491	11
68.03	19
68.0436	159
69.0514	42
75.0292	44
76.0341	11
77.0438	743
78.0373	16
78.0514	70
79.0331	145
79.0595	129
80.0452	14
80.0535	16
81.0502	999
82.0541	25
83.0525	95
88.0351	16
89.0425	283
90.0474	84
91.0571	168
92.051	25
93.0484	11
94.0443	19
95.0525	14
96.0586	58
97.0692	19
101.041	185
102.0472	101
103.0328	19
103.0567	359
104.0506	115
105.0356	173
106.0432	176
106.0663	36
107.0519	314
109.0529	117
110.061	115
111.0688	22
113.0418	67
114.0394	78
115.0567	84
116.0517	269
117.059	120
118.0517	109
118.0665	109
119.0614	14
120.0478	16
123.0686	258
124.0765	44
126.0337	25
127.0435	30
128.0508	426
129.045	103
130.0442	25
130.0662	131
131.0527	294
132.0473	42
132.0642	33
133.0306	120
133.0589	33
133.0789	22
134.0579	33
135.0468	67
135.0659	14
140.0489	151
141.046	67
142.0539	70
143.0605	129
144.0528	58
144.0651	16
145.0591	16
145.077	89
146.0273	22
146.0618	61
147.0684	56
148.0428	14
148.0738	16
153.0452	81
154.0486	33
155.0622	115
156.0461	120
157.0594	28
158.0614	33
158.073	16
159.0662	22
160.074	33
161.0827	53
168.0564	28
170.0452	11
170.0703	109
171.0602	72
172.0761	70
173.0811	47
181.0681	11
182.0717	14
184.0756	22
185.0819	95
186.0595	14
187.099	58
197.0869	14
198.062	16
199.0735	14
213.0786	39
243.0876	19
