Mass spectrum: Celiprolol; LC-ESI-QTOF; MS2; 70 V
Name: Celiprolol
Class: Pharmaceutical
Formula: C20H33N3O4
Exact mass: 379.2471
SMILES: CCN(CC)C(=O)NC1=CC(=C(C=C1)OCC(CNC(C)(C)C)O)C(=O)C
InChI: InChI=1S/C20H33N3O4/c1-7-23(8-2)19(26)22-15-9-10-18(17(11-15)14(3)24)27-13-16(25)12-21-20(4,5)6/h9-11,16,21,25H,7-8,12-13H2,1-6H3,(H,22,26)
Instrument: TripleTOF 5600 SCIEX
Instrument type: LC-ESI-QTOF
Ms type: MS2
Ion mode: POSITIVE
Collision energy: 70
Fragmentation mode: CID
Ionization: ESI
Column name: Zorbax Eclipse Plus C18 2.1 mm x 150 mm, 3.5 um, Agilent
Retention time: 6.532 min
Precursor m/z: 380.2544
Precursor type: [M+H]+
m/z	relative intensity
43.0262	60
44.0211	153
44.0582	17
56.0565	999
57.0396	11
57.0755	164
65.0442	12
72.0488	579
72.0851	11
74.0642	845
74.1001	320
77.0422	71
91.0546	16
92.0513	65
100.0768	169
102.0342	10
103.0556	44
104.0503	42
105.0353	25
106.0292	15
106.0651	10
108.0436	21
115.0547	58
116.0503	22
117.0602	16
118.066	19
120.0444	116
120.0814	22
127.0556	12
128.0501	51
130.0651	98
131.0506	11
132.0442	212
133.0513	17
134.0602	22
136.0397	14
142.0651	15
144.044	24
146.0605	30
148.04	862
148.075	15
150.0546	131
158.0604	43
160.0391	15
160.0763	12
162.0192	37
162.0542	12
170.0611	24
172.0405	40
174.056	15
176.0712	40
178.0484	11
186.0556	199
190.0494	21
204.0653	19
