Mass spectrum: Myclobutanil; LC-ESI-QTOF; MS2; 70 V
Name: Myclobutanil
Class: Fungicide
Formula: C15H17ClN4
Exact mass: 288.1142
SMILES: CCCCC(Cn1cncn1)(C#N)c2ccc(Cl)cc2
InChI: InChI=1S/C15H17ClN4/c1-2-3-8-15(9-17,10-20-12-18-11-19-20)13-4-6-14(16)7-5-13/h4-7,11-12H,2-3,8,10H2,1H3
Instrument: TripleTOF 6600 SCIEX
Instrument type: LC-ESI-QTOF
Ms type: MS2
Ion mode: POSITIVE
Collision energy: 70
Fragmentation mode: CID
Ionization: ESI
Column name: Zorbax Eclipse Plus C18 2.1 mm x 150 mm, 3.5 um, Agilent
Retention time: 12.025 min
Precursor m/z: 289.1215
Precursor type: [M+H]+
m/z	relative intensity
39.0232	22
41.0387	13
43.0294	128
62.0157	16
63.0229	90
65.0386	22
70.0403	999
72.984	56
74.9996	14
75.0229	42
77.0384	34
82.0401	28
89.039	510
90.0465	183
98.9997	273
101.0385	51
102.046	58
103.054	15
114.0331	11
115.0541	188
116.0619	118
122.999	43
125.0154	776
127.0552	10
128.0551	50
129.0452	32
129.0691	11
130.0654	29
137.0157	16
143.0729	12
149.0149	16
150.0106	23
152.0625	15
