Mass spectrum: N-Isopropyl-N'-phenyl-p-phenylenediamine; LC-ESI-QTOF; MS2; 90 V
Name: N-Isopropyl-N'-phenyl-p-phenylenediamine
Class: Industrial_process
Formula: C15H18N2
Exact mass: 226.147
SMILES: CC(C)Nc1ccc(cc1)Nc2ccccc2
InChI: InChI=1S/C15H18N2/c1-12(2)16-14-8-10-15(11-9-14)17-13-6-4-3-5-7-13/h3-12,16-17H,1-2H3
Instrument: TripleTOF 6600 SCIEX
Instrument type: LC-ESI-QTOF
Ms type: MS2
Ion mode: POSITIVE
Collision energy: 90
Fragmentation mode: CID
Ionization: ESI
Column name: Zorbax Eclipse Plus C18 2.1 mm x 150 mm, 3.5 um, Agilent
Retention time: 7.24 min
Precursor m/z: 227.1543
Precursor type: [M+H]+
m/z	relative intensity
39.0226	64
50.0145	14
51.0225	71
52.0296	14
53.0381	322
54.0335	19
62.014	22
63.022	128
64.0174	13
64.0306	9
65.0378	76
66.0323	9
66.0451	34
75.0215	13
77.0379	91
78.0327	32
79.0416	21
80.0488	999
89.0372	75
90.0327	64
91.0399	19
91.0487	13
92.0473	17
93.0562	18
101.036	12
102.0449	15
103.0514	9
105.043	22
106.0513	12
107.0589	127
113.0363	40
114.0431	18
115.0521	68
116.0496	11
117.0569	11
127.0523	51
128.048	19
128.0597	61
129.0603	13
130.0641	17
139.0528	127
140.0494	111
141.0558	13
154.0625	63
155.0654	13
164.0467	17
166.0637	59
167.0695	37
181.0746	44
