Mass spectrum: Thymidine; LC-ESI-QTOF; MS2; 40 V
Name: Thymidine
Class: Metabolite
Formula: C10H14N2O5
Exact mass: 242.0903
SMILES: OCC1OC(N2C=C(C)C(NC2=O)=O)CC1O
InChI: InChI=1S/C10H14N2O5/c1-5-3-12(10(16)11-9(5)15)8-2-6(14)7(4-13)17-8/h3,6-8,13-14H,2,4H2,1H3,(H,11,15,16)
Instrument: TripleTOF 5600 SCIEX
Instrument type: LC-ESI-QTOF
Ms type: MS2
Ion mode: POSITIVE
Collision energy: 40
Fragmentation mode: CID
Ionization: ESI
Column name: Zorbax Eclipse Plus C18 2.1 mm x 150 mm, 3.5 um, Agilent
Retention time: 4.533 min
Precursor m/z: 243.0976
Precursor type: [M+H]+
m/z	relative intensity
41.0385	21
43.0174	14
43.0543	27
45.0333	40
53.039	14
54.0335	34
56.0491	24
57.0333	14
69.0333	51
71.049	21
73.0282	76
81.0329	26
81.043	13
82.0283	36
84.0441	82
99.0441	88
109.0402	97
110.0239	300
117.0547	110
127.0505	999
