Mass spectrum: Oxytetracycline; LC-ESI-QTOF; MS2; 150 V
Name: Oxytetracycline
Class: Pharmaceutical
Formula: C22H24N2O9
Exact mass: 460.1482
SMILES: CC1(C2C(C3C(C(=O)C(=C(C3(C(=O)C2=C(C4=C1C=CC=C4O)O)O)O)C(=O)N)N(C)C)O)O
InChI: InChI=1S/C22H24N2O9/c1-21(32)7-5-4-6-8(25)9(7)15(26)10-12(21)17(28)13-14(24(2)3)16(27)11(20(23)31)19(30)22(13,33)18(10)29/h4-6,12-14,17,25-26,28,30,32-33H,1-3H3,(H2,23,31)
Instrument: TripleTOF 5600 SCIEX
Instrument type: LC-ESI-QTOF
Ms type: MS2
Ion mode: POSITIVE
Collision energy: 150
Fragmentation mode: CID
Ionization: ESI
Column name: Zorbax Eclipse Plus C18 2.1 mm x 150 mm, 3.5 um, Agilent
Retention time: 5.586 min
Precursor m/z: 461.1555
Precursor type: [M+H]+
m/z	relative intensity
55.0223	52
65.0441	83
69.0009	93
75.0246	104
76.0347	72
77.0405	718
78.0491	124
89.0393	145
91.0556	197
98.0649	52
101.0379	239
102.0458	489
103.0551	72
113.0379	124
114.0489	72
115.0535	697
125.0411	62
126.0463	364
127.0534	530
128.0618	999
128.0898	41
131.0481	62
138.0465	52
139.0529	603
140.0648	72
150.0457	176
151.0522	260
152.0611	405
153.0698	52
155.0501	135
163.0552	156
164.0635	93
165.0704	166
168.0584	93
176.0617	156
