Mass spectrum: 3-(4-Bromobutyl)-6-methylpyrimidin-4-one; LC-ESI-QTOF; MS2; 50 V
Name: 3-(4-Bromobutyl)-6-methylpyrimidin-4-one
Formula: C9H13BrN2O
Exact mass: 244.0211
SMILES: CC1=CC(=O)N(C=N1)CCCCBr
InChI: InChI=1S/C9H13BrN2O/c1-8-6-9(13)12(7-11-8)5-3-2-4-10/h6-7H,2-5H2,1H3
Instrument: TripleTOF 6600 SCIEX
Instrument type: LC-ESI-QTOF
Ms type: MS2
Ion mode: POSITIVE
Collision energy: 50
Fragmentation mode: CID
Ionization: ESI
Column name: Zorbax Eclipse Plus C18 2.1 mm x 150 mm, 3.5 um, Agilent
Retention time: 7.281 min
Precursor m/z: 245.0284
Precursor type: [M+H]+
m/z	relative intensity
39.0224	20
41.038	15
42.0336	180
43.0172	11
44.0127	20
44.0493	15
45.0442	18
53.038	16
55.0539	270
56.0489	14
66.0334	16
67.0176	48
68.0125	23
68.0487	16
70.0282	105
83.0596	47
84.0439	999
93.0443	34
106.9477	33
111.0545	436
134.9789	22
