Mass spectrum: Fluorescent brightener 363; LC-ESI-QTOF; MS2; 150 V
Name: Fluorescent brightener 363
Class: Pigment
Formula: [C19H19N2O4S]+
Exact mass: 371.106
SMILES: COC1=CC(OC(C2=[N+](C)C(C=C(S(=O)(C)=O)C=C3)=C3N2C)=C4)=C4C=C1
InChI: InChI=1S/C19H19N2O4S/c1-20-15-8-7-14(26(4,22)23)11-16(15)21(2)19(20)18-9-12-5-6-13(24-3)10-17(12)25-18/h5-11H,1-4H3/q+1
Instrument: TripleTOF 6600 SCIEX
Instrument type: LC-ESI-QTOF
Ms type: MS2
Ion mode: POSITIVE
Collision energy: 150
Fragmentation mode: CID
Ionization: ESI
Column name: Zorbax Eclipse Plus C18 2.1 mm x 150 mm, 3.5 um, Agilent
Retention time: 8.155 min
Precursor m/z: 371.106
Precursor type: [M]+
m/z	relative intensity
49.0073	304
50.0153	999
51.0236	781
62.0146	434
63.0222	738
65.039	304
74.0145	521
75.0217	694
76.0298	608
77.0383	738
89.0367	521
101.037	390
102.0349	347
115.052	260
125.0361	347
130.0371	217
137.0395	217
139.0531	304
150.045	825
151.0534	434
153.0561	217
164.0492	521
176.0508	173
177.0578	347
178.0651	217
179.0592	217
189.0564	173
190.0651	304
191.0639	304
203.0633	304
216.0688	347
