Mass spectrum: Quinmerac; LC-ESI-QTOF; MS2; 140 V
Name: Quinmerac
Class: Herbicide
Formula: C11H8ClNO2
Exact mass: 221.0244
SMILES: Cc1cc2ccc(c(c2nc1)C(=O)O)Cl
InChI: InChI=1S/C11H8ClNO2/c1-6-4-7-2-3-8(12)9(11(14)15)10(7)13-5-6/h2-5H,1H3,(H,14,15)
Instrument: TripleTOF 6600 SCIEX
Instrument type: LC-ESI-QTOF
Ms type: MS2
Ion mode: POSITIVE
Collision energy: 140
Fragmentation mode: CID
Ionization: ESI
Column name: Zorbax Eclipse Plus C18 2.1 mm x 150 mm, 3.5 um, Agilent
Retention time: 7.013 min
Precursor m/z: 222.0316
Precursor type: [M+H]+
m/z	relative intensity
35.9993	49
37.0077	177
38.0147	98
39.0233	153
46.9685	85
48.9838	42
49.0071	98
50.0149	171
51.0223	55
52.0175	36
59.9997	189
61.0074	999
62.0149	864
63.0231	502
64.0184	61
72.9835	91
73.0073	208
74.0152	422
75.0108	61
75.0222	67
76.0192	36
83.9995	116
85.0071	527
86.015	539
87.0104	61
87.0218	232
88.0185	67
89.0373	30
97.0069	79
98.0157	128
99.0098	98
110.0028	24
111.009	24
113.0405	49
