Mass spectrum: Terbutrynesulfoxide; LC-ESI-QTOF; MS2; 120 V
Name: Terbutrynesulfoxide
Class: Transformation_product; Herbicide; Pesticide; Transformation_product-Metabolite
Formula: C10H19N5OS
Exact mass: 257.131
SMILES: CCNC1=NC(=NC(=N1)S(=O)C)NC(C)(C)C
InChI: InChI=1S/C10H19N5OS/c1-6-11-7-12-8(15-10(2,3)4)14-9(13-7)17(5)16/h6H2,1-5H3,(H2,11,12,13,14,15)
Instrument: TripleTOF 5600 SCIEX
Instrument type: LC-ESI-QTOF
Ms type: MS2
Ion mode: POSITIVE
Collision energy: 120
Fragmentation mode: CID
Ionization: ESI
Column name: Zorbax Eclipse Plus C18 2.1 mm x 150 mm, 3.5 um, Agilent
Retention time: 8.816 min
Precursor m/z: 258.1383
Precursor type: [M+H]+
m/z	relative intensity
41.0257	45
42.0331	42
42.0449	32
43.0416	460
44.0604	27
52.0252	10
53.0226	92
55.0375	35
56.0526	12
57.9828	82
59.9991	10
67.0371	27
68.0314	999
69.0148	343
69.0369	12
69.0493	32
70.0506	12
71.995	17
84.0659	15
84.9903	187
