Mass spectrum: Fenbendazole; LC-ESI-QTOF; MS2; 150 V
Name: Fenbendazole
Class: Pharmaceutical
Formula: C15H13N3O2S
Exact mass: 299.0728
SMILES: COC(=O)Nc1[nH]c2cc(Sc3ccccc3)ccc2n1
InChI: InChI=1S/C15H13N3O2S/c1-20-15(19)18-14-16-12-8-7-11(9-13(12)17-14)21-10-5-3-2-4-6-10/h2-9H,1H3,(H2,16,17,18,19)
Instrument: TripleTOF 5600 SCIEX
Instrument type: LC-ESI-QTOF
Ms type: MS2
Ion mode: POSITIVE
Collision energy: 150
Fragmentation mode: CID
Ionization: ESI
Column name: Zorbax Eclipse Plus C18 2.1 mm x 150 mm, 3.5 um, Agilent
Retention time: 9.947 min
Precursor m/z: 300.0801
Precursor type: [M+H]+
m/z	relative intensity
39.0308	48
51.0287	418
52.0241	170
53.0312	35
60.0039	16
64.051	16
65.029	58
65.0408	51
66.0293	19
67.9774	32
68.9825	380
69.0101	138
69.9896	25
74.0177	80
75.0132	438
76.021	999
77.0164	19
77.0307	273
78.0351	154
79.0441	16
80.9819	25
81.9895	99
82.9842	25
86.0152	35
87.0234	51
88.02	32
89.0392	67
91.0422	12
91.0546	16
92.0382	32
92.9799	116
93.9741	16
94.9946	48
95.0043	16
98.0156	38
99.0237	38
101.0389	16
102.0445	19
103.0276	19
105.0443	12
113.0371	70
114.0347	12
115.0548	41
119.9905	16
125.0371	35
126.0459	103
127.0534	64
137.0367	22
138.0418	19
139.0549	48
140.049	19
169.0114	25
196.0228	19
