Mass spectrum: tert-Butylphosphonic acid; LC-ESI-QTOF; MS2; 30 V
Name: tert-Butylphosphonic acid
Formula: C4H11O3P
Exact mass: 138.0446
SMILES: CC(C)(C)P(=O)(O)O
InChI: InChI=1S/C4H11O3P/c1-4(2,3)8(5,6)7/h1-3H3,(H2,5,6,7)
Instrument: TripleTOF 5600 SCIEX
Instrument type: LC-ESI-QTOF
Ms type: MS2
Ion mode: NEGATIVE
Collision energy: 30
Fragmentation mode: CID
Ionization: ESI
Column name: Zorbax Eclipse Plus C18 2.1 mm x 150 mm, 3.5 um, Agilent
Retention time: 4.628 min
Precursor m/z: 137.0373
Precursor type: [M-H]-
m/z	relative intensity
62.9634	77
78.9584	999
79.9662	368
137.037	139
