Mass spectrum: Allethrin; LC-ESI-QTOF; MS2; 40 V
Name: Allethrin
Class: Insecticide
Formula: C19H26O3
Exact mass: 302.1882
SMILES: CC(C)=CC1C(C(=O)OC2CC(=O)C(=C2C)CC=C)C1(C)C
InChI: InChI=1S/C19H26O3/c1-7-8-13-12(4)16(10-15(13)20)22-18(21)17-14(9-11(2)3)19(17,5)6/h7,9,14,16-17H,1,8,10H2,2-6H3
Instrument: TripleTOF 5600 SCIEX
Instrument type: LC-ESI-QTOF
Ms type: MS2
Ion mode: POSITIVE
Collision energy: 40
Fragmentation mode: CID
Ionization: ESI
Column name: Zorbax Eclipse Plus C18 2.1 mm x 150 mm, 3.5 um, Agilent
Retention time: 16.132 min
Precursor m/z: 303.1955
Precursor type: [M+H]+
m/z	relative intensity
55.022	20
59.0542	25
65.0422	81
67.0579	128
69.0365	20
69.0721	66
77.0406	230
79.0561	650
81.0719	389
83.0531	25
91.0554	999
92.0622	30
93.0707	517
95.0495	30
95.0861	107
97.0646	25
103.0544	46
105.07	338
107.0495	117
107.0858	640
109.0647	138
109.1018	35
111.0417	20
113.0594	25
115.0541	297
117.0685	256
119.0865	66
121.0642	92
121.0786	30
121.1006	394
123.1166	563
129.0718	20
131.0855	30
133.1024	30
135.0806	865
135.116	40
137.0968	61
139.1125	35
142.0783	25
143.0848	56
144.0918	35
145.1008	76
149.0954	174
151.1138	87
157.1024	56
159.1165	51
161.0964	20
163.1114	30
167.1093	20
173.0941	30
173.133	30
183.1168	51
185.1293	20
189.1258	25
197.1304	25
201.127	35
215.141	25
