Mass spectrum: Isoxaben; LC-ESI-QTOF; MS2; 110 V
Name: Isoxaben
Class: Herbicide
Formula: C18H24N2O4
Exact mass: 332.1736
SMILES: CCC(C)(CC)C1=NOC(=C1)NC(=O)C2=C(C=CC=C2OC)OC
InChI: InChI=1S/C18H24N2O4/c1-6-18(3,7-2)14-11-15(24-20-14)19-17(21)16-12(22-4)9-8-10-13(16)23-5/h8-11H,6-7H2,1-5H3,(H,19,21)
Instrument: TripleTOF 6600 SCIEX
Instrument type: LC-ESI-QTOF
Ms type: MS2
Ion mode: POSITIVE
Collision energy: 110
Fragmentation mode: CID
Ionization: ESI
Column name: Zorbax Eclipse Plus C18 2.1 mm x 150 mm, 3.5 um, Agilent
Retention time: 12.747 min
Precursor m/z: 333.1809
Precursor type: [M+H]+
m/z	relative intensity
37.0069	10
38.0151	12
39.0226	24
41.0385	12
50.0148	92
51.0228	343
53.0016	65
55.0178	276
61.0065	16
62.0146	35
63.0224	167
64.0301	74
65.038	22
66.0456	15
68.9956	13
74.0141	41
75.0229	114
77.038	73
79.0175	262
91.0187	13
92.0251	67
107.0126	999
119.013	20
122.0355	25
