Mass spectrum: Phenylbutazone; LC-ESI-QTOF; MS2; 130 V
Name: Phenylbutazone
Class: Pharmaceutical
Formula: C19H20N2O2
Exact mass: 308.1525
SMILES: CCCCC1C(=O)N(N(C1=O)C2=CC=CC=C2)C3=CC=CC=C3
InChI: InChI=1S/C19H20N2O2/c1-2-3-14-17-18(22)20(15-10-6-4-7-11-15)21(19(17)23)16-12-8-5-9-13-16/h4-13,17H,2-3,14H2,1H3
Instrument: TripleTOF 5600 SCIEX
Instrument type: LC-ESI-QTOF
Ms type: MS2
Ion mode: POSITIVE
Collision energy: 130
Fragmentation mode: CID
Ionization: ESI
Column name: Zorbax Eclipse Plus C18 2.1 mm x 150 mm, 3.5 um, Agilent
Retention time: 13.103 min
Precursor m/z: 309.1598
Precursor type: [M+H]+
m/z	relative intensity
55.0286	33
64.0379	15
66.0531	54
69.0771	11
74.0197	31
75.0285	35
77.0449	999
78.0389	33
78.0526	16
79.0601	13
89.043	73
90.0504	15
91.0578	92
92.054	50
93.0617	67
94.0691	30
102.0376	18
103.0594	13
104.0528	26
105.0482	11
113.0391	11
115.0561	35
117.0594	37
118.069	20
127.0546	11
130.0653	15
139.0527	13
140.0539	16
205.0801	11
