Mass spectrum: 6`-Hydroxymethyl Simvastatin; LC-ESI-QTOF; MS2; 70 V
Name: 6`-Hydroxymethyl Simvastatin
Class: Metabolite; Pharmaceutical
Formula: C25H38O6
Exact mass: 434.2668
SMILES: CCC(C)(C)C(=O)OC1CC(C=C2C1C(C(C=C2)C)CCC3CC(CC(=O)O3)O)CO
InChI: InChI=1S/C25H38O6/c1-5-25(3,4)24(29)31-21-11-16(14-26)10-17-7-6-15(2)20(23(17)21)9-8-19-12-18(27)13-22(28)30-19/h6-7,10,15-16,18-21,23,26-27H,5,8-9,11-14H2,1-4H3
Instrument: TripleTOF 5600 SCIEX
Instrument type: LC-ESI-QTOF
Ms type: MS2
Ion mode: POSITIVE
Collision energy: 70
Fragmentation mode: CID
Ionization: ESI
Column name: Zorbax Eclipse Plus C18 2.1 mm x 150 mm, 3.5 um, Agilent
Retention time: 10.786 min
Precursor m/z: 435.2741
Precursor type: [M+H]+
m/z	relative intensity
79.0598	216
91.0565	188
105.0696	134
115.0589	161
117.071	323
119.0877	108
127.0565	242
128.0635	404
129.0706	323
131.0878	216
141.0725	594
142.0782	675
143.088	620
152.0688	161
153.0613	108
153.0721	297
154.0788	485
155.086	917
156.0937	999
157.1019	404
165.0679	404
166.0765	188
167.0874	675
168.0882	134
168.0989	134
169.0997	945
171.1163	485
178.0725	188
179.0873	513
180.09	216
181.1023	323
182.1072	377
191.0833	216
193.1025	377
194.1064	161
195.1182	485
197.1314	404
205.0997	134
206.1139	108
208.1245	134
217.1028	242
223.1434	134
