Mass spectrum: Tepraloxydim; LC-ESI-QTOF; MS2; 40 V
Name: Tepraloxydim
Class: Herbicide
Formula: C17H24ClNO4
Exact mass: 341.1394
SMILES: CCC(=NOCC=CCl)C1=C(CC(CC1=O)C2CCOCC2)O
InChI: InChI=1S/C17H24ClNO4/c1-2-14(19-23-7-3-6-18)17-15(20)10-13(11-16(17)21)12-4-8-22-9-5-12/h3,6,12-13,20H,2,4-5,7-11H2,1H3
Instrument: TripleTOF 6600 SCIEX
Instrument type: LC-ESI-QTOF
Ms type: MS2
Ion mode: POSITIVE
Collision energy: 40
Fragmentation mode: CID
Ionization: ESI
Column name: Zorbax Eclipse Plus C18 2.1 mm x 150 mm, 3.5 um, Agilent
Retention time: 12.248 min
Precursor m/z: 342.1467
Precursor type: [M+H]+
m/z	relative intensity
39.0222	15
41.0377	17
42.0336	11
43.0173	34
48.9831	13
55.017	27
55.053	54
56.0488	31
58.0638	11
65.038	21
67.0406	13
67.0529	85
68.0484	38
69.0322	19
69.0685	21
70.0639	25
72.0429	23
72.0799	11
74.9982	81
77.0372	69
79.053	100
80.0488	17
81.0322	15
81.0688	69
82.0636	46
83.0481	120
83.0703	11
84.0429	15
84.0789	15
85.0635	15
91.0529	172
92.0486	19
93.0317	11
93.0567	11
93.0687	166
94.0638	75
95.0475	60
95.0842	34
96.0432	250
96.0797	23
97.0512	11
97.063	25
98.0588	434
103.0521	81
105.0685	114
106.0644	27
107.0481	27
107.0841	69
108.0428	25
108.0795	133
109.0254	15
109.0633	75
110.0588	174
110.0945	36
111.0431	58
111.0659	77
111.0787	11
112.0746	25
113.0825	52
114.091	31
115.053	32
117.0682	69
118.0632	23
119.0476	32
119.071	11
119.0844	64
120.0432	11
120.0796	34
121.0635	219
121.1	15
122.0585	81
122.0961	13
123.0425	27
123.0794	23
124.0379	89
124.0745	36
126.0539	21
127.0526	13
128.061	32
129.0687	46
130.0756	19
131.0494	13
131.0839	67
132.0787	34
133.0637	40
133.0995	40
134.0588	21
134.0953	34
135.0435	15
135.0791	50
135.1148	19
136.0369	9
136.0745	201
137.0577	50
137.0822	46
138.0539	71
138.0664	23
138.09	223
139.0615	36
139.0738	25
140.0697	38
141.0677	21
142.0763	27
143.0842	40
144.0801	29
145.064	31
145.0861	11
145.1001	40
146.059	46
146.0954	29
147.0424	40
147.0793	73
148.0746	81
148.1114	21
149.0586	193
149.0944	13
150.0548	13
150.09	31
152.0687	40
153.0695	13
154.0777	21
155.0843	11
157.1002	19
158.0718	11
158.0958	50
159.0662	13
159.0789	31
159.1157	34
160.0743	58
160.1106	34
161.0583	46
161.0942	58
162.0536	13
162.0899	40
162.1262	19
163.0715	23
163.1069	29
164.0695	263
164.1045	13
165.0841	46
166.0854	999
167.0925	21
169.0994	17
170.0956	29
171.1007	13
172.0859	21
172.1114	11
173.0951	29
174.0903	23
174.1287	9
175.0732	15
175.111	29
176.0697	29
176.1075	32
177.0891	13
177.1265	17
178.0842	17
178.1226	23
180.1381	25
184.0743	13
186.0897	17
186.1301	11
187.1086	27
188.106	38
189.0893	21
189.114	23
190.0859	21
190.1214	29
194.1161	19
202.1199	15
204.1013	34
204.1374	60
205.1217	34
206.116	21
208.132	58
215.1052	17
222.1125	13
222.1483	145
223.1369	13
224.1631	31
232.1321	23
234.1493	67
250.1433	263
251.1521	42
252.1591	48
