Mass spectrum: Sulfadimethoxine; LC-ESI-QTOF; MS2; 50 V
Name: Sulfadimethoxine
Class: Pharmaceutical
Formula: C12H14N4O4S
Exact mass: 310.0736
SMILES: COC1=NC(=NC(=C1)NS(=O)(=O)C2=CC=C(C=C2)N)OC
InChI: InChI=1S/C12H14N4O4S/c1-19-11-7-10(14-12(15-11)20-2)16-21(17,18)9-5-3-8(13)4-6-9/h3-7H,13H2,1-2H3,(H,14,15,16)
Instrument: TripleTOF 5600 SCIEX
Instrument type: LC-ESI-QTOF
Ms type: MS2
Ion mode: POSITIVE
Collision energy: 50
Fragmentation mode: CID
Ionization: ESI
Column name: Zorbax Eclipse Plus C18 2.1 mm x 150 mm, 3.5 um, Agilent
Retention time: 8.09 min
Precursor m/z: 311.0809
Precursor type: [M+H]+
m/z	relative intensity
56.0495	10
57.0444	10
65.0389	329
67.0292	52
72.0443	21
80.0499	118
81.0456	13
82.029	42
84.0316	10
86.0244	12
89.0712	19
92.0498	999
93.0566	27
98.0475	23
99.055	44
108.0445	846
110.0348	21
111.0187	24
113.0579	32
118.0513	12
124.015	11
124.0502	46
125.0587	54
126.065	27
127.0501	47
139.0386	14
140.0458	17
141.0535	170
145.0633	32
154.0613	178
155.0696	11
156.0101	32
156.0768	564
172.0503	38
172.0743	16
173.0579	178
201.0768	10
230.0802	13
