Mass spectrum: Allopurinol; LC-ESI-QTOF; MS2; 30 V
Name: Allopurinol
Class: Pharmaceutical
Formula: C5H4N4O
Exact mass: 136.0385
SMILES: O=C1N=CN=C2NNC=C12
InChI: InChI=1S/C5H4N4O/c10-5-3-1-8-9-4(3)6-2-7-5/h1-2H,(H2,6,7,8,9,10)
Instrument: TripleTOF 5600 SCIEX
Instrument type: LC-ESI-QTOF
Ms type: CID
Ion mode: POSITIVE
Collision energy: 30
Ionization: ESI
Column name: Zorbax Eclipse Plus C18 2.1 mm x 150 mm, 3.5 um, Agilent
Retention time: 3.149 min
Precursor m/z: 137.0458
Precursor type: [M+H]+
m/z	relative intensity
54.0388	508
94.0412	188
110.0356	999
119.0342	169
120.0201	263
137.0453	885
