Mass spectrum: Ciprofloxacin; LC-ESI-QTOF; MS2; 90 V
Name: Ciprofloxacin
Class: Pharmaceutical
Formula: C17H18FN3O3
Exact mass: 331.1332
SMILES: C1CC1N2C=C(C(=O)C3=CC(=C(C=C32)N4CCNCC4)F)C(=O)O
InChI: InChI=1S/C17H18FN3O3/c18-13-7-11-14(8-15(13)20-5-3-19-4-6-20)21(10-1-2-10)9-12(16(11)22)17(23)24/h7-10,19H,1-6H2,(H,23,24)
Instrument: TripleTOF 6600 SCIEX
Instrument type: LC-ESI-QTOF
Ms type: MS2
Ion mode: POSITIVE
Collision energy: 90
Fragmentation mode: CID
Ionization: ESI
Column name: Zorbax Eclipse Plus C18 2.1 mm x 150 mm, 3.5 um, Agilent
Retention time: 5.497 min
Precursor m/z: 332.1405
Precursor type: [M+H]+
m/z	relative intensity
77.0398	249
83.0292	208
89.0382	457
101.0383	249
106.0204	416
107.0293	707
114.0346	291
115.0536	249
116.0499	249
128.0508	666
132.0243	624
133.0327	874
134.0399	374
135.0495	249
136.0547	208
140.05	457
147.0478	249
148.0573	790
154.0393	166
154.0635	166
155.0589	208
160.0199	249
160.0436	999
161.0285	208
162.0368	166
172.0554	249
187.0304	582
188.0385	333
231.0603	166
