Mass spectrum: 1,3-Bis(2-methylphenyl)urea; LC-ESI-QTOF; MS2; 110 V
Name: 1,3-Bis(2-methylphenyl)urea
Formula: C15H16N2O
Exact mass: 240.1263
SMILES: CC1=CC=CC=C1NC(=O)NC2=CC=CC=C2C
InChI: InChI=1S/C15H16N2O/c1-11-7-3-5-9-13(11)16-15(18)17-14-10-6-4-8-12(14)2/h3-10H,1-2H3,(H2,16,17,18)
Instrument: TripleTOF 6600 SCIEX
Instrument type: LC-ESI-QTOF
Ms type: MS2
Ion mode: POSITIVE
Collision energy: 110
Fragmentation mode: CID
Ionization: ESI
Column name: Zorbax Eclipse Plus C18 2.1 mm x 150 mm, 3.5 um, Agilent
Retention time: 11.062 min
Precursor m/z: 241.1336
Precursor type: [M+H]+
m/z	relative intensity
35.9992	12
37.007	101
38.0148	90
39.0229	684
40.0303	27
41.0257	16
41.0377	19
42.0333	18
49.0074	32
50.0146	182
51.0223	343
52.0175	42
54.0331	55
61.0069	22
62.0145	56
63.0221	98
65.038	999
66.0456	490
67.0408	41
77.0375	101
78.0325	61
91.0531	24
92.0485	180
93.0567	231
106.0633	15
