Mass spectrum: Caprolactam; LC-ESI-QTOF; MS2; 50 V
Name: Caprolactam
Class: Food_additive; Industrial_process
Formula: C6H11NO
Exact mass: 113.0841
SMILES: C1CCC(=O)NCC1
InChI: InChI=1S/C6H11NO/c8-6-4-2-1-3-5-7-6/h1-5H2,(H,7,8)
Instrument: TripleTOF 6600 SCIEX
Instrument type: LC-ESI-QTOF
Ms type: MS2
Ion mode: POSITIVE
Collision energy: 50
Fragmentation mode: CID
Ionization: ESI
Column name: Zorbax Eclipse Plus C18 2.1 mm x 150 mm, 3.5 um, Agilent
Retention time: 5.197 min
Precursor m/z: 114.0914
Precursor type: [M+H]+
m/z	relative intensity
30.0345	11
37.0078	41
38.0031	18
38.0157	38
39.0237	250
41.0393	129
42.0341	22
43.0185	17
43.0551	12
44.0141	999
51.0234	27
53.0393	19
55.0184	23
55.0553	41
77.0394	28
