Mass spectrum: Tributylphosphine oxide; LC-ESI-QTOF; MS2; 130 V
Name: Tributylphosphine oxide
Class: Industrial_process
Formula: C12H27OP
Exact mass: 218.18
SMILES: CCCC[P](=O)(CCCC)CCCC
InChI: InChI=1S/C12H27OP/c1-4-7-10-14(13,11-8-5-2)12-9-6-3/h4-12H2,1-3H3
Instrument: TripleTOF 5600 SCIEX
Instrument type: LC-ESI-QTOF
Ms type: MS2
Ion mode: POSITIVE
Collision energy: 130
Fragmentation mode: CID
Ionization: ESI
Column name: Zorbax Eclipse Plus C18 2.1 mm x 150 mm, 3.5 um, Agilent
Retention time: 11.114 min
Precursor m/z: 219.1872
Precursor type: [M+H]+
m/z	relative intensity
43.9889	241
44.9974	931
47.004	31
47.0105	71
48.0198	35
51.0277	71
55.9849	35
56.9937	255
62.9671	35
63.004	999
65.0433	35
77.0171	40
77.0402	44
115.055	26
