Mass spectrum: 4-(Dimethylamino)benzaldehyde; LC-ESI-QTOF; MS2; 60 V
Name: 4-(Dimethylamino)benzaldehyde
Class: Pharmaceutical
Formula: C9H11NO
Exact mass: 149.0841
SMILES: CN(C)C1=CC=C(C=C1)C=O
InChI: InChI=1S/C9H11NO/c1-10(2)9-5-3-8(7-11)4-6-9/h3-7H,1-2H3
Instrument: TripleTOF 5600 SCIEX
Instrument type: LC-ESI-QTOF
Ms type: MS2
Ion mode: POSITIVE
Collision energy: 60
Fragmentation mode: CID
Ionization: ESI
Column name: Zorbax Eclipse Plus C18 2.1 mm x 150 mm, 3.5 um, Agilent
Retention time: 8.87 min
Precursor m/z: 150.0913
Precursor type: [M+H]+
m/z	relative intensity
39.0226	20
51.0228	190
52.0301	11
65.0382	106
66.0463	34
77.0384	999
78.0459	85
79.0539	111
80.0493	11
91.0536	38
92.0485	12
93.0569	11
103.0533	23
104.0491	170
105.0569	53
106.0644	168
118.0646	35
119.0731	9
120.0804	131
134.06	14
