Mass spectrum: Disperse orange 3; LC-ESI-QTOF; MS2; 40 V
Name: Disperse orange 3
Formula: C12H10N4O2
Exact mass: 242.0804
SMILES: C1=CC(=CC=C1N)N=NC2=CC=C(C=C2)[N+](=O)[O-]
InChI: InChI=1S/C12H10N4O2/c13-9-1-3-10(4-2-9)14-15-11-5-7-12(8-6-11)16(17)18/h1-8H,13H2
Instrument: TripleTOF 6600 SCIEX
Instrument type: LC-ESI-QTOF
Ms type: MS2
Ion mode: POSITIVE
Collision energy: 40
Fragmentation mode: CID
Ionization: ESI
Column name: Zorbax Eclipse Plus C18 2.1 mm x 150 mm, 3.5 um, Agilent
Retention time: 12.729 min
Precursor m/z: 243.0877
Precursor type: [M+H]+
m/z	relative intensity
39.0223	12
50.0142	31
63.0215	95
64.0293	134
65.037	38
66.0452	42
74.0135	59
75.0216	999
76.0293	670
79.0398	36
92.0249	680
92.0454	143
93.0558	696
104.0354	27
105.0429	39
106.0512	87
107.057	10
120.0545	18
122.0218	142
150.0278	216
168.0788	20
169.0788	10
196.0833	20
197.0935	243
