Mass spectrum: Epirubicin; LC-ESI-QTOF; MS2; 40 V
Name: Epirubicin
Class: Pharmaceutical
Formula: C27H29NO11
Exact mass: 543.1741
SMILES: CC1C(C(CC(O1)OC2CC(CC3=C(C4=C(C(=C23)O)C(=O)C5=C(C4=O)C=CC=C5OC)O)(C(=O)CO)O)N)O
InChI: InChI=1S/C27H29NO11/c1-10-22(31)13(28)6-17(38-10)39-15-8-27(36,16(30)9-29)7-12-19(15)26(35)21-20(24(12)33)23(32)11-4-3-5-14(37-2)18(11)25(21)34/h3-5,10,13,15,17,22,29,31,33,35-36H,6-9,28H2,1-2H3
Instrument: TripleTOF 5600 SCIEX
Instrument type: LC-ESI-QTOF
Ms type: MS2
Ion mode: NEGATIVE
Collision energy: 40
Fragmentation mode: CID
Ionization: ESI
Column name: Zorbax Eclipse Plus C18 2.1 mm x 150 mm, 3.5 um, Agilent
Retention time: 7.492 min
Precursor m/z: 542.1668
Precursor type: [M-H]-
m/z	relative intensity
283.0643	78
291.0689	96
293.0482	54
294.0588	156
295.0637	102
303.0657	60
304.0419	60
305.0454	66
306.057	415
307.0635	222
308.0706	66
309.079	860
318.0612	72
319.0619	355
320.0783	84
321.044	258
321.0806	511
322.0503	264
323.0603	156
333.0783	174
334.0517	421
335.0602	674
336.0683	541
337.0757	740
344.0364	66
347.0628	198
348.0701	144
349.037	54
349.0745	999
350.0463	198
351.0533	421
352.0637	132
359.0605	108
362.0483	186
363.0658	60
365.0712	800
366.0823	144
377.0719	752
380.0596	96
395.0798	469
412.0869	108
