Mass spectrum: Kresoxim-methyl; LC-ESI-QTOF; MS2; 150 V
Name: Kresoxim-methyl
Class: Fungicide
Formula: C18H19NO4
Exact mass: 313.1314
SMILES: CC1=CC=CC=C1OCC2=CC=CC=C2C(=NOC)C(=O)OC
InChI: InChI=1S/C18H19NO4/c1-13-8-4-7-11-16(13)23-12-14-9-5-6-10-15(14)17(19-22-3)18(20)21-2/h4-11H,12H2,1-3H3
Instrument: TripleTOF 6600 SCIEX
Instrument type: LC-ESI-QTOF
Ms type: MS2
Ion mode: POSITIVE
Collision energy: 150
Fragmentation mode: CID
Ionization: ESI
Column name: Zorbax Eclipse Plus C18 2.1 mm x 150 mm, 3.5 um, Agilent
Retention time: 13.809 min
Precursor m/z: 314.1387
Precursor type: [M+H]+
m/z	relative intensity
37.0073	220
38.015	117
39.0228	543
50.0146	470
51.0221	646
59.998	88
61.0065	440
62.0143	587
63.0217	925
64.0166	58
65.0385	146
73.0062	102
74.0144	705
75.0218	514
76.0293	205
77.038	308
78.0458	102
85.0056	205
86.0141	337
87.021	279
88.0178	58
89.0371	558
97.0067	146
98.0139	631
99.0099	73
99.0239	235
100.0277	102
101.0388	73
102.0454	190
109.0048	73
110.0138	220
111.0248	146
113.0364	205
115.0519	190
122.0148	176
123.0228	88
124.0299	58
125.0364	102
126.0442	337
137.0383	132
139.0516	220
149.0369	146
150.0447	999
151.0539	455
152.0599	146
161.0364	190
162.043	190
163.0532	440
164.0611	58
165.0705	102
174.045	132
175.0455	132
176.062	205
189.0566	58
