Mass spectrum: Medroxyprogesterone-17-acetate; LC-ESI-QTOF; MS2; 110 V
Name: Medroxyprogesterone-17-acetate
Class: Pharmaceutical
Formula: C24H34O4
Exact mass: 386.2457
SMILES: CC1CC2C(CCC3(C2CCC3(C(=O)C)OC(=O)C)C)C4(C1=CC(=O)CC4)C
InChI: InChI=1S/C24H34O4/c1-14-12-18-19(22(4)9-6-17(27)13-21(14)22)7-10-23(5)20(18)8-11-24(23,15(2)25)28-16(3)26/h13-14,18-20H,6-12H2,1-5H3
Instrument: TripleTOF 5600 SCIEX
Instrument type: LC-ESI-QTOF
Ms type: MS2
Ion mode: POSITIVE
Collision energy: 110
Fragmentation mode: CID
Ionization: ESI
Column name: Zorbax Eclipse Plus C18 2.1 mm x 150 mm, 3.5 um, Agilent
Retention time: 13.723 min
Precursor m/z: 387.253
Precursor type: [M+H]+
m/z	relative intensity
39.0231	115
41.0386	126
43.018	347
50.0172	21
51.0229	59
53.0393	66
55.0179	35
55.054	150
57.0342	24
65.0388	189
66.0459	14
67.0543	262
69.0338	17
69.0694	42
77.0392	932
78.0464	52
79.0546	459
80.0631	21
81.0338	38
81.0699	73
82.0415	21
83.0491	119
89.0398	17
91.0551	999
93.07	136
94.0408	35
95.0483	31
95.086	105
97.0655	382
102.0485	38
103.0543	189
104.0622	35
105.0701	336
107.0499	112
108.0573	52
109.0661	28
115.0545	518
116.0631	108
117.0696	203
119.0852	77
121.0655	24
123.0803	175
127.0532	112
128.0627	469
129.0704	315
130.0788	49
131.0501	21
131.0853	84
137.0982	21
141.0705	350
142.0775	87
143.0872	52
145.1018	17
151.0544	21
152.0625	178
153.0704	178
154.0799	63
155.085	73
157.064	14
164.0646	17
165.0688	259
166.0776	52
167.0868	73
169.0991	21
178.0778	119
179.086	63
180.0965	17
189.0688	24
191.0842	35
192.0988	21
193.1025	24
199.1107	14
202.0792	17
205.0995	17
