Mass spectrum: Dihydroxycarbazepine; LC-ESI-QTOF; MS2; 80 V
Name: Dihydroxycarbazepine
Class: Pharmaceutical; Metabolite
Formula: C15H14N2O3
Exact mass: 270.1004
SMILES: NC(=O)N1c2ccccc2C(O)C(O)c3ccccc13
InChI: InChI=1S/C15H14N2O3/c16-15(20)17-11-7-3-1-5-9(11)13(18)14(19)10-6-2-4-8-12(10)17/h1-8,13-14,18-19H,(H2,16,20)
Instrument: TripleTOF 5600 SCIEX
Instrument type: LC-ESI-QTOF
Ms type: MS2
Ion mode: POSITIVE
Collision energy: 80
Fragmentation mode: CID
Ionization: ESI
Column name: Zorbax Eclipse Plus C18 2.1 mm x 150 mm, 3.5 um, Agilent
Retention time: 6.663 min
Precursor m/z: 271.1077
Precursor type: [M+H]+
m/z	relative intensity
75.0255	9
77.0404	55
89.0394	14
101.0394	46
113.0396	10
115.0527	30
125.0382	11
126.0467	23
127.0542	89
128.0492	119
139.0538	83
140.0493	72
141.0564	13
150.046	33
151.0546	250
152.0622	571
153.0643	91
154.0651	28
163.0551	23
164.0611	27
165.0696	44
166.0653	155
167.0736	172
177.0573	71
178.0656	397
179.0733	478
180.0813	999
190.0649	25
191.0735	40
192.0818	22
