Mass spectrum: 2-Benzylimidazole; LC-ESI-QTOF; MS2; 40 V
Name: 2-Benzylimidazole
Class: Pharmaceutical
Formula: C10H12N2
Exact mass: 160.1
SMILES: C1CN=C(N1)CC2=CC=CC=C2
InChI: InChI=1S/C10H12N2/c1-2-4-9(5-3-1)8-10-11-6-7-12-10/h1-5H,6-8H2,(H,11,12)
Instrument: TripleTOF 5600 SCIEX
Instrument type: LC-ESI-QTOF
Ms type: MS2
Ion mode: POSITIVE
Collision energy: 40
Fragmentation mode: CID
Ionization: ESI
Column name: Zorbax Eclipse Plus C18 2.1 mm x 150 mm, 3.5 um, Agilent
Retention time: 4.619 min
Precursor m/z: 161.1073
Precursor type: [M+H]+
m/z	relative intensity
39.023	12
44.0497	81
63.0245	11
65.0391	227
77.0387	21
84.0695	12
89.039	10
91.0547	999
103.0541	40
105.071	10
106.0659	16
116.0502	14
117.0591	15
130.0668	14
132.0786	22
160.1022	10
161.1076	445
