Mass spectrum: Flufenacet; LC-ESI-QTOF; MS2; 40 V
Name: Flufenacet
Class: Herbicide
Formula: C14H13F4N3O2S
Exact mass: 363.0665
InChI: InChI=1S/C14H13F4N3O2S/c1-8(2)21(10-5-3-9(15)4-6-10)11(22)7-23-13-20-19-12(24-13)14(16,17)18/h3-6,8H,7H2,1-2H3
Instrument: TripleTOF 6600 SCIEX
Instrument type: LC-ESI-QTOF
Ms type: CID
Ion mode: POSITIVE
Collision energy: 40
Ionization: ESI
Column name: Zorbax Eclipse Plus C18 2.1 mm x 150 mm, 3.5 um, Agilent
Retention time: 13.345 min
Precursor m/z: 364.0738
Precursor type: [M+H]+
m/z	relative intensity
97.0449	64
109.0451	206
123.0239	16
124.0563	922
134.0402	10
152.0536	999
