Mass spectrum: 2-Phenylbenzimidazole; LC-ESI-QTOF; MS2; 110 V
Name: 2-Phenylbenzimidazole
Class: Industrial_process
Formula: C13H10N2
Exact mass: 194.0844
SMILES: [nH]1c2ccccc2nc1c3ccccc3
InChI: InChI=1S/C13H10N2/c1-2-6-10(7-3-1)13-14-11-8-4-5-9-12(11)15-13/h1-9H,(H,14,15)
Instrument: TripleTOF 5600 SCIEX
Instrument type: LC-ESI-QTOF
Ms type: MS2
Ion mode: NEGATIVE
Collision energy: 110
Fragmentation mode: CID
Ionization: ESI
Column name: Zorbax Eclipse Plus C18 2.1 mm x 150 mm, 3.5 um, Agilent
Retention time: 5.903 min
Precursor m/z: 193.0771
Precursor type: [M-H]-
m/z	relative intensity
40.0105	124
40.0352	124
41.0153	249
41.0234	249
50.0052	999
63.0121	374
64.0091	124
65.0162	124
71.9995	124
73.0085	124
74.0046	249
87.016	124
88.0166	124
90.0351	124
115.0302	249
141.0427	124
