Mass spectrum: Codeinone; LC-ESI-QTOF; MS2; 130 V
Name: Codeinone
Class: Pharmaceutical
Formula: C18H19NO3
Exact mass: 297.1365
SMILES: CN1CCC23C4C1CC5=C2C(=C(C=C5)OC)OC3C(=O)C=C4
InChI: InChI=1S/C18H19NO3/c1-19-8-7-18-11-4-5-13(20)17(18)22-16-14(21-2)6-3-10(15(16)18)9-12(11)19/h3-6,11-12,17H,7-9H2,1-2H3
Instrument: TripleTOF 5600 SCIEX
Instrument type: LC-ESI-QTOF
Ms type: MS2
Ion mode: POSITIVE
Collision energy: 130
Fragmentation mode: CID
Ionization: ESI
Column name: Zorbax Eclipse Plus C18 2.1 mm x 150 mm, 3.5 um, Agilent
Retention time: 5.057 min
Precursor m/z: 298.1438
Precursor type: [M+H]+
m/z	relative intensity
44.0614	17
58.0739	11
65.046	103
73.011	11
73.0189	11
74.0211	145
75.0282	143
76.0357	94
77.0443	243
78.052	51
85.011	28
86.0192	94
87.0265	177
88.0341	117
89.0426	372
91.0567	22
98.0171	80
99.0265	42
100.0319	17
101.0396	42
102.0475	151
103.057	14
110.0175	28
111.0261	17
113.0398	369
114.0463	65
115.0556	309
125.0394	51
126.0478	263
127.0549	97
128.064	74
137.0393	57
138.0472	100
139.0545	999
140.0608	11
149.038	31
150.0467	171
151.0554	317
152.0623	283
161.0379	14
162.0478	28
163.053	128
164.058	34
165.0709	37
166.0586	11
175.0534	17
176.0615	51
187.0495	20
188.0581	17
