Mass spectrum: Proadifen; LC-ESI-QTOF; MS2; 140 V
Name: Proadifen
Formula: C23H31NO2
Exact mass: 353.2355
SMILES: CCCC(C1=CC=CC=C1)(C2=CC=CC=C2)C(=O)OCCN(CC)CC
InChI: InChI=1S/C23H31NO2/c1-4-17-23(20-13-9-7-10-14-20,21-15-11-8-12-16-21)22(25)26-19-18-24(5-2)6-3/h7-16H,4-6,17-19H2,1-3H3
Instrument: TripleTOF 6600 SCIEX
Instrument type: LC-ESI-QTOF
Ms type: MS2
Ion mode: POSITIVE
Collision energy: 140
Fragmentation mode: CID
Ionization: ESI
Column name: Zorbax Eclipse Plus C18 2.1 mm x 150 mm, 3.5 um, Agilent
Retention time: 9.831 min
Precursor m/z: 354.2428
Precursor type: [M+H]+
m/z	relative intensity
35.9978	27
37.0061	136
38.0012	10
38.0139	106
39.0218	715
41.0372	84
42.0325	24
44.0481	53
49.0062	19
50.0139	187
51.0216	675
52.0292	12
59.9984	26
61.0055	93
62.0136	170
63.0213	331
65.0372	999
73.0055	14
74.0138	119
75.0213	51
76.0289	104
77.037	735
78.0449	73
79.0521	42
85.0056	18
86.0144	71
87.0217	79
88.028	9
89.037	314
91.0525	412
98.014	53
99.0214	24
100.0294	17
101.0365	16
102.0446	198
103.0519	39
105.0432	11
110.0118	15
111.0212	17
113.0364	82
114.0438	16
115.0529	852
125.0363	42
126.0447	252
127.0519	63
128.0602	159
137.0379	33
138.0448	27
139.0525	435
141.0685	9
149.0399	21
150.0452	353
151.0529	442
152.0605	331
161.0366	27
162.0452	78
163.0531	918
164.061	690
165.0688	969
176.0595	61
178.0763	26
179.0592	14
