Mass spectrum: Epirubicin; LC-ESI-QTOF; MS2; 60 V
Name: Epirubicin
Class: Pharmaceutical
Formula: C27H29NO11
Exact mass: 543.1741
SMILES: CC1C(C(CC(O1)OC2CC(CC3=C(C4=C(C(=C23)O)C(=O)C5=C(C4=O)C=CC=C5OC)O)(C(=O)CO)O)N)O
InChI: InChI=1S/C27H29NO11/c1-10-22(31)13(28)6-17(38-10)39-15-8-27(36,16(30)9-29)7-12-19(15)26(35)21-20(24(12)33)23(32)11-4-3-5-14(37-2)18(11)25(21)34/h3-5,10,13,15,17,22,29,31,33,35-36H,6-9,28H2,1-2H3
Instrument: TripleTOF 5600 SCIEX
Instrument type: LC-ESI-QTOF
Ms type: MS2
Ion mode: NEGATIVE
Collision energy: 60
Fragmentation mode: CID
Ionization: ESI
Column name: Zorbax Eclipse Plus C18 2.1 mm x 150 mm, 3.5 um, Agilent
Retention time: 7.492 min
Precursor m/z: 542.1668
Precursor type: [M-H]-
m/z	relative intensity
263.0805	59
265.0475	71
266.0598	148
276.0456	160
277.0493	112
278.0601	77
279.0744	53
288.046	53
289.0541	77
290.065	77
291.0671	101
292.0429	225
293.0491	523
294.0555	618
295.0631	59
304.0399	285
305.0448	273
306.0546	428
307.0261	118
307.063	142
308.0361	130
309.0446	65
309.0777	338
317.0463	71
318.0548	101
319.0637	160
320.0371	315
321.0434	999
322.0499	380
323.0596	83
332.0362	59
333.042	225
334.0515	386
335.0596	588
336.0313	112
336.0656	77
337.0437	53
337.0734	71
347.0573	77
349.0442	107
350.0439	83
351.0531	172
361.036	65
363.0516	59
379.0536	77
