Mass spectrum: Dimethenamid-OA; LC-ESI-QTOF; MS2; 30 V
Name: Dimethenamid-OA
Class: Transformation_product; Herbicide; Transformation_product-Metabolite
Formula: C12H17NO4S
Exact mass: 271.0878
SMILES: Cc1csc(c1N(C(C)COC)C(=O)C(=O)O)C
InChI: InChI=1S/C12H17NO4S/c1-7-6-18-9(3)10(7)13(8(2)5-17-4)11(14)12(15)16/h6,8H,5H2,1-4H3,(H,15,16)
Instrument: TripleTOF 6600 SCIEX
Instrument type: LC-ESI-QTOF
Ms type: MS2
Ion mode: POSITIVE
Collision energy: 30
Fragmentation mode: CID
Ionization: ESI
Column name: Zorbax Eclipse Plus C18 2.1 mm x 150 mm, 3.5 um, Agilent
Retention time: 8.208 min
Precursor m/z: 272.0951
Precursor type: [M+H]+
m/z	relative intensity
41.0391	16
45.0339	27
58.9949	13
59.0498	33
73.0649	128
79.0544	22
94.0651	25
95.0747	19
99.0264	11
104.0489	19
105.0568	25
108.0811	16
111.0262	249
112.0341	41
113.0413	75
120.045	25
120.0809	11
125.0427	47
126.0367	260
127.0217	13
128.0528	33
129.0363	30
132.0824	16
133.0886	55
134.0955	19
135.1034	58
136.0204	19
138.0369	268
139.0187	25
140.0523	19
151.059	58
152.0148	19
152.0522	69
153.0225	27
153.0605	25
154.0315	293
155.0399	16
166.0684	153
167.0766	41
168.0838	338
194.0626	67
196.0778	86
198.092	16
212.0732	41
240.0685	999
