Mass spectrum: Dimethomorph; LC-ESI-QTOF; MS2; 110 V
Name: Dimethomorph
Class: Fungicide
Formula: C21H22ClNO4
Exact mass: 387.1237
SMILES: COc1ccc(cc1OC)/C(=C\C(=O)N2CCOCC2)/c3ccc(cc3)Cl
InChI: InChI=1S/C21H22ClNO4/c1-25-19-8-5-16(13-20(19)26-2)18(15-3-6-17(22)7-4-15)14-21(24)23-9-11-27-12-10-23/h3-8,13-14H,9-12H2,1-2H3/b18-14-
Instrument: TripleTOF 5600 SCIEX
Instrument type: LC-ESI-QTOF
Ms type: MS2
Ion mode: POSITIVE
Collision energy: 110
Fragmentation mode: CID
Ionization: ESI
Column name: Zorbax Eclipse Plus C18 2.1 mm x 150 mm, 3.5 um, Agilent
Retention time: 11.552 min
Precursor m/z: 388.131
Precursor type: [M+H]+
m/z	relative intensity
65.0404	28
66.0499	39
70.0314	31
74.0176	27
75.0253	98
76.0337	14
77.0413	119
79.0562	10
89.0401	63
90.0462	16
92.0273	30
94.043	13
98.9999	24
99.0228	17
102.048	26
107.013	27
110.9991	141
113.0382	10
114.0475	12
115.0543	65
121.0277	63
122.0362	16
125.0153	21
125.0376	26
126.0467	91
127.0528	20
128.0614	24
138.0459	24
139.0018	18
139.0548	62
149.0153	44
149.0374	14
150.0463	120
151.0544	271
152.0621	999
153.0673	10
160.0049	17
162.045	33
163.0548	637
164.0622	469
165.0699	542
166.0768	25
173.0142	34
175.053	23
176.062	281
177.0691	45
178.0779	91
180.0568	12
186.0215	26
187.0303	10
194.0715	24
199.0306	170
205.0655	9
212.0383	17
