Mass spectrum: Salbutamol; LC-ESI-QTOF; MS2; 90 V
Name: Salbutamol
Class: Pharmaceutical
Formula: C13H21NO3
Exact mass: 239.1521
SMILES: CC(C)(NCC(c1cc(CO)c(O)cc1)O)C
InChI: InChI=1S/C13H21NO3/c1-13(2,3)14-7-12(17)9-4-5-11(16)10(6-9)8-15/h4-6,12,14-17H,7-8H2,1-3H3
Instrument: TripleTOF 5600 SCIEX
Instrument type: LC-ESI-QTOF
Ms type: MS2
Ion mode: POSITIVE
Collision energy: 90
Fragmentation mode: CID
Ionization: ESI
Column name: Zorbax Eclipse Plus C18 2.1 mm x 150 mm, 3.5 um, Agilent
Retention time: 4.69 min
Precursor m/z: 240.1594
Precursor type: [M+H]+
m/z	relative intensity
42.0427	13
51.029	276
53.0447	25
57.0755	114
58.0704	19
63.0386	11
65.043	359
75.0267	13
77.042	999
77.0773	13
78.0355	13
78.0486	92
79.0436	11
79.0565	64
80.0513	97
89.0399	64
90.0472	44
91.0564	583
92.0514	19
93.0586	13
102.0465	13
103.0553	33
104.0496	117
105.0334	13
105.0573	16
107.0486	53
117.0581	61
118.0659	50
130.0652	25
