Mass spectrum: Metoclopramide; LC-ESI-QTOF; MS2; 80 V
Name: Metoclopramide
Class: Pharmaceutical
Formula: C14H22ClN3O2
Exact mass: 299.1401
SMILES: CCN(CC)CCNC(=O)C1=CC(=C(C=C1OC)N)Cl
InChI: InChI=1S/C14H22ClN3O2/c1-4-18(5-2)7-6-17-14(19)10-8-11(15)12(16)9-13(10)20-3/h8-9H,4-7,16H2,1-3H3,(H,17,19)
Instrument: TripleTOF 5600 SCIEX
Instrument type: LC-ESI-QTOF
Ms type: MS2
Ion mode: POSITIVE
Collision energy: 80
Fragmentation mode: CID
Ionization: ESI
Column name: Zorbax Eclipse Plus C18 2.1 mm x 150 mm, 3.5 um, Agilent
Retention time: 5.459 min
Precursor m/z: 300.1473
Precursor type: [M+H]+
m/z	relative intensity
52.0279	14
65.0455	34
66.0533	11
72.9899	44
78.0396	645
90.0381	295
91.0456	27
92.0534	31
93.0612	102
99.0029	109
100.1154	10
105.0482	108
113.0053	999
114.012	32
119.0618	32
120.0464	30
126.0126	71
127.0205	38
128.027	33
129.0117	37
139.0055	20
140.0145	89
140.9986	629
142.0078	10
147.0574	13
148.0637	30
153.0225	15
154.0072	41
156.0215	42
168.0091	316
168.9931	106
170.0008	38
181.0169	26
183.0345	12
184.0152	102
212.0311	9
