Mass spectrum: Propaquizafop; LC-ESI-QTOF; MS2; 120 V
Name: Propaquizafop
Class: Herbicide
Formula: C22H22ClN3O5
Exact mass: 443.1248
SMILES: CC(Oc1ccc(Oc2cnc3cc(Cl)ccc3n2)cc1)C(=O)OCCON=C(C)C
InChI: InChI=1S/C22H22ClN3O5/c1-14(2)26-29-11-10-28-22(27)15(3)30-17-5-7-18(8-6-17)31-21-13-24-20-12-16(23)4-9-19(20)25-21/h4-9,12-13,15H,10-11H2,1-3H3
Instrument: TripleTOF 6600 SCIEX
Instrument type: LC-ESI-QTOF
Ms type: MS2
Ion mode: POSITIVE
Collision energy: 120
Fragmentation mode: CID
Ionization: ESI
Column name: Zorbax Eclipse Plus C18 2.1 mm x 150 mm, 3.5 um, Agilent
Retention time: 15.307 min
Precursor m/z: 444.1321
Precursor type: [M+H]+
m/z	relative intensity
39.0232	50
41.0381	31
42.0341	43
51.0231	75
54.0344	43
55.0181	56
55.0418	69
56.0492	175
61.9787	31
63.0238	43
65.0386	182
70.0651	207
73.0079	56
74.0149	94
75.023	106
77.0384	157
89.0391	31
90.0352	31
91.0539	119
98.9998	43
99.0104	144
99.0444	81
100.0182	999
102.0345	50
108.9833	37
109.9911	43
113.0374	31
122.9998	50
123.996	31
128.0505	31
135.9948	207
137.002	87
137.0385	87
138.0472	182
139.0423	56
139.0538	43
140.0485	113
149.0141	50
152.0126	25
152.0536	43
154.0509	25
162.0368	25
163.0056	138
163.048	56
164.0018	232
164.0494	672
165.0462	131
165.0583	106
166.0657	62
167.0729	25
168.0696	31
174.0136	37
177.0581	31
179.0625	62
180.0811	37
190.0551	75
191.0611	201
192.0687	226
193.0803	37
194.0835	43
205.0763	56
215.039	37
