Mass spectrum: Cyprodinil; LC-ESI-QTOF; MS2; 70 V
Name: Cyprodinil
Class: Fungicide
Formula: C14H15N3
Exact mass: 225.1266
SMILES: CC1=CC(=NC(=N1)NC2=CC=CC=C2)C3CC3
InChI: InChI=1S/C14H15N3/c1-10-9-13(11-7-8-11)17-14(15-10)16-12-5-3-2-4-6-12/h2-6,9,11H,7-8H2,1H3,(H,15,16,17)
Instrument: TripleTOF 6600 SCIEX
Instrument type: LC-ESI-QTOF
Ms type: MS2
Ion mode: POSITIVE
Collision energy: 70
Fragmentation mode: CID
Ionization: ESI
Column name: Zorbax Eclipse Plus C18 2.1 mm x 150 mm, 3.5 um, Agilent
Retention time: 10.83 min
Precursor m/z: 226.1339
Precursor type: [M+H]+
m/z	relative intensity
37.007	25
38.0148	23
39.0229	167
41.0384	67
42.0338	140
44.0496	14
49.0068	16
50.0149	92
51.0229	422
52.0176	13
53.0381	61
54.0333	29
62.0146	12
63.0226	83
64.0173	11
64.0302	33
65.0383	620
66.0459	284
67.03	63
67.0409	123
68.0488	41
75.0217	21
77.0384	999
78.0335	113
79.0537	97
80.0488	105
81.0571	22
81.0693	10
82.0648	12
89.038	112
90.0328	19
90.0456	22
91.0523	350
92.0489	271
93.0567	691
94.0643	42
102.0335	27
103.0406	14
104.0487	73
105.0438	36
106.0643	61
107.0609	14
107.0719	17
108.0679	14
108.0798	20
113.0375	16
114.0457	16
115.0529	49
116.0485	22
117.0438	26
117.0562	33
118.0517	106
119.0591	17
127.0535	23
128.0486	15
128.0604	11
129.0443	15
130.0636	12
131.0594	132
132.0675	18
139.0532	59
140.0483	78
141.0561	10
143.0602	17
152.0478	10
152.0608	12
153.0613	14
154.0639	17
155.0599	21
156.0677	14
163.0534	10
164.0489	16
165.0566	20
166.064	61
167.0718	43
168.0667	28
169.076	14
178.0655	14
180.0803	11
181.0753	37
182.0716	19
191.0612	14
192.0681	76
193.075	40
205.0748	33
206.0826	30
207.092	20
208.0862	13
210.1027	12
