Mass spectrum: Disperse Orange 61; LC-ESI-QTOF; MS2; 60 V
Name: Disperse Orange 61
Formula: C17H15Br2N5O2
Exact mass: 478.9592
SMILES: CCN(CCC#N)C1=CC=C(C=C1)N=NC2=C(C=C(C=C2Br)[N+](=O)[O-])Br
InChI: InChI=1S/C17H15Br2N5O2/c1-2-23(9-3-8-20)13-6-4-12(5-7-13)21-22-17-15(18)10-14(24(25)26)11-16(17)19/h4-7,10-11H,2-3,9H2,1H3
Instrument: TripleTOF X500R SCIEX
Instrument type: LC-ESI-QTOF
Ms type: MS2
Ion mode: POSITIVE
Collision energy: 60
Fragmentation mode: CID
Ionization: ESI
Column name: Zorbax Eclipse Plus C18 2.1 mm x 150 mm, 3.5 um, Agilent
Retention time: 15.39 min
Precursor m/z: 479.9665
Precursor type: [M+H]+
m/z	relative intensity
65.0393	31
91.0545	70
92.0491	157
103.0541	39
104.0498	243
105.0579	416
106.0668	70
117.059	62
118.0657	141
119.0599	188
120.0796	338
131.0638	62
132.0801	70
133.0887	999
134.0969	86
140.934	55
145.0763	259
147.092	267
151.9245	31
152.9333	55
153.9281	62
172.085	70
173.1086	39
178.0666	31
179.0693	110
194.8464	55
230.844	291
231.8523	212
247.8477	70
256.9814	110
257.9875	275
277.8448	338
284.9912	70
286.0225	385
287.0035	94
305.8514	125
314.0251	94
315.0351	110
332.9993	62
361.0297	133
364.9179	78
392.9499	314
410.9075	220
438.94	133
