Mass spectrum: 4-Oxo-4-[3-(trifluoromethyl)-5,6-dihydro-[1,2,4]triazolo[4,3-a]pyrazin-7(8H9-yl]-1-(2,4,5-trifluorophenyl)butan-2-one; LC-ESI-QTOF; MS2; 140 V
Name: 4-Oxo-4-[3-(trifluoromethyl)-5,6-dihydro-[1,2,4]triazolo[4,3-a]pyrazin-7(8H9-yl]-1-(2,4,5-trifluorophenyl)butan-2-one
Formula: C16H12F6N4O2
Exact mass: 406.0864
SMILES: FC1=C(F)C=C(CC(CC(N2CCN3C(C2)=NN=C3C(F)(F)F)=O)=O)C(F)=C1
InChI: InChI=1S/C16H12F6N4O2/c17-10-6-12(19)11(18)4-8(10)3-9(27)5-14(28)25-1-2-26-13(7-25)23-24-15(26)16(20,21)22/h4,6H,1-3,5,7H2
Instrument: TripleTOF 5600 SCIEX
Instrument type: LC-ESI-QTOF
Ms type: MS2
Ion mode: NEGATIVE
Collision energy: 140
Fragmentation mode: CID
Ionization: ESI
Column name: Zorbax Eclipse Plus C18 2.1 mm x 150 mm, 3.5 um, Agilent
Retention time: 9.691 min
Precursor m/z: 405.0792
Precursor type: [M-H]-
m/z	relative intensity
41.0037	136
41.0152	317
50.0066	68
52.0198	408
64.0066	272
67.0341	90
68.996	840
73.009	295
84.001	272
85.0089	544
96.0577	68
97.0075	317
102.999	999
105.0151	181
108.0024	113
109.0089	295
121.0168	90
123.005	113
125.0257	113
133.0019	272
149.0221	113
161.009	158
