Mass spectrum: Amlodipine; LC-ESI-QTOF; MS2; 140 V
Name: Amlodipine
Class: Pharmaceutical
Formula: C20H25ClN2O5
Exact mass: 408.1452
SMILES: CCOC(=O)C1=C(COCCN)NC(=C(C1c2ccccc2Cl)C(=O)OC)C
InChI: InChI=1S/C20H25ClN2O5/c1-4-28-20(25)18-15(11-27-10-9-22)23-12(2)16(19(24)26-3)17(18)13-7-5-6-8-14(13)21/h5-8,17,23H,4,9-11,22H2,1-3H3
Instrument: TripleTOF 5600 SCIEX
Instrument type: LC-ESI-QTOF
Ms type: MS2
Ion mode: POSITIVE
Collision energy: 140
Fragmentation mode: CID
Ionization: ESI
Column name: Zorbax Eclipse Plus C18 2.1 mm x 150 mm, 3.5 um, Agilent
Retention time: 8.432 min
Precursor m/z: 409.1525
Precursor type: [M+H]+
m/z	relative intensity
42.0439	111
44.0585	156
65.0418	165
67.0202	31
72.9874	44
73.0093	31
74.018	223
75.026	716
75.0639	26
76.0337	94
77.0413	353
78.0488	62
80.0511	26
85.0093	26
86.0167	44
87.0242	67
88.0328	156
89.0406	277
90.0488	31
91.0445	22
91.0543	17
92.0507	49
93.0608	22
98.0154	44
99.0004	71
99.0244	44
100.0322	26
101.0386	259
102.0467	376
103.053	17
104.0506	22
111.0007	94
113.0397	264
114.0473	327
115.055	864
116.0486	26
116.0618	22
117.056	22
122.9995	40
125.017	31
125.0385	76
126.0465	335
127.0541	439
128.048	49
128.0616	300
129.0433	22
136.0379	26
137.0399	67
138.0465	76
138.9929	17
139.0549	689
140.0505	259
141.0715	80
142.0671	22
149.0157	156
149.0384	22
150.046	228
151.054	421
152.0626	999
153.0686	138
154.0653	85
156.0848	22
163.054	53
164.0485	26
164.0632	22
165.0693	53
166.0655	161
167.0741	215
168.0817	35
169.0612	22
173.0152	22
175.0519	17
176.049	26
177.0577	85
178.0662	134
178.0912	17
179.0734	31
180.0818	103
191.0788	22
196.0775	22
