Mass spectrum: 2-p-Tolyl-1H-benzoimidazole; LC-ESI-QTOF; MS2; 90 V
Name: 2-p-Tolyl-1H-benzoimidazole
Class: Pharmaceutical
Formula: C14H12N2
Exact mass: 208.1
SMILES: CC1=CC=C(C=C1)C2=NC3=CC=CC=C3N2
InChI: InChI=1S/C14H12N2/c1-10-6-8-11(9-7-10)14-15-12-4-2-3-5-13(12)16-14/h2-9H,1H3,(H,15,16)
Instrument: TripleTOF 5600 SCIEX
Instrument type: LC-ESI-QTOF
Ms type: MS2
Ion mode: POSITIVE
Collision energy: 90
Fragmentation mode: CID
Ionization: ESI
Column name: Zorbax Eclipse Plus C18 2.1 mm x 150 mm, 3.5 um, Agilent
Retention time: 6.061 min
Precursor m/z: 209.1073
Precursor type: [M+H]+
m/z	relative intensity
52.0283	26
64.0369	42
65.0463	999
66.0433	10
74.022	12
75.0284	23
76.0342	19
77.043	137
78.0503	19
89.042	138
90.0496	15
91.0532	78
92.0526	30
102.0355	28
104.0518	12
113.0387	53
114.0466	10
115.0555	32
118.0534	11
126.0484	12
127.0541	11
128.0589	10
137.0398	17
138.0471	21
139.0554	107
140.0492	57
151.0545	44
152.0621	34
164.0499	82
165.0549	17
166.066	24
167.0701	12
177.0591	16
178.0656	34
191.0622	24
192.0683	30
205.0763	92
206.084	12
