Mass spectrum: 4-(4-Chloro-2-methylphenoxy)butanoic acid; LC-ESI-QTOF; MS2; 40 V
Name: 4-(4-Chloro-2-methylphenoxy)butanoic acid
Class: Herbicide
Formula: C11H13ClO3
Exact mass: 228.0553
SMILES: CC1=C(C=CC(=C1)Cl)OCCCC(=O)O
InChI: InChI=1S/C11H13ClO3/c1-8-7-9(12)4-5-10(8)15-6-2-3-11(13)14/h4-5,7H,2-3,6H2,1H3,(H,13,14)
Instrument: TripleTOF 6600 SCIEX
Instrument type: LC-ESI-QTOF
Ms type: MS2
Ion mode: POSITIVE
Collision energy: 40
Fragmentation mode: CID
Ionization: ESI
Column name: Zorbax Eclipse Plus C18 2.1 mm x 150 mm, 3.5 um, Agilent
Retention time: 11.775 min
Precursor m/z: 229.0626
Precursor type: [M+H]+
m/z	relative intensity
37.0065	32
38.0151	10
39.0226	228
41.038	575
43.017	597
43.0533	43
44.9953	32
45.0337	999
57.0348	21
65.037	32
69.0328	586
69.0681	32
71.0847	10
72.979	21
75.0228	32
77.037	97
79.0545	65
81.0683	21
87.0437	477
89.037	108
90.0446	43
91.0536	314
92.0613	65
98.9988	43
104.0608	10
105.0681	21
107.0499	54
108.0547	21
110.9967	10
113.058	32
115.0548	86
116.0692	21
119.0599	10
125.0136	282
127.031	97
128.0626	97
129.0674	130
130.0783	76
133.0589	21
139.0282	43
141.0096	54
141.0689	21
143.0245	21
155.0246	282
157.0635	21
158.0676	43
158.0761	54
165.0483	21
169.043	21
193.0447	10
