Mass spectrum: Dibenzyl phosphate; LC-ESI-QTOF; MS2; 120 V
Name: Dibenzyl phosphate
Class: Pharmaceutical
Formula: C14H15O4P
Exact mass: 278.0708
SMILES: C1=CC=C(C=C1)COP(=O)(O)OCC2=CC=CC=C2
InChI: InChI=1S/C14H15O4P/c15-19(16,17-11-13-7-3-1-4-8-13)18-12-14-9-5-2-6-10-14/h1-10H,11-12H2,(H,15,16)
Instrument: TripleTOF 5600 SCIEX
Instrument type: LC-ESI-QTOF
Ms type: MS2
Ion mode: POSITIVE
Collision energy: 120
Fragmentation mode: CID
Ionization: ESI
Column name: Zorbax Eclipse Plus C18 2.1 mm x 150 mm, 3.5 um, Agilent
Retention time: 9.053 min
Precursor m/z: 279.0781
Precursor type: [M+H]+
m/z	relative intensity
51.0347	65
65.0454	999
91.0573	900
163.0532	49
164.0675	40
