Mass spectrum: Acebutolol; LC-ESI-QTOF; MS2; 100 V
Name: Acebutolol
Class: Pharmaceutical
Formula: C18H28N2O4
Exact mass: 336.2049
SMILES: CCCC(=O)Nc1ccc(OCC(O)CNC(C)C)c(c1)C(C)=O
InChI: InChI=1S/C18H28N2O4/c1-5-6-18(23)20-14-7-8-17(16(9-14)13(4)21)24-11-15(22)10-19-12(2)3/h7-9,12,15,19,22H,5-6,10-11H2,1-4H3,(H,20,23)
Instrument: TripleTOF 5600 SCIEX
Instrument type: LC-ESI-QTOF
Ms type: MS2
Ion mode: POSITIVE
Collision energy: 100
Fragmentation mode: CID
Ionization: ESI
Column name: Zorbax Eclipse Plus C18 2.1 mm x 150 mm, 3.5 um, Agilent
Retention time: 5.965 min
Precursor m/z: 337.2122
Precursor type: [M+H]+
m/z	relative intensity
42.0423	16
43.0262	60
53.0448	16
56.0554	999
57.0377	28
58.0702	158
65.0432	353
66.0509	16
67.0588	28
72.0839	178
74.063	190
77.0422	479
77.0748	16
78.0489	16
79.0563	73
80.0513	121
82.0665	20
89.0399	64
91.0561	134
92.0517	97
93.0353	97
93.0596	89
94.0661	44
100.1124	20
102.0449	20
103.055	97
104.0505	73
105.0698	16
106.0655	81
108.0442	48
109.0533	52
110.0603	85
115.0544	121
117.0568	56
118.0647	60
119.0725	48
120.0807	36
127.0536	20
130.0661	77
133.052	40
136.0402	20
146.0621	24
