Mass spectrum: Metaflumizone; LC-ESI-QTOF; MS2; 90 V
Name: Metaflumizone
Class: Insecticide; Pharmaceutical
Formula: C24H16F6N4O2
Exact mass: 506.1177
SMILES: C1=CC(=CC(=C1)C(F)(F)F)C(=NNC(=O)NC2=CC=C(C=C2)OC(F)(F)F)CC3=CC=C(C=C3)C#N
InChI: InChI=1S/C24H16F6N4O2/c25-23(26,27)18-3-1-2-17(13-18)21(12-15-4-6-16(14-31)7-5-15)33-34-22(35)32-19-8-10-20(11-9-19)36-24(28,29)30/h1-11,13H,12H2,(H2,32,34,35)
Instrument: TripleTOF 6600 SCIEX
Instrument type: LC-ESI-QTOF
Ms type: MS2
Ion mode: NEGATIVE
Collision energy: 90
Fragmentation mode: CID
Ionization: ESI
Column name: Zorbax Eclipse Plus C18 2.1 mm x 150 mm, 3.5 um, Agilent
Retention time: 15.496 min
Precursor m/z: 505.1105
Precursor type: [M-H]-
m/z	relative intensity
41.9973	13
84.9889	18
90.0337	12
97.0067	10
102.0343	152
115.0294	170
116.038	52
116.049	66
117.0453	408
126.0342	18
137.0201	21
141.0457	688
145.0268	21
169.0256	15
179.0413	12
199.0484	16
212.0506	16
213.0578	13
214.0663	26
215.0625	24
218.0432	13
225.0465	66
232.0562	23
240.055	16
242.0724	23
245.0513	61
264.0514	13
265.0566	29
280.0748	10
285.0646	999
