Mass spectrum: Triclabendazole; LC-ESI-QTOF; MS2; 150 V
Name: Triclabendazole
Class: Pharmaceutical
Formula: C14H9Cl3N2OS
Exact mass: 357.9501
SMILES: CSc1[nH]c2cc(Cl)c(Oc3cccc(Cl)c3Cl)cc2n1
InChI: InChI=1S/C14H9Cl3N2OS/c1-21-14-18-9-5-8(16)12(6-10(9)19-14)20-11-4-2-3-7(15)13(11)17/h2-6H,1H3,(H,18,19)
Instrument: TripleTOF 5600 SCIEX
Instrument type: LC-ESI-QTOF
Ms type: MS2
Ion mode: POSITIVE
Collision energy: 150
Fragmentation mode: CID
Ionization: ESI
Column name: Zorbax Eclipse Plus C18 2.1 mm x 150 mm, 3.5 um, Agilent
Retention time: 13.11 min
Precursor m/z: 358.9574
Precursor type: [M+H]+
m/z	relative intensity
44.9798	256
48.9844	153
49.0082	85
50.016	187
51.0113	42
51.0234	187
52.0189	247
61.0082	128
61.98	367
62.0158	230
63.0235	341
64.0188	435
65.0257	93
68.9797	179
69.9744	76
69.9882	34
72.9842	239
73.008	85
73.9811	34
74.0152	409
75.0115	418
75.0236	375
76.019	999
77.0276	51
77.0388	119
78.0348	256
78.9411	187
81.9873	51
84.9853	136
85.9795	307
86.0153	85
87.0241	93
88.0194	51
88.031	42
89.0268	42
90.0339	102
92.0385	76
92.98	230
93.9868	128
96.9848	93
98.0156	409
99.0106	68
99.0238	520
99.9951	136
100.0188	93
100.0304	76
101.0417	51
102.9418	34
103.0323	51
107.9917	59
108.9888	59
111.0244	42
111.9977	59
113.0384	153
114.0339	51
119.9898	68
121.0044	68
122.0168	136
123.0109	51
123.0252	111
124.0189	93
124.0327	68
125.0403	341
126.0474	537
127.0444	59
138.0374	51
139.0426	51
140.0538	42
147.0107	59
148.0066	93
151.0436	222
152.0492	102
153.0561	42
160.0079	59
