Mass spectrum: Flutriafol; LC-ESI-QTOF; MS2; 130 V
Name: Flutriafol
Class: Fungicide
Formula: C16H13F2N3O
Exact mass: 301.1027
SMILES: C1=CC=C(C(=C1)C(CN2C=NC=N2)(C3=CC=C(C=C3)F)O)F
InChI: InChI=1S/C16H13F2N3O/c17-13-7-5-12(6-8-13)16(22,9-21-11-19-10-20-21)14-3-1-2-4-15(14)18/h1-8,10-11,22H,9H2
Instrument: TripleTOF 6600 SCIEX
Instrument type: LC-ESI-QTOF
Ms type: MS2
Ion mode: POSITIVE
Collision energy: 130
Fragmentation mode: CID
Ionization: ESI
Column name: Zorbax Eclipse Plus C18 2.1 mm x 150 mm, 3.5 um, Agilent
Retention time: 10.047 min
Precursor m/z: 302.11
Precursor type: [M+H]+
m/z	relative intensity
30.9976	10
37.0071	12
39.0233	19
42.0213	17
43.0291	179
50.0152	36
51.023	17
57.0135	84
61.0075	14
62.0144	28
63.0228	31
68.0054	12
69.0132	60
70.0396	137
73.0066	104
74.0149	999
75.0228	478
83.029	44
95.029	28
98.0137	38
99.0228	12
122.0137	31
123.0241	13
146.0138	11
163.054	12
168.0357	11
181.0433	12
192.0375	10
