Mass spectrum: 11alpha-Hydroxyprogesterone; LC-ESI-QTOF; MS2; 30 V
Name: 11alpha-Hydroxyprogesterone
Class: Pharmaceutical; Metabolite
Formula: C21H30O3
Exact mass: 330.2195
SMILES: CC(=O)C1CC[C@H]2[C@@H]3CCC4=CC(=O)CC[C@]4(C)[C@H]3[C@H](O)C[C@]12C
InChI: InChI=1S/C21H30O3/c1-12(22)16-6-7-17-15-5-4-13-10-14(23)8-9-20(13,2)19(15)18(24)11-21(16,17)3/h10,15-19,24H,4-9,11H2,1-3H3/t15-,16?,17-,18+,19+,20-,21+/m0/s1
Instrument: TripleTOF 5600 SCIEX
Instrument type: LC-ESI-QTOF
Ms type: MS2
Ion mode: POSITIVE
Collision energy: 30
Fragmentation mode: CID
Ionization: ESI
Column name: Zorbax Eclipse Plus C18 2.1 mm x 150 mm, 3.5 um, Agilent
Retention time: 10.293 min
Precursor m/z: 331.2268
Precursor type: [M+H]+
m/z	relative intensity
43.0266	97
67.0569	14
69.0725	11
71.0521	33
79.0562	32
81.0724	70
83.0501	117
85.0667	291
91.0554	38
93.0709	105
95.0869	103
97.0657	361
105.0696	102
107.0494	14
107.0849	92
109.0649	159
109.1013	55
111.0799	17
117.0699	20
119.0859	115
121.0646	541
121.0989	67
123.0801	430
123.1163	27
129.0692	23
131.0855	114
133.0666	23
133.1007	223
135.0797	119
135.1164	87
137.0949	102
141.0701	11
142.0786	11
143.0839	83
145.1007	201
147.0784	51
147.1156	168
149.0955	80
149.1318	51
151.1097	16
155.0843	40
156.0947	11
157.1	108
159.0794	30
159.1158	239
160.1245	10
161.0961	119
161.1314	92
163.1114	176
163.1477	23
169.0996	76
171.0808	16
171.1167	228
173.0978	49
173.1314	247
175.1118	159
175.1478	71
177.1267	241
179.1415	10
181.1023	21
183.1166	76
185.0938	23
185.1314	152
187.1108	73
187.1464	102
189.1262	147
189.1637	33
191.1425	86
193.1018	11
195.1158	58
197.0978	13
197.1315	118
199.1121	36
199.1476	105
201.1274	80
201.1643	27
203.1424	99
205.1573	19
207.119	23
209.1316	42
211.1122	42
211.1469	162
213.1269	64
213.1631	146
215.1422	58
215.1766	11
217.1573	77
221.1319	61
223.1486	23
225.1275	48
225.1623	86
227.1392	81
227.177	32
229.1575	200
231.1717	83
233.1457	11
235.1479	48
237.1631	160
239.1425	144
239.1871	13
241.159	20
243.1727	84
243.2104	10
249.1622	27
251.1782	105
252.1894	16
253.1598	57
253.1942	314
255.1731	340
262.1686	13
267.1741	100
267.2084	46
269.1889	150
271.2056	491
277.1932	185
280.1788	26
285.1851	36
285.2177	19
295.2051	921
298.191	17
313.2155	999
331.2262	716
