Mass spectrum: (S)-N-methyl-pregabalin; LC-ESI-QTOF; MS2; 50 V
Name: (S)-N-methyl-pregabalin
Formula: C9H19NO2
Exact mass: 173.1416
SMILES: CC(C)CC(CC(=O)O)CNC
InChI: InChI=1S/C9H19NO2/c1-7(2)4-8(6-10-3)5-9(11)12/h7-8,10H,4-6H2,1-3H3,(H,11,12)
Instrument: TripleTOF 5600 SCIEX
Instrument type: LC-ESI-QTOF
Ms type: MS2
Ion mode: POSITIVE
Collision energy: 50
Fragmentation mode: CID
Ionization: ESI
Column name: Zorbax Eclipse Plus C18 2.1 mm x 150 mm, 3.5 um, Agilent
Retention time: 4.84 min
Precursor m/z: 174.1489
Precursor type: [M+H]+
m/z	relative intensity
37.0076	23
38.0154	23
39.0232	204
41.0389	265
42.0339	20
43.0183	70
43.0545	88
44.05	68
45.0338	50
53.0389	56
55.0182	205
55.0548	999
56.0496	24
57.0699	40
58.0288	57
59.0493	113
65.0392	24
67.0412	43
67.054	22
68.0504	11
69.0343	22
69.0702	49
70.0654	195
77.0396	32
79.0537	52
80.0497	22
81.0564	13
81.0691	19
82.0652	79
83.0492	19
83.0858	92
91.0543	43
94.0653	55
96.0809	23
105.0689	11
