Mass spectrum: 1,4-Dihydroxyanthraquinone; LC-ESI-QTOF; MS2; 50 V
Name: 1,4-Dihydroxyanthraquinone
Formula: C14H8O4
Exact mass: 240.0423
SMILES: C1=CC=C2C(=C1)C(=O)C3=C(C=CC(=C3C2=O)O)O
InChI: InChI=1S/C14H8O4/c15-9-5-6-10(16)12-11(9)13(17)7-3-1-2-4-8(7)14(12)18/h1-6,15-16H
Instrument: TripleTOF X500R SCIEX
Instrument type: LC-ESI-QTOF
Ms type: MS2
Ion mode: POSITIVE
Collision energy: 50
Fragmentation mode: CID
Ionization: ESI
Column name: Zorbax Eclipse Plus C18 2.1 mm x 150 mm, 3.5 um, Agilent
Retention time: 13.708 min
Precursor m/z: 241.0496
Precursor type: [M+H]+
m/z	relative intensity
77.0389	48
89.0387	28
103.0535	60
105.0336	69
113.0391	44
115.0546	219
126.046	24
127.054	227
128.0622	548
129.0331	16
129.0702	276
131.0497	60
138.0469	16
139.0545	999
143.0504	77
157.0652	263
167.0497	154
185.0608	20
195.0447	32
