Mass spectrum: Ecgonine ethyl ester; LC-ESI-QTOF; MS2; 130 V
Name: Ecgonine ethyl ester
Formula: C11H19NO3
Exact mass: 213.1365
SMILES: CCOC(=O)C1C2CCC(N2C)CC1O
InChI: InChI=1S/C11H19NO3/c1-3-15-11(14)10-8-5-4-7(12(8)2)6-9(10)13/h7-10,13H,3-6H2,1-2H3
Instrument: TripleTOF 6600 SCIEX
Instrument type: LC-ESI-QTOF
Ms type: MS2
Ion mode: POSITIVE
Collision energy: 130
Fragmentation mode: CID
Ionization: ESI
Column name: Zorbax Eclipse Plus C18 2.1 mm x 150 mm, 3.5 um, Agilent
Retention time: 2.108 min
Precursor m/z: 214.1438
Precursor type: [M+H]+
m/z	relative intensity
36.0009	71
37.008	356
38.003	71
38.0165	285
39.0237	999
41.0258	71
41.0396	71
42.0349	285
51.024	214
52.019	71
52.0313	71
65.0397	71
67.0429	214
78.0372	71
79.0436	71
80.051	71
82.0658	71
91.0565	71
94.064	142
