Mass spectrum: Simvastatin; LC-ESI-QTOF; MS2; 60 V
Name: Simvastatin
Class: Pharmaceutical
Formula: C25H38O5
Exact mass: 418.2719
SMILES: CCC(C)(C)C(=O)O[C@H]1C[C@@H](C)C=C2C=C[C@H](C)[C@H](CC[C@@H]3C[C@@H](O)CC(=O)O3)[C@@H]12
InChI: InChI=1S/C25H38O5/c1-6-25(4,5)24(28)30-21-12-15(2)11-17-8-7-16(3)20(23(17)21)10-9-19-13-18(26)14-22(27)29-19/h7-8,11,15-16,18-21,23,26H,6,9-10,12-14H2,1-5H3/t15-,16-,18+,19+,20-,21-,23-/m0/s1
Instrument: TripleTOF 5600 SCIEX
Instrument type: LC-ESI-QTOF
Ms type: MS2
Ion mode: POSITIVE
Collision energy: 60
Fragmentation mode: CID
Ionization: ESI
Column name: Zorbax Eclipse Plus C18 2.1 mm x 150 mm, 3.5 um, Agilent
Retention time: 15.438 min
Precursor m/z: 419.2792
Precursor type: [M+H]+
m/z	relative intensity
67.0581	47
77.041	47
79.057	195
81.0726	121
83.0508	54
91.0553	128
93.0707	80
95.0851	47
103.0542	27
105.0693	330
107.0848	80
115.0562	47
116.0618	33
117.0692	94
119.0871	155
121.1016	40
127.0545	33
128.0612	195
129.0695	182
130.0783	67
131.0846	351
133.0995	33
141.0689	121
142.079	188
143.0849	999
144.0937	101
145.1006	344
153.07	60
154.0774	60
155.0863	209
156.092	128
157.1016	330
158.1078	108
159.1159	377
167.0844	74
168.0947	94
169.1018	465
170.1078	54
171.117	249
173.1315	600
179.0863	40
181.1006	101
182.1098	60
183.1166	263
185.1299	54
193.1015	74
195.1157	67
197.1337	134
199.1488	438
201.1668	60
207.1165	40
210.1402	40
211.1468	40
219.1165	67
223.15	74
225.1627	209
234.1454	33
