Mass spectrum: Cortisone; LC-ESI-QTOF; MS2; 130 V
Name: Cortisone
Class: Pharmaceutical
Formula: C21H28O5
Exact mass: 360.1937
SMILES: C[C@]12CCC(=O)C=C1CC[C@H]3[C@@H]4CC[C@](O)(C(=O)CO)[C@@]4(C)CC(=O)[C@H]23
InChI: InChI=1S/C21H28O5/c1-19-7-5-13(23)9-12(19)3-4-14-15-6-8-21(26,17(25)11-22)20(15,2)10-16(24)18(14)19/h9,14-15,18,22,26H,3-8,10-11H2,1-2H3/t14-,15-,18+,19-,20-,21-/m0/s1
Instrument: TripleTOF 5600 SCIEX
Instrument type: LC-ESI-QTOF
Ms type: MS2
Ion mode: POSITIVE
Collision energy: 130
Fragmentation mode: CID
Ionization: ESI
Column name: Zorbax Eclipse Plus C18 2.1 mm x 150 mm, 3.5 um, Agilent
Retention time: 8.396 min
Precursor m/z: 361.201
Precursor type: [M+H]+
m/z	relative intensity
43.0268	53
55.0246	37
65.0455	233
67.0608	31
76.0368	21
77.0436	999
78.0512	47
79.0586	164
83.0519	31
89.0428	74
91.0578	680
94.0453	26
102.0492	85
103.056	122
104.0646	21
105.0717	111
107.0536	53
115.0566	765
116.0654	37
117.0715	63
126.0497	53
127.0558	281
128.0647	515
129.071	69
131.0516	47
139.0576	47
141.0727	138
147.0842	69
151.0587	90
152.0635	292
153.0739	100
155.0865	26
163.0584	26
164.0662	47
165.0729	260
176.0646	37
177.0745	31
178.0805	79
189.0741	74
