Mass spectrum: Medroxyprogesterone-17-acetate; LC-ESI-QTOF; MS2; 120 V
Name: Medroxyprogesterone-17-acetate
Class: Pharmaceutical
Formula: C24H34O4
Exact mass: 386.2457
SMILES: CC1CC2C(CCC3(C2CCC3(C(=O)C)OC(=O)C)C)C4(C1=CC(=O)CC4)C
InChI: InChI=1S/C24H34O4/c1-14-12-18-19(22(4)9-6-17(27)13-21(14)22)7-10-23(5)20(18)8-11-24(23,15(2)25)28-16(3)26/h13-14,18-20H,6-12H2,1-5H3
Instrument: TripleTOF 5600 SCIEX
Instrument type: LC-ESI-QTOF
Ms type: MS2
Ion mode: POSITIVE
Collision energy: 120
Fragmentation mode: CID
Ionization: ESI
Column name: Zorbax Eclipse Plus C18 2.1 mm x 150 mm, 3.5 um, Agilent
Retention time: 13.723 min
Precursor m/z: 387.253
Precursor type: [M+H]+
m/z	relative intensity
37.0073	23
39.023	95
41.0386	111
43.0182	339
50.015	19
51.0229	79
53.0391	59
55.0183	23
55.0543	135
57.0337	19
65.0386	183
67.0547	207
69.0718	31
77.0392	999
78.0465	43
79.0546	423
80.0613	19
81.0335	35
81.0705	59
82.0414	35
83.0491	87
89.0404	31
91.0547	863
93.0693	75
94.0416	43
95.0491	27
95.0855	47
97.0649	275
101.0408	19
102.0455	39
103.0539	167
104.0621	35
105.0701	239
107.0494	91
107.0866	15
108.0577	51
109.0679	27
115.054	551
116.0622	79
117.0702	151
119.0836	47
121.0678	15
123.0811	127
126.0469	27
127.0556	167
128.0624	535
129.0696	203
130.0781	39
131.0867	35
139.0576	19
141.0698	271
142.0776	47
143.0869	27
151.054	27
152.0627	179
153.0698	139
154.0785	43
155.0864	39
165.0701	259
166.0768	27
167.0882	47
178.0779	71
179.0861	43
181.1099	15
189.0753	23
191.0822	15
