Mass spectrum: Chlormethiazole; LC-ESI-QTOF; MS2; 90 V
Name: Chlormethiazole
Class: Pharmaceutical
Formula: C6H8ClNS
Exact mass: 161.0066
SMILES: CC1=C(SC=N1)CCCl
InChI: InChI=1S/C6H8ClNS/c1-5-6(2-3-7)9-4-8-5/h4H,2-3H2,1H3
Instrument: TripleTOF 6600 SCIEX
Instrument type: LC-ESI-QTOF
Ms type: MS2
Ion mode: POSITIVE
Collision energy: 90
Fragmentation mode: CID
Ionization: ESI
Column name: Zorbax Eclipse Plus C18 2.1 mm x 150 mm, 3.5 um, Agilent
Retention time: 7.946 min
Precursor m/z: 162.0139
Precursor type: [M+H]+
m/z	relative intensity
37.0073	108
38.0148	83
39.0229	241
41.0259	49
41.0383	66
42.0336	233
43.9721	66
44.9794	999
50.0151	99
51.0228	116
53.0382	99
54.0333	66
57.9875	66
58.9947	133
68.9798	83
70.9945	283
84.0015	33
85.0096	83
