Mass spectrum: Metoprolol; LC-ESI-QTOF; MS2; 150 V
Name: Metoprolol
Class: Pharmaceutical
Formula: C15H25NO3
Exact mass: 267.1834
SMILES: CC(C)NCC(COC1=CC=C(C=C1)CCOC)O
InChI: InChI=1S/C15H25NO3/c1-12(2)16-10-14(17)11-19-15-6-4-13(5-7-15)8-9-18-3/h4-7,12,14,16-17H,8-11H2,1-3H3
Instrument: TripleTOF 6600 SCIEX
Instrument type: LC-ESI-QTOF
Ms type: MS2
Ion mode: POSITIVE
Collision energy: 150
Fragmentation mode: CID
Ionization: ESI
Column name: Zorbax Eclipse Plus C18 2.1 mm x 150 mm, 3.5 um, Agilent
Retention time: 6.14 min
Precursor m/z: 268.1907
Precursor type: [M+H]+
m/z	relative intensity
30.0337	133
35.9989	57
37.0072	336
38.0024	68
38.0149	202
39.0229	815
41.0391	156
42.0338	122
43.0176	19
43.0423	19
44.0488	53
45.0337	26
49.0071	91
50.0148	872
51.0226	999
53.0123	26
61.0064	107
62.0135	168
63.0226	149
65.0381	95
73.0066	30
74.0137	126
75.0228	45
76.0296	26
77.0382	118
89.038	38
