Mass spectrum: Isorhamnetin; LC-ESI-QTOF; MS2; 100 V
Name: Isorhamnetin
Class: Pharmaceutical; Metabolite
Formula: C16H12O7
Exact mass: 316.0583
InChI: InChI=1S/C16H12O7/c1-22-11-4-7(2-3-9(11)18)16-15(21)14(20)13-10(19)5-8(17)6-12(13)23-16/h2-6,17-19,21H,1H3
Instrument: TripleTOF 5600 SCIEX
Instrument type: LC-ESI-QTOF
Ms type: CID
Ion mode: NEGATIVE
Collision energy: 100
Ionization: ESI
Column name: Zorbax Eclipse Plus C18 2.1 mm x 150 mm, 3.5 um, Agilent
Retention time: 9.418 min
Precursor m/z: 315.051
Precursor type: [M-H]-
m/z	relative intensity
41.0034	454
65.0036	999
68.9979	60
83.0153	90
89.0032	90
89.0407	90
91.02	60
93.0356	60
95.0138	121
107.0159	90
108.0212	242
109.0305	121
117.0347	181
119.0137	211
129.0377	60
132.021	90
133.0312	121
141.039	121
145.028	60
148.0176	60
169.0271	151
197.0242	60
