Mass spectrum: Ethyl 4-hydroxy-3-nitrobenzoate; LC-ESI-QTOF; MS2; 40 V
Name: Ethyl 4-hydroxy-3-nitrobenzoate
Formula: C9H9NO5
Exact mass: 211.0481
SMILES: CCOC(=O)C1=CC(=C(C=C1)O)[N+](=O)[O-]
InChI: InChI=1S/C9H9NO5/c1-2-15-9(12)6-3-4-8(11)7(5-6)10(13)14/h3-5,11H,2H2,1H3
Instrument: TripleTOF 5600 SCIEX
Instrument type: LC-ESI-QTOF
Ms type: MS2
Ion mode: NEGATIVE
Collision energy: 40
Fragmentation mode: CID
Ionization: ESI
Column name: Zorbax Eclipse Plus C18 2.1 mm x 150 mm, 3.5 um, Agilent
Retention time: 10.686 min
Precursor m/z: 210.0408
Precursor type: [M-H]-
m/z	relative intensity
45.9928	74
79.0181	93
91.0176	101
92.9977	113
107.0135	238
108.0217	519
136.0544	85
137.0122	811
138.0198	999
182.0109	148
