Mass spectrum: Ampicillin; LC-ESI-QTOF; MS2; 80 V
Name: Ampicillin
Class: Pharmaceutical
Formula: C16H19N3O4S
Exact mass: 349.1096
SMILES: CC1(C)S[C@@H]2[C@H](NC(=O)[C@H](N)c3ccccc3)C(=O)N2[C@H]1C(O)=O
InChI: InChI=1S/C16H19N3O4S/c1-16(2)11(15(22)23)19-13(21)10(14(19)24-16)18-12(20)9(17)8-6-4-3-5-7-8/h3-7,9-11,14H,17H2,1-2H3,(H,18,20)(H,22,23)/t9-,10-,11+,14-/m1/s1
Instrument: TripleTOF 5600 SCIEX
Instrument type: LC-ESI-QTOF
Ms type: MS2
Ion mode: POSITIVE
Collision energy: 80
Fragmentation mode: CID
Ionization: ESI
Column name: Zorbax Eclipse Plus C18 2.1 mm x 150 mm, 3.5 um, Agilent
Retention time: 5.367 min
Precursor m/z: 350.1169
Precursor type: [M+H]+
m/z	relative intensity
53.045	28
58.9984	42
65.0432	49
68.0178	33
68.0517	18
70.0687	70
74.0114	18
77.0417	229
78.0496	9
79.0573	559
82.0671	11
86.0076	127
86.027	11
87.0284	103
89.0391	44
90.0484	108
91.0562	611
94.0665	18
96.0458	18
101.0388	11
103.0551	73
104.0492	11
104.0631	11
106.0658	999
114.0001	59
114.0371	139
115.0563	18
116.0511	16
117.0575	212
118.0438	23
118.0651	214
119.0724	18
120.0827	16
121.0105	188
121.0356	11
128.0498	47
130.0655	87
131.0498	11
135.0274	18
137.0398	9
137.0719	11
146.0615	14
147.0258	28
173.029	18
