Mass spectrum: Telmisartan; LC-ESI-QTOF; MS2; 130 V
Name: Telmisartan
Class: Pharmaceutical; Personal_care_product
Formula: C33H30N4O2
Exact mass: 514.2369
SMILES: CCCc1nc2c(C)cc(cc2n1Cc3ccc(cc3)c4ccccc4C(O)=O)c5nc6ccccc6n5C
InChI: InChI=1S/C33H30N4O2/c1-4-9-30-35-31-21(2)18-24(32-34-27-12-7-8-13-28(27)36(32)3)19-29(31)37(30)20-22-14-16-23(17-15-22)25-10-5-6-11-26(25)33(38)39/h5-8,10-19H,4,9,20H2,1-3H3,(H,38,39)
Instrument: TripleTOF 5600 SCIEX
Instrument type: LC-ESI-QTOF
Ms type: MS2
Ion mode: NEGATIVE
Collision energy: 130
Fragmentation mode: CID
Ionization: ESI
Column name: Zorbax Eclipse Plus C18 2.1 mm x 150 mm, 3.5 um, Agilent
Retention time: 8.861 min
Precursor m/z: 513.2296
Precursor type: [M-H]-
m/z	relative intensity
166.0337	52
205.0719	157
218.0717	210
218.084	52
230.0611	52
230.0828	368
231.0769	525
232.0833	105
243.0628	157
243.0707	105
255.0704	52
257.0798	578
258.0984	210
259.0975	946
269.0832	262
270.0938	420
270.1078	157
271.0992	999
272.1184	105
