Mass spectrum: Quinoline; LC-ESI-QTOF; MS2; 80 V
Name: Quinoline
Formula: C9H7N
Exact mass: 129.0578
SMILES: C1=CC=C2C(=C1)C=CC=N2
InChI: InChI=1S/C9H7N/c1-2-6-9-8(4-1)5-3-7-10-9/h1-7H
Instrument: TripleTOF X500R SCIEX
Instrument type: LC-ESI-QTOF
Ms type: MS2
Ion mode: POSITIVE
Collision energy: 80
Fragmentation mode: CID
Ionization: ESI
Column name: Zorbax Eclipse Plus C18 2.1 mm x 150 mm, 3.5 um, Agilent
Retention time: 4.58 min
Precursor m/z: 130.0651
Precursor type: [M+H]+
m/z	relative intensity
37.007	42
38.0149	24
39.023	49
49.007	118
50.0146	987
51.0224	999
52.0301	11
61.0072	38
62.0149	109
63.0226	69
74.0149	221
75.0226	84
76.03	15
77.0387	118
102.0465	11
