Mass spectrum: 2-(Thiocyanomethylthio)benzothiazole; LC-ESI-QTOF; MS2; 110 V
Name: 2-(Thiocyanomethylthio)benzothiazole
Class: Antimicrobial; Fungicide
Formula: C9H6N2S3
Exact mass: 237.9693
SMILES: C1=CC=C2C(=C1)N=C(S2)SCSC#N
InChI: InChI=1S/C9H6N2S3/c10-5-12-6-13-9-11-7-3-1-2-4-8(7)14-9/h1-4H,6H2
Instrument: TripleTOF 6600 SCIEX
Instrument type: LC-ESI-QTOF
Ms type: MS2
Ion mode: POSITIVE
Collision energy: 110
Fragmentation mode: CID
Ionization: ESI
Column name: Zorbax Eclipse Plus C18 2.1 mm x 150 mm, 3.5 um, Agilent
Retention time: 12.417 min
Precursor m/z: 238.9766
Precursor type: [M+H]+
m/z	relative intensity
35.9992	9
37.0077	117
38.0153	89
39.0231	282
43.9715	69
44.9795	487
45.9741	27
45.9864	19
49.0075	82
50.0153	414
51.0101	9
51.0233	541
52.0187	24
52.0313	19
56.9788	12
57.9871	37
61.0069	57
62.0151	104
63.023	272
63.9433	32
64.0188	77
64.0307	17
65.039	284
67.9713	67
68.9795	999
69.974	14
69.9875	49
70.9956	24
71.9902	24
73.0076	14
74.0148	59
75.0105	12
75.0226	29
76.0179	22
76.0306	17
77.0389	114
78.034	12
78.046	14
80.9799	39
81.9869	147
89.038	17
90.0347	9
91.9707	9
92.9794	107
93.9756	12
94.9951	69
96.002	24
106.9941	12
108.0033	62
109.0114	39
121.0107	19
