Mass spectrum: 3-Acetamidophenol; LC-ESI-QTOF; MS2; 50 V
Name: 3-Acetamidophenol
Class: Pharmaceutical
Formula: C8H9NO2
Exact mass: 151.0633
SMILES: CC(=O)Nc1cccc(O)c1
InChI: InChI=1S/C8H9NO2/c1-6(10)9-7-3-2-4-8(11)5-7/h2-5,11H,1H3,(H,9,10)
Instrument: TripleTOF 5600 SCIEX
Instrument type: LC-ESI-QTOF
Ms type: MS2
Ion mode: NEGATIVE
Collision energy: 50
Fragmentation mode: CID
Ionization: ESI
Column name: Zorbax Eclipse Plus C18 2.1 mm x 150 mm, 3.5 um, Agilent
Retention time: 5.683 min
Precursor m/z: 150.0561
Precursor type: [M-H]-
m/z	relative intensity
39.023	124
40.0198	249
41.0069	499
42.0004	999
44.9992	499
58.0296	249
60.9879	499
66.0007	374
66.0081	124
66.0363	874
67.0194	999
82.0293	249
92.0133	124
107.0434	124
108.0437	499
