Mass spectrum: 4'-O-Demethyl pantoprazole sulfide; LC-ESI-QTOF; MS2; 110 V
Name: 4'-O-Demethyl pantoprazole sulfide
Class: Pharmaceutical; Transformation_product-Metabolite
Formula: C15H13F2N3O3S
Exact mass: 353.0646
SMILES: COC1=C(NC=CC1=O)CSC2=NC3=C(N2)C=C(C=C3)OC(F)F
InChI: InChI=1S/C15H13F2N3O3S/c1-22-13-11(18-5-4-12(13)21)7-24-15-19-9-3-2-8(23-14(16)17)6-10(9)20-15/h2-6,14H,7H2,1H3,(H,18,21)(H,19,20)
Instrument: TripleTOF 6600 SCIEX
Instrument type: LC-ESI-QTOF
Ms type: MS2
Ion mode: POSITIVE
Collision energy: 110
Fragmentation mode: CID
Ionization: ESI
Column name: Zorbax Eclipse Plus C18 2.1 mm x 150 mm, 3.5 um, Agilent
Retention time: 7.57 min
Precursor m/z: 354.0719
Precursor type: [M+H]+
m/z	relative intensity
37.007	106
38.002	10
38.0145	119
39.0225	606
40.0166	10
40.0303	10
41.0253	113
41.0383	18
42.0332	226
43.0171	41
44.0125	26
44.9792	12
50.0141	12
51.0224	80
52.0173	76
52.0301	16
53.0019	108
53.038	999
53.9968	10
54.0326	80
55.0169	94
57.9857	12
61.0061	12
62.0133	51
63.0219	343
64.0173	71
65.0371	125
66.009	351
66.0329	108
66.0455	22
67.0164	285
67.0404	351
68.0116	141
68.0497	22
69.0323	14
70.0276	80
70.9933	43
72.0016	20
78.0322	61
79.0401	39
80.0111	14
80.0485	390
81.0317	125
82.0275	20
83.0362	61
86.0043	28
90.0326	106
91.0402	51
92.0488	145
93.0435	18
93.0555	16
94.0277	240
95.0364	98
96.0436	111
98.0054	34
99.0122	41
105.0423	10
106.0511	28
107.0608	39
108.0426	106
109.0504	22
110.0568	20
111.0301	22
117.0431	86
118.0509	102
120.0437	22
125.9995	326
127.007	12
134.0452	16
135.0544	74
136.0381	164
137.016	30
159.0531	12
166.019	18
