Mass spectrum: Dimethyl-ditetradecylammonium; LC-ESI-QTOF; MS2; 130 V
Name: Dimethyl-ditetradecylammonium
Class: Pharmaceutical
Formula: [C30H64N]+
Exact mass: 438.5033
SMILES: CCCCCCCCCCCCCC[N+](C)(C)CCCCCCCCCCCCCC
InChI: InChI=1S/C30H64N/c1-5-7-9-11-13-15-17-19-21-23-25-27-29-31(3,4)30-28-26-24-22-20-18-16-14-12-10-8-6-2/h5-30H2,1-4H3/q+1
Instrument: TripleTOF 5600 SCIEX
Instrument type: LC-ESI-QTOF
Ms type: MS2
Ion mode: POSITIVE
Collision energy: 130
Fragmentation mode: CID
Ionization: ESI
Column name: Zorbax Eclipse Plus C18 2.1 mm x 150 mm, 3.5 um, Agilent
Retention time: 16.898 min
Precursor m/z: 438.5033
Precursor type: [M]+
m/z	relative intensity
55.0593	51
57.0744	97
58.0705	999
