Mass spectrum: Norethynodrel; LC-ESI-QTOF; MS2; 130 V
Name: Norethynodrel
Class: Pharmaceutical
Formula: C20H26O2
Exact mass: 298.1933
SMILES: C[C@]12CC[C@H]3[C@@H](CCC4=C3CCC(=O)C4)[C@@H]1CC[C@@]2(O)C#C
InChI: InChI=1S/C20H26O2/c1-3-20(22)11-9-18-17-6-4-13-12-14(21)5-7-15(13)16(17)8-10-19(18,20)2/h1,16-18,22H,4-12H2,2H3/t16-,17-,18+,19+,20+/m1/s1
Instrument: TripleTOF 5600 SCIEX
Instrument type: LC-ESI-QTOF
Ms type: MS2
Ion mode: POSITIVE
Collision energy: 130
Fragmentation mode: CID
Ionization: ESI
Column name: Zorbax Eclipse Plus C18 2.1 mm x 150 mm, 3.5 um, Agilent
Retention time: 11.133 min
Precursor m/z: 299.2006
Precursor type: [M+H]+
m/z	relative intensity
43.0264	32
53.0085	25
55.0241	25
55.0583	42
65.0432	479
66.0496	20
67.0573	52
74.0182	32
75.0271	45
76.0317	40
77.0418	999
78.0501	80
79.0567	174
81.0368	10
81.0713	17
83.0509	65
83.0792	10
89.0404	166
91.0557	353
91.0832	20
94.0424	25
101.039	27
102.0462	146
103.0543	40
107.0492	12
113.0401	12
114.0474	10
115.0542	484
126.0465	58
127.0529	163
128.0617	204
131.0476	10
139.0534	42
141.0699	27
150.0457	40
151.0537	60
152.0624	105
153.0712	12
163.0513	30
164.063	22
165.0695	40
176.0625	17
178.0761	17
189.0675	20
202.077	10
