Mass spectrum: Mandipropamid; LC-ESI-QTOF; MS2; 40 V
Name: Mandipropamid
Class: Fungicide
Formula: C23H22ClNO4
Exact mass: 411.1237
SMILES: COC1=C(C=CC(=C1)CCNC(=O)C(C2=CC=C(C=C2)Cl)OCC#C)OCC#C
InChI: InChI=1S/C23H22ClNO4/c1-4-14-28-20-11-6-17(16-21(20)27-3)12-13-25-23(26)22(29-15-5-2)18-7-9-19(24)10-8-18/h1-2,6-11,16,22H,12-15H2,3H3,(H,25,26)
Instrument: TripleTOF 6600 SCIEX
Instrument type: LC-ESI-QTOF
Ms type: MS2
Ion mode: POSITIVE
Collision energy: 40
Fragmentation mode: CID
Ionization: ESI
Column name: Zorbax Eclipse Plus C18 2.1 mm x 150 mm, 3.5 um, Agilent
Retention time: 12.239 min
Precursor m/z: 412.131
Precursor type: [M+H]+
m/z	relative intensity
89.0383	10
91.0541	25
105.069	10
115.0543	16
116.0606	14
117.0688	18
118.0643	15
119.0725	11
121.0643	21
125.0148	999
128.0608	21
129.069	36
131.0484	17
131.0838	16
133.0616	12
135.0435	15
136.0749	11
138.9932	15
140.0251	35
144.0572	18
144.0799	21
145.0652	28
146.0719	31
147.0429	9
147.0672	22
148.0505	50
148.0737	11
149.0147	11
149.0584	11
150.0535	10
150.0663	21
152.0249	15
157.0644	15
158.072	11
159.0795	11
160.0751	13
161.0602	14
161.0951	39
164.0698	115
165.0772	63
172.0747	21
174.0658	16
175.0741	14
176.0698	23
177.077	35
178.0805	10
187.0741	18
188.1064	21
189.0893	45
194.0718	10
203.0915	40
204.1003	124
208.0869	20
215.0845	17
216.0964	44
221.0956	14
225.0899	25
228.0328	10
229.0403	17
232.0863	16
233.0958	23
237.09	23
239.0619	13
241.0427	13
242.0495	13
243.0568	29
244.0876	17
245.0965	10
251.0603	16
256.0624	21
257.0348	18
260.06	17
261.0909	18
264.1085	26
267.0589	14
270.0664	18
271.0506	28
271.084	22
272.0589	52
279.0566	20
280.0629	9
283.089	27
288.0783	24
289.0865	36
298.0614	11
299.079	25
300.0769	19
311.0821	15
328.1101	68
