Mass spectrum: 1-Boc-4-[3-(ethoxycarbonyl)phenyl]piperazine; LC-ESI-QTOF; MS2; 110 V
Name: 1-Boc-4-[3-(ethoxycarbonyl)phenyl]piperazine
Formula: C18H26N2O4
Exact mass: 334.1893
SMILES: CCOC(=O)C1=CC(=CC=C1)N2CCN(CC2)C(=O)OC(C)(C)C
InChI: InChI=1S/C18H26N2O4/c1-5-23-16(21)14-7-6-8-15(13-14)19-9-11-20(12-10-19)17(22)24-18(2,3)4/h6-8,13H,5,9-12H2,1-4H3
Instrument: TripleTOF 6600 SCIEX
Instrument type: LC-ESI-QTOF
Ms type: MS2
Ion mode: POSITIVE
Collision energy: 110
Fragmentation mode: CID
Ionization: ESI
Column name: Zorbax Eclipse Plus C18 2.1 mm x 150 mm, 3.5 um, Agilent
Retention time: 14.611 min
Precursor m/z: 335.1965
Precursor type: [M+H]+
m/z	relative intensity
37.0074	49
38.0029	24
38.0151	51
39.0233	354
41.0386	155
42.0339	56
44.0495	113
49.0068	22
50.0149	117
51.023	379
52.0302	13
53.0134	11
53.0389	15
56.0498	29
57.0694	33
62.0144	9
63.0226	45
65.0387	718
66.0465	29
74.0152	33
75.0228	142
76.0302	22
77.0387	999
78.034	45
78.0462	92
79.0541	58
80.0499	31
89.0384	151
90.0463	146
91.0543	885
92.0489	63
92.062	15
93.0359	11
93.0572	108
94.0637	20
102.0465	22
103.0538	72
104.0495	103
105.0326	11
105.0441	22
105.0565	22
106.0641	22
115.0534	29
116.0499	49
117.0573	404
118.0652	614
119.0727	27
120.0804	29
121.0283	49
128.048	13
129.056	11
130.0647	63
131.0595	15
131.0711	15
132.0809	20
142.0638	20
144.0466	11
145.0793	20
148.0397	31
150.0557	18
159.0924	11
164.0709	11
