Mass spectrum: Norgestrel; LC-ESI-QTOF; MS2; 30 V
Name: Norgestrel
Class: Pharmaceutical
Formula: C21H28O2
Exact mass: 312.2089
SMILES: CCC12CCC3C(C1CCC2(C#C)O)CCC4=CC(=O)CCC34
InChI: InChI=1S/C21H28O2/c1-3-20-11-9-17-16-8-6-15(22)13-14(16)5-7-18(17)19(20)10-12-21(20,23)4-2/h2,13,16-19,23H,3,5-12H2,1H3
Instrument: TripleTOF 5600 SCIEX
Instrument type: LC-ESI-QTOF
Ms type: MS2
Ion mode: POSITIVE
Collision energy: 30
Fragmentation mode: CID
Ionization: ESI
Column name: Zorbax Eclipse Plus C18 2.1 mm x 150 mm, 3.5 um, Agilent
Retention time: 12.063 min
Precursor m/z: 313.2162
Precursor type: [M+H]+
m/z	relative intensity
67.0616	48
69.0771	19
77.044	27
79.06	96
81.0386	14
81.0757	112
83.055	165
83.0903	10
91.0588	167
93.0744	132
95.0532	15
95.0903	122
97.0678	27
103.0569	13
105.0739	180
107.0529	93
107.0888	118
109.0683	564
109.1047	56
115.0563	25
116.0664	12
117.0731	147
119.089	198
121.0672	37
121.1044	95
123.0835	140
123.1193	77
125.0982	42
128.0647	24
129.0719	140
130.0803	19
131.0881	285
133.0668	27
133.1037	279
135.0828	252
135.1184	96
137.0983	38
137.1351	36
141.0714	51
142.0783	25
143.0877	196
144.0968	15
145.066	12
145.1032	246
147.0814	32
147.1194	102
149.098	178
149.1346	38
151.1138	16
154.0791	10
155.0879	81
156.0948	17
157.0696	15
157.1024	240
159.0807	25
159.1179	247
161.0974	122
161.1334	57
163.1134	129
163.1496	12
165.0704	14
167.0863	57
168.0928	16
169.1022	117
170.1097	16
171.0847	13
171.1191	206
172.1259	12
173.0982	28
173.134	105
175.1125	125
175.1483	76
177.1276	29
179.0871	32
180.0941	12
181.1031	82
183.1187	180
184.1257	10
185.0947	31
185.1333	318
187.1149	49
187.1498	154
188.1223	16
189.1296	76
192.0938	14
193.1033	46
195.1178	106
197.1018	22
197.1328	126
199.1125	32
199.1482	145
201.1283	65
201.1642	28
203.1433	44
203.1798	14
205.1007	17
206.1103	17
207.1157	76
208.1248	23
209.1348	77
210.1369	10
211.1125	34
211.1481	59
213.1313	53
213.165	38
215.1446	32
217.1579	14
219.1158	15
220.129	19
221.1323	97
222.1438	15
223.147	62
225.1307	35
225.1648	110
227.1436	21
227.1798	279
233.1339	23
234.1384	11
235.1487	100
237.1649	146
238.1383	11
239.1415	51
239.1806	28
241.1583	37
243.1757	42
245.19	989
247.1466	11
248.1569	54
249.1645	69
251.1802	45
253.161	23
253.1951	35
266.1649	57
267.1725	59
277.1964	140
295.2064	271
313.2173	999
