Mass spectrum: Carbadox; LC-ESI-QTOF; MS2; 130 V
Name: Carbadox
Class: Antimicrobial; Pharmaceutical
Formula: C11H10N4O4
Exact mass: 262.0702
SMILES: COC(=O)N=NC=C1C=[N+]([O-])c2ccccc2N1O
InChI: InChI=1S/C11H10N4O4/c1-19-11(16)13-12-6-8-7-14(17)9-4-2-3-5-10(9)15(8)18/h2-7,18H,1H3
Instrument: TripleTOF 5600 SCIEX
Instrument type: LC-ESI-QTOF
Ms type: MS2
Ion mode: POSITIVE
Collision energy: 130
Fragmentation mode: CID
Ionization: ESI
Column name: Zorbax Eclipse Plus C18 2.1 mm x 150 mm, 3.5 um, Agilent
Retention time: 5.823 min
Precursor m/z: 263.0775
Precursor type: [M+H]+
m/z	relative intensity
51.0281	552
52.024	111
60.003	44
63.014	27
64.0367	66
73.0102	89
73.0202	22
74.0178	999
75.0139	178
75.0246	474
76.0209	463
77.0384	78
78.0391	22
88.0185	33
89.0409	33
99.0131	33
100.0165	33
102.0355	50
