Mass spectrum: Cyproterone; LC-ESI-QTOF; MS2; 120 V
Name: Cyproterone
Class: Pharmaceutical
Formula: C22H27ClO3
Exact mass: 374.1649
SMILES: CC(=O)C1(CCC2C1(CCC3C2C=C(C4=CC(=O)C5CC5C34C)Cl)C)O
InChI: InChI=1S/C22H27ClO3/c1-11(24)22(26)7-5-14-12-9-18(23)17-10-19(25)13-8-16(13)21(17,3)15(12)4-6-20(14,22)2/h9-10,12-16,26H,4-8H2,1-3H3
Instrument: TripleTOF 5600 SCIEX
Instrument type: LC-ESI-QTOF
Ms type: MS2
Ion mode: POSITIVE
Collision energy: 120
Fragmentation mode: CID
Ionization: ESI
Column name: Zorbax Eclipse Plus C18 2.1 mm x 150 mm, 3.5 um, Agilent
Retention time: 11.881 min
Precursor m/z: 375.1721
Precursor type: [M+H]+
m/z	relative intensity
39.0222	57
41.0391	28
43.018	335
51.0229	64
55.0545	28
63.0236	28
65.0389	149
77.0392	570
78.0456	49
79.0538	121
89.0386	114
91.055	549
93.072	28
102.0453	99
103.053	99
105.0702	92
107.0494	35
114.046	35
115.0543	999
116.0594	35
117.0692	42
126.0463	107
127.0536	328
128.0625	663
129.0696	99
131.0495	42
132.0584	28
139.0549	142
140.0607	35
141.0704	356
150.049	71
151.0554	214
152.0621	734
153.0703	214
154.0786	28
163.0565	92
164.0649	121
165.071	834
166.0758	78
167.088	42
176.0622	206
177.069	128
178.0786	499
179.0848	78
181.0664	57
187.0524	28
188.0632	64
189.0702	577
190.0771	128
191.0852	114
192.0939	28
194.0713	35
200.0614	92
201.0723	114
202.0783	499
203.0866	156
204.0893	28
207.0717	49
213.0678	85
215.084	221
218.0699	42
227.0786	42
228.0909	42
231.0816	71
