Mass spectrum: Carbofuran; LC-ESI-QTOF; MS2; 70 V
Name: Carbofuran
Class: Insecticide; Transformation_product
Formula: C12H15NO3
Exact mass: 221.1052
SMILES: CNC(=O)Oc1cccc2CC(C)(C)Oc12
InChI: InChI=1S/C12H15NO3/c1-12(2)7-8-5-4-6-9(10(8)16-12)15-11(14)13-3/h4-6H,7H2,1-3H3,(H,13,14)
Instrument: TripleTOF 5600 SCIEX
Instrument type: LC-ESI-QTOF
Ms type: MS2
Ion mode: POSITIVE
Collision energy: 70
Fragmentation mode: CID
Ionization: ESI
Column name: Zorbax Eclipse Plus C18 2.1 mm x 150 mm, 3.5 um, Agilent
Retention time: 9.746 min
Precursor m/z: 222.1125
Precursor type: [M+H]+
m/z	relative intensity
55.0232	47
58.0345	140
65.0431	292
67.0585	132
77.0425	999
78.0484	51
79.0562	39
81.0359	23
89.0391	18
91.0561	416
95.0501	70
102.0477	10
103.0542	97
104.063	15
105.034	100
107.0483	22
115.0551	28
123.0442	273
131.0499	36
