Mass spectrum: Tolfenamic acid; LC-ESI-QTOF; MS2; 150 V
Name: Tolfenamic acid
Class: Pharmaceutical
Formula: C14H12ClNO2
Exact mass: 261.0557
SMILES: Cc1cc(Nc2ccccc2C(O)=O)ccc1Cl
InChI: InChI=1S/C14H12ClNO2/c1-9-8-10(6-7-12(9)15)16-13-5-3-2-4-11(13)14(17)18/h2-8,16H,1H3,(H,17,18)
Instrument: TripleTOF 5600 SCIEX
Instrument type: LC-ESI-QTOF
Ms type: MS2
Ion mode: POSITIVE
Collision energy: 150
Fragmentation mode: CID
Ionization: ESI
Column name: Zorbax Eclipse Plus C18 2.1 mm x 150 mm, 3.5 um, Agilent
Retention time: 14.052 min
Precursor m/z: 262.0629
Precursor type: [M+H]+
m/z	relative intensity
52.0344	37
60.0079	60
64.0335	37
72.9868	60
73.009	127
74.0169	999
75.0256	420
75.0548	52
76.0204	30
76.0332	127
77.0403	398
85.0075	247
86.0167	428
87.0225	202
88.0242	90
89.0388	127
89.0468	52
97.0053	30
97.0182	60
98.0147	480
99.0078	30
99.0224	120
100.0309	60
102.0437	60
109.0063	60
110.013	127
111.0195	97
113.0371	105
122.014	75
123.022	37
125.0357	75
126.0454	135
137.0358	37
140.0472	45
149.0349	105
150.0446	368
151.0514	150
176.0454	60
177.0574	45
