Mass spectrum: Desmetryn; LC-ESI-QTOF; MS2; 40 V
Name: Desmetryn
Class: Herbicide
Formula: C8H15N5S
Exact mass: 213.1048
SMILES: CC(C)NC1=NC(=NC(=N1)NC)SC
InChI: InChI=1S/C8H15N5S/c1-5(2)10-7-11-6(9-3)12-8(13-7)14-4/h5H,1-4H3,(H2,9,10,11,12,13)
Instrument: TripleTOF 6600 SCIEX
Instrument type: LC-ESI-QTOF
Ms type: MS2
Ion mode: POSITIVE
Collision energy: 40
Fragmentation mode: CID
Ionization: ESI
Column name: Zorbax Eclipse Plus C18 2.1 mm x 150 mm, 3.5 um, Agilent
Retention time: 7.281 min
Precursor m/z: 214.1121
Precursor type: [M+H]+
m/z	relative intensity
41.0373	22
43.0282	118
43.0527	11
55.0276	33
57.0437	530
68.023	120
74.0043	126
82.0388	999
88.0192	30
91.0307	233
99.0646	58
116.0257	97
124.06	170
130.0411	93
172.0636	678
214.11	46
