Mass spectrum: 5-Hydroxy-Octocrylen; LC-ESI-QTOF; MS2; 60 V
Name: 5-Hydroxy-Octocrylen
Formula: C24H27NO3
Exact mass: 377.1991
SMILES: CC(O)CCC(CC)COC(=O)C(\C#N)=C(\c1ccccc1)c2ccccc2
InChI: InChI=1S/C24H27NO3/c1-3-19(15-14-18(2)26)17-28-24(27)22(16-25)23(20-10-6-4-7-11-20)21-12-8-5-9-13-21/h4-13,18-19,26H,3,14-15,17H2,1-2H3
Instrument: TripleTOF 5600 SCIEX
Instrument type: LC-ESI-QTOF
Ms type: MS2
Ion mode: POSITIVE
Collision energy: 60
Fragmentation mode: CID
Ionization: ESI
Column name: Zorbax Eclipse Plus C18 2.1 mm x 150 mm, 3.5 um, Agilent
Retention time: 13.815 min
Precursor m/z: 378.2064
Precursor type: [M+H]+
m/z	relative intensity
69.0692	151
77.0381	181
105.0336	484
151.0535	151
176.0642	575
177.0696	787
202.0719	121
203.0723	635
204.0789	999
232.0774	393
