Mass spectrum: 3,5-Diiodothyronine; LC-ESI-QTOF; MS2; 140 V
Name: 3,5-Diiodothyronine
Class: Pharmaceutical
Formula: C15H13I2NO4
Exact mass: 524.8934
SMILES: NC(Cc1cc(I)c(Oc2ccc(O)cc2)c(I)c1)C(O)=O
InChI: InChI=1S/C15H13I2NO4/c16-11-5-8(7-13(18)15(20)21)6-12(17)14(11)22-10-3-1-9(19)2-4-10/h1-6,13,19H,7,18H2,(H,20,21)
Instrument: TripleTOF 5600 SCIEX
Instrument type: LC-ESI-QTOF
Ms type: MS2
Ion mode: POSITIVE
Collision energy: 140
Fragmentation mode: CID
Ionization: ESI
Column name: Zorbax Eclipse Plus C18 2.1 mm x 150 mm, 3.5 um, Agilent
Retention time: 7.539 min
Precursor m/z: 525.9007
Precursor type: [M+H]+
m/z	relative intensity
51.0288	54
53.0438	13
64.036	13
65.042	147
67.0434	13
74.0179	19
75.0271	30
76.0341	43
77.0418	298
78.0369	24
78.0486	101
79.0452	43
81.036	79
87.0261	13
88.0328	13
89.0406	347
90.0479	109
91.0205	19
91.0559	62
93.0343	10
94.0437	16
101.0407	35
102.0474	279
103.0546	30
104.05	240
105.0346	38
105.0579	19
106.0411	10
107.0491	13
113.0389	32
114.0453	27
115.0552	878
116.0611	13
117.0577	52
118.042	10
119.0107	10
119.0332	13
125.0379	21
126.0469	145
127.0551	407
127.0813	10
128.0624	618
129.0715	13
131.0504	21
137.042	13
139.0545	320
140.0628	52
141.0705	314
150.047	106
151.0552	295
152.0626	999
153.069	82
154.0639	27
155.0493	145
162.0443	19
163.0558	79
164.0625	35
165.0688	41
166.0638	13
167.0728	71
168.058	82
168.0775	16
169.0654	125
170.0738	13
178.0652	21
179.0508	41
181.0636	117
183.0442	16
184.0502	27
194.0674	16
196.0787	30
197.0594	238
207.0698	19
223.0637	27
