Mass spectrum: 4-(2,4-Dichlorophenoxy)butanoic acid; LC-ESI-QTOF; MS2; 100 V
Name: 4-(2,4-Dichlorophenoxy)butanoic acid
Class: Herbicide
Formula: C10H10Cl2O3
Exact mass: 248.0007
SMILES: C1=CC(=C(C=C1Cl)Cl)OCCCC(=O)O
InChI: InChI=1S/C10H10Cl2O3/c11-7-3-4-9(8(12)6-7)15-5-1-2-10(13)14/h3-4,6H,1-2,5H2,(H,13,14)
Instrument: TripleTOF 6600 SCIEX
Instrument type: LC-ESI-QTOF
Ms type: MS2
Ion mode: POSITIVE
Collision energy: 100
Fragmentation mode: CID
Ionization: ESI
Column name: Zorbax Eclipse Plus C18 2.1 mm x 150 mm, 3.5 um, Agilent
Retention time: 11.685 min
Precursor m/z: 249.008
Precursor type: [M+H]+
m/z	relative intensity
35.9978	64
37.007	225
38.0159	257
39.023	837
41.0399	161
43.0185	805
44.9969	257
45.0341	515
46.9693	64
48.985	32
51.0247	32
60.9853	32
65.0366	32
72.9828	322
73.0083	257
74.0152	999
75.0228	193
77.0388	161
82.9393	32
82.9458	128
83.9734	64
84.9814	32
89.0378	0
98.999	64
106.9408	32
106.9471	32
107.9773	32
108.9814	96
115.0572	64
