Mass spectrum: Pendimethalin; LC-ESI-QTOF; MS2; 100 V
Name: Pendimethalin
Class: Herbicide
Formula: C13H19N3O4
Exact mass: 281.1376
SMILES: CCC(CC)Nc1c(cc(c(c1[N+](=O)[O-])C)C)[N+](=O)[O-]
InChI: InChI=1S/C13H19N3O4/c1-5-10(6-2)14-12-11(15(17)18)7-8(3)9(4)13(12)16(19)20/h7,10,14H,5-6H2,1-4H3
Instrument: TripleTOF 6600 SCIEX
Instrument type: LC-ESI-QTOF
Ms type: MS2
Ion mode: POSITIVE
Collision energy: 100
Fragmentation mode: CID
Ionization: ESI
Column name: Zorbax Eclipse Plus C18 2.1 mm x 150 mm, 3.5 um, Agilent
Retention time: 16.198 min
Precursor m/z: 282.1448
Precursor type: [M+H]+
m/z	relative intensity
37.0077	122
38.0028	50
38.015	214
39.0238	886
41.0389	530
43.0545	112
49.0082	71
50.0157	570
51.0235	937
52.0188	244
52.0313	61
53.0136	50
53.0387	112
54.0352	61
61.0075	50
62.015	173
63.0235	550
64.019	112
64.0318	91
65.0272	50
65.0386	999
66.0343	132
66.0466	101
74.0165	91
75.0098	50
75.0232	224
76.0183	193
76.0307	91
77.0385	632
78.0342	346
80.0494	112
89.0392	489
90.0336	61
91.0414	50
91.0547	275
92.051	112
93.0556	40
102.0336	81
104.0503	50
105.044	91
117.0592	61
118.0528	40
118.0658	71
119.0626	81
130.0398	50
