Mass spectrum: 1-(o-Tolyl)-biguanide; LC-ESI-QTOF; MS2; 110 V
Name: 1-(o-Tolyl)-biguanide
Class: Industrial_process
Formula: C9H13N5
Exact mass: 191.1171
SMILES: Cc1ccccc1N=C(N)N=C(N)N
InChI: InChI=1S/C9H13N5/c1-6-4-2-3-5-7(6)13-9(12)14-8(10)11/h2-5H,1H3,(H6,10,11,12,13,14)
Instrument: TripleTOF 5600 SCIEX
Instrument type: LC-ESI-QTOF
Ms type: MS2
Ion mode: POSITIVE
Collision energy: 110
Fragmentation mode: CID
Ionization: ESI
Column name: Zorbax Eclipse Plus C18 2.1 mm x 150 mm, 3.5 um, Agilent
Retention time: 4.675 min
Precursor m/z: 192.1244
Precursor type: [M+H]+
m/z	relative intensity
41.0225	23
42.0307	36
43.0385	999
52.0234	16
60.0591	34
64.0325	13
65.0426	258
66.0496	22
68.0281	147
74.0177	18
77.0408	105
89.04	77
91.0555	34
92.0506	23
93.0593	17
104.0495	10
