Mass spectrum: Cyproterone; LC-ESI-QTOF; MS2; 50 V
Name: Cyproterone
Class: Pharmaceutical
Formula: C22H27ClO3
Exact mass: 374.1649
SMILES: CC(=O)C1(CCC2C1(CCC3C2C=C(C4=CC(=O)C5CC5C34C)Cl)C)O
InChI: InChI=1S/C22H27ClO3/c1-11(24)22(26)7-5-14-12-9-18(23)17-10-19(25)13-8-16(13)21(17,3)15(12)4-6-20(14,22)2/h9-10,12-16,26H,4-8H2,1-3H3
Instrument: TripleTOF 5600 SCIEX
Instrument type: LC-ESI-QTOF
Ms type: MS2
Ion mode: POSITIVE
Collision energy: 50
Fragmentation mode: CID
Ionization: ESI
Column name: Zorbax Eclipse Plus C18 2.1 mm x 150 mm, 3.5 um, Agilent
Retention time: 11.881 min
Precursor m/z: 375.1721
Precursor type: [M+H]+
m/z	relative intensity
43.0179	330
59.0483	42
67.0544	67
77.0387	126
79.0548	143
81.0691	101
83.0492	93
87.0462	135
91.0545	330
93.0704	211
95.0509	42
95.0865	59
103.0537	33
105.07	533
107.0479	50
107.0857	177
109.0647	143
111.0798	152
115.056	126
116.06	42
117.0689	194
119.0855	270
121.0636	169
121.1016	101
123.0816	93
127.0556	101
128.0608	169
129.0691	270
130.0776	76
131.0495	76
131.0857	228
133.0621	42
133.1005	414
135.0808	59
135.1188	59
137.0916	33
141.0701	287
142.0768	279
143.0861	364
144.0597	84
144.0933	42
145.0655	186
145.1006	203
146.0744	84
147.079	126
147.1164	245
149.0964	42
151.0305	42
151.1122	50
152.0619	118
153.046	67
153.072	143
154.0789	101
155.0239	67
155.0872	372
156.0917	93
157.0654	126
157.1008	287
158.0724	84
159.079	169
159.1156	135
163.0284	50
165.0436	59
165.0688	296
166.0778	110
167.0595	42
167.0855	203
168.0537	42
168.093	101
169.0444	33
169.0663	84
169.1012	186
171.0814	186
171.1184	118
172.0869	76
173.0968	101
175.024	67
175.1124	101
177.0467	160
177.1324	33
178.0769	152
179.0266	42
179.0627	42
179.086	330
180.092	143
181.042	118
181.0644	101
181.1004	355
182.0745	50
182.1087	169
183.082	169
183.1185	270
184.0901	177
185.0953	279
189.0466	101
189.1288	33
190.0759	59
191.0284	194
191.0624	101
191.0852	101
192.0935	152
193.042	93
193.0976	507
194.1093	186
195.0803	152
195.117	347
196.0861	76
196.1253	101
197.0961	101
197.1306	118
198.1007	59
199.1086	42
201.0458	84
202.0785	59
203.0621	110
203.0833	160
204.0973	110
205.0401	143
205.0755	59
205.103	296
206.1085	160
207.0753	93
207.1182	380
208.0911	118
208.1268	84
209.098	211
209.133	211
210.1053	84
210.142	84
211.1119	110
213.048	50
215.0608	33
215.0863	76
216.0973	76
217.098	237
218.1087	194
219.0568	228
219.078	67
219.1185	304
220.0851	59
220.1246	203
221.0743	42
221.0961	228
221.1288	253
222.1026	118
222.1393	67
223.1133	304
223.1448	110
224.1191	50
225.1251	76
227.0583	42
229.0975	118
230.0854	42
230.1081	84
231.0858	93
231.1154	203
232.1234	143
233.099	76
233.131	270
234.1035	84
234.1383	84
235.114	304
235.1489	321
236.1185	177
237.1282	279
237.1603	50
238.1357	59
239.0686	59
239.1441	59
241.0843	93
243.0861	50
243.1171	59
244.1194	76
245.0704	50
245.0977	59
245.1334	211
246.1362	67
246.1491	50
247.111	143
247.1499	101
248.1178	211
249.1293	228
249.1657	110
250.1351	126
250.1721	59
251.1433	220
251.1795	126
253.1612	50
255.1116	118
257.0763	67
259.1126	93
259.1477	93
260.1238	59
260.1531	84
261.1263	84
261.1673	194
262.1392	126
263.1433	999
264.1523	93
265.1587	93
271.0957	50
271.1255	50
273.1255	84
274.14	59
277.1236	50
277.1577	279
278.1325	67
278.1699	152
279.1748	516
285.1601	33
288.1529	59
293.1549	287
293.1791	33
299.1155	118
303.1773	50
306.1631	67
313.127	93
314.148	67
315.1381	59
321.1824	84
