Mass spectrum: Quinoxyfen; LC-ESI-QTOF; MS2; 90 V
Name: Quinoxyfen
Class: Fungicide
Formula: C15H8Cl2FNO
Exact mass: 306.9967
SMILES: C1=CC(=CC=C1OC2=C3C(=CC(=CC3=NC=C2)Cl)Cl)F
InChI: InChI=1S/C15H8Cl2FNO/c16-9-7-12(17)15-13(8-9)19-6-5-14(15)20-11-3-1-10(18)2-4-11/h1-8H
Instrument: TripleTOF 6600 SCIEX
Instrument type: LC-ESI-QTOF
Ms type: MS2
Ion mode: POSITIVE
Collision energy: 90
Fragmentation mode: CID
Ionization: ESI
Column name: Zorbax Eclipse Plus C18 2.1 mm x 150 mm, 3.5 um, Agilent
Retention time: 15.195 min
Precursor m/z: 308.004
Precursor type: [M+H]+
m/z	relative intensity
50.014	13
51.0217	26
61.0059	24
62.0139	54
63.0219	59
69.0125	49
72.983	89
73.0057	75
74.0142	936
75.0221	999
76.0172	38
76.0287	12
83.0271	15
84.9824	16
86.0134	14
87.0213	57
88.017	13
88.0294	105
89.0373	141
95.028	96
96.9825	55
98.0138	172
99.0219	693
100.0187	204
107.0263	12
108.9822	106
110.9983	33
111.9939	74
114.0328	190
115.0407	371
116.048	61
122.999	715
124.0072	93
126.0329	236
127.041	470
133.0424	14
133.9903	24
134.9982	256
144.043	27
144.9587	41
150.0101	216
151.0177	170
154.0382	107
156.9592	23
157.0437	25
157.9691	19
158.0382	11
161.0023	45
161.0369	25
162.0097	795
162.0434	12
163.0051	90
163.0535	86
164.0507	25
169.9681	75
172.9656	13
178.0051	16
179.0131	40
180.0374	13
181.0448	234
182.05	91
183.059	60
184.9805	50
188.0493	80
189.0561	32
190.0644	63
195.9701	12
196.9794	16
206.0416	17
207.0475	24
208.0544	253
209.0627	55
213.982	24
217.0173	10
237.0587	19
243.024	10
