Mass spectrum: Doxepin; LC-ESI-QTOF; MS2; 100 V
Name: Doxepin
Class: Pharmaceutical
Formula: C19H21NO
Exact mass: 279.1623
SMILES: CN(C)CCC=C1C2=CC=CC=C2COC3=CC=CC=C31
InChI: InChI=1S/C19H21NO/c1-20(2)13-7-11-17-16-9-4-3-8-15(16)14-21-19-12-6-5-10-18(17)19/h3-6,8-12H,7,13-14H2,1-2H3
Instrument: TripleTOF 5600 SCIEX
Instrument type: LC-ESI-QTOF
Ms type: MS2
Ion mode: POSITIVE
Collision energy: 100
Fragmentation mode: CID
Ionization: ESI
Column name: Zorbax Eclipse Plus C18 2.1 mm x 150 mm, 3.5 um, Agilent
Retention time: 7.447 min
Precursor m/z: 280.1696
Precursor type: [M+H]+
m/z	relative intensity
42.0463	36
44.0602	13
55.0281	13
58.0735	70
65.0461	243
68.0558	16
70.072	21
74.02	25
75.0293	36
76.0357	24
77.0447	701
78.0518	46
79.059	54
84.0865	18
86.0207	11
87.0277	28
88.0351	9
89.0428	228
91.0586	279
98.0193	15
99.027	11
101.0433	21
102.05	114
103.0584	17
107.052	24
113.0411	37
114.0493	16
115.0569	833
125.0408	24
126.0479	105
127.056	115
128.0636	258
137.0408	14
138.0478	16
139.0555	357
141.0715	49
149.0401	28
150.0469	225
151.0549	410
152.0627	460
162.0465	39
163.0545	515
164.0628	449
165.0704	814
174.0469	51
175.054	80
176.0619	420
177.0696	98
178.0778	119
186.046	16
187.0534	121
188.062	169
189.0698	999
190.0764	62
191.0842	13
198.0474	30
199.0535	75
200.0613	527
201.0698	161
202.0773	139
211.0557	22
212.0613	18
213.0699	244
214.0786	16
215.0853	64
218.0742	30
