Mass spectrum: Clonidine; LC-ESI-QTOF; MS2; 80 V
Name: Clonidine
Class: Pharmaceutical
Formula: C9H9Cl2N3
Exact mass: 229.0174
SMILES: C1CN=C(N1)NC2=C(C=CC=C2Cl)Cl
InChI: InChI=1S/C9H9Cl2N3/c10-6-2-1-3-7(11)8(6)14-9-12-4-5-13-9/h1-3H,4-5H2,(H2,12,13,14)
Instrument: TripleTOF 6600 SCIEX
Instrument type: LC-ESI-QTOF
Ms type: MS2
Ion mode: POSITIVE
Collision energy: 80
Fragmentation mode: CID
Ionization: ESI
Column name: Zorbax Eclipse Plus C18 2.1 mm x 150 mm, 3.5 um, Agilent
Retention time: 5.408 min
Precursor m/z: 230.0246
Precursor type: [M+H]+
m/z	relative intensity
41.0257	49
42.0208	74
42.0336	158
43.0279	66
44.049	324
46.9669	74
48.9837	174
50.0141	74
51.022	91
61.0066	66
62.0139	149
63.0222	299
64.0175	124
72.9831	682
73.0067	74
74.0143	999
75.022	233
76.0179	74
77.0378	133
78.0337	33
82.9439	158
88.0176	91
89.0376	74
90.0332	258
91.0402	41
96.9829	241
97.9781	124
97.9908	41
98.9988	133
99.0079	74
100.0167	158
102.0331	66
104.0469	58
105.0436	58
106.944	108
108.983	466
109.9907	33
110.9993	49
118.0496	74
123.994	349
125.0016	241
130.0393	66
131.0599	58
132.9593	366
133.063	41
139.0045	41
164.0061	33
