Mass spectrum: Aspartame; LC-ESI-QTOF; MS2; 40 V
Name: Aspartame
Class: Food_additive
Formula: C14H18N2O5
Exact mass: 294.1216
SMILES: COC(=O)C(Cc1ccccc1)NC(=O)C(N)CC(O)=O
InChI: InChI=1S/C14H18N2O5/c1-21-14(20)11(7-9-5-3-2-4-6-9)16-13(19)10(15)8-12(17)18/h2-6,10-11H,7-8,15H2,1H3,(H,16,19)(H,17,18)
Instrument: TripleTOF 5600 SCIEX
Instrument type: LC-ESI-QTOF
Ms type: MS2
Ion mode: POSITIVE
Collision energy: 40
Fragmentation mode: CID
Ionization: ESI
Column name: Zorbax Eclipse Plus C18 2.1 mm x 150 mm, 3.5 um, Agilent
Retention time: 5.761 min
Precursor m/z: 295.1288
Precursor type: [M+H]+
m/z	relative intensity
70.0328	67
77.0407	31
88.0411	82
91.0561	156
93.0704	26
103.0548	142
120.0815	999
121.0644	96
129.07	11
130.0652	87
131.0487	27
144.0806	34
154.0648	23
157.064	19
163.0749	24
172.0752	47
175.0868	103
180.1018	119
182.0591	41
190.0854	25
200.0702	92
217.0962	13
235.1075	68
260.0926	12
