Mass spectrum: Azathioprine; LC-ESI-QTOF; MS2; 20 V
Name: Azathioprine
Class: Pharmaceutical
Formula: C9H7N7O2S
Exact mass: 277.0382
SMILES: Cn1cnc(c1Sc2ncnc3nc[nH]c23)[N+]([O-])=O
InChI: InChI=1S/C9H7N7O2S/c1-15-4-14-7(16(17)18)9(15)19-8-5-6(11-2-10-5)12-3-13-8/h2-4H,1H3,(H,10,11,12,13)
Instrument: TripleTOF 5600 SCIEX
Instrument type: LC-ESI-QTOF
Ms type: MS2
Ion mode: POSITIVE
Collision energy: 20
Fragmentation mode: CID
Ionization: ESI
Column name: Zorbax Eclipse Plus C18 2.1 mm x 150 mm, 3.5 um, Agilent
Retention time: 5.367 min
Precursor m/z: 278.0455
Precursor type: [M+H]+
m/z	relative intensity
67.0324	10
84.9882	96
136.0375	13
136.0518	10
142.0068	999
152.0149	16
164.015	36
165.025	38
174.0777	16
177.0195	11
191.0224	15
199.0722	118
205.0411	136
231.0452	78
232.0522	795
278.0462	110
