Mass spectrum: Fluxapyroxad; LC-ESI-QTOF; MS2; 80 V
Name: Fluxapyroxad
Class: Fungicide
Formula: C18H12F5N3O
Exact mass: 381.0901
SMILES: Cn1cc(c(n1)C(F)F)C(=O)Nc2ccccc2c3cc(c(c(c3)F)F)F
InChI: InChI=1S/C18H12F5N3O/c1-26-8-11(16(25-26)17(22)23)18(27)24-14-5-3-2-4-10(14)9-6-12(19)15(21)13(20)7-9/h2-8,17H,1H3,(H,24,27)
Instrument: TripleTOF 6600 SCIEX
Instrument type: LC-ESI-QTOF
Ms type: MS2
Ion mode: POSITIVE
Collision energy: 80
Fragmentation mode: CID
Ionization: ESI
Column name: Zorbax Eclipse Plus C18 2.1 mm x 150 mm, 3.5 um, Agilent
Retention time: 12.239 min
Precursor m/z: 382.0973
Precursor type: [M+H]+
m/z	relative intensity
42.0337	19
57.0128	9
82.0281	11
109.0388	28
139.0288	29
141.0134	18
147.0221	21
157.0438	32
159.0353	49
167.0284	54
168.036	26
169.0246	14
172.018	12
180.0168	14
181.0272	11
182.0395	32
185.0186	57
186.0268	156
187.035	158
188.0425	87
192.0229	35
193.0259	15
195.0472	21
199.0346	32
200.0454	9
201.0499	12
204.0177	49
205.025	113
206.0339	999
207.0414	36
208.0549	14
211.0222	36
212.0302	104
213.0388	73
214.0452	16
215.0415	26
217.0262	26
218.0342	63
219.0398	70
220.0368	11
220.0548	15
223.0341	14
224.0335	35
225.0498	109
226.046	140
230.0308	18
231.0287	181
232.0375	43
232.0541	19
233.031	16
233.0475	14
234.052	83
236.0299	12
237.037	25
238.0524	36
239.0513	22
240.0367	35
240.0613	23
242.0362	14
243.041	230
244.037	104
245.0472	33
246.0516	16
250.0462	53
251.0461	29
252.0595	50
256.0453	15
257.044	21
258.0519	32
259.0553	14
262.0322	12
264.0609	28
265.0572	18
268.0353	9
269.0437	14
270.0517	95
271.0585	40
272.0557	22
276.0557	11
278.0524	9
279.061	16
282.0511	15
283.047	15
284.0673	11
285.0624	22
292.0614	11
297.0526	11
298.0619	22
