Mass spectrum: Myclobutanil; LC-ESI-QTOF; MS2; 120 V
Name: Myclobutanil
Class: Fungicide
Formula: C15H17ClN4
Exact mass: 288.1142
SMILES: CCCCC(Cn1cncn1)(C#N)c2ccc(Cl)cc2
InChI: InChI=1S/C15H17ClN4/c1-2-3-8-15(9-17,10-20-12-18-11-19-20)13-4-6-14(16)7-5-13/h4-7,11-12H,2-3,8,10H2,1H3
Instrument: TripleTOF 6600 SCIEX
Instrument type: LC-ESI-QTOF
Ms type: MS2
Ion mode: POSITIVE
Collision energy: 120
Fragmentation mode: CID
Ionization: ESI
Column name: Zorbax Eclipse Plus C18 2.1 mm x 150 mm, 3.5 um, Agilent
Retention time: 12.025 min
Precursor m/z: 289.1215
Precursor type: [M+H]+
m/z	relative intensity
35.9995	24
37.0076	53
38.015	68
39.023	253
41.0383	24
42.0215	68
43.0292	472
46.9681	68
48.9836	112
49.0071	48
50.0153	165
51.0227	180
59.9997	43
61.0071	190
62.0151	462
63.0229	852
64.0306	58
65.0385	87
70.0399	399
72.9841	536
73.0068	34
74.0152	336
74.9993	34
75.0229	360
76.0309	77
77.0384	92
86.0147	24
88.0186	24
88.0304	38
89.0384	999
90.046	107
96.9835	38
98.0149	34
98.9992	204
101.0384	34
102.0457	92
113.0376	29
114.0452	24
115.0536	316
126.0444	19
127.0566	24
128.0607	43
