Mass spectrum: Iotalamic acid; LC-ESI-QTOF; MS2; 80 V
Name: Iotalamic acid
Class: Pharmaceutical
Formula: C11H9I3N2O4
Exact mass: 613.7697
SMILES: CNC(c1c(I)c(C(O)=O)c(I)c(NC(C)=O)c1I)=O
InChI: InChI=1S/C11H9I3N2O4/c1-3(17)16-9-7(13)4(10(18)15-2)6(12)5(8(9)14)11(19)20/h1-2H3,(H,15,18)(H,16,17)(H,19,20)
Instrument: TripleTOF 5600 SCIEX
Instrument type: LC-ESI-QTOF
Ms type: MS2
Ion mode: POSITIVE
Collision energy: 80
Fragmentation mode: CID
Ionization: ESI
Column name: Zorbax Eclipse Plus C18 2.1 mm x 150 mm, 3.5 um, Agilent
Retention time: 4.565 min
Precursor m/z: 614.7769
Precursor type: [M+H]+
m/z	relative intensity
91.0487	30
102.0338	45
118.0295	30
118.0547	45
130.0284	75
131.0356	60
132.0442	37
133.0514	97
135.0306	67
146.0237	45
146.0462	67
147.0308	52
148.062	52
158.0237	255
159.0543	52
174.0172	67
177.0414	999
187.0489	90
203.9293	82
204.9373	52
205.9455	60
229.9409	30
231.9196	97
232.9345	150
233.94	37
244.9507	75
245.9427	60
256.9309	60
257.9412	165
259.9174	37
261.9331	60
272.9254	60
272.9489	67
273.9345	202
284.9246	127
285.9347	60
300.9457	90
301.9303	405
302.9382	52
318.9537	45
329.9221	105
355.8449	90
359.8386	112
381.8239	37
383.8328	60
387.8283	45
415.8256	150
