Mass spectrum: Bezafibrate; LC-ESI-QTOF; MS2; 40 V
Name: Bezafibrate
Class: Pharmaceutical
Formula: C19H20ClNO4
Exact mass: 361.1081
SMILES: CC(C)(Oc1ccc(CCNC(=O)c2ccc(Cl)cc2)cc1)C(O)=O
InChI: InChI=1S/C19H20ClNO4/c1-19(2,18(23)24)25-16-9-3-13(4-10-16)11-12-21-17(22)14-5-7-15(20)8-6-14/h3-10H,11-12H2,1-2H3,(H,21,22)(H,23,24)
Instrument: TripleTOF 5600 SCIEX
Instrument type: LC-ESI-QTOF
Ms type: MS2
Ion mode: POSITIVE
Collision energy: 40
Fragmentation mode: CID
Ionization: ESI
Column name: Zorbax Eclipse Plus C18 2.1 mm x 150 mm, 3.5 um, Agilent
Retention time: 11.033 min
Precursor m/z: 362.1154
Precursor type: [M+H]+
m/z	relative intensity
77.0416	34
87.0452	16
91.0558	36
93.0712	48
103.0542	40
110.9998	111
121.0652	483
138.9951	999
161.0958	85
207.101	12
276.0767	90
316.1081	139
