Mass spectrum: 2-(5-Chloro-2-methoxyphenyl)-1H-benzimidazole; LC-ESI-QTOF; MS2; 70 V
Name: 2-(5-Chloro-2-methoxyphenyl)-1H-benzimidazole
Class: Pharmaceutical
Formula: C14H11ClN2O
Exact mass: 258.056
SMILES: COc1ccc(cc1c2[nH]c3ccccc3n2)Cl
InChI: InChI=1S/C14H11ClN2O/c1-18-13-7-6-9(15)8-10(13)14-16-11-4-2-3-5-12(11)17-14/h2-8H,1H3,(H,16,17)
Instrument: TripleTOF 5600 SCIEX
Instrument type: LC-ESI-QTOF
Ms type: MS2
Ion mode: POSITIVE
Collision energy: 70
Fragmentation mode: CID
Ionization: ESI
Column name: Zorbax Eclipse Plus C18 2.1 mm x 150 mm, 3.5 um, Agilent
Retention time: 7.374 min
Precursor m/z: 259.0633
Precursor type: [M+H]+
m/z	relative intensity
65.0429	88
75.0259	10
77.0421	159
78.0365	25
90.0355	71
91.0442	21
92.0508	42
102.035	22
127.0544	202
128.0538	93
129.0444	14
129.0646	25
131.0604	28
142.0521	17
152.0496	23
153.0558	64
154.0653	249
155.0603	77
156.0666	12
168.0678	11
179.0605	157
180.0674	213
181.0763	999
203.035	13
215.0358	30
216.0443	46
