Mass spectrum: Sertaconazole; LC-ESI-QTOF; MS2; 110 V
Name: Sertaconazole
Class: Fungicide; Pharmaceutical; Antimicrobial
Formula: C20H15Cl3N2OS
Exact mass: 435.9971
SMILES: C1=CC2=C(C(=C1)Cl)SC=C2COC(CN3C=CN=C3)C4=C(C=C(C=C4)Cl)Cl
InChI: InChI=1S/C20H15Cl3N2OS/c21-14-4-5-16(18(23)8-14)19(9-25-7-6-24-12-25)26-10-13-11-27-20-15(13)2-1-3-17(20)22/h1-8,11-12,19H,9-10H2
Instrument: TripleTOF 5600 SCIEX
Instrument type: LC-ESI-QTOF
Ms type: MS2
Ion mode: POSITIVE
Collision energy: 110
Fragmentation mode: CID
Ionization: ESI
Column name: Zorbax Eclipse Plus C18 2.1 mm x 150 mm, 3.5 um, Agilent
Retention time: 10.403 min
Precursor m/z: 437.0043
Precursor type: [M+H]+
m/z	relative intensity
68.9831	178
69.0474	49
74.0187	31
75.0259	134
76.0342	36
77.042	11
78.9434	16
81.0471	56
89.0402	19
92.9812	32
101.0396	284
102.0476	904
111.0009	23
113.0387	16
114.0469	49
118.995	26
120.0033	33
123.0003	21
129.0446	22
136.0064	29
137.0159	96
145.0113	999
146.0188	467
149.0157	254
154.972	87
158.9749	14
179.9807	13
180.9875	489
189.0695	14
232.0351	16
233.0447	9
234.0496	24
236.0389	11
268.016	11
