Mass spectrum: Oxycodone; LC-ESI-QTOF; MS2; 80 V
Name: Oxycodone
Class: Pharmaceutical
Formula: C18H21NO4
Exact mass: 315.1471
SMILES: CN1CCC23C4C(=O)CCC2(C1CC5=C3C(=C(C=C5)OC)O4)O
InChI: InChI=1S/C18H21NO4/c1-19-8-7-17-14-10-3-4-12(22-2)15(14)23-16(17)11(20)5-6-18(17,21)13(19)9-10/h3-4,13,16,21H,5-9H2,1-2H3
Instrument: TripleTOF 6600 SCIEX
Instrument type: LC-ESI-QTOF
Ms type: MS2
Ion mode: POSITIVE
Collision energy: 80
Fragmentation mode: CID
Ionization: ESI
Column name: Zorbax Eclipse Plus C18 2.1 mm x 150 mm, 3.5 um, Agilent
Retention time: 5.206 min
Precursor m/z: 316.1543
Precursor type: [M+H]+
m/z	relative intensity
39.022	10
42.0331	59
44.0483	24
55.0162	14
63.0213	11
65.0373	32
77.0372	158
78.045	78
79.0529	19
80.0488	16
89.0375	84
90.0435	22
91.0527	127
93.0554	16
94.0641	55
101.0384	24
102.0449	94
103.0529	171
104.0617	40
105.0689	16
113.0366	15
114.0453	39
115.053	661
116.0609	81
117.0556	65
118.0396	42
118.0621	13
126.0451	43
127.0527	350
128.0606	631
129.0674	139
130.0641	34
131.0477	351
131.0694	30
132.0557	135
132.0782	50
133.0617	10
139.053	204
140.0588	101
141.069	302
142.0697	56
143.0477	21
143.0705	82
144.0552	84
144.0794	29
145.0643	22
146.0355	16
150.0453	16
151.0525	135
152.0611	694
153.0678	318
154.064	446
155.0522	169
155.0701	218
156.056	44
156.0781	62
157.0643	47
157.0863	22
158.0943	15
159.0418	24
159.0782	14
160.0496	40
160.0801	11
161.0564	10
163.0518	23
164.0607	32
165.0683	269
166.0639	298
167.0718	286
168.0788	999
169.0666	73
169.0867	524
170.0363	14
170.0659	43
170.0946	140
171.0442	31
171.0777	35
172.0501	13
172.0767	17
175.0749	33
176.0619	38
177.0687	35
178.0733	109
179.0733	77
180.0799	294
181.0649	92
181.0868	730
182.0591	152
182.0974	128
183.0428	98
183.0653	119
184.0512	101
184.0741	57
184.1108	59
185.0597	25
189.067	24
190.0681	14
191.0743	34
192.079	50
193.088	38
194.0606	21
194.0962	130
195.0753	50
195.1022	20
196.0745	287
196.108	19
197.0602	40
197.0832	266
198.0678	38
198.0888	118
199.0737	35
200.0697	11
203.0731	14
204.0784	38
205.0638	15
205.0839	16
206.0609	17
206.0972	14
207.0655	21
208.0761	57
208.1097	15
209.0569	18
209.0818	28
210.0553	55
210.0892	89
211.0636	113
211.0996	26
212.0694	66
212.1049	204
213.0823	20
214.0819	20
218.0969	22
220.0723	18
220.1115	11
221.0826	22
222.0926	41
223.0974	11
224.0688	52
224.1063	24
225.0808	85
226.0848	140
234.0937	10
238.0871	71
239.0907	19
240.0994	40
250.0879	14
254.1141	12
