Mass spectrum: Tris(2-butoxyethyl) phosphate; LC-ESI-QTOF; MS2; 150 V
Name: Tris(2-butoxyethyl) phosphate
Class: Industrial_process
Formula: C18H39O7P
Exact mass: 398.2433
SMILES: CCCCOCCOP(=O)(OCCOCCCC)OCCOCCCC
InChI: InChI=1S/C18H39O7P/c1-4-7-10-20-13-16-23-26(19,24-17-14-21-11-8-5-2)25-18-15-22-12-9-6-3/h4-18H2,1-3H3
Instrument: TripleTOF 6600 SCIEX
Instrument type: LC-ESI-QTOF
Ms type: MS2
Ion mode: POSITIVE
Collision energy: 150
Fragmentation mode: CID
Ionization: ESI
Column name: Zorbax Eclipse Plus C18 2.1 mm x 150 mm, 3.5 um, Agilent
Retention time: 14.631 min
Precursor m/z: 399.2506
Precursor type: [M+H]+
m/z	relative intensity
35.9994	53
37.0074	225
38.0023	118
38.0152	139
39.023	999
41.0384	365
43.0176	268
45.0335	913
52.0053	42
53.0135	96
62.9627	461
80.9733	633
98.9829	75
