Mass spectrum: Metoprolol; LC-ESI-QTOF; MS2; 40 V
Name: Metoprolol
Class: Pharmaceutical
Formula: C15H25NO3
Exact mass: 267.1834
SMILES: CC(C)NCC(COC1=CC=C(C=C1)CCOC)O
InChI: InChI=1S/C15H25NO3/c1-12(2)16-10-14(17)11-19-15-6-4-13(5-7-15)8-9-18-3/h4-7,12,14,16-17H,8-11H2,1-3H3
Instrument: TripleTOF 6600 SCIEX
Instrument type: LC-ESI-QTOF
Ms type: MS2
Ion mode: POSITIVE
Collision energy: 40
Fragmentation mode: CID
Ionization: ESI
Column name: Zorbax Eclipse Plus C18 2.1 mm x 150 mm, 3.5 um, Agilent
Retention time: 6.14 min
Precursor m/z: 268.1907
Precursor type: [M+H]+
m/z	relative intensity
30.0339	131
39.0225	25
41.0379	72
43.0171	45
43.054	101
44.0492	21
45.0331	30
55.0169	23
56.0491	602
57.0327	12
58.0648	98
65.0377	10
72.0802	536
74.0593	851
77.0375	357
79.0535	242
84.0795	46
91.0531	432
93.0689	116
98.0956	343
100.1114	60
102.044	16
103.053	674
104.06	25
105.0689	546
107.0482	23
107.0833	12
115.0533	140
116.0607	90
116.1056	488
117.0684	63
119.0472	24
119.0833	48
120.0564	41
121.0636	877
128.0611	26
129.0688	94
131.0476	70
131.0843	193
133.0638	999
135.0796	90
141.0678	101
144.0562	156
147.0788	83
148.0739	240
149.0564	10
159.0789	532
161.0951	16
163.0842	133
163.1098	20
165.0889	123
169.0733	12
176.1052	80
177.0907	65
179.1047	21
191.1047	238
194.117	31
218.1534	30
226.1411	36
250.1809	15
268.1889	411
