Mass spectrum: Cyclopropyltriphenylphosphonium; LC-ESI-QTOF; MS2; 130 V
Name: Cyclopropyltriphenylphosphonium
Formula: [C21H20P]+
Exact mass: 303.1297
SMILES: C1CC1[P+](C2=CC=CC=C2)(C3=CC=CC=C3)C4=CC=CC=C4
InChI: InChI=1S/C21H20P/c1-4-10-18(11-5-1)22(21-16-17-21,19-12-6-2-7-13-19)20-14-8-3-9-15-20/h1-15,21H,16-17H2/q+1
Instrument: TripleTOF 6600 SCIEX
Instrument type: LC-ESI-QTOF
Ms type: MS2
Ion mode: POSITIVE
Collision energy: 130
Fragmentation mode: CID
Ionization: ESI
Column name: Zorbax Eclipse Plus C18 2.1 mm x 150 mm, 3.5 um, Agilent
Retention time: 7.786 min
Precursor m/z: 303.1297
Precursor type: [M]+
m/z	relative intensity
39.0274	128
50.0193	57
51.0271	71
55.985	75
56.9928	167
61.0108	53
62.0188	128
63.0267	299
65.0423	180
67.9843	54
74.0181	106
76.0339	82
77.0415	108
78.9761	115
79.984	321
80.9917	419
86.0168	52
87.0245	98
89.0405	346
91.0564	60
98.0173	50
102.0483	141
103.983	67
107.0067	999
113.0405	82
115.0562	346
126.0484	281
131.0058	101
139.0556	174
150.0481	322
151.056	438
152.0641	448
155.0059	78
156.0134	70
157.0213	238
179.0054	58
180.0132	84
181.0211	345
