Mass spectrum: 6-Methylthioinosin; LC-ESI-QTOF; MS2; 50 V
Name: 6-Methylthioinosin
Class: Pharmaceutical
Formula: C11H14N4O4S
Exact mass: 298.0736
SMILES: CSc1ncnc2n(cnc12)C3OC(CO)C(O)C3O
InChI: InChI=1S/C11H14N4O4S/c1-20-10-6-9(12-3-13-10)15(4-14-6)11-8(18)7(17)5(2-16)19-11/h3-5,7-8,11,16-18H,2H2,1H3
Instrument: TripleTOF 5600 SCIEX
Instrument type: LC-ESI-QTOF
Ms type: MS2
Ion mode: NEGATIVE
Collision energy: 50
Fragmentation mode: CID
Ionization: ESI
Column name: Zorbax Eclipse Plus C18 2.1 mm x 150 mm, 3.5 um, Agilent
Retention time: 5.666 min
Precursor m/z: 297.0663
Precursor type: [M-H]-
m/z	relative intensity
45.002	62
119.0351	187
120.9508	62
122.9617	62
136.9465	312
138.963	561
149.9985	999
150.9795	62
164.9419	187
165.0237	499
182.9532	312
