Mass spectrum: Temazepam; LC-ESI-QTOF; MS2; 60 V
Name: Temazepam
Class: Pharmaceutical
Formula: C16H13ClN2O2
Exact mass: 300.0666
SMILES: CN1C2=C(C=C(C=C2)Cl)C(=NC(C1=O)O)C3=CC=CC=C3
InChI: InChI=1S/C16H13ClN2O2/c1-19-13-8-7-11(17)9-12(13)14(18-15(20)16(19)21)10-5-3-2-4-6-10/h2-9,15,20H,1H3
Instrument: TripleTOF 6600 SCIEX
Instrument type: LC-ESI-QTOF
Ms type: MS2
Ion mode: POSITIVE
Collision energy: 60
Fragmentation mode: CID
Ionization: ESI
Column name: Zorbax Eclipse Plus C18 2.1 mm x 150 mm, 3.5 um, Agilent
Retention time: 10.497 min
Precursor m/z: 301.0738
Precursor type: [M+H]+
m/z	relative intensity
51.0216	16
63.0212	16
75.0209	40
77.0368	254
89.0366	230
90.0442	100
91.0528	27
98.9977	96
100.016	96
104.0475	86
106.0639	12
110.9976	133
114.0322	26
115.0403	14
116.0471	30
117.0552	129
122.9978	64
123.9919	12
125.0131	228
127.0161	42
135.9924	130
138.0081	29
139.0031	34
141.0425	14
142.0509	92
150.0088	163
150.0448	12
151.0084	26
151.0521	152
152.0248	78
152.0593	68
153.066	10
163.9991	171
164.0601	17
165.0682	278
166.0748	36
167.0701	27
176.0467	31
177.0207	999
178.0632	122
178.9975	17
179.0702	73
180.0217	11
180.0793	127
190.0647	14
191.0711	39
192.0791	168
193.0872	492
194.0851	38
199.0331	15
202.0558	10
203.0595	38
204.0669	34
205.0749	447
206.059	17
213.0321	13
214.0396	73
218.0848	12
219.0915	118
227.0483	32
228.046	103
229.0511	39
239.0367	782
243.0654	46
253.0519	31
255.0679	711
257.0467	20
