Mass spectrum: Alachlor; LC-ESI-QTOF; MS2; 150 V
Name: Alachlor
Class: Herbicide
Formula: C14H20ClNO2
Exact mass: 269.1183
SMILES: CCC1=C(C(=CC=C1)CC)N(COC)C(=O)CCl
InChI: InChI=1S/C14H20ClNO2/c1-4-11-7-6-8-12(5-2)14(11)16(10-18-3)13(17)9-15/h6-8H,4-5,9-10H2,1-3H3
Instrument: TripleTOF 6600 SCIEX
Instrument type: LC-ESI-QTOF
Ms type: MS2
Ion mode: POSITIVE
Collision energy: 150
Fragmentation mode: CID
Ionization: ESI
Column name: Zorbax Eclipse Plus C18 2.1 mm x 150 mm, 3.5 um, Agilent
Retention time: 13.233 min
Precursor m/z: 270.1255
Precursor type: [M+H]+
m/z	relative intensity
31.0177	312
39.0223	686
48.9828	499
50.014	749
51.022	811
62.0146	437
63.0239	561
65.0369	249
77.0379	561
89.036	999
