Mass spectrum: Boscalid; LC-ESI-QTOF; MS2; 50 V
Name: Boscalid
Class: Fungicide
Formula: C18H12Cl2N2O
Exact mass: 342.0327
SMILES: C1=CC=C(C(=C1)C2=CC=C(C=C2)Cl)NC(=O)C3=C(N=CC=C3)Cl
InChI: InChI=1S/C18H12Cl2N2O/c19-13-9-7-12(8-10-13)14-4-1-2-6-16(14)22-18(23)15-5-3-11-21-17(15)20/h1-11H,(H,22,23)
Instrument: TripleTOF 6600 SCIEX
Instrument type: LC-ESI-QTOF
Ms type: MS2
Ion mode: POSITIVE
Collision energy: 50
Fragmentation mode: CID
Ionization: ESI
Column name: Zorbax Eclipse Plus C18 2.1 mm x 150 mm, 3.5 um, Agilent
Retention time: 12.31 min
Precursor m/z: 343.04
Precursor type: [M+H]+
m/z	relative intensity
51.0229	15
76.018	40
78.0336	148
111.9947	343
114.0101	15
139.9891	177
140.0489	10
152.0618	33
167.0594	10
177.0563	13
202.0653	11
202.0778	15
203.0736	12
216.0797	26
217.0878	37
226.0643	21
227.072	42
228.08	41
229.0878	28
238.0413	14
242.0838	79
243.0917	216
244.0981	84
245.0726	19
252.0666	23
253.0748	127
254.0843	132
262.0406	15
263.0375	10
264.0581	17
270.079	59
271.0865	999
272.0948	694
289.0538	135
305.0491	21
307.0624	128
