Mass spectrum: Triadimefon; LC-ESI-QTOF; MS2; 80 V
Name: Triadimefon
Class: Fungicide; Transformation_product
Formula: C14H16ClN3O2
Exact mass: 293.0931
SMILES: CC(C)(C)C(=O)C(N1C=NC=N1)OC2=CC=C(C=C2)Cl
InChI: InChI=1S/C14H16ClN3O2/c1-14(2,3)12(19)13(18-9-16-8-17-18)20-11-6-4-10(15)5-7-11/h4-9,13H,1-3H3
Instrument: TripleTOF 5600 SCIEX
Instrument type: LC-ESI-QTOF
Ms type: MS2
Ion mode: POSITIVE
Collision energy: 80
Fragmentation mode: CID
Ionization: ESI
Column name: Zorbax Eclipse Plus C18 2.1 mm x 150 mm, 3.5 um, Agilent
Retention time: 12.319 min
Precursor m/z: 294.1004
Precursor type: [M+H]+
m/z	relative intensity
37.0072	47
38.015	41
39.0233	283
41.039	428
42.0462	13
48.9839	25
50.0157	30
51.0231	55
53.0389	13
55.0548	233
57.0704	431
63.0234	50
65.0393	102
66.0468	19
67.0546	16
69.0698	64
70.0399	30
70.0791	41
72.9842	492
74.0158	253
75.0032	11
75.0235	915
76.0295	25
77.0385	222
78.0467	30
82.0397	16
84.9846	94
89.039	16
91.0553	105
93.0339	27
94.0416	111
99.0002	999
100.0083	16
101.0394	22
102.0474	27
103.0559	13
111.0002	756
113.0157	33
115.0557	11
125.0161	16
126.9947	44
127.054	22
128.0002	50
128.0628	13
129.0112	13
131.0513	11
139.0061	66
141.0104	25
