Mass spectrum: Flubendazole; LC-ESI-QTOF; MS2; 100 V
Name: Flubendazole
Class: Pharmaceutical
Formula: C16H12FN3O3
Exact mass: 313.0863
SMILES: COC(=O)Nc1[nH]c2cc(ccc2n1)C(=O)c3ccc(F)cc3
InChI: InChI=1S/C16H12FN3O3/c1-23-16(22)20-15-18-12-7-4-10(8-13(12)19-15)14(21)9-2-5-11(17)6-3-9/h2-8H,1H3,(H2,18,19,20,22)
Instrument: TripleTOF 5600 SCIEX
Instrument type: LC-ESI-QTOF
Ms type: MS2
Ion mode: POSITIVE
Collision energy: 100
Fragmentation mode: CID
Ionization: ESI
Column name: Zorbax Eclipse Plus C18 2.1 mm x 150 mm, 3.5 um, Agilent
Retention time: 9.113 min
Precursor m/z: 314.0935
Precursor type: [M+H]+
m/z	relative intensity
51.0282	18
69.0164	37
73.0102	53
74.019	537
75.0268	999
75.0569	11
76.0212	95
77.0289	209
78.036	77
90.0342	12
95.0312	840
103.0292	31
104.0375	167
105.045	138
123.0223	14
123.0335	41
125.0372	15
130.0402	35
131.0281	17
131.0469	42
132.0552	9
133.045	27
145.0448	12
146.0509	13
157.044	41
158.0395	38
159.044	21
182.0378	13
184.0566	11
