Mass spectrum: N-ethyl-4-menthane-3-carboxamide; LC-ESI-QTOF; MS2; 50 V
Name: N-ethyl-4-menthane-3-carboxamide
Class: Food_additive; Personal_care_product
Formula: C13H25NO
Exact mass: 211.1936
SMILES: CCNC(=O)C1CC(CCC1C(C)C)C
InChI: InChI=1S/C13H25NO/c1-5-14-13(15)12-8-10(4)6-7-11(12)9(2)3/h9-12H,5-8H2,1-4H3,(H,14,15)
Instrument: TripleTOF 6600 SCIEX
Instrument type: LC-ESI-QTOF
Ms type: MS2
Ion mode: POSITIVE
Collision energy: 50
Fragmentation mode: CID
Ionization: ESI
Column name: Zorbax Eclipse Plus C18 2.1 mm x 150 mm, 3.5 um, Agilent
Retention time: 11.775 min
Precursor m/z: 212.2009
Precursor type: [M+H]+
m/z	relative intensity
37.0069	26
38.0021	21
38.0149	22
39.0227	188
41.0385	326
42.0336	17
43.0183	19
43.0539	94
44.0131	893
46.028	78
46.065	42
53.0122	10
53.0383	85
54.0331	25
55.0181	207
55.0539	999
56.0489	20
57.0693	57
58.0646	31
65.0382	28
67.0538	116
69.0331	15
69.0694	168
70.0645	14
72.0439	154
74.0594	60
77.0383	81
79.0535	146
80.0493	19
81.0333	35
81.0691	173
82.0647	34
83.0479	39
83.0847	99
84.0803	20
91.0535	108
93.0686	43
94.0645	21
95.0486	10
95.0847	59
97.1	52
98.0594	62
100.0748	90
105.0691	40
107.0848	26
108.0801	18
112.0746	14
122.0956	13
126.0913	25
170.1525	21
