Mass spectrum: O-tolidine; LC-ESI-QTOF; MS2; 30 V
Name: O-tolidine
Formula: C14H16N2
Exact mass: 212.1313
SMILES: CC1=C(C=CC(=C1)C2=CC(=C(C=C2)N)C)N
InChI: InChI=1S/C14H16N2/c1-9-7-11(3-5-13(9)15)12-4-6-14(16)10(2)8-12/h3-8H,15-16H2,1-2H3
Instrument: TripleTOF 6600 SCIEX
Instrument type: LC-ESI-QTOF
Ms type: MS2
Ion mode: POSITIVE
Collision energy: 30
Fragmentation mode: CID
Ionization: ESI
Column name: Zorbax Eclipse Plus C18 2.1 mm x 150 mm, 3.5 um, Agilent
Retention time: 5.073 min
Precursor m/z: 213.1386
Precursor type: [M+H]+
m/z	relative intensity
106.0661	17
107.0745	14
165.0726	11
178.0797	25
179.089	46
180.0821	354
181.0901	756
182.1012	10
183.0907	16
195.1061	19
196.1138	999
197.112	99
198.1159	940
212.1323	219
213.139	505
