Mass spectrum: Isopyrazam; LC-ESI-QTOF; MS2; 40 V
Name: Isopyrazam
Class: Fungicide
Formula: C20H23F2N3O
Exact mass: 359.1809
SMILES: CC(C)C1C2CCC1C3=C2C=CC=C3NC(=O)C4=CN(N=C4C(F)F)C
InChI: InChI=1S/C20H23F2N3O/c1-10(2)16-12-7-8-13(16)17-11(12)5-4-6-15(17)23-20(26)14-9-25(3)24-18(14)19(21)22/h4-6,9-10,12-13,16,19H,7-8H2,1-3H3,(H,23,26)
Instrument: TripleTOF 6600 SCIEX
Instrument type: LC-ESI-QTOF
Ms type: MS2
Ion mode: POSITIVE
Collision energy: 40
Fragmentation mode: CID
Ionization: ESI
Column name: Zorbax Eclipse Plus C18 2.1 mm x 150 mm, 3.5 um, Agilent
Retention time: 14.619 min
Precursor m/z: 360.1882
Precursor type: [M+H]+
m/z	relative intensity
41.0387	11
55.054	12
67.0542	31
69.0695	44
95.0602	19
95.085	58
109.101	48
132.045	29
154.0643	11
159.036	101
167.071	11
168.0813	11
169.0754	31
170.0966	11
183.0923	10
195.0877	11
196.0867	59
197.0705	44
201.0822	17
209.0618	14
210.1029	21
211.0874	17
212.0827	65
214.0972	10
217.0746	33
220.0873	13
221.0965	16
222.102	22
223.0783	33
224.0816	206
225.0911	21
226.0909	121
227.0605	19
232.0879	28
234.1027	11
235.0817	11
236.0836	56
236.1164	11
237.0909	30
238.0978	343
240.1096	11
244.0884	999
246.1042	24
249.09	124
250.0982	463
251.1089	33
252.113	121
256.0874	10
258.1036	266
260.1185	12
262.0962	32
263.1114	47
264.1137	220
270.1051	60
272.1185	56
276.1143	68
277.1203	139
278.1291	489
284.1181	23
290.1286	15
292.1447	242
298.135	72
303.1508	11
304.1448	21
305.1537	21
320.1758	471
340.1825	23
