Mass spectrum: 2-Methyl-4`-(methylthio)-2-morpholinopropiophenone; LC-ESI-QTOF; MS2; 130 V
Name: 2-Methyl-4`-(methylthio)-2-morpholinopropiophenone
Class: Industrial_process
Formula: C15H21NO2S
Exact mass: 279.1293
SMILES: CC(C)(C(=O)C1=CC=C(C=C1)SC)N2CCOCC2
InChI: InChI=1S/C15H21NO2S/c1-15(2,16-8-10-18-11-9-16)14(17)12-4-6-13(19-3)7-5-12/h4-7H,8-11H2,1-3H3
Instrument: TripleTOF 6600 SCIEX
Instrument type: LC-ESI-QTOF
Ms type: MS2
Ion mode: POSITIVE
Collision energy: 130
Fragmentation mode: CID
Ionization: ESI
Column name: Zorbax Eclipse Plus C18 2.1 mm x 150 mm, 3.5 um, Agilent
Retention time: 7.548 min
Precursor m/z: 280.1366
Precursor type: [M+H]+
m/z	relative intensity
37.0074	102
38.0153	77
39.0232	427
41.0259	20
41.0382	61
42.0338	61
44.0501	30
44.9791	72
49.0071	92
50.0152	484
51.023	999
52.0304	72
56.049	25
61.0067	61
62.015	128
63.0224	365
65.0385	865
66.0461	30
67.9704	36
68.979	303
70.9947	25
74.0144	123
75.0226	92
76.0301	72
77.0385	932
78.046	180
81.9861	41
86.0144	25
89.0381	370
90.0451	41
91.0538	962
92.9775	20
102.0457	108
103.0538	36
108.0018	30
115.0536	684
116.0606	30
117.0695	25
121.01	334
134.0166	46
