Mass spectrum: Acetonyltriphenylphosphonium; LC-ESI-QTOF; MS2; 110 V
Name: Acetonyltriphenylphosphonium
Formula: [C21H20OP]+
Exact mass: 319.1246
SMILES: CC(=O)C[P+](C1=CC=CC=C1)(C2=CC=CC=C2)C3=CC=CC=C3
InChI: InChI=1S/C21H20OP/c1-18(22)17-23(19-11-5-2-6-12-19,20-13-7-3-8-14-20)21-15-9-4-10-16-21/h2-16H,17H2,1H3/q+1
Instrument: TripleTOF 5600 SCIEX
Instrument type: LC-ESI-QTOF
Ms type: MS2
Ion mode: POSITIVE
Collision energy: 110
Fragmentation mode: CID
Ionization: ESI
Column name: Zorbax Eclipse Plus C18 2.1 mm x 150 mm, 3.5 um, Agilent
Retention time: 7.28 min
Precursor m/z: 319.1246
Precursor type: [M]+
m/z	relative intensity
77.0375	59
80.9874	51
89.0369	65
107.003	334
115.0528	269
126.0458	64
133.019	74
139.0534	243
151.0537	171
152.0616	999
157.0197	504
181.0205	218
183.0356	563
226.0772	191
255.0357	52
257.052	237
