Mass spectrum: N-(2-Methoxyphenyl)acetamide; LC-ESI-QTOF; MS2; 40 V
Name: N-(2-Methoxyphenyl)acetamide
Formula: C9H11NO2
Exact mass: 165.079
InChI: InChI=1S/C9H11NO2/c1-7(11)10-8-5-3-4-6-9(8)12-2/h3-6H,1-2H3,(H,10,11)
Instrument: TripleTOF 5600 SCIEX
Instrument type: LC-ESI-QTOF
Ms type: CID
Ion mode: POSITIVE
Collision energy: 40
Ionization: ESI
Column name: Zorbax Eclipse Plus C18 2.1 mm x 150 mm, 3.5 um, Agilent
Retention time: 7.374 min
Precursor m/z: 166.0863
Precursor type: [M+H]+
m/z	relative intensity
45.0332	350
50.0146	25
51.0216	82
65.0387	30
77.0381	839
78.0463	61
79.054	324
91.0541	46
93.0575	36
94.0654	25
104.0503	30
106.0647	999
