Mass spectrum: Hostavin VSU P; LC-ESI-QTOF; MS2; 40 V
Name: Hostavin VSU P
Formula: C18H20N2O3
Exact mass: 312.1474
SMILES: CCC1=CC=CC=C1NC(=O)C(=O)NC2=CC=CC=C2OCC
InChI: InChI=1S/C18H20N2O3/c1-3-13-9-5-6-10-14(13)19-17(21)18(22)20-15-11-7-8-12-16(15)23-4-2/h5-12H,3-4H2,1-2H3,(H,19,21)(H,20,22)
Instrument: TripleTOF 5600 SCIEX
Instrument type: LC-ESI-QTOF
Ms type: MS2
Ion mode: POSITIVE
Collision energy: 40
Fragmentation mode: CID
Ionization: ESI
Column name: Zorbax Eclipse Plus C18 2.1 mm x 150 mm, 3.5 um, Agilent
Retention time: 15.402 min
Precursor m/z: 313.1547
Precursor type: [M+H]+
m/z	relative intensity
65.0398	23
77.0394	23
80.0488	39
91.0537	35
92.0493	51
93.0333	51
93.0575	19
94.0643	63
103.0541	39
105.0706	31
106.0648	35
108.0443	75
109.0512	146
110.0598	300
118.063	43
120.0441	98
120.0799	256
121.0641	19
122.0961	173
130.0646	379
132.0784	39
136.0392	999
138.0909	177
148.0751	126
149.0205	19
