Mass spectrum: Indoxacarb; LC-ESI-QTOF; MS2; 140 V
Name: Indoxacarb
Class: Insecticide
Formula: C22H17ClF3N3O7
Exact mass: 527.0707
SMILES: COC(=O)[C@]12Cc3cc(ccc3C1=NN(CO2)C(=O)N(c4ccc(cc4)OC(F)(F)F)C(=O)OC)Cl
InChI: InChI=1S/C22H17ClF3N3O7/c1-33-18(30)21-10-12-9-13(23)3-8-16(12)17(21)27-28(11-35-21)19(31)29(20(32)34-2)14-4-6-15(7-5-14)36-22(24,25)26/h3-9H,10-11H2,1-2H3/t21-/m0/s1
Instrument: TripleTOF 5600 SCIEX
Instrument type: LC-ESI-QTOF
Ms type: MS2
Ion mode: POSITIVE
Collision energy: 140
Fragmentation mode: CID
Ionization: ESI
Column name: Zorbax Eclipse Plus C18 2.1 mm x 150 mm, 3.5 um, Agilent
Retention time: 15.019 min
Precursor m/z: 528.078
Precursor type: [M+H]+
m/z	relative intensity
45.041	16
51.0308	204
56.0204	229
59.0194	75
65.0432	29
66.0496	19
68.9997	490
69.9947	24
72.9878	99
73.0074	25
74.019	159
75.0269	321
76.0208	11
76.0331	33
77.0421	326
78.0383	769
83.0313	28
86.0169	20
87.0251	74
88.0322	167
89.0411	389
90.0359	49
93.0585	16
95.0298	40
96.9849	69
97.0333	10
98.0166	123
99.0239	506
100.0228	356
101.0396	271
102.0471	206
103.0543	25
104.05	35
106.0303	999
108.9838	22
109.0321	13
109.9928	10
110.9992	29
113.039	368
114.0407	650
115.0544	742
116.0553	86
120.0182	10
123.0005	722
124.0064	184
125.0221	25
126.0368	349
127.0435	615
128.0613	240
129.0436	46
130.0657	17
134.0244	482
135.0001	124
136.008	380
137.0165	17
140.049	80
141.0558	49
142.0651	35
146.9997	86
147.0293	23
148.0016	133
149.0158	342
150.0108	539
151.0195	10
152.0023	105
154.0404	75
155.0594	17
157.0286	26
161.0023	76
162.0109	116
162.9985	36
164.001	26
164.0255	26
175.0235	34
176.024	32
203.0181	46
