Mass spectrum: 2-Aminobenzothiazole; LC-ESI-QTOF; MS2; 80 V
Name: 2-Aminobenzothiazole
Formula: C7H6N2S
Exact mass: 150.0252
SMILES: C1=CC=C2C(=C1)N=C(S2)N
InChI: InChI=1S/C7H6N2S/c8-7-9-5-3-1-2-4-6(5)10-7/h1-4H,(H2,8,9)
Instrument: TripleTOF X500R SCIEX
Instrument type: LC-ESI-QTOF
Ms type: MS2
Ion mode: POSITIVE
Collision energy: 80
Fragmentation mode: CID
Ionization: ESI
Column name: Zorbax Eclipse Plus C18 2.1 mm x 150 mm, 3.5 um, Agilent
Retention time: 4.985 min
Precursor m/z: 151.0325
Precursor type: [M+H]+
m/z	relative intensity
35.9993	30
37.0072	361
38.0149	304
39.0226	999
41.0261	10
43.029	89
44.9795	131
49.0068	22
50.015	171
51.0227	284
52.0183	21
53.0384	84
57.9876	19
59.9902	132
61.0072	22
62.0151	106
63.0229	200
64.0185	174
65.0384	213
67.9719	47
68.9792	789
69.9864	18
74.0148	33
77.0389	44
80.0497	51
80.9796	34
81.9873	64
90.0341	14
91.9712	18
92.9794	83
94.995	29
106.9957	11
108.0028	34
109.0105	13
