Mass spectrum: Dimethachlor; LC-ESI-QTOF; MS2; 130 V
Name: Dimethachlor
Class: Herbicide
Formula: C13H18ClNO2
Exact mass: 255.1026
SMILES: CC1=C(C(=CC=C1)C)N(CCOC)C(=O)CCl
InChI: InChI=1S/C13H18ClNO2/c1-10-5-4-6-11(2)13(10)15(7-8-17-3)12(16)9-14/h4-6H,7-9H2,1-3H3
Instrument: TripleTOF 6600 SCIEX
Instrument type: LC-ESI-QTOF
Ms type: MS2
Ion mode: POSITIVE
Collision energy: 130
Fragmentation mode: CID
Ionization: ESI
Column name: Zorbax Eclipse Plus C18 2.1 mm x 150 mm, 3.5 um, Agilent
Retention time: 10.992 min
Precursor m/z: 256.1099
Precursor type: [M+H]+
m/z	relative intensity
37.0078	59
38.0157	48
39.0234	162
46.9683	119
47.9753	21
48.9843	287
49.0076	135
50.0155	673
51.0234	999
53.0392	32
61.0073	59
62.0157	108
63.0234	190
64.0314	32
65.0385	135
74.015	65
75.0236	48
76.0313	27
77.0385	499
78.0473	32
79.0545	38
89.0385	358
90.0476	76
91.054	76
103.0541	43
106.0647	27
115.0518	32
117.057	32
130.0645	21
