Mass spectrum: Fluazifop; LC-ESI-QTOF; MS2; 70 V
Name: Fluazifop
Class: Herbicide; Transformation_product
Formula: C15H12F3NO4
Exact mass: 327.0718
SMILES: CC(C(=O)O)Oc1ccc(cc1)Oc2ccc(cn2)C(F)(F)F
InChI: InChI=1S/C15H12F3NO4/c1-9(14(20)21)22-11-3-5-12(6-4-11)23-13-7-2-10(8-19-13)15(16,17)18/h2-9H,1H3,(H,20,21)
Instrument: TripleTOF 6600 SCIEX
Instrument type: LC-ESI-QTOF
Ms type: MS2
Ion mode: POSITIVE
Collision energy: 70
Fragmentation mode: CID
Ionization: ESI
Column name: Zorbax Eclipse Plus C18 2.1 mm x 150 mm, 3.5 um, Agilent
Retention time: 11.668 min
Precursor m/z: 328.0791
Precursor type: [M+H]+
m/z	relative intensity
37.0081	25
38.0153	21
39.0235	144
41.0392	11
43.0188	11
49.007	11
50.0159	37
51.0235	80
53.0036	14
53.039	33
55.0183	35
57.0138	16
61.0081	11
62.0159	30
63.0233	236
64.0311	136
65.0391	999
66.0466	35
68.9944	49
70.0219	25
74.0153	47
75.0044	179
75.0235	120
76.018	33
77.0391	205
78.0341	160
79.0165	9
79.0546	21
80.0048	18
81.0335	82
82.04	18
83.0302	14
87.0224	14
88.0306	25
89.0392	21
90.0354	11
90.0483	14
91.0543	418
92.0257	82
93.0337	66
94.0417	77
95.0294	11
96.0243	21
97.0318	63
97.0435	11
99.0039	82
100.0119	153
101.0195	16
101.038	16
102.0457	40
103.0543	148
104.0485	28
105.033	25
106.0089	11
107.016	56
107.0494	11
108.02	14
109.0285	35
110.0364	56
113.0387	47
114.0302	14
114.0465	103
115.0425	18
115.054	23
116.0272	11
116.0505	16
117.0578	42
119.0109	61
119.0355	42
120.018	61
120.045	61
121.0279	25
121.0397	23
123.0222	28
124.0186	14
126.0148	540
127.0227	465
128.03	14
128.0488	80
129.0566	61
130.0649	191
131.0489	531
132.04	37
133.0288	14
133.0458	136
134.0406	28
135.0283	14
135.0483	11
137.0176	18
138.0255	9
139.0407	16
139.0555	25
140.0314	23
140.0496	250
141.0572	555
142.0412	68
142.0651	11
143.0288	73
144.0431	23
145.0268	11
145.0438	14
146.0213	895
147.029	628
148.0366	37
148.0554	40
149.0402	33
150.0336	33
151.0351	188
152.0424	49
156.0434	18
157.0263	28
157.0529	54
158.0406	59
158.0602	165
159.0473	61
159.0659	11
160.0347	28
160.0562	25
161.0429	18
162.03	11
163.0351	73
164.0325	250
165.0389	14
166.0472	16
166.0654	30
167.0727	23
168.044	174
169.0518	89
170.0397	63
170.0538	16
171.0425	30
172.0362	68
172.0549	11
174.0202	14
177.0376	21
177.0586	37
178.046	118
179.0295	14
179.0537	42
180.0372	103
180.0607	11
181.0456	47
182.0342	44
183.0402	21
184.0376	94
185.0451	170
186.0355	14
186.0522	16
187.0418	40
188.0309	14
188.05	120
189.0373	54
190.0457	193
191.0411	37
196.055	14
197.0429	25
198.0522	363
199.0363	51
199.0608	11
200.033	44
201.0398	23
206.0415	73
207.0473	51
208.0368	42
208.0562	44
209.0448	181
210.0511	63
211.0601	35
212.0329	11
214.0482	21
218.0415	172
225.0377	28
226.0468	184
227.0536	113
234.0353	115
235.0599	40
236.0315	92
237.0406	16
238.0471	290
254.0424	682
