Mass spectrum: Mefloquine; LC-ESI-QTOF; MS2; 80 V
Name: Mefloquine
Class: Pharmaceutical
Formula: C17H16F6N2O
Exact mass: 378.1167
SMILES: C1CCNC(C1)C(C2=CC(=NC3=C2C=CC=C3C(F)(F)F)C(F)(F)F)O
InChI: InChI=1S/C17H16F6N2O/c18-16(19,20)11-5-3-4-9-10(15(26)12-6-1-2-7-24-12)8-13(17(21,22)23)25-14(9)11/h3-5,8,12,15,24,26H,1-2,6-7H2
Instrument: TripleTOF 5600 SCIEX
Instrument type: LC-ESI-QTOF
Ms type: MS2
Ion mode: POSITIVE
Collision energy: 80
Fragmentation mode: CID
Ionization: ESI
Column name: Zorbax Eclipse Plus C18 2.1 mm x 150 mm, 3.5 um, Agilent
Retention time: 8.432 min
Precursor m/z: 379.124
Precursor type: [M+H]+
m/z	relative intensity
44.0635	12
54.0418	23
56.0588	79
65.0433	14
67.0487	90
68.056	266
69.0001	79
70.0709	104
80.0541	91
81.0599	12
82.0695	723
83.0777	49
84.0845	228
96.0824	40
99.0251	11
123.0233	16
124.0187	12
125.0397	11
127.0526	18
128.0593	16
131.0306	12
132.0377	27
133.0438	91
138.0435	27
139.0509	33
140.0499	202
141.0592	12
143.0308	33
144.0274	20
145.0343	42
146.0401	12
148.0111	12
149.021	27
149.0395	16
150.0417	44
151.0536	88
152.0497	224
153.0573	117
154.0656	42
156.0381	14
157.0431	29
158.0412	99
159.0491	31
161.0201	16
162.0285	29
163.0375	115
164.0315	38
164.0495	97
165.0575	287
166.0648	202
167.0096	18
167.0275	22
167.0603	38
167.0742	29
168.0249	75
168.0807	18
169.039	215
170.0421	80
171.0419	60
172.0542	22
174.02	27
174.0347	11
175.0334	68
175.0538	16
176.0363	281
177.0544	187
178.0641	161
179.0617	189
180.0672	71
181.0279	40
181.0473	29
181.0767	53
182.0381	323
183.0453	310
184.0563	160
185.018	14
186.0274	22
187.0361	156
188.0321	211
189.0385	526
190.0534	255
191.0545	38
191.0697	62
192.0257	23
192.069	86
193.0294	44
193.0769	75
194.0235	686
194.0837	33
195.0472	206
195.0897	22
196.0438	378
197.0563	115
198.0559	22
199.0349	29
200.0321	119
201.0393	215
202.0464	735
203.0572	198
204.076	139
205.0232	44
205.0668	14
205.0809	60
206.0366	91
206.0855	36
207.0321	108
207.0529	40
207.0965	14
208.0422	454
209.0504	309
210.0579	149
211.0215	31
211.0669	18
212.03	97
213.0348	292
214.0313	999
215.0526	608
216.0604	285
217.0567	80
218.0211	115
218.0834	33
219.0395	132
219.0905	44
220.0376	419
220.1047	18
221.0391	207
221.1064	18
222.0532	213
223.0661	266
224.0216	27
224.0746	38
225.0362	55
226.0455	498
227.0449	202
228.0503	303
229.0582	294
230.0343	12
230.0662	231
231.0283	97
231.0725	16
231.0917	33
232.0364	182
233.0466	200
234.0527	559
235.0511	176
236.0585	239
237.0347	53
237.0846	11
238.0274	925
239.0452	156
240.0465	165
241.0555	163
242.0674	68
243.0249	18
243.0734	474
244.0307	266
244.0824	22
245.0374	117
246.05	605
247.0553	259
248.0607	125
249.0651	349
250.0339	25
250.0702	68
251.0395	136
251.0931	29
252.0429	539
253.056	229
254.0685	123
255.072	139
256.0343	25
256.0805	36
257.047	34
258.0349	432
258.0657	11
259.0459	204
260.0617	103
261.0637	51
262.0281	36
262.0729	33
263.0799	93
264.0423	441
264.0884	12
265.0477	178
266.0573	95
267.0624	55
268.0778	14
269.0757	31
269.0926	93
270.033	237
270.0965	40
271.0381	91
271.1023	202
272.0547	182
273.0623	211
274.0731	36
275.0329	14
275.0772	34
276.0411	84
277.0399	49
277.0623	14
278.0417	228
279.0415	25
279.0623	95
280.0661	20
281.0952	18
282.0308	25
283.0404	220
284.0474	132
285.0503	213
286.0726	34
287.0824	11
288.0474	18
289.0568	11
289.0899	11
291.0523	36
292.0732	11
293.0686	47
296.0484	150
297.046	60
298.0524	137
299.05	16
299.0765	25
302.0477	23
304.0517	29
305.0568	36
308.0502	18
311.0592	16
317.0503	42
319.0898	14
323.0591	68
325.0733	11
339.082	14
