Mass spectrum: 3,4-Methylenedioxy-N-ethylamphetamine; LC-ESI-QTOF; MS2; 120 V
Name: 3,4-Methylenedioxy-N-ethylamphetamine
Class: Pharmaceutical
Formula: C12H17NO2
Exact mass: 207.1259
SMILES: CCNC(C)CC1=CC2=C(C=C1)OCO2
InChI: InChI=1S/C12H17NO2/c1-3-13-9(2)6-10-4-5-11-12(7-10)15-8-14-11/h4-5,7,9,13H,3,6,8H2,1-2H3
Instrument: TripleTOF 6600 SCIEX
Instrument type: LC-ESI-QTOF
Ms type: MS2
Ion mode: POSITIVE
Collision energy: 120
Fragmentation mode: CID
Ionization: ESI
Column name: Zorbax Eclipse Plus C18 2.1 mm x 150 mm, 3.5 um, Agilent
Retention time: 5.673 min
Precursor m/z: 208.1332
Precursor type: [M+H]+
m/z	relative intensity
35.9989	31
37.0072	154
38.0023	15
38.0147	114
39.0228	260
44.0501	12
49.007	145
50.0151	998
51.0227	999
53.0017	11
53.0375	10
59.9987	22
61.0066	93
62.0141	166
63.0223	206
65.038	20
73.0062	16
74.0142	91
75.0219	16
77.0377	129
89.0375	47
