Mass spectrum: Entacapone; LC-ESI-QTOF; MS2; 50 V
Name: Entacapone
Class: Pharmaceutical
Formula: C14H15N3O5
Exact mass: 305.1012
SMILES: CCN(CC)C(=O)C(=CC1=CC(=C(C(=C1)O)O)[N+](=O)[O-])C#N
InChI: InChI=1S/C14H15N3O5/c1-3-16(4-2)14(20)10(8-15)5-9-6-11(17(21)22)13(19)12(18)7-9/h5-7,18-19H,3-4H2,1-2H3
Instrument: TripleTOF 5600 SCIEX
Instrument type: LC-ESI-QTOF
Ms type: MS2
Ion mode: POSITIVE
Collision energy: 50
Fragmentation mode: CID
Ionization: ESI
Column name: Zorbax Eclipse Plus C18 2.1 mm x 150 mm, 3.5 um, Agilent
Retention time: 9.381 min
Precursor m/z: 306.1084
Precursor type: [M+H]+
m/z	relative intensity
43.039	44
43.0451	28
44.0247	56
68.0205	89
71.0656	84
72.0502	286
72.0876	84
74.1035	56
75.0163	72
76.0239	600
77.012	22
77.0441	22
78.0403	84
80.0177	157
87.0136	84
88.0217	477
90.0366	101
91.056	33
94.0464	22
99.0936	106
100.0784	61
101.0285	746
102.0353	56
103.0318	600
104.0146	465
104.0361	28
104.0474	39
105.0269	22
105.0485	44
106.0299	44
113.0285	33
114.0222	370
115.0305	269
116.0146	67
116.0385	112
116.0535	28
117.0223	33
117.0492	67
118.0552	28
118.0681	22
119.0375	28
119.061	39
121.0421	33
122.0382	101
128.0335	28
128.0456	28
129.0219	679
130.0333	157
131.0254	701
132.0215	95
132.0426	28
133.0196	33
133.0442	22
133.0731	28
134.0362	67
141.0229	39
142.0171	454
143.0245	67
143.0596	33
144.0347	67
144.0543	50
145.0421	56
147.0582	28
149.0468	22
149.0704	28
157.0161	140
158.0275	117
158.0711	22
159.0283	999
160.0522	39
161.0425	56
168.0285	117
170.0111	836
171.0207	112
172.0512	89
172.0882	67
177.1009	33
185.0074	123
186.0148	28
186.1013	44
187.0075	22
187.0239	134
187.0747	39
200.0852	33
