Mass spectrum: Doxorubicin; LC-ESI-QTOF; MS2; 120 V
Name: Doxorubicin
Class: Pharmaceutical
Formula: C27H29NO11
Exact mass: 543.1741
SMILES: C[C@H]1[C@H]([C@H](C[C@@H](O1)O[C@H]2C[C@@](Cc3c2c(c4c(c3O)C(=O)c5cccc(c5C4=O)OC)O)(C(=O)CO)O)N)O
InChI: InChI=1S/C27H29NO11/c1-10-22(31)13(28)6-17(38-10)39-15-8-27(36,16(30)9-29)7-12-19(15)26(35)21-20(24(12)33)23(32)11-4-3-5-14(37-2)18(11)25(21)34/h3-5,10,13,15,17,22,29,31,33,35-36H,6-9,28H2,1-2H3/t10-,13-,15-,17-,22+,27-/m0/s1
Instrument: TripleTOF 5600 SCIEX
Instrument type: LC-ESI-QTOF
Ms type: MS2
Ion mode: POSITIVE
Collision energy: 120
Fragmentation mode: CID
Ionization: ESI
Column name: Zorbax Eclipse Plus C18 2.1 mm x 150 mm, 3.5 um, Agilent
Retention time: 7.064 min
Precursor m/z: 544.1813
Precursor type: [M+H]+
m/z	relative intensity
69.0383	185
72.0483	296
77.0404	296
86.0619	481
91.0568	148
105.0373	185
118.0414	185
145.0243	148
165.071	554
176.0612	999
177.0692	185
178.0756	259
187.0533	554
189.069	666
200.0569	222
202.0777	740
204.0517	444
205.0634	888
216.0567	222
221.0584	185
230.0688	148
231.082	259
232.0487	259
233.0591	333
244.0522	222
247.0749	148
249.0571	333
261.0516	370
262.0571	185
273.0504	407
289.0484	296
