Mass spectrum: Medroxyprogesterone; LC-ESI-QTOF; MS2; 90 V
Name: Medroxyprogesterone
Class: Pharmaceutical
Formula: C22H32O3
Exact mass: 344.2351
SMILES: CC1CC2C(CCC3(C2CCC3(C(=O)C)O)C)C4(C1=CC(=O)CC4)C
InChI: InChI=1S/C22H32O3/c1-13-11-16-17(20(3)8-5-15(24)12-19(13)20)6-9-21(4)18(16)7-10-22(21,25)14(2)23/h12-13,16-18,25H,5-11H2,1-4H3
Instrument: TripleTOF 6600 SCIEX
Instrument type: LC-ESI-QTOF
Ms type: MS2
Ion mode: POSITIVE
Collision energy: 90
Fragmentation mode: CID
Ionization: ESI
Column name: Zorbax Eclipse Plus C18 2.1 mm x 150 mm, 3.5 um, Agilent
Retention time: 12.524 min
Precursor m/z: 345.2424
Precursor type: [M+H]+
m/z	relative intensity
37.0066	23
38.0036	11
38.0154	23
39.0227	148
41.039	235
43.018	384
43.0538	11
45.034	20
50.0151	37
51.023	122
53.0387	116
55.0178	139
55.0542	299
57.0335	37
59.0489	11
65.0383	200
66.0465	17
67.0541	451
69.033	32
69.0695	61
77.0385	999
78.046	34
79.0541	518
80.0615	49
81.0326	37
81.0697	93
82.0405	43
83.0497	81
89.0389	17
91.0537	792
92.061	11
93.0691	136
94.0409	32
95.0488	66
95.0851	93
97.0643	270
103.0539	139
104.0613	26
105.0452	55
105.0695	291
107.0489	113
107.0865	11
108.0559	75
109.0648	20
115.054	262
116.0614	78
117.0692	125
119.0846	66
121.0635	26
123.0806	131
127.0544	75
128.0621	320
129.0697	183
130.0771	58
131.0847	61
133.0644	14
133.1005	20
141.0698	218
142.0763	69
143.0854	43
145.1003	20
152.0619	46
153.0697	107
154.0785	40
155.0625	23
155.085	64
156.0936	26
165.0693	113
166.0774	40
167.0862	40
169.1005	23
178.0778	37
179.0847	43
180.0937	14
181.0999	23
183.1139	14
191.0847	11
193.1026	26
