Mass spectrum: Tenamfetamine; LC-ESI-QTOF; MS2; 30 V
Name: Tenamfetamine
Class: Pharmaceutical
Formula: C10H13NO2
Exact mass: 179.0946
SMILES: CC(CC1=CC2=C(C=C1)OCO2)N
InChI: InChI=1S/C10H13NO2/c1-7(11)4-8-2-3-9-10(5-8)13-6-12-9/h2-3,5,7H,4,6,11H2,1H3
Instrument: TripleTOF 6600 SCIEX
Instrument type: LC-ESI-QTOF
Ms type: MS2
Ion mode: POSITIVE
Collision energy: 30
Fragmentation mode: CID
Ionization: ESI
Column name: Zorbax Eclipse Plus C18 2.1 mm x 150 mm, 3.5 um, Agilent
Retention time: 5.295 min
Precursor m/z: 180.1019
Precursor type: [M+H]+
m/z	relative intensity
55.0181	22
65.0378	13
77.0378	195
79.0536	267
93.0323	17
103.0534	182
105.0693	999
106.0735	11
115.0531	17
121.0268	16
122.0354	21
133.0638	420
135.0435	718
163.075	103
