Mass spectrum: Amisulpride; LC-ESI-QTOF; MS2; 90 V
Name: Amisulpride
Class: Pharmaceutical
Formula: C17H27N3O4S
Exact mass: 369.1722
SMILES: CCN1CCCC1CNC(=O)c2cc(c(N)cc2OC)[S](=O)(=O)CC
InChI: InChI=1S/C17H27N3O4S/c1-4-20-8-6-7-12(20)11-19-17(21)13-9-16(25(22,23)5-2)14(18)10-15(13)24-3/h9-10,12H,4-8,11,18H2,1-3H3,(H,19,21)
Instrument: TripleTOF 5600 SCIEX
Instrument type: LC-ESI-QTOF
Ms type: MS2
Ion mode: POSITIVE
Collision energy: 90
Fragmentation mode: CID
Ionization: ESI
Column name: Zorbax Eclipse Plus C18 2.1 mm x 150 mm, 3.5 um, Agilent
Retention time: 5.568 min
Precursor m/z: 370.1795
Precursor type: [M+H]+
m/z	relative intensity
42.0432	15
51.0291	37
52.0239	29
52.0356	11
53.0073	45
53.0442	39
54.0395	56
55.0238	12
55.0601	32
56.0547	88
58.0699	38
59.0004	25
64.035	79
65.0429	250
66.0509	663
67.0451	75
68.0168	58
68.0533	28
68.9833	88
69.9905	28
70.0689	34
70.9977	22
74.9922	14
75.0264	11
76.021	32
77.0285	26
77.0407	33
78.0362	165
79.0196	14
79.0442	77
80.0149	44
80.0507	35
81.0354	61
82.0671	28
82.9968	103
83.9914	16
84.0832	264
84.9756	24
85.0132	51
86.9914	11
89.0271	14
90.0347	30
91.0431	259
92.0508	231
93.0583	126
94.0364	179
94.9964	28
95.9998	11
96.0454	39
96.9983	88
97.9825	39
98.0055	20
98.0969	69
98.9911	18
104.0129	104
104.049	11
106.0289	306
106.9832	16
107.0135	351
107.0352	99
107.9902	167
108.0451	59
109.0287	10
110.006	161
110.0965	14
111.984	12
112.0216	21
112.1122	150
113.0055	35
117.0204	18
119.0357	19
119.9907	24
120.0446	270
121.0523	412
122.0049	10
122.036	304
124.039	16
124.9932	134
125.9767	14
132.0085	999
133.0179	22
135.0306	16
135.9856	25
138.0005	53
139.0081	19
140.016	136
141.0007	17
147.0318	244
148.0029	58
148.0382	35
149.0257	13
149.0469	390
150.0005	95
150.0549	17
152.9886	30
163.0263	14
168.0105	199
177.9948	81
196.0054	164
