Mass spectrum: Naproxen; LC-ESI-QTOF; MS2; 70 V
Name: Naproxen
Class: Pharmaceutical
Formula: C14H14O3
Exact mass: 230.0943
SMILES: COc1ccc2cc(ccc2c1)C(C)C(O)=O
InChI: InChI=1S/C14H14O3/c1-9(14(15)16)10-3-4-12-8-13(17-2)6-5-11(12)7-10/h3-9H,1-2H3,(H,15,16)
Instrument: TripleTOF 5600 SCIEX
Instrument type: LC-ESI-QTOF
Ms type: MS2
Ion mode: POSITIVE
Collision energy: 70
Fragmentation mode: CID
Ionization: ESI
Column name: Zorbax Eclipse Plus C18 2.1 mm x 150 mm, 3.5 um, Agilent
Retention time: 10.907 min
Precursor m/z: 231.1016
Precursor type: [M+H]+
m/z	relative intensity
51.0272	10
65.0407	16
77.0413	26
89.0395	63
91.0544	22
102.0451	28
114.0472	43
115.0542	999
116.0611	14
126.0468	28
127.0536	84
128.0607	121
129.0702	10
139.0526	22
140.0616	14
141.0692	627
142.077	24
150.0437	26
151.0533	88
152.0611	311
153.0688	152
154.0783	12
155.0494	10
169.0653	39
