Mass spectrum: Sulfamethazine; LC-ESI-QTOF; MS2; 120 V
Name: Sulfamethazine
Class: Antimicrobial; Pharmaceutical
Formula: C12H14N4O2S
Exact mass: 278.0837
SMILES: CC1=CC(=NC(=N1)NS(=O)(=O)C2=CC=C(C=C2)N)C
InChI: InChI=1S/C12H14N4O2S/c1-8-7-9(2)15-12(14-8)16-19(17,18)11-5-3-10(13)4-6-11/h3-7H,13H2,1-2H3,(H,14,15,16)
Instrument: TripleTOF 5600 SCIEX
Instrument type: LC-ESI-QTOF
Ms type: MS2
Ion mode: POSITIVE
Collision energy: 120
Fragmentation mode: CID
Ionization: ESI
Column name: Zorbax Eclipse Plus C18 2.1 mm x 150 mm, 3.5 um, Agilent
Retention time: 6.115 min
Precursor m/z: 279.091
Precursor type: [M+H]+
m/z	relative intensity
42.0477	108
43.0409	18
51.0323	33
52.0281	33
54.0428	52
63.0378	18
65.0464	999
66.0397	135
67.0364	326
68.0572	63
74.02	26
75.0301	15
78.0385	56
80.0555	476
82.0717	18
92.0537	71
93.0606	33
95.0644	225
107.0625	18
108.0465	22
