Mass spectrum: Triphenyl(2-pyridylmethyl)phosphonium; LC-ESI-QTOF; MS2; 40 V
Name: Triphenyl(2-pyridylmethyl)phosphonium
Formula: C24H21NP
Exact mass: 354.1406
InChI: InChI=1S/C24H21NP/c1-4-13-22(14-5-1)26(23-15-6-2-7-16-23,24-17-8-3-9-18-24)20-21-12-10-11-19-25-21/h1-19H,20H2/q+1
Instrument: TripleTOF 5600 SCIEX
Instrument type: LC-ESI-QTOF
Ms type: CID
Ion mode: POSITIVE
Collision energy: 40
Ionization: ESI
Column name: Zorbax Eclipse Plus C18 2.1 mm x 150 mm, 3.5 um, Agilent
Retention time: 8.341 min
Precursor m/z: 354.1406
Precursor type: [M]+
m/z	relative intensity
107.0052	125
108.0133	411
168.0814	120
183.0361	492
184.0438	246
185.0518	218
261.0828	689
262.0908	999
