Mass spectrum: Acridine; LC-ESI-QTOF; MS2; 60 V
Name: Acridine
Class: Industrial_process
Formula: C13H9N
Exact mass: 179.0735
SMILES: c1ccc2nc3ccccc3cc2c1
InChI: InChI=1S/C13H9N/c1-3-7-12-10(5-1)9-11-6-2-4-8-13(11)14-12/h1-9H
Instrument: TripleTOF 5600 SCIEX
Instrument type: LC-ESI-QTOF
Ms type: MS2
Ion mode: POSITIVE
Collision energy: 60
Fragmentation mode: CID
Ionization: ESI
Column name: Zorbax Eclipse Plus C18 2.1 mm x 150 mm, 3.5 um, Agilent
Retention time: 5.776 min
Precursor m/z: 180.0808
Precursor type: [M+H]+
m/z	relative intensity
74.018	17
75.0261	94
76.0337	10
77.0423	232
78.0489	13
89.0405	32
99.0242	14
101.0398	156
102.0468	36
113.0388	34
114.0457	13
115.0545	18
125.0387	54
126.047	150
127.0547	208
128.0504	168
129.0516	33
139.0554	15
140.0495	65
141.0572	15
149.0383	13
150.0472	194
151.055	712
152.0624	999
153.0581	152
154.0644	31
164.0492	23
176.0499	24
177.0578	193
178.0658	816
179.0737	359
180.0809	109
