Mass spectrum: 4,4`-Thiodianiline; LC-ESI-QTOF; MS2; 140 V
Name: 4,4`-Thiodianiline
Formula: C12H12N2S
Exact mass: 216.0721
SMILES: C1=CC(=CC=C1N)SC2=CC=C(C=C2)N
InChI: InChI=1S/C12H12N2S/c13-9-1-5-11(6-2-9)15-12-7-3-10(14)4-8-12/h1-8H,13-14H2
Instrument: TripleTOF 6600 SCIEX
Instrument type: LC-ESI-QTOF
Ms type: MS2
Ion mode: POSITIVE
Collision energy: 140
Fragmentation mode: CID
Ionization: ESI
Column name: Zorbax Eclipse Plus C18 2.1 mm x 150 mm, 3.5 um, Agilent
Retention time: 6.429 min
Precursor m/z: 217.0794
Precursor type: [M+H]+
m/z	relative intensity
37.0067	382
38.0152	191
39.0218	318
44.9788	127
49.0061	488
50.0146	999
51.0226	212
52.0172	85
53.0378	148
61.0064	191
62.0144	488
63.0219	297
67.9724	127
68.9784	573
73.0061	170
74.0135	531
75.0232	127
85.0058	127
86.0138	170
98.0136	85
