Mass spectrum: Donepezil; LC-ESI-QTOF; MS2; 30 V
Name: Donepezil
Class: Pharmaceutical
Formula: C24H29NO3
Exact mass: 379.2147
SMILES: COc1cc2CC(CC3CCN(CC3)Cc4ccccc4)C(=O)c2cc1OC
InChI: InChI=1S/C24H29NO3/c1-27-22-14-19-13-20(24(26)21(19)15-23(22)28-2)12-17-8-10-25(11-9-17)16-18-6-4-3-5-7-18/h3-7,14-15,17,20H,8-13,16H2,1-2H3
Instrument: TripleTOF 5600 SCIEX
Instrument type: LC-ESI-QTOF
Ms type: MS2
Ion mode: POSITIVE
Collision energy: 30
Fragmentation mode: CID
Ionization: ESI
Column name: Zorbax Eclipse Plus C18 2.1 mm x 150 mm, 3.5 um, Agilent
Retention time: 7.429 min
Precursor m/z: 380.222
Precursor type: [M+H]+
m/z	relative intensity
65.0434	17
82.0684	15
91.0571	999
96.0822	26
105.07	17
120.0819	59
134.0969	10
151.0759	104
172.1128	111
186.1281	24
189.0915	52
201.0921	14
203.1075	16
205.0867	32
212.1199	11
217.1221	18
227.1052	20
228.1137	18
229.1209	17
231.138	13
233.1178	11
241.1224	65
243.1387	507
245.114	10
245.1531	21
255.1389	48
259.1336	46
261.149	23
270.1495	88
271.1333	25
272.1639	21
273.1489	271
288.1599	575
