Mass spectrum: Fluquinconazole; LC-ESI-QTOF; MS2; 70 V
Name: Fluquinconazole
Class: Fungicide
Formula: C16H8Cl2FN5O
Exact mass: 375.009
SMILES: C1=CC2=C(C=C1F)C(=O)N(C(=N2)N3C=NC=N3)C4=C(C=C(C=C4)Cl)Cl
InChI: InChI=1S/C16H8Cl2FN5O/c17-9-1-4-14(12(18)5-9)24-15(25)11-6-10(19)2-3-13(11)22-16(24)23-8-20-7-21-23/h1-8H
Instrument: TripleTOF 6600 SCIEX
Instrument type: LC-ESI-QTOF
Ms type: MS2
Ion mode: POSITIVE
Collision energy: 70
Fragmentation mode: CID
Ionization: ESI
Column name: Zorbax Eclipse Plus C18 2.1 mm x 150 mm, 3.5 um, Agilent
Retention time: 12.549 min
Precursor m/z: 376.0163
Precursor type: [M+H]+
m/z	relative intensity
57.0134	22
72.9826	17
81.0128	33
82.008	60
96.9831	12
108.0238	999
108.9822	18
123.9942	283
132.9594	11
144.9608	15
163.0282	22
170.9645	29
182.0377	26
208.0416	19
209.0508	131
215.9994	10
224.0608	22
237.045	38
243.01	20
244.0189	158
251.9772	16
272.0152	125
278.9892	19
306.9822	15
