Mass spectrum: Malathion; LC-ESI-QTOF; MS2; 80 V
Name: Malathion
Class: Insecticide
Formula: C10H19O6PS2
Exact mass: 330.0361
SMILES: CCOC(=O)CC(C(=O)OCC)SP(=S)(OC)OC
InChI: InChI=1S/C10H19O6PS2/c1-5-15-9(11)7-8(10(12)16-6-2)19-17(18,13-3)14-4/h8H,5-7H2,1-4H3
Instrument: TripleTOF 5600 SCIEX
Instrument type: LC-ESI-QTOF
Ms type: MS2
Ion mode: POSITIVE
Collision energy: 80
Fragmentation mode: CID
Ionization: ESI
Column name: Zorbax Eclipse Plus C18 2.1 mm x 150 mm, 3.5 um, Agilent
Retention time: 12.939 min
Precursor m/z: 331.0433
Precursor type: [M+H]+
m/z	relative intensity
44.9784	124
46.9945	267
62.9982	71
71.0125	445
78.9941	463
80.9741	107
93.009	89
98.9826	89
99.0076	999
110.9667	89
124.9821	713
