Mass spectrum: Food Yellow 3 free acid; LC-ESI-QTOF; MS2; 100 V
Name: Food Yellow 3 free acid
Formula: C16H12N2O7S2
Exact mass: 408.0086
SMILES: C1=CC(=CC=C1N=NC2=C(C=CC3=C2C=CC(=C3)S(=O)(=O)O)O)S(=O)(=O)O
InChI: InChI=1S/C16H12N2O7S2/c19-15-8-1-10-9-13(27(23,24)25)6-7-14(10)16(15)18-17-11-2-4-12(5-3-11)26(20,21)22/h1-9,19H,(H,20,21,22)(H,23,24,25)
Instrument: TripleTOF 6600 SCIEX
Instrument type: LC-ESI-QTOF
Ms type: MS2
Ion mode: POSITIVE
Collision energy: 100
Fragmentation mode: CID
Ionization: ESI
Column name: Zorbax Eclipse Plus C18 2.1 mm x 150 mm, 3.5 um, Agilent
Retention time: 5.59 min
Precursor m/z: 409.0159
Precursor type: [M+H]+
m/z	relative intensity
39.0231	48
50.0146	22
51.0226	42
53.0385	128
61.0078	12
62.0151	36
63.0226	192
64.9692	26
65.0382	228
73.0066	11
74.0147	314
75.0089	12
75.0222	104
76.0301	119
77.0384	55
80.0493	999
81.0327	27
87.0224	17
88.0301	27
89.0383	400
90.0345	20
92.0494	118
98.0144	40
99.0219	151
100.0294	504
101.026	51
101.0375	28
102.0434	20
108.0438	231
109.0519	22
114.0335	34
115.0417	16
116.0492	15
126.0341	46
127.0414	507
128.0495	10
129.0569	14
175.0522	20
176.0513	19
190.0643	41
191.0705	12
201.0552	42
202.0639	31
203.0682	12
216.069	39
217.075	41
218.0857	11
227.0612	12
228.0662	23
229.0747	132
