Mass spectrum: Oxcarbazepine; LC-ESI-QTOF; MS2; 110 V
Name: Oxcarbazepine
Class: Pharmaceutical
Formula: C15H12N2O2
Exact mass: 252.0899
SMILES: NC(=O)N1c2ccccc2CC(=O)c3ccccc13
InChI: InChI=1S/C15H12N2O2/c16-15(19)17-12-7-3-1-5-10(12)9-14(18)11-6-2-4-8-13(11)17/h1-8H,9H2,(H2,16,19)
Instrument: TripleTOF 5600 SCIEX
Instrument type: LC-ESI-QTOF
Ms type: MS2
Ion mode: POSITIVE
Collision energy: 110
Fragmentation mode: CID
Ionization: ESI
Column name: Zorbax Eclipse Plus C18 2.1 mm x 150 mm, 3.5 um, Agilent
Retention time: 8.323 min
Precursor m/z: 253.0972
Precursor type: [M+H]+
m/z	relative intensity
44.0208	24
63.0544	15
65.0437	61
73.0111	21
74.0176	261
75.0261	488
75.0524	18
76.0214	46
76.0331	104
77.0415	534
77.0626	21
78.0486	46
85.0082	18
86.0162	52
87.0245	98
88.0334	33
89.0411	325
90.0498	24
91.0567	18
98.0155	67
99.0244	129
100.0353	33
101.0393	230
102.034	33
102.0473	122
111.0243	21
113.0388	212
114.0347	39
114.048	27
115.0538	116
116.0495	21
117.0583	12
124.0301	18
125.0394	104
126.0462	378
127.0544	215
128.0492	212
129.0449	12
129.0575	18
137.0378	61
138.0473	39
139.0553	310
140.0501	236
141.0596	15
149.0399	52
150.0473	617
151.0544	999
152.0616	851
153.0574	132
154.0639	12
161.0423	21
162.047	67
163.055	205
164.0532	95
165.0634	49
166.0677	36
176.0507	61
177.0583	224
178.066	565
179.0737	205
180.0812	73
188.0513	21
189.055	21
190.0658	36
191.0742	21
