Mass spectrum: Fenofibrate; LC-ESI-QTOF; MS2; 130 V
Name: Fenofibrate
Class: Pharmaceutical
Formula: C20H21ClO4
Exact mass: 360.1128
SMILES: CC(C)OC(=O)C(C)(C)Oc1ccc(cc1)C(=O)c2ccc(Cl)cc2
InChI: InChI=1S/C20H21ClO4/c1-13(2)24-19(23)20(3,4)25-17-11-7-15(8-12-17)18(22)14-5-9-16(21)10-6-14/h5-13H,1-4H3
Instrument: TripleTOF 5600 SCIEX
Instrument type: LC-ESI-QTOF
Ms type: CID
Ion mode: POSITIVE
Collision energy: 130
Ionization: ESI
Column name: Zorbax Eclipse Plus C18 2.1 mm x 150 mm, 3.5 um, Agilent
Retention time: 16.296 min
Precursor m/z: 361.1201
Precursor type: [M+H]+
m/z	relative intensity
51.0285	34
59.0535	16
65.0427	140
73.0098	52
74.0189	610
75.027	999
75.0532	15
76.0331	32
84.9856	135
93.0349	25
110.9998	373
139.0047	26
