Mass spectrum: Uric acid; LC-ESI-QTOF; MS2; 40 V
Name: Uric acid
Class: Natural_product
Formula: C5H4N4O3
Exact mass: 168.0283
SMILES: O=C1C2=C(NC(N2)=O)NC(N1)=O
InChI: InChI=1S/C5H4N4O3/c10-3-1-2(7-4(11)6-1)8-5(12)9-3/h(H4,6,7,8,9,10,11,12)
Instrument: TripleTOF 5600 SCIEX
Instrument type: LC-ESI-QTOF
Ms type: MS2
Ion mode: POSITIVE
Collision energy: 40
Fragmentation mode: CID
Ionization: ESI
Column name: Zorbax Eclipse Plus C18 2.1 mm x 150 mm, 3.5 um, Agilent
Retention time: 2.079 min
Precursor m/z: 169.0356
Precursor type: [M+H]+
m/z	relative intensity
43.0287	915
44.0121	233
53.0124	749
55.0288	499
68.0227	116
69.008	682
69.9912	133
70.0392	915
96.018	999
98.0353	432
124.012	149
126.0283	466
141.04	799
151.026	99
152.0076	582
169.0359	366
