Mass spectrum: Cyproterone; LC-ESI-QTOF; MS2; 140 V
Name: Cyproterone
Class: Pharmaceutical
Formula: C22H27ClO3
Exact mass: 374.1649
SMILES: CC(=O)C1(CCC2C1(CCC3C2C=C(C4=CC(=O)C5CC5C34C)Cl)C)O
InChI: InChI=1S/C22H27ClO3/c1-11(24)22(26)7-5-14-12-9-18(23)17-10-19(25)13-8-16(13)21(17,3)15(12)4-6-20(14,22)2/h9-10,12-16,26H,4-8H2,1-3H3
Instrument: TripleTOF 5600 SCIEX
Instrument type: LC-ESI-QTOF
Ms type: MS2
Ion mode: POSITIVE
Collision energy: 140
Fragmentation mode: CID
Ionization: ESI
Column name: Zorbax Eclipse Plus C18 2.1 mm x 150 mm, 3.5 um, Agilent
Retention time: 11.881 min
Precursor m/z: 375.1721
Precursor type: [M+H]+
m/z	relative intensity
39.0228	46
43.0181	205
51.0226	84
63.0237	74
65.0383	168
75.0216	37
76.0295	46
77.0386	569
78.0453	84
79.0547	65
89.0394	177
91.0547	336
102.0474	177
103.0547	93
114.0464	37
115.0543	999
116.0617	56
126.046	130
127.0546	270
128.0621	532
129.0695	74
139.0544	308
141.0691	158
150.0477	130
151.0553	354
152.0624	784
153.0701	130
163.0541	252
164.0631	186
165.0696	700
176.0628	270
177.07	121
178.08	242
187.0567	93
188.0603	121
189.0693	653
190.08	102
200.0624	224
201.0695	140
202.0775	382
203.0855	56
213.0701	130
215.0897	74
226.0759	84
228.094	37
231.0742	37
