Mass spectrum: Demeclocycline; LC-ESI-QTOF; MS2; 90 V
Name: Demeclocycline
Class: Antimicrobial; Pharmaceutical
Formula: C21H21ClN2O8
Exact mass: 464.0986
SMILES: CN(C)C1C2CC3C(C4=C(C=CC(=C4C(=C3C(=O)C2(C(=C(C1=O)C(=O)N)O)O)O)O)Cl)O
InChI: InChI=1S/C21H21ClN2O8/c1-24(2)14-7-5-6-10(16(27)12-9(25)4-3-8(22)11(12)15(6)26)18(29)21(7,32)19(30)13(17(14)28)20(23)31/h3-4,6-7,14-15,25-27,30,32H,5H2,1-2H3,(H2,23,31)
Instrument: TripleTOF 5600 SCIEX
Instrument type: LC-ESI-QTOF
Ms type: MS2
Ion mode: POSITIVE
Collision energy: 90
Fragmentation mode: CID
Ionization: ESI
Column name: Zorbax Eclipse Plus C18 2.1 mm x 150 mm, 3.5 um, Agilent
Retention time: 5.787 min
Precursor m/z: 465.1059
Precursor type: [M+H]+
m/z	relative intensity
70.0709	97
98.0627	254
115.0549	117
139.0572	293
140.0654	156
141.0708	156
151.0544	137
152.0634	999
164.0664	137
165.0709	97
166.0546	117
168.0582	979
169.0637	215
170.0692	137
173.0127	97
176.0621	156
180.0608	254
181.0682	176
185.0151	156
186.0243	97
187.0325	293
192.0573	137
196.0512	528
197.06	352
198.0655	528
199.0232	156
199.0353	97
204.0575	117
209.0557	117
210.0634	78
214.014	97
215.0259	450
220.0499	156
224.0442	156
226.0596	411
231.0168	489
239.029	254
243.0204	156
255.0173	156
261.0315	293
