Mass spectrum: C-desmethyl-metoprolol; LC-ESI-QTOF; MS2; 50 V
Name: C-desmethyl-metoprolol
Formula: C14H23NO3
Exact mass: 253.1678
SMILES: CCNCC(COC1=CC=C(C=C1)CCOC)O
InChI: InChI=1S/C14H23NO3/c1-3-15-10-13(16)11-18-14-6-4-12(5-7-14)8-9-17-2/h4-7,13,15-16H,3,8-11H2,1-2H3
Instrument: TripleTOF 5600 SCIEX
Instrument type: LC-ESI-QTOF
Ms type: MS2
Ion mode: POSITIVE
Collision energy: 50
Fragmentation mode: CID
Ionization: ESI
Column name: Zorbax Eclipse Plus C18 2.1 mm x 150 mm, 3.5 um, Agilent
Retention time: 5.422 min
Precursor m/z: 254.1751
Precursor type: [M+H]+
m/z	relative intensity
41.039	15
42.034	31
43.0187	15
44.0495	72
45.0334	28
51.0234	21
55.0179	34
56.0497	203
57.0704	43
58.0654	999
65.0382	31
67.055	40
70.0649	62
77.0386	710
79.0538	410
84.0807	425
86.0959	75
91.0538	425
92.0631	28
93.07	40
102.048	62
102.0915	241
103.0543	836
104.0595	53
105.035	18
105.0699	425
107.0493	25
115.0533	187
116.062	100
117.0696	25
119.049	43
120.0583	46
121.0651	78
128.0599	34
129.0699	37
131.0472	25
131.0863	31
133.0646	203
135.0815	28
141.0702	34
144.0562	115
163.0876	15
