Mass spectrum: Tolfenamic acid; LC-ESI-QTOF; MS2; 110 V
Name: Tolfenamic acid
Class: Pharmaceutical
Formula: C14H12ClNO2
Exact mass: 261.0557
SMILES: Cc1cc(Nc2ccccc2C(O)=O)ccc1Cl
InChI: InChI=1S/C14H12ClNO2/c1-9-8-10(6-7-12(9)15)16-13-5-3-2-4-11(13)14(17)18/h2-8,16H,1H3,(H,17,18)
Instrument: TripleTOF 5600 SCIEX
Instrument type: LC-ESI-QTOF
Ms type: MS2
Ion mode: POSITIVE
Collision energy: 110
Fragmentation mode: CID
Ionization: ESI
Column name: Zorbax Eclipse Plus C18 2.1 mm x 150 mm, 3.5 um, Agilent
Retention time: 14.052 min
Precursor m/z: 262.0629
Precursor type: [M+H]+
m/z	relative intensity
51.029	229
61.0218	26
64.0356	33
65.0406	75
72.9865	26
74.0182	214
75.0254	358
76.0331	71
77.041	482
77.068	22
78.0478	41
85.0079	22
86.0163	67
87.0233	165
87.051	22
88.0209	33
88.0338	67
89.0394	380
90.0342	22
92.0269	18
98.0158	67
99.0228	75
100.0316	26
101.0388	211
102.0456	135
110.0173	22
111.0001	15
111.0202	22
112.0344	33
113.0386	452
114.034	116
115.0538	105
115.0683	18
116.0503	30
124.0304	18
125.0378	113
126.0458	369
127.0391	18
127.0531	229
128.048	124
128.0587	67
128.0779	15
129.0579	22
137.0368	143
138.0447	113
139.0538	301
140.0474	358
141.0563	18
149.0366	56
150.0457	599
151.053	968
152.0614	999
153.0562	135
154.0633	22
162.0461	22
163.054	30
164.0484	154
165.0583	37
166.0656	22
176.0497	56
177.0563	180
178.0638	595
179.0712	109
188.0482	18
