Mass spectrum: Spinosad A; LC-ESI-QTOF; MS2; 80 V
Name: Spinosad A
Class: Insecticide
Formula: C41H65NO10
Exact mass: 731.4608
SMILES: CCC1CCCC(C(C(=O)C2=CC3C4CC(CC4C=CC3C2CC(=O)O1)OC5C(C(C(C(O5)C)OC)OC)OC)C)OC6CCC(C(O6)C)N(C)C
InChI: InChI=1S/C41H65NO10/c1-10-26-12-11-13-34(52-36-17-16-33(42(5)6)23(3)48-36)22(2)37(44)32-20-30-28(31(32)21-35(43)50-26)15-14-25-18-27(19-29(25)30)51-41-40(47-9)39(46-8)38(45-7)24(4)49-41/h14-15,20,22-31,33-34,36,38-41H,10-13,16-19,21H2,1-9H3
Instrument: TripleTOF 6600 SCIEX
Instrument type: LC-ESI-QTOF
Ms type: MS2
Ion mode: POSITIVE
Collision energy: 80
Fragmentation mode: CID
Ionization: ESI
Column name: Zorbax Eclipse Plus C18 2.1 mm x 150 mm, 3.5 um, Agilent
Retention time: 10.391 min
Precursor m/z: 732.4681
Precursor type: [M+H]+
m/z	relative intensity
41.0378	23
43.0171	19
46.0643	10
55.0533	20
56.0487	14
57.0327	19
59.0483	25
67.0534	25
69.0689	76
70.064	12
71.0484	49
72.0431	34
72.0796	24
75.043	84
77.0372	12
79.053	34
81.0311	18
81.0687	19
83.0841	24
84.079	11
85.0638	26
85.087	13
89.0584	23
95.0848	21
97.0639	270
98.0959	759
99.0434	115
99.0637	16
99.0791	80
101.0587	116
113.0587	23
115.0735	26
124.1108	31
125.0587	76
128.0618	12
129.0688	19
129.0898	27
141.0685	21
142.1221	999
145.0847	35
153.0687	31
154.0769	15
155.0845	86
157.085	26
157.0992	15
160.132	29
167.0851	16
169.1003	41
171.0794	12
179.085	12
183.0794	20
195.0794	11
197.0953	48
199.0749	22
201.0902	18
215.1051	15
225.0911	18
