Mass spectrum: Prosulfuron; LC-ESI-QTOF; MS2; 10 V
Name: Prosulfuron
Class: Herbicide
Formula: C15H16F3N5O4S
Exact mass: 419.0875
SMILES: CC1=NC(=NC(=N1)OC)NC(=O)NS(=O)(=O)C2=CC=CC=C2CCC(F)(F)F
InChI: InChI=1S/C15H16F3N5O4S/c1-9-19-12(22-14(20-9)27-2)21-13(24)23-28(25,26)11-6-4-3-5-10(11)7-8-15(16,17)18/h3-6H,7-8H2,1-2H3,(H2,19,20,21,22,23,24)
Instrument: TripleTOF 6600 SCIEX
Instrument type: LC-ESI-QTOF
Ms type: CID
Ion mode: POSITIVE
Collision energy: 10
Ionization: ESI
Column name: Zorbax Eclipse Plus C18 2.1 mm x 150 mm, 3.5 um, Agilent
Retention time: 11.847 min
Precursor m/z: 420.0948
Precursor type: [M+H]+
m/z	relative intensity
141.0754	45
420.1114	999
