Mass spectrum: Bifenox acid; LC-ESI-QTOF; MS2; 20 V
Name: Bifenox acid
Class: Pharmaceutical; Herbicide; Transformation_product-Metabolite
Formula: C13H7Cl2NO5
Exact mass: 326.9701
SMILES: OC(=O)c1cc(Oc2ccc(Cl)cc2Cl)ccc1[N+]([O-])=O
InChI: InChI=1S/C13H7Cl2NO5/c14-7-1-4-12(10(15)5-7)21-8-2-3-11(16(19)20)9(6-8)13(17)18/h1-6H,(H,17,18)
Instrument: TripleTOF 5600 SCIEX
Instrument type: LC-ESI-QTOF
Ms type: MS2
Ion mode: NEGATIVE
Collision energy: 20
Fragmentation mode: CID
Ionization: ESI
Column name: Zorbax Eclipse Plus C18 2.1 mm x 150 mm, 3.5 um, Agilent
Retention time: 12.78 min
Precursor m/z: 325.9629
Precursor type: [M-H]-
m/z	relative intensity
137.0125	74
251.9756	492
281.9737	999
282.9756	86
