Mass spectrum: Capecitabine; LC-ESI-QTOF; MS2; 110 V
Name: Capecitabine
Class: Pharmaceutical
Formula: C15H22FN3O6
Exact mass: 359.1493
InChI: InChI=1S/C15H22FN3O6/c1-3-4-5-6-24-15(23)18-12-9(16)7-19(14(22)17-12)13-11(21)10(20)8(2)25-13/h7-8,10-11,13,20-21H,3-6H2,1-2H3,(H,17,18,22,23)/t8-,10-,11-,13-/m1/s1
Instrument: TripleTOF 5600 SCIEX
Instrument type: LC-ESI-QTOF
Ms type: CID
Ion mode: POSITIVE
Collision energy: 110
Ionization: ESI
Column name: Zorbax Eclipse Plus C18 2.1 mm x 150 mm, 3.5 um, Agilent
Retention time: 8.389 min
Precursor m/z: 360.1565
Precursor type: [M+H]+
m/z	relative intensity
45.0416	131
58.015	593
60.0286	94
60.0435	47
67.0338	94
69.0149	37
73.0304	122
85.0216	999
87.0373	235
112.0308	292
112.0445	47
113.0146	961
130.04	169
