Mass spectrum: Phenytoin; LC-ESI-QTOF; MS2; 60 V
Name: Phenytoin
Class: Pharmaceutical
Formula: C15H12N2O2
Exact mass: 252.0899
SMILES: O=C1NC(=O)C(N1)(c2ccccc2)c3ccccc3
InChI: InChI=1S/C15H12N2O2/c18-13-15(17-14(19)16-13,11-7-3-1-4-8-11)12-9-5-2-6-10-12/h1-10H,(H2,16,17,18,19)
Instrument: TripleTOF 5600 SCIEX
Instrument type: LC-ESI-QTOF
Ms type: MS2
Ion mode: NEGATIVE
Collision energy: 60
Fragmentation mode: CID
Ionization: ESI
Column name: Zorbax Eclipse Plus C18 2.1 mm x 150 mm, 3.5 um, Agilent
Retention time: 9.176 min
Precursor m/z: 251.0826
Precursor type: [M-H]-
m/z	relative intensity
42.0015	999
42.0202	68
77.0404	430
102.0352	947
