Mass spectrum: Coumaphos; LC-ESI-QTOF; MS2; 40 V
Name: Coumaphos
Class: Insecticide
Formula: C14H16ClO5PS
Exact mass: 362.0145
SMILES: CCOP(=S)(OCC)OC1=CC2=C(C=C1)C(=C(C(=O)O2)Cl)C
InChI: InChI=1S/C14H16ClO5PS/c1-4-17-21(22,18-5-2)20-10-6-7-11-9(3)13(15)14(16)19-12(11)8-10/h6-8H,4-5H2,1-3H3
Instrument: TripleTOF 6600 SCIEX
Instrument type: LC-ESI-QTOF
Ms type: MS2
Ion mode: POSITIVE
Collision energy: 40
Fragmentation mode: CID
Ionization: ESI
Column name: Zorbax Eclipse Plus C18 2.1 mm x 150 mm, 3.5 um, Agilent
Retention time: 14.049 min
Precursor m/z: 363.0218
Precursor type: [M+H]+
m/z	relative intensity
96.9498	33
115.053	27
131.0485	28
132.0559	16
147.0257	35
150.0223	19
163.0202	18
164.0285	18
166.0174	14
191.0159	15
194.0127	42
208.9993	10
211.0157	201
224.9768	19
225.9849	100
226.9934	999
256.977	14
270.9379	15
272.9714	42
288.9491	214
306.9598	112
334.9902	50
363.0229	24
