Mass spectrum: 5-Aminofluorescein; LC-ESI-QTOF; MS2; 40 V
Name: 5-Aminofluorescein
Class: Pharmaceutical
Formula: C20H13NO5
Exact mass: 347.0794
SMILES: Nc1ccc2c(c1)C(=O)OC23c4ccc(O)cc4Oc5cc(O)ccc35
InChI: InChI=1S/C20H13NO5/c21-10-1-4-14-13(7-10)19(24)26-20(14)15-5-2-11(22)8-17(15)25-18-9-12(23)3-6-16(18)20/h1-9,22-23H,21H2
Instrument: TripleTOF 5600 SCIEX
Instrument type: LC-ESI-QTOF
Ms type: CID
Ion mode: POSITIVE
Collision energy: 40
Ionization: ESI
Column name: Zorbax Eclipse Plus C18 2.1 mm x 150 mm, 3.5 um, Agilent
Retention time: 8.159 min
Precursor m/z: 348.0866
Precursor type: [M+H]+
m/z	relative intensity
229.0489	10
274.0854	11
286.0853	46
287.0702	20
302.0807	149
304.0962	116
320.091	14
330.0752	18
348.0863	999
