Mass spectrum: Verapamil; LC-ESI-QTOF; MS2; 120 V
Name: Verapamil
Class: Pharmaceutical
Formula: C27H38N2O4
Exact mass: 454.2832
SMILES: CC(C)C(CCCN(C)CCc1ccc(c(c1)OC)OC)(C#N)c2ccc(c(c2)OC)OC
InChI: InChI=1S/C27H38N2O4/c1-20(2)27(19-28,22-10-12-24(31-5)26(18-22)33-7)14-8-15-29(3)16-13-21-9-11-23(30-4)25(17-21)32-6/h9-12,17-18,20H,8,13-16H2,1-7H3
Instrument: TripleTOF 5600 SCIEX
Instrument type: LC-ESI-QTOF
Ms type: MS2
Ion mode: POSITIVE
Collision energy: 120
Fragmentation mode: CID
Ionization: ESI
Column name: Zorbax Eclipse Plus C18 2.1 mm x 150 mm, 3.5 um, Agilent
Retention time: 8.542 min
Precursor m/z: 455.2904
Precursor type: [M+H]+
m/z	relative intensity
44.0571	17
58.0697	35
65.0432	119
66.0508	11
76.0332	11
77.0426	999
78.0493	133
79.0574	323
81.0364	13
84.0827	25
89.0404	95
90.048	98
91.0567	846
92.0272	11
92.0635	16
93.0705	46
94.0424	32
95.0502	21
102.0471	72
103.0552	307
104.0623	65
105.0341	64
105.07	45
106.0414	11
107.0499	327
115.054	46
117.0697	12
118.0412	43
119.0497	222
120.0568	38
121.0651	124
127.0527	10
128.0599	15
131.0488	72
132.0435	15
133.0277	60
133.0641	18
134.0722	54
135.0439	202
144.0792	14
145.0632	10
146.0622	16
149.0596	32
150.0673	26
172.0759	11
