Mass spectrum: Sulfadoxine; LC-ESI-QTOF; MS2; 100 V
Name: Sulfadoxine
Class: Pharmaceutical
Formula: C12H14N4O4S
Exact mass: 310.0736
SMILES: COc1ncnc(N[S](=O)(=O)c2ccc(N)cc2)c1OC
InChI: InChI=1S/C12H14N4O4S/c1-19-10-11(14-7-15-12(10)20-2)16-21(17,18)9-5-3-8(13)4-6-9/h3-7H,13H2,1-2H3,(H,14,15,16)
Instrument: TripleTOF 5600 SCIEX
Instrument type: LC-ESI-QTOF
Ms type: MS2
Ion mode: POSITIVE
Collision energy: 100
Fragmentation mode: CID
Ionization: ESI
Column name: Zorbax Eclipse Plus C18 2.1 mm x 150 mm, 3.5 um, Agilent
Retention time: 7.083 min
Precursor m/z: 311.0809
Precursor type: [M+H]+
m/z	relative intensity
42.0426	46
53.0448	92
65.0429	999
66.026	38
66.0392	30
67.0342	77
67.0483	54
68.0157	255
68.0403	46
78.0459	30
80.0513	588
82.0289	54
92.0508	216
93.0601	69
95.0262	30
95.049	61
96.0087	38
96.0559	38
105.0451	85
108.0448	154
112.0487	85
132.0545	38
