Mass spectrum: Carbendazim; LC-ESI-QTOF; MS2; 140 V
Name: Carbendazim
Class: Fungicide; Metabolite; Pharmaceutical; Biocide
Formula: C9H9N3O2
Exact mass: 191.0695
SMILES: COC(=O)Nc1[nH]c2ccccc2n1
InChI: InChI=1S/C9H9N3O2/c1-14-9(13)12-8-10-6-4-2-3-5-7(6)11-8/h2-5H,1H3,(H2,10,11,12,13)
Instrument: TripleTOF 5600 SCIEX
Instrument type: LC-ESI-QTOF
Ms type: MS2
Ion mode: POSITIVE
Collision energy: 140
Fragmentation mode: CID
Ionization: ESI
Column name: Zorbax Eclipse Plus C18 2.1 mm x 150 mm, 3.5 um, Agilent
Retention time: 5.075 min
Precursor m/z: 192.0768
Precursor type: [M+H]+
m/z	relative intensity
51.0285	999
52.0231	768
52.0353	691
63.0359	307
63.0525	384
69.0148	307
