Mass spectrum: Hexadecyl-trimethylammonium; LC-ESI-QTOF; MS2; 130 V
Name: Hexadecyl-trimethylammonium
Class: Industrial_process; Pharmaceutical
Formula: C19H42N
Exact mass: 284.3312
SMILES: CCCCCCCCCCCCCCCC[N+](C)(C)C
InChI: InChI=1S/C19H42N/c1-5-6-7-8-9-10-11-12-13-14-15-16-17-18-19-20(2,3)4/h5-19H2,1-4H3/q+1
Instrument: TripleTOF 5600 SCIEX
Instrument type: LC-ESI-QTOF
Ms type: CID
Ion mode: POSITIVE
Collision energy: 130
Ionization: ESI
Column name: Zorbax Eclipse Plus C18 2.1 mm x 150 mm, 3.5 um, Agilent
Retention time: 12.775 min
Precursor m/z: 284.3312
Precursor type: [M]+
m/z	relative intensity
43.0493	66
44.0575	999
45.0645	146
58.0698	866
60.0835	220
