Mass spectrum: Trifloxystrobin; LC-ESI-QTOF; MS2; 100 V
Name: Trifloxystrobin
Class: Fungicide
Formula: C20H19F3N2O4
Exact mass: 408.1297
SMILES: CC(=NOCC1=CC=CC=C1C(=NOC)C(=O)OC)C2=CC(=CC=C2)C(F)(F)F
InChI: InChI=1S/C20H19F3N2O4/c1-13(14-8-6-9-16(11-14)20(21,22)23)24-29-12-15-7-4-5-10-17(15)18(25-28-3)19(26)27-2/h4-11H,12H2,1-3H3
Instrument: TripleTOF 5600 SCIEX
Instrument type: LC-ESI-QTOF
Ms type: MS2
Ion mode: POSITIVE
Collision energy: 100
Fragmentation mode: CID
Ionization: ESI
Column name: Zorbax Eclipse Plus C18 2.1 mm x 150 mm, 3.5 um, Agilent
Retention time: 15.037 min
Precursor m/z: 409.137
Precursor type: [M+H]+
m/z	relative intensity
65.0455	32
69.0007	13
74.0203	50
75.0277	219
77.044	69
78.051	14
89.0425	380
90.0497	110
91.0576	116
95.032	561
99.0061	23
103.0565	56
104.0585	22
115.0439	27
116.0509	321
117.0586	92
118.0664	110
119.0111	32
123.0367	20
125.0211	225
130.0662	227
131.074	110
132.081	12
145.0263	999
146.0612	17
186.0505	13
