Mass spectrum: Pirimicarb; LC-ESI-QTOF; MS2; 40 V
Name: Pirimicarb
Class: Insecticide; Fungicide
Formula: C11H18N4O2
Exact mass: 238.143
SMILES: CC1=C(N=C(N=C1OC(=O)N(C)C)N(C)C)C
InChI: InChI=1S/C11H18N4O2/c1-7-8(2)12-10(14(3)4)13-9(7)17-11(16)15(5)6/h1-6H3
Instrument: TripleTOF 6600 SCIEX
Instrument type: LC-ESI-QTOF
Ms type: MS2
Ion mode: POSITIVE
Collision energy: 40
Fragmentation mode: CID
Ionization: ESI
Column name: Zorbax Eclipse Plus C18 2.1 mm x 150 mm, 3.5 um, Agilent
Retention time: 6.157 min
Precursor m/z: 239.1503
Precursor type: [M+H]+
m/z	relative intensity
56.0127	11
72.0448	999
83.0232	17
85.0758	77
109.0756	70
137.0703	34
138.0782	24
150.102	18
152.0811	17
167.1043	11
182.1288	124
