Mass spectrum: 2,4,6-Triiodoaniline; LC-ESI-QTOF; MS2; 150 V
Name: 2,4,6-Triiodoaniline
Class: Pharmaceutical; Transformation_product
Formula: C6H4I3N
Exact mass: 470.7478
SMILES: Nc1c(I)cc(I)cc1I
InChI: InChI=1S/C6H4I3N/c7-3-1-4(8)6(10)5(9)2-3/h1-2H,10H2
Instrument: TripleTOF 5600 SCIEX
Instrument type: LC-ESI-QTOF
Ms type: MS2
Ion mode: POSITIVE
Collision energy: 150
Fragmentation mode: CID
Ionization: ESI
Column name: Zorbax Eclipse Plus C18 2.1 mm x 150 mm, 3.5 um, Agilent
Retention time: 16.077 min
Precursor m/z: 471.7551
Precursor type: [M+H]+
m/z	relative intensity
52.0249	282
60.0054	75
64.035	414
65.0291	150
73.0101	207
74.0189	999
88.0204	113
89.0269	245
90.0354	245
91.0421	282
200.922	131
