Mass spectrum: Tiapride; LC-ESI-QTOF; MS2; 90 V
Name: Tiapride
Class: Pharmaceutical
Formula: C15H24N2O4S
Exact mass: 328.1457
SMILES: CCN(CC)CCNC(=O)C1=C(C=CC(=C1)S(=O)(=O)C)OC
InChI: InChI=1S/C15H24N2O4S/c1-5-17(6-2)10-9-16-15(18)13-11-12(22(4,19)20)7-8-14(13)21-3/h7-8,11H,5-6,9-10H2,1-4H3,(H,16,18)
Instrument: TripleTOF 5600 SCIEX
Instrument type: LC-ESI-QTOF
Ms type: MS2
Ion mode: POSITIVE
Collision energy: 90
Fragmentation mode: CID
Ionization: ESI
Column name: Zorbax Eclipse Plus C18 2.1 mm x 150 mm, 3.5 um, Agilent
Retention time: 4.856 min
Precursor m/z: 329.153
Precursor type: [M+H]+
m/z	relative intensity
44.0601	45
45.044	45
52.0398	85
55.0248	10
64.0359	15
65.0453	132
66.0521	22
72.0865	29
74.0221	22
75.0277	52
76.0359	999
77.0433	636
78.051	853
78.9902	15
79.0214	157
79.0512	132
80.0553	12
81.0368	17
84.0076	15
86.1008	12
89.0421	20
90.0367	125
91.0207	325
91.0585	59
92.0295	26
93.0359	20
94.043	24
97.0106	19
100.1151	22
103.0434	111
104.0271	34
104.051	514
105.0356	227
105.0583	106
106.031	68
106.0447	34
106.0673	75
107.0126	131
107.0483	24
109.0106	26
110.0185	13
110.9938	15
117.0595	27
118.0307	41
119.0142	227
120.0218	10
120.0447	10
122.9892	12
132.0442	103
133.0286	22
133.0526	225
134.0364	488
134.0588	61
135.0087	31
154.9799	57
162.0549	101
177.0755	41
178.0512	29
213.0186	24
