Mass spectrum: 3-Amino-5-methylisoxazole; LC-ESI-QTOF; MS2; 30 V
Name: 3-Amino-5-methylisoxazole
Formula: C4H6N2O
Exact mass: 98.048
SMILES: CC1=CC(=NO1)N
InChI: InChI=1S/C4H6N2O/c1-3-2-4(5)6-7-3/h2H,1H3,(H2,5,6)
Instrument: TripleTOF 6600 SCIEX
Instrument type: LC-ESI-QTOF
Ms type: MS2
Ion mode: POSITIVE
Collision energy: 30
Fragmentation mode: CID
Ionization: ESI
Column name: Zorbax Eclipse Plus C18 2.1 mm x 150 mm, 3.5 um, Agilent
Retention time: 4.412 min
Precursor m/z: 99.0553
Precursor type: [M+H]+
m/z	relative intensity
30.0329	126
31.0172	16
38.0019	10
42.033	48
43.0251	999
44.0124	100
44.0488	995
45.0327	19
54.0328	48
55.0173	30
56.048	15
57.0438	13
68.0118	12
71.0592	19
72.0432	41
99.0539	84
