Mass spectrum: Clomazone; LC-ESI-QTOF; MS2; 100 V
Name: Clomazone
Class: Herbicide
Formula: C12H14ClNO2
Exact mass: 239.0713
SMILES: CC1(CON(C1=O)CC2=CC=CC=C2Cl)C
InChI: InChI=1S/C12H14ClNO2/c1-12(2)8-16-14(11(12)15)7-9-5-3-4-6-10(9)13/h3-6H,7-8H2,1-2H3
Instrument: TripleTOF 6600 SCIEX
Instrument type: LC-ESI-QTOF
Ms type: MS2
Ion mode: POSITIVE
Collision energy: 100
Fragmentation mode: CID
Ionization: ESI
Column name: Zorbax Eclipse Plus C18 2.1 mm x 150 mm, 3.5 um, Agilent
Retention time: 11.289 min
Precursor m/z: 240.0786
Precursor type: [M+H]+
m/z	relative intensity
35.9975	16
37.006	96
38.0133	87
39.0214	264
46.966	50
48.9815	100
50.0129	37
51.022	28
59.9964	42
61.0047	170
62.013	389
63.0207	806
64.0292	84
65.0366	36
72.9816	618
74.0122	46
74.9975	27
75.0212	33
89.0361	999
90.0435	115
96.9809	24
98.9966	209
125.0134	15
