Mass spectrum: Pantoprazole sulfide; LC-ESI-QTOF; MS2; 90 V
Name: Pantoprazole sulfide
Class: Pharmaceutical; Metabolite; Transformation_product-Metabolite
Formula: C16H15F2N3O3S
Exact mass: 367.0802
SMILES: COC1=C(C(=NC=C1)CSC2=NC3=C(N2)C=CC(=C3)OC(F)F)OC
InChI: InChI=1S/C16H15F2N3O3S/c1-22-13-5-6-19-12(14(13)23-2)8-25-16-20-10-4-3-9(24-15(17)18)7-11(10)21-16/h3-7,15H,8H2,1-2H3,(H,20,21)
Instrument: TripleTOF 5600 SCIEX
Instrument type: LC-ESI-QTOF
Ms type: MS2
Ion mode: POSITIVE
Collision energy: 90
Fragmentation mode: CID
Ionization: ESI
Column name: Zorbax Eclipse Plus C18 2.1 mm x 150 mm, 3.5 um, Agilent
Retention time: 7.575 min
Precursor m/z: 368.0875
Precursor type: [M+H]+
m/z	relative intensity
42.0434	95
50.0452	12
51.0301	315
52.0376	47
53.0452	10
55.0226	15
65.0439	999
67.0441	17
68.0192	12
69.0377	30
78.0375	35
79.0439	78
80.0529	52
91.0419	15
92.0517	703
92.0816	25
93.0575	25
94.0311	22
94.0673	32
95.0349	10
96.0031	60
96.0455	15
106.0287	12
106.0645	22
107.0358	45
107.0623	30
108.0451	32
109.0521	15
110.0076	50
110.0598	55
111.0152	10
117.0457	32
118.0537	42
122.0063	27
122.0597	25
123.0142	52
123.0666	22
135.0308	12
135.0538	95
136.0389	189
137.0442	15
138.0547	55
150.0551	22
151.0082	73
152.0153	10
154.0336	27
168.0129	22
173.0567	17
185.0686	12
223.0548	15
