Mass spectrum: Carazolol; LC-ESI-QTOF; MS2; 130 V
Name: Carazolol
Class: Pharmaceutical
Formula: C18H22N2O2
Exact mass: 298.1681
SMILES: CC(C)NCC(O)COc1cccc2[nH]c3ccccc3c12
InChI: InChI=1S/C18H22N2O2/c1-12(2)19-10-13(21)11-22-17-9-5-8-16-18(17)14-6-3-4-7-15(14)20-16/h3-9,12-13,19-21H,10-11H2,1-2H3
Instrument: TripleTOF 5600 SCIEX
Instrument type: LC-ESI-QTOF
Ms type: MS2
Ion mode: POSITIVE
Collision energy: 130
Fragmentation mode: CID
Ionization: ESI
Column name: Zorbax Eclipse Plus C18 2.1 mm x 150 mm, 3.5 um, Agilent
Retention time: 6.882 min
Precursor m/z: 299.1754
Precursor type: [M+H]+
m/z	relative intensity
44.0589	28
56.0537	82
58.0705	64
63.0507	21
65.042	85
72.0822	17
74.018	157
74.0614	14
75.0259	293
76.0336	100
77.0417	601
78.0485	64
85.0089	25
86.0163	85
87.024	225
88.0186	39
88.0314	35
89.0403	673
89.0643	32
89.0798	17
90.0471	50
90.0564	17
91.057	25
98.016	60
99.023	53
101.0385	218
101.058	25
102.0325	25
102.0469	186
102.0659	21
103.0544	25
110.0152	17
111.0229	17
112.017	17
113.0387	504
114.0337	68
114.0464	53
115.0539	232
116.0502	28
117.0568	28
123.0226	28
125.0393	53
126.0453	300
127.0538	558
128.0615	322
129.0453	21
130.0406	14
137.0385	125
138.0463	118
139.0544	999
139.0963	17
140.0489	533
140.0678	21
141.0544	14
149.0392	28
150.0456	214
151.0538	96
152.0465	21
152.059	64
153.0584	68
154.0652	157
161.0362	28
162.0448	35
163.0538	290
164.0521	229
165.0644	114
166.0659	143
167.0748	35
176.0575	17
177.0567	35
178.0721	21
188.0488	25
189.0558	42
190.0647	179
191.0714	100
201.057	17
