Mass spectrum: Mitomycin A; LC-ESI-QTOF; MS2; 40 V
Name: Mitomycin A
Class: Pharmaceutical
Formula: C16H19N3O6
Exact mass: 349.1274
SMILES: COC1=C(C)C(=O)C2=C([C@H](COC(N)=O)[C@]3(OC)[C@@H]4N[C@@H]4CN23)C1=O
InChI: InChI=1S/C16H19N3O6/c1-6-11(20)10-9(12(21)13(6)23-2)7(5-25-15(17)22)16(24-3)14-8(18-14)4-19(10)16/h7-8,14,18H,4-5H2,1-3H3,(H2,17,22)/t7-,8+,14+,16-/m0/s1
Instrument: TripleTOF 5600 SCIEX
Instrument type: LC-ESI-QTOF
Ms type: MS2
Ion mode: POSITIVE
Collision energy: 40
Fragmentation mode: CID
Ionization: ESI
Column name: Zorbax Eclipse Plus C18 2.1 mm x 150 mm, 3.5 um, Agilent
Retention time: 7.046 min
Precursor m/z: 350.1347
Precursor type: [M+H]+
m/z	relative intensity
78.0396	10
103.0532	24
104.0499	14
105.0553	10
110.0616	14
115.0526	16
116.0588	12
117.0638	29
118.0634	24
119.0697	12
129.0559	14
129.0703	14
130.0654	45
131.0644	41
132.043	12
132.0707	35
134.059	10
140.0477	12
141.0572	12
142.0639	26
143.0706	22
144.0825	31
145.048	12
145.0788	24
146.059	12
147.0651	24
154.066	20
155.0605	24
155.0712	14
156.0678	113
157.0762	192
158.0834	53
159.0552	74
160.0406	12
160.0755	22
161.074	16
167.076	10
168.069	18
169.077	68
170.083	62
171.0665	29
171.0926	62
172.0766	39
173.0795	10
174.0555	22
174.0917	12
175.0656	35
176.0729	14
181.0781	29
182.0822	39
183.0901	45
184.0678	80
185.0703	68
186.0566	22
186.0785	62
187.0604	43
188.0438	10
188.0704	20
189.0778	43
190.0888	14
192.0645	12
197.0704	43
198.0557	12
198.0794	64
199.0865	617
200.0693	31
200.0938	39
201.0748	22
201.1033	45
202.0504	12
202.0872	29
203.0645	31
204.0648	31
210.0798	10
211.0859	84
212.0624	29
212.0944	29
213.0652	145
214.0491	16
214.0737	462
215.08	43
216.0607	12
216.0882	72
218.0805	33
225.0634	16
226.0717	22
227.0812	903
227.1276	12
228.0894	934
229.0656	33
229.0968	569
230.0421	16
230.0796	35
231.0742	20
232.06	12
239.0823	37
240.089	12
241.0601	12
242.0688	215
243.0751	49
244.0845	84
245.0872	16
246.0736	20
255.0772	999
256.0855	22
257.0919	549
259.072	35
259.1072	51
289.1172	31
