Mass spectrum: Butylphosphonic acid; LC-ESI-QTOF; MS2; 40 V
Name: Butylphosphonic acid
Formula: C4H11O3P
Exact mass: 138.0446
SMILES: CCCCP(=O)(O)O
InChI: InChI=1S/C4H11O3P/c1-2-3-4-8(5,6)7/h2-4H2,1H3,(H2,5,6,7)
Instrument: TripleTOF 5600 SCIEX
Instrument type: LC-ESI-QTOF
Ms type: MS2
Ion mode: POSITIVE
Collision energy: 40
Fragmentation mode: CID
Ionization: ESI
Column name: Zorbax Eclipse Plus C18 2.1 mm x 150 mm, 3.5 um, Agilent
Retention time: 4.77 min
Precursor m/z: 139.0519
Precursor type: [M+H]+
m/z	relative intensity
37.0062	55
38.0158	55
39.0229	610
41.0386	610
46.9682	388
55.0541	832
57.0693	555
60.9857	111
62.9566	55
64.9786	999
66.9935	55
77.988	111
78.9954	55
80.9721	111
81.9812	55
82.9867	55
82.9946	55
95.9982	111
105.0103	55
120.9505	111
121.0407	444
139.0556	277
