Mass spectrum: Parathion-methyl; LC-ESI-QTOF; MS2; 40 V
Name: Parathion-methyl
Class: Insecticide
Formula: C8H10NO5PS
Exact mass: 263.0017
SMILES: COP(=S)(OC)OC1=CC=C(C=C1)[N+](=O)[O-]
InChI: InChI=1S/C8H10NO5PS/c1-12-15(16,13-2)14-8-5-3-7(4-6-8)9(10)11/h3-6H,1-2H3
Instrument: TripleTOF 6600 SCIEX
Instrument type: LC-ESI-QTOF
Ms type: MS2
Ion mode: POSITIVE
Collision energy: 40
Fragmentation mode: CID
Ionization: ESI
Column name: Zorbax Eclipse Plus C18 2.1 mm x 150 mm, 3.5 um, Agilent
Retention time: 12.495 min
Precursor m/z: 264.009
Precursor type: [M+H]+
m/z	relative intensity
44.9792	77
46.967	29
46.9934	224
62.0164	48
62.9442	24
62.9991	24
63.0216	58
64.0295	82
65.0379	34
68.9795	24
69.9862	34
74.0143	38
75.0214	375
76.0294	19
78.9924	575
92.0245	194
93.007	48
96.0016	102
108.0021	77
109.0032	331
110.0161	29
122.0234	38
123.0297	43
123.9953	58
124.9802	999
127.0143	63
137.9839	34
138.9947	24
139.007	24
141.9655	29
142.9996	19
150.0287	58
152.9578	24
153.9615	336
153.9923	24
154.9697	531
155.9754	48
156.9856	29
170.9636	43
183.9781	29
184.9819	63
185.9887	146
199.9553	131
214.9812	53
231.9808	155
249.9899	19
