Mass spectrum: Desethylterbuthylazine; LC-ESI-QTOF; MS2; 50 V
Name: Desethylterbuthylazine
Class: Herbicide; Transformation_product; Metabolite
Formula: C7H12ClN5
Exact mass: 201.0781
SMILES: CC(C)(C)NC1=NC(=NC(=N1)N)Cl
InChI: InChI=1S/C7H12ClN5/c1-7(2,3)13-6-11-4(8)10-5(9)12-6/h1-3H3,(H3,9,10,11,12,13)
Instrument: TripleTOF 6600 SCIEX
Instrument type: LC-ESI-QTOF
Ms type: MS2
Ion mode: POSITIVE
Collision energy: 50
Fragmentation mode: CID
Ionization: ESI
Column name: Zorbax Eclipse Plus C18 2.1 mm x 150 mm, 3.5 um, Agilent
Retention time: 9.136 min
Precursor m/z: 202.0854
Precursor type: [M+H]+
m/z	relative intensity
39.023	24
41.0387	35
43.0297	999
57.0701	52
61.9796	558
68.0249	944
79.0062	499
104.0014	536
110.0464	50
146.0226	86
