Mass spectrum: Butocarboxim; LC-ESI-QTOF; MS2; 100 V
Name: Butocarboxim
Class: Insecticide; Acaricide
Formula: C7H14N2O2S
Exact mass: 190.0776
SMILES: CC(C(=NOC(=O)NC)C)SC
InChI: InChI=1S/C7H14N2O2S/c1-5(6(2)12-4)9-11-7(10)8-3/h6H,1-4H3,(H,8,10)
Instrument: TripleTOF 6600 SCIEX
Instrument type: LC-ESI-QTOF
Ms type: MS2
Ion mode: POSITIVE
Collision energy: 100
Fragmentation mode: CID
Ionization: ESI
Column name: Zorbax Eclipse Plus C18 2.1 mm x 150 mm, 3.5 um, Agilent
Retention time: 7.75 min
Precursor m/z: 213.0668
Precursor type: [M+Na]+
m/z	relative intensity
39.023	132
43.9713	101
44.9794	999
45.9745	50
46.9949	254
57.987	152
58.995	591
60.0027	193
