Mass spectrum: N,N-Dimethyldecanamide; LC-ESI-QTOF; MS2; 50 V
Name: N,N-Dimethyldecanamide
Class: Industrial_process
Formula: C12H25NO
Exact mass: 199.1936
SMILES: CCCCCCCCCC(=O)N(C)C
InChI: InChI=1S/C12H25NO/c1-4-5-6-7-8-9-10-11-12(14)13(2)3/h4-11H2,1-3H3
Instrument: TripleTOF 6600 SCIEX
Instrument type: LC-ESI-QTOF
Ms type: MS2
Ion mode: POSITIVE
Collision energy: 50
Fragmentation mode: CID
Ionization: ESI
Column name: Zorbax Eclipse Plus C18 2.1 mm x 150 mm, 3.5 um, Agilent
Retention time: 13.577 min
Precursor m/z: 200.2009
Precursor type: [M+H]+
m/z	relative intensity
30.0329	18
37.0066	22
38.0023	23
38.0142	20
39.0226	332
41.0384	999
42.0323	13
43.0172	20
43.0539	771
44.0492	701
45.0569	208
46.0649	879
55.0172	112
55.04	13
55.0531	56
56.012	15
57.0328	43
57.0691	169
58.0276	25
58.064	10
67.0533	22
69.0683	12
72.0437	792
72.0786	14
81.0683	12
87.0668	44
100.0744	242
102.0901	18
