Mass spectrum: Prosulfuron; LC-ESI-QTOF; MS2; 100 V
Name: Prosulfuron
Class: Herbicide
Formula: C15H16F3N5O4S
Exact mass: 419.0875
SMILES: CC1=NC(=NC(=N1)OC)NC(=O)NS(=O)(=O)C2=CC=CC=C2CCC(F)(F)F
InChI: InChI=1S/C15H16F3N5O4S/c1-9-19-12(22-14(20-9)27-2)21-13(24)23-28(25,26)11-6-4-3-5-10(11)7-8-15(16,17)18/h3-6H,7-8H2,1-2H3,(H2,19,20,21,22,23,24)
Instrument: TripleTOF 6600 SCIEX
Instrument type: LC-ESI-QTOF
Ms type: MS2
Ion mode: POSITIVE
Collision energy: 100
Fragmentation mode: CID
Ionization: ESI
Column name: Zorbax Eclipse Plus C18 2.1 mm x 150 mm, 3.5 um, Agilent
Retention time: 11.847 min
Precursor m/z: 420.0948
Precursor type: [M+H]+
m/z	relative intensity
30.0321	22
39.0209	15
42.0317	396
43.027	508
44.0107	9
56.011	13
56.0471	244
57.0115	73
57.0424	458
58.0264	358
59.0268	45
61.0066	11
62.0124	15
63.0208	63
67.0266	13
68.0221	272
69.0062	377
77.0363	30
78.0436	24
81.011	15
83.0261	886
84.0536	18
85.0372	48
89.036	97
100.0487	50
102.043	16
109.0424	999
115.0537	11
127.0321	9
133.0424	63
141.0763	28
