Mass spectrum: Sulfadoxine; LC-ESI-QTOF; MS2; 120 V
Name: Sulfadoxine
Class: Pharmaceutical
Formula: C12H14N4O4S
Exact mass: 310.0736
SMILES: COc1ncnc(N[S](=O)(=O)c2ccc(N)cc2)c1OC
InChI: InChI=1S/C12H14N4O4S/c1-19-10-11(14-7-15-12(10)20-2)16-21(17,18)9-5-3-8(13)4-6-9/h3-7H,13H2,1-2H3,(H,14,15,16)
Instrument: TripleTOF 5600 SCIEX
Instrument type: LC-ESI-QTOF
Ms type: MS2
Ion mode: POSITIVE
Collision energy: 120
Fragmentation mode: CID
Ionization: ESI
Column name: Zorbax Eclipse Plus C18 2.1 mm x 150 mm, 3.5 um, Agilent
Retention time: 7.083 min
Precursor m/z: 311.0809
Precursor type: [M+H]+
m/z	relative intensity
42.0418	106
43.0383	79
52.0276	93
53.0447	213
65.0425	999
66.041	106
67.0325	173
68.0172	492
68.0394	79
78.0361	66
80.0516	639
92.0504	106
96.0596	53
108.0456	79
112.0481	53
