Mass spectrum: Irbesartan; LC-ESI-QTOF; MS2; 130 V
Name: Irbesartan
Class: Pharmaceutical
Formula: C25H28N6O
Exact mass: 428.2325
SMILES: CCCCC1=NC2(CCCC2)C(=O)N1Cc3ccc(cc3)c4ccccc4c5n[nH]nn5
InChI: InChI=1S/C25H28N6O/c1-2-3-10-22-26-25(15-6-7-16-25)24(32)31(22)17-18-11-13-19(14-12-18)20-8-4-5-9-21(20)23-27-29-30-28-23/h4-5,8-9,11-14H,2-3,6-7,10,15-17H2,1H3,(H,27,28,29,30)
Instrument: TripleTOF 5600 SCIEX
Instrument type: LC-ESI-QTOF
Ms type: MS2
Ion mode: POSITIVE
Collision energy: 130
Fragmentation mode: CID
Ionization: ESI
Column name: Zorbax Eclipse Plus C18 2.1 mm x 150 mm, 3.5 um, Agilent
Retention time: 9.345 min
Precursor m/z: 429.2397
Precursor type: [M+H]+
m/z	relative intensity
51.0289	45
65.0428	13
67.0574	31
74.0183	21
75.0257	52
77.0418	158
78.0352	11
78.048	11
80.0523	16
84.0827	19
86.0167	13
87.0241	30
88.0313	10
89.0402	72
90.0477	10
98.0153	16
99.0239	33
101.0394	45
102.0348	16
102.0463	35
111.0228	10
113.0388	103
114.0339	16
114.045	28
115.0543	152
116.0505	13
125.0387	70
126.0464	108
127.054	145
128.054	68
129.0445	11
137.0382	75
138.0462	65
139.0544	223
140.0497	186
149.0385	37
150.0472	438
151.0549	999
152.0622	770
153.0577	94
154.0657	16
161.0384	21
162.0467	94
163.055	425
164.0554	486
165.0698	354
166.0651	43
175.0424	18
176.0551	97
177.0581	290
178.0656	354
179.0726	67
180.0813	15
188.0499	128
189.0574	70
190.0657	228
191.0613	53
192.0687	12
203.0609	17
204.0688	16
205.0767	224
