Mass spectrum: Triphenylphosphine sulfide; LC-ESI-QTOF; MS2; 100 V
Name: Triphenylphosphine sulfide
Class: Industrial_process
Formula: C18H15PS
Exact mass: 294.0632
SMILES: S=[P](c1ccccc1)(c2ccccc2)c3ccccc3
InChI: InChI=1S/C18H15PS/c20-19(16-10-4-1-5-11-16,17-12-6-2-7-13-17)18-14-8-3-9-15-18/h1-15H
Instrument: TripleTOF 5600 SCIEX
Instrument type: LC-ESI-QTOF
Ms type: MS2
Ion mode: POSITIVE
Collision energy: 100
Fragmentation mode: CID
Ionization: ESI
Column name: Zorbax Eclipse Plus C18 2.1 mm x 150 mm, 3.5 um, Agilent
Retention time: 14.508 min
Precursor m/z: 295.0705
Precursor type: [M+H]+
m/z	relative intensity
51.0309	179
56.995	27
62.9503	999
62.9844	35
65.0442	19
76.0343	23
77.0405	143
79.9851	51
80.9916	75
89.0422	59
102.0478	47
107.0051	887
108.014	23
113.0407	27
115.0542	279
126.0463	79
131.0036	31
133.0189	55
138.9759	31
139.0544	203
150.0469	63
151.0535	251
152.0619	863
155.0114	15
156.0114	27
157.0209	359
170.028	27
180.011	43
181.0192	183
182.0289	31
183.0351	259
