Mass spectrum: 4-(4-Chloro-2-methylphenoxy)butanoic acid; LC-ESI-QTOF; MS2; 10 V
Name: 4-(4-Chloro-2-methylphenoxy)butanoic acid
Class: Herbicide
Formula: C11H13ClO3
Exact mass: 228.0553
SMILES: CC1=C(C=CC(=C1)Cl)OCCCC(=O)O
InChI: InChI=1S/C11H13ClO3/c1-8-7-9(12)4-5-10(8)15-6-2-3-11(13)14/h4-5,7H,2-3,6H2,1H3,(H,13,14)
Instrument: TripleTOF 6600 SCIEX
Instrument type: LC-ESI-QTOF
Ms type: MS2
Ion mode: POSITIVE
Collision energy: 10
Fragmentation mode: CID
Ionization: ESI
Column name: Zorbax Eclipse Plus C18 2.1 mm x 150 mm, 3.5 um, Agilent
Retention time: 11.775 min
Precursor m/z: 229.0626
Precursor type: [M+H]+
m/z	relative intensity
69.0327	27
87.0435	268
155.0249	23
193.0408	79
211.0523	999
