Mass spectrum: 2,2,4-Trimethyl-1,2-dihydroquinoline; LC-ESI-QTOF; MS2; 100 V
Name: 2,2,4-Trimethyl-1,2-dihydroquinoline
Class: Industrial_process
Formula: C12H15N
Exact mass: 173.1204
SMILES: CC1=CC(NC2=CC=CC=C12)(C)C
InChI: InChI=1S/C12H15N/c1-9-8-12(2,3)13-11-7-5-4-6-10(9)11/h4-8,13H,1-3H3
Instrument: TripleTOF 6600 SCIEX
Instrument type: LC-ESI-QTOF
Ms type: MS2
Ion mode: POSITIVE
Collision energy: 100
Fragmentation mode: CID
Ionization: ESI
Column name: Zorbax Eclipse Plus C18 2.1 mm x 150 mm, 3.5 um, Agilent
Retention time: 12.497 min
Precursor m/z: 174.1277
Precursor type: [M+H]+
m/z	relative intensity
35.9986	35
37.0067	243
38.0143	193
39.0225	843
41.0255	10
41.0379	25
42.0328	14
49.0064	75
50.0144	577
51.0223	999
52.0166	17
52.0296	17
53.0374	15
61.0063	65
62.0142	207
63.0221	527
64.0293	25
65.0376	213
73.006	15
74.014	243
75.0216	120
76.0295	41
77.0374	204
78.0445	11
86.0134	23
87.0217	19
89.0374	398
90.0451	17
91.0522	29
98.0134	18
102.0449	23
113.0368	11
114.0442	11
115.0526	176
126.0454	13
127.0537	10
