Mass spectrum: Ranitidine-N-oxide; LC-ESI-QTOF; MS2; 30 V
Name: Ranitidine-N-oxide
Class: Pharmaceutical; Transformation_product
Formula: C13H22N4O4S
Exact mass: 330.1362
SMILES: CNC(/NCCSCc1oc(C[N+](C)(C)[O-])cc1)=C\[N+]([O-])=O
InChI: InChI=1S/C13H22N4O4S/c1-14-13(8-16(18)19)15-6-7-22-10-12-5-4-11(21-12)9-17(2,3)20/h4-5,8,14-15H,6-7,9-10H2,1-3H3/b13-8+
Instrument: TripleTOF 5600 SCIEX
Instrument type: LC-ESI-QTOF
Ms type: MS2
Ion mode: POSITIVE
Collision energy: 30
Fragmentation mode: CID
Ionization: ESI
Column name: Zorbax Eclipse Plus C18 2.1 mm x 150 mm, 3.5 um, Agilent
Retention time: 4.879 min
Precursor m/z: 331.1435
Precursor type: [M+H]+
m/z	relative intensity
81.0356	15
88.0222	28
95.0501	17
97.0766	40
98.085	266
101.03	11
102.0379	127
114.079	15
117.0477	17
118.0318	14
124.0754	139
125.006	425
129.0487	10
130.0562	603
131.0636	18
135.091	18
144.0767	81
145.0427	12
146.0502	10
147.0597	20
148.0757	22
153.037	49
163.0868	16
164.0946	37
165.1025	126
167.064	36
170.0628	59
176.0493	999
177.1017	52
178.1098	26
181.0793	74
191.1174	187
192.0487	24
193.055	58
194.0642	10
195.0703	14
223.0908	11
224.0981	248
270.0899	38
