Mass spectrum: Albendazole; LC-ESI-QTOF; MS2; 60 V
Name: Albendazole
Class: Pharmaceutical
Formula: C12H15N3O2S
Exact mass: 265.0885
SMILES: CCCSc1ccc2nc(NC(=O)OC)[nH]c2c1
InChI: InChI=1S/C12H15N3O2S/c1-3-6-18-8-4-5-9-10(7-8)14-11(13-9)15-12(16)17-2/h4-5,7H,3,6H2,1-2H3,(H2,13,14,15,16)
Instrument: TripleTOF 5600 SCIEX
Instrument type: LC-ESI-QTOF
Ms type: MS2
Ion mode: POSITIVE
Collision energy: 60
Fragmentation mode: CID
Ionization: ESI
Column name: Zorbax Eclipse Plus C18 2.1 mm x 150 mm, 3.5 um, Agilent
Retention time: 8.546 min
Precursor m/z: 266.0958
Precursor type: [M+H]+
m/z	relative intensity
77.029	26
92.0387	35
96.0038	19
103.0411	23
104.038	105
105.0451	22
108.9985	46
119.0485	159
120.0556	10
120.9981	63
122.0058	62
123.0133	20
130.0401	38
131.0485	233
133.0637	13
136.0098	219
137.017	15
147.0433	65
148.0094	16
149.0168	11
158.0348	32
159.0433	999
160.0508	21
162.0114	23
163.0206	319
164.0274	49
190.0066	31
191.0155	830
192.0227	76
204.0219	11
