Mass spectrum: 3-Cyclohexyl-1,1-dibenzylurea; LC-ESI-QTOF; MS2; 100 V
Name: 3-Cyclohexyl-1,1-dibenzylurea
Formula: C21H26N2O
Exact mass: 322.2045
SMILES: O=C(NC1CCCCC1)N(Cc2ccccc2)Cc3ccccc3
InChI: InChI=1S/C21H26N2O/c24-21(22-20-14-8-3-9-15-20)23(16-18-10-4-1-5-11-18)17-19-12-6-2-7-13-19/h1-2,4-7,10-13,20H,3,8-9,14-17H2,(H,22,24)
Instrument: TripleTOF 6600 SCIEX
Instrument type: LC-ESI-QTOF
Ms type: MS2
Ion mode: POSITIVE
Collision energy: 100
Fragmentation mode: CID
Ionization: ESI
Column name: Zorbax Eclipse Plus C18 2.1 mm x 150 mm, 3.5 um, Agilent
Retention time: 14.103 min
Precursor m/z: 323.2118
Precursor type: [M+H]+
m/z	relative intensity
37.007	13
38.0146	11
39.0229	143
41.0384	36
50.0143	12
51.0222	24
55.0536	33
62.0142	12
63.0223	50
65.0384	959
77.0377	11
91.0539	999
115.0526	10
165.0685	54
