Mass spectrum: 2-(5-Chloro-2-methoxyphenyl)-1H-benzimidazole; LC-ESI-QTOF; MS2; 110 V
Name: 2-(5-Chloro-2-methoxyphenyl)-1H-benzimidazole
Class: Pharmaceutical
Formula: C14H11ClN2O
Exact mass: 258.056
SMILES: COc1ccc(cc1c2[nH]c3ccccc3n2)Cl
InChI: InChI=1S/C14H11ClN2O/c1-18-13-7-6-9(15)8-10(13)14-16-11-4-2-3-5-12(11)17-14/h2-8H,1H3,(H,16,17)
Instrument: TripleTOF 5600 SCIEX
Instrument type: LC-ESI-QTOF
Ms type: MS2
Ion mode: POSITIVE
Collision energy: 110
Fragmentation mode: CID
Ionization: ESI
Column name: Zorbax Eclipse Plus C18 2.1 mm x 150 mm, 3.5 um, Agilent
Retention time: 7.374 min
Precursor m/z: 259.0633
Precursor type: [M+H]+
m/z	relative intensity
52.025	53
53.0447	53
61.0314	33
62.0435	39
63.0521	93
64.035	153
65.0289	33
65.0436	812
72.991	39
73.0109	53
74.0192	306
75.0142	33
75.0273	705
75.0663	26
76.0219	139
76.0333	79
76.044	53
77.0424	999
77.0862	26
78.039	39
87.0248	26
88.0327	33
89.0431	66
90.0366	139
91.0434	159
92.051	106
98.0161	33
99.024	99
100.031	53
101.0403	266
101.0735	26
102.0352	479
103.0426	113
104.0505	46
113.0363	46
114.0364	106
115.0404	79
115.0509	26
118.0529	59
119.0592	53
125.0389	199
126.0461	266
126.0646	53
127.0387	26
127.0548	359
128.0503	219
129.045	126
130.04	26
131.0603	33
142.0533	66
151.0474	79
152.0501	359
153.0542	226
154.0616	93
155.061	53
165.0454	26
179.06	392
180.0672	59
