Mass spectrum: Sunitinib; LC-ESI-QTOF; MS2; 130 V
Name: Sunitinib
Class: Pharmaceutical
Formula: C22H27FN4O2
Exact mass: 398.2118
SMILES: CCN(CC)CCNC(=O)C1=C(NC(=C1C)C=C2C3=C(C=CC(=C3)F)NC2=O)C
InChI: InChI=1S/C22H27FN4O2/c1-5-27(6-2)10-9-24-22(29)20-13(3)19(25-14(20)4)12-17-16-11-15(23)7-8-18(16)26-21(17)28/h7-8,11-12,25H,5-6,9-10H2,1-4H3,(H,24,29)(H,26,28)
Instrument: TripleTOF 5600 SCIEX
Instrument type: LC-ESI-QTOF
Ms type: MS2
Ion mode: POSITIVE
Collision energy: 130
Fragmentation mode: CID
Ionization: ESI
Column name: Zorbax Eclipse Plus C18 2.1 mm x 150 mm, 3.5 um, Agilent
Retention time: 6.516 min
Precursor m/z: 399.2191
Precursor type: [M+H]+
m/z	relative intensity
42.0445	10
51.0278	36
57.0176	15
63.0432	10
65.0421	70
65.0554	15
66.0407	15
73.0113	15
74.0178	135
75.026	319
76.02	18
77.0398	85
78.0367	23
80.0526	20
81.0165	28
83.031	117
86.0151	23
87.0242	33
87.0332	13
88.0357	15
89.0393	59
91.0542	18
92.0523	13
93.0136	23
94.0227	20
95.0299	187
96.0242	13
96.038	31
97.0086	20
98.0169	132
98.0406	15
99.0234	400
100.0185	145
101.0384	127
102.0335	41
104.0511	26
105.0135	13
106.0224	28
106.0623	10
107.0297	426
108.0369	106
108.0567	10
109.0464	57
110.0146	10
111.0234	23
113.0386	57
114.0355	41
115.0543	28
117.0153	13
117.0574	18
118.0211	18
118.064	13
119.0291	70
120.0352	117
122.0142	52
122.0404	49
123.0219	210
124.0182	218
125.0401	166
126.0337	228
127.055	36
128.0473	28
128.0601	15
131.0296	163
132.0354	85
132.0594	13
133.0448	504
134.0399	171
135.0485	91
137.0383	104
137.0593	13
138.0456	153
139.0543	130
140.0494	88
141.0147	10
142.021	10
143.0287	36
144.0241	62
144.037	145
144.0685	15
145.0324	13
145.0454	161
146.0192	20
146.0411	322
147.0205	20
147.0319	15
147.0465	54
148.0291	20
148.0553	65
149.0389	148
150.0437	210
151.0313	44
151.0536	153
152.0481	28
152.0622	101
153.0625	36
154.0393	70
154.0674	23
155.0279	54
156.036	59
157.0454	999
158.0413	671
159.048	33
159.0589	20
160.0554	23
161.0403	52
161.0585	15
162.0448	80
163.0537	325
164.0501	361
165.0605	124
166.0664	44
167.0298	49
167.0732	26
168.0372	382
168.0722	15
169.0452	322
170.0532	450
171.0386	161
171.0584	44
172.0312	23
172.0559	127
173.0373	28
173.0486	26
174.0389	80
175.0453	80
176.0511	67
177.0569	72
178.0661	62
178.0847	15
179.0351	23
179.0631	26
180.0378	28
180.047	13
180.0811	13
181.045	671
182.0474	507
183.0594	343
184.0566	949
184.0888	13
185.0635	457
186.0596	23
187.0424	15
188.0499	189
189.0565	140
189.0979	13
190.0649	127
191.0606	41
191.073	28
192.0359	72
192.0653	20
192.077	13
193.0376	72
194.0462	114
195.0491	267
196.056	127
197.0593	111
198.0722	150
199.043	85
200.0504	41
201.0458	20
202.0474	10
203.0574	13
205.0758	28
206.0399	57
207.048	91
208.0566	892
208.0843	26
209.0635	463
210.0609	267
211.0674	98
212.083	13
215.0621	31
216.0744	15
218.0392	10
219.0477	98
220.0561	18
221.0535	54
223.0668	80
224.0743	39
225.0832	20
233.05	20
234.0585	59
235.0665	41
236.0739	72
237.0838	46
238.0798	20
239.0595	23
247.0691	13
