Mass spectrum: Hydroxyatenolol; LC-ESI-QTOF; MS2; 70 V
Name: Hydroxyatenolol
Class: Pharmaceutical
Formula: C14H22N2O4
Exact mass: 282.158
SMILES: CC(C)NCC(COc1ccc(cc1)C(C(=O)N)O)O
InChI: InChI=1S/C14H22N2O4/c1-9(2)16-7-11(17)8-20-12-5-3-10(4-6-12)13(18)14(15)19/h3-6,9,11,13,16-18H,7-8H2,1-2H3,(H2,15,19)
Instrument: TripleTOF 5600 SCIEX
Instrument type: LC-ESI-QTOF
Ms type: MS2
Ion mode: POSITIVE
Collision energy: 70
Fragmentation mode: CID
Ionization: ESI
Column name: Zorbax Eclipse Plus C18 2.1 mm x 150 mm, 3.5 um, Agilent
Retention time: 3.214 min
Precursor m/z: 283.1652
Precursor type: [M+H]+
m/z	relative intensity
56.055	761
74.062	999
77.0405	951
79.0598	237
89.0509	237
95.0509	570
104.0492	285
105.0709	190
122.0581	428
