Mass spectrum: Nafcillin; LC-ESI-QTOF; MS2; 140 V
Name: Nafcillin
Class: Pharmaceutical
Formula: C21H22N2O5S
Exact mass: 414.1249
SMILES: CCOC1=C(C2=CC=CC=C2C=C1)C(=O)NC3C4N(C3=O)C(C(S4)(C)C)C(=O)O
InChI: InChI=1S/C21H22N2O5S/c1-4-28-13-10-9-11-7-5-6-8-12(11)14(13)17(24)22-15-18(25)23-16(20(26)27)21(2,3)29-19(15)23/h5-10,15-16,19H,4H2,1-3H3,(H,22,24)(H,26,27)
Instrument: TripleTOF 6600 SCIEX
Instrument type: LC-ESI-QTOF
Ms type: MS2
Ion mode: POSITIVE
Collision energy: 140
Fragmentation mode: CID
Ionization: ESI
Column name: Zorbax Eclipse Plus C18 2.1 mm x 150 mm, 3.5 um, Agilent
Retention time: 10.616 min
Precursor m/z: 415.1322
Precursor type: [M+H]+
m/z	relative intensity
37.007	10
39.0228	69
51.0226	21
61.0069	40
62.0144	95
63.0228	322
65.0382	258
74.0149	42
75.0226	63
77.0378	81
86.0142	22
87.022	40
88.03	48
89.038	773
101.0375	21
102.0465	11
113.0375	75
114.0452	112
115.0534	999
125.038	15
126.0458	80
127.053	95
128.0604	25
139.0535	30
140.0478	31
150.0465	13
151.0538	21
152.0607	65
153.0561	13
155.0583	17
164.0495	15
166.0633	10
