Mass spectrum: Triamterene; LC-ESI-QTOF; MS2; 60 V
Name: Triamterene
Class: Pharmaceutical
Formula: C12H11N7
Exact mass: 253.1076
SMILES: C1=CC=C(C=C1)C2=NC3=C(N=C2N)N=C(N=C3N)N
InChI: InChI=1S/C12H11N7/c13-9-7(6-4-2-1-3-5-6)16-8-10(14)18-12(15)19-11(8)17-9/h1-5H,(H6,13,14,15,17,18,19)
Instrument: TripleTOF 5600 SCIEX
Instrument type: LC-ESI-QTOF
Ms type: MS2
Ion mode: POSITIVE
Collision energy: 60
Fragmentation mode: CID
Ionization: ESI
Column name: Zorbax Eclipse Plus C18 2.1 mm x 150 mm, 3.5 um, Agilent
Retention time: 5.203 min
Precursor m/z: 254.1149
Precursor type: [M+H]+
m/z	relative intensity
43.0426	22
53.0225	12
55.0376	17
65.02	41
68.032	10
77.044	274
79.0597	40
80.0302	50
82.0444	23
89.0422	301
90.0133	13
90.0463	13
92.0279	148
102.0348	19
103.0433	76
104.0519	999
107.0371	23
114.0354	81
115.0432	27
116.0512	630
117.0594	34
128.0377	27
129.0473	57
131.0616	114
139.03	24
141.0462	974
142.0541	181
143.0622	173
153.0456	41
156.054	10
158.0691	12
166.0407	74
167.0497	11
168.0565	446
169.0648	24
183.0673	102
185.0861	27
193.0522	79
195.0667	179
210.078	96
212.0929	14
220.0622	31
237.0882	88
