Mass spectrum: Tolcapone; LC-ESI-QTOF; MS2; 90 V
Name: Tolcapone
Class: Pharmaceutical
Formula: C14H11NO5
Exact mass: 273.0637
SMILES: CC1=CC=C(C=C1)C(=O)C2=CC(=C(C(=C2)O)O)[N+](=O)[O-]
InChI: InChI=1S/C14H11NO5/c1-8-2-4-9(5-3-8)13(17)10-6-11(15(19)20)14(18)12(16)7-10/h2-7,16,18H,1H3
Instrument: TripleTOF 5600 SCIEX
Instrument type: LC-ESI-QTOF
Ms type: MS2
Ion mode: POSITIVE
Collision energy: 90
Fragmentation mode: CID
Ionization: ESI
Column name: Zorbax Eclipse Plus C18 2.1 mm x 150 mm, 3.5 um, Agilent
Retention time: 11.114 min
Precursor m/z: 274.071
Precursor type: [M+H]+
m/z	relative intensity
53.012	252
55.0248	42
65.0454	872
69.0038	252
79.024	283
91.057	904
108.0225	999
115.0567	84
119.0519	52
128.064	52
