Mass spectrum: Medroxyprogesterone; LC-ESI-QTOF; MS2; 60 V
Name: Medroxyprogesterone
Class: Pharmaceutical
Formula: C22H32O3
Exact mass: 344.2351
SMILES: CC1CC2C(CCC3(C2CCC3(C(=O)C)O)C)C4(C1=CC(=O)CC4)C
InChI: InChI=1S/C22H32O3/c1-13-11-16-17(20(3)8-5-15(24)12-19(13)20)6-9-21(4)18(16)7-10-22(21,25)14(2)23/h12-13,16-18,25H,5-11H2,1-4H3
Instrument: TripleTOF 6600 SCIEX
Instrument type: LC-ESI-QTOF
Ms type: MS2
Ion mode: POSITIVE
Collision energy: 60
Fragmentation mode: CID
Ionization: ESI
Column name: Zorbax Eclipse Plus C18 2.1 mm x 150 mm, 3.5 um, Agilent
Retention time: 12.524 min
Precursor m/z: 345.2424
Precursor type: [M+H]+
m/z	relative intensity
39.023	11
41.0386	28
43.0181	114
53.0386	11
55.0178	33
55.0544	53
65.0383	11
67.0542	182
69.0697	39
77.0386	92
79.0542	127
81.0334	15
81.0698	65
83.0488	67
91.054	134
93.0696	162
95.0492	37
95.0852	156
97.0648	584
103.0538	18
105.0696	181
107.049	15
107.085	51
108.0566	41
109.0645	38
109.1006	15
115.0543	17
116.0623	11
117.069	37
119.0853	96
121.0642	19
121.1006	20
123.0804	999
128.0625	25
129.0693	33
130.0769	17
131.0848	71
133.1008	53
135.081	12
137.0954	64
141.0699	18
142.0781	35
143.0857	46
144.0924	14
145.101	62
147.0805	11
147.1165	29
155.0853	32
156.0938	25
157.1005	29
159.116	30
161.097	13
161.1323	19
165.0697	11
167.0842	17
168.0941	13
169.1002	26
171.1166	16
173.1316	18
181.1006	15
182.109	11
183.1181	17
185.1331	12
195.1163	15
197.1315	21
199.1112	13
199.1491	11
211.1485	13
214.1354	25
