Mass spectrum: 2-Methyl-4`-(methylthio)-2-morpholinopropiophenone; LC-ESI-QTOF; MS2; 120 V
Name: 2-Methyl-4`-(methylthio)-2-morpholinopropiophenone
Class: Industrial_process
Formula: C15H21NO2S
Exact mass: 279.1293
SMILES: CC(C)(C(=O)C1=CC=C(C=C1)SC)N2CCOCC2
InChI: InChI=1S/C15H21NO2S/c1-15(2,16-8-10-18-11-9-16)14(17)12-4-6-13(19-3)7-5-12/h4-7H,8-11H2,1-3H3
Instrument: TripleTOF 6600 SCIEX
Instrument type: LC-ESI-QTOF
Ms type: MS2
Ion mode: POSITIVE
Collision energy: 120
Fragmentation mode: CID
Ionization: ESI
Column name: Zorbax Eclipse Plus C18 2.1 mm x 150 mm, 3.5 um, Agilent
Retention time: 7.548 min
Precursor m/z: 280.1366
Precursor type: [M+H]+
m/z	relative intensity
37.0074	53
38.0151	41
39.0232	251
41.0391	47
42.0338	50
44.0496	35
44.9789	62
49.0069	44
50.0153	239
51.0229	535
52.0303	59
56.0491	20
61.0069	32
62.0149	59
63.0227	221
65.0387	729
66.0463	17
67.9709	11
68.979	137
70.9936	11
74.0145	50
75.0224	74
76.0302	44
77.0385	801
78.046	146
81.9854	17
89.0381	254
90.0461	26
91.0539	999
92.9789	17
102.0452	89
103.0534	32
108.0016	23
109.0102	17
115.0538	738
116.062	29
117.0688	44
121.0096	332
122.0181	26
127.0536	11
128.0597	11
134.0168	47
