Mass spectrum: 4,4-Chlorophenoxyphenol; LC-ESI-QTOF; MS2; 60 V
Name: 4,4-Chlorophenoxyphenol
Class: Herbicide
Formula: C12H9ClO2
Exact mass: 220.0291
SMILES: c1cc(ccc1O)Oc2ccc(cc2)Cl
InChI: InChI=1S/C12H9ClO2/c13-9-1-5-11(6-2-9)15-12-7-3-10(14)4-8-12/h1-8,14H
Instrument: TripleTOF 5600 SCIEX
Instrument type: LC-ESI-QTOF
Ms type: MS2
Ion mode: POSITIVE
Collision energy: 60
Fragmentation mode: CID
Ionization: ESI
Column name: Zorbax Eclipse Plus C18 2.1 mm x 150 mm, 3.5 um, Agilent
Retention time: 12.354 min
Precursor m/z: 221.0364
Precursor type: [M+H]+
m/z	relative intensity
55.0604	169
65.0428	188
67.0566	169
72.9843	94
77.0405	584
79.0555	207
81.0366	188
81.071	94
89.04	94
91.0566	603
94.0416	207
95.052	75
99.0009	188
103.0536	169
105.0679	207
107.0513	131
113.0418	94
114.0462	75
115.055	245
117.0707	94
127.0542	94
128.0614	395
129.0702	113
131.052	75
139.0528	999
157.0671	131
168.0568	207
