Mass spectrum: Tris(4-methylphenyl) phosphate; LC-ESI-QTOF; MS2; 120 V
Name: Tris(4-methylphenyl) phosphate
Class: Industrial_process
Formula: C21H21O4P
Exact mass: 368.1177
SMILES: CC1=CC=C(C=C1)OP(=O)(OC2=CC=C(C=C2)C)OC3=CC=C(C=C3)C
InChI: InChI=1S/C21H21O4P/c1-16-4-10-19(11-5-16)23-26(22,24-20-12-6-17(2)7-13-20)25-21-14-8-18(3)9-15-21/h4-15H,1-3H3
Instrument: TripleTOF 6600 SCIEX
Instrument type: LC-ESI-QTOF
Ms type: MS2
Ion mode: POSITIVE
Collision energy: 120
Fragmentation mode: CID
Ionization: ESI
Column name: Zorbax Eclipse Plus C18 2.1 mm x 150 mm, 3.5 um, Agilent
Retention time: 15.924 min
Precursor m/z: 369.125
Precursor type: [M+H]+
m/z	relative intensity
35.9983	12
37.0065	66
38.0141	54
39.0224	427
41.0375	41
49.0059	10
50.0143	38
51.0219	101
59.9985	9
61.0063	38
62.014	80
63.0219	162
65.0379	733
74.0135	16
75.0222	10
77.0377	189
78.0449	17
79.0533	18
86.0139	11
87.022	25
89.0376	114
91.0533	103
102.0455	20
107.0479	24
113.0377	44
114.0448	10
115.0536	431
126.0457	40
127.0536	31
128.0619	40
137.0389	17
138.0463	21
139.0541	423
141.0694	17
150.0459	43
151.0542	103
152.0619	206
153.0702	13
161.0397	11
162.0461	41
163.0547	664
164.0623	692
165.0705	999
168.056	12
176.062	77
177.07	34
178.0773	51
179.061	17
181.0646	26
187.0557	11
189.0702	14
194.0732	50
195.0809	31
200.0643	12
213.0718	34
224.0634	23
225.0694	14
226.0787	27
237.0711	92
238.0795	36
239.0875	82
250.0796	31
252.0945	28
