Mass spectrum: Drometrizole; LC-ESI-QTOF; MS2; 130 V
Name: Drometrizole
Class: Industrial_process
Formula: C13H11N3O
Exact mass: 225.0902
SMILES: CC1=CC(=C(C=C1)O)N2N=C3C=CC=CC3=N2
InChI: InChI=1S/C13H11N3O/c1-9-6-7-13(17)12(8-9)16-14-10-4-2-3-5-11(10)15-16/h2-8,17H,1H3
Instrument: TripleTOF 5600 SCIEX
Instrument type: LC-ESI-QTOF
Ms type: MS2
Ion mode: POSITIVE
Collision energy: 130
Fragmentation mode: CID
Ionization: ESI
Column name: Zorbax Eclipse Plus C18 2.1 mm x 150 mm, 3.5 um, Agilent
Retention time: 15.201 min
Precursor m/z: 226.0975
Precursor type: [M+H]+
m/z	relative intensity
52.0275	384
53.0102	307
65.0451	307
74.0192	845
75.0274	384
76.0258	537
77.0448	999
78.0383	307
