Mass spectrum: Diazepam; LC-ESI-QTOF; MS2; 110 V
Name: Diazepam
Class: Pharmaceutical
Formula: C16H13ClN2O
Exact mass: 284.0716
SMILES: CN1C(=O)CN=C(C2=C1C=CC(=C2)Cl)C3=CC=CC=C3
InChI: InChI=1S/C16H13ClN2O/c1-19-14-8-7-12(17)9-13(14)16(18-10-15(19)20)11-5-3-2-4-6-11/h2-9H,10H2,1H3
Instrument: TripleTOF 6600 SCIEX
Instrument type: LC-ESI-QTOF
Ms type: MS2
Ion mode: POSITIVE
Collision energy: 110
Fragmentation mode: CID
Ionization: ESI
Column name: Zorbax Eclipse Plus C18 2.1 mm x 150 mm, 3.5 um, Agilent
Retention time: 11.181 min
Precursor m/z: 285.0789
Precursor type: [M+H]+
m/z	relative intensity
37.0068	45
38.0146	37
39.0227	163
48.9831	17
49.0064	13
50.0146	96
51.0227	241
59.9982	22
61.0064	101
61.9783	12
62.0144	183
63.0224	454
64.0172	10
64.0298	31
65.038	178
72.9832	160
73.0063	55
74.0144	268
75.0221	293
76.0174	33
76.0301	45
77.038	305
78.0328	17
78.0452	23
84.9825	26
85.0054	13
86.014	31
87.0212	50
88.0176	15
88.0301	43
89.0381	999
90.0457	113
91.0534	147
96.9834	17
98.0137	61
99.0087	290
100.0174	329
101.0373	30
102.033	29
102.0436	54
103.0417	12
104.0494	28
108.9824	17
109.9906	20
110.0139	12
110.9997	60
111.0221	12
113.0371	67
114.0342	41
115.0534	218
116.0494	91
117.0563	69
118.0627	35
122.9986	23
123.0207	19
124.0266	15
125.0381	64
126.0458	124
127.038	12
127.0541	62
128.0512	39
129.0441	15
135.9937	27
137.0363	46
138.0094	17
138.0436	27
139.0542	205
140.0494	63
142.0529	22
149.0374	90
150.0456	464
151.0532	526
152.0606	339
153.0612	55
161.0369	26
162.0458	87
163.0538	573
164.0008	14
164.0608	281
165.0695	266
166.0638	14
174.0467	25
175.0401	58
176.0546	148
177.0577	303
178.0644	274
179.0717	74
188.0481	44
189.0548	20
190.0642	89
191.072	34
202.0671	16
203.0605	36
204.0677	44
205.0751	76
212.0245	11
