Mass spectrum: Tritosulfuron; LC-ESI-QTOF; MS2; 80 V
Name: Tritosulfuron
Class: Herbicide
Formula: C13H9F6N5O4S
Exact mass: 445.0279
SMILES: COC1=NC(=NC(=N1)NC(=O)NS(=O)(=O)C2=CC=CC=C2C(F)(F)F)C(F)(F)F
InChI: InChI=1S/C13H9F6N5O4S/c1-28-11-21-8(13(17,18)19)20-9(23-11)22-10(25)24-29(26,27)7-5-3-2-4-6(7)12(14,15)16/h2-5H,1H3,(H2,20,21,22,23,24,25)
Instrument: TripleTOF 6600 SCIEX
Instrument type: LC-ESI-QTOF
Ms type: MS2
Ion mode: NEGATIVE
Collision energy: 80
Fragmentation mode: CID
Ionization: ESI
Column name: Zorbax Eclipse Plus C18 2.1 mm x 150 mm, 3.5 um, Agilent
Retention time: 12.261 min
Precursor m/z: 444.0207
Precursor type: [M-H]-
m/z	relative intensity
40.0064	36
41.0145	453
41.9984	158
55.0297	118
66.0092	999
68.9953	33
108.007	18
123.0304	340
135.006	60
136.013	505
136.997	31
161.0083	975
163.0241	15
178.013	25
179.0194	56
193.035	594
