Mass spectrum: Propranolol; LC-ESI-QTOF; MS2; 70 V
Name: Propranolol
Class: Pharmaceutical
Formula: C16H21NO2
Exact mass: 259.1572
SMILES: CC(C)NCC(O)COc1cccc2ccccc12
InChI: InChI=1S/C16H21NO2/c1-12(2)17-10-14(18)11-19-16-9-5-7-13-6-3-4-8-15(13)16/h3-9,12,14,17-18H,10-11H2,1-2H3
Instrument: TripleTOF 5600 SCIEX
Instrument type: LC-ESI-QTOF
Ms type: MS2
Ion mode: POSITIVE
Collision energy: 70
Fragmentation mode: CID
Ionization: ESI
Column name: Zorbax Eclipse Plus C18 2.1 mm x 150 mm, 3.5 um, Agilent
Retention time: 7.356 min
Precursor m/z: 260.1645
Precursor type: [M+H]+
m/z	relative intensity
56.0552	229
58.0704	165
65.0423	13
72.0837	38
74.0634	64
75.0252	13
77.0415	215
84.0834	16
89.0408	36
91.056	57
100.1124	36
101.039	38
102.0462	27
115.0547	475
116.0618	22
117.0694	25
126.0461	114
127.0548	999
128.0625	800
129.0696	110
139.0542	87
140.0616	19
141.0706	23
144.0552	9
151.0536	31
152.063	152
153.0699	192
154.0781	35
155.0595	54
155.0873	14
163.0571	21
164.0608	49
165.0703	116
168.0575	20
181.0669	10
