Mass spectrum: Thiamethoxam; LC-ESI-QTOF; MS2; 40 V
Name: Thiamethoxam
Class: Insecticide
Formula: C8H10ClN5O3S
Exact mass: 291.0193
SMILES: CN1COCN(Cc2sc(Cl)nc2)/C1=N/[N+]([O-])=O
InChI: InChI=1S/C8H10ClN5O3S/c1-12-4-17-5-13(8(12)11-14(15)16)3-6-2-10-7(9)18-6/h2H,3-5H2,1H3/b11-8+
Instrument: TripleTOF 5600 SCIEX
Instrument type: LC-ESI-QTOF
Ms type: MS2
Ion mode: POSITIVE
Collision energy: 40
Fragmentation mode: CID
Ionization: ESI
Column name: Zorbax Eclipse Plus C18 2.1 mm x 150 mm, 3.5 um, Agilent
Retention time: 6.188 min
Precursor m/z: 292.0266
Precursor type: [M+H]+
m/z	relative intensity
67.0465	29
69.0479	203
69.0704	18
70.9988	48
81.0459	25
82.9836	18
94.051	18
98.0078	40
99.0008	77
108.0553	166
112.0216	25
122.0709	284
122.0889	22
123.0807	51
125.0152	148
131.9669	925
132.9733	25
138.0112	55
139.032	22
147.0658	48
151.0193	136
152.0274	532
154.0452	40
172.9841	14
174.9714	48
180.0452	88
181.0545	999
211.0632	188
215.0161	22
