Mass spectrum: Pentoxifylline; LC-ESI-QTOF; MS2; 10 V
Name: Pentoxifylline
Class: Pharmaceutical
Formula: C13H18N4O3
Exact mass: 278.1379
SMILES: Cn1cnc2N(C)C(=O)N(CCCCC(C)=O)C(=O)c12
InChI: InChI=1S/C13H18N4O3/c1-9(18)6-4-5-7-17-12(19)10-11(14-8-15(10)2)16(3)13(17)20/h8H,4-7H2,1-3H3
Instrument: TripleTOF 5600 SCIEX
Instrument type: LC-ESI-QTOF
Ms type: MS2
Ion mode: POSITIVE
Collision energy: 10
Fragmentation mode: CID
Ionization: ESI
Column name: Zorbax Eclipse Plus C18 2.1 mm x 150 mm, 3.5 um, Agilent
Retention time: 6.772 min
Precursor m/z: 279.1452
Precursor type: [M+H]+
m/z	relative intensity
181.0728	45
279.1455	999
