Mass spectrum: Sudan I; LC-ESI-QTOF; MS2; 80 V
Name: Sudan I
Formula: C16H12N2O
Exact mass: 248.095
SMILES: C1=CC=C(C=C1)N=NC2=C(C=CC3=CC=CC=C32)O
InChI: InChI=1S/C16H12N2O/c19-15-11-10-12-6-4-5-9-14(12)16(15)18-17-13-7-2-1-3-8-13/h1-11,19H
Instrument: TripleTOF 6600 SCIEX
Instrument type: LC-ESI-QTOF
Ms type: MS2
Ion mode: POSITIVE
Collision energy: 80
Fragmentation mode: CID
Ionization: ESI
Column name: Zorbax Eclipse Plus C18 2.1 mm x 150 mm, 3.5 um, Agilent
Retention time: 15.674 min
Precursor m/z: 249.1023
Precursor type: [M+H]+
m/z	relative intensity
37.007	10
39.0231	75
40.0314	23
50.0155	40
51.0233	246
54.0339	43
65.0388	391
66.0464	695
67.0422	35
73.0069	13
74.0151	172
75.0229	781
76.0183	39
77.0384	381
78.0338	99
92.0494	432
93.0575	999
101.0388	156
102.033	86
127.0409	26
127.0523	40
128.0517	13
129.0452	66
130.0403	31
150.0464	14
151.0526	34
175.0569	12
176.0602	38
177.0625	22
201.059	13
202.0682	14
203.0753	21
204.0799	11
229.0761	32
231.0924	10
