Mass spectrum: Noramidopyrine; LC-ESI-QTOF; MS2; 40 V
Name: Noramidopyrine
Class: Pharmaceutical; Transformation_product-Metabolite
Formula: C12H15N3O
Exact mass: 217.1215
SMILES: CC1=C(C(=O)N(N1C)C2=CC=CC=C2)NC
InChI: InChI=1S/C12H15N3O/c1-9-11(13-2)12(16)15(14(9)3)10-7-5-4-6-8-10/h4-8,13H,1-3H3
Instrument: TripleTOF 6600 SCIEX
Instrument type: LC-ESI-QTOF
Ms type: MS2
Ion mode: POSITIVE
Collision energy: 40
Fragmentation mode: CID
Ionization: ESI
Column name: Zorbax Eclipse Plus C18 2.1 mm x 150 mm, 3.5 um, Agilent
Retention time: 4.819 min
Precursor m/z: 218.1288
Precursor type: [M+H]+
m/z	relative intensity
42.0341	18
44.0497	11
56.0502	999
58.0655	34
70.0653	53
83.0604	20
97.0762	17
