Mass spectrum: Sulfasalazine; LC-ESI-QTOF; MS2; 130 V
Name: Sulfasalazine
Class: Pharmaceutical
Formula: C18H14N4O5S
Exact mass: 398.0685
SMILES: C1=CC=NC(=C1)NS(=O)(=O)C2=CC=C(C=C2)NN=C3C=CC(=O)C(=C3)C(=O)O
InChI: InChI=1S/C18H14N4O5S/c23-16-9-6-13(11-15(16)18(24)25)21-20-12-4-7-14(8-5-12)28(26,27)22-17-3-1-2-10-19-17/h1-11,20H,(H,19,22)(H,24,25)
Instrument: TripleTOF 5600 SCIEX
Instrument type: LC-ESI-QTOF
Ms type: MS2
Ion mode: POSITIVE
Collision energy: 130
Fragmentation mode: CID
Ionization: ESI
Column name: Zorbax Eclipse Plus C18 2.1 mm x 150 mm, 3.5 um, Agilent
Retention time: 9.217 min
Precursor m/z: 399.0758
Precursor type: [M+H]+
m/z	relative intensity
41.0388	55
50.025	65
51.0306	27
53.045	23
61.0151	37
62.0228	88
63.0307	218
66.0415	23
67.0483	999
74.0192	18
75.0277	46
76.0371	46
77.0435	55
78.04	60
81.0376	88
89.0436	27
91.0227	125
93.0467	32
94.0562	148
95.0646	18
101.0407	23
102.0389	32
113.0421	37
114.0371	23
168.066	23
