Mass spectrum: Lisinopril; LC-ESI-QTOF; MS2; 40 V
Name: Lisinopril
Class: Pharmaceutical
Formula: C21H31N3O5
Exact mass: 405.2264
SMILES: c1ccc(cc1)CC[C@@H](C(=O)O)N[C@@H](CCCCN)C(=O)N2CCC[C@H]2C(=O)O
InChI: InChI=1S/C21H31N3O5/c22-13-5-4-9-16(19(25)24-14-6-10-18(24)21(28)29)23-17(20(26)27)12-11-15-7-2-1-3-8-15/h1-3,7-8,16-18,23H,4-6,9-14,22H2,(H,26,27)(H,28,29)/t16-,17-,18-/m0/s1
Instrument: TripleTOF 5600 SCIEX
Instrument type: LC-ESI-QTOF
Ms type: MS2
Ion mode: POSITIVE
Collision energy: 40
Fragmentation mode: CID
Ionization: ESI
Column name: Zorbax Eclipse Plus C18 2.1 mm x 150 mm, 3.5 um, Agilent
Retention time: 5.185 min
Precursor m/z: 406.2336
Precursor type: [M+H]+
m/z	relative intensity
56.0529	17
84.0833	999
116.0696	17
142.0864	44
200.1441	58
202.1594	11
218.1522	20
245.1642	35
246.1484	390
263.1747	20
309.1823	29
343.2052	20
406.2328	11
