Mass spectrum: 3-Hydroxyacetaminophen; LC-ESI-QTOF; MS2; 100 V
Name: 3-Hydroxyacetaminophen
Class: Pharmaceutical; Transformation_product
Formula: C8H9NO3
Exact mass: 167.0582
SMILES: CC(=O)Nc1ccc(O)c(O)c1
InChI: InChI=1S/C8H9NO3/c1-5(10)9-6-2-3-7(11)8(12)4-6/h2-4,11-12H,1H3,(H,9,10)
Instrument: TripleTOF 5600 SCIEX
Instrument type: LC-ESI-QTOF
Ms type: CID
Ion mode: POSITIVE
Collision energy: 100
Ionization: ESI
Column name: Zorbax Eclipse Plus C18 2.1 mm x 150 mm, 3.5 um, Agilent
Retention time: 4.471 min
Precursor m/z: 168.0655
Precursor type: [M+H]+
m/z	relative intensity
41.035	23
42.043	54
43.0282	999
43.0529	27
44.0199	29
52.0252	78
52.0356	72
53.0084	75
54.0396	182
55.0237	90
60.0036	12
65.0299	14
68.0166	14
78.0362	39
80.0524	207
