Mass spectrum: Terbutrynesulfoxide; LC-ESI-QTOF; MS2; 80 V
Name: Terbutrynesulfoxide
Class: Transformation_product; Herbicide; Pesticide; Transformation_product-Metabolite
Formula: C10H19N5OS
Exact mass: 257.131
SMILES: CCNC1=NC(=NC(=N1)S(=O)C)NC(C)(C)C
InChI: InChI=1S/C10H19N5OS/c1-6-11-7-12-8(15-10(2,3)4)14-9(13-7)17(5)16/h6H2,1-5H3,(H2,11,12,13,14,15)
Instrument: TripleTOF 5600 SCIEX
Instrument type: LC-ESI-QTOF
Ms type: MS2
Ion mode: POSITIVE
Collision energy: 80
Fragmentation mode: CID
Ionization: ESI
Column name: Zorbax Eclipse Plus C18 2.1 mm x 150 mm, 3.5 um, Agilent
Retention time: 8.816 min
Precursor m/z: 258.1383
Precursor type: [M+H]+
m/z	relative intensity
42.0417	10
43.0424	261
44.061	27
53.0233	11
55.0394	32
56.0463	28
57.9825	27
58.0756	10
59.0556	29
59.9974	10
67.0366	13
68.0319	999
69.0154	515
69.0378	94
69.0513	21
70.0464	79
71.0552	12
71.0671	50
71.9969	57
84.0606	14
84.9906	413
86.0397	69
94.0433	37
96.0598	47
97.0528	53
111.069	61
112.0655	75
121.0533	33
124.0637	23
138.0767	10
