Mass spectrum: Ethofumesate; LC-ESI-QTOF; MS2; 40 V
Name: Ethofumesate
Class: Herbicide
Formula: C13H18O5S
Exact mass: 286.0875
SMILES: CCOC1C(c2cc(ccc2O1)OS(=O)(=O)C)(C)C
InChI: InChI=1S/C13H18O5S/c1-5-16-12-13(2,3)10-8-9(18-19(4,14)15)6-7-11(10)17-12/h6-8,12H,5H2,1-4H3
Instrument: TripleTOF 6600 SCIEX
Instrument type: LC-ESI-QTOF
Ms type: MS2
Ion mode: POSITIVE
Collision energy: 40
Fragmentation mode: CID
Ionization: ESI
Column name: Zorbax Eclipse Plus C18 2.1 mm x 150 mm, 3.5 um, Agilent
Retention time: 12.56 min
Precursor m/z: 287.0948
Precursor type: [M+H]+
m/z	relative intensity
43.0173	124
53.0375	31
55.0177	62
77.0378	249
79.0536	156
81.0722	62
91.0536	343
93.0686	124
95.048	62
103.0541	468
105.0698	655
106.0782	31
107.0482	124
109.0278	31
109.0628	62
115.0529	249
116.0583	62
117.0714	62
119.049	62
121.064	999
123.0417	62
127.0567	31
133.0641	530
134.0718	218
135.08	62
137.06	312
145.0645	218
147.0431	156
149.0963	31
161.0589	280
162.067	249
179.0692	62
180.0753	31
