Mass spectrum: (1,2-Diphenylpropyl)-trimethyl-ammonium; LC-ESI-QTOF; MS2; 130 V
Name: (1,2-Diphenylpropyl)-trimethyl-ammonium
Formula: [C18H24N]+
Exact mass: 254.1903
SMILES: CC(c1ccccc1)C(c2ccccc2)[N+](C)(C)C
InChI: InChI=1S/C18H24N/c1-15(16-11-7-5-8-12-16)18(19(2,3)4)17-13-9-6-10-14-17/h5-15,18H,1-4H3/q+1
Instrument: TripleTOF 5600 SCIEX
Instrument type: LC-ESI-QTOF
Ms type: MS2
Ion mode: POSITIVE
Collision energy: 130
Fragmentation mode: CID
Ionization: ESI
Column name: Zorbax Eclipse Plus C18 2.1 mm x 150 mm, 3.5 um, Agilent
Retention time: 7.228 min
Precursor m/z: 254.1903
Precursor type: [M]+
m/z	relative intensity
51.0286	276
58.0696	48
65.0413	999
74.0166	89
75.0259	73
77.0406	186
86.0155	81
87.0253	73
89.0387	300
91.0539	454
102.0457	73
115.0532	259
118.0646	48
126.0442	56
150.0464	121
151.0554	113
163.0517	162
