Mass spectrum: Sulfamethazine; LC-ESI-QTOF; MS2; 70 V
Name: Sulfamethazine
Class: Antimicrobial; Pharmaceutical
Formula: C12H14N4O2S
Exact mass: 278.0837
SMILES: CC1=CC(=NC(=N1)NS(=O)(=O)C2=CC=C(C=C2)N)C
InChI: InChI=1S/C12H14N4O2S/c1-8-7-9(2)15-12(14-8)16-19(17,18)11-5-3-10(13)4-6-11/h3-7H,13H2,1-2H3,(H,14,15,16)
Instrument: TripleTOF 5600 SCIEX
Instrument type: LC-ESI-QTOF
Ms type: MS2
Ion mode: POSITIVE
Collision energy: 70
Fragmentation mode: CID
Ionization: ESI
Column name: Zorbax Eclipse Plus C18 2.1 mm x 150 mm, 3.5 um, Agilent
Retention time: 6.115 min
Precursor m/z: 279.091
Precursor type: [M+H]+
m/z	relative intensity
42.0483	39
54.0425	24
65.0471	999
66.0421	130
67.0369	171
68.058	21
77.0438	10
78.0398	16
80.0558	550
81.0505	11
82.0712	91
83.0674	21
92.0545	508
93.0623	57
95.0653	142
96.0724	57
105.0473	12
107.0645	256
108.0485	453
123.0847	13
124.0901	342
154.0683	12
197.0863	17
