Mass spectrum: Olmesartan-d6; LC-ESI-QTOF; MS2; 40 V
Name: Olmesartan-d6
Class: Surrogate_standard
Formula: C24H20N6O3 2H6
Exact mass: 452.2443
SMILES: [2H]C([2H])([2H])C(C1=C(N(C(=N1)CCC)CC2=CC=C(C=C2)C3=CC=CC=C3C4=NNN=N4)C(=O)O)(C([2H])([2H])[2H])O
InChI: InChI=1S/C24H26N6O3/c1-4-7-19-25-21(24(2,3)33)20(23(31)32)30(19)14-15-10-12-16(13-11-15)17-8-5-6-9-18(17)22-26-28-29-27-22/h5-6,8-13,33H,4,7,14H2,1-3H3,(H,31,32)(H,26,27,28,29)/i2D3,3D3
Instrument: TripleTOF 5600 SCIEX
Instrument type: LC-ESI-QTOF
Ms type: CID
Ion mode: POSITIVE
Collision energy: 40
Ionization: ESI
Column name: Zorbax Eclipse Plus C18 2.1 mm x 150 mm, 3.5 um, Agilent
Retention time: 7.306 min
Precursor m/z: 453.2527
Precursor type: [M+H]+
m/z	relative intensity
140.0496	11
152.0649	10
153.071	49
163.0553	14
167.0766	11
178.0777	175
179.0852	71
180.0821	228
181.0869	34
182.1336	89
183.1405	82
190.0659	229
191.0735	74
192.0729	78
201.1514	56
205.0765	32
206.0834	131
207.0918	999
208.0979	638
209.104	23
235.0984	173
236.1045	42
