Mass spectrum: Citalopram; LC-ESI-QTOF; MS2; 40 V
Name: Citalopram
Class: Pharmaceutical
Formula: C20H21FN2O
Exact mass: 324.1638
SMILES: CN(C)CCCC1(OCc2cc(ccc12)C#N)c3ccc(F)cc3
InChI: InChI=1S/C20H21FN2O/c1-23(2)11-3-10-20(17-5-7-18(21)8-6-17)19-9-4-15(13-22)12-16(19)14-24-20/h4-9,12H,3,10-11,14H2,1-2H3
Instrument: TripleTOF 5600 SCIEX
Instrument type: LC-ESI-QTOF
Ms type: MS2
Ion mode: POSITIVE
Collision energy: 40
Fragmentation mode: CID
Ionization: ESI
Column name: Zorbax Eclipse Plus C18 2.1 mm x 150 mm, 3.5 um, Agilent
Retention time: 7.757 min
Precursor m/z: 325.1711
Precursor type: [M+H]+
m/z	relative intensity
58.0708	49
83.0314	23
84.0834	14
89.0406	10
109.0461	999
116.0504	186
121.0452	13
123.0245	14
129.0701	18
130.0646	10
140.0492	29
142.065	10
144.0447	13
154.0653	13
156.0808	42
166.0657	143
202.0754	10
215.0854	55
218.0593	26
220.0675	51
221.0641	134
222.0714	70
227.0732	141
233.0755	36
234.0721	472
235.0898	70
236.0869	25
238.0666	46
240.0802	38
241.0888	41
242.0965	86
245.0749	19
246.0719	92
247.0796	330
250.1025	45
260.0875	34
261.0949	45
262.1032	305
307.1616	21
325.1711	35
