Mass spectrum: Cyclohexyldiethanolamine; LC-ESI-QTOF; MS2; 80 V
Name: Cyclohexyldiethanolamine
Formula: C10H21NO2
Exact mass: 187.1572
SMILES: C1CCC(CC1)N(CCO)CCO
InChI: InChI=1S/C10H21NO2/c12-8-6-11(7-9-13)10-4-2-1-3-5-10/h10,12-13H,1-9H2
Instrument: TripleTOF 6600 SCIEX
Instrument type: LC-ESI-QTOF
Ms type: MS2
Ion mode: POSITIVE
Collision energy: 80
Fragmentation mode: CID
Ionization: ESI
Column name: Zorbax Eclipse Plus C18 2.1 mm x 150 mm, 3.5 um, Agilent
Retention time: 4.323 min
Precursor m/z: 188.1645
Precursor type: [M+H]+
m/z	relative intensity
37.0067	163
38.0013	40
38.0143	139
39.0228	999
41.0383	425
42.0341	139
43.0182	40
44.049	180
45.0327	155
53.0385	114
55.0538	302
