Mass spectrum: 2,4-Dihydroxybenzophenone; LC-ESI-QTOF; MS2; 100 V
Name: 2,4-Dihydroxybenzophenone
Class: Personal_care_product
Formula: C13H10O3
Exact mass: 214.063
SMILES: Oc1ccc(c(O)c1)C(=O)c2ccccc2
InChI: InChI=1S/C13H10O3/c14-10-6-7-11(12(15)8-10)13(16)9-4-2-1-3-5-9/h1-8,14-15H
Instrument: TripleTOF 5600 SCIEX
Instrument type: LC-ESI-QTOF
Ms type: MS2
Ion mode: POSITIVE
Collision energy: 100
Fragmentation mode: CID
Ionization: ESI
Column name: Zorbax Eclipse Plus C18 2.1 mm x 150 mm, 3.5 um, Agilent
Retention time: 10.97 min
Precursor m/z: 215.0703
Precursor type: [M+H]+
m/z	relative intensity
41.0121	175
52.0338	87
53.0067	105
53.0441	157
69.0005	788
74.0193	87
75.0237	105
77.0407	999
77.0641	70
78.0449	70
81.0355	122
89.0396	87
98.0157	105
139.0524	70
