Mass spectrum: Eprosartan; LC-ESI-QTOF; MS2; 40 V
Name: Eprosartan
Class: Pharmaceutical
Formula: C23H24N2O4S
Exact mass: 424.1457
SMILES: CCCCc1ncc(\C=C(/Cc2sccc2)C(O)=O)n1Cc3ccc(cc3)C(O)=O
InChI: InChI=1S/C23H24N2O4S/c1-2-3-6-21-24-14-19(12-18(23(28)29)13-20-5-4-11-30-20)25(21)15-16-7-9-17(10-8-16)22(26)27/h4-5,7-12,14H,2-3,6,13,15H2,1H3,(H,26,27)(H,28,29)/b18-12+
Instrument: TripleTOF 5600 SCIEX
Instrument type: LC-ESI-QTOF
Ms type: MS2
Ion mode: NEGATIVE
Collision energy: 40
Fragmentation mode: CID
Ionization: ESI
Column name: Zorbax Eclipse Plus C18 2.1 mm x 150 mm, 3.5 um, Agilent
Retention time: 6.955 min
Precursor m/z: 423.1384
Precursor type: [M-H]-
m/z	relative intensity
82.9931	51
91.0592	51
97.0111	298
121.0282	90
135.0437	155
167.0603	64
180.0709	90
199.0579	220
201.0494	64
208.0983	64
215.0637	402
237.1407	337
238.1457	103
244.1022	648
245.1089	168
257.1051	77
281.1281	389
301.1628	90
335.1582	415
379.1483	999
405.1303	64
423.1383	259
