Mass spectrum: Azoxystrobin; LC-ESI-QTOF; MS2; 130 V
Name: Azoxystrobin
Class: Fungicide
Formula: C22H17N3O5
Exact mass: 403.1168
SMILES: COC=C(C1=CC=CC=C1OC2=NC=NC(=C2)OC3=CC=CC=C3C#N)C(=O)OC
InChI: InChI=1S/C22H17N3O5/c1-27-13-17(22(26)28-2)16-8-4-6-10-19(16)30-21-11-20(24-14-25-21)29-18-9-5-3-7-15(18)12-23/h3-11,13-14H,1-2H3
Instrument: TripleTOF 6600 SCIEX
Instrument type: LC-ESI-QTOF
Ms type: MS2
Ion mode: POSITIVE
Collision energy: 130
Fragmentation mode: CID
Ionization: ESI
Column name: Zorbax Eclipse Plus C18 2.1 mm x 150 mm, 3.5 um, Agilent
Retention time: 12.114 min
Precursor m/z: 404.1241
Precursor type: [M+H]+
m/z	relative intensity
37.0063	14
39.0218	55
49.0057	50
50.0139	293
51.0219	825
52.0168	57
52.0291	19
53.0011	55
61.0059	26
62.0135	86
63.0214	308
64.0171	24
64.0289	19
65.0372	142
68.0108	16
68.9954	57
73.0053	19
74.0133	219
75.0215	613
76.017	154
76.0286	173
77.0372	999
78.0326	14
78.0443	55
86.0131	12
87.0222	28
88.0165	36
88.0286	43
89.037	804
90.0322	28
90.0438	24
91.0397	62
91.052	12
92.024	16
92.0476	12
93.0323	21
99.0197	21
100.0163	26
100.0292	38
101.0362	91
102.0325	305
103.0396	33
103.0514	9
104.0244	26
104.0473	132
105.0312	31
105.0408	16
113.036	24
114.0318	91
115.0404	28
115.0518	12
116.0474	137
118.026	12
120.0423	26
126.0321	12
127.04	48
128.0473	33
129.0422	60
130.038	166
140.0466	24
144.0423	154
150.0437	19
151.0532	19
154.0379	12
156.0423	19
162.0449	9
163.0514	40
164.0465	24
172.0373	48
175.0458	14
176.0593	16
177.0566	16
187.0527	12
188.0469	33
189.0569	26
190.0619	40
191.0657	14
201.0551	12
214.0608	14
215.059	28
216.0685	12
