Mass spectrum: 3-Methyl-4-(methylthio)phenol; LC-ESI-QTOF; MS2; 40 V
Name: 3-Methyl-4-(methylthio)phenol
Class: Industrial_process
Formula: C8H10OS
Exact mass: 154.0452
SMILES: CC1=C(C=CC(=C1)O)SC
InChI: InChI=1S/C8H10OS/c1-6-5-7(9)3-4-8(6)10-2/h3-5,9H,1-2H3
Instrument: TripleTOF 6600 SCIEX
Instrument type: LC-ESI-QTOF
Ms type: MS2
Ion mode: POSITIVE
Collision energy: 40
Fragmentation mode: CID
Ionization: ESI
Column name: Zorbax Eclipse Plus C18 2.1 mm x 150 mm, 3.5 um, Agilent
Retention time: 9.802 min
Precursor m/z: 155.0525
Precursor type: [M+H]+
m/z	relative intensity
39.024	37
44.9799	67
51.0236	112
53.04	30
77.0392	999
78.0472	30
79.055	383
80.0635	52
89.0375	60
90.0481	90
97.0103	112
105.0447	37
107.0496	871
108.0577	165
111.0263	52
