Mass spectrum: Bentazone; LC-ESI-QTOF; MS2; 40 V
Name: Bentazone
Class: Herbicide
Formula: C10H12N2O3S
Exact mass: 240.0569
SMILES: CC(C)N1C(=O)c2ccccc2NS1(=O)=O
InChI: InChI=1S/C10H12N2O3S/c1-7(2)12-10(13)8-5-3-4-6-9(8)11-16(12,14)15/h3-7,11H,1-2H3
Instrument: TripleTOF 6600 SCIEX
Instrument type: LC-ESI-QTOF
Ms type: MS2
Ion mode: POSITIVE
Collision energy: 40
Fragmentation mode: CID
Ionization: ESI
Column name: Zorbax Eclipse Plus C18 2.1 mm x 150 mm, 3.5 um, Agilent
Retention time: 9.867 min
Precursor m/z: 241.0642
Precursor type: [M+H]+
m/z	relative intensity
53.0381	14
65.0383	67
80.0495	522
90.033	67
92.0492	191
107.0602	999
120.0436	279
135.0549	131
137.9999	31
181.9893	22
199.016	35
