Mass spectrum: Warfarin; LC-ESI-QTOF; MS2; 120 V
Name: Warfarin
Class: Pesticide; Biocide; Rodenticide
Formula: C19H16O4
Exact mass: 308.1049
SMILES: CC(=O)CC(C1=CC=CC=C1)C2=C(C3=CC=CC=C3OC2=O)O
InChI: InChI=1S/C19H16O4/c1-12(20)11-15(13-7-3-2-4-8-13)17-18(21)14-9-5-6-10-16(14)23-19(17)22/h2-10,15,21H,11H2,1H3
Instrument: TripleTOF 6600 SCIEX
Instrument type: LC-ESI-QTOF
Ms type: MS2
Ion mode: POSITIVE
Collision energy: 120
Fragmentation mode: CID
Ionization: ESI
Column name: Zorbax Eclipse Plus C18 2.1 mm x 150 mm, 3.5 um, Agilent
Retention time: 11.631 min
Precursor m/z: 309.1122
Precursor type: [M+H]+
m/z	relative intensity
35.9997	33
37.0073	190
38.0156	203
39.0231	999
41.0018	20
43.0179	277
49.0072	23
50.0149	280
51.0229	801
53.0026	96
61.0065	50
62.0144	56
63.0228	106
65.0384	534
68.9963	76
73.0058	23
74.0141	190
75.0225	197
76.0294	76
77.0379	648
78.0458	23
86.0117	16
87.0227	23
89.038	103
91.0541	26
93.0332	26
95.0505	13
98.0146	33
99.0229	23
100.0278	23
101.0397	26
102.0459	100
103.0531	30
113.0373	20
115.0536	90
122.0147	16
125.0382	30
126.0456	86
127.0537	53
128.0612	50
139.0529	63
149.0372	33
150.0451	267
151.0536	210
152.0616	110
163.0532	130
164.0607	80
165.0704	126
174.0432	50
175.0542	56
176.0615	180
179.0606	23
187.0581	13
