Mass spectrum: Isorhamnetin; LC-ESI-QTOF; MS2; 40 V
Name: Isorhamnetin
Class: Pharmaceutical; Metabolite
Formula: C16H12O7
Exact mass: 316.0583
SMILES: COc1cc(ccc1O)C2=C(O)C(=O)c3c(O)cc(O)cc3O2
InChI: InChI=1S/C16H12O7/c1-22-11-4-7(2-3-9(11)18)16-15(21)14(20)13-10(19)5-8(17)6-12(13)23-16/h2-6,17-19,21H,1H3
Instrument: TripleTOF 5600 SCIEX
Instrument type: LC-ESI-QTOF
Ms type: MS2
Ion mode: POSITIVE
Collision energy: 40
Fragmentation mode: CID
Ionization: ESI
Column name: Zorbax Eclipse Plus C18 2.1 mm x 150 mm, 3.5 um, Agilent
Retention time: 9.418 min
Precursor m/z: 317.0656
Precursor type: [M+H]+
m/z	relative intensity
92.0269	69
93.0349	41
121.0275	50
126.0293	41
151.0379	41
153.0172	605
165.0136	60
171.0393	23
173.0614	23
173.0789	18
177.0522	27
179.0417	18
183.0475	18
192.0383	18
200.044	32
201.0525	60
203.0346	50
204.0383	32
217.049	115
218.0551	64
219.0231	23
228.0401	157
229.0491	393
231.0307	64
232.0312	18
245.0441	212
246.0492	259
256.0347	41
257.0422	189
259.0232	18
260.0302	50
273.0379	203
273.0697	23
274.0456	471
284.0283	64
285.0381	337
287.0232	37
301.0314	23
301.0499	18
302.0413	999
317.0659	425
