Mass spectrum: Topramezone; LC-ESI-QTOF; MS2; 70 V
Name: Topramezone
Class: Herbicide
Formula: C16H17N3O5S
Exact mass: 363.0889
SMILES: CC1=C(C=CC(=C1C2=NOCC2)S(=O)(=O)C)C(=O)C3=CNN(C3=O)C
InChI: InChI=1S/C16H17N3O5S/c1-9-10(15(20)11-8-17-19(2)16(11)21)4-5-13(25(3,22)23)14(9)12-6-7-24-18-12/h4-5,8,17H,6-7H2,1-3H3
Instrument: TripleTOF 6600 SCIEX
Instrument type: LC-ESI-QTOF
Ms type: CID
Ion mode: NEGATIVE
Collision energy: 70
Ionization: ESI
Column name: Zorbax Eclipse Plus C18 2.1 mm x 150 mm, 3.5 um, Agilent
Retention time: 6.915 min
Precursor m/z: 362.0816
Precursor type: [M-H]-
m/z	relative intensity
41.9977	166
63.9605	621
65.9965	121
78.9838	569
82.0174	326
97.0397	467
101.0408	57
102.0322	44
114.0346	128
115.0423	999
116.0526	294
121.0091	38
128.0489	89
129.0578	128
130.0655	371
131.0395	390
132.06	25
137.01	32
139.0394	38
140.0516	70
145.0518	38
151.0206	32
153.0426	25
155.0229	25
156.0383	70
158.0611	57
163.0245	64
166.035	44
167.0472	25
168.0439	51
170.0237	44
179.0071	102
179.0218	64
180.0248	32
181.0306	25
182.022	51
182.0354	38
182.0595	32
183.0374	44
194.0204	32
209.0415	32
223.0406	44
225.0693	38
226.0653	51
237.0449	44
238.0461	44
238.065	70
239.07	64
