Mass spectrum: Amido Black 10B; LC-ESI-QTOF; MS2; 40 V
Name: Amido Black 10B
Formula: C22H16N6O9S2
Exact mass: 572.042
SMILES: C1=CC=C(C=C1)N=NC2=C(C3=C(C(=C(C=C3C=C2S(=O)(=O)O)S(=O)(=O)O)N=NC4=CC=C(C=C4)[N+](=O)[O-])N)O
InChI: InChI=1S/C22H16N6O9S2/c23-19-18-12(11-17(39(35,36)37)21(22(18)29)27-24-13-4-2-1-3-5-13)10-16(38(32,33)34)20(19)26-25-14-6-8-15(9-7-14)28(30)31/h1-11,29H,23H2,(H,32,33,34)(H,35,36,37)
Instrument: TripleTOF 6600 SCIEX
Instrument type: LC-ESI-QTOF
Ms type: MS2
Ion mode: POSITIVE
Collision energy: 40
Fragmentation mode: CID
Ionization: ESI
Column name: Zorbax Eclipse Plus C18 2.1 mm x 150 mm, 3.5 um, Agilent
Retention time: 9.552 min
Precursor m/z: 573.0493
Precursor type: [M+H]+
m/z	relative intensity
65.0379	56
77.0389	10
92.0489	793
93.0571	999
108.0446	49
122.0234	33
150.0288	171
201.028	56
205.0759	13
232.0855	36
233.076	10
259.0699	11
260.0809	92
261.0891	44
271.0561	10
272.0699	15
276.1013	29
277.0023	81
287.0566	15
289.0674	11
292.0951	23
301.0586	87
306.0751	57
316.0463	43
317.0543	431
318.0631	30
334.0587	28
334.0913	13
335.0656	19
335.1035	34
336.1082	16
340.0364	17
341.0476	167
346.1067	17
347.12	41
355.0496	67
362.1055	72
363.1119	126
364.1176	101
365.1249	28
366.0282	38
370.0386	51
381.1196	35
382.0255	369
386.0015	23
387.0388	22
391.0953	76
392.1004	73
398.0199	849
399.0272	355
400.0359	133
402.9811	247
408.0972	18
409.1032	80
410.1143	74
411.1213	71
416.0603	14
426.0655	84
427.1088	305
428.0582	12
429.9911	86
444.0756	276
445.084	227
448.0029	273
450.9992	116
456.0632	117
473.065	167
474.0732	86
479.9914	46
490.0683	78
491.076	150
492.0559	13
492.0874	16
537.0284	39
555.0388	976
573.0472	666
