Mass spectrum: Tiapride; LC-ESI-QTOF; MS2; 80 V
Name: Tiapride
Class: Pharmaceutical
Formula: C15H24N2O4S
Exact mass: 328.1457
SMILES: CCN(CC)CCNC(=O)C1=C(C=CC(=C1)S(=O)(=O)C)OC
InChI: InChI=1S/C15H24N2O4S/c1-5-17(6-2)10-9-16-15(18)13-11-12(22(4,19)20)7-8-14(13)21-3/h7-8,11H,5-6,9-10H2,1-4H3,(H,16,18)
Instrument: TripleTOF 5600 SCIEX
Instrument type: LC-ESI-QTOF
Ms type: MS2
Ion mode: POSITIVE
Collision energy: 80
Fragmentation mode: CID
Ionization: ESI
Column name: Zorbax Eclipse Plus C18 2.1 mm x 150 mm, 3.5 um, Agilent
Retention time: 4.856 min
Precursor m/z: 329.153
Precursor type: [M+H]+
m/z	relative intensity
44.0604	35
45.0446	30
64.0359	11
65.0458	118
66.0526	14
72.086	26
75.0276	21
76.0357	648
77.0436	379
78.0513	787
78.99	11
79.0223	59
79.055	152
81.0369	22
84.0051	14
89.0429	13
90.0363	76
91.0205	170
91.0576	26
92.0284	32
93.0365	22
94.0431	31
97.012	13
100.1149	22
103.043	73
104.0513	492
105.0347	249
105.058	174
106.041	103
106.0662	70
107.0135	115
107.05	34
109.0116	42
109.0277	14
110.0205	32
116.0495	15
117.0579	31
118.03	44
119.0136	189
122.0384	14
122.9924	13
132.045	98
133.0284	22
133.0527	481
134.0369	999
135.0078	38
148.078	15
154.9798	78
155.0173	15
162.0552	217
177.0788	170
178.0492	89
181.9913	14
182.9742	15
183.0253	10
185.0285	15
213.0198	93
