Mass spectrum: Opipramol; LC-ESI-QTOF; MS2; 60 V
Name: Opipramol
Class: Pharmaceutical
Formula: C23H29N3O
Exact mass: 363.2311
SMILES: OCCN1CCN(CCCN2c3ccccc3C=Cc4ccccc24)CC1
InChI: InChI=1S/C23H29N3O/c27-19-18-25-16-14-24(15-17-25)12-5-13-26-22-8-3-1-6-20(22)10-11-21-7-2-4-9-23(21)26/h1-4,6-11,27H,5,12-19H2
Instrument: TripleTOF 5600 SCIEX
Instrument type: LC-ESI-QTOF
Ms type: MS2
Ion mode: POSITIVE
Collision energy: 60
Fragmentation mode: CID
Ionization: ESI
Column name: Zorbax Eclipse Plus C18 2.1 mm x 150 mm, 3.5 um, Agilent
Retention time: 7.242 min
Precursor m/z: 364.2383
Precursor type: [M+H]+
m/z	relative intensity
42.042	42
45.0399	20
56.0553	43
58.0688	42
70.0693	716
72.0471	17
72.0844	17
82.0681	26
83.0632	29
84.083	30
86.0619	18
97.077	136
98.0852	752
99.0934	14
100.0768	999
101.0402	11
112.0998	30
113.1073	45
128.0502	71
128.0942	117
141.1017	13
143.1181	832
152.0614	11
167.0734	10
171.1494	187
176.0609	13
177.0698	17
178.078	409
179.0859	247
180.0804	30
190.0659	18
191.0732	49
192.0803	24
193.0896	106
203.0712	10
204.0813	301
205.0883	139
206.0965	771
218.0953	23
234.1262	16
