Mass spectrum: Godecke; LC-ESI-QTOF; MS2; 40 V
Name: Godecke
Class: Transformation_product; Pharmaceutical
Formula: C9H14O2
Exact mass: 154.0994
SMILES: C1CCC2(CC1)CC(=O)OC2
InChI: InChI=1S/C9H14O2/c10-8-6-9(7-11-8)4-2-1-3-5-9/h1-7H2
Instrument: TripleTOF 5600 SCIEX
Instrument type: LC-ESI-QTOF
Ms type: MS2
Ion mode: POSITIVE
Collision energy: 40
Fragmentation mode: CID
Ionization: ESI
Column name: Zorbax Eclipse Plus C18 2.1 mm x 150 mm, 3.5 um, Agilent
Retention time: 9.655 min
Precursor m/z: 155.1067
Precursor type: [M+H]+
m/z	relative intensity
55.0531	191
65.0376	148
67.0536	999
77.0385	276
79.0531	106
91.0534	510
93.0689	297
95.0848	850
