Mass spectrum: Formononetin; LC-ESI-QTOF; MS2; 90 V
Name: Formononetin
Class: Metabolite; Metabolite; Pharmaceutical
Formula: C16H12O4
Exact mass: 268.0736
SMILES: COc1ccc(cc1)C2=COc3cc(O)ccc3C2=O
InChI: InChI=1S/C16H12O4/c1-19-12-5-2-10(3-6-12)14-9-20-15-8-11(17)4-7-13(15)16(14)18/h2-9,17H,1H3
Instrument: TripleTOF 5600 SCIEX
Instrument type: LC-ESI-QTOF
Ms type: MS2
Ion mode: NEGATIVE
Collision energy: 90
Fragmentation mode: CID
Ionization: ESI
Column name: Zorbax Eclipse Plus C18 2.1 mm x 150 mm, 3.5 um, Agilent
Retention time: 10.093 min
Precursor m/z: 267.0663
Precursor type: [M-H]-
m/z	relative intensity
41.0032	686
65.0025	768
88.0313	65
91.0187	828
104.026	65
113.0399	60
117.0335	76
139.0553	137
141.0346	159
167.051	999
178.045	65
195.0456	312
