Mass spectrum: Olmesartan-d6; LC-ESI-QTOF; MS2; 50 V
Name: Olmesartan-d6
Class: Surrogate_standard
Formula: C24H20N6O3 2H6
Exact mass: 452.2443
SMILES: [2H]C([2H])([2H])C(C1=C(N(C(=N1)CCC)CC2=CC=C(C=C2)C3=CC=CC=C3C4=NNN=N4)C(=O)O)(C([2H])([2H])[2H])O
InChI: InChI=1S/C24H26N6O3/c1-4-7-19-25-21(24(2,3)33)20(23(31)32)30(19)14-15-10-12-16(13-11-15)17-8-5-6-9-18(17)22-26-28-29-27-22/h5-6,8-13,33H,4,7,14H2,1-3H3,(H,31,32)(H,26,27,28,29)/i2D3,3D3
Instrument: TripleTOF 5600 SCIEX
Instrument type: LC-ESI-QTOF
Ms type: MS2
Ion mode: POSITIVE
Collision energy: 50
Fragmentation mode: CID
Ionization: ESI
Column name: Zorbax Eclipse Plus C18 2.1 mm x 150 mm, 3.5 um, Agilent
Retention time: 7.306 min
Precursor m/z: 453.2527
Precursor type: [M+H]+
m/z	relative intensity
140.0503	23
151.0565	10
152.0632	38
153.0701	101
154.076	14
163.0549	30
165.0703	15
166.067	11
167.0737	19
178.0772	291
179.0821	90
180.0813	366
181.0878	57
182.1333	97
183.1404	87
190.0651	393
191.073	187
192.0713	157
193.0751	15
201.1491	14
205.0756	95
206.0843	228
207.0911	999
208.0978	468
209.1037	17
235.0979	27
