Mass spectrum: Norethynodrel; LC-ESI-QTOF; MS2; 140 V
Name: Norethynodrel
Class: Pharmaceutical
Formula: C20H26O2
Exact mass: 298.1933
SMILES: C[C@]12CC[C@H]3[C@@H](CCC4=C3CCC(=O)C4)[C@@H]1CC[C@@]2(O)C#C
InChI: InChI=1S/C20H26O2/c1-3-20(22)11-9-18-17-6-4-13-12-14(21)5-7-15(13)16(17)8-10-19(18,20)2/h1,16-18,22H,4-12H2,2H3/t16-,17-,18+,19+,20+/m1/s1
Instrument: TripleTOF 5600 SCIEX
Instrument type: LC-ESI-QTOF
Ms type: MS2
Ion mode: POSITIVE
Collision energy: 140
Fragmentation mode: CID
Ionization: ESI
Column name: Zorbax Eclipse Plus C18 2.1 mm x 150 mm, 3.5 um, Agilent
Retention time: 11.133 min
Precursor m/z: 299.2006
Precursor type: [M+H]+
m/z	relative intensity
43.0315	17
53.0072	35
53.0438	84
55.0223	24
55.0585	35
65.043	571
66.0496	28
67.0587	35
74.0176	63
75.0253	67
76.0334	52
77.0413	999
78.0478	144
79.0559	176
83.0512	63
86.0161	17
87.0248	21
89.0395	190
91.0558	321
94.0421	17
102.0463	158
103.0539	28
105.0673	14
113.0399	14
114.0499	14
115.0529	522
126.0454	70
127.0527	169
128.0618	201
139.053	35
141.0678	21
150.0458	52
151.0534	60
152.0612	91
153.0724	14
163.0535	28
164.0585	31
165.068	52
176.0612	24
187.0557	14
189.0691	24
