Mass spectrum: Butylphosphonic acid; LC-ESI-QTOF; MS2; 50 V
Name: Butylphosphonic acid
Formula: C4H11O3P
Exact mass: 138.0446
InChI: InChI=1S/C4H11O3P/c1-2-3-4-8(5,6)7/h2-4H2,1H3,(H2,5,6,7)
Instrument: TripleTOF 5600 SCIEX
Instrument type: LC-ESI-QTOF
Ms type: CID
Ion mode: POSITIVE
Collision energy: 50
Ionization: ESI
Column name: Zorbax Eclipse Plus C18 2.1 mm x 150 mm, 3.5 um, Agilent
Retention time: 4.77 min
Precursor m/z: 139.0519
Precursor type: [M+H]+
m/z	relative intensity
37.0071	176
38.0156	117
39.0229	999
41.0385	587
43.9847	58
46.9677	763
47.9744	117
53.0395	117
55.0538	235
57.0695	58
60.9879	235
62.9636	176
64.9782	763
66.9952	58
77.9868	117
80.9728	176
81.9788	58
81.9821	58
93.0079	0
95.9972	58
