Mass spectrum: Basic yellow 28; LC-ESI-QTOF; MS2; 150 V
Name: Basic yellow 28
Class: Pigment
Formula: [C20H24N3O]+
Exact mass: 322.1914
SMILES: CC1(C2=CC=CC=C2[N+](=C1C=NN(C)C3=CC=C(C=C3)OC)C)C
InChI: InChI=1S/C20H24N3O/c1-20(2)17-8-6-7-9-18(17)22(3)19(20)14-21-23(4)15-10-12-16(24-5)13-11-15/h6-14H,1-5H3/q+1
Instrument: TripleTOF 6600 SCIEX
Instrument type: LC-ESI-QTOF
Ms type: MS2
Ion mode: POSITIVE
Collision energy: 150
Fragmentation mode: CID
Ionization: ESI
Column name: Zorbax Eclipse Plus C18 2.1 mm x 150 mm, 3.5 um, Agilent
Retention time: 9.082 min
Precursor m/z: 322.1914
Precursor type: [M]+
m/z	relative intensity
37.0084	81
38.0164	106
39.0243	274
49.0079	112
50.016	485
51.0237	806
52.0311	60
61.0078	133
62.0157	339
63.0234	999
64.0311	99
65.039	461
66.0463	147
67.0416	94
74.0148	182
75.0228	268
76.0304	170
77.0384	614
78.046	80
89.0375	386
90.0452	63
91.0531	136
101.0375	108
102.0455	234
115.0537	565
116.0497	59
128.0491	143
129.0558	53
142.0663	67
