Mass spectrum: Boscalid; LC-ESI-QTOF; MS2; 140 V
Name: Boscalid
Class: Fungicide
Formula: C18H12Cl2N2O
Exact mass: 342.0327
SMILES: C1=CC=C(C(=C1)C2=CC=C(C=C2)Cl)NC(=O)C3=C(N=CC=C3)Cl
InChI: InChI=1S/C18H12Cl2N2O/c19-13-9-7-12(8-10-13)14-4-1-2-6-16(14)22-18(23)15-5-3-11-21-17(15)20/h1-11H,(H,22,23)
Instrument: TripleTOF 6600 SCIEX
Instrument type: LC-ESI-QTOF
Ms type: MS2
Ion mode: POSITIVE
Collision energy: 140
Fragmentation mode: CID
Ionization: ESI
Column name: Zorbax Eclipse Plus C18 2.1 mm x 150 mm, 3.5 um, Agilent
Retention time: 12.31 min
Precursor m/z: 343.04
Precursor type: [M+H]+
m/z	relative intensity
49.0071	316
50.0147	999
51.0228	791
52.0171	121
61.0078	73
61.9786	121
62.0149	134
63.0226	158
74.0145	243
75.0096	499
75.0221	121
76.0175	730
76.0302	60
77.0373	109
78.0332	158
84.9826	121
85.0069	85
86.0152	121
87.0225	194
88.0199	48
88.0297	85
89.0378	109
98.0139	255
99.0224	121
100.0312	48
102.0441	48
110.014	73
111.0212	48
113.0377	134
114.0334	73
115.0539	60
122.0143	134
123.023	121
125.0369	73
126.0454	134
137.0388	85
138.037	60
139.0535	97
140.0463	85
146.0157	60
148.0302	48
149.0375	134
150.0453	402
151.0537	109
152.0622	48
161.0384	207
162.0453	146
163.0531	268
164.0485	182
174.0441	158
175.0412	207
176.0527	73
185.0368	60
186.0477	158
187.053	462
188.0501	280
189.0485	60
189.0555	73
190.0628	73
197.0368	60
198.0467	182
199.0419	207
200.0616	121
211.0426	60
212.0482	255
213.0544	207
214.0646	231
224.0473	60
225.056	85
239.0589	85
240.0676	109
241.0786	60
