Mass spectrum: Fluoxastrobin; LC-ESI-QTOF; MS2; 40 V
Name: Fluoxastrobin
Class: Fungicide
Formula: C21H16ClFN4O5
Exact mass: 458.0793
SMILES: CON=C(C1=CC=CC=C1OC2=C(C(=NC=N2)OC3=CC=CC=C3Cl)F)C4=NOCCO4
InChI: InChI=1S/C21H16ClFN4O5/c1-28-26-18(21-27-30-11-10-29-21)13-6-2-4-8-15(13)31-19-17(23)20(25-12-24-19)32-16-9-5-3-7-14(16)22/h2-9,12H,10-11H2,1H3
Instrument: TripleTOF 6600 SCIEX
Instrument type: LC-ESI-QTOF
Ms type: MS2
Ion mode: POSITIVE
Collision energy: 40
Fragmentation mode: CID
Ionization: ESI
Column name: Zorbax Eclipse Plus C18 2.1 mm x 150 mm, 3.5 um, Agilent
Retention time: 13.269 min
Precursor m/z: 459.0866
Precursor type: [M+H]+
m/z	relative intensity
45.0335	11
65.0382	17
75.0223	13
77.0377	30
78.0325	9
90.0326	47
93.0329	24
102.0323	28
104.0484	31
106.027	22
110.9984	56
117.0513	12
118.0517	13
119.0354	24
120.0435	78
122.0396	11
129.0087	18
129.0437	22
130.0328	95
132.0437	33
133.0319	11
134.0384	16
134.0584	14
138.0092	234
139.0033	47
144.0308	32
144.0535	10
145.0383	158
146.0228	99
147.0344	12
150.0334	109
151.0037	11
157.0404	11
159.0348	21
160.0265	16
160.0481	22
161.0329	48
162.0369	31
163.0029	21
167.9992	44
170.0339	51
174.0425	12
175.0287	55
176.0353	35
177.0451	18
178.0286	117
178.9999	91
183.9942	33
185.0366	13
186.043	16
187.0308	16
188.0371	999
189.0443	16
190.0457	62
191.0226	29
195.9937	11
198.0289	13
202.0416	40
203.0214	34
204.0502	22
204.0758	20
205.041	66
205.0585	58
211.9893	15
213.0338	10
214.005	41
214.0516	43
215.0468	19
216.0538	17
218.0359	34
223.0063	33
223.9897	25
228.0433	32
229.0266	26
230.0351	146
231.0191	45
232.052	27
235.0507	11
239.0342	10
240.0424	42
241.0157	13
241.0501	24
242.0566	36
244.0512	31
246.0295	126
250.0173	18
251.0638	13
252.0678	16
255.0295	39
256.039	13
257.0473	35
262.0516	17
264.0305	14
266.0127	92
267.0316	26
270.0535	15
274.0597	45
277.0655	25
278.0706	32
279.0544	20
280.0619	31
290.0577	15
299.0562	20
300.063	22
304.0554	40
305.0568	14
306.0665	559
313.0426	34
315.0331	150
318.0651	40
320.0201	20
320.0713	13
331.0615	58
339.0388	29
340.0273	214
341.0344	24
341.0561	10
342.0435	81
343.0389	23
355.0355	22
367.0374	286
369.0528	17
383.0331	167
397.0485	30
427.0587	587
