Mass spectrum: 1,3-Dicyclohexylurea; LC-ESI-QTOF; MS2; 80 V
Name: 1,3-Dicyclohexylurea
Formula: C13H24N2O
Exact mass: 224.1889
SMILES: C1CCC(CC1)NC(=O)NC2CCCCC2
InChI: InChI=1S/C13H24N2O/c16-13(14-11-7-3-1-4-8-11)15-12-9-5-2-6-10-12/h11-12H,1-10H2,(H2,14,15,16)
Instrument: TripleTOF 6600 SCIEX
Instrument type: LC-ESI-QTOF
Ms type: MS2
Ion mode: POSITIVE
Collision energy: 80
Fragmentation mode: CID
Ionization: ESI
Column name: Zorbax Eclipse Plus C18 2.1 mm x 150 mm, 3.5 um, Agilent
Retention time: 10.759 min
Precursor m/z: 225.1962
Precursor type: [M+H]+
m/z	relative intensity
37.0068	60
38.0021	20
38.0143	60
39.0228	550
41.0383	239
43.0283	12
43.0535	11
44.0129	601
53.0378	88
55.0539	999
61.0387	40
