Mass spectrum: Phenothiazine; LC-ESI-QTOF; MS2; 110 V
Name: Phenothiazine
Class: Pharmaceutical
Formula: C12H9NS
Exact mass: 199.0456
SMILES: C1=CC=C2C(=C1)NC3=CC=CC=C3S2
InChI: InChI=1S/C12H9NS/c1-3-7-11-9(5-1)13-10-6-2-4-8-12(10)14-11/h1-8,13H
Instrument: TripleTOF 6600 SCIEX
Instrument type: LC-ESI-QTOF
Ms type: MS2
Ion mode: POSITIVE
Collision energy: 110
Fragmentation mode: CID
Ionization: ESI
Column name: Zorbax Eclipse Plus C18 2.1 mm x 150 mm, 3.5 um, Agilent
Retention time: 13.113 min
Precursor m/z: 200.0529
Precursor type: [M+H]+
m/z	relative intensity
37.0066	120
38.014	86
39.022	270
44.9783	154
49.0063	154
50.0141	704
51.0219	892
52.0168	19
52.0277	57
53.0378	24
57.9857	33
59.9979	38
61.0061	376
62.0136	617
63.0217	999
64.0174	38
64.0251	33
65.0368	101
67.97	57
68.978	931
69.9845	53
73.0057	62
74.0138	487
75.0213	395
76.0168	33
76.0285	101
77.037	202
78.0447	28
80.9773	24
81.9854	86
85.0057	120
86.0134	304
87.0212	366
88.0171	86
88.0283	72
89.0369	424
90.0319	24
92.9771	72
94.9934	33
97.006	19
98.0133	130
99.021	48
100.0282	33
101.0367	48
102.0441	53
108.0015	19
109.0061	24
110.0119	53
111.0199	38
112.0159	19
113.0367	361
114.0337	77
115.0514	82
125.0377	19
126.0437	115
127.04	19
127.0525	48
128.0458	19
137.0372	86
138.0339	19
138.0443	33
139.0524	212
140.047	125
164.0473	48
