Mass spectrum: Ciprofloxacin; LC-ESI-QTOF; MS2; 120 V
Name: Ciprofloxacin
Class: Pharmaceutical
Formula: C17H18FN3O3
Exact mass: 331.1332
SMILES: C1CC1N2C=C(C(=O)C3=CC(=C(C=C32)N4CCNCC4)F)C(=O)O
InChI: InChI=1S/C17H18FN3O3/c18-13-7-11-14(8-15(13)20-5-3-19-4-6-20)21(10-1-2-10)9-12(16(11)22)17(23)24/h7-10,19H,1-6H2,(H,23,24)
Instrument: TripleTOF 6600 SCIEX
Instrument type: LC-ESI-QTOF
Ms type: MS2
Ion mode: POSITIVE
Collision energy: 120
Fragmentation mode: CID
Ionization: ESI
Column name: Zorbax Eclipse Plus C18 2.1 mm x 150 mm, 3.5 um, Agilent
Retention time: 5.497 min
Precursor m/z: 332.1405
Precursor type: [M+H]+
m/z	relative intensity
57.0133	237
75.0232	428
77.0393	190
81.0138	380
83.03	237
89.039	190
99.0216	237
100.0202	237
101.0399	285
105.0139	380
106.0204	333
107.0299	666
132.0261	999
133.0329	190
160.0445	285
