Mass spectrum: Indoxacarb; LC-ESI-QTOF; MS2; 150 V
Name: Indoxacarb
Class: Insecticide
Formula: C22H17ClF3N3O7
Exact mass: 527.0707
SMILES: COC(=O)[C@]12Cc3cc(ccc3C1=NN(CO2)C(=O)N(c4ccc(cc4)OC(F)(F)F)C(=O)OC)Cl
InChI: InChI=1S/C22H17ClF3N3O7/c1-33-18(30)21-10-12-9-13(23)3-8-16(12)17(21)27-28(11-35-21)19(31)29(20(32)34-2)14-4-6-15(7-5-14)36-22(24,25)26/h3-9H,10-11H2,1-2H3/t21-/m0/s1
Instrument: TripleTOF 5600 SCIEX
Instrument type: LC-ESI-QTOF
Ms type: MS2
Ion mode: POSITIVE
Collision energy: 150
Fragmentation mode: CID
Ionization: ESI
Column name: Zorbax Eclipse Plus C18 2.1 mm x 150 mm, 3.5 um, Agilent
Retention time: 15.019 min
Precursor m/z: 528.078
Precursor type: [M+H]+
m/z	relative intensity
45.0425	19
51.0306	328
56.0197	303
59.0185	97
65.043	30
66.0501	13
68.9998	637
69.996	23
72.9882	167
73.0097	41
74.0194	259
75.0271	491
76.0342	72
77.0427	368
78.0384	999
83.0316	20
86.0171	46
87.025	138
88.0323	258
89.0411	572
90.036	46
90.0485	17
93.0583	10
95.03	33
96.9848	99
97.0327	18
98.0165	204
99.0239	626
100.0232	505
101.0399	385
102.0473	269
103.0545	32
104.0493	26
106.0303	966
108.9842	19
109.0333	19
109.9914	18
110.9989	25
113.0397	470
114.0405	799
115.0545	855
116.0526	92
123.0009	879
124.0066	236
125.02	42
126.0375	321
127.0436	630
128.0622	234
129.0445	30
130.0639	23
134.0239	303
134.9993	79
136.0081	423
137.0144	13
139.0432	11
140.0495	134
141.0564	81
142.0426	10
142.064	24
146.9993	61
147.0272	18
148.0014	103
149.0156	341
150.0108	353
152.0028	73
154.0399	61
155.0611	22
157.0298	14
161.0035	57
162.011	65
162.0255	11
163.0029	38
164.0016	18
164.027	14
175.0239	10
176.0246	14
203.0183	15
