Mass spectrum: 4-Aminoantipyrine; LC-ESI-QTOF; MS2; 40 V
Name: 4-Aminoantipyrine
Class: Transformation_product
Formula: C11H13N3O
Exact mass: 203.1059
SMILES: CC1=C(C(=O)N(N1C)C2=CC=CC=C2)N
InChI: InChI=1S/C11H13N3O/c1-8-10(12)11(15)14(13(8)2)9-6-4-3-5-7-9/h3-7H,12H2,1-2H3
Instrument: TripleTOF 5600 SCIEX
Instrument type: LC-ESI-QTOF
Ms type: MS2
Ion mode: POSITIVE
Collision energy: 40
Fragmentation mode: CID
Ionization: ESI
Column name: Zorbax Eclipse Plus C18 2.1 mm x 150 mm, 3.5 um, Agilent
Retention time: 4.783 min
Precursor m/z: 204.1131
Precursor type: [M+H]+
m/z	relative intensity
42.0341	33
44.0492	18
51.023	14
56.0499	999
58.0653	28
68.0499	18
77.0388	221
83.0605	115
85.0764	24
91.0546	21
93.0577	17
94.0653	257
101.0367	11
104.0494	64
115.0541	12
117.0566	24
118.0657	25
128.0495	67
130.0652	31
132.0453	12
132.0807	39
145.0769	32
146.0603	32
158.0622	10
159.0921	72
160.0861	13
187.0866	14
189.0911	15
204.1162	14
