Mass spectrum: Baclofen; LC-ESI-QTOF; MS2; 120 V
Name: Baclofen
Class: Pharmaceutical
Formula: C10H12ClNO2
Exact mass: 213.0557
SMILES: NCC(CC(O)=O)c1ccc(Cl)cc1
InChI: InChI=1S/C10H12ClNO2/c11-9-3-1-7(2-4-9)8(6-12)5-10(13)14/h1-4,8H,5-6,12H2,(H,13,14)
Instrument: TripleTOF 5600 SCIEX
Instrument type: LC-ESI-QTOF
Ms type: MS2
Ion mode: POSITIVE
Collision energy: 120
Fragmentation mode: CID
Ionization: ESI
Column name: Zorbax Eclipse Plus C18 2.1 mm x 150 mm, 3.5 um, Agilent
Retention time: 5.336 min
Precursor m/z: 214.0629
Precursor type: [M+H]+
m/z	relative intensity
65.0423	278
72.9868	185
73.0089	58
74.0179	859
75.0248	313
75.0379	58
76.0326	58
77.0423	151
85.0079	58
86.0182	104
87.0239	69
89.04	999
91.0568	104
115.0535	755
