Mass spectrum: 6PPD-quinone; LC-ESI-QTOF; MS2; 70 V
Name: 6PPD-quinone
Class: Industrial_process
Formula: C18H22N2O2
Exact mass: 298.1681
SMILES: CC(C)CC(C)NC1=CC(=O)C(=CC1=O)NC2=CC=CC=C2
InChI: InChI=1S/C18H22N2O2/c1-12(2)9-13(3)19-15-10-18(22)16(11-17(15)21)20-14-7-5-4-6-8-14/h4-8,10-13,19-20H,9H2,1-3H3
Instrument: TripleTOF 6600 SCIEX
Instrument type: LC-ESI-QTOF
Ms type: MS2
Ion mode: POSITIVE
Collision energy: 70
Fragmentation mode: CID
Ionization: ESI
Column name: Zorbax Eclipse Plus C18 2.1 mm x 150 mm, 3.5 um, Agilent
Retention time: 13.951 min
Precursor m/z: 299.1754
Precursor type: [M+H]+
m/z	relative intensity
39.0228	101
41.0388	122
43.0544	122
51.0226	163
68.0125	203
77.0387	999
82.0527	142
84.0443	81
91.0537	265
93.0562	285
94.0657	81
104.0492	285
110.0465	122
111.0551	122
115.0535	713
116.0487	163
117.0566	305
117.0683	122
118.0638	285
120.0808	101
127.0536	183
128.0484	346
130.0639	142
140.0483	101
142.0644	183
143.0721	203
144.0801	224
146.0593	203
148.0373	81
154.0636	224
155.0574	163
158.0836	101
170.0611	101
172.0752	163
187.0871	122
199.0816	101
226.0727	142
