Mass spectrum: 4-(4-Chloro-2-methylphenoxy)butanoic acid; LC-ESI-QTOF; MS2; 50 V
Name: 4-(4-Chloro-2-methylphenoxy)butanoic acid
Class: Herbicide
Formula: C11H13ClO3
Exact mass: 228.0553
SMILES: CC1=C(C=CC(=C1)Cl)OCCCC(=O)O
InChI: InChI=1S/C11H13ClO3/c1-8-7-9(12)4-5-10(8)15-6-2-3-11(13)14/h4-5,7H,2-3,6H2,1H3,(H,13,14)
Instrument: TripleTOF 6600 SCIEX
Instrument type: LC-ESI-QTOF
Ms type: MS2
Ion mode: POSITIVE
Collision energy: 50
Fragmentation mode: CID
Ionization: ESI
Column name: Zorbax Eclipse Plus C18 2.1 mm x 150 mm, 3.5 um, Agilent
Retention time: 11.775 min
Precursor m/z: 229.0626
Precursor type: [M+H]+
m/z	relative intensity
37.0064	47
38.0142	56
39.0226	348
41.0386	471
43.0177	471
43.0534	18
44.9973	47
45.033	999
51.0228	28
57.034	18
65.0384	75
69.0327	188
72.9799	9
75.0235	9
77.0391	122
78.0475	9
79.0505	37
87.0434	150
89.038	141
90.0458	65
91.0526	311
92.0619	28
93.0577	9
98.998	122
103.0537	18
104.0626	47
105.0697	28
107.049	65
108.0569	18
110.9981	9
113.0143	18
115.0547	94
119.0492	28
125.0148	197
127.0269	37
127.055	28
128.0637	84
129.0691	131
130.0745	28
133.0652	18
139.0313	18
139.0453	18
148.0907	18
155.024	75
155.0563	28
157.0625	9
