Mass spectrum: Mitomycin C; LC-ESI-QTOF; MS2; 50 V
Name: Mitomycin C
Class: Pharmaceutical
Formula: C15H18N4O5
Exact mass: 334.1277
SMILES: CO[C@@]12[C@H](COC(N)=O)C3=C(N1C[C@@H]4N[C@H]24)C(=O)C(=C(N)C3=O)C
InChI: InChI=1S/C15H18N4O5/c1-5-9(16)12(21)8-6(4-24-14(17)22)15(23-2)13-7(18-13)3-19(15)10(8)11(5)20/h6-7,13,18H,3-4,16H2,1-2H3,(H2,17,22)/t6-,7+,13+,15-/m1/s1
Instrument: TripleTOF 5600 SCIEX
Instrument type: LC-ESI-QTOF
Ms type: MS2
Ion mode: POSITIVE
Collision energy: 50
Fragmentation mode: CID
Ionization: ESI
Column name: Zorbax Eclipse Plus C18 2.1 mm x 150 mm, 3.5 um, Agilent
Retention time: 5.588 min
Precursor m/z: 335.135
Precursor type: [M+H]+
m/z	relative intensity
104.0474	63
131.0542	359
132.0615	356
133.0704	109
142.0589	51
145.0677	69
156.0582	118
157.0656	86
159.0445	259
159.0802	95
161.06	63
168.0571	60
169.0632	305
170.0702	97
171.0775	308
175.0726	54
176.0548	51
184.0706	48
185.0561	129
187.0708	152
188.0514	66
197.0521	261
198.0606	92
199.0594	259
200.0424	100
202.0536	187
203.0633	74
213.0608	138
213.0839	74
214.07	57
214.0932	250
215.0773	642
217.053	51
225.0598	51
226.0689	51
227.0711	86
229.0823	60
230.0633	48
240.0734	97
241.0808	132
242.0883	999
