Mass spectrum: 2-Azaspiro[4.5]decane-1,3-dione; LC-ESI-QTOF; MS2; 20 V
Name: 2-Azaspiro[4.5]decane-1,3-dione
Class: Pharmaceutical
Formula: C9H13NO2
Exact mass: 167.0946
SMILES: C1CCC2(CC1)CC(=O)NC2=O
InChI: InChI=1S/C9H13NO2/c11-7-6-9(8(12)10-7)4-2-1-3-5-9/h1-6H2,(H,10,11,12)
Instrument: TripleTOF 5600 SCIEX
Instrument type: LC-ESI-QTOF
Ms type: MS2
Ion mode: POSITIVE
Collision energy: 20
Fragmentation mode: CID
Ionization: ESI
Column name: Zorbax Eclipse Plus C18 2.1 mm x 150 mm, 3.5 um, Agilent
Retention time: 7.402 min
Precursor m/z: 168.1019
Precursor type: [M+H]+
m/z	relative intensity
60.0502	13
67.0597	16
79.0608	56
81.0748	712
95.0892	286
97.1022	32
98.0991	203
105.0719	34
122.0968	58
123.0821	310
140.1076	444
168.1027	999
