Mass spectrum: Disperse Orange 37; LC-ESI-QTOF; MS2; 80 V
Name: Disperse Orange 37
Formula: C17H15Cl2N5O2
Exact mass: 391.0603
SMILES: CCN(CCC#N)C1=CC=C(C=C1)N=NC2=C(C=C(C=C2Cl)[N+](=O)[O-])Cl
InChI: InChI=1S/C17H15Cl2N5O2/c1-2-23(9-3-8-20)13-6-4-12(5-7-13)21-22-17-15(18)10-14(24(25)26)11-16(17)19/h4-7,10-11H,2-3,9H2,1H3
Instrument: TripleTOF X500R SCIEX
Instrument type: LC-ESI-QTOF
Ms type: MS2
Ion mode: POSITIVE
Collision energy: 80
Fragmentation mode: CID
Ionization: ESI
Column name: Zorbax Eclipse Plus C18 2.1 mm x 150 mm, 3.5 um, Agilent
Retention time: 15.169 min
Precursor m/z: 392.0676
Precursor type: [M+H]+
m/z	relative intensity
54.0337	62
65.0397	306
77.0387	306
78.0353	62
78.0472	99
79.054	72
80.0496	45
90.0325	81
91.0416	90
91.0545	162
92.0499	423
96.9843	171
103.0559	72
104.0499	846
105.0581	945
106.0654	243
106.9454	153
107.9758	198
108.9845	702
109.979	54
117.0568	162
118.0629	297
118.0794	36
118.9458	36
119.0605	369
120.0816	72
128.0507	36
130.0651	81
131.0619	207
132.0763	117
133.0885	423
134.0971	62
142.9452	576
143.9536	999
145.0785	81
147.0925	99
150.0461	153
151.0545	62
152.0617	72
159.9485	72
178.0641	45
186.0243	45
213.0353	45
214.0397	45
