Mass spectrum: Methacetin; LC-ESI-QTOF; MS2; 70 V
Name: Methacetin
Class: Pharmaceutical
Formula: C9H11NO2
Exact mass: 165.079
SMILES: COc1ccc(NC(C)=O)cc1
InChI: InChI=1S/C9H11NO2/c1-7(11)10-8-3-5-9(12-2)6-4-8/h3-6H,1-2H3,(H,10,11)
Instrument: TripleTOF 5600 SCIEX
Instrument type: LC-ESI-QTOF
Ms type: MS2
Ion mode: POSITIVE
Collision energy: 70
Fragmentation mode: CID
Ionization: ESI
Column name: Zorbax Eclipse Plus C18 2.1 mm x 150 mm, 3.5 um, Agilent
Retention time: 6.508 min
Precursor m/z: 166.0863
Precursor type: [M+H]+
m/z	relative intensity
41.0394	17
42.045	32
43.0288	502
43.0511	11
52.0283	30
54.0421	110
64.0363	170
65.0439	463
66.0512	546
67.0464	38
77.042	177
78.0375	96
80.0529	999
81.0601	198
92.0498	371
93.0588	695
108.0446	66
109.0526	28
