Mass spectrum: Piracetam; LC-ESI-QTOF; MS2; 30 V
Name: Piracetam
Class: Pharmaceutical
Formula: C6H10N2O2
Exact mass: 142.0742
SMILES: NC(=O)CN1CCCC1=O
InChI: InChI=1S/C6H10N2O2/c7-5(9)4-8-3-1-2-6(8)10/h1-4H2,(H2,7,9)
Instrument: TripleTOF 5600 SCIEX
Instrument type: LC-ESI-QTOF
Ms type: MS2
Ion mode: POSITIVE
Collision energy: 30
Fragmentation mode: CID
Ionization: ESI
Column name: Zorbax Eclipse Plus C18 2.1 mm x 150 mm, 3.5 um, Agilent
Retention time: 2.615 min
Precursor m/z: 143.0815
Precursor type: [M+H]+
m/z	relative intensity
60.9915	999
69.0363	187
70.0671	491
98.06	858
102.0127	273
