Mass spectrum: 2-Hydroxycarbamazepine; LC-ESI-QTOF; MS2; 70 V
Name: 2-Hydroxycarbamazepine
Class: Pharmaceutical; Metabolite; Transformation_product-Metabolite
Formula: C15H12N2O2
Exact mass: 252.0899
SMILES: NC(=O)N1c2ccccc2C=Cc3cc(O)ccc13
InChI: InChI=1S/C15H12N2O2/c16-15(19)17-13-4-2-1-3-10(13)5-6-11-9-12(18)7-8-14(11)17/h1-9,18H,(H2,16,19)
Instrument: TripleTOF 5600 SCIEX
Instrument type: LC-ESI-QTOF
Ms type: MS2
Ion mode: POSITIVE
Collision energy: 70
Fragmentation mode: CID
Ionization: ESI
Column name: Zorbax Eclipse Plus C18 2.1 mm x 150 mm, 3.5 um, Agilent
Retention time: 7.476 min
Precursor m/z: 253.0972
Precursor type: [M+H]+
m/z	relative intensity
65.042	14
77.0409	115
78.0483	19
88.0312	9
89.0405	126
90.0478	59
91.0555	15
101.0385	31
102.0457	16
103.0546	9
104.0504	26
105.0333	11
105.0568	9
113.0394	21
114.0462	14
115.0543	167
116.0489	28
117.0572	51
125.0367	11
126.0466	24
127.0543	157
128.0523	170
130.0666	12
138.0463	14
139.0546	460
140.0513	359
141.0623	47
150.0454	43
151.0544	245
152.0625	823
153.0688	170
154.0646	133
162.0478	9
163.0536	148
164.0611	204
165.0696	284
166.0656	863
167.0733	826
176.0492	12
177.0573	46
178.0653	424
179.0723	284
180.0815	999
181.0637	62
181.0885	85
182.0606	22
182.0974	11
183.0691	29
188.0494	27
189.0567	62
190.0655	268
191.0723	231
192.081	116
193.0875	21
194.0618	24
195.0673	62
206.0601	67
207.0673	125
208.0756	159
209.0837	67
