Mass spectrum: O-desmethyl-venlafaxine; LC-ESI-QTOF; MS2; 60 V
Name: O-desmethyl-venlafaxine
Class: Metabolite; Pharmaceutical; Transformation_product-Metabolite
Formula: C16H25NO2
Exact mass: 263.1885
SMILES: CN(C)CC(C1=CC=C(C=C1)O)C2(CCCCC2)O
InChI: InChI=1S/C16H25NO2/c1-17(2)12-15(13-6-8-14(18)9-7-13)16(19)10-4-3-5-11-16/h6-9,15,18-19H,3-5,10-12H2,1-2H3
Instrument: TripleTOF 5600 SCIEX
Instrument type: LC-ESI-QTOF
Ms type: MS2
Ion mode: POSITIVE
Collision energy: 60
Fragmentation mode: CID
Ionization: ESI
Column name: Zorbax Eclipse Plus C18 2.1 mm x 150 mm, 3.5 um, Agilent
Retention time: 5.367 min
Precursor m/z: 264.1958
Precursor type: [M+H]+
m/z	relative intensity
42.0487	36
56.0598	13
58.0745	999
77.0441	294
79.0595	178
81.0749	69
91.0575	64
103.0569	55
105.0714	147
107.0508	683
115.0552	75
116.064	18
117.0718	10
121.0683	18
127.0561	33
131.0487	22
131.0883	10
133.0658	85
141.071	26
144.0576	55
145.0647	21
149.0843	10
159.0796	10
