Mass spectrum: 1-Boc-4-[3-(ethoxycarbonyl)phenyl]piperazine; LC-ESI-QTOF; MS2; 40 V
Name: 1-Boc-4-[3-(ethoxycarbonyl)phenyl]piperazine
Formula: C18H26N2O4
Exact mass: 334.1893
SMILES: CCOC(=O)C1=CC(=CC=C1)N2CCN(CC2)C(=O)OC(C)(C)C
InChI: InChI=1S/C18H26N2O4/c1-5-23-16(21)14-7-6-8-15(13-14)19-9-11-20(12-10-19)17(22)24-18(2,3)4/h6-8,13H,5,9-12H2,1-4H3
Instrument: TripleTOF 6600 SCIEX
Instrument type: LC-ESI-QTOF
Ms type: MS2
Ion mode: POSITIVE
Collision energy: 40
Fragmentation mode: CID
Ionization: ESI
Column name: Zorbax Eclipse Plus C18 2.1 mm x 150 mm, 3.5 um, Agilent
Retention time: 14.611 min
Precursor m/z: 335.1965
Precursor type: [M+H]+
m/z	relative intensity
41.0386	13
44.0497	21
57.0701	178
91.0539	10
118.0648	60
119.0726	46
120.0806	133
132.0803	24
133.0751	11
144.0803	13
146.0605	24
161.1074	75
162.1146	20
164.0709	491
178.0856	13
189.1021	116
190.0858	24
192.1022	281
205.0971	56
206.1047	10
207.1128	179
233.0931	197
233.124	20
235.145	999
