Mass spectrum: Neotame; LC-ESI-QTOF; MS2; 60 V
Name: Neotame
Formula: C20H30N2O5
Exact mass: 378.2155
SMILES: CC(C)(C)CCNC(CC(=O)O)C(=O)NC(CC1=CC=CC=C1)C(=O)OC
InChI: InChI=1S/C20H30N2O5/c1-20(2,3)10-11-21-15(13-17(23)24)18(25)22-16(19(26)27-4)12-14-8-6-5-7-9-14/h5-9,15-16,21H,10-13H2,1-4H3,(H,22,25)(H,23,24)
Instrument: TripleTOF X500R SCIEX
Instrument type: LC-ESI-QTOF
Ms type: MS2
Ion mode: POSITIVE
Collision energy: 60
Fragmentation mode: CID
Ionization: ESI
Column name: Zorbax Eclipse Plus C18 2.1 mm x 150 mm, 3.5 um, Agilent
Retention time: 8.15 min
Precursor m/z: 379.2228
Precursor type: [M+H]+
m/z	relative intensity
39.0229	24
41.0386	153
43.0183	48
43.054	504
57.0701	571
70.0279	134
85.1006	446
88.0392	144
91.0539	365
93.0699	28
103.0533	201
112.1118	158
120.0809	999
121.064	86
130.0678	43
130.1217	24
154.1213	81
172.1324	504
175.081	19
204.1723	38
231.1842	33
259.1822	38
