Mass spectrum: Boscalid; LC-ESI-QTOF; MS2; 40 V
Name: Boscalid
Class: Fungicide
Formula: C18H12Cl2N2O
Exact mass: 342.0327
SMILES: C1=CC=C(C(=C1)C2=CC=C(C=C2)Cl)NC(=O)C3=C(N=CC=C3)Cl
InChI: InChI=1S/C18H12Cl2N2O/c19-13-9-7-12(8-10-13)14-4-1-2-6-16(14)22-18(23)15-5-3-11-21-17(15)20/h1-11H,(H,22,23)
Instrument: TripleTOF 6600 SCIEX
Instrument type: LC-ESI-QTOF
Ms type: MS2
Ion mode: POSITIVE
Collision energy: 40
Fragmentation mode: CID
Ionization: ESI
Column name: Zorbax Eclipse Plus C18 2.1 mm x 150 mm, 3.5 um, Agilent
Retention time: 12.31 min
Precursor m/z: 343.04
Precursor type: [M+H]+
m/z	relative intensity
76.0174	24
78.0333	117
111.9944	262
114.0091	25
139.9889	336
152.0616	16
177.0573	14
196.0627	10
217.0881	16
226.0637	17
227.0722	29
228.0783	30
229.0865	21
238.0426	10
242.0827	61
243.0903	131
244.0988	49
252.0654	14
253.0752	74
254.0827	95
262.0408	14
264.0546	17
270.0777	36
271.0859	999
272.094	828
289.052	213
305.0467	18
306.0522	15
307.063	892
343.0373	16
