Mass spectrum: Meperidine; LC-ESI-QTOF; MS2; 110 V
Name: Meperidine
Class: Pharmaceutical
Formula: C15H21NO2
Exact mass: 247.1572
SMILES: CCOC(=O)C1(CCN(CC1)C)C2=CC=CC=C2
InChI: InChI=1S/C15H21NO2/c1-3-18-14(17)15(9-11-16(2)12-10-15)13-7-5-4-6-8-13/h4-8H,3,9-12H2,1-2H3
Instrument: TripleTOF 6600 SCIEX
Instrument type: LC-ESI-QTOF
Ms type: MS2
Ion mode: POSITIVE
Collision energy: 110
Fragmentation mode: CID
Ionization: ESI
Column name: Zorbax Eclipse Plus C18 2.1 mm x 150 mm, 3.5 um, Agilent
Retention time: 6.573 min
Precursor m/z: 248.1645
Precursor type: [M+H]+
m/z	relative intensity
30.033	20
35.9992	20
37.0068	80
38.0145	62
39.0226	482
41.0257	54
41.0378	69
42.0336	743
43.0175	11
43.0412	35
44.0492	469
49.0063	21
50.0146	263
51.0226	861
52.0316	15
53.038	29
54.0336	23
56.0492	16
59.9981	13
61.0064	64
62.0139	108
63.0219	252
65.0378	695
67.0408	38
68.0496	13
70.064	30
74.0141	71
75.0215	70
76.0297	41
77.0377	999
78.0449	45
79.0531	15
80.0485	73
81.0561	19
82.0637	33
86.013	13
87.0225	19
89.0375	304
91.0534	403
101.0384	14
102.0455	138
103.0524	47
105.0446	12
113.0376	12
115.0534	758
116.0624	13
126.0444	46
127.0523	96
128.0605	175
139.0513	20
