Mass spectrum: 16alpha-hydroxyestrone; LC-ESI-QTOF; MS2; 150 V
Name: 16alpha-hydroxyestrone
Class: Pharmaceutical; Metabolite
Formula: C18H22O3
Exact mass: 286.1569
SMILES: C[C@]12CC[C@@H]3[C@H](CCc4cc(O)ccc34)[C@H]1C[C@@H](O)C2=O
InChI: InChI=1S/C18H22O3/c1-18-7-6-13-12-5-3-11(19)8-10(12)2-4-14(13)15(18)9-16(20)17(18)21/h3,5,8,13-16,19-20H,2,4,6-7,9H2,1H3/t13-,14-,15+,16+,18-/m0/s1
Instrument: TripleTOF 5600 SCIEX
Instrument type: LC-ESI-QTOF
Ms type: MS2
Ion mode: POSITIVE
Collision energy: 150
Fragmentation mode: CID
Ionization: ESI
Column name: Zorbax Eclipse Plus C18 2.1 mm x 150 mm, 3.5 um, Agilent
Retention time: 8.67 min
Precursor m/z: 287.1642
Precursor type: [M+H]+
m/z	relative intensity
43.0268	102
53.0439	38
55.0231	20
60.0036	27
65.0433	402
66.0497	32
73.0106	24
74.0187	292
75.0263	243
76.0334	132
77.0423	977
78.0489	112
79.0572	31
85.0097	30
86.0171	94
87.0244	126
88.0317	36
89.041	726
91.0554	93
94.0427	17
98.016	92
99.0234	50
101.0383	39
102.0472	238
103.0545	58
107.0496	17
113.0386	82
114.0464	46
115.055	999
116.0631	12
125.0379	30
126.0462	181
127.054	144
128.0618	152
131.051	18
137.0391	19
139.0542	145
149.0378	32
150.0467	202
151.0541	154
152.0622	150
161.0388	21
162.0473	39
163.0545	181
164.0613	43
165.0693	33
174.0462	26
175.0553	14
176.0618	45
187.0536	38
188.0615	10
189.0688	21
200.063	11
