Mass spectrum: Oxadixyl; LC-ESI-QTOF; MS2; 30 V
Name: Oxadixyl
Class: Fungicide
Formula: C14H18N2O4
Exact mass: 278.1267
SMILES: CC1=C(C(=CC=C1)C)N(C(=O)COC)N2CCOC2=O
InChI: InChI=1S/C14H18N2O4/c1-10-5-4-6-11(2)13(10)16(12(17)9-19-3)15-7-8-20-14(15)18/h4-6H,7-9H2,1-3H3
Instrument: TripleTOF 6600 SCIEX
Instrument type: LC-ESI-QTOF
Ms type: MS2
Ion mode: POSITIVE
Collision energy: 30
Fragmentation mode: CID
Ionization: ESI
Column name: Zorbax Eclipse Plus C18 2.1 mm x 150 mm, 3.5 um, Agilent
Retention time: 8.678 min
Precursor m/z: 279.1339
Precursor type: [M+H]+
m/z	relative intensity
45.0325	94
88.0375	47
91.0527	19
93.0672	10
102.0536	142
105.0675	43
117.0555	121
118.0629	65
119.0835	172
120.0791	79
121.0625	51
132.0794	779
133.0868	999
134.0937	52
145.0738	10
147.0892	21
149.0212	29
160.0738	33
160.0977	17
164.1041	22
191.0923	56
192.1005	15
201.0432	33
219.1104	207
