Mass spectrum: Ketoconazole; LC-ESI-QTOF; MS2; 130 V
Name: Ketoconazole
Class: Fungicide; Pharmaceutical
Formula: C26H28Cl2N4O4
Exact mass: 530.1488
SMILES: CC(=O)N1CCN(CC1)C2=CC=C(C=C2)OCC3COC(O3)(CN4C=CN=C4)C5=C(C=C(C=C5)Cl)Cl
InChI: InChI=1S/C26H28Cl2N4O4/c1-19(33)31-10-12-32(13-11-31)21-3-5-22(6-4-21)34-15-23-16-35-26(36-23,17-30-9-8-29-18-30)24-7-2-20(27)14-25(24)28/h2-9,14,18,23H,10-13,15-17H2,1H3
Instrument: TripleTOF 5600 SCIEX
Instrument type: LC-ESI-QTOF
Ms type: MS2
Ion mode: POSITIVE
Collision energy: 130
Fragmentation mode: CID
Ionization: ESI
Column name: Zorbax Eclipse Plus C18 2.1 mm x 150 mm, 3.5 um, Agilent
Retention time: 7.94 min
Precursor m/z: 531.156
Precursor type: [M+H]+
m/z	relative intensity
43.0302	20
54.0436	91
55.0525	17
56.058	28
65.0455	74
68.0433	17
69.0517	83
70.0711	37
71.067	17
72.9901	28
74.0209	22
77.044	209
78.0412	17
78.0529	14
79.0592	60
80.0526	25
81.0498	999
82.0565	278
83.0658	14
89.0427	88
90.0509	11
91.0582	120
93.0373	106
93.0597	17
94.0448	71
95.0502	11
96.9862	17
98.0156	20
99.003	20
99.025	77
101.0395	14
102.0445	28
103.0559	132
104.0546	17
105.0567	14
105.0685	14
106.0678	43
107.0517	34
107.0622	14
108.9863	83
109.0465	22
111.0004	20
112.0758	20
114.0451	17
115.0549	198
116.0606	43
117.0598	83
118.0668	68
119.0702	17
120.0465	155
120.0802	22
121.0511	48
122.0624	77
123.0002	355
124.0084	60
125.0174	25
127.0517	166
128.0609	37
129.0684	17
130.0676	94
131.0506	57
131.0754	14
132.063	14
132.0818	17
132.9621	37
133.0546	20
133.9918	17
134.0626	48
134.9991	80
136.0085	94
136.0786	22
141.0598	14
142.0675	17
143.0706	17
144.0857	25
144.9607	129
145.0632	17
146.0638	28
146.0919	22
149.0163	54
155.0568	14
157.9674	25
158.062	34
158.9759	238
160.0752	20
163.0086	17
169.9692	155
172.9603	57
203.044	17
