Mass spectrum: Pyrimethanil; LC-ESI-QTOF; MS2; 50 V
Name: Pyrimethanil
Class: Fungicide
Formula: C12H13N3
Exact mass: 199.1109
SMILES: CC1=CC(=NC(=N1)NC2=CC=CC=C2)C
InChI: InChI=1S/C12H13N3/c1-9-8-10(2)14-12(13-9)15-11-6-4-3-5-7-11/h3-8H,1-2H3,(H,13,14,15)
Instrument: TripleTOF 6600 SCIEX
Instrument type: LC-ESI-QTOF
Ms type: MS2
Ion mode: POSITIVE
Collision energy: 50
Fragmentation mode: CID
Ionization: ESI
Column name: Zorbax Eclipse Plus C18 2.1 mm x 150 mm, 3.5 um, Agilent
Retention time: 9.225 min
Precursor m/z: 200.1182
Precursor type: [M+H]+
m/z	relative intensity
37.007	11
38.0146	11
39.0231	83
41.0259	14
42.0341	885
50.0152	33
51.0228	197
53.0384	401
54.0336	13
55.0538	50
56.049	14
63.0219	20
65.0384	359
66.0336	119
66.0452	46
67.0326	613
77.0384	999
78.0335	20
78.0456	24
80.0491	373
82.0647	297
83.0602	44
89.0381	31
90.0335	13
91.0413	18
91.0535	53
92.0375	26
92.0485	191
93.0567	178
94.0638	11
95.0592	18
102.0333	20
103.0413	29
104.0481	42
105.0437	35
107.0595	176
108.067	11
113.0372	16
114.0452	135
115.0535	163
116.0484	44
117.0563	61
118.0512	68
118.0638	31
119.0596	102
127.0531	42
128.049	50
128.06	39
129.0438	14
129.0555	16
129.0679	24
130.0392	14
130.0645	18
131.0594	55
132.0671	16
139.053	42
140.0487	251
141.0566	197
142.0523	26
142.0628	53
143.0592	145
154.0639	70
155.0592	46
156.0676	100
157.0746	27
158.0881	26
159.0911	27
166.0634	50
167.0592	37
167.07	61
168.0673	539
180.0668	11
181.0753	759
182.0831	364
183.0905	93
184.0856	27
185.0951	11
198.1009	42
200.1161	63
