Mass spectrum: Trimethoprim; LC-ESI-QTOF; MS2; 90 V
Name: Trimethoprim
Class: Pharmaceutical
Formula: C14H18N4O3
Exact mass: 290.1379
SMILES: COC1=CC(=CC(=C1OC)OC)CC2=CN=C(N=C2N)N
InChI: InChI=1S/C14H18N4O3/c1-19-10-5-8(6-11(20-2)12(10)21-3)4-9-7-17-14(16)18-13(9)15/h5-7H,4H2,1-3H3,(H4,15,16,17,18)
Instrument: TripleTOF 5600 SCIEX
Instrument type: LC-ESI-QTOF
Ms type: MS2
Ion mode: POSITIVE
Collision energy: 90
Fragmentation mode: CID
Ionization: ESI
Column name: Zorbax Eclipse Plus C18 2.1 mm x 150 mm, 3.5 um, Agilent
Retention time: 5.112 min
Precursor m/z: 291.1452
Precursor type: [M+H]+
m/z	relative intensity
39.0235	31
41.0262	86
43.0291	186
50.0157	22
51.0226	113
52.0185	113
53.0138	22
53.0388	22
54.0339	367
55.0182	18
55.0412	31
63.023	95
64.0315	22
65.0388	236
66.0218	18
66.0458	36
67.0288	45
67.0536	49
68.0238	49
68.0373	213
68.9971	49
69.0445	45
74.0154	31
75.0228	131
76.0166	22
76.0296	59
77.0388	722
78.0334	108
78.0462	54
79.029	108
79.0408	22
79.054	77
80.0366	22
80.0493	118
81.0452	830
82.0528	40
83.0479	177
88.0326	22
89.0386	399
90.034	236
91.0278	27
91.0402	54
91.0538	276
92.0496	204
93.0567	108
94.0426	72
94.0649	86
95.0508	22
96.0562	99
97.0619	31
99.0235	22
101.0394	172
102.0341	299
103.0287	40
103.0404	77
103.0547	154
104.0497	336
105.042	290
106.0432	122
106.0633	59
107.0476	63
107.0596	131
108.0548	90
109.0509	168
110.059	149
111.0674	27
113.0403	108
114.034	136
115.0547	372
116.0498	381
117.0459	581
118.0405	404
118.0636	81
119.0604	317
120.0549	163
121.0737	45
122.0703	27
123.0667	168
124.0748	59
126.0329	40
127.0434	95
128.0501	263
129.0448	254
130.0396	104
130.0645	145
131.0572	267
132.0545	140
133.0282	22
133.0637	95
134.0528	22
134.0733	131
135.0669	508
139.0408	18
140.0502	240
141.0448	95
142.0533	158
143.0625	81
144.0558	781
145.0392	22
145.0551	31
145.0765	77
146.0691	149
147.0663	267
148.0379	22
148.0757	77
149.0846	90
153.0457	59
154.041	22
155.0604	113
156.049	95
157.0764	27
158.0533	31
158.0718	77
159.0432	18
159.0673	40
160.0651	18
160.0771	63
161.0831	999
162.0943	27
167.056	22
168.0571	86
170.0705	77
171.0572	77
172.0497	81
172.074	54
173.0804	45
175.0621	54
175.0983	27
176.0671	22
184.052	22
184.0767	40
185.0818	140
186.0359	18
186.0684	27
187.0477	27
189.0766	68
196.0563	27
198.0925	22
199.064	22
201.0778	40
203.0979	27
213.0742	45
229.0702	31
231.0836	31
