Mass spectrum: Warfarin; LC-ESI-QTOF; MS2; 80 V
Name: Warfarin
Class: Pesticide; Biocide; Rodenticide
Formula: C19H16O4
Exact mass: 308.1049
SMILES: CC(=O)CC(C1=CC=CC=C1)C2=C(C3=CC=CC=C3OC2=O)O
InChI: InChI=1S/C19H16O4/c1-12(20)11-15(13-7-3-2-4-8-13)17-18(21)14-9-5-6-10-16(14)23-19(17)22/h2-10,15,21H,11H2,1H3
Instrument: TripleTOF 6600 SCIEX
Instrument type: LC-ESI-QTOF
Ms type: MS2
Ion mode: NEGATIVE
Collision energy: 80
Fragmentation mode: CID
Ionization: ESI
Column name: Zorbax Eclipse Plus C18 2.1 mm x 150 mm, 3.5 um, Agilent
Retention time: 11.631 min
Precursor m/z: 307.0976
Precursor type: [M-H]-
m/z	relative intensity
41.0025	850
57.0332	524
65.0382	21
83.0144	17
89.0384	38
92.0253	113
93.0332	95
101.038	99
115.0561	31
117.0338	999
119.0494	24
130.0423	24
141.0697	17
143.0505	38
161.0231	21
165.0725	35
193.0635	70
205.0727	14
219.0811	28
221.0625	21
250.0597	56
