Mass spectrum: Prednisolone; LC-ESI-QTOF; MS2; 120 V
Name: Prednisolone
Class: Pharmaceutical
Formula: C21H28O5
Exact mass: 360.1937
SMILES: C[C@]12C[C@H](O)[C@H]3[C@@H](CCC4=CC(=O)C=C[C@]34C)[C@@H]1CC[C@]2(O)C(=O)CO
InChI: InChI=1S/C21H28O5/c1-19-7-5-13(23)9-12(19)3-4-14-15-6-8-21(26,17(25)11-22)20(15,2)10-16(24)18(14)19/h5,7,9,14-16,18,22,24,26H,3-4,6,8,10-11H2,1-2H3/t14-,15-,16-,18+,19-,20-,21-/m0/s1
Instrument: TripleTOF 5600 SCIEX
Instrument type: LC-ESI-QTOF
Ms type: MS2
Ion mode: POSITIVE
Collision energy: 120
Fragmentation mode: CID
Ionization: ESI
Column name: Zorbax Eclipse Plus C18 2.1 mm x 150 mm, 3.5 um, Agilent
Retention time: 8.432 min
Precursor m/z: 361.201
Precursor type: [M+H]+
m/z	relative intensity
55.0587	18
65.0433	249
67.0582	18
77.0417	999
78.0483	117
79.0574	103
89.0405	84
91.0563	626
93.0698	23
101.039	23
102.0475	117
103.055	202
104.0617	51
105.0687	37
107.0504	47
115.0542	838
116.0621	47
117.0701	42
121.0652	98
126.0473	47
127.0541	245
128.0625	607
129.0695	98
131.0486	197
132.0553	47
139.0553	98
140.0643	32
141.07	141
144.0582	32
150.0456	51
151.055	150
152.0626	409
153.0716	84
157.0643	65
163.0544	56
164.0615	89
165.0703	475
168.0611	28
176.0624	98
177.071	70
178.078	212
179.0849	42
181.0652	75
187.0535	32
188.0649	47
189.0701	292
190.0764	47
191.085	42
194.0735	32
200.0629	37
201.0675	51
202.0793	202
203.0871	23
213.0727	51
215.0842	75
226.0746	28
