Mass spectrum: Medroxyprogesterone-17-acetate; LC-ESI-QTOF; MS2; 40 V
Name: Medroxyprogesterone-17-acetate
Class: Pharmaceutical
Formula: C24H34O4
Exact mass: 386.2457
SMILES: CC1CC2C(CCC3(C2CCC3(C(=O)C)OC(=O)C)C)C4(C1=CC(=O)CC4)C
InChI: InChI=1S/C24H34O4/c1-14-12-18-19(22(4)9-6-17(27)13-21(14)22)7-10-23(5)20(18)8-11-24(23,15(2)25)28-16(3)26/h13-14,18-20H,6-12H2,1-5H3
Instrument: TripleTOF 5600 SCIEX
Instrument type: LC-ESI-QTOF
Ms type: MS2
Ion mode: POSITIVE
Collision energy: 40
Fragmentation mode: CID
Ionization: ESI
Column name: Zorbax Eclipse Plus C18 2.1 mm x 150 mm, 3.5 um, Agilent
Retention time: 13.723 min
Precursor m/z: 387.253
Precursor type: [M+H]+
m/z	relative intensity
43.0182	39
67.0545	31
69.0699	10
77.0387	19
79.0539	37
81.0704	31
83.0491	51
91.0548	45
93.0701	55
95.049	15
95.0857	77
97.0653	474
105.07	86
107.0856	51
109.0654	23
109.1019	34
111.0802	35
117.0689	23
119.0858	95
121.0656	17
121.1014	36
123.0811	999
129.0696	17
131.0856	60
133.1011	77
135.0811	19
135.117	23
137.096	142
142.0787	13
143.0855	55
145.1017	123
147.1169	123
149.0964	12
149.1324	15
155.0872	17
156.0938	19
157.1018	58
159.1178	93
161.096	14
161.1339	77
163.111	24
163.1479	17
169.1024	45
171.1171	96
173.0954	10
173.1338	155
175.1113	26
175.1488	191
177.1289	44
181.1036	14
182.1128	13
183.1165	38
185.1321	56
187.1124	20
187.1483	65
189.1283	43
189.1649	17
191.1416	33
193.1038	10
195.1172	21
197.133	73
199.1104	10
199.1481	84
201.1634	28
203.1452	37
203.1825	10
205.1594	60
209.1325	25
211.1484	54
213.1258	24
213.1624	17
214.1358	229
215.1439	83
217.1611	27
221.1328	12
223.1475	24
225.1629	66
227.1495	14
227.1801	66
229.1584	11
235.1491	13
237.1638	20
239.1451	13
239.1815	16
243.1771	16
245.1895	16
251.1803	67
257.1548	63
265.1918	36
266.2023	75
267.1737	10
267.2118	229
269.1923	56
283.2057	82
284.2164	74
285.2218	375
291.2139	28
303.2342	28
309.2223	150
327.2326	314
387.2535	162
