Mass spectrum: Bisoprolol; LC-ESI-QTOF; MS2; 70 V
Name: Bisoprolol
Class: Pharmaceutical
Formula: C18H31NO4
Exact mass: 325.2253
SMILES: CC(C)NCC(COC1=CC=C(C=C1)COCCOC(C)C)O
InChI: InChI=1S/C18H31NO4/c1-14(2)19-11-17(20)13-23-18-7-5-16(6-8-18)12-21-9-10-22-15(3)4/h5-8,14-15,17,19-20H,9-13H2,1-4H3
Instrument: TripleTOF 6600 SCIEX
Instrument type: LC-ESI-QTOF
Ms type: MS2
Ion mode: POSITIVE
Collision energy: 70
Fragmentation mode: CID
Ionization: ESI
Column name: Zorbax Eclipse Plus C18 2.1 mm x 150 mm, 3.5 um, Agilent
Retention time: 7.01 min
Precursor m/z: 326.2326
Precursor type: [M+H]+
m/z	relative intensity
30.0334	126
39.0223	88
41.0382	194
42.0338	16
43.0537	122
44.0483	34
45.0328	276
51.0222	27
55.0172	11
56.0487	526
57.033	14
58.0641	65
61.0067	26
62.0138	56
63.0218	259
65.0373	123
72.0799	62
74.0592	366
77.0376	505
78.0451	26
79.0531	228
84.079	18
89.0371	833
91.0528	511
98.0953	10
100.1096	13
103.0525	57
105.0443	17
105.0679	88
107.0476	999
115.0527	96
116.0604	12
116.1041	12
117.0685	16
119.0463	34
121.0631	42
127.0523	11
128.0609	10
133.062	31
145.0615	16
