Mass spectrum: Rifaximin; LC-ESI-QTOF; MS2; 110 V
Name: Rifaximin
Class: Pharmaceutical
Formula: C43H51N3O11
Exact mass: 785.3524
SMILES: CC1C=CC=C(C(=O)NC2=C(C3=C(C4=C(C(=C3O)C)OC(C4=O)(OC=CC(C(C(C(C(C(C1O)C)O)C)OC(=O)C)C)OC)C)C5=C2N6C=CC(=CC6=N5)C)O)C
InChI: InChI=1S/C43H51N3O11/c1-19-14-16-46-28(18-19)44-32-29-30-37(50)25(7)40-31(29)41(52)43(9,57-40)55-17-15-27(54-10)22(4)39(56-26(8)47)24(6)36(49)23(5)35(48)20(2)12-11-13-21(3)42(53)45-33(34(32)46)38(30)51/h11-18,20,22-24,27,35-36,39,48-51H,1-10H3,(H,45,53)
Instrument: TripleTOF 6600 SCIEX
Instrument type: LC-ESI-QTOF
Ms type: MS2
Ion mode: NEGATIVE
Collision energy: 110
Fragmentation mode: CID
Ionization: ESI
Column name: Zorbax Eclipse Plus C18 2.1 mm x 150 mm, 3.5 um, Agilent
Retention time: 11.765 min
Precursor m/z: 784.3451
Precursor type: [M-H]-
m/z	relative intensity
59.0112	15
121.0628	11
123.08	15
156.0544	10
233.0978	14
235.0743	31
241.0569	13
248.0785	17
249.0885	39
250.0946	30
258.1003	11
259.0845	19
261.0886	47
262.0719	32
262.0948	39
263.0713	66
272.0826	15
273.0912	17
274.0674	14
275.0788	42
276.0864	185
277.0824	277
278.0892	48
279.0751	15
286.0939	33
287.0788	25
288.0747	52
288.1092	25
289.0816	67
289.0933	30
290.0644	19
290.0894	97
291.0683	16
291.0986	74
292.082	13
292.1052	15
299.0805	19
300.0775	21
301.0861	50
302.09	32
303.0715	31
303.0973	21
304.0732	41
304.1042	157
305.0837	104
306.0838	205
307.0891	22
308.1001	34
313.0803	25
314.0634	11
314.0886	57
315.074	52
315.096	16
316.0704	102
316.1058	17
317.0766	98
318.088	29
319.0664	15
319.1015	67
320.0987	14
326.0902	10
328.0785	22
328.0999	12
329.0866	47
330.0846	478
331.0676	69
331.0931	30
332.0762	23
332.0997	327
333.0844	136
333.1073	61
334.0782	102
334.1129	30
340.1074	13
341.0817	10
342.0819	35
343.0688	44
343.0917	47
344.0707	35
344.1004	30
345.084	160
346.0805	72
347.0993	364
356.1031	31
357.0826	16
358.078	142
358.11	14
359.0863	441
360.0577	14
360.095	999
361.1014	76
362.1083	135
369.1075	14
370.0815	17
370.1145	13
371.096	37
372.0926	23
373.1039	28
374.1088	40
381.1125	11
383.096	11
383.1221	11
385.1105	15
386.0717	65
388.0863	57
393.1087	14
394.1116	17
395.0938	11
396.126	21
398.105	19
402.1001	13
408.1268	12
409.1059	19
410.105	16
410.1438	13
411.1269	19
412.1193	17
422.1102	13
423.1253	10
424.1217	13
426.1345	10
436.1219	13
438.1052	15
438.1316	15
452.1194	11
454.1317	52
