Mass spectrum: Metolachlor OA; LC-ESI-QTOF; MS2; 70 V
Name: Metolachlor OA
Class: Herbicide; Transformation_product-Metabolite
Formula: C15H21NO4
Exact mass: 279.1471
SMILES: CCC1=CC=CC(=C1N(C(C)COC)C(=O)C(=O)O)C
InChI: InChI=1S/C15H21NO4/c1-5-12-8-6-7-10(2)13(12)16(11(3)9-20-4)14(17)15(18)19/h6-8,11H,5,9H2,1-4H3,(H,18,19)
Instrument: TripleTOF 5600 SCIEX
Instrument type: LC-ESI-QTOF
Ms type: MS2
Ion mode: NEGATIVE
Collision energy: 70
Fragmentation mode: CID
Ionization: ESI
Column name: Zorbax Eclipse Plus C18 2.1 mm x 150 mm, 3.5 um, Agilent
Retention time: 9.915 min
Precursor m/z: 278.1398
Precursor type: [M-H]-
m/z	relative intensity
129.0578	999
130.0664	214
142.0683	178
143.0731	642
144.0822	999
156.0793	285
157.0882	107
157.0971	107
158.097	463
170.0963	71
172.1184	71
