Mass spectrum: L-Thyronine; LC-ESI-QTOF; MS2; 120 V
Name: L-Thyronine
Class: Pharmaceutical
Formula: C15H15NO4
Exact mass: 273.1001
SMILES: N[C@@H](Cc1ccc(Oc2ccc(O)cc2)cc1)C(O)=O
InChI: InChI=1S/C15H15NO4/c16-14(15(18)19)9-10-1-5-12(6-2-10)20-13-7-3-11(17)4-8-13/h1-8,14,17H,9,16H2,(H,18,19)/t14-/m0/s1
Instrument: TripleTOF 5600 SCIEX
Instrument type: LC-ESI-QTOF
Ms type: MS2
Ion mode: POSITIVE
Collision energy: 120
Fragmentation mode: CID
Ionization: ESI
Column name: Zorbax Eclipse Plus C18 2.1 mm x 150 mm, 3.5 um, Agilent
Retention time: 5.619 min
Precursor m/z: 274.1074
Precursor type: [M+H]+
m/z	relative intensity
37.007	120
38.0149	137
39.0228	327
50.0145	120
51.0227	361
53.0388	155
62.0148	103
63.0219	189
65.038	947
66.0474	103
75.0227	68
77.0385	585
78.0457	68
81.0343	189
89.0386	275
90.0472	189
91.0542	999
104.049	86
115.0525	137
117.0556	241
118.0654	172
126.0469	103
128.0615	86
139.0545	103
152.0621	103
163.0579	103
