Mass spectrum: Cyclopropyldiphenylsulfonium; LC-ESI-QTOF; MS2; 120 V
Name: Cyclopropyldiphenylsulfonium
Formula: [C15H15S]+
Exact mass: 227.0889
SMILES: C1CC1[S+](C2=CC=CC=C2)C3=CC=CC=C3
InChI: InChI=1S/C15H15S/c1-3-7-13(8-4-1)16(15-11-12-15)14-9-5-2-6-10-14/h1-10,15H,11-12H2/q+1
Instrument: TripleTOF 5600 SCIEX
Instrument type: LC-ESI-QTOF
Ms type: MS2
Ion mode: POSITIVE
Collision energy: 120
Fragmentation mode: CID
Ionization: ESI
Column name: Zorbax Eclipse Plus C18 2.1 mm x 150 mm, 3.5 um, Agilent
Retention time: 5.55 min
Precursor m/z: 227.0889
Precursor type: [M]+
m/z	relative intensity
37.0078	58
39.0235	189
49.0072	116
50.0148	772
51.0232	999
61.0071	65
62.0144	80
63.0222	204
65.0378	145
68.9782	240
74.0141	160
75.0227	94
76.029	58
77.0374	218
86.0131	72
87.0209	109
89.0366	226
91.0529	51
98.0135	94
102.0454	51
113.0367	94
114.0444	58
115.0515	138
126.0456	102
138.0461	72
139.0522	379
150.0482	116
151.0548	116
152.0616	94
