Mass spectrum: Sulfisoxazole; LC-ESI-QTOF; MS2; 40 V
Name: Sulfisoxazole
Class: Antimicrobial; Metabolite; Pharmaceutical
Formula: C11H13N3O3S
Exact mass: 267.0678
InChI: InChI=1S/C11H13N3O3S/c1-7-8(2)13-17-11(7)14-18(15,16)10-5-3-9(12)4-6-10/h3-6,14H,12H2,1-2H3
Instrument: TripleTOF 5600 SCIEX
Instrument type: LC-ESI-QTOF
Ms type: CID
Ion mode: NEGATIVE
Collision energy: 40
Ionization: ESI
Column name: Zorbax Eclipse Plus C18 2.1 mm x 150 mm, 3.5 um, Agilent
Retention time: 7.557 min
Precursor m/z: 266.0605
Precursor type: [M-H]-
m/z	relative intensity
41.9984	61
63.9621	180
78.973	96
79.981	119
91.0419	65
92.0503	111
107.0387	61
108.0466	84
156.0142	372
171.0241	999
221.0407	57
239.0499	511
266.0603	99
