Mass spectrum: Quinmerac; LC-ESI-QTOF; MS2; 130 V
Name: Quinmerac
Class: Herbicide
Formula: C11H8ClNO2
Exact mass: 221.0244
SMILES: Cc1cc2ccc(c(c2nc1)C(=O)O)Cl
InChI: InChI=1S/C11H8ClNO2/c1-6-4-7-2-3-8(12)9(11(14)15)10(7)13-5-6/h2-5H,1H3,(H,14,15)
Instrument: TripleTOF 6600 SCIEX
Instrument type: LC-ESI-QTOF
Ms type: MS2
Ion mode: POSITIVE
Collision energy: 130
Fragmentation mode: CID
Ionization: ESI
Column name: Zorbax Eclipse Plus C18 2.1 mm x 150 mm, 3.5 um, Agilent
Retention time: 7.013 min
Precursor m/z: 222.0316
Precursor type: [M+H]+
m/z	relative intensity
36	49
37.0073	144
38.0155	99
39.023	177
46.968	94
48.9841	55
49.0073	88
50.0151	149
51.0233	88
52.0187	27
59.9997	127
61.0073	893
62.0151	999
63.023	627
64.0182	83
65.0387	22
72.9839	105
73.0068	166
74.0154	394
75.0109	49
75.0229	72
76.0187	33
83.9996	77
85.0072	399
86.0148	582
87.0109	77
87.0226	288
88.0178	94
88.0308	72
89.039	33
97.0072	72
98.0154	144
99.0101	116
110.0019	27
110.0158	22
113.0381	105
114.0338	33
