Mass spectrum: 10,11-Dihydrocarbamazepine; LC-ESI-QTOF; MS2; 40 V
Name: 10,11-Dihydrocarbamazepine
Class: Pharmaceutical; Metabolite
Formula: C15H14N2O
Exact mass: 238.1106
SMILES: NC(=O)N1c2ccccc2CCc3ccccc13
InChI: InChI=1S/C15H14N2O/c16-15(18)17-13-7-3-1-5-11(13)9-10-12-6-2-4-8-14(12)17/h1-8H,9-10H2,(H2,16,18)
Instrument: TripleTOF 5600 SCIEX
Instrument type: LC-ESI-QTOF
Ms type: MS2
Ion mode: POSITIVE
Collision energy: 40
Fragmentation mode: CID
Ionization: ESI
Column name: Zorbax Eclipse Plus C18 2.1 mm x 150 mm, 3.5 um, Agilent
Retention time: 9.235 min
Precursor m/z: 239.1179
Precursor type: [M+H]+
m/z	relative intensity
65.0426	25
77.0415	15
91.0557	260
103.0542	11
116.0491	27
117.0571	21
118.0647	91
128.0484	19
151.0528	10
152.0619	31
165.0699	32
166.0643	29
167.0765	118
168.0799	24
177.0717	12
178.0745	48
179.0734	120
180.0808	632
181.0879	166
191.0731	13
192.0804	54
193.0879	188
194.0962	999
195.1017	11
196.1116	196
222.0907	93
239.1175	164
