Mass spectrum: Fluopyram; LC-ESI-QTOF; MS2; 110 V
Name: Fluopyram
Class: Fungicide
Formula: C16H11ClF6N2O
Exact mass: 396.0464
SMILES: C1=CC=C(C(=C1)C(=O)NCCC2=C(C=C(C=N2)C(F)(F)F)Cl)C(F)(F)F
InChI: InChI=1S/C16H11ClF6N2O/c17-12-7-9(15(18,19)20)8-25-13(12)5-6-24-14(26)10-3-1-2-4-11(10)16(21,22)23/h1-4,7-8H,5-6H2,(H,24,26)
Instrument: TripleTOF 6600 SCIEX
Instrument type: LC-ESI-QTOF
Ms type: MS2
Ion mode: POSITIVE
Collision energy: 110
Fragmentation mode: CID
Ionization: ESI
Column name: Zorbax Eclipse Plus C18 2.1 mm x 150 mm, 3.5 um, Agilent
Retention time: 12.765 min
Precursor m/z: 397.0537
Precursor type: [M+H]+
m/z	relative intensity
51.0043	38
57.0136	27
68.9944	99
73.0066	26
74.015	246
75.0211	999
76.0182	12
81.0133	29
95.0289	785
99.0033	81
101.0193	10
102.0335	42
104.0491	10
105.0118	12
108.9645	11
109.9792	15
119.0102	73
123.0357	109
125.0193	341
126.015	55
130.0387	19
145.0261	870
146.0201	35
152.0294	30
159.9761	15
172.0371	13
