Mass spectrum: Tramadol-N-oxide; LC-ESI-QTOF; MS2; 80 V
Name: Tramadol-N-oxide
Class: Pharmaceutical
Formula: C16H25NO3
Exact mass: 279.1834
SMILES: [O-][N+](C)(C)C[C@H]2CCCC[C@]2(O)c1cc(OC)ccc1
InChI: InChI=1S/C16H25NO3/c1-17(2,19)12-14-7-4-5-10-16(14,18)13-8-6-9-15(11-13)20-3/h6,8-9,11,14,18H,4-5,7,10,12H2,1-3H3/t14-,16+/m1/s1
Instrument: TripleTOF 5600 SCIEX
Instrument type: LC-ESI-QTOF
Ms type: MS2
Ion mode: POSITIVE
Collision energy: 80
Fragmentation mode: CID
Ionization: ESI
Column name: Zorbax Eclipse Plus C18 2.1 mm x 150 mm, 3.5 um, Agilent
Retention time: 6.334 min
Precursor m/z: 280.1907
Precursor type: [M+H]+
m/z	relative intensity
42.0441	55
43.0265	15
43.0524	12
44.0596	20
55.0599	41
56.0548	27
58.0713	292
64.0353	169
65.0432	178
66.0507	15
67.0578	24
70.0676	11
77.0418	999
78.0491	198
79.0562	56
84.0832	24
89.0405	28
91.0559	435
92.0272	559
94.0431	50
94.0656	45
102.0456	47
103.0546	71
105.0684	16
106.0418	20
107.0494	101
109.0639	16
115.0539	439
116.0619	98
117.0687	45
121.0644	137
126.0458	15
127.0534	99
128.0619	214
129.069	60
131.0486	41
135.0459	29
141.0705	29
144.0561	76
145.0639	25
153.0675	12
155.064	10
157.0647	11
158.073	11
159.082	18
