Mass spectrum: 6-Thioxanthine; LC-ESI-QTOF; MS2; 40 V
Name: 6-Thioxanthine
Class: Metabolite; Pharmaceutical
Formula: C5H4N4OS
Exact mass: 168.0106
InChI: InChI=1S/C5H4N4OS/c10-5-8-3-2(4(11)9-5)6-1-7-3/h1H,(H3,6,7,8,9,10,11)
Instrument: TripleTOF 5600 SCIEX
Instrument type: LC-ESI-QTOF
Ms type: CID
Ion mode: POSITIVE
Collision energy: 40
Ionization: ESI
Column name: Zorbax Eclipse Plus C18 2.1 mm x 150 mm, 3.5 um, Agilent
Retention time: 4.02 min
Precursor m/z: 169.0179
Precursor type: [M+H]+
m/z	relative intensity
69.9792	117
71.9979	97
81.0146	117
81.9805	235
96.9901	293
108.9884	156
123.9966	215
126.0157	274
135.0308	97
151.9927	999
169.0219	97
