Mass spectrum: Foramsulfuron; LC-ESI-QTOF; MS2; 90 V
Name: Foramsulfuron
Class: Herbicide
Formula: C17H20N6O7S
Exact mass: 452.1114
SMILES: CN(C)C(=O)C1=C(C=C(C=C1)NC=O)S(=O)(=O)NC(=O)NC2=NC(=CC(=N2)OC)OC
InChI: InChI=1S/C17H20N6O7S/c1-23(2)15(25)11-6-5-10(18-9-24)7-12(11)31(27,28)22-17(26)21-16-19-13(29-3)8-14(20-16)30-4/h5-9H,1-4H3,(H,18,24)(H2,19,20,21,22,26)
Instrument: TripleTOF 6600 SCIEX
Instrument type: LC-ESI-QTOF
Ms type: MS2
Ion mode: NEGATIVE
Collision energy: 90
Fragmentation mode: CID
Ionization: ESI
Column name: Zorbax Eclipse Plus C18 2.1 mm x 150 mm, 3.5 um, Agilent
Retention time: 8.823 min
Precursor m/z: 451.1041
Precursor type: [M-H]-
m/z	relative intensity
40.0071	15
41.015	35
41.9991	999
61.9702	35
64.0054	11
65.0148	94
65.9987	389
68.0141	15
77.9647	22
82.0175	13
88.0211	11
89.0252	24
90.0106	15
90.037	13
92.013	24
107.0127	197
116.0166	44
117.0467	38
118.0279	42
119.0346	13
122.0364	109
132.0357	22
133.0142	13
133.0418	17
139.0361	35
144.0571	26
145.042	42
154.0584	11
159.0188	11
196.0019	20
222.9859	11
224.9935	15
236.0085	15
