Mass spectrum: Hydrochlorothiazide; LC-ESI-QTOF; MS2; 90 V
Name: Hydrochlorothiazide
Class: Pharmaceutical
Formula: C7H8ClN3O4S2
Exact mass: 296.9645
InChI: InChI=1S/C7H8ClN3O4S2/c8-4-1-5-7(2-6(4)16(9,12)13)17(14,15)11-3-10-5/h1-2,10-11H,3H2,(H2,9,12,13)
Instrument: TripleTOF 5600 SCIEX
Instrument type: LC-ESI-QTOF
Ms type: CID
Ion mode: NEGATIVE
Collision energy: 90
Ionization: ESI
Column name: Zorbax Eclipse Plus C18 2.1 mm x 150 mm, 3.5 um, Agilent
Retention time: 5.446 min
Precursor m/z: 295.9572
Precursor type: [M-H]-
m/z	relative intensity
47.9709	81
61.9712	219
63.9627	373
77.9651	999
78.9737	56
115.0312	81
123.9949	97
178.9916	73
