Mass spectrum: Desethylterbuthylazine; LC-ESI-QTOF; MS2; 40 V
Name: Desethylterbuthylazine
Class: Herbicide; Transformation_product; Metabolite
Formula: C7H12ClN5
Exact mass: 201.0781
InChI: InChI=1S/C7H12ClN5/c1-7(2,3)13-6-11-4(8)10-5(9)12-6/h1-3H3,(H3,9,10,11,12,13)
Instrument: TripleTOF 6600 SCIEX
Instrument type: LC-ESI-QTOF
Ms type: CID
Ion mode: POSITIVE
Collision energy: 40
Ionization: ESI
Column name: Zorbax Eclipse Plus C18 2.1 mm x 150 mm, 3.5 um, Agilent
Retention time: 9.136 min
Precursor m/z: 202.0854
Precursor type: [M+H]+
m/z	relative intensity
41.0386	11
43.0296	257
57.0701	56
61.9794	105
68.0248	347
79.006	380
104.0012	450
110.0463	154
146.0231	999
