Mass spectrum: Acetaminophen; LC-ESI-QTOF; MS2; 40 V
Name: Acetaminophen
Class: Pharmaceutical
Formula: C8H9NO2
Exact mass: 151.0633
SMILES: CC(=O)NC1=CC=C(C=C1)O
InChI: InChI=1S/C8H9NO2/c1-6(10)9-7-2-4-8(11)5-3-7/h2-5,11H,1H3,(H,9,10)
Instrument: TripleTOF 5600 SCIEX
Instrument type: LC-ESI-QTOF
Ms type: MS2
Ion mode: POSITIVE
Collision energy: 40
Fragmentation mode: CID
Ionization: ESI
Column name: Zorbax Eclipse Plus C18 2.1 mm x 150 mm, 3.5 um, Agilent
Retention time: 5.022 min
Precursor m/z: 152.0706
Precursor type: [M+H]+
m/z	relative intensity
43.0264	392
43.0535	18
65.0431	999
67.0478	37
67.0597	18
80.0514	67
81.0622	15
82.0686	56
92.0504	260
93.0349	539
93.0587	101
109.0527	109
110.0605	867
134.0589	26
152.0707	33
