Mass spectrum: 3-Hydroxyacetaminophen; LC-ESI-QTOF; MS2; 140 V
Name: 3-Hydroxyacetaminophen
Class: Pharmaceutical; Transformation_product
Formula: C8H9NO3
Exact mass: 167.0582
SMILES: CC(=O)Nc1ccc(O)c(O)c1
InChI: InChI=1S/C8H9NO3/c1-5(10)9-6-2-3-7(11)8(12)4-6/h2-4,11-12H,1H3,(H,9,10)
Instrument: TripleTOF 5600 SCIEX
Instrument type: LC-ESI-QTOF
Ms type: MS2
Ion mode: POSITIVE
Collision energy: 140
Fragmentation mode: CID
Ionization: ESI
Column name: Zorbax Eclipse Plus C18 2.1 mm x 150 mm, 3.5 um, Agilent
Retention time: 4.471 min
Precursor m/z: 168.0655
Precursor type: [M+H]+
m/z	relative intensity
40.0269	92
42.0176	19
42.0423	77
43.0272	999
44.0213	92
51.029	505
52.0248	539
53.0083	363
53.0424	24
54.0396	32
55.0221	18
60.0042	389
61.0464	58
62.0505	48
