Mass spectrum: threo-Dihydrobupropion; LC-ESI-QTOF; MS2; 130 V
Name: threo-Dihydrobupropion
Class: Pharmaceutical; Metabolite
Formula: C13H20ClNO
Exact mass: 241.1233
SMILES: CC(C(c1cccc(c1)Cl)O)NC(C)(C)C
InChI: InChI=1S/C13H20ClNO/c1-9(15-13(2,3)4)12(16)10-6-5-7-11(14)8-10/h5-9,12,15-16H,1-4H3
Instrument: TripleTOF 5600 SCIEX
Instrument type: LC-ESI-QTOF
Ms type: MS2
Ion mode: POSITIVE
Collision energy: 130
Fragmentation mode: CID
Ionization: ESI
Column name: Zorbax Eclipse Plus C18 2.1 mm x 150 mm, 3.5 um, Agilent
Retention time: 6.626 min
Precursor m/z: 242.1306
Precursor type: [M+H]+
m/z	relative intensity
42.0427	170
57.0764	131
58.0693	105
65.0428	315
72.9862	105
73.0086	65
74.0182	381
75.0275	249
77.0403	78
86.0168	78
89.04	999
90.0478	92
115.0548	486
