Mass spectrum: Sudan I; LC-ESI-QTOF; MS2; 100 V
Name: Sudan I
Formula: C16H12N2O
Exact mass: 248.095
SMILES: C1=CC=C(C=C1)N=NC2=C(C=CC3=CC=CC=C32)O
InChI: InChI=1S/C16H12N2O/c19-15-11-10-12-6-4-5-9-14(12)16(15)18-17-13-7-2-1-3-8-13/h1-11,19H
Instrument: TripleTOF 6600 SCIEX
Instrument type: LC-ESI-QTOF
Ms type: MS2
Ion mode: POSITIVE
Collision energy: 100
Fragmentation mode: CID
Ionization: ESI
Column name: Zorbax Eclipse Plus C18 2.1 mm x 150 mm, 3.5 um, Agilent
Retention time: 15.674 min
Precursor m/z: 249.1023
Precursor type: [M+H]+
m/z	relative intensity
37.008	49
38.0152	49
39.0232	341
40.0306	49
41.0261	32
42.0343	23
49.0072	16
50.015	214
51.023	564
52.0183	70
54.0339	83
62.0159	11
63.0242	14
65.0384	742
66.0341	16
66.0465	519
67.0418	33
73.0074	60
74.0151	862
75.0096	11
75.0227	999
76.0176	111
76.0314	24
77.0386	255
78.033	114
92.0493	367
93.0577	345
98.0156	18
99.0103	11
99.0226	12
101.0379	16
102.0334	13
126.048	20
129.0466	12
150.0464	29
151.0551	17
152.0613	9
163.058	12
174.0496	14
176.0639	19
201.057	22
202.0672	12
