Mass spectrum: Prochloraz; LC-ESI-QTOF; MS2; 120 V
Name: Prochloraz
Class: Fungicide
Formula: C15H16Cl3N3O2
Exact mass: 375.0308
SMILES: CCCN(CCOc1c(cc(cc1Cl)Cl)Cl)C(=O)n2ccnc2
InChI: InChI=1S/C15H16Cl3N3O2/c1-2-4-20(15(22)21-5-3-19-10-21)6-7-23-14-12(17)8-11(16)9-13(14)18/h3,5,8-10H,2,4,6-7H2,1H3
Instrument: TripleTOF 6600 SCIEX
Instrument type: LC-ESI-QTOF
Ms type: MS2
Ion mode: POSITIVE
Collision energy: 120
Fragmentation mode: CID
Ionization: ESI
Column name: Zorbax Eclipse Plus C18 2.1 mm x 150 mm, 3.5 um, Agilent
Retention time: 11.258 min
Precursor m/z: 376.0381
Precursor type: [M+H]+
m/z	relative intensity
37.0074	73
38.0034	63
38.0155	52
39.0232	347
41.0384	357
42.0339	283
43.0543	94
56.0486	105
61.0071	42
62.0148	136
63.0229	199
70.0293	115
70.0648	126
71.9757	105
72.9843	420
73.0077	105
74.0151	178
82.9448	609
89.0385	262
95.9758	63
96.9833	262
98.9998	126
106.9442	567
107.9758	999
108.9837	294
122.9992	63
125.0154	73
132.9595	63
144.9608	52
166.9198	84
