Mass spectrum: Propiconazole; LC-ESI-QTOF; MS2; 80 V
Name: Propiconazole
Class: Fungicide
Formula: C15H17Cl2N3O2
Exact mass: 341.0698
SMILES: CCCC1COC(Cn2cncn2)(O1)c3ccc(Cl)cc3Cl
InChI: InChI=1S/C15H17Cl2N3O2/c1-2-3-12-7-21-15(22-12,8-20-10-18-9-19-20)13-5-4-11(16)6-14(13)17/h4-6,9-10,12H,2-3,7-8H2,1H3
Instrument: TripleTOF 5600 SCIEX
Instrument type: LC-ESI-QTOF
Ms type: MS2
Ion mode: POSITIVE
Collision energy: 80
Fragmentation mode: CID
Ionization: ESI
Column name: Zorbax Eclipse Plus C18 2.1 mm x 150 mm, 3.5 um, Agilent
Retention time: 13.45 min
Precursor m/z: 342.0771
Precursor type: [M+H]+
m/z	relative intensity
69.0733	17
70.0431	24
72.9872	57
74.0184	15
88.032	10
89.0412	262
96.9848	28
99.0009	123
108.9839	72
110.9987	12
123.0003	489
124.0075	176
132.9604	84
144.9603	138
158.9767	999
172.9605	89
