Mass spectrum: 3,3`-Dichlorobenzidine; LC-ESI-QTOF; MS2; 110 V
Name: 3,3`-Dichlorobenzidine
Formula: C12H10Cl2N2
Exact mass: 252.0221
SMILES: C1=CC(=C(C=C1C2=CC(=C(C=C2)N)Cl)Cl)N
InChI: InChI=1S/C12H10Cl2N2/c13-9-5-7(1-3-11(9)15)8-2-4-12(16)10(14)6-8/h1-6H,15-16H2
Instrument: TripleTOF 6600 SCIEX
Instrument type: LC-ESI-QTOF
Ms type: MS2
Ion mode: POSITIVE
Collision energy: 110
Fragmentation mode: CID
Ionization: ESI
Column name: Zorbax Eclipse Plus C18 2.1 mm x 150 mm, 3.5 um, Agilent
Retention time: 11.426 min
Precursor m/z: 253.0294
Precursor type: [M+H]+
m/z	relative intensity
37.0079	14
38.0153	14
39.0239	55
50.0152	76
51.0233	341
52.0186	35
60.0002	14
61.0079	55
62.0156	162
63.0233	344
65.0403	32
73.0072	35
74.0152	427
75.0231	580
76.03	91
77.0385	999
78.0357	14
78.0463	26
85.007	76
86.0155	303
87.0228	232
88.0308	88
89.0386	176
90.0329	17
93.0551	11
98.0148	185
99.0217	179
100.0178	14
100.0292	29
101.0382	244
102.0347	14
102.0461	135
103.0566	64
104.0513	20
105.0459	11
109.0073	20
110.016	44
111.0216	67
112.022	14
113.0383	106
114.034	17
114.0444	17
115.0534	23
117.0579	14
122.0173	23
125.0384	61
126.0461	556
127.0541	306
128.0495	91
128.0673	11
129.0455	44
130.0643	29
137.04	277
138.0318	14
138.0478	44
139.0555	73
140.0492	38
151.0414	20
152.0491	91
153.0585	67
154.0471	17
154.0654	73
155.0607	29
164.0503	50
179.0593	29
