Mass spectrum: Benzophenone-3; LC-ESI-QTOF; MS2; 40 V
Name: Benzophenone-3
Class: Personal_care_product
Formula: C14H12O3
Exact mass: 228.0786
SMILES: COc1ccc(c(O)c1)C(=O)c2ccccc2
InChI: InChI=1S/C14H12O3/c1-17-11-7-8-12(13(15)9-11)14(16)10-5-3-2-4-6-10/h2-9,15H,1H3
Instrument: TripleTOF 5600 SCIEX
Instrument type: LC-ESI-QTOF
Ms type: CID
Ion mode: POSITIVE
Collision energy: 40
Ionization: ESI
Column name: Zorbax Eclipse Plus C18 2.1 mm x 150 mm, 3.5 um, Agilent
Retention time: 13.504 min
Precursor m/z: 229.0859
Precursor type: [M+H]+
m/z	relative intensity
52.0362	16
65.0428	79
67.0569	29
77.0417	471
80.0282	43
93.0347	14
95.0504	296
105.0339	380
108.0203	120
123.043	50
139.0539	17
151.0387	999
168.0578	13
229.0851	59
