Mass spectrum: Moxidectin; LC-ESI-QTOF; MS2; 20 V
Name: Moxidectin
Class: Pharmaceutical; Insecticide
Formula: C37H53NO8
Exact mass: 639.3771
SMILES: C[C@@H]\1C/C(=C/C[C@@H]2C[C@@H](C[C@@]3(O2)C/C(=N\OC)/[C@@H]([C@H](O3)/C(=C/C(C)C)/C)C)OC(=O)[C@@H]4C=C([C@H]([C@@H]5[C@]4(/C(=C/C=C1)/CO5)O)O)C)/C
InChI: InChI=1S/C37H53NO8/c1-21(2)14-25(6)33-26(7)31(38-42-8)19-36(46-33)18-29-17-28(45-36)13-12-23(4)15-22(3)10-9-11-27-20-43-34-32(39)24(5)16-30(35(40)44-29)37(27,34)41/h9-12,14,16,21-22,26,28-30,32-34,39,41H,13,15,17-20H2,1-8H3/b10-9+,23-12+,25-14+,27-11+,38-31+/t22-,26-,28+,29-,30-,32+,33+,34+,36-,37+/m0/s1
Instrument: TripleTOF 5600 SCIEX
Instrument type: LC-ESI-QTOF
Ms type: MS2
Ion mode: POSITIVE
Collision energy: 20
Fragmentation mode: CID
Ionization: ESI
Column name: Zorbax Eclipse Plus C18 2.1 mm x 150 mm, 3.5 um, Agilent
Retention time: 18.457 min
Precursor m/z: 640.3844
Precursor type: [M+H]+
m/z	relative intensity
164.1426	33
166.1606	26
196.1699	79
199.1123	86
218.1537	59
416.2592	238
418.274	72
434.266	99
435.2764	39
436.2879	99
448.2878	224
460.2505	52
466.2997	92
478.2617	350
479.2706	46
496.2691	449
497.2787	198
498.2868	866
510.2859	112
528.2965	999
528.3481	33
560.3754	92
590.357	52
622.3791	251
640.3855	747
