Mass spectrum: Dimethachlor; LC-ESI-QTOF; MS2; 140 V
Name: Dimethachlor
Class: Herbicide
Formula: C13H18ClNO2
Exact mass: 255.1026
SMILES: CC1=C(C(=CC=C1)C)N(CCOC)C(=O)CCl
InChI: InChI=1S/C13H18ClNO2/c1-10-5-4-6-11(2)13(10)15(7-8-17-3)12(16)9-14/h4-6H,7-9H2,1-3H3
Instrument: TripleTOF 6600 SCIEX
Instrument type: LC-ESI-QTOF
Ms type: MS2
Ion mode: POSITIVE
Collision energy: 140
Fragmentation mode: CID
Ionization: ESI
Column name: Zorbax Eclipse Plus C18 2.1 mm x 150 mm, 3.5 um, Agilent
Retention time: 10.992 min
Precursor m/z: 256.1099
Precursor type: [M+H]+
m/z	relative intensity
37.0082	85
38.0159	73
39.0232	159
46.9682	110
47.975	24
48.9844	318
49.0074	140
50.0154	717
51.0234	999
52.0317	24
61.0073	61
62.0151	116
63.023	226
64.031	30
65.0393	98
74.0148	73
75.0226	36
77.0388	300
89.0385	306
90.0467	55
91.0535	55
103.0557	42
115.0532	30
117.0584	24
