Mass spectrum: Hydrocortisone; LC-ESI-QTOF; MS2; 90 V
Name: Hydrocortisone
Class: Pharmaceutical
Formula: C21H30O5
Exact mass: 362.2093
SMILES: C[C@]12CCC(=O)C=C1CC[C@H]3[C@@H]4CC[C@](O)(C(=O)CO)[C@@]4(C)C[C@H](O)[C@H]23
InChI: InChI=1S/C21H30O5/c1-19-7-5-13(23)9-12(19)3-4-14-15-6-8-21(26,17(25)11-22)20(15,2)10-16(24)18(14)19/h9,14-16,18,22,24,26H,3-8,10-11H2,1-2H3/t14-,15-,16-,18+,19-,20-,21-/m0/s1
Instrument: TripleTOF 5600 SCIEX
Instrument type: LC-ESI-QTOF
Ms type: MS2
Ion mode: POSITIVE
Collision energy: 90
Fragmentation mode: CID
Ionization: ESI
Column name: Zorbax Eclipse Plus C18 2.1 mm x 150 mm, 3.5 um, Agilent
Retention time: 8.323 min
Precursor m/z: 363.2166
Precursor type: [M+H]+
m/z	relative intensity
43.0279	65
43.0553	11
51.029	35
53.0438	14
55.0218	14
55.0603	44
65.0426	116
67.0557	137
69.0751	11
77.0409	747
77.0801	17
78.0489	38
79.0559	320
81.0726	71
83.0502	47
89.0401	11
91.0553	999
91.0908	23
93.0717	92
94.0429	14
95.0874	26
97.0641	116
102.0447	23
103.0539	164
103.0699	11
104.0607	35
105.0435	11
105.0694	391
105.0962	17
107.0491	44
107.0837	11
109.0643	47
115.0536	571
115.0835	29
116.0605	104
117.0694	197
119.0842	104
121.0631	203
123.0789	47
126.0466	14
127.0532	167
128.0613	705
129.0687	334
130.0777	71
131.0457	20
131.084	104
132.0567	11
133.0633	47
139.0547	14
141.0689	373
141.0987	14
142.0759	134
143.0859	65
144.0562	23
145.0647	23
145.0993	38
147.0801	41
148.0844	23
151.0546	29
152.061	203
153.0688	266
154.0754	50
154.0861	14
155.084	107
156.094	20
157.0629	32
157.0985	20
159.0786	17
165.0682	337
166.0769	50
166.0914	11
167.0849	110
168.0928	17
169.0646	23
169.1009	32
171.0754	14
177.0686	17
178.0764	161
179.0847	80
180.0933	29
181.0993	32
183.0745	17
183.1181	14
189.0687	44
190.0782	44
191.0836	53
192.0939	26
193.1004	20
202.0722	29
203.0855	14
205.0955	11
208.0885	14
215.0848	26
