Mass spectrum: Haloxyfop-methyl; LC-ESI-QTOF; MS2; 150 V
Name: Haloxyfop-methyl
Class: Herbicide
Formula: C16H13ClF3NO4
Exact mass: 375.0485
InChI: InChI=1S/C16H13ClF3NO4/c1-9(15(22)23-2)24-11-3-5-12(6-4-11)25-14-13(17)7-10(8-21-14)16(18,19)20/h3-9H,1-2H3
Instrument: TripleTOF 5600 SCIEX
Instrument type: LC-ESI-QTOF
Ms type: CID
Ion mode: POSITIVE
Collision energy: 150
Ionization: ESI
Column name: Zorbax Eclipse Plus C18 2.1 mm x 150 mm, 3.5 um, Agilent
Retention time: 14.891 min
Precursor m/z: 376.0558
Precursor type: [M+H]+
m/z	relative intensity
65.0427	420
74.0173	999
75.0207	683
77.0415	262
113.0377	210
