Mass spectrum: Mefenpyr-diethyl; LC-ESI-QTOF; MS2; 50 V
Name: Mefenpyr-diethyl
Class: Herbicide
Formula: C16H18Cl2N2O4
Exact mass: 372.0644
SMILES: CCOC(=O)C1=NN(C(C1)(C)C(=O)OCC)C2=C(C=C(C=C2)Cl)Cl
InChI: InChI=1S/C16H18Cl2N2O4/c1-4-23-14(21)12-9-16(3,15(22)24-5-2)20(19-12)13-7-6-10(17)8-11(13)18/h6-8H,4-5,9H2,1-3H3
Instrument: TripleTOF 5600 SCIEX
Instrument type: LC-ESI-QTOF
Ms type: MS2
Ion mode: POSITIVE
Collision energy: 50
Fragmentation mode: CID
Ionization: ESI
Column name: Zorbax Eclipse Plus C18 2.1 mm x 150 mm, 3.5 um, Agilent
Retention time: 14.581 min
Precursor m/z: 373.0716
Precursor type: [M+H]+
m/z	relative intensity
99.002	14
108.9855	41
123.9969	20
125.0047	14
132.9618	427
144.9619	429
151.0185	11
159.9723	999
160.9805	54
163.0201	18
164.026	19
165.0347	26
172.9672	312
173.9882	24
183.9715	13
184.9673	21
185.9873	631
189.0215	50
190.0293	95
191.0374	11
192.0449	20
197.9883	11
218.0264	17
224.9965	39
226.0053	18
227.0135	46
243.0089	13
252.9933	427
298.9991	205
327.0305	52
