Mass spectrum: 6`-Hydroxymethyl Simvastatin; LC-ESI-QTOF; MS2; 80 V
Name: 6`-Hydroxymethyl Simvastatin
Class: Metabolite; Pharmaceutical
Formula: C25H38O6
Exact mass: 434.2668
SMILES: CCC(C)(C)C(=O)OC1CC(C=C2C1C(C(C=C2)C)CCC3CC(CC(=O)O3)O)CO
InChI: InChI=1S/C25H38O6/c1-5-25(3,4)24(29)31-21-11-16(14-26)10-17-7-6-15(2)20(23(17)21)9-8-19-12-18(27)13-22(28)30-19/h6-7,10,15-16,18-21,23,26-27H,5,8-9,11-14H2,1-4H3
Instrument: TripleTOF 5600 SCIEX
Instrument type: LC-ESI-QTOF
Ms type: MS2
Ion mode: POSITIVE
Collision energy: 80
Fragmentation mode: CID
Ionization: ESI
Column name: Zorbax Eclipse Plus C18 2.1 mm x 150 mm, 3.5 um, Agilent
Retention time: 10.786 min
Precursor m/z: 435.2741
Precursor type: [M+H]+
m/z	relative intensity
77.0439	138
79.0596	249
91.0593	277
105.073	194
115.0575	249
127.0583	222
128.0618	666
129.0717	499
131.0851	111
141.0709	999
142.0799	888
143.0868	499
152.0664	138
153.0722	860
154.078	471
155.0854	693
156.0944	804
157.0999	166
165.0712	666
166.0771	277
167.0856	804
168.0901	194
169.1007	610
171.1179	277
178.079	277
179.0845	638
180.0942	249
181.0987	166
181.1094	194
182.1098	360
191.0842	194
193.1006	305
195.1189	249
197.1304	166
205.1009	222
217.1025	277
