Mass spectrum: Amido Black 10B; LC-ESI-QTOF; MS2; 50 V
Name: Amido Black 10B
Formula: C22H16N6O9S2
Exact mass: 572.042
SMILES: C1=CC=C(C=C1)N=NC2=C(C3=C(C(=C(C=C3C=C2S(=O)(=O)O)S(=O)(=O)O)N=NC4=CC=C(C=C4)[N+](=O)[O-])N)O
InChI: InChI=1S/C22H16N6O9S2/c23-19-18-12(11-17(39(35,36)37)21(22(18)29)27-24-13-4-2-1-3-5-13)10-16(38(32,33)34)20(19)26-25-14-6-8-15(9-7-14)28(30)31/h1-11,29H,23H2,(H,32,33,34)(H,35,36,37)
Instrument: TripleTOF 6600 SCIEX
Instrument type: LC-ESI-QTOF
Ms type: MS2
Ion mode: POSITIVE
Collision energy: 50
Fragmentation mode: CID
Ionization: ESI
Column name: Zorbax Eclipse Plus C18 2.1 mm x 150 mm, 3.5 um, Agilent
Retention time: 9.552 min
Precursor m/z: 573.0493
Precursor type: [M+H]+
m/z	relative intensity
65.038	102
66.0457	24
77.0379	25
80.0489	16
92.0489	671
93.057	999
108.0439	34
122.0228	65
150.029	169
173.0329	50
185.0342	37
200.0473	9
201.0289	119
205.0782	18
231.078	19
232.0845	70
244.0692	12
249.0869	16
251.0146	9
259.0706	31
260.0813	106
261.0867	75
262.0845	10
270.0546	35
271.0598	80
272.0708	24
273.0785	12
275.0386	10
275.0922	16
276.0985	21
277.0043	26
287.0569	79
288.0628	16
289.0688	20
292.0955	16
300.0506	10
301.0603	258
306.0726	53
308.1064	11
313.0441	13
316.0478	130
317.0548	330
318.056	10
320.1037	11
334.0537	20
334.0962	27
335.1067	32
336.1062	16
337.1116	10
340.0384	54
341.0462	202
346.1089	73
347.1177	41
352.0237	32
355.0472	15
362.1024	168
363.1123	96
364.1187	82
365.1285	19
366.0256	12
370.0356	19
381.1216	31
382.0219	171
386.0052	12
387.04	23
391.0984	14
392.1066	26
398.02	238
399.0291	25
402.9796	284
408.0966	15
409.104	12
410.1152	18
411.1234	24
416.0703	10
426.0698	84
427.0756	86
427.1171	22
428.0702	15
429.9894	24
444.075	132
445.0826	12
451.0092	17
456.0649	22
474.0755	10
490.0706	13
