Mass spectrum: Tributylpentylammonium; LC-ESI-QTOF; MS2; 50 V
Name: Tributylpentylammonium
Formula: C17H38N
Exact mass: 256.2999
SMILES: CCCCC[N+](CCCC)(CCCC)CCCC
InChI: InChI=1S/C17H38N/c1-5-9-13-17-18(14-10-6-2,15-11-7-3)16-12-8-4/h5-17H2,1-4H3/q+1
Instrument: TripleTOF 6600 SCIEX
Instrument type: LC-ESI-QTOF
Ms type: CID
Ion mode: POSITIVE
Collision energy: 50
Ionization: ESI
Column name: Zorbax Eclipse Plus C18 2.1 mm x 150 mm, 3.5 um, Agilent
Retention time: 9.57 min
Precursor m/z: 256.2999
Precursor type: [M]+
m/z	relative intensity
41.0431	77
43.0586	55
44.0539	54
57.0739	87
58.0693	674
100.1144	999
114.1294	177
142.1607	236
156.1761	144
