Mass spectrum: 3,5-Diacetamidobenzoic acid; LC-ESI-QTOF; MS2; 60 V
Name: 3,5-Diacetamidobenzoic acid
Class: Pharmaceutical
Formula: C11H12N2O4
Exact mass: 236.0797
SMILES: CC(=O)NC1=CC(=CC(=C1)C(=O)O)NC(=O)C
InChI: InChI=1S/C11H12N2O4/c1-6(14)12-9-3-8(11(16)17)4-10(5-9)13-7(2)15/h3-5H,1-2H3,(H,12,14)(H,13,15)(H,16,17)
Instrument: TripleTOF 5600 SCIEX
Instrument type: LC-ESI-QTOF
Ms type: MS2
Ion mode: POSITIVE
Collision energy: 60
Fragmentation mode: CID
Ionization: ESI
Column name: Zorbax Eclipse Plus C18 2.1 mm x 150 mm, 3.5 um, Agilent
Retention time: 5.221 min
Precursor m/z: 237.087
Precursor type: [M+H]+
m/z	relative intensity
43.0285	74
43.0375	54
65.0454	539
66.0401	108
67.0336	33
67.0437	27
80.0547	762
90.0412	33
92.0528	924
93.06	87
107.0626	999
108.0482	80
108.0705	182
109.078	263
135.0556	155
149.0702	47
