Mass spectrum: Phenylbutazone; LC-ESI-QTOF; MS2; 50 V
Name: Phenylbutazone
Class: Pharmaceutical
Formula: C19H20N2O2
Exact mass: 308.1525
SMILES: CCCCC1C(=O)N(N(C1=O)C2=CC=CC=C2)C3=CC=CC=C3
InChI: InChI=1S/C19H20N2O2/c1-2-3-14-17-18(22)20(15-10-6-4-7-11-15)21(19(17)23)16-12-8-5-9-13-16/h4-13,17H,2-3,14H2,1H3
Instrument: TripleTOF 5600 SCIEX
Instrument type: LC-ESI-QTOF
Ms type: MS2
Ion mode: POSITIVE
Collision energy: 50
Fragmentation mode: CID
Ionization: ESI
Column name: Zorbax Eclipse Plus C18 2.1 mm x 150 mm, 3.5 um, Agilent
Retention time: 13.103 min
Precursor m/z: 309.1598
Precursor type: [M+H]+
m/z	relative intensity
55.0286	38
69.0774	36
77.0455	999
79.0599	33
91.0589	36
92.0542	829
93.0376	45
93.0607	144
94.0451	22
94.0694	394
95.0534	25
97.0679	11
104.0525	175
105.0373	62
105.0601	15
106.034	17
106.0683	241
107.0513	10
115.0546	17
116.0531	10
117.06	61
118.0669	83
119.0755	21
120.0463	291
120.0832	20
128.0512	58
130.0671	92
131.0767	21
132.0468	251
132.0796	34
133.0536	273
134.0603	46
143.0754	24
144.0446	23
144.0824	30
145.0889	27
146.0608	133
148.1142	15
156.0842	10
159.0687	16
160.0744	13
160.1128	88
162.129	24
166.0651	73
167.0749	32
168.0831	24
169.088	15
174.0566	34
181.0762	20
182.0852	132
183.095	12
188.107	18
194.0631	31
206.0859	16
207.0912	49
208.1034	12
211.0869	67
233.1055	15
