Mass spectrum: Thioridazine; LC-ESI-QTOF; MS2; 100 V
Name: Thioridazine
Class: Pharmaceutical
Formula: C21H26N2S2
Exact mass: 370.1537
SMILES: CN1CCCCC1CCN2C3=CC=CC=C3SC4=C2C=C(C=C4)SC
InChI: InChI=1S/C21H26N2S2/c1-22-13-6-5-7-16(22)12-14-23-18-8-3-4-9-20(18)25-21-11-10-17(24-2)15-19(21)23/h3-4,8-11,15-16H,5-7,12-14H2,1-2H3
Instrument: TripleTOF 5600 SCIEX
Instrument type: LC-ESI-QTOF
Ms type: MS2
Ion mode: POSITIVE
Collision energy: 100
Fragmentation mode: CID
Ionization: ESI
Column name: Zorbax Eclipse Plus C18 2.1 mm x 150 mm, 3.5 um, Agilent
Retention time: 9.472 min
Precursor m/z: 371.161
Precursor type: [M+H]+
m/z	relative intensity
42.0436	150
44.0579	38
55.0604	75
57.0608	12
58.0709	130
67.0572	25
68.0533	105
70.0699	747
82.0665	45
83.0751	37
84.0823	48
96.082	43
98.0982	944
115.0533	32
126.0467	18
126.1275	43
127.054	12
128.0483	12
139.0543	195
140.0521	72
150.0459	32
151.0542	128
152.0569	78
153.0566	100
154.065	45
164.0504	18
165.0593	12
166.0653	258
167.0735	999
171.0279	28
177.0571	74
178.0653	270
179.0722	101
180.0804	18
183.0258	31
184.0323	18
185.0328	16
186.0372	56
191.0725	12
196.0226	17
197.0312	26
198.037	58
199.0458	35
203.073	10
204.0815	39
208.0272	14
209.0289	76
210.0376	129
211.0452	106
222.0373	10
223.0428	13
242.0074	16
