Mass spectrum: Voriconazole-N-oxide; LC-ESI-QTOF; MS2; 60 V
Name: Voriconazole-N-oxide
Class: Metabolite; Pharmaceutical
Formula: C16H14F3N5O2
Exact mass: 365.11
SMILES: CC(C1=NC=[N+](C=C1F)[O-])C(CN2C=NC=N2)(C3=C(C=C(C=C3)F)F)O
InChI: InChI=1S/C16H14F3N5O2/c1-10(15-14(19)5-24(26)9-21-15)16(25,6-23-8-20-7-22-23)12-3-2-11(17)4-13(12)18/h2-5,7-10,25H,6H2,1H3
Instrument: TripleTOF 5600 SCIEX
Instrument type: LC-ESI-QTOF
Ms type: MS2
Ion mode: POSITIVE
Collision energy: 60
Fragmentation mode: CID
Ionization: ESI
Column name: Zorbax Eclipse Plus C18 2.1 mm x 150 mm, 3.5 um, Agilent
Retention time: 7.739 min
Precursor m/z: 366.1172
Precursor type: [M+H]+
m/z	relative intensity
55.0348	28
68.0536	14
78.0363	10
82.0419	121
95.0616	42
98.0287	10
98.0394	11
101.0205	27
107.0288	31
125.0511	378
126.0588	315
126.0872	10
127.0358	999
143.061	27
154.0462	11
155.0298	38
224.0634	26
241.0586	11
261.0607	15
