Mass spectrum: Lenalidomide; LC-ESI-QTOF; MS2; 70 V
Name: Lenalidomide
Class: Pharmaceutical
Formula: C13H13N3O3
Exact mass: 259.0957
SMILES: Nc1cccc2C(=O)N(Cc12)C3CCC(=O)NC3=O
InChI: InChI=1S/C13H13N3O3/c14-9-3-1-2-7-8(9)6-16(13(7)19)10-4-5-11(17)15-12(10)18/h1-3,10H,4-6,14H2,(H,15,17,18)
Instrument: TripleTOF 5600 SCIEX
Instrument type: LC-ESI-QTOF
Ms type: MS2
Ion mode: POSITIVE
Collision energy: 70
Fragmentation mode: CID
Ionization: ESI
Column name: Zorbax Eclipse Plus C18 2.1 mm x 150 mm, 3.5 um, Agilent
Retention time: 5.24 min
Precursor m/z: 260.103
Precursor type: [M+H]+
m/z	relative intensity
65.043	234
77.0398	655
77.0772	62
78.0375	78
78.0457	62
79.0563	202
84.0453	62
89.0402	171
91.06	62
92.0492	702
94.0651	78
102.0335	78
104.049	999
106.0626	842
115.0539	234
116.0492	156
117.0562	93
119.059	468
120.0439	78
130.0656	93
131.0589	639
132.0691	187
132.0841	62
133.0515	93
142.0633	78
143.0625	78
147.0531	156
158.082	78
159.0898	109
