Mass spectrum: 10,11-Dihydro-10,11-epoxycarbamazepine; LC-ESI-QTOF; MS2; 80 V
Name: 10,11-Dihydro-10,11-epoxycarbamazepine
Class: Metabolite; Pharmaceutical; Transformation_product-Metabolite
Formula: C15H12N2O2
Exact mass: 252.0899
SMILES: C1=CC=C2C(=C1)C3C(O3)C4=CC=CC=C4N2C(=O)N
InChI: InChI=1S/C15H12N2O2/c16-15(18)17-11-7-3-1-5-9(11)13-14(19-13)10-6-2-4-8-12(10)17/h1-8,13-14H,(H2,16,18)
Instrument: TripleTOF 5600 SCIEX
Instrument type: LC-ESI-QTOF
Ms type: MS2
Ion mode: POSITIVE
Collision energy: 80
Fragmentation mode: CID
Ionization: ESI
Column name: Zorbax Eclipse Plus C18 2.1 mm x 150 mm, 3.5 um, Agilent
Retention time: 7.593 min
Precursor m/z: 253.0972
Precursor type: [M+H]+
m/z	relative intensity
51.0229	17
75.0223	30
77.0383	94
89.0383	29
101.0382	73
102.0459	11
113.038	19
114.0462	12
115.0541	49
117.0568	11
125.0384	18
126.0455	47
127.0538	123
128.05	156
139.0542	147
140.05	96
141.0579	19
150.0463	81
151.0542	388
152.0618	850
153.0623	122
154.0653	44
163.0546	37
164.0601	42
165.0692	57
166.0649	180
167.0731	169
176.0513	13
177.0578	116
178.0654	580
179.0729	616
180.0807	999
190.0637	25
191.0732	61
192.0804	16
