Mass spectrum: Tetraconazole; LC-ESI-QTOF; MS2; 100 V
Name: Tetraconazole
Class: Fungicide
Formula: C13H11Cl2F4N3O
Exact mass: 371.0215
SMILES: C1=CC(=C(C=C1Cl)Cl)C(CN2C=NC=N2)COC(C(F)F)(F)F
InChI: InChI=1S/C13H11Cl2F4N3O/c14-9-1-2-10(11(15)3-9)8(4-22-7-20-6-21-22)5-23-13(18,19)12(16)17/h1-3,6-8,12H,4-5H2
Instrument: TripleTOF 6600 SCIEX
Instrument type: LC-ESI-QTOF
Ms type: MS2
Ion mode: POSITIVE
Collision energy: 100
Fragmentation mode: CID
Ionization: ESI
Column name: Zorbax Eclipse Plus C18 2.1 mm x 150 mm, 3.5 um, Agilent
Retention time: 12.382 min
Precursor m/z: 372.0288
Precursor type: [M+H]+
m/z	relative intensity
43.0287	56
48.9829	10
51.0035	59
61.0065	11
62.0147	33
63.0224	103
70.0396	244
72.9833	250
82.9436	14
87.0216	11
88.0298	52
89.0384	999
96.983	79
98.9991	231
107.0277	12
113.038	11
114.0455	30
115.0538	263
122.9992	538
124.0069	145
132.9597	93
133.0449	18
149.0138	11
158.9759	213
