Mass spectrum: 2,4-Dihydroxybenzophenone; LC-ESI-QTOF; MS2; 80 V
Name: 2,4-Dihydroxybenzophenone
Class: Personal_care_product
Formula: C13H10O3
Exact mass: 214.063
SMILES: Oc1ccc(c(O)c1)C(=O)c2ccccc2
InChI: InChI=1S/C13H10O3/c14-10-6-7-11(12(15)8-10)13(16)9-4-2-1-3-5-9/h1-8,14-15H
Instrument: TripleTOF 5600 SCIEX
Instrument type: LC-ESI-QTOF
Ms type: MS2
Ion mode: POSITIVE
Collision energy: 80
Fragmentation mode: CID
Ionization: ESI
Column name: Zorbax Eclipse Plus C18 2.1 mm x 150 mm, 3.5 um, Agilent
Retention time: 10.97 min
Precursor m/z: 215.0703
Precursor type: [M+H]+
m/z	relative intensity
41.0123	51
53.0056	25
53.0448	274
65.0422	36
69.0003	559
74.0187	31
77.0409	999
77.0738	31
78.0442	20
81.0351	455
89.04	77
115.0534	113
137.0253	25
139.0525	51
