Mass spectrum: Omeprazole 4-desmethylthioether; LC-ESI-QTOF; MS2; 130 V
Name: Omeprazole 4-desmethylthioether
Class: Metabolite; Pharmaceutical
Formula: C16H17N3O2S
Exact mass: 315.1041
SMILES: Cc1cnc(c(c1O)C)CSc2[nH]c3ccc(cc3n2)OC
InChI: InChI=1S/C16H17N3O2S/c1-9-7-17-14(10(2)15(9)20)8-22-16-18-12-5-4-11(21-3)6-13(12)19-16/h4-7H,8H2,1-3H3,(H,17,20)(H,18,19)
Instrument: TripleTOF 5600 SCIEX
Instrument type: LC-ESI-QTOF
Ms type: MS2
Ion mode: POSITIVE
Collision energy: 130
Fragmentation mode: CID
Ionization: ESI
Column name: Zorbax Eclipse Plus C18 2.1 mm x 150 mm, 3.5 um, Agilent
Retention time: 6.17 min
Precursor m/z: 316.1114
Precursor type: [M+H]+
m/z	relative intensity
43.027	151
51.0294	333
52.0351	242
53.0452	151
54.0479	121
65.0412	484
66.0494	211
67.0455	121
67.0577	181
77.0411	575
78.0352	333
79.0428	302
79.0536	393
80.052	514
91.0543	151
92.0515	575
93.0586	999
94.0659	696
105.0466	181
106.0517	211
106.0652	302
106.0808	121
107.0716	151
108.0791	605
