Mass spectrum: Pyroxsulam; LC-ESI-QTOF; MS2; 50 V
Name: Pyroxsulam
Class: Herbicide
Formula: C14H13F3N6O5S
Exact mass: 434.062
SMILES: COC1=CC(=NC2=NC(=NN12)NS(=O)(=O)C3=C(C=CN=C3OC)C(F)(F)F)OC
InChI: InChI=1S/C14H13F3N6O5S/c1-26-8-6-9(27-2)23-13(19-8)20-12(21-23)22-29(24,25)10-7(14(15,16)17)4-5-18-11(10)28-3/h4-6H,1-3H3,(H,21,22)
Instrument: TripleTOF 6600 SCIEX
Instrument type: LC-ESI-QTOF
Ms type: MS2
Ion mode: NEGATIVE
Collision energy: 50
Fragmentation mode: CID
Ionization: ESI
Column name: Zorbax Eclipse Plus C18 2.1 mm x 150 mm, 3.5 um, Agilent
Retention time: 9.651 min
Precursor m/z: 433.0547
Precursor type: [M-H]-
m/z	relative intensity
65.013	19
65.9981	70
66.0078	166
68.9943	140
88.0183	11
89.0021	11
93.008	26
107.0116	9
108.0234	35
109.0238	9
111.0665	49
116.0126	101
122.035	19
123.0184	214
128.0301	618
133.013	42
135.0064	27
135.0309	26
136.0191	354
146.0214	828
147.0178	35
148.0232	27
149.0042	22
149.0136	22
150.0287	88
156.0257	999
160.0265	16
162.0408	351
163.0229	22
164.0305	142
165.041	93
172.0222	11
174.014	34
176.0324	209
177.0015	26
178.0452	19
179.057	403
180.0529	94
186.0296	21
187.0109	26
193.0395	11
193.0609	35
201.0165	70
202.0319	11
211.0237	29
214.0073	9
216.0377	117
224.0288	26
225.0198	37
225.0381	17
226.0085	14
226.0571	16
227.0168	181
230.0316	16
230.0443	22
237.0358	24
238.0218	26
239.0412	22
240.0337	44
240.0552	13
245.0669	11
251.0015	17
251.0194	153
252.0189	53
252.0325	42
253.047	119
254.0484	44
254.0662	13
255.0555	17
264.0325	26
265.0215	29
267.0116	13
267.0459	91
268.0159	16
268.035	17
270.0488	65
280.0146	11
283.0435	111
285.0704	147
286.0635	39
291.0199	251
292.0344	250
293.0335	21
295.0294	13
296.0339	40
303.0576	17
307.0511	174
308.018	27
308.0438	13
314.0634	47
317.01	71
323.0492	497
329.0809	13
334.0117	31
349.034	71
354.983	53
386.9895	11
387.0157	26
