Mass spectrum: Trifloxystrobin acid; LC-ESI-QTOF; MS2; 100 V
Name: Trifloxystrobin acid
Class: Metabolite; Fungicide; Transformation_product
Formula: C19H17F3N2O4
Exact mass: 394.114
SMILES: FC(F)(F)c1cccc(c1)C(\C)=N\OCc2ccccc2C(=N\O)\C(=O)OC
InChI: InChI=1S/C19H17F3N2O4/c1-12(13-7-5-8-15(10-13)19(20,21)22)24-28-11-14-6-3-4-9-16(14)17(23-26)18(25)27-2/h3-10,26H,11H2,1-2H3/b23-17-,24-12+
Instrument: TripleTOF 5600 SCIEX
Instrument type: LC-ESI-QTOF
Ms type: MS2
Ion mode: POSITIVE
Collision energy: 100
Fragmentation mode: CID
Ionization: ESI
Column name: Zorbax Eclipse Plus C18 2.1 mm x 150 mm, 3.5 um, Agilent
Retention time: 13.286 min
Precursor m/z: 395.1213
Precursor type: [M+H]+
m/z	relative intensity
51.0153	15
65.0462	13
69.0022	16
74.0216	59
75.0289	257
77.0445	19
78.0502	11
81.0196	10
89.043	587
90.0498	157
91.0588	16
95.033	573
99.0078	31
104.0529	19
116.052	359
117.0584	138
119.0118	44
123.0376	30
125.0214	227
145.0271	999
172.0392	15
186.0554	10
