Mass spectrum: 2-(Thiocyanomethylthio)benzothiazole; LC-ESI-QTOF; MS2; 120 V
Name: 2-(Thiocyanomethylthio)benzothiazole
Class: Antimicrobial; Fungicide
Formula: C9H6N2S3
Exact mass: 237.9693
SMILES: C1=CC=C2C(=C1)N=C(S2)SCSC#N
InChI: InChI=1S/C9H6N2S3/c10-5-12-6-13-9-11-7-3-1-2-4-8(7)14-9/h1-4H,6H2
Instrument: TripleTOF 6600 SCIEX
Instrument type: LC-ESI-QTOF
Ms type: MS2
Ion mode: POSITIVE
Collision energy: 120
Fragmentation mode: CID
Ionization: ESI
Column name: Zorbax Eclipse Plus C18 2.1 mm x 150 mm, 3.5 um, Agilent
Retention time: 12.417 min
Precursor m/z: 238.9766
Precursor type: [M+H]+
m/z	relative intensity
35.9996	23
37.0076	103
38.0155	71
39.0233	225
43.9715	69
44.9794	393
45.9748	50
45.9871	18
49.0072	89
50.0155	400
51.0231	375
52.0185	25
52.0308	16
56.9809	11
57.9873	41
59.9999	11
61.0073	73
62.0158	184
63.0232	232
63.9429	36
64.0191	48
65.0386	115
67.9715	82
68.9795	999
69.9765	20
69.9865	36
71.99	16
73.0078	13
74.0152	87
75.0111	13
75.0235	27
76.0188	16
76.0313	11
77.039	50
80.9791	36
81.9874	98
91.9714	13
92.9792	82
94.9944	46
96.0024	11
101.946	13
108.0024	32
109.01	18
121.0097	11
