Mass spectrum: Parathion-methyl; LC-ESI-QTOF; MS2; 90 V
Name: Parathion-methyl
Class: Insecticide
Formula: C8H10NO5PS
Exact mass: 263.0017
SMILES: COP(=S)(OC)OC1=CC=C(C=C1)[N+](=O)[O-]
InChI: InChI=1S/C8H10NO5PS/c1-12-15(16,13-2)14-8-5-3-7(4-6-8)9(10)11/h3-6H,1-2H3
Instrument: TripleTOF 6600 SCIEX
Instrument type: LC-ESI-QTOF
Ms type: MS2
Ion mode: POSITIVE
Collision energy: 90
Fragmentation mode: CID
Ionization: ESI
Column name: Zorbax Eclipse Plus C18 2.1 mm x 150 mm, 3.5 um, Agilent
Retention time: 12.495 min
Precursor m/z: 264.009
Precursor type: [M+H]+
m/z	relative intensity
39.0221	62
44.9781	593
46.9671	359
46.994	312
50.014	483
62.0147	140
62.9434	249
62.9976	93
63.0222	374
65.0374	78
68.9779	359
69.9877	93
73.0069	109
74.0135	671
75.0214	999
76.0289	109
78.9921	171
81.9863	140
93.0098	62
94.994	93
108.0009	265
