Mass spectrum: Tolcapone; LC-ESI-QTOF; MS2; 40 V
Name: Tolcapone
Class: Pharmaceutical
Formula: C14H11NO5
Exact mass: 273.0637
InChI: InChI=1S/C14H11NO5/c1-8-2-4-9(5-3-8)13(17)10-6-11(15(19)20)14(18)12(16)7-10/h2-7,16,18H,1H3
Instrument: TripleTOF 5600 SCIEX
Instrument type: LC-ESI-QTOF
Ms type: CID
Ion mode: POSITIVE
Collision energy: 40
Ionization: ESI
Column name: Zorbax Eclipse Plus C18 2.1 mm x 150 mm, 3.5 um, Agilent
Retention time: 11.114 min
Precursor m/z: 274.071
Precursor type: [M+H]+
m/z	relative intensity
65.044	27
91.0571	244
92.0147	16
108.0216	396
119.0502	322
124.0171	20
136.0157	824
137.0129	12
165.0071	46
182.0094	999
274.0728	81
