Mass spectrum: 17alpha-Methyltestosterone; LC-ESI-QTOF; MS2; 140 V
Name: 17alpha-Methyltestosterone
Class: Pharmaceutical
Formula: C20H30O2
Exact mass: 302.2246
SMILES: C[C@]1(O)CC[C@H]2[C@@H]3CCC4=CC(=O)CC[C@]4(C)[C@H]3CC[C@]12C
InChI: InChI=1S/C20H30O2/c1-18-9-6-14(21)12-13(18)4-5-15-16(18)7-10-19(2)17(15)8-11-20(19,3)22/h12,15-17,22H,4-11H2,1-3H3/t15-,16+,17+,18+,19+,20+/m1/s1
Instrument: TripleTOF 5600 SCIEX
Instrument type: LC-ESI-QTOF
Ms type: MS2
Ion mode: POSITIVE
Collision energy: 140
Fragmentation mode: CID
Ionization: ESI
Column name: Zorbax Eclipse Plus C18 2.1 mm x 150 mm, 3.5 um, Agilent
Retention time: 11.57 min
Precursor m/z: 303.2319
Precursor type: [M+H]+
m/z	relative intensity
43.0249	82
43.0381	57
53.0435	115
55.0243	41
65.0433	288
67.0581	49
77.0414	999
77.08	33
78.0497	57
79.0553	115
81.035	41
89.0396	66
91.0553	214
91.068	33
102.0465	57
103.0585	82
107.0482	57
115.0533	189
127.0545	57
128.0613	148
141.0699	33
152.0611	41
