Mass spectrum: Ametryn; LC-ESI-QTOF; MS2; 30 V
Name: Ametryn
Class: Herbicide
Formula: C9H17N5S
Exact mass: 227.1205
SMILES: CCNc1nc(NC(C)C)nc(SC)n1
InChI: InChI=1S/C9H17N5S/c1-5-10-7-12-8(11-6(2)3)14-9(13-7)15-4/h6H,5H2,1-4H3,(H2,10,11,12,13,14)
Instrument: TripleTOF 5600 SCIEX
Instrument type: LC-ESI-QTOF
Ms type: MS2
Ion mode: POSITIVE
Collision energy: 30
Fragmentation mode: CID
Ionization: ESI
Column name: Zorbax Eclipse Plus C18 2.1 mm x 150 mm, 3.5 um, Agilent
Retention time: 8.651 min
Precursor m/z: 228.1277
Precursor type: [M+H]+
m/z	relative intensity
43.0377	13
68.0286	110
71.064	103
74.0086	31
85.0521	20
91.034	193
96.0567	329
102.0368	14
110.0454	15
113.0814	35
116.0275	162
138.0778	155
144.0582	114
158.0491	138
180.1233	12
186.0801	999
228.1268	468
