Mass spectrum: Prothioconazole-desthio; LC-ESI-QTOF; MS2; 40 V
Name: Prothioconazole-desthio
Class: Fungicide
Formula: C14H15Cl2N3O
Exact mass: 311.0592
SMILES: C1CC1(C(CC2=CC=CC=C2Cl)(CN3C=NC=N3)O)Cl
InChI: InChI=1S/C14H15Cl2N3O/c15-12-4-2-1-3-11(12)7-14(20,13(16)5-6-13)8-19-10-17-9-18-19/h1-4,9-10,20H,5-8H2
Instrument: TripleTOF 6600 SCIEX
Instrument type: LC-ESI-QTOF
Ms type: MS2
Ion mode: POSITIVE
Collision energy: 40
Fragmentation mode: CID
Ionization: ESI
Column name: Zorbax Eclipse Plus C18 2.1 mm x 150 mm, 3.5 um, Agilent
Retention time: 12 min
Precursor m/z: 312.0672
Precursor type: [M+H]+
m/z	relative intensity
43.0298	7
65.0389	6
70.0413	999
89.0391	18
90.0474	3
99	8
103.0547	12
115.0547	13
116.0623	13
125.0163	655
127.0537	3
128.0626	6
129.0703	6
130.0773	3
137.0142	5
139.0312	18
141.0698	9
142.0777	15
149.0154	6
151.0307	13
152.0628	5
153.0702	23
154.078	28
158.9762	5
162.0229	3
163.0304	4
177.0468	5
189.0468	11
312.0664	47
