Mass spectrum: Omeprazole; LC-ESI-QTOF; MS2; 60 V
Name: Omeprazole
Class: Pharmaceutical
Formula: C17H19N3O3S
Exact mass: 345.1147
SMILES: COc1ccc2nc([nH]c2c1)[S](=O)Cc3ncc(C)c(OC)c3C
InChI: InChI=1S/C17H19N3O3S/c1-10-8-18-15(11(2)16(10)23-4)9-24(21)17-19-13-6-5-12(22-3)7-14(13)20-17/h5-8H,9H2,1-4H3,(H,19,20)
Instrument: TripleTOF 5600 SCIEX
Instrument type: LC-ESI-QTOF
Ms type: MS2
Ion mode: POSITIVE
Collision energy: 60
Fragmentation mode: CID
Ionization: ESI
Column name: Zorbax Eclipse Plus C18 2.1 mm x 150 mm, 3.5 um, Agilent
Retention time: 6.462 min
Precursor m/z: 346.122
Precursor type: [M+H]+
m/z	relative intensity
77.0429	25
79.0581	22
91.0571	10
93.0713	29
106.0652	70
107.0726	16
108.0815	209
120.0806	141
121.089	259
122.096	145
134.0475	65
136.0242	16
136.0756	999
137.0285	14
149.0713	74
150.0914	276
151.0993	143
152.0164	79
164.0172	14
165.0236	159
166.0312	83
179.0268	33
180.0471	308
181.0544	78
198.055	13
