Mass spectrum: Warfarin; LC-ESI-QTOF; MS2; 100 V
Name: Warfarin
Class: Pesticide
Formula: C19H16O4
Exact mass: 308.1049
SMILES: CC(=O)CC(C1=CC=CC=C1)C2=C(C3=CC=CC=C3OC2=O)O
InChI: InChI=1S/C19H16O4/c1-12(20)11-15(13-7-3-2-4-8-13)17-18(21)14-9-5-6-10-16(14)23-19(17)22/h2-10,15,21H,11H2,1H3
Instrument: TripleTOF 6600 SCIEX
Instrument type: LC-ESI-QTOF
Ms type: MS2
Ion mode: POSITIVE
Collision energy: 100
Fragmentation mode: CID
Ionization: ESI
Column name: Zorbax Eclipse Plus C18 2.1 mm x 150 mm, 3.5 um, Agilent
Retention time: 11.631 min
Precursor m/z: 309.1122
Precursor type: [M+H]+
m/z	relative intensity
37.0073	63
38.0151	59
39.0232	477
41.0019	12
43.0181	267
50.0146	81
51.0231	407
53.0027	56
62.0149	14
63.0222	41
65.0387	999
68.9964	83
74.0144	61
75.0226	121
76.0309	14
77.0382	830
78.0446	16
79.0536	12
89.038	76
91.0538	47
93.0331	108
95.0488	16
101.0371	39
102.0446	97
103.0531	57
105.0438	14
115.0539	76
121.03	128
125.0423	16
126.0453	45
127.0518	59
128.0608	97
129.0327	18
129.0449	21
139.0544	54
141.0671	12
149.0372	16
150.046	124
151.0536	258
152.0607	304
153.0699	23
155.0613	14
163.0541	63
164.0612	47
165.0679	247
174.0495	19
175.0531	27
176.0608	266
177.0686	41
178.0759	25
205.0628	12
