Mass spectrum: Iobitridol; LC-ESI-QTOF; MS2; 40 V
Name: Iobitridol
Class: Pharmaceutical
Formula: C20H28I3N3O9
Exact mass: 834.896
SMILES: CN(CC(O)CO)C(=O)c1c(I)c(NC(=O)C(CO)CO)c(I)c(c1I)C(=O)N(C)CC(O)CO
InChI: InChI=1S/C20H28I3N3O9/c1-25(3-10(31)7-29)19(34)12-14(21)13(20(35)26(2)4-11(32)8-30)16(23)17(15(12)22)24-18(33)9(5-27)6-28/h9-11,27-32H,3-8H2,1-2H3,(H,24,33)
Instrument: TripleTOF 6600 SCIEX
Instrument type: LC-ESI-QTOF
Ms type: MS2
Ion mode: POSITIVE
Collision energy: 40
Fragmentation mode: CID
Ionization: ESI
Column name: Zorbax Eclipse Plus C18 2.1 mm x 150 mm, 3.5 um, Agilent
Retention time: 4.58 min
Precursor m/z: 835.9033
Precursor type: [M+H]+
m/z	relative intensity
400.9969	10
416.9852	20
449.0156	16
475.0019	110
528.8564	11
575.923	82
575.9518	10
584.8763	10
584.8952	13
602.9128	999
625.7695	11
628.7902	139
628.8496	10
689.9695	52
690.0099	11
712.8151	26
712.8388	16
715.8385	18
715.8738	48
730.8051	15
730.8405	21
733.8638	33
733.8938	26
817.8889	174
817.9319	23
835.9049	57
