Mass spectrum: 2-(2-Methoxyphenyl)-1H-Benzimidazole; LC-ESI-QTOF; MS2; 120 V
Name: 2-(2-Methoxyphenyl)-1H-Benzimidazole
Class: Pharmaceutical
Formula: C14H12N2O
Exact mass: 224.095
SMILES: COc1ccccc1c2[nH]c3ccccc3n2
InChI: InChI=1S/C14H12N2O/c1-17-13-9-5-2-6-10(13)14-15-11-7-3-4-8-12(11)16-14/h2-9H,1H3,(H,15,16)
Instrument: TripleTOF 5600 SCIEX
Instrument type: LC-ESI-QTOF
Ms type: MS2
Ion mode: POSITIVE
Collision energy: 120
Fragmentation mode: CID
Ionization: ESI
Column name: Zorbax Eclipse Plus C18 2.1 mm x 150 mm, 3.5 um, Agilent
Retention time: 6.225 min
Precursor m/z: 225.1022
Precursor type: [M+H]+
m/z	relative intensity
52.0246	137
52.0342	43
60.0057	60
62.0423	111
62.0591	34
63.0593	43
64.034	51
65.0302	60
65.0433	999
73.0092	77
74.0185	809
74.0461	43
75.0143	111
75.0265	654
76.0217	275
76.0324	284
77.0417	766
77.0659	34
77.0745	43
78.0376	43
78.0503	43
87.0269	68
88.0313	43
89.0406	94
90.036	51
91.0433	111
92.0526	77
98.017	68
99.024	68
100.0175	51
101.0422	129
102.0347	344
103.0406	129
113.0391	43
114.0511	34
126.0466	120
127.0537	51
128.049	43
129.0491	60
152.0481	68
155.061	43
179.0604	103
