Mass spectrum: Codeine; LC-ESI-QTOF; MS2; 100 V
Name: Codeine
Formula: C18H21NO3
Exact mass: 299.1521
SMILES: CN1CCC23C4C1CC5=C2C(=C(C=C5)OC)OC3C(C=C4)O
InChI: InChI=1S/C18H21NO3/c1-19-8-7-18-11-4-5-13(20)17(18)22-16-14(21-2)6-3-10(15(16)18)9-12(11)19/h3-6,11-13,17,20H,7-9H2,1-2H3
Instrument: TripleTOF 6600 SCIEX
Instrument type: LC-ESI-QTOF
Ms type: MS2
Ion mode: POSITIVE
Collision energy: 100
Fragmentation mode: CID
Ionization: ESI
Column name: Zorbax Eclipse Plus C18 2.1 mm x 150 mm, 3.5 um, Agilent
Retention time: 5.043 min
Precursor m/z: 300.1594
Precursor type: [M+H]+
m/z	relative intensity
39.0225	22
42.0337	14
44.0487	36
50.0142	10
51.0218	45
61.0053	10
62.0142	18
63.022	49
65.0375	58
74.0141	31
75.0214	44
76.0293	35
77.0374	284
78.0449	54
87.0213	17
88.03	20
89.0373	158
90.0455	15
91.0526	60
98.0141	10
101.0375	57
102.0451	163
103.0525	42
113.0374	59
114.0449	78
115.053	873
116.0603	18
118.0394	20
125.0383	23
126.0448	211
127.0528	396
128.0605	388
129.0434	14
129.0685	17
131.0468	26
139.053	337
140.0607	30
141.0689	113
150.0447	142
151.0526	386
152.0609	999
153.0684	111
154.0689	10
155.0516	123
162.0431	10
163.0538	168
164.0605	126
165.0685	258
168.0553	22
169.0665	15
176.0601	66
177.0682	22
178.0754	36
179.0602	17
181.0646	25
183.0418	14
187.0527	13
188.0601	13
189.0691	84
200.0614	10
