Mass spectrum: Iminostilbene; LC-ESI-QTOF; MS2; 140 V
Name: Iminostilbene
Class: Pharmaceutical
Formula: C14H11N
Exact mass: 193.0891
SMILES: C1=CC=C2C(=C1)C=CC3=CC=CC=C3N2
InChI: InChI=1S/C14H11N/c1-3-7-13-11(5-1)9-10-12-6-2-4-8-14(12)15-13/h1-10,15H
Instrument: TripleTOF 6600 SCIEX
Instrument type: LC-ESI-QTOF
Ms type: MS2
Ion mode: POSITIVE
Collision energy: 140
Fragmentation mode: CID
Ionization: ESI
Column name: Zorbax Eclipse Plus C18 2.1 mm x 150 mm, 3.5 um, Agilent
Retention time: 13.175 min
Precursor m/z: 194.0964
Precursor type: [M+H]+
m/z	relative intensity
35.9964	95
37.0043	382
38.0006	15
38.0118	229
39.0196	315
49.0031	266
50.0109	999
51.0185	389
52.0136	24
52.0255	13
59.9941	72
61.002	638
62.0098	802
63.0174	546
64.0122	16
65.0332	12
73.0006	241
74.0086	788
75.0042	30
75.0157	130
76.0108	15
76.0238	15
77.0316	12
83.9915	65
84.9995	366
86.0072	374
87.0024	11
87.0149	130
88.0099	21
89.0301	46
96.9983	136
98.0062	336
99.0012	32
99.0138	22
107.9896	19
108.9974	143
110.005	131
111.0005	14
111.0128	30
113.0283	21
119.9884	17
120.9963	25
122.0036	56
131.9876	10
132.9947	11
134.0024	19
137.026	15
161.0241	29
162.0317	14
163.0387	13
