Mass spectrum: Acetylsulfamethoxazole; LC-ESI-QTOF; MS2; 20 V
Name: Acetylsulfamethoxazole
Class: Metabolite; Pharmaceutical; Transformation_product-Metabolite
Formula: C12H13N3O4S
Exact mass: 295.0627
SMILES: CC1=CC(=NO1)NS(=O)(=O)C2=CC=C(C=C2)NC(=O)C
InChI: InChI=1S/C12H13N3O4S/c1-8-7-12(14-19-8)15-20(17,18)11-5-3-10(4-6-11)13-9(2)16/h3-7H,1-2H3,(H,13,16)(H,14,15)
Instrument: TripleTOF 5600 SCIEX
Instrument type: LC-ESI-QTOF
Ms type: MS2
Ion mode: POSITIVE
Collision energy: 20
Fragmentation mode: CID
Ionization: ESI
Column name: Zorbax Eclipse Plus C18 2.1 mm x 150 mm, 3.5 um, Agilent
Retention time: 7.411 min
Precursor m/z: 296.07
Precursor type: [M+H]+
m/z	relative intensity
99.0574	14
108.0461	23
134.0613	76
135.0671	10
136.0772	104
146.0718	14
147.0801	11
150.0553	18
156.0129	20
160.0887	21
162.066	20
188.083	121
189.0909	26
190.0982	48
194.0388	63
198.0221	236
202.095	10
230.0921	25
232.1073	16
236.0489	59
296.0705	999
