Mass spectrum: 4,4-Chlorophenoxyphenol; LC-ESI-QTOF; MS2; 90 V
Name: 4,4-Chlorophenoxyphenol
Class: Herbicide
Formula: C12H9ClO2
Exact mass: 220.0291
SMILES: c1cc(ccc1O)Oc2ccc(cc2)Cl
InChI: InChI=1S/C12H9ClO2/c13-9-1-5-11(6-2-9)15-12-7-3-10(14)4-8-12/h1-8,14H
Instrument: TripleTOF 5600 SCIEX
Instrument type: LC-ESI-QTOF
Ms type: MS2
Ion mode: POSITIVE
Collision energy: 90
Fragmentation mode: CID
Ionization: ESI
Column name: Zorbax Eclipse Plus C18 2.1 mm x 150 mm, 3.5 um, Agilent
Retention time: 12.354 min
Precursor m/z: 221.0364
Precursor type: [M+H]+
m/z	relative intensity
65.0439	349
77.0413	999
79.0574	199
89.0397	249
91.0551	499
113.0384	199
115.0567	349
127.054	199
128.0624	249
139.0563	499
