Mass spectrum: Diuron; LC-ESI-QTOF; MS2; 30 V
Name: Diuron
Class: Herbicide
Formula: C9H10Cl2N2O
Exact mass: 232.017
SMILES: CN(C)C(=O)Nc1ccc(Cl)c(Cl)c1
InChI: InChI=1S/C9H10Cl2N2O/c1-13(2)9(14)12-6-3-4-7(10)8(11)5-6/h3-5H,1-2H3,(H,12,14)
Instrument: TripleTOF 5600 SCIEX
Instrument type: LC-ESI-QTOF
Ms type: CID
Ion mode: NEGATIVE
Collision energy: 30
Ionization: ESI
Column name: Zorbax Eclipse Plus C18 2.1 mm x 150 mm, 3.5 um, Agilent
Retention time: 10.497 min
Precursor m/z: 231.0097
Precursor type: [M-H]-
m/z	relative intensity
149.9755	229
185.9524	999
231.0102	337
