Mass spectrum: Oxytetracycline; LC-ESI-QTOF; MS2; 120 V
Name: Oxytetracycline
Class: Pharmaceutical
Formula: C22H24N2O9
Exact mass: 460.1482
SMILES: CC1(C2C(C3C(C(=O)C(=C(C3(C(=O)C2=C(C4=C1C=CC=C4O)O)O)O)C(=O)N)N(C)C)O)O
InChI: InChI=1S/C22H24N2O9/c1-21(32)7-5-4-6-8(25)9(7)15(26)10-12(21)17(28)13-14(24(2)3)16(27)11(20(23)31)19(30)22(13,33)18(10)29/h4-6,12-14,17,25-26,28,30,32-33H,1-3H3,(H2,23,31)/t12-,13-,14+,17+,21-,22+/m1/s1
Instrument: TripleTOF 5600 SCIEX
Instrument type: LC-ESI-QTOF
Ms type: MS2
Ion mode: POSITIVE
Collision energy: 120
Fragmentation mode: CID
Ionization: ESI
Column name: Zorbax Eclipse Plus C18 2.1 mm x 150 mm, 3.5 um, Agilent
Retention time: 5.586 min
Precursor m/z: 461.1555
Precursor type: [M+H]+
m/z	relative intensity
55.0222	24
58.0682	39
68.9997	29
70.0733	19
76.0355	19
77.0407	228
89.0403	24
91.0548	99
101.0386	49
102.0471	94
103.0536	39
113.0365	39
114.0467	29
115.0534	362
116.0614	24
117.0697	24
126.0453	149
127.0541	909
128.0614	999
128.0906	19
129.0702	44
131.0482	54
139.0538	248
140.0622	74
141.0691	74
143.0484	29
144.0586	44
145.0646	29
150.0457	29
151.0556	99
152.0624	273
153.0689	74
155.0494	168
156.0573	79
163.0522	69
164.0619	64
165.0699	173
168.0562	154
169.0621	19
176.0624	74
177.0697	24
178.0756	34
181.0644	59
183.0416	39
184.0515	362
186.0321	19
187.039	44
189.0688	39
196.05	24
197.0581	39
205.0662	29
213.0566	34
221.0602	19
