Mass spectrum: Fluquinconazole; LC-ESI-QTOF; MS2; 60 V
Name: Fluquinconazole
Class: Fungicide
Formula: C16H8Cl2FN5O
Exact mass: 375.009
SMILES: C1=CC2=C(C=C1F)C(=O)N(C(=N2)N3C=NC=N3)C4=C(C=C(C=C4)Cl)Cl
InChI: InChI=1S/C16H8Cl2FN5O/c17-9-1-4-14(12(18)5-9)24-15(25)11-6-10(19)2-3-13(11)22-16(24)23-8-20-7-21-23/h1-8H
Instrument: TripleTOF 6600 SCIEX
Instrument type: LC-ESI-QTOF
Ms type: MS2
Ion mode: POSITIVE
Collision energy: 60
Fragmentation mode: CID
Ionization: ESI
Column name: Zorbax Eclipse Plus C18 2.1 mm x 150 mm, 3.5 um, Agilent
Retention time: 12.549 min
Precursor m/z: 376.0163
Precursor type: [M+H]+
m/z	relative intensity
57.0131	10
81.013	19
82.0083	24
108.0236	999
108.983	10
123.9942	413
132.9595	13
135.0344	12
144.9602	12
157.9554	15
163.029	96
170.9615	24
208.0417	16
209.0506	100
216.0004	13
224.0612	18
237.0459	61
243.0111	52
244.0195	317
251.9752	37
272.0151	530
278.9884	154
287.0266	30
306.9834	230
313.0304	13
