Mass spectrum: Bexarotene; LC-ESI-QTOF; MS2; 100 V
Name: Bexarotene
Class: Pharmaceutical
Formula: C24H28O2
Exact mass: 348.2089
SMILES: Cc1cc2c(cc1C(=C)c3ccc(cc3)C(O)=O)C(C)(C)CCC2(C)C
InChI: InChI=1S/C24H28O2/c1-15-13-20-21(24(5,6)12-11-23(20,3)4)14-19(15)16(2)17-7-9-18(10-8-17)22(25)26/h7-10,13-14H,2,11-12H2,1,3-6H3,(H,25,26)
Instrument: TripleTOF 5600 SCIEX
Instrument type: LC-ESI-QTOF
Ms type: CID
Ion mode: POSITIVE
Collision energy: 100
Ionization: ESI
Column name: Zorbax Eclipse Plus C18 2.1 mm x 150 mm, 3.5 um, Agilent
Retention time: 17.591 min
Precursor m/z: 349.2162
Precursor type: [M+H]+
m/z	relative intensity
77.0416	825
102.0473	260
115.053	781
127.0574	347
128.0614	825
141.069	304
152.0635	521
153.0686	651
165.0682	651
178.0765	260
189.0696	999
190.0764	304
191.0866	304
202.0777	694
215.0864	955
228.0938	434
