Mass spectrum: Oxfendazole; LC-ESI-QTOF; MS2; 70 V
Name: Oxfendazole
Class: Pharmaceutical
Formula: C15H13N3O3S
Exact mass: 315.0678
SMILES: COC(=O)Nc1[nH]c2cc(ccc2n1)[S](=O)c3ccccc3
InChI: InChI=1S/C15H13N3O3S/c1-21-15(19)18-14-16-12-8-7-11(9-13(12)17-14)22(20)10-5-3-2-4-6-10/h2-9H,1H3,(H2,16,17,18,19)
Instrument: TripleTOF 5600 SCIEX
Instrument type: LC-ESI-QTOF
Ms type: MS2
Ion mode: POSITIVE
Collision energy: 70
Fragmentation mode: CID
Ionization: ESI
Column name: Zorbax Eclipse Plus C18 2.1 mm x 150 mm, 3.5 um, Agilent
Retention time: 6.579 min
Precursor m/z: 316.075
Precursor type: [M+H]+
m/z	relative intensity
76.0199	16
77.0288	157
78.0369	16
91.0415	15
103.0414	45
104.0373	439
105.0449	34
116.0378	19
118.0548	17
119.0587	16
130.0394	25
131.0482	493
147.0437	15
159.0436	999
171.0265	22
190.0079	12
196.0214	25
207.0108	13
211.0339	19
224.0402	25
238.0454	25
265.0326	20
266.0391	41
