Mass spectrum: 2-Aminobenzimidazole; LC-ESI-QTOF; MS2; 90 V
Name: 2-Aminobenzimidazole
Class: Transformation_product; Fungicide
Formula: C7H7N3
Exact mass: 133.064
SMILES: C1=CC=C2C(=C1)NC(=N2)N
InChI: InChI=1S/C7H7N3/c8-7-9-5-3-1-2-4-6(5)10-7/h1-4H,(H3,8,9,10)
Instrument: TripleTOF 6600 SCIEX
Instrument type: LC-ESI-QTOF
Ms type: MS2
Ion mode: POSITIVE
Collision energy: 90
Fragmentation mode: CID
Ionization: ESI
Column name: Zorbax Eclipse Plus C18 2.1 mm x 150 mm, 3.5 um, Agilent
Retention time: 4.787 min
Precursor m/z: 134.0713
Precursor type: [M+H]+
m/z	relative intensity
35.9995	144
37.0073	713
38.0027	32
38.015	528
39.0229	999
40.0182	18
41.0264	16
42.021	24
43.0287	149
49.0076	42
50.015	138
51.0105	21
51.0227	98
52.0178	85
52.0295	16
53.0135	13
53.038	18
54.0347	18
61.0074	66
62.0148	160
63.0226	157
64.0176	42
65.0379	61
74.016	21
