Mass spectrum: Fenoxycarb; LC-ESI-QTOF; MS2; 110 V
Name: Fenoxycarb
Class: Insecticide
Formula: C17H19NO4
Exact mass: 301.1314
SMILES: CCOC(=O)NCCOc1ccc(Oc2ccccc2)cc1
InChI: InChI=1S/C17H19NO4/c1-2-20-17(19)18-12-13-21-14-8-10-16(11-9-14)22-15-6-4-3-5-7-15/h3-11H,2,12-13H2,1H3,(H,18,19)
Instrument: TripleTOF 5600 SCIEX
Instrument type: LC-ESI-QTOF
Ms type: MS2
Ion mode: POSITIVE
Collision energy: 110
Fragmentation mode: CID
Ionization: ESI
Column name: Zorbax Eclipse Plus C18 2.1 mm x 150 mm, 3.5 um, Agilent
Retention time: 13.067 min
Precursor m/z: 302.1387
Precursor type: [M+H]+
m/z	relative intensity
42.0444	164
43.0516	13
44.0596	568
45.0066	64
65.0437	175
66.0509	45
70.0333	73
74.018	23
75.0259	21
76.034	23
77.042	437
78.0488	31
81.0362	100
87.0242	19
88.0413	999
89.0404	233
91.0561	249
94.043	52
101.0404	12
102.0467	77
103.054	17
107.0494	13
110.0355	12
113.0389	27
114.0471	10
115.0544	453
126.0467	31
127.0548	96
128.0621	218
131.0499	10
139.0545	156
141.0694	12
150.0465	32
151.054	29
152.0626	31
163.0538	29
164.0633	20
165.0694	31
