Mass spectrum: 5-(3,4,5-Trimethoxybenzoyl)-2,4-pyrimidinediamine; LC-ESI-QTOF; MS2; 120 V
Name: 5-(3,4,5-Trimethoxybenzoyl)-2,4-pyrimidinediamine
Class: Pharmaceutical; Transformation_product; Transformation_product-Metabolite
Formula: C14H16N4O4
Exact mass: 304.1172
SMILES: COc1cc(cc(c1OC)OC)C(=O)c2cnc(nc2N)N
InChI: InChI=1S/C14H16N4O4/c1-20-9-4-7(5-10(21-2)12(9)22-3)11(19)8-6-17-14(16)18-13(8)15/h4-6H,1-3H3,(H4,15,16,17,18)
Instrument: TripleTOF 5600 SCIEX
Instrument type: LC-ESI-QTOF
Ms type: MS2
Ion mode: POSITIVE
Collision energy: 120
Fragmentation mode: CID
Ionization: ESI
Column name: Zorbax Eclipse Plus C18 2.1 mm x 150 mm, 3.5 um, Agilent
Retention time: 5.86 min
Precursor m/z: 305.1244
Precursor type: [M+H]+
m/z	relative intensity
40.0267	116
43.0367	163
52.031	233
53.0093	110
64.0359	40
65.0179	105
65.0427	257
66.0205	87
66.0475	46
67.0347	157
68.0181	999
68.0527	35
69.0007	35
69.0085	29
70.0321	40
74.017	87
75.0257	116
75.0365	29
76.0191	116
76.0305	87
77.0272	93
77.0404	438
78.036	239
79.0431	122
80.0279	35
80.0525	87
81.0357	29
82.0393	29
83.049	64
87.024	46
88.0217	93
89.0392	198
90.0352	146
91.0541	35
92.0266	93
92.0368	23
92.0517	40
93.0102	29
93.0483	93
94.0035	46
94.0521	29
95.0247	81
95.0517	29
99.0184	35
100.0199	58
101.0364	58
102.0346	105
103.0305	116
104.0352	35
104.0468	35
105.0444	286
106.0512	46
107.0133	35
107.067	29
109.0276	29
109.0503	75
110.0554	35
114.0341	134
115.0402	23
116.0495	75
117.0413	35
117.0568	52
118.044	70
119.0589	29
120.0238	23
120.0562	122
121.0297	46
129.0443	64
130.0395	75
131.0588	29
135.0601	23
142.0531	29
144.0564	52
145.0464	40
147.068	81
