Mass spectrum: Triadimefon; LC-ESI-QTOF; MS2; 100 V
Name: Triadimefon
Class: Fungicide; Transformation_product
Formula: C14H16ClN3O2
Exact mass: 293.0931
SMILES: CC(C)(C)C(=O)C(N1C=NC=N1)OC2=CC=C(C=C2)Cl
InChI: InChI=1S/C14H16ClN3O2/c1-14(2,3)12(19)13(18-9-16-8-17-18)20-11-6-4-10(15)5-7-11/h4-9,13H,1-3H3
Instrument: TripleTOF 5600 SCIEX
Instrument type: LC-ESI-QTOF
Ms type: MS2
Ion mode: POSITIVE
Collision energy: 100
Fragmentation mode: CID
Ionization: ESI
Column name: Zorbax Eclipse Plus C18 2.1 mm x 150 mm, 3.5 um, Agilent
Retention time: 12.319 min
Precursor m/z: 294.1004
Precursor type: [M+H]+
m/z	relative intensity
35.9994	11
37.0075	49
38.0154	32
39.0232	320
41.0389	270
48.9842	26
50.0152	55
51.0235	91
55.0544	120
57.0703	302
60.9837	11
61.0075	11
62.0153	20
63.023	76
64.0317	11
65.0389	120
66.0458	14
69.0694	38
70.0403	67
72.9841	593
73.0063	38
74.0153	658
75.0231	999
76.0328	38
77.0386	132
78.0465	26
82.0418	11
84.984	135
89.038	17
91.0541	61
94.0414	52
99.0001	379
100.0073	17
102.0486	20
103.0537	14
111.0002	246
115.0558	23
127.0553	14
128.0032	32
128.0631	41
139.0063	41
