Mass spectrum: 1-(3,4-Dichlorophenyl)urea; LC-ESI-QTOF; MS2; 90 V
Name: 1-(3,4-Dichlorophenyl)urea
Class: Herbicide; Transformation_product; Transformation_product-Metabolite
Formula: C7H6Cl2N2O
Exact mass: 203.9857
SMILES: C1=CC(=C(C=C1NC(=O)N)Cl)Cl
InChI: InChI=1S/C7H6Cl2N2O/c8-5-2-1-4(3-6(5)9)11-7(10)12/h1-3H,(H3,10,11,12)
Instrument: TripleTOF 5600 SCIEX
Instrument type: LC-ESI-QTOF
Ms type: MS2
Ion mode: POSITIVE
Collision energy: 90
Fragmentation mode: CID
Ionization: ESI
Column name: Zorbax Eclipse Plus C18 2.1 mm x 150 mm, 3.5 um, Agilent
Retention time: 8.797 min
Precursor m/z: 204.993
Precursor type: [M+H]+
m/z	relative intensity
44.0255	124
52.0268	52
61.0131	41
62.0222	62
63.0294	208
65.046	999
72.99	208
73.0146	114
74.0216	624
75.0306	124
83.9794	41
90.0368	52
91.0476	41
92.053	187
99.0016	124
100.0109	104
127.0186	104
