Mass spectrum: Tetraconazole; LC-ESI-QTOF; MS2; 70 V
Name: Tetraconazole
Class: Fungicide
Formula: C13H11Cl2F4N3O
Exact mass: 371.0215
SMILES: C1=CC(=C(C=C1Cl)Cl)C(CN2C=NC=N2)COC(C(F)F)(F)F
InChI: InChI=1S/C13H11Cl2F4N3O/c14-9-1-2-10(11(15)3-9)8(4-22-7-20-6-21-22)5-23-13(18,19)12(16)17/h1-3,6-8,12H,4-5H2
Instrument: TripleTOF 6600 SCIEX
Instrument type: LC-ESI-QTOF
Ms type: MS2
Ion mode: POSITIVE
Collision energy: 70
Fragmentation mode: CID
Ionization: ESI
Column name: Zorbax Eclipse Plus C18 2.1 mm x 150 mm, 3.5 um, Agilent
Retention time: 12.382 min
Precursor m/z: 372.0288
Precursor type: [M+H]+
m/z	relative intensity
43.029	11
51.0041	11
70.0404	213
72.984	15
89.0389	85
98.9996	51
115.0546	110
123.0	265
124.0076	88
132.9608	37
149.0155	30
150.0228	15
158.9769	999
176.967	15
