Mass spectrum: Dichlorvos; LC-ESI-QTOF; MS2; 40 V
Name: Dichlorvos
Class: Insecticide; Transformation_product; Pharmaceutical
Formula: C4H7Cl2O4P
Exact mass: 219.9459
SMILES: CO[P](=O)(OC)OC=C(Cl)Cl
InChI: InChI=1S/C4H7Cl2O4P/c1-8-11(7,9-2)10-3-4(5)6/h3H,1-2H3
Instrument: TripleTOF 5600 SCIEX
Instrument type: LC-ESI-QTOF
Ms type: MS2
Ion mode: POSITIVE
Collision energy: 40
Fragmentation mode: CID
Ionization: ESI
Column name: Zorbax Eclipse Plus C18 2.1 mm x 150 mm, 3.5 um, Agilent
Retention time: 9.126 min
Precursor m/z: 220.9532
Precursor type: [M+H]+
m/z	relative intensity
46.9739	11
55.0598	74
59.9795	30
65.0418	16
77.0409	69
78.9964	386
79.0566	90
91.0555	157
92.974	13
94.9453	201
94.9889	90
96.9615	53
103.0537	18
107.0481	11
109.0046	999
111.9486	16
112.9553	30
123.0425	11
127.0143	150
