Mass spectrum: 2-Methyl-4`-(methylthio)-2-morpholinopropiophenone; LC-ESI-QTOF; MS2; 80 V
Name: 2-Methyl-4`-(methylthio)-2-morpholinopropiophenone
Class: Industrial_process
Formula: C15H21NO2S
Exact mass: 279.1293
SMILES: CC(C)(C(=O)C1=CC=C(C=C1)SC)N2CCOCC2
InChI: InChI=1S/C15H21NO2S/c1-15(2,16-8-10-18-11-9-16)14(17)12-4-6-13(19-3)7-5-12/h4-7H,8-11H2,1-3H3
Instrument: TripleTOF 6600 SCIEX
Instrument type: LC-ESI-QTOF
Ms type: MS2
Ion mode: POSITIVE
Collision energy: 80
Fragmentation mode: CID
Ionization: ESI
Column name: Zorbax Eclipse Plus C18 2.1 mm x 150 mm, 3.5 um, Agilent
Retention time: 7.548 min
Precursor m/z: 280.1366
Precursor type: [M+H]+
m/z	relative intensity
39.0231	29
41.0386	18
42.0339	43
44.0495	46
44.979	17
45.0334	15
51.0229	25
65.0386	115
70.065	43
77.0384	185
78.0462	146
79.0537	15
84.0805	13
88.0751	19
89.0381	27
91.0544	999
102.046	37
103.0538	170
104.0611	10
105.0697	19
109.0104	76
110.0182	15
115.0542	912
116.0612	58
117.0699	859
118.0764	18
121.0103	274
122.0182	288
127.0536	25
128.0614	12
131.0484	88
134.0175	48
135.0258	183
137.0411	82
145.064	20
149.0404	20
150.0484	27
