Mass spectrum: 4-Oxypiperidol; LC-ESI-QTOF; MS2; 40 V
Name: 4-Oxypiperidol
Class: Pharmaceutical
Formula: C9H18NO2
Exact mass: 172.1338
SMILES: CC1(CC(CC(N1[O])(C)C)O)C
InChI: InChI=1S/C9H18NO2/c1-8(2)5-7(11)6-9(3,4)10(8)12/h7,11H,5-6H2,1-4H3
Instrument: TripleTOF 5600 SCIEX
Instrument type: LC-ESI-QTOF
Ms type: MS2
Ion mode: POSITIVE
Collision energy: 40
Fragmentation mode: CID
Ionization: ESI
Column name: Zorbax Eclipse Plus C18 2.1 mm x 150 mm, 3.5 um, Agilent
Retention time: 5.696 min
Precursor m/z: 173.141
Precursor type: [M+H]+
m/z	relative intensity
56.0497	199
57.0352	88
57.058	355
79.0542	133
80.0508	155
91.0532	199
98.0601	310
102.0546	421
107.0726	111
107.0847	199
108.0804	999
122.0953	111
140.1073	222
