Mass spectrum: Foramsulfuron; LC-ESI-QTOF; MS2; 120 V
Name: Foramsulfuron
Class: Herbicide
Formula: C17H20N6O7S
Exact mass: 452.1114
SMILES: CN(C)C(=O)C1=C(C=C(C=C1)NC=O)S(=O)(=O)NC(=O)NC2=NC(=CC(=N2)OC)OC
InChI: InChI=1S/C17H20N6O7S/c1-23(2)15(25)11-6-5-10(18-9-24)7-12(11)31(27,28)22-17(26)21-16-19-13(29-3)8-14(20-16)30-4/h5-9H,1-4H3,(H,18,24)(H2,19,20,21,22,26)
Instrument: TripleTOF 6600 SCIEX
Instrument type: LC-ESI-QTOF
Ms type: MS2
Ion mode: NEGATIVE
Collision energy: 120
Fragmentation mode: CID
Ionization: ESI
Column name: Zorbax Eclipse Plus C18 2.1 mm x 150 mm, 3.5 um, Agilent
Retention time: 8.823 min
Precursor m/z: 451.1041
Precursor type: [M-H]-
m/z	relative intensity
40.0069	23
41.015	59
41.999	999
61.9704	26
63.9636	18
65.0149	78
65.9988	485
68.0151	14
77.9651	18
90.0097	11
107.0127	40
107.0215	11
115.0298	14
117.0453	14
118.0308	18
122.038	16
145.0427	16
