Mass spectrum: 5-Aminosalicylic acid; LC-ESI-QTOF; MS2; 120 V
Name: 5-Aminosalicylic acid
Class: Pharmaceutical
Formula: C7H7NO3
Exact mass: 153.0426
SMILES: C1=CC(=C(C=C1N)C(=O)O)O
InChI: InChI=1S/C7H7NO3/c8-4-1-2-6(9)5(3-4)7(10)11/h1-3,9H,8H2,(H,10,11)
Instrument: TripleTOF 6600 SCIEX
Instrument type: LC-ESI-QTOF
Ms type: MS2
Ion mode: POSITIVE
Collision energy: 120
Fragmentation mode: CID
Ionization: ESI
Column name: Zorbax Eclipse Plus C18 2.1 mm x 150 mm, 3.5 um, Agilent
Retention time: 2.181 min
Precursor m/z: 154.0499
Precursor type: [M+H]+
m/z	relative intensity
35.9993	260
37.0072	698
38.0027	113
38.0149	364
39.0226	201
40.0057	19
49.007	167
50.0148	275
51.0101	54
51.0221	59
52.0181	113
53.0015	319
53.0139	24
54.0336	24
59.9991	191
61.0068	999
62.0148	437
63.0223	73
73.0072	127
74.0146	142
