Mass spectrum: Clodinafop-Propargyl; LC-ESI-QTOF; MS2; 70 V
Name: Clodinafop-Propargyl
Class: Herbicide
Formula: C17H13ClFNO4
Exact mass: 349.0517
SMILES: CC(C(=O)OCC#C)OC1=CC=C(C=C1)OC2=C(C=C(C=N2)Cl)F
InChI: InChI=1S/C17H13ClFNO4/c1-3-8-22-17(21)11(2)23-13-4-6-14(7-5-13)24-16-15(19)9-12(18)10-20-16/h1,4-7,9-11H,8H2,2H3
Instrument: TripleTOF 6600 SCIEX
Instrument type: LC-ESI-QTOF
Ms type: MS2
Ion mode: POSITIVE
Collision energy: 70
Fragmentation mode: CID
Ionization: ESI
Column name: Zorbax Eclipse Plus C18 2.1 mm x 150 mm, 3.5 um, Agilent
Retention time: 13.951 min
Precursor m/z: 350.059
Precursor type: [M+H]+
m/z	relative intensity
39.0217	49
51.0213	41
63.0212	183
64.0288	91
65.0366	449
74.0132	58
75.021	191
77.0365	266
81.0308	99
91.0521	999
92.0233	166
92.0597	49
94.0063	49
96.0223	49
101.036	66
102.044	58
103.0523	58
108.0226	41
109.0277	83
109.9769	166
119.0473	49
121.0427	41
127.0428	33
128.048	66
129.0426	41
129.9829	391
130.9899	41
131.0265	74
131.0472	58
132.0351	183
134.0379	83
139.0378	83
140.0453	41
140.987	49
143.9981	41
147.0468	41
147.9942	49
148.0533	49
149.0372	174
156.0405	49
158.0375	416
159.0462	641
167.0016	74
167.9984	66
169.0054	33
174.007	91
176.0478	233
182.0141	49
184.0535	74
187.0412	149
193.0071	91
194.015	41
202.066	41
210.009	41
222.0091	183
238.0034	324
