Mass spectrum: Fluazifop; LC-ESI-QTOF; MS2; 40 V
Name: Fluazifop
Class: Herbicide; Transformation_product
Formula: C15H12F3NO4
Exact mass: 327.0718
SMILES: CC(C(=O)O)Oc1ccc(cc1)Oc2ccc(cn2)C(F)(F)F
InChI: InChI=1S/C15H12F3NO4/c1-9(14(20)21)22-11-3-5-12(6-4-11)23-13-7-2-10(8-19-13)15(16,17)18/h2-9H,1H3,(H,20,21)
Instrument: TripleTOF 6600 SCIEX
Instrument type: LC-ESI-QTOF
Ms type: MS2
Ion mode: POSITIVE
Collision energy: 40
Fragmentation mode: CID
Ionization: ESI
Column name: Zorbax Eclipse Plus C18 2.1 mm x 150 mm, 3.5 um, Agilent
Retention time: 11.668 min
Precursor m/z: 328.0791
Precursor type: [M+H]+
m/z	relative intensity
65.039	97
91.0547	516
92.0252	11
93.0337	67
94.0425	10
119.0489	83
121.0282	32
141.0577	24
146.0208	52
147.0287	142
158.0598	19
164.0315	57
167.0731	10
186.0522	16
190.0459	16
198.0523	39
210.052	14
211.06	16
212.068	11
213.0785	23
214.0473	10
216.0625	12
218.0414	52
226.047	30
226.0826	27
227.0551	432
236.0682	30
238.0475	783
239.0528	10
240.0616	11
254.0464	999
255.0499	183
256.0578	310
264.0623	23
267.0502	10
282.0735	285
