Mass spectrum: Metrafenone; LC-ESI-QTOF; MS2; 60 V
Name: Metrafenone
Class: Fungicide
Formula: C19H21BrO5
Exact mass: 408.0572
SMILES: CC1=CC(=C(C(=C1C(=O)C2=C(C=CC(=C2C)Br)OC)OC)OC)OC
InChI: InChI=1S/C19H21BrO5/c1-10-9-14(23-4)18(24-5)19(25-6)15(10)17(21)16-11(2)12(20)7-8-13(16)22-3/h7-9H,1-6H3
Instrument: TripleTOF 6600 SCIEX
Instrument type: LC-ESI-QTOF
Ms type: MS2
Ion mode: POSITIVE
Collision energy: 60
Fragmentation mode: CID
Ionization: ESI
Column name: Zorbax Eclipse Plus C18 2.1 mm x 150 mm, 3.5 um, Agilent
Retention time: 15.123 min
Precursor m/z: 409.0645
Precursor type: [M+H]+
m/z	relative intensity
65.0431	21
67.0583	21
77.0419	202
78.0497	24
79.0584	41
80.0654	12
81.0749	20
89.0421	187
90.0504	555
91.0577	455
92.0652	184
94.0453	13
95.0526	43
105.0365	305
106.045	53
107.0518	56
108.0603	65
109.0672	52
118.0449	31
119.0517	102
120.0599	330
121.0315	21
121.0674	31
122.0394	18
123.047	124
133.0304	29
134.039	49
135.0471	165
136.0547	181
137.0629	102
138.0701	12
146.039	10
147.0448	54
148.054	313
149.0622	26
150.0328	39
151.0412	297
154.9501	24
155.9582	55
163.0418	43
164.0506	39
165.0566	656
166.0647	744
168.9667	999
170.9825	21
176.0494	102
177.0194	10
179.0373	88
182.9451	288
183.9536	855
191.0319	36
193.0513	108
194.0589	119
196.9719	124
209.0829	278
211.9478	405
226.9705	939
