Mass spectrum: N,O-didesmethyl-venlafaxine; LC-ESI-QTOF; MS2; 80 V
Name: N,O-didesmethyl-venlafaxine
Class: Pharmaceutical; Metabolite; Transformation_product-Metabolite
Formula: C15H23NO2
Exact mass: 249.1729
SMILES: CNCC(c1ccc(cc1)O)C2(CCCCC2)O
InChI: InChI=1S/C15H23NO2/c1-16-11-14(12-5-7-13(17)8-6-12)15(18)9-3-2-4-10-15/h5-8,14,16-18H,2-4,9-11H2,1H3
Instrument: TripleTOF 5600 SCIEX
Instrument type: LC-ESI-QTOF
Ms type: MS2
Ion mode: POSITIVE
Collision energy: 80
Fragmentation mode: CID
Ionization: ESI
Column name: Zorbax Eclipse Plus C18 2.1 mm x 150 mm, 3.5 um, Agilent
Retention time: 5.659 min
Precursor m/z: 250.1802
Precursor type: [M+H]+
m/z	relative intensity
42.0426	16
44.0586	491
51.0288	107
53.0434	23
55.0215	38
55.057	17
65.0422	56
66.0481	11
67.0576	11
77.0418	999
79.0558	245
81.0714	53
89.0401	33
91.0547	106
94.0423	24
103.0536	89
105.0693	57
107.0488	552
115.0536	191
116.0596	27
119.0479	14
120.0546	10
127.0529	42
128.0614	22
131.0482	28
134.0604	15
144.0558	13
