Mass spectrum: Phenylphosphonic acid; LC-ESI-QTOF; MS2; 20 V
Name: Phenylphosphonic acid
Class: Industrial_process
Formula: C6H7O3P
Exact mass: 158.0133
SMILES: C1=CC=C(C=C1)P(=O)(O)O
InChI: InChI=1S/C6H7O3P/c7-10(8,9)6-4-2-1-3-5-6/h1-5H,(H2,7,8,9)
Instrument: TripleTOF 5600 SCIEX
Instrument type: LC-ESI-QTOF
Ms type: MS2
Ion mode: POSITIVE
Collision energy: 20
Fragmentation mode: CID
Ionization: ESI
Column name: Zorbax Eclipse Plus C18 2.1 mm x 150 mm, 3.5 um, Agilent
Retention time: 3.086 min
Precursor m/z: 159.0206
Precursor type: [M+H]+
m/z	relative intensity
77.0387	171
79.0543	121
80.9749	50
96.9608	60
141.0094	999
159.0203	867
