Mass spectrum: Meclofenamic acid; LC-ESI-QTOF; MS2; 120 V
Name: Meclofenamic acid
Class: Pharmaceutical
Formula: C14H11Cl2NO2
Exact mass: 295.0167
SMILES: Cc1ccc(c(c1Cl)Nc2ccccc2C(=O)O)Cl
InChI: InChI=1S/C14H11Cl2NO2/c1-8-6-7-10(15)13(12(8)16)17-11-5-3-2-4-9(11)14(18)19/h2-7,17H,1H3,(H,18,19)
Instrument: TripleTOF 5600 SCIEX
Instrument type: LC-ESI-QTOF
Ms type: MS2
Ion mode: POSITIVE
Collision energy: 120
Fragmentation mode: CID
Ionization: ESI
Column name: Zorbax Eclipse Plus C18 2.1 mm x 150 mm, 3.5 um, Agilent
Retention time: 13.705 min
Precursor m/z: 296.024
Precursor type: [M+H]+
m/z	relative intensity
51.029	155
73.0087	18
74.0176	183
75.0251	251
76.0199	15
76.0317	130
77.0406	369
78.048	31
85.0067	12
86.016	27
87.023	68
88.0319	21
89.0377	49
98.0158	133
99.0227	192
100.0315	43
101.0385	124
102.0446	74
110.0128	27
111.0213	24
113.038	71
114.0428	24
115.0542	15
122.0153	12
123.0205	34
124.03	27
125.0372	214
126.0453	279
127.0388	24
127.0502	93
128.049	55
137.0387	40
138.0442	18
139.0515	24
140.0483	31
149.0371	117
150.0453	999
150.0846	18
151.0529	797
152.0593	480
153.0566	62
164.0468	37
175.0407	55
176.0487	102
177.0562	394
178.0645	285
179.0713	34
