Mass spectrum: Triclocarban; LC-ESI-QTOF; MS2; 70 V
Name: Triclocarban
Class: Antimicrobial; Personal_care_product
Formula: C13H9Cl3N2O
Exact mass: 313.978
SMILES: Clc1ccc(NC(=O)Nc2ccc(Cl)c(Cl)c2)cc1
InChI: InChI=1S/C13H9Cl3N2O/c14-8-1-3-9(4-2-8)17-13(19)18-10-5-6-11(15)12(16)7-10/h1-7H,(H2,17,18,19)
Instrument: TripleTOF 5600 SCIEX
Instrument type: LC-ESI-QTOF
Ms type: MS2
Ion mode: POSITIVE
Collision energy: 70
Fragmentation mode: CID
Ionization: ESI
Column name: Zorbax Eclipse Plus C18 2.1 mm x 150 mm, 3.5 um, Agilent
Retention time: 14.574 min
Precursor m/z: 314.9853
Precursor type: [M+H]+
m/z	relative intensity
65.0416	66
66.0497	66
72.9875	22
74.0154	13
75.0256	28
91.0424	28
92.0497	96
93.0581	516
98.9989	132
100.0072	73
108.9842	30
110.9983	39
125.0015	32
126.0089	85
127.0179	999
127.045	22
128.0257	15
132.9598	98
144.961	13
159.9703	35
