Mass spectrum: Octhilinone; LC-ESI-QTOF; MS2; 120 V
Name: Octhilinone
Class: Fungicide; Antimicrobial; Biocide
Formula: C11H19NOS
Exact mass: 213.1187
SMILES: CCCCCCCCN1C(=O)C=CS1
InChI: InChI=1S/C11H19NOS/c1-2-3-4-5-6-7-9-12-11(13)8-10-14-12/h8,10H,2-7,9H2,1H3
Instrument: TripleTOF 6600 SCIEX
Instrument type: LC-ESI-QTOF
Ms type: MS2
Ion mode: POSITIVE
Collision energy: 120
Fragmentation mode: CID
Ionization: ESI
Column name: Zorbax Eclipse Plus C18 2.1 mm x 150 mm, 3.5 um, Agilent
Retention time: 11.855 min
Precursor m/z: 214.126
Precursor type: [M+H]+
m/z	relative intensity
31.9723	37
35.9996	92
37.0075	402
38.0033	111
38.0155	305
39.0234	999
40.0189	37
41.0388	152
43.9714	23
44.0134	185
44.9796	189
45.9748	60
46.9826	41
47.9904	55
52.0062	27
52.0197	32
53.0027	106
53.014	55
55.9717	27
56.9798	735
57.9874	333
58.9955	92
82.9818	27
83.9902	27
