Mass spectrum: Sulfanilamide; LC-ESI-QTOF; MS2; 150 V
Name: Sulfanilamide
Class: Pharmaceutical; Transformation_product
Formula: C6H8N2O2S
Exact mass: 172.0306
SMILES: C1=CC(=CC=C1N)S(=O)(=O)N
InChI: InChI=1S/C6H8N2O2S/c7-5-1-3-6(4-2-5)11(8,9)10/h1-4H,7H2,(H2,8,9,10)
Instrument: TripleTOF 6600 SCIEX
Instrument type: LC-ESI-QTOF
Ms type: MS2
Ion mode: POSITIVE
Collision energy: 150
Fragmentation mode: CID
Ionization: ESI
Column name: Zorbax Eclipse Plus C18 2.1 mm x 150 mm, 3.5 um, Agilent
Retention time: 3.091 min
Precursor m/z: 173.0379
Precursor type: [M+H]+
m/z	relative intensity
35.9982	233
37.0062	765
38.0141	199
49.006	999
50.0138	566
73.007	532
74.0137	432
