Mass spectrum: Olmesartan; LC-ESI-QTOF; MS2; 110 V
Name: Olmesartan
Class: Pharmaceutical
Formula: C24H26N6O3
Exact mass: 446.2066
SMILES: CCCc1nc(c(n1Cc2ccc(cc2)c3ccccc3c4n[nH]nn4)C(O)=O)C(C)(C)O
InChI: InChI=1S/C24H26N6O3/c1-4-7-19-25-21(24(2,3)33)20(23(31)32)30(19)14-15-10-12-16(13-11-15)17-8-5-6-9-18(17)22-26-28-29-27-22/h5-6,8-13,33H,4,7,14H2,1-3H3,(H,31,32)(H,26,27,28,29)
Instrument: TripleTOF 5600 SCIEX
Instrument type: LC-ESI-QTOF
Ms type: MS2
Ion mode: POSITIVE
Collision energy: 110
Fragmentation mode: CID
Ionization: ESI
Column name: Zorbax Eclipse Plus C18 2.1 mm x 150 mm, 3.5 um, Agilent
Retention time: 7.356 min
Precursor m/z: 447.2139
Precursor type: [M+H]+
m/z	relative intensity
51.0287	13
77.0416	91
80.0519	27
89.0396	19
101.0376	13
102.0457	9
113.0373	37
114.0454	17
115.0538	52
125.0391	17
126.0466	25
127.0543	119
128.0605	53
137.0389	18
138.0461	37
139.0534	74
140.0494	139
141.0572	11
150.0466	91
151.054	497
152.062	999
153.0681	117
154.0646	20
162.0466	31
163.0538	351
164.054	309
165.0686	194
166.0636	33
167.0699	11
168.0693	11
176.0616	240
177.0662	242
177.1004	10
178.0717	434
179.0722	84
180.0803	63
188.0485	76
189.0565	93
190.0651	882
191.0647	88
192.0685	67
204.069	11
205.0757	377
206.0826	18
