Mass spectrum: Entacapone; LC-ESI-QTOF; MS2; 90 V
Name: Entacapone
Class: Pharmaceutical
Formula: C14H15N3O5
Exact mass: 305.1012
SMILES: CCN(CC)C(=O)C(=CC1=CC(=C(C(=C1)O)O)[N+](=O)[O-])C#N
InChI: InChI=1S/C14H15N3O5/c1-3-16(4-2)14(20)10(8-15)5-9-6-11(17(21)22)13(19)12(18)7-9/h5-7,18-19H,3-4H2,1-2H3
Instrument: TripleTOF 5600 SCIEX
Instrument type: LC-ESI-QTOF
Ms type: MS2
Ion mode: POSITIVE
Collision energy: 90
Fragmentation mode: CID
Ionization: ESI
Column name: Zorbax Eclipse Plus C18 2.1 mm x 150 mm, 3.5 um, Agilent
Retention time: 9.381 min
Precursor m/z: 306.1084
Precursor type: [M+H]+
m/z	relative intensity
44.0247	130
52.0278	47
64.0323	71
68.0198	59
72.0515	71
74.0206	249
75.016	832
76.0255	999
77.032	118
77.0415	202
78.0379	71
78.0491	71
80.0209	71
87.0135	713
88.0217	570
89.0311	59
89.041	59
90.0375	142
100.0222	59
101.0286	273
102.0354	214
103.0337	95
103.0447	47
104.0142	59
104.0527	107
113.0252	118
114.0242	95
114.0374	83
115.0548	59
116.0418	59
117.0467	47
130.0306	47
132.029	83
