Mass spectrum: 1-Benzyl-3-cyclohexylurea; LC-ESI-QTOF; MS2; 40 V
Name: 1-Benzyl-3-cyclohexylurea
Formula: C14H20N2O
Exact mass: 232.1576
SMILES: C1CCC(CC1)NC(=O)NCC2=CC=CC=C2
InChI: InChI=1S/C14H20N2O/c17-14(16-13-9-5-2-6-10-13)15-11-12-7-3-1-4-8-12/h1,3-4,7-8,13H,2,5-6,9-11H2,(H2,15,16,17)
Instrument: TripleTOF 6600 SCIEX
Instrument type: LC-ESI-QTOF
Ms type: MS2
Ion mode: POSITIVE
Collision energy: 40
Fragmentation mode: CID
Ionization: ESI
Column name: Zorbax Eclipse Plus C18 2.1 mm x 150 mm, 3.5 um, Agilent
Retention time: 10.259 min
Precursor m/z: 233.1649
Precursor type: [M+H]+
m/z	relative intensity
55.0543	59
65.0386	38
73.0392	10
83.0854	23
91.0546	999
151.0865	14
233.166	15
