Mass spectrum: (2-Phenyl-oxazol-4-yl)-methanol; LC-ESI-QTOF; MS2; 60 V
Name: (2-Phenyl-oxazol-4-yl)-methanol
Class: Industrial_process
Formula: C10H9NO2
Exact mass: 175.0633
SMILES: C1=CC=C(C=C1)C2=NC(=CO2)CO
InChI: InChI=1S/C10H9NO2/c12-6-9-7-13-10(11-9)8-4-2-1-3-5-8/h1-5,7,12H,6H2
Instrument: TripleTOF 5600 SCIEX
Instrument type: LC-ESI-QTOF
Ms type: MS2
Ion mode: POSITIVE
Collision energy: 60
Fragmentation mode: CID
Ionization: ESI
Column name: Zorbax Eclipse Plus C18 2.1 mm x 150 mm, 3.5 um, Agilent
Retention time: 7.557 min
Precursor m/z: 176.0706
Precursor type: [M+H]+
m/z	relative intensity
77.0445	999
89.0422	72
90.0502	17
102.0486	30
103.0566	187
104.0513	38
