Mass spectrum: Food Yellow 3 free acid; LC-ESI-QTOF; MS2; 50 V
Name: Food Yellow 3 free acid
Formula: C16H12N2O7S2
Exact mass: 408.0086
SMILES: C1=CC(=CC=C1N=NC2=C(C=CC3=C2C=CC(=C3)S(=O)(=O)O)O)S(=O)(=O)O
InChI: InChI=1S/C16H12N2O7S2/c19-15-8-1-10-9-13(27(23,24)25)6-7-14(10)16(15)18-17-11-2-4-12(5-3-11)26(20,21)22/h1-9,19H,(H,20,21,22)(H,23,24,25)
Instrument: TripleTOF 6600 SCIEX
Instrument type: LC-ESI-QTOF
Ms type: MS2
Ion mode: NEGATIVE
Collision energy: 50
Fragmentation mode: CID
Ionization: ESI
Column name: Zorbax Eclipse Plus C18 2.1 mm x 150 mm, 3.5 um, Agilent
Retention time: 5.59 min
Precursor m/z: 202.9969
Precursor type: [M-2H]2-
m/z	relative intensity
41.003	0
50.0029	1
63.0109	0
63.0235	1
63.9617	14
64.0186	3
65.0026	0
65.9979	5
74.003	1
79.709	4
79.9571	999
80.454	0
80.9645	9
81.8985	0
87.0234	0
88.0185	6
89.0018	0
89.0264	21
90.034	13
92.0261	0
93.0335	1
100.0182	0
105.0207	0
107.0368	75
113.0257	1
113.0385	2
113.6797	1
114.0343	258
115.0179	1
115.0398	2
116.0126	3
116.0489	0
117.0208	31
118.028	0
126.0343	2
129.0335	0
130.0412	3
141.5845	2
142.0294	633
143.0329	4
143.9878	4
144.0446	3
145.0283	1
155.9877	24
158.0361	6
170.9982	19
172.0398	1
179.987	1
180.4126	0
180.9829	82
205.9906	87
206.9979	1
