Mass spectrum: 2,6-Dimethylquinoline; LC-ESI-QTOF; MS2; 90 V
Name: 2,6-Dimethylquinoline
Formula: C11H11N
Exact mass: 157.0891
SMILES: CC1=CC2=C(C=C1)N=C(C=C2)C
InChI: InChI=1S/C11H11N/c1-8-3-6-11-10(7-8)5-4-9(2)12-11/h3-7H,1-2H3
Instrument: TripleTOF 6600 SCIEX
Instrument type: LC-ESI-QTOF
Ms type: MS2
Ion mode: POSITIVE
Collision energy: 90
Fragmentation mode: CID
Ionization: ESI
Column name: Zorbax Eclipse Plus C18 2.1 mm x 150 mm, 3.5 um, Agilent
Retention time: 5.162 min
Precursor m/z: 158.0964
Precursor type: [M+H]+
m/z	relative intensity
35.999	52
37.0071	310
38.0147	225
39.0228	999
41.0383	30
49.0067	68
50.0146	564
51.0225	632
52.0172	16
52.0298	33
61.0064	143
62.0143	437
63.0224	897
64.0175	19
64.0302	24
65.038	272
73.0068	33
74.0143	445
75.0222	280
76.0172	30
76.0295	49
77.0378	165
78.0328	16
78.0443	19
85.0052	24
86.0136	66
87.0213	41
88.0166	13
88.0294	49
89.0375	443
91.054	24
98.0136	19
99.0091	22
101.038	24
102.0344	13
102.0457	35
113.0381	85
114.0318	16
114.045	33
115.0532	170
116.0475	16
126.0442	30
127.052	41
128.0606	35
140.0476	49
141.0558	38
153.055	13
154.0636	41
