Mass spectrum: Pregabalin; LC-ESI-QTOF; MS2; 20 V
Name: Pregabalin
Class: Pharmaceutical
Formula: C8H17NO2
Exact mass: 159.1259
SMILES: CC(C)C[C@H](CN)CC(O)=O
InChI: InChI=1S/C8H17NO2/c1-6(2)3-7(5-9)4-8(10)11/h6-7H,3-5,9H2,1-2H3,(H,10,11)/t7-/m0/s1
Instrument: TripleTOF 5600 SCIEX
Instrument type: LC-ESI-QTOF
Ms type: CID
Ion mode: POSITIVE
Collision energy: 20
Ionization: ESI
Column name: Zorbax Eclipse Plus C18 2.1 mm x 150 mm, 3.5 um, Agilent
Retention time: 5.167 min
Precursor m/z: 160.1332
Precursor type: [M+H]+
m/z	relative intensity
55.0234	44
55.0604	184
57.0744	18
59.0545	12
68.0532	34
69.0366	22
69.0736	47
79.0568	22
81.0726	21
82.0672	16
83.0519	10
83.0883	260
97.1027	395
107.0855	72
124.1127	311
125.0963	270
142.1233	999
143.1063	116
160.1335	159
