Mass spectrum: O-Desmethyl amisulpride; LC-ESI-QTOF; MS2; 90 V
Name: O-Desmethyl amisulpride
Class: Pharmaceutical; Transformation_product
Formula: C16H25N3O4S
Exact mass: 355.1566
SMILES: CCN1CCCC1CNC(=O)c2cc(c(cc2O)N)S(=O)(=O)CC
InChI: InChI=1S/C16H25N3O4S/c1-3-19-7-5-6-11(19)10-18-16(21)12-8-15(24(22,23)4-2)13(17)9-14(12)20/h8-9,11,20H,3-7,10,17H2,1-2H3,(H,18,21)
Instrument: TripleTOF 5600 SCIEX
Instrument type: LC-ESI-QTOF
Ms type: MS2
Ion mode: POSITIVE
Collision energy: 90
Fragmentation mode: CID
Ionization: ESI
Column name: Zorbax Eclipse Plus C18 2.1 mm x 150 mm, 3.5 um, Agilent
Retention time: 5.619 min
Precursor m/z: 356.1639
Precursor type: [M+H]+
m/z	relative intensity
42.0436	52
44.0195	14
51.028	11
52.025	17
52.0368	84
53.0443	17
54.0384	17
55.0251	17
55.0597	97
56.0554	302
56.9843	12
57.0738	11
57.9931	11
58.0708	147
59.0004	54
64.0344	36
65.0293	19
65.0416	9
66.0371	14
67.022	17
67.0462	23
67.0576	52
68.0168	222
68.0535	30
68.9833	36
69.0606	11
69.0728	15
69.9876	11
70.0686	54
70.9984	73
76.0217	14
77.0294	15
78.0361	36
79.0205	12
79.0447	125
80.0155	9
80.0303	14
80.0519	87
82.0677	109
82.9957	11
83.993	15
84.0836	999
84.9764	132
86.9921	71
89.0279	279
91.0183	12
93.0204	17
94.0304	281
96.0834	12
97.0902	17
98.0062	39
98.0974	89
98.9912	57
99.9864	289
105.0219	54
106.0281	23
107.0371	668
107.9907	259
108.0204	170
110.0977	54
110.9924	9
112.1127	685
126.0009	189
126.9852	23
133.0159	36
134.0231	15
135.0097	15
135.032	313
135.985	57
136.0153	12
136.0414	20
153.9961	122
163.9812	22
181.9908	122
