Mass spectrum: Ethisterone; LC-ESI-QTOF; MS2; 40 V
Name: Ethisterone
Class: Pharmaceutical; Metabolite
Formula: C21H28O2
Exact mass: 312.2089
SMILES: C[C@]12CCC(=O)C=C1CC[C@@H]3[C@@H]2CC[C@@]4(C)[C@H]3CC[C@@]4(O)C#C
InChI: InChI=1S/C21H28O2/c1-4-21(23)12-9-18-16-6-5-14-13-15(22)7-10-19(14,2)17(16)8-11-20(18,21)3/h1,13,16-18,23H,5-12H2,2-3H3/t16-,17+,18+,19+,20+,21+/m1/s1
Instrument: TripleTOF 5600 SCIEX
Instrument type: LC-ESI-QTOF
Ms type: MS2
Ion mode: POSITIVE
Collision energy: 40
Fragmentation mode: CID
Ionization: ESI
Column name: Zorbax Eclipse Plus C18 2.1 mm x 150 mm, 3.5 um, Agilent
Retention time: 11.662 min
Precursor m/z: 313.2162
Precursor type: [M+H]+
m/z	relative intensity
43.0251	10
55.0239	9
55.0586	10
67.0581	35
69.0732	33
77.0413	51
79.0578	156
81.073	109
83.0503	41
91.0559	104
93.0715	47
95.0862	32
97.0669	993
105.07	78
107.0515	12
107.0852	29
109.066	999
115.0546	17
116.0618	10
117.0695	37
119.0855	61
121.0651	16
121.1026	19
123.0807	99
128.0623	43
129.0702	50
130.0797	13
131.0855	56
133.1007	32
135.0812	11
135.1165	11
141.0697	16
142.0777	25
143.0867	63
145.1014	61
147.1176	12
149.0949	13
155.0864	33
156.095	20
157.1017	43
159.117	25
165.0694	10
167.086	10
169.1004	24
171.1165	48
173.1342	11
181.101	15
183.1169	28
185.1322	33
187.1471	15
195.1187	14
197.1334	14
199.146	24
207.1186	12
209.1323	12
211.1486	19
213.1612	11
221.1324	11
225.1625	11
227.1798	30
237.1617	14
245.191	27
