Mass spectrum: Hexazinone; LC-ESI-QTOF; MS2; 70 V
Name: Hexazinone
Class: Herbicide
Formula: C12H20N4O2
Exact mass: 252.1586
SMILES: CN1C(=NC(=O)N(C1=O)C2CCCCC2)N(C)C
InChI: InChI=1S/C12H20N4O2/c1-14(2)10-13-11(17)16(12(18)15(10)3)9-7-5-4-6-8-9/h9H,4-8H2,1-3H3
Instrument: TripleTOF 6600 SCIEX
Instrument type: LC-ESI-QTOF
Ms type: MS2
Ion mode: POSITIVE
Collision energy: 70
Fragmentation mode: CID
Ionization: ESI
Column name: Zorbax Eclipse Plus C18 2.1 mm x 150 mm, 3.5 um, Agilent
Retention time: 8.427 min
Precursor m/z: 253.1659
Precursor type: [M+H]+
m/z	relative intensity
39.0225	27
41.0388	19
42.0335	75
44.0493	84
46.0657	12
55.0293	73
55.0533	50
56.0367	101
58.0289	18
58.0644	100
69.008	31
69.0439	272
69.9913	46
70.0517	105
71.0599	999
72.0439	28
83.0234	128
85.0755	400
96.0546	14
