Mass spectrum: Hydrocodone; LC-ESI-QTOF; MS2; 40 V
Name: Hydrocodone
Class: Pharmaceutical
Formula: C18H21NO3
Exact mass: 299.1521
SMILES: CN1CCC23C4C1CC5=C2C(=C(C=C5)OC)OC3C(=O)CC4
InChI: InChI=1S/C18H21NO3/c1-19-8-7-18-11-4-5-13(20)17(18)22-16-14(21-2)6-3-10(15(16)18)9-12(11)19/h3,6,11-12,17H,4-5,7-9H2,1-2H3
Instrument: TripleTOF 6600 SCIEX
Instrument type: LC-ESI-QTOF
Ms type: MS2
Ion mode: POSITIVE
Collision energy: 40
Fragmentation mode: CID
Ionization: ESI
Column name: Zorbax Eclipse Plus C18 2.1 mm x 150 mm, 3.5 um, Agilent
Retention time: 5.331 min
Precursor m/z: 300.1594
Precursor type: [M+H]+
m/z	relative intensity
44.0484	10
115.0522	10
128.061	23
137.057	10
141.0682	42
153.0685	43
155.0834	15
156.0564	14
165.0701	40
170.0717	16
171.0792	184
181.0643	86
182.0712	12
183.0792	96
185.0593	62
185.0946	26
187.0738	23
193.0649	12
195.081	10
197.0953	13
198.0669	34
199.075	999
201.0894	14
211.0746	22
213.091	154
215.106	17
225.0909	54
241.0857	176
243.101	67
257.1166	26
285.1353	25
300.1605	401
