Mass spectrum: Indoxacarb; LC-ESI-QTOF; MS2; 120 V
Name: Indoxacarb
Class: Insecticide
Formula: C22H17ClF3N3O7
Exact mass: 527.0707
SMILES: COC(=O)[C@]12Cc3cc(ccc3C1=NN(CO2)C(=O)N(c4ccc(cc4)OC(F)(F)F)C(=O)OC)Cl
InChI: InChI=1S/C22H17ClF3N3O7/c1-33-18(30)21-10-12-9-13(23)3-8-16(12)17(21)27-28(11-35-21)19(31)29(20(32)34-2)14-4-6-15(7-5-14)36-22(24,25)26/h3-9H,10-11H2,1-2H3/t21-/m0/s1
Instrument: TripleTOF 5600 SCIEX
Instrument type: LC-ESI-QTOF
Ms type: MS2
Ion mode: POSITIVE
Collision energy: 120
Fragmentation mode: CID
Ionization: ESI
Column name: Zorbax Eclipse Plus C18 2.1 mm x 150 mm, 3.5 um, Agilent
Retention time: 15.019 min
Precursor m/z: 528.078
Precursor type: [M+H]+
m/z	relative intensity
45.0422	12
51.03	75
56.0203	193
59.0182	56
68.9994	274
69.9959	13
72.9885	37
73.0092	11
74.0191	55
75.0269	138
77.0423	253
78.0381	469
83.0325	17
87.0247	38
88.032	57
89.0405	176
90.0352	49
93.0584	10
95.0301	36
96.9847	29
97.034	15
98.016	46
99.0236	245
100.0214	123
101.0397	139
102.0468	133
103.0546	21
104.0504	51
106.0304	999
109.0313	15
110.9999	19
113.0389	192
114.04	371
115.0544	532
116.0618	85
120.0185	10
123.0006	593
124.0071	160
125.0152	23
126.0358	334
127.0433	570
128.0619	246
129.0334	13
129.0548	14
130.0655	14
132.0457	12
134.0248	958
134.9999	94
136.008	301
137.0137	35
139.0354	11
140.0495	81
141.0544	69
142.0644	47
146.9999	78
147.0292	36
148.0041	128
149.0154	403
150.0114	609
151.0188	17
152.0024	162
153.0445	15
154.0403	96
155.0608	39
157.0287	42
161.0026	72
162.0114	229
163.0061	43
164.0026	33
164.0267	32
167.0259	25
175.0067	15
175.0239	70
176.0239	68
189.0231	11
190.0487	10
203.0195	251
