Mass spectrum: Iomeprol; LC-ESI-QTOF; MS2; 100 V
Name: Iomeprol
Class: Pharmaceutical
Formula: C17H22I3N3O8
Exact mass: 776.8541
SMILES: CN(C(=O)CO)c1c(I)c(C(=O)NCC(O)CO)c(I)c(C(=O)NCC(O)CO)c1I
InChI: InChI=1S/C17H22I3N3O8/c1-23(9(29)6-26)15-13(19)10(16(30)21-2-7(27)4-24)12(18)11(14(15)20)17(31)22-3-8(28)5-25/h7-8,24-28H,2-6H2,1H3,(H,21,30)(H,22,31)
Instrument: TripleTOF 5600 SCIEX
Instrument type: LC-ESI-QTOF
Ms type: MS2
Ion mode: POSITIVE
Collision energy: 100
Fragmentation mode: CID
Ionization: ESI
Column name: Zorbax Eclipse Plus C18 2.1 mm x 150 mm, 3.5 um, Agilent
Retention time: 4.596 min
Precursor m/z: 777.8614
Precursor type: [M+H]+
m/z	relative intensity
104.049	9
119.0373	26
131.0349	11
132.0435	21
136.0379	13
146.023	23
147.0319	9
148.039	11
149.0458	32
160.0384	13
161.0467	130
162.0219	11
162.0546	21
163.0603	15
175.0267	13
176.0351	19
177.0417	65
178.0488	13
179.059	11
187.025	15
204.0282	17
204.0672	9
205.0249	17
205.0598	13
206.0441	13
217.0649	15
217.9447	11
231.0661	9
245.9407	30
247.0755	13
257.943	76
261.0899	13
273.9354	93
275.95	15
277.0817	19
285.937	13
286.947	13
287.9525	999
288.9606	26
301.9318	40
305.9651	17
313.9322	15
330.9576	11
331.9408	180
374.9936	19
404.9942	157
413.8332	9
