Mass spectrum: Ranitidine; LC-ESI-QTOF; MS2; 150 V
Name: Ranitidine
Class: Pharmaceutical
Formula: C13H22N4O3S
Exact mass: 314.1413
SMILES: CNC(=C[N+](=O)[O-])NCCSCC1=CC=C(O1)CN(C)C
InChI: InChI=1S/C13H22N4O3S/c1-14-13(9-17(18)19)15-6-7-21-10-12-5-4-11(20-12)8-16(2)3/h4-5,9,14-15H,6-8,10H2,1-3H3
Instrument: TripleTOF 5600 SCIEX
Instrument type: LC-ESI-QTOF
Ms type: MS2
Ion mode: POSITIVE
Collision energy: 150
Fragmentation mode: CID
Ionization: ESI
Column name: Zorbax Eclipse Plus C18 2.1 mm x 150 mm, 3.5 um, Agilent
Retention time: 4.832 min
Precursor m/z: 315.1485
Precursor type: [M+H]+
m/z	relative intensity
39.0306	385
42.043	544
43.0274	90
44.0583	136
44.999	158
51.0283	999
53.0436	817
54.0387	454
54.0506	158
55.0471	227
56.0536	476
57.0484	385
57.9908	113
58.9995	408
59.0107	113
65.0432	567
66.0492	204
67.0449	113
68.0521	158
68.9832	204
70.9986	136
74.0092	90
77.0409	953
78.0358	90
78.0486	90
80.0511	249
81.0363	340
81.0462	340
82.0535	227
83.0662	90
89.041	158
92.0512	113
93.0587	90
94.0684	158
97.0096	136
97.0774	113
102.0379	113
104.0503	113
