Mass spectrum: Sulfamethoxazole; LC-ESI-QTOF; MS2; 40 V
Name: Sulfamethoxazole
Class: Antimicrobial; Pharmaceutical
Formula: C10H11N3O3S
Exact mass: 253.0521
SMILES: CC1=CC(=NO1)NS(=O)(=O)C2=CC=C(C=C2)N
InChI: InChI=1S/C10H11N3O3S/c1-7-6-10(12-16-7)13-17(14,15)9-4-2-8(11)3-5-9/h2-6H,11H2,1H3,(H,12,13)
Instrument: TripleTOF 5600 SCIEX
Instrument type: LC-ESI-QTOF
Ms type: MS2
Ion mode: POSITIVE
Collision energy: 40
Fragmentation mode: CID
Ionization: ESI
Column name: Zorbax Eclipse Plus C18 2.1 mm x 150 mm, 3.5 um, Agilent
Retention time: 7.246 min
Precursor m/z: 254.0594
Precursor type: [M+H]+
m/z	relative intensity
65.0461	356
66.0522	11
80.0551	165
92.0536	999
93.0613	211
94.069	16
99.0584	132
107.0625	32
108.0473	851
119.0602	10
143.0618	12
146.0733	60
147.0804	78
148.0865	13
156.0123	320
160.0877	87
161.0051	11
188.0817	20
254.0581	26
