Mass spectrum: Dextrorphan; LC-ESI-QTOF; MS2; 130 V
Name: Dextrorphan
Class: Pharmaceutical; Metabolite
Formula: C17H23NO
Exact mass: 257.178
SMILES: CN1CC[C@@]23CCCC[C@@H]2[C@@H]1CC4=C3C=C(C=C4)O
InChI: InChI=1S/C17H23NO/c1-18-9-8-17-7-3-2-4-14(17)16(18)10-12-5-6-13(19)11-15(12)17/h5-6,11,14,16,19H,2-4,7-10H2,1H3/t14-,16+,17+/m1/s1
Instrument: TripleTOF 5600 SCIEX
Instrument type: LC-ESI-QTOF
Ms type: MS2
Ion mode: POSITIVE
Collision energy: 130
Fragmentation mode: CID
Ionization: ESI
Column name: Zorbax Eclipse Plus C18 2.1 mm x 150 mm, 3.5 um, Agilent
Retention time: 5.969 min
Precursor m/z: 258.1852
Precursor type: [M+H]+
m/z	relative intensity
44.0576	99
65.0432	159
73.0108	18
74.0183	182
75.0258	186
76.0342	170
77.042	999
78.0491	189
79.0561	20
85.0118	18
86.0169	50
87.0256	66
88.0312	16
89.0405	313
91.0562	53
98.0155	32
99.0245	18
100.0342	13
101.0395	69
102.0477	442
103.0544	55
107.051	16
113.0394	46
114.0477	25
115.0552	401
125.0385	20
126.0468	163
127.0548	318
128.0628	449
131.0494	23
138.0462	13
139.0543	69
150.0485	55
151.0547	50
152.062	64
155.0509	13
163.0528	36
164.0628	23
165.0734	20
176.0617	11
