Mass spectrum: Metolachlor OA; LC-ESI-QTOF; MS2; 40 V
Name: Metolachlor OA
Class: Herbicide
Formula: C15H21NO4
Exact mass: 279.1471
SMILES: CCC1=CC=CC(=C1N(C(C)COC)C(=O)C(=O)O)C
InChI: InChI=1S/C15H21NO4/c1-5-12-8-6-7-10(2)13(12)16(11(3)9-20-4)14(17)15(18)19/h6-8,11H,5,9H2,1-4H3,(H,18,19)
Instrument: TripleTOF 5600 SCIEX
Instrument type: LC-ESI-QTOF
Ms type: MS2
Ion mode: POSITIVE
Collision energy: 40
Fragmentation mode: CID
Ionization: ESI
Column name: Zorbax Eclipse Plus C18 2.1 mm x 150 mm, 3.5 um, Agilent
Retention time: 9.915 min
Precursor m/z: 280.1543
Precursor type: [M+H]+
m/z	relative intensity
45.043	24
59.0556	19
73.0698	106
77.0408	38
91.0563	149
93.0752	33
103.0526	24
104.0623	28
105.0705	33
106.0652	43
115.0559	38
117.0667	130
118.066	96
119.0683	24
119.0841	101
128.0634	24
129.0755	48
130.0651	135
130.0851	24
131.073	395
132.0822	130
133.0892	106
134.0952	236
142.0633	43
144.0811	265
145.0873	96
146.0959	444
147.1097	38
148.1116	318
159.1084	24
160.0758	33
160.1105	82
162.092	67
174.1286	67
176.1432	164
202.1209	48
204.1331	38
220.1341	86
248.1282	999
