Mass spectrum: 4-Desmethyl-trimethoprim; LC-ESI-QTOF; MS2; 40 V
Name: 4-Desmethyl-trimethoprim
Class: Pharmaceutical
Formula: C13H16N4O3
Exact mass: 276.1222
SMILES: COC1=CC(=CC(=C1O)OC)CC2=CN=C(N=C2N)N
InChI: InChI=1S/C13H16N4O3/c1-19-9-4-7(5-10(20-2)11(9)18)3-8-6-16-13(15)17-12(8)14/h4-6,18H,3H2,1-2H3,(H4,14,15,16,17)
Instrument: TripleTOF 5600 SCIEX
Instrument type: LC-ESI-QTOF
Ms type: MS2
Ion mode: POSITIVE
Collision energy: 40
Fragmentation mode: CID
Ionization: ESI
Column name: Zorbax Eclipse Plus C18 2.1 mm x 150 mm, 3.5 um, Agilent
Retention time: 4.783 min
Precursor m/z: 277.1295
Precursor type: [M+H]+
m/z	relative intensity
81.0467	133
110.0577	37
111.0652	12
123.0665	573
124.0744	17
128.0476	11
146.07	15
147.065	14
148.0735	42
149.0809	10
151.0378	9
156.0454	13
161.0802	21
163.0981	11
167.0695	18
170.0715	10
173.0808	23
175.098	15
186.0592	15
187.0961	89
188.1041	36
191.0919	10
198.066	10
203.092	18
215.091	28
216.0992	76
219.086	177
231.0865	55
232.0934	50
233.1016	117
243.0872	13
244.0697	11
244.092	17
245.1011	40
247.0808	49
259.0808	34
261.098	999
262.1051	201
277.1287	378
