Mass spectrum: 3,3`-Dinitrobisphenol A; LC-ESI-QTOF; MS2; 60 V
Name: 3,3`-Dinitrobisphenol A
Class: Transformation_product
Formula: C15H14N2O6
Exact mass: 318.0852
SMILES: CC(C1=CC=C(O)C([N+]([O-])=O)=C1)(C2=CC([N+]([O-])=O)=C(O)C=C2)C
InChI: InChI=1S/C15H14N2O6/c1-15(2,9-3-5-13(18)11(7-9)16(20)21)10-4-6-14(19)12(8-10)17(22)23/h3-8,18-19H,1-2H3
Instrument: TripleTOF 5600 SCIEX
Instrument type: LC-ESI-QTOF
Ms type: MS2
Ion mode: NEGATIVE
Collision energy: 60
Fragmentation mode: CID
Ionization: ESI
Column name: Zorbax Eclipse Plus C18 2.1 mm x 150 mm, 3.5 um, Agilent
Retention time: 13.85 min
Precursor m/z: 317.0779
Precursor type: [M-H]-
m/z	relative intensity
180.0577	62
182.0391	55
196.0542	84
201.0453	55
209.0506	79
210.0577	137
212.037	662
226.0525	924
227.0603	999
228.0632	78
255.0558	82
285.0546	65
