Mass spectrum: Haloxyfop; LC-ESI-QTOF; MS2; 40 V
Name: Haloxyfop
Class: Herbicide
Formula: C15H11ClF3NO4
Exact mass: 361.0329
SMILES: CC(C(=O)O)OC1=CC=C(C=C1)OC2=C(C=C(C=N2)C(F)(F)F)Cl
InChI: InChI=1S/C15H11ClF3NO4/c1-8(14(21)22)23-10-2-4-11(5-3-10)24-13-12(16)6-9(7-20-13)15(17,18)19/h2-8H,1H3,(H,21,22)
Instrument: TripleTOF 5600 SCIEX
Instrument type: LC-ESI-QTOF
Ms type: MS2
Ion mode: POSITIVE
Collision energy: 40
Fragmentation mode: CID
Ionization: ESI
Column name: Zorbax Eclipse Plus C18 2.1 mm x 150 mm, 3.5 um, Agilent
Retention time: 12.921 min
Precursor m/z: 362.0401
Precursor type: [M+H]+
m/z	relative intensity
65.0437	64
75.0295	29
91.0552	523
91.0878	29
91.1017	23
93.0358	29
119.0478	35
121.0283	70
179.9817	47
180.9918	23
197.9908	47
209.0437	58
226.0464	52
232.0154	29
237.0383	64
247.0461	35
252.0006	58
260.0448	64
261.0167	76
272.0072	523
288.0019	487
288.0412	317
289.0129	170
290.0194	70
298.0195	29
316.0351	999
362.0398	146
