Mass spectrum: Desmethylranitidine; LC-ESI-QTOF; MS2; 30 V
Name: Desmethylranitidine
Class: Pharmaceutical; Transformation_product
Formula: C12H20N4O3S
Exact mass: 300.1256
SMILES: CNCC1=CC=C(O1)CSCCNC(=C[N+](=O)[O-])NC
InChI: InChI=1S/C12H20N4O3S/c1-13-7-10-3-4-11(19-10)9-20-6-5-15-12(14-2)8-16(17)18/h3-4,8,13-15H,5-7,9H2,1-2H3
Instrument: TripleTOF 5600 SCIEX
Instrument type: LC-ESI-QTOF
Ms type: MS2
Ion mode: POSITIVE
Collision energy: 30
Fragmentation mode: CID
Ionization: ESI
Column name: Zorbax Eclipse Plus C18 2.1 mm x 150 mm, 3.5 um, Agilent
Retention time: 4.769 min
Precursor m/z: 301.1329
Precursor type: [M+H]+
m/z	relative intensity
81.0361	73
83.056	18
84.069	16
88.0234	37
95.0516	30
96.0817	29
97.0773	94
98.0847	360
101.0314	15
102.0374	388
107.0488	18
110.0589	17
114.0787	22
115.0328	12
117.0472	16
118.0309	33
121.0746	24
124.0756	145
125.005	774
129.0486	22
130.0557	983
135.0918	44
144.0773	60
145.0437	15
146.0508	16
147.0679	16
148.0761	73
149.0694	16
153.0377	69
154.0535	13
163.0847	33
164.0935	51
165.1022	155
167.0636	59
170.0626	68
176.0484	999
177.1014	113
178.0309	25
178.1111	25
181.0792	127
191.1177	243
192.0463	60
193.055	60
195.0725	15
223.0873	25
224.0976	169
