Mass spectrum: Tepraloxydim; LC-ESI-QTOF; MS2; 140 V
Name: Tepraloxydim
Class: Herbicide
Formula: C17H24ClNO4
Exact mass: 341.1394
SMILES: CCC(=NOCC=CCl)C1=C(CC(CC1=O)C2CCOCC2)O
InChI: InChI=1S/C17H24ClNO4/c1-2-14(19-23-7-3-6-18)17-15(20)10-13(11-16(17)21)12-4-8-22-9-5-12/h3,6,12-13,20H,2,4-5,7-11H2,1H3
Instrument: TripleTOF 6600 SCIEX
Instrument type: LC-ESI-QTOF
Ms type: MS2
Ion mode: POSITIVE
Collision energy: 140
Fragmentation mode: CID
Ionization: ESI
Column name: Zorbax Eclipse Plus C18 2.1 mm x 150 mm, 3.5 um, Agilent
Retention time: 12.248 min
Precursor m/z: 342.1467
Precursor type: [M+H]+
m/z	relative intensity
37.0065	206
38.0141	174
39.0223	840
41.0253	174
41.0377	222
42.0331	269
43.0171	190
44.0122	111
46.9675	206
48.983	903
49.0069	95
50.0141	428
51.0219	999
52.0296	111
53.0013	79
53.0376	237
54.0333	190
55.0175	63
55.0521	63
56.0488	79
62.0144	111
63.0216	174
65.0371	459
66.033	142
66.0445	95
67.0396	126
68.0124	95
68.0484	111
74.9987	126
77.0375	903
78.0345	79
78.0449	111
79.0541	126
80.0484	237
82.0631	79
89.038	190
91.0526	237
92.0474	95
93.0561	95
96.0429	111
103.0528	95
104.048	63
115.0532	174
126.0453	63
128.0594	95
