Mass spectrum: Chloridazone-desphenyl; LC-ESI-QTOF; MS2; 40 V
Name: Chloridazone-desphenyl
Class: Herbicide; Transformation_product
Formula: C4H4ClN3O
Exact mass: 145.0043
SMILES: C1=NNC(=O)C(=C1N)Cl
InChI: InChI=1S/C4H4ClN3O/c5-3-2(6)1-7-8-4(3)9/h1H,(H3,6,8,9)
Instrument: TripleTOF 6600 SCIEX
Instrument type: LC-ESI-QTOF
Ms type: MS2
Ion mode: NEGATIVE
Collision energy: 40
Fragmentation mode: CID
Ionization: ESI
Column name: Zorbax Eclipse Plus C18 2.1 mm x 150 mm, 3.5 um, Agilent
Retention time: 2.877 min
Precursor m/z: 143.997
Precursor type: [M-H]-
m/z	relative intensity
34.9692	999
41.9985	249
50.0039	499
51.011	249
52.0192	249
53.003	249
64.0068	249
65.0128	249
65.9978	124
79.0039	374
108.0179	249
144.0001	124
