Mass spectrum: 4-Hydroxy-1H-benzotriazole; LC-ESI-QTOF; MS2; 120 V
Name: 4-Hydroxy-1H-benzotriazole
Class: Industrial_process; Transformation_product
Formula: C6H5N3O
Exact mass: 135.0433
InChI: InChI=1S/C6H5N3O/c10-5-3-1-2-4-6(5)8-9-7-4/h1-3,10H,(H,7,8,9)
Instrument: TripleTOF 5600 SCIEX
Instrument type: LC-ESI-QTOF
Ms type: CID
Ion mode: NEGATIVE
Collision energy: 120
Ionization: ESI
Column name: Zorbax Eclipse Plus C18 2.1 mm x 150 mm, 3.5 um, Agilent
Retention time: 5.337 min
Precursor m/z: 134.036
Precursor type: [M-H]-
m/z	relative intensity
42.0117	99
42.0199	99
48.0011	99
50.0047	999
