Mass spectrum: Olmesartan-d6; LC-ESI-QTOF; MS2; 90 V
Name: Olmesartan-d6
Class: Surrogate_standard
Formula: C24H20N6O3 2H6
Exact mass: 452.2443
SMILES: [2H]C([2H])([2H])C(C1=C(N(C(=N1)CCC)CC2=CC=C(C=C2)C3=CC=CC=C3C4=NNN=N4)C(=O)O)(C([2H])([2H])[2H])O
InChI: InChI=1S/C24H26N6O3/c1-4-7-19-25-21(24(2,3)33)20(23(31)32)30(19)14-15-10-12-16(13-11-15)17-8-5-6-9-18(17)22-26-28-29-27-22/h5-6,8-13,33H,4,7,14H2,1-3H3,(H,31,32)(H,26,27,28,29)/i2D3,3D3
Instrument: TripleTOF 5600 SCIEX
Instrument type: LC-ESI-QTOF
Ms type: MS2
Ion mode: POSITIVE
Collision energy: 90
Fragmentation mode: CID
Ionization: ESI
Column name: Zorbax Eclipse Plus C18 2.1 mm x 150 mm, 3.5 um, Agilent
Retention time: 7.306 min
Precursor m/z: 453.2527
Precursor type: [M+H]+
m/z	relative intensity
77.0427	45
80.0537	10
113.0407	21
114.0481	10
115.0544	43
125.0396	14
126.0481	18
127.0549	69
128.0621	34
129.0462	10
137.0405	10
138.048	28
139.0545	49
140.0508	136
141.0619	23
150.047	50
151.0551	281
152.0627	689
153.0698	292
154.0699	56
155.0614	13
162.0455	19
163.055	258
164.0589	233
165.0672	234
166.0668	59
167.0746	33
168.069	23
176.0621	124
177.0687	210
178.0761	638
179.0747	223
180.0806	254
181.0853	42
182.1346	31
183.1384	42
188.05	40
189.0591	95
190.0654	999
191.0725	303
192.0698	248
193.073	23
205.0763	532
206.0838	180
207.0909	61
208.0975	10
