Mass spectrum: Ranitidine-S-oxide; LC-ESI-QTOF; MS2; 50 V
Name: Ranitidine-S-oxide
Class: Pharmaceutical; Transformation_product; Transformation_product-Metabolite
Formula: C13H22N4O4S
Exact mass: 330.1362
SMILES: CNC(=C[N+](=O)[O-])NCCS(=O)Cc1ccc(o1)CN(C)C
InChI: InChI=1S/C13H22N4O4S/c1-14-13(9-17(18)19)15-6-7-22(20)10-12-5-4-11(21-12)8-16(2)3/h4-5,9,14-15H,6-8,10H2,1-3H3
Instrument: TripleTOF 5600 SCIEX
Instrument type: LC-ESI-QTOF
Ms type: MS2
Ion mode: POSITIVE
Collision energy: 50
Fragmentation mode: CID
Ionization: ESI
Column name: Zorbax Eclipse Plus C18 2.1 mm x 150 mm, 3.5 um, Agilent
Retention time: 2.941 min
Precursor m/z: 331.1435
Precursor type: [M+H]+
m/z	relative intensity
58.0692	192
67.057	44
68.0529	83
79.0566	25
81.0586	44
81.0722	51
82.0663	147
84.0717	38
93.0721	38
94.0422	698
94.064	121
95.0495	108
95.0747	147
97.0767	96
98.0853	51
108.081	160
110.0961	999
125.0053	32
130.0554	44
138.0912	236
139.0986	38
146.0491	32
