Mass spectrum: Testosterone; LC-ESI-QTOF; MS2; 40 V
Name: Testosterone
Class: Pharmaceutical
Formula: C19H28O2
Exact mass: 288.2089
SMILES: C[C@]12CC[C@H]3[C@@H](CCC4=CC(=O)CC[C@]34C)[C@@H]1CC[C@@H]2O
InChI: InChI=1S/C19H28O2/c1-18-9-7-13(20)11-12(18)3-4-14-15-5-6-17(21)19(15,2)10-8-16(14)18/h11,14-17,21H,3-10H2,1-2H3/t14-,15-,16-,17-,18-,19-/m0/s1
Instrument: TripleTOF 5600 SCIEX
Instrument type: LC-ESI-QTOF
Ms type: MS2
Ion mode: POSITIVE
Collision energy: 40
Fragmentation mode: CID
Ionization: ESI
Column name: Zorbax Eclipse Plus C18 2.1 mm x 150 mm, 3.5 um, Agilent
Retention time: 10.968 min
Precursor m/z: 289.2162
Precursor type: [M+H]+
m/z	relative intensity
43.0283	16
67.0606	35
69.0758	28
77.043	72
79.0594	188
81.075	157
83.0551	41
91.058	86
93.0738	73
95.0896	53
97.0692	999
105.0733	83
107.0878	36
109.0686	992
117.0741	18
119.0874	65
121.0671	21
121.1049	28
123.0831	125
129.073	23
131.0885	36
133.1037	29
135.1195	10
143.0875	25
145.1047	39
147.1201	27
157.1041	25
159.1197	30
161.1369	20
169.1049	11
171.1193	23
173.1368	17
175.1523	21
177.1326	13
183.1184	13
185.1363	16
187.152	25
189.1331	11
197.1384	16
199.1501	17
201.1663	18
211.1521	11
213.1674	23
227.187	12
253.1986	77
271.2102	54
289.2213	271
