Mass spectrum: Nilotinib; LC-ESI-QTOF; MS2; 110 V
Name: Nilotinib
Class: Pharmaceutical
Formula: C28H22F3N7O
Exact mass: 529.1838
SMILES: Cc1cn(cn1)c2cc(NC(=O)c3ccc(C)c(Nc4nccc(n4)c5cccnc5)c3)cc(c2)C(F)(F)F
InChI: InChI=1S/C28H22F3N7O/c1-17-5-6-19(10-25(17)37-27-33-9-7-24(36-27)20-4-3-8-32-14-20)26(39)35-22-11-21(28(29,30)31)12-23(13-22)38-15-18(2)34-16-38/h3-16H,1-2H3,(H,35,39)(H,33,36,37)
Instrument: TripleTOF 5600 SCIEX
Instrument type: LC-ESI-QTOF
Ms type: MS2
Ion mode: POSITIVE
Collision energy: 110
Fragmentation mode: CID
Ionization: ESI
Column name: Zorbax Eclipse Plus C18 2.1 mm x 150 mm, 3.5 um, Agilent
Retention time: 8.404 min
Precursor m/z: 530.1911
Precursor type: [M+H]+
m/z	relative intensity
77.0413	27
78.0356	18
89.0389	16
90.0494	11
91.0578	11
102.0371	22
104.0485	68
115.0408	18
116.046	33
128.051	18
129.0431	46
130.0583	20
131.0596	46
142.0516	23
151.0368	12
153.0386	12
155.0611	31
156.0549	92
167.053	11
171.0791	12
182.0699	12
191.0663	14
192.0678	29
193.056	22
193.0712	18
194.0629	27
195.0776	14
205.0761	20
206.079	20
208.0821	14
217.0671	33
218.0707	46
219.0758	42
220.0844	25
231.0763	12
232.0862	38
233.093	29
234.1018	14
243.0814	25
244.0745	274
245.0835	232
246.0876	106
247.0967	12
257.0801	70
258.0883	79
259.097	999
260.1065	40
261.1132	23
