Mass spectrum: Ethisterone; LC-ESI-QTOF; MS2; 110 V
Name: Ethisterone
Class: Pharmaceutical; Metabolite
Formula: C21H28O2
Exact mass: 312.2089
SMILES: C[C@]12CCC(=O)C=C1CC[C@@H]3[C@@H]2CC[C@@]4(C)[C@H]3CC[C@@]4(O)C#C
InChI: InChI=1S/C21H28O2/c1-4-21(23)12-9-18-16-6-5-14-13-15(22)7-10-19(14,2)17(16)8-11-20(18,21)3/h1,13,16-18,23H,5-12H2,2-3H3/t16-,17+,18+,19+,20+,21+/m1/s1
Instrument: TripleTOF 5600 SCIEX
Instrument type: LC-ESI-QTOF
Ms type: MS2
Ion mode: POSITIVE
Collision energy: 110
Fragmentation mode: CID
Ionization: ESI
Column name: Zorbax Eclipse Plus C18 2.1 mm x 150 mm, 3.5 um, Agilent
Retention time: 11.662 min
Precursor m/z: 313.2162
Precursor type: [M+H]+
m/z	relative intensity
43.0246	78
43.0425	17
53.0449	74
55.0257	61
65.043	293
66.0483	39
67.0577	105
69.0736	30
77.0419	999
77.0694	48
78.0505	48
79.0572	411
81.036	35
81.0724	113
82.0427	26
83.0509	26
89.04	61
89.0596	26
91.0559	429
93.0717	21
94.0433	35
95.0915	17
97.0655	232
102.0467	65
103.0561	52
105.0698	21
107.05	21
109.0643	96
115.0542	429
117.0688	21
126.0481	35
127.0547	131
128.0619	293
129.0699	30
139.0573	21
141.0699	52
151.0572	35
152.0613	92
153.0712	35
165.0697	65
189.0708	17
202.0759	21
