Mass spectrum: Desmetryn; LC-ESI-QTOF; MS2; 140 V
Name: Desmetryn
Class: Herbicide
Formula: C8H15N5S
Exact mass: 213.1048
SMILES: CC(C)NC1=NC(=NC(=N1)NC)SC
InChI: InChI=1S/C8H15N5S/c1-5(2)10-7-11-6(9-3)12-8(13-7)14-4/h5H,1-4H3,(H2,9,10,11,12,13)
Instrument: TripleTOF 6600 SCIEX
Instrument type: LC-ESI-QTOF
Ms type: MS2
Ion mode: POSITIVE
Collision energy: 140
Fragmentation mode: CID
Ionization: ESI
Column name: Zorbax Eclipse Plus C18 2.1 mm x 150 mm, 3.5 um, Agilent
Retention time: 7.281 min
Precursor m/z: 214.1121
Precursor type: [M+H]+
m/z	relative intensity
31.9703	32
37.0061	76
38.0012	51
38.0136	83
39.022	172
41.0121	134
41.0375	25
42.0198	211
42.0322	44
43.0279	999
43.9701	38
44.9781	294
45.9731	57
46.9933	57
53.0116	83
55.0274	64
57.0431	102
57.9726	147
58.9808	108
59.9887	134
68.0223	224
84.9833	57
