Mass spectrum: Flutamide; LC-ESI-QTOF; MS2; 140 V
Name: Flutamide
Class: Pharmaceutical
Formula: C11H11F3N2O3
Exact mass: 276.0722
SMILES: CC(C)C(=O)NC1=CC(=C(C=C1)[N+](=O)[O-])C(F)(F)F
InChI: InChI=1S/C11H11F3N2O3/c1-6(2)10(17)15-7-3-4-9(16(18)19)8(5-7)11(12,13)14/h3-6H,1-2H3,(H,15,17)
Instrument: TripleTOF 6600 SCIEX
Instrument type: LC-ESI-QTOF
Ms type: MS2
Ion mode: POSITIVE
Collision energy: 140
Fragmentation mode: CID
Ionization: ESI
Column name: Zorbax Eclipse Plus C18 2.1 mm x 150 mm, 3.5 um, Agilent
Retention time: 12.297 min
Precursor m/z: 277.0795
Precursor type: [M+H]+
m/z	relative intensity
30.9973	21
35.9998	85
37.0064	233
38.0015	127
38.0139	191
39.0095	21
39.0224	999
40.0045	42
41.0385	297
42.0347	21
43.053	21
44.0118	21
50.9993	21
51.0087	63
51.0223	85
52.0187	21
53.0124	42
57.0127	106
59.9999	21
65.0394	42
68.0041	63
68.9939	63
73.0083	85
74.0148	255
75.0031	148
75.0227	106
76.0152	42
77.0378	21
81.0122	42
83.0285	42
85.0054	42
88.0109	21
89.0342	21
92.0043	21
92.9902	42
93.0115	21
98.0138	42
99.0041	85
