Mass spectrum: [4(Acetyloxy)butyl](triphenyl)phosphonium; LC-ESI-QTOF; MS2; 140 V
Name: [4(Acetyloxy)butyl](triphenyl)phosphonium
Formula: [C24H26O2P]+
Exact mass: 377.1665
SMILES: CC(=O)OCCCC[P+](C1=CC=CC=C1)(C2=CC=CC=C2)C3=CC=CC=C3
InChI: InChI=1S/C24H26O2P/c1-21(25)26-19-11-12-20-27(22-13-5-2-6-14-22,23-15-7-3-8-16-23)24-17-9-4-10-18-24/h2-10,13-18H,11-12,19-20H2,1H3/q+1
Instrument: TripleTOF 6600 SCIEX
Instrument type: LC-ESI-QTOF
Ms type: MS2
Ion mode: POSITIVE
Collision energy: 140
Fragmentation mode: CID
Ionization: ESI
Column name: Zorbax Eclipse Plus C18 2.1 mm x 150 mm, 3.5 um, Agilent
Retention time: 8.85 min
Precursor m/z: 377.1665
Precursor type: [M]+
m/z	relative intensity
56.9886	51
63.0229	82
65.0382	70
79.9801	70
80.9876	137
89.037	156
102.0449	85
107.003	535
113.0368	63
115.0527	365
126.0454	169
131.0028	61
133.019	94
139.0533	301
150.0453	123
151.0536	327
152.0617	999
156.0122	60
157.02	562
181.0199	346
183.0356	330
226.0784	160
255.0362	73
257.0529	164
