Mass spectrum: Flubendazole; LC-ESI-QTOF; MS2; 80 V
Name: Flubendazole
Class: Pharmaceutical
Formula: C16H12FN3O3
Exact mass: 313.0863
SMILES: COC(=O)Nc1[nH]c2cc(ccc2n1)C(=O)c3ccc(F)cc3
InChI: InChI=1S/C16H12FN3O3/c1-23-16(22)20-15-18-12-7-4-10(8-13(12)19-15)14(21)9-2-5-11(17)6-3-9/h2-8H,1H3,(H2,18,19,20,22)
Instrument: TripleTOF 5600 SCIEX
Instrument type: LC-ESI-QTOF
Ms type: MS2
Ion mode: POSITIVE
Collision energy: 80
Fragmentation mode: CID
Ionization: ESI
Column name: Zorbax Eclipse Plus C18 2.1 mm x 150 mm, 3.5 um, Agilent
Retention time: 9.113 min
Precursor m/z: 314.0935
Precursor type: [M+H]+
m/z	relative intensity
73.0103	12
74.0184	125
75.0265	357
76.0211	17
77.0283	59
78.0364	15
95.0311	999
103.0289	15
104.0369	105
105.0448	77
123.0273	170
130.0399	47
131.0475	64
132.0551	23
133.0448	10
157.0447	21
158.0387	30
159.0417	52
184.054	21
