Mass spectrum: Bosentan; LC-ESI-QTOF; MS2; 80 V
Name: Bosentan
Class: Pharmaceutical
Formula: C27H29N5O6S
Exact mass: 551.1839
SMILES: CC(C)(C)C1=CC=C(C=C1)S(=O)(=O)NC2=C(C(=NC(=N2)C3=NC=CC=N3)OCCO)OC4=CC=CC=C4OC
InChI: InChI=1S/C27H29N5O6S/c1-27(2,3)18-10-12-19(13-11-18)39(34,35)32-23-22(38-21-9-6-5-8-20(21)36-4)26(37-17-16-33)31-25(30-23)24-28-14-7-15-29-24/h5-15,33H,16-17H2,1-4H3,(H,30,31,32)
Instrument: TripleTOF 5600 SCIEX
Instrument type: LC-ESI-QTOF
Ms type: MS2
Ion mode: POSITIVE
Collision energy: 80
Fragmentation mode: CID
Ionization: ESI
Column name: Zorbax Eclipse Plus C18 2.1 mm x 150 mm, 3.5 um, Agilent
Retention time: 12.118 min
Precursor m/z: 552.1911
Precursor type: [M+H]+
m/z	relative intensity
65.0456	18
69.0499	13
77.0433	123
78.052	32
79.034	104
79.0577	19
80.0412	320
91.0569	96
93.0371	36
95.0503	50
97.0422	144
102.0355	10
104.0515	36
105.0712	115
106.0417	993
107.0257	45
107.0496	70
108.057	96
109.0309	16
109.0535	28
116.0502	24
117.0565	21
118.0533	34
118.0752	14
119.0614	73
120.0456	357
121.028	23
122.0601	172
123.0674	140
124.0516	79
130.0434	11
131.0609	56
131.0861	19
132.0441	19
132.0694	83
133.0525	93
133.1017	36
134.0342	10
134.0598	76
135.0639	134
143.0369	11
143.0628	22
144.0448	60
146.0288	14
146.0504	19
147.0615	554
148.0721	26
149.0463	153
149.0701	33
150.0594	22
157.048	10
158.0601	13
159.0562	17
161.0693	15
161.1068	12
162.0526	17
163.056	16
171.0553	39
172.04	19
174.0754	42
175.0606	286
176.0585	21
189.0685	11
197.0805	48
202.0723	262
203.0793	26
207.0677	19
209.0843	16
220.0707	18
221.0821	19
224.0936	57
225.0772	22
249.0801	12
250.0715	11
251.0817	18
252.0821	69
263.0566	75
264.0862	55
276.088	58
279.0764	24
280.0828	999
292.0819	24
294.0986	17
