Mass spectrum: 4,4`-Methylenebis(2-methylaniline); LC-ESI-QTOF; MS2; 110 V
Name: 4,4`-Methylenebis(2-methylaniline)
Formula: C15H18N2
Exact mass: 226.147
SMILES: CC1=C(C=CC(=C1)CC2=CC(=C(C=C2)N)C)N
InChI: InChI=1S/C15H18N2/c1-10-7-12(3-5-14(10)16)9-13-4-6-15(17)11(2)8-13/h3-8H,9,16-17H2,1-2H3
Instrument: TripleTOF 6600 SCIEX
Instrument type: LC-ESI-QTOF
Ms type: MS2
Ion mode: POSITIVE
Collision energy: 110
Fragmentation mode: CID
Ionization: ESI
Column name: Zorbax Eclipse Plus C18 2.1 mm x 150 mm, 3.5 um, Agilent
Retention time: 5.215 min
Precursor m/z: 227.1543
Precursor type: [M+H]+
m/z	relative intensity
39.0223	236
50.0148	302
51.022	999
62.0129	78
63.022	184
65.0373	184
74.0135	131
75.0208	105
76.0296	131
77.0372	946
78.0443	118
80.0487	105
86.0136	65
87.0206	78
89.0382	184
91.0518	249
93.0569	105
98.0148	78
102.0454	157
104.0475	262
113.0374	52
115.052	170
117.0598	78
126.0447	157
127.0502	52
128.061	65
139.0523	157
140.0526	78
149.0378	65
150.0441	394
151.0537	197
152.0604	170
163.0521	197
165.0627	78
176.0592	118
