Mass spectrum: Lomefloxacin; LC-ESI-QTOF; MS2; 130 V
Name: Lomefloxacin
Class: Pharmaceutical; Antimicrobial
Formula: C17H19F2N3O3
Exact mass: 351.1394
SMILES: CCn1cc(c(=O)c2c1c(c(c(c2)F)N3CCNC(C3)C)F)C(=O)O
InChI: InChI=1S/C17H19F2N3O3/c1-3-21-8-11(17(24)25)16(23)10-6-12(18)15(13(19)14(10)21)22-5-4-20-9(2)7-22/h6,8-9,20H,3-5,7H2,1-2H3,(H,24,25)
Instrument: TripleTOF 5600 SCIEX
Instrument type: LC-ESI-QTOF
Ms type: MS2
Ion mode: POSITIVE
Collision energy: 130
Fragmentation mode: CID
Ionization: ESI
Column name: Zorbax Eclipse Plus C18 2.1 mm x 150 mm, 3.5 um, Agilent
Retention time: 5.44 min
Precursor m/z: 352.1467
Precursor type: [M+H]+
m/z	relative intensity
74.0188	352
75.0069	587
75.0237	352
81.0181	470
88.0203	293
94.0205	293
98.0158	470
99.0098	411
99.0226	528
100.0173	763
101.029	293
106.0209	352
107.0294	411
112.012	587
120.0366	352
124.0157	587
125.0187	999
126.03	528
132.0226	411
140.0512	352
150.0153	587
151.0314	235
166.0436	235
