Mass spectrum: Terbutryn; LC-ESI-QTOF; MS2; 30 V
Name: Terbutryn
Class: Herbicide
Formula: C10H19N5S
Exact mass: 241.1361
SMILES: CCNc1nc(NC(C)(C)C)nc(SC)n1
InChI: InChI=1S/C10H19N5S/c1-6-11-7-12-8(15-10(2,3)4)14-9(13-7)16-5/h6H2,1-5H3,(H2,11,12,13,14,15)
Instrument: TripleTOF 5600 SCIEX
Instrument type: LC-ESI-QTOF
Ms type: MS2
Ion mode: POSITIVE
Collision energy: 30
Fragmentation mode: CID
Ionization: ESI
Column name: Zorbax Eclipse Plus C18 2.1 mm x 150 mm, 3.5 um, Agilent
Retention time: 9.673 min
Precursor m/z: 242.1434
Precursor type: [M+H]+
m/z	relative intensity
68.0281	47
71.0642	84
74.0089	18
85.0525	18
91.0342	198
96.0567	102
102.0366	11
110.0451	15
113.0813	28
116.0273	64
138.0769	119
144.0585	81
158.049	132
186.0803	999
242.1425	107
