Mass spectrum: Meperidine; LC-ESI-QTOF; MS2; 50 V
Name: Meperidine
Class: Pharmaceutical
Formula: C15H21NO2
Exact mass: 247.1572
SMILES: CCOC(=O)C1(CCN(CC1)C)C2=CC=CC=C2
InChI: InChI=1S/C15H21NO2/c1-3-18-14(17)15(9-11-16(2)12-10-15)13-7-5-4-6-8-13/h4-8H,3,9-12H2,1-2H3
Instrument: TripleTOF 6600 SCIEX
Instrument type: LC-ESI-QTOF
Ms type: MS2
Ion mode: POSITIVE
Collision energy: 50
Fragmentation mode: CID
Ionization: ESI
Column name: Zorbax Eclipse Plus C18 2.1 mm x 150 mm, 3.5 um, Agilent
Retention time: 6.573 min
Precursor m/z: 248.1645
Precursor type: [M+H]+
m/z	relative intensity
42.0337	207
44.0492	375
53.0383	21
55.0536	26
57.0568	23
58.0645	12
65.0374	33
70.0647	929
77.0378	131
79.0531	33
81.0324	24
82.0643	78
83.0719	23
91.0536	999
94.0648	24
96.0798	111
97.0877	30
98.0956	68
99.0431	50
103.0536	747
105.0331	24
105.0684	120
115.0533	279
116.0613	171
117.0691	163
127.0537	29
128.0613	117
129.0693	181
130.0772	41
131.0852	363
141.0698	12
143.0839	26
158.0956	38
159.1027	19
172.1112	38
174.1271	588
176.1426	62
184.1113	23
220.1326	157
