Mass spectrum: Acetochlor; LC-ESI-QTOF; MS2; 40 V
Name: Acetochlor
Class: Herbicide
Formula: C14H20ClNO2
Exact mass: 269.1183
SMILES: CCC1=CC=CC(=C1N(COCC)C(=O)CCl)C
InChI: InChI=1S/C14H20ClNO2/c1-4-12-8-6-7-11(3)14(12)16(10-18-5-2)13(17)9-15/h6-8H,4-5,9-10H2,1-3H3
Instrument: TripleTOF 6600 SCIEX
Instrument type: LC-ESI-QTOF
Ms type: MS2
Ion mode: POSITIVE
Collision energy: 40
Fragmentation mode: CID
Ionization: ESI
Column name: Zorbax Eclipse Plus C18 2.1 mm x 150 mm, 3.5 um, Agilent
Retention time: 13.251 min
Precursor m/z: 270.1255
Precursor type: [M+H]+
m/z	relative intensity
31.0178	144
41.0377	51
45.0326	341
48.9829	44
59.0488	122
76.9768	33
90.0087	170
91.0533	77
105.0693	59
115.0528	33
116.0602	29
117.0558	66
117.0678	29
118.0629	55
119.0725	55
119.084	22
120.0785	66
128.0603	25
129.0675	44
130.0641	59
131.0732	77
132.0791	557
133.0864	898
134.0956	59
142.0661	14
143.0733	40
144.0764	89
145.0887	48
146.093	211
147.1009	999
148.0797	18
148.1105	731
149.0942	77
156.0779	44
157.0858	37
158.096	66
160.1149	18
161.1188	29
162.1266	687
163.1082	163
168.0827	18
170.0936	63
171.1011	40
172.1125	14
173.0809	33
173.1186	18
174.0861	18
178.04	33
184.1153	18
185.122	25
192.0549	33
206.0701	29
220.0866	55
