Mass spectrum: 4-Formylaminoantipyrine; LC-ESI-QTOF; MS2; 40 V
Name: 4-Formylaminoantipyrine
Class: Pharmaceutical; Metabolite; Transformation_product; Transformation_product-Metabolite
Formula: C12H13N3O2
Exact mass: 231.1008
SMILES: CN1N(C(=O)C(=C1C)NC=O)c2ccccc2
InChI: InChI=1S/C12H13N3O2/c1-9-11(13-8-16)12(17)15(14(9)2)10-6-4-3-5-7-10/h3-8H,1-2H3,(H,13,16)
Instrument: TripleTOF 5600 SCIEX
Instrument type: LC-ESI-QTOF
Ms type: MS2
Ion mode: POSITIVE
Collision energy: 40
Fragmentation mode: CID
Ionization: ESI
Column name: Zorbax Eclipse Plus C18 2.1 mm x 150 mm, 3.5 um, Agilent
Retention time: 5.623 min
Precursor m/z: 232.1081
Precursor type: [M+H]+
m/z	relative intensity
42.0431	17
44.0577	10
56.0558	999
58.0696	19
68.0553	10
77.0421	990
77.073	13
81.0477	23
83.0632	914
85.0784	32
91.0558	15
92.0494	10
94.0661	191
104.0503	681
111.054	17
115.0546	10
117.0565	10
118.0651	32
128.0502	58
130.0644	32
131.0702	21
132.0444	13
132.0824	32
145.0762	39
146.0603	41
147.0574	15
158.062	19
159.0923	145
160.0896	15
169.0754	10
171.0581	17
173.0698	23
185.0695	13
187.0858	80
189.0885	28
199.0743	17
204.1134	108
214.099	222
232.1102	56
