Mass spectrum: Doxepin; LC-ESI-QTOF; MS2; 80 V
Name: Doxepin
Class: Pharmaceutical
Formula: C19H21NO
Exact mass: 279.1623
SMILES: CN(C)CCC=C1C2=CC=CC=C2COC3=CC=CC=C31
InChI: InChI=1S/C19H21NO/c1-20(2)13-7-11-17-16-9-4-3-8-15(16)14-21-19-12-6-5-10-18(17)19/h3-6,8-12H,7,13-14H2,1-2H3
Instrument: TripleTOF 5600 SCIEX
Instrument type: LC-ESI-QTOF
Ms type: MS2
Ion mode: POSITIVE
Collision energy: 80
Fragmentation mode: CID
Ionization: ESI
Column name: Zorbax Eclipse Plus C18 2.1 mm x 150 mm, 3.5 um, Agilent
Retention time: 7.447 min
Precursor m/z: 280.1696
Precursor type: [M+H]+
m/z	relative intensity
42.0461	23
58.0733	53
65.0456	113
70.0715	25
77.0442	636
78.0516	13
79.0592	94
84.0852	30
89.0423	69
91.0582	294
102.0485	29
103.0569	31
107.052	83
115.0563	666
116.0639	10
117.0714	28
126.047	19
127.0553	78
128.0636	232
129.0695	15
131.0511	16
139.0553	96
141.0708	117
150.047	38
151.0545	131
152.0626	354
163.054	63
164.0619	176
165.0695	999
166.0769	18
168.057	24
175.054	21
176.0613	216
177.069	111
178.0772	307
187.0523	22
188.0601	32
189.0692	596
190.077	206
191.0851	142
193.0623	10
199.0525	13
200.0612	277
201.069	219
202.0767	277
203.0831	14
205.0636	16
213.0683	106
214.0761	24
215.084	156
218.0702	75
219.0811	11
