Mass spectrum: Ifosfamide; LC-ESI-QTOF; MS2; 20 V
Name: Ifosfamide
Class: Pharmaceutical
Formula: C7H15Cl2N2O2P
Exact mass: 260.0248
SMILES: ClCCN[P]1(=O)OCCCN1CCCl
InChI: InChI=1S/C7H15Cl2N2O2P/c8-2-4-10-14(12)11(6-3-9)5-1-7-13-14/h1-7H2,(H,10,12)
Instrument: TripleTOF 5600 SCIEX
Instrument type: LC-ESI-QTOF
Ms type: MS2
Ion mode: POSITIVE
Collision energy: 20
Fragmentation mode: CID
Ionization: ESI
Column name: Zorbax Eclipse Plus C18 2.1 mm x 150 mm, 3.5 um, Agilent
Retention time: 7.429 min
Precursor m/z: 261.0321
Precursor type: [M+H]+
m/z	relative intensity
78.0133	28
92.027	49
120.0561	15
153.9815	77
182.0129	109
233.0005	194
261.0321	999
