Mass spectrum: Mesotrione; LC-ESI-QTOF; MS2; 70 V
Name: Mesotrione
Class: Herbicide
Formula: C14H13NO7S
Exact mass: 339.0413
SMILES: CS(=O)(=O)C1=CC(=C(C=C1)C(=O)C2C(=O)CCCC2=O)[N+](=O)[O-]
InChI: InChI=1S/C14H13NO7S/c1-23(21,22)8-5-6-9(10(7-8)15(19)20)14(18)13-11(16)3-2-4-12(13)17/h5-7,13H,2-4H2,1H3
Instrument: TripleTOF 6600 SCIEX
Instrument type: LC-ESI-QTOF
Ms type: MS2
Ion mode: POSITIVE
Collision energy: 70
Fragmentation mode: CID
Ionization: ESI
Column name: Zorbax Eclipse Plus C18 2.1 mm x 150 mm, 3.5 um, Agilent
Retention time: 9.26 min
Precursor m/z: 340.0486
Precursor type: [M+H]+
m/z	relative intensity
39.0227	53
49.0062	30
50.0147	129
51.0227	68
53.0019	236
55.0173	91
62.9896	83
63.0224	99
65.0387	30
66.0333	38
68.9967	129
74.0149	45
75.0106	76
75.0225	175
76.018	999
77.0256	373
79.0162	76
84.0551	45
91.0172	152
92.0252	83
103.0172	91
104.0129	274
107.0126	68
115.0529	61
121.0265	38
154.9782	76
214.0628	45
