Mass spectrum: Acridine-9-carboxylic acid; LC-ESI-QTOF; MS2; 100 V
Name: Acridine-9-carboxylic acid
Class: Pharmaceutical; Metabolite; Transformation_product; Transformation_product-Metabolite
Formula: C14H9NO2
Exact mass: 223.0633
SMILES: OC(=O)c1c2ccccc2nc3ccccc13
InChI: InChI=1S/C14H9NO2/c16-14(17)13-9-5-1-3-7-11(9)15-12-8-4-2-6-10(12)13/h1-8H,(H,16,17)
Instrument: TripleTOF 5600 SCIEX
Instrument type: LC-ESI-QTOF
Ms type: MS2
Ion mode: POSITIVE
Collision energy: 100
Fragmentation mode: CID
Ionization: ESI
Column name: Zorbax Eclipse Plus C18 2.1 mm x 150 mm, 3.5 um, Agilent
Retention time: 4.656 min
Precursor m/z: 224.0706
Precursor type: [M+H]+
m/z	relative intensity
51.028	273
65.0428	88
74.0184	403
75.0256	431
76.0336	225
77.0417	444
78.0484	54
86.017	109
87.0244	150
88.0323	68
89.0397	403
90.049	41
91.0582	41
98.0161	266
99.0226	225
100.0307	61
101.0381	177
102.0343	27
102.0477	150
110.0144	47
111.0232	34
113.0387	424
114.0336	41
114.0449	68
115.0537	246
123.0233	41
125.0375	205
126.0454	342
127.04	34
127.054	61
128.0513	82
137.0367	54
138.0501	88
139.0539	999
140.0498	704
149.0369	88
150.046	868
151.0542	533
152.0593	191
153.059	34
164.0495	95
165.0551	61
166.0645	225
175.043	27
176.0491	61
177.0558	157
178.0637	61
