Mass spectrum: 3-Alizarinsulfonic acid; LC-ESI-QTOF; MS2; 80 V
Name: 3-Alizarinsulfonic acid
Formula: C14H8O7S
Exact mass: 319.9991
SMILES: C1=CC=C2C(=C1)C(=O)C3=CC(=C(C(=C3C2=O)O)O)S(=O)(=O)O
InChI: InChI=1S/C14H8O7S/c15-11-6-3-1-2-4-7(6)12(16)10-8(11)5-9(22(19,20)21)13(17)14(10)18/h1-5,17-18H,(H,19,20,21)
Instrument: TripleTOF 6600 SCIEX
Instrument type: LC-ESI-QTOF
Ms type: MS2
Ion mode: NEGATIVE
Collision energy: 80
Fragmentation mode: CID
Ionization: ESI
Column name: Zorbax Eclipse Plus C18 2.1 mm x 150 mm, 3.5 um, Agilent
Retention time: 8.229 min
Precursor m/z: 318.9918
Precursor type: [M-H]-
m/z	relative intensity
79.9569	155
80.9652	35
101.0392	245
125.0392	155
127.0553	45
137.0389	30
145.0289	25
153.0345	35
154.0414	35
155.0502	80
167.052	90
169.0279	30
182.0378	45
183.0501	25
210.0318	999
211.0422	50
239.0393	25
