Mass spectrum: O-Desmethyl amisulpride; LC-ESI-QTOF; MS2; 70 V
Name: O-Desmethyl amisulpride
Class: Pharmaceutical; Transformation_product; Transformation_product-Metabolite
Formula: C16H25N3O4S
Exact mass: 355.1566
SMILES: CCN1CCCC1CNC(=O)c2cc(c(cc2O)N)S(=O)(=O)CC
InChI: InChI=1S/C16H25N3O4S/c1-3-19-7-5-6-11(19)10-18-16(21)12-8-15(24(22,23)4-2)13(17)9-14(12)20/h8-9,11,20H,3-7,10,17H2,1-2H3,(H,18,21)
Instrument: TripleTOF 5600 SCIEX
Instrument type: LC-ESI-QTOF
Ms type: MS2
Ion mode: POSITIVE
Collision energy: 70
Fragmentation mode: CID
Ionization: ESI
Column name: Zorbax Eclipse Plus C18 2.1 mm x 150 mm, 3.5 um, Agilent
Retention time: 5.619 min
Precursor m/z: 356.1639
Precursor type: [M+H]+
m/z	relative intensity
42.0429	14
55.0594	43
56.0562	100
58.0703	95
59.0006	29
67.0578	22
68.0174	46
69.0727	10
70.0687	15
70.9981	23
79.0447	26
80.0526	28
82.0675	40
84.0842	618
84.977	42
86.992	39
89.0274	37
94.0303	32
98.0071	20
98.0981	47
98.9912	22
99.9864	140
107.0376	188
107.9908	80
108.0207	58
110.0967	38
112.1135	999
126.0013	190
126.9852	11
133.0158	21
135.0324	311
135.9853	69
136.0391	13
153.9963	246
163.9811	38
181.9918	767
200.0025	34
228.0328	63
