Mass spectrum: Isoproturon; LC-ESI-QTOF; MS2; 40 V
Name: Isoproturon
Class: Herbicide
Formula: C12H18N2O
Exact mass: 206.1419
SMILES: CC(C)c1ccc(NC(=O)N(C)C)cc1
InChI: InChI=1S/C12H18N2O/c1-9(2)10-5-7-11(8-6-10)13-12(15)14(3)4/h5-9H,1-4H3,(H,13,15)
Instrument: TripleTOF 5600 SCIEX
Instrument type: LC-ESI-QTOF
Ms type: MS2
Ion mode: POSITIVE
Collision energy: 40
Fragmentation mode: CID
Ionization: ESI
Column name: Zorbax Eclipse Plus C18 2.1 mm x 150 mm, 3.5 um, Agilent
Retention time: 10.257 min
Precursor m/z: 207.1492
Precursor type: [M+H]+
m/z	relative intensity
56.0184	11
65.0445	9
72.0491	999
72.0832	15
72.0976	11
77.042	23
91.0556	77
92.0524	13
105.0707	9
107.084	22
115.0525	11
117.0701	13
118.0667	13
119.0721	30
120.0449	9
134.0967	81
165.1018	43
207.1481	41
