Mass spectrum: Nitrazepam; LC-ESI-QTOF; MS2; 50 V
Name: Nitrazepam
Class: Pharmaceutical
Formula: C15H11N3O3
Exact mass: 281.08
SMILES: C1C(=O)NC2=C(C=C(C=C2)[N+](=O)[O-])C(=N1)C3=CC=CC=C3
InChI: InChI=1S/C15H11N3O3/c19-14-9-16-15(10-4-2-1-3-5-10)12-8-11(18(20)21)6-7-13(12)17-14/h1-8H,9H2,(H,17,19)
Instrument: TripleTOF 6600 SCIEX
Instrument type: LC-ESI-QTOF
Ms type: MS2
Ion mode: POSITIVE
Collision energy: 50
Fragmentation mode: CID
Ionization: ESI
Column name: Zorbax Eclipse Plus C18 2.1 mm x 150 mm, 3.5 um, Agilent
Retention time: 9.435 min
Precursor m/z: 282.0873
Precursor type: [M+H]+
m/z	relative intensity
77.0377	16
91.0533	31
103.0405	35
104.0479	62
105.056	22
116.0475	11
129.0431	26
130.0507	68
151.0531	13
152.0605	64
153.0681	52
164.0606	29
165.0685	43
166.0683	12
167.0726	35
168.0752	39
178.064	28
179.0723	70
180.0799	999
181.0842	11
190.0637	218
191.0715	70
192.079	63
193.084	37
194.0909	42
195.0902	23
196.0738	16
205.076	30
206.0828	156
207.0911	774
208.0974	77
217.0752	12
223.0847	22
235.085	85
236.0939	303
