Mass spectrum: 4-Hydroxytrimethoprim; LC-ESI-QTOF; MS2; 80 V
Name: 4-Hydroxytrimethoprim
Class: Pharmaceutical; Transformation_product
Formula: C14H18N4O4
Exact mass: 306.1328
SMILES: COc1cc(cc(c1OC)OC)Cc2c(nc(nc2O)N)N
InChI: InChI=1S/C14H18N4O4/c1-20-9-5-7(6-10(21-2)11(9)22-3)4-8-12(15)17-14(16)18-13(8)19/h5-6H,4H2,1-3H3,(H5,15,16,17,18,19)
Instrument: TripleTOF 5600 SCIEX
Instrument type: LC-ESI-QTOF
Ms type: MS2
Ion mode: NEGATIVE
Collision energy: 80
Fragmentation mode: CID
Ionization: ESI
Column name: Zorbax Eclipse Plus C18 2.1 mm x 150 mm, 3.5 um, Agilent
Retention time: 5.43 min
Precursor m/z: 305.1255
Precursor type: [M-H]-
m/z	relative intensity
41.0064	76
41.0175	999
41.0283	461
42.0005	537
42.0083	76
45.0017	76
52.0179	153
65.0067	76
65.0161	76
65.9985	307
66.0093	461
78.0353	76
81.0335	76
88.019	76
89.0263	230
90.0326	384
90.044	76
91.0235	76
91.0331	153
92.0256	76
93.0337	76
102.0233	76
103.0271	461
105.0193	76
106.0267	307
115.029	537
116.0169	76
117.0209	76
117.0335	76
117.0448	153
118.0296	691
118.041	537
119.0298	537
119.0447	76
120.0268	307
121.029	153
129.0375	384
130.0152	76
130.0289	230
130.0429	76
131.0275	614
131.0418	153
132.0192	76
132.0348	153
132.0537	230
132.0643	76
133.0363	230
133.0486	76
134.0246	614
134.0411	230
135.032	76
137.0233	230
140.0306	76
142.0172	76
142.0417	230
143.0249	768
144.0202	153
144.0559	307
145.0381	384
146.0238	999
147.0083	76
147.033	691
148.0129	230
148.0388	76
150.0288	384
157.013	76
157.0541	153
158.0284	384
159.0186	384
159.0356	76
159.0602	76
160.0417	691
161.0166	76
161.0362	768
161.0524	76
162.019	691
162.0415	153
162.0622	76
170.034	461
171.0216	537
171.042	230
172.0196	153
173.0093	230
173.0338	230
174.0167	999
175.0132	76
175.0286	614
175.0538	230
176.0136	537
186.0309	230
187.0144	461
187.0316	153
188.0203	230
189.0335	307
190.0137	76
191.0446	153
198.0323	384
199.0219	153
199.0389	230
200.0159	153
200.0452	153
201.032	922
214.018	153
214.051	153
215.0332	153
216.0437	537
217.0281	768
242.023	153
243.0604	307
259.0458	230
