Mass spectrum: Chloroquine; LC-ESI-QTOF; MS2; 50 V
Name: Chloroquine
Class: Pharmaceutical
Formula: C18H26ClN3
Exact mass: 319.1815
SMILES: CCN(CC)CCCC(C)NC1=C2C=CC(=CC2=NC=C1)Cl
InChI: InChI=1S/C18H26ClN3/c1-4-22(5-2)12-6-7-14(3)21-17-10-11-20-18-13-15(19)8-9-16(17)18/h8-11,13-14H,4-7,12H2,1-3H3,(H,20,21)
Instrument: TripleTOF 6600 SCIEX
Instrument type: LC-ESI-QTOF
Ms type: MS2
Ion mode: POSITIVE
Collision energy: 50
Fragmentation mode: CID
Ionization: ESI
Column name: Zorbax Eclipse Plus C18 2.1 mm x 150 mm, 3.5 um, Agilent
Retention time: 4.84 min
Precursor m/z: 320.1888
Precursor type: [M+H]+
m/z	relative intensity
39.0227	13
41.0385	66
58.0649	42
69.0696	123
72.0805	16
74.0961	59
86.0965	521
98.0966	93
112.1118	18
116.0485	11
129.0563	14
142.159	203
143.0603	10
144.0678	62
155.0602	35
156.0683	120
162.0099	18
163.0182	64
164.026	79
177.0338	20
178.0298	87
179.0374	999
190.028	11
191.0372	581
192.045	12
203.0371	42
205.053	261
247.1007	415
