Mass spectrum: Zoxamide; LC-ESI-QTOF; MS2; 20 V
Name: Zoxamide
Class: Fungicide
Formula: C14H16Cl3NO2
Exact mass: 335.0247
InChI: InChI=1S/C14H16Cl3NO2/c1-4-14(3,12(19)7-15)18-13(20)9-5-10(16)8(2)11(17)6-9/h5-6H,4,7H2,1-3H3,(H,18,20)
Instrument: TripleTOF 6600 SCIEX
Instrument type: LC-ESI-QTOF
Ms type: CID
Ion mode: POSITIVE
Collision energy: 20
Ionization: ESI
Column name: Zorbax Eclipse Plus C18 2.1 mm x 150 mm, 3.5 um, Agilent
Retention time: 14.13 min
Precursor m/z: 336.032
Precursor type: [M+H]+
m/z	relative intensity
132.0573	75
186.9714	999
203.9979	140
336.0321	963
