Mass spectrum: Michler`s ketone; LC-ESI-QTOF; MS2; 60 V
Name: Michler`s ketone
Formula: C17H20N2O
Exact mass: 268.1576
SMILES: CN(C)C1=CC=C(C=C1)C(=O)C2=CC=C(C=C2)N(C)C
InChI: InChI=1S/C17H20N2O/c1-18(2)15-9-5-13(6-10-15)17(20)14-7-11-16(12-8-14)19(3)4/h5-12H,1-4H3
Instrument: TripleTOF X500R SCIEX
Instrument type: LC-ESI-QTOF
Ms type: MS2
Ion mode: POSITIVE
Collision energy: 60
Fragmentation mode: CID
Ionization: ESI
Column name: Zorbax Eclipse Plus C18 2.1 mm x 150 mm, 3.5 um, Agilent
Retention time: 12.383 min
Precursor m/z: 269.1649
Precursor type: [M+H]+
m/z	relative intensity
39.023	22
42.0338	399
44.0494	10
51.0225	40
53.0382	15
65.0388	76
77.0388	627
78.0458	67
79.054	387
80.0493	52
91.0544	514
92.0589	181
93.0572	39
93.0693	63
94.0657	28
103.0541	150
104.0496	552
105.0573	728
106.0654	164
115.0549	22
117.0577	21
118.0655	215
119.0729	110
120.0809	365
132.0448	22
134.0601	398
139.0546	25
140.0596	19
141.0705	25
148.0755	999
151.0539	16
152.0633	86
153.0704	61
154.0736	13
165.0702	27
166.0661	40
167.0738	66
168.0575	46
168.0807	13
179.0736	12
180.0575	27
180.0797	48
181.0635	24
181.089	55
182.0964	28
192.0787	12
193.0893	48
194.0954	60
195.0687	81
195.0993	40
196.1053	12
206.0868	24
207.0925	21
208.0755	55
209.0839	54
209.107	10
210.0909	137
211.1001	55
221.0772	10
221.1075	122
222.0854	31
222.1153	58
223.0877	22
224.1081	67
237.1018	220
237.1403	40
238.1102	104
253.1342	87
