Mass spectrum: Methyl-N-phenylcarbamate; LC-ESI-QTOF; MS2; 60 V
Name: Methyl-N-phenylcarbamate
Formula: C8H9NO2
Exact mass: 151.0633
SMILES: COC(=O)NC1=CC=CC=C1
InChI: InChI=1S/C8H9NO2/c1-11-8(10)9-7-5-3-2-4-6-7/h2-6H,1H3,(H,9,10)
Instrument: TripleTOF 5600 SCIEX
Instrument type: LC-ESI-QTOF
Ms type: CID
Ion mode: POSITIVE
Collision energy: 60
Ionization: ESI
Column name: Zorbax Eclipse Plus C18 2.1 mm x 150 mm, 3.5 um, Agilent
Retention time: 8.469 min
Precursor m/z: 152.0706
Precursor type: [M+H]+
m/z	relative intensity
39.0235	83
51.0232	999
54.0358	41
65.0389	499
66.0459	291
75.0227	41
77.0385	915
78.034	41
91.0402	41
92.0469	83
93.0563	333
