Mass spectrum: Triphenyl phosphate; LC-ESI-QTOF; MS2; 60 V
Name: Triphenyl phosphate
Class: Industrial_process
Formula: C18H15O4P
Exact mass: 326.0708
SMILES: C1=CC=C(C=C1)OP(=O)(OC2=CC=CC=C2)OC3=CC=CC=C3
InChI: InChI=1S/C18H15O4P/c19-23(20-16-10-4-1-5-11-16,21-17-12-6-2-7-13-17)22-18-14-8-3-9-15-18/h1-15H
Instrument: TripleTOF 5600 SCIEX
Instrument type: LC-ESI-QTOF
Ms type: MS2
Ion mode: POSITIVE
Collision energy: 60
Fragmentation mode: CID
Ionization: ESI
Column name: Zorbax Eclipse Plus C18 2.1 mm x 150 mm, 3.5 um, Agilent
Retention time: 14.07 min
Precursor m/z: 327.0781
Precursor type: [M+H]+
m/z	relative intensity
50.0144	11
51.0233	90
65.0384	15
77.039	661
95.0492	28
98.9859	10
115.0543	14
126.0465	14
127.054	48
133.0211	14
138.9957	23
139.0553	24
141.0706	20
150.0475	33
151.0552	211
152.0626	999
153.0695	75
168.058	453
175.0161	36
187.0311	49
202.0775	47
215.0263	121
226.0795	98
227.0877	81
228.0946	71
251.0484	16
