Mass spectrum: Crystal Violet Cation; LC-ESI-QTOF; MS2; 140 V
Name: Crystal Violet Cation
Formula: [C25H30N3]+
Exact mass: 372.2434
SMILES: CN(C)C1=CC=C(C=C1)C(=C2C=CC(=[N+](C)C)C=C2)C3=CC=C(C=C3)N(C)C
InChI: InChI=1S/C25H30N3/c1-26(2)22-13-7-19(8-14-22)25(20-9-15-23(16-10-20)27(3)4)21-11-17-24(18-12-21)28(5)6/h7-18H,1-6H3/q+1
Instrument: TripleTOF 6600 SCIEX
Instrument type: LC-ESI-QTOF
Ms type: MS2
Ion mode: POSITIVE
Collision energy: 140
Fragmentation mode: CID
Ionization: ESI
Column name: Zorbax Eclipse Plus C18 2.1 mm x 150 mm, 3.5 um, Agilent
Retention time: 11.587 min
Precursor m/z: 372.2434
Precursor type: [M]+
m/z	relative intensity
163.0526	187
164.0601	96
165.0677	142
189.067	91
190.0632	120
202.0743	66
213.0683	164
215.0829	75
224.0606	66
225.0683	58
226.0762	268
237.0684	384
238.0754	164
239.0847	999
240.0852	63
251.073	63
266.0949	73
