Mass spectrum: Dicloxacillin; LC-ESI-QTOF; MS2; 50 V
Name: Dicloxacillin
Formula: C19H17Cl2N3O5S
Exact mass: 469.0266
SMILES: CC1=C(C(=NO1)C2=C(C=CC=C2Cl)Cl)C(=O)NC3C4N(C3=O)C(C(S4)(C)C)C(=O)O
InChI: InChI=1S/C19H17Cl2N3O5S/c1-7-10(12(23-29-7)11-8(20)5-4-6-9(11)21)15(25)22-13-16(26)24-14(18(27)28)19(2,3)30-17(13)24/h4-6,13-14,17H,1-3H3,(H,22,25)(H,27,28)
Instrument: TripleTOF 6600 SCIEX
Instrument type: LC-ESI-QTOF
Ms type: MS2
Ion mode: POSITIVE
Collision energy: 50
Fragmentation mode: CID
Ionization: ESI
Column name: Zorbax Eclipse Plus C18 2.1 mm x 150 mm, 3.5 um, Agilent
Retention time: 11.23 min
Precursor m/z: 470.0339
Precursor type: [M+H]+
m/z	relative intensity
43.0136	18
87.0182	72
114.0271	999
142.0199	43
156.9465	21
160.0282	780
170.96	36
183.9561	69
185.9708	21
190.0198	14
195.954	171
197.9698	696
209.9691	54
211.9484	816
213.9638	218
224.9759	32
237.9628	36
239.9782	189
255.9706	196
266.9867	29
268.9661	29
310.9733	18
