Mass spectrum: Ethyl 2,4-diaminopyrimidine-5-carboxylate; LC-ESI-QTOF; MS2; 50 V
Name: Ethyl 2,4-diaminopyrimidine-5-carboxylate
Class: Pharmaceutical
Formula: C7H10N4O2
Exact mass: 182.0804
SMILES: CCOC(=O)C1=CN=C(N=C1N)N
InChI: InChI=1S/C7H10N4O2/c1-2-13-6(12)4-3-10-7(9)11-5(4)8/h3H,2H2,1H3,(H4,8,9,10,11)
Instrument: TripleTOF 5600 SCIEX
Instrument type: LC-ESI-QTOF
Ms type: MS2
Ion mode: POSITIVE
Collision energy: 50
Fragmentation mode: CID
Ionization: ESI
Column name: Zorbax Eclipse Plus C18 2.1 mm x 150 mm, 3.5 um, Agilent
Retention time: 4.607 min
Precursor m/z: 183.0877
Precursor type: [M+H]+
m/z	relative intensity
40.0308	38
42.046	34
52.0269	49
53.0125	44
55.0384	19
65.0205	22
67.0365	91
68.0244	999
69.0508	55
70.0359	490
92.0295	47
93.0122	19
94.0445	48
95.0289	917
109.054	12
120.023	95
137.0487	233
155.0577	10
