Mass spectrum: Sulfamethoxazole; LC-ESI-QTOF; MS2; 60 V
Name: Sulfamethoxazole
Class: Antimicrobial; Pharmaceutical
Formula: C10H11N3O3S
Exact mass: 253.0521
SMILES: CC1=CC(=NO1)NS(=O)(=O)C2=CC=C(C=C2)N
InChI: InChI=1S/C10H11N3O3S/c1-7-6-10(12-16-7)13-17(14,15)9-4-2-8(11)3-5-9/h2-6H,11H2,1H3,(H,12,13)
Instrument: TripleTOF 5600 SCIEX
Instrument type: LC-ESI-QTOF
Ms type: MS2
Ion mode: POSITIVE
Collision energy: 60
Fragmentation mode: CID
Ionization: ESI
Column name: Zorbax Eclipse Plus C18 2.1 mm x 150 mm, 3.5 um, Agilent
Retention time: 7.246 min
Precursor m/z: 254.0594
Precursor type: [M+H]+
m/z	relative intensity
65.0459	999
66.0413	27
66.0532	29
80.0549	414
92.0536	647
93.0614	218
99.0578	58
107.0669	11
108.0472	495
119.0607	17
146.0739	40
