Mass spectrum: threo-Dihydrobupropion; LC-ESI-QTOF; MS2; 90 V
Name: threo-Dihydrobupropion
Class: Pharmaceutical; Metabolite
Formula: C13H20ClNO
Exact mass: 241.1233
SMILES: CC(C(c1cccc(c1)Cl)O)NC(C)(C)C
InChI: InChI=1S/C13H20ClNO/c1-9(15-13(2,3)4)12(16)10-6-5-7-11(14)8-10/h5-9,12,15-16H,1-4H3
Instrument: TripleTOF 5600 SCIEX
Instrument type: LC-ESI-QTOF
Ms type: MS2
Ion mode: POSITIVE
Collision energy: 90
Fragmentation mode: CID
Ionization: ESI
Column name: Zorbax Eclipse Plus C18 2.1 mm x 150 mm, 3.5 um, Agilent
Retention time: 6.626 min
Precursor m/z: 242.1306
Precursor type: [M+H]+
m/z	relative intensity
42.0459	12
57.0746	69
65.0422	83
72.9868	15
74.0193	12
75.0247	28
77.0415	22
89.0404	289
90.0478	62
91.0557	108
99.0004	24
110.9994	31
113.0371	10
114.0478	21
115.0548	999
116.062	52
117.0574	112
118.0672	16
125.0148	28
138.009	15
149.0152	12
