Mass spectrum: Abacavir carboxylic acid; LC-ESI-QTOF; MS2; 110 V
Name: Abacavir carboxylic acid
Class: Pharmaceutical; Metabolite; Transformation_product
Formula: C14H16N6O2
Exact mass: 300.1335
SMILES: C1CC1NC2=NC(=NC3=C2N=CN3C4CC(C=C4)C(=O)O)N
InChI: InChI=1S/C14H16N6O2/c15-14-18-11(17-8-2-3-8)10-12(19-14)20(6-16-10)9-4-1-7(5-9)13(21)22/h1,4,6-9H,2-3,5H2,(H,21,22)(H3,15,17,18,19)
Instrument: TripleTOF 5600 SCIEX
Instrument type: LC-ESI-QTOF
Ms type: MS2
Ion mode: NEGATIVE
Collision energy: 110
Fragmentation mode: CID
Ionization: ESI
Column name: Zorbax Eclipse Plus C18 2.1 mm x 150 mm, 3.5 um, Agilent
Retention time: 5.194 min
Precursor m/z: 299.1262
Precursor type: [M-H]-
m/z	relative intensity
41.0172	217
64.0061	199
66.0091	999
66.0309	54
90.0067	108
106.0274	236
107.0347	145
131.0208	54
132.0297	90
