Mass spectrum: Bisoprolol; LC-ESI-QTOF; MS2; 140 V
Name: Bisoprolol
Class: Pharmaceutical
Formula: C18H31NO4
Exact mass: 325.2253
SMILES: CC(C)NCC(COC1=CC=C(C=C1)COCCOC(C)C)O
InChI: InChI=1S/C18H31NO4/c1-14(2)19-11-17(20)13-23-18-7-5-16(6-8-18)12-21-9-10-22-15(3)4/h5-8,14-15,17,19-20H,9-13H2,1-4H3
Instrument: TripleTOF 6600 SCIEX
Instrument type: LC-ESI-QTOF
Ms type: MS2
Ion mode: POSITIVE
Collision energy: 140
Fragmentation mode: CID
Ionization: ESI
Column name: Zorbax Eclipse Plus C18 2.1 mm x 150 mm, 3.5 um, Agilent
Retention time: 7.01 min
Precursor m/z: 326.2326
Precursor type: [M+H]+
m/z	relative intensity
30.0335	196
31.0174	12
35.9987	37
37.0067	199
38.0016	49
38.0141	143
39.0226	740
41.0383	264
42.0107	12
42.0334	68
43.0174	43
43.0536	21
44.0492	37
45.0331	90
49.0059	18
50.0146	136
51.0224	454
53.0144	12
53.038	37
55.0173	18
56.0488	37
58.0646	21
59.9986	43
61.0064	273
62.0141	600
63.0221	999
65.0378	84
74.0145	15
75.0219	15
77.0373	373
78.0448	24
79.0538	15
89.0371	133
91.0538	24
107.0482	18
115.0521	34
