Mass spectrum: Terfenadine; LC-ESI-QTOF; MS2; 70 V
Name: Terfenadine
Class: Pharmaceutical
Formula: C32H41NO2
Exact mass: 471.3137
SMILES: CC(C)(C)C1=CC=C(C=C1)C(CCCN2CCC(CC2)C(C3=CC=CC=C3)(C4=CC=CC=C4)O)O
InChI: InChI=1S/C32H41NO2/c1-31(2,3)26-18-16-25(17-19-26)30(34)15-10-22-33-23-20-29(21-24-33)32(35,27-11-6-4-7-12-27)28-13-8-5-9-14-28/h4-9,11-14,16-19,29-30,34-35H,10,15,20-24H2,1-3H3
Instrument: TripleTOF 6600 SCIEX
Instrument type: LC-ESI-QTOF
Ms type: MS2
Ion mode: POSITIVE
Collision energy: 70
Fragmentation mode: CID
Ionization: ESI
Column name: Zorbax Eclipse Plus C18 2.1 mm x 150 mm, 3.5 um, Agilent
Retention time: 10.223 min
Precursor m/z: 472.321
Precursor type: [M+H]+
m/z	relative intensity
39.0212	41
41.0371	150
55.0526	22
56.0475	27
57.0682	999
65.0365	36
68.0468	59
69.0551	36
70.0635	59
77.0363	18
79.0514	36
80.0481	41
81.0678	27
82.0629	159
83.0704	36
84.0787	18
91.052	547
94.0617	22
96.0782	141
98.0937	82
103.0519	27
105.0295	22
105.0673	132
108.0775	22
110.0932	27
111.1029	22
115.0514	132
116.0597	54
117.0671	177
118.0741	22
119.0829	77
120.0776	41
122.0937	50
124.1092	95
127.0514	50
128.0594	164
129.0672	442
131.0823	282
132.0901	91
141.0669	41
143.0824	63
145.0981	54
146.0703	36
146.106	22
147.1139	159
152.0582	27
153.0676	27
155.0825	63
161.0935	246
165.0672	41
166.0748	27
167.0835	95
170.0938	54
171.1143	31
178.0754	41
184.1088	31
191.0822	77
203.0832	54
203.1397	59
204.0908	59
205.0992	50
215.0825	31
216.0896	36
217.0986	27
218.1067	68
219.1105	36
230.1871	41
231.115	22
262.1555	91
268.2058	54
270.2205	36
288.1712	41
420.2653	31
436.2987	41
