Mass spectrum: Imazamox; LC-ESI-QTOF; MS2; 100 V
Name: Imazamox
Class: Herbicide
Formula: C15H19N3O4
Exact mass: 305.1376
SMILES: CC(C)C1(C(=O)NC(=N1)C2=C(C=C(C=N2)COC)C(=O)O)C
InChI: InChI=1S/C15H19N3O4/c1-8(2)15(3)14(21)17-12(18-15)11-10(13(19)20)5-9(6-16-11)7-22-4/h5-6,8H,7H2,1-4H3,(H,19,20)(H,17,18,21)
Instrument: TripleTOF 6600 SCIEX
Instrument type: LC-ESI-QTOF
Ms type: MS2
Ion mode: POSITIVE
Collision energy: 100
Fragmentation mode: CID
Ionization: ESI
Column name: Zorbax Eclipse Plus C18 2.1 mm x 150 mm, 3.5 um, Agilent
Retention time: 6.853 min
Precursor m/z: 306.1448
Precursor type: [M+H]+
m/z	relative intensity
37.0059	74
38.0139	84
39.022	604
41.0374	409
42.0328	139
43.0402	54
43.0529	24
44.0481	29
45.0318	79
50.0136	49
51.0214	134
52.0167	154
52.0293	29
53.0367	99
54.0322	29
56.0478	214
59.9986	24
61.0056	294
62.0133	264
63.0211	419
64.0164	79
64.0288	159
65.0248	59
65.0369	489
66.0446	29
67.039	34
69.0688	34
70.0635	344
71.0712	114
76.0165	69
77.0118	34
77.0365	49
78.0317	294
79.027	34
79.0394	79
80.0474	69
87.0081	39
88.0166	999
89.0241	189
89.0364	34
90.032	179
91.0393	219
92.0356	39
92.0468	234
93.0547	39
103.0262	34
104.047	49
105.043	104
106.0262	49
106.0613	24
115.0513	24
116.0352	284
117.0426	134
118.05	179
119.0584	24
122.0569	74
131.059	54
132.0654	29
133.0368	34
144.0295	44
146.0442	19
