Mass spectrum: Chlorfenvinfos; LC-ESI-QTOF; MS2; 120 V
Name: Chlorfenvinfos
Class: Insecticide
Formula: C12H14Cl3O4P
Exact mass: 357.9695
SMILES: CCOP(=O)(OCC)OC(=CCl)C1=C(C=C(C=C1)Cl)Cl
InChI: InChI=1S/C12H14Cl3O4P/c1-3-17-20(16,18-4-2)19-12(8-13)10-6-5-9(14)7-11(10)15/h5-8H,3-4H2,1-2H3
Instrument: TripleTOF 6600 SCIEX
Instrument type: LC-ESI-QTOF
Ms type: MS2
Ion mode: POSITIVE
Collision energy: 120
Fragmentation mode: CID
Ionization: ESI
Column name: Zorbax Eclipse Plus C18 2.1 mm x 150 mm, 3.5 um, Agilent
Retention time: 13.629 min
Precursor m/z: 358.9768
Precursor type: [M+H]+
m/z	relative intensity
50.0135	13
61.005	17
62.0121	14
62.9609	144
73.005	23
74.0128	169
75.0209	55
80.9714	386
83.9732	34
84.9818	23
97.0044	74
98.013	999
98.9818	34
99.0205	612
100.0283	22
107.9734	128
108.9818	112
132.9819	16
133.9881	32
134.9971	93
163.0027	20
169.9659	62
