Mass spectrum: 2-(3-Pyridyl)-1H-benzimidazole; LC-ESI-QTOF; MS2; 80 V
Name: 2-(3-Pyridyl)-1H-benzimidazole
Class: Pharmaceutical
Formula: C12H9N3
Exact mass: 195.0796
SMILES: C1=CC=C2C(=C1)NC(=N2)C3=CN=CC=C3
InChI: InChI=1S/C12H9N3/c1-2-6-11-10(5-1)14-12(15-11)9-4-3-7-13-8-9/h1-8H,(H,14,15)
Instrument: TripleTOF 5600 SCIEX
Instrument type: LC-ESI-QTOF
Ms type: MS2
Ion mode: POSITIVE
Collision energy: 80
Fragmentation mode: CID
Ionization: ESI
Column name: Zorbax Eclipse Plus C18 2.1 mm x 150 mm, 3.5 um, Agilent
Retention time: 5.155 min
Precursor m/z: 196.0869
Precursor type: [M+H]+
m/z	relative intensity
35.999	24
37.0071	135
38.0149	112
39.023	732
51.023	176
52.0182	34
52.0305	23
64.0309	17
65.0389	999
66.034	9
75.023	20
77.0385	29
78.0344	42
79.041	17
89.038	22
90.0336	11
91.0413	25
92.0494	30
102.0346	17
113.0376	18
115.0542	11
140.0488	31
141.0567	13
167.0615	11
168.0685	18
