Mass spectrum: Thieno[3,2-b]pyridin-7-ol; LC-ESI-QTOF; MS2; 80 V
Name: Thieno[3,2-b]pyridin-7-ol
Formula: C7H5NOS
Exact mass: 151.0092
SMILES: C1=CNC2=C(C1=O)SC=C2
InChI: InChI=1S/C7H5NOS/c9-6-1-3-8-5-2-4-10-7(5)6/h1-4H,(H,8,9)
Instrument: TripleTOF 6600 SCIEX
Instrument type: LC-ESI-QTOF
Ms type: MS2
Ion mode: POSITIVE
Collision energy: 80
Fragmentation mode: CID
Ionization: ESI
Column name: Zorbax Eclipse Plus C18 2.1 mm x 150 mm, 3.5 um, Agilent
Retention time: 4.72 min
Precursor m/z: 152.0165
Precursor type: [M+H]+
m/z	relative intensity
31.9713	11
35.9997	88
37.0078	406
38.0042	37
38.0156	386
39.0235	999
40.0185	85
41.0264	28
42.0334	14
43.972	28
44.0131	48
44.9797	732
49.0067	40
50.0153	94
51.0232	94
52.0178	48
53.002	254
53.0389	191
54.034	22
55.0174	28
56.9789	108
57.9868	65
59.9985	17
61.0081	85
62.0151	191
63.0231	203
64.0179	37
67.0406	34
67.9706	25
68.0131	48
68.9791	386
69.9869	28
70.9943	68
75.0099	188
76.0178	145
80.0491	42
80.9789	51
81.986	25
82.9934	11
83.9894	14
92.9787	17
94.9944	28
97.0089	31
