Mass spectrum: Codeinone; LC-ESI-QTOF; MS2; 90 V
Name: Codeinone
Class: Pharmaceutical
Formula: C18H19NO3
Exact mass: 297.1365
SMILES: CN1CCC23C4C1CC5=C2C(=C(C=C5)OC)OC3C(=O)C=C4
InChI: InChI=1S/C18H19NO3/c1-19-8-7-18-11-4-5-13(20)17(18)22-16-14(21-2)6-3-10(15(16)18)9-12(11)19/h3-6,11-12,17H,7-9H2,1-2H3
Instrument: TripleTOF 5600 SCIEX
Instrument type: LC-ESI-QTOF
Ms type: MS2
Ion mode: POSITIVE
Collision energy: 90
Fragmentation mode: CID
Ionization: ESI
Column name: Zorbax Eclipse Plus C18 2.1 mm x 150 mm, 3.5 um, Agilent
Retention time: 5.057 min
Precursor m/z: 298.1438
Precursor type: [M+H]+
m/z	relative intensity
44.0612	20
58.0743	14
75.0273	10
77.0432	106
78.0501	13
87.0285	11
88.0342	26
89.0435	63
91.0588	26
101.0392	26
102.0485	46
103.0563	19
113.0405	57
114.0481	97
115.0553	345
116.064	10
125.0381	13
126.0475	84
127.0549	236
128.062	176
129.0691	11
131.0493	11
138.0483	16
139.0547	999
140.0616	160
141.0701	135
143.0507	11
150.0474	81
151.054	227
152.062	727
153.0709	120
155.0502	63
163.055	87
164.0615	92
165.0696	163
167.0757	13
168.0595	51
169.0647	14
170.0351	17
176.0622	56
177.0673	22
178.076	54
181.065	44
183.0436	22
187.0485	11
188.0649	10
189.0667	29
205.0652	11
