Mass spectrum: Diethylamino hydroxybenzoyl hexyl benzoate; LC-ESI-QTOF; MS2; 70 V
Name: Diethylamino hydroxybenzoyl hexyl benzoate
Formula: C24H31NO4
Exact mass: 397.2253
SMILES: CCCCCCOC(=O)C1=CC=CC=C1C(=O)C2=C(C=C(C=C2)N(CC)CC)O
InChI: InChI=1S/C24H31NO4/c1-4-7-8-11-16-29-24(28)20-13-10-9-12-19(20)23(27)21-15-14-18(17-22(21)26)25(5-2)6-3/h9-10,12-15,17,26H,4-8,11,16H2,1-3H3
Instrument: TripleTOF 6600 SCIEX
Instrument type: LC-ESI-QTOF
Ms type: MS2
Ion mode: POSITIVE
Collision energy: 70
Fragmentation mode: CID
Ionization: ESI
Column name: Zorbax Eclipse Plus C18 2.1 mm x 150 mm, 3.5 um, Agilent
Retention time: 17.769 min
Precursor m/z: 398.2326
Precursor type: [M+H]+
m/z	relative intensity
39.0227	13
41.0385	28
43.0543	55
65.0384	156
77.0382	34
80.049	34
91.0536	14
92.0487	19
93.0334	208
105.0333	64
108.0442	49
109.0512	20
110.0593	12
115.0536	42
119.0118	10
121.0293	499
122.0596	49
127.0536	13
128.0613	26
129.0692	24
133.0277	28
136.0391	10
136.0749	31
138.0905	19
139.0536	109
140.0609	22
141.0691	75
143.0484	15
148.0386	12
149.0233	999
151.0531	40
152.0614	66
153.069	64
154.0653	34
156.0804	11
157.064	22
164.0702	224
165.0687	48
166.0652	39
167.0485	72
167.0712	41
168.0567	77
168.0777	25
169.0638	34
170.0336	12
171.0426	10
177.0678	16
178.0656	37
180.0538	33
180.0792	47
181.0639	74
182.06	72
183.0439	22
183.065	28
184.0512	103
185.0587	11
193.0526	10
194.0609	52
194.0953	32
195.0652	204
196.0568	375
197.0588	204
198.0561	52
204.08	35
206.0596	47
207.0675	13
208.0752	137
209.0593	16
210.0565	84
210.0896	43
211.0626	130
212.0698	173
220.0753	80
221.058	10
222.0546	40
222.089	32
223.0583	230
224.0703	553
225.0758	107
226.0858	11
232.0749	24
233.0829	22
234.0539	50
235.0617	39
236.0693	20
237.0413	20
238.0506	92
238.0826	84
239.0583	22
240.1018	612
248.0704	25
249.0779	11
250.0863	26
251.0583	39
252.0647	220
266.0812	966
268.0966	12
