Mass spectrum: 7-Amino-4-methylcoumarin; LC-ESI-QTOF; MS2; 60 V
Name: 7-Amino-4-methylcoumarin
Formula: C10H9NO2
Exact mass: 175.0633
SMILES: CC1=CC(=O)OC2=C1C=CC(=C2)N
InChI: InChI=1S/C10H9NO2/c1-6-4-10(12)13-9-5-7(11)2-3-8(6)9/h2-5H,11H2,1H3
Instrument: TripleTOF X500R SCIEX
Instrument type: LC-ESI-QTOF
Ms type: MS2
Ion mode: POSITIVE
Collision energy: 60
Fragmentation mode: CID
Ionization: ESI
Column name: Zorbax Eclipse Plus C18 2.1 mm x 150 mm, 3.5 um, Agilent
Retention time: 7.107 min
Precursor m/z: 176.0706
Precursor type: [M+H]+
m/z	relative intensity
38.016	11
39.023	68
40.0184	31
41.0389	14
42.0348	22
50.015	43
51.0231	467
53.0388	43
54.0341	17
62.0151	11
63.0228	71
65.0389	143
66.0463	80
67.0401	14
68.0139	51
75.023	14
77.0391	999
78.0447	83
79.0541	25
80.0494	57
89.0378	86
90.0483	28
91.0547	155
92.0498	60
93.0578	367
94.0655	43
101.0389	17
102.0468	111
103.055	252
104.0497	444
105.056	34
115.0533	54
117.058	71
118.0654	117
119.073	45
120.0799	20
130.0667	97
133.0517	22
146.0598	28
