Mass spectrum: 2-Hydroxy-N-phenylacetamide; LC-ESI-QTOF; MS2; 60 V
Name: 2-Hydroxy-N-phenylacetamide
Class: Pharmaceutical
Formula: C8H9NO2
Exact mass: 151.0633
SMILES: C1=CC=C(C=C1)NC(=O)CO
InChI: InChI=1S/C8H9NO2/c10-6-8(11)9-7-4-2-1-3-5-7/h1-5,10H,6H2,(H,9,11)
Instrument: TripleTOF 5600 SCIEX
Instrument type: LC-ESI-QTOF
Ms type: MS2
Ion mode: NEGATIVE
Collision energy: 60
Fragmentation mode: CID
Ionization: ESI
Column name: Zorbax Eclipse Plus C18 2.1 mm x 150 mm, 3.5 um, Agilent
Retention time: 5.896 min
Precursor m/z: 150.0561
Precursor type: [M-H]-
m/z	relative intensity
65.038	132
92.0496	999
