Mass spectrum: Bixafen; LC-ESI-QTOF; MS2; 130 V
Name: Bixafen
Class: Fungicide
Formula: C18H12Cl2F3N3O
Exact mass: 413.031
SMILES: CN1C=C(C(=N1)C(F)F)C(=O)NC2=C(C=C(C=C2)F)C3=CC(=C(C=C3)Cl)Cl
InChI: InChI=1S/C18H12Cl2F3N3O/c1-26-8-12(16(25-26)17(22)23)18(27)24-15-5-3-10(21)7-11(15)9-2-4-13(19)14(20)6-9/h2-8,17H,1H3,(H,24,27)
Instrument: TripleTOF 6600 SCIEX
Instrument type: LC-ESI-QTOF
Ms type: MS2
Ion mode: POSITIVE
Collision energy: 130
Fragmentation mode: CID
Ionization: ESI
Column name: Zorbax Eclipse Plus C18 2.1 mm x 150 mm, 3.5 um, Agilent
Retention time: 13.359 min
Precursor m/z: 414.0382
Precursor type: [M+H]+
m/z	relative intensity
38.0145	13
42.0332	63
43.0285	19
50.0145	10
51.0032	10
51.024	10
57.0144	17
63.0227	13
68.0075	17
73.0065	15
74.0145	63
75.0225	135
77.0382	10
81.0125	15
83.0261	15
85.0052	19
86.0152	10
87.0213	19
92.0045	13
94.0218	48
97.0068	15
98.0143	131
99.0214	233
100.0181	21
105.0127	17
107.0279	13
109.0085	15
109.0391	17
110.0149	21
111.0099	10
111.0222	21
113.036	13
116.0057	15
117.012	21
118.02	37
119.9987	15
120.0354	17
121.0056	19
122.0134	146
123.0215	437
124.0167	83
125.0359	19
129.0115	17
131.0288	43
133.0427	10
134.0126	15
135.0201	10
136.0192	15
137.0353	10
138.0352	13
141.012	61
142.0202	30
143.0274	93
144.0354	45
145.0271	15
145.0376	10
146.0153	111
146.0425	15
147.0214	216
148.0172	203
149.0378	413
150.0389	78
151.0477	10
155.03	39
156.0323	19
157.043	28
158.0388	34
159.0099	17
161.0346	54
162.0367	26
163.0453	21
164.0502	15
166.0206	43
167.0274	445
168.0367	999
169.0434	603
170.0415	83
171.0094	10
172.019	15
173.0368	65
174.0356	262
175.0404	111
176.0487	87
177.0492	34
177.9971	15
179.0273	124
180.0356	128
181.0434	214
182.0402	113
183.0305	15
183.0494	15
184.0066	30
185.0079	10
185.0385	48
186.033	78
187.0445	91
188.0489	96
189.0547	17
191.0056	21
192.0325	89
193.0307	415
194.0411	284
195.0466	358
196.0557	61
197.0494	30
198.0418	63
199.0414	111
200.0476	124
201.0541	61
201.9973	43
202.0421	30
202.0661	15
203.0259	43
204.0207	198
204.0523	13
205.0423	507
206.0398	568
207.0463	118
208.0562	93
208.9988	15
210.031	15
211.0425	21
212.0477	111
213.0483	89
214.0508	15
214.0647	26
215.0046	24
216.0339	13
217.0287	50
217.0439	15
218.0502	126
219.0458	139
220.0528	107
221.0588	43
222.0443	76
223.044	13
224.0459	10
225.0582	45
226.0461	10
226.061	48
227.0613	24
228.0171	10
228.0642	19
229.0077	89
230.0385	179
231.0429	174
232.0517	247
233.0496	153
234.0437	15
234.0593	28
241.0134	15
242.0162	26
243.0448	30
244.0522	98
245.0601	118
246.0664	65
247.0651	43
257.0562	15
258.0446	10
259.0529	13
267.0197	10
