Mass spectrum: Medroxyprogesterone; LC-ESI-QTOF; MS2; 20 V
Name: Medroxyprogesterone
Class: Pharmaceutical
Formula: C22H32O3
Exact mass: 344.2351
SMILES: CC1CC2C(CCC3(C2CCC3(C(=O)C)O)C)C4(C1=CC(=O)CC4)C
InChI: InChI=1S/C22H32O3/c1-13-11-16-17(20(3)8-5-15(24)12-19(13)20)6-9-21(4)18(16)7-10-22(21,25)14(2)23/h12-13,16-18,25H,5-11H2,1-4H3
Instrument: TripleTOF 6600 SCIEX
Instrument type: LC-ESI-QTOF
Ms type: MS2
Ion mode: POSITIVE
Collision energy: 20
Fragmentation mode: CID
Ionization: ESI
Column name: Zorbax Eclipse Plus C18 2.1 mm x 150 mm, 3.5 um, Agilent
Retention time: 12.524 min
Precursor m/z: 345.2424
Precursor type: [M+H]+
m/z	relative intensity
97.0646	19
123.0804	65
285.2222	11
309.2218	16
327.2323	41
345.2435	999
