Mass spectrum: 4-Methoxyphenol; LC-ESI-QTOF; MS2; 40 V
Name: 4-Methoxyphenol
Class: Food_additive; Industrial_process; Metabolite; Pharmaceutical
Formula: C7H8O2
Exact mass: 124.0524
SMILES: COc1ccc(O)cc1
InChI: InChI=1S/C7H8O2/c1-9-7-4-2-6(8)3-5-7/h2-5,8H,1H3
Instrument: TripleTOF 5600 SCIEX
Instrument type: LC-ESI-QTOF
Ms type: MS2
Ion mode: POSITIVE
Collision energy: 40
Fragmentation mode: CID
Ionization: ESI
Column name: Zorbax Eclipse Plus C18 2.1 mm x 150 mm, 3.5 um, Agilent
Retention time: 6.955 min
Precursor m/z: 125.0597
Precursor type: [M+H]+
m/z	relative intensity
55.0227	108
64.0343	72
65.0422	599
66.0496	217
77.0385	108
81.0365	835
82.0432	999
92.0268	127
94.0407	399
109.0276	108
110.0365	853
