Mass spectrum: Haloperidol; LC-ESI-QTOF; MS2; 30 V
Name: Haloperidol
Class: Pharmaceutical
Formula: C21H23ClFNO2
Exact mass: 375.1401
SMILES: OC1(CCN(CCCC(=O)c2ccc(F)cc2)CC1)c3ccc(Cl)cc3
InChI: InChI=1S/C21H23ClFNO2/c22-18-7-5-17(6-8-18)21(26)11-14-24(15-12-21)13-1-2-20(25)16-3-9-19(23)10-4-16/h3-10,26H,1-2,11-15H2
Instrument: TripleTOF 5600 SCIEX
Instrument type: LC-ESI-QTOF
Ms type: MS2
Ion mode: POSITIVE
Collision energy: 30
Fragmentation mode: CID
Ionization: ESI
Column name: Zorbax Eclipse Plus C18 2.1 mm x 150 mm, 3.5 um, Agilent
Retention time: 8.031 min
Precursor m/z: 376.1474
Precursor type: [M+H]+
m/z	relative intensity
123.025	215
165.0711	999
194.0753	14
194.0965	19
206.0966	13
358.1364	362
376.1471	641
