Mass spectrum: Norethynodrel; LC-ESI-QTOF; MS2; 20 V
Name: Norethynodrel
Class: Pharmaceutical
Formula: C20H26O2
Exact mass: 298.1933
SMILES: C[C@]12CC[C@H]3[C@@H](CCC4=C3CCC(=O)C4)[C@@H]1CC[C@@]2(O)C#C
InChI: InChI=1S/C20H26O2/c1-3-20(22)11-9-18-17-6-4-13-12-14(21)5-7-15(13)16(17)8-10-19(18,20)2/h1,16-18,22H,4-12H2,2H3/t16-,17-,18+,19+,20+/m1/s1
Instrument: TripleTOF 5600 SCIEX
Instrument type: LC-ESI-QTOF
Ms type: MS2
Ion mode: POSITIVE
Collision energy: 20
Fragmentation mode: CID
Ionization: ESI
Column name: Zorbax Eclipse Plus C18 2.1 mm x 150 mm, 3.5 um, Agilent
Retention time: 11.133 min
Precursor m/z: 299.2006
Precursor type: [M+H]+
m/z	relative intensity
83.0516	10
109.0649	40
119.0856	18
131.0853	14
133.1014	10
135.0802	13
143.0849	12
145.1013	22
149.0959	11
157.101	13
163.1114	10
169.1012	14
171.1168	27
173.1322	17
183.116	10
185.1324	13
199.1479	10
211.1473	13
213.1637	21
221.1328	15
223.1487	26
231.1747	81
235.1477	10
239.1792	13
263.1797	31
281.1905	81
299.2007	999
