Mass spectrum: Dipyridamole; LC-ESI-QTOF; MS2; 80 V
Name: Dipyridamole
Class: Pharmaceutical
Formula: C24H40N8O4
Exact mass: 504.3173
SMILES: OCCN(CCO)c1nc(N2CCCCC2)c3nc(nc(N4CCCCC4)c3n1)N(CCO)CCO
InChI: InChI=1S/C24H40N8O4/c33-15-11-31(12-16-34)23-26-20-19(21(27-23)29-7-3-1-4-8-29)25-24(32(13-17-35)14-18-36)28-22(20)30-9-5-2-6-10-30/h33-36H,1-18H2
Instrument: TripleTOF 5600 SCIEX
Instrument type: LC-ESI-QTOF
Ms type: MS2
Ion mode: POSITIVE
Collision energy: 80
Fragmentation mode: CID
Ionization: ESI
Column name: Zorbax Eclipse Plus C18 2.1 mm x 150 mm, 3.5 um, Agilent
Retention time: 7.666 min
Precursor m/z: 505.3245
Precursor type: [M+H]+
m/z	relative intensity
70.069	49
84.0821	104
87.058	19
88.0769	34
114.0538	109
116.0699	24
120.0531	24
122.0618	19
133.0504	39
134.0731	24
135.0651	29
146.0535	29
147.0642	54
148.0604	24
148.0819	19
149.0691	24
149.0832	39
150.0756	34
157.05	24
158.07	24
159.0506	29
159.0678	44
160.0615	79
161.0562	24
161.0788	34
162.0779	114
163.0693	24
164.0825	24
164.0958	39
172.0597	44
173.0643	59
173.0805	34
174.0762	109
175.0806	99
176.0677	24
176.0892	84
177.0749	24
177.0868	69
178.0949	29
183.0652	24
184.0625	24
185.0596	29
185.0829	24
186.0789	79
187.071	189
187.0931	24
188.0583	29
188.0778	39
188.0923	64
189.0896	139
189.1109	24
190.0889	234
190.1152	19
191.0906	129
192.0854	49
192.1068	24
193.0956	44
199.0751	64
200.0908	139
201.0873	214
201.1154	39
202.0857	279
203.0685	39
203.1021	254
204.0969	184
205.0912	79
205.1073	69
206.1032	74
207.1009	24
208.1052	54
209.114	29
211.0838	34
212.0912	84
213.0872	114
214.0881	144
214.1093	59
215.0707	44
215.1039	204
215.1301	29
216.1001	334
216.1227	49
217.099	149
217.1165	64
218.0736	29
218.1092	184
219.1055	199
220.0899	24
220.1201	69
221.1169	34
222.1135	49
224.0924	29
225.0847	49
226.0978	129
227.1035	134
228.1017	224
228.1262	39
229.1168	244
230.0824	24
230.1138	394
231.1092	259
231.1329	54
232.1183	129
233.1151	219
234.1092	259
235.1232	19
236.1256	29
237.1055	24
239.1019	74
240.0978	34
240.1186	59
241.1179	129
242.1133	214
242.1399	39
243.1114	94
243.1341	209
244.0945	24
244.1249	224
244.1491	24
245.1193	234
245.1474	69
246.1079	219
246.1343	49
246.1573	29
247.0913	44
247.1287	229
248.1254	219
249.1204	64
252.105	29
252.1238	29
253.1191	159
254.1154	54
255.1122	49
255.1341	164
256.1316	224
257.1186	79
257.1455	224
258.1113	84
258.1439	194
259.0923	29
259.131	154
259.1562	44
260.1239	239
261.1082	19
261.1224	39
261.1454	79
262.1417	89
263.136	149
267.1093	39
267.1336	39
268.1343	124
269.126	39
269.1444	89
270.1464	209
271.1329	194
271.1656	49
272.1276	94
272.1603	229
273.1198	39
273.1504	329
274.1443	219
275.1237	29
275.1406	59
275.1625	109
276.1591	39
277.1394	79
277.1748	44
278.1402	64
281.1507	69
282.1454	69
283.1339	34
283.1646	49
284.1297	49
284.162	324
285.1119	24
285.1558	269
286.1421	154
286.1736	159
287.1402	74
287.1657	159
288.1211	19
288.1603	244
288.1868	34
289.1518	149
289.1735	89
290.1421	34
290.1761	44
291.155	79
292.1565	54
293.1477	44
294.1459	29
295.1456	29
295.167	39
296.1611	64
297.1511	109
298.1472	79
298.1779	154
299.1688	264
300.1557	199
300.1894	24
301.1527	89
301.1781	149
301.2248	19
302.1395	44
302.1725	669
303.157	49
303.1797	139
304.1475	24
304.1872	149
305.1462	54
305.1776	24
308.1613	19
309.1838	19
310.1782	59
311.1717	119
312.1553	54
312.1872	64
313.1529	109
313.181	94
313.2162	19
314.1734	294
315.1682	144
316.1885	604
317.1535	59
317.182	289
318.177	94
318.2068	59
319.1643	39
319.1875	19
320.1594	39
322.1788	24
323.1829	39
325.1897	99
326.1727	109
326.2018	34
327.1682	59
327.2006	24
327.216	29
328.1895	429
328.2332	34
329.1828	344
330.1692	59
330.2026	159
331.1622	44
331.2001	254
332.1841	79
334.1988	59
337.1884	79
338.1693	39
338.2082	34
339.2034	99
340.1917	54
341.1829	164
341.2151	44
342.2017	124
343.1992	239
344.1858	34
344.2108	79
345.1752	24
345.216	44
346.1995	479
347.1923	34
348.1782	24
348.2155	164
353.2205	44
354.2005	94
355.1997	239
355.2302	99
356.2168	164
357.2143	189
358.198	84
359.1881	44
360.2186	94
361.2112	144
367.2015	39
367.2375	79
368.2257	69
369.2156	159
369.2459	39
370.2318	39
371.1925	34
371.2304	79
372.2091	54
373.2099	194
374.2324	59
375.2247	49
378.2226	34
381.2206	29
381.2506	34
382.2355	39
383.2298	149
384.2436	24
385.2463	999
386.23	44
387.2228	149
397.243	79
398.2287	29
399.2253	124
399.2628	509
401.2435	89
402.2196	39
404.2333	49
411.2608	149
412.2418	29
413.2499	49
415.258	94
417.2364	44
419.2456	39
427.2622	34
429.2725	624
431.2469	94
431.2945	29
441.2741	49
443.2914	19
459.2846	39
