Mass spectrum: Clonazepam; LC-ESI-QTOF; MS2; 40 V
Name: Clonazepam
Class: Pharmaceutical
Formula: C15H10ClN3O3
Exact mass: 315.0411
SMILES: C1C(=O)NC2=C(C=C(C=C2)[N+](=O)[O-])C(=N1)C3=CC=CC=C3Cl
InChI: InChI=1S/C15H10ClN3O3/c16-12-4-2-1-3-10(12)15-11-7-9(19(21)22)5-6-13(11)18-14(20)8-17-15/h1-7H,8H2,(H,18,20)
Instrument: TripleTOF 6600 SCIEX
Instrument type: LC-ESI-QTOF
Ms type: MS2
Ion mode: POSITIVE
Collision energy: 40
Fragmentation mode: CID
Ionization: ESI
Column name: Zorbax Eclipse Plus C18 2.1 mm x 150 mm, 3.5 um, Agilent
Retention time: 9.867 min
Precursor m/z: 316.0484
Precursor type: [M+H]+
m/z	relative intensity
130.0518	14
179.0729	20
180.0805	25
190.0649	39
191.0746	11
195.0925	22
205.076	23
206.0839	67
207.0919	136
213.0342	21
214.0423	243
223.0859	19
227.0479	11
228.0551	15
235.0889	11
241.0536	264
242.0619	49
269.0486	68
270.0565	999
316.049	65
