Mass spectrum: Estrone; LC-ESI-QTOF; MS2; 140 V
Name: Estrone
Class: Pharmaceutical
Formula: C18H22O2
Exact mass: 270.162
SMILES: CC12CCC3C(C1CCC2=O)CCC4=C3C=CC(=C4)O
InChI: InChI=1S/C18H22O2/c1-18-9-8-14-13-5-3-12(19)10-11(13)2-4-15(14)16(18)6-7-17(18)20/h3,5,10,14-16,19H,2,4,6-9H2,1H3
Instrument: TripleTOF 5600 SCIEX
Instrument type: LC-ESI-QTOF
Ms type: MS2
Ion mode: POSITIVE
Collision energy: 140
Fragmentation mode: CID
Ionization: ESI
Column name: Zorbax Eclipse Plus C18 2.1 mm x 150 mm, 3.5 um, Agilent
Retention time: 11.224 min
Precursor m/z: 271.1693
Precursor type: [M+H]+
m/z	relative intensity
35.9989	14
37.0068	52
38.0146	42
39.0227	196
41.038	32
43.0176	97
49.007	39
50.0149	287
51.0226	582
52.0305	24
53.0378	30
55.0174	25
59.9994	16
61.0072	94
62.0151	243
63.0229	535
65.0385	398
66.0462	25
67.0536	10
73.0076	22
74.0152	237
75.0227	194
76.0306	107
77.0385	987
78.0462	99
79.054	38
85.0071	27
86.015	82
87.0228	98
88.0307	29
89.0387	665
91.0539	107
94.04	16
98.0149	73
99.0228	28
100.0307	14
101.0382	49
102.0463	210
103.054	71
107.0496	14
110.0151	13
113.0382	69
114.0468	32
115.0541	999
125.0385	19
126.0464	164
127.0539	130
128.0617	140
131.0485	22
137.0378	13
138.0466	10
139.054	113
150.0461	138
151.0544	139
152.0621	161
161.0394	12
162.0473	28
163.0546	124
164.0616	36
165.0702	36
176.0612	25
187.0516	10
