Mass spectrum: Medroxyprogesterone-17-acetate; LC-ESI-QTOF; MS2; 40 V
Name: Medroxyprogesterone-17-acetate
Class: Pharmaceutical
Formula: C24H34O4
Exact mass: 386.2457
SMILES: CC1CC2C(CCC3(C2CCC3(C(=O)C)OC(=O)C)C)C4(C1=CC(=O)CC4)C
InChI: InChI=1S/C24H34O4/c1-14-12-18-19(22(4)9-6-17(27)13-21(14)22)7-10-23(5)20(18)8-11-24(23,15(2)25)28-16(3)26/h13-14,18-20H,6-12H2,1-5H3
Instrument: TripleTOF 5600 SCIEX
Instrument type: LC-ESI-QTOF
Ms type: MS2
Ion mode: POSITIVE
Collision energy: 40
Fragmentation mode: CID
Ionization: ESI
Column name: Zorbax Eclipse Plus C18 2.1 mm x 150 mm, 3.5 um, Agilent
Retention time: 13.723 min
Precursor m/z: 387.253
Precursor type: [M+H]+
m/z	relative intensity
43.0181	31
67.0541	21
77.0377	15
79.0541	19
81.0698	25
83.0486	38
91.0538	14
93.0694	42
95.0851	63
97.0648	445
105.0696	52
107.0853	48
109.0644	30
109.1009	34
111.0803	26
119.0851	72
121.0648	12
121.101	39
123.0804	999
129.07	10
131.0853	48
133.1012	70
135.0805	15
135.1165	26
137.0957	138
143.0858	44
145.1009	129
147.1166	129
149.0967	14
149.1323	17
155.0863	11
157.1017	59
159.1165	91
161.0961	17
161.1324	83
163.1124	30
163.146	18
169.1011	37
171.1173	108
173.1329	165
175.1136	17
175.1481	227
177.1258	43
183.1166	42
185.1324	68
187.1129	20
187.1481	73
189.1293	42
189.1642	18
191.1424	41
195.1161	17
197.134	67
199.1478	77
201.1286	11
201.1635	27
203.1396	30
203.1809	12
205.1568	33
209.1314	22
211.148	63
213.1285	20
213.1626	33
214.1354	233
215.1427	67
217.1597	18
221.1335	11
223.148	29
225.1635	67
227.1428	11
227.1806	68
229.1596	10
237.1596	16
239.1463	17
239.1785	19
241.1604	11
241.1952	10
243.1747	11
251.1782	55
257.1552	45
265.1977	29
266.2028	77
267.1748	9
267.2108	203
269.1893	66
283.2051	47
284.214	80
285.2206	225
291.212	17
303.2304	19
309.2211	61
327.2312	58
