Mass spectrum: 2-Hydroxyatrazine; LC-ESI-QTOF; MS2; 40 V
Name: 2-Hydroxyatrazine
Class: Transformation_product; Herbicide; Metabolite
Formula: C8H15N5O
Exact mass: 197.1277
SMILES: CCNC1=NC(=O)NC(=N1)NC(C)C
InChI: InChI=1S/C8H15N5O/c1-4-9-6-11-7(10-5(2)3)13-8(14)12-6/h5H,4H2,1-3H3,(H3,9,10,11,12,13,14)
Instrument: TripleTOF 6600 SCIEX
Instrument type: LC-ESI-QTOF
Ms type: MS2
Ion mode: POSITIVE
Collision energy: 40
Fragmentation mode: CID
Ionization: ESI
Column name: Zorbax Eclipse Plus C18 2.1 mm x 150 mm, 3.5 um, Agilent
Retention time: 5.304 min
Precursor m/z: 198.135
Precursor type: [M+H]+
m/z	relative intensity
39.0226	12
41.0385	38
43.0292	134
43.0535	37
44.0492	10
46.065	11
68.0239	36
69.0084	999
71.0598	66
85.0502	17
86.0348	688
96.0547	11
97.0392	270
113.0815	13
114.0658	456
128.0562	31
128.08	16
156.0876	420
198.1335	42
