Mass spectrum: Bis(2,4,4-trimethylpentyl)phosphinic acid; LC-ESI-QTOF; MS2; 50 V
Name: Bis(2,4,4-trimethylpentyl)phosphinic acid
Class: Industrial_process
Formula: C16H35O2P
Exact mass: 290.2375
SMILES: CC(CC(C)(C)C)CP(=O)(CC(C)CC(C)(C)C)O
InChI: InChI=1S/C16H35O2P/c1-13(9-15(3,4)5)11-19(17,18)12-14(2)10-16(6,7)8/h13-14H,9-12H2,1-8H3,(H,17,18)
Instrument: TripleTOF 6600 SCIEX
Instrument type: LC-ESI-QTOF
Ms type: MS2
Ion mode: POSITIVE
Collision energy: 50
Fragmentation mode: CID
Ionization: ESI
Column name: Zorbax Eclipse Plus C18 2.1 mm x 150 mm, 3.5 um, Agilent
Retention time: 14.45 min
Precursor m/z: 291.2448
Precursor type: [M+H]+
m/z	relative intensity
39.0225	39
41.0383	149
43.054	79
46.9674	15
55.0538	91
57.0697	999
62.999	106
64.9781	60
69.0695	260
71.0847	64
73.0195	29
77.0142	25
78.9937	82
80.0015	134
81.009	23
83.0848	18
87.0351	96
94.0174	261
97.1004	32
101.0506	13
103.0301	14
105.0459	186
107.025	53
111.1159	41
119.0614	35
121.0407	120
123.0563	52
135.0568	71
137.0714	44
145.0761	20
147.093	30
159.0923	13
161.109	100
163.0884	84
177.1037	48
179.1189	144
193.1351	40
203.1558	39
217.1716	132
219.1512	37
221.1656	36
231.187	10
235.1826	287
257.203	18
273.2347	35
275.214	14
291.2463	334
