Mass spectrum: Thioridazine; LC-ESI-QTOF; MS2; 40 V
Name: Thioridazine
Class: Pharmaceutical
Formula: C21H26N2S2
Exact mass: 370.1537
SMILES: CN1CCCCC1CCN2C3=CC=CC=C3SC4=C2C=C(C=C4)SC
InChI: InChI=1S/C21H26N2S2/c1-22-13-6-5-7-16(22)12-14-23-18-8-3-4-9-20(18)25-21-11-10-17(24-2)15-19(21)23/h3-4,8-11,15-16H,5-7,12-14H2,1-2H3
Instrument: TripleTOF 5600 SCIEX
Instrument type: LC-ESI-QTOF
Ms type: MS2
Ion mode: POSITIVE
Collision energy: 40
Fragmentation mode: CID
Ionization: ESI
Column name: Zorbax Eclipse Plus C18 2.1 mm x 150 mm, 3.5 um, Agilent
Retention time: 9.472 min
Precursor m/z: 371.161
Precursor type: [M+H]+
m/z	relative intensity
58.0716	49
70.0695	64
84.0831	12
98.0991	845
126.1292	999
211.0451	32
226.069	57
243.0166	25
245.0323	22
258.0415	186
324.1654	17
371.1611	50
