Mass spectrum: 6-Methylthioguanine; LC-ESI-QTOF; MS2; 110 V
Name: 6-Methylthioguanine
Class: Metabolite; Pharmaceutical
Formula: C6H7N5S
Exact mass: 181.0422
SMILES: CSc1nc(N)nc2nc[nH]c12
InChI: InChI=1S/C6H7N5S/c1-12-5-3-4(9-2-8-3)10-6(7)11-5/h2H,1H3,(H3,7,8,9,10,11)
Instrument: TripleTOF 5600 SCIEX
Instrument type: LC-ESI-QTOF
Ms type: MS2
Ion mode: POSITIVE
Collision energy: 110
Fragmentation mode: CID
Ionization: ESI
Column name: Zorbax Eclipse Plus C18 2.1 mm x 150 mm, 3.5 um, Agilent
Retention time: 4.912 min
Precursor m/z: 182.0495
Precursor type: [M+H]+
m/z	relative intensity
53.0186	999
53.0346	208
54.0256	145
55.9756	457
56.9841	104
57.9816	104
65.0172	187
66.0241	124
68.0268	478
69.9772	541
70.9853	603
81.9765	187
82.9837	270
