Mass spectrum: Trifloxystrobin; LC-ESI-QTOF; MS2; 20 V
Name: Trifloxystrobin
Class: Fungicide
Formula: C20H19F3N2O4
Exact mass: 408.1297
SMILES: CC(=NOCC1=CC=CC=C1C(=NOC)C(=O)OC)C2=CC(=CC=C2)C(F)(F)F
InChI: InChI=1S/C20H19F3N2O4/c1-13(14-8-6-9-16(11-14)20(21,22)23)24-29-12-15-7-4-5-10-17(15)18(25-28-3)19(26)27-2/h4-11H,12H2,1-3H3
Instrument: TripleTOF 5600 SCIEX
Instrument type: LC-ESI-QTOF
Ms type: MS2
Ion mode: POSITIVE
Collision energy: 20
Fragmentation mode: CID
Ionization: ESI
Column name: Zorbax Eclipse Plus C18 2.1 mm x 150 mm, 3.5 um, Agilent
Retention time: 15.037 min
Precursor m/z: 409.137
Precursor type: [M+H]+
m/z	relative intensity
105.0712	16
116.0505	357
131.0738	150
132.0814	178
145.027	25
146.0609	43
162.0919	100
186.052	730
206.0802	801
409.1359	999
