Mass spectrum: Nevirapine; LC-ESI-QTOF; MS2; 20 V
Name: Nevirapine
Class: Pharmaceutical
Formula: C15H14N4O
Exact mass: 266.1168
SMILES: Cc1ccnc2N(C3CC3)c4ncccc4C(=O)Nc12
InChI: InChI=1S/C15H14N4O/c1-9-6-8-17-14-12(9)18-15(20)11-3-2-7-16-13(11)19(14)10-4-5-10/h2-3,6-8,10H,4-5H2,1H3,(H,18,20)
Instrument: TripleTOF 5600 SCIEX
Instrument type: LC-ESI-QTOF
Ms type: MS2
Ion mode: NEGATIVE
Collision energy: 20
Fragmentation mode: CID
Ionization: ESI
Column name: Zorbax Eclipse Plus C18 2.1 mm x 150 mm, 3.5 um, Agilent
Retention time: 7.301 min
Precursor m/z: 265.1104
Precursor type: [M-H]-
m/z	relative intensity
61.9936	110
112.9846	71
123.9013	104
150.9213	38
182.0732	91
209.088	202
224.0716	62
237.8707	72
265.0202	50
265.1102	999
265.1615	67
266.109	152
