Mass spectrum: Diflufenican; LC-ESI-QTOF; MS2; 40 V
Name: Diflufenican
Class: Herbicide
Formula: C19H11F5N2O2
Exact mass: 394.0741
SMILES: C1=CC(=CC(=C1)OC2=C(C=CC=N2)C(=O)NC3=C(C=C(C=C3)F)F)C(F)(F)F
InChI: InChI=1S/C19H11F5N2O2/c20-12-6-7-16(15(21)10-12)26-17(27)14-5-2-8-25-18(14)28-13-4-1-3-11(9-13)19(22,23)24/h1-10H,(H,26,27)
Instrument: TripleTOF 6600 SCIEX
Instrument type: LC-ESI-QTOF
Ms type: MS2
Ion mode: POSITIVE
Collision energy: 40
Fragmentation mode: CID
Ionization: ESI
Column name: Zorbax Eclipse Plus C18 2.1 mm x 150 mm, 3.5 um, Agilent
Retention time: 14.853 min
Precursor m/z: 395.0814
Precursor type: [M+H]+
m/z	relative intensity
169.0517	17
183.0405	28
185.0506	10
190.045	30
210.0517	23
218.0397	53
219.0477	15
233.0518	48
238.0463	114
246.0354	153
247.0428	18
266.0418	999
335.06	11
375.0732	16
377.0696	27
395.0804	55
