Mass spectrum: Diazepam; LC-ESI-QTOF; MS2; 40 V
Name: Diazepam
Class: Pharmaceutical
Formula: C16H13ClN2O
Exact mass: 284.0716
SMILES: CN1C(=O)CN=C(C2=C1C=CC(=C2)Cl)C3=CC=CC=C3
InChI: InChI=1S/C16H13ClN2O/c1-19-14-8-7-12(17)9-13(14)16(18-10-15(19)20)11-5-3-2-4-6-11/h2-9H,10H2,1H3
Instrument: TripleTOF 6600 SCIEX
Instrument type: LC-ESI-QTOF
Ms type: MS2
Ion mode: POSITIVE
Collision energy: 40
Fragmentation mode: CID
Ionization: ESI
Column name: Zorbax Eclipse Plus C18 2.1 mm x 150 mm, 3.5 um, Agilent
Retention time: 11.181 min
Precursor m/z: 285.0789
Precursor type: [M+H]+
m/z	relative intensity
58.0281	11
77.0384	17
89.0375	16
91.0533	121
104.0486	15
105.0321	25
116.0484	38
117.0564	64
118.0645	46
119.0717	38
125.014	59
131.0588	12
138.0096	15
139.0168	19
140.0244	16
141.0323	21
143.059	37
144.067	22
147.0666	28
150.0097	31
152.0254	21
154.0412	595
163.0038	10
165.0692	32
167.0118	61
172.0624	78
177.0206	22
179.0364	91
180.0208	49
180.0773	25
182.036	40
191.0712	23
192.0793	41
193.0883	999
194.0954	36
204.0802	54
205.0871	30
206.0843	78
207.0912	76
216.0569	61
220.0976	16
221.106	128
222.1155	556
226.0405	22
227.049	95
228.057	274
230.0718	23
240.0557	24
241.053	266
242.0601	41
255.0682	103
257.0842	188
269.0488	14
285.0792	208
