Mass spectrum: 1-Oxo-ibuprofen; LC-ESI-QTOF; MS2; 40 V
Name: 1-Oxo-ibuprofen
Class: Pharmaceutical; Transformation_product
Formula: C13H16O3
Exact mass: 220.1099
SMILES: CC(C)C(=O)C1=CC=C(C=C1)C(C)C(=O)O
InChI: InChI=1S/C13H16O3/c1-8(2)12(14)11-6-4-10(5-7-11)9(3)13(15)16/h4-9H,1-3H3,(H,15,16)
Instrument: TripleTOF 5600 SCIEX
Instrument type: LC-ESI-QTOF
Ms type: MS2
Ion mode: POSITIVE
Collision energy: 40
Fragmentation mode: CID
Ionization: ESI
Column name: Zorbax Eclipse Plus C18 2.1 mm x 150 mm, 3.5 um, Agilent
Retention time: 10.239 min
Precursor m/z: 221.1172
Precursor type: [M+H]+
m/z	relative intensity
43.0258	238
55.0596	166
57.0749	81
65.0426	30
67.0582	159
69.0386	27
69.0732	62
77.0412	162
78.0491	13
79.0574	201
81.0721	152
83.0508	30
83.0861	41
91.0557	426
92.0633	18
93.0707	90
95.0871	46
103.0547	67
104.0632	13
105.0708	999
107.0505	30
107.0864	90
109.0649	34
109.1013	178
111.0808	95
115.0547	55
116.0626	20
117.0701	164
119.0858	164
121.0647	118
121.1	32
123.0435	13
123.0796	18
123.116	13
127.0524	9
128.0618	55
129.0701	83
130.0794	16
131.0853	113
132.0937	32
133.0671	18
133.1013	616
134.106	16
135.0806	50
137.0585	11
137.0956	37
138.0682	53
141.0708	41
142.0779	122
145.1015	41
147.1163	39
153.0927	11
157.1015	25
163.1104	41
173.0971	16
175.113	20
