Mass spectrum: 2-isopropyl-5,6-dimethyl-1H-benzimidazole; LC-ESI-QTOF; MS2; 100 V
Name: 2-isopropyl-5,6-dimethyl-1H-benzimidazole
Formula: C12H16N2
Exact mass: 188.1313
SMILES: CC1=CC2=C(C=C1C)N=C(N2)C(C)C
InChI: InChI=1S/C12H16N2/c1-7(2)12-13-10-5-8(3)9(4)6-11(10)14-12/h5-7H,1-4H3,(H,13,14)
Instrument: TripleTOF 6600 SCIEX
Instrument type: LC-ESI-QTOF
Ms type: MS2
Ion mode: POSITIVE
Collision energy: 100
Fragmentation mode: CID
Ionization: ESI
Column name: Zorbax Eclipse Plus C18 2.1 mm x 150 mm, 3.5 um, Agilent
Retention time: 6.482 min
Precursor m/z: 189.1386
Precursor type: [M+H]+
m/z	relative intensity
37.007	30
38.0144	29
39.0225	166
41.0378	29
49.0067	21
50.0146	219
51.0225	788
52.0169	13
52.0299	33
53.0375	21
54.0329	13
61.0061	16
62.0143	31
63.0221	93
65.0375	194
74.0134	32
75.0216	48
76.0165	22
76.0291	20
77.0378	999
78.0332	68
78.045	104
79.0532	17
80.0476	30
89.0372	134
90.0452	23
91.0528	225
92.047	11
93.0561	10
102.0322	28
102.0424	12
103.0395	13
103.053	28
104.0478	239
105.0427	26
114.0313	14
115.0407	17
116.0481	23
117.0559	39
118.0628	22
129.0437	10
130.0629	38
131.0585	178
142.0503	23
155.058	26
157.0747	85
