Mass spectrum: Warfarin; LC-ESI-QTOF; MS2; 70 V
Name: Warfarin
Class: Pesticide
Formula: C19H16O4
Exact mass: 308.1049
SMILES: CC(=O)CC(C1=CC=CC=C1)C2=C(C3=CC=CC=C3OC2=O)O
InChI: InChI=1S/C19H16O4/c1-12(20)11-15(13-7-3-2-4-8-13)17-18(21)14-9-5-6-10-16(14)23-19(17)22/h2-10,15,21H,11H2,1H3
Instrument: TripleTOF 6600 SCIEX
Instrument type: LC-ESI-QTOF
Ms type: MS2
Ion mode: POSITIVE
Collision energy: 70
Fragmentation mode: CID
Ionization: ESI
Column name: Zorbax Eclipse Plus C18 2.1 mm x 150 mm, 3.5 um, Agilent
Retention time: 11.631 min
Precursor m/z: 309.1122
Precursor type: [M+H]+
m/z	relative intensity
39.0228	82
43.018	214
50.0144	10
51.023	75
53.0023	11
65.0385	658
68.9975	73
75.0227	24
77.0384	684
79.0536	20
89.0383	40
91.0532	108
93.0334	296
95.0498	36
101.0384	42
102.0464	64
103.0535	223
105.045	11
115.0534	51
121.0283	999
127.0538	42
128.0611	102
129.0348	49
129.0701	40
131.0471	16
141.0689	12
145.0293	13
150.0441	13
151.0529	78
152.0617	258
153.0689	67
154.0747	32
155.0851	72
157.0278	14
163.0381	55
165.0694	224
166.0763	28
167.0855	33
173.0224	41
175.0511	11
176.0609	117
177.0685	57
178.0774	181
181.0661	10
205.0644	65
223.0744	11
249.0571	10
