Mass spectrum: 2-(2-Hydroxyphenyl)-1H-benzimidazole; LC-ESI-QTOF; MS2; 150 V
Name: 2-(2-Hydroxyphenyl)-1H-benzimidazole
Class: Industrial_process; Pharmaceutical
Formula: C13H10N2O
Exact mass: 210.0793
InChI: InChI=1S/C13H10N2O/c16-12-8-4-1-5-9(12)13-14-10-6-2-3-7-11(10)15-13/h1-8,14-15H
Instrument: TripleTOF 5600 SCIEX
Instrument type: LC-ESI-QTOF
Ms type: CID
Ion mode: POSITIVE
Collision energy: 150
Ionization: ESI
Column name: Zorbax Eclipse Plus C18 2.1 mm x 150 mm, 3.5 um, Agilent
Retention time: 6.225 min
Precursor m/z: 211.0866
Precursor type: [M+H]+
m/z	relative intensity
52.0276	482
60.0095	199
65.0333	66
65.0454	166
73.0123	366
74.0205	999
75.0161	249
75.0259	216
76.0253	166
85.0125	249
86.0208	199
87.0257	66
98.0173	116
109.0086	83
