Mass spectrum: Flumequin; LC-ESI-QTOF; MS2; 10 V
Name: Flumequin
Class: Pharmaceutical; Antimicrobial
Formula: C14H12FNO3
Exact mass: 261.0801
SMILES: CC1CCc2cc(F)cc3C(=O)C(=CN1c23)C(O)=O
InChI: InChI=1S/C14H12FNO3/c1-7-2-3-8-4-9(15)5-10-12(8)16(7)6-11(13(10)17)14(18)19/h4-7H,2-3H2,1H3,(H,18,19)
Instrument: TripleTOF 5600 SCIEX
Instrument type: LC-ESI-QTOF
Ms type: MS2
Ion mode: POSITIVE
Collision energy: 10
Fragmentation mode: CID
Ionization: ESI
Column name: Zorbax Eclipse Plus C18 2.1 mm x 150 mm, 3.5 um, Agilent
Retention time: 9.545 min
Precursor m/z: 262.0874
Precursor type: [M+H]+
m/z	relative intensity
244.0768	147
262.0876	999
