Mass spectrum: Oxycodone; LC-ESI-QTOF; MS2; 10 V
Name: Oxycodone
Class: Pharmaceutical
Formula: C18H21NO4
Exact mass: 315.1471
InChI: InChI=1S/C18H21NO4/c1-19-8-7-17-14-10-3-4-12(22-2)15(14)23-16(17)11(20)5-6-18(17,21)13(19)9-10/h3-4,13,16,21H,5-9H2,1-2H3
Instrument: TripleTOF 6600 SCIEX
Instrument type: LC-ESI-QTOF
Ms type: CID
Ion mode: POSITIVE
Collision energy: 10
Ionization: ESI
Column name: Zorbax Eclipse Plus C18 2.1 mm x 150 mm, 3.5 um, Agilent
Retention time: 5.206 min
Precursor m/z: 316.1543
Precursor type: [M+H]+
m/z	relative intensity
298.1425	16
316.1545	999
