Mass spectrum: Omeprazole 4-desmethylthioether; LC-ESI-QTOF; MS2; 50 V
Name: Omeprazole 4-desmethylthioether
Class: Metabolite; Pharmaceutical
Formula: C16H17N3O2S
Exact mass: 315.1041
SMILES: Cc1cnc(c(c1O)C)CSc2[nH]c3ccc(cc3n2)OC
InChI: InChI=1S/C16H17N3O2S/c1-9-7-17-14(10(2)15(9)20)8-22-16-18-12-5-4-11(21-3)6-13(12)19-16/h4-7H,8H2,1-3H3,(H,17,20)(H,18,19)
Instrument: TripleTOF 5600 SCIEX
Instrument type: LC-ESI-QTOF
Ms type: MS2
Ion mode: POSITIVE
Collision energy: 50
Fragmentation mode: CID
Ionization: ESI
Column name: Zorbax Eclipse Plus C18 2.1 mm x 150 mm, 3.5 um, Agilent
Retention time: 6.17 min
Precursor m/z: 316.1114
Precursor type: [M+H]+
m/z	relative intensity
65.0425	13
67.058	35
77.0421	17
79.0564	35
80.0514	15
81.0726	37
91.0558	65
93.0592	111
94.0662	107
95.0526	10
96.0822	39
106.053	87
107.0718	26
108.0814	509
109.0643	30
109.0885	118
117.0576	17
118.0652	28
122.0601	76
123.068	30
124.0767	48
134.0477	467
135.0672	13
136.0767	838
137.0181	21
137.0835	346
137.1138	10
140.0519	107
148.0655	21
148.0735	10
149.0711	557
149.1025	10
150.037	17
165.013	21
166.0317	105
167.0406	32
168.0484	999
180.033	24
181.0432	41
240.1131	114
240.1331	13
267.1012	13
268.11	171
283.1338	15
284.0868	26
