Mass spectrum: Trinexapac-ethyl; LC-ESI-QTOF; MS2; 40 V
Name: Trinexapac-ethyl
Class: Pesticide
Formula: C13H16O5
Exact mass: 252.0998
SMILES: CCOC(=O)C1CC(=O)C(=C(C2CC2)O)C(=O)C1
InChI: InChI=1S/C13H16O5/c1-2-18-13(17)8-5-9(14)11(10(15)6-8)12(16)7-3-4-7/h7-8,16H,2-6H2,1H3
Instrument: TripleTOF 6600 SCIEX
Instrument type: LC-ESI-QTOF
Ms type: MS2
Ion mode: NEGATIVE
Collision energy: 40
Fragmentation mode: CID
Ionization: ESI
Column name: Zorbax Eclipse Plus C18 2.1 mm x 150 mm, 3.5 um, Agilent
Retention time: 11.11 min
Precursor m/z: 251.0925
Precursor type: [M-H]-
m/z	relative intensity
41.0026	86
44.996	86
65.0394	86
67.0188	130
81.0313	86
83.0478	304
85.0277	130
91.0179	43
92.0239	86
93.0312	173
95.0119	130
107.0486	217
108.0198	86
109.0273	868
109.0362	43
109.0594	86
111.0444	260
121.0275	86
122.0371	130
131.0483	86
133.0643	434
134.0341	43
135.0073	304
135.0441	173
135.0812	217
136.01	86
136.0183	43
137.0213	43
137.059	738
146.033	173
159.0424	260
161.0601	260
163.0366	173
177.054	999
179.072	43
181.0522	43
181.0828	86
183.0682	130
205.0463	217
251.0899	868
