Mass spectrum: Sulfamethoxazole; LC-ESI-QTOF; MS2; 50 V
Name: Sulfamethoxazole
Class: Antimicrobial; Pharmaceutical
Formula: C10H11N3O3S
Exact mass: 253.0521
SMILES: CC1=CC(=NO1)NS(=O)(=O)C2=CC=C(C=C2)N
InChI: InChI=1S/C10H11N3O3S/c1-7-6-10(12-16-7)13-17(14,15)9-4-2-8(11)3-5-9/h2-6H,11H2,1H3,(H,12,13)
Instrument: TripleTOF 5600 SCIEX
Instrument type: LC-ESI-QTOF
Ms type: MS2
Ion mode: POSITIVE
Collision energy: 50
Fragmentation mode: CID
Ionization: ESI
Column name: Zorbax Eclipse Plus C18 2.1 mm x 150 mm, 3.5 um, Agilent
Retention time: 7.246 min
Precursor m/z: 254.0594
Precursor type: [M+H]+
m/z	relative intensity
65.0459	696
66.0504	12
72.0503	11
80.0547	296
92.0539	999
93.0614	213
94.0684	10
99.0592	74
107.0628	29
108.0476	751
119.0632	16
131.0628	14
143.0616	12
146.0724	51
147.0826	23
156.0115	24
160.0894	14
