Mass spectrum: Diphenylphosphinamide; LC-ESI-QTOF; MS2; 60 V
Name: Diphenylphosphinamide
Formula: C12H12NOP
Exact mass: 217.0657
SMILES: C1=CC=C(C=C1)P(=O)(C2=CC=CC=C2)N
InChI: InChI=1S/C12H12NOP/c13-15(14,11-7-3-1-4-8-11)12-9-5-2-6-10-12/h1-10H,(H2,13,14)
Instrument: TripleTOF 5600 SCIEX
Instrument type: LC-ESI-QTOF
Ms type: MS2
Ion mode: POSITIVE
Collision energy: 60
Fragmentation mode: CID
Ionization: ESI
Column name: Zorbax Eclipse Plus C18 2.1 mm x 150 mm, 3.5 um, Agilent
Retention time: 7.411 min
Precursor m/z: 218.0729
Precursor type: [M+H]+
m/z	relative intensity
49.008	13
50.0154	54
51.0234	298
68.9892	49
77.0393	999
95.005	111
107.0043	26
115.0541	36
127.0545	25
128.062	100
129.0694	27
133.0196	63
139.0539	12
141.0694	24
145.0204	13
147.0375	9
151.0549	13
152.0634	107
153.0697	80
154.078	22
157.0199	31
170.0288	74
171.0362	51
183.0352	43
201.0494	12
