Mass spectrum: N,N-Dimethyltetradecylamine; LC-ESI-QTOF; MS2; 150 V
Name: N,N-Dimethyltetradecylamine
Class: Personal_care_product
Formula: C16H35N
Exact mass: 241.277
InChI: InChI=1S/C16H35N/c1-4-5-6-7-8-9-10-11-12-13-14-15-16-17(2)3/h4-16H2,1-3H3
Instrument: TripleTOF 6600 SCIEX
Instrument type: LC-ESI-QTOF
Ms type: CID
Ion mode: POSITIVE
Collision energy: 150
Ionization: ESI
Column name: Zorbax Eclipse Plus C18 2.1 mm x 150 mm, 3.5 um, Agilent
Retention time: 11.365 min
Precursor m/z: 242.2842
Precursor type: [M+H]+
m/z	relative intensity
30.0331	191
35.9987	106
37.0066	403
38.0022	170
38.0143	425
39.0224	999
41.0382	148
42.0334	403
44.049	361
