Mass spectrum: Promethazine; LC-ESI-QTOF; MS2; 60 V
Name: Promethazine
Class: Pharmaceutical
Formula: C17H20N2S
Exact mass: 284.1347
SMILES: CC(CN1c2ccccc2Sc3c1cccc3)N(C)C
InChI: InChI=1S/C17H20N2S/c1-13(18(2)3)12-19-14-8-4-6-10-16(14)20-17-11-7-5-9-15(17)19/h4-11,13H,12H2,1-3H3
Instrument: TripleTOF 5600 SCIEX
Instrument type: LC-ESI-QTOF
Ms type: MS2
Ion mode: POSITIVE
Collision energy: 60
Fragmentation mode: CID
Ionization: ESI
Column name: Zorbax Eclipse Plus C18 2.1 mm x 150 mm, 3.5 um, Agilent
Retention time: 7.995 min
Precursor m/z: 285.142
Precursor type: [M+H]+
m/z	relative intensity
42.0434	10
44.059	15
56.0575	238
58.073	30
70.0707	48
71.0795	579
77.0424	29
79.0583	12
84.0849	73
86.1015	697
91.0581	12
103.0589	17
105.0726	25
109.0137	44
121.0132	11
127.0566	106
128.0517	118
130.0672	40
136.0221	10
140.0516	17
153.0601	26
154.0689	546
162.04	24
164.0577	10
165.0724	30
166.0686	150
167.0758	37
171.0297	189
172.0234	24
178.0798	14
180.0839	23
191.074	9
192.085	13
193.0921	60
196.0259	39
197.034	251
198.0418	999
199.0479	20
204.0883	12
206.1002	85
223.0494	86
224.0569	123
225.0651	24
