Mass spectrum: 2-Ethyl-6-methylaniline; LC-ESI-QTOF; MS2; 70 V
Name: 2-Ethyl-6-methylaniline
Class: Industrial_process
Formula: C9H13N
Exact mass: 135.1048
SMILES: CCC1=CC=CC(=C1N)C
InChI: InChI=1S/C9H13N/c1-3-8-6-4-5-7(2)9(8)10/h4-6H,3,10H2,1-2H3
Instrument: TripleTOF 5600 SCIEX
Instrument type: LC-ESI-QTOF
Ms type: MS2
Ion mode: POSITIVE
Collision energy: 70
Fragmentation mode: CID
Ionization: ESI
Column name: Zorbax Eclipse Plus C18 2.1 mm x 150 mm, 3.5 um, Agilent
Retention time: 7.958 min
Precursor m/z: 136.1121
Precursor type: [M+H]+
m/z	relative intensity
37.0075	90
38.0157	90
39.023	433
41.0385	49
49.0073	65
50.0154	302
51.0231	999
52.031	65
61.0073	98
62.0157	139
63.0227	204
65.0387	548
74.015	106
75.0239	65
76.0313	73
77.039	925
78.0463	196
80.0511	32
89.0382	122
91.0537	204
102.0446	57
103.0535	98
106.0638	49
115.0541	90
