Mass spectrum: 2-Hydroxyestrone; LC-ESI-QTOF; MS2; 100 V
Name: 2-Hydroxyestrone
Class: Pharmaceutical; Metabolite
Formula: C18H22O3
Exact mass: 286.1569
SMILES: C[C@]12CC[C@H]3[C@@H](CCc4cc(O)c(O)cc34)[C@@H]1CCC2=O
InChI: InChI=1S/C18H22O3/c1-18-7-6-11-12(14(18)4-5-17(18)21)3-2-10-8-15(19)16(20)9-13(10)11/h8-9,11-12,14,19-20H,2-7H2,1H3/t11-,12+,14-,18-/m0/s1
Instrument: TripleTOF 5600 SCIEX
Instrument type: LC-ESI-QTOF
Ms type: MS2
Ion mode: POSITIVE
Collision energy: 100
Fragmentation mode: CID
Ionization: ESI
Column name: Zorbax Eclipse Plus C18 2.1 mm x 150 mm, 3.5 um, Agilent
Retention time: 9.978 min
Precursor m/z: 287.1642
Precursor type: [M+H]+
m/z	relative intensity
65.0409	92
75.0241	111
77.0413	999
77.0576	166
89.0379	92
91.0564	111
102.0477	185
103.0537	259
115.0535	314
126.044	148
127.0534	351
128.0601	592
131.052	74
139.0549	129
151.0503	148
152.0608	388
165.0701	203
