Mass spectrum: Tetrahydroharman-3-carboxylic acid; LC-ESI-QTOF; MS2; 40 V
Name: Tetrahydroharman-3-carboxylic acid
Formula: C13H14N2O2
Exact mass: 230.1055
SMILES: CC1C2=C(CC(N1)C(=O)O)C3=CC=CC=C3N2
InChI: InChI=1S/C13H14N2O2/c1-7-12-9(6-11(14-7)13(16)17)8-4-2-3-5-10(8)15-12/h2-5,7,11,14-15H,6H2,1H3,(H,16,17)
Instrument: TripleTOF 6600 SCIEX
Instrument type: LC-ESI-QTOF
Ms type: MS2
Ion mode: NEGATIVE
Collision energy: 40
Fragmentation mode: CID
Ionization: ESI
Column name: Zorbax Eclipse Plus C18 2.1 mm x 150 mm, 3.5 um, Agilent
Retention time: 5.62 min
Precursor m/z: 229.0982
Precursor type: [M-H]-
m/z	relative intensity
72.0084	46
92.0522	14
100.041	36
116.0499	999
142.0667	763
143.0765	12
153.0619	12
154.0638	12
156.0696	31
156.0802	249
158.0961	9
166.0661	14
166.0724	14
168.0799	29
185.109	14
