Mass spectrum: Amitriptyline; LC-ESI-QTOF; MS2; 60 V
Name: Amitriptyline
Class: Pharmaceutical
Formula: C20H23N
Exact mass: 277.183
SMILES: CN(C)CCC=C1C2=CC=CC=C2CCC3=CC=CC=C31
InChI: InChI=1S/C20H23N/c1-21(2)15-7-12-20-18-10-5-3-8-16(18)13-14-17-9-4-6-11-19(17)20/h3-6,8-12H,7,13-15H2,1-2H3
Instrument: TripleTOF 6600 SCIEX
Instrument type: LC-ESI-QTOF
Ms type: MS2
Ion mode: POSITIVE
Collision energy: 60
Fragmentation mode: CID
Ionization: ESI
Column name: Zorbax Eclipse Plus C18 2.1 mm x 150 mm, 3.5 um, Agilent
Retention time: 8.708 min
Precursor m/z: 278.1903
Precursor type: [M+H]+
m/z	relative intensity
42.034	18
51.0229	27
58.065	41
65.0386	135
70.0649	22
77.0388	228
79.054	119
84.0806	44
89.0377	12
91.0545	882
103.054	113
105.0697	189
115.0543	578
116.0616	21
117.0697	200
126.0461	10
127.0541	147
128.0619	252
129.0694	95
141.0695	92
151.0534	12
152.0616	82
153.0695	82
154.0773	28
155.0605	32
155.0853	20
164.0619	10
165.07	248
176.0615	31
177.0693	33
178.078	682
179.0851	50
189.0701	484
190.078	241
191.0857	487
192.0927	36
201.0695	23
202.078	999
203.0857	726
204.0932	114
205.101	22
215.0856	211
216.0929	61
217.1011	259
218.1088	27
