Mass spectrum: Saluamine; LC-ESI-QTOF; MS2; 60 V
Name: Saluamine
Class: Pharmaceutical; Transformation_product-Metabolite
Formula: C7H7ClN2O4S
Exact mass: 249.9815
SMILES: Nc1cc(Cl)c(cc1C(O)=O)[S](N)(=O)=O
InChI: InChI=1S/C7H7ClN2O4S/c8-4-2-5(9)3(7(11)12)1-6(4)15(10,13)14/h1-2H,9H2,(H,11,12)(H2,10,13,14)
Instrument: TripleTOF 5600 SCIEX
Instrument type: LC-ESI-QTOF
Ms type: MS2
Ion mode: NEGATIVE
Collision energy: 60
Fragmentation mode: CID
Ionization: ESI
Column name: Zorbax Eclipse Plus C18 2.1 mm x 150 mm, 3.5 um, Agilent
Retention time: 5.713 min
Precursor m/z: 248.9742
Precursor type: [M-H]-
m/z	relative intensity
61.9707	108
63.9625	173
77.9651	999
78.9728	96
90.0333	96
94.029	281
104.0374	142
121.0395	81
