Mass spectrum: 2-(2-Methoxyphenyl)-1H-Benzimidazole; LC-ESI-QTOF; MS2; 150 V
Name: 2-(2-Methoxyphenyl)-1H-Benzimidazole
Class: Pharmaceutical
Formula: C14H12N2O
Exact mass: 224.095
SMILES: COc1ccccc1c2[nH]c3ccccc3n2
InChI: InChI=1S/C14H12N2O/c1-17-13-9-5-2-6-10(13)14-15-11-7-3-4-8-12(11)16-14/h2-9H,1H3,(H,15,16)
Instrument: TripleTOF 5600 SCIEX
Instrument type: LC-ESI-QTOF
Ms type: MS2
Ion mode: POSITIVE
Collision energy: 150
Fragmentation mode: CID
Ionization: ESI
Column name: Zorbax Eclipse Plus C18 2.1 mm x 150 mm, 3.5 um, Agilent
Retention time: 6.225 min
Precursor m/z: 225.1022
Precursor type: [M+H]+
m/z	relative intensity
51.0185	32
52.0255	273
60.0063	120
61.0327	32
61.047	40
62.0557	48
64.0357	64
64.0539	32
65.0411	161
73.0106	136
74.0183	999
75.0145	169
75.0263	209
76.0239	225
77.0447	48
86.0205	56
98.0158	80
99.0141	40
