Mass spectrum: Oxymetazoline; LC-ESI-QTOF; MS2; 80 V
Name: Oxymetazoline
Class: Pharmaceutical
Formula: C16H24N2O
Exact mass: 260.1889
SMILES: Cc1cc(c(c(c1CC2=NCCN2)C)O)C(C)(C)C
InChI: InChI=1S/C16H24N2O/c1-10-8-13(16(3,4)5)15(19)11(2)12(10)9-14-17-6-7-18-14/h8,19H,6-7,9H2,1-5H3,(H,17,18)
Instrument: TripleTOF 5600 SCIEX
Instrument type: LC-ESI-QTOF
Ms type: MS2
Ion mode: POSITIVE
Collision energy: 80
Fragmentation mode: CID
Ionization: ESI
Column name: Zorbax Eclipse Plus C18 2.1 mm x 150 mm, 3.5 um, Agilent
Retention time: 7.429 min
Precursor m/z: 261.1961
Precursor type: [M+H]+
m/z	relative intensity
43.0253	16
44.0587	61
54.0402	14
55.048	20
57.0742	12
65.0436	204
67.0576	23
71.0639	37
77.0418	640
78.05	43
79.0569	251
84.0696	46
89.0415	19
91.0566	999
92.0622	17
93.0704	90
102.0464	43
103.0545	235
104.0618	46
105.0706	527
106.0755	16
107.0486	55
107.0857	28
115.0544	422
116.0477	11
116.062	71
117.0559	14
117.0697	254
118.0634	15
118.0759	43
119.0497	12
119.0849	137
120.0881	12
121.0649	129
121.0945	10
122.0739	15
126.0457	16
127.0532	120
128.0615	496
129.0695	90
130.0657	67
131.0484	130
131.0839	75
133.0644	29
133.1006	135
135.0784	64
141.0694	90
142.0761	51
143.084	92
144.0782	25
145.0638	160
146.0722	78
147.0824	28
157.0721	10
157.0959	12
158.0816	10
159.0804	21
159.0915	11
160.0776	39
161.0952	58
167.0734	12
168.0802	15
170.0928	16
171.0911	37
172.101	14
173.1038	17
174.0772	17
175.112	10
185.1064	34
186.1108	15
187.0859	30
188.0945	26
197.1069	17
199.1229	10
201.0994	15
211.1201	35
215.1193	14
225.1371	12
