Mass spectrum: Ranitidine-N-oxide; LC-ESI-QTOF; MS2; 130 V
Name: Ranitidine-N-oxide
Class: Pharmaceutical; Transformation_product
Formula: C13H22N4O4S
Exact mass: 330.1362
SMILES: CNC(/NCCSCc1oc(C[N+](C)(C)[O-])cc1)=C\[N+]([O-])=O
InChI: InChI=1S/C13H22N4O4S/c1-14-13(8-16(18)19)15-6-7-22-10-12-5-4-11(21-12)9-17(2,3)20/h4-5,8,14-15H,6-7,9-10H2,1-3H3/b13-8+
Instrument: TripleTOF 5600 SCIEX
Instrument type: LC-ESI-QTOF
Ms type: MS2
Ion mode: POSITIVE
Collision energy: 130
Fragmentation mode: CID
Ionization: ESI
Column name: Zorbax Eclipse Plus C18 2.1 mm x 150 mm, 3.5 um, Agilent
Retention time: 4.879 min
Precursor m/z: 331.1435
Precursor type: [M+H]+
m/z	relative intensity
42.0426	148
51.0286	377
52.038	67
53.0439	404
54.038	161
55.0278	67
55.0468	108
56.054	391
57.0499	188
57.0618	67
59	216
65.0427	283
66.0502	108
67.0589	94
68.0537	148
68.9838	80
70.9979	94
74.0095	94
77.0412	999
78.0449	216
79.0552	67
80.0516	202
81.0384	755
82.0556	364
83.0628	67
88.0213	121
89.0401	134
91.0549	94
92.0503	54
93.0604	188
95.0573	80
96.0688	121
97.011	108
97.0767	297
102.0367	175
104.0499	121
105.0406	67
106.0654	80
107.0501	67
117.0556	67
119.0605	108
129.0473	54
