Mass spectrum: 3-(N-Morpholino)propanesulfonic acid; LC-ESI-QTOF; MS2; 110 V
Name: 3-(N-Morpholino)propanesulfonic acid
Class: Industrial_process
Formula: C7H15NO4S
Exact mass: 209.0722
SMILES: C1COCCN1CCCS(=O)(=O)O
InChI: InChI=1S/C7H15NO4S/c9-13(10,11)7-1-2-8-3-5-12-6-4-8/h1-7H2,(H,9,10,11)
Instrument: TripleTOF 5600 SCIEX
Instrument type: LC-ESI-QTOF
Ms type: MS2
Ion mode: NEGATIVE
Collision energy: 110
Fragmentation mode: CID
Ionization: ESI
Column name: Zorbax Eclipse Plus C18 2.1 mm x 150 mm, 3.5 um, Agilent
Retention time: 1.291 min
Precursor m/z: 208.0649
Precursor type: [M-H]-
m/z	relative intensity
63.9623	72
79.9572	999
