Mass spectrum: Sertraline; LC-ESI-QTOF; MS2; 100 V
Name: Sertraline
Class: Pharmaceutical
Formula: C17H17Cl2N
Exact mass: 305.0738
SMILES: CN[C@H]1CC[C@H](c2c1cccc2)c3ccc(c(c3)Cl)Cl
InChI: InChI=1S/C17H17Cl2N/c1-20-17-9-7-12(13-4-2-3-5-14(13)17)11-6-8-15(18)16(19)10-11/h2-6,8,10,12,17,20H,7,9H2,1H3/t12-,17-/m0/s1
Instrument: TripleTOF 5600 SCIEX
Instrument type: LC-ESI-QTOF
Ms type: MS2
Ion mode: POSITIVE
Collision energy: 100
Fragmentation mode: CID
Ionization: ESI
Column name: Zorbax Eclipse Plus C18 2.1 mm x 150 mm, 3.5 um, Agilent
Retention time: 8.925 min
Precursor m/z: 306.0811
Precursor type: [M+H]+
m/z	relative intensity
51.028	11
65.0414	33
72.9877	404
74.0192	10
75.0027	10
75.0258	19
76.0337	9
77.0412	88
78.0498	29
82.9472	49
86.0175	11
87.0242	33
88.0327	94
89.0412	999
91.0557	44
96.985	174
99.0006	197
101.039	17
102.0466	71
106.9452	21
115.0544	53
123.0002	482
124.0071	149
126.0459	57
127.0547	209
128.0625	509
129.0692	27
132.9604	140
150.0471	16
151.0549	18
158.9766	118
163.0552	22
176.0627	33
187.0534	15
188.0616	20
189.0701	93
199.0342	10
200.0616	15
201.0714	20
202.0775	105
203.0869	15
