Mass spectrum: Ethyl 4-dimethylaminobenzoate; LC-ESI-QTOF; MS2; 10 V
Name: Ethyl 4-dimethylaminobenzoate
Formula: C11H15NO2
Exact mass: 193.1103
SMILES: O=C(OCC)C1=CC=C(C=C1)N(C)C
InChI: InChI=1S/C11H15NO2/c1-4-14-11(13)9-5-7-10(8-6-9)12(2)3/h5-8H,4H2,1-3H3
Instrument: TripleTOF X500R SCIEX
Instrument type: LC-ESI-QTOF
Ms type: CID
Ion mode: POSITIVE
Collision energy: 10
Ionization: ESI
Column name: Zorbax Eclipse Plus C18 2.1 mm x 150 mm, 3.5 um, Agilent
Retention time: 11.941 min
Precursor m/z: 194.1176
Precursor type: [M+H]+
m/z	relative intensity
166.0855	41
179.0936	19
194.1163	999
