Mass spectrum: tert-Butoxycarbonylvaline; LC-ESI-QTOF; MS2; 130 V
Name: tert-Butoxycarbonylvaline
Formula: C10H19NO4
Exact mass: 217.1314
SMILES: CC(C)C(C(=O)O)NC(=O)OC(C)(C)C
InChI: InChI=1S/C10H19NO4/c1-6(2)7(8(12)13)11-9(14)15-10(3,4)5/h6-7H,1-5H3,(H,11,14)(H,12,13)
Instrument: TripleTOF 6600 SCIEX
Instrument type: LC-ESI-QTOF
Ms type: MS2
Ion mode: NEGATIVE
Collision energy: 130
Fragmentation mode: CID
Ionization: ESI
Column name: Zorbax Eclipse Plus C18 2.1 mm x 150 mm, 3.5 um, Agilent
Retention time: 8.999 min
Precursor m/z: 216.1241
Precursor type: [M-H]-
m/z	relative intensity
41.9986	999
