Mass spectrum: O-desmethyl-metoprolol; LC-ESI-QTOF; MS2; 110 V
Name: O-desmethyl-metoprolol
Class: Pharmaceutical; Metabolite; Transformation_product
Formula: C14H23NO3
Exact mass: 253.1678
SMILES: CC(C)NCC(O)COc1ccc(CCO)cc1
InChI: InChI=1S/C14H23NO3/c1-11(2)15-9-13(17)10-18-14-5-3-12(4-6-14)7-8-16/h3-6,11,13,15-17H,7-10H2,1-2H3
Instrument: TripleTOF 5600 SCIEX
Instrument type: LC-ESI-QTOF
Ms type: MS2
Ion mode: POSITIVE
Collision energy: 110
Fragmentation mode: CID
Ionization: ESI
Column name: Zorbax Eclipse Plus C18 2.1 mm x 150 mm, 3.5 um, Agilent
Retention time: 5.112 min
Precursor m/z: 254.1751
Precursor type: [M+H]+
m/z	relative intensity
44.0618	14
56.0557	95
58.0719	44
65.0425	239
74.0211	29
75.0265	35
76.0337	14
77.0416	999
78.0477	29
79.0542	17
89.0397	131
91.0554	170
102.0464	65
103.0551	20
107.0479	14
115.0549	143
127.0539	14
128.0642	26
