Mass spectrum: Caprolactam; LC-ESI-QTOF; MS2; 30 V
Name: Caprolactam
Class: Food_additive; Industrial_process
Formula: C6H11NO
Exact mass: 113.0841
SMILES: C1CCC(=O)NCC1
InChI: InChI=1S/C6H11NO/c8-6-4-2-1-3-5-7-6/h1-5H2,(H,7,8)
Instrument: TripleTOF 6600 SCIEX
Instrument type: LC-ESI-QTOF
Ms type: MS2
Ion mode: POSITIVE
Collision energy: 30
Fragmentation mode: CID
Ionization: ESI
Column name: Zorbax Eclipse Plus C18 2.1 mm x 150 mm, 3.5 um, Agilent
Retention time: 5.197 min
Precursor m/z: 114.0914
Precursor type: [M+H]+
m/z	relative intensity
30.0345	27
37.0075	16
38.0161	15
39.0237	156
41.0395	397
42.0346	24
43.0183	18
43.055	162
44.0142	999
51.0242	11
53.0389	26
54.0338	17
55.0186	99
55.0551	318
67.0549	71
68.0505	42
69.0708	271
72.0811	28
77.0392	134
79.0549	252
80.0498	12
86.0977	17
96.082	137
97.0652	38
114.0922	258
