Mass spectrum: 3-O-benzyl estriol; LC-ESI-QTOF; MS2; 30 V
Name: 3-O-benzyl estriol
Class: Pharmaceutical
Formula: C25H30O3
Exact mass: 378.2195
SMILES: CC12CCC3C(C1CC(C2O)O)CCC4=C3C=CC(=C4)OCC5=CC=CC=C5
InChI: InChI=1S/C25H30O3/c1-25-12-11-20-19-10-8-18(28-15-16-5-3-2-4-6-16)13-17(19)7-9-21(20)22(25)14-23(26)24(25)27/h2-6,8,10,13,20-24,26-27H,7,9,11-12,14-15H2,1H3
Instrument: TripleTOF 5600 SCIEX
Instrument type: LC-ESI-QTOF
Ms type: MS2
Ion mode: POSITIVE
Collision energy: 30
Fragmentation mode: CID
Ionization: ESI
Column name: Zorbax Eclipse Plus C18 2.1 mm x 150 mm, 3.5 um, Agilent
Retention time: 13.267 min
Precursor m/z: 379.2268
Precursor type: [M+H]+
m/z	relative intensity
65.0419	11
91.0562	999
119.0502	11
133.0633	25
157.0623	25
159.0798	21
179.0855	13
195.0798	11
197.0951	61
209.0931	21
211.1088	21
213.1273	23
225.1248	11
227.1427	9
249.1258	17
251.1415	92
253.1597	9
269.1531	78
287.1647	17
301.1793	47
343.1995	15
379.2236	27
379.2422	13
