Mass spectrum: Sildenafil; LC-ESI-QTOF; MS2; 100 V
Name: Sildenafil
Class: Pharmaceutical
Formula: C22H30N6O4S
Exact mass: 474.2049
SMILES: CCCC1=NN(C2=C1NC(=NC2=O)C3=C(C=CC(=C3)S(=O)(=O)N4CCN(CC4)C)OCC)C
InChI: InChI=1S/C22H30N6O4S/c1-5-7-17-19-20(27(4)25-17)22(29)24-21(23-19)16-14-15(8-9-18(16)32-6-2)33(30,31)28-12-10-26(3)11-13-28/h8-9,14H,5-7,10-13H2,1-4H3,(H,23,24,29)
Instrument: TripleTOF 5600 SCIEX
Instrument type: LC-ESI-QTOF
Ms type: MS2
Ion mode: POSITIVE
Collision energy: 100
Fragmentation mode: CID
Ionization: ESI
Column name: Zorbax Eclipse Plus C18 2.1 mm x 150 mm, 3.5 um, Agilent
Retention time: 7.283 min
Precursor m/z: 475.2122
Precursor type: [M+H]+
m/z	relative intensity
42.0486	58
44.064	21
56.0594	106
58.0741	999
67.0348	10
69.0517	21
70.0713	95
77.0424	17
79.0349	13
80.0559	13
81.0491	17
83.0661	13
84.0692	13
90.0346	19
91.0469	15
92.0534	13
94.0445	13
95.0654	10
97.0772	15
99.094	21
102.0367	19
103.0461	15
104.0495	26
105.045	13
106.0482	10
116.0458	28
117.0454	28
118.0524	19
119.0608	17
120.0486	15
122.0356	17
128.052	41
129.0462	43
130.0577	15
131.0607	26
133.043	13
136.0505	71
141.0456	17
142.0548	19
143.0604	28
144.0523	15
145.0403	23
153.05	15
154.0464	10
154.061	15
155.0624	67
156.0541	56
157.0428	19
157.0626	26
158.0475	21
158.0708	17
159.0547	19
166.0603	13
166.0917	10
168.0616	17
169.0738	39
170.0718	63
171.0565	10
171.0812	30
180.06	13
181.0601	10
182.0496	17
183.06	91
184.0463	10
184.0564	23
184.0856	21
185.0626	15
193.0651	15
195.0578	15
195.0834	15
196.0501	15
196.0889	13
197.0827	65
198.0673	47
198.0921	17
199.0693	21
199.0934	10
200.0722	13
208.0516	10
209.051	15
210.0602	13
210.1011	13
211.057	100
212.0718	30
213.0787	32
217.11	15
223.0667	19
224.0687	30
225.0782	174
226.0829	41
227.0922	43
236.0666	10
237.0749	23
238.0774	10
239.0557	21
239.093	58
253.0725	85
254.0802	26
255.0754	13
255.0889	13
255.1194	34
283.1215	15
