Mass spectrum: Mirtazapine; LC-ESI-QTOF; MS2; 50 V
Name: Mirtazapine
Class: Pharmaceutical
Formula: C17H19N3
Exact mass: 265.1579
SMILES: CN1CCN2C(C1)C3=CC=CC=C3CC4=C2N=CC=C4
InChI: InChI=1S/C17H19N3/c1-19-9-10-20-16(12-19)15-7-3-2-5-13(15)11-14-6-4-8-18-17(14)20/h2-8,16H,9-12H2,1H3
Instrument: TripleTOF 5600 SCIEX
Instrument type: LC-ESI-QTOF
Ms type: MS2
Ion mode: POSITIVE
Collision energy: 50
Fragmentation mode: CID
Ionization: ESI
Column name: Zorbax Eclipse Plus C18 2.1 mm x 150 mm, 3.5 um, Agilent
Retention time: 5.459 min
Precursor m/z: 266.1652
Precursor type: [M+H]+
m/z	relative intensity
65.0455	33
70.0696	18
72.0868	119
91.0583	25
92.053	93
105.072	16
115.0552	57
116.0511	28
117.0463	41
130.0659	25
131.0694	38
141.0716	23
144.0805	29
151.0548	51
152.0611	21
153.0628	24
154.0658	12
165.0706	20
166.0655	25
167.0736	138
168.0808	118
177.0596	14
178.0663	107
179.0728	80
180.0808	109
181.0808	27
182.0955	17
191.0736	23
192.0785	29
193.0765	67
194.0841	684
195.0916	999
205.0764	20
206.0869	21
207.0941	39
208.1001	13
209.1071	72
217.0892	14
218.0847	16
219.092	60
220.1011	10
