Mass spectrum: Estrone; LC-ESI-QTOF; MS2; 30 V
Name: Estrone
Class: Pharmaceutical
Formula: C18H22O2
Exact mass: 270.162
SMILES: CC12CCC3C(C1CCC2=O)CCC4=C3C=CC(=C4)O
InChI: InChI=1S/C18H22O2/c1-18-9-8-14-13-5-3-12(19)10-11(13)2-4-15(14)16(18)6-7-17(18)20/h3,5,10,14-16,19H,2,4,6-9H2,1H3
Instrument: TripleTOF 5600 SCIEX
Instrument type: LC-ESI-QTOF
Ms type: MS2
Ion mode: POSITIVE
Collision energy: 30
Fragmentation mode: CID
Ionization: ESI
Column name: Zorbax Eclipse Plus C18 2.1 mm x 150 mm, 3.5 um, Agilent
Retention time: 11.224 min
Precursor m/z: 271.1693
Precursor type: [M+H]+
m/z	relative intensity
43.0179	12
67.0541	25
71.0491	39
77.0387	12
79.0542	38
81.0701	133
85.0648	15
91.0541	29
93.07	79
95.0856	37
105.0699	72
107.0488	26
107.0846	87
109.1012	41
111.0803	17
115.0544	17
117.0701	11
121.0646	54
121.0999	13
127.0544	11
128.0625	11
129.0695	12
131.0847	89
133.0646	845
141.0701	72
144.0568	68
145.0653	211
147.0806	53
153.0705	13
155.0855	11
157.0647	966
159.0802	999
161.0962	20
165.0703	28
167.0857	26
169.071	12
169.1001	12
171.0808	121
172.0882	12
173.0965	104
179.0861	84
181.0642	12
182.0726	37
183.0808	241
184.0883	135
185.0966	140
193.1014	15
195.0812	11
196.0893	25
197.0963	731
198.1046	188
199.1121	13
201.1278	152
209.0968	43
210.1049	11
211.1122	296
212.1202	44
213.1278	430
224.1199	17
225.128	78
238.1362	25
253.1587	950
271.1704	74
