Mass spectrum: Trospium; LC-ESI-QTOF; MS2; 110 V
Name: Trospium
Class: Pharmaceutical
Formula: [C25H30NO3]+
Exact mass: 392.222
SMILES: C1CC[N+]2(C1)C3CCC2CC(C3)OC(=O)C(C4=CC=CC=C4)(C5=CC=CC=C5)O
InChI: InChI=1S/C25H30NO3/c27-24(25(28,19-9-3-1-4-10-19)20-11-5-2-6-12-20)29-23-17-21-13-14-22(18-23)26(21)15-7-8-16-26/h1-6,9-12,21-23,28H,7-8,13-18H2/q+1
Instrument: TripleTOF 6600 SCIEX
Instrument type: LC-ESI-QTOF
Ms type: MS2
Ion mode: POSITIVE
Collision energy: 110
Fragmentation mode: CID
Ionization: ESI
Column name: Zorbax Eclipse Plus C18 2.1 mm x 150 mm, 3.5 um, Agilent
Retention time: 7.411 min
Precursor m/z: 392.222
Precursor type: [M]+
m/z	relative intensity
39.0229	75
41.0381	103
51.0217	147
54.0324	183
55.0528	91
56.0477	79
65.0363	139
67.0521	247
68.0473	175
69.0552	471
70.0631	343
72.0785	183
77.0357	999
80.0462	111
82.0619	83
91.0506	491
93.0655	79
94.0609	143
96.0765	527
97.0843	503
98.0926	143
108.0769	91
110.0921	87
120.0764	79
122.0919	107
138.1234	71
182.1495	79
