Mass spectrum: 4-(Dimethylamino)benzaldehyde; LC-ESI-QTOF; MS2; 40 V
Name: 4-(Dimethylamino)benzaldehyde
Class: Pharmaceutical
Formula: C9H11NO
Exact mass: 149.0841
SMILES: CN(C)C1=CC=C(C=C1)C=O
InChI: InChI=1S/C9H11NO/c1-10(2)9-5-3-8(7-11)4-6-9/h3-7H,1-2H3
Instrument: TripleTOF 5600 SCIEX
Instrument type: LC-ESI-QTOF
Ms type: MS2
Ion mode: POSITIVE
Collision energy: 40
Fragmentation mode: CID
Ionization: ESI
Column name: Zorbax Eclipse Plus C18 2.1 mm x 150 mm, 3.5 um, Agilent
Retention time: 8.87 min
Precursor m/z: 150.0913
Precursor type: [M+H]+
m/z	relative intensity
51.0231	55
65.0384	73
66.0466	49
77.0386	517
78.0465	49
79.0544	226
80.048	13
91.0539	59
92.0496	29
93.0578	14
93.0687	22
94.0649	14
103.0554	26
104.0495	131
105.0572	119
106.0653	665
107.0729	296
118.0647	74
119.0729	19
120.0809	999
121.0881	123
122.0968	112
134.0602	449
135.068	102
150.0914	62
