Mass spectrum: Ioxynil; LC-ESI-QTOF; MS2; 150 V
Name: Ioxynil
Class: Herbicide; Transformation_product
Formula: C7H3I2NO
Exact mass: 370.8304
SMILES: C1=C(C=C(C(=C1I)O)I)C#N
InChI: InChI=1S/C7H3I2NO/c8-5-1-4(3-10)2-6(9)7(5)11/h1-2,11H
Instrument: TripleTOF 6600 SCIEX
Instrument type: LC-ESI-QTOF
Ms type: CID
Ion mode: NEGATIVE
Collision energy: 150
Ionization: ESI
Column name: Zorbax Eclipse Plus C18 2.1 mm x 150 mm, 3.5 um, Agilent
Retention time: 11.026 min
Precursor m/z: 369.8231
Precursor type: [M-H]-
m/z	relative intensity
126.9048	999
