Mass spectrum: Olmesartan; LC-ESI-QTOF; MS2; 60 V
Name: Olmesartan
Class: Pharmaceutical
Formula: C24H26N6O3
Exact mass: 446.2066
SMILES: CCCc1nc(c(n1Cc2ccc(cc2)c3ccccc3c4n[nH]nn4)C(O)=O)C(C)(C)O
InChI: InChI=1S/C24H26N6O3/c1-4-7-19-25-21(24(2,3)33)20(23(31)32)30(19)14-15-10-12-16(13-11-15)17-8-5-6-9-18(17)22-26-28-29-27-22/h5-6,8-13,33H,4,7,14H2,1-3H3,(H,31,32)(H,26,27,28,29)
Instrument: TripleTOF 5600 SCIEX
Instrument type: LC-ESI-QTOF
Ms type: MS2
Ion mode: POSITIVE
Collision energy: 60
Fragmentation mode: CID
Ionization: ESI
Column name: Zorbax Eclipse Plus C18 2.1 mm x 150 mm, 3.5 um, Agilent
Retention time: 7.356 min
Precursor m/z: 447.2139
Precursor type: [M+H]+
m/z	relative intensity
77.0415	15
80.0505	17
115.0529	14
140.0494	49
151.0532	37
152.0614	101
153.0698	246
163.0541	57
164.0603	23
165.069	37
166.0641	25
167.073	35
177.0678	12
177.1014	217
178.0765	535
179.0767	147
180.0806	642
181.0748	11
190.0649	693
191.0724	389
192.068	291
205.0755	240
206.0835	361
207.0912	999
