Mass spectrum: Ganciclovir; LC-ESI-QTOF; MS2; 20 V
Name: Ganciclovir
Class: Pharmaceutical
Formula: C9H13N5O4
Exact mass: 255.0968
SMILES: NC1=NC(=O)c2ncn(COC(CO)CO)c2N1
InChI: InChI=1S/C9H13N5O4/c10-9-12-7-6(8(17)13-9)11-3-14(7)4-18-5(1-15)2-16/h3,5,15-16H,1-2,4H2,(H3,10,12,13,17)
Instrument: TripleTOF 5600 SCIEX
Instrument type: LC-ESI-QTOF
Ms type: CID
Ion mode: POSITIVE
Collision energy: 20
Ionization: ESI
Column name: Zorbax Eclipse Plus C18 2.1 mm x 150 mm, 3.5 um, Agilent
Retention time: 2.235 min
Precursor m/z: 256.104
Precursor type: [M+H]+
m/z	relative intensity
135.0302	49
152.0559	999
256.1037	24
