Mass spectrum: Triclocarban; LC-ESI-QTOF; MS2; 100 V
Name: Triclocarban
Class: Antimicrobial; Personal_care_product; Biocide
Formula: C13H9Cl3N2O
Exact mass: 313.978
SMILES: Clc1ccc(NC(=O)Nc2ccc(Cl)c(Cl)c2)cc1
InChI: InChI=1S/C13H9Cl3N2O/c14-8-1-3-9(4-2-8)17-13(19)18-10-5-6-11(15)12(16)7-10/h1-7H,(H2,17,18,19)
Instrument: TripleTOF 5600 SCIEX
Instrument type: LC-ESI-QTOF
Ms type: MS2
Ion mode: POSITIVE
Collision energy: 100
Fragmentation mode: CID
Ionization: ESI
Column name: Zorbax Eclipse Plus C18 2.1 mm x 150 mm, 3.5 um, Agilent
Retention time: 14.574 min
Precursor m/z: 314.9853
Precursor type: [M+H]+
m/z	relative intensity
64.0369	109
65.0415	788
66.0494	394
72.9857	284
73.0039	36
74.0162	329
75.0246	192
82.9467	64
90.0349	54
91.0424	91
91.0533	45
92.05	650
93.0575	980
98.9991	549
100.0067	302
108.9841	73
110.9966	100
125.0044	82
126.0083	128
127.0174	999
127.04	36
132.9604	164
