Mass spectrum: Benzophenone-3; LC-ESI-QTOF; MS2; 100 V
Name: Benzophenone-3
Class: Personal_care_product
Formula: C14H12O3
Exact mass: 228.0786
SMILES: COc1ccc(c(O)c1)C(=O)c2ccccc2
InChI: InChI=1S/C14H12O3/c1-17-11-7-8-12(13(15)9-11)14(16)10-5-3-2-4-6-10/h2-9,15H,1H3
Instrument: TripleTOF 5600 SCIEX
Instrument type: LC-ESI-QTOF
Ms type: MS2
Ion mode: POSITIVE
Collision energy: 100
Fragmentation mode: CID
Ionization: ESI
Column name: Zorbax Eclipse Plus C18 2.1 mm x 150 mm, 3.5 um, Agilent
Retention time: 13.504 min
Precursor m/z: 229.0859
Precursor type: [M+H]+
m/z	relative intensity
53.0077	97
65.0435	55
69.0011	209
74.0174	51
75.0259	18
77.0419	999
79.0197	32
80.0305	51
86.0178	32
87.026	46
88.0322	41
89.0412	111
108.0208	37
113.0383	74
137.0381	23
139.054	167
150.0523	23
152.0577	32
