Mass spectrum: Enilconazole; LC-ESI-QTOF; MS2; 120 V
Name: Enilconazole
Class: Pharmaceutical; Fungicide
Formula: C14H14Cl2N2O
Exact mass: 296.0483
SMILES: Clc1ccc(C(Cn2ccnc2)OCC=C)c(Cl)c1
InChI: InChI=1S/C14H14Cl2N2O/c1-2-7-19-14(9-18-6-5-17-10-18)12-4-3-11(15)8-13(12)16/h2-6,8,10,14H,1,7,9H2
Instrument: TripleTOF 5600 SCIEX
Instrument type: LC-ESI-QTOF
Ms type: CID
Ion mode: POSITIVE
Collision energy: 120
Ionization: ESI
Column name: Zorbax Eclipse Plus C18 2.1 mm x 150 mm, 3.5 um, Agilent
Retention time: 8.159 min
Precursor m/z: 297.0556
Precursor type: [M+H]+
m/z	relative intensity
54.041	134
69.0479	620
72.9873	351
75.0277	188
77.041	134
81.046	999
89.0406	594
102.046	242
123.0014	161
