Mass spectrum: 10,11-Dihydrocarbamazepine; LC-ESI-QTOF; MS2; 150 V
Name: 10,11-Dihydrocarbamazepine
Class: Pharmaceutical; Metabolite
Formula: C15H14N2O
Exact mass: 238.1106
SMILES: NC(=O)N1c2ccccc2CCc3ccccc13
InChI: InChI=1S/C15H14N2O/c16-15(18)17-13-7-3-1-5-11(13)9-10-12-6-2-4-8-14(12)17/h1-8H,9-10H2,(H2,16,18)
Instrument: TripleTOF 5600 SCIEX
Instrument type: LC-ESI-QTOF
Ms type: MS2
Ion mode: POSITIVE
Collision energy: 150
Fragmentation mode: CID
Ionization: ESI
Column name: Zorbax Eclipse Plus C18 2.1 mm x 150 mm, 3.5 um, Agilent
Retention time: 9.235 min
Precursor m/z: 239.1179
Precursor type: [M+H]+
m/z	relative intensity
44.0226	87
51.0289	532
60.0024	72
61.0267	36
63.0524	43
64.0349	36
65.0429	233
73.0101	123
74.018	999
74.047	43
75.0252	422
76.0321	138
77.0414	269
85.009	160
86.0174	313
87.0236	167
88.0234	51
89.0395	262
91.0557	65
97.0067	72
98.0158	422
99.0231	160
100.0331	36
101.0401	65
102.0458	43
109.005	65
110.0153	182
111.0238	80
113.0382	51
114.0323	29
122.0149	102
125.0381	43
126.0461	109
137.0362	51
139.0539	58
149.0376	36
150.045	240
151.0439	36
151.055	51
152.0504	58
161.0374	51
162.0446	102
163.052	109
164.048	43
188.047	29
189.0583	36
