Mass spectrum: Itraconazole; LC-ESI-QTOF; MS2; 130 V
Name: Itraconazole
Class: Pharmaceutical
Formula: C35H38Cl2N8O4
Exact mass: 704.2393
SMILES: CCC(C)N1C(=O)N(C=N1)C2=CC=C(C=C2)N3CCN(CC3)C4=CC=C(C=C4)OCC5COC(O5)(CN6C=NC=N6)C7=C(C=C(C=C7)Cl)Cl
InChI: InChI=1S/C35H38Cl2N8O4/c1-3-25(2)45-34(46)44(24-40-45)29-7-5-27(6-8-29)41-14-16-42(17-15-41)28-9-11-30(12-10-28)47-19-31-20-48-35(49-31,21-43-23-38-22-39-43)32-13-4-26(36)18-33(32)37/h4-13,18,22-25,31H,3,14-17,19-21H2,1-2H3
Instrument: TripleTOF 5600 SCIEX
Instrument type: LC-ESI-QTOF
Ms type: MS2
Ion mode: POSITIVE
Collision energy: 130
Fragmentation mode: CID
Ionization: ESI
Column name: Zorbax Eclipse Plus C18 2.1 mm x 150 mm, 3.5 um, Agilent
Retention time: 13.565 min
Precursor m/z: 705.2466
Precursor type: [M+H]+
m/z	relative intensity
77.0379	111
89.0377	111
91.0554	222
103.0564	333
104.0484	222
105.0623	111
106.0668	111
115.0569	111
116.0459	111
117.0653	333
118.0656	999
119.0716	444
121.0595	222
123.002	222
128.0523	111
130.0661	555
131.0528	222
132.037	111
134.0563	333
143.0747	111
145.0778	111
146.0693	333
158.0623	222
158.9754	776
160.0675	111
160.0818	111
160.0934	111
161.0578	111
161.0759	222
186.1048	111
