Mass spectrum: N,N-bis(ethoxycarbonyl)-4-methyl-1,3-phenylenediamine; LC-ESI-QTOF; MS2; 30 V
Name: N,N-bis(ethoxycarbonyl)-4-methyl-1,3-phenylenediamine
Class: Pharmaceutical
Formula: C13H18N2O4
Exact mass: 266.1267
SMILES: CCOC(=O)NC1=CC(=C(C=C1)C)NC(=O)OCC
InChI: InChI=1S/C13H18N2O4/c1-4-18-12(16)14-10-7-6-9(3)11(8-10)15-13(17)19-5-2/h6-8H,4-5H2,1-3H3,(H,14,16)(H,15,17)
Instrument: TripleTOF 5600 SCIEX
Instrument type: LC-ESI-QTOF
Ms type: MS2
Ion mode: POSITIVE
Collision energy: 30
Fragmentation mode: CID
Ionization: ESI
Column name: Zorbax Eclipse Plus C18 2.1 mm x 150 mm, 3.5 um, Agilent
Retention time: 10.056 min
Precursor m/z: 267.1339
Precursor type: [M+H]+
m/z	relative intensity
104.0503	10
106.0665	90
120.0447	16
121.0768	108
122.0611	11
132.0456	65
134.0964	21
147.0555	352
149.0713	83
149.1064	10
150.055	85
165.066	46
175.0499	999
178.0863	33
185.07	10
193.0606	639
203.0807	29
206.0918	11
221.0921	137
