Mass spectrum: p-Phenetidine; LC-ESI-QTOF; MS2; 100 V
Name: p-Phenetidine
Formula: C8H11NO
Exact mass: 137.0841
SMILES: CCOC1=CC=C(C=C1)N
InChI: InChI=1S/C8H11NO/c1-2-10-8-5-3-7(9)4-6-8/h3-6H,2,9H2,1H3
Instrument: TripleTOF 6600 SCIEX
Instrument type: LC-ESI-QTOF
Ms type: MS2
Ion mode: POSITIVE
Collision energy: 100
Fragmentation mode: CID
Ionization: ESI
Column name: Zorbax Eclipse Plus C18 2.1 mm x 150 mm, 3.5 um, Agilent
Retention time: 4.84 min
Precursor m/z: 138.0914
Precursor type: [M+H]+
m/z	relative intensity
36.0003	239
37.0083	999
38.0034	49
38.0159	850
39.0238	619
49.0083	239
50.0159	511
51.024	66
52.0191	41
53.0026	33
53.0404	57
59.9999	99
61.0078	569
62.0159	982
63.0234	544
73.0083	57
74.0153	181
80.0514	41
