Mass spectrum: 4-Bromoantipyrine; LC-ESI-QTOF; MS2; 40 V
Name: 4-Bromoantipyrine
Class: Industrial_process
Formula: C11H11BrN2O
Exact mass: 266.0055
SMILES: CC1=C(C(=O)N(N1C)C2=CC=CC=C2)Br
InChI: InChI=1S/C11H11BrN2O/c1-8-10(12)11(15)14(13(8)2)9-6-4-3-5-7-9/h3-7H,1-2H3
Instrument: TripleTOF 6600 SCIEX
Instrument type: LC-ESI-QTOF
Ms type: MS2
Ion mode: POSITIVE
Collision energy: 40
Fragmentation mode: CID
Ionization: ESI
Column name: Zorbax Eclipse Plus C18 2.1 mm x 150 mm, 3.5 um, Agilent
Retention time: 7.678 min
Precursor m/z: 267.0128
Precursor type: [M+H]+
m/z	relative intensity
42.0326	14
54.0328	14
56.0483	670
65.0367	18
68.0479	20
69.0551	18
77.037	86
91.0527	16
92.0484	12
93.0546	12
95.0577	42
103.0382	16
104.0469	50
115.0513	26
117.054	12
118.0624	38
128.0463	24
129.0534	52
130.0622	22
131.0708	12
135.9724	999
142.0619	22
143.0697	14
144.0766	38
145.0734	58
146.0556	20
147.0882	70
156.04	16
158.0427	12
158.056	14
159.0876	58
172.06	14
173.0668	80
173.975	36
175.9657	18
187.0823	124
188.09	159
251.9827	52
267.0071	332
