Mass spectrum: Amitriptyline; LC-ESI-QTOF; MS2; 80 V
Name: Amitriptyline
Class: Pharmaceutical
Formula: C20H23N
Exact mass: 277.183
SMILES: CN(C)CCC=C1C2=CC=CC=C2CCC3=CC=CC=C31
InChI: InChI=1S/C20H23N/c1-21(2)15-7-12-20-18-10-5-3-8-16(18)13-14-17-9-4-6-11-19(17)20/h3-6,8-12H,7,13-15H2,1-2H3
Instrument: TripleTOF 6600 SCIEX
Instrument type: LC-ESI-QTOF
Ms type: MS2
Ion mode: POSITIVE
Collision energy: 80
Fragmentation mode: CID
Ionization: ESI
Column name: Zorbax Eclipse Plus C18 2.1 mm x 150 mm, 3.5 um, Agilent
Retention time: 8.708 min
Precursor m/z: 278.1903
Precursor type: [M+H]+
m/z	relative intensity
39.0231	18
42.0338	11
50.0149	12
51.023	48
58.0653	15
63.0227	15
65.0388	163
77.039	207
79.0539	36
89.0385	29
91.0545	337
102.046	19
103.0539	34
105.0696	14
115.0545	342
116.0616	10
117.0698	16
126.0461	22
127.0542	84
128.0621	199
139.0536	26
141.0697	29
151.0543	42
152.0622	150
153.0701	24
155.0602	14
163.054	23
164.0617	32
165.0703	209
176.0621	86
177.0701	58
178.0779	245
188.062	24
189.0705	533
190.078	66
191.0857	73
200.0623	44
201.0699	89
202.0784	999
203.0856	87
213.0704	22
215.0863	261
216.0935	20
217.1013	16
