Mass spectrum: 3,3`-Dinitrobisphenol A; LC-ESI-QTOF; MS2; 100 V
Name: 3,3`-Dinitrobisphenol A
Class: Transformation_product
Formula: C15H14N2O6
Exact mass: 318.0852
SMILES: CC(C1=CC=C(O)C([N+]([O-])=O)=C1)(C2=CC([N+]([O-])=O)=C(O)C=C2)C
InChI: InChI=1S/C15H14N2O6/c1-15(2,9-3-5-13(18)11(7-9)16(20)21)10-4-6-14(19)12(8-10)17(22)23/h3-8,18-19H,1-2H3
Instrument: TripleTOF 5600 SCIEX
Instrument type: LC-ESI-QTOF
Ms type: MS2
Ion mode: NEGATIVE
Collision energy: 100
Fragmentation mode: CID
Ionization: ESI
Column name: Zorbax Eclipse Plus C18 2.1 mm x 150 mm, 3.5 um, Agilent
Retention time: 13.85 min
Precursor m/z: 317.0779
Precursor type: [M-H]-
m/z	relative intensity
42.0025	116
45.0021	116
45.9966	999
46.0127	64
65.0055	116
88.0321	51
89.0382	90
91.02	64
108.0219	155
113.0401	181
117.0355	155
125.0407	285
126.0466	64
132.0218	51
137.0409	648
138.0471	856
139.055	168
141.0334	77
143.0497	155
151.0554	921
152.0628	155
154.0423	181
164.0519	64
166.0423	116
167.0505	986
168.0536	103
179.0485	194
180.0569	142
182.0366	168
192.042	64
195.0439	207
209.0495	90
212.0367	259
226.0487	77
