Mass spectrum: Warfarin; LC-ESI-QTOF; MS2; 90 V
Name: Warfarin
Class: Pesticide; Biocide; Rodenticide
Formula: C19H16O4
Exact mass: 308.1049
SMILES: CC(=O)CC(C1=CC=CC=C1)C2=C(C3=CC=CC=C3OC2=O)O
InChI: InChI=1S/C19H16O4/c1-12(20)11-15(13-7-3-2-4-8-13)17-18(21)14-9-5-6-10-16(14)23-19(17)22/h2-10,15,21H,11H2,1H3
Instrument: TripleTOF 6600 SCIEX
Instrument type: LC-ESI-QTOF
Ms type: MS2
Ion mode: POSITIVE
Collision energy: 90
Fragmentation mode: CID
Ionization: ESI
Column name: Zorbax Eclipse Plus C18 2.1 mm x 150 mm, 3.5 um, Agilent
Retention time: 11.631 min
Precursor m/z: 309.1122
Precursor type: [M+H]+
m/z	relative intensity
37.0069	38
38.0149	26
39.023	264
43.0179	236
50.0154	38
51.0229	261
53.0021	24
63.0228	21
65.0384	999
68.9969	68
74.0145	18
75.0218	84
76.0299	14
77.0382	908
79.0532	17
89.0379	57
91.0518	54
93.0333	185
95.0483	10
101.0377	40
102.0456	81
103.0533	141
105.0436	32
115.0527	68
121.0276	397
126.0458	21
127.0545	57
128.0619	125
129.0368	44
129.0727	12
131.0489	12
139.0531	25
141.0686	17
150.0455	69
151.0536	176
152.0619	316
153.0707	29
163.0523	21
164.0615	36
165.0687	275
166.0766	10
175.0524	16
176.0622	220
177.0686	62
178.0772	81
205.0631	17
