Mass spectrum: Sildenafil; LC-ESI-QTOF; MS2; 70 V
Name: Sildenafil
Class: Pharmaceutical
Formula: C22H30N6O4S
Exact mass: 474.2049
SMILES: CCCC1=NN(C2=C1NC(=NC2=O)C3=C(C=CC(=C3)S(=O)(=O)N4CCN(CC4)C)OCC)C
InChI: InChI=1S/C22H30N6O4S/c1-5-7-17-19-20(27(4)25-17)22(29)24-21(23-19)16-14-15(8-9-18(16)32-6-2)33(30,31)28-12-10-26(3)11-13-28/h8-9,14H,5-7,10-13H2,1-4H3,(H,23,24,29)
Instrument: TripleTOF 5600 SCIEX
Instrument type: LC-ESI-QTOF
Ms type: MS2
Ion mode: NEGATIVE
Collision energy: 70
Fragmentation mode: CID
Ionization: ESI
Column name: Zorbax Eclipse Plus C18 2.1 mm x 150 mm, 3.5 um, Agilent
Retention time: 7.283 min
Precursor m/z: 473.1976
Precursor type: [M-H]-
m/z	relative intensity
239.0568	72
253.1099	83
281.1043	101
282.1129	999
