Mass spectrum: Amidate; LC-ESI-QTOF; MS2; 120 V
Name: Amidate
Class: Pharmaceutical
Formula: C14H16N2O2
Exact mass: 244.1212
SMILES: CCOC(=O)C1=CN=CN1C(C)C2=CC=CC=C2
InChI: InChI=1S/C14H16N2O2/c1-3-18-14(17)13-9-15-10-16(13)11(2)12-7-5-4-6-8-12/h4-11H,3H2,1-2H3
Instrument: TripleTOF 6600 SCIEX
Instrument type: LC-ESI-QTOF
Ms type: MS2
Ion mode: POSITIVE
Collision energy: 120
Fragmentation mode: CID
Ionization: ESI
Column name: Zorbax Eclipse Plus C18 2.1 mm x 150 mm, 3.5 um, Agilent
Retention time: 8.832 min
Precursor m/z: 245.1285
Precursor type: [M+H]+
m/z	relative intensity
38.0029	15
39.0229	23
40.0185	143
49.0072	98
50.0154	573
51.0233	999
52.018	12
62.0149	11
63.0225	18
67.0289	40
68.0128	34
74.0148	23
75.0224	10
77.0384	290
95.0232	13
