Mass spectrum: Prosulfuron; LC-ESI-QTOF; MS2; 90 V
Name: Prosulfuron
Class: Herbicide
Formula: C15H16F3N5O4S
Exact mass: 419.0875
SMILES: CC1=NC(=NC(=N1)OC)NC(=O)NS(=O)(=O)C2=CC=CC=C2CCC(F)(F)F
InChI: InChI=1S/C15H16F3N5O4S/c1-9-19-12(22-14(20-9)27-2)21-13(24)23-28(25,26)11-6-4-3-5-10(11)7-8-15(16,17)18/h3-6H,7-8H2,1-2H3,(H2,19,20,21,22,23,24)
Instrument: TripleTOF 6600 SCIEX
Instrument type: LC-ESI-QTOF
Ms type: MS2
Ion mode: POSITIVE
Collision energy: 90
Fragmentation mode: CID
Ionization: ESI
Column name: Zorbax Eclipse Plus C18 2.1 mm x 150 mm, 3.5 um, Agilent
Retention time: 11.847 min
Precursor m/z: 420.0948
Precursor type: [M+H]+
m/z	relative intensity
30.0319	12
42.0317	272
43.0272	357
56.0472	188
57.0113	26
57.0425	432
58.0262	269
59.0267	22
62.0118	11
63.0204	38
68.0219	172
69.0059	227
77.0364	21
78.0447	19
82.0374	11
83.0258	556
84.0528	18
85.0369	67
89.0359	61
100.0476	99
109.0423	999
127.0326	11
133.0424	64
141.0743	71
167.055	14
