Mass spectrum: Chlorfenvinfos; LC-ESI-QTOF; MS2; 110 V
Name: Chlorfenvinfos
Class: Insecticide
Formula: C12H14Cl3O4P
Exact mass: 357.9695
SMILES: CCOP(=O)(OCC)OC(=CCl)C1=C(C=C(C=C1)Cl)Cl
InChI: InChI=1S/C12H14Cl3O4P/c1-3-17-20(16,18-4-2)19-12(8-13)10-6-5-9(14)7-11(10)15/h5-8H,3-4H2,1-2H3
Instrument: TripleTOF 6600 SCIEX
Instrument type: LC-ESI-QTOF
Ms type: MS2
Ion mode: POSITIVE
Collision energy: 110
Fragmentation mode: CID
Ionization: ESI
Column name: Zorbax Eclipse Plus C18 2.1 mm x 150 mm, 3.5 um, Agilent
Retention time: 13.629 min
Precursor m/z: 358.9768
Precursor type: [M+H]+
m/z	relative intensity
62.0129	10
62.9609	132
73.0049	19
74.0127	147
75.0207	53
80.9714	543
83.9737	28
84.9818	20
97.0049	44
98.0131	999
98.9849	91
99.0065	45
99.0204	800
100.0287	32
107.973	117
108.981	128
132.9817	51
133.9889	89
134.9967	196
163.0035	57
169.9667	209
