Mass spectrum: 4-Amino-2,6-dimethoxypyrimidine; LC-ESI-QTOF; MS2; 140 V
Name: 4-Amino-2,6-dimethoxypyrimidine
Class: Pharmaceutical
Formula: C6H9N3O2
Exact mass: 155.0695
SMILES: COC1=NC(=NC(=C1)N)OC
InChI: InChI=1S/C6H9N3O2/c1-10-5-3-4(7)8-6(9-5)11-2/h3H,1-2H3,(H2,7,8,9)
Instrument: TripleTOF 5600 SCIEX
Instrument type: LC-ESI-QTOF
Ms type: MS2
Ion mode: POSITIVE
Collision energy: 140
Fragmentation mode: CID
Ionization: ESI
Column name: Zorbax Eclipse Plus C18 2.1 mm x 150 mm, 3.5 um, Agilent
Retention time: 4.656 min
Precursor m/z: 156.0768
Precursor type: [M+H]+
m/z	relative intensity
38.0136	239
39.0273	159
40.0318	679
41.0379	199
43.0421	999
44.0235	239
