Mass spectrum: Diclofenac; LC-ESI-QTOF; MS2; 80 V
Name: Diclofenac
Class: Pharmaceutical
Formula: C14H11Cl2NO2
Exact mass: 295.0167
SMILES: OC(Cc1c(Nc2c(Cl)cccc2Cl)cccc1)=O
InChI: InChI=1S/C14H11Cl2NO2/c15-10-5-3-6-11(16)14(10)17-12-7-2-1-4-9(12)8-13(18)19/h1-7,17H,8H2,(H,18,19)
Instrument: TripleTOF 5600 SCIEX
Instrument type: LC-ESI-QTOF
Ms type: MS2
Ion mode: POSITIVE
Collision energy: 80
Fragmentation mode: CID
Ionization: ESI
Column name: Zorbax Eclipse Plus C18 2.1 mm x 150 mm, 3.5 um, Agilent
Retention time: 12.622 min
Precursor m/z: 296.024
Precursor type: [M+H]+
m/z	relative intensity
77.0418	18
125.0395	33
126.0477	25
127.0539	51
149.0384	22
150.0467	155
151.0542	969
152.0585	211
153.058	37
176.0489	59
177.0573	545
178.0649	802
179.0724	999
180.0799	70
214.0418	969
