Mass spectrum: Drometrizole; LC-ESI-QTOF; MS2; 30 V
Name: Drometrizole
Class: Industrial_process
Formula: C13H11N3O
Exact mass: 225.0902
SMILES: CC1=CC(=C(C=C1)O)N2N=C3C=CC=CC3=N2
InChI: InChI=1S/C13H11N3O/c1-9-6-7-13(17)12(8-9)16-14-10-4-2-3-5-11(10)15-16/h2-8,17H,1H3
Instrument: TripleTOF 5600 SCIEX
Instrument type: LC-ESI-QTOF
Ms type: MS2
Ion mode: POSITIVE
Collision energy: 30
Fragmentation mode: CID
Ionization: ESI
Column name: Zorbax Eclipse Plus C18 2.1 mm x 150 mm, 3.5 um, Agilent
Retention time: 15.201 min
Precursor m/z: 226.0975
Precursor type: [M+H]+
m/z	relative intensity
65.046	32
77.0441	301
79.0593	497
92.0537	46
106.0546	16
107.0518	935
120.0571	999
128.0646	30
129.0701	12
130.0655	12
143.0863	19
152.0617	21
153.0713	18
154.0665	88
155.0732	89
165.0573	15
168.0807	21
170.0964	27
179.0744	14
180.0817	75
181.0788	26
181.0929	13
182.0643	15
182.0833	42
183.0692	374
196.0776	14
197.0824	55
198.1017	20
226.0976	532
