Mass spectrum: 2,6-Dimethylpyridine; LC-ESI-QTOF; MS2; 30 V
Name: 2,6-Dimethylpyridine
Formula: C7H9N
Exact mass: 107.0735
SMILES: CC1=NC(=CC=C1)C
InChI: InChI=1S/C7H9N/c1-6-4-3-5-7(2)8-6/h3-5H,1-2H3
Instrument: TripleTOF 6600 SCIEX
Instrument type: LC-ESI-QTOF
Ms type: MS2
Ion mode: POSITIVE
Collision energy: 30
Fragmentation mode: CID
Ionization: ESI
Column name: Zorbax Eclipse Plus C18 2.1 mm x 150 mm, 3.5 um, Agilent
Retention time: 2.395 min
Precursor m/z: 108.0808
Precursor type: [M+H]+
m/z	relative intensity
39.0223	48
41.0381	121
42.0335	20
65.0379	244
66.0454	24
67.0536	224
79.0534	22
80.049	17
92.0488	197
93.0563	151
106.064	36
107.072	186
108.0799	999
