Mass spectrum: Topramezone; LC-ESI-QTOF; MS2; 30 V
Name: Topramezone
Class: Herbicide
Formula: C16H17N3O5S
Exact mass: 363.0889
SMILES: CC1=C(C=CC(=C1C2=NOCC2)S(=O)(=O)C)C(=O)C3=CNN(C3=O)C
InChI: InChI=1S/C16H17N3O5S/c1-9-10(15(20)11-8-17-19(2)16(11)21)4-5-13(25(3,22)23)14(9)12-6-7-24-18-12/h4-5,8,17H,6-7H2,1-3H3
Instrument: TripleTOF 6600 SCIEX
Instrument type: LC-ESI-QTOF
Ms type: MS2
Ion mode: NEGATIVE
Collision energy: 30
Fragmentation mode: CID
Ionization: ESI
Column name: Zorbax Eclipse Plus C18 2.1 mm x 150 mm, 3.5 um, Agilent
Retention time: 6.915 min
Precursor m/z: 362.0816
Precursor type: [M-H]-
m/z	relative intensity
97.0416	11
130.0661	32
180.0259	10
194.0282	133
239.0708	59
240.08	26
254.0585	15
254.0881	11
255.0632	12
282.0891	10
318.0545	500
332.0686	41
334.05	999
362.0796	808
