Mass spectrum: Carbadox; LC-ESI-QTOF; MS2; 140 V
Name: Carbadox
Class: Antimicrobial; Pharmaceutical
Formula: C11H10N4O4
Exact mass: 262.0702
SMILES: COC(=O)N=NC=C1C=[N+]([O-])c2ccccc2N1O
InChI: InChI=1S/C11H10N4O4/c1-19-11(16)13-12-6-8-7-14(17)9-4-2-3-5-10(9)15(8)18/h2-7,18H,1H3
Instrument: TripleTOF 5600 SCIEX
Instrument type: LC-ESI-QTOF
Ms type: MS2
Ion mode: POSITIVE
Collision energy: 140
Fragmentation mode: CID
Ionization: ESI
Column name: Zorbax Eclipse Plus C18 2.1 mm x 150 mm, 3.5 um, Agilent
Retention time: 5.823 min
Precursor m/z: 263.0775
Precursor type: [M+H]+
m/z	relative intensity
49.0259	33
52.0231	44
60.0061	22
62.0457	22
73.0108	101
74.0181	999
75.0223	392
76.0209	269
99.0124	44
100.0178	28
