Mass spectrum: 3-Hydroxycarbamazepine; LC-ESI-QTOF; MS2; 150 V
Name: 3-Hydroxycarbamazepine
Class: Pharmaceutical
Formula: C15H12N2O2
Exact mass: 252.0899
SMILES: NC(=O)N1c2ccccc2C=Cc3ccc(O)cc13
InChI: InChI=1S/C15H12N2O2/c16-15(19)17-13-4-2-1-3-10(13)5-6-11-7-8-12(18)9-14(11)17/h1-9,18H,(H2,16,19)
Instrument: TripleTOF 5600 SCIEX
Instrument type: LC-ESI-QTOF
Ms type: MS2
Ion mode: NEGATIVE
Collision energy: 150
Fragmentation mode: CID
Ionization: ESI
Column name: Zorbax Eclipse Plus C18 2.1 mm x 150 mm, 3.5 um, Agilent
Retention time: 7.917 min
Precursor m/z: 251.0826
Precursor type: [M-H]-
m/z	relative intensity
40.0216	166
41.0057	666
41.0131	666
41.0277	166
42.0024	999
42.0095	166
42.0174	333
50.0055	166
65.0179	166
66.0004	333
66.0149	166
73.0121	333
74.0055	166
