Mass spectrum: Diclofenac; LC-ESI-QTOF; MS2; 120 V
Name: Diclofenac
Class: Pharmaceutical
Formula: C14H11Cl2NO2
Exact mass: 295.0167
SMILES: OC(Cc1c(Nc2c(Cl)cccc2Cl)cccc1)=O
InChI: InChI=1S/C14H11Cl2NO2/c15-10-5-3-6-11(16)14(10)17-12-7-2-1-4-9(12)8-13(18)19/h1-7,17H,8H2,(H,18,19)
Instrument: TripleTOF 5600 SCIEX
Instrument type: LC-ESI-QTOF
Ms type: MS2
Ion mode: POSITIVE
Collision energy: 120
Fragmentation mode: CID
Ionization: ESI
Column name: Zorbax Eclipse Plus C18 2.1 mm x 150 mm, 3.5 um, Agilent
Retention time: 12.622 min
Precursor m/z: 296.024
Precursor type: [M+H]+
m/z	relative intensity
74.0174	51
75.0256	92
76.0347	28
77.0405	202
98.0155	69
99.0243	69
100.028	28
101.0401	40
102.0473	57
123.0245	28
124.0332	28
125.0395	144
126.0476	161
127.0544	51
139.0524	28
140.0503	34
149.0396	132
150.0465	999
151.0536	617
152.0555	196
153.0571	63
175.0387	51
176.0496	121
177.0578	363
177.0744	23
178.0659	202
