Mass spectrum: Oxycodone; LC-ESI-QTOF; MS2; 110 V
Name: Oxycodone
Class: Pharmaceutical
Formula: C18H21NO4
Exact mass: 315.1471
SMILES: CN1CCC23C4C(=O)CCC2(C1CC5=C3C(=C(C=C5)OC)O4)O
InChI: InChI=1S/C18H21NO4/c1-19-8-7-17-14-10-3-4-12(22-2)15(14)23-16(17)11(20)5-6-18(17,21)13(19)9-10/h3-4,13,16,21H,5-9H2,1-2H3
Instrument: TripleTOF 6600 SCIEX
Instrument type: LC-ESI-QTOF
Ms type: MS2
Ion mode: POSITIVE
Collision energy: 110
Fragmentation mode: CID
Ionization: ESI
Column name: Zorbax Eclipse Plus C18 2.1 mm x 150 mm, 3.5 um, Agilent
Retention time: 5.206 min
Precursor m/z: 316.1543
Precursor type: [M+H]+
m/z	relative intensity
39.0221	35
42.0334	36
44.0486	16
50.0137	21
51.0219	80
52.0296	14
61.0052	17
62.0137	31
63.0212	77
65.0378	110
74.0135	58
75.022	84
76.0296	68
77.0373	526
78.0449	151
79.0529	12
80.0473	13
86.0135	15
87.0214	25
88.0286	33
89.0373	304
90.0454	32
91.0529	100
94.0641	14
99.0225	15
101.037	102
102.0449	319
103.0522	154
113.0367	117
114.0446	85
115.0528	999
116.0491	35
116.059	22
117.0553	64
118.0404	18
125.0367	47
126.0444	289
127.0527	751
128.0603	671
129.0426	29
129.0669	44
130.0641	42
131.0487	117
131.0717	16
137.0365	11
138.0448	25
139.0527	644
140.0489	248
141.0681	196
142.0635	63
143.0712	36
144.0803	13
145.064	12
150.0449	122
151.0526	320
152.0606	702
153.0564	458
154.0638	524
155.0568	187
156.0542	13
156.0775	14
157.0578	10
162.044	10
163.0539	84
164.0601	101
165.0686	183
166.0634	439
167.0715	496
168.0791	711
169.0849	44
170.095	14
176.0596	62
177.0597	35
178.066	97
179.0715	56
180.079	170
181.0606	23
181.0861	91
182.0598	82
182.0957	32
183.0419	12
184.0704	11
188.0558	10
189.066	18
190.0632	32
191.0726	49
192.0807	42
193.0895	13
194.0951	13
195.0679	11
196.0738	79
197.0564	13
203.0715	15
204.0801	14
210.055	15
220.0781	11
