Mass spectrum: 4-Desmethyl-trimethoprim; LC-ESI-QTOF; MS2; 60 V
Name: 4-Desmethyl-trimethoprim
Class: Pharmaceutical
Formula: C13H16N4O3
Exact mass: 276.1222
SMILES: COC1=CC(=CC(=C1O)OC)CC2=CN=C(N=C2N)N
InChI: InChI=1S/C13H16N4O3/c1-19-9-4-7(5-10(20-2)11(9)18)3-8-6-16-13(15)17-12(8)14/h4-6,18H,3H2,1-2H3,(H4,14,15,16,17)
Instrument: TripleTOF 5600 SCIEX
Instrument type: LC-ESI-QTOF
Ms type: MS2
Ion mode: POSITIVE
Collision energy: 60
Fragmentation mode: CID
Ionization: ESI
Column name: Zorbax Eclipse Plus C18 2.1 mm x 150 mm, 3.5 um, Agilent
Retention time: 4.783 min
Precursor m/z: 277.1295
Precursor type: [M+H]+
m/z	relative intensity
43.0429	22
52.0253	13
54.0399	82
68.0408	30
68.0507	11
77.0409	68
78.0476	15
78.0588	9
79.0324	17
79.0555	15
80.0517	13
81.0473	744
83.0511	24
89.0382	13
91.0562	21
92.0511	13
93.0347	11
94.0669	15
96.055	13
101.0405	13
102.0444	13
103.0547	34
104.0489	47
105.0396	21
106.0397	65
106.0641	21
107.0556	30
109.0503	32
110.0592	126
111.0669	26
116.0481	44
117.0593	15
118.0625	15
119.0596	51
120.0553	11
121.0776	40
122.0588	15
123.0445	26
123.0664	999
124.0732	82
128.049	65
128.0659	11
129.0447	21
129.0582	13
130.067	17
131.0587	63
132.0478	40
132.0666	13
133.0595	17
135.0656	28
141.0448	13
143.0596	28
144.0501	40
144.0706	17
145.0759	55
146.0395	11
146.07	97
147.0656	153
148.04	17
148.0739	327
149.0219	26
149.041	9
149.0793	95
149.0928	15
151.0387	42
153.0484	22
156.0484	53
157.0632	13
158.0698	24
159.0575	22
159.0727	21
160.0379	17
160.0714	15
160.0854	30
161.0814	107
163.0963	51
167.0742	13
170.072	107
171.054	15
172.0379	36
172.0751	30
173.0801	66
174.066	42
175.0612	22
175.0961	40
175.1169	9
176.0683	13
183.0636	15
185.0824	44
186.0655	32
187.0979	218
188.0789	11
189.0701	28
189.1127	17
191.0936	32
197.0632	13
197.0829	17
198.0639	24
200.069	19
201.076	30
203.0932	42
213.0752	13
215.0912	40
217.1085	17
219.0868	248
229.0697	26
230.0803	22
231.0876	97
233.1034	13
243.0871	11
245.1048	11
259.0824	63
261.0968	160
