Mass spectrum: Dinoterb; LC-ESI-QTOF; MS2; 40 V
Name: Dinoterb
Class: Herbicide
Formula: C10H12N2O5
Exact mass: 240.0746
SMILES: CC(C)(C)C1=C(C(=CC(=C1)[N+](=O)[O-])[N+](=O)[O-])O
InChI: InChI=1S/C10H12N2O5/c1-10(2,3)7-4-6(11(14)15)5-8(9(7)13)12(16)17/h4-5,13H,1-3H3
Instrument: TripleTOF 6600 SCIEX
Instrument type: LC-ESI-QTOF
Ms type: MS2
Ion mode: NEGATIVE
Collision energy: 40
Fragmentation mode: CID
Ionization: ESI
Column name: Zorbax Eclipse Plus C18 2.1 mm x 150 mm, 3.5 um, Agilent
Retention time: 13.854 min
Precursor m/z: 239.0673
Precursor type: [M-H]-
m/z	relative intensity
45.9916	26
107.0839	15
123.0297	61
136.05	25
148.0374	27
149.0458	115
150.0532	71
151.024	17
151.0737	92
162.0167	46
164.0683	76
176.0326	198
177.0402	318
178.0477	82
179.068	33
192.0639	12
193.0711	14
194.0425	50
207.0385	999
208.0573	23
209.0643	14
223.0317	11
224.0403	11
239.0635	121
