Mass spectrum: Flufenacet; LC-ESI-QTOF; MS2; 80 V
Name: Flufenacet
Class: Herbicide
Formula: C14H13F4N3O2S
Exact mass: 363.0665
SMILES: CC(C)N(C1=CC=C(C=C1)F)C(=O)COC2=NN=C(S2)C(F)(F)F
InChI: InChI=1S/C14H13F4N3O2S/c1-8(2)21(10-5-3-9(15)4-6-10)11(22)7-23-13-20-19-12(24-13)14(16,17)18/h3-6,8H,7H2,1-2H3
Instrument: TripleTOF 6600 SCIEX
Instrument type: LC-ESI-QTOF
Ms type: MS2
Ion mode: POSITIVE
Collision energy: 80
Fragmentation mode: CID
Ionization: ESI
Column name: Zorbax Eclipse Plus C18 2.1 mm x 150 mm, 3.5 um, Agilent
Retention time: 13.345 min
Precursor m/z: 364.0738
Precursor type: [M+H]+
m/z	relative intensity
39.0226	12
41.0386	22
50.0147	24
51.0228	96
57.0133	48
59.0289	15
63.0228	17
74.015	44
75.0229	182
76.0177	13
77.0389	815
78.0339	38
81.0133	11
83.0293	356
84.0365	10
89.0383	26
95.0295	562
96.0365	277
97.0451	868
98.0396	16
104.0494	122
105.0446	20
107.0289	139
108.0367	15
109.0449	613
110.0399	39
110.0524	11
111.0478	21
112.0551	14
115.0544	25
122.04	61
123.0299	311
124.0561	999
133.0446	19
134.0401	59
135.0479	39
136.0557	94
137.0634	21
151.0423	23
152.051	16
152.0872	19
