Mass spectrum: 1-Oxo-ibuprofen; LC-ESI-QTOF; MS2; 20 V
Name: 1-Oxo-ibuprofen
Class: Pharmaceutical; Transformation_product
Formula: C13H16O3
Exact mass: 220.1099
SMILES: CC(C)C(=O)C1=CC=C(C=C1)C(C)C(=O)O
InChI: InChI=1S/C13H16O3/c1-8(2)12(14)11-6-4-10(5-7-11)9(3)13(15)16/h4-9H,1-3H3,(H,15,16)
Instrument: TripleTOF 5600 SCIEX
Instrument type: LC-ESI-QTOF
Ms type: MS2
Ion mode: POSITIVE
Collision energy: 20
Fragmentation mode: CID
Ionization: ESI
Column name: Zorbax Eclipse Plus C18 2.1 mm x 150 mm, 3.5 um, Agilent
Retention time: 10.239 min
Precursor m/z: 221.1172
Precursor type: [M+H]+
m/z	relative intensity
43.0249	11
57.0763	42
69.0734	15
71.0525	16
83.0878	27
105.0709	39
107.086	31
109.0644	12
109.1013	61
111.081	91
119.0863	20
121.0647	51
121.1008	14
123.0806	21
123.1171	10
133.1018	469
134.1086	13
135.081	16
135.1163	11
137.0963	107
147.1165	10
151.0762	11
151.1109	23
153.0911	70
157.1015	15
165.0909	89
175.1126	999
175.1443	43
203.1441	22
221.119	61
