Mass spectrum: Methylecgonidine; LC-ESI-QTOF; MS2; 50 V
Name: Methylecgonidine
Class: Metabolite
Formula: C10H15NO2
Exact mass: 181.1103
SMILES: CN1C2CCC1C(=CC2)C(=O)OC
InChI: InChI=1S/C10H15NO2/c1-11-7-3-5-8(10(12)13-2)9(11)6-4-7/h5,7,9H,3-4,6H2,1-2H3
Instrument: TripleTOF 6600 SCIEX
Instrument type: LC-ESI-QTOF
Ms type: MS2
Ion mode: POSITIVE
Collision energy: 50
Fragmentation mode: CID
Ionization: ESI
Column name: Zorbax Eclipse Plus C18 2.1 mm x 150 mm, 3.5 um, Agilent
Retention time: 4.43 min
Precursor m/z: 182.1176
Precursor type: [M+H]+
m/z	relative intensity
39.0229	182
41.0386	88
42.0337	135
44.0494	46
51.0232	55
53.0381	76
55.0544	21
56.0492	63
57.0579	46
59.013	33
63.0217	21
65.0385	723
66.0458	33
67.0416	25
67.0538	50
68.0495	29
77.0383	351
78.0458	29
79.0537	143
80.0497	50
81.0568	21
81.0697	59
82.0651	59
89.038	156
90.0462	486
91.0541	999
92.0483	29
92.0573	16
93.0344	21
93.0564	21
93.0694	29
94.0651	67
105.0697	16
106.0643	224
107.0728	169
118.041	118
120.0804	55
122.095	42
