Mass spectrum: Emtricitabine; LC-ESI-QTOF; MS2; 90 V
Name: Emtricitabine
Class: Pharmaceutical
Formula: C8H10FN3O3S
Exact mass: 247.0427
InChI: InChI=1S/C8H10FN3O3S/c9-4-1-12(8(14)11-7(4)10)5-3-16-6(2-13)15-5/h1,5-6,13H,2-3H2,(H2,10,11,14)/t5-,6+/m0/s1
Instrument: TripleTOF 5600 SCIEX
Instrument type: LC-ESI-QTOF
Ms type: CID
Ion mode: POSITIVE
Collision energy: 90
Ionization: ESI
Column name: Zorbax Eclipse Plus C18 2.1 mm x 150 mm, 3.5 um, Agilent
Retention time: 4.801 min
Precursor m/z: 248.05
Precursor type: [M+H]+
m/z	relative intensity
45.0018	67
47.0002	134
58.0144	999
60.0314	86
67.0324	48
73.0142	105
85.022	297
87.0371	76
112.0316	67
113.0148	326
113.0323	57
