Mass spectrum: Ethyl-N-(3-amino-2-methylphenyl)carbamate; LC-ESI-QTOF; MS2; 60 V
Name: Ethyl-N-(3-amino-2-methylphenyl)carbamate
Class: Industrial_process
Formula: C10H14N2O2
Exact mass: 194.1055
SMILES: CCOC(=O)NC1=CC=CC(=C1C)N
InChI: InChI=1S/C10H14N2O2/c1-3-14-10(13)12-9-6-4-5-8(11)7(9)2/h4-6H,3,11H2,1-2H3,(H,12,13)
Instrument: TripleTOF 5600 SCIEX
Instrument type: LC-ESI-QTOF
Ms type: MS2
Ion mode: POSITIVE
Collision energy: 60
Fragmentation mode: CID
Ionization: ESI
Column name: Zorbax Eclipse Plus C18 2.1 mm x 150 mm, 3.5 um, Agilent
Retention time: 5.082 min
Precursor m/z: 195.1128
Precursor type: [M+H]+
m/z	relative intensity
54.0443	13
64.0388	10
65.0455	32
66.0522	29
67.0479	30
67.0597	15
77.0443	999
78.0376	82
79.0591	415
80.0543	194
81.0619	122
82.0584	12
89.0403	10
91.0478	38
92.0536	13
93.0612	38
94.0687	93
104.0511	60
105.0468	92
106.0662	286
107.0627	98
108.0695	305
109.0528	13
118.0686	9
121.0772	64
134.0488	78
