Mass spectrum: 4-Bromoantipyrine; LC-ESI-QTOF; MS2; 70 V
Name: 4-Bromoantipyrine
Class: Industrial_process
Formula: C11H11BrN2O
Exact mass: 266.0055
SMILES: CC1=C(C(=O)N(N1C)C2=CC=CC=C2)Br
InChI: InChI=1S/C11H11BrN2O/c1-8-10(12)11(15)14(13(8)2)9-6-4-3-5-7-9/h3-7H,1-2H3
Instrument: TripleTOF 6600 SCIEX
Instrument type: LC-ESI-QTOF
Ms type: MS2
Ion mode: POSITIVE
Collision energy: 70
Fragmentation mode: CID
Ionization: ESI
Column name: Zorbax Eclipse Plus C18 2.1 mm x 150 mm, 3.5 um, Agilent
Retention time: 7.678 min
Precursor m/z: 267.0128
Precursor type: [M+H]+
m/z	relative intensity
39.0223	40
42.033	114
50.0135	28
51.0219	132
54.0332	68
56.0482	999
65.0368	114
68.0475	28
77.0365	476
89.0371	28
91.0515	51
92.0469	40
102.0436	57
103.0509	40
104.0468	63
104.9307	51
106.0631	22
115.051	114
117.0537	68
118.0628	34
128.0468	57
130.0619	57
132.0634	34
135.9716	177
147.0873	28
