Mass spectrum: Ketoconazole; LC-ESI-QTOF; MS2; 120 V
Name: Ketoconazole
Class: Fungicide; Pharmaceutical
Formula: C26H28Cl2N4O4
Exact mass: 530.1488
SMILES: CC(=O)N1CCN(CC1)C2=CC=C(C=C2)OCC3COC(O3)(CN4C=CN=C4)C5=C(C=C(C=C5)Cl)Cl
InChI: InChI=1S/C26H28Cl2N4O4/c1-19(33)31-10-12-32(13-11-31)21-3-5-22(6-4-21)34-15-23-16-35-26(36-23,17-30-9-8-29-18-30)24-7-2-20(27)14-25(24)28/h2-9,14,18,23H,10-13,15-17H2,1H3
Instrument: TripleTOF 5600 SCIEX
Instrument type: LC-ESI-QTOF
Ms type: MS2
Ion mode: POSITIVE
Collision energy: 120
Fragmentation mode: CID
Ionization: ESI
Column name: Zorbax Eclipse Plus C18 2.1 mm x 150 mm, 3.5 um, Agilent
Retention time: 7.94 min
Precursor m/z: 531.156
Precursor type: [M+H]+
m/z	relative intensity
42.0486	13
43.0326	29
54.043	74
55.0502	10
56.0577	34
65.0448	79
68.0448	18
69.0522	69
70.0711	61
71.0666	23
72.9872	10
74.0211	13
77.0432	199
79.0585	61
80.056	26
81.049	999
82.0569	300
89.0425	66
90.0489	15
91.0567	87
93.0361	111
93.0566	13
94.0436	42
94.067	18
95.0548	26
98.016	15
99.0021	23
99.0241	58
102.0497	29
103.0558	122
104.0496	13
104.0555	15
105.0714	18
106.0662	37
107.0514	45
108.9846	53
109.0425	26
110.9988	18
112.0766	39
115.0546	178
116.0633	37
117.059	98
118.0659	55
119.0752	29
120.0447	231
120.0822	37
121.051	37
122.0603	98
122.9999	332
124.0087	47
125.0127	13
127.051	204
128.0511	13
128.0628	34
129.0728	10
130.0658	111
131.05	63
131.0736	34
132.0575	15
132.9571	26
133.0525	23
134.0606	45
134.9992	55
136.0072	82
136.0738	50
141.0583	15
143.0742	26
144.079	37
144.9611	103
145.9717	23
146.0596	47
146.0942	23
148.0761	13
149.0128	58
150.0246	18
154.0638	13
156.0743	29
157.9666	50
158.0595	34
158.0901	18
158.9762	321
159.0652	31
160.0741	18
169.9676	217
170.976	26
172.0726	18
172.9569	111
174.0899	18
184.0718	21
203.0388	29
204.0141	15
204.0444	13
237.0013	15
252.9901	13
