Mass spectrum: Fluazifop; LC-ESI-QTOF; MS2; 80 V
Name: Fluazifop
Class: Herbicide; Transformation_product
Formula: C15H12F3NO4
Exact mass: 327.0718
SMILES: CC(C(=O)O)Oc1ccc(cc1)Oc2ccc(cn2)C(F)(F)F
InChI: InChI=1S/C15H12F3NO4/c1-9(14(20)21)22-11-3-5-12(6-4-11)23-13-7-2-10(8-19-13)15(16,17)18/h2-9H,1H3,(H,20,21)
Instrument: TripleTOF 6600 SCIEX
Instrument type: LC-ESI-QTOF
Ms type: MS2
Ion mode: POSITIVE
Collision energy: 80
Fragmentation mode: CID
Ionization: ESI
Column name: Zorbax Eclipse Plus C18 2.1 mm x 150 mm, 3.5 um, Agilent
Retention time: 11.668 min
Precursor m/z: 328.0791
Precursor type: [M+H]+
m/z	relative intensity
37.0083	51
38.0159	48
39.0236	270
41.0387	21
43.0173	12
49.0084	15
50.0158	97
51.005	39
51.0233	170
52.0182	18
53.0392	51
55.0182	39
57.0135	30
61.0078	33
62.0151	66
63.0231	449
64.0311	188
65.039	999
66.047	54
68.995	121
70.0216	72
73.008	15
74.0146	97
75.0047	491
75.0227	167
76.019	103
77.0255	24
77.039	400
78.0339	276
79.0535	30
80.0056	18
81.0335	106
82.0073	12
82.0422	15
83.0296	18
87.0225	27
88.0149	27
88.0303	42
89.0393	57
90.0473	15
91.0542	315
92.0263	78
92.9954	15
93.0334	57
94.0407	97
95.0298	18
96.0252	63
97.0325	109
99.0043	200
99.023	18
100.0118	282
101.0194	57
101.0387	36
102.0469	91
103.0542	270
104.0126	12
104.0495	36
105.0429	36
106.0219	12
107.0161	88
107.0304	27
108.0202	15
109.029	30
110.0365	72
113.0213	27
113.0382	133
114.0332	21
114.0465	215
115.0407	30
115.0518	51
116.03	21
116.05	33
117.0149	18
117.0572	39
119.0101	94
119.0365	57
120.0188	112
120.0436	42
121.0384	36
123.0222	78
124.0186	33
125.0381	18
126.015	868
127.0228	607
128.031	18
128.0495	139
129.043	12
129.0579	100
130.0407	27
130.0652	179
131.0302	27
131.0489	525
132.0396	72
133.0451	188
134.0399	42
135.0281	15
135.0477	15
137.0201	39
138.0298	21
139.0431	24
139.0538	39
140.0309	30
140.0492	352
141.0571	452
142.0403	57
143.0307	130
144.023	39
144.0403	15
145.0276	15
145.0422	21
146.0211	813
147.029	403
148.0363	33
148.055	33
149.0391	33
150.0329	63
151.035	385
152.0291	24
152.0437	51
153.0389	27
154.0651	15
156.0449	42
157.0277	24
157.0524	72
158.0397	136
158.0604	69
159.0481	103
160.0367	39
160.0554	33
161.0184	18
162.0273	39
163.0362	106
164.0311	188
165.0349	42
166.0453	30
166.0649	39
167.0718	15
168.0443	160
169.051	88
170.0401	78
171.0473	27
172.0366	69
174.0141	15
176.033	24
176.0498	24
177.038	48
177.056	30
178.0468	115
179.0545	21
180.0372	88
181.025	15
181.0479	21
182.0341	60
183.0412	27
184.0389	100
185.0461	142
186.0519	21
187.0419	30
188.0302	39
188.0496	85
189.038	88
190.0462	160
191.0397	27
196.0379	30
197.0439	36
198.0514	279
199.0354	45
200.03	24
206.0422	54
207.0477	30
208.0377	66
208.0578	30
209.044	148
210.0525	48
218.0419	94
225.0404	36
226.047	118
227.0567	33
234.0363	91
235.0605	15
236.0314	115
237.0429	18
238.0457	109
254.0421	239
