Mass spectrum: Prednisone; LC-ESI-QTOF; MS2; 50 V
Name: Prednisone
Class: Pharmaceutical
Formula: C21H26O5
Exact mass: 358.178
SMILES: C[C@]12CC(=O)[C@H]3[C@@H](CCC4=CC(=O)C=C[C@]34C)[C@@H]1CC[C@]2(O)C(=O)CO
InChI: InChI=1S/C21H26O5/c1-19-7-5-13(23)9-12(19)3-4-14-15-6-8-21(26,17(25)11-22)20(15,2)10-16(24)18(14)19/h5,7,9,14-15,18,22,26H,3-4,6,8,10-11H2,1-2H3/t14-,15-,18+,19-,20-,21-/m0/s1
Instrument: TripleTOF 5600 SCIEX
Instrument type: LC-ESI-QTOF
Ms type: MS2
Ion mode: POSITIVE
Collision energy: 50
Fragmentation mode: CID
Ionization: ESI
Column name: Zorbax Eclipse Plus C18 2.1 mm x 150 mm, 3.5 um, Agilent
Retention time: 8.469 min
Precursor m/z: 359.1853
Precursor type: [M+H]+
m/z	relative intensity
43.0245	36
43.0311	26
55.0229	15
55.0587	20
65.0414	10
67.0584	83
69.0365	39
69.0749	18
71.0535	15
77.0413	91
79.0567	158
81.0365	15
81.0726	96
83.0518	18
85.0668	10
91.0556	348
91.0797	13
93.0716	156
95.0498	93
95.0864	127
97.0656	33
99.0448	20
103.0558	31
105.0704	192
107.0501	41
107.0862	184
109.064	114
109.1008	15
111.0439	15
111.0796	23
115.0542	67
116.0618	23
117.0706	119
119.0515	13
119.0855	208
121.0649	372
121.0976	15
123.0798	33
125.0963	10
127.0538	31
128.0625	67
129.0709	93
130.0804	15
131.0476	28
131.086	132
132.0586	72
133.0656	44
133.1007	31
135.0803	148
137.0613	18
137.0975	13
141.0695	161
142.0777	28
143.0859	70
144.0571	91
144.097	15
145.0655	213
145.0999	54
146.0732	117
147.0804	999
152.0634	20
153.0698	104
154.0787	28
155.0853	70
156.0958	13
157.0654	65
157.1035	23
158.0724	231
159.0805	517
160.0884	28
161.0622	18
161.0963	124
163.0771	44
165.0708	93
166.0796	49
167.085	85
168.0577	26
168.0932	10
169.0639	80
169.1015	57
170.0743	52
171.0804	845
172.0892	41
173.0965	299
175.0717	15
177.0694	13
178.0789	85
179.0851	223
180.0939	39
181.0647	106
181.1001	59
182.0727	124
183.0807	195
183.1148	36
184.0891	78
185.0614	26
185.0972	124
186.1061	33
187.0758	83
187.1122	83
189.0703	23
189.0916	44
190.0796	39
191.0855	96
192.0935	44
193.1013	101
194.0727	83
194.1097	41
195.0806	221
195.1174	31
196.089	148
197.0962	239
197.1297	18
198.1039	41
199.1113	91
201.1192	13
202.0765	31
203.0848	59
204.0932	70
205.0675	28
205.1006	75
206.0726	57
206.1092	26
207.0793	148
207.1171	59
208.0886	244
208.11	13
209.0961	301
209.1306	26
210.1038	145
211.0744	13
211.1121	130
212.0806	13
212.1202	72
213.0904	18
213.1262	49
215.0889	54
215.1093	28
216.0923	31
217.1024	26
218.0716	28
218.1096	15
219.0814	88
219.1178	57
220.0887	83
220.1261	13
221.0962	283
221.133	31
222.1042	522
223.0785	13
223.1114	236
224.0812	20
224.1216	62
225.0919	26
225.1275	72
226.1372	20
227.0847	18
227.1095	10
227.1429	57
228.0927	18
229.1005	59
230.1117	20
231.0806	72
231.1166	44
232.0884	59
232.1233	26
233.0949	145
233.1304	13
234.1042	143
235.1125	208
236.1183	57
237.0906	26
237.128	234
238.0987	49
238.1387	59
239.1051	28
239.1455	57
241.1024	10
243.1156	33
244.0894	18
245.0971	85
245.1343	20
246.1051	85
247.1114	176
247.1502	23
248.0867	13
248.1186	163
249.1286	283
250.1384	33
251.1068	13
251.1435	36
252.1507	15
253.1189	23
253.1583	10
255.1362	20
257.0973	26
257.1316	13
258.1058	26
259.1113	28
260.1183	31
261.127	41
262.0996	13
262.1356	75
263.1069	20
263.1427	85
264.119	10
264.1504	28
265.1595	80
267.1385	20
271.1156	13
272.1194	46
275.1106	20
275.1436	26
277.1218	20
277.1612	20
292.1449	33
