Mass spectrum: Lisofylline; LC-ESI-QTOF; MS2; 40 V
Name: Lisofylline
Class: Pharmaceutical; Metabolite
Formula: C13H20N4O3
Exact mass: 280.1535
SMILES: CC(O)CCCCN1C(=O)N(C)c2ncn(C)c2C1=O
InChI: InChI=1S/C13H20N4O3/c1-9(18)6-4-5-7-17-12(19)10-11(14-8-15(10)2)16(3)13(17)20/h8-9,18H,4-7H2,1-3H3
Instrument: TripleTOF 5600 SCIEX
Instrument type: LC-ESI-QTOF
Ms type: MS2
Ion mode: POSITIVE
Collision energy: 40
Fragmentation mode: CID
Ionization: ESI
Column name: Zorbax Eclipse Plus C18 2.1 mm x 150 mm, 3.5 um, Agilent
Retention time: 6.425 min
Precursor m/z: 281.1608
Precursor type: [M+H]+
m/z	relative intensity
42.0436	31
55.0593	52
56.0187	14
56.0541	11
67.0331	46
69.0491	59
81.0479	40
83.0297	12
83.0623	47
95.0632	10
96.058	26
108.0564	112
109.0381	15
110.0715	144
121.0639	28
122.0595	26
122.0723	40
123.0427	18
124.0516	11
132.0558	23
135.0664	66
136.0505	96
137.0833	81
138.0664	398
149.083	21
163.0619	234
165.0775	116
181.0732	999
193.073	807
263.1516	54
