Mass spectrum: Tylosin; LC-ESI-QTOF; MS2; 110 V
Name: Tylosin
Class: Pharmaceutical
Formula: C46H77NO17
Exact mass: 915.5192
SMILES: CCC1C(C=C(C=CC(=O)C(CC(C(C(C(CC(=O)O1)O)C)OC2C(C(C(C(O2)C)OC3CC(C(C(O3)C)O)(C)O)N(C)C)O)CC=O)C)C)COC4C(C(C(C(O4)C)O)OC)OC
InChI: InChI=1S/C46H77NO17/c1-13-33-30(22-58-45-42(57-12)41(56-11)37(52)26(5)60-45)18-23(2)14-15-31(49)24(3)19-29(16-17-48)39(25(4)32(50)20-34(51)62-33)64-44-38(53)36(47(9)10)40(27(6)61-44)63-35-21-46(8,55)43(54)28(7)59-35/h14-15,17-18,24-30,32-33,35-45,50,52-55H,13,16,19-22H2,1-12H3
Instrument: TripleTOF 6600 SCIEX
Instrument type: LC-ESI-QTOF
Ms type: MS2
Ion mode: POSITIVE
Collision energy: 110
Fragmentation mode: CID
Ionization: ESI
Column name: Zorbax Eclipse Plus C18 2.1 mm x 150 mm, 3.5 um, Agilent
Retention time: 8.178 min
Precursor m/z: 916.5264
Precursor type: [M+H]+
m/z	relative intensity
39.0233	46
41.0393	148
43.018	712
45.0345	55
55.0543	101
58.0661	111
59.0492	55
70.0651	46
71.0498	83
72.0818	64
73.0526	296
81.0696	55
83.0494	850
84.0808	64
85.0273	64
86.0605	83
87.0442	157
88.0761	999
98.0962	240
100.0754	148
101.0606	203
101.0859	46
109.0623	46
114.0918	166
115.0989	46
116.0713	286
121.0661	37
126.0912	46
132.1033	37
156.1019	64
174.1122	138
