Mass spectrum: Meptazinol; LC-ESI-QTOF; MS2; 100 V
Name: Meptazinol
Class: Pharmaceutical
Formula: C15H23NO
Exact mass: 233.178
SMILES: CCC1(CCCCN(C1)C)C2=CC(=CC=C2)O
InChI: InChI=1S/C15H23NO/c1-3-15(9-4-5-10-16(2)12-15)13-7-6-8-14(17)11-13/h6-8,11,17H,3-5,9-10,12H2,1-2H3
Instrument: TripleTOF 5600 SCIEX
Instrument type: LC-ESI-QTOF
Ms type: MS2
Ion mode: POSITIVE
Collision energy: 100
Fragmentation mode: CID
Ionization: ESI
Column name: Zorbax Eclipse Plus C18 2.1 mm x 150 mm, 3.5 um, Agilent
Retention time: 5.641 min
Precursor m/z: 234.1852
Precursor type: [M+H]+
m/z	relative intensity
37.0069	12
39.0231	63
41.0383	22
42.0335	20
44.0495	97
49.0077	20
50.0149	104
51.0232	424
53.0384	39
54.0337	10
55.0176	40
55.054	15
62.015	20
63.0227	49
65.0386	83
66.0461	12
67.0553	10
70.0641	27
75.0224	21
77.0387	999
78.0465	27
79.0542	51
81.0336	13
89.0376	47
91.0545	70
94.0405	17
102.0467	27
103.0542	68
107.0491	44
115.0539	114
126.046	11
127.0537	30
128.0604	21
131.0499	29
