Mass spectrum: Sulfadiazine; LC-ESI-QTOF; MS2; 40 V
Name: Sulfadiazine
Class: Antimicrobial; Pharmaceutical
Formula: C10H10N4O2S
Exact mass: 250.0524
InChI: InChI=1S/C10H10N4O2S/c11-8-2-4-9(5-3-8)17(15,16)14-10-12-6-1-7-13-10/h1-7H,11H2,(H,12,13,14)
Instrument: TripleTOF 5600 SCIEX
Instrument type: LC-ESI-QTOF
Ms type: CID
Ion mode: POSITIVE
Collision energy: 40
Ionization: ESI
Column name: Zorbax Eclipse Plus C18 2.1 mm x 150 mm, 3.5 um, Agilent
Retention time: 5.24 min
Precursor m/z: 251.0597
Precursor type: [M+H]+
m/z	relative intensity
65.046	402
66.0408	11
67.0341	10
79.0358	32
80.0543	176
92.0529	999
93.0603	23
94.0437	14
94.0674	53
96.0586	340
108.0459	879
156.0116	376
158.0016	75
168.0551	24
185.0813	55
251.0604	25
