Mass spectrum: Malachite green cation; LC-ESI-QTOF; MS2; 120 V
Name: Malachite green cation
Class: Industrial_process; Pigment
Formula: [C23H25N2]+
Exact mass: 329.2012
SMILES: CN(C)C1=CC=C(C=C1)C(=C2C=CC(=[N+](C)C)C=C2)C3=CC=CC=C3
InChI: InChI=1S/C23H25N2/c1-24(2)21-14-10-19(11-15-21)23(18-8-6-5-7-9-18)20-12-16-22(17-13-20)25(3)4/h5-17H,1-4H3/q+1
Instrument: TripleTOF 5600 SCIEX
Instrument type: LC-ESI-QTOF
Ms type: MS2
Ion mode: POSITIVE
Collision energy: 120
Fragmentation mode: CID
Ionization: ESI
Column name: Zorbax Eclipse Plus C18 2.1 mm x 150 mm, 3.5 um, Agilent
Retention time: 9.29 min
Precursor m/z: 329.2012
Precursor type: [M]+
m/z	relative intensity
115.0536	49
139.0541	115
152.0638	74
163.0537	371
164.0611	222
165.0707	280
187.0522	82
189.0702	132
190.0644	90
200.063	90
201.0689	74
202.0771	123
213.0714	206
215.0846	115
224.0625	123
225.0702	99
226.0785	313
227.0798	82
237.0708	355
238.081	123
239.086	999
253.0886	57
