Mass spectrum: Simvastatin; LC-ESI-QTOF; MS2; 80 V
Name: Simvastatin
Class: Pharmaceutical
Formula: C25H38O5
Exact mass: 418.2719
SMILES: CCC(C)(C)C(=O)O[C@H]1C[C@@H](C)C=C2C=C[C@H](C)[C@H](CC[C@@H]3C[C@@H](O)CC(=O)O3)[C@@H]12
InChI: InChI=1S/C25H38O5/c1-6-25(4,5)24(28)30-21-12-15(2)11-17-8-7-16(3)20(23(17)21)10-9-19-13-18(26)14-22(27)29-19/h7-8,11,15-16,18-21,23,26H,6,9-10,12-14H2,1-5H3/t15-,16-,18+,19+,20-,21-,23-/m0/s1
Instrument: TripleTOF 5600 SCIEX
Instrument type: LC-ESI-QTOF
Ms type: MS2
Ion mode: POSITIVE
Collision energy: 80
Fragmentation mode: CID
Ionization: ESI
Column name: Zorbax Eclipse Plus C18 2.1 mm x 150 mm, 3.5 um, Agilent
Retention time: 15.438 min
Precursor m/z: 419.2792
Precursor type: [M+H]+
m/z	relative intensity
67.0567	54
77.042	201
79.0567	265
81.073	100
91.0563	485
93.0702	119
103.0529	54
105.0697	549
107.0849	64
115.0551	293
116.0621	64
117.0707	174
119.0855	192
127.0542	155
128.0614	870
128.0808	36
129.0696	467
130.0777	146
131.0855	403
133.1006	45
141.0698	421
142.0771	403
143.0855	999
144.0927	137
145.0997	311
152.0634	64
153.0693	256
154.0788	219
155.0848	329
156.093	238
157.1008	284
158.1101	164
159.116	174
165.0703	137
166.0756	73
167.0861	174
168.0931	119
169.101	284
171.1159	91
173.1333	229
178.077	45
179.0834	91
180.0924	54
181.1	137
182.1059	73
183.1167	146
193.1002	82
195.1156	45
197.1346	54
199.1455	45
203.0855	54
210.1402	54
