Mass spectrum: Acridone; LC-ESI-QTOF; MS2; 140 V
Name: Acridone
Class: Metabolite; Pharmaceutical; Transformation_product
Formula: C13H9NO
Exact mass: 195.0684
SMILES: O=C1c2ccccc2Nc3ccccc13
InChI: InChI=1S/C13H9NO/c15-13-9-5-1-3-7-11(9)14-12-8-4-2-6-10(12)13/h1-8H,(H,14,15)
Instrument: TripleTOF 5600 SCIEX
Instrument type: LC-ESI-QTOF
Ms type: MS2
Ion mode: POSITIVE
Collision energy: 140
Fragmentation mode: CID
Ionization: ESI
Column name: Zorbax Eclipse Plus C18 2.1 mm x 150 mm, 3.5 um, Agilent
Retention time: 8.5 min
Precursor m/z: 196.0757
Precursor type: [M+H]+
m/z	relative intensity
52.0238	74
60.0047	229
65.0429	28
73.0112	315
74.0189	999
74.043	34
75.0141	45
75.026	80
76.0228	34
77.043	22
84.0016	132
85.0097	522
86.0174	694
87.0112	22
87.0267	218
87.0471	22
88.0221	28
89.0406	74
97.0097	114
98.0164	246
99.0117	51
107.9994	22
109.009	97
110.0156	97
111.0149	34
113.039	34
