Mass spectrum: Iprovalicarb; LC-ESI-QTOF; MS2; 120 V
Name: Iprovalicarb
Class: Fungicide
Formula: C18H28N2O3
Exact mass: 320.21
SMILES: CC1=CC=C(C=C1)C(C)NC(=O)C(C(C)C)NC(=O)OC(C)C
InChI: InChI=1S/C18H28N2O3/c1-11(2)16(20-18(22)23-12(3)4)17(21)19-14(6)15-9-7-13(5)8-10-15/h7-12,14,16H,1-6H3,(H,19,21)(H,20,22)
Instrument: TripleTOF 6600 SCIEX
Instrument type: LC-ESI-QTOF
Ms type: MS2
Ion mode: POSITIVE
Collision energy: 120
Fragmentation mode: CID
Ionization: ESI
Column name: Zorbax Eclipse Plus C18 2.1 mm x 150 mm, 3.5 um, Agilent
Retention time: 11.936 min
Precursor m/z: 321.2173
Precursor type: [M+H]+
m/z	relative intensity
35.9995	10
37.0075	43
38.0157	40
39.0233	272
41.0386	54
42.0341	21
49.0074	32
50.0151	199
51.023	596
52.0305	29
53.0384	21
55.0544	27
56.0493	32
57.0571	29
61.0073	18
62.0154	45
63.023	121
65.0387	783
74.0152	24
75.0229	29
76.0315	21
77.0387	999
78.0468	326
79.0544	10
89.0385	29
91.0544	607
102.0461	67
103.0545	297
104.0619	70
105.0441	18
115.0545	172
117.0694	27
