Mass spectrum: Metolachlor OA; LC-ESI-QTOF; MS2; 90 V
Name: Metolachlor OA
Class: Herbicide; Transformation_product-Metabolite
Formula: C15H21NO4
Exact mass: 279.1471
SMILES: CCC1=CC=CC(=C1N(C(C)COC)C(=O)C(=O)O)C
InChI: InChI=1S/C15H21NO4/c1-5-12-8-6-7-10(2)13(12)16(11(3)9-20-4)14(17)15(18)19/h6-8,11H,5,9H2,1-4H3,(H,18,19)
Instrument: TripleTOF 5600 SCIEX
Instrument type: LC-ESI-QTOF
Ms type: MS2
Ion mode: POSITIVE
Collision energy: 90
Fragmentation mode: CID
Ionization: ESI
Column name: Zorbax Eclipse Plus C18 2.1 mm x 150 mm, 3.5 um, Agilent
Retention time: 9.915 min
Precursor m/z: 280.1543
Precursor type: [M+H]+
m/z	relative intensity
45.0413	111
51.029	74
65.0448	370
77.0423	647
78.0471	129
79.0573	148
91.0548	980
93.0592	92
102.0529	92
103.055	314
115.0552	444
116.0662	74
117.0578	388
118.0653	277
119.0718	111
128.0575	129
130.0645	999
131.0744	129
132.0832	111
142.0706	111
143.074	148
144.0791	185
