Mass spectrum: Diaveridine; LC-ESI-QTOF; MS2; 150 V
Name: Diaveridine
Class: Pharmaceutical
Formula: C13H16N4O2
Exact mass: 260.1273
SMILES: COC1=C(C=C(C=C1)CC2=CN=C(N=C2N)N)OC
InChI: InChI=1S/C13H16N4O2/c1-18-10-4-3-8(6-11(10)19-2)5-9-7-16-13(15)17-12(9)14/h3-4,6-7H,5H2,1-2H3,(H4,14,15,16,17)
Instrument: TripleTOF 5600 SCIEX
Instrument type: LC-ESI-QTOF
Ms type: MS2
Ion mode: POSITIVE
Collision energy: 150
Fragmentation mode: CID
Ionization: ESI
Column name: Zorbax Eclipse Plus C18 2.1 mm x 150 mm, 3.5 um, Agilent
Retention time: 4.966 min
Precursor m/z: 261.1346
Precursor type: [M+H]+
m/z	relative intensity
41.0388	181
43.0408	999
52.0268	885
53.0215	113
54.044	476
64.0374	90
65.0451	272
67.0365	204
68.0408	90
74.021	771
75.028	522
76.024	340
77.0435	908
78.0495	90
79.0341	136
86.0192	113
87.0251	136
88.0231	90
89.0431	567
90.0432	181
99.0105	136
100.0227	136
