Mass spectrum: Metoprolol; LC-ESI-QTOF; MS2; 40 V
Name: Metoprolol
Class: Pharmaceutical
Formula: C15H25NO3
Exact mass: 267.1834
SMILES: CC(C)NCC(COC1=CC=C(C=C1)CCOC)O
InChI: InChI=1S/C15H25NO3/c1-12(2)16-10-14(17)11-19-15-6-4-13(5-7-15)8-9-18-3/h4-7,12,14,16-17H,8-11H2,1-3H3
Instrument: TripleTOF 6600 SCIEX
Instrument type: LC-ESI-QTOF
Ms type: MS2
Ion mode: POSITIVE
Collision energy: 40
Fragmentation mode: CID
Ionization: ESI
Column name: Zorbax Eclipse Plus C18 2.1 mm x 150 mm, 3.5 um, Agilent
Retention time: 6.14 min
Precursor m/z: 268.1907
Precursor type: [M+H]+
m/z	relative intensity
30.0338	112
39.0221	17
41.0382	57
43.0177	53
43.054	79
44.0491	20
45.033	27
55.0174	20
56.0495	630
57.0333	11
58.0647	88
65.038	10
72.0803	397
74.0597	750
77.0381	254
79.0536	197
84.0804	36
91.0534	414
93.0694	120
98.0959	237
100.1112	56
102.0453	12
103.0536	564
104.0608	15
105.0691	550
107.048	30
107.0844	18
115.0535	125
116.0615	84
116.1064	291
117.0693	63
119.0483	18
119.0847	48
120.0565	31
120.077	12
121.0642	816
128.0608	19
129.0697	94
131.0477	47
131.0849	186
133.0642	999
135.08	116
141.0685	103
144.0562	176
147.0788	88
148.0749	224
149.0608	10
159.0796	371
163.0852	155
165.09	58
169.0743	14
176.106	23
177.089	29
179.1055	10
191.1055	73
268.1899	12
