Mass spectrum: Propyphenazone; LC-ESI-QTOF; MS2; 50 V
Name: Propyphenazone
Class: Pharmaceutical
Formula: C14H18N2O
Exact mass: 230.1419
SMILES: CC1=C(C(=O)N(N1C)C2=CC=CC=C2)C(C)C
InChI: InChI=1S/C14H18N2O/c1-10(2)13-11(3)15(4)16(14(13)17)12-8-6-5-7-9-12/h5-10H,1-4H3
Instrument: TripleTOF 5600 SCIEX
Instrument type: LC-ESI-QTOF
Ms type: MS2
Ion mode: POSITIVE
Collision energy: 50
Fragmentation mode: CID
Ionization: ESI
Column name: Zorbax Eclipse Plus C18 2.1 mm x 150 mm, 3.5 um, Agilent
Retention time: 9.545 min
Precursor m/z: 231.1492
Precursor type: [M+H]+
m/z	relative intensity
39.0228	21
41.0388	21
42.034	31
43.0545	18
44.0497	12
51.023	36
53.0392	19
55.0539	43
56.0497	999
58.0646	45
65.0387	91
67.0422	45
67.0538	24
68.0489	24
70.0285	11
70.0648	25
77.0388	735
78.0459	11
79.0542	72
80.049	76
81.0568	60
81.0689	14
82.0651	302
85.09	9
90.0465	11
91.055	79
92.0498	241
93.0591	50
94.0651	223
95.0623	15
95.0733	79
96.0813	202
97.0897	22
98.06	24
100.1134	14
103.054	46
104.0497	200
105.0328	18
105.0646	29
106.0647	42
108.0448	28
108.0817	12
110.0969	21
112.0742	9
112.1128	33
115.0543	151
116.05	19
116.0614	11
117.0617	186
118.065	285
119.0715	16
120.0451	36
120.0811	106
122.0597	12
123.0933	19
124.0758	58
127.0537	16
128.054	65
129.0607	53
130.0652	284
131.0733	161
132.0797	90
133.0529	31
133.0757	36
134.0953	12
139.0863	28
140.0515	18
142.0633	31
143.0726	113
144.0809	133
145.0764	82
146.0891	116
147.0924	18
156.08	48
157.0846	19
158.0615	9
158.0957	58
159.089	42
160.0997	12
171.0546	39
172.0769	18
173.0715	24
174.0795	26
185.0716	49
186.0792	62
187.0878	16
189.1027	73
201.1022	155
231.146	15
