Mass spectrum: (Methoxycarbonylmethyl)triphenylphosphonium; LC-ESI-QTOF; MS2; 150 V
Name: (Methoxycarbonylmethyl)triphenylphosphonium
Class: Industrial_process
Formula: [C21H20O2P]+
Exact mass: 335.1195
SMILES: COC(=O)C[P+](c1ccccc1)(c2ccccc2)c3ccccc3
InChI: InChI=1S/C21H20O2P/c1-23-21(22)17-24(18-11-5-2-6-12-18,19-13-7-3-8-14-19)20-15-9-4-10-16-20/h2-16H,17H2,1H3/q+1
Instrument: TripleTOF 5600 SCIEX
Instrument type: LC-ESI-QTOF
Ms type: MS2
Ion mode: POSITIVE
Collision energy: 150
Fragmentation mode: CID
Ionization: ESI
Column name: Zorbax Eclipse Plus C18 2.1 mm x 150 mm, 3.5 um, Agilent
Retention time: 7.721 min
Precursor m/z: 335.1195
Precursor type: [M]+
m/z	relative intensity
56.9956	98
65.0426	106
74.0181	151
76.0326	112
77.0412	160
78.0483	65
79.9829	315
80.9906	379
87.0238	114
89.0392	443
98.0151	71
102.0474	207
103.9819	116
107.0047	999
113.0384	164
115.0537	397
125.0404	65
126.0465	498
131.0033	166
133.0177	80
139.0542	328
150.0463	543
151.0538	758
152.0616	752
155.0049	143
156.0121	143
157.0205	416
163.0538	196
165.07	57
179.0049	121
180.0124	190
181.0196	572
224.0624	141
225.0685	51
226.075	90
255.0339	92
