Mass spectrum: 2,3,5-Trimethylpyrazine; LC-ESI-QTOF; MS2; 40 V
Name: 2,3,5-Trimethylpyrazine
Formula: C7H10N2
Exact mass: 122.0844
SMILES: N=1C=C(N=C(C1C)C)C
InChI: InChI=1S/C7H10N2/c1-5-4-8-6(2)7(3)9-5/h4H,1-3H3
Instrument: TripleTOF X500R SCIEX
Instrument type: LC-ESI-QTOF
Ms type: MS2
Ion mode: POSITIVE
Collision energy: 40
Fragmentation mode: CID
Ionization: ESI
Column name: Zorbax Eclipse Plus C18 2.1 mm x 150 mm, 3.5 um, Agilent
Retention time: 5.574 min
Precursor m/z: 123.0917
Precursor type: [M+H]+
m/z	relative intensity
39.023	419
41.0388	305
42.0339	999
53.0383	159
54.0339	89
55.0543	248
56.0492	44
66.0332	57
67.0421	120
77.0372	31
80.0489	178
82.0648	63
94.0649	31
95.0622	31
96.0788	50
107.0606	146
108.0676	101
121.0762	114
122.0846	63
123.0925	222
