Mass spectrum: Sulcotrione; LC-ESI-QTOF; MS2; 60 V
Name: Sulcotrione
Class: Herbicide
Formula: C14H13ClO5S
Exact mass: 328.0172
SMILES: CS(=O)(=O)C1=CC(=C(C=C1)C(=O)C2C(=O)CCCC2=O)Cl
InChI: InChI=1S/C14H13ClO5S/c1-21(19,20)8-5-6-9(10(15)7-8)14(18)13-11(16)3-2-4-12(13)17/h5-7,13H,2-4H2,1H3
Instrument: TripleTOF 6600 SCIEX
Instrument type: LC-ESI-QTOF
Ms type: MS2
Ion mode: NEGATIVE
Collision energy: 60
Fragmentation mode: CID
Ionization: ESI
Column name: Zorbax Eclipse Plus C18 2.1 mm x 150 mm, 3.5 um, Agilent
Retention time: 9.651 min
Precursor m/z: 327.0099
Precursor type: [M-H]-
m/z	relative intensity
34.9683	402
91.0165	39
93.0329	54
114.0461	49
116.0268	24
133.0256	19
139.0551	54
140.0625	104
142.0409	134
144.0186	69
155.0506	29
156.057	29
158.0357	144
159.0434	64
167.0498	34
168.0578	173
169.0281	144
170.0355	581
171.0082	19
182.03	29
183.0438	84
184.0526	124
186.0288	19
197.0265	29
210.0328	104
211.0377	238
212.0462	999
221.0306	59
223.0051	24
227.0334	79
249.0168	24
