Mass spectrum: Dimoxystrobin; LC-ESI-QTOF; MS2; 70 V
Name: Dimoxystrobin
Class: Fungicide
Formula: C19H22N2O3
Exact mass: 326.163
SMILES: CC1=CC(=C(C=C1)C)OCC2=CC=CC=C2C(=NOC)C(=O)NC
InChI: InChI=1S/C19H22N2O3/c1-13-9-10-14(2)17(11-13)24-12-15-7-5-6-8-16(15)18(21-23-4)19(22)20-3/h5-11H,12H2,1-4H3,(H,20,22)
Instrument: TripleTOF 6600 SCIEX
Instrument type: LC-ESI-QTOF
Ms type: MS2
Ion mode: POSITIVE
Collision energy: 70
Fragmentation mode: CID
Ionization: ESI
Column name: Zorbax Eclipse Plus C18 2.1 mm x 150 mm, 3.5 um, Agilent
Retention time: 13.184 min
Precursor m/z: 327.1703
Precursor type: [M+H]+
m/z	relative intensity
39.0241	11
58.0298	590
62.0157	15
63.0238	132
64.0187	11
65.0395	28
77.0389	14
89.0395	999
90.0354	45
90.0459	65
91.0546	26
104.0497	10
115.0423	10
116.0503	682
117.0579	67
128.0491	10
152.0619	12
165.0695	16
178.0779	31
180.0809	32
194.0967	16
