Mass spectrum: Miconazole; LC-ESI-QTOF; MS2; 70 V
Name: Miconazole
Class: Fungicide
Formula: C18H14Cl4N2O
Exact mass: 413.986
SMILES: Clc1ccc(COC(Cn2ccnc2)c3ccc(Cl)cc3Cl)c(Cl)c1
InChI: InChI=1S/C18H14Cl4N2O/c19-13-2-1-12(16(21)7-13)10-25-18(9-24-6-5-23-11-24)15-4-3-14(20)8-17(15)22/h1-8,11,18H,9-10H2
Instrument: TripleTOF 5600 SCIEX
Instrument type: LC-ESI-QTOF
Ms type: MS2
Ion mode: POSITIVE
Collision energy: 70
Fragmentation mode: CID
Ionization: ESI
Column name: Zorbax Eclipse Plus C18 2.1 mm x 150 mm, 3.5 um, Agilent
Retention time: 10.658 min
Precursor m/z: 414.9933
Precursor type: [M+H]+
m/z	relative intensity
69.0479	13
89.0399	48
99.0001	30
122.9995	182
124.0066	60
132.96	31
158.9762	999
