Mass spectrum: 3-[(4-Chlorobenzoyl)Amino] propanoic acid; LC-ESI-QTOF; MS2; 60 V
Name: 3-[(4-Chlorobenzoyl)Amino] propanoic acid
Class: Industrial_process
Formula: C10H10ClNO3
Exact mass: 227.0349
SMILES: C1=CC(=CC=C1C(=O)NCCC(=O)O)Cl
InChI: InChI=1S/C10H10ClNO3/c11-8-3-1-7(2-4-8)10(15)12-6-5-9(13)14/h1-4H,5-6H2,(H,12,15)(H,13,14)
Instrument: TripleTOF 5600 SCIEX
Instrument type: LC-ESI-QTOF
Ms type: MS2
Ion mode: POSITIVE
Collision energy: 60
Fragmentation mode: CID
Ionization: ESI
Column name: Zorbax Eclipse Plus C18 2.1 mm x 150 mm, 3.5 um, Agilent
Retention time: 7.557 min
Precursor m/z: 228.0422
Precursor type: [M+H]+
m/z	relative intensity
74.0175	114
75.0261	447
84.9851	25
110.9994	999
111.0271	14
111.0427	22
138.9995	296
