Mass spectrum: Sulfadimethoxine; LC-ESI-QTOF; MS2; 130 V
Name: Sulfadimethoxine
Class: Pharmaceutical
Formula: C12H14N4O4S
Exact mass: 310.0736
SMILES: COC1=NC(=NC(=C1)NS(=O)(=O)C2=CC=C(C=C2)N)OC
InChI: InChI=1S/C12H14N4O4S/c1-19-11-7-10(14-12(15-11)20-2)16-21(17,18)9-5-3-8(13)4-6-9/h3-7H,13H2,1-2H3,(H,14,15,16)
Instrument: TripleTOF 5600 SCIEX
Instrument type: LC-ESI-QTOF
Ms type: MS2
Ion mode: POSITIVE
Collision energy: 130
Fragmentation mode: CID
Ionization: ESI
Column name: Zorbax Eclipse Plus C18 2.1 mm x 150 mm, 3.5 um, Agilent
Retention time: 8.09 min
Precursor m/z: 311.0809
Precursor type: [M+H]+
m/z	relative intensity
35.9987	16
37.0075	135
38.0153	111
39.0234	546
40.0184	78
41.0265	20
42.0336	41
43.029	45
44.0138	28
51.0232	24
52.019	61
53.0144	16
53.0389	250
54.0341	45
57.0456	24
58.0285	24
62.0159	37
63.0232	86
64.0202	32
65.0143	32
65.0256	20
65.039	999
66.0214	45
66.0337	94
66.0466	24
67.0057	37
67.0296	209
68.0136	172
69.0087	106
69.0461	28
69.9932	20
74.0152	20
77.0131	32
77.0365	16
80.05	481
81.0454	24
82.0295	94
91.0412	20
92.0488	98
93.0595	20
108.0449	53
