Mass spectrum: Pethoxamid; LC-ESI-QTOF; MS2; 140 V
Name: Pethoxamid
Class: Herbicide
Formula: C16H22ClNO2
Exact mass: 295.1339
SMILES: CCOCCN(C(=O)CCl)C(=C(C)C)C1=CC=CC=C1
InChI: InChI=1S/C16H22ClNO2/c1-4-20-11-10-18(15(19)12-17)16(13(2)3)14-8-6-5-7-9-14/h5-9H,4,10-12H2,1-3H3
Instrument: TripleTOF 6600 SCIEX
Instrument type: LC-ESI-QTOF
Ms type: MS2
Ion mode: POSITIVE
Collision energy: 140
Fragmentation mode: CID
Ionization: ESI
Column name: Zorbax Eclipse Plus C18 2.1 mm x 150 mm, 3.5 um, Agilent
Retention time: 12.961 min
Precursor m/z: 296.1412
Precursor type: [M+H]+
m/z	relative intensity
37.0071	181
38.015	156
39.0229	999
41.0383	82
48.9836	41
49.0069	49
50.0147	280
51.0224	445
61.0066	156
62.0145	305
63.0223	553
65.0381	809
74.0138	148
75.0221	107
76.0298	57
77.038	272
78.0453	57
86.0139	107
87.0215	49
89.0376	586
91.0525	222
102.0443	99
114.0442	41
115.0527	800
126.0458	66
127.0528	74
128.0615	82
