Mass spectrum: Amido Black 10B; LC-ESI-QTOF; MS2; 90 V
Name: Amido Black 10B
Formula: C22H16N6O9S2
Exact mass: 572.042
SMILES: C1=CC=C(C=C1)N=NC2=C(C3=C(C(=C(C=C3C=C2S(=O)(=O)O)S(=O)(=O)O)N=NC4=CC=C(C=C4)[N+](=O)[O-])N)O
InChI: InChI=1S/C22H16N6O9S2/c23-19-18-12(11-17(39(35,36)37)21(22(18)29)27-24-13-4-2-1-3-5-13)10-16(38(32,33)34)20(19)26-25-14-6-8-15(9-7-14)28(30)31/h1-11,29H,23H2,(H,32,33,34)(H,35,36,37)
Instrument: TripleTOF 6600 SCIEX
Instrument type: LC-ESI-QTOF
Ms type: MS2
Ion mode: POSITIVE
Collision energy: 90
Fragmentation mode: CID
Ionization: ESI
Column name: Zorbax Eclipse Plus C18 2.1 mm x 150 mm, 3.5 um, Agilent
Retention time: 9.552 min
Precursor m/z: 573.0493
Precursor type: [M+H]+
m/z	relative intensity
39.0228	22
65.0382	374
66.0455	67
75.0221	87
77.038	68
80.0495	23
90.0329	10
92.0268	32
92.0489	403
93.057	999
102.0324	12
114.0334	11
117.0447	12
122.0237	16
129.0441	34
130.0298	10
139.0288	10
145.0381	42
150.0285	19
157.0388	26
173.035	129
177.0537	11
178.0601	12
179.0638	10
189.0458	12
193.0725	10
203.0603	14
204.0556	38
205.0716	59
206.0732	21
215.0543	19
216.055	70
217.0628	34
218.0755	12
220.0843	14
230.0726	57
231.0743	61
232.0841	69
233.0765	17
234.0762	10
242.059	56
243.0661	74
244.0515	11
245.065	11
248.0818	10
258.0597	17
259.07	39
260.0831	20
265.0308	12
270.0539	73
271.0603	94
306.0899	18
307.0998	17
318.0902	14
319.095	19
340.0383	12
345.1032	12
346.1062	14
362.106	11
