Mass spectrum: Iopromide; LC-ESI-QTOF; MS2; 50 V
Name: Iopromide
Class: Pharmaceutical
Formula: C18H24I3N3O8
Exact mass: 790.8698
SMILES: COCC(=O)Nc1c(I)c(C(=O)NCC(O)CO)c(I)c(c1I)C(=O)N(C)CC(O)CO
InChI: InChI=1S/C18H24I3N3O8/c1-24(4-9(28)6-26)18(31)12-13(19)11(17(30)22-3-8(27)5-25)14(20)16(15(12)21)23-10(29)7-32-2/h8-9,25-28H,3-7H2,1-2H3,(H,22,30)(H,23,29)
Instrument: TripleTOF 5600 SCIEX
Instrument type: LC-ESI-QTOF
Ms type: MS2
Ion mode: POSITIVE
Collision energy: 50
Fragmentation mode: CID
Ionization: ESI
Column name: Zorbax Eclipse Plus C18 2.1 mm x 150 mm, 3.5 um, Agilent
Retention time: 4.895 min
Precursor m/z: 791.877
Precursor type: [M+H]+
m/z	relative intensity
228.0454	13
232.0795	13
245.0599	13
259.0711	31
277.0825	15
283.9222	10
284.923	13
291.0987	65
298.928	13
298.9653	18
299.9149	340
312.9441	18
313.9313	23
314.9406	10
315.9462	26
316.942	33
326.9008	80
328.9424	28
329.9291	10
330.9589	39
340.9444	10
342.9601	23
343.9645	13
354.9568	20
357.9214	202
368.9719	31
372.9681	364
385.9761	18
386.9826	218
388.9645	36
399.9531	54
400.9616	13
400.9995	41
404.9911	117
410.8265	23
413.8123	150
413.8468	18
413.9711	416
414.8552	33
414.9812	28
418.0064	26
419.0122	85
423.796	91
423.8431	20
425.8128	135
430.9704	80
436.8335	10
438.818	15
440.8314	46
441.8439	18
442.8451	26
444.9886	374
447.0027	15
453.8078	31
456.8551	189
467.8463	15
468.8551	15
469.8403	28
485.8318	210
496.8495	10
498.8612	36
510.8616	23
512.8779	41
513.8909	20
523.8704	13
526.8484	13
527.8687	587
531.8982	299
540.8761	106
541.8833	291
545.9119	166
554.8996	88
558.8859	999
571.9196	18
572.9023	718
595.7293	101
645.9511	221
686.7841	15
686.8142	15
700.8116	20
773.8669	78
773.8985	10
