Mass spectrum: Daidzein; LC-ESI-QTOF; MS2; 130 V
Name: Daidzein
Class: Pharmaceutical
Formula: C15H10O4
Exact mass: 254.0579
SMILES: Oc1ccc(cc1)C2=COc3cc(O)ccc3C2=O
InChI: InChI=1S/C15H10O4/c16-10-3-1-9(2-4-10)13-8-19-14-7-11(17)5-6-12(14)15(13)18/h1-8,16-17H
Instrument: TripleTOF 5600 SCIEX
Instrument type: LC-ESI-QTOF
Ms type: MS2
Ion mode: POSITIVE
Collision energy: 130
Fragmentation mode: CID
Ionization: ESI
Column name: Zorbax Eclipse Plus C18 2.1 mm x 150 mm, 3.5 um, Agilent
Retention time: 7.744 min
Precursor m/z: 255.0652
Precursor type: [M+H]+
m/z	relative intensity
35.9999	118
37.0076	355
38.015	237
39.0228	999
49.0073	118
50.0152	592
51.0232	745
52.0303	84
53.0015	118
60.0014	67
61.0076	237
62.0157	440
63.0231	897
65.0388	575
68.9971	169
73.0082	169
74.015	897
75.0225	406
76.0306	186
77.0383	491
78.0464	84
86.0146	152
87.0233	152
89.0387	355
98.0139	237
99.0228	101
102.0462	118
113.0365	101
115.0523	186
125.0372	101
126.0466	237
139.0563	84
150.0464	338
151.0524	203
152.0651	67
