Mass spectrum: 1-(o-Tolyl)-biguanide; LC-ESI-QTOF; MS2; 90 V
Name: 1-(o-Tolyl)-biguanide
Class: Industrial_process
Formula: C9H13N5
Exact mass: 191.1171
SMILES: Cc1ccccc1N=C(N)N=C(N)N
InChI: InChI=1S/C9H13N5/c1-6-4-2-3-5-7(6)13-9(12)14-8(10)11/h2-5H,1H3,(H6,10,11,12,13,14)
Instrument: TripleTOF 5600 SCIEX
Instrument type: LC-ESI-QTOF
Ms type: MS2
Ion mode: POSITIVE
Collision energy: 90
Fragmentation mode: CID
Ionization: ESI
Column name: Zorbax Eclipse Plus C18 2.1 mm x 150 mm, 3.5 um, Agilent
Retention time: 4.675 min
Precursor m/z: 192.1244
Precursor type: [M+H]+
m/z	relative intensity
42.0308	29
43.0388	999
52.0241	16
53.0437	14
60.0608	134
64.034	26
65.0432	796
66.0504	65
67.0458	18
68.0282	169
77.0414	295
78.0358	24
78.0477	13
79.0564	24
80.0514	12
89.0401	213
90.0338	26
90.0456	15
91.0551	227
92.0508	55
93.0582	129
104.0492	55
106.0658	33
131.0585	12
