Mass spectrum: Ketoprofen; LC-ESI-QTOF; MS2; 140 V
Name: Ketoprofen
Class: Pharmaceutical
Formula: C16H14O3
Exact mass: 254.0943
SMILES: CC(C(O)=O)c1cccc(c1)C(=O)c2ccccc2
InChI: InChI=1S/C16H14O3/c1-11(16(18)19)13-8-5-9-14(10-13)15(17)12-6-3-2-4-7-12/h2-11H,1H3,(H,18,19)
Instrument: TripleTOF 5600 SCIEX
Instrument type: LC-ESI-QTOF
Ms type: MS2
Ion mode: POSITIVE
Collision energy: 140
Fragmentation mode: CID
Ionization: ESI
Column name: Zorbax Eclipse Plus C18 2.1 mm x 150 mm, 3.5 um, Agilent
Retention time: 10.877 min
Precursor m/z: 255.1016
Precursor type: [M+H]+
m/z	relative intensity
65.0434	46
74.018	323
75.0264	83
77.0408	999
78.0493	46
89.0417	46
163.0541	55
