Mass spectrum: Entacapone; LC-ESI-QTOF; MS2; 60 V
Name: Entacapone
Class: Pharmaceutical
Formula: C14H15N3O5
Exact mass: 305.1012
SMILES: CCN(CC)C(=O)C(=CC1=CC(=C(C(=C1)O)O)[N+](=O)[O-])C#N
InChI: InChI=1S/C14H15N3O5/c1-3-16(4-2)14(20)10(8-15)5-9-6-11(17(21)22)13(19)12(18)7-9/h5-7,18-19H,3-4H2,1-2H3
Instrument: TripleTOF 5600 SCIEX
Instrument type: LC-ESI-QTOF
Ms type: MS2
Ion mode: POSITIVE
Collision energy: 60
Fragmentation mode: CID
Ionization: ESI
Column name: Zorbax Eclipse Plus C18 2.1 mm x 150 mm, 3.5 um, Agilent
Retention time: 9.381 min
Precursor m/z: 306.1084
Precursor type: [M+H]+
m/z	relative intensity
43.0395	35
44.0237	136
52.0299	43
68.0183	57
68.0237	43
71.0667	57
72.0503	172
72.0863	43
74.0206	71
74.1	43
75.0162	158
76.0239	999
77.0264	35
77.0386	71
78.0409	107
80.0178	208
87.0138	237
88.0221	524
89.0284	43
89.0393	43
90.0369	107
99.0936	43
100.022	35
100.0779	43
101.0282	977
102.0114	50
102.037	143
103.0356	517
104.0149	438
104.0387	50
104.0495	93
105.0159	50
105.0457	64
113.0266	100
114.0221	524
115.0297	150
116.0149	43
116.0391	100
116.0493	35
117.0456	100
118.0512	43
118.0622	28
119.062	35
121.0396	64
122.0363	136
128.0396	50
129.0224	251
130.0353	172
131.0268	330
131.0592	43
132.0213	114
132.0326	71
133.0356	35
133.0503	50
133.0717	43
134.0336	28
141.0211	35
142.0173	366
143.023	50
143.0617	35
144.032	35
144.057	79
145.0397	64
146.0366	28
157.0185	28
158.0243	64
159.0308	574
160.0376	35
161.0546	50
170.0111	244
171.0173	50
172.052	50
187.0198	43
