Mass spectrum: Ketoconazole; LC-ESI-QTOF; MS2; 110 V
Name: Ketoconazole
Class: Fungicide; Pharmaceutical
Formula: C26H28Cl2N4O4
Exact mass: 530.1488
SMILES: CC(=O)N1CCN(CC1)C2=CC=C(C=C2)OCC3COC(O3)(CN4C=CN=C4)C5=C(C=C(C=C5)Cl)Cl
InChI: InChI=1S/C26H28Cl2N4O4/c1-19(33)31-10-12-32(13-11-31)21-3-5-22(6-4-21)34-15-23-16-35-26(36-23,17-30-9-8-29-18-30)24-7-2-20(27)14-25(24)28/h2-9,14,18,23H,10-13,15-17H2,1H3
Instrument: TripleTOF 5600 SCIEX
Instrument type: LC-ESI-QTOF
Ms type: MS2
Ion mode: POSITIVE
Collision energy: 110
Fragmentation mode: CID
Ionization: ESI
Column name: Zorbax Eclipse Plus C18 2.1 mm x 150 mm, 3.5 um, Agilent
Retention time: 7.94 min
Precursor m/z: 531.156
Precursor type: [M+H]+
m/z	relative intensity
43.0302	22
54.0433	63
56.058	31
65.0443	44
68.0411	15
69.0506	66
70.072	63
71.0659	22
75.0269	12
77.0429	155
79.0582	69
80.055	31
81.0491	999
82.0573	429
83.0644	22
86.0631	19
89.0417	50
91.057	98
93.0361	120
93.0616	19
94.0447	54
94.0673	12
95.052	19
99.0044	19
99.0266	44
102.0514	19
103.055	130
104.0531	31
105.065	28
106.0665	47
107.0521	98
108.985	38
109.0421	41
111.0024	22
112.0765	50
115.057	174
116.064	25
117.0599	69
118.0656	92
119.0715	28
120.0448	362
120.0805	47
121.0505	54
122.0618	114
123.0002	321
124.0076	34
125.0178	19
127.052	270
128.0637	28
129.0628	15
130.0652	168
131.0503	69
131.073	44
132.0541	28
132.0653	15
132.0824	22
132.9582	12
133.0507	28
133.9935	22
134.061	92
135.0012	60
135.0686	22
136.0086	85
136.0755	82
141.0571	12
142.0643	15
143.0739	47
144.0823	57
144.9603	133
145.9661	12
146.0601	41
146.0994	44
147.067	25
148.078	44
149.0151	85
150.0238	47
155.0667	12
156.078	31
157.9685	98
158.0597	38
158.9762	486
159.0685	25
160.0792	47
162.0915	15
163.0045	22
167.0827	31
169.9683	305
170.0621	19
170.9746	50
172.9551	184
174.0922	19
184.0712	12
185.9521	12
203.0326	44
204.0249	15
252.9933	31
