Mass spectrum: Methacetin; LC-ESI-QTOF; MS2; 150 V
Name: Methacetin
Class: Pharmaceutical
Formula: C9H11NO2
Exact mass: 165.079
SMILES: COc1ccc(NC(C)=O)cc1
InChI: InChI=1S/C9H11NO2/c1-7(11)10-8-3-5-9(12-2)6-4-8/h3-6H,1-2H3,(H,10,11)
Instrument: TripleTOF 5600 SCIEX
Instrument type: LC-ESI-QTOF
Ms type: MS2
Ion mode: POSITIVE
Collision energy: 150
Fragmentation mode: CID
Ionization: ESI
Column name: Zorbax Eclipse Plus C18 2.1 mm x 150 mm, 3.5 um, Agilent
Retention time: 6.508 min
Precursor m/z: 166.0863
Precursor type: [M+H]+
m/z	relative intensity
40.0288	84
41.0381	99
42.0441	93
43.0289	965
44.0239	149
52.0257	648
53.0104	105
60.0061	999
62.0457	120
73.0111	160
74.0195	244
75.014	47
