Mass spectrum: Metrafenone; LC-ESI-QTOF; MS2; 120 V
Name: Metrafenone
Class: Fungicide
Formula: C19H21BrO5
Exact mass: 408.0572
SMILES: CC1=CC(=C(C(=C1C(=O)C2=C(C=CC(=C2C)Br)OC)OC)OC)OC
InChI: InChI=1S/C19H21BrO5/c1-10-9-14(23-4)18(24-5)19(25-6)15(10)17(21)16-11(2)12(20)7-8-13(16)22-3/h7-9H,1-6H3
Instrument: TripleTOF 6600 SCIEX
Instrument type: LC-ESI-QTOF
Ms type: MS2
Ion mode: POSITIVE
Collision energy: 120
Fragmentation mode: CID
Ionization: ESI
Column name: Zorbax Eclipse Plus C18 2.1 mm x 150 mm, 3.5 um, Agilent
Retention time: 15.123 min
Precursor m/z: 409.0645
Precursor type: [M+H]+
m/z	relative intensity
37.0109	13
38.0184	12
39.0269	75
41.0428	27
50.0189	106
51.0269	383
52.0344	108
53.0418	20
55.0216	20
61.0102	21
62.0191	55
63.0264	127
64.0345	36
65.042	190
66.0133	12
66.0503	71
67.0211	38
67.0573	23
74.0187	38
75.0265	92
76.0346	130
77.0424	999
78.0498	53
79.0577	81
80.0293	70
81.035	10
89.042	819
90.0497	166
91.0576	314
93.0006	34
93.037	15
94.0458	69
95.0531	26
105.0371	178
106.0422	17
107.0514	48
108.0232	64
115.0584	11
119.0514	14
121.0316	21
122.0386	28
123.0452	37
128.935	13
134.0386	10
135.046	17
139.0562	12
150.0323	11
151.0409	12
152.0631	15
154.9501	349
168.9655	18
182.9484	210
183.9527	12
