Mass spectrum: Methacetin; LC-ESI-QTOF; MS2; 40 V
Name: Methacetin
Class: Pharmaceutical
Formula: C9H11NO2
Exact mass: 165.079
SMILES: COc1ccc(NC(C)=O)cc1
InChI: InChI=1S/C9H11NO2/c1-7(11)10-8-3-5-9(12-2)6-4-8/h3-6H,1-2H3,(H,10,11)
Instrument: TripleTOF 5600 SCIEX
Instrument type: LC-ESI-QTOF
Ms type: MS2
Ion mode: POSITIVE
Collision energy: 40
Fragmentation mode: CID
Ionization: ESI
Column name: Zorbax Eclipse Plus C18 2.1 mm x 150 mm, 3.5 um, Agilent
Retention time: 6.508 min
Precursor m/z: 166.0863
Precursor type: [M+H]+
m/z	relative intensity
43.0291	298
54.0431	13
64.0363	51
65.0437	313
66.0512	146
67.0525	16
77.042	334
78.0439	21
79.0569	22
80.0524	292
81.0599	481
82.044	17
92.0497	669
93.0588	999
94.0657	59
97.0651	19
107.0492	66
108.0448	181
109.0517	631
123.0673	68
124.0754	252
125.0628	15
148.0755	38
166.0867	64
