Mass spectrum: 4,4,5,5,6,6,6-Heptafluorohexanoic acid; LC-ESI-QTOF; MS2; 10 V
Name: 4,4,5,5,6,6,6-Heptafluorohexanoic acid
Formula: C6H5F7O2
Exact mass: 242.0178
SMILES: C(CC(C(C(F)(F)F)(F)F)(F)F)C(=O)O
InChI: InChI=1S/C6H5F7O2/c7-4(8,2-1-3(14)15)5(9,10)6(11,12)13/h1-2H2,(H,14,15)
Instrument: TripleTOF 6600 SCIEX
Instrument type: LC-ESI-QTOF
Ms type: MS2
Ion mode: NEGATIVE
Collision energy: 10
Fragmentation mode: CID
Ionization: ESI
Column name: Zorbax Eclipse Plus C18 2.1 mm x 150 mm, 3.5 um, Agilent
Retention time: 10.141 min
Precursor m/z: 241.0105
Precursor type: [M-H]-
m/z	relative intensity
39.0034	102
62.9862	405
116.9936	23
136.9993	81
157.0045	75
177.0115	999
