Mass spectrum: Disperse Yellow 9; LC-ESI-QTOF; MS2; 30 V
Name: Disperse Yellow 9
Formula: C12H10N4O4
Exact mass: 274.0702
SMILES: C1=CC(=CC=C1N)NC2=C(C=C(C=C2)[N+](=O)[O-])[N+](=O)[O-]
InChI: InChI=1S/C12H10N4O4/c13-8-1-3-9(4-2-8)14-11-6-5-10(15(17)18)7-12(11)16(19)20/h1-7,14H,13H2
Instrument: TripleTOF X500R SCIEX
Instrument type: LC-ESI-QTOF
Ms type: MS2
Ion mode: POSITIVE
Collision energy: 30
Fragmentation mode: CID
Ionization: ESI
Column name: Zorbax Eclipse Plus C18 2.1 mm x 150 mm, 3.5 um, Agilent
Retention time: 9.832 min
Precursor m/z: 275.0775
Precursor type: [M+H]+
m/z	relative intensity
93.0582	12
108.0447	75
108.0673	11
140.0496	14
143.0609	12
154.0655	16
166.0625	16
167.06	30
168.0495	35
169.0698	22
177.0444	11
181.0545	21
181.0773	100
182.0833	774
183.0814	69
193.0641	12
194.072	999
195.08	368
198.0778	11
210.065	25
211.0747	63
227.071	22
228.0774	858
229.0852	111
240.0651	588
241.0731	588
244.0724	29
257.0676	24
258.0492	14
258.075	72
275.0779	53
