Mass spectrum: Atenolol acid; LC-ESI-QTOF; MS2; 70 V
Name: Atenolol acid
Class: Pharmaceutical
Formula: C14H21NO4
Exact mass: 267.1471
SMILES: CC(C)NCC(COC1=CC=C(C=C1)CC(=O)O)O
InChI: InChI=1S/C14H21NO4/c1-10(2)15-8-12(16)9-19-13-5-3-11(4-6-13)7-14(17)18/h3-6,10,12,15-16H,7-9H2,1-2H3,(H,17,18)
Instrument: TripleTOF 5600 SCIEX
Instrument type: LC-ESI-QTOF
Ms type: MS2
Ion mode: POSITIVE
Collision energy: 70
Fragmentation mode: CID
Ionization: ESI
Column name: Zorbax Eclipse Plus C18 2.1 mm x 150 mm, 3.5 um, Agilent
Retention time: 4.893 min
Precursor m/z: 268.1543
Precursor type: [M+H]+
m/z	relative intensity
39.0233	45
41.0388	110
43.055	57
50.0164	16
51.0231	73
56.0498	262
58.0657	57
62.0155	20
63.0237	90
65.0387	155
67.0551	24
72.0824	36
74.0608	36
77.0393	999
78.0473	20
79.0545	483
81.0711	24
84.0798	24
89.0394	507
91.0547	700
94.0416	24
95.0484	36
102.047	24
103.055	20
107.0495	155
115.0546	585
116.0633	57
117.0695	90
119.0505	20
127.0527	45
131.0524	36
135.0478	20
144.0564	49
145.0661	90
