Mass spectrum: Imazamox; LC-ESI-QTOF; MS2; 60 V
Name: Imazamox
Class: Herbicide
Formula: C15H19N3O4
Exact mass: 305.1376
SMILES: CC(C)C1(C(=O)NC(=N1)C2=C(C=C(C=N2)COC)C(=O)O)C
InChI: InChI=1S/C15H19N3O4/c1-8(2)15(3)14(21)17-12(18-15)11-10(13(19)20)5-9(6-16-11)7-22-4/h5-6,8H,7H2,1-4H3,(H,19,20)(H,17,18,21)
Instrument: TripleTOF 6600 SCIEX
Instrument type: LC-ESI-QTOF
Ms type: MS2
Ion mode: POSITIVE
Collision energy: 60
Fragmentation mode: CID
Ionization: ESI
Column name: Zorbax Eclipse Plus C18 2.1 mm x 150 mm, 3.5 um, Agilent
Retention time: 6.853 min
Precursor m/z: 306.1448
Precursor type: [M+H]+
m/z	relative intensity
37.0059	17
38.0137	21
39.0219	245
41.0376	704
42.0325	38
43.0527	17
44.0483	24
45.0316	45
56.0477	80
58.0634	24
63.0211	42
65.0368	185
67.0519	45
69.0682	715
70.063	108
71.0712	224
77.0372	17
78.0317	42
79.0399	17
80.0475	45
86.0945	480
88.0162	196
89.0251	17
90.0319	129
91.0391	73
92.0475	553
93.0556	28
95.0471	24
104.0472	28
105.0426	115
106.0254	28
106.0502	24
106.0627	14
107.0347	21
107.0579	168
108.0416	38
115.0269	196
116.0345	154
117.0428	325
118.0271	45
118.0504	403
119.0578	227
120.0419	119
121.0495	17
122.0581	999
123.0652	150
131.0581	63
132.0301	31
133.0367	91
133.0735	56
134.0454	52
135.0527	45
142.0596	17
143.0581	17
144.0293	238
144.077	24
145.037	630
145.0737	17
146.0204	77
146.0439	63
147.0526	196
148.061	311
149.0331	17
149.0687	80
150.0521	45
158.0687	21
159.0529	80
159.0763	28
160.0603	322
161.064	476
162.0393	336
162.0646	14
163.0482	893
171.0883	31
173.0698	35
175.048	347
175.0683	24
176.0556	42
177.0626	70
184.0997	17
186.0634	21
187.0713	94
188.0848	52
191.0788	259
192.0743	38
193.0587	112
215.0657	73
216.0739	21
218.0917	59
246.084	38
