Mass spectrum: Erlotinib; LC-ESI-QTOF; MS2; 100 V
Name: Erlotinib
Class: Pharmaceutical
Formula: C22H23N3O4
Exact mass: 393.1689
SMILES: COCCOC1=C(C=C2C(=C1)C(=NC=N2)NC3=CC=CC(=C3)C#C)OCCOC
InChI: InChI=1S/C22H23N3O4/c1-4-16-6-5-7-17(12-16)25-22-18-13-20(28-10-8-26-2)21(29-11-9-27-3)14-19(18)23-15-24-22/h1,5-7,12-15H,8-11H2,2-3H3,(H,23,24,25)
Instrument: TripleTOF 5600 SCIEX
Instrument type: LC-ESI-QTOF
Ms type: MS2
Ion mode: NEGATIVE
Collision energy: 100
Fragmentation mode: CID
Ionization: ESI
Column name: Zorbax Eclipse Plus C18 2.1 mm x 150 mm, 3.5 um, Agilent
Retention time: 7.429 min
Precursor m/z: 392.1616
Precursor type: [M-H]-
m/z	relative intensity
65.998	222
90.0382	83
118.0292	55
133.0206	111
134.024	249
140.0524	83
141.0468	610
164.0495	138
165.0471	582
189.0469	666
190.0463	277
191.062	444
192.0475	55
216.0574	999
218.0722	194
219.0538	360
220.0564	111
228.054	83
229.0651	277
230.0711	55
244.0503	804
245.0568	333
246.0708	138
257.0577	222
272.0468	55
273.0559	249
