Mass spectrum: Chloroxuron; LC-ESI-QTOF; MS2; 110 V
Name: Chloroxuron
Class: Herbicide
Formula: C15H15ClN2O2
Exact mass: 290.0822
SMILES: CN(C)C(=O)Nc1ccc(Oc2ccc(Cl)cc2)cc1
InChI: InChI=1S/C15H15ClN2O2/c1-18(2)15(19)17-12-5-9-14(10-6-12)20-13-7-3-11(16)4-8-13/h3-10H,1-2H3,(H,17,19)
Instrument: TripleTOF 5600 SCIEX
Instrument type: LC-ESI-QTOF
Ms type: MS2
Ion mode: POSITIVE
Collision energy: 110
Fragmentation mode: CID
Ionization: ESI
Column name: Zorbax Eclipse Plus C18 2.1 mm x 150 mm, 3.5 um, Agilent
Retention time: 12.103 min
Precursor m/z: 291.0895
Precursor type: [M+H]+
m/z	relative intensity
51.0275	19
56.0178	138
72.0477	999
72.9867	17
73.0091	19
74.0185	298
75.0261	322
75.049	10
76.0327	17
77.0413	62
78.0505	20
80.0521	12
84.9865	60
87.0239	12
88.0324	10
89.0405	15
99.002	13
101.0394	12
102.046	20
111.0002	20
113.038	31
114.0463	15
126.0463	24
127.0535	48
128.0616	48
139.0548	79
