Mass spectrum: Cyproterone; LC-ESI-QTOF; MS2; 20 V
Name: Cyproterone
Class: Pharmaceutical
Formula: C22H27ClO3
Exact mass: 374.1649
SMILES: CC(=O)C1(CCC2C1(CCC3C2C=C(C4=CC(=O)C5CC5C34C)Cl)C)O
InChI: InChI=1S/C22H27ClO3/c1-11(24)22(26)7-5-14-12-9-18(23)17-10-19(25)13-8-16(13)21(17,3)15(12)4-6-20(14,22)2/h9-10,12-16,26H,4-8H2,1-3H3
Instrument: TripleTOF 5600 SCIEX
Instrument type: LC-ESI-QTOF
Ms type: MS2
Ion mode: POSITIVE
Collision energy: 20
Fragmentation mode: CID
Ionization: ESI
Column name: Zorbax Eclipse Plus C18 2.1 mm x 150 mm, 3.5 um, Agilent
Retention time: 11.881 min
Precursor m/z: 375.1721
Precursor type: [M+H]+
m/z	relative intensity
279.174	13
321.1848	80
357.1601	59
375.1708	999
