Mass spectrum: Telmisartan; LC-ESI-QTOF; MS2; 100 V
Name: Telmisartan
Class: Pharmaceutical
Formula: C33H30N4O2
Exact mass: 514.2369
SMILES: CCCc1nc2c(C)cc(cc2n1Cc3ccc(cc3)c4ccccc4C(O)=O)c5nc6ccccc6n5C
InChI: InChI=1S/C33H30N4O2/c1-4-9-30-35-31-21(2)18-24(32-34-27-12-7-8-13-28(27)36(32)3)19-29(31)37(30)20-22-14-16-23(17-15-22)25-10-5-6-11-26(25)33(38)39/h5-8,10-19H,4,9,20H2,1-3H3,(H,38,39)
Instrument: TripleTOF 5600 SCIEX
Instrument type: LC-ESI-QTOF
Ms type: MS2
Ion mode: POSITIVE
Collision energy: 100
Fragmentation mode: CID
Ionization: ESI
Column name: Zorbax Eclipse Plus C18 2.1 mm x 150 mm, 3.5 um, Agilent
Retention time: 8.861 min
Precursor m/z: 515.2442
Precursor type: [M+H]+
m/z	relative intensity
77.0409	74
131.0591	98
143.0613	61
152.0599	61
165.0715	308
192.0705	61
193.0665	86
193.0772	49
206.0831	86
207.0933	86
220.0865	123
231.0814	61
233.0992	61
234.1034	185
245.0847	74
246.0947	172
259.0999	148
260.1081	271
261.1146	999
262.1245	74
273.1138	222
274.1218	222
275.1285	653
276.1376	333
287.1333	111
289.1458	197
301.1466	61
303.1646	74
