Mass spectrum: Citalopram; LC-ESI-QTOF; MS2; 100 V
Name: Citalopram
Class: Pharmaceutical
Formula: C20H21FN2O
Exact mass: 324.1638
SMILES: CN(C)CCCC1(OCc2cc(ccc12)C#N)c3ccc(F)cc3
InChI: InChI=1S/C20H21FN2O/c1-23(2)11-3-10-20(17-5-7-18(21)8-6-17)19-9-4-15(13-22)12-16(19)14-24-20/h4-9,12H,3,10-11,14H2,1-2H3
Instrument: TripleTOF 5600 SCIEX
Instrument type: LC-ESI-QTOF
Ms type: MS2
Ion mode: POSITIVE
Collision energy: 100
Fragmentation mode: CID
Ionization: ESI
Column name: Zorbax Eclipse Plus C18 2.1 mm x 150 mm, 3.5 um, Agilent
Retention time: 7.757 min
Precursor m/z: 325.1711
Precursor type: [M+H]+
m/z	relative intensity
42.044	19
51.0289	14
57.0195	193
58.071	126
59.0349	62
65.043	24
74.0194	42
75.0264	110
77.0423	95
81.016	19
83.0329	999
87.026	34
88.0212	13
89.0413	380
90.0357	29
95.0307	49
98.0167	16
99.0242	33
101.039	44
102.0472	14
103.0549	12
107.0297	29
109.0463	624
113.0394	175
114.0369	51
115.0547	70
116.05	81
120.0376	31
122.0177	10
123.0233	22
125.039	20
126.0479	40
127.0547	58
128.0622	57
133.046	103
137.0399	22
139.0547	64
140.0502	273
144.0354	21
145.0448	11
146.0529	34
147.023	10
149.0392	36
150.047	70
151.0528	30
152.0628	19
153.0582	12
157.0449	36
158.0408	19
161.0394	26
162.0476	36
163.0553	134
164.0511	65
167.0298	20
168.0377	100
169.0451	56
170.0526	69
173.0391	27
174.0467	112
175.0525	72
176.0496	12
176.0615	27
177.058	26
180.038	23
181.0456	198
182.047	70
183.0608	52
185.0386	10
186.0463	21
187.055	132
188.0504	136
189.0662	62
190.0661	75
192.037	49
193.0448	40
194.0535	161
195.0486	53
196.0676	11
197.038	20
198.0467	124
199.0538	284
200.061	271
201.0586	88
202.077	26
205.0451	114
206.0492	102
207.0607	196
208.0563	292
211.0552	30
212.0509	84
213.0697	155
214.0654	91
216.0375	14
217.045	82
218.0533	489
219.0574	239
220.0685	157
221.0648	60
223.0457	14
224.0507	48
225.0582	243
226.0654	94
227.0734	60
230.0442	23
231.0595	69
232.0568	168
233.076	55
234.0713	14
238.0659	106
239.0747	22
240.0814	55
242.0529	22
243.0493	69
244.057	168
245.064	601
246.0734	17
256.0571	14
258.0721	64
259.0786	14
