Mass spectrum: Omeprazole; LC-ESI-QTOF; MS2; 50 V
Name: Omeprazole
Class: Pharmaceutical
Formula: C17H19N3O3S
Exact mass: 345.1147
SMILES: COc1ccc2nc([nH]c2c1)[S](=O)Cc3ncc(C)c(OC)c3C
InChI: InChI=1S/C17H19N3O3S/c1-10-8-18-15(11(2)16(10)23-4)9-24(21)17-19-13-6-5-12(22-3)7-14(13)20-17/h5-8H,9H2,1-4H3,(H,19,20)
Instrument: TripleTOF 5600 SCIEX
Instrument type: LC-ESI-QTOF
Ms type: MS2
Ion mode: POSITIVE
Collision energy: 50
Fragmentation mode: CID
Ionization: ESI
Column name: Zorbax Eclipse Plus C18 2.1 mm x 150 mm, 3.5 um, Agilent
Retention time: 6.462 min
Precursor m/z: 346.122
Precursor type: [M+H]+
m/z	relative intensity
77.0431	11
79.0569	13
93.0707	17
106.0655	33
108.0819	99
120.081	101
121.0894	219
122.0965	102
134.0484	48
136.0237	15
136.0759	999
149.0715	125
150.0918	294
151.0992	302
152.0163	81
165.0244	122
166.0319	43
166.0859	11
168.102	24
179.0271	68
180.0475	499
181.0568	423
198.0591	84
