Mass spectrum: Hydroquinone; LC-ESI-QTOF; MS2; 20 V
Name: Hydroquinone
Formula: C6H6O2
Exact mass: 110.0368
SMILES: C1=CC(=CC=C1O)O
InChI: InChI=1S/C6H6O2/c7-5-1-2-6(8)4-3-5/h1-4,7-8H
Instrument: TripleTOF 5600 SCIEX
Instrument type: LC-ESI-QTOF
Ms type: MS2
Ion mode: POSITIVE
Collision energy: 20
Fragmentation mode: CID
Ionization: ESI
Column name: Zorbax Eclipse Plus C18 2.1 mm x 150 mm, 3.5 um, Agilent
Retention time: 3.674 min
Precursor m/z: 111.0441
Precursor type: [M+H]+
m/z	relative intensity
55.0281	11
55.0602	56
65.0418	767
82.0425	33
83.0499	62
83.9994	73
93.0354	462
94.0412	11
110.0403	16
111.0436	999
