Mass spectrum: Leucomalachite green; LC-ESI-QTOF; MS2; 40 V
Name: Leucomalachite green
Class: Metabolite
Formula: C23H26N2
Exact mass: 330.2096
SMILES: CN(C)C1=CC=C(C=C1)C(C2=CC=CC=C2)C3=CC=C(C=C3)N(C)C
InChI: InChI=1S/C23H26N2/c1-24(2)21-14-10-19(11-15-21)23(18-8-6-5-7-9-18)20-12-16-22(17-13-20)25(3)4/h5-17,23H,1-4H3
Instrument: TripleTOF 6600 SCIEX
Instrument type: LC-ESI-QTOF
Ms type: MS2
Ion mode: POSITIVE
Collision energy: 40
Fragmentation mode: CID
Ionization: ESI
Column name: Zorbax Eclipse Plus C18 2.1 mm x 150 mm, 3.5 um, Agilent
Retention time: 9.974 min
Precursor m/z: 331.2169
Precursor type: [M+H]+
m/z	relative intensity
165.0689	11
194.0961	40
195.1029	35
196.1116	17
208.1109	27
209.1189	43
210.1268	42
223.1221	13
224.1303	11
238.1457	14
239.1545	999
254.1723	12
272.1442	82
286.1586	40
301.1701	18
315.1859	244
316.1935	72
331.2175	19
