Mass spectrum: (Tert-Butoxycarbonylmethyl)triphenylphosphonium; LC-ESI-QTOF; MS2; 50 V
Name: (Tert-Butoxycarbonylmethyl)triphenylphosphonium
Formula: [C24H26O2P]+
Exact mass: 377.1665
SMILES: CC(C)(C)OC(=O)C[P+](C1=CC=CC=C1)(C2=CC=CC=C2)C3=CC=CC=C3
InChI: InChI=1S/C24H26O2P/c1-24(2,3)26-23(25)19-27(20-13-7-4-8-14-20,21-15-9-5-10-16-21)22-17-11-6-12-18-22/h4-18H,19H2,1-3H3/q+1
Instrument: TripleTOF 5600 SCIEX
Instrument type: LC-ESI-QTOF
Ms type: MS2
Ion mode: POSITIVE
Collision energy: 50
Fragmentation mode: CID
Ionization: ESI
Column name: Zorbax Eclipse Plus C18 2.1 mm x 150 mm, 3.5 um, Agilent
Retention time: 8.834 min
Precursor m/z: 377.1665
Precursor type: [M]+
m/z	relative intensity
108.0111	136
183.0363	139
184.0444	79
185.052	53
201.0469	112
261.0835	310
262.0908	636
275.0988	64
277.115	127
303.0936	514
321.1036	999
