Mass spectrum: 3,5-Diiodothyronine; LC-ESI-QTOF; MS2; 90 V
Name: 3,5-Diiodothyronine
Class: Pharmaceutical
Formula: C15H13I2NO4
Exact mass: 524.8934
SMILES: NC(Cc1cc(I)c(Oc2ccc(O)cc2)c(I)c1)C(O)=O
InChI: InChI=1S/C15H13I2NO4/c16-11-5-8(7-13(18)15(20)21)6-12(17)14(11)22-10-3-1-9(19)2-4-10/h1-6,13,19H,7,18H2,(H,20,21)
Instrument: TripleTOF 5600 SCIEX
Instrument type: LC-ESI-QTOF
Ms type: MS2
Ion mode: POSITIVE
Collision energy: 90
Fragmentation mode: CID
Ionization: ESI
Column name: Zorbax Eclipse Plus C18 2.1 mm x 150 mm, 3.5 um, Agilent
Retention time: 7.539 min
Precursor m/z: 525.9007
Precursor type: [M+H]+
m/z	relative intensity
65.0426	135
76.0351	15
77.0413	107
78.0491	38
79.044	40
81.0351	81
89.04	129
90.0479	155
91.0213	12
91.0561	40
92.0254	15
93.0345	71
94.0421	81
101.0386	12
102.0465	66
103.0556	32
104.0497	239
105.0338	84
105.0574	151
106.0413	45
107.048	30
109.0278	75
115.0539	220
116.0493	25
116.0624	30
117.057	252
118.0034	10
118.0649	40
119.0138	28
126.0465	10
127.0542	226
128.062	753
129.0701	86
131.0497	60
132.0459	15
133.0284	19
133.0484	12
139.0538	211
139.0732	12
140.0583	12
141.0693	472
142.0772	148
143.0842	25
144.0567	15
151.0532	138
152.0617	765
153.0699	379
154.065	43
155.0486	127
155.0848	17
156.0567	101
157.0644	163
163.0551	28
164.062	30
165.0691	129
167.0506	25
167.0737	23
168.0565	118
168.0782	47
169.0644	192
170.0717	222
171.0799	60
178.0648	15
179.0473	12
179.0711	10
180.0556	34
180.0793	47
181.0648	586
182.073	43
183.0448	38
183.068	19
184.0517	789
185.059	21
192.0558	15
195.0414	17
196.0548	28
196.074	120
197.0595	999
198.0669	129
199.0765	36
202.9353	15
206.059	17
207.0691	10
208.0497	25
208.0753	32
209.0582	71
210.0645	92
211.0395	45
212.0514	12
216.9156	15
216.9513	49
217.9208	51
219.938	64
223.0615	28
224.0696	215
225.0546	19
225.0764	81
231.9402	10
231.962	23
232.9465	79
237.0543	21
242.9631	51
244.9086	71
253.0498	12
259.9321	15
259.9564	176
296.9777	25
310.9584	10
324.9699	120
338.953	34
