Mass spectrum: Pindolol; LC-ESI-QTOF; MS2; 40 V
Name: Pindolol
Class: Pharmaceutical
Formula: C14H20N2O2
Exact mass: 248.1525
SMILES: CC(C)NCC(COC1=CC=CC2=C1C=CN2)O
InChI: InChI=1S/C14H20N2O2/c1-10(2)16-8-11(17)9-18-14-5-3-4-13-12(14)6-7-15-13/h3-7,10-11,15-17H,8-9H2,1-2H3
Instrument: TripleTOF 5600 SCIEX
Instrument type: LC-ESI-QTOF
Ms type: MS2
Ion mode: POSITIVE
Collision energy: 40
Fragmentation mode: CID
Ionization: ESI
Column name: Zorbax Eclipse Plus C18 2.1 mm x 150 mm, 3.5 um, Agilent
Retention time: 5.148 min
Precursor m/z: 249.1598
Precursor type: [M+H]+
m/z	relative intensity
44.0607	11
56.0591	595
58.0741	238
72.0875	434
74.0665	710
77.0441	24
79.0599	18
80.0546	18
84.0851	17
89.0423	34
91.0585	137
98.1003	153
100.1155	116
103.0587	17
104.0532	76
105.0611	11
106.0681	157
107.0526	61
115.0579	93
116.0515	96
116.1097	834
117.0705	343
118.0676	544
127.0566	126
128.0567	29
129.0606	15
129.0725	14
130.0668	109
132.047	96
132.0832	76
133.0535	71
134.0618	783
142.0683	25
143.0743	144
144.0561	11
144.0822	999
145.0644	29
146.0612	441
154.0669	49
155.0557	14
155.0708	15
157.053	29
160.0761	38
170.0603	42
171.0685	17
172.0769	308
