Mass spectrum: Albendazole; LC-ESI-QTOF; MS2; 140 V
Name: Albendazole
Class: Pharmaceutical
Formula: C12H15N3O2S
Exact mass: 265.0885
InChI: InChI=1S/C12H15N3O2S/c1-3-6-18-8-4-5-9-10(7-8)14-11(13-9)15-12(16)17-2/h4-5,7H,3,6H2,1-2H3,(H2,13,14,15,16)
Instrument: TripleTOF 5600 SCIEX
Instrument type: LC-ESI-QTOF
Ms type: CID
Ion mode: NEGATIVE
Collision energy: 140
Ionization: ESI
Column name: Zorbax Eclipse Plus C18 2.1 mm x 150 mm, 3.5 um, Agilent
Retention time: 8.546 min
Precursor m/z: 264.0812
Precursor type: [M-H]-
m/z	relative intensity
42.002	444
50.0066	111
56.9861	222
57.9771	999
57.9927	111
64.0088	111
65.0131	111
74.009	444
81.9755	333
