Mass spectrum: Remdesivir; LC-ESI-QTOF; MS2; 120 V
Name: Remdesivir
Class: Pharmaceutical
Formula: C27H35N6O8P
Exact mass: 602.2254
SMILES: CCC(CC)COC(=O)C(C)NP(=O)(OCC1C(C(C(O1)(C#N)C2=CC=C3N2N=CN=C3N)O)O)OC4=CC=CC=C4
InChI: InChI=1S/C27H35N6O8P/c1-4-18(5-2)13-38-26(36)17(3)32-42(37,41-19-9-7-6-8-10-19)39-14-21-23(34)24(35)27(15-28,40-21)22-12-11-20-25(29)30-16-31-33(20)22/h6-12,16-18,21,23-24,34-35H,4-5,13-14H2,1-3H3,(H,32,37)(H2,29,30,31)
Instrument: TripleTOF 6600 SCIEX
Instrument type: LC-ESI-QTOF
Ms type: MS2
Ion mode: POSITIVE
Collision energy: 120
Fragmentation mode: CID
Ionization: ESI
Column name: Zorbax Eclipse Plus C18 2.1 mm x 150 mm, 3.5 um, Agilent
Retention time: 9.974 min
Precursor m/z: 603.2327
Precursor type: [M+H]+
m/z	relative intensity
39.0226	65
41.0386	43
42.0336	29
43.0287	20
43.0412	14
43.0542	50
44.0494	489
51.0226	69
64.0178	29
65.0384	26
67.0172	37
76.017	46
77.0381	999
78.0331	206
78.9936	71
79.9891	151
87.9936	33
91.0279	16
91.0532	59
92.0262	13
92.0481	24
93.0434	58
93.0686	28
95.0485	365
103.0284	103
103.0535	179
104.0358	28
104.048	20
105.044	382
106.0045	155
107.0462	14
109.0187	37
117.0439	14
117.0546	16
118.0398	13
118.0644	29
119.0231	89
119.0595	54
120.0543	33
120.0798	37
121.0402	9
121.0636	84
124.0147	29
129.0433	26
130.0386	99
131.0227	16
131.0476	22
132.0537	14
135.0649	50
137.0143	110
138.9936	35
141.01	14
145.0492	16
146.0712	13
147.0654	479
156.0198	16
158.0332	11
159.0659	16
161.0453	56
164.0245	41
165.0093	372
172.0603	28
173.0806	16
175.0183	11
182.0355	44
183.0194	14
200.0454	31
