Mass spectrum: Amisulpride; LC-ESI-QTOF; MS2; 110 V
Name: Amisulpride
Class: Pharmaceutical
Formula: C17H27N3O4S
Exact mass: 369.1722
SMILES: CCN1CCCC1CNC(=O)c2cc(c(N)cc2OC)[S](=O)(=O)CC
InChI: InChI=1S/C17H27N3O4S/c1-4-20-8-6-7-12(20)11-19-17(21)13-9-16(25(22,23)5-2)14(18)10-15(13)24-3/h9-10,12H,4-8,11,18H2,1-3H3,(H,19,21)
Instrument: TripleTOF 5600 SCIEX
Instrument type: LC-ESI-QTOF
Ms type: MS2
Ion mode: POSITIVE
Collision energy: 110
Fragmentation mode: CID
Ionization: ESI
Column name: Zorbax Eclipse Plus C18 2.1 mm x 150 mm, 3.5 um, Agilent
Retention time: 5.568 min
Precursor m/z: 370.1795
Precursor type: [M+H]+
m/z	relative intensity
41.0343	31
42.043	34
51.0301	143
52.0252	238
53.0082	121
53.0447	91
54.0399	82
55.0229	41
55.0599	31
56.0555	129
56.9843	15
57.9926	17
58.0338	12
58.0693	58
59.0005	20
64.035	292
65.0428	744
66.0138	14
66.0513	999
67.0242	11
67.0456	126
68.0171	221
68.0528	58
68.9832	191
68.9992	37
69.0637	11
69.9907	101
70.0324	14
70.0679	80
70.9985	30
74.0186	15
74.9909	14
75.0142	23
75.025	28
76.0211	194
77.0062	20
77.0294	93
77.04	63
78.0123	14
78.0367	392
79.0221	37
79.0439	170
80.0159	135
80.0527	75
80.9812	18
81.0366	74
81.9896	36
82.0674	49
82.9978	85
83.9925	30
84.0831	249
84.9766	42
85.0127	33
89.0269	64
90.0354	61
91.0433	414
92.0288	14
92.0505	328
92.981	25
93.0369	23
93.0586	79
93.9894	20
94.03	227
94.9956	53
96.0042	17
96.0444	14
96.9984	102
97.9825	47
98.0071	12
98.0973	82
104.0136	300
104.0502	20
106.0062	15
106.0294	581
106.0605	17
106.9828	37
107.0132	546
107.0355	101
107.9903	113
108.0436	15
108.9744	17
110.0054	72
112.0203	11
112.1125	83
113.0055	15
117.0212	23
119.99	36
120.011	11
120.0444	317
120.9972	9
121.0304	15
121.0519	169
122.0055	52
122.0357	107
124.9922	96
125.9773	15
132.0081	957
133.0156	45
134.001	11
134.0224	15
135.9838	18
137.9996	15
140.0165	17
141.0015	9
147.0326	30
148.0022	26
148.0397	31
149.0245	30
149.0466	66
150.0006	31
152.9872	15
168.0102	20
