Mass spectrum: Chloridazone-methyl-desphenyl; LC-ESI-QTOF; MS2; 40 V
Name: Chloridazone-methyl-desphenyl
Class: Herbicide; Transformation_product; Transformation_product-Metabolite
Formula: C5H6ClN3O
Exact mass: 159.0199
SMILES: CN1C(=O)C(=C(C=N1)N)Cl
InChI: InChI=1S/C5H6ClN3O/c1-9-5(10)4(6)3(7)2-8-9/h2H,7H2,1H3
Instrument: TripleTOF 6600 SCIEX
Instrument type: LC-ESI-QTOF
Ms type: MS2
Ion mode: POSITIVE
Collision energy: 40
Fragmentation mode: CID
Ionization: ESI
Column name: Zorbax Eclipse Plus C18 2.1 mm x 150 mm, 3.5 um, Agilent
Retention time: 4.787 min
Precursor m/z: 160.0272
Precursor type: [M+H]+
m/z	relative intensity
40.0172	66
42.0326	199
48.9846	66
52.0172	333
53.0248	66
54.0317	333
55.0269	66
57.0445	66
58.0266	66
60.9826	66
69.0435	133
75.9942	199
85.992	66
87.9929	999
88.9951	399
115.9876	66
116.9936	199
117.9997	133
130.0035	133
131.0053	199
146.0021	133
160.0265	399
161.0276	133
