Mass spectrum: 1-Oxo-ibuprofen; LC-ESI-QTOF; MS2; 30 V
Name: 1-Oxo-ibuprofen
Class: Pharmaceutical; Transformation_product
Formula: C13H16O3
Exact mass: 220.1099
SMILES: CC(C)C(=O)C1=CC=C(C=C1)C(C)C(=O)O
InChI: InChI=1S/C13H16O3/c1-8(2)12(14)11-6-4-10(5-7-11)9(3)13(15)16/h4-9H,1-3H3,(H,15,16)
Instrument: TripleTOF 5600 SCIEX
Instrument type: LC-ESI-QTOF
Ms type: MS2
Ion mode: POSITIVE
Collision energy: 30
Fragmentation mode: CID
Ionization: ESI
Column name: Zorbax Eclipse Plus C18 2.1 mm x 150 mm, 3.5 um, Agilent
Retention time: 10.239 min
Precursor m/z: 221.1172
Precursor type: [M+H]+
m/z	relative intensity
43.0252	71
55.0593	37
57.0762	53
67.0585	53
69.0737	28
71.0509	12
77.0399	28
79.0572	36
81.0727	71
83.0503	25
83.0875	53
91.0558	90
93.0708	32
95.0861	29
103.0554	12
105.0703	281
107.0492	10
107.0858	69
109.0646	37
109.101	152
111.0802	120
115.0528	10
117.0692	20
119.0851	80
121.0641	91
121.0995	26
123.0799	35
123.1161	22
129.0705	27
131.0856	49
132.0929	24
133.1013	999
134.1087	16
135.0796	62
135.1168	16
137.0615	14
137.0958	97
138.0695	17
142.077	46
145.1008	11
147.1166	42
151.1097	16
153.0898	33
157.1014	42
163.1101	13
165.0902	14
173.0954	12
175.1113	196
175.1488	47
188.1182	10
