Mass spectrum: Methabenzthiazuron; LC-ESI-QTOF; MS2; 40 V
Name: Methabenzthiazuron
Class: Herbicide
Formula: C10H11N3OS
Exact mass: 221.0623
SMILES: CNC(=O)N(C)c1sc2ccccc2n1
InChI: InChI=1S/C10H11N3OS/c1-11-9(14)13(2)10-12-7-5-3-4-6-8(7)15-10/h3-6H,1-2H3,(H,11,14)
Instrument: TripleTOF 5600 SCIEX
Instrument type: LC-ESI-QTOF
Ms type: MS2
Ion mode: POSITIVE
Collision energy: 40
Fragmentation mode: CID
Ionization: ESI
Column name: Zorbax Eclipse Plus C18 2.1 mm x 150 mm, 3.5 um, Agilent
Retention time: 9.783 min
Precursor m/z: 222.0696
Precursor type: [M+H]+
m/z	relative intensity
58.0331	14
65.0423	33
80.0522	92
92.0503	83
94.9948	10
96.004	153
97.0113	12
106.0522	17
109.0103	89
118.0525	29
122.0057	23
123.0138	228
124.0217	353
132.0672	29
136.0214	13
150.0248	999
163.0318	22
165.0483	902
