Mass spectrum: Triclabendazole; LC-ESI-QTOF; MS2; 80 V
Name: Triclabendazole
Class: Pharmaceutical
Formula: C14H9Cl3N2OS
Exact mass: 357.9501
SMILES: CSc1[nH]c2cc(Cl)c(Oc3cccc(Cl)c3Cl)cc2n1
InChI: InChI=1S/C14H9Cl3N2OS/c1-21-14-18-9-5-8(16)12(6-10(9)19-14)20-11-4-2-3-7(15)13(11)17/h2-6H,1H3,(H,18,19)
Instrument: TripleTOF 5600 SCIEX
Instrument type: LC-ESI-QTOF
Ms type: MS2
Ion mode: NEGATIVE
Collision energy: 80
Fragmentation mode: CID
Ionization: ESI
Column name: Zorbax Eclipse Plus C18 2.1 mm x 150 mm, 3.5 um, Agilent
Retention time: 13.11 min
Precursor m/z: 356.9428
Precursor type: [M-H]-
m/z	relative intensity
34.9732	104
57.9773	175
65.9997	250
152.9864	123
196.9584	999
