Mass spectrum: Triphenylphosphine sulfide; LC-ESI-QTOF; MS2; 130 V
Name: Triphenylphosphine sulfide
Class: Industrial_process
Formula: C18H15PS
Exact mass: 294.0632
SMILES: S=[P](c1ccccc1)(c2ccccc2)c3ccccc3
InChI: InChI=1S/C18H15PS/c20-19(16-10-4-1-5-11-16,17-12-6-2-7-13-17)18-14-8-3-9-15-18/h1-15H
Instrument: TripleTOF 5600 SCIEX
Instrument type: LC-ESI-QTOF
Ms type: MS2
Ion mode: POSITIVE
Collision energy: 130
Fragmentation mode: CID
Ionization: ESI
Column name: Zorbax Eclipse Plus C18 2.1 mm x 150 mm, 3.5 um, Agilent
Retention time: 14.508 min
Precursor m/z: 295.0705
Precursor type: [M+H]+
m/z	relative intensity
51.0285	230
55.9861	46
56.9937	85
62.9497	999
65.0413	59
74.0174	65
75.0258	46
76.0341	59
77.0419	85
78.9754	46
79.9834	197
80.9907	335
87.025	59
89.0403	223
91.9833	46
99.0279	26
100.0309	26
102.0476	78
102.0611	26
103.9818	39
104.9914	32
107.0051	709
113.0396	59
115.0547	170
126.0469	203
131.0063	92
138.0473	46
139.056	138
150.0467	197
151.0542	230
152.0638	289
155.0039	59
156.0136	65
157.021	157
179.0057	52
180.0146	85
181.0205	177
183.0357	26
