Mass spectrum: Amoxicillin; LC-ESI-QTOF; MS2; 60 V
Name: Amoxicillin
Class: Pharmaceutical
Formula: C16H19N3O5S
Exact mass: 365.1045
SMILES: CC1(S[C@@H]2[C@@H](C(N2[C@H]1C(O)=O)=O)NC([C@@H](c3ccc(O)cc3)N)=O)C
InChI: InChI=1S/C16H19N3O5S/c1-16(2)11(15(23)24)19-13(22)10(14(19)25-16)18-12(21)9(17)7-3-5-8(20)6-4-7/h3-6,9-11,14,20H,17H2,1-2H3,(H,18,21)(H,23,24)/t9-,10-,11+,14-/m1/s1
Instrument: TripleTOF 5600 SCIEX
Instrument type: LC-ESI-QTOF
Ms type: MS2
Ion mode: POSITIVE
Collision energy: 60
Fragmentation mode: CID
Ionization: ESI
Column name: Zorbax Eclipse Plus C18 2.1 mm x 150 mm, 3.5 um, Agilent
Retention time: 4.706 min
Precursor m/z: 366.1118
Precursor type: [M+H]+
m/z	relative intensity
70.0696	76
77.0404	64
86.0079	486
106.0401	76
106.0658	179
107.0494	371
114.001	999
114.0381	115
114.0497	64
116.0498	333
119.047	51
122.0595	115
133.054	115
134.0372	64
134.0597	768
137.0066	217
137.0708	64
139.0207	64
160.042	64
163.0187	64
