Mass spectrum: Octhilinone; LC-ESI-QTOF; MS2; 70 V
Name: Octhilinone
Class: Fungicide; Antimicrobial
Formula: C11H19NOS
Exact mass: 213.1187
SMILES: CCCCCCCCN1C(=O)C=CS1
InChI: InChI=1S/C11H19NOS/c1-2-3-4-5-6-7-9-12-11(13)8-10-14-12/h8,10H,2-7,9H2,1H3
Instrument: TripleTOF 6600 SCIEX
Instrument type: LC-ESI-QTOF
Ms type: MS2
Ion mode: POSITIVE
Collision energy: 70
Fragmentation mode: CID
Ionization: ESI
Column name: Zorbax Eclipse Plus C18 2.1 mm x 150 mm, 3.5 um, Agilent
Retention time: 11.855 min
Precursor m/z: 214.126
Precursor type: [M+H]+
m/z	relative intensity
36.0001	30
37.0077	106
38.0031	64
38.0154	100
39.0236	605
40.0072	12
40.0187	14
41.0392	705
43.0547	247
44.0135	102
44.9799	26
46.9951	14
47.9905	58
52.0058	12
53.0142	22
55.0187	28
55.0541	30
56.9798	999
57.0708	16
57.9874	56
58.9953	182
74.0069	34
83.9905	530
84.9742	190
102.0012	498
