Mass spectrum: Penconazol; LC-ESI-QTOF; MS2; 90 V
Name: Penconazol
Class: Fungicide
Formula: C13H15Cl2N3
Exact mass: 283.0643
SMILES: CCCC(CN1C=NC=N1)C2=C(C=C(C=C2)Cl)Cl
InChI: InChI=1S/C13H15Cl2N3/c1-2-3-10(7-18-9-16-8-17-18)12-5-4-11(14)6-13(12)15/h4-6,8-10H,2-3,7H2,1H3
Instrument: TripleTOF 6600 SCIEX
Instrument type: LC-ESI-QTOF
Ms type: MS2
Ion mode: POSITIVE
Collision energy: 90
Fragmentation mode: CID
Ionization: ESI
Column name: Zorbax Eclipse Plus C18 2.1 mm x 150 mm, 3.5 um, Agilent
Retention time: 12.845 min
Precursor m/z: 284.0716
Precursor type: [M+H]+
m/z	relative intensity
39.023	13
43.0296	133
46.9682	13
48.9841	17
50.0153	10
51.0232	20
61.0075	20
62.0154	80
63.0233	177
70.0405	435
72.9844	362
74.0152	32
75.023	115
76.0307	25
77.0384	16
82.9449	31
87.0231	19
88.0311	67
89.0392	999
96.9842	133
98.9998	187
101.0383	21
102.0465	86
103.0544	13
106.9447	14
123.0001	296
124.0076	81
132.9611	94
158.9764	62
