Mass spectrum: Meptazinol; LC-ESI-QTOF; MS2; 40 V
Name: Meptazinol
Class: Pharmaceutical
Formula: C15H23NO
Exact mass: 233.178
SMILES: CCC1(CCCCN(C1)C)C2=CC(=CC=C2)O
InChI: InChI=1S/C15H23NO/c1-3-15(9-4-5-10-16(2)12-15)13-7-6-8-14(17)11-13/h6-8,11,17H,3-5,9-10,12H2,1-2H3
Instrument: TripleTOF 5600 SCIEX
Instrument type: LC-ESI-QTOF
Ms type: MS2
Ion mode: POSITIVE
Collision energy: 40
Fragmentation mode: CID
Ionization: ESI
Column name: Zorbax Eclipse Plus C18 2.1 mm x 150 mm, 3.5 um, Agilent
Retention time: 5.641 min
Precursor m/z: 234.1852
Precursor type: [M+H]+
m/z	relative intensity
44.0494	40
55.0543	24
67.0545	31
70.0657	14
77.0389	106
79.0546	64
84.0814	15
91.0547	47
93.0706	14
95.0864	14
103.055	22
105.0703	87
107.0498	999
115.0546	11
119.0859	11
121.0655	78
126.129	15
128.0624	11
131.0499	13
132.0579	30
133.0658	160
145.0656	11
146.0737	34
147.081	78
161.0972	66
234.1869	33
