Mass spectrum: Didesmethyl-citalopram; LC-ESI-QTOF; MS2; 80 V
Name: Didesmethyl-citalopram
Class: Pharmaceutical; Metabolite
Formula: C18H17FN2O
Exact mass: 296.1325
SMILES: c1cc(ccc1C2(c3ccc(cc3CO2)C#N)CCCN)F
InChI: InChI=1S/C18H17FN2O/c19-16-5-3-15(4-6-16)18(8-1-9-20)17-7-2-13(11-21)10-14(17)12-22-18/h2-7,10H,1,8-9,12,20H2
Instrument: TripleTOF 5600 SCIEX
Instrument type: LC-ESI-QTOF
Ms type: MS2
Ion mode: POSITIVE
Collision energy: 80
Fragmentation mode: CID
Ionization: ESI
Column name: Zorbax Eclipse Plus C18 2.1 mm x 150 mm, 3.5 um, Agilent
Retention time: 7.575 min
Precursor m/z: 297.1398
Precursor type: [M+H]+
m/z	relative intensity
57.0203	105
59.0341	34
65.0428	12
74.0185	13
75.0259	45
77.0415	40
83.0316	753
87.0246	11
89.0404	316
90.0359	21
95.0301	28
99.0251	18
101.0395	34
107.0289	13
109.0448	999
113.0388	85
114.0352	41
115.055	74
116.0489	132
120.0358	11
125.0378	23
126.0458	19
127.0544	52
128.061	30
133.044	80
139.0537	54
140.0493	256
142.0568	12
146.0515	25
149.0391	19
150.0455	22
151.0508	18
152.0586	17
153.0578	13
155.0635	10
157.0443	20
161.038	10
163.0551	47
164.0516	20
166.0641	15
168.0366	25
169.0437	19
170.0531	60
173.0387	15
174.0463	45
175.052	41
176.0586	22
177.0552	17
181.045	90
182.0487	25
183.0616	49
186.0455	13
187.0545	82
188.0497	62
189.0661	62
190.0644	57
192.0349	14
193.0445	28
194.0519	115
195.0506	44
196.0683	14
198.046	39
199.053	174
200.0614	203
201.0615	84
202.0726	23
205.0444	43
206.0527	59
207.06	200
208.0555	208
211.0544	19
212.05	48
213.0696	154
214.0657	113
215.083	14
217.0412	34
218.052	294
219.0599	264
220.0667	209
221.0654	133
224.0585	19
225.0564	165
226.065	165
227.0722	146
228.0584	10
230.0455	12
231.0582	78
232.057	183
233.0748	111
234.0723	33
238.0644	87
239.0745	25
240.0804	133
242.0569	13
243.0499	38
244.0583	108
245.0633	811
246.0728	65
247.0708	12
256.0559	12
258.0707	92
259.0785	40
