Mass spectrum: Propoxur; LC-ESI-QTOF; MS2; 120 V
Name: Propoxur
Class: Insecticide
Formula: C11H15NO3
Exact mass: 209.1052
SMILES: CNC(=O)Oc1ccccc1OC(C)C
InChI: InChI=1S/C11H15NO3/c1-8(2)14-9-6-4-5-7-10(9)15-11(13)12-3/h4-8H,1-3H3,(H,12,13)
Instrument: TripleTOF 5600 SCIEX
Instrument type: LC-ESI-QTOF
Ms type: MS2
Ion mode: POSITIVE
Collision energy: 120
Fragmentation mode: CID
Ionization: ESI
Column name: Zorbax Eclipse Plus C18 2.1 mm x 150 mm, 3.5 um, Agilent
Retention time: 9.472 min
Precursor m/z: 210.1125
Precursor type: [M+H]+
m/z	relative intensity
58.0368	999
65.0429	666
