Mass spectrum: Valsartan; LC-ESI-QTOF; MS2; 150 V
Name: Valsartan
Class: Pharmaceutical
Formula: C24H29N5O3
Exact mass: 435.227
SMILES: CCCCC(=O)N(Cc1ccc(cc1)c2ccccc2c3n[nH]nn3)[C@@H](C(C)C)C(O)=O
InChI: InChI=1S/C24H29N5O3/c1-4-5-10-21(30)29(22(16(2)3)24(31)32)15-17-11-13-18(14-12-17)19-8-6-7-9-20(19)23-25-27-28-26-23/h6-9,11-14,16,22H,4-5,10,15H2,1-3H3,(H,31,32)(H,25,26,27,28)/t22-/m0/s1
Instrument: TripleTOF 5600 SCIEX
Instrument type: LC-ESI-QTOF
Ms type: MS2
Ion mode: POSITIVE
Collision energy: 150
Fragmentation mode: CID
Ionization: ESI
Column name: Zorbax Eclipse Plus C18 2.1 mm x 150 mm, 3.5 um, Agilent
Retention time: 11.443 min
Precursor m/z: 436.2343
Precursor type: [M+H]+
m/z	relative intensity
65.0419	21
74.0178	43
75.0254	102
76.0327	30
77.0415	216
78.0486	28
86.0174	24
87.0246	71
88.0311	30
89.0404	114
98.0162	30
99.0229	58
101.0389	61
102.0469	99
111.023	25
113.0385	154
114.0338	40
114.0461	37
115.054	129
116.0465	10
125.0393	102
126.0467	235
127.0536	157
128.0617	71
137.0388	120
138.0343	28
138.0469	52
139.0536	202
140.0489	182
141.0588	13
149.0381	58
150.0471	684
150.0784	12
151.0546	999
152.0621	810
152.0887	10
153.0573	54
154.067	13
161.0384	69
162.0446	83
163.0543	500
164.0498	439
165.0695	129
166.0647	13
175.0532	48
176.062	394
177.0573	241
178.0648	167
179.0684	25
180.0786	12
187.0407	18
188.05	190
189.0577	64
190.0651	132
191.0614	12
204.065	15
205.0757	55
