Mass spectrum: Desmetryn; LC-ESI-QTOF; MS2; 70 V
Name: Desmetryn
Class: Herbicide
Formula: C8H15N5S
Exact mass: 213.1048
SMILES: CC(C)NC1=NC(=NC(=N1)NC)SC
InChI: InChI=1S/C8H15N5S/c1-5(2)10-7-11-6(9-3)12-8(13-7)14-4/h5H,1-4H3,(H2,9,10,11,12,13)
Instrument: TripleTOF 6600 SCIEX
Instrument type: LC-ESI-QTOF
Ms type: MS2
Ion mode: POSITIVE
Collision energy: 70
Fragmentation mode: CID
Ionization: ESI
Column name: Zorbax Eclipse Plus C18 2.1 mm x 150 mm, 3.5 um, Agilent
Retention time: 7.281 min
Precursor m/z: 214.1121
Precursor type: [M+H]+
m/z	relative intensity
39.0219	39
41.0123	10
41.0373	45
42.0201	17
42.0323	20
43.0281	458
44.9778	43
46.9936	91
53.0117	42
55.0278	298
57.0436	999
58.9806	16
59.9882	22
68.0228	432
72.9969	11
74.0042	226
82.0383	921
84.9838	13
88.0188	10
