Mass spectrum: Meperidine; LC-ESI-QTOF; MS2; 40 V
Name: Meperidine
Class: Pharmaceutical
Formula: C15H21NO2
Exact mass: 247.1572
SMILES: CCOC(=O)C1(CCN(CC1)C)C2=CC=CC=C2
InChI: InChI=1S/C15H21NO2/c1-3-18-14(17)15(9-11-16(2)12-10-15)13-7-5-4-6-8-13/h4-8H,3,9-12H2,1-2H3
Instrument: TripleTOF 6600 SCIEX
Instrument type: LC-ESI-QTOF
Ms type: MS2
Ion mode: POSITIVE
Collision energy: 40
Fragmentation mode: CID
Ionization: ESI
Column name: Zorbax Eclipse Plus C18 2.1 mm x 150 mm, 3.5 um, Agilent
Retention time: 6.573 min
Precursor m/z: 248.1645
Precursor type: [M+H]+
m/z	relative intensity
42.0335	59
44.0493	231
70.0647	738
77.0377	17
81.0325	12
82.0639	21
83.0725	12
91.0535	246
96.08	59
97.0878	32
98.0957	74
99.0432	43
103.0537	215
105.0325	13
105.0686	50
115.0532	56
116.0611	42
117.069	102
128.061	29
129.0689	63
130.0767	25
131.0849	370
143.0843	22
145.1006	24
158.0956	15
159.1031	17
172.1116	33
174.1273	810
176.1425	144
184.1111	42
202.1212	27
220.1335	999
248.1647	95
