Mass spectrum: Ethylene Terephthalate Cyclic Trimer; LC-ESI-QTOF; MS2; 150 V
Name: Ethylene Terephthalate Cyclic Trimer
Class: Industrial_process
Formula: C30H24O12
Exact mass: 576.1268
SMILES: C1COC(=O)C2=CC=C(C=C2)C(=O)OCCOC(=O)C3=CC=C(C=C3)C(=O)OCCOC(=O)C4=CC=C(C=C4)C(=O)O1
InChI: InChI=1S/C30H24O12/c31-25-19-1-2-20(4-3-19)26(32)38-15-16-40-28(34)22-9-11-24(12-10-22)30(36)42-18-17-41-29(35)23-7-5-21(6-8-23)27(33)39-14-13-37-25/h1-12H,13-18H2
Instrument: TripleTOF 6600 SCIEX
Instrument type: LC-ESI-QTOF
Ms type: MS2
Ion mode: POSITIVE
Collision energy: 150
Fragmentation mode: CID
Ionization: ESI
Column name: Zorbax Eclipse Plus C18 2.1 mm x 150 mm, 3.5 um, Agilent
Retention time: 14.542 min
Precursor m/z: 577.1341
Precursor type: [M+H]+
m/z	relative intensity
39.0224	136
65.0378	999
74.0142	56
75.0219	193
76.0293	48
77.0373	120
93.0319	96
103.0168	56
104.0253	80
121.0264	225
121.0391	40
149.0259	394
151.053	48
152.0609	88
