Mass spectrum: Oxadixyl; LC-ESI-QTOF; MS2; 110 V
Name: Oxadixyl
Class: Fungicide
Formula: C14H18N2O4
Exact mass: 278.1267
SMILES: CC1=C(C(=CC=C1)C)N(C(=O)COC)N2CCOC2=O
InChI: InChI=1S/C14H18N2O4/c1-10-5-4-6-11(2)13(10)16(12(17)9-19-3)15-7-8-20-14(15)18/h4-6H,7-9H2,1-3H3
Instrument: TripleTOF 6600 SCIEX
Instrument type: LC-ESI-QTOF
Ms type: MS2
Ion mode: POSITIVE
Collision energy: 110
Fragmentation mode: CID
Ionization: ESI
Column name: Zorbax Eclipse Plus C18 2.1 mm x 150 mm, 3.5 um, Agilent
Retention time: 8.678 min
Precursor m/z: 279.1339
Precursor type: [M+H]+
m/z	relative intensity
51.0215	541
63.0214	416
65.0372	291
77.0373	999
89.0367	999
90.045	624
91.0522	374
104.0473	166
117.0546	749
