Mass spectrum: 4-[(4-Aminophenyl)(4-iminocyclohexa-2,5-dien-1-ylidene)methyl]-2-methylaniline; LC-ESI-QTOF; MS2; 50 V
Name: 4-[(4-Aminophenyl)(4-iminocyclohexa-2,5-dien-1-ylidene)methyl]-2-methylaniline
Formula: C20H19N3
Exact mass: 301.1579
SMILES: CC1=CC(=C(C2=CC=C(C=C2)N)C3=CC=C(C=C3)N)C=CC1=N
InChI: InChI=1S/C20H19N3/c1-13-12-16(6-11-19(13)23)20(14-2-7-17(21)8-3-14)15-4-9-18(22)10-5-15/h2-12,23H,21-22H2,1H3
Instrument: TripleTOF X500R SCIEX
Instrument type: LC-ESI-QTOF
Ms type: MS2
Ion mode: POSITIVE
Collision energy: 50
Fragmentation mode: CID
Ionization: ESI
Column name: Zorbax Eclipse Plus C18 2.1 mm x 150 mm, 3.5 um, Agilent
Retention time: 7.598 min
Precursor m/z: 302.1652
Precursor type: [M+H]+
m/z	relative intensity
106.0659	99
115.055	18
130.0664	10
140.0502	12
141.0701	30
143.0736	31
150.0477	12
151.0544	83
152.0617	24
153.0706	15
154.0656	30
155.0789	11
164.0633	14
165.0707	177
166.0683	36
167.0734	209
168.081	173
169.083	20
176.0619	10
177.0583	31
178.0658	112
179.0704	18
180.0801	71
181.0891	54
182.0969	106
190.0656	12
191.0737	71
192.0816	124
193.0877	260
194.0853	164
195.0923	825
201.0712	11
202.0775	14
206.0868	16
207.0936	41
208.1004	264
209.1079	999
215.0877	14
216.0855	10
217.0906	33
218.0975	16
219.0921	12
221.1087	29
226.0803	20
227.0805	14
228.0836	17
229.0902	16
230.097	48
231.1022	15
232.1037	11
234.1144	12
235.1242	13
239.0877	22
240.0862	16
241.0887	23
241.1067	11
242.0975	32
243.1037	54
244.1102	29
245.1085	95
246.1158	33
250.0787	12
252.0866	35
253.0915	17
254.0971	109
255.0951	40
256.1041	43
257.1059	25
258.1159	43
259.1243	47
260.1245	19
266.0972	13
267.1053	49
268.1125	73
269.1076	307
270.1176	102
271.1233	397
272.1198	99
273.1265	15
282.1175	10
283.1227	36
284.1294	40
285.1392	188
286.1345	615
287.1433	118
300.1509	65
302.1661	252
