Mass spectrum: Chlorothiazide; LC-ESI-QTOF; MS2; 40 V
Name: Chlorothiazide
Class: Pharmaceutical
Formula: C7H6ClN3O4S2
Exact mass: 294.9488
SMILES: N[S](=O)(=O)c1cc2c(NC=N[S]2(=O)=O)cc1Cl
InChI: InChI=1S/C7H6ClN3O4S2/c8-4-1-5-7(2-6(4)16(9,12)13)17(14,15)11-3-10-5/h1-3H,(H,10,11)(H2,9,12,13)
Instrument: TripleTOF 5600 SCIEX
Instrument type: LC-ESI-QTOF
Ms type: MS2
Ion mode: POSITIVE
Collision energy: 40
Fragmentation mode: CID
Ionization: ESI
Column name: Zorbax Eclipse Plus C18 2.1 mm x 150 mm, 3.5 um, Agilent
Retention time: 5.43 min
Precursor m/z: 295.9561
Precursor type: [M+H]+
m/z	relative intensity
96.9842	170
97.98	318
104.9551	148
106.9807	106
111.994	127
114.011	127
117.0443	233
123.0001	106
123.9943	935
125.0014	148
129.0196	255
130.0028	170
131.9653	233
139.9886	658
141.9501	446
141.9674	106
151.0078	148
152.0151	85
154.9998	361
155.9844	595
157.0154	467
157.9986	127
169.9463	233
187.9544	233
203.9492	680
204.9824	786
214.9668	637
220.9767	552
230.9617	616
242.9791	212
268.9452	127
278.9282	999
295.9542	722
