Mass spectrum: Betamethasone; LC-ESI-QTOF; MS2; 100 V
Name: Betamethasone
Class: Pharmaceutical
Formula: C22H29FO5
Exact mass: 392.1999
SMILES: C[C@H]1C[C@H]2[C@@H]3CCC4=CC(=O)C=C[C@@]4([C@]3([C@H](C[C@@]2([C@]1(C(=O)CO)O)C)O)F)C
InChI: InChI=1S/C22H29FO5/c1-12-8-16-15-5-4-13-9-14(25)6-7-19(13,2)21(15,23)17(26)10-20(16,3)22(12,28)18(27)11-24/h6-7,9,12,15-17,24,26,28H,4-5,8,10-11H2,1-3H3/t12-,15-,16-,17-,19-,20-,21-,22-/m0/s1
Instrument: TripleTOF 5600 SCIEX
Instrument type: LC-ESI-QTOF
Ms type: MS2
Ion mode: POSITIVE
Collision energy: 100
Fragmentation mode: CID
Ionization: ESI
Column name: Zorbax Eclipse Plus C18 2.1 mm x 150 mm, 3.5 um, Agilent
Retention time: 9.016 min
Precursor m/z: 393.2072
Precursor type: [M+H]+
m/z	relative intensity
43.0278	53
51.0311	53
55.0299	17
65.0454	159
67.0589	81
77.0431	743
78.0506	49
79.0593	170
81.0741	35
89.0404	31
91.057	999
93.0728	70
95.0878	24
102.0482	63
103.0554	194
104.0645	49
105.0708	209
107.0503	92
107.0865	28
108.0591	17
109.1047	17
115.0555	800
116.0623	148
117.0712	134
119.0518	17
119.0865	92
120.0604	21
121.0649	336
126.0462	53
127.0542	269
128.0625	779
129.0695	223
130.0805	31
131.0496	247
131.0819	28
132.0569	177
133.0458	24
135.0791	28
139.0527	46
140.067	21
141.0705	396
142.0776	67
143.0876	17
144.0573	88
145.0647	81
146.0527	21
146.0721	21
147.0803	56
150.0467	21
151.0534	99
152.0626	364
153.0698	244
154.0792	53
155.0502	46
155.0871	42
157.0648	102
158.0722	42
159.0617	17
163.0557	31
164.065	63
165.0701	630
166.0785	102
167.0837	60
168.0568	49
169.065	70
170.0558	24
171.0799	42
176.0625	123
177.0696	99
178.0772	517
179.0869	187
180.0982	14
181.0634	212
181.0971	14
182.0722	28
183.0773	28
184.0867	17
188.0627	17
189.0704	471
190.0771	212
191.0836	205
192.0931	53
193.0629	17
193.0992	17
194.0728	70
195.0823	67
200.0606	21
201.0707	74
202.0772	425
203.0864	212
204.0942	49
205.0676	88
205.1017	60
206.0714	35
207.0796	88
208.0906	35
209.0965	21
213.0721	42
214.0813	28
215.0857	350
216.093	63
218.0737	109
219.0769	67
219.1194	21
221.0958	38
226.0752	134
227.0866	77
228.0953	116
229.099	70
231.0788	170
232.0807	31
232.0975	21
233.0921	53
234.076	14
239.0834	74
241.0993	17
243.1132	17
245.0954	56
252.0935	21
273.0985	14
