Mass spectrum: Cyprodinil; LC-ESI-QTOF; MS2; 130 V
Name: Cyprodinil
Class: Fungicide
Formula: C14H15N3
Exact mass: 225.1266
SMILES: CC1=CC(=NC(=N1)NC2=CC=CC=C2)C3CC3
InChI: InChI=1S/C14H15N3/c1-10-9-13(11-7-8-11)17-14(15-10)16-12-5-3-2-4-6-12/h2-6,9,11H,7-8H2,1H3,(H,15,16,17)
Instrument: TripleTOF 6600 SCIEX
Instrument type: LC-ESI-QTOF
Ms type: MS2
Ion mode: POSITIVE
Collision energy: 130
Fragmentation mode: CID
Ionization: ESI
Column name: Zorbax Eclipse Plus C18 2.1 mm x 150 mm, 3.5 um, Agilent
Retention time: 10.83 min
Precursor m/z: 226.1339
Precursor type: [M+H]+
m/z	relative intensity
35.9994	34
37.0073	205
38.0031	14
38.0153	185
39.0232	479
40.0179	22
41.0261	37
41.0385	25
42.0341	111
47.9996	14
49.0072	219
50.0152	999
51.023	856
52.018	74
52.0304	17
53.0125	17
53.0383	28
54.0333	34
61.007	82
62.015	137
63.0227	185
64.0182	31
64.0304	17
65.0258	14
65.0383	111
66.0331	22
66.0463	19
67.0283	28
67.0401	17
73.007	22
74.0149	128
75.0102	17
75.0225	45
76.018	31
77.0385	71
78.033	17
80.0483	22
86.0152	17
87.0216	17
89.0378	22
92.049	28
98.0156	19
113.0401	34
