Mass spectrum: 6`-Hydroxymethyl Simvastatin; LC-ESI-QTOF; MS2; 110 V
Name: 6`-Hydroxymethyl Simvastatin
Class: Metabolite; Pharmaceutical
Formula: C25H38O6
Exact mass: 434.2668
SMILES: CCC(C)(C)C(=O)OC1CC(C=C2C1C(C(C=C2)C)CCC3CC(CC(=O)O3)O)CO
InChI: InChI=1S/C25H38O6/c1-5-25(3,4)24(29)31-21-11-16(14-26)10-17-7-6-15(2)20(23(17)21)9-8-19-12-18(27)13-22(28)30-19/h6-7,10,15-16,18-21,23,26-27H,5,8-9,11-14H2,1-4H3
Instrument: TripleTOF 5600 SCIEX
Instrument type: LC-ESI-QTOF
Ms type: MS2
Ion mode: POSITIVE
Collision energy: 110
Fragmentation mode: CID
Ionization: ESI
Column name: Zorbax Eclipse Plus C18 2.1 mm x 150 mm, 3.5 um, Agilent
Retention time: 10.786 min
Precursor m/z: 435.2741
Precursor type: [M+H]+
m/z	relative intensity
77.0441	219
79.0606	99
91.0576	139
105.0751	119
115.0552	499
127.0566	219
128.0629	579
129.0715	279
141.0717	999
142.08	359
143.0851	99
151.0542	79
152.0627	419
153.0704	579
154.0781	139
155.0881	239
156.0949	119
157.0947	79
165.071	639
166.08	159
167.0832	299
178.0812	319
179.0904	139
189.0727	79
