Mass spectrum: Metolachlor; LC-ESI-QTOF; MS2; 100 V
Name: Metolachlor
Class: Herbicide
Formula: C15H22ClNO2
Exact mass: 283.1339
SMILES: CCc1cccc(C)c1N(C(C)COC)C(=O)CCl
InChI: InChI=1S/C15H22ClNO2/c1-5-13-8-6-7-11(2)15(13)17(14(18)9-16)12(3)10-19-4/h6-8,12H,5,9-10H2,1-4H3
Instrument: TripleTOF 5600 SCIEX
Instrument type: LC-ESI-QTOF
Ms type: MS2
Ion mode: POSITIVE
Collision energy: 100
Fragmentation mode: CID
Ionization: ESI
Column name: Zorbax Eclipse Plus C18 2.1 mm x 150 mm, 3.5 um, Agilent
Retention time: 13.304 min
Precursor m/z: 284.1412
Precursor type: [M+H]+
m/z	relative intensity
43.0251	11
45.0414	161
48.9903	145
65.0432	599
66.0502	53
73.0689	55
74.0193	15
75.0252	13
76.0342	15
77.0418	870
78.0367	15
78.0492	151
79.0566	90
80.0513	17
89.0406	163
89.0648	11
90.0474	126
91.0564	999
92.0507	29
92.0618	13
93.0584	297
94.0425	15
101.0406	19
102.0467	66
103.0549	295
104.0506	63
104.0623	35
105.0692	88
106.0658	187
107.0743	21
114.0457	15
115.0549	498
116.0495	21
116.0603	45
117.0576	498
118.0654	258
119.0728	43
120.0811	25
127.0555	47
128.0486	86
128.0623	35
129.0576	25
130.0655	839
131.072	116
132.0804	130
140.0483	11
141.0574	17
142.065	74
143.0732	135
144.0811	285
145.0889	15
146.0618	25
154.0652	13
156.0802	19
157.0887	11
158.0946	11
