Mass spectrum: Climbazole; LC-ESI-QTOF; MS2; 130 V
Name: Climbazole
Class: Pharmaceutical; Personal_care_product
Formula: C15H17ClN2O2
Exact mass: 292.0979
SMILES: CC(C)(C)C(=O)C(Oc1ccc(Cl)cc1)n2ccnc2
InChI: InChI=1S/C15H17ClN2O2/c1-15(2,3)13(19)14(18-9-8-17-10-18)20-12-6-4-11(16)5-7-12/h4-10,14H,1-3H3
Instrument: TripleTOF 5600 SCIEX
Instrument type: LC-ESI-QTOF
Ms type: MS2
Ion mode: POSITIVE
Collision energy: 130
Fragmentation mode: CID
Ionization: ESI
Column name: Zorbax Eclipse Plus C18 2.1 mm x 150 mm, 3.5 um, Agilent
Retention time: 8.761 min
Precursor m/z: 293.1051
Precursor type: [M+H]+
m/z	relative intensity
42.0476	27
48.9903	15
55.0595	22
57.0751	134
62.0327	13
65.0411	29
67.0313	15
68.0404	27
69.0472	111
69.0726	15
72.9868	230
73.0101	84
73.0402	11
74.0179	999
74.0496	15
74.0653	13
75.0258	483
76.034	20
77.0395	27
81.0457	18
84.9854	114
89.0397	13
99.0009	29
99.0171	13
110.998	27
