Mass spectrum: 2-Hydroxycarbamazepine; LC-ESI-QTOF; MS2; 90 V
Name: 2-Hydroxycarbamazepine
Class: Pharmaceutical; Metabolite; Transformation_product-Metabolite
Formula: C15H12N2O2
Exact mass: 252.0899
SMILES: NC(=O)N1c2ccccc2C=Cc3cc(O)ccc13
InChI: InChI=1S/C15H12N2O2/c16-15(19)17-13-4-2-1-3-10(13)5-6-11-9-12(18)7-8-14(11)17/h1-9,18H,(H2,16,19)
Instrument: TripleTOF 5600 SCIEX
Instrument type: LC-ESI-QTOF
Ms type: MS2
Ion mode: NEGATIVE
Collision energy: 90
Fragmentation mode: CID
Ionization: ESI
Column name: Zorbax Eclipse Plus C18 2.1 mm x 150 mm, 3.5 um, Agilent
Retention time: 7.476 min
Precursor m/z: 251.0826
Precursor type: [M-H]-
m/z	relative intensity
41.0076	856
42.0019	856
42.0148	285
50.0083	142
66.0002	428
90.0347	285
115.0536	142
116.0533	285
140.052	570
164.0529	428
165.0695	285
166.0632	999
