Mass spectrum: Flavanone; LC-ESI-QTOF; MS2; 140 V
Name: Flavanone
Class: Personal_care_product
Formula: C15H12O2
Exact mass: 224.0837
SMILES: C1C(OC2=CC=CC=C2C1=O)C3=CC=CC=C3
InChI: InChI=1S/C15H12O2/c16-13-10-15(11-6-2-1-3-7-11)17-14-9-5-4-8-12(13)14/h1-9,15H,10H2
Instrument: TripleTOF 5600 SCIEX
Instrument type: LC-ESI-QTOF
Ms type: MS2
Ion mode: POSITIVE
Collision energy: 140
Fragmentation mode: CID
Ionization: ESI
Column name: Zorbax Eclipse Plus C18 2.1 mm x 150 mm, 3.5 um, Agilent
Retention time: 12.61 min
Precursor m/z: 225.091
Precursor type: [M+H]+
m/z	relative intensity
37.0074	258
38.0153	172
39.0231	344
49.0078	155
50.015	999
51.0231	912
53.0028	86
61.0068	103
62.014	189
63.0235	172
73.0072	120
74.0147	585
75.0236	120
77.039	189
85.0058	86
86.015	86
98.0152	189
110.0147	68
