Mass spectrum: Dimethenamid-ESA; LC-ESI-QTOF; MS2; 100 V
Name: Dimethenamid-ESA
Class: Transformation_product; Herbicide; Metabolite
Formula: C12H19NO5S2
Exact mass: 321.0705
SMILES: CC1=CSC(=C1N(C(C)COC)C(=O)CS(=O)(=O)O)C
InChI: InChI=1S/C12H19NO5S2/c1-8-6-19-10(3)12(8)13(9(2)5-18-4)11(14)7-20(15,16)17/h6,9H,5,7H2,1-4H3,(H,15,16,17)
Instrument: TripleTOF 6600 SCIEX
Instrument type: LC-ESI-QTOF
Ms type: MS2
Ion mode: POSITIVE
Collision energy: 100
Fragmentation mode: CID
Ionization: ESI
Column name: Zorbax Eclipse Plus C18 2.1 mm x 150 mm, 3.5 um, Agilent
Retention time: 7.036 min
Precursor m/z: 322.0778
Precursor type: [M+H]+
m/z	relative intensity
38.0162	53
39.0236	365
41.0388	247
42.0342	107
43.0186	193
44.9797	461
45.0341	225
50.0153	75
51.0233	193
53.0387	365
54.0343	118
55.0546	75
57.9868	96
58.9953	397
59.9903	118
63.0235	118
64.0306	64
65.0387	623
66.0473	225
67.0414	85
67.0546	311
68.9797	107
70.9954	214
77.0387	859
78.0351	225
78.0463	225
79.0542	268
80.0497	623
81.0579	53
81.0708	42
82.0658	75
82.9964	42
84.0024	64
85.0121	150
85.971	53
89.0391	107
90.047	85
91.0414	193
91.054	923
92.0495	257
93.0571	515
94.0648	999
97.0107	827
99.0254	107
104.0493	504
105.0573	204
105.0701	53
106.0646	365
107.0744	96
108.0805	107
109.0109	247
110.0188	96
111.026	483
112.0209	118
115.0541	128
116.0494	42
117.0573	590
118.065	966
119.0361	96
119.072	290
120.0808	171
122.0068	96
123.0129	128
124.0209	322
125.0299	64
125.0423	128
126.0363	483
130.0648	96
132.0804	214
134.0182	204
135.0125	53
136.0213	504
137.0291	128
138.0358	107
148.0198	53
149.0312	96
150.0368	504
151.0449	64
152.0168	268
