Mass spectrum: Omeprazole; LC-ESI-QTOF; MS2; 40 V
Name: Omeprazole
Class: Pharmaceutical
Formula: C17H19N3O3S
Exact mass: 345.1147
SMILES: COc1ccc2nc([nH]c2c1)[S](=O)Cc3ncc(C)c(OC)c3C
InChI: InChI=1S/C17H19N3O3S/c1-10-8-18-15(11(2)16(10)23-4)9-24(21)17-19-13-6-5-12(22-3)7-14(13)20-17/h5-8H,9H2,1-4H3,(H,19,20)
Instrument: TripleTOF 5600 SCIEX
Instrument type: LC-ESI-QTOF
Ms type: MS2
Ion mode: POSITIVE
Collision energy: 40
Fragmentation mode: CID
Ionization: ESI
Column name: Zorbax Eclipse Plus C18 2.1 mm x 150 mm, 3.5 um, Agilent
Retention time: 6.462 min
Precursor m/z: 346.122
Precursor type: [M+H]+
m/z	relative intensity
106.0654	17
108.0814	48
120.0809	66
121.0887	165
122.0969	75
134.048	26
136.0228	12
136.0757	999
149.0711	221
150.0913	367
151.0991	593
152.0173	54
165.0245	74
166.0323	19
166.0867	23
168.1021	117
179.0272	168
180.0475	788
181.0549	180
198.0578	458
