Mass spectrum: Fluazifop-P-butyl; LC-ESI-QTOF; MS2; 140 V
Name: Fluazifop-P-butyl
Class: Herbicide
Formula: C19H20F3NO4
Exact mass: 383.1344
SMILES: CCCCOC(=O)C(C)OC1=CC=C(C=C1)OC2=NC=C(C=C2)C(F)(F)F
InChI: InChI=1S/C19H20F3NO4/c1-3-4-11-25-18(24)13(2)26-15-6-8-16(9-7-15)27-17-10-5-14(12-23-17)19(20,21)22/h5-10,12-13H,3-4,11H2,1-2H3
Instrument: TripleTOF 6600 SCIEX
Instrument type: LC-ESI-QTOF
Ms type: MS2
Ion mode: POSITIVE
Collision energy: 140
Fragmentation mode: CID
Ionization: ESI
Column name: Zorbax Eclipse Plus C18 2.1 mm x 150 mm, 3.5 um, Agilent
Retention time: 15.933 min
Precursor m/z: 384.1417
Precursor type: [M+H]+
m/z	relative intensity
30.9979	24
35.9991	43
37.0074	260
38.0033	26
38.0151	234
39.0231	999
41.0386	119
43.018	12
49.0078	46
50.0151	305
51.0037	48
51.0225	463
52.0181	39
52.0296	15
53.0016	12
53.0133	13
53.0378	19
55.0175	19
57.0132	52
59.9987	29
61.0064	119
62.0148	211
63.0226	520
64.0176	24
64.031	52
65.0384	274
66.0452	12
68.9938	365
69.0122	20
70.0206	83
73.0061	45
74.0146	431
75.0042	993
75.021	149
76.0173	293
77.0378	404
78.0332	133
78.9969	12
80.0047	17
81.0137	79
81.0326	36
82.0064	12
83.0281	45
83.9982	13
85.0061	34
86.0144	93
87.0216	166
88.03	163
89.0377	114
90.034	15
90.0432	13
91.0528	60
92.0031	13
92.9935	31
93.0124	17
94.0032	10
96.026	43
97.005	12
97.0305	22
98.0145	74
99.0033	296
99.0214	32
99.9978	38
100.0107	100
101.0196	55
101.0381	57
102.0451	104
103.0531	57
104.0104	10
104.0493	12
105.0124	15
106.007	10
106.0193	43
107.0152	13
107.0279	79
110.0131	12
111.0215	36
112.0126	26
113.0192	17
113.0377	326
114.0333	76
114.0437	64
115.0519	71
116.0047	13
116.0281	10
117.013	53
119.0094	74
120.0174	19
120.036	12
121.0066	10
122.0134	107
123.0218	123
124.0169	43
125.0184	53
126.013	161
127.0202	26
127.0371	10
128.0474	69
129.0493	41
130.0393	12
130.0651	15
131.0281	105
132.0195	19
132.036	41
133.0432	65
134.0366	13
137.0195	13
138.0304	34
139.0451	55
140.0494	194
141.0556	64
143.0289	29
144.0348	17
145.0235	15
146.0186	53
147.0298	10
148.0151	13
150.0335	19
151.0331	130
152.0291	19
157.0485	13
158.04	64
159.0471	19
161.0191	15
162.0263	48
163.0394	12
164.0307	19
166.047	10
168.0421	17
169.0248	12
177.037	19
182.0358	10
188.0273	10
190.0448	24
208.038	13
