Mass spectrum: Betamethasone; LC-ESI-QTOF; MS2; 50 V
Name: Betamethasone
Class: Pharmaceutical
Formula: C22H29FO5
Exact mass: 392.1999
SMILES: C[C@H]1C[C@H]2[C@@H]3CCC4=CC(=O)C=C[C@@]4([C@]3([C@H](C[C@@]2([C@]1(C(=O)CO)O)C)O)F)C
InChI: InChI=1S/C22H29FO5/c1-12-8-16-15-5-4-13-9-14(25)6-7-19(13,2)21(15,23)17(26)10-20(16,3)22(12,28)18(27)11-24/h6-7,9,12,15-17,24,26,28H,4-5,8,10-11H2,1-3H3/t12-,15-,16-,17-,19-,20-,21-,22-/m0/s1
Instrument: TripleTOF 5600 SCIEX
Instrument type: LC-ESI-QTOF
Ms type: MS2
Ion mode: POSITIVE
Collision energy: 50
Fragmentation mode: CID
Ionization: ESI
Column name: Zorbax Eclipse Plus C18 2.1 mm x 150 mm, 3.5 um, Agilent
Retention time: 9.016 min
Precursor m/z: 393.2072
Precursor type: [M+H]+
m/z	relative intensity
43.0292	37
67.0614	35
69.0395	20
69.076	24
77.0436	73
79.059	80
81.0744	37
91.0571	230
93.0725	129
95.0539	26
95.0876	140
97.0675	24
103.0546	29
105.0721	232
107.0508	46
107.0867	223
109.0649	33
109.103	93
111.082	22
115.0554	82
116.0634	22
117.0703	96
119.0864	308
121.0655	489
121.1015	82
123.0807	78
125.0598	33
125.0971	20
127.054	31
128.0627	167
129.0712	93
130.0818	22
131.0512	20
131.0866	167
132.0589	51
133.0655	84
133.1021	67
135.0806	243
137.0638	11
137.0966	44
141.0706	96
142.0774	58
142.0928	11
143.0863	219
144.0579	60
144.0917	11
145.0649	192
145.101	109
146.075	60
147.0808	999
149.0708	11
149.0974	44
151.0759	37
152.0633	22
153.0695	46
154.0777	24
155.0872	118
156.0579	20
156.0948	26
157.0635	26
157.1016	84
158.0729	127
159.081	359
161.0662	13
161.0967	196
163.0755	26
163.1128	13
165.0705	73
166.0769	35
167.0866	73
168.0599	13
168.0936	22
169.0653	60
169.1021	53
170.0736	40
171.0811	554
171.1182	15
172.0876	40
173.0965	236
174.0873	11
175.0729	13
175.1123	29
176.0708	11
177.0925	11
178.0782	75
179.0873	154
180.0954	46
181.0647	55
181.1033	51
182.0716	51
183.0801	67
183.116	33
184.0896	35
185.0975	225
186.106	11
187.0756	80
187.112	44
189.0706	42
189.0897	20
189.1255	13
190.0778	42
191.0851	78
192.0923	53
193.1021	145
194.0714	44
194.1089	64
195.081	134
195.1199	44
196.088	140
196.1236	15
197.0965	239
197.1267	13
198.1056	42
199.07	20
199.1117	67
202.0791	35
203.0869	62
203.1113	11
204.0944	87
205.0623	13
205.0998	80
206.1084	51
207.0807	44
207.1172	78
208.0872	169
209.0959	243
209.1316	37
210.1039	154
211.0742	20
211.1107	156
211.147	11
212.1207	71
213.129	93
215.0834	42
215.103	89
216.0928	46
217.0995	58
218.0706	20
218.1045	26
219.0824	49
219.1173	84
220.0892	51
220.1274	33
221.0991	219
221.1316	46
222.1037	330
222.1444	11
223.1123	257
224.1214	60
225.0849	13
225.1298	71
227.0803	17
227.1361	13
228.0874	26
229.1003	71
230.1116	58
231.0793	24
231.1178	64
232.0862	26
232.1286	26
233.0959	136
233.136	33
234.1026	109
234.1343	15
235.1104	227
235.1466	40
236.1184	53
236.1551	40
237.0894	17
237.1258	196
238.0985	13
238.134	24
239.1091	20
239.1422	84
240.1026	13
241.0951	11
241.1281	15
242.1102	22
243.1157	69
244.0911	13
244.1255	46
245.0968	67
245.1291	42
246.102	80
246.141	24
247.1109	210
248.1206	163
249.0919	13
249.1285	160
249.1594	22
250.1022	13
250.1401	37
251.1428	51
251.1794	13
252.1521	69
253.0993	11
253.1161	17
253.1601	17
255.1234	17
256.0841	15
256.1213	15
257.0933	13
257.1306	33
258.1098	17
258.1458	8
259.1116	89
259.1485	20
260.1196	67
261.1301	176
261.1661	37
262.1349	165
263.1431	370
263.1777	11
264.1513	84
265.1582	26
267.1317	22
270.1055	11
271.1096	55
272.1207	42
273.129	35
273.1599	13
274.1356	69
275.1158	24
275.1415	58
276.15	89
277.1596	75
278.1298	11
278.17	78
279.1331	11
279.1773	105
281.1574	13
285.124	26
286.1333	44
287.1472	15
289.1227	33
289.1657	20
290.1399	13
291.1446	31
291.1749	20
294.1738	15
295.1723	15
301.1657	11
304.1484	11
306.1605	11
307.1721	13
