Mass spectrum: Amido Black 10B; LC-ESI-QTOF; MS2; 120 V
Name: Amido Black 10B
Formula: C22H16N6O9S2
Exact mass: 572.042
SMILES: C1=CC=C(C=C1)N=NC2=C(C3=C(C(=C(C=C3C=C2S(=O)(=O)O)S(=O)(=O)O)N=NC4=CC=C(C=C4)[N+](=O)[O-])N)O
InChI: InChI=1S/C22H16N6O9S2/c23-19-18-12(11-17(39(35,36)37)21(22(18)29)27-24-13-4-2-1-3-5-13)10-16(38(32,33)34)20(19)26-25-14-6-8-15(9-7-14)28(30)31/h1-11,29H,23H2,(H,32,33,34)(H,35,36,37)
Instrument: TripleTOF 6600 SCIEX
Instrument type: LC-ESI-QTOF
Ms type: MS2
Ion mode: POSITIVE
Collision energy: 120
Fragmentation mode: CID
Ionization: ESI
Column name: Zorbax Eclipse Plus C18 2.1 mm x 150 mm, 3.5 um, Agilent
Retention time: 9.552 min
Precursor m/z: 573.0493
Precursor type: [M+H]+
m/z	relative intensity
39.0229	126
51.0225	33
62.0145	10
63.0228	53
64.0302	17
65.0384	858
66.0459	281
74.0156	36
75.0222	297
76.0315	30
77.038	154
78.0332	29
80.0479	48
88.0182	27
90.0332	64
92.0257	18
92.049	287
93.0567	999
100.0184	11
102.0337	99
103.0431	17
112.0172	10
114.0321	78
115.0399	18
117.0436	30
125.0127	11
127.0326	13
129.0428	45
130.0305	14
138.0422	11
139.0257	18
140.0458	13
145.0379	29
150.048	11
151.0406	13
151.0538	30
152.0246	16
152.0459	16
162.0361	21
163.0427	10
164.0485	32
165.0438	23
166.053	18
173.0346	17
176.0495	35
177.0526	64
178.05	16
179.058	23
188.0424	42
189.0448	100
190.0516	23
191.0458	11
191.0601	26
192.0658	24
193.077	14
201.0519	11
202.0532	17
203.0588	45
204.0569	51
205.0756	64
206.0791	17
213.0479	13
215.0552	52
216.0536	30
216.063	14
217.0646	32
218.0687	16
229.0617	11
230.072	100
231.0756	36
232.0848	16
241.0505	18
242.0592	72
243.0699	10
255.0656	11
269.0407	14
289.0807	11
291.0796	17
292.087	14
305.0851	20
306.0946	14
307.088	11
317.077	11
318.0902	17
