Mass spectrum: Flecainide; LC-ESI-QTOF; MS2; 120 V
Name: Flecainide
Class: Pharmaceutical
Formula: C17H20F6N2O3
Exact mass: 414.1378
SMILES: FC(F)(F)COc1ccc(OCC(F)(F)F)c(c1)C(=O)NCC2CCCCN2
InChI: InChI=1S/C17H20F6N2O3/c18-16(19,20)9-27-12-4-5-14(28-10-17(21,22)23)13(7-12)15(26)25-8-11-3-1-2-6-24-11/h4-5,7,11,24H,1-3,6,8-10H2,(H,25,26)
Instrument: TripleTOF 5600 SCIEX
Instrument type: LC-ESI-QTOF
Ms type: MS2
Ion mode: POSITIVE
Collision energy: 120
Fragmentation mode: CID
Ionization: ESI
Column name: Zorbax Eclipse Plus C18 2.1 mm x 150 mm, 3.5 um, Agilent
Retention time: 7.983 min
Precursor m/z: 415.1451
Precursor type: [M+H]+
m/z	relative intensity
42.0417	17
44.0571	82
51.0303	430
53.0075	72
53.0444	51
55.0598	46
56.0558	61
57.0176	17
63.0105	11
64.0345	40
65.0423	19
66.0495	13
69.0723	10
70.0267	15
70.0677	15
71.0324	21
74.0179	11
75.025	23
77.0415	114
79.0212	999
79.0556	25
81.0168	17
81.036	11
81.0722	39
82.0232	18
82.0674	38
83.0126	157
83.0298	85
84.0824	83
88.0129	32
92.0272	37
95.0305	38
98.0981	38
99.025	152
101.0199	41
107.013	246
114.0276	100
127.0186	25
127.0323	12
135.0072	27
