Mass spectrum: Dihydroxycarbazepine; LC-ESI-QTOF; MS2; 30 V
Name: Dihydroxycarbazepine
Class: Pharmaceutical; Metabolite
Formula: C15H14N2O3
Exact mass: 270.1004
SMILES: NC(=O)N1c2ccccc2C(O)C(O)c3ccccc13
InChI: InChI=1S/C15H14N2O3/c16-15(20)17-11-7-3-1-5-9(11)13(18)14(19)10-6-2-4-8-12(10)17/h1-8,13-14,18-19H,(H2,16,20)
Instrument: TripleTOF 5600 SCIEX
Instrument type: LC-ESI-QTOF
Ms type: MS2
Ion mode: POSITIVE
Collision energy: 30
Fragmentation mode: CID
Ionization: ESI
Column name: Zorbax Eclipse Plus C18 2.1 mm x 150 mm, 3.5 um, Agilent
Retention time: 6.663 min
Precursor m/z: 271.1077
Precursor type: [M+H]+
m/z	relative intensity
167.0717	15
180.0809	999
181.088	33
182.0963	247
208.075	25
210.091	351
236.0705	61
