Mass spectrum: Fluoxetine; LC-ESI-QTOF; MS2; 120 V
Name: Fluoxetine
Class: Pharmaceutical
Formula: C17H18F3NO
Exact mass: 309.134
InChI: InChI=1S/C17H18F3NO/c1-21-12-11-16(13-5-3-2-4-6-13)22-15-9-7-14(8-10-15)17(18,19)20/h2-10,16,21H,11-12H2,1H3
Instrument: TripleTOF 5600 SCIEX
Instrument type: LC-ESI-QTOF
Ms type: CID
Ion mode: POSITIVE
Collision energy: 120
Ionization: ESI
Column name: Zorbax Eclipse Plus C18 2.1 mm x 150 mm, 3.5 um, Agilent
Retention time: 8.469 min
Precursor m/z: 310.1413
Precursor type: [M+H]+
m/z	relative intensity
42.0333	40
44.0493	999
65.0386	81
74.0166	61
91.0538	132
115.054	91
