Mass spectrum: Amido Black 10B; LC-ESI-QTOF; MS2; 70 V
Name: Amido Black 10B
Formula: C22H16N6O9S2
Exact mass: 572.042
SMILES: C1=CC=C(C=C1)N=NC2=C(C3=C(C(=C(C=C3C=C2S(=O)(=O)O)S(=O)(=O)O)N=NC4=CC=C(C=C4)[N+](=O)[O-])N)O
InChI: InChI=1S/C22H16N6O9S2/c23-19-18-12(11-17(39(35,36)37)21(22(18)29)27-24-13-4-2-1-3-5-13)10-16(38(32,33)34)20(19)26-25-14-6-8-15(9-7-14)28(30)31/h1-11,29H,23H2,(H,32,33,34)(H,35,36,37)
Instrument: TripleTOF 6600 SCIEX
Instrument type: LC-ESI-QTOF
Ms type: MS2
Ion mode: POSITIVE
Collision energy: 70
Fragmentation mode: CID
Ionization: ESI
Column name: Zorbax Eclipse Plus C18 2.1 mm x 150 mm, 3.5 um, Agilent
Retention time: 9.552 min
Precursor m/z: 573.0493
Precursor type: [M+H]+
m/z	relative intensity
39.0225	14
65.0382	250
66.0453	51
75.0217	58
77.0377	53
80.0494	20
92.0257	26
92.0488	525
93.0569	999
108.0448	19
122.0236	71
129.0441	21
145.0398	11
150.029	64
157.0392	31
167.0255	13
169.0387	12
173.0333	177
185.0347	11
201.0279	21
203.0604	12
204.0601	26
205.0741	46
216.0543	34
217.062	26
220.0834	10
230.0695	36
231.0742	72
232.0871	135
233.0689	13
233.0896	12
238.0074	11
242.0568	38
243.0665	53
244.0616	17
245.0591	16
248.0839	27
249.0918	11
258.062	16
259.0694	71
260.0764	54
261.0882	42
265.0301	11
270.0513	132
271.0622	305
272.0673	28
273.0777	12
275.0389	14
276.0776	13
280.0871	15
287.0563	59
292.0888	9
301.0623	30
306.1016	13
307.0985	21
308.0975	16
312.0423	20
313.051	11
316.0504	33
319.1011	36
320.1042	23
334.1099	28
335.096	24
340.0343	67
341.044	42
345.0921	10
346.1089	87
347.1077	10
356.9817	30
362.1051	61
363.1126	16
364.1238	13
402.9787	21
