Mass spectrum: 2-(3-Hydroxyquinolin-2-yl)indene-1,3-dione; LC-ESI-QTOF; MS2; 90 V
Name: 2-(3-Hydroxyquinolin-2-yl)indene-1,3-dione
Class: Industrial_process; Personal_care_product; Pigment
Formula: C18H11NO3
Exact mass: 289.0739
SMILES: C1=CC=C2C(=C1)C=C(C(=N2)C3C(=O)C4=CC=CC=C4C3=O)O
InChI: InChI=1S/C18H11NO3/c20-14-9-10-5-1-4-8-13(10)19-16(14)15-17(21)11-6-2-3-7-12(11)18(15)22/h1-9,15,20H
Instrument: TripleTOF 6600 SCIEX
Instrument type: LC-ESI-QTOF
Ms type: MS2
Ion mode: POSITIVE
Collision energy: 90
Fragmentation mode: CID
Ionization: ESI
Column name: Zorbax Eclipse Plus C18 2.1 mm x 150 mm, 3.5 um, Agilent
Retention time: 14.718 min
Precursor m/z: 290.0812
Precursor type: [M+H]+
m/z	relative intensity
39.0235	58
50.0161	69
51.0236	197
62.0153	58
63.0234	313
65.0388	104
75.0232	104
77.0391	557
87.0227	58
89.0385	580
90.0486	46
101.0388	58
102.0464	92
103.0534	267
113.0373	92
115.0542	151
116.0504	81
126.0466	46
128.0509	116
130.0652	162
137.039	69
138.0438	46
139.0553	162
140.0484	255
150.047	116
151.0547	151
152.0655	81
162.0459	81
163.0536	650
164.0513	255
165.0699	174
166.0637	69
174.0481	58
175.0527	58
176.063	313
177.0625	127
178.0751	116
186.0466	58
187.054	999
188.058	685
189.0698	650
190.0643	348
201.0582	58
202.0633	104
203.0734	185
204.0802	441
212.0492	151
213.0562	313
214.0643	871
215.0734	360
216.0806	232
