Mass spectrum: Ibuprofen; LC-ESI-QTOF; MS2; 20 V
Name: Ibuprofen
Class: Pharmaceutical
Formula: C13H18O2
Exact mass: 206.1307
SMILES: CC(C)Cc1ccc(cc1)C(C)C(O)=O
InChI: InChI=1S/C13H18O2/c1-9(2)8-11-4-6-12(7-5-11)10(3)13(14)15/h4-7,9-10H,8H2,1-3H3,(H,14,15)
Instrument: TripleTOF 5600 SCIEX
Instrument type: LC-ESI-QTOF
Ms type: MS2
Ion mode: NEGATIVE
Collision energy: 20
Fragmentation mode: CID
Ionization: ESI
Column name: Zorbax Eclipse Plus C18 2.1 mm x 150 mm, 3.5 um, Agilent
Retention time: 12.85 min
Precursor m/z: 205.1233
Precursor type: [M-H]-
m/z	relative intensity
98.9429	224
114.9393	483
130.9406	258
148.0461	205
161.1344	999
205.0153	323
205.0713	323
205.119	727
