Mass spectrum: Pethoxamid; LC-ESI-QTOF; MS2; 90 V
Name: Pethoxamid
Class: Herbicide
Formula: C16H22ClNO2
Exact mass: 295.1339
SMILES: CCOCCN(C(=O)CCl)C(=C(C)C)C1=CC=CC=C1
InChI: InChI=1S/C16H22ClNO2/c1-4-20-11-10-18(15(19)12-17)16(13(2)3)14-8-6-5-7-9-14/h5-9H,4,10-12H2,1-3H3
Instrument: TripleTOF 6600 SCIEX
Instrument type: LC-ESI-QTOF
Ms type: MS2
Ion mode: POSITIVE
Collision energy: 90
Fragmentation mode: CID
Ionization: ESI
Column name: Zorbax Eclipse Plus C18 2.1 mm x 150 mm, 3.5 um, Agilent
Retention time: 12.961 min
Precursor m/z: 296.1412
Precursor type: [M+H]+
m/z	relative intensity
39.0229	41
41.0381	11
45.0336	11
51.0225	17
63.0221	27
65.0383	393
77.038	81
89.0375	45
91.0538	999
102.0455	10
103.0529	16
115.0535	639
116.0609	58
127.0525	32
128.0609	113
129.068	13
130.0635	11
