Mass spectrum: Dextrorphan; LC-ESI-QTOF; MS2; 80 V
Name: Dextrorphan
Class: Pharmaceutical; Metabolite
Formula: C17H23NO
Exact mass: 257.178
SMILES: CN1CC[C@@]23CCCC[C@@H]2[C@@H]1CC4=C3C=C(C=C4)O
InChI: InChI=1S/C17H23NO/c1-18-9-8-17-7-3-2-4-14(17)16(18)10-12-5-6-13(19)11-15(12)17/h5-6,11,14,16,19H,2-4,7-10H2,1H3/t14-,16+,17+/m1/s1
Instrument: TripleTOF 5600 SCIEX
Instrument type: LC-ESI-QTOF
Ms type: MS2
Ion mode: POSITIVE
Collision energy: 80
Fragmentation mode: CID
Ionization: ESI
Column name: Zorbax Eclipse Plus C18 2.1 mm x 150 mm, 3.5 um, Agilent
Retention time: 5.969 min
Precursor m/z: 258.1852
Precursor type: [M+H]+
m/z	relative intensity
44.0576	27
65.0426	19
77.0423	253
78.0484	12
79.057	64
89.0404	25
91.0561	86
101.0392	16
102.0476	38
103.0554	131
105.0707	69
107.0493	55
115.0552	241
116.0623	37
117.0702	10
118.042	15
126.0462	42
127.0551	448
128.0631	999
129.0702	152
131.0497	169
133.0646	19
139.0543	39
141.0706	47
144.0565	45
145.0646	11
151.0546	12
152.0623	60
153.07	15
155.0579	20
157.0656	336
165.0699	66
169.0656	10
