Mass spectrum: 2,4-Dihydroxybenzophenone; LC-ESI-QTOF; MS2; 120 V
Name: 2,4-Dihydroxybenzophenone
Class: Personal_care_product
Formula: C13H10O3
Exact mass: 214.063
SMILES: Oc1ccc(c(O)c1)C(=O)c2ccccc2
InChI: InChI=1S/C13H10O3/c14-10-6-7-11(12(15)8-10)13(16)9-4-2-1-3-5-9/h1-8,14-15H
Instrument: TripleTOF 5600 SCIEX
Instrument type: LC-ESI-QTOF
Ms type: MS2
Ion mode: POSITIVE
Collision energy: 120
Fragmentation mode: CID
Ionization: ESI
Column name: Zorbax Eclipse Plus C18 2.1 mm x 150 mm, 3.5 um, Agilent
Retention time: 10.97 min
Precursor m/z: 215.0703
Precursor type: [M+H]+
m/z	relative intensity
41.0123	390
53.0096	477
53.0436	217
69.0007	955
74.019	477
75.0259	217
77.041	999
86.0172	173
98.0182	217
