Mass spectrum: Morantel; LC-ESI-QTOF; MS2; 10 V
Name: Morantel
Class: Pharmaceutical
Formula: C12H16N2S
Exact mass: 220.1034
SMILES: CN1CCCN=C1/C=C/c2sccc2C
InChI: InChI=1S/C12H16N2S/c1-10-6-9-15-11(10)4-5-12-13-7-3-8-14(12)2/h4-6,9H,3,7-8H2,1-2H3/b5-4+
Instrument: TripleTOF 5600 SCIEX
Instrument type: LC-ESI-QTOF
Ms type: MS2
Ion mode: POSITIVE
Collision energy: 10
Fragmentation mode: CID
Ionization: ESI
Column name: Zorbax Eclipse Plus C18 2.1 mm x 150 mm, 3.5 um, Agilent
Retention time: 6.042 min
Precursor m/z: 221.1107
Precursor type: [M+H]+
m/z	relative intensity
165.0909	33
193.1584	34
221.1118	999
