Mass spectrum: Metachrome Yellow free acid; LC-ESI-QTOF; MS2; 70 V
Name: Metachrome Yellow free acid
Formula: C13H9N3O5
Exact mass: 287.0542
SMILES: C1=CC(=CC(=C1)[N+](=O)[O-])N=NC2=CC(=C(C=C2)O)C(=O)O
InChI: InChI=1S/C13H9N3O5/c17-12-5-4-9(7-11(12)13(18)19)15-14-8-2-1-3-10(6-8)16(20)21/h1-7,17H,(H,18,19)
Instrument: TripleTOF 6600 SCIEX
Instrument type: LC-ESI-QTOF
Ms type: MS2
Ion mode: POSITIVE
Collision energy: 70
Fragmentation mode: CID
Ionization: ESI
Column name: Zorbax Eclipse Plus C18 2.1 mm x 150 mm, 3.5 um, Agilent
Retention time: 11.919 min
Precursor m/z: 288.0615
Precursor type: [M+H]+
m/z	relative intensity
38.0147	22
39.0223	77
50.014	66
51.0212	44
52.0175	33
53.0023	41
59.9975	11
61.0051	35
62.0136	129
63.0222	886
64.0299	572
73.0054	19
74.0137	134
75.0219	999
76.0299	220
77.0265	13
77.0372	57
78.033	154
79.0191	11
80.0118	189
82.0279	13
87.0241	19
88.0292	30
89.0377	93
90.0312	19
90.0441	33
91.0172	148
91.04	27
92.0248	140
101.0383	16
102.0397	35
103.0388	11
106.0286	79
113.0374	134
114.0344	77
114.0464	99
115.0403	121
116.047	35
117.0568	30
119.0123	35
125.0378	11
127.0498	16
128.0485	35
129.0419	13
134.0223	27
138.0472	11
139.0527	308
140.0482	481
141.042	13
141.0547	79
142.0519	82
150.0288	13
152.0508	11
155.0578	55
166.0512	165
167.06	187
168.0649	33
195.0561	24
