Mass spectrum: Flecainide; LC-ESI-QTOF; MS2; 40 V
Name: Flecainide
Class: Pharmaceutical
Formula: C17H20F6N2O3
Exact mass: 414.1378
SMILES: FC(F)(F)COc1ccc(OCC(F)(F)F)c(c1)C(=O)NCC2CCCCN2
InChI: InChI=1S/C17H20F6N2O3/c18-16(19,20)9-27-12-4-5-14(28-10-17(21,22)23)13(7-12)15(26)25-8-11-3-1-2-6-24-11/h4-5,7,11,24H,1-3,6,8-10H2,(H,25,26)
Instrument: TripleTOF 5600 SCIEX
Instrument type: LC-ESI-QTOF
Ms type: MS2
Ion mode: POSITIVE
Collision energy: 40
Fragmentation mode: CID
Ionization: ESI
Column name: Zorbax Eclipse Plus C18 2.1 mm x 150 mm, 3.5 um, Agilent
Retention time: 7.983 min
Precursor m/z: 415.1451
Precursor type: [M+H]+
m/z	relative intensity
44.0571	18
79.0566	47
81.0725	153
82.0669	36
84.0825	37
97.089	10
98.0976	327
107.0125	10
135.0072	32
189.0517	11
190.0232	10
209.0224	85
218.0187	97
219.0259	14
225.0335	32
232.0969	196
237.0169	89
253.0286	67
281.0227	55
287.0503	22
298.1054	40
301.0295	693
314.101	15
315.1083	87
318.0562	23
398.1184	999
415.145	355
