Mass spectrum: Warfarin; LC-ESI-QTOF; MS2; 60 V
Name: Warfarin
Class: Pesticide; Biocide; Rodenticide
Formula: C19H16O4
Exact mass: 308.1049
SMILES: CC(=O)CC(C1=CC=CC=C1)C2=C(C3=CC=CC=C3OC2=O)O
InChI: InChI=1S/C19H16O4/c1-12(20)11-15(13-7-3-2-4-8-13)17-18(21)14-9-5-6-10-16(14)23-19(17)22/h2-10,15,21H,11H2,1H3
Instrument: TripleTOF 6600 SCIEX
Instrument type: LC-ESI-QTOF
Ms type: MS2
Ion mode: NEGATIVE
Collision energy: 60
Fragmentation mode: CID
Ionization: ESI
Column name: Zorbax Eclipse Plus C18 2.1 mm x 150 mm, 3.5 um, Agilent
Retention time: 11.631 min
Precursor m/z: 307.0976
Precursor type: [M-H]-
m/z	relative intensity
41.0024	123
57.0333	304
92.0251	51
93.0334	45
101.0386	33
115.0535	18
117.0339	999
119.0493	11
130.0413	67
141.0707	10
143.049	12
161.0247	83
193.0643	41
195.0834	11
205.0651	21
206.0737	19
219.0854	26
221.0607	16
249.0548	36
250.0626	31
