Mass spectrum: Medroxyprogesterone-17-acetate; LC-ESI-QTOF; MS2; 150 V
Name: Medroxyprogesterone-17-acetate
Class: Pharmaceutical
Formula: C24H34O4
Exact mass: 386.2457
SMILES: CC1CC2C(CCC3(C2CCC3(C(=O)C)OC(=O)C)C)C4(C1=CC(=O)CC4)C
InChI: InChI=1S/C24H34O4/c1-14-12-18-19(22(4)9-6-17(27)13-21(14)22)7-10-23(5)20(18)8-11-24(23,15(2)25)28-16(3)26/h13-14,18-20H,6-12H2,1-5H3
Instrument: TripleTOF 5600 SCIEX
Instrument type: LC-ESI-QTOF
Ms type: MS2
Ion mode: POSITIVE
Collision energy: 150
Fragmentation mode: CID
Ionization: ESI
Column name: Zorbax Eclipse Plus C18 2.1 mm x 150 mm, 3.5 um, Agilent
Retention time: 13.723 min
Precursor m/z: 387.253
Precursor type: [M+H]+
m/z	relative intensity
37.0074	34
38.0152	34
39.0235	182
41.0389	152
43.018	349
50.0157	39
51.0237	231
53.0391	68
55.0183	44
55.0542	78
63.0247	24
65.0387	290
66.0472	29
67.0541	83
69.0328	24
69.0704	19
75.0217	19
77.0392	999
78.0476	68
79.0547	260
81.0329	29
81.0706	24
82.0428	24
83.0487	29
89.0392	83
91.0547	565
93.0688	24
94.0414	29
95.0858	24
97.0643	93
102.0452	78
103.0552	127
105.0704	63
107.0503	103
115.054	669
116.064	49
117.0699	54
126.0461	54
127.0538	182
128.062	531
129.0694	59
139.0531	39
141.0705	157
151.0569	63
152.0608	201
153.0705	93
163.0527	24
164.0654	39
165.0693	216
176.0604	19
178.0779	78
189.075	44
202.0791	24
