Mass spectrum: Bosentan; LC-ESI-QTOF; MS2; 50 V
Name: Bosentan
Class: Pharmaceutical
Formula: C27H29N5O6S
Exact mass: 551.1839
SMILES: CC(C)(C)C1=CC=C(C=C1)S(=O)(=O)NC2=C(C(=NC(=N2)C3=NC=CC=N3)OCCO)OC4=CC=CC=C4OC
InChI: InChI=1S/C27H29N5O6S/c1-27(2,3)18-10-12-19(13-11-18)39(34,35)32-23-22(38-21-9-6-5-8-20(21)36-4)26(37-17-16-33)31-25(30-23)24-28-14-7-15-29-24/h5-15,33H,16-17H2,1-4H3,(H,30,31,32)
Instrument: TripleTOF 5600 SCIEX
Instrument type: LC-ESI-QTOF
Ms type: MS2
Ion mode: POSITIVE
Collision energy: 50
Fragmentation mode: CID
Ionization: ESI
Column name: Zorbax Eclipse Plus C18 2.1 mm x 150 mm, 3.5 um, Agilent
Retention time: 12.118 min
Precursor m/z: 552.1911
Precursor type: [M+H]+
m/z	relative intensity
77.044	12
95.0525	21
97.0421	11
106.0421	37
108.0587	12
122.0611	15
123.068	57
124.0513	17
133.1026	37
135.0447	22
147.0653	20
149.0466	45
150.0557	31
161.1083	22
175.0628	59
176.059	13
177.0421	15
189.0655	15
190.0727	12
197.0653	18
202.0729	999
203.08	57
204.0543	14
205.0599	16
237.1008	11
241.0901	15
255.1133	27
264.0867	21
265.0953	10
276.0888	29
279.0784	11
280.0837	532
283.1088	21
293.0923	12
294.0991	58
310.0924	18
311.1034	129
312.1128	18
324.1106	26
400.1422	12
508.1671	39
552.1891	28
