Mass spectrum: (3-Benzyloxypropyl)triphenylphosphonium; LC-ESI-QTOF; MS2; 130 V
Name: (3-Benzyloxypropyl)triphenylphosphonium
Formula: [C28H28OP]+
Exact mass: 411.1872
SMILES: C1=CC=C(C=C1)COCCC[P+](C2=CC=CC=C2)(C3=CC=CC=C3)C4=CC=CC=C4
InChI: InChI=1S/C28H28OP/c1-5-14-25(15-6-1)24-29-22-13-23-30(26-16-7-2-8-17-26,27-18-9-3-10-19-27)28-20-11-4-12-21-28/h1-12,14-21H,13,22-24H2/q+1
Instrument: TripleTOF 5600 SCIEX
Instrument type: LC-ESI-QTOF
Ms type: MS2
Ion mode: POSITIVE
Collision energy: 130
Fragmentation mode: CID
Ionization: ESI
Column name: Zorbax Eclipse Plus C18 2.1 mm x 150 mm, 3.5 um, Agilent
Retention time: 9.728 min
Precursor m/z: 411.1872
Precursor type: [M]+
m/z	relative intensity
65.0381	177
91.0527	235
107.0031	590
115.0531	241
133.0193	90
139.0538	211
151.0537	128
152.0616	999
157.02	495
181.0203	171
183.0361	853
257.0523	79
