Mass spectrum: Triclocarban; LC-ESI-QTOF; MS2; 110 V
Name: Triclocarban
Class: Antimicrobial; Personal_care_product
Formula: C13H9Cl3N2O
Exact mass: 313.978
SMILES: Clc1ccc(NC(=O)Nc2ccc(Cl)c(Cl)c2)cc1
InChI: InChI=1S/C13H9Cl3N2O/c14-8-1-3-9(4-2-8)17-13(19)18-10-5-6-11(15)12(16)7-10/h1-7H,(H2,17,18,19)
Instrument: TripleTOF 5600 SCIEX
Instrument type: LC-ESI-QTOF
Ms type: MS2
Ion mode: POSITIVE
Collision energy: 110
Fragmentation mode: CID
Ionization: ESI
Column name: Zorbax Eclipse Plus C18 2.1 mm x 150 mm, 3.5 um, Agilent
Retention time: 14.574 min
Precursor m/z: 314.9853
Precursor type: [M+H]+
m/z	relative intensity
64.033	72
65.0427	999
66.0493	457
72.9858	421
74.0167	421
75.0236	276
82.9451	48
90.0375	48
91.0439	96
92.0509	613
93.0581	830
99.0002	589
100.0077	216
108.9813	60
111.0011	84
125.0023	48
126.0094	72
127.0182	782
132.96	72
