Mass spectrum: Prednisolone; LC-ESI-QTOF; MS2; 150 V
Name: Prednisolone
Class: Pharmaceutical
Formula: C21H28O5
Exact mass: 360.1937
SMILES: C[C@]12C[C@H](O)[C@H]3[C@@H](CCC4=CC(=O)C=C[C@]34C)[C@@H]1CC[C@]2(O)C(=O)CO
InChI: InChI=1S/C21H28O5/c1-19-7-5-13(23)9-12(19)3-4-14-15-6-8-21(26,17(25)11-22)20(15,2)10-16(24)18(14)19/h5,7,9,14-16,18,22,24,26H,3-4,6,8,10-11H2,1-2H3/t14-,15-,16-,18+,19-,20-,21-/m0/s1
Instrument: TripleTOF 5600 SCIEX
Instrument type: LC-ESI-QTOF
Ms type: MS2
Ion mode: POSITIVE
Collision energy: 150
Fragmentation mode: CID
Ionization: ESI
Column name: Zorbax Eclipse Plus C18 2.1 mm x 150 mm, 3.5 um, Agilent
Retention time: 8.432 min
Precursor m/z: 361.201
Precursor type: [M+H]+
m/z	relative intensity
51.0287	369
53.0445	31
65.0424	362
75.0264	50
76.0323	38
77.0413	999
78.0498	133
79.0575	57
89.0408	120
91.0557	343
101.0389	25
102.0472	159
103.0549	165
114.046	31
115.0543	642
121.0664	31
125.0391	31
126.0473	127
127.0559	184
128.0625	381
131.0483	95
139.054	152
141.0732	50
150.0466	89
151.0532	159
152.0618	369
153.0707	38
163.0542	139
164.0617	95
165.0713	229
176.0591	146
177.0728	50
178.077	101
187.0569	50
188.0625	69
189.071	165
200.062	82
201.0694	44
202.0768	50
215.0834	31
