Mass spectrum: Formononetin; LC-ESI-QTOF; MS2; 30 V
Name: Formononetin
Class: Metabolite; Metabolite; Pharmaceutical
Formula: C16H12O4
Exact mass: 268.0736
SMILES: COc1ccc(cc1)C2=COc3cc(O)ccc3C2=O
InChI: InChI=1S/C16H12O4/c1-19-12-5-2-10(3-6-12)14-9-20-15-8-11(17)4-7-13(15)16(14)18/h2-9,17H,1H3
Instrument: TripleTOF 5600 SCIEX
Instrument type: LC-ESI-QTOF
Ms type: MS2
Ion mode: POSITIVE
Collision energy: 30
Fragmentation mode: CID
Ionization: ESI
Column name: Zorbax Eclipse Plus C18 2.1 mm x 150 mm, 3.5 um, Agilent
Retention time: 10.093 min
Precursor m/z: 269.0808
Precursor type: [M+H]+
m/z	relative intensity
107.0502	17
118.0424	35
136.0157	21
137.0241	15
181.0653	11
197.0607	31
198.0689	17
213.0924	130
225.0564	16
226.0635	72
237.0563	125
253.0511	102
254.0595	182
269.083	999
