Mass spectrum: O-desmethyl-naproxen; LC-ESI-QTOF; MS2; 20 V
Name: O-desmethyl-naproxen
Class: Metabolite; Pharmaceutical; Transformation_product
Formula: C13H12O3
Exact mass: 216.0786
SMILES: CC(C1=CC2=C(C=C1)C=C(C=C2)O)C(=O)O
InChI: InChI=1S/C13H12O3/c1-8(13(15)16)9-2-3-11-7-12(14)5-4-10(11)6-9/h2-8,14H,1H3,(H,15,16)
Instrument: TripleTOF 5600 SCIEX
Instrument type: LC-ESI-QTOF
Ms type: MS2
Ion mode: POSITIVE
Collision energy: 20
Fragmentation mode: CID
Ionization: ESI
Column name: Zorbax Eclipse Plus C18 2.1 mm x 150 mm, 3.5 um, Agilent
Retention time: 8.5 min
Precursor m/z: 217.0859
Precursor type: [M+H]+
m/z	relative intensity
128.0605	23
143.0872	21
153.0725	23
171.0802	999
217.0865	25
