Mass spectrum: Pyroxsulam; LC-ESI-QTOF; MS2; 100 V
Name: Pyroxsulam
Class: Herbicide
Formula: C14H13F3N6O5S
Exact mass: 434.062
SMILES: COC1=CC(=NC2=NC(=NN12)NS(=O)(=O)C3=C(C=CN=C3OC)C(F)(F)F)OC
InChI: InChI=1S/C14H13F3N6O5S/c1-26-8-6-9(27-2)23-13(19-8)20-12(21-23)22-29(24,25)10-7(14(15,16)17)4-5-18-11(10)28-3/h4-6H,1-3H3,(H,21,22)
Instrument: TripleTOF 6600 SCIEX
Instrument type: LC-ESI-QTOF
Ms type: MS2
Ion mode: NEGATIVE
Collision energy: 100
Fragmentation mode: CID
Ionization: ESI
Column name: Zorbax Eclipse Plus C18 2.1 mm x 150 mm, 3.5 um, Agilent
Retention time: 9.651 min
Precursor m/z: 433.0547
Precursor type: [M-H]-
m/z	relative intensity
40.0061	56
41.9971	37
50.0011	25
64.0049	82
65.0135	177
65.997	284
66.0079	999
68.9944	196
76.0208	25
79.0154	25
86.0023	56
88.0172	94
89.0026	69
89.0128	31
90.009	69
92.0133	31
93.0068	94
106.0078	44
107.0095	126
108.026	120
109.0184	37
111.9981	44
114.0121	31
116.0142	56
116.026	25
123.0217	56
126.007	31
128.0377	37
135.0101	44
136.0126	31
136.0286	25
146.0224	101
147.0184	113
148.0275	31
149.0025	37
157.005	31
159.0118	31
162.0176	75
172.0263	63
173.0188	75
187.0039	44
211.0184	25
211.03	50
225.02	37
225.0293	37
227.0175	113
251.0111	25
