Mass spectrum: 4-(Dimethylamino)azobenzene; LC-ESI-QTOF; MS2; 110 V
Name: 4-(Dimethylamino)azobenzene
Formula: C14H15N3
Exact mass: 225.1266
SMILES: CN(C)C1=CC=C(C=C1)N=NC2=CC=CC=C2
InChI: InChI=1S/C14H15N3/c1-17(2)14-10-8-13(9-11-14)16-15-12-6-4-3-5-7-12/h3-11H,1-2H3
Instrument: TripleTOF 6600 SCIEX
Instrument type: LC-ESI-QTOF
Ms type: MS2
Ion mode: POSITIVE
Collision energy: 110
Fragmentation mode: CID
Ionization: ESI
Column name: Zorbax Eclipse Plus C18 2.1 mm x 150 mm, 3.5 um, Agilent
Retention time: 15.513 min
Precursor m/z: 226.1339
Precursor type: [M+H]+
m/z	relative intensity
37.0065	56
38.0142	46
39.0224	188
41.0252	12
42.0327	31
49.0064	64
50.0144	564
51.0222	999
52.0175	32
61.0061	15
62.014	34
63.0218	121
64.0171	22
64.029	33
65.0373	82
66.0327	12
67.0408	22
74.0137	35
75.0212	13
76.0173	14
77.0374	325
78.0318	18
80.0474	13
90.0321	16
91.0402	36
91.0521	10
104.0481	42
