Mass spectrum: Rifaximin; LC-ESI-QTOF; MS2; 90 V
Name: Rifaximin
Class: Pharmaceutical
Formula: C43H51N3O11
Exact mass: 785.3524
SMILES: CC1C=CC=C(C(=O)NC2=C(C3=C(C4=C(C(=C3O)C)OC(C4=O)(OC=CC(C(C(C(C(C(C1O)C)O)C)OC(=O)C)C)OC)C)C5=C2N6C=CC(=CC6=N5)C)O)C
InChI: InChI=1S/C43H51N3O11/c1-19-14-16-46-28(18-19)44-32-29-30-37(50)25(7)40-31(29)41(52)43(9,57-40)55-17-15-27(54-10)22(4)39(56-26(8)47)24(6)36(49)23(5)35(48)20(2)12-11-13-21(3)42(53)45-33(34(32)46)38(30)51/h11-18,20,22-24,27,35-36,39,48-51H,1-10H3,(H,45,53)
Instrument: TripleTOF 6600 SCIEX
Instrument type: LC-ESI-QTOF
Ms type: MS2
Ion mode: NEGATIVE
Collision energy: 90
Fragmentation mode: CID
Ionization: ESI
Column name: Zorbax Eclipse Plus C18 2.1 mm x 150 mm, 3.5 um, Agilent
Retention time: 11.765 min
Precursor m/z: 784.3451
Precursor type: [M-H]-
m/z	relative intensity
123.0785	14
249.0831	10
263.0699	12
276.0845	42
277.082	94
289.0815	19
290.087	25
291.0951	27
301.0816	15
304.0745	11
304.1027	39
305.0799	54
306.0831	76
307.0908	16
308.0984	38
314.0888	16
315.0715	10
316.0708	19
316.1018	14
317.0734	31
318.0845	12
319.1001	30
329.0873	14
330.0836	95
331.0659	13
331.0894	14
332.0988	163
333.0805	63
333.1059	77
334.0781	38
334.1153	15
342.0832	14
343.0901	21
344.0753	36
345.0814	60
346.0818	22
347.0987	444
358.0782	40
358.1094	10
359.0852	331
360.0937	999
361.1005	162
362.1081	144
370.1128	10
371.0974	25
372.094	15
373.1006	25
374.1088	34
386.0723	70
387.0809	21
388.0876	64
410.1419	10
426.1382	20
438.0984	12
452.116	13
454.1335	139
482.1635	17
