Mass spectrum: Febantel; LC-ESI-QTOF; MS2; 40 V
Name: Febantel
Class: Pharmaceutical
Formula: C20H22N4O6S
Exact mass: 446.126
SMILES: COCC(=O)Nc1cc(Sc2ccccc2)ccc1NC(NC(=O)OC)=NC(=O)OC
InChI: InChI=1S/C20H22N4O6S/c1-28-12-17(25)21-16-11-14(31-13-7-5-4-6-8-13)9-10-15(16)22-18(23-19(26)29-2)24-20(27)30-3/h4-11H,12H2,1-3H3,(H,21,25)(H2,22,23,24,26,27)
Instrument: TripleTOF 5600 SCIEX
Instrument type: LC-ESI-QTOF
Ms type: MS2
Ion mode: POSITIVE
Collision energy: 40
Fragmentation mode: CID
Ionization: ESI
Column name: Zorbax Eclipse Plus C18 2.1 mm x 150 mm, 3.5 um, Agilent
Retention time: 13.085 min
Precursor m/z: 447.1333
Precursor type: [M+H]+
m/z	relative intensity
45.0435	44
83.0268	22
109.011	27
149.0171	12
190.0076	25
203.0693	14
204.0773	24
214.0491	35
227.0649	196
229.0359	52
237.0485	14
239.0642	33
243.0589	11
246.0748	11
253.0431	35
254.074	11
255.0591	18
261.0627	34
264.0585	11
265.0423	18
266.0384	20
267.0469	160
268.0535	197
268.0879	10
269.0733	21
278.0379	19
280.0548	999
282.0701	142
293.0497	19
294.0337	36
297.0698	62
308.0496	43
311.0598	33
312.0812	367
321.0803	16
323.0606	335
325.0755	51
339.0922	43
340.076	24
