Mass spectrum: N-Octyl-2-pyrrolidone; LC-ESI-QTOF; MS2; 120 V
Name: N-Octyl-2-pyrrolidone
Class: Industrial_process
Formula: C12H23NO
Exact mass: 197.178
InChI: InChI=1S/C12H23NO/c1-2-3-4-5-6-7-10-13-11-8-9-12(13)14/h2-11H2,1H3
Instrument: TripleTOF 6600 SCIEX
Instrument type: LC-ESI-QTOF
Ms type: CID
Ion mode: POSITIVE
Collision energy: 120
Ionization: ESI
Column name: Zorbax Eclipse Plus C18 2.1 mm x 150 mm, 3.5 um, Agilent
Retention time: 12.596 min
Precursor m/z: 198.1853
Precursor type: [M+H]+
m/z	relative intensity
35.9993	60
37.0075	385
38.0029	60
38.0154	361
39.0231	999
41.0387	156
42.0093	48
42.0339	60
44.0132	806
53.0138	48
