Mass spectrum: Tiapride; LC-ESI-QTOF; MS2; 120 V
Name: Tiapride
Class: Pharmaceutical
Formula: C15H24N2O4S
Exact mass: 328.1457
SMILES: CCN(CC)CCNC(=O)C1=C(C=CC(=C1)S(=O)(=O)C)OC
InChI: InChI=1S/C15H24N2O4S/c1-5-17(6-2)10-9-16-15(18)13-11-12(22(4,19)20)7-8-14(13)21-3/h7-8,11H,5-6,9-10H2,1-4H3,(H,16,18)
Instrument: TripleTOF 5600 SCIEX
Instrument type: LC-ESI-QTOF
Ms type: MS2
Ion mode: POSITIVE
Collision energy: 120
Fragmentation mode: CID
Ionization: ESI
Column name: Zorbax Eclipse Plus C18 2.1 mm x 150 mm, 3.5 um, Agilent
Retention time: 4.856 min
Precursor m/z: 329.153
Precursor type: [M+H]+
m/z	relative intensity
44.0615	54
45.0444	27
52.0397	148
53.0106	20
58.0735	20
64.0314	27
64.0409	20
65.0463	101
68.985	13
74.0205	118
75.0283	128
76.0364	999
77.0437	762
78.0508	374
79.0211	145
79.0473	37
79.0561	20
80.0561	20
81.0382	20
86.1021	20
89.0433	57
90.0392	104
91.0218	344
91.0564	37
92.0301	23
94.9973	16
103.0433	47
104.0249	13
104.0508	222
105.035	77
105.0604	16
106.0291	23
107.0139	37
109.0105	13
117.0586	20
119.0142	74
132.0432	27
134.0386	27
