Mass spectrum: Cocaine; LC-ESI-QTOF; MS2; 90 V
Name: Cocaine
Class: Pharmaceutical
Formula: C17H21NO4
Exact mass: 303.1471
SMILES: CN1C2CCC1C(C(C2)OC(=O)C3=CC=CC=C3)C(=O)OC
InChI: InChI=1S/C17H21NO4/c1-18-12-8-9-13(18)15(17(20)21-2)14(10-12)22-16(19)11-6-4-3-5-7-11/h3-7,12-15H,8-10H2,1-2H3
Instrument: TripleTOF 6600 SCIEX
Instrument type: LC-ESI-QTOF
Ms type: MS2
Ion mode: POSITIVE
Collision energy: 90
Fragmentation mode: CID
Ionization: ESI
Column name: Zorbax Eclipse Plus C18 2.1 mm x 150 mm, 3.5 um, Agilent
Retention time: 6.407 min
Precursor m/z: 304.1543
Precursor type: [M+H]+
m/z	relative intensity
39.0229	33
41.0388	39
42.0335	50
50.0151	79
51.0229	299
53.0384	28
65.0386	152
67.0413	129
67.0541	22
68.0493	107
77.0386	999
79.0542	33
80.0489	67
82.0651	253
91.0536	135
94.0645	84
105.0337	45
