Mass spectrum: Thiamethoxam; LC-ESI-QTOF; MS2; 30 V
Name: Thiamethoxam
Class: Insecticide
Formula: C8H10ClN5O3S
Exact mass: 291.0193
SMILES: CN1COCN(Cc2sc(Cl)nc2)/C1=N/[N+]([O-])=O
InChI: InChI=1S/C8H10ClN5O3S/c1-12-4-17-5-13(8(12)11-14(15)16)3-6-2-10-7(9)18-6/h2H,3-5H2,1H3/b11-8+
Instrument: TripleTOF 5600 SCIEX
Instrument type: LC-ESI-QTOF
Ms type: MS2
Ion mode: POSITIVE
Collision energy: 30
Fragmentation mode: CID
Ionization: ESI
Column name: Zorbax Eclipse Plus C18 2.1 mm x 150 mm, 3.5 um, Agilent
Retention time: 6.188 min
Precursor m/z: 292.0266
Precursor type: [M+H]+
m/z	relative intensity
69.0484	51
70.9993	11
99.0009	22
108.0561	24
122.0713	122
125.0173	26
131.9671	571
138.0108	15
139.0322	17
147.0659	11
151.0206	51
152.027	96
172.9808	13
174.9729	35
179.0369	13
180.0465	149
181.054	999
210.0539	54
211.0646	826
215.0137	17
