Mass spectrum: Triamterene; LC-ESI-QTOF; MS2; 110 V
Name: Triamterene
Class: Pharmaceutical
Formula: C12H11N7
Exact mass: 253.1076
SMILES: C1=CC=C(C=C1)C2=NC3=C(N=C2N)N=C(N=C3N)N
InChI: InChI=1S/C12H11N7/c13-9-7(6-4-2-1-3-5-6)16-8-10(14)18-12(15)19-11(8)17-9/h1-5H,(H6,13,14,15,17,18,19)
Instrument: TripleTOF 5600 SCIEX
Instrument type: LC-ESI-QTOF
Ms type: MS2
Ion mode: POSITIVE
Collision energy: 110
Fragmentation mode: CID
Ionization: ESI
Column name: Zorbax Eclipse Plus C18 2.1 mm x 150 mm, 3.5 um, Agilent
Retention time: 5.203 min
Precursor m/z: 254.1149
Precursor type: [M+H]+
m/z	relative intensity
38.0165	23
43.0436	96
53.0226	146
55.0365	23
65.0204	166
66.0285	29
68.0309	53
74.021	19
75.0159	16
75.0282	56
76.0236	39
76.0352	129
77.0441	999
79.0572	23
80.0302	16
87.0242	56
88.0232	176
89.0419	782
90.0125	46
90.0382	33
90.0499	39
92.0273	43
100.0249	13
103.0434	66
104.0506	203
114.0349	193
115.0431	76
116.0479	19
141.0459	16
