Mass spectrum: trans-2-Hexenoic acid; LC-ESI-QTOF; MS2; 80 V
Name: trans-2-Hexenoic acid
Class: Food_additive; Metabolite
Formula: C6H10O2
Exact mass: 114.0681
SMILES: CCC/C=C/C(O)=O
InChI: InChI=1S/C6H10O2/c1-2-3-4-5-6(7)8/h4-5H,2-3H2,1H3,(H,7,8)/b5-4+
Instrument: TripleTOF 5600 SCIEX
Instrument type: LC-ESI-QTOF
Ms type: MS2
Ion mode: POSITIVE
Collision energy: 80
Fragmentation mode: CID
Ionization: ESI
Column name: Zorbax Eclipse Plus C18 2.1 mm x 150 mm, 3.5 um, Agilent
Retention time: 8.012 min
Precursor m/z: 115.0754
Precursor type: [M+H]+
m/z	relative intensity
38.0107	142
42.0197	190
45.0054	999
53.0073	214
53.0155	166
55.0238	261
