Mass spectrum: Moctamide; LC-ESI-QTOF; MS2; 40 V
Name: Moctamide
Class: Pharmaceutical
Formula: C33H47NO
Exact mass: 473.3658
SMILES: CCCCCC=CCC=CCCCCCCCC(=O)NC(CC1=CC=C(C=C1)C)C2=CC=CC=C2
InChI: InChI=1S/C33H47NO/c1-3-4-5-6-7-8-9-10-11-12-13-14-15-16-20-23-33(35)34-32(31-21-18-17-19-22-31)28-30-26-24-29(2)25-27-30/h7-8,10-11,17-19,21-22,24-27,32H,3-6,9,12-16,20,23,28H2,1-2H3,(H,34,35)
Instrument: TripleTOF 6600 SCIEX
Instrument type: LC-ESI-QTOF
Ms type: MS2
Ion mode: POSITIVE
Collision energy: 40
Fragmentation mode: CID
Ionization: ESI
Column name: Zorbax Eclipse Plus C18 2.1 mm x 150 mm, 3.5 um, Agilent
Retention time: 19.86 min
Precursor m/z: 474.3721
Precursor type: [M+H]+
m/z	relative intensity
67.055	13
69.071	18
77.0401	10
81.0713	21
91.0545	52
95.0859	20
103.0539	91
107.0866	12
109.1019	12
115.0546	40
117.0703	371
135.1161	16
141.0721	15
153.0706	48
165.0699	181
166.0781	38
167.0859	177
178.0771	17
179.0863	39
180.0938	339
193.0998	30
195.117	999
474.3735	23
