Mass spectrum: Sunitinib; LC-ESI-QTOF; MS2; 80 V
Name: Sunitinib
Class: Pharmaceutical
Formula: C22H27FN4O2
Exact mass: 398.2118
SMILES: CCN(CC)CCNC(=O)C1=C(NC(=C1C)C=C2C3=C(C=CC(=C3)F)NC2=O)C
InChI: InChI=1S/C22H27FN4O2/c1-5-27(6-2)10-9-24-22(29)20-13(3)19(25-14(20)4)12-17-16-11-15(23)7-8-18(16)26-21(17)28/h7-8,11-12,25H,5-6,9-10H2,1-4H3,(H,24,29)(H,26,28)
Instrument: TripleTOF 5600 SCIEX
Instrument type: LC-ESI-QTOF
Ms type: MS2
Ion mode: POSITIVE
Collision energy: 80
Fragmentation mode: CID
Ionization: ESI
Column name: Zorbax Eclipse Plus C18 2.1 mm x 150 mm, 3.5 um, Agilent
Retention time: 6.516 min
Precursor m/z: 399.2191
Precursor type: [M+H]+
m/z	relative intensity
65.0425	14
92.0505	11
122.04	23
133.045	40
134.0395	16
135.0478	27
139.0547	15
140.0504	10
145.0476	15
146.0402	75
147.0508	16
148.0557	65
150.0346	63
151.0546	16
152.0625	12
157.0466	34
158.0425	35
159.0595	35
160.0549	31
162.0353	11
163.0543	23
164.0505	15
165.0665	21
166.0661	25
169.0452	108
170.0528	51
171.0364	160
172.0553	69
173.0465	14
174.0346	26
176.0506	37
177.0586	12
178.0641	12
180.0813	28
182.0534	35
183.0612	226
184.0556	109
185.0643	394
186.0715	98
187.067	19
188.0511	15
189.0459	118
190.0652	109
191.0698	25
192.0679	18
193.0451	35
194.0459	16
195.0481	81
196.0571	197
197.0587	56
198.0715	86
199.0766	32
200.0501	48
200.087	83
201.0582	16
202.0658	10
206.0834	14
207.0926	21
208.0565	106
209.0645	540
210.0717	999
211.0681	151
212.0774	111
213.0579	49
213.082	20
214.0655	73
215.063	22
216.0699	15
217.0759	10
219.0508	55
220.0562	155
221.0559	34
222.0612	71
223.0669	23
224.0746	43
225.0828	53
226.0688	24
226.091	29
227.0984	81
228.0802	43
235.0684	30
235.0853	16
236.0751	117
237.0836	182
238.0697	238
239.063	154
240.0693	97
241.0758	10
249.0686	11
253.0783	60
254.0852	21
255.0933	61
265.08	19
266.0787	14
268.0665	10
283.0877	48
