Mass spectrum: Acridine-9-carboxylic acid; LC-ESI-QTOF; MS2; 130 V
Name: Acridine-9-carboxylic acid
Class: Pharmaceutical; Metabolite; Transformation_product
Formula: C14H9NO2
Exact mass: 223.0633
SMILES: OC(=O)c1c2ccccc2nc3ccccc13
InChI: InChI=1S/C14H9NO2/c16-14(17)13-9-5-1-3-7-11(9)15-12-8-4-2-6-10(12)13/h1-8H,(H,16,17)
Instrument: TripleTOF 5600 SCIEX
Instrument type: LC-ESI-QTOF
Ms type: MS2
Ion mode: POSITIVE
Collision energy: 130
Fragmentation mode: CID
Ionization: ESI
Column name: Zorbax Eclipse Plus C18 2.1 mm x 150 mm, 3.5 um, Agilent
Retention time: 4.656 min
Precursor m/z: 224.0706
Precursor type: [M+H]+
m/z	relative intensity
65.0447	37
73.0118	138
74.0183	999
75.0251	481
76.0343	120
77.0411	120
85.0093	157
86.0176	268
87.0263	148
88.0342	46
89.0399	185
97.0086	64
98.0161	601
99.0227	166
100.0307	74
101.0394	37
109.0082	46
110.0152	138
111.0243	55
113.0393	148
122.0146	101
123.025	37
125.0387	46
126.0521	46
137.0379	46
139.0567	83
140.0489	46
149.0399	74
150.0472	185
164.0517	46
175.0468	46
