Mass spectrum: Emamectin B1a; LC-ESI-QTOF; MS2; 130 V
Name: Emamectin B1a
Class: Pharmaceutical; Insecticide
Formula: C49H75NO13
Exact mass: 885.5238
SMILES: C/C([C@](O[C@H]1C[C@H](OC)[C@](O[C@@H]2O[C@H](C)[C@@H](NC)[C@H](OC)C2)([H])[C@H](C)O1)([H])[C@@H](C)/C=C/C=C(CO3)/[C@@]([C@@]3([H])[C@H](O)C(C)=C4)(O)[C@@H]4C(O5)=O)=C\C[C@@H]6C[C@H]5C[C@]7(C=C[C@H](C)[C@]([C@@H](C)CC)([H])O7)O6
InChI: InChI=1S/C49H75NO13/c1-12-26(2)44-29(5)18-19-48(63-44)24-35-21-34(62-48)17-16-28(4)43(27(3)14-13-15-33-25-56-46-42(51)30(6)20-36(47(52)59-35)49(33,46)53)60-40-23-38(55-11)45(32(8)58-40)61-39-22-37(54-10)41(50-9)31(7)57-39/h13-16,18-20,26-27,29,31-32,34-46,50-51,53H,12,17,21-25H2,1-11H3/b14-13+,28-16+,33-15+/t26-,27-,29-,31+,32-,34+,35-,36-,37+,38-,39-,40-,41+,42+,43-,44+,45-,46+,48+,49+/m0/s1
Instrument: TripleTOF 5600 SCIEX
Instrument type: LC-ESI-QTOF
Ms type: MS2
Ion mode: POSITIVE
Collision energy: 130
Fragmentation mode: CID
Ionization: ESI
Column name: Zorbax Eclipse Plus C18 2.1 mm x 150 mm, 3.5 um, Agilent
Retention time: 11.594 min
Precursor m/z: 886.5311
Precursor type: [M+H]+
m/z	relative intensity
45.0409	23
55.0599	13
58.0707	96
67.0493	52
79.0575	15
80.052	27
81.0723	20
82.0688	999
84.0476	11
84.0841	10
91.0562	30
93.0721	15
95.0496	17
95.0882	10
98.0608	20
99.0674	10
101.0597	15
105.0703	29
108.0812	58
109.1005	11
114.091	19
115.055	10
117.0708	11
119.086	16
123.1163	11
126.0906	33
128.0626	14
129.07	13
131.0857	11
141.0713	10
158.1178	180
