Mass spectrum: Fenbendazole; LC-ESI-QTOF; MS2; 110 V
Name: Fenbendazole
Class: Pharmaceutical
Formula: C15H13N3O2S
Exact mass: 299.0728
SMILES: COC(=O)Nc1[nH]c2cc(Sc3ccccc3)ccc2n1
InChI: InChI=1S/C15H13N3O2S/c1-20-15(19)18-14-16-12-8-7-11(9-13(12)17-14)21-10-5-3-2-4-6-10/h2-9H,1H3,(H2,16,17,18,19)
Instrument: TripleTOF 5600 SCIEX
Instrument type: LC-ESI-QTOF
Ms type: MS2
Ion mode: POSITIVE
Collision energy: 110
Fragmentation mode: CID
Ionization: ESI
Column name: Zorbax Eclipse Plus C18 2.1 mm x 150 mm, 3.5 um, Agilent
Retention time: 9.947 min
Precursor m/z: 300.0801
Precursor type: [M+H]+
m/z	relative intensity
51.0298	54
52.0229	14
52.0355	11
53.0314	20
65.0296	21
65.0421	53
66.038	14
68.983	108
69.0124	50
69.9896	10
75.013	64
75.0271	11
76.0216	491
77.0296	999
78.0365	149
79.0443	27
81.9888	36
89.0395	28
90.0346	22
91.042	22
92.0377	68
92.9805	33
93.0457	16
93.9889	18
94.9954	62
96.0031	17
101.0391	15
102.0475	17
103.0296	75
104.0373	343
105.045	88
108.9984	29
110.0057	11
113.0379	29
115.0549	53
119.0481	28
119.9897	24
120.0549	10
120.9989	12
122.0041	54
125.0403	18
126.0461	55
127.0546	145
128.0588	41
130.0398	55
131.0472	56
136.0078	10
139.054	62
140.0483	53
145.01	18
152.0484	20
153.0563	17
154.0646	12
158.017	11
159.0428	14
164.0489	17
169.011	21
170.0164	29
171.026	125
172.0262	12
196.0215	41
