Mass spectrum: Phenacetin; LC-ESI-QTOF; MS2; 50 V
Name: Phenacetin
Class: Pharmaceutical
Formula: C10H13NO2
Exact mass: 179.0946
SMILES: CCOC1=CC=C(C=C1)NC(=O)C
InChI: InChI=1S/C10H13NO2/c1-3-13-10-6-4-9(5-7-10)11-8(2)12/h4-7H,3H2,1-2H3,(H,11,12)
Instrument: TripleTOF 5600 SCIEX
Instrument type: LC-ESI-QTOF
Ms type: MS2
Ion mode: POSITIVE
Collision energy: 50
Fragmentation mode: CID
Ionization: ESI
Column name: Zorbax Eclipse Plus C18 2.1 mm x 150 mm, 3.5 um, Agilent
Retention time: 7.622 min
Precursor m/z: 180.1019
Precursor type: [M+H]+
m/z	relative intensity
37.0074	12
38.0156	11
39.0229	98
42.0339	10
43.018	186
55.0546	15
65.0391	999
66.0467	18
67.0416	44
77.0387	16
80.05	84
81.0575	31
82.0654	56
92.0502	165
93.0346	283
93.0567	130
108.0439	13
109.0526	129
110.0604	175
