Mass spectrum: Sertraline; LC-ESI-QTOF; MS2; 40 V
Name: Sertraline
Class: Pharmaceutical
Formula: C17H17Cl2N
Exact mass: 305.0738
SMILES: CN[C@H]1CC[C@H](c2c1cccc2)c3ccc(c(c3)Cl)Cl
InChI: InChI=1S/C17H17Cl2N/c1-20-17-9-7-12(13-4-2-3-5-14(13)17)11-6-8-15(18)16(19)10-11/h2-6,8,10,12,17,20H,7,9H2,1H3/t12-,17-/m0/s1
Instrument: TripleTOF 5600 SCIEX
Instrument type: LC-ESI-QTOF
Ms type: MS2
Ion mode: POSITIVE
Collision energy: 40
Fragmentation mode: CID
Ionization: ESI
Column name: Zorbax Eclipse Plus C18 2.1 mm x 150 mm, 3.5 um, Agilent
Retention time: 8.925 min
Precursor m/z: 306.0811
Precursor type: [M+H]+
m/z	relative intensity
89.0415	11
91.0561	34
123.0004	52
124.0075	15
127.0553	13
128.063	34
129.0707	162
158.9771	999
162.023	12
196.9921	13
205.1008	13
240.0691	13
