Mass spectrum: 4-Aminoantipyrine; LC-ESI-QTOF; MS2; 30 V
Name: 4-Aminoantipyrine
Class: Transformation_product; Pharmaceutical; Transformation_product-Metabolite
Formula: C11H13N3O
Exact mass: 203.1059
SMILES: CC1=C(C(=O)N(N1C)C2=CC=CC=C2)N
InChI: InChI=1S/C11H13N3O/c1-8-10(12)11(15)14(13(8)2)9-6-4-3-5-7-9/h3-7H,12H2,1-2H3
Instrument: TripleTOF 5600 SCIEX
Instrument type: LC-ESI-QTOF
Ms type: MS2
Ion mode: POSITIVE
Collision energy: 30
Fragmentation mode: CID
Ionization: ESI
Column name: Zorbax Eclipse Plus C18 2.1 mm x 150 mm, 3.5 um, Agilent
Retention time: 4.783 min
Precursor m/z: 204.1131
Precursor type: [M+H]+
m/z	relative intensity
42.0338	20
44.0497	15
56.0498	999
58.0652	32
68.0498	13
77.0387	58
83.0605	138
85.0761	35
94.0653	247
104.0493	77
111.055	13
118.0646	32
128.0493	57
130.0651	29
132.0436	14
132.0798	37
145.076	33
146.0604	63
158.0608	16
159.0917	130
160.0842	13
172.0624	10
173.0716	11
187.0876	21
188.0823	10
189.0903	33
204.1149	12
