Mass spectrum: Neburon; LC-ESI-QTOF; MS2; 120 V
Name: Neburon
Class: Herbicide
Formula: C12H16Cl2N2O
Exact mass: 274.064
InChI: InChI=1S/C12H16Cl2N2O/c1-3-4-7-16(2)12(17)15-9-5-6-10(13)11(14)8-9/h5-6,8H,3-4,7H2,1-2H3,(H,15,17)
Instrument: TripleTOF 5600 SCIEX
Instrument type: LC-ESI-QTOF
Ms type: CID
Ion mode: NEGATIVE
Collision energy: 120
Ionization: ESI
Column name: Zorbax Eclipse Plus C18 2.1 mm x 150 mm, 3.5 um, Agilent
Retention time: 13.559 min
Precursor m/z: 273.0567
Precursor type: [M-H]-
m/z	relative intensity
34.9696	874
41.9985	999
50.0022	124
86.0029	124
