Mass spectrum: Desmethylranitidine; LC-ESI-QTOF; MS2; 50 V
Name: Desmethylranitidine
Class: Pharmaceutical; Transformation_product; Transformation_product-Metabolite
Formula: C12H20N4O3S
Exact mass: 300.1256
SMILES: CNCC1=CC=C(O1)CSCCNC(=C[N+](=O)[O-])NC
InChI: InChI=1S/C12H20N4O3S/c1-13-7-10-3-4-11(19-10)9-20-6-5-15-12(14-2)8-16(17)18/h3-4,8,13-15H,5-7,9H2,1-2H3
Instrument: TripleTOF 5600 SCIEX
Instrument type: LC-ESI-QTOF
Ms type: MS2
Ion mode: NEGATIVE
Collision energy: 50
Fragmentation mode: CID
Ionization: ESI
Column name: Zorbax Eclipse Plus C18 2.1 mm x 150 mm, 3.5 um, Agilent
Retention time: 4.769 min
Precursor m/z: 299.1183
Precursor type: [M-H]-
m/z	relative intensity
41.9985	54
45.9934	145
46.0012	72
55.0306	127
60.0084	835
85.0034	108
94.9946	72
107.034	145
108.0416	90
110.9899	54
111.9963	999
113.0035	108
113.0285	54
114.0124	108
116.0442	726
122.0575	90
141.0222	127
142.0584	308
156.0475	145
