Mass spectrum: Tributylhexadecylphosphonium; LC-ESI-QTOF; MS2; 130 V
Name: Tributylhexadecylphosphonium
Class: Pharmaceutical; Industrial_process
Formula: [C28H60P]+
Exact mass: 427.4427
SMILES: CCCCCCCCCCCCCCCC[P+](CCCC)(CCCC)CCCC
InChI: InChI=1S/C28H60P/c1-5-9-13-14-15-16-17-18-19-20-21-22-23-24-28-29(25-10-6-2,26-11-7-3)27-12-8-4/h5-28H2,1-4H3/q+1
Instrument: TripleTOF 5600 SCIEX
Instrument type: LC-ESI-QTOF
Ms type: MS2
Ion mode: POSITIVE
Collision energy: 130
Fragmentation mode: CID
Ionization: ESI
Column name: Zorbax Eclipse Plus C18 2.1 mm x 150 mm, 3.5 um, Agilent
Retention time: 16.04 min
Precursor m/z: 427.4427
Precursor type: [M]+
m/z	relative intensity
56.9933	364
59.0087	507
61.0243	999
62.0314	458
73.0224	102
75.0377	597
76.0458	786
89.0517	90
90.0584	73
101.0517	61
115.0669	73
131.0979	77
