Mass spectrum: 4-(2,4-Dichlorophenoxy)butanoic acid; LC-ESI-QTOF; MS2; 120 V
Name: 4-(2,4-Dichlorophenoxy)butanoic acid
Class: Herbicide
Formula: C10H10Cl2O3
Exact mass: 248.0007
SMILES: C1=CC(=C(C=C1Cl)Cl)OCCCC(=O)O
InChI: InChI=1S/C10H10Cl2O3/c11-7-3-4-9(8(12)6-7)15-5-1-2-10(13)14/h3-4,6H,1-2,5H2,(H,13,14)
Instrument: TripleTOF 6600 SCIEX
Instrument type: LC-ESI-QTOF
Ms type: MS2
Ion mode: POSITIVE
Collision energy: 120
Fragmentation mode: CID
Ionization: ESI
Column name: Zorbax Eclipse Plus C18 2.1 mm x 150 mm, 3.5 um, Agilent
Retention time: 11.685 min
Precursor m/z: 249.008
Precursor type: [M+H]+
m/z	relative intensity
35.9991	62
37.0071	218
38.0017	31
38.0165	187
39.0225	593
41.0377	62
43.0183	280
44.9972	249
45.0339	156
46.9685	124
48.9838	62
51.0237	31
59.9967	31
60.9845	31
72.9844	187
73.0067	249
74.0148	999
75.0223	187
77.0451	31
82.9447	93
83.9769	31
89.0372	31
107.9766	31
