Mass spectrum: Pyridoxine; LC-ESI-QTOF; MS2; 50 V
Name: Pyridoxine
Formula: C8H11NO3
Exact mass: 169.0739
SMILES: OC1=C(C)N=CC(CO)=C1CO
InChI: InChI=1S/C8H11NO3/c1-5-8(12)7(4-11)6(3-10)2-9-5/h2,10-12H,3-4H2,1H3
Instrument: TripleTOF 5600 SCIEX
Instrument type: LC-ESI-QTOF
Ms type: MS2
Ion mode: POSITIVE
Collision energy: 50
Fragmentation mode: CID
Ionization: ESI
Column name: Zorbax Eclipse Plus C18 2.1 mm x 150 mm, 3.5 um, Agilent
Retention time: 2.11 min
Precursor m/z: 170.0812
Precursor type: [M+H]+
m/z	relative intensity
38.0158	12
39.023	54
41.0388	15
42.034	25
50.015	22
51.023	155
53.0017	19
53.0389	69
54.034	12
65.0384	162
66.0471	66
67.042	50
67.0521	25
77.0386	999
78.0342	63
79.0547	222
80.0497	467
81.0577	155
82.0657	12
91.0411	34
92.0494	19
93.0574	31
94.065	241
95.0738	12
96.0806	28
106.0656	238
107.0738	38
108.0443	57
122.0585	28
123.0716	22
124.0773	25
134.0601	400
