Mass spectrum: Amantadine; LC-ESI-QTOF; MS2; 70 V
Name: Amantadine
Class: Pharmaceutical
Formula: C10H17N
Exact mass: 151.1361
SMILES: C1C2CC3CC1CC(C2)(C3)N
InChI: InChI=1S/C10H17N/c11-10-4-7-1-8(5-10)3-9(2-7)6-10/h7-9H,1-6,11H2
Instrument: TripleTOF 5600 SCIEX
Instrument type: LC-ESI-QTOF
Ms type: MS2
Ion mode: POSITIVE
Collision energy: 70
Fragmentation mode: CID
Ionization: ESI
Column name: Zorbax Eclipse Plus C18 2.1 mm x 150 mm, 3.5 um, Agilent
Retention time: 5.148 min
Precursor m/z: 152.1434
Precursor type: [M+H]+
m/z	relative intensity
37.0071	17
38.0148	19
39.0229	102
41.0387	57
49.0065	12
50.0148	74
51.0232	302
53.0385	39
55.0546	24
63.0231	9
65.0389	162
67.0542	54
77.0386	999
78.0463	47
79.0541	217
81.0703	29
91.0544	244
93.0684	17
103.053	9
105.0714	17
