Mass spectrum: O-desmethyl-venlafaxine; LC-ESI-QTOF; MS2; 140 V
Name: O-desmethyl-venlafaxine
Class: Metabolite; Pharmaceutical; Transformation_product-Metabolite
Formula: C16H25NO2
Exact mass: 263.1885
SMILES: CN(C)CC(C1=CC=C(C=C1)O)C2(CCCCC2)O
InChI: InChI=1S/C16H25NO2/c1-17(2)12-15(13-6-8-14(18)9-7-13)16(19)10-4-3-5-11-16/h6-9,15,18-19H,3-5,10-12H2,1-2H3
Instrument: TripleTOF 5600 SCIEX
Instrument type: LC-ESI-QTOF
Ms type: MS2
Ion mode: POSITIVE
Collision energy: 140
Fragmentation mode: CID
Ionization: ESI
Column name: Zorbax Eclipse Plus C18 2.1 mm x 150 mm, 3.5 um, Agilent
Retention time: 5.367 min
Precursor m/z: 264.1958
Precursor type: [M+H]+
m/z	relative intensity
42.0488	564
43.0315	33
43.0564	108
44.0648	47
55.027	47
56.0577	27
58.0751	999
65.0459	237
66.0526	33
74.0214	67
75.027	81
77.0442	815
79.0596	67
89.043	101
91.0581	115
102.0461	27
115.0543	95
