Mass spectrum: (Ethoxycarbonylmethyl)triphenylphosphonium; LC-ESI-QTOF; MS2; 150 V
Name: (Ethoxycarbonylmethyl)triphenylphosphonium
Formula: [C22H22O2P]+
Exact mass: 349.1352
SMILES: CCOC(=O)C[P+](C1=CC=CC=C1)(C2=CC=CC=C2)C3=CC=CC=C3
InChI: InChI=1S/C22H22O2P/c1-2-24-22(23)18-25(19-12-6-3-7-13-19,20-14-8-4-9-15-20)21-16-10-5-11-17-21/h3-17H,2,18H2,1H3/q+1
Instrument: TripleTOF 6600 SCIEX
Instrument type: LC-ESI-QTOF
Ms type: MS2
Ion mode: POSITIVE
Collision energy: 150
Fragmentation mode: CID
Ionization: ESI
Column name: Zorbax Eclipse Plus C18 2.1 mm x 150 mm, 3.5 um, Agilent
Retention time: 8 min
Precursor m/z: 349.1352
Precursor type: [M]+
m/z	relative intensity
51.021	117
56.9868	154
62.0129	135
63.0206	350
65.0366	137
74.0122	170
76.0277	97
77.0354	151
78.9704	89
79.9778	314
80.9857	404
87.0187	97
89.0347	441
102.0428	167
107.001	999
113.0346	149
115.0504	424
126.0428	476
131.0013	157
133.0167	62
139.0511	364
150.0432	507
151.0512	691
152.059	849
155.0018	121
156.009	138
157.0173	478
163.0516	90
179.0014	101
180.0102	119
181.0175	477
183.0337	67
