Mass spectrum: 1-Hydroxybenzotriazol; LC-ESI-QTOF; MS2; 30 V
Name: 1-Hydroxybenzotriazol
Class: Pharmaceutical; Industrial_process; Transformation_product
Formula: C6H5N3O
Exact mass: 135.0433
SMILES: c1ccc2c(c1)nnn2O
InChI: InChI=1S/C6H5N3O/c10-9-6-4-2-1-3-5(6)7-8-9/h1-4,10H
Instrument: TripleTOF 5600 SCIEX
Instrument type: LC-ESI-QTOF
Ms type: MS2
Ion mode: NEGATIVE
Collision energy: 30
Fragmentation mode: CID
Ionization: ESI
Column name: Zorbax Eclipse Plus C18 2.1 mm x 150 mm, 3.5 um, Agilent
Retention time: 5.24 min
Precursor m/z: 134.036
Precursor type: [M-H]-
m/z	relative intensity
50.0064	149
52.0217	524
76.0327	924
78.0361	549
105.0232	174
106.0312	999
134.0365	374
