Mass spectrum: Trazodone; LC-ESI-QTOF; MS2; 100 V
Name: Trazodone
Class: Pharmaceutical
Formula: C19H22ClN5O
Exact mass: 371.1513
SMILES: C1CN(CCN1CCCN2C(=O)N3C=CC=CC3=N2)C4=CC(=CC=C4)Cl
InChI: InChI=1S/C19H22ClN5O/c20-16-5-3-6-17(15-16)23-13-11-22(12-14-23)8-4-10-25-19(26)24-9-2-1-7-18(24)21-25/h1-3,5-7,9,15H,4,8,10-14H2
Instrument: TripleTOF 6600 SCIEX
Instrument type: LC-ESI-QTOF
Ms type: MS2
Ion mode: POSITIVE
Collision energy: 100
Fragmentation mode: CID
Ionization: ESI
Column name: Zorbax Eclipse Plus C18 2.1 mm x 150 mm, 3.5 um, Agilent
Retention time: 7.095 min
Precursor m/z: 372.1586
Precursor type: [M+H]+
m/z	relative intensity
38.0136	11
39.0215	38
41.0253	19
42.0327	13
50.0136	22
51.0217	145
52.0293	10
65.0247	53
66.0328	41
67.0399	17
75.021	25
77.0366	15
78.0324	999
79.0397	71
80.0475	20
91.0527	17
92.0352	191
93.043	63
94.0498	17
105.0431	15
107.0583	10
110.9977	61
117.0563	19
118.0629	45
119.0584	94
120.0303	64
120.0525	19
121.0736	12
130.0635	11
131.0599	27
138.0085	19
139.0066	14
148.05	17
