Mass spectrum: Budesonide; LC-ESI-QTOF; MS2; 140 V
Name: Budesonide
Class: Pharmaceutical
Formula: C25H34O6
Exact mass: 430.2355
SMILES: CCC[C@@H]1O[C@@H]2C[C@H]3[C@@H]4CCC5=CC(=O)C=C[C@]5(C)[C@H]4[C@@H](O)C[C@]3(C)[C@@]2(O1)C(=O)CO
InChI: InChI=1S/C25H34O6/c1-4-5-21-30-20-11-17-16-7-6-14-10-15(27)8-9-23(14,2)22(16)18(28)12-24(17,3)25(20,31-21)19(29)13-26/h8-10,16-18,20-22,26,28H,4-7,11-13H2,1-3H3/t16-,17-,18-,20+,21+,22+,23-,24-,25+/m0/s1
Instrument: TripleTOF 5600 SCIEX
Instrument type: LC-ESI-QTOF
Ms type: MS2
Ion mode: POSITIVE
Collision energy: 140
Fragmentation mode: CID
Ionization: ESI
Column name: Zorbax Eclipse Plus C18 2.1 mm x 150 mm, 3.5 um, Agilent
Retention time: 11.041 min
Precursor m/z: 431.2428
Precursor type: [M+H]+
m/z	relative intensity
65.043	192
77.0409	819
78.048	64
79.056	128
89.04	102
91.0547	627
102.0441	64
103.0532	243
107.0476	76
115.053	999
115.0826	51
121.0648	115
126.0444	102
127.0535	307
128.0608	768
129.0685	102
131.0475	256
132.0549	76
139.0515	179
141.069	204
145.0629	64
150.0451	115
151.0541	281
152.0612	730
153.0683	166
157.0645	76
163.0545	102
164.0615	89
165.0694	666
166.0784	64
176.0609	256
177.0692	102
178.0774	345
181.0666	153
187.0526	51
188.0633	64
189.068	409
190.0776	51
191.0846	102
194.0755	89
200.0644	115
201.0675	76
202.0771	333
215.0839	64
226.0771	115
