Mass spectrum: 3-Hydroxycarbamazepine; LC-ESI-QTOF; MS2; 70 V
Name: 3-Hydroxycarbamazepine
Class: Pharmaceutical
Formula: C15H12N2O2
Exact mass: 252.0899
SMILES: NC(=O)N1c2ccccc2C=Cc3ccc(O)cc13
InChI: InChI=1S/C15H12N2O2/c16-15(19)17-13-4-2-1-3-10(13)5-6-11-7-8-12(18)9-14(11)17/h1-9,18H,(H2,16,19)
Instrument: TripleTOF 5600 SCIEX
Instrument type: LC-ESI-QTOF
Ms type: MS2
Ion mode: NEGATIVE
Collision energy: 70
Fragmentation mode: CID
Ionization: ESI
Column name: Zorbax Eclipse Plus C18 2.1 mm x 150 mm, 3.5 um, Agilent
Retention time: 7.917 min
Precursor m/z: 251.0826
Precursor type: [M-H]-
m/z	relative intensity
41.0064	86
41.0142	65
42.0025	86
65.9996	65
90.0348	217
114.0366	86
115.055	152
116.0508	499
118.0308	152
129.0592	152
130.0673	347
131.0381	456
139.0562	173
139.0651	65
140.0528	152
142.0291	390
153.0619	195
164.0519	564
165.0595	282
166.0662	781
177.0571	86
178.0669	477
179.076	412
180.0826	434
181.0512	238
192.0445	369
193.054	65
205.0534	217
206.0624	999
207.0716	434
208.0746	108
