Mass spectrum: Rifaximin; LC-ESI-QTOF; MS2; 90 V
Name: Rifaximin
Class: Pharmaceutical
Formula: C43H51N3O11
Exact mass: 785.3524
SMILES: CC1C=CC=C(C(=O)NC2=C(C3=C(C4=C(C(=C3O)C)OC(C4=O)(OC=CC(C(C(C(C(C(C1O)C)O)C)OC(=O)C)C)OC)C)C5=C2N6C=CC(=CC6=N5)C)O)C
InChI: InChI=1S/C43H51N3O11/c1-19-14-16-46-28(18-19)44-32-29-30-37(50)25(7)40-31(29)41(52)43(9,57-40)55-17-15-27(54-10)22(4)39(56-26(8)47)24(6)36(49)23(5)35(48)20(2)12-11-13-21(3)42(53)45-33(34(32)46)38(30)51/h11-18,20,22-24,27,35-36,39,48-51H,1-10H3,(H,45,53)
Instrument: TripleTOF 6600 SCIEX
Instrument type: LC-ESI-QTOF
Ms type: MS2
Ion mode: POSITIVE
Collision energy: 90
Fragmentation mode: CID
Ionization: ESI
Column name: Zorbax Eclipse Plus C18 2.1 mm x 150 mm, 3.5 um, Agilent
Retention time: 11.765 min
Precursor m/z: 786.3597
Precursor type: [M+H]+
m/z	relative intensity
39.0221	23
41.0377	34
43.0172	95
53.0375	17
55.0531	54
59.0493	13
65.037	47
67.0531	187
69.0323	47
69.0685	68
71.048	17
77.0374	115
79.0531	143
81.0687	109
83.0482	40
83.0844	13
85.0626	17
87.0423	13
91.053	317
93.0688	194
95.0482	163
95.0631	20
95.0844	593
96.0892	17
97.0275	20
97.064	129
99.0795	17
103.0524	34
105.0687	334
107.0485	30
107.0841	378
108.056	54
109.0637	235
109.1003	75
111.0425	27
111.0792	68
115.0529	54
116.061	13
117.0684	81
118.0751	13
119.0596	17
119.0842	211
121.0627	119
121.1007	132
123.0794	351
123.1159	34
125.0624	20
125.0945	37
127.0511	17
128.0608	34
129.0677	64
130.076	57
131.0844	85
133.0637	47
133.0994	153
134.1087	13
135.0792	214
135.116	40
137.0959	37
137.1314	17
141.0688	30
142.0761	47
143.0838	71
144.0912	37
145.0632	34
145.1007	211
146.0723	17
146.1065	20
147.0791	34
147.1164	98
148.0868	27
149.0955	47
151.0744	150
153.0684	13
153.0909	20
155.0842	40
156.0926	30
157.0998	85
158.071	17
158.1082	30
159.0786	20
159.1155	57
160.0873	23
161.095	81
163.1109	296
165.0687	23
169.1007	20
170.1077	47
171.1147	30
173.0949	57
173.1325	51
175.1103	34
177.0893	13
177.1236	20
180.0903	13
183.116	30
185.1306	44
186.1034	27
191.1067	27
193.0999	23
195.1162	20
197.0935	13
199.1122	40
201.1248	13
207.1159	23
209.0963	23
209.1315	17
218.0841	13
219.0912	34
220.0974	20
221.1021	13
231.1166	17
234.1009	17
235.1065	20
249.1004	17
262.0946	20
263.1058	23
264.0874	17
264.1136	13
266.0938	17
273.1039	17
274.0947	34
276.0903	17
277.0985	57
277.1182	20
279.1003	20
288.1116	37
289.0946	17
290.0913	37
291.1068	136
292.1082	102
293.0975	20
293.1144	23
301.0973	47
302.0909	20
303.1033	23
304.0884	13
304.1065	20
305.0919	64
305.1179	17
306.1228	109
316.1078	47
317.0919	98
318.0925	40
319.1062	105
320.1036	78
329.0923	57
330.0938	30
331.1065	27
332.077	23
332.1041	85
333.0878	17
333.1089	13
334.1179	129
335.0993	13
335.1227	37
343.083	13
344.1027	115
345.0866	92
346.0953	235
347.1011	392
348.1097	136
350.123	30
357.0964	17
358.1059	20
359.1091	34
360.0959	265
360.1299	34
361.1055	221
361.1358	17
362.1136	999
363.1212	122
364.1269	27
368.1418	34
370.1265	20
371.0993	23
372.0999	75
372.1335	17
373.1141	44
374.1177	20
377.1476	17
382.158	13
385.1089	44
386.1215	13
387.1198	27
390.1184	17
394.1506	34
396.1348	20
396.1684	13
398.1148	47
398.1492	23
399.1242	51
400.1285	71
404.1314	17
408.1339	37
409.1304	30
410.1494	23
411.1281	13
412.1286	37
413.1329	23
414.1436	47
418.1591	13
420.1688	23
421.162	17
422.1541	51
424.1266	27
424.1668	17
426.1451	40
427.1541	27
432.132	37
434.1501	13
436.1291	71
437.1402	51
438.1471	153
438.1851	20
439.1527	30
440.1587	34
446.1504	44
448.1313	20
448.1665	57
449.1315	20
449.171	17
450.145	115
450.1941	20
451.153	54
452.1611	95
462.1416	30
463.1596	17
464.1601	30
464.1983	30
466.1761	187
467.1929	44
468.1941	47
478.1825	47
490.176	23
494.1723	68
495.1854	20
496.1958	23
504.1908	13
506.1989	20
