Mass spectrum: Dronabinol; LC-ESI-QTOF; MS2; 150 V
Name: Dronabinol
Class: Pharmaceutical
Formula: C21H30O2
Exact mass: 314.2246
SMILES: CCCCCC1=CC(=C2C3C=C(CCC3C(OC2=C1)(C)C)C)O
InChI: InChI=1S/C21H30O2/c1-5-6-7-8-15-12-18(22)20-16-11-14(2)9-10-17(16)21(3,4)23-19(20)13-15/h11-13,16-17,22H,5-10H2,1-4H3
Instrument: TripleTOF 6600 SCIEX
Instrument type: LC-ESI-QTOF
Ms type: MS2
Ion mode: POSITIVE
Collision energy: 150
Fragmentation mode: CID
Ionization: ESI
Column name: Zorbax Eclipse Plus C18 2.1 mm x 150 mm, 3.5 um, Agilent
Retention time: 17.589 min
Precursor m/z: 315.2319
Precursor type: [M+H]+
m/z	relative intensity
35.9998	34
37.0064	226
38.002	26
38.0143	157
39.0229	999
41.0379	170
43.018	17
49.007	21
50.0147	226
51.0223	466
53.0384	30
62.0138	52
63.0219	109
65.0374	152
74.0136	69
75.0237	30
76.032	30
77.0382	362
78.0467	30
79.053	21
89.0386	82
91.0529	82
102.0466	56
115.0536	82
127.0534	26
128.0604	47
139.0518	30
152.061	26
163.0517	21
165.0711	21
