Mass spectrum: Fluorescein; LC-ESI-QTOF; MS2; 150 V
Name: Fluorescein
Class: Industrial_process; Pharmaceutical
Formula: C20H12O5
Exact mass: 332.0685
SMILES: C1=CC=C2C(=C1)C(=O)OC23C4=C(C=C(C=C4)O)OC5=C3C=CC(=C5)O
InChI: InChI=1S/C20H12O5/c21-11-5-7-15-17(9-11)24-18-10-12(22)6-8-16(18)20(15)14-4-2-1-3-13(14)19(23)25-20/h1-10,21-22H
Instrument: TripleTOF 5600 SCIEX
Instrument type: LC-ESI-QTOF
Ms type: MS2
Ion mode: POSITIVE
Collision energy: 150
Fragmentation mode: CID
Ionization: ESI
Column name: Zorbax Eclipse Plus C18 2.1 mm x 150 mm, 3.5 um, Agilent
Retention time: 9.527 min
Precursor m/z: 333.0757
Precursor type: [M+H]+
m/z	relative intensity
50.014	25
51.0224	55
61.0064	25
62.0147	34
63.0222	68
74.0145	123
75.0231	68
76.0295	72
77.0379	89
78.0454	25
85.0064	29
86.0141	59
87.0218	115
89.0375	98
98.0148	192
99.0232	68
100.0322	34
102.0458	81
110.0146	81
111.0226	76
113.0378	64
115.0542	72
122.0148	111
123.0229	68
124.0289	34
125.0374	55
126.0453	170
127.0541	29
134.0142	46
137.0383	46
138.0445	21
139.0544	46
149.0384	123
150.0453	606
151.0535	243
152.0617	72
161.0381	157
162.0467	119
163.0529	281
173.0405	55
174.0466	435
175.0541	93
176.0607	93
185.039	166
186.045	179
187.0536	495
188.0619	64
189.0677	59
198.0461	392
199.0547	388
200.0616	999
201.0699	64
202.0781	38
209.0396	72
210.0452	76
211.0544	354
212.0628	42
213.0738	76
222.0438	25
