Mass spectrum: Norfloxacin; LC-ESI-QTOF; MS2; 130 V
Name: Norfloxacin
Class: Antimicrobial; Pharmaceutical
Formula: C16H18FN3O3
Exact mass: 319.1332
SMILES: CCN1C=C(C(=O)C2=CC(=C(C=C21)N3CCNCC3)F)C(=O)O
InChI: InChI=1S/C16H18FN3O3/c1-2-19-9-11(16(22)23)15(21)10-7-12(17)14(8-13(10)19)20-5-3-18-4-6-20/h7-9,18H,2-6H2,1H3,(H,22,23)
Instrument: TripleTOF 5600 SCIEX
Instrument type: LC-ESI-QTOF
Ms type: MS2
Ion mode: POSITIVE
Collision energy: 130
Fragmentation mode: CID
Ionization: ESI
Column name: Zorbax Eclipse Plus C18 2.1 mm x 150 mm, 3.5 um, Agilent
Retention time: 5.167 min
Precursor m/z: 320.1405
Precursor type: [M+H]+
m/z	relative intensity
57.0222	214
74.0212	463
75.0281	820
76.0244	178
81.018	356
82.0144	214
83.0325	178
85.0123	178
87.0138	249
88.0234	321
94.0228	249
95.0316	249
98.0161	178
99.024	677
100.0197	356
101.0405	321
105.0134	392
106.0184	321
107.0299	999
108.0442	178
113.0272	249
114.0356	285
120.0377	285
126.0354	321
128.0525	142
132.0233	927
133.0336	321
133.0486	214
146.0412	142
