Mass spectrum: Theophylline; LC-ESI-QTOF; MS2; 40 V
Name: Theophylline
Class: Pharmaceutical
Formula: C7H8N4O2
Exact mass: 180.0647
SMILES: CN1C2=C(C(=O)N(C1=O)C)NC=N2
InChI: InChI=1S/C7H8N4O2/c1-10-5-4(8-3-9-5)6(12)11(2)7(10)13/h3H,1-2H3,(H,8,9)
Instrument: TripleTOF 5600 SCIEX
Instrument type: LC-ESI-QTOF
Ms type: MS2
Ion mode: POSITIVE
Collision energy: 40
Fragmentation mode: CID
Ionization: ESI
Column name: Zorbax Eclipse Plus C18 2.1 mm x 150 mm, 3.5 um, Agilent
Retention time: 4.936 min
Precursor m/z: 181.072
Precursor type: [M+H]+
m/z	relative intensity
42.0436	602
54.0264	20
55.0341	20
67.0324	27
68.0398	10
69.0486	541
81.0457	31
82.0189	12
83.0254	31
94.041	75
95.0243	16
96.0565	455
97.0403	18
108.0546	18
109.026	96
110.0699	18
120.0557	10
121.0499	14
122.0352	16
122.0565	18
124.0503	999
137.0807	23
181.0709	293
