Mass spectrum: Dienogest Impurity G; LC-ESI-QTOF; MS2; 90 V
Name: Dienogest Impurity G
Class: Pharmaceutical
Formula: C20H23NO2
Exact mass: 309.1729
SMILES: CC12CC=C3C(C1CCC2(CC#N)O)CCC4=C3C=CC(=C4)O
InChI: InChI=1S/C20H23NO2/c1-19-8-6-16-15-5-3-14(22)12-13(15)2-4-17(16)18(19)7-9-20(19,23)10-11-21/h3,5-6,12,17-18,22-23H,2,4,7-10H2,1H3
Instrument: TripleTOF 6600 SCIEX
Instrument type: LC-ESI-QTOF
Ms type: MS2
Ion mode: POSITIVE
Collision energy: 90
Fragmentation mode: CID
Ionization: ESI
Column name: Zorbax Eclipse Plus C18 2.1 mm x 150 mm, 3.5 um, Agilent
Retention time: 9.956 min
Precursor m/z: 310.1802
Precursor type: [M+H]+
m/z	relative intensity
39.0225	43
41.0382	28
43.017	18
50.0138	39
51.0219	108
53.0376	43
55.0175	28
55.0536	25
63.022	36
65.0374	137
66.0454	36
67.0525	50
75.023	14
77.0374	774
78.0463	43
79.0529	249
81.0702	21
89.0371	97
91.0526	369
93.0564	14
94.0402	54
102.0453	47
103.053	264
105.044	25
105.0683	155
106.0631	21
107.0477	119
115.0527	999
116.06	202
117.0593	14
118.0384	28
126.0449	36
127.0523	177
128.0607	401
129.0685	50
130.0627	39
131.0478	166
131.0767	14
132.0564	39
133.0637	21
139.0524	28
141.0695	68
144.0553	180
145.0622	14
150.0468	28
151.0538	32
152.0604	119
153.0671	50
155.0579	68
157.0633	68
164.0585	14
165.0688	133
166.0754	32
168.0787	21
169.0616	18
176.0609	47
177.0691	36
178.076	47
179.0829	14
181.0641	68
182.0675	18
189.0679	68
190.0775	14
191.0845	14
195.0803	21
202.0773	50
207.0796	14
215.0823	18
