Mass spectrum: 1-(Ethoxycarbonyl)ethyltriphenylphosphonium; LC-ESI-QTOF; MS2; 120 V
Name: 1-(Ethoxycarbonyl)ethyltriphenylphosphonium
Formula: [C23H24O2P]+
Exact mass: 363.1508
SMILES: CCOC(=O)C(C)[P+](C1=CC=CC=C1)(C2=CC=CC=C2)C3=CC=CC=C3
InChI: InChI=1S/C23H24O2P/c1-3-25-23(24)19(2)26(20-13-7-4-8-14-20,21-15-9-5-10-16-21)22-17-11-6-12-18-22/h4-19H,3H2,1-2H3/q+1
Instrument: TripleTOF 5600 SCIEX
Instrument type: LC-ESI-QTOF
Ms type: MS2
Ion mode: POSITIVE
Collision energy: 120
Fragmentation mode: CID
Ionization: ESI
Column name: Zorbax Eclipse Plus C18 2.1 mm x 150 mm, 3.5 um, Agilent
Retention time: 8.086 min
Precursor m/z: 363.1508
Precursor type: [M]+
m/z	relative intensity
80.9872	53
107.0024	532
115.0528	266
126.0457	79
133.0186	79
139.0523	266
150.0424	53
151.0518	186
152.0607	999
157.0184	559
181.0194	159
183.0341	546
