Mass spectrum: 2,2,6,6-Tetramethylpiperidin-1-oxyl; LC-ESI-QTOF; MS2; 40 V
Name: 2,2,6,6-Tetramethylpiperidin-1-oxyl
Formula: C9H18NO
Exact mass: 156.1388
SMILES: CC1(CCCC(N1[O])(C)C)C
InChI: InChI=1S/C9H18NO/c1-8(2)6-5-7-9(3,4)10(8)11/h5-7H2,1-4H3
Instrument: TripleTOF 5600 SCIEX
Instrument type: LC-ESI-QTOF
Ms type: MS2
Ion mode: POSITIVE
Collision energy: 40
Fragmentation mode: CID
Ionization: ESI
Column name: Zorbax Eclipse Plus C18 2.1 mm x 150 mm, 3.5 um, Agilent
Retention time: 10.403 min
Precursor m/z: 157.1461
Precursor type: [M+H]+
m/z	relative intensity
39.0232	99
41.04	399
42.0341	99
55.0527	99
56.05	199
67.052	199
69.0694	999
74.0593	399
80.0589	299
81.0692	499
82.0631	99
82.071	99
86.0594	199
109.1016	399
110.0942	199
142.1259	399
