Mass spectrum: Tryptamine; LC-ESI-QTOF; MS2; 40 V
Name: Tryptamine
Class: Metabolite
Formula: C10H12N2
Exact mass: 160.1
SMILES: C1=CC=C2C(=C1)C(=CN2)CCN
InChI: InChI=1S/C10H12N2/c11-6-5-8-7-12-10-4-2-1-3-9(8)10/h1-4,7,12H,5-6,11H2
Instrument: TripleTOF 5600 SCIEX
Instrument type: LC-ESI-QTOF
Ms type: MS2
Ion mode: POSITIVE
Collision energy: 40
Fragmentation mode: CID
Ionization: ESI
Column name: Zorbax Eclipse Plus C18 2.1 mm x 150 mm, 3.5 um, Agilent
Retention time: 4.966 min
Precursor m/z: 161.1073
Precursor type: [M+H]+
m/z	relative intensity
51.0228	31
65.0389	99
77.0389	189
89.0393	189
90.046	139
91.0547	503
101.0385	40
102.0482	36
103.0552	62
115.055	999
116.0588	157
117.0626	792
118.0654	36
126.0469	45
127.0547	351
128.0502	166
129.0585	40
142.0661	153
143.0732	670
144.081	841
