Mass spectrum: 2,6-Dimethylpyridine; LC-ESI-QTOF; MS2; 40 V
Name: 2,6-Dimethylpyridine
Formula: C7H9N
Exact mass: 107.0735
SMILES: CC1=NC(=CC=C1)C
InChI: InChI=1S/C7H9N/c1-6-4-3-5-7(2)8-6/h3-5H,1-2H3
Instrument: TripleTOF 6600 SCIEX
Instrument type: LC-ESI-QTOF
Ms type: MS2
Ion mode: POSITIVE
Collision energy: 40
Fragmentation mode: CID
Ionization: ESI
Column name: Zorbax Eclipse Plus C18 2.1 mm x 150 mm, 3.5 um, Agilent
Retention time: 2.395 min
Precursor m/z: 108.0808
Precursor type: [M+H]+
m/z	relative intensity
37.0071	64
38.0161	32
39.0226	531
41.038	381
42.0343	60
50.0156	16
51.0219	16
53.0379	24
65.0377	791
66.0455	231
67.0414	48
67.0532	263
77.0374	89
78.033	48
79.0532	48
80.0481	56
91.0525	20
92.0485	584
93.0562	357
106.0643	203
107.072	414
108.0799	999
