Mass spectrum: O-desmethyl-venlafaxine; LC-ESI-QTOF; MS2; 80 V
Name: O-desmethyl-venlafaxine
Class: Metabolite; Pharmaceutical; Transformation_product-Metabolite
Formula: C16H25NO2
Exact mass: 263.1885
SMILES: CN(C)CC(C1=CC=C(C=C1)O)C2(CCCCC2)O
InChI: InChI=1S/C16H25NO2/c1-17(2)12-15(13-6-8-14(18)9-7-13)16(19)10-4-3-5-11-16/h6-9,15,18-19H,3-5,10-12H2,1-2H3
Instrument: TripleTOF 5600 SCIEX
Instrument type: LC-ESI-QTOF
Ms type: MS2
Ion mode: POSITIVE
Collision energy: 80
Fragmentation mode: CID
Ionization: ESI
Column name: Zorbax Eclipse Plus C18 2.1 mm x 150 mm, 3.5 um, Agilent
Retention time: 5.367 min
Precursor m/z: 264.1958
Precursor type: [M+H]+
m/z	relative intensity
42.0485	112
43.0545	38
55.0294	28
56.0593	28
58.0745	999
65.0462	42
66.0539	12
77.0439	898
78.0511	16
79.0587	268
81.0367	12
81.0739	86
89.0419	32
91.0572	116
94.0436	22
102.0494	10
103.0556	88
105.0702	74
107.0507	696
115.0545	184
116.0608	36
119.0493	26
120.0563	18
127.055	36
128.0629	32
131.0495	28
141.0706	12
144.0559	34
