Mass spectrum: 2-Morpholin-4-yl-benzothiazole; LC-ESI-QTOF; MS2; 70 V
Name: 2-Morpholin-4-yl-benzothiazole
Class: Industrial_process
Formula: C11H12N2OS
Exact mass: 220.067
SMILES: c1ccc2c(c1)nc(s2)N3CCOCC3
InChI: InChI=1S/C11H12N2OS/c1-2-4-10-9(3-1)12-11(15-10)13-5-7-14-8-6-13/h1-4H,5-8H2
Instrument: TripleTOF 5600 SCIEX
Instrument type: LC-ESI-QTOF
Ms type: MS2
Ion mode: POSITIVE
Collision energy: 70
Fragmentation mode: CID
Ionization: ESI
Column name: Zorbax Eclipse Plus C18 2.1 mm x 150 mm, 3.5 um, Agilent
Retention time: 9.363 min
Precursor m/z: 221.0743
Precursor type: [M+H]+
m/z	relative intensity
45.0414	14
51.0289	17
53.0451	24
55.0589	12
65.0434	744
67.0576	12
68.9826	228
69.9908	24
77.041	215
78.0348	16
79.0568	32
80.0513	209
81.9888	49
82.9965	13
89.0395	86
90.0354	65
90.0466	71
91.0547	109
92.0507	26
92.9798	14
94.9948	27
96.0032	173
97.0113	19
104.05	18
105.0446	38
105.071	12
106.0647	11
106.9939	25
108.0026	330
109.011	999
115.0532	13
116.0479	35
117.0567	149
118.0525	32
121.01	24
122.0044	38
123.0137	67
124.0205	53
133.0056	14
134.0054	72
135.0131	101
136.0209	163
148.0209	39
149.0284	28
150.0274	65
151.0312	28
175.0328	45
