Mass spectrum: Tolcapone; LC-ESI-QTOF; MS2; 60 V
Name: Tolcapone
Class: Pharmaceutical
Formula: C14H11NO5
Exact mass: 273.0637
SMILES: CC1=CC=C(C=C1)C(=O)C2=CC(=C(C(=C2)O)O)[N+](=O)[O-]
InChI: InChI=1S/C14H11NO5/c1-8-2-4-9(5-3-8)13(17)10-6-11(15(19)20)14(18)12(16)7-10/h2-7,16,18H,1H3
Instrument: TripleTOF 5600 SCIEX
Instrument type: LC-ESI-QTOF
Ms type: MS2
Ion mode: NEGATIVE
Collision energy: 60
Fragmentation mode: CID
Ionization: ESI
Column name: Zorbax Eclipse Plus C18 2.1 mm x 150 mm, 3.5 um, Agilent
Retention time: 11.114 min
Precursor m/z: 272.0564
Precursor type: [M-H]-
m/z	relative intensity
115.0556	999
139.0563	83
141.0718	307
143.0513	51
153.0597	108
157.0669	70
159.0461	140
167.0501	102
169.0665	384
181.0658	352
182.0615	429
185.0605	64
196.0537	76
197.0598	51
224.0481	198
