Mass spectrum: Methyl 3-hydroxybenzoate; LC-ESI-QTOF; MS2; 80 V
Name: Methyl 3-hydroxybenzoate
Class: Pharmaceutical
Formula: C8H8O3
Exact mass: 152.0473
SMILES: COC(=O)C1=CC(=CC=C1)O
InChI: InChI=1S/C8H8O3/c1-11-8(10)6-3-2-4-7(9)5-6/h2-5,9H,1H3
Instrument: TripleTOF 5600 SCIEX
Instrument type: LC-ESI-QTOF
Ms type: CID
Ion mode: POSITIVE
Collision energy: 80
Ionization: ESI
Column name: Zorbax Eclipse Plus C18 2.1 mm x 150 mm, 3.5 um, Agilent
Retention time: 7.88 min
Precursor m/z: 153.0546
Precursor type: [M+H]+
m/z	relative intensity
35.9989	0
37.0074	333
38.0139	333
39.0225	999
51.0225	333
53.0023	333
65.0379	776
66.0495	111
74.0153	222
