Mass spectrum: N,N-Dimethyldecanamide; LC-ESI-QTOF; MS2; 90 V
Name: N,N-Dimethyldecanamide
Class: Industrial_process
Formula: C12H25NO
Exact mass: 199.1936
SMILES: CCCCCCCCCC(=O)N(C)C
InChI: InChI=1S/C12H25NO/c1-4-5-6-7-8-9-10-11-12(14)13(2)3/h4-11H2,1-3H3
Instrument: TripleTOF 6600 SCIEX
Instrument type: LC-ESI-QTOF
Ms type: MS2
Ion mode: POSITIVE
Collision energy: 90
Fragmentation mode: CID
Ionization: ESI
Column name: Zorbax Eclipse Plus C18 2.1 mm x 150 mm, 3.5 um, Agilent
Retention time: 13.577 min
Precursor m/z: 200.2009
Precursor type: [M+H]+
m/z	relative intensity
30.0333	33
35.9987	15
37.0068	52
38.0024	31
38.0141	48
39.0227	444
41.0382	164
42.0332	46
43.0174	149
43.0542	10
44.0493	999
45.0566	18
46.0646	70
55.0173	48
55.0409	10
56.0127	21
58.028	75
72.0435	61
