Mass spectrum: N,N`-bis(2-methoxyethoxycarbonyl)-4-methyl-1,3-phenylenediamine; LC-ESI-QTOF; MS2; 40 V
Name: N,N`-bis(2-methoxyethoxycarbonyl)-4-methyl-1,3-phenylenediamine
Formula: C15H22N2O6
Exact mass: 326.1478
SMILES: CC1=C(C=C(C=C1)NC(=O)OCCOC)NC(=O)OCCOC
InChI: InChI=1S/C15H22N2O6/c1-11-4-5-12(16-14(18)22-8-6-20-2)10-13(11)17-15(19)23-9-7-21-3/h4-5,10H,6-9H2,1-3H3,(H,16,18)(H,17,19)
Instrument: TripleTOF 5600 SCIEX
Instrument type: LC-ESI-QTOF
Ms type: MS2
Ion mode: POSITIVE
Collision energy: 40
Fragmentation mode: CID
Ionization: ESI
Column name: Zorbax Eclipse Plus C18 2.1 mm x 150 mm, 3.5 um, Agilent
Retention time: 8.323 min
Precursor m/z: 327.1551
Precursor type: [M+H]+
m/z	relative intensity
45.0462	62
59.0584	837
77.0435	29
77.0655	293
92.0542	49
104.0509	54
106.0666	39
120.0457	79
121.078	44
132.0456	204
134.0446	14
147.0559	483
149.0698	77
160.0568	34
175.0505	572
175.086	9
176.069	22
191.0869	17
193.0601	184
193.0964	59
219.0763	999
237.0896	69
251.1013	49
263.1154	17
295.1279	114
