Mass spectrum: Thymidine; LC-ESI-QTOF; MS2; 70 V
Name: Thymidine
Class: Metabolite
Formula: C10H14N2O5
Exact mass: 242.0903
SMILES: OCC1OC(N2C=C(C)C(NC2=O)=O)CC1O
InChI: InChI=1S/C10H14N2O5/c1-5-3-12(10(16)11-9(5)15)8-2-6(14)7(4-13)17-8/h3,6-8,13-14H,2,4H2,1H3,(H,11,15,16)
Instrument: TripleTOF 5600 SCIEX
Instrument type: LC-ESI-QTOF
Ms type: MS2
Ion mode: POSITIVE
Collision energy: 70
Fragmentation mode: CID
Ionization: ESI
Column name: Zorbax Eclipse Plus C18 2.1 mm x 150 mm, 3.5 um, Agilent
Retention time: 4.533 min
Precursor m/z: 243.0976
Precursor type: [M+H]+
m/z	relative intensity
39.0229	69
41.0388	131
43.0174	75
43.0541	94
45.0337	226
53.0386	113
54.034	490
56.0493	194
57.033	50
69.0336	395
71.0505	87
73.0286	282
81.0328	50
81.0439	119
82.0293	276
84.0447	364
99.0428	43
109.0395	251
110.0233	999
127.0502	508
