Mass spectrum: Nicosulfuron; LC-ESI-QTOF; MS2; 80 V
Name: Nicosulfuron
Class: Herbicide
Formula: C15H18N6O6S
Exact mass: 410.1009
SMILES: CN(C)C(=O)C1=C(N=CC=C1)S(=O)(=O)NC(=O)NC2=NC(=CC(=N2)OC)OC
InChI: InChI=1S/C15H18N6O6S/c1-21(2)13(22)9-6-5-7-16-12(9)28(24,25)20-15(23)19-14-17-10(26-3)8-11(18-14)27-4/h5-8H,1-4H3,(H2,17,18,19,20,23)
Instrument: TripleTOF 6600 SCIEX
Instrument type: LC-ESI-QTOF
Ms type: MS2
Ion mode: NEGATIVE
Collision energy: 80
Fragmentation mode: CID
Ionization: ESI
Column name: Zorbax Eclipse Plus C18 2.1 mm x 150 mm, 3.5 um, Agilent
Retention time: 8.499 min
Precursor m/z: 409.0936
Precursor type: [M-H]-
m/z	relative intensity
40.0075	57
41.0147	107
41.9979	63
64.006	47
65.0145	266
65.998	999
77.9659	15
82.0165	38
90.0076	60
94.0307	25
107.0119	742
108.0199	38
109.0308	22
122.0357	453
124.0514	22
139.0377	126
147.0459	19
154.0622	60
