Mass spectrum: Nitrazepam; LC-ESI-QTOF; MS2; 90 V
Name: Nitrazepam
Class: Pharmaceutical
Formula: C15H11N3O3
Exact mass: 281.08
SMILES: C1C(=O)NC2=C(C=C(C=C2)[N+](=O)[O-])C(=N1)C3=CC=CC=C3
InChI: InChI=1S/C15H11N3O3/c19-14-9-16-15(10-4-2-1-3-5-10)12-8-11(18(20)21)6-7-13(12)17-14/h1-8H,9H2,(H,17,19)
Instrument: TripleTOF 6600 SCIEX
Instrument type: LC-ESI-QTOF
Ms type: MS2
Ion mode: POSITIVE
Collision energy: 90
Fragmentation mode: CID
Ionization: ESI
Column name: Zorbax Eclipse Plus C18 2.1 mm x 150 mm, 3.5 um, Agilent
Retention time: 9.435 min
Precursor m/z: 282.0873
Precursor type: [M+H]+
m/z	relative intensity
39.0221	10
50.0145	24
51.0222	78
62.0142	12
63.0223	20
65.0376	26
74.0133	18
75.0219	55
76.0173	11
76.0292	50
77.0374	269
78.0341	27
78.045	21
87.0213	14
89.0372	69
91.0525	29
99.0222	10
101.0371	20
102.0323	46
102.0454	23
103.0411	32
104.0479	63
113.037	47
115.0532	79
116.0485	10
125.0375	36
126.0457	95
127.0528	185
128.0606	76
129.0437	41
130.0378	14
137.0357	19
138.0426	23
139.0518	140
140.0478	137
141.0608	11
149.0362	12
150.045	154
151.0529	540
152.0609	999
153.0658	123
154.0646	50
155.0578	20
162.0457	48
163.0527	300
164.0547	220
165.069	108
166.0633	43
167.0707	40
176.0474	18
177.0557	133
178.0644	242
179.07	136
180.0798	76
188.0478	57
189.057	55
190.0631	149
191.0704	56
192.0695	24
205.0759	241
206.0822	17
