Mass spectrum: Methabenzthiazuron; LC-ESI-QTOF; MS2; 120 V
Name: Methabenzthiazuron
Class: Herbicide
Formula: C10H11N3OS
Exact mass: 221.0623
SMILES: CNC(=O)N(C)c1sc2ccccc2n1
InChI: InChI=1S/C10H11N3OS/c1-11-9(14)13(2)10-12-7-5-3-4-6-8(7)15-10/h3-6H,1-2H3,(H,11,14)
Instrument: TripleTOF 5600 SCIEX
Instrument type: LC-ESI-QTOF
Ms type: MS2
Ion mode: POSITIVE
Collision energy: 120
Fragmentation mode: CID
Ionization: ESI
Column name: Zorbax Eclipse Plus C18 2.1 mm x 150 mm, 3.5 um, Agilent
Retention time: 9.783 min
Precursor m/z: 222.0696
Precursor type: [M+H]+
m/z	relative intensity
51.0291	122
52.025	9
52.0374	30
53.0446	21
57.9926	19
58.0345	79
64.032	17
65.0428	29
67.9748	73
68.984	999
69.9907	290
74.0167	11
78.0364	22
79.0462	11
80.0524	17
80.9797	16
81.9888	78
91.0502	11
92.9804	39
94.9963	480
95.0343	9
96.003	125
122.0049	40
