Mass spectrum: 2-Aminobenzimidazole; LC-ESI-QTOF; MS2; 60 V
Name: 2-Aminobenzimidazole
Class: Transformation_product; Fungicide
Formula: C7H7N3
Exact mass: 133.064
SMILES: C1=CC=C2C(=C1)NC(=N2)N
InChI: InChI=1S/C7H7N3/c8-7-9-5-3-1-2-4-6(5)10-7/h1-4H,(H3,8,9,10)
Instrument: TripleTOF 6600 SCIEX
Instrument type: LC-ESI-QTOF
Ms type: MS2
Ion mode: POSITIVE
Collision energy: 60
Fragmentation mode: CID
Ionization: ESI
Column name: Zorbax Eclipse Plus C18 2.1 mm x 150 mm, 3.5 um, Agilent
Retention time: 4.787 min
Precursor m/z: 134.0713
Precursor type: [M+H]+
m/z	relative intensity
35.9993	39
37.0072	194
38.015	164
39.023	999
43.0289	37
50.0147	12
51.0229	32
52.018	23
52.0302	15
53.0383	98
54.0333	19
62.0145	25
63.0224	57
64.018	30
64.0294	18
65.0386	713
66.0327	9
66.0463	64
78.0336	21
79.0418	13
80.049	109
90.0334	12
92.0491	61
93.0571	51
105.0444	24
