Mass spectrum: Tris(4-methylphenyl) phosphate; LC-ESI-QTOF; MS2; 150 V
Name: Tris(4-methylphenyl) phosphate
Class: Industrial_process
Formula: C21H21O4P
Exact mass: 368.1177
SMILES: CC1=CC=C(C=C1)OP(=O)(OC2=CC=C(C=C2)C)OC3=CC=C(C=C3)C
InChI: InChI=1S/C21H21O4P/c1-16-4-10-19(11-5-16)23-26(22,24-20-12-6-17(2)7-13-20)25-21-14-8-18(3)9-15-21/h4-15H,1-3H3
Instrument: TripleTOF 6600 SCIEX
Instrument type: LC-ESI-QTOF
Ms type: MS2
Ion mode: POSITIVE
Collision energy: 150
Fragmentation mode: CID
Ionization: ESI
Column name: Zorbax Eclipse Plus C18 2.1 mm x 150 mm, 3.5 um, Agilent
Retention time: 15.924 min
Precursor m/z: 369.125
Precursor type: [M+H]+
m/z	relative intensity
35.9985	32
37.0064	178
38.0141	131
39.0223	735
41.0375	39
49.0065	26
50.014	129
51.022	181
53.0379	10
59.9986	28
61.0062	115
62.0143	231
63.022	318
65.0375	402
74.0137	62
75.0219	37
76.0301	32
77.0374	131
78.0456	26
85.0055	37
86.0138	58
87.0218	99
88.0301	21
89.0373	270
91.0534	40
98.0143	48
99.0221	23
100.0306	12
102.0455	46
107.049	14
110.0136	26
111.0222	28
113.0379	126
114.045	17
115.0535	341
125.0377	16
126.0456	78
127.0539	26
128.0611	28
137.0382	60
138.0457	49
139.0539	341
149.0376	23
150.0459	97
151.0537	96
152.0612	97
161.0387	69
162.0463	183
163.0546	999
164.0619	242
165.0698	153
170.0285	10
175.0557	17
176.0614	67
177.0691	12
187.0561	42
200.0618	16
201.0693	10
211.0554	26
213.0719	16
224.0621	48
225.0702	10
226.0796	28
235.0564	44
236.062	39
237.071	113
239.0876	10
250.0786	40
