Mass spectrum: 2-Aminobenzimidazole; LC-ESI-QTOF; MS2; 100 V
Name: 2-Aminobenzimidazole
Class: Transformation_product; Fungicide
Formula: C7H7N3
Exact mass: 133.064
InChI: InChI=1S/C7H7N3/c8-7-9-5-3-1-2-4-6(5)10-7/h1-4H,(H3,8,9,10)
Instrument: TripleTOF 6600 SCIEX
Instrument type: LC-ESI-QTOF
Ms type: CID
Ion mode: NEGATIVE
Collision energy: 100
Ionization: ESI
Column name: Zorbax Eclipse Plus C18 2.1 mm x 150 mm, 3.5 um, Agilent
Retention time: 4.787 min
Precursor m/z: 132.0567
Precursor type: [M-H]-
m/z	relative intensity
40.0068	666
41.0144	999
