Mass spectrum: Doxepin; LC-ESI-QTOF; MS2; 150 V
Name: Doxepin
Class: Pharmaceutical
Formula: C19H21NO
Exact mass: 279.1623
SMILES: CN(C)CCC=C1C2=CC=CC=C2COC3=CC=CC=C31
InChI: InChI=1S/C19H21NO/c1-20(2)13-7-11-17-16-9-4-3-8-15(16)14-21-19-12-6-5-10-18(17)19/h3-6,8-12H,7,13-14H2,1-2H3
Instrument: TripleTOF 5600 SCIEX
Instrument type: LC-ESI-QTOF
Ms type: MS2
Ion mode: POSITIVE
Collision energy: 150
Fragmentation mode: CID
Ionization: ESI
Column name: Zorbax Eclipse Plus C18 2.1 mm x 150 mm, 3.5 um, Agilent
Retention time: 7.447 min
Precursor m/z: 280.1696
Precursor type: [M+H]+
m/z	relative intensity
42.0466	97
44.0612	53
55.0282	10
58.0733	78
65.045	332
68.0548	20
73.0128	70
74.0211	594
75.0285	237
76.0365	239
77.044	408
78.0512	80
85.0118	134
86.0194	398
87.0269	379
88.0349	51
89.0427	579
91.0569	80
97.0108	47
98.0185	493
99.0266	169
100.0342	57
101.0413	35
102.0491	198
109.0098	51
110.0173	171
111.0254	152
113.041	237
114.0481	30
115.0567	390
121.0112	35
122.0175	181
123.0252	76
124.034	39
125.0421	53
126.0485	212
127.0553	63
128.0636	39
134.0164	57
135.0264	37
137.0392	163
138.0475	70
139.055	266
146.0156	28
148.0307	22
149.0389	144
150.047	654
151.0552	200
152.0651	51
161.0401	278
162.0469	414
163.0546	999
164.0624	82
165.0681	28
173.0363	43
174.0455	208
175.054	55
176.0597	97
185.0377	179
186.045	214
187.0546	825
188.0609	121
189.0696	97
197.0374	41
198.0454	206
199.0537	63
200.062	105
209.0369	30
210.0463	35
211.0514	146
212.0605	18
213.0667	28
