Mass spectrum: Dienogest Impurity G; LC-ESI-QTOF; MS2; 130 V
Name: Dienogest Impurity G
Class: Pharmaceutical
Formula: C20H23NO2
Exact mass: 309.1729
SMILES: CC12CC=C3C(C1CCC2(CC#N)O)CCC4=C3C=CC(=C4)O
InChI: InChI=1S/C20H23NO2/c1-19-8-6-16-15-5-3-14(22)12-13(15)2-4-17(16)18(19)7-9-20(19,23)10-11-21/h3,5-6,12,17-18,22-23H,2,4,7-10H2,1H3
Instrument: TripleTOF 6600 SCIEX
Instrument type: LC-ESI-QTOF
Ms type: MS2
Ion mode: POSITIVE
Collision energy: 130
Fragmentation mode: CID
Ionization: ESI
Column name: Zorbax Eclipse Plus C18 2.1 mm x 150 mm, 3.5 um, Agilent
Retention time: 9.956 min
Precursor m/z: 310.1802
Precursor type: [M+H]+
m/z	relative intensity
37.007	42
38.0143	63
39.0221	201
41.0379	85
49.0062	106
50.0141	340
51.022	669
53.0384	53
61.0075	53
62.0145	127
63.0221	329
65.0375	361
66.0445	53
74.0149	85
75.0214	106
76.0297	74
77.0372	999
78.0449	148
79.0532	74
87.0224	74
89.0372	393
91.0523	127
94.0401	42
102.0446	212
103.0526	148
114.0429	42
115.053	903
126.0447	127
127.0518	148
128.0609	201
131.0476	42
139.0529	127
150.0453	127
151.0513	116
152.0613	233
153.0701	53
163.0532	106
164.0619	106
165.0696	85
175.0486	53
176.0624	53
178.0732	42
187.0501	85
189.0685	95
200.0586	42
