Mass spectrum: Diphenyl phosphate; LC-ESI-QTOF; MS2; 30 V
Name: Diphenyl phosphate
Class: Industrial_process
Formula: C12H11O4P
Exact mass: 250.0395
SMILES: C1=CC=C(C=C1)OP(=O)(O)OC2=CC=CC=C2
InChI: InChI=1S/C12H11O4P/c13-17(14,15-11-7-3-1-4-8-11)16-12-9-5-2-6-10-12/h1-10H,(H,13,14)
Instrument: TripleTOF 5600 SCIEX
Instrument type: LC-ESI-QTOF
Ms type: MS2
Ion mode: POSITIVE
Collision energy: 30
Fragmentation mode: CID
Ionization: ESI
Column name: Zorbax Eclipse Plus C18 2.1 mm x 150 mm, 3.5 um, Agilent
Retention time: 8.14 min
Precursor m/z: 251.0468
Precursor type: [M+H]+
m/z	relative intensity
51.0227	34
77.0381	930
95.0482	239
151.0523	85
152.0611	452
153.0693	631
157.003	76
168.0572	76
175.0163	264
215.025	452
233.0319	256
251.045	999
