Mass spectrum: N-[4-(1H-benzimidazol-2-yl)phenyl]-N,N-dimethylamine; LC-ESI-QTOF; MS2; 60 V
Name: N-[4-(1H-benzimidazol-2-yl)phenyl]-N,N-dimethylamine
Class: Pharmaceutical
Formula: C15H15N3
Exact mass: 237.1266
SMILES: CN(C)C1=CC=C(C=C1)C2=NC3=CC=CC=C3N2
InChI: InChI=1S/C15H15N3/c1-18(2)12-9-7-11(8-10-12)15-16-13-5-3-4-6-14(13)17-15/h3-10H,1-2H3,(H,16,17)
Instrument: TripleTOF 5600 SCIEX
Instrument type: LC-ESI-QTOF
Ms type: MS2
Ion mode: POSITIVE
Collision energy: 60
Fragmentation mode: CID
Ionization: ESI
Column name: Zorbax Eclipse Plus C18 2.1 mm x 150 mm, 3.5 um, Agilent
Retention time: 6.517 min
Precursor m/z: 238.1339
Precursor type: [M+H]+
m/z	relative intensity
65.0459	120
90.0491	12
91.0453	22
92.0527	209
104.0512	12
143.0605	11
145.0765	51
166.0649	43
167.0723	40
168.0702	18
192.0677	52
193.0753	527
194.0828	925
195.0914	101
205.0743	13
206.084	30
207.0797	11
220.0857	18
221.095	36
222.1014	999
