Mass spectrum: 1-Myristoyl-sn-glycero-3-phosphocholine; LC-ESI-QTOF; MS2; 10 V
Name: 1-Myristoyl-sn-glycero-3-phosphocholine
Class: Natural_product
Formula: C22H46NO7P
Exact mass: 467.3012
SMILES: CCCCCCCCCCCCCC(=O)OCC(COP(=O)([O-])OCC[N+](C)(C)C)O
InChI: InChI=1S/C22H46NO7P/c1-5-6-7-8-9-10-11-12-13-14-15-16-22(25)28-19-21(24)20-30-31(26,27)29-18-17-23(2,3)4/h21,24H,5-20H2,1-4H3
Instrument: TripleTOF 6600 SCIEX
Instrument type: LC-ESI-QTOF
Ms type: MS2
Ion mode: POSITIVE
Collision energy: 10
Fragmentation mode: CID
Ionization: ESI
Column name: Zorbax Eclipse Plus C18 2.1 mm x 150 mm, 3.5 um, Agilent
Retention time: 12.658 min
Precursor m/z: 468.3085
Precursor type: [M+H]+
m/z	relative intensity
468.3076	999
