Mass spectrum: Norfluoxetine; LC-ESI-QTOF; MS2; 110 V
Name: Norfluoxetine
Class: Pharmaceutical; Metabolite
Formula: C16H16F3NO
Exact mass: 295.1184
InChI: InChI=1S/C16H16F3NO/c17-16(18,19)13-6-8-14(9-7-13)21-15(10-11-20)12-4-2-1-3-5-12/h1-9,15H,10-11,20H2
Instrument: TripleTOF 5600 SCIEX
Instrument type: LC-ESI-QTOF
Ms type: CID
Ion mode: POSITIVE
Collision energy: 110
Ionization: ESI
Column name: Zorbax Eclipse Plus C18 2.1 mm x 150 mm, 3.5 um, Agilent
Retention time: 8.432 min
Precursor m/z: 296.1257
Precursor type: [M+H]+
m/z	relative intensity
65.0429	399
74.0203	333
75.0239	532
77.0414	333
91.0554	999
115.0539	799
117.0705	532
