Mass spectrum: Baclofen; LC-ESI-QTOF; MS2; 30 V
Name: Baclofen
Class: Pharmaceutical
Formula: C10H12ClNO2
Exact mass: 213.0557
SMILES: NCC(CC(O)=O)c1ccc(Cl)cc1
InChI: InChI=1S/C10H12ClNO2/c11-9-3-1-7(2-4-9)8(6-12)5-10(13)14/h1-4,8H,5-6,12H2,(H,13,14)
Instrument: TripleTOF 5600 SCIEX
Instrument type: LC-ESI-QTOF
Ms type: MS2
Ion mode: NEGATIVE
Collision energy: 30
Fragmentation mode: CID
Ionization: ESI
Column name: Zorbax Eclipse Plus C18 2.1 mm x 150 mm, 3.5 um, Agilent
Retention time: 5.336 min
Precursor m/z: 212.0484
Precursor type: [M-H]-
m/z	relative intensity
34.9734	309
64.9709	129
103.0555	639
139.0309	999
141.0017	179
146.0987	49
151.0314	249
156.015	119
183.0232	109
212.0496	109
212.075	219
