Mass spectrum: Di-tert-butylphosphineoxide; LC-ESI-QTOF; MS2; 90 V
Name: Di-tert-butylphosphineoxide
Class: Industrial_process
Formula: C8H19OP
Exact mass: 162.1174
SMILES: CC(C)(P(C(C)(C)C)=O)C
InChI: InChI=1S/C8H19OP/c1-7(2,3)10(9)8(4,5)6/h10H,1-6H3
Instrument: TripleTOF 5600 SCIEX
Instrument type: LC-ESI-QTOF
Ms type: MS2
Ion mode: POSITIVE
Collision energy: 90
Fragmentation mode: CID
Ionization: ESI
Column name: Zorbax Eclipse Plus C18 2.1 mm x 150 mm, 3.5 um, Agilent
Retention time: 7.101 min
Precursor m/z: 163.1246
Precursor type: [M+H]+
m/z	relative intensity
37.016	570
37.0229	285
44.9967	380
46.9947	190
47.9807	570
56.9945	428
57.0733	999
63.0022	190
