Mass spectrum: 16alpha-hydroxyestrone; LC-ESI-QTOF; MS2; 110 V
Name: 16alpha-hydroxyestrone
Class: Pharmaceutical; Metabolite
Formula: C18H22O3
Exact mass: 286.1569
SMILES: C[C@]12CC[C@@H]3[C@H](CCc4cc(O)ccc34)[C@H]1C[C@@H](O)C2=O
InChI: InChI=1S/C18H22O3/c1-18-7-6-13-12-5-3-11(19)8-10(12)2-4-14(13)15(18)9-16(20)17(18)21/h3,5,8,13-16,19-20H,2,4,6-7,9H2,1H3/t13-,14-,15+,16+,18-/m0/s1
Instrument: TripleTOF 5600 SCIEX
Instrument type: LC-ESI-QTOF
Ms type: MS2
Ion mode: POSITIVE
Collision energy: 110
Fragmentation mode: CID
Ionization: ESI
Column name: Zorbax Eclipse Plus C18 2.1 mm x 150 mm, 3.5 um, Agilent
Retention time: 8.67 min
Precursor m/z: 287.1642
Precursor type: [M+H]+
m/z	relative intensity
43.0271	25
53.044	10
55.0242	11
65.0429	114
66.0494	13
74.0171	17
75.0257	30
76.0338	14
77.0421	668
78.0484	35
79.0568	75
87.0236	10
89.0405	168
91.0558	120
94.0417	21
101.0387	19
102.0465	83
103.0545	112
105.0692	28
107.0487	47
113.0376	12
114.0456	13
115.0546	999
116.0613	54
126.0461	68
127.0541	145
128.0618	276
129.0689	14
131.0487	59
139.0538	74
141.069	27
144.0566	33
150.046	45
151.054	103
152.0618	237
153.0697	28
157.0644	18
163.0539	48
164.0617	46
165.0694	126
176.0614	47
177.0692	12
178.0769	20
181.064	17
189.0697	32
202.0759	11
