Mass spectrum: Methacrylamidopropyltrimethylammonium; LC-ESI-QTOF; MS2; 80 V
Name: Methacrylamidopropyltrimethylammonium
Class: Industrial_process; Personal_care_product
Formula: C10H21N2O
Exact mass: 185.1648
InChI: InChI=1S/C10H20N2O/c1-9(2)10(13)11-7-6-8-12(3,4)5/h1,6-8H2,2-5H3/p+1
Instrument: TripleTOF 5600 SCIEX
Instrument type: LC-ESI-QTOF
Ms type: CID
Ion mode: POSITIVE
Collision energy: 80
Ionization: ESI
Column name: Zorbax Eclipse Plus C18 2.1 mm x 150 mm, 3.5 um, Agilent
Retention time: 4.698 min
Precursor m/z: 185.1648
Precursor type: [M]+
m/z	relative intensity
35.9982	55
37.0076	277
38.0175	166
39.0234	999
41.039	388
42.0348	111
58.0644	111
