Mass spectrum: Medroxyprogesterone; LC-ESI-QTOF; MS2; 40 V
Name: Medroxyprogesterone
Class: Pharmaceutical
Formula: C22H32O3
Exact mass: 344.2351
SMILES: CC1CC2C(CCC3(C2CCC3(C(=O)C)O)C)C4(C1=CC(=O)CC4)C
InChI: InChI=1S/C22H32O3/c1-13-11-16-17(20(3)8-5-15(24)12-19(13)20)6-9-21(4)18(16)7-10-22(21,25)14(2)23/h12-13,16-18,25H,5-11H2,1-4H3
Instrument: TripleTOF 6600 SCIEX
Instrument type: LC-ESI-QTOF
Ms type: MS2
Ion mode: POSITIVE
Collision energy: 40
Fragmentation mode: CID
Ionization: ESI
Column name: Zorbax Eclipse Plus C18 2.1 mm x 150 mm, 3.5 um, Agilent
Retention time: 12.524 min
Precursor m/z: 345.2424
Precursor type: [M+H]+
m/z	relative intensity
43.018	20
67.0542	21
77.0384	10
79.0538	17
81.0693	13
83.0486	23
91.0543	15
93.0695	27
95.085	42
97.0649	351
105.0694	30
107.0851	24
109.0648	14
109.1012	12
119.0853	30
121.1007	17
123.0808	999
131.0853	15
133.1008	27
135.0795	11
137.0959	62
143.0849	13
145.1006	37
147.1168	29
157.1013	19
159.1166	31
161.0965	11
161.1322	22
163.111	13
169.1007	10
171.1171	24
173.1322	37
175.1475	23
177.1279	13
183.1158	12
185.1319	19
187.1484	14
189.128	15
191.143	10
197.1329	21
199.1478	18
211.1487	16
214.1358	21
215.1436	22
225.1642	10
227.1796	13
257.1552	22
267.2116	23
269.1897	14
285.2216	11
309.2224	10
