Mass spectrum: Acridine-9-carboxylic acid; LC-ESI-QTOF; MS2; 120 V
Name: Acridine-9-carboxylic acid
Class: Pharmaceutical; Metabolite; Transformation_product; Transformation_product-Metabolite
Formula: C14H9NO2
Exact mass: 223.0633
SMILES: OC(=O)c1c2ccccc2nc3ccccc13
InChI: InChI=1S/C14H9NO2/c16-14(17)13-9-5-1-3-7-11(9)15-12-8-4-2-6-10(12)13/h1-8H,(H,16,17)
Instrument: TripleTOF 5600 SCIEX
Instrument type: LC-ESI-QTOF
Ms type: MS2
Ion mode: POSITIVE
Collision energy: 120
Fragmentation mode: CID
Ionization: ESI
Column name: Zorbax Eclipse Plus C18 2.1 mm x 150 mm, 3.5 um, Agilent
Retention time: 4.656 min
Precursor m/z: 224.0706
Precursor type: [M+H]+
m/z	relative intensity
65.0431	70
73.0105	152
74.0173	999
75.0247	505
76.0327	188
77.0399	223
85.0075	117
86.0162	376
87.0242	317
89.0397	282
97.0078	58
98.0153	540
99.0229	282
100.0302	58
101.0406	47
102.0457	82
109.0059	82
110.0152	94
111.0209	58
113.0371	364
114.0337	94
115.0532	70
122.0158	82
123.009	58
123.0225	58
125.0383	94
126.0451	152
137.0382	58
138.0457	70
139.0524	188
140.0479	82
149.0386	82
150.045	387
151.0532	129
177.0549	70
