Mass spectrum: Clonazepam; LC-ESI-QTOF; MS2; 100 V
Name: Clonazepam
Class: Pharmaceutical
Formula: C15H10ClN3O3
Exact mass: 315.0411
SMILES: C1C(=O)NC2=C(C=C(C=C2)[N+](=O)[O-])C(=N1)C3=CC=CC=C3Cl
InChI: InChI=1S/C15H10ClN3O3/c16-12-4-2-1-3-10(12)15-11-7-9(19(21)22)5-6-13(11)18-14(20)8-17-15/h1-7H,8H2,(H,18,20)
Instrument: TripleTOF 6600 SCIEX
Instrument type: LC-ESI-QTOF
Ms type: MS2
Ion mode: POSITIVE
Collision energy: 100
Fragmentation mode: CID
Ionization: ESI
Column name: Zorbax Eclipse Plus C18 2.1 mm x 150 mm, 3.5 um, Agilent
Retention time: 9.867 min
Precursor m/z: 316.0484
Precursor type: [M+H]+
m/z	relative intensity
39.024	16
50.0155	19
51.0226	54
62.0149	12
63.023	27
65.0389	12
74.0143	35
75.0226	83
76.0189	14
76.0297	48
77.0381	173
78.0348	18
78.0457	19
86.0148	12
87.0222	14
89.0388	50
98.0157	18
99.0226	37
101.0378	23
102.0339	40
102.0446	33
103.0412	16
104.0495	41
113.0381	48
114.0338	11
114.0437	12
115.0545	49
125.0379	79
126.0465	129
127.0536	94
128.0609	61
129.045	23
130.0398	17
137.0379	39
138.0459	29
139.0535	147
140.0487	101
149.0381	79
150.0464	681
151.054	999
152.0612	622
153.0584	77
154.0654	20
161.0387	24
162.0457	55
163.0535	299
164.0542	182
165.0681	62
166.0638	37
167.0734	19
174.0109	12
175.0416	47
176.05	126
177.0574	519
178.0654	391
179.0674	101
186.0233	22
188.0507	154
189.0565	44
190.0644	62
191.0703	23
203.0619	45
204.0638	43
205.0758	183
214.0428	12
239.041	17
