Mass spectrum: Nifedipine; LC-ESI-QTOF; MS2; 80 V
Name: Nifedipine
Class: Pharmaceutical
Formula: C17H18N2O6
Exact mass: 346.1165
SMILES: CC1=C(C(C(=C(N1)C)C(=O)OC)C2=CC=CC=C2[N+](=O)[O-])C(=O)OC
InChI: InChI=1S/C17H18N2O6/c1-9-13(16(20)24-3)15(14(10(2)18-9)17(21)25-4)11-7-5-6-8-12(11)19(22)23/h5-8,15,18H,1-4H3
Instrument: TripleTOF 5600 SCIEX
Instrument type: LC-ESI-QTOF
Ms type: MS2
Ion mode: POSITIVE
Collision energy: 80
Fragmentation mode: CID
Ionization: ESI
Column name: Zorbax Eclipse Plus C18 2.1 mm x 150 mm, 3.5 um, Agilent
Retention time: 10.896 min
Precursor m/z: 347.1238
Precursor type: [M+H]+
m/z	relative intensity
42.0465	11
65.046	15
75.0282	20
76.0365	10
77.0447	85
88.037	11
89.0431	87
90.0492	11
91.0583	20
93.0606	10
99.0271	21
101.0416	53
102.0489	35
103.0566	20
104.0523	12
113.0412	52
114.0477	66
115.0569	478
116.0525	83
117.0597	47
125.0407	102
126.0484	107
127.056	368
128.0585	389
129.0636	93
130.0671	41
138.0494	15
139.0554	362
140.0519	439
141.0672	191
142.0657	82
143.0743	51
144.0449	22
149.0473	12
150.0472	25
151.0555	112
152.0551	416
153.0595	238
154.0662	371
155.067	110
156.0737	32
164.0497	38
165.0579	63
166.066	736
167.0733	999
168.0797	461
169.0777	78
170.0598	23
176.0483	12
177.0565	31
178.0656	62
179.0609	372
180.0742	198
181.0764	188
182.0635	25
182.0854	39
183.0676	19
183.0914	38
191.0616	43
192.0687	406
193.0766	530
194.0848	166
195.0919	371
196.0743	50
197.0803	25
198.091	30
208.0711	23
209.0796	25
210.0889	25
211.0867	13
221.0731	25
223.0873	58
225.0799	11
226.0868	32
239.0795	10
