Mass spectrum: Sulfadoxine; LC-ESI-QTOF; MS2; 60 V
Name: Sulfadoxine
Class: Pharmaceutical
Formula: C12H14N4O4S
Exact mass: 310.0736
SMILES: COc1ncnc(N[S](=O)(=O)c2ccc(N)cc2)c1OC
InChI: InChI=1S/C12H14N4O4S/c1-19-10-11(14-7-15-12(10)20-2)16-21(17,18)9-5-3-8(13)4-6-9/h3-7H,13H2,1-2H3,(H,14,15,16)
Instrument: TripleTOF 5600 SCIEX
Instrument type: LC-ESI-QTOF
Ms type: MS2
Ion mode: POSITIVE
Collision energy: 60
Fragmentation mode: CID
Ionization: ESI
Column name: Zorbax Eclipse Plus C18 2.1 mm x 150 mm, 3.5 um, Agilent
Retention time: 7.083 min
Precursor m/z: 311.0809
Precursor type: [M+H]+
m/z	relative intensity
53.0434	18
65.0423	733
67.0348	18
68.0159	86
80.0514	405
82.0331	15
85.0416	27
92.0507	999
93.0582	64
94.0403	12
95.0245	27
95.048	49
96.0095	49
108.0442	847
108.0883	12
110.0231	64
111.0416	21
112.0502	194
113.0346	151
113.0608	15
122.0355	24
123.0415	43
124.0243	21
124.0497	30
126.03	55
126.0654	46
127.0502	18
132.055	58
133.0623	37
138.0292	89
140.0453	182
141.0527	151
154.0609	269
156.075	52
157.0623	34
160.0495	34
184.0736	21
201.075	24
212.0736	15
229.0686	21
