Mass spectrum: 2-Isopropylphenyl diphenyl phosphate; LC-ESI-QTOF; MS2; 70 V
Name: 2-Isopropylphenyl diphenyl phosphate
Class: Industrial_process
Formula: C21H21O4P
Exact mass: 368.1177
SMILES: CC(C)C1=CC=CC=C1OP(=O)(OC2=CC=CC=C2)OC3=CC=CC=C3
InChI: InChI=1S/C21H21O4P/c1-17(2)20-15-9-10-16-21(20)25-26(22,23-18-11-5-3-6-12-18)24-19-13-7-4-8-14-19/h3-17H,1-2H3
Instrument: TripleTOF 6600 SCIEX
Instrument type: LC-ESI-QTOF
Ms type: MS2
Ion mode: POSITIVE
Collision energy: 70
Fragmentation mode: CID
Ionization: ESI
Column name: Zorbax Eclipse Plus C18 2.1 mm x 150 mm, 3.5 um, Agilent
Retention time: 15.788 min
Precursor m/z: 369.125
Precursor type: [M+H]+
m/z	relative intensity
41.0384	16
51.0231	65
65.0385	101
77.0383	602
91.054	501
95.0488	26
105.0444	22
115.0536	16
126.0442	13
127.054	36
138.9936	16
139.054	19
150.0446	22
151.0539	157
152.0621	999
153.0692	72
165.07	19
168.057	340
175.0158	26
179.061	13
187.0301	13
202.0765	22
215.0254	124
226.0779	55
227.0847	58
228.0938	72
233.0378	16
251.0479	19
