Mass spectrum: Celiprolol; LC-ESI-QTOF; MS2; 150 V
Name: Celiprolol
Class: Pharmaceutical
Formula: C20H33N3O4
Exact mass: 379.2471
SMILES: CCN(CC)C(=O)NC1=CC(=C(C=C1)OCC(CNC(C)(C)C)O)C(=O)C
InChI: InChI=1S/C20H33N3O4/c1-7-23(8-2)19(26)22-15-9-10-18(17(11-15)14(3)24)27-13-16(25)12-21-20(4,5)6/h9-11,16,21,25H,7-8,12-13H2,1-6H3,(H,22,26)
Instrument: TripleTOF 5600 SCIEX
Instrument type: LC-ESI-QTOF
Ms type: MS2
Ion mode: POSITIVE
Collision energy: 150
Fragmentation mode: CID
Ionization: ESI
Column name: Zorbax Eclipse Plus C18 2.1 mm x 150 mm, 3.5 um, Agilent
Retention time: 6.532 min
Precursor m/z: 380.2544
Precursor type: [M+H]+
m/z	relative intensity
43.0263	120
44.0217	766
44.0583	60
56.0557	999
57.0754	450
58.0699	187
65.0432	202
72.0484	97
74.0205	37
74.0632	195
74.0841	30
74.0999	105
75.0265	45
77.0418	766
77.0627	45
78.0368	97
81.038	37
89.0401	105
90.0358	37
91.0571	30
102.0344	30
102.0462	37
103.0533	52
104.0497	52
105.0363	30
106.0298	37
115.0582	90
