Mass spectrum: 17alpha-Hydroxyprogesterone; LC-ESI-QTOF; MS2; 90 V
Name: 17alpha-Hydroxyprogesterone
Class: Pharmaceutical
Formula: C21H30O3
Exact mass: 330.2195
SMILES: CC(=O)[C@@]1(O)CC[C@H]2[C@@H]3CCC4=CC(=O)CC[C@]4(C)[C@H]3CC[C@]12C
InChI: InChI=1S/C21H30O3/c1-13(22)21(24)11-8-18-16-5-4-14-12-15(23)6-9-19(14,2)17(16)7-10-20(18,21)3/h12,16-18,24H,4-11H2,1-3H3/t16-,17+,18+,19+,20+,21+/m1/s1
Instrument: TripleTOF 5600 SCIEX
Instrument type: LC-ESI-QTOF
Ms type: MS2
Ion mode: POSITIVE
Collision energy: 90
Fragmentation mode: CID
Ionization: ESI
Column name: Zorbax Eclipse Plus C18 2.1 mm x 150 mm, 3.5 um, Agilent
Retention time: 11.808 min
Precursor m/z: 331.2268
Precursor type: [M+H]+
m/z	relative intensity
43.0262	382
51.0281	53
53.0448	104
55.0246	113
55.0593	116
57.0377	18
57.0478	15
65.0426	196
66.05	41
67.0582	246
69.0369	37
69.0729	79
77.0419	999
78.0488	15
79.0574	992
81.0358	41
81.0724	360
82.0435	31
83.0507	75
89.041	25
91.0564	790
93.0716	107
94.0426	50
95.0516	28
95.0865	50
97.066	667
102.0473	15
103.0557	116
104.0626	22
105.0704	271
107.0503	50
108.0566	28
109.0651	480
115.0545	300
116.0635	66
117.0701	126
119.0857	53
121.0656	22
123.08	69
127.0538	88
128.0626	319
129.071	167
130.0793	41
131.0853	41
133.0681	22
141.0699	214
142.0785	66
143.0854	44
145.1029	15
147.0796	18
151.0564	15
152.0628	85
153.07	107
154.0785	41
155.0856	66
165.069	116
166.0797	18
167.0858	34
178.0768	53
179.0871	28
191.0847	15
193.0998	15
