Mass spectrum: Pendimethalin; LC-ESI-QTOF; MS2; 120 V
Name: Pendimethalin
Class: Herbicide
Formula: C13H19N3O4
Exact mass: 281.1376
SMILES: CCC(CC)Nc1c(cc(c(c1[N+](=O)[O-])C)C)[N+](=O)[O-]
InChI: InChI=1S/C13H19N3O4/c1-5-10(6-2)14-12-11(15(17)18)7-8(3)9(4)13(12)16(19)20/h7,10,14H,5-6H2,1-4H3
Instrument: TripleTOF 6600 SCIEX
Instrument type: LC-ESI-QTOF
Ms type: MS2
Ion mode: POSITIVE
Collision energy: 120
Fragmentation mode: CID
Ionization: ESI
Column name: Zorbax Eclipse Plus C18 2.1 mm x 150 mm, 3.5 um, Agilent
Retention time: 16.198 min
Precursor m/z: 282.1448
Precursor type: [M+H]+
m/z	relative intensity
36.0002	51
37.0074	243
38.0027	115
38.0156	256
39.0235	999
41.0388	307
42.0348	64
49.0074	153
50.0158	614
51.0238	934
52.0185	243
52.0307	89
53.0146	102
53.0388	76
54.0339	51
61.0079	102
62.016	243
63.0238	525
64.0191	102
65.0391	435
74.0153	166
75.0104	76
75.0236	153
76.0194	166
77.0388	307
78.034	243
80.051	51
89.039	256
91.0546	102
