Mass spectrum: Triethylphosphine oxide; LC-ESI-QTOF; MS2; 80 V
Name: Triethylphosphine oxide
Class: Pharmaceutical; Industrial_process
Formula: C6H15OP
Exact mass: 134.0861
SMILES: CC[P](=O)(CC)CC
InChI: InChI=1S/C6H15OP/c1-4-8(7,5-2)6-3/h4-6H2,1-3H3
Instrument: TripleTOF 5600 SCIEX
Instrument type: LC-ESI-QTOF
Ms type: MS2
Ion mode: POSITIVE
Collision energy: 80
Fragmentation mode: CID
Ionization: ESI
Column name: Zorbax Eclipse Plus C18 2.1 mm x 150 mm, 3.5 um, Agilent
Retention time: 5.148 min
Precursor m/z: 135.0933
Precursor type: [M+H]+
m/z	relative intensity
43.9872	137
44.9963	895
47.006	137
47.0138	327
48.0052	120
49.9973	137
55.9873	155
56.9952	999
57.0098	120
59.0083	189
63.004	654
