Mass spectrum: 3-Chloro-5-(trifluoromethyl)pyridin-2-ol; LC-ESI-QTOF; MS2; 120 V
Name: 3-Chloro-5-(trifluoromethyl)pyridin-2-ol
Class: Herbicide
Formula: C6H3ClF3NO
Exact mass: 196.9855
SMILES: C1=C(C(=O)NC=C1C(F)(F)F)Cl
InChI: InChI=1S/C6H3ClF3NO/c7-4-1-3(6(8,9)10)2-11-5(4)12/h1-2H,(H,11,12)
Instrument: TripleTOF 5600 SCIEX
Instrument type: LC-ESI-QTOF
Ms type: MS2
Ion mode: NEGATIVE
Collision energy: 120
Fragmentation mode: CID
Ionization: ESI
Column name: Zorbax Eclipse Plus C18 2.1 mm x 150 mm, 3.5 um, Agilent
Retention time: 7.86 min
Precursor m/z: 195.9782
Precursor type: [M-H]-
m/z	relative intensity
34.969	999
41.999	80
