Mass spectrum: Desamino-metamitron; LC-ESI-QTOF; MS2; 60 V
Name: Desamino-metamitron
Class: Metabolite; Herbicide; Transformation_product-Metabolite
Formula: C10H9N3O
Exact mass: 187.0746
SMILES: CC1=NC(=O)C(=NN1)c2ccccc2
InChI: InChI=1S/C10H9N3O/c1-7-11-10(14)9(13-12-7)8-5-3-2-4-6-8/h2-6H,1H3,(H,11,12,14)
Instrument: TripleTOF 5600 SCIEX
Instrument type: LC-ESI-QTOF
Ms type: MS2
Ion mode: POSITIVE
Collision energy: 60
Fragmentation mode: CID
Ionization: ESI
Column name: Zorbax Eclipse Plus C18 2.1 mm x 150 mm, 3.5 um, Agilent
Retention time: 6.124 min
Precursor m/z: 188.0818
Precursor type: [M+H]+
m/z	relative intensity
51.0289	297
65.0419	109
76.0324	16
77.0406	999
89.0382	16
92.0496	33
103.0527	19
104.0497	178
130.0639	16
