Mass spectrum: Demeclocycline; LC-ESI-QTOF; MS2; 100 V
Name: Demeclocycline
Class: Antimicrobial; Pharmaceutical
Formula: C21H21ClN2O8
Exact mass: 464.0986
SMILES: CN(C)C1C2CC3C(C4=C(C=CC(=C4C(=C3C(=O)C2(C(=C(C1=O)C(=O)N)O)O)O)O)Cl)O
InChI: InChI=1S/C21H21ClN2O8/c1-24(2)14-7-5-6-10(16(27)12-9(25)4-3-8(22)11(12)15(6)26)18(29)21(7,32)19(30)13(17(14)28)20(23)31/h3-4,6-7,14-15,25-27,30,32H,5H2,1-2H3,(H2,23,31)
Instrument: TripleTOF 5600 SCIEX
Instrument type: LC-ESI-QTOF
Ms type: MS2
Ion mode: POSITIVE
Collision energy: 100
Fragmentation mode: CID
Ionization: ESI
Column name: Zorbax Eclipse Plus C18 2.1 mm x 150 mm, 3.5 um, Agilent
Retention time: 5.787 min
Precursor m/z: 465.1059
Precursor type: [M+H]+
m/z	relative intensity
98.0625	129
115.0558	129
139.0547	399
140.0633	235
141.0712	129
150.0462	141
151.0559	199
152.0631	999
153.0706	70
163.0546	129
164.0648	164
165.0748	105
166.0496	70
167.0524	47
168.0576	846
169.0624	129
170.0745	70
173.0175	58
174.0427	70
176.0615	188
179.05	94
180.0573	246
181.0621	211
185.0133	152
186.0221	70
187.032	164
192.0589	117
194.0726	82
196.0498	176
197.0604	305
198.0627	211
199.0288	152
204.058	94
205.0588	58
209.0615	58
210.0688	105
214.0215	58
215.0207	176
220.0455	58
221.0585	47
222.0706	47
226.0632	117
231.0179	188
261.0381	94
