Mass spectrum: Diatrizoate; LC-ESI-QTOF; MS2; 130 V
Name: Diatrizoate
Class: Pharmaceutical
Formula: C11H9I3N2O4
Exact mass: 613.7697
SMILES: C/C(=N\c1c(c(c(c(c1I)C(=O)O)I)/N=C(/O)\C)I)/O
InChI: InChI=1S/C11H9I3N2O4/c1-3(17)15-9-6(12)5(11(19)20)7(13)10(8(9)14)16-4(2)18/h1-2H3,(H,15,17)(H,16,18)(H,19,20)
Instrument: TripleTOF 5600 SCIEX
Instrument type: LC-ESI-QTOF
Ms type: MS2
Ion mode: POSITIVE
Collision energy: 130
Fragmentation mode: CID
Ionization: ESI
Column name: Zorbax Eclipse Plus C18 2.1 mm x 150 mm, 3.5 um, Agilent
Retention time: 4.549 min
Precursor m/z: 614.7769
Precursor type: [M+H]+
m/z	relative intensity
77.0386	117
78.0364	176
79.0447	264
90.0356	235
91.0424	352
92.0513	205
104.9983	117
105.0194	146
105.0455	146
106.0292	264
107.0353	352
118.027	146
118.0529	352
119.0572	323
120.0437	499
120.0708	205
132.0431	235
145.0373	440
146.0241	235
146.045	587
147.0316	146
147.0507	146
148.0407	999
148.0629	293
159.0534	264
160.0355	117
161.069	146
165.046	176
187.0556	176
192.0488	235
203.9305	176
205.0584	323
233.0586	146
