Mass spectrum: Timolol; LC-ESI-QTOF; MS2; 110 V
Name: Timolol
Class: Pharmaceutical
Formula: C13H24N4O3S
Exact mass: 316.1569
InChI: InChI=1S/C13H24N4O3S/c1-13(2,3)14-8-10(18)9-20-12-11(15-21-16-12)17-4-6-19-7-5-17/h10,14,18H,4-9H2,1-3H3
Instrument: TripleTOF 5600 SCIEX
Instrument type: LC-ESI-QTOF
Ms type: CID
Ion mode: POSITIVE
Collision energy: 110
Ionization: ESI
Column name: Zorbax Eclipse Plus C18 2.1 mm x 150 mm, 3.5 um, Agilent
Retention time: 5.513 min
Precursor m/z: 317.1642
Precursor type: [M+H]+
m/z	relative intensity
42.0477	392
45.985	178
56.0583	999
58.071	142
69.0513	642
74.0114	285
74.0655	784
85.9722	214
