Mass spectrum: Diflufenican; LC-ESI-QTOF; MS2; 50 V
Name: Diflufenican
Class: Herbicide
Formula: C19H11F5N2O2
Exact mass: 394.0741
SMILES: C1=CC(=CC(=C1)OC2=C(C=CC=N2)C(=O)NC3=C(C=C(C=C3)F)F)C(F)(F)F
InChI: InChI=1S/C19H11F5N2O2/c20-12-6-7-16(15(21)10-12)26-17(27)14-5-2-8-25-18(14)28-13-4-1-3-11(9-13)19(22,23)24/h1-10H,(H,26,27)
Instrument: TripleTOF 6600 SCIEX
Instrument type: LC-ESI-QTOF
Ms type: MS2
Ion mode: POSITIVE
Collision energy: 50
Fragmentation mode: CID
Ionization: ESI
Column name: Zorbax Eclipse Plus C18 2.1 mm x 150 mm, 3.5 um, Agilent
Retention time: 14.853 min
Precursor m/z: 395.0814
Precursor type: [M+H]+
m/z	relative intensity
78.0337	24
122.0239	11
133.0445	12
140.0492	15
141.0571	25
145.0249	23
158.0389	18
163.0345	16
169.0517	70
170.0399	16
172.0358	12
172.0541	11
183.0414	156
185.0507	31
190.0457	113
191.0521	17
198.0393	22
204.0495	12
210.0521	87
215.0407	10
218.0408	219
219.0484	37
233.0522	66
238.0468	402
246.0355	378
247.0442	20
266.0422	999
307.0676	10
335.0606	12
357.0629	11
377.0686	36
