Mass spectrum: Cyprodinil; LC-ESI-QTOF; MS2; 100 V
Name: Cyprodinil
Class: Fungicide
Formula: C14H15N3
Exact mass: 225.1266
SMILES: CC1=CC(=NC(=N1)NC2=CC=CC=C2)C3CC3
InChI: InChI=1S/C14H15N3/c1-10-9-13(11-7-8-11)17-14(15-10)16-12-5-3-2-4-6-12/h2-6,9,11H,7-8H2,1H3,(H,15,16,17)
Instrument: TripleTOF 6600 SCIEX
Instrument type: LC-ESI-QTOF
Ms type: MS2
Ion mode: POSITIVE
Collision energy: 100
Fragmentation mode: CID
Ionization: ESI
Column name: Zorbax Eclipse Plus C18 2.1 mm x 150 mm, 3.5 um, Agilent
Retention time: 10.83 min
Precursor m/z: 226.1339
Precursor type: [M+H]+
m/z	relative intensity
35.9997	18
37.0073	91
38.0152	78
39.0229	411
40.0187	13
40.0307	18
41.0264	33
41.0381	50
42.0337	113
49.0071	95
50.015	480
51.0229	999
52.018	35
52.0299	14
53.0383	55
54.0339	35
61.0067	31
62.0145	67
63.0225	190
64.018	29
64.0304	41
65.0263	11
65.0382	380
66.0349	26
66.0459	126
67.0284	50
67.0409	70
68.0493	11
74.0156	65
75.0098	11
75.0228	52
76.0177	22
76.0296	13
77.0383	316
78.0333	50
78.045	11
79.0537	14
80.0491	70
86.0136	13
87.0227	16
88.03	11
89.0382	78
90.0348	14
91.0417	33
91.0533	37
92.0489	91
93.0567	65
102.0325	11
104.0486	20
106.0641	13
113.0378	31
114.0328	11
115.0535	24
117.0438	14
118.049	11
126.0459	11
127.0527	13
129.0449	13
131.0608	9
137.0384	20
138.0448	11
139.0545	41
140.0499	26
163.0531	13
164.0474	33
205.0751	11
