Mass spectrum: Telmisartan; LC-ESI-QTOF; MS2; 150 V
Name: Telmisartan
Class: Pharmaceutical
Formula: C33H30N4O2
Exact mass: 514.2369
SMILES: CCCc1nc2c(C)cc(cc2n1Cc3ccc(cc3)c4ccccc4C(O)=O)c5nc6ccccc6n5C
InChI: InChI=1S/C33H30N4O2/c1-4-9-30-35-31-21(2)18-24(32-34-27-12-7-8-13-28(27)36(32)3)19-29(31)37(30)20-22-14-16-23(17-15-22)25-10-5-6-11-26(25)33(38)39/h5-8,10-19H,4,9,20H2,1-3H3,(H,38,39)
Instrument: TripleTOF 5600 SCIEX
Instrument type: LC-ESI-QTOF
Ms type: MS2
Ion mode: POSITIVE
Collision energy: 150
Fragmentation mode: CID
Ionization: ESI
Column name: Zorbax Eclipse Plus C18 2.1 mm x 150 mm, 3.5 um, Agilent
Retention time: 8.861 min
Precursor m/z: 515.2442
Precursor type: [M+H]+
m/z	relative intensity
65.0427	374
77.0419	874
89.0413	312
92.0524	312
115.0549	624
128.0652	312
139.0533	437
143.0591	437
152.063	561
156.0656	312
163.054	561
164.0624	499
165.0706	999
191.0629	561
192.0699	749
193.0777	686
205.077	811
206.0845	624
220.091	561
230.0724	374
231.08	374
232.0901	374
246.0997	312
259.0996	624
271.0978	374
303.0964	312
