Mass spectrum: Spirodiclofen-enol; LC-ESI-QTOF; MS2; 130 V
Name: Spirodiclofen-enol
Formula: C15H14Cl2O3
Exact mass: 312.032
SMILES: C1CCC2(CC1)C(=C(C(=O)O2)C3=C(C=C(C=C3)Cl)Cl)O
InChI: InChI=1S/C15H14Cl2O3/c16-9-4-5-10(11(17)8-9)12-13(18)15(20-14(12)19)6-2-1-3-7-15/h4-5,8,18H,1-3,6-7H2
Instrument: TripleTOF 6600 SCIEX
Instrument type: LC-ESI-QTOF
Ms type: MS2
Ion mode: POSITIVE
Collision energy: 130
Fragmentation mode: CID
Ionization: ESI
Column name: Zorbax Eclipse Plus C18 2.1 mm x 150 mm, 3.5 um, Agilent
Retention time: 12.261 min
Precursor m/z: 313.0393
Precursor type: [M+H]+
m/z	relative intensity
37.0068	47
38.0155	60
39.0232	171
41.0382	37
46.968	70
50.0153	100
51.0232	208
59.9984	43
61.0073	262
62.0148	390
62.9632	20
63.0225	252
65.0383	33
70.9686	20
71.9756	178
72.9839	780
73.0073	117
74.0151	999
75.0226	413
76.0299	63
77.0386	195
78.0454	16
82.9447	114
83.9745	13
83.9988	50
84.9822	26
85.0072	218
86.0145	625
87.0229	871
88.0302	53
89.0381	302
95.9758	94
96.9832	158
98.0147	208
98.9979	20
99.0212	60
101.0371	30
102.0466	57
106.9442	329
108.9844	26
110.0127	16
111.0228	13
113.0381	127
114.0447	30
115.0542	148
120.9822	26
121.9908	84
122.0127	16
122.9979	30
125.038	30
126.0468	104
127.0527	63
128.0606	26
129.0448	13
130.9437	16
137.0396	23
138.0469	16
139.0538	87
149.0157	13
150.0465	225
151.0541	235
152.0612	114
156.9628	37
161.0391	16
162.0454	26
163.053	154
164.0589	33
165.0692	20
175.0517	13
176.0615	131
177.0693	30
178.077	16
