Mass spectrum: Mandipropamid; LC-ESI-QTOF; MS2; 90 V
Name: Mandipropamid
Class: Fungicide
Formula: C23H22ClNO4
Exact mass: 411.1237
SMILES: COC1=C(C=CC(=C1)CCNC(=O)C(C2=CC=C(C=C2)Cl)OCC#C)OCC#C
InChI: InChI=1S/C23H22ClNO4/c1-4-14-28-20-11-6-17(16-21(20)27-3)12-13-25-23(26)22(29-15-5-2)18-7-9-19(24)10-8-18/h1-2,6-11,16,22H,12-15H2,3H3,(H,25,26)
Instrument: TripleTOF 6600 SCIEX
Instrument type: LC-ESI-QTOF
Ms type: MS2
Ion mode: POSITIVE
Collision energy: 90
Fragmentation mode: CID
Ionization: ESI
Column name: Zorbax Eclipse Plus C18 2.1 mm x 150 mm, 3.5 um, Agilent
Retention time: 12.239 min
Precursor m/z: 412.131
Precursor type: [M+H]+
m/z	relative intensity
39.0224	14
51.0223	16
62.0151	14
63.0224	70
65.0381	84
66.0465	14
72.984	39
74.9993	11
75.023	19
77.038	273
78.0452	31
79.0541	53
80.0477	14
89.0379	440
90.046	132
91.0536	389
93.0572	25
93.0687	28
94.0405	14
94.0642	50
95.048	28
98.9989	228
102.045	62
103.0536	146
104.0498	19
104.0611	25
105.0325	14
105.0681	19
106.0642	39
107.0485	87
110.9982	22
115.0539	208
116.0493	11
116.0613	42
117.057	93
117.0688	47
118.0409	28
118.0642	107
119.0475	33
121.063	59
122.0376	11
122.0592	28
123.0432	11
124.0058	14
125.0145	999
126.0459	11
127.0526	53
128.0614	135
130.0644	76
131.048	76
133.0283	39
133.0496	42
134.0593	33
135.0441	50
135.0677	16
136.0734	11
139.0043	14
141.0634	11
144.0797	11
145.0652	16
146.0589	47
147.0423	76
148.05	16
148.0737	16
149.0153	11
150.0629	14
152.0255	36
152.0602	47
153.0687	39
155.06	16
157.0623	16
163.0521	19
164.066	36
165.0693	197
166.0766	42
167.0851	14
176.0607	56
177.0684	28
178.0768	135
179.0866	22
181.0649	39
182.0713	14
189.0695	98
190.077	39
191.083	25
194.0729	45
199.028	36
201.0714	11
202.0768	84
203.085	28
204.0792	11
205.0649	14
205.0926	14
207.0787	33
210.0687	14
213.0715	14
215.0845	56
216.0792	14
217.0883	19
231.0832	16
233.0822	11
