Mass spectrum: Estradiol; LC-ESI-QTOF; MS2; 140 V
Name: Estradiol
Class: Pharmaceutical
Formula: C18H24O2
Exact mass: 272.1776
SMILES: CC12CCC3C(C1CCC2O)CCC4=C3C=CC(=C4)O
InChI: InChI=1S/C18H24O2/c1-18-9-8-14-13-5-3-12(19)10-11(13)2-4-15(14)16(18)6-7-17(18)20/h3,5,10,14-17,19-20H,2,4,6-9H2,1H3
Instrument: TripleTOF 5600 SCIEX
Instrument type: LC-ESI-QTOF
Ms type: MS2
Ion mode: POSITIVE
Collision energy: 140
Fragmentation mode: CID
Ionization: ESI
Column name: Zorbax Eclipse Plus C18 2.1 mm x 150 mm, 3.5 um, Agilent
Retention time: 10.403 min
Precursor m/z: 273.1849
Precursor type: [M+H]+
m/z	relative intensity
37.0072	60
38.0145	64
39.023	210
41.0384	73
43.0175	38
49.0071	43
50.0151	366
51.0232	999
53.0389	51
55.0173	68
55.0547	30
61.0064	21
62.0156	64
63.0227	137
65.0388	116
66.0456	17
67.0539	30
74.0156	38
75.0238	43
77.0383	874
78.0446	47
79.0544	68
81.034	21
89.038	60
91.0542	64
103.0549	17
107.0514	21
115.0538	73
