Mass spectrum: Etofibrate; LC-ESI-QTOF; MS2; 120 V
Name: Etofibrate
Class: Pharmaceutical
Formula: C18H18ClNO5
Exact mass: 363.0874
SMILES: CC(C)(C(=O)OCCOC(=O)C1=CN=CC=C1)OC2=CC=C(C=C2)Cl
InChI: InChI=1S/C18H18ClNO5/c1-18(2,25-15-7-5-14(19)6-8-15)17(22)24-11-10-23-16(21)13-4-3-9-20-12-13/h3-9,12H,10-11H2,1-2H3
Instrument: TripleTOF 6600 SCIEX
Instrument type: LC-ESI-QTOF
Ms type: MS2
Ion mode: POSITIVE
Collision energy: 120
Fragmentation mode: CID
Ionization: ESI
Column name: Zorbax Eclipse Plus C18 2.1 mm x 150 mm, 3.5 um, Agilent
Retention time: 12.631 min
Precursor m/z: 364.0946
Precursor type: [M+H]+
m/z	relative intensity
37.0064	23
38.0141	22
39.022	191
41.0378	216
42.0457	22
43.0172	18
45.0323	21
49.0061	24
50.014	166
51.0219	339
52.0177	169
52.0287	75
53.0376	283
55.0168	517
65.0368	36
66.0451	22
69.0319	40
73.0272	14
74.0134	119
75.0216	228
77.0369	51
78.0327	999
79.0402	130
80.0483	616
84.9819	30
91.0524	15
92.0473	15
93.0554	29
94.0395	23
99.0424	192
106.0269	12
106.0629	20
110.9977	38
113.0581	28
124.0375	60
