Mass spectrum: Tributyl phosphate; LC-ESI-QTOF; MS2; 100 V
Name: Tributyl phosphate
Class: Industrial_process
Formula: C12H27O4P
Exact mass: 266.1647
SMILES: CCCCOP(=O)(OCCCC)OCCCC
InChI: InChI=1S/C12H27O4P/c1-4-7-10-14-17(13,15-11-8-5-2)16-12-9-6-3/h4-12H2,1-3H3
Instrument: TripleTOF 6600 SCIEX
Instrument type: LC-ESI-QTOF
Ms type: MS2
Ion mode: POSITIVE
Collision energy: 100
Fragmentation mode: CID
Ionization: ESI
Column name: Zorbax Eclipse Plus C18 2.1 mm x 150 mm, 3.5 um, Agilent
Retention time: 13.862 min
Precursor m/z: 267.172
Precursor type: [M+H]+
m/z	relative intensity
39.0219	40
41.0376	15
46.9668	37
62.9622	872
80.9726	999
98.9827	50
