Mass spectrum: Dexamethasone; LC-ESI-QTOF; MS2; 140 V
Name: Dexamethasone
Class: Pharmaceutical
Formula: C22H29FO5
Exact mass: 392.1999
SMILES: C[C@@H]1C[C@H]2[C@@H]3CCC4=CC(=O)C=C[C@@]4([C@]3([C@H](C[C@@]2([C@]1(C(=O)CO)O)C)O)F)C
InChI: InChI=1S/C22H29FO5/c1-12-8-16-15-5-4-13-9-14(25)6-7-19(13,2)21(15,23)17(26)10-20(16,3)22(12,28)18(27)11-24/h6-7,9,12,15-17,24,26,28H,4-5,8,10-11H2,1-3H3/t12-,15+,16+,17+,19+,20+,21+,22+/m1/s1
Instrument: TripleTOF 5600 SCIEX
Instrument type: LC-ESI-QTOF
Ms type: MS2
Ion mode: POSITIVE
Collision energy: 140
Fragmentation mode: CID
Ionization: ESI
Column name: Zorbax Eclipse Plus C18 2.1 mm x 150 mm, 3.5 um, Agilent
Retention time: 9.089 min
Precursor m/z: 393.2072
Precursor type: [M+H]+
m/z	relative intensity
43.0291	57
43.0401	12
51.033	211
55.0305	19
65.0452	294
67.0614	22
74.0211	19
75.0293	38
76.0355	32
77.044	999
78.0506	115
79.0602	108
83.0333	16
89.0435	134
91.0585	605
93.0764	28
94.0451	19
95.0532	12
101.0429	28
102.0489	156
103.0565	182
104.0641	22
105.0727	44
107.0521	38
109.0485	32
113.0402	19
115.0563	845
116.0642	54
117.0737	32
121.0657	51
125.0406	22
126.0469	92
127.0561	208
128.0638	502
129.0727	60
131.0507	153
132.0605	22
133.0475	35
138.0461	16
139.0559	137
141.0723	124
145.0651	25
146.0575	12
150.0465	80
151.0548	208
152.063	550
153.0701	86
155.0519	22
162.0492	19
163.0547	163
164.0625	163
165.0702	483
168.0612	19
174.0434	16
175.0568	32
176.0623	236
177.071	118
178.0773	259
179.0791	28
179.0894	12
181.0655	57
183.0651	12
187.054	92
188.0604	99
189.0701	531
190.079	44
191.0826	32
200.0618	105
201.0701	105
202.0773	316
203.0828	32
205.0672	25
213.0694	134
215.0841	140
219.0806	16
224.0634	35
225.0688	32
226.0798	131
227.0805	12
228.0968	16
231.085	19
238.0773	25
239.0819	38
