Mass spectrum: Sertaconazole; LC-ESI-QTOF; MS2; 70 V
Name: Sertaconazole
Class: Fungicide; Pharmaceutical; Antimicrobial
Formula: C20H15Cl3N2OS
Exact mass: 435.9971
InChI: InChI=1S/C20H15Cl3N2OS/c21-14-4-5-16(18(23)8-14)19(9-25-7-6-24-12-25)26-10-13-11-27-20-15(13)2-1-3-17(20)22/h1-8,11-12,19H,9-10H2
Instrument: TripleTOF 5600 SCIEX
Instrument type: LC-ESI-QTOF
Ms type: CID
Ion mode: POSITIVE
Collision energy: 70
Ionization: ESI
Column name: Zorbax Eclipse Plus C18 2.1 mm x 150 mm, 3.5 um, Agilent
Retention time: 10.403 min
Precursor m/z: 437.0043
Precursor type: [M+H]+
m/z	relative intensity
69.0485	14
102.0467	25
137.0149	19
145.0108	108
146.0182	148
149.0155	20
158.9749	15
180.9878	999
234.05	14
