Mass spectrum: Cyanazine; LC-ESI-QTOF; MS2; 30 V
Name: Cyanazine
Class: Herbicide
Formula: C9H13ClN6
Exact mass: 240.089
SMILES: CCNc1nc(Cl)nc(NC(C)(C)C#N)n1
InChI: InChI=1S/C9H13ClN6/c1-4-12-7-13-6(10)14-8(15-7)16-9(2,3)5-11/h4H2,1-3H3,(H2,12,13,14,15,16)
Instrument: TripleTOF 5600 SCIEX
Instrument type: LC-ESI-QTOF
Ms type: CID
Ion mode: POSITIVE
Collision energy: 30
Ionization: ESI
Column name: Zorbax Eclipse Plus C18 2.1 mm x 150 mm, 3.5 um, Agilent
Retention time: 9.107 min
Precursor m/z: 241.0963
Precursor type: [M+H]+
m/z	relative intensity
68.0284	46
71.0633	46
79.0086	26
83.0621	24
90.0109	14
96.0567	140
104.0015	143
110.071	30
119.0372	52
132.0322	136
136.0866	58
138.0776	14
146.0223	36
163.0966	21
173.0587	37
174.0536	99
177.0877	21
178.1079	28
186.053	21
205.1183	57
214.0859	999
241.096	142
