Mass spectrum: Deisopropylatrazine; LC-ESI-QTOF; MS2; 90 V
Name: Deisopropylatrazine
Class: Transformation_product; Herbicide; Transformation_product-Metabolite
Formula: C5H8ClN5
Exact mass: 173.0468
SMILES: CCNC1=NC(=NC(=N1)N)Cl
InChI: InChI=1S/C5H8ClN5/c1-2-8-5-10-3(6)9-4(7)11-5/h2H2,1H3,(H3,7,8,9,10,11)
Instrument: TripleTOF 6600 SCIEX
Instrument type: LC-ESI-QTOF
Ms type: MS2
Ion mode: POSITIVE
Collision energy: 90
Fragmentation mode: CID
Ionization: ESI
Column name: Zorbax Eclipse Plus C18 2.1 mm x 150 mm, 3.5 um, Agilent
Retention time: 5.858 min
Precursor m/z: 174.0541
Precursor type: [M+H]+
m/z	relative intensity
43.0291	999
61.979	587
68.0234	293
69.0215	293
