Mass spectrum: Nilotinib; LC-ESI-QTOF; MS2; 120 V
Name: Nilotinib
Class: Pharmaceutical
Formula: C28H22F3N7O
Exact mass: 529.1838
SMILES: Cc1cn(cn1)c2cc(NC(=O)c3ccc(C)c(Nc4nccc(n4)c5cccnc5)c3)cc(c2)C(F)(F)F
InChI: InChI=1S/C28H22F3N7O/c1-17-5-6-19(10-25(17)37-27-33-9-7-24(36-27)20-4-3-8-32-14-20)26(39)35-22-11-21(28(29,30)31)12-23(13-22)38-15-18(2)34-16-38/h3-16H,1-2H3,(H,35,39)(H,33,36,37)
Instrument: TripleTOF 5600 SCIEX
Instrument type: LC-ESI-QTOF
Ms type: MS2
Ion mode: NEGATIVE
Collision energy: 120
Fragmentation mode: CID
Ionization: ESI
Column name: Zorbax Eclipse Plus C18 2.1 mm x 150 mm, 3.5 um, Agilent
Retention time: 8.404 min
Precursor m/z: 528.1765
Precursor type: [M-H]-
m/z	relative intensity
41.017	133
41.0276	66
42.0021	666
50.0068	66
52.0249	66
65.0171	133
74.0053	66
78.0357	199
79.0326	66
81.0463	999
98.0014	133
103.0301	199
116.0533	133
118.01	266
130.0721	199
131.0595	199
136.0027	333
138.0178	66
141.0482	66
144.059	199
151.0357	66
152.0492	66
153.0422	66
153.0528	133
155.0496	466
156.0237	199
157.0187	133
158.035	66
159.0415	199
160.036	66
164.0295	133
169.0564	133
171.0399	133
171.0693	466
173.0495	199
176.0299	66
177.0319	199
178.0397	266
179.0351	199
183.0324	66
184.0312	133
186.0139	133
191.0425	66
193.0568	333
198.0428	66
211.0478	133
223.0295	66
224.0147	66
236.0323	66
