Mass spectrum: Roxithromycine; LC-ESI-QTOF; MS2; 90 V
Name: Roxithromycine
Class: Pharmaceutical
Formula: C41H76N2O15
Exact mass: 836.5246
SMILES: CC[C@H]1OC(=O)[C@H](C)[C@@H](OC2CC(C)(OC)C(O)C(C)O2)[C@H](C)[C@@H](OC3OC(C)CC(C3O)N(C)C)[C@](C)(O)C[C@@H](C)\C(=N/OCOCCOC)[C@H](C)[C@@H](O)[C@]1(C)O
InChI: InChI=1S/C41H76N2O15/c1-15-29-41(10,49)34(45)24(4)31(42-53-21-52-17-16-50-13)22(2)19-39(8,48)36(58-38-32(44)28(43(11)12)18-23(3)54-38)25(5)33(26(6)37(47)56-29)57-30-20-40(9,51-14)35(46)27(7)55-30/h22-30,32-36,38,44-46,48-49H,15-21H2,1-14H3/b42-31+/t22-,23?,24+,25+,26-,27?,28?,29-,30?,32?,33+,34-,35?,36-,38?,39-,40?,41-/m1/s1
Instrument: TripleTOF 5600 SCIEX
Instrument type: LC-ESI-QTOF
Ms type: MS2
Ion mode: POSITIVE
Collision energy: 90
Fragmentation mode: CID
Ionization: ESI
Column name: Zorbax Eclipse Plus C18 2.1 mm x 150 mm, 3.5 um, Agilent
Retention time: 8.911 min
Precursor m/z: 837.5318
Precursor type: [M+H]+
m/z	relative intensity
55.0588	34
57.0597	12
59.053	53
70.0683	18
72.0835	405
73.0552	15
81.0717	28
83.0512	999
83.08	25
83.0929	25
84.0824	47
87.0452	235
87.0715	28
88.0778	160
88.0946	15
98.0587	12
98.0966	625
99.081	12
99.1038	31
100.0769	59
109.0625	18
113.0576	125
114.0901	47
115.0742	18
116.0699	361
116.1058	464
123.0816	12
124.1116	18
127.075	15
158.1173	543
193.1206	15
