Mass spectrum: (2-Hydroxyethyl)triphenylphosphonium; LC-ESI-QTOF; MS2; 140 V
Name: (2-Hydroxyethyl)triphenylphosphonium
Class: Industrial_process
Formula: [C20H20OP]+
Exact mass: 307.1246
SMILES: OCC[P+](c1ccccc1)(c2ccccc2)c3ccccc3
InChI: InChI=1S/C20H20OP/c21-16-17-22(18-10-4-1-5-11-18,19-12-6-2-7-13-19)20-14-8-3-9-15-20/h1-15,21H,16-17H2/q+1
Instrument: TripleTOF 5600 SCIEX
Instrument type: LC-ESI-QTOF
Ms type: MS2
Ion mode: POSITIVE
Collision energy: 140
Fragmentation mode: CID
Ionization: ESI
Column name: Zorbax Eclipse Plus C18 2.1 mm x 150 mm, 3.5 um, Agilent
Retention time: 7.101 min
Precursor m/z: 307.1246
Precursor type: [M]+
m/z	relative intensity
51.0301	83
56.9943	89
65.0421	82
67.9841	54
74.0178	89
76.0336	83
77.0402	103
78.9746	96
79.983	287
80.9908	435
87.0236	90
89.0395	264
91.9811	57
98.015	67
102.046	129
103.9812	88
104.9882	50
107.0049	999
113.0386	103
115.0548	231
126.0459	310
131.0048	128
133.0201	55
139.0542	202
150.0462	385
151.0542	516
152.0622	456
155.0042	100
156.0134	110
157.02	271
163.0536	50
179.0035	78
180.0116	132
181.0205	394
224.0618	83
255.0368	58
