Mass spectrum: 3-Methyl-1-propylpyridinium; LC-ESI-QTOF; MS2; 50 V
Name: 3-Methyl-1-propylpyridinium
Formula: [C9H14N]+
Exact mass: 136.1121
SMILES: CCC[N+]1=CC=CC(=C1)C
InChI: InChI=1S/C9H14N/c1-3-6-10-7-4-5-9(2)8-10/h4-5,7-8H,3,6H2,1-2H3/q+1
Instrument: TripleTOF 6600 SCIEX
Instrument type: LC-ESI-QTOF
Ms type: MS2
Ion mode: POSITIVE
Collision energy: 50
Fragmentation mode: CID
Ionization: ESI
Column name: Zorbax Eclipse Plus C18 2.1 mm x 150 mm, 3.5 um, Agilent
Retention time: 1.299 min
Precursor m/z: 136.1121
Precursor type: [M]+
m/z	relative intensity
39.023	184
41.0385	245
51.0228	96
52.0301	61
53.039	113
65.0378	236
66.0458	52
67.0532	140
77.0383	96
78.0324	552
79.0406	254
92.0475	166
93.0548	254
94.0631	999
