Mass spectrum: Sulfamethoxazole; LC-ESI-QTOF; MS2; 20 V
Name: Sulfamethoxazole
Class: Antimicrobial; Pharmaceutical
Formula: C10H11N3O3S
Exact mass: 253.0521
SMILES: CC1=CC(=NO1)NS(=O)(=O)C2=CC=C(C=C2)N
InChI: InChI=1S/C10H11N3O3S/c1-7-6-10(12-16-7)13-17(14,15)9-4-2-8(11)3-5-9/h2-6H,11H2,1H3,(H,12,13)
Instrument: TripleTOF 5600 SCIEX
Instrument type: LC-ESI-QTOF
Ms type: MS2
Ion mode: POSITIVE
Collision energy: 20
Fragmentation mode: CID
Ionization: ESI
Column name: Zorbax Eclipse Plus C18 2.1 mm x 150 mm, 3.5 um, Agilent
Retention time: 7.246 min
Precursor m/z: 254.0594
Precursor type: [M+H]+
m/z	relative intensity
65.0461	16
92.0538	181
93.0608	105
94.0685	16
99.0591	118
107.0638	22
108.0472	231
146.0728	38
147.0804	159
148.0877	52
156.012	999
160.0877	120
161.0015	12
176.0258	12
188.0827	224
254.059	991
