Mass spectrum: Ampicillin; LC-ESI-QTOF; MS2; 20 V
Name: Ampicillin
Class: Pharmaceutical
Formula: C16H19N3O4S
Exact mass: 349.1096
SMILES: CC1(C)S[C@@H]2[C@H](NC(=O)[C@H](N)c3ccccc3)C(=O)N2[C@H]1C(O)=O
InChI: InChI=1S/C16H19N3O4S/c1-16(2)11(15(22)23)19-13(21)10(14(19)24-16)18-12(20)9(17)8-6-4-3-5-7-8/h3-7,9-11,14H,17H2,1-2H3,(H,18,20)(H,22,23)/t9-,10-,11+,14-/m1/s1
Instrument: TripleTOF 5600 SCIEX
Instrument type: LC-ESI-QTOF
Ms type: MS2
Ion mode: POSITIVE
Collision energy: 20
Fragmentation mode: CID
Ionization: ESI
Column name: Zorbax Eclipse Plus C18 2.1 mm x 150 mm, 3.5 um, Agilent
Retention time: 5.367 min
Precursor m/z: 350.1169
Precursor type: [M+H]+
m/z	relative intensity
70.0684	21
79.0562	14
106.0663	999
114.0003	39
114.0363	17
118.065	10
146.0603	12
160.0427	428
164.0523	58
165.0661	14
174.0548	417
191.0813	40
192.0476	574
193.0606	15
211.0709	86
215.0492	16
218.0266	41
259.0906	19
289.1008	21
305.0948	81
333.0901	119
350.1164	612
