Mass spectrum: 2-Phenyl-1H-benzimidazol-4-amine; LC-ESI-QTOF; MS2; 130 V
Name: 2-Phenyl-1H-benzimidazol-4-amine
Class: Pharmaceutical
Formula: C13H11N3
Exact mass: 209.0953
SMILES: C1=CC=C(C=C1)C2=NC3=C(N2)C=CC=C3N
InChI: InChI=1S/C13H11N3/c14-10-7-4-8-11-12(10)16-13(15-11)9-5-2-1-3-6-9/h1-8H,14H2,(H,15,16)
Instrument: TripleTOF 5600 SCIEX
Instrument type: LC-ESI-QTOF
Ms type: MS2
Ion mode: POSITIVE
Collision energy: 130
Fragmentation mode: CID
Ionization: ESI
Column name: Zorbax Eclipse Plus C18 2.1 mm x 150 mm, 3.5 um, Agilent
Retention time: 5.276 min
Precursor m/z: 210.1026
Precursor type: [M+H]+
m/z	relative intensity
52.0257	499
52.0353	999
54.0399	268
54.0467	153
74.0177	307
75.0238	384
76.0235	230
77.044	614
78.0386	461
80.0534	653
85.0117	268
86.0193	537
87.0279	230
89.0415	268
98.0172	230
