Mass spectrum: 2-(Methylthio)benzothiazole; LC-ESI-QTOF; MS2; 60 V
Name: 2-(Methylthio)benzothiazole
Class: Industrial_process; Fungicide
Formula: C8H7NS2
Exact mass: 181.002
SMILES: CSc1sc2ccccc2n1
InChI: InChI=1S/C8H7NS2/c1-10-8-9-6-4-2-3-5-7(6)11-8/h2-5H,1H3
Instrument: TripleTOF 5600 SCIEX
Instrument type: LC-ESI-QTOF
Ms type: MS2
Ion mode: POSITIVE
Collision energy: 60
Fragmentation mode: CID
Ionization: ESI
Column name: Zorbax Eclipse Plus C18 2.1 mm x 150 mm, 3.5 um, Agilent
Retention time: 12.209 min
Precursor m/z: 182.0093
Precursor type: [M+H]+
m/z	relative intensity
63.9469	131
64.034	196
65.0418	982
68.9819	393
69.99	81
76.0328	114
77.0406	327
81.9899	131
91.0424	311
94.9968	114
96.003	507
103.0434	81
108.0021	376
109.0105	999
122.0041	212
123.0121	736
135.0124	360
139.9746	114
166.9877	278
