Mass spectrum: Triphenyl phosphate; LC-ESI-QTOF; MS2; 40 V
Name: Triphenyl phosphate
Class: Industrial_process
Formula: C18H15O4P
Exact mass: 326.0708
SMILES: C1=CC=C(C=C1)OP(=O)(OC2=CC=CC=C2)OC3=CC=CC=C3
InChI: InChI=1S/C18H15O4P/c19-23(20-16-10-4-1-5-11-16,21-17-12-6-2-7-13-17)22-18-14-8-3-9-15-18/h1-15H
Instrument: TripleTOF 5600 SCIEX
Instrument type: LC-ESI-QTOF
Ms type: MS2
Ion mode: POSITIVE
Collision energy: 40
Fragmentation mode: CID
Ionization: ESI
Column name: Zorbax Eclipse Plus C18 2.1 mm x 150 mm, 3.5 um, Agilent
Retention time: 14.07 min
Precursor m/z: 327.0781
Precursor type: [M+H]+
m/z	relative intensity
51.023	19
77.0385	470
93.0322	14
95.0492	42
98.9837	13
138.9949	24
141.0704	16
151.0548	125
152.062	857
153.07	521
157.003	15
168.057	321
169.0665	23
170.0741	16
171.0819	44
175.016	64
187.0314	63
202.0785	42
215.0253	999
216.0383	15
226.0761	21
227.0859	90
228.0935	340
229.0994	82
233.0371	274
244.0878	16
251.0473	670
291.0588	44
309.0689	13
327.0797	313
