Mass spectrum: Monolinuron; LC-ESI-QTOF; MS2; 100 V
Name: Monolinuron
Class: Herbicide
Formula: C9H11ClN2O2
Exact mass: 214.0509
SMILES: CN(C(=O)NC1=CC=C(C=C1)Cl)OC
InChI: InChI=1S/C9H11ClN2O2/c1-12(14-2)9(13)11-8-5-3-7(10)4-6-8/h3-6H,1-2H3,(H,11,13)
Instrument: TripleTOF 5600 SCIEX
Instrument type: LC-ESI-QTOF
Ms type: MS2
Ion mode: POSITIVE
Collision energy: 100
Fragmentation mode: CID
Ionization: ESI
Column name: Zorbax Eclipse Plus C18 2.1 mm x 150 mm, 3.5 um, Agilent
Retention time: 10.275 min
Precursor m/z: 215.0582
Precursor type: [M+H]+
m/z	relative intensity
39.0221	181
65.0372	408
72.9839	999
98.9994	227
