Mass spectrum: Tebuconazole; LC-ESI-QTOF; MS2; 100 V
Name: Tebuconazole
Class: Fungicide
Formula: C16H22ClN3O
Exact mass: 307.1451
SMILES: CC(C)(C)C(O)(CCc1ccc(Cl)cc1)Cn2cncn2
InChI: InChI=1S/C16H22ClN3O/c1-15(2,3)16(21,10-20-12-18-11-19-20)9-8-13-4-6-14(17)7-5-13/h4-7,11-12,21H,8-10H2,1-3H3
Instrument: TripleTOF 5600 SCIEX
Instrument type: LC-ESI-QTOF
Ms type: MS2
Ion mode: POSITIVE
Collision energy: 100
Fragmentation mode: CID
Ionization: ESI
Column name: Zorbax Eclipse Plus C18 2.1 mm x 150 mm, 3.5 um, Agilent
Retention time: 12.72 min
Precursor m/z: 308.1524
Precursor type: [M+H]+
m/z	relative intensity
43.0392	144
57.0752	16
59.0546	41
65.0433	25
70.0456	999
72.9876	66
75.0255	14
77.0414	56
82.0427	12
89.0418	353
90.0487	98
99.001	170
102.0471	10
103.0538	12
115.0551	276
116.0619	37
125.0159	276
127.0538	10
128.062	35
129.0691	14
