Mass spectrum: Metsulfuron-methyl; LC-ESI-QTOF; MS2; 40 V
Name: Metsulfuron-methyl
Formula: C14H15N5O6S
Exact mass: 381.0743
SMILES: CC1=NC(=NC(=N1)OC)NC(=O)NS(=O)(=O)C2=CC=CC=C2C(=O)OC
InChI: InChI=1S/C14H15N5O6S/c1-8-15-12(18-14(16-8)25-3)17-13(21)19-26(22,23)10-7-5-4-6-9(10)11(20)24-2/h4-7H,1-3H3,(H2,15,16,17,18,19,21)
Instrument: TripleTOF 6600 SCIEX
Instrument type: LC-ESI-QTOF
Ms type: MS2
Ion mode: POSITIVE
Collision energy: 40
Fragmentation mode: CID
Ionization: ESI
Column name: Zorbax Eclipse Plus C18 2.1 mm x 150 mm, 3.5 um, Agilent
Retention time: 9.15008 min
Precursor m/z: 382.0816
Precursor type: [M+H]+
m/z	relative intensity
42.0344	12
56.0505	37
58.0284	16
69.0069	16
77.0391	37
79.0525	12
83.0246	29
85.0373	12
135.0434	124
141.0761	120
146.0269	29
167.0557	999
199.0053	182
209.9856	24
