Mass spectrum: Formononetin; LC-ESI-QTOF; MS2; 40 V
Name: Formononetin
Class: Metabolite; Metabolite; Pharmaceutical
Formula: C16H12O4
Exact mass: 268.0736
SMILES: COc1ccc(cc1)C2=COc3cc(O)ccc3C2=O
InChI: InChI=1S/C16H12O4/c1-19-12-5-2-10(3-6-12)14-9-20-15-8-11(17)4-7-13(15)16(14)18/h2-9,17H,1H3
Instrument: TripleTOF 5600 SCIEX
Instrument type: LC-ESI-QTOF
Ms type: MS2
Ion mode: POSITIVE
Collision energy: 40
Fragmentation mode: CID
Ionization: ESI
Column name: Zorbax Eclipse Plus C18 2.1 mm x 150 mm, 3.5 um, Agilent
Retention time: 10.093 min
Precursor m/z: 269.0808
Precursor type: [M+H]+
m/z	relative intensity
69.0016	13
77.0413	21
79.0569	21
81.0364	11
89.04	21
90.0484	42
103.0553	13
105.0712	13
107.0496	91
108.0211	51
115.0538	22
118.0417	346
128.0611	28
129.0702	17
133.0285	22
133.0646	68
136.0152	154
137.0236	161
141.0699	40
142.0783	11
152.061	74
153.0698	64
155.048	10
156.0567	126
157.0653	40
158.0714	45
163.0403	28
165.0695	37
168.0587	13
169.0653	129
170.0722	171
171.0809	11
180.0571	43
181.0652	275
182.0725	108
183.0782	12
184.0523	42
185.0948	18
195.079	55
196.0523	53
197.06	883
198.0679	326
200.0471	53
208.0519	21
209.0589	50
210.0685	19
211.075	12
213.0913	526
225.0546	467
226.0626	798
237.0551	750
241.0847	12
253.0503	999
254.0579	463
269.0815	668
