Mass spectrum: Febantel; LC-ESI-QTOF; MS2; 60 V
Name: Febantel
Class: Pharmaceutical
Formula: C20H22N4O6S
Exact mass: 446.126
SMILES: COCC(=O)Nc1cc(Sc2ccccc2)ccc1NC(NC(=O)OC)=NC(=O)OC
InChI: InChI=1S/C20H22N4O6S/c1-28-12-17(25)21-16-11-14(31-13-7-5-4-6-8-13)9-10-15(16)22-18(23-19(26)29-2)24-20(27)30-3/h4-11H,12H2,1-3H3,(H,21,25)(H2,22,23,24,26,27)
Instrument: TripleTOF 5600 SCIEX
Instrument type: LC-ESI-QTOF
Ms type: MS2
Ion mode: POSITIVE
Collision energy: 60
Fragmentation mode: CID
Ionization: ESI
Column name: Zorbax Eclipse Plus C18 2.1 mm x 150 mm, 3.5 um, Agilent
Retention time: 13.085 min
Precursor m/z: 447.1333
Precursor type: [M+H]+
m/z	relative intensity
45.043	104
78.0504	15
83.0268	72
109.0119	312
116.0371	11
118.0527	81
122.0064	13
131.0593	10
132.0692	13
143.0481	27
145.0396	17
145.0642	45
146.0468	36
149.0172	70
158.0355	10
159.0014	26
159.0432	138
159.0767	10
161.0344	18
170.034	21
171.0431	212
172.0508	87
173.0589	76
174.0426	17
183.0267	59
184.0351	14
185.0423	12
186.0303	40
190.008	63
198.0384	75
199.0458	29
202.0081	118
202.0543	14
203.0148	56
203.0703	10
204.0237	11
204.0762	77
205.079	18
209.0307	58
210.0376	53
213.0442	32
214.0471	11
219.08	25
223.0359	20
224.0409	43
225.0482	143
226.0549	10
227.0639	208
229.0364	91
235.0744	15
237.0489	126
238.0519	46
239.0641	94
240.0602	59
243.0588	12
246.0671	46
247.0744	56
248.0818	51
252.0601	30
253.0435	102
253.0774	10
254.0741	23
265.0325	63
266.0391	333
267.0475	548
268.0538	172
269.0743	22
278.0381	57
280.055	999
282.069	62
293.0501	14
294.0354	10
308.0497	16
311.0581	10
323.0599	30
