Mass spectrum: Isopropyl diphenyl phosphate; LC-ESI-QTOF; MS2; 110 V
Name: Isopropyl diphenyl phosphate
Formula: C15H17O4P
Exact mass: 292.0864
SMILES: CC(C)OP(=O)(OC1=CC=CC=C1)OC2=CC=CC=C2
InChI: InChI=1S/C15H17O4P/c1-13(2)17-20(16,18-14-9-5-3-6-10-14)19-15-11-7-4-8-12-15/h3-13H,1-2H3
Instrument: TripleTOF 6600 SCIEX
Instrument type: LC-ESI-QTOF
Ms type: MS2
Ion mode: POSITIVE
Collision energy: 110
Fragmentation mode: CID
Ionization: ESI
Column name: Zorbax Eclipse Plus C18 2.1 mm x 150 mm, 3.5 um, Agilent
Retention time: 12.828 min
Precursor m/z: 293.0937
Precursor type: [M+H]+
m/z	relative intensity
49.0067	65
50.0152	490
51.023	999
74.0145	41
77.0379	161
126.0457	35
150.0459	71
151.0534	47
