Mass spectrum: Josamycin; LC-ESI-QTOF; MS2; 70 V
Name: Josamycin
Class: Antimicrobial; Pharmaceutical
Formula: C42H69NO15
Exact mass: 827.4667
SMILES: CC1CC=CC=CC(C(CC(C(C(C(CC(=O)O1)OC(=O)C)OC)OC2C(C(C(C(O2)C)OC3CC(C(C(O3)C)OC(=O)CC(C)C)(C)O)N(C)C)O)CC=O)C)O
InChI: InChI=1S/C42H69NO15/c1-23(2)19-32(47)56-40-27(6)53-34(22-42(40,8)50)57-37-26(5)54-41(36(49)35(37)43(9)10)58-38-29(17-18-44)20-24(3)30(46)16-14-12-13-15-25(4)52-33(48)21-31(39(38)51-11)55-28(7)45/h12-14,16,18,23-27,29-31,34-41,46,49-50H,15,17,19-22H2,1-11H3
Instrument: TripleTOF 5600 SCIEX
Instrument type: LC-ESI-QTOF
Ms type: MS2
Ion mode: POSITIVE
Collision energy: 70
Fragmentation mode: CID
Ionization: ESI
Column name: Zorbax Eclipse Plus C18 2.1 mm x 150 mm, 3.5 um, Agilent
Retention time: 8.874 min
Precursor m/z: 828.474
Precursor type: [M+H]+
m/z	relative intensity
79.0597	16
81.074	22
83.0537	142
84.0833	13
85.0686	72
87.0484	16
88.0792	72
98.0993	45
100.0775	16
101.0856	15
109.0663	999
114.0921	29
115.1008	19
116.0714	62
127.076	15
132.1034	19
156.1025	66
174.113	312
185.1184	21
229.1444	19
