Mass spectrum: 2-Ethylhexyl diphenyl phosphate; LC-ESI-QTOF; MS2; 100 V
Name: 2-Ethylhexyl diphenyl phosphate
Class: Industrial_process
Formula: C20H27O4P
Exact mass: 362.1647
SMILES: CCCCC(CC)COP(=O)(OC1=CC=CC=C1)OC2=CC=CC=C2
InChI: InChI=1S/C20H27O4P/c1-3-5-12-18(4-2)17-22-25(21,23-19-13-8-6-9-14-19)24-20-15-10-7-11-16-20/h6-11,13-16,18H,3-5,12,17H2,1-2H3
Instrument: TripleTOF 5600 SCIEX
Instrument type: LC-ESI-QTOF
Ms type: MS2
Ion mode: POSITIVE
Collision energy: 100
Fragmentation mode: CID
Ionization: ESI
Column name: Zorbax Eclipse Plus C18 2.1 mm x 150 mm, 3.5 um, Agilent
Retention time: 16.989 min
Precursor m/z: 363.172
Precursor type: [M+H]+
m/z	relative intensity
39.0236	11
41.039	15
43.0551	26
50.0162	57
51.0237	352
57.0711	22
71.0871	13
75.0248	11
77.0392	999
95.0512	28
98.9853	11
102.047	15
126.0466	46
127.0544	35
138.9956	11
139.0547	62
150.0465	88
151.0542	197
152.062	620
168.0572	75
