Mass spectrum: 4'-O-Demethyl pantoprazole sulfide; LC-ESI-QTOF; MS2; 50 V
Name: 4'-O-Demethyl pantoprazole sulfide
Class: Pharmaceutical; Transformation_product-Metabolite
Formula: C15H13F2N3O3S
Exact mass: 353.0646
SMILES: COC1=C(NC=CC1=O)CSC2=NC3=C(N2)C=C(C=C3)OC(F)F
InChI: InChI=1S/C15H13F2N3O3S/c1-22-13-11(18-5-4-12(13)21)7-24-15-19-9-3-2-8(23-14(16)17)6-10(9)20-15/h2-6,14H,7H2,1H3,(H,18,21)(H,19,20)
Instrument: TripleTOF 6600 SCIEX
Instrument type: LC-ESI-QTOF
Ms type: MS2
Ion mode: POSITIVE
Collision energy: 50
Fragmentation mode: CID
Ionization: ESI
Column name: Zorbax Eclipse Plus C18 2.1 mm x 150 mm, 3.5 um, Agilent
Retention time: 7.57 min
Precursor m/z: 354.0719
Precursor type: [M+H]+
m/z	relative intensity
53.0379	95
65.0374	11
67.0173	15
67.0407	16
80.0484	118
81.0324	21
82.0635	30
90.0328	26
92.0482	12
93.0558	26
95.0353	14
96.0423	20
108.0436	999
109.0503	17
110.0591	329
117.0429	12
118.0508	15
120.042	14
121.0508	29
124.0378	45
126.0533	49
127.0068	17
135.0542	66
136.0381	64
138.0538	125
140.0154	66
142.0302	19
155.0017	49
170.0258	247
185.0509	190
216.0142	16
278.0727	42
302.0744	21
306.0677	22
