Mass spectrum: Iohexol; LC-ESI-QTOF; MS2; 100 V
Name: Iohexol
Class: Pharmaceutical
Formula: C19H26I3N3O9
Exact mass: 820.8803
SMILES: CC(=O)N(CC(O)CO)c1c(I)c(C(=O)NCC(O)CO)c(I)c(C(=O)NCC(O)CO)c1I
InChI: InChI=1S/C19H26I3N3O9/c1-8(29)25(4-11(32)7-28)17-15(21)12(18(33)23-2-9(30)5-26)14(20)13(16(17)22)19(34)24-3-10(31)6-27/h9-11,26-28,30-32H,2-7H2,1H3,(H,23,33)(H,24,34)
Instrument: TripleTOF 5600 SCIEX
Instrument type: LC-ESI-QTOF
Ms type: MS2
Ion mode: POSITIVE
Collision energy: 100
Fragmentation mode: CID
Ionization: ESI
Column name: Zorbax Eclipse Plus C18 2.1 mm x 150 mm, 3.5 um, Agilent
Retention time: 4.533 min
Precursor m/z: 821.8876
Precursor type: [M+H]+
m/z	relative intensity
102.0367	57
114.0341	86
115.0414	86
119.0381	72
141.0593	72
142.0284	115
144.0087	86
144.0446	130
144.073	72
145.0416	130
147.0279	101
149.0478	130
157.0512	130
158.0229	101
158.0574	72
159.023	86
159.0551	130
160.0391	86
173.0333	101
175.027	217
176.0353	101
185.0488	72
188.0352	72
188.0506	72
189.0421	159
203.057	101
204.0616	57
205.0696	101
217.0589	72
227.9344	57
228.94	115
230.918	72
231.9245	144
240.941	101
242.9222	72
242.9449	115
243.9248	72
243.9567	86
245.9391	101
248.0579	86
255.9297	115
256.935	159
257.9421	477
258.9506	101
268.9323	130
269.9399	101
269.9606	72
270.94	159
271.943	188
272.9539	144
273.9365	868
275.9522	86
283.9196	188
284.9266	130
285.9348	101
285.9565	101
286.9444	144
287.9173	86
297.9391	173
299.9138	72
300.9425	101
301.9321	999
311.9505	115
313.9422	86
313.967	57
315.9538	144
329.9677	202
331.9748	57
339.9495	101
341.8129	72
355.8418	144
356.9728	57
357.9601	115
374.9846	448
381.8251	173
382.8378	57
383.8377	101
384.8591	72
385.8155	173
395.8408	72
397.8353	101
398.8421	72
398.8595	101
409.8182	72
410.8422	130
411.829	173
411.8534	101
413.8245	57
413.8478	72
423.7984	72
427.8259	72
451.8319	72
500.8737	188
500.9011	86
509.7381	86
