Mass spectrum: Ecgonine ethyl ester; LC-ESI-QTOF; MS2; 120 V
Name: Ecgonine ethyl ester
Formula: C11H19NO3
Exact mass: 213.1365
SMILES: CCOC(=O)C1C2CCC(N2C)CC1O
InChI: InChI=1S/C11H19NO3/c1-3-15-11(14)10-8-5-4-7(12(8)2)6-9(10)13/h7-10,13H,3-6H2,1-2H3
Instrument: TripleTOF 6600 SCIEX
Instrument type: LC-ESI-QTOF
Ms type: MS2
Ion mode: POSITIVE
Collision energy: 120
Fragmentation mode: CID
Ionization: ESI
Column name: Zorbax Eclipse Plus C18 2.1 mm x 150 mm, 3.5 um, Agilent
Retention time: 2.108 min
Precursor m/z: 214.1438
Precursor type: [M+H]+
m/z	relative intensity
36.0007	83
37.0079	333
38.0031	83
38.0158	249
39.024	999
41.0271	83
41.0395	249
42.0354	416
43.0181	83
51.0237	249
52.032	249
53.0389	83
56.0506	83
65.0392	83
67.0426	416
74.0187	83
77.0381	83
78.0357	166
79.0429	249
80.0485	83
82.0651	83
93.0594	83
