Mass spectrum: Dihydroxycarbazepine; LC-ESI-QTOF; MS2; 130 V
Name: Dihydroxycarbazepine
Class: Pharmaceutical; Metabolite
Formula: C15H14N2O3
Exact mass: 270.1004
SMILES: NC(=O)N1c2ccccc2C(O)C(O)c3ccccc13
InChI: InChI=1S/C15H14N2O3/c16-15(20)17-11-7-3-1-5-9(11)13(18)14(19)10-6-2-4-8-12(10)17/h1-8,13-14,18-19H,(H2,16,20)
Instrument: TripleTOF 5600 SCIEX
Instrument type: LC-ESI-QTOF
Ms type: MS2
Ion mode: POSITIVE
Collision energy: 130
Fragmentation mode: CID
Ionization: ESI
Column name: Zorbax Eclipse Plus C18 2.1 mm x 150 mm, 3.5 um, Agilent
Retention time: 6.663 min
Precursor m/z: 271.1077
Precursor type: [M+H]+
m/z	relative intensity
65.0421	60
73.0103	30
74.0175	475
75.0256	613
76.0338	156
77.0412	607
78.0486	48
85.009	30
86.017	108
87.0243	210
88.02	30
88.0338	72
89.0396	312
90.0462	24
91.0579	24
98.0157	234
99.01	30
99.023	186
100.0302	78
101.0387	270
102.0328	42
102.0462	276
110.0154	54
111.0214	42
113.0387	234
114.0352	36
114.0493	24
115.054	108
123.0213	48
125.0383	204
126.0461	439
127.0419	48
127.0525	108
128.0489	84
128.0637	30
129.0555	36
137.0389	72
138.046	54
139.0556	216
140.0493	204
149.0384	138
150.0462	944
150.0688	36
151.054	999
152.0606	686
153.058	102
161.038	48
162.0475	54
163.0542	192
164.0502	60
166.0699	36
176.0503	90
177.0563	282
178.0653	451
179.073	66
188.0508	36
189.0571	48
190.0662	42
