Mass spectrum: Fluoxastrobin; LC-ESI-QTOF; MS2; 130 V
Name: Fluoxastrobin
Class: Fungicide
Formula: C21H16ClFN4O5
Exact mass: 458.0793
SMILES: CON=C(C1=CC=CC=C1OC2=C(C(=NC=N2)OC3=CC=CC=C3Cl)F)C4=NOCCO4
InChI: InChI=1S/C21H16ClFN4O5/c1-28-26-18(21-27-30-11-10-29-21)13-6-2-4-8-15(13)31-19-17(23)20(25-12-24-19)32-16-9-5-3-7-14(16)22/h2-9,12H,10-11H2,1H3
Instrument: TripleTOF 6600 SCIEX
Instrument type: LC-ESI-QTOF
Ms type: MS2
Ion mode: POSITIVE
Collision energy: 130
Fragmentation mode: CID
Ionization: ESI
Column name: Zorbax Eclipse Plus C18 2.1 mm x 150 mm, 3.5 um, Agilent
Retention time: 13.269 min
Precursor m/z: 459.0866
Precursor type: [M+H]+
m/z	relative intensity
37.0066	10
38.0145	16
39.023	32
43.0171	29
49.0066	16
50.0148	151
51.023	258
52.0187	23
57.0132	22
59.9971	10
61.0067	28
62.0152	66
63.0225	214
64.0174	34
64.0302	65
65.038	47
68.005	10
69.0082	13
69.9924	16
70.0079	19
72.984	26
73.0088	55
74.0146	499
75.0225	999
76.0178	165
76.0292	135
77.0375	151
78.0338	29
81.0126	37
82.0093	14
84.9834	98
86.0144	17
87.0123	43
88.0175	22
88.0295	19
89.0249	11
89.038	16
90.0325	93
91.0411	49
92.0252	44
93.0121	11
94.0195	41
95.0277	89
96.0369	11
98.0156	17
99.0099	37
99.0213	17
100.0179	75
101.0244	10
102.0328	249
103.0408	10
105.0125	34
105.0347	17
106.0207	65
107.028	108
110.9997	141
112.0185	10
113.0249	28
114.0328	62
116.0377	14
119.0337	10
120.0401	17
121.0312	29
122.0398	11
123.0175	17
123.0303	23
129.0426	17
130.0396	112
131.0254	10
132.0232	118
133.0315	57
134.0377	13
137.0277	20
139.0049	38
139.029	10
140.0363	13
140.9906	22
141.0461	17
141.9891	10
144.0326	13
145.0321	14
149.0387	37
150.0455	38
151.0525	29
152.0445	10
159.0321	10
161.0295	17
163.0476	11
164.0482	17
168.0355	26
169.0396	44
170.0493	19
174.0314	16
175.0413	26
176.0474	31
177.0518	22
182.0394	10
188.0432	20
195.0453	31
196.054	17
202.0499	16
203.0575	10
206.0397	10
221.052	16
250.058	19
