Mass spectrum: Cetylpyridinium; LC-ESI-QTOF; MS2; 50 V
Name: Cetylpyridinium
Class: Antimicrobial; Biocide; Industrial_process
Formula: [C21H38N]+
Exact mass: 304.2999
SMILES: CCCCCCCCCCCCCCCCN1C=C[CH+]C=C1
InChI: InChI=1S/C21H38N/c1-2-3-4-5-6-7-8-9-10-11-12-13-14-16-19-22-20-17-15-18-21-22/h15,17-18,20-21H,2-14,16,19H2,1H3/q+1
Instrument: TripleTOF 5600 SCIEX
Instrument type: LC-ESI-QTOF
Ms type: MS2
Ion mode: POSITIVE
Collision energy: 50
Fragmentation mode: CID
Ionization: ESI
Column name: Zorbax Eclipse Plus C18 2.1 mm x 150 mm, 3.5 um, Agilent
Retention time: 12.994 min
Precursor m/z: 304.2999
Precursor type: [M]+
m/z	relative intensity
57.0749	65
80.0531	999
