Mass spectrum: Levamisole; LC-ESI-QTOF; MS2; 40 V
Name: Levamisole
Class: Pharmaceutical
Formula: C11H12N2S
Exact mass: 204.0721
SMILES: c1ccc(cc1)[C@H]2CN3CCSC3=N2
InChI: InChI=1S/C11H12N2S/c1-2-4-9(5-3-1)10-8-13-6-7-14-11(13)12-10/h1-5,10H,6-8H2/t10-/m1/s1
Instrument: TripleTOF 5600 SCIEX
Instrument type: LC-ESI-QTOF
Ms type: MS2
Ion mode: POSITIVE
Collision energy: 40
Fragmentation mode: CID
Ionization: ESI
Column name: Zorbax Eclipse Plus C18 2.1 mm x 150 mm, 3.5 um, Agilent
Retention time: 5.021 min
Precursor m/z: 205.0794
Precursor type: [M+H]+
m/z	relative intensity
58.9991	13
59.9949	19
65.0424	32
74.0086	31
77.0419	95
78.0491	10
79.0572	70
86.007	19
88.0233	52
91.0571	983
103.0548	166
104.0611	31
105.0708	169
106.066	30
115.055	146
117.0652	386
118.0656	248
119.0802	30
120.0809	16
123.0272	785
127.0548	87
128.0622	293
129.0703	190
130.0656	168
131.0731	94
132.0811	85
135.0265	72
144.081	98
145.0766	41
146.0968	74
148.0213	27
150.0373	82
178.0698	999
188.0543	25
205.0801	295
