Mass spectrum: Triamterene; LC-ESI-QTOF; MS2; 70 V
Name: Triamterene
Class: Pharmaceutical
Formula: C12H11N7
Exact mass: 253.1076
SMILES: C1=CC=C(C=C1)C2=NC3=C(N=C2N)N=C(N=C3N)N
InChI: InChI=1S/C12H11N7/c13-9-7(6-4-2-1-3-5-6)16-8-10(14)18-12(15)19-11(8)17-9/h1-5H,(H6,13,14,15,17,18,19)
Instrument: TripleTOF 5600 SCIEX
Instrument type: LC-ESI-QTOF
Ms type: MS2
Ion mode: POSITIVE
Collision energy: 70
Fragmentation mode: CID
Ionization: ESI
Column name: Zorbax Eclipse Plus C18 2.1 mm x 150 mm, 3.5 um, Agilent
Retention time: 5.203 min
Precursor m/z: 254.1149
Precursor type: [M+H]+
m/z	relative intensity
43.0421	34
53.024	26
55.0391	26
65.0202	90
67.037	14
68.0332	11
75.0286	11
76.0364	22
77.0444	561
79.0586	89
80.0299	49
82.0461	11
88.0241	15
89.0425	714
90.0116	38
90.0452	45
91.0581	17
92.0278	154
102.0366	29
103.044	152
104.0518	999
107.0379	13
114.0361	215
115.0438	61
116.0511	616
117.0588	45
128.0374	23
129.0453	53
131.0607	107
139.0306	42
141.0458	960
142.0538	215
143.061	54
153.046	27
156.0569	10
166.0413	53
167.049	22
168.0561	142
169.0627	13
183.0671	38
193.0513	29
195.065	33
210.0779	13
