Mass spectrum: Sunitinib; LC-ESI-QTOF; MS2; 60 V
Name: Sunitinib
Class: Pharmaceutical
Formula: C22H27FN4O2
Exact mass: 398.2118
SMILES: CCN(CC)CCNC(=O)C1=C(NC(=C1C)C=C2C3=C(C=CC(=C3)F)NC2=O)C
InChI: InChI=1S/C22H27FN4O2/c1-5-27(6-2)10-9-24-22(29)20-13(3)19(25-14(20)4)12-17-16-11-15(23)7-8-18(16)26-21(17)28/h7-8,11-12,25H,5-6,9-10H2,1-4H3,(H,24,29)(H,26,28)
Instrument: TripleTOF 5600 SCIEX
Instrument type: LC-ESI-QTOF
Ms type: MS2
Ion mode: POSITIVE
Collision energy: 60
Fragmentation mode: CID
Ionization: ESI
Column name: Zorbax Eclipse Plus C18 2.1 mm x 150 mm, 3.5 um, Agilent
Retention time: 6.516 min
Precursor m/z: 399.2191
Precursor type: [M+H]+
m/z	relative intensity
100.1137	10
148.0573	18
150.0355	24
169.0451	13
171.0362	21
172.0556	15
176.0504	11
183.0611	48
184.0564	26
185.0642	69
186.0718	63
189.0465	128
190.065	22
195.0509	11
196.0569	111
197.0628	12
198.0717	24
200.0875	67
202.0658	15
207.0931	15
208.0564	11
209.0655	78
210.073	293
211.0708	29
212.0816	51
213.0609	12
213.0843	16
214.0672	111
215.0676	18
220.0568	87
222.0649	29
224.077	19
225.0816	13
226.0664	31
226.0886	14
227.0993	135
228.083	61
235.086	25
236.0753	30
237.0839	159
238.0684	520
239.0874	84
240.0708	134
249.0706	12
253.0786	29
254.0886	11
254.1098	56
255.0948	412
264.0964	11
265.0783	20
266.0652	13
266.0848	11
267.0832	18
268.0657	29
282.1054	58
283.0904	999
326.1321	42
