Mass spectrum: Estradiol; LC-ESI-QTOF; MS2; 60 V
Name: Estradiol
Class: Pharmaceutical
Formula: C18H24O2
Exact mass: 272.1776
SMILES: CC12CCC3C(C1CCC2O)CCC4=C3C=CC(=C4)O
InChI: InChI=1S/C18H24O2/c1-18-9-8-14-13-5-3-12(19)10-11(13)2-4-15(14)16(18)6-7-17(18)20/h3,5,10,14-17,19-20H,2,4,6-9H2,1H3
Instrument: TripleTOF 5600 SCIEX
Instrument type: LC-ESI-QTOF
Ms type: MS2
Ion mode: POSITIVE
Collision energy: 60
Fragmentation mode: CID
Ionization: ESI
Column name: Zorbax Eclipse Plus C18 2.1 mm x 150 mm, 3.5 um, Agilent
Retention time: 10.403 min
Precursor m/z: 273.1849
Precursor type: [M+H]+
m/z	relative intensity
41.0378	10
51.0225	17
55.0175	15
55.0539	24
65.0386	20
67.0541	92
77.0387	542
79.0542	255
81.0698	72
91.0539	176
93.0695	90
95.0859	33
103.0542	48
105.0694	125
107.0492	999
107.0827	21
109.1006	23
115.0539	86
116.0616	31
117.0699	23
119.0863	18
121.0657	11
127.0547	36
128.0621	32
129.0683	20
131.0496	29
131.0849	13
132.0569	15
133.0649	43
135.1176	13
141.0695	36
144.0566	79
145.0648	23
147.0798	10
157.0638	30
158.0714	13
159.0814	14
