Mass spectrum: Diethylamino hydroxybenzoyl hexyl benzoate; LC-ESI-QTOF; MS2; 140 V
Name: Diethylamino hydroxybenzoyl hexyl benzoate
Formula: C24H31NO4
Exact mass: 397.2253
SMILES: CCCCCCOC(=O)C1=CC=CC=C1C(=O)C2=C(C=C(C=C2)N(CC)CC)O
InChI: InChI=1S/C24H31NO4/c1-4-7-8-11-16-29-24(28)20-13-10-9-12-19(20)23(27)21-15-14-18(17-22(21)26)25(5-2)6-3/h9-10,12-15,17,26H,4-8,11,16H2,1-3H3
Instrument: TripleTOF 6600 SCIEX
Instrument type: LC-ESI-QTOF
Ms type: MS2
Ion mode: POSITIVE
Collision energy: 140
Fragmentation mode: CID
Ionization: ESI
Column name: Zorbax Eclipse Plus C18 2.1 mm x 150 mm, 3.5 um, Agilent
Retention time: 17.769 min
Precursor m/z: 398.2326
Precursor type: [M+H]+
m/z	relative intensity
37.0075	22
38.0148	20
39.0232	197
41.0385	37
50.0153	19
51.0228	62
53.0387	39
61.0069	13
62.0147	25
63.0228	95
65.0384	188
68.0126	15
74.0149	33
75.0228	59
76.0301	35
77.0384	222
78.0456	16
80.0492	97
86.0146	24
87.0223	65
88.0298	34
89.0381	208
91.0167	11
91.0537	21
92.0497	10
98.0144	21
99.023	39
101.0383	36
102.0455	83
113.0382	171
114.0455	37
115.0538	236
119.0113	10
123.0224	17
125.0376	32
126.0455	128
127.0533	158
128.0608	130
137.038	92
138.0457	131
139.054	999
140.0499	62
141.068	16
149.0389	13
150.0455	124
151.0537	112
152.0612	139
153.0571	26
154.0653	27
155.0567	12
163.0531	23
164.0553	37
165.0698	29
166.0641	37
167.0721	17
168.0562	44
176.0604	13
177.0567	14
