Mass spectrum: Azoxystrobin; LC-ESI-QTOF; MS2; 80 V
Name: Azoxystrobin
Class: Fungicide
Formula: C22H17N3O5
Exact mass: 403.1168
SMILES: COC=C(C1=CC=CC=C1OC2=NC=NC(=C2)OC3=CC=CC=C3C#N)C(=O)OC
InChI: InChI=1S/C22H17N3O5/c1-27-13-17(22(26)28-2)16-8-4-6-10-19(16)30-21-11-20(24-14-25-21)29-18-9-5-3-7-15(18)12-23/h3-11,13-14H,1-2H3
Instrument: TripleTOF 6600 SCIEX
Instrument type: LC-ESI-QTOF
Ms type: MS2
Ion mode: POSITIVE
Collision energy: 80
Fragmentation mode: CID
Ionization: ESI
Column name: Zorbax Eclipse Plus C18 2.1 mm x 150 mm, 3.5 um, Agilent
Retention time: 12.114 min
Precursor m/z: 404.1241
Precursor type: [M+H]+
m/z	relative intensity
51.0212	28
63.0209	17
65.0369	19
68.9952	18
75.0211	47
76.0291	15
77.037	165
78.045	12
89.0369	176
90.0441	12
91.0396	16
91.052	16
101.0364	67
102.0321	151
103.0396	34
103.0517	10
104.0239	10
104.0472	122
105.0317	35
105.0544	18
114.0319	69
115.0398	32
116.0471	174
117.031	13
117.0551	17
118.0393	16
119.0342	25
120.0426	29
127.0391	65
128.0472	83
129.0425	115
130.0346	197
131.035	10
132.0417	18
133.0258	20
133.0505	23
134.0348	13
134.058	28
140.0466	11
141.042	16
142.049	14
143.0337	17
143.0569	17
144.0424	237
145.0259	14
145.0496	25
146.0209	20
153.0434	12
154.0504	12
155.0348	18
155.0575	21
156.0423	438
170.0445	30
171.0529	69
172.0375	999
181.0375	22
182.0452	32
183.0524	28
190.0623	29
199.0471	22
200.0316	49
205.0732	14
210.0405	10
216.0668	11
217.0745	13
218.0813	11
219.0651	10
229.0743	11
232.0678	10
233.0688	10
244.0853	26
245.0687	50
272.0783	43
273.0646	17
300.074	22
328.0687	21
