Mass spectrum: 3,5-Dichloroaniline; LC-ESI-QTOF; MS2; 50 V
Name: 3,5-Dichloroaniline
Formula: C6H5Cl2N
Exact mass: 160.9799
SMILES: C1=C(C=C(C=C1Cl)Cl)N
InChI: InChI=1S/C6H5Cl2N/c7-4-1-5(8)3-6(9)2-4/h1-3H,9H2
Instrument: TripleTOF X500R SCIEX
Instrument type: LC-ESI-QTOF
Ms type: MS2
Ion mode: POSITIVE
Collision energy: 50
Fragmentation mode: CID
Ionization: ESI
Column name: Zorbax Eclipse Plus C18 2.1 mm x 150 mm, 3.5 um, Agilent
Retention time: 11.205 min
Precursor m/z: 161.9872
Precursor type: [M+H]+
m/z	relative intensity
39.0231	73
52.0181	11
63.0233	46
64.0311	55
65.0385	509
66.0337	10
72.9842	47
74.0151	697
75.0232	105
84.9847	22
90.0349	25
91.0421	98
92.0497	363
98.9995	80
100.0079	354
108.9841	969
109.9919	81
126.0112	26
127.0186	999
144.9609	87
172.9686	21
