Mass spectrum: Aspartame; LC-ESI-QTOF; MS2; 20 V
Name: Aspartame
Class: Food_additive
Formula: C14H18N2O5
Exact mass: 294.1216
SMILES: COC(=O)C(Cc1ccccc1)NC(=O)C(N)CC(O)=O
InChI: InChI=1S/C14H18N2O5/c1-21-14(20)11(7-9-5-3-2-4-6-9)16-13(19)10(15)8-12(17)18/h2-6,10-11H,7-8,15H2,1H3,(H,16,19)(H,17,18)
Instrument: TripleTOF 5600 SCIEX
Instrument type: LC-ESI-QTOF
Ms type: MS2
Ion mode: POSITIVE
Collision energy: 20
Fragmentation mode: CID
Ionization: ESI
Column name: Zorbax Eclipse Plus C18 2.1 mm x 150 mm, 3.5 um, Agilent
Retention time: 5.761 min
Precursor m/z: 295.1288
Precursor type: [M+H]+
m/z	relative intensity
70.0322	18
88.0415	64
91.056	13
120.0816	328
121.0652	24
130.0652	20
131.0495	19
163.0756	53
172.076	19
175.0869	191
180.1026	916
189.1028	17
190.0867	30
200.071	278
217.097	104
218.0811	42
235.108	999
245.0923	115
260.0924	350
263.102	62
277.1184	147
295.1293	287
