Mass spectrum: Proadifen; LC-ESI-QTOF; MS2; 80 V
Name: Proadifen
Formula: C23H31NO2
Exact mass: 353.2355
SMILES: CCCC(C1=CC=CC=C1)(C2=CC=CC=C2)C(=O)OCCN(CC)CC
InChI: InChI=1S/C23H31NO2/c1-4-17-23(20-13-9-7-10-14-20,21-15-11-8-12-16-21)22(25)26-19-18-24(5-2)6-3/h7-16H,4-6,17-19H2,1-3H3
Instrument: TripleTOF 6600 SCIEX
Instrument type: LC-ESI-QTOF
Ms type: MS2
Ion mode: POSITIVE
Collision energy: 80
Fragmentation mode: CID
Ionization: ESI
Column name: Zorbax Eclipse Plus C18 2.1 mm x 150 mm, 3.5 um, Agilent
Retention time: 9.831 min
Precursor m/z: 354.2428
Precursor type: [M+H]+
m/z	relative intensity
39.0218	16
44.0484	37
51.0215	14
65.0372	168
72.0785	13
77.0372	215
79.0527	90
91.0528	999
103.0527	87
105.0385	45
105.0679	197
115.0521	53
116.0602	16
128.0606	46
131.0846	10
141.0679	29
151.0528	45
152.061	525
164.0604	22
165.069	712
166.0766	104
167.0842	70
178.0771	20
