Mass spectrum: Febantel; LC-ESI-QTOF; MS2; 100 V
Name: Febantel
Class: Pharmaceutical
Formula: C20H22N4O6S
Exact mass: 446.126
SMILES: COCC(=O)Nc1cc(Sc2ccccc2)ccc1NC(NC(=O)OC)=NC(=O)OC
InChI: InChI=1S/C20H22N4O6S/c1-28-12-17(25)21-16-11-14(31-13-7-5-4-6-8-13)9-10-15(16)22-18(23-19(26)29-2)24-20(27)30-3/h4-11H,12H2,1-3H3,(H,21,25)(H2,22,23,24,26,27)
Instrument: TripleTOF 5600 SCIEX
Instrument type: LC-ESI-QTOF
Ms type: MS2
Ion mode: POSITIVE
Collision energy: 100
Fragmentation mode: CID
Ionization: ESI
Column name: Zorbax Eclipse Plus C18 2.1 mm x 150 mm, 3.5 um, Agilent
Retention time: 13.085 min
Precursor m/z: 447.1333
Precursor type: [M+H]+
m/z	relative intensity
45.0431	474
51.0298	15
56.0187	23
59.0181	18
64.0343	18
65.0305	15
65.0434	273
66.0511	15
68.0166	10
68.9837	83
69.0124	41
69.9971	15
75.0245	15
76.0229	26
76.0339	31
77.0303	65
77.0427	125
78.0375	44
78.0487	62
79.0457	36
81.993	10
83.026	148
88.0227	26
89.0302	62
90.0357	106
91.0442	182
92.0376	13
92.0513	44
93.058	54
93.9862	10
94.9964	36
95.9915	13
101.0286	52
102.0354	49
102.0466	18
103.0291	59
103.0417	93
104.0388	331
105.0447	109
106.0527	54
107.0618	13
108.0025	44
109.0114	555
110.0176	10
113.0383	10
115.0299	73
115.0546	36
116.0373	740
116.0736	23
117.044	106
118.0529	680
118.0926	20
119.0249	10
119.0615	39
119.9906	39
120.9982	23
121.03	13
121.0765	23
122.007	284
122.033	23
123.0124	13
125.0372	10
126.0449	13
127.0549	114
128.0417	39
128.0613	44
129.0451	106
129.068	10
130.041	237
131.0268	36
131.0509	586
131.9909	28
132.032	15
132.0683	23
133.0641	39
134.0095	31
134.0465	31
135.0546	36
136.0092	10
138.0446	18
139.0546	506
139.1298	13
140.0496	65
142.0405	54
143.0481	503
144.033	36
144.0548	104
145.0409	80
145.0635	104
146.0198	13
146.0391	46
146.0712	23
147.0007	146
147.0264	18
148.0094	26
149.0168	73
149.0361	13
150.0256	52
150.0484	10
151.0543	88
152.0614	106
153.0579	36
153.0726	13
154.0651	125
158.0189	18
158.0341	78
158.0722	18
159.0021	62
159.0431	852
159.0785	10
160.0508	28
161.0325	41
162.0167	18
163.0218	20
164.0238	13
164.0485	143
165.0571	59
166.0656	104
167.0721	36
169.0105	20
170.0196	49
170.0349	49
171.0269	999
172.0225	36
172.0496	299
173.0361	10
173.0578	96
174.013	31
175.0205	23
176.048	46
177.0577	166
178.0634	52
179.0608	44
180.0688	49
181.072	18
182.0183	52
183.0252	260
184.0338	200
185.0328	44
186.0334	127
187.0456	10
190.0073	140
191.014	28
191.0593	65
192.0689	78
193.0735	39
194.083	23
195.0195	26
196.0215	448
197.0279	86
198.0372	229
199.0449	75
202.0056	44
203.0148	49
203.059	18
204.0733	31
205.0753	57
206.0729	33
207.0128	13
207.0884	36
208.0209	104
209.0297	620
210.0328	122
211.0318	200
212.055	13
213.0514	15
218.0698	20
219.0816	46
220.0897	10
221.0148	18
222.0266	13
223.0309	88
224.04	414
225.0201	15
225.0481	122
227.0612	10
233.0188	18
233.0598	15
234.0674	15
235.0328	33
235.0737	46
236.035	18
237.046	138
238.0437	221
239.0555	57
240.0597	18
246.0655	88
247.075	13
250.0431	18
252.0303	15
252.0558	10
265.0304	151
266.0365	247
268.0522	10
278.0373	28
280.0533	13
