Mass spectrum: Iprovalicarb; LC-ESI-QTOF; MS2; 150 V
Name: Iprovalicarb
Class: Fungicide
Formula: C18H28N2O3
Exact mass: 320.21
SMILES: CC1=CC=C(C=C1)C(C)NC(=O)C(C(C)C)NC(=O)OC(C)C
InChI: InChI=1S/C18H28N2O3/c1-11(2)16(20-18(22)23-12(3)4)17(21)19-14(6)15-9-7-13(5)8-10-15/h7-12,14,16H,1-6H3,(H,19,21)(H,20,22)
Instrument: TripleTOF 6600 SCIEX
Instrument type: LC-ESI-QTOF
Ms type: MS2
Ion mode: POSITIVE
Collision energy: 150
Fragmentation mode: CID
Ionization: ESI
Column name: Zorbax Eclipse Plus C18 2.1 mm x 150 mm, 3.5 um, Agilent
Retention time: 11.936 min
Precursor m/z: 321.2173
Precursor type: [M+H]+
m/z	relative intensity
35.9994	26
37.0074	98
38.0156	89
39.0234	468
41.0386	57
42.034	31
49.0074	80
50.0154	486
51.0235	999
52.0312	80
53.0387	17
56.0488	26
57.0575	17
61.0078	62
62.0152	129
63.0232	196
65.0391	472
74.0156	49
75.0231	53
76.0314	53
77.039	655
78.0467	182
89.0385	44
91.0547	165
102.0463	49
103.0549	138
105.0466	17
115.0546	75
