Mass spectrum: Spirodiclofen-enol; LC-ESI-QTOF; MS2; 70 V
Name: Spirodiclofen-enol
Formula: C15H14Cl2O3
Exact mass: 312.032
SMILES: C1CCC2(CC1)C(=C(C(=O)O2)C3=C(C=C(C=C3)Cl)Cl)O
InChI: InChI=1S/C15H14Cl2O3/c16-9-4-5-10(11(17)8-9)12-13(18)15(20-14(12)19)6-2-1-3-7-15/h4-5,8,18H,1-3,6-7H2
Instrument: TripleTOF 6600 SCIEX
Instrument type: LC-ESI-QTOF
Ms type: MS2
Ion mode: POSITIVE
Collision energy: 70
Fragmentation mode: CID
Ionization: ESI
Column name: Zorbax Eclipse Plus C18 2.1 mm x 150 mm, 3.5 um, Agilent
Retention time: 12.261 min
Precursor m/z: 313.0393
Precursor type: [M+H]+
m/z	relative intensity
67.0543	12
72.9835	48
74.014	13
75.0222	40
77.0379	24
79.0538	14
82.9438	12
87.0219	13
89.039	33
96.9831	44
98.999	12
106.9441	47
108.982	14
110.9992	79
115.0536	47
121.9909	32
122.9992	65
124.0056	14
128.0604	11
136.0062	26
139.0025	38
139.0537	14
141.0691	14
144.959	10
148.0064	12
149.0144	17
151.0531	13
152.0611	44
153.0681	15
156.9602	999
158.975	117
162.0217	24
165.0687	43
172.9607	15
176.0604	10
177.0682	13
178.077	154
179.0848	33
182.9748	29
184.9561	13
186.0229	10
199.0291	16
