Mass spectrum: 2,3,5-Trimethylpyrazine; LC-ESI-QTOF; MS2; 10 V
Name: 2,3,5-Trimethylpyrazine
Formula: C7H10N2
Exact mass: 122.0844
SMILES: N=1C=C(N=C(C1C)C)C
InChI: InChI=1S/C7H10N2/c1-5-4-8-6(2)7(3)9-5/h4H,1-3H3
Instrument: TripleTOF X500R SCIEX
Instrument type: LC-ESI-QTOF
Ms type: MS2
Ion mode: POSITIVE
Collision energy: 10
Fragmentation mode: CID
Ionization: ESI
Column name: Zorbax Eclipse Plus C18 2.1 mm x 150 mm, 3.5 um, Agilent
Retention time: 5.574 min
Precursor m/z: 123.0917
Precursor type: [M+H]+
m/z	relative intensity
123.0913	999
