Mass spectrum: Dipyridamole; LC-ESI-QTOF; MS2; 120 V
Name: Dipyridamole
Class: Pharmaceutical
Formula: C24H40N8O4
Exact mass: 504.3173
SMILES: OCCN(CCO)c1nc(N2CCCCC2)c3nc(nc(N4CCCCC4)c3n1)N(CCO)CCO
InChI: InChI=1S/C24H40N8O4/c33-15-11-31(12-16-34)23-26-20-19(21(27-23)29-7-3-1-4-8-29)25-24(32(13-17-35)14-18-36)28-22(20)30-9-5-2-6-10-30/h33-36H,1-18H2
Instrument: TripleTOF 5600 SCIEX
Instrument type: LC-ESI-QTOF
Ms type: MS2
Ion mode: POSITIVE
Collision energy: 120
Fragmentation mode: CID
Ionization: ESI
Column name: Zorbax Eclipse Plus C18 2.1 mm x 150 mm, 3.5 um, Agilent
Retention time: 7.666 min
Precursor m/z: 505.3245
Precursor type: [M+H]+
m/z	relative intensity
56.0535	77
67.0572	64
68.0521	51
69.0488	64
70.0705	129
77.0158	64
79.032	90
80.0526	90
81.0468	103
82.0656	90
84.0824	207
86.099	64
87.059	64
91.0303	116
92.0258	64
92.0494	103
93.0453	116
94.0411	207
94.0616	51
95.0607	64
103.03	64
104.0428	116
105.0436	142
106.0413	376
107.0459	77
107.0593	77
108.0557	155
109.0538	77
117.0454	77
118.0404	363
119.0372	311
119.06	90
120.0426	51
120.0556	233
121.0505	298
122.0578	129
122.0668	103
129.0457	77
130.0397	142
131.0361	168
131.0595	64
132.0434	116
132.0554	363
133.0506	739
133.0745	64
134.0494	570
134.0732	77
135.0553	129
135.0672	246
136.065	116
142.0564	64
143.0361	90
143.0561	116
144.0561	142
145.0501	518
146.051	389
146.0695	103
147.065	609
148.0604	415
148.0833	90
149.07	116
156.0551	155
157.0518	285
158.0467	428
158.0718	103
159.0434	103
159.0624	557
160.0614	999
160.0859	77
161.0606	622
161.0809	142
162.0774	363
163.0732	246
164.0797	103
168.054	64
169.0506	116
170.0471	103
170.0677	142
171.0655	272
172.0631	596
172.0865	90
173.0653	726
174.0768	596
175.074	544
176.0818	363
177.0732	90
177.0882	142
178.079	51
182.0711	64
183.0658	142
184.0599	389
185.0576	454
186.076	804
187.0736	921
187.095	103
188.0855	493
189.0879	661
189.1116	90
190.0842	220
191.0924	103
195.0694	77
196.0658	142
197.0727	233
198.0773	324
199.0737	752
200.0706	298
200.088	415
201.0883	739
202.084	661
202.1102	77
203.1049	103
204.0986	246
209.0739	103
210.0782	220
211.073	272
211.0917	90
212.0669	90
212.0905	298
213.0884	661
214.083	415
214.1077	129
215.1025	441
216.0998	480
217.092	194
217.114	129
218.1038	90
219.1043	77
222.0814	64
223.0732	51
223.0851	64
224.0903	246
225.0888	207
226.0871	402
227.1028	389
228.1012	467
229.0908	77
229.1183	272
230.1155	103
231.1084	142
231.1349	90
232.1221	64
233.1174	90
235.0914	51
236.0916	64
237.0891	51
238.085	64
238.106	90
239.0921	103
239.1072	155
240.0988	246
241.098	64
241.116	246
242.1154	311
243.1112	142
243.1345	155
244.1291	90
245.1225	207
246.1077	51
247.1359	64
250.1092	51
251.1079	129
252.101	142
253.1191	168
254.1161	181
255.1118	129
255.1356	168
256.1338	90
257.118	64
258.1151	64
260.1279	51
266.1026	64
266.1214	64
267.112	116
269.1209	103
270.1444	77
271.1394	77
272.1274	116
273.1413	64
278.1134	77
280.1351	51
284.1663	103
295.1436	77
296.1632	77
298.1419	77
299.1643	77
