Mass spectrum: Metalaxyl; LC-ESI-QTOF; MS2; 100 V
Name: Metalaxyl
Class: Fungicide
Formula: C15H21NO4
Exact mass: 279.1471
SMILES: CC1=C(C(=CC=C1)C)N(C(C)C(=O)OC)C(=O)COC
InChI: InChI=1S/C15H21NO4/c1-10-7-6-8-11(2)14(10)16(13(17)9-19-4)12(3)15(18)20-5/h6-8,12H,9H2,1-5H3
Instrument: TripleTOF 6600 SCIEX
Instrument type: LC-ESI-QTOF
Ms type: MS2
Ion mode: POSITIVE
Collision energy: 100
Fragmentation mode: CID
Ionization: ESI
Column name: Zorbax Eclipse Plus C18 2.1 mm x 150 mm, 3.5 um, Agilent
Retention time: 10.17 min
Precursor m/z: 280.1543
Precursor type: [M+H]+
m/z	relative intensity
39.0231	60
45.0337	306
49.007	37
50.0151	111
51.0228	371
63.0229	60
64.0298	18
65.0384	302
77.0385	999
78.0456	65
79.0544	190
80.0498	32
89.038	315
90.0459	283
91.0538	478
93.0572	27
102.0458	55
103.0543	260
104.0503	41
105.0428	32
105.0693	125
106.0646	83
115.054	260
116.0532	37
117.057	631
118.0649	92
119.0741	23
120.0803	32
128.0489	41
129.0574	18
130.0653	306
131.0723	18
132.0806	60
134.096	23
142.0639	55
143.0722	88
144.0805	148
148.0758	37
