Mass spectrum: Rifaximin; LC-ESI-QTOF; MS2; 120 V
Name: Rifaximin
Class: Pharmaceutical
Formula: C43H51N3O11
Exact mass: 785.3524
SMILES: CC1C=CC=C(C(=O)NC2=C(C3=C(C4=C(C(=C3O)C)OC(C4=O)(OC=CC(C(C(C(C(C(C1O)C)O)C)OC(=O)C)C)OC)C)C5=C2N6C=CC(=CC6=N5)C)O)C
InChI: InChI=1S/C43H51N3O11/c1-19-14-16-46-28(18-19)44-32-29-30-37(50)25(7)40-31(29)41(52)43(9,57-40)55-17-15-27(54-10)22(4)39(56-26(8)47)24(6)36(49)23(5)35(48)20(2)12-11-13-21(3)42(53)45-33(34(32)46)38(30)51/h11-18,20,22-24,27,35-36,39,48-51H,1-10H3,(H,45,53)
Instrument: TripleTOF 6600 SCIEX
Instrument type: LC-ESI-QTOF
Ms type: MS2
Ion mode: NEGATIVE
Collision energy: 120
Fragmentation mode: CID
Ionization: ESI
Column name: Zorbax Eclipse Plus C18 2.1 mm x 150 mm, 3.5 um, Agilent
Retention time: 11.765 min
Precursor m/z: 784.3451
Precursor type: [M-H]-
m/z	relative intensity
59.0115	43
108.0418	14
121.0628	19
123.0782	18
136.0729	16
155.0341	12
156.0518	19
171.0414	10
224.0323	10
232.0845	14
233.0661	16
233.0929	16
234.0764	14
235.0789	48
241.0573	23
244.0561	10
246.073	16
247.0852	36
248.0805	28
249.0683	21
249.0868	72
250.0941	46
251.0416	10
258.1009	23
259.0833	34
260.076	23
260.0934	12
261.0636	12
261.0871	73
262.0702	82
262.0945	79
263.0694	129
267.0345	12
271.0823	14
272.0759	18
273.0909	36
274.0682	25
275.0766	59
276.0849	297
277.0559	23
277.0831	400
278.0621	16
278.0876	64
279.0742	14
280.0456	23
284.0784	10
285.0897	25
286.0936	82
287.074	55
288.0729	64
288.1084	30
289.058	18
289.0831	115
290.0628	21
290.0899	142
291.0713	19
291.0969	82
292.0824	18
292.1045	27
293.0865	19
298.092	21
299.0788	23
300.0751	48
301.0523	16
301.0876	77
302.0643	21
302.0875	54
303.073	45
303.0962	21
304.0701	72
304.1045	254
305.0854	158
306.0831	302
307.0914	32
308.0971	27
312.0711	12
313.0829	27
314.0867	108
315.0734	144
316.069	180
316.1049	23
317.0754	137
318.0847	77
319.0636	32
319.1015	133
320.0969	28
325.089	10
326.0924	10
327.0699	19
328.0714	28
328.1018	19
329.0863	81
330.0836	842
331.0672	95
331.0904	75
332.0991	474
333.084	203
334.0771	124
334.113	45
340.0654	12
341.0781	18
342.08	43
342.1225	12
343.065	45
343.0924	88
344.0725	86
344.0999	25
345.0809	232
346.0768	72
346.093	21
346.1122	18
347.0987	346
352.1011	14
353.1108	19
354.0839	19
354.1131	14
356.0997	39
357.0806	14
357.1125	14
358.0767	210
358.1137	32
359.0866	405
360.0591	12
360.094	999
361.1026	50
362.1089	113
364.0991	10
364.1389	12
367.0987	25
367.1318	12
368.096	10
369.0811	27
369.1105	14
370.0783	27
370.1127	36
371.0967	48
372.0926	57
373.0983	34
374.1046	23
380.1013	18
382.0857	10
382.1127	14
383.0966	12
383.1179	28
385.1109	23
386.0739	72
386.1094	14
388.0883	36
392.1005	12
393.1059	12
394.1134	16
395.1197	18
396.1003	10
397.1076	21
408.1031	21
408.1279	16
409.1059	36
410.1087	37
410.147	18
421.1133	18
423.118	25
424.1221	16
426.1044	10
426.1392	12
436.1225	18
438.108	23
439.1244	14
440.1146	10
452.1163	14
454.1319	41
454.1556	10
464.1121	10
466.1336	18
