Mass spectrum: Rifaximin; LC-ESI-QTOF; MS2; 80 V
Name: Rifaximin
Class: Pharmaceutical
Formula: C43H51N3O11
Exact mass: 785.3524
SMILES: CC1C=CC=C(C(=O)NC2=C(C3=C(C4=C(C(=C3O)C)OC(C4=O)(OC=CC(C(C(C(C(C(C1O)C)O)C)OC(=O)C)C)OC)C)C5=C2N6C=CC(=CC6=N5)C)O)C
InChI: InChI=1S/C43H51N3O11/c1-19-14-16-46-28(18-19)44-32-29-30-37(50)25(7)40-31(29)41(52)43(9,57-40)55-17-15-27(54-10)22(4)39(56-26(8)47)24(6)36(49)23(5)35(48)20(2)12-11-13-21(3)42(53)45-33(34(32)46)38(30)51/h11-18,20,22-24,27,35-36,39,48-51H,1-10H3,(H,45,53)
Instrument: TripleTOF 6600 SCIEX
Instrument type: LC-ESI-QTOF
Ms type: MS2
Ion mode: POSITIVE
Collision energy: 80
Fragmentation mode: CID
Ionization: ESI
Column name: Zorbax Eclipse Plus C18 2.1 mm x 150 mm, 3.5 um, Agilent
Retention time: 11.765 min
Precursor m/z: 786.3597
Precursor type: [M+H]+
m/z	relative intensity
41.0382	38
43.0171	79
55.0528	36
57.0328	23
65.0373	25
67.0532	146
69.0323	51
69.069	54
71.048	15
77.0373	74
79.0534	105
81.0688	102
83.0485	30
83.0845	10
85.0637	33
87.0432	20
91.0533	208
93.0686	229
95.0484	175
95.0844	612
96.0885	10
97.0277	25
97.0636	105
97.1005	12
99.0799	15
103.0529	30
105.0688	270
107.0492	23
107.0851	435
108.0556	25
109.0638	249
109.1	84
111.0427	15
111.0795	69
113.059	20
115.0536	25
116.0615	12
117.0688	72
119.0845	180
121.0639	110
121.0998	126
122.071	12
123.0798	460
123.1147	36
125.0581	12
125.0944	59
128.061	28
129.0695	28
130.0771	59
131.0849	59
133.0644	66
133.1004	167
135.0796	247
135.1155	84
137.058	15
137.0953	56
137.1324	28
139.0755	10
139.1112	18
141.0693	12
142.0761	38
143.0838	69
144.0932	23
145.0643	23
145.1003	272
146.0717	23
147.0794	41
147.1159	131
148.087	15
149.0582	12
149.0951	56
149.1307	18
151.0748	272
151.1116	43
153.0903	46
155.0853	30
156.0928	23
157.1002	79
158.0716	15
158.1077	25
159.0797	36
159.1165	64
160.0865	28
161.0953	139
161.1322	25
163.1119	476
165.0699	12
165.1265	15
169.0992	15
170.1078	30
171.116	51
172.0876	23
172.1231	10
173.0952	72
173.1314	72
174.102	10
175.1118	90
175.1473	25
177.0901	43
179.0856	20
179.1062	41
180.0926	15
181.101	20
183.116	23
184.1222	18
185.0969	30
185.1324	64
186.1044	18
187.1114	12
187.1486	12
189.1281	15
191.1062	72
193.1	20
195.1161	30
197.1288	15
199.1106	23
199.1457	12
201.1266	48
203.1414	23
208.1224	12
209.0937	12
209.1321	23
211.1123	12
213.1279	28
221.1343	18
223.1129	12
231.1382	12
237.1268	20
246.1379	10
248.1035	18
249.0979	12
276.0864	20
277.0991	33
279.1099	18
290.0941	23
291.1076	59
292.1098	20
301.1	30
305.0911	36
306.1234	28
307.1062	10
316.1088	28
317.0945	23
318.0929	18
319.1118	72
320.1025	28
329.1	12
331.1041	20
332.1025	51
333.0932	10
334.1187	82
335.0996	10
335.1273	18
344.1037	74
345.089	46
346.0962	151
347.1036	360
348.1096	159
349.113	33
357.1216	15
358.1102	46
359.1167	51
360.1018	118
360.1344	25
361.1053	205
362.115	999
363.1214	136
368.141	12
369.14	20
370.1213	15
372.1007	56
373.1097	33
374.1117	10
384.1496	12
385.1021	10
386.1146	12
387.1269	20
388.0937	23
390.1155	25
394.1542	10
396.1369	12
398.1173	25
398.157	12
399.1247	41
400.1276	61
401.1386	33
410.1455	18
411.1333	12
411.1575	18
412.1293	30
413.1394	18
414.1422	10
422.1721	12
424.1285	15
425.1377	18
426.1466	33
427.1536	20
432.1282	12
432.1554	10
433.1409	23
434.1545	15
436.1291	51
438.1455	69
439.156	56
440.1693	18
441.1707	15
443.1598	12
446.1517	41
447.1589	12
448.131	18
448.1659	79
449.1704	33
450.1473	100
450.1788	20
451.1542	41
452.1622	100
453.1591	18
454.1718	10
456.1595	10
462.1471	20
463.1519	10
463.1883	10
464.1598	41
464.1956	23
465.1728	33
466.1801	247
467.1844	90
468.1568	10
468.1944	90
478.1769	38
480.1566	12
480.1976	12
482.1715	12
490.1786	10
492.1945	20
494.174	72
495.1829	69
496.1887	56
504.1924	15
506.2085	20
510.2022	12
518.2104	15
538.2025	28
658.2916	23
676.302	15
