Mass spectrum: Acridone; LC-ESI-QTOF; MS2; 130 V
Name: Acridone
Class: Metabolite; Pharmaceutical; Transformation_product
Formula: C13H9NO
Exact mass: 195.0684
SMILES: O=C1c2ccccc2Nc3ccccc13
InChI: InChI=1S/C13H9NO/c15-13-9-5-1-3-7-11(9)14-12-8-4-2-6-10(12)13/h1-8H,(H,14,15)
Instrument: TripleTOF 5600 SCIEX
Instrument type: LC-ESI-QTOF
Ms type: MS2
Ion mode: POSITIVE
Collision energy: 130
Fragmentation mode: CID
Ionization: ESI
Column name: Zorbax Eclipse Plus C18 2.1 mm x 150 mm, 3.5 um, Agilent
Retention time: 8.5 min
Precursor m/z: 196.0757
Precursor type: [M+H]+
m/z	relative intensity
52.0236	82
60.0048	208
65.0424	49
73.011	241
74.0184	999
74.0462	32
75.0131	49
75.0258	230
76.021	27
76.0315	21
84.0015	82
85.0095	521
86.0171	856
87.0125	60
87.0252	378
87.0441	27
88.0194	43
88.0333	76
89.0412	252
97.008	98
98.0159	378
99.0112	49
99.0209	43
109.0077	109
110.0157	104
111.0097	21
111.0241	60
113.0391	137
122.0155	21
137.0383	54
139.0557	43
