Mass spectrum: Triamterene; LC-ESI-QTOF; MS2; 90 V
Name: Triamterene
Class: Pharmaceutical
Formula: C12H11N7
Exact mass: 253.1076
SMILES: C1=CC=C(C=C1)C2=NC3=C(N=C2N)N=C(N=C3N)N
InChI: InChI=1S/C12H11N7/c13-9-7(6-4-2-1-3-5-6)16-8-10(14)18-12(15)19-11(8)17-9/h1-5H,(H6,13,14,15,17,18,19)
Instrument: TripleTOF 5600 SCIEX
Instrument type: LC-ESI-QTOF
Ms type: MS2
Ion mode: POSITIVE
Collision energy: 90
Fragmentation mode: CID
Ionization: ESI
Column name: Zorbax Eclipse Plus C18 2.1 mm x 150 mm, 3.5 um, Agilent
Retention time: 5.203 min
Precursor m/z: 254.1149
Precursor type: [M+H]+
m/z	relative intensity
38.0166	14
43.0416	36
43.0532	9
53.0232	73
55.0377	23
65.0204	167
65.0447	16
67.0361	16
68.0314	23
74.022	16
75.0266	31
76.0355	121
77.0441	931
79.059	78
80.0289	33
87.0276	23
88.0212	84
89.0422	999
90.0142	49
90.0363	40
90.0474	53
91.0559	18
92.0281	78
100.0199	14
102.0357	34
103.0437	113
104.0516	455
114.0351	271
115.0429	143
116.0511	207
117.0584	36
128.0366	11
129.0428	25
131.0603	20
139.0292	33
141.0455	190
142.0528	99
