Mass spectrum: Disperse Orange 37; LC-ESI-QTOF; MS2; 60 V
Name: Disperse Orange 37
Formula: C17H15Cl2N5O2
Exact mass: 391.0603
SMILES: CCN(CCC#N)C1=CC=C(C=C1)N=NC2=C(C=C(C=C2Cl)[N+](=O)[O-])Cl
InChI: InChI=1S/C17H15Cl2N5O2/c1-2-23(9-3-8-20)13-6-4-12(5-7-13)21-22-17-15(18)10-14(24(25)26)11-16(17)19/h4-7,10-11H,2-3,9H2,1H3
Instrument: TripleTOF X500R SCIEX
Instrument type: LC-ESI-QTOF
Ms type: MS2
Ion mode: POSITIVE
Collision energy: 60
Fragmentation mode: CID
Ionization: ESI
Column name: Zorbax Eclipse Plus C18 2.1 mm x 150 mm, 3.5 um, Agilent
Retention time: 15.169 min
Precursor m/z: 392.0676
Precursor type: [M+H]+
m/z	relative intensity
65.039	42
77.0394	46
78.0356	17
79.0557	24
91.0545	109
92.0496	194
93.0596	17
93.069	28
96.9855	35
97.98	28
103.0548	60
104.05	329
105.0576	612
106.0658	92
106.9458	106
107.0738	17
107.9768	38
108.9845	123
109.9801	63
116.0504	14
117.0574	46
118.0645	187
119.0609	255
120.0809	212
128.0499	38
131.0615	81
132.0654	42
132.0818	77
133.0893	999
134.0969	113
142.9453	265
143.9529	464
144.0686	14
144.9485	28
145.0762	123
147.0922	283
151.0531	21
152.063	14
158.0717	24
159.095	17
159.9488	95
171.9594	46
172.0855	63
178.0647	67
179.0624	24
186.0239	38
186.1035	14
189.9463	255
214.0431	88
217.954	74
242.0746	53
249.0054	35
271.0879	31
277.0173	382
277.0625	17
305.0484	212
317.0825	31
323.0104	194
351.0426	38
