Mass spectrum: Aspartame; LC-ESI-QTOF; MS2; 120 V
Name: Aspartame
Class: Food_additive
Formula: C14H18N2O5
Exact mass: 294.1216
SMILES: COC(=O)C(Cc1ccccc1)NC(=O)C(N)CC(O)=O
InChI: InChI=1S/C14H18N2O5/c1-21-14(20)11(7-9-5-3-2-4-6-9)16-13(19)10(15)8-12(17)18/h2-6,10-11H,7-8,15H2,1H3,(H,16,19)(H,17,18)
Instrument: TripleTOF 5600 SCIEX
Instrument type: LC-ESI-QTOF
Ms type: MS2
Ion mode: POSITIVE
Collision energy: 120
Fragmentation mode: CID
Ionization: ESI
Column name: Zorbax Eclipse Plus C18 2.1 mm x 150 mm, 3.5 um, Agilent
Retention time: 5.761 min
Precursor m/z: 295.1288
Precursor type: [M+H]+
m/z	relative intensity
42.0415	11
43.0271	79
46.0357	14
65.0425	203
70.0323	46
75.0256	16
76.0331	12
77.0418	999
78.0484	22
80.0539	11
89.0382	9
91.0559	308
102.0474	44
103.0542	186
105.0341	29
115.055	12
118.0665	18
120.0807	20
