Mass spectrum: Enilconazole; LC-ESI-QTOF; MS2; 50 V
Name: Enilconazole
Class: Pharmaceutical; Fungicide
Formula: C14H14Cl2N2O
Exact mass: 296.0483
SMILES: Clc1ccc(C(Cn2ccnc2)OCC=C)c(Cl)c1
InChI: InChI=1S/C14H14Cl2N2O/c1-2-7-19-14(9-18-6-5-17-10-18)12-4-3-11(15)8-13(12)16/h2-6,8,10,14H,1,7,9H2
Instrument: TripleTOF 5600 SCIEX
Instrument type: LC-ESI-QTOF
Ms type: MS2
Ion mode: POSITIVE
Collision energy: 50
Fragmentation mode: CID
Ionization: ESI
Column name: Zorbax Eclipse Plus C18 2.1 mm x 150 mm, 3.5 um, Agilent
Retention time: 8.159 min
Precursor m/z: 297.0556
Precursor type: [M+H]+
m/z	relative intensity
69.0478	212
80.0498	17
81.0459	122
82.0545	17
82.0678	22
89.04	17
102.0467	32
103.0544	22
109.076	15
115.0519	15
122.9978	90
124.0066	25
129.0694	40
137.0138	32
138.0214	32
139.0521	15
141.0688	137
149.0142	25
150.0226	32
158.9758	999
164.0397	22
172.9903	125
175.0302	15
176.0378	55
182.9763	12
255.0046	15
