Mass spectrum: Benzotriazole; LC-ESI-QTOF; MS2; 50 V
Name: Benzotriazole
Class: Industrial_process; Industrial_process; Industrial_process; Antimicrobial; Personal_care_product
Formula: C6H5N3
Exact mass: 119.0483
SMILES: C1=CC2=NNN=C2C=C1
InChI: InChI=1S/C6H5N3/c1-2-4-6-5(3-1)7-9-8-6/h1-4H,(H,7,8,9)
Instrument: TripleTOF 6600 SCIEX
Instrument type: LC-ESI-QTOF
Ms type: CID
Ion mode: POSITIVE
Collision energy: 50
Ionization: ESI
Column name: Zorbax Eclipse Plus C18 2.1 mm x 150 mm, 3.5 um, Agilent
Retention time: 5.876 min
Precursor m/z: 120.0556
Precursor type: [M+H]+
m/z	relative intensity
35.9997	40
37.0073	216
38.0032	11
38.0152	200
39.0232	999
40.0184	28
42.0333	13
43.029	27
49.0068	13
50.015	59
51.0228	71
52.0184	50
62.0155	23
63.023	57
64.0188	15
64.0304	25
65.0384	362
66.034	30
76.0184	13
91.0397	13
92.0512	9
