Mass spectrum: 4-Bromoantipyrine; LC-ESI-QTOF; MS2; 50 V
Name: 4-Bromoantipyrine
Class: Industrial_process
Formula: C11H11BrN2O
Exact mass: 266.0055
SMILES: CC1=C(C(=O)N(N1C)C2=CC=CC=C2)Br
InChI: InChI=1S/C11H11BrN2O/c1-8-10(12)11(15)14(13(8)2)9-6-4-3-5-7-9/h3-7H,1-2H3
Instrument: TripleTOF 6600 SCIEX
Instrument type: LC-ESI-QTOF
Ms type: MS2
Ion mode: POSITIVE
Collision energy: 50
Fragmentation mode: CID
Ionization: ESI
Column name: Zorbax Eclipse Plus C18 2.1 mm x 150 mm, 3.5 um, Agilent
Retention time: 7.678 min
Precursor m/z: 267.0128
Precursor type: [M+H]+
m/z	relative intensity
42.0334	34
54.0327	37
56.0483	999
65.0378	65
68.0475	43
69.0549	15
77.0364	194
78.0433	18
91.0517	21
92.0463	31
95.0588	56
102.0453	18
103.0396	18
103.0512	21
104.0464	62
104.9298	25
106.0624	18
115.051	53
118.0625	106
128.0457	75
129.0536	78
130.0614	56
131.0571	21
132.076	15
135.9722	929
142.0615	34
143.0693	12
144.0777	56
145.0715	100
146.0557	37
147.0879	62
156.0407	18
159.087	62
173.0663	65
173.9747	25
175.9657	25
187.0823	81
188.0902	15
251.9834	15
