Mass spectrum: Cyprodinil; LC-ESI-QTOF; MS2; 140 V
Name: Cyprodinil
Class: Fungicide
Formula: C14H15N3
Exact mass: 225.1266
SMILES: CC1=CC(=NC(=N1)NC2=CC=CC=C2)C3CC3
InChI: InChI=1S/C14H15N3/c1-10-9-13(11-7-8-11)17-14(15-10)16-12-5-3-2-4-6-12/h2-6,9,11H,7-8H2,1H3,(H,15,16,17)
Instrument: TripleTOF 6600 SCIEX
Instrument type: LC-ESI-QTOF
Ms type: MS2
Ion mode: POSITIVE
Collision energy: 140
Fragmentation mode: CID
Ionization: ESI
Column name: Zorbax Eclipse Plus C18 2.1 mm x 150 mm, 3.5 um, Agilent
Retention time: 10.83 min
Precursor m/z: 226.1339
Precursor type: [M+H]+
m/z	relative intensity
35.9995	47
37.0072	192
38.0029	21
38.0151	184
39.0231	429
40.0179	23
41.0259	42
41.0385	15
42.0336	110
49.0071	255
50.0152	999
51.0123	21
51.0228	624
52.0183	65
52.0303	15
53.0124	13
53.0382	21
54.0331	23
59.9999	10
61.0072	89
62.0149	139
63.0227	147
64.0183	15
65.0269	15
65.0387	73
66.0339	18
66.0461	15
73.007	28
74.0148	126
75.0101	21
75.023	31
76.017	28
77.0387	42
80.0483	15
86.0159	23
87.023	15
89.0374	15
91.0421	10
98.0161	13
