Mass spectrum: 3-Dimethylaminophenol; LC-ESI-QTOF; MS2; 10 V
Name: 3-Dimethylaminophenol
Formula: C8H11NO
Exact mass: 137.0841
SMILES: CN(C)C1=CC(=CC=C1)O
InChI: InChI=1S/C8H11NO/c1-9(2)7-4-3-5-8(10)6-7/h3-6,10H,1-2H3
Instrument: TripleTOF 6600 SCIEX
Instrument type: LC-ESI-QTOF
Ms type: MS2
Ion mode: POSITIVE
Collision energy: 10
Fragmentation mode: CID
Ionization: ESI
Column name: Zorbax Eclipse Plus C18 2.1 mm x 150 mm, 3.5 um, Agilent
Retention time: 4.073 min
Precursor m/z: 138.0914
Precursor type: [M+H]+
m/z	relative intensity
123.0669	17
138.0909	999
