Mass spectrum: Abacavir; LC-ESI-QTOF; MS2; 150 V
Name: Abacavir
Class: Pharmaceutical
Formula: C14H18N6O
Exact mass: 286.1542
SMILES: Nc1nc(NC2CC2)c3ncn([C@@H]4C[C@H](CO)C=C4)c3n1
InChI: InChI=1S/C14H18N6O/c15-14-18-12(17-9-2-3-9)11-13(19-14)20(7-16-11)10-4-1-8(5-10)6-21/h1,4,7-10,21H,2-3,5-6H2,(H3,15,17,18,19)/t8-,10+/m1/s1
Instrument: TripleTOF 5600 SCIEX
Instrument type: LC-ESI-QTOF
Ms type: MS2
Ion mode: POSITIVE
Collision energy: 150
Fragmentation mode: CID
Ionization: ESI
Column name: Zorbax Eclipse Plus C18 2.1 mm x 150 mm, 3.5 um, Agilent
Retention time: 5.094 min
Precursor m/z: 287.1615
Precursor type: [M+H]+
m/z	relative intensity
38.0109	21
40.0274	52
42.0421	62
43.0389	127
43.0581	24
52.0236	58
52.0369	12
53.0188	241
53.043	24
54.0275	80
55.0353	71
56.0544	18
65.0182	198
65.0425	108
66.025	74
66.0487	15
67.0314	34
67.0457	12
67.058	201
68.0279	158
68.0416	12
74.0223	24
76.0228	21
77.0416	999
77.0764	21
78.0477	21
79.0559	68
80.0273	27
92.0252	21
109.0499	12
