Mass spectrum: Clindamycin sulfoxide; LC-ESI-QTOF; MS2; 100 V
Name: Clindamycin sulfoxide
Class: Pharmaceutical; Metabolite
Formula: C18H33ClN2O6S
Exact mass: 440.1748
InChI: InChI=1S/C18H33ClN2O6S/c1-5-6-10-7-11(21(3)8-10)17(25)20-12(9(2)19)16-14(23)13(22)15(24)18(27-16)28(4)26/h9-16,18,22-24H,5-8H2,1-4H3,(H,20,25)/t9?,10?,11-,12?,13-,14-,15?,16?,18-,28?/m1/s1
Instrument: TripleTOF 5600 SCIEX
Instrument type: LC-ESI-QTOF
Ms type: CID
Ion mode: POSITIVE
Collision energy: 100
Ionization: ESI
Column name: Zorbax Eclipse Plus C18 2.1 mm x 150 mm, 3.5 um, Agilent
Retention time: 5.586 min
Precursor m/z: 441.1821
Precursor type: [M+H]+
m/z	relative intensity
42.0422	69
44.0588	13
55.0587	28
58.0693	19
58.0799	10
67.0569	26
68.0531	84
69.0722	97
70.0682	160
82.0668	228
83.0754	147
84.0832	39
95.086	15
96.0815	30
97.0885	15
124.1102	34
126.1277	999
