Mass spectrum: Tadalafil; LC-ESI-QTOF; MS2; 50 V
Name: Tadalafil
Class: Pharmaceutical; Personal_care_product
Formula: C22H19N3O4
Exact mass: 389.1376
SMILES: CN1CC(=O)N2C(C1=O)CC3=C(C2C4=CC5=C(C=C4)OCO5)NC6=CC=CC=C36
InChI: InChI=1S/C22H19N3O4/c1-24-10-19(26)25-16(22(24)27)9-14-13-4-2-3-5-15(13)23-20(14)21(25)12-6-7-17-18(8-12)29-11-28-17/h2-8,16,21,23H,9-11H2,1H3
Instrument: TripleTOF 5600 SCIEX
Instrument type: LC-ESI-QTOF
Ms type: MS2
Ion mode: POSITIVE
Collision energy: 50
Fragmentation mode: CID
Ionization: ESI
Column name: Zorbax Eclipse Plus C18 2.1 mm x 150 mm, 3.5 um, Agilent
Retention time: 9.801 min
Precursor m/z: 390.1448
Precursor type: [M+H]+
m/z	relative intensity
77.0384	41
79.0542	26
99.0537	35
105.0335	17
115.0554	35
130.0669	64
135.0444	646
142.0661	41
154.0691	23
165.0675	20
167.0598	23
167.0697	11
168.0708	11
169.0761	987
170.0587	73
183.0906	11
189.071	29
191.0737	41
192.0795	58
193.0855	26
195.0662	17
197.0696	249
204.0824	534
205.0895	434
206.0983	108
214.0572	14
215.0743	11
216.081	120
217.0898	41
218.1035	20
220.0763	52
232.0769	364
233.0825	211
234.094	52
240.1165	158
244.0776	52
246.092	14
250.0846	76
261.0692	14
261.081	26
262.0877	999
263.0967	64
264.103	96
268.1092	47
272.0677	23
274.0876	387
302.0802	67
