Mass spectrum: 3-Methylxanthine; LC-ESI-QTOF; MS2; 50 V
Name: 3-Methylxanthine
Class: Pharmaceutical
Formula: C6H6N4O2
Exact mass: 166.0491
SMILES: CN1C(=O)NC(=O)c2[nH]cnc12
InChI: InChI=1S/C6H6N4O2/c1-10-4-3(7-2-8-4)5(11)9-6(10)12/h2H,1H3,(H,7,8)(H,9,11,12)
Instrument: TripleTOF 5600 SCIEX
Instrument type: LC-ESI-QTOF
Ms type: MS2
Ion mode: NEGATIVE
Collision energy: 50
Fragmentation mode: CID
Ionization: ESI
Column name: Zorbax Eclipse Plus C18 2.1 mm x 150 mm, 3.5 um, Agilent
Retention time: 4.502 min
Precursor m/z: 165.0418
Precursor type: [M-H]-
m/z	relative intensity
38.0077	141
42.0016	931
55.0318	67
65.0149	61
65.9991	999
67.0311	129
79.0174	407
92.0259	135
94.0407	370
122.0364	135
150.0182	67
