Mass spectrum: Febantel; LC-ESI-QTOF; MS2; 90 V
Name: Febantel
Class: Pharmaceutical
Formula: C20H22N4O6S
Exact mass: 446.126
SMILES: COCC(=O)Nc1cc(Sc2ccccc2)ccc1NC(NC(=O)OC)=NC(=O)OC
InChI: InChI=1S/C20H22N4O6S/c1-28-12-17(25)21-16-11-14(31-13-7-5-4-6-8-13)9-10-15(16)22-18(23-19(26)29-2)24-20(27)30-3/h4-11H,12H2,1-3H3,(H,21,25)(H2,22,23,24,26,27)
Instrument: TripleTOF 5600 SCIEX
Instrument type: LC-ESI-QTOF
Ms type: MS2
Ion mode: POSITIVE
Collision energy: 90
Fragmentation mode: CID
Ionization: ESI
Column name: Zorbax Eclipse Plus C18 2.1 mm x 150 mm, 3.5 um, Agilent
Retention time: 13.085 min
Precursor m/z: 447.1333
Precursor type: [M+H]+
m/z	relative intensity
45.0422	327
45.0676	12
56.0199	12
64.0358	10
65.0299	12
65.043	233
68.9837	44
69.0131	21
76.022	10
76.0352	10
77.0287	21
77.0416	66
78.0362	17
78.048	64
79.0459	17
83.0266	126
88.0203	23
89.0274	27
90.0367	49
91.0428	115
93.0586	36
94.9954	10
101.028	21
102.0353	27
103.0286	27
103.0417	55
104.0378	188
105.0456	72
106.0536	38
108.0042	17
109.0115	778
110.0204	12
115.0306	44
115.055	25
116.0375	530
117.0439	44
117.06	17
118.0531	631
119.0605	40
119.9922	19
121.0055	29
121.0775	14
122.0059	226
123.0135	10
127.0546	42
128.0362	27
128.0621	27
129.0442	89
129.0668	10
130.0412	175
131.0265	25
131.0521	487
131.9926	14
132.0676	72
133.0396	27
133.0639	12
134.0053	10
134.0478	21
135.055	47
136.0206	12
138.0436	12
139.0544	350
140.051	29
141.0722	10
142.0408	53
143.0486	524
144.0335	77
144.0555	70
145.0399	74
145.064	119
146.015	10
146.041	42
146.0705	14
147.0021	136
148.0082	23
149.0176	94
150.0259	32
151.0537	53
152.0631	38
153.0559	21
153.0686	12
154.0656	94
158.035	102
158.0699	23
159.0018	104
159.0432	973
160.0094	17
160.0503	47
161.0166	12
161.0341	40
162.0238	25
163.0273	29
164.0488	64
165.0582	32
166.0649	77
167.0734	27
168.0736	10
170.0363	77
171.0321	999
171.0845	12
172.0218	12
172.0505	344
173.0592	113
174.0114	25
174.0666	12
174.9972	14
175.0204	21
176.0301	10
176.0486	25
177.0368	17
177.0568	94
178.0644	49
179.0612	32
180.0771	36
181.076	17
182.019	34
183.0266	271
184.034	179
185.033	51
186.0332	177
187.0215	12
187.041	14
190.0069	158
190.055	14
191.0158	47
191.0614	38
192.0688	83
193.0769	40
194.0843	25
196.0224	263
197.0296	74
198.037	260
199.0458	83
202.0067	68
202.064	14
203.0146	121
203.0596	12
204.0784	49
205.0769	89
206.072	32
207.0761	14
207.0917	34
208.0215	94
209.0299	633
209.0662	12
210.0312	141
211.0336	141
212.0477	19
213.0421	25
218.0713	21
219.0796	66
220.09	23
222.0271	12
223.0322	104
223.0671	10
224.0402	477
224.0843	12
225.0235	19
225.0486	166
226.0563	12
227.0626	27
229.0311	12
233.0593	17
234.0226	14
234.0652	21
235.0318	42
235.0739	59
236.0386	12
237.0483	141
238.0447	293
239.0593	55
240.058	10
246.0651	141
247.0741	19
248.0811	34
250.0466	36
251.0508	14
252.0255	29
252.0601	19
253.0407	17
265.0312	173
266.0386	562
267.048	14
268.0558	25
278.0391	68
280.0542	25
