Mass spectrum: Oxadixyl; LC-ESI-QTOF; MS2; 40 V
Name: Oxadixyl
Class: Fungicide
Formula: C14H18N2O4
Exact mass: 278.1267
SMILES: CC1=C(C(=CC=C1)C)N(C(=O)COC)N2CCOC2=O
InChI: InChI=1S/C14H18N2O4/c1-10-5-4-6-11(2)13(10)16(12(17)9-19-3)15-7-8-20-14(15)18/h4-6H,7-9H2,1-3H3
Instrument: TripleTOF 6600 SCIEX
Instrument type: LC-ESI-QTOF
Ms type: MS2
Ion mode: POSITIVE
Collision energy: 40
Fragmentation mode: CID
Ionization: ESI
Column name: Zorbax Eclipse Plus C18 2.1 mm x 150 mm, 3.5 um, Agilent
Retention time: 8.678 min
Precursor m/z: 279.1339
Precursor type: [M+H]+
m/z	relative intensity
45.0324	93
77.0374	41
79.0529	14
88.0374	18
91.0527	54
93.0689	16
102.0525	26
103.0518	20
105.0676	59
117.0556	217
118.0628	103
119.0709	11
119.0835	73
120.0786	84
121.0624	22
131.0707	14
132.0791	999
133.0866	260
134.0939	26
149.0215	22
191.0925	13
201.0437	35
219.1118	24
