Mass spectrum: Alizarin; LC-ESI-QTOF; MS2; 40 V
Name: Alizarin
Formula: C14H8O4
Exact mass: 240.0423
SMILES: C1=CC=C2C(=C1)C(=O)C3=C(C2=O)C(=C(C=C3)O)O
InChI: InChI=1S/C14H8O4/c15-10-6-5-9-11(14(10)18)13(17)8-4-2-1-3-7(8)12(9)16/h1-6,15,18H
Instrument: TripleTOF X500R SCIEX
Instrument type: LC-ESI-QTOF
Ms type: MS2
Ion mode: POSITIVE
Collision energy: 40
Fragmentation mode: CID
Ionization: ESI
Column name: Zorbax Eclipse Plus C18 2.1 mm x 150 mm, 3.5 um, Agilent
Retention time: 10.763 min
Precursor m/z: 241.0496
Precursor type: [M+H]+
m/z	relative intensity
77.0388	28
105.0332	48
107.0132	57
109.0304	24
115.0545	57
119.0135	20
127.0549	248
128.063	676
129.07	742
137.0237	40
139.0547	999
141.0714	36
149.0251	28
157.0652	945
167.0495	362
183.0426	16
185.0609	252
195.0451	150
213.0555	122
241.0502	85
