Mass spectrum: Ethyldiphenylphosphine oxide; LC-ESI-QTOF; MS2; 150 V
Name: Ethyldiphenylphosphine oxide
Class: Industrial_process
Formula: C14H15OP
Exact mass: 230.0861
SMILES: CC[P](=O)(c1ccccc1)c2ccccc2
InChI: InChI=1S/C14H15OP/c1-2-16(15,13-9-5-3-6-10-13)14-11-7-4-8-12-14/h3-12H,2H2,1H3
Instrument: TripleTOF 5600 SCIEX
Instrument type: LC-ESI-QTOF
Ms type: MS2
Ion mode: POSITIVE
Collision energy: 150
Fragmentation mode: CID
Ionization: ESI
Column name: Zorbax Eclipse Plus C18 2.1 mm x 150 mm, 3.5 um, Agilent
Retention time: 8.816 min
Precursor m/z: 231.0933
Precursor type: [M+H]+
m/z	relative intensity
47.0087	482
51.0293	999
52.0359	83
56.9939	139
67.984	111
73.0097	111
74.0183	572
75.0253	111
76.0356	69
77.0408	125
78.9752	258
79.984	384
80.9908	132
85.0087	97
86.0169	188
87.0237	111
91.9829	69
98.0157	272
103.9815	69
107.0044	97
115.9815	62
126.0454	97
150.0469	160
