Mass spectrum: Desmethylranitidine; LC-ESI-QTOF; MS2; 20 V
Name: Desmethylranitidine
Class: Pharmaceutical; Transformation_product
Formula: C12H20N4O3S
Exact mass: 300.1256
SMILES: CNCC1=CC=C(O1)CSCCNC(=C[N+](=O)[O-])NC
InChI: InChI=1S/C12H20N4O3S/c1-13-7-10-3-4-11(19-10)9-20-6-5-15-12(14-2)8-16(17)18/h3-4,8,13-15H,5-7,9H2,1-2H3
Instrument: TripleTOF 5600 SCIEX
Instrument type: LC-ESI-QTOF
Ms type: MS2
Ion mode: POSITIVE
Collision energy: 20
Fragmentation mode: CID
Ionization: ESI
Column name: Zorbax Eclipse Plus C18 2.1 mm x 150 mm, 3.5 um, Agilent
Retention time: 4.769 min
Precursor m/z: 301.1329
Precursor type: [M+H]+
m/z	relative intensity
88.0221	20
98.0849	107
102.0379	31
117.0489	10
124.0754	182
125.0052	121
130.056	159
144.0764	146
147.0218	13
153.0354	36
164.0948	18
165.1018	36
167.0635	12
170.0632	52
176.0484	999
178.1102	9
181.0786	24
191.1178	66
193.056	25
224.0979	305
270.0908	431
301.1337	385
