Mass spectrum: Aspartame; LC-ESI-QTOF; MS2; 80 V
Name: Aspartame
Class: Food_additive
Formula: C14H18N2O5
Exact mass: 294.1216
InChI: InChI=1S/C14H18N2O5/c1-21-14(20)11(7-9-5-3-2-4-6-9)16-13(19)10(15)8-12(17)18/h2-6,10-11H,7-8,15H2,1H3,(H,16,19)(H,17,18)
Instrument: TripleTOF 5600 SCIEX
Instrument type: LC-ESI-QTOF
Ms type: CID
Ion mode: POSITIVE
Collision energy: 80
Ionization: ESI
Column name: Zorbax Eclipse Plus C18 2.1 mm x 150 mm, 3.5 um, Agilent
Retention time: 5.761 min
Precursor m/z: 295.1288
Precursor type: [M+H]+
m/z	relative intensity
43.0269	84
51.0285	32
65.0428	69
70.032	115
77.042	718
88.0405	58
91.0561	509
93.0713	84
102.0463	48
103.0554	999
103.0887	10
105.0332	32
115.0543	13
117.0661	13
118.0642	35
119.0722	19
120.0808	438
121.0643	42
127.0537	33
128.0486	15
128.0602	25
130.0646	43
