Mass spectrum: o-Aminoazotoluene; LC-ESI-QTOF; MS2; 20 V
Name: o-Aminoazotoluene
Formula: C14H15N3
Exact mass: 225.1266
SMILES: CC1=CC=CC=C1N=NC2=CC(=C(C=C2)N)C
InChI: InChI=1S/C14H15N3/c1-10-5-3-4-6-14(10)17-16-12-7-8-13(15)11(2)9-12/h3-9H,15H2,1-2H3
Instrument: TripleTOF X500R SCIEX
Instrument type: LC-ESI-QTOF
Ms type: MS2
Ion mode: POSITIVE
Collision energy: 20
Fragmentation mode: CID
Ionization: ESI
Column name: Zorbax Eclipse Plus C18 2.1 mm x 150 mm, 3.5 um, Agilent
Retention time: 13.733 min
Precursor m/z: 226.1339
Precursor type: [M+H]+
m/z	relative intensity
91.0542	252
94.0654	13
106.0652	107
107.0729	153
108.081	10
119.0605	37
120.0808	50
121.076	140
133.0759	147
181.0774	10
182.0966	22
183.1043	12
194.0844	24
208.0997	16
209.1072	165
210.1082	15
211.1105	29
224.1182	14
226.1324	999
