Mass spectrum: 4-(Dimethylamino)azobenzene; LC-ESI-QTOF; MS2; 50 V
Name: 4-(Dimethylamino)azobenzene
Formula: C14H15N3
Exact mass: 225.1266
SMILES: CN(C)C1=CC=C(C=C1)N=NC2=CC=CC=C2
InChI: InChI=1S/C14H15N3/c1-17(2)14-10-8-13(9-11-14)16-15-12-6-4-3-5-7-12/h3-11H,1-2H3
Instrument: TripleTOF 6600 SCIEX
Instrument type: LC-ESI-QTOF
Ms type: MS2
Ion mode: POSITIVE
Collision energy: 50
Fragmentation mode: CID
Ionization: ESI
Column name: Zorbax Eclipse Plus C18 2.1 mm x 150 mm, 3.5 um, Agilent
Retention time: 15.513 min
Precursor m/z: 226.1339
Precursor type: [M+H]+
m/z	relative intensity
50.0141	17
51.0223	162
65.0376	73
68.0481	23
77.0377	999
78.0332	20
79.053	80
91.0519	13
92.0483	127
93.0443	64
103.0523	17
104.0478	23
105.051	52
106.0637	98
118.0543	51
119.0594	92
120.0797	464
121.0873	28
132.0669	12
133.0748	235
134.0817	12
