Mass spectrum: Mitomycin C; LC-ESI-QTOF; MS2; 130 V
Name: Mitomycin C
Class: Pharmaceutical
Formula: C15H18N4O5
Exact mass: 334.1277
SMILES: CO[C@@]12[C@H](COC(N)=O)C3=C(N1C[C@@H]4N[C@H]24)C(=O)C(=C(N)C3=O)C
InChI: InChI=1S/C15H18N4O5/c1-5-9(16)12(21)8-6(4-24-14(17)22)15(23-2)13-7(18-13)3-19(15)10(8)11(5)20/h6-7,13,18H,3-4,16H2,1-2H3,(H2,17,22)/t6-,7+,13+,15-/m1/s1
Instrument: TripleTOF 5600 SCIEX
Instrument type: LC-ESI-QTOF
Ms type: MS2
Ion mode: POSITIVE
Collision energy: 130
Fragmentation mode: CID
Ionization: ESI
Column name: Zorbax Eclipse Plus C18 2.1 mm x 150 mm, 3.5 um, Agilent
Retention time: 5.588 min
Precursor m/z: 335.135
Precursor type: [M+H]+
m/z	relative intensity
51.0318	447
51.0548	103
62.0216	86
63.0313	310
65.0455	275
67.0489	86
74.0181	172
75.0253	155
76.0316	86
77.0397	999
78.0339	430
89.0387	533
89.06	86
90.0463	103
91.0534	155
92.0498	103
101.0388	137
102.0343	120
103.0519	86
104.0473	361
105.0443	120
113.0339	103
114.0414	86
115.0506	206
116.0473	172
117.0539	137
130.0589	120
131.0545	310
140.0419	155
141.0525	103
142.0549	86
155.0476	172
