Mass spectrum: Foramsulfuron; LC-ESI-QTOF; MS2; 80 V
Name: Foramsulfuron
Class: Herbicide
Formula: C17H20N6O7S
Exact mass: 452.1114
SMILES: CN(C)C(=O)C1=C(C=C(C=C1)NC=O)S(=O)(=O)NC(=O)NC2=NC(=CC(=N2)OC)OC
InChI: InChI=1S/C17H20N6O7S/c1-23(2)15(25)11-6-5-10(18-9-24)7-12(11)31(27,28)22-17(26)21-16-19-13(29-3)8-14(20-16)30-4/h5-9H,1-4H3,(H,18,24)(H2,19,20,21,22,26)
Instrument: TripleTOF 6600 SCIEX
Instrument type: LC-ESI-QTOF
Ms type: MS2
Ion mode: NEGATIVE
Collision energy: 80
Fragmentation mode: CID
Ionization: ESI
Column name: Zorbax Eclipse Plus C18 2.1 mm x 150 mm, 3.5 um, Agilent
Retention time: 8.823 min
Precursor m/z: 451.1041
Precursor type: [M-H]-
m/z	relative intensity
41.0153	20
41.9992	999
61.9706	24
64.0066	16
65.0144	120
65.9988	312
77.9664	20
82.0151	14
88.0175	10
89.0284	16
90.0075	26
90.036	18
92.0142	29
105.9609	20
107.0117	221
107.0585	12
108.0223	12
115.0323	24
116.0149	107
117.0464	33
118.03	122
119.0307	14
120.0469	16
122.0358	259
124.0546	16
133.0403	24
134.0235	24
135.054	10
139.0381	103
143.0237	18
144.0546	22
144.0666	12
145.044	22
154.064	68
159.0235	43
160.0091	22
161.0711	10
172.0303	12
172.0547	10
195.9962	43
209.0216	12
222.9762	18
222.9905	16
224.9973	24
236.0163	60
268.0348	26
