Mass spectrum: Resveratrol; LC-ESI-QTOF; MS2; 30 V
Name: Resveratrol
Class: Pharmaceutical
Formula: C14H12O3
Exact mass: 228.0786
SMILES: c1cc(ccc1/C=C/c2cc(cc(c2)O)O)O
InChI: InChI=1S/C14H12O3/c15-12-5-3-10(4-6-12)1-2-11-7-13(16)9-14(17)8-11/h1-9,15-17H/b2-1+
Instrument: TripleTOF 5600 SCIEX
Instrument type: LC-ESI-QTOF
Ms type: MS2
Ion mode: POSITIVE
Collision energy: 30
Fragmentation mode: CID
Ionization: ESI
Column name: Zorbax Eclipse Plus C18 2.1 mm x 150 mm, 3.5 um, Agilent
Retention time: 7.575 min
Precursor m/z: 229.0859
Precursor type: [M+H]+
m/z	relative intensity
91.056	486
107.0479	999
107.0597	179
119.0473	230
120.0558	230
135.0421	435
165.0696	358
183.0789	153
193.0659	153
