Mass spectrum: Omeprazole sulfide 5-carboxylic acid; LC-ESI-QTOF; MS2; 90 V
Name: Omeprazole sulfide 5-carboxylic acid
Class: Metabolite; Pharmaceutical
Formula: C17H17N3O4S
Exact mass: 359.094
SMILES: CC1=C(C(=CN=C1CSC2=NC3=C(N2)C=C(C=C3)OC)C(=O)O)OC
InChI: InChI=1S/C17H17N3O4S/c1-9-14(18-7-11(16(21)22)15(9)24-3)8-25-17-19-12-5-4-10(23-2)6-13(12)20-17/h4-7H,8H2,1-3H3,(H,19,20)(H,21,22)
Instrument: TripleTOF 5600 SCIEX
Instrument type: LC-ESI-QTOF
Ms type: MS2
Ion mode: NEGATIVE
Collision energy: 90
Fragmentation mode: CID
Ionization: ESI
Column name: Zorbax Eclipse Plus C18 2.1 mm x 150 mm, 3.5 um, Agilent
Retention time: 5.75 min
Precursor m/z: 358.0867
Precursor type: [M-H]-
m/z	relative intensity
57.9751	661
119.0254	108
130.0171	67
162.9996	148
164.0059	999
