Mass spectrum: 3,7-Dioxo-5a-cholan-24-oic acid; LC-ESI-TOF; MS; NEGATIVE; in source decay -120 V
Name: 3,7-Dioxo-5a-cholan-24-oic acid
Class: Natural Product; Bile acids
Formula: C24H36O4
Exact mass: 388.26135
SMILES: CC(CCC(=O)O)C1CCC2C1(CCC3C2C(=O)CC4C3(CCC(=O)C4)C)C
InChI: InChI=1S/C24H36O4/c1-14(4-7-21(27)28)17-5-6-18-22-19(9-11-24(17,18)3)23(2)10-8-16(25)12-15(23)13-20(22)26/h14-15,17-19,22H,4-13H2,1-3H3,(H,27,28)/t14-,15-,17-,18+,19+,22+,23+,24-/m1/s1
Instrument: JMS-T100LP, JEOL
Instrument type: LC-ESI-TOF
Ms type: MS
Ion mode: NEGATIVE
Ionization: ESI
m/z	relative intensity
61.97	52
79.94	28
96.95	46
183.01	26
387.25	999
388.25	280
389.27	53
419.28	107
420.29	37
423.23	55
424.25	21
425.23	39
775.53	84
776.54	49
797.50	23
807.54	23
808.55	23
