Mass spectrum: 3a,7a,16b-(OH)3-5b-cholanic acid; LC-ESI-TOF; MS; NEGATIVE; in source decay -120 V
Name: 3a,7a,16b-(OH)3-5b-cholanic acid
Name: 3a,7a,16b-Trihydroxy-5b-cholan-24-oic Acid
Class: Natural Product; Bile acids
Formula: C24H40O5
Exact mass: 408.28757
SMILES: C(C3(C)4)([H])(CC(O)CC4)CC(C(C3([H])2)(C(C1(C)CC2)([H])CC(C1([H])C(C)CCC(O)=O)O)[H])O
InChI: InChI=1S/C24H40O5/c1-13(4-5-20(28)29)22-19(27)12-17-21-16(7-9-24(17,22)3)23(2)8-6-15(25)10-14(23)11-18(21)26/h13-19,21-22,25-27H,4-12H2,1-3H3,(H,28,29)/t13-,14+,15-,16+,17+,18-,19+,21-,22+,23+,24+/m1/s1
Instrument: JMS-T100LP, JEOL
Instrument type: LC-ESI-TOF
Ms type: MS
Ion mode: NEGATIVE
Ionization: ESI
m/z	relative intensity
79.12	20
99.21	88
177.17	41
315.28	28
317.27	25
325.26	29
327.25	47
341.26	57
343.27	93
344.28	24
345.29	80
346.29	20
361.28	30
363.30	57
371.27	53
389.27	113
390.27	33
407.28	999
408.28	282
409.28	61
429.26	23
503.25	20
797.52	30
837.51	85
838.52	47
