Mass spectrum: 3b,6a-Dihydroxy-5b-cholan-24-oic acid; LC-ESI-TOF; MS; Negative; Orifice voltage -90 V
Name: 3b,6a-Dihydroxy-5b-cholan-24-oic acid
Class: Natural Product; Bile acid
Formula: C24H40O4
Exact mass: 392.29266
SMILES: C[C@H](CCC(=O)O)[C@H]1CC[C@@H]2[C@@]1(CC[C@H]3[C@H]2C[C@@H]([C@H]4[C@@]3(CC[C@@H](C4)O)C)O)C
InChI: InChI=1S/C24H40O4/c1-14(4-7-22(27)28)17-5-6-18-16-13-21(26)20-12-15(25)8-10-24(20,3)19(16)9-11-23(17,18)2/h14-21,25-26H,4-13H2,1-3H3,(H,27,28)/t14-,15+,16+,17-,18+,19+,20+,21+,23-,24-/m1/s1
Instrument: JMS-T100LP, JEOL
Instrument type: LC-ESI-TOF
Ms type: MS
Ion mode: NEGATIVE
Ionization: ESI
m/z	relative intensity
51.19945	11
58.13217	11
59.16849	10
60.11837	9
61.13548	92
62.13424	419
63.18871	6
64.1041	80
65.1097	100
67.10264	4
69.12553	999
69.68947	6
70.12704	14
73.12887	25
75.11495	6
79.06843	222
80.06567	18
81.02329	24
85.12429	56
87.10031	7
89.11551	7
91.12654	4
92.13728	19
93.11962	113
94.12127	8
96.03309	9
97.04093	26
99.08342	22
100.07932	6
107.102	6
109.07899	4
111.04158	5
113.04541	133
113.23291	3
114.04611	5
116.05474	4
117.1091	6
119.048	7
121.09353	4
125.04805	14
127.05761	5
129.06048	7
131.04845	4
136.07892	20
139.074	8
141.03544	77
142.0374	7
143.03038	12
146.12803	18
148.1401	22
149.14196	8
151.07479	5
153.0585	16
154.99782	43
156.03449	23
157.14542	9
163.13145	11
167.01343	25
169.00463	5
171.1564	6
173.02024	10
180.99182	8
181.9798	7
183.12178	9
185.15521	3
187.01313	11
195.02971	2
197.97147	10
199.1764	16
205.16535	77
206.16939	15
207.04094	7
210.9893	9
212.07768	187
213.0834	26
214.07514	9
215.13332	6
219.17841	48
220.1673	13
223.02465	4
227.20456	29
228.2043	5
233.15562	15
235.03139	10
237.16066	4
239.06808	4
241.21771	21
242.22435	7
247.05227	24
248.96017	102
250.14527	15
251.03537	9
253.21638	11
254.22668	3
255.23264	109
256.23283	15
257.20814	7
261.02945	4
265.14712	6
266.08136	4
269.25041	16
279.22396	5
281.24794	23
283.2619	65
284.2686	13
285.24838	3
289.04091	4
295.22382	3
297.23334	14
299.25118	6
301.06116	10
302.97276	4
305.09937	5
309.24868	13
311.16992	11
313.23958	6
315.04114	3
325.19659	10
330.97823	5
336.32476	5
337.27518	5
339.21268	7
367.35402	4
380.98572	10
384.94123	4
389.26523	4
391.28353	749
392.29031	226
393.30016	42
394.3058	2
395.28781	7
409.07192	9
411.26224	7
413.2744	24
414.2722	6
423.31543	69
424.31635	19
425.3291	5
430.97513	10
433.28362	4
437.06596	4
439.05156	5
445.29579	33
446.30418	9
447.29733	7
451.07579	10
459.28187	5
463.27754	6
467.28255	14
479.04185	4
480.98226	13
485.29183	13
491.06408	4
493.0473	2
507.08952	4
519.05362	4
521.29399	6
527.27718	9
530.99541	12
535.53268	4
575.30698	4
580.98184	13
630.98225	8
680.96132	6
730.96586	8
780.97029	9
805.58422	3
880.94408	3
930.96136	4
980.93314	5
