Mass spectrum: 2b,3a,7a,12a-Tetrahydroxy-5b-cholan-24-oic acid; LC-ESI-TOF; MS; Negative; Orifice voltage -120 V
Name: 2b,3a,7a,12a-Tetrahydroxy-5b-cholan-24-oic acid
Class: Natural Product; Bile acids
Formula: C24H40O6
Exact mass: 424.28249
SMILES: C[C@H](CCC(=O)O)[C@H]1CC[C@@H]2[C@@]1([C@H](C[C@H]3[C@H]2[C@@H](C[C@H]4[C@@]3(C[C@@H]([C@H](C4)O)O)C)O)O)C
InChI: InChI=1S/C24H40O6/c1-12(4-7-21(29)30)14-5-6-15-22-16(10-20(28)24(14,15)3)23(2)11-19(27)17(25)8-13(23)9-18(22)26/h12-20,22,25-28H,4-11H2,1-3H3,(H,29,30)/t12-,13+,14-,15+,16+,17+,18-,19+,20+,22+,23+,24-/m1/s1
Instrument: JMS-T100LP, JEOL
Instrument type: LC-ESI-TOF
Ms type: MS
Ion mode: NEGATIVE
Ionization: ESI
m/z	relative intensity
61.91649	64
63.89222	14
68.92761	23
79.90111	16
96.91742	11
112.95358	20
205.15923	9
248.96442	21
249.18766	7
325.22762	15
341.25645	38
342.24788	10
343.26259	20
357.25852	11
359.26641	38
360.26127	11
375.29224	41
376.29761	11
387.2598	9
391.29461	11
405.26668	31
407.26231	7
423.28256	999
424.27739	295
425.28555	60
426.28273	7
427.25672	20
445.26458	62
446.26001	19
455.30661	21
459.27647	21
485.29935	10
499.26424	13
847.5725	13
869.55435	145
870.54519	81
871.5366	28
872.5808	7
891.51844	24
892.53932	12
913.52494	10
914.5227	6
