Mass spectrum: 3b,6a-(OH)2-5a-cholanic acid; LC-ESI-TOF; MS; NEGATIVE; In source decay -150 V
Name: 3b,6a-(OH)2-5a-cholanic acid
Name: 3b,6a-Dihydroxy-5a-cholan-24-oic Acid
Class: Natural Product; Bile acids
Formula: C24H40O4
Exact mass: 392.29266
SMILES: C(C1(C)4)([H])(C(C)CCC(O)=O)CCC1(C(C3([H])CC4)([H])CC(C(C3(C)2)([H])CC(O)CC2)O)[H]
InChI: InChI=1S/C24H40O4/c1-14(4-7-22(27)28)17-5-6-18-16-13-21(26)20-12-15(25)8-10-24(20,3)19(16)9-11-23(17,18)2/h14-21,25-26H,4-13H2,1-3H3,(H,27,28)/t14-,15+,16+,17-,18+,19+,20-,21+,23-,24-/m1/s1
Instrument: JMS-T100LP, JEOL
Instrument type: LC-ESI-TOF
Ms type: MS
Ion mode: NEGATIVE
Ionization: ESI
m/z	relative intensity
61.98	585
79.95	249
96.96	270
391.29	999
392.31	312
400.03	168
411.14	148
427.28	269
449.26	118
454.31	155
489.51	116
504.49	147
512.24	107
636.24	110
653.32	108
667.11	120
674.72	141
682.19	110
687.00	101
713.63	130
720.35	111
752.12	108
783.62	173
805.60	159
863.60	112
908.02	162
957.29	114
978.43	132
