Mass spectrum: 3,12-Dioxo-5a-cholan-24-oic acid; LC-ESI-TOF; MS; NEGATIVE; in source decay -60 V
Name: 3,12-Dioxo-5a-cholan-24-oic acid
Class: Natural Product; Bile acids
Formula: C24H36O4
Exact mass: 388.26135
SMILES: CC(CCC(=O)O)C1CCC2C1(C(=O)CC3C2CCC4C3(CCC(=O)C4)C)C
InChI: InChI=1S/C24H36O4/c1-14(4-9-22(27)28)18-7-8-19-17-6-5-15-12-16(25)10-11-23(15,2)20(17)13-21(26)24(18,19)3/h14-15,17-20H,4-13H2,1-3H3,(H,27,28)/t14-,15+,17+,18-,19+,20+,23+,24-/m1/s1
Instrument: JMS-T100LP, JEOL
Instrument type: LC-ESI-TOF
Ms type: MS
Ion mode: NEGATIVE
Ionization: ESI
m/z	relative intensity
61.97	197
68.98	999
87.00	30
89.01	759
90.01	22
93.03	60
96.95	131
112.98	108
128.03	27
212.08	27
255.24	34
265.15	51
309.18	24
311.18	46
325.19	41
339.21	34
387.25	909
388.25	255
389.28	47
419.28	112
420.29	62
423.24	41
425.24	23
499.27	23
775.52	445
776.53	248
777.53	99
807.55	74
808.56	49
