Mass spectrum: 3b,4a,12a-Trihydroxy-5b-cholan-24-oic acid; LC-ESI-TOF; MS; Negative; Orifice voltage -90 V
Name: 3b,4a,12a-Trihydroxy-5b-cholan-24-oic acid
Class: Natural Product; Bile acid
Formula: C24H40O5
Exact mass: 408.28757
SMILES: O=C(O)CC[C@@H](C)C2CCC1C3CC[C@@H]4[C@H](O)[C@@H](O)CC[C@]4(C)C3C[C@H](O)[C@@]12C
InChI: InChI=1S/C24H40O5/c1-13(4-9-21(27)28)15-7-8-16-14-5-6-17-22(29)19(25)10-11-23(17,2)18(14)12-20(26)24(15,16)3/h13-20,22,25-26,29H,4-12H2,1-3H3,(H,27,28)/t13-,14?,15?,16?,17-,18?,19+,20+,22+,23+,24-/m1/s1
Instrument: JMS-T100LP, JEOL
Instrument type: LC-ESI-TOF
Ms type: MS
Ion mode: NEGATIVE
Ionization: ESI
m/z	relative intensity
59.22373	8
62.19004	19
64.1591	2
65.16452	2
69.1793	21
79.08051	1
79.12024	12
80.11703	2
81.07355	1
91.17266	1
97.0882	2
99.12982	1
113.08942	7
141.07789	2
177.17826	3
212.11152	2
227.2307	2
233.18742	2
241.24662	1
248.98957	2
250.17312	2
253.24108	2
255.25717	11
256.26253	2
281.26709	3
283.2853	9
284.29033	2
297.17213	3
311.1813	7
325.20311	8
326.21379	2
327.27318	2
331.27994	6
332.28978	1
339.21674	5
343.27987	5
345.29448	4
361.28046	16
362.28865	5
363.30101	8
364.30799	2
367.27563	7
368.28355	2
371.26757	7
372.27478	2
377.31348	2
387.26223	2
389.27145	45
390.27791	13
391.28467	2
403.26322	3
405.26784	10
406.27118	3
407.27817	999
408.28088	285
409.2836	46
410.29555	5
410.73924	1
421.28113	6
422.29768	2
423.28222	2
425.25309	2
427.24931	2
429.26015	17
430.26768	5
435.27912	2
439.29868	2
449.28217	110
450.28797	35
451.29524	7
452.28927	2
461.28066	3
465.2594	4
471.27323	3
475.26059	9
476.2679	3
479.33265	9
480.34076	3
489.27681	7
490.28647	2
491.29741	2
503.26833	3
517.27185	2
521.32849	1
543.2511	2
797.52274	10
798.5343	6
799.5272	2
815.53514	26
816.5308	15
817.55305	5
837.51249	56
838.51408	30
839.53153	12
840.53356	4
857.54886	5
858.54532	3
859.5292	4
860.521	2
879.53547	10
880.52873	6
881.52582	3
