Mass spectrum: 3a,6a,7b-(OH)3-5a-cholanic acid; LC-ESI-TOF; MS; NEGATIVE; In source decay -60 V
Name: 3a,6a,7b-(OH)3-5a-cholanic acid
Name: 3a,6a,7b-Trihydroxy-5a-cholan-24-oic Acid
Class: Natural Product; Bile acids
Formula: C24H40O5
Exact mass: 408.28757
SMILES: C(C32[H])(O)C(C(C(C2([H])CCC(C([H])(C(C)CCC(O)=O)4)(C3([H])CC4)C)(C)1)([H])CC(O)CC1)O
InChI: InChI=1S/C24H40O5/c1-13(4-7-19(26)27)15-5-6-16-20-17(9-11-23(15,16)2)24(3)10-8-14(25)12-18(24)21(28)22(20)29/h13-18,20-22,25,28-29H,4-12H2,1-3H3,(H,26,27)/t13-,14-,15-,16+,17+,18-,20+,21-,22-,23-,24-/m1/s1
Instrument: JMS-T100LP, JEOL
Instrument type: LC-ESI-TOF
Ms type: MS
Ion mode: NEGATIVE
Ionization: ESI
m/z	relative intensity
69.46	32
89.03	305
92.94	69
255.24	294
265.15	588
266.17	72
281.25	172
283.27	124
293.18	283
294.20	41
296.30	29
297.16	37
309.17	204
311.17	333
312.19	47
313.25	34
325.19	303
326.20	77
328.16	33
337.21	131
339.22	271
381.25	70
382.36	35
390.89	64
407.29	710
408.29	227
439.33	21
443.25	999
444.28	298
445.26	292
446.28	72
450.64	51
453.80	43
467.27	51
468.30	53
477.33	21
549.80	43
663.56	28
703.55	33
726.46	28
815.57	618
816.58	356
826.24	22
827.37	23
830.96	48
851.56	92
852.57	79
873.56	24
878.93	20
895.95	45
