Mass spectrum: 3b,6a-Dihydroxy-5b-cholan-24-oic acid; LC-ESI-TOF; MS; Negative; Orifice voltage -30 V
Name: 3b,6a-Dihydroxy-5b-cholan-24-oic acid
Class: Natural Product; Bile acid
Formula: C24H40O4
Exact mass: 392.29266
SMILES: C[C@H](CCC(=O)O)[C@H]1CC[C@@H]2[C@@]1(CC[C@H]3[C@H]2C[C@@H]([C@H]4[C@@]3(CC[C@@H](C4)O)C)O)C
InChI: InChI=1S/C24H40O4/c1-14(4-7-22(27)28)17-5-6-18-16-13-21(26)20-12-15(25)8-10-24(20,3)19(16)9-11-23(17,18)2/h14-21,25-26H,4-13H2,1-3H3,(H,27,28)/t14-,15+,16+,17-,18+,19+,20+,21+,23-,24-/m1/s1
Instrument: JMS-T100LP, JEOL
Instrument type: LC-ESI-TOF
Ms type: MS
Ion mode: NEGATIVE
Ionization: ESI
m/z	relative intensity
59.16751	8
62.1343	26
63.18844	1
69.12568	303
70.1274	4
73.13353	2
75.12607	177
75.29104	1
76.12789	5
77.12594	1
85.12449	11
89.06958	1
89.11552	7
93.11948	4
99.08411	3
113.04853	999
113.31843	8
113.69043	19
114.04711	26
114.263	6
115.04765	5
129.05993	5
145.03957	2
153.05723	15
154.99863	4
157.14766	2
167.01141	16
173.02237	3
180.99308	2
181.98036	2
194.99978	2
197.97175	2
199.02959	2
205.16693	2
210.98689	4
212.07743	23
213.08223	3
226.98232	13
241.21685	2
244.98607	2
248.95869	96
249.96529	5
251.01804	2
255.23314	7
264.99051	2
283.26291	3
300.06994	2
302.97576	2
346.96102	2
384.93605	20
391.28416	59
392.29255	17
392.57079	1
393.30148	3
423.31516	7
424.31466	2
489.28846	5
490.29807	1
499.16278	2
505.28505	4
520.91848	5
527.26454	3
604.37559	2
649.51966	2
677.54503	2
