Mass spectrum: 3a,6a,7a-Trihydroxy-5b-cholan-24-oic acid; LC-ESI-TOF; MS; Orifice voltage -150 V; Negative; In-suorce decay
Name: 3a,6a,7a-Trihydroxy-5b-cholan-24-oic acid
Name: Hyocholic acid
Name: Gamma-Muricholic acid
Class: Natural Product; Bile acid
Formula: C24H40O5
Exact mass: 408.28757
SMILES: C[C@H](CCC(=O)O)[C@H]1CC[C@@H]2[C@@]1(CC[C@H]3[C@H]2[C@@H]([C@@H]([C@H]4[C@@]3(CC[C@H](C4)O)C)O)O)C
InChI: InChI=1S/C24H40O5/c1-13(4-7-19(26)27)15-5-6-16-20-17(9-11-23(15,16)2)24(3)10-8-14(25)12-18(24)21(28)22(20)29/h13-18,20-22,25,28-29H,4-12H2,1-3H3,(H,26,27)/t13-,14-,15-,16+,17+,18+,20+,21-,22+,23-,24-/m1/s1
Instrument: JMS-T100LP, JEOL
Instrument type: LC-ESI-TOF
Ms type: MS
Ion mode: NEGATIVE
Ionization: ESI
m/z	relative intensity
63.12025	287
63.61325	11
80.65324	7
126.95564	58
167.0169	87
226.98234	143
249.96324	51
250.96654	7
329.25338	14
353.2433	6
381.24463	18
384.93637	274
385.94595	24
387.25473	20
389.27476	117
390.28195	34
391.26702	18
407.28083	999
408.28564	285
409.29495	65
411.25281	262
412.26376	74
413.26969	16
421.30097	55
425.28417	20
426.28203	9
430.27158	112
431.27132	25
439.30973	828
440.31719	239
443.28624	92
444.29507	28
449.25654	4
483.27862	38
519.29561	10
520.91875	253
521.93474	34
522.92521	13
527.24849	12
557.26129	2
559.2894	8
560.97488	11
574.93427	7
584.31901	13
656.90458	39
659.28659	13
794.24658	9
817.64128	18
839.56956	157
840.56511	42
850.40476	6
913.5743	3
