Mass spectrum: 7-Oxo-5a-cholan-24-oic acid; LC-ESI-TOF; MS; NEGATIVE; in source decay -90 V
Name: 7-Oxo-5a-cholan-24-oic acid
Class: Natural Product; Bile acids
Formula: C24H38O3
Exact mass: 374.2821
SMILES: CC(CCC(=O)O)C1CCC2C1(CCC3C2C(=O)CC4C3(CCCC4)C)C
InChI: InChI=1S/C24H38O3/c1-15(7-10-21(26)27)17-8-9-18-22-19(11-13-24(17,18)3)23(2)12-5-4-6-16(23)14-20(22)25/h15-19,22H,4-14H2,1-3H3,(H,26,27)/t15-,16-,17-,18+,19+,22+,23+,24-/m1/s1
Instrument: JMS-T100LP, JEOL
Instrument type: LC-ESI-TOF
Ms type: MS
Ion mode: NEGATIVE
Ionization: ESI
m/z	relative intensity
60.97	31
61.97	36
68.98	999
112.98	58
373.27	431
374.28	101
375.31	20
378.81	23
415.27	36
447.29	50
755.14	28
769.55	36
770.55	21
836.98	21
842.56	28
861.28	25
882.32	22
971.87	25
