Mass spectrum: 2b,3a,7a,12a-Tetrahydroxy-5b-cholan-24-oic acid; LC-ESI-TOF; MS; Negative; Orifice voltage -150 V
Name: 2b,3a,7a,12a-Tetrahydroxy-5b-cholan-24-oic acid
Class: Natural Product; Bile acids
Formula: C24H40O6
Exact mass: 424.28249
SMILES: C[C@H](CCC(=O)O)[C@H]1CC[C@@H]2[C@@]1([C@H](C[C@H]3[C@H]2[C@@H](C[C@H]4[C@@]3(C[C@@H]([C@H](C4)O)O)C)O)O)C
InChI: InChI=1S/C24H40O6/c1-12(4-7-21(29)30)14-5-6-15-22-16(10-20(28)24(14,15)3)23(2)11-19(27)17(25)8-13(23)9-18(22)26/h12-20,22,25-28H,4-11H2,1-3H3,(H,29,30)/t12-,13+,14-,15+,16+,17+,18-,19+,20+,22+,23+,24-/m1/s1
Instrument: JMS-T100LP, JEOL
Instrument type: LC-ESI-TOF
Ms type: MS
Ion mode: NEGATIVE
Ionization: ESI
m/z	relative intensity
51.77252	13
51.94687	16
52.40756	5
56.95636	45
57.92739	8
58.93832	11
59.8894	12
61.91649	53
63.89222	18
68.96681	103
70.95128	10
72.96884	17
78.86015	13
79.90111	39
80.85865	9
80.98073	8
82.99491	29
84.97392	32
88.97383	4
92.98577	8
95.00469	25
96.91742	32
98.96648	6
105.03023	15
107.01617	22
109.03296	43
110.002	10
111.0126	41
112.95358	97
115.96318	14
119.01867	9
121.04092	16
123.05399	45
125.03086	9
128.99157	20
133.0479	21
135.06186	17
141.05423	9
143.0147	5
147.06195	10
149.08511	12
151.05684	10
153.11444	5
154.95834	12
159.974	5
161.07947	7
163.09846	6
166.98359	23
168.97776	7
173.00155	18
174.09654	5
175.10137	8
177.11967	11
179.14164	5
181.09573	8
183.00457	25
187.00537	8
191.13899	6
193.15719	30
197.126	7
197.96275	11
199.15048	9
205.15923	45
206.15666	8
207.17348	33
208.17579	5
210.98312	13
217.14892	8
226.97666	6
231.17825	19
233.16297	64
234.16302	12
235.17424	11
241.14999	5
243.16774	7
247.17285	6
248.96442	140
249.96978	12
255.22464	6
257.18685	6
259.21349	9
261.18141	11
265.19714	5
269.19513	13
271.2102	38
272.21082	7
273.22303	15
275.21396	6
281.22023	8
283.22019	12
285.21729	7
287.20141	16
288.21106	5
289.22248	30
290.22564	6
291.22047	6
295.2168	6
297.28615	19
298.29299	4
299.23017	13
301.21121	12
302.23492	5
307.22453	15
308.217	6
309.2318	15
311.22482	11
313.2451	18
315.24052	13
317.25278	6
323.24317	35
324.23994	9
325.22762	67
326.23808	16
327.23946	13
329.24681	15
331.24956	11
339.23448	22
341.25645	149
342.25879	43
343.26259	64
344.2788	14
345.25271	14
347.25957	8
351.22445	14
352.24131	6
353.21533	6
357.24738	60
358.25061	16
359.26641	103
360.27246	28
361.26872	11
362.27757	5
363.27659	4
367.22997	9
369.24299	11
373.27416	18
375.29224	64
376.29761	16
377.30432	5
379.28734	9
381.22953	7
385.24445	10
386.26305	5
387.2598	23
389.25715	9
391.28296	26
392.28616	11
393.30233	10
395.23317	9
403.25228	27
404.25886	9
405.26668	64
406.26388	15
407.22663	63
408.23815	21
409.239	23
410.25301	6
413.24267	4
417.20564	8
421.2722	26
422.25256	6
423.28256	999
424.27739	293
425.27339	112
426.24623	21
427.25672	35
427.82946	2
428.24402	7
429.26909	6
431.23722	5
441.26923	13
443.23984	10
445.26458	103
446.26001	31
447.21916	18
448.21677	5
450.32788	11
455.30661	20
457.27048	6
459.27647	35
460.27479	11
463.25087	19
464.2535	9
465.25721	4
477.28328	14
479.24233	5
481.25711	17
482.2402	5
483.26316	6
485.28637	35
486.29956	11
487.28778	6
499.17207	49
500.1601	14
501.21508	4
521.26902	19
527.19275	15
535.52038	9
543.25372	4
559.24903	6
565.24405	8
649.50758	17
650.51429	8
677.54511	17
678.55796	8
848.56792	6
869.55435	456
870.54519	243
871.554	87
872.56339	26
873.59078	7
891.53604	88
892.53932	46
893.54318	15
894.56522	6
913.50712	46
914.50487	26
915.53883	10
935.51137	15
936.50303	11
955.49908	8
