Mass spectrum: 2b,3a,7a,12a-Tetrahydroxy-5b-cholan-24-oic acid; LC-ESI-TOF; MS; Negative; Orifice voltage -60 V
Name: 2b,3a,7a,12a-Tetrahydroxy-5b-cholan-24-oic acid
Class: Natural Product; Bile acids
Formula: C24H40O6
Exact mass: 424.28249
SMILES: C[C@H](CCC(=O)O)[C@H]1CC[C@@H]2[C@@]1([C@H](C[C@H]3[C@H]2[C@@H](C[C@H]4[C@@]3(C[C@@H]([C@H](C4)O)O)C)O)O)C
InChI: InChI=1S/C24H40O6/c1-12(4-7-21(29)30)14-5-6-15-22-16(10-20(28)24(14,15)3)23(2)11-19(27)17(25)8-13(23)9-18(22)26/h12-20,22,25-28H,4-11H2,1-3H3,(H,29,30)/t12-,13+,14-,15+,16+,17+,18-,19+,20+,22+,23+,24-/m1/s1
Instrument: JMS-T100LP, JEOL
Instrument type: LC-ESI-TOF
Ms type: MS
Ion mode: NEGATIVE
Ionization: ESI
m/z	relative intensity
58.93851	35
61.91669	107
68.92783	999
69.50235	8
84.93613	93
92.98607	35
96.91773	18
98.96681	8
112.95395	112
118.9676	17
122.98898	17
154.95885	11
205.1599	14
212.07252	103
213.07798	15
255.23489	16
423.27181	250
424.27877	70
425.28693	13
445.26603	31
446.26146	9
847.57525	15
869.55717	12
