Mass spectrum: Glyco 3a-sulfate-5b-cholanic acid; LC-ESI-TOF; MS; NEGATIVE; In-source decay -60 V
Name: Glyco 3a-sulfate-5b-cholanic acid
Name: N-[(3a,5b)-24-Oxo-3-(sulfooxy)cholan-24-yl]glycine
Class: Natural Product; Bile acids
Formula: C26H43NO7S
Exact mass: 513.27602
SMILES: O=C(O)CNC(=O)CC[C@@H](C)[C@H]1CC[C@H]2[C@@H]3CC[C@@H]4C[C@@H](CC[C@]4(C)[C@H]3CC[C@]12C)OS(=O)(=O)O
InChI: InChI=1S/C26H43NO7S/c1-16(4-9-23(28)27-15-24(29)30)20-7-8-21-19-6-5-17-14-18(34-35(31,32)33)10-12-25(17,2)22(19)11-13-26(20,21)3/h16-22H,4-15H2,1-3H3,(H,27,28)(H,29,30)(H,31,32,33)/t16-,17-,18-,19+,20-,21+,22+,25+,26-/m1/s1
Instrument: JMS-T100LP, JEOL
Instrument type: LC-ESI-TOF
Ms type: MS
Ion mode: NEGATIVE
Ionization: ESI
m/z	relative intensity
61.98	27
68.99	33
74.02	708
75.02	22
96.95	152
255.62	662
256.13	200
256.63	74
313.15	56
339.16	39
381.21	44
382.22	23
395.23	50
409.24	42
437.23	656
438.23	203
439.24	73
452.25	38
455.24	29
512.26	999
513.27	313
514.27	103
515.28	20
534.24	358
535.25	106
536.26	41
