Mass spectrum: 1b,3a,7a-Trihydroxy-5b-cholan-24-oic acid; LC-ESI-TOF; MS; Negative; Orifice voltage -120 V
Name: 1b,3a,7a-Trihydroxy-5b-cholan-24-oic acid
Name: 1b,3a,7a-Trihydroxy-5b-cholanoic acid
Name: 1b-Hydroxychenodeoxycholate
Class: Natural Product; Bile acids
Formula: C24H40O5
Exact mass: 408.287994
SMILES: O=C(O)CC[C@H]([C@H]1CC[C@@H]2[C@]1(C)CC[C@H]4[C@H]2[C@H](O)C[C@@H]3C[C@H](O)C[C@@H](O)[C@@]34C)C
InChI: InChI=1S/C24H40O5/c1-13(4-7-21(28)29)16-5-6-17-22-18(8-9-23(16,17)2)24(3)14(11-19(22)26)10-15(25)12-20(24)27/h13-20,22,25-27H,4-12H2,1-3H3,(H,28,29)/t13-,14+,15+,16-,17+,18+,19-,20-,22+,23-,24+/m1/s1
Instrument: JMS-T100LP, JEOL
Instrument type: LC-ESI-TOF
Ms type: MS
Ion mode: NEGATIVE
Ionization: ESI
m/z	relative intensity
61.9546	74
112.67961	6
263.5957	7
271.79149	6
279.2848	8
299.32985	13
307.66637	8
321.21971	12
335.20542	2
336.86911	8
355.81944	9
361.57876	22
365.06105	13
372.26896	9
384.60439	12
389.2762	55
390.30009	16
407.26963	999
408.28119	282
409.28207	46
416.44285	18
418.80337	12
422.33244	11
429.26404	11
430.29031	14
433.41327	8
434.39535	12
439.29773	292
440.32355	85
443.24688	26
446.26702	6
449.29742	209
450.29732	79
458.3492	10
465.23859	22
466.24334	4
467.26192	11
468.84291	10
475.48911	9
481.32835	24
482.33738	12
485.27993	14
486.28009	3
492.26347	7
493.88618	7
497.98092	12
509.27542	14
511.37892	7
517.31322	6
571.1915	11
573.89898	12
578.70919	12
580.99397	7
594.12183	6
595.71738	14
599.95378	5
603.9155	21
607.49801	6
626.40991	9
642.69498	13
650.53253	2
664.76891	7
671.33396	6
679.80458	7
681.28047	17
684.48373	8
688.68395	13
692.21462	15
695.17927	6
709.21841	8
720.27869	12
727.44541	6
731.90276	5
743.92524	12
747.94913	8
750.12654	7
755.93223	14
763.56683	5
765.6853	14
777.02788	17
784.7515	9
786.56854	11
793.99054	8
802.43204	12
810.02897	7
815.59026	57
816.54987	33
827.44787	31
829.738	12
831.57237	7
832.9835	20
837.56514	101
838.55465	57
847.21204	6
851.54022	51
857.60439	12
861.5438	7
863.18788	24
870.07539	8
872.35411	8
878.75385	10
879.57512	12
883.70477	22
889.00344	8
895.53441	27
902.56726	7
904.53359	12
908.52597	8
916.43005	9
917.98283	8
919.93013	28
927.12975	9
929.82337	9
937.5487	7
942.97003	16
954.95199	10
958.41537	21
966.03858	8
994.75067	8
996.53589	27
