Mass spectrum: 3a,6b,7a-Trihydroxy-5b-cholan-24-oic acid; LC-ESI-TOF; MS; Orifice voltage -90 V; Negative; In-suorce decay
Name: 3a,6b,7a-Trihydroxy-5b-cholan-24-oic acid
Name: alpha-Muricholic acid
Class: Natural Product; Bile acid
Formula: C24H40O5
Exact mass: 408.28757
SMILES: C[C@H](CCC(=O)O)[C@H]1CC[C@@H]2[C@@]1(CC[C@H]3[C@H]2[C@@H]([C@H]([C@H]4[C@@]3(CC[C@H](C4)O)C)O)O)C
InChI: InChI=1S/C24H40O5/c1-13(4-7-19(26)27)15-5-6-16-20-17(9-11-23(15,16)2)24(3)10-8-14(25)12-18(24)21(28)22(20)29/h13-18,20-22,25,28-29H,4-12H2,1-3H3,(H,26,27)/t13-,14-,15-,16+,17+,18+,20+,21+,22+,23-,24-/m1/s1
Instrument: JMS-T100LP, JEOL
Instrument type: LC-ESI-TOF
Ms type: MS
Ion mode: NEGATIVE
Ionization: ESI
m/z	relative intensity
61.00158	51
62.00297	88
64.98453	5
69.00701	356
78.96732	284
79.96726	6
80.92469	24
85.03374	10
89.02959	8
96.96875	9
112.98849	62
125.00366	12
126.90839	24
129.01758	8
143.03477	7
153.03242	12
154.97442	27
166.99649	14
187.00832	12
248.96115	111
249.97208	5
255.23703	17
283.26557	10
384.94793	8
389.2792	9
391.29124	6
405.27188	49
406.27351	13
407.28299	999
408.28714	279
409.29561	45
410.29802	3
411.26654	8
412.27114	3
421.29629	4
423.28064	21
424.28782	6
425.29698	8
429.26741	129
430.27133	37
431.27595	7
437.29889	12
439.30999	575
440.31435	168
440.80264	3
441.31856	36
442.33416	4
443.28444	8
451.31878	7
465.25188	25
466.25223	7
467.25518	11
475.28689	8
483.29604	14
489.28666	13
519.30543	7
537.29793	5
543.2644	17
583.31504	19
815.57988	82
816.58946	45
817.59193	16
837.55996	192
838.57162	101
839.56959	35
840.5815	11
859.55614	15
860.57109	10
881.56036	7
