Mass spectrum: 3,6-Dioxo-5a-cholan-24-oic acid; LC-ESI-TOF; MS; NEGATIVE; in source decay -30 V
Name: 3,6-Dioxo-5a-cholan-24-oic acid
Class: Natural Product; Bile acids
Formula: C24H36O4
Exact mass: 388.26135
SMILES: CC(CCC(=O)O)C1CCC2C1(CCC3C2CC(=O)C4C3(CCC(=O)C4)C)C
InChI: InChI=1S/C24H36O4/c1-14(4-7-22(27)28)17-5-6-18-16-13-21(26)20-12-15(25)8-10-24(20,3)19(16)9-11-23(17,18)2/h14,16-20H,4-13H2,1-3H3,(H,27,28)/t14-,16+,17-,18+,19+,20-,23-,24-/m1/s1
Instrument: JMS-T100LP, JEOL
Instrument type: LC-ESI-TOF
Ms type: MS
Ion mode: NEGATIVE
Ionization: ESI
m/z	relative intensity
59.00	41
61.97	79
68.98	356
74.99	55
89.01	582
96.95	43
112.97	999
387.26	124
388.26	36
419.28	46
423.23	102
424.25	36
425.23	43
433.27	31
477.28	141
478.30	48
501.25	176
502.27	99
509.33	31
775.54	76
776.54	72
807.54	39
811.51	46
