Mass spectrum: 3,7-Dioxo-5b-cholan-24-oic acid; LC-ESI-TOF; MS; NEGATIVE; in source decay -150 V
Name: 3,7-Dioxo-5b-cholan-24-oic acid
Class: Natural Product; Bile acids
Formula: C24H36O4
Exact mass: 388.26136
SMILES: C(C3(C)4)([H])(CC(=O)CC4)CC(C(C3([H])2)(C(C1(C)CC2)([H])CCC1([H])C(C)CCC(O)=O)[H])=O
InChI: InChI=1S/C24H36O4/c1-14(4-7-21(27)28)17-5-6-18-22-19(9-11-24(17,18)3)23(2)10-8-16(25)12-15(23)13-20(22)26/h14-15,17-19,22H,4-13H2,1-3H3,(H,27,28)/t14-,15+,17-,18+,19+,22+,23+,24-/m1/s1
Instrument: JMS-T100LP, JEOL
Instrument type: LC-ESI-TOF
Ms type: MS
Ion mode: NEGATIVE
Ionization: ESI
m/z	relative intensity
61.97	51
79.94	56
112.98	59
273.23	101
317.21	64
323.03	89
373.88	67
376.15	74
387.25	999
388.25	265
389.27	52
397.26	107
404.22	56
419.28	63
433.53	55
491.89	117
509.57	69
522.49	55
538.15	122
552.16	66
571.91	73
577.25	62
585.02	142
591.84	106
618.83	70
695.14	118
706.71	53
709.13	68
740.66	83
775.53	283
776.54	173
777.54	69
797.50	119
798.52	71
807.54	121
808.56	77
850.02	55
877.95	55
883.46	54
920.76	55
929.94	54
967.21	71
