Mass spectrum: 3b,4a,12a-Trihydroxy-5b-cholan-24-oic acid; LC-ESI-TOF; MS; Negative; Orifice voltage -60 V
Name: 3b,4a,12a-Trihydroxy-5b-cholan-24-oic acid
Class: Natural Product; Bile acid
Formula: C24H40O5
Exact mass: 408.28757
SMILES: O=C(O)CC[C@@H](C)C2CCC1C3CC[C@@H]4[C@H](O)[C@@H](O)CC[C@]4(C)C3C[C@H](O)[C@@]12C
InChI: InChI=1S/C24H40O5/c1-13(4-9-21(27)28)15-7-8-16-14-5-6-17-22(29)19(25)10-11-23(17,2)18(14)12-20(26)24(15,16)3/h13-20,22,25-26,29H,4-12H2,1-3H3,(H,27,28)/t13-,14?,15?,16?,17-,18?,19+,20+,22+,23+,24-/m1/s1
Instrument: JMS-T100LP, JEOL
Instrument type: LC-ESI-TOF
Ms type: MS
Ion mode: NEGATIVE
Ionization: ESI
m/z	relative intensity
51.25484	3
59.22331	94
60.22423	2
61.19187	3
62.18993	33
65.16455	1
69.1787	356
69.33674	1
70.18037	5
73.20214	8
79.12057	13
81.07354	2
85.17649	2
87.18904	1
89.16572	2
93.16939	1
97.08833	2
99.13007	2
111.08403	2
113.08853	47
121.13775	3
125.0903	5
151.12094	5
153.096	6
155.03712	7
157.1848	3
171.06434	1
171.19003	2
199.21079	3
212.10922	24
213.1125	4
214.10851	1
221.18859	2
227.22903	8
233.18486	3
241.2456	4
248.98947	2
250.17323	3
253.24036	5
255.25625	27
256.2617	4
265.17345	2
269.26978	2
279.25662	3
280.28342	2
281.26766	6
282.28026	1
283.28568	15
284.28767	3
297.17294	4
311.18039	8
325.2013	8
326.20784	2
339.21701	5
367.27539	10
368.28458	3
389.27444	30
390.28215	9
391.28143	3
403.26084	2
405.2686	7
406.27322	2
407.27763	999
408.28078	283
409.28386	47
410.29694	6
421.28299	9
422.30053	2
423.2875	2
425.24809	4
427.24962	2
429.26129	15
430.26819	4
435.27909	5
439.30132	2
443.2577	4
449.28243	137
450.28851	45
451.29517	8
452.2934	2
453.31281	2
461.28058	4
465.26374	4
467.27973	2
471.27936	3
475.2605	17
476.26715	5
479.33344	9
480.34741	3
481.32288	2
489.27591	11
490.28476	3
491.29799	3
497.25479	3
503.27257	3
505.27588	3
511.27014	2
517.27164	3
521.32244	2
531.27775	2
543.25266	5
793.44456	2
797.51956	42
798.53015	23
799.52455	9
800.54709	3
811.54698	2
813.53865	2
815.52842	135
816.52997	74
817.54547	24
818.55774	7
819.53581	3
829.55125	8
830.56395	4
831.56715	2
837.51525	52
838.51476	28
839.53388	15
840.53567	6
841.54347	2
855.5372	2
857.54396	31
858.54417	18
859.55746	9
860.54651	4
879.53899	10
880.5343	6
881.52734	3
887.59101	2
899.56383	3
