Mass spectrum: N-[(3alpha,5beta,7beta)-3,7-Dihydroxy-24-oxocholan-24-yl]glycine; LC-ESI-TOF; MS; NEGATIVE; In source decay -60 V
Name: N-[(3alpha,5beta,7beta)-3,7-Dihydroxy-24-oxocholan-24-yl]glycine
Class: Natural Product; Bile acids
Formula: C26H43NO5
Exact mass: 449.31412
SMILES: C[C@H](CCC(=O)NCC(=O)O)[C@H]1CC[C@@H]2[C@@]1(CC[C@H]3[C@H]2[C@H](C[C@H]4[C@@]3(CC[C@H](C4)O)C)O)C
InChI: InChI=1S/C26H43NO5/c1-15(4-7-22(30)27-14-23(31)32)18-5-6-19-24-20(9-11-26(18,19)3)25(2)10-8-17(28)12-16(25)13-21(24)29/h15-21,24,28-29H,4-14H2,1-3H3,(H,27,30)(H,31,32)/t15-,16+,17-,18-,19+,20+,21+,24+,25+,26-/m1/s1
Instrument: JMS-T100LP, JEOL
Instrument type: LC-ESI-TOF
Ms type: MS
Ion mode: NEGATIVE
Ionization: ESI
m/z	relative intensity
96.92	56
212.07	783
221.22	95
244.97	59
280.99	58
293.03	51
303.98	62
307.01	53
314.06	106
350.44	57
437.58	113
448.30	999
449.31	300
490.31	53
577.44	89
598.19	92
787.32	51
794.32	184
897.66	85
898.67	55
