Mass spectrum: 3a,4b,12a-Trihydroxy-5b-cholan-24-oic acid; LC-ESI-TOF; MS; Negative; Orifice voltage -30 V
Name: 3a,4b,12a-Trihydroxy-5b-cholan-24-oic acid
Class: Natural Product; Bile acid
Formula: C24H40O5
Exact mass: 408.28757
SMILES: C[C@H](CCC(=O)O)[C@H]1CC[C@@H]2[C@@]1([C@H](C[C@H]3[C@H]2CC[C@H]4[C@@]3(CC[C@H]([C@@H]4O)O)C)O)C
InChI: InChI=1S/C24H40O5/c1-13(4-9-21(27)28)15-7-8-16-14-5-6-17-22(29)19(25)10-11-23(17,2)18(14)12-20(26)24(15,16)3/h13-20,22,25-26,29H,4-12H2,1-3H3,(H,27,28)/t13-,14+,15-,16+,17-,18+,19-,20+,22-,23+,24-/m1/s1
Instrument: JMS-T100LP, JEOL
Instrument type: LC-ESI-TOF
Ms type: MS
Ion mode: NEGATIVE
Ionization: ESI
m/z	relative intensity
59.22487	536
60.22606	11
61.22517	3
62.19167	75
63.24567	2
69.18066	362
70.18316	4
73.20576	34
74.20507	1
75.17977	472
76.1828	14
77.18139	4
79.08248	10
81.07587	9
85.17801	8
87.18872	27
89.12033	1
89.16722	63
90.16991	2
91.17962	9
93.17148	2
97.0923	2
99.13326	12
101.18509	3
111.09559	3
113.0911	954
113.295	2
113.32446	1
113.3678	3
113.76398	10
114.09425	22
115.09588	8
121.1278	3
125.09661	2
127.09587	5
128.12543	3
129.11522	3
135.14993	2
137.11632	2
141.09487	2
143.10942	2
143.18365	4
145.0794	1
145.11806	2
151.1248	12
153.0999	28
154.10538	1
155.05354	3
157.07923	1
157.1893	10
167.05442	9
171.0875	2
171.19704	4
181.03518	4
195.04189	3
199.2158	12
200.21783	2
205.20297	2
212.11492	50
213.11885	10
214.11368	2
221.19426	2
225.22178	6
227.01378	10
227.23476	36
228.2392	6
233.19143	5
239.236	5
241.25235	18
242.25082	4
248.99368	24
250.17912	7
251.20238	3
253.24673	37
254.25503	8
255.26271	80
256.26823	14
257.27212	3
265.18006	7
267.26377	6
269.2796	8
270.28243	2
275.20074	2
277.21915	2
279.26152	7
280.28756	3
281.27404	24
282.27933	4
283.292	33
284.29596	6
291.22641	2
293.21314	4
297.18032	5
299.25749	2
301.26592	3
307.25511	3
309.19774	5
311.18969	10
312.19659	2
323.23894	2
325.21232	9
326.22349	2
327.27197	2
337.23591	2
339.22789	7
353.23465	5
367.32358	7
385.19037	4
389.29118	2
391.29731	6
392.30142	2
395.27041	2
395.3894	2
397.25435	2
407.28845	999
407.7894	33
408.29269	284
409.29557	48
410.30785	5
410.67223	2
417.21663	4
421.18108	7
423.15467	2
431.18947	6
432.18625	2
439.32123	4
440.31966	2
443.26292	21
444.2798	6
445.25835	10
446.27329	3
449.28581	3
453.29375	51
454.3041	17
455.30945	5
459.2286	3
461.29332	10
462.31305	3
465.25574	7
466.27894	2
467.30777	31
468.31409	9
469.31961	2
470.29346	2
471.31092	2
475.27323	22
476.28036	7
477.2899	2
481.31612	4
489.29005	12
490.29832	4
497.3125	7
498.31936	2
499.16878	19
500.3364	6
505.28319	33
506.29032	10
507.3012	2
519.29716	2
521.27555	34
522.28009	9
523.30446	3
527.24746	6
543.27611	8
544.29132	3
557.2559	2
561.33203	4
573.2865	2
587.33519	3
611.41376	35
611.9137	27
612.41026	14
612.90471	6
613.42506	3
620.35584	7
621.36374	4
635.48113	6
636.48184	2
649.48751	3
661.49566	7
662.50634	4
663.50649	15
664.52121	8
665.51719	3
677.52183	2
683.46579	2
685.49675	3
688.54957	4
689.53186	6
690.54845	3
691.55237	8
692.55164	3
715.47639	3
793.45801	9
794.47146	6
797.552	6
798.5566	3
799.55725	3
815.55196	202
816.55277	111
817.57126	39
818.58238	11
821.49034	3
822.48023	2
837.54229	52
838.54028	28
839.55902	11
840.55473	3
851.5371	2
935.54304	4
936.54517	2
