Mass spectrum: 3b,4a-Dihydroxy-5b-cholan-24-oic acid; LC-ESI-TOF; MS; Negative; Orifice voltage -90 V
Name: 3b,4a-Dihydroxy-5b-cholan-24-oic acid
Class: Natural Product; Bile acids
Formula: C24H40O4
Exact mass: 392.29266
SMILES: O=C(O)CC[C@@H](C)C1CCC2C3CC[C@@H]4[C@H](O)[C@@H](O)CC[C@]4(C)C3CC[C@]12C
InChI: InChI=1S/C24H40O4/c1-14(4-9-21(26)27)16-7-8-17-15-5-6-19-22(28)20(25)11-13-24(19,3)18(15)10-12-23(16,17)2/h14-20,22,25,28H,4-13H2,1-3H3,(H,26,27)/t14-,15?,16?,17?,18?,19-,20+,22+,23-,24-/m1/s1
Instrument: JMS-T100LP, JEOL
Instrument type: LC-ESI-TOF
Ms type: MS
Ion mode: NEGATIVE
Ionization: ESI
m/z	relative intensity
61.95468	116
62.17995	1
68.96647	5
78.89114	997
79.11497	4
79.46261	6
79.55496	1
79.93157	4
80.88966	999
81.06185	2
81.14481	5
81.48675	9
96.94137	5
126.89422	9
127.05446	1
138.86268	1
165.89039	2
180.82496	6
182.82252	20
184.81828	8
212.07995	1
255.23889	5
265.15948	2
283.28132	4
311.16723	7
325.19478	7
325.37462	2
326.19687	1
339.21585	5
389.28271	5
391.28252	428
392.28741	140
393.30835	23
394.30958	1
423.31802	43
424.32943	12
425.35117	2
449.25948	9
450.27247	3
451.25119	3
471.22743	10
472.21948	2
473.22051	10
474.2223	2
476.27535	2
493.21097	18
494.20628	5
495.2007	14
496.2169	6
783.59848	47
784.60094	45
786.63029	2
805.58804	13
806.60411	7
807.55735	4
863.53443	3
864.56068	2
865.52378	4
907.49308	3
909.51313	3
