Mass spectrum: 3b,4b-Dihydroxy-5b-cholan-24-oic acid; LC-ESI-TOF; MS; NEGATIVE; Orifice voltage -90 V
Name: 3b,4b-Dihydroxy-5b-cholan-24-oic acid
Class: Natural Product; Bile acids
Formula: C24H40O4
Exact mass: 392.29266
SMILES: C[C@H](CCC(=O)O)[C@H]1CC[C@@H]2[C@@]1(CC[C@H]3[C@H]2CC[C@H]4[C@@]3(CC[C@@H]([C@@H]4O)O)C)C
InChI: InChI=1S/C24H40O4/c1-14(4-9-21(26)27)16-7-8-17-15-5-6-19-22(28)20(25)11-13-24(19,3)18(15)10-12-23(16,17)2/h14-20,22,25,28H,4-13H2,1-3H3,(H,26,27)/t14-,15+,16-,17+,18+,19-,20+,22-,23-,24-/m1/s1
Instrument: JMS-T100LP, JEOL
Instrument type: LC-ESI-TOF
Ms type: MS
Ion mode: NEGATIVE
Ionization: ESI
m/z	relative intensity
61.95417	151
68.96705	5
78.89081	999
79.11108	6
79.45573	4
79.93517	4
80.88937	996
81.06093	1
81.1433	4
81.36407	1
81.39876	1
81.42893	1
81.4923	4
96.94136	2
126.89379	9
136.86392	2
138.86172	2
180.82511	5
182.82112	8
184.81702	4
255.23944	3
283.27515	1
297.15966	7
311.16605	17
312.1676	2
325.19007	19
326.19787	4
339.20958	14
340.21295	2
391.28081	320
391.72062	1
391.8673	4
392.28523	111
393.30575	18
394.31355	1
407.31114	3
423.31602	15
424.32241	4
449.25244	6
450.26695	2
451.25263	2
471.23066	4
473.22029	5
493.2061	8
495.20174	9
496.21109	3
783.59182	60
784.59963	41
785.59398	19
786.61155	6
805.57789	5
806.59395	2
863.53656	4
865.5307	4
