Mass spectrum: 2b,3a,12a-Trihydroxy-5b-cholan-24-oic acid; LC-ESI-TOF; MS; Negative; Orifice voltage -30 V
Name: 2b,3a,12a-Trihydroxy-5b-cholan-24-oic acid
Class: Natural Product; Bile acids
Formula: C24H40O5
Exact mass: 408.28757
SMILES: C[C@H](CCC(=O)O)[C@H]1CC[C@@H]2[C@@]1([C@H](C[C@H]3[C@H]2CC[C@H]4[C@@]3(C[C@@H]([C@H](C4)O)O)C)O)C
InChI: InChI=1S/C24H40O5/c1-13(4-9-22(28)29)16-7-8-17-15-6-5-14-10-19(25)20(26)12-23(14,2)18(15)11-21(27)24(16,17)3/h13-21,25-27H,4-12H2,1-3H3,(H,28,29)/t13-,14-,15+,16-,17+,18+,19+,20+,21+,23+,24-/m1/s1
Instrument: JMS-T100LP, JEOL
Instrument type: LC-ESI-TOF
Ms type: MS
Ion mode: NEGATIVE
Ionization: ESI
m/z	relative intensity
59.05156	24
62.02455	39
69.02414	362
75.03551	392
85.04744	30
112.99695	999
113.63035	9
114.00118	25
114.23404	6
162.98263	5
212.06989	47
213.07517	12
226.9812	42
248.9575	56
298.94487	27
407.27257	293
407.77224	13
408.28413	81
409.28501	13
505.28248	19
815.56913	15
816.56235	9
837.54235	12
838.54885	7
