Mass spectrum: 3a,4b-Dihydroxy-5b-cholan-24-oic acid; LC-ESI-TOF; MS; Negative; Orifice voltage -30 V
Name: 3a,4b-Dihydroxy-5b-cholan-24-oic acid
Class: Natural Product; Bile acids
Formula: C24H40O4
Exact mass: 392.29266
SMILES: C[C@H](CCC(=O)O)[C@H]1CC[C@@H]2[C@@]1(CC[C@H]3[C@H]2CC[C@H]4[C@@]3(CC[C@H]([C@@H]4O)O)C)C
InChI: InChI=1S/C24H40O4/c1-14(4-9-21(26)27)16-7-8-17-15-5-6-19-22(28)20(25)11-13-24(19,3)18(15)10-12-23(16,17)2/h14-20,22,25,28H,4-13H2,1-3H3,(H,26,27)/t14-,15+,16-,17+,18+,19-,20-,22-,23-,24-/m1/s1
Instrument: JMS-T100LP, JEOL
Instrument type: LC-ESI-TOF
Ms type: MS
Ion mode: NEGATIVE
Ionization: ESI
m/z	relative intensity
58.97945	86
59.98383	1
61.95477	137
62.48936	1
68.96683	13
74.98173	4
78.89125	999
79.11357	3
79.46627	5
79.53097	1
80.88978	992
81.14396	5
81.49181	8
87.02186	5
89.00498	9
92.91152	1
98.93088	2
112.97275	50
115.0654	1
126.89432	16
130.97822	2
136.86594	7
137.0193	2
138.86395	5
144.98421	3
157.1171	3
158.84814	4
160.83737	11
162.84103	4
163.89341	2
165.89181	2
180.82645	13
182.82078	18
184.8201	10
194.99117	6
212.07759	4
227.20498	2
230.99262	3
231.94192	8
233.93404	13
235.93184	7
239.0656	2
244.98752	3
255.23212	3
265.15717	3
294.98457	3
297.18076	2
309.17391	1
311.16698	7
325.19347	8
326.187	1
339.20878	7
340.21543	2
344.98033	1
391.29114	38
392.28872	14
393.31109	3
423.32083	7
424.33308	2
427.26694	60
428.27262	18
429.27703	22
430.27688	4
431.27345	1
437.29914	5
445.08955	4
447.08955	1
449.2603	1
451.31383	27
451.92172	2
452.31462	8
452.70137	2
453.31613	1
454.29721	19
455.30218	5
471.21348	187
472.22394	51
473.21119	187
474.22227	59
476.26038	2
481.34172	2
485.25582	2
493.22322	3
494.99147	2
495.22505	2
505.29826	5
506.32151	2
507.35818	2
529.1848	1
531.20493	1
531.31076	1
587.4533	3
587.93747	2
647.56226	2
703.4838	4
717.50148	3
718.51067	2
731.52603	4
783.60246	38
784.36898	1
784.60641	22
785.5969	10
786.61863	3
819.57218	29
820.5814	17
821.56459	25
823.56861	1
863.52838	54
864.54044	31
865.51751	118
