Mass spectrum: 3a,6b,7b-Trihydroxy-5a-cholan-24-oic acid; LC-ESI-TOF; MS; NEGATIVE; In source decay -30 V
Name: 3a,6b,7b-Trihydroxy-5a-cholan-24-oic acid
Name: 3alpha,6beta,7beta-Trihydroxy-5alpha-cholan-24-oic Acid
Class: Natural Product; Bile acids
Formula: C24H40O5
Exact mass: 408.28757
SMILES: C(C32[H])(O)C(C(C(C2([H])CCC(C([H])(C(C)CCC(O)=O)4)(C3([H])CC4)C)(C)1)([H])CC(O)CC1)O
InChI: InChI=1S/C24H40O5/c1-13(4-7-19(26)27)15-5-6-16-20-17(9-11-23(15,16)2)24(3)10-8-14(25)12-18(24)21(28)22(20)29/h13-18,20-22,25,28-29H,4-12H2,1-3H3,(H,26,27)/t13-,14-,15-,16+,17+,18-,20+,21+,22-,23-,24-/m1/s1
Instrument: JMS-T100LP, JEOL
Instrument type: LC-ESI-TOF
Ms type: MS
Ion mode: NEGATIVE
Ionization: ESI
m/z	relative intensity
61.98	558
75.00	274
89.01	999
212.08	182
255.25	90
313.11	71
326.21	52
368.93	61
373.13	41
395.21	54
407.28	525
408.30	137
413.58	45
419.40	44
443.28	72
453.29	378
454.32	134
475.29	75
485.41	62
497.34	73
506.40	48
512.98	45
535.39	56
539.49	43
553.27	40
585.69	51
595.09	58
603.46	45
611.45	135
651.50	61
678.91	51
685.83	49
702.10	68
706.73	44
710.89	65
715.57	89
724.20	72
754.78	77
800.72	68
815.59	179
816.60	122
837.59	46
845.66	49
856.17	75
883.79	53
893.60	48
921.83	52
931.15	98
955.74	47
981.45	48
