Mass spectrum: 2b,3a,12a-Trihydroxy-5b-cholan-24-oic acid; LC-ESI-TOF; MS; Negative; Orifice voltage -90 V
Name: 2b,3a,12a-Trihydroxy-5b-cholan-24-oic acid
Class: Natural Product; Bile acids
Formula: C24H40O5
Exact mass: 408.28757
SMILES: C[C@H](CCC(=O)O)[C@H]1CC[C@@H]2[C@@]1([C@H](C[C@H]3[C@H]2CC[C@H]4[C@@]3(C[C@@H]([C@H](C4)O)O)C)O)C
InChI: InChI=1S/C24H40O5/c1-13(4-9-22(28)29)16-7-8-17-15-6-5-14-10-19(25)20(26)12-23(14,2)18(15)11-21(27)24(16,17)3/h13-21,25-27H,4-12H2,1-3H3,(H,28,29)/t13-,14-,15+,16-,17+,18+,19+,20+,21+,23+,24-/m1/s1
Instrument: JMS-T100LP, JEOL
Instrument type: LC-ESI-TOF
Ms type: MS
Ion mode: NEGATIVE
Ionization: ESI
m/z	relative intensity
61.02258	14
62.02014	72
63.99247	12
65.00447	12
69.02439	152
78.98405	16
80.93793	8
85.04775	10
93.04979	11
98.97109	8
112.99736	20
212.07924	20
255.23691	12
283.26144	9
298.94595	43
361.26913	10
407.28593	999
408.2856	286
409.28649	47
429.2685	27
461.28546	54
462.2986	17
815.57206	20
816.56528	12
837.54536	62
838.55186	34
839.54188	11
859.53399	9
