Mass spectrum: 3b,6b,12a-Trihydroxy-5b-cholan-24-oic acid; LC-ESI-TOF; MS; Orifice voltage -120 V; Negative; In-suorce decay
Name: 3b,6b,12a-Trihydroxy-5b-cholan-24-oic acid
Class: Natural Product; Bile acid
Formula: C24H40O5
Exact mass: 408.28757
SMILES: C[C@H](CCC(=O)O)[C@H]1CC[C@@H]2[C@@]1([C@H](C[C@H]3[C@H]2C[C@H]([C@H]4[C@@]3(CC[C@@H](C4)O)C)O)O)C
InChI: InChI=1S/C24H40O5/c1-13(4-7-22(28)29)16-5-6-17-15-11-20(26)19-10-14(25)8-9-23(19,2)18(15)12-21(27)24(16,17)3/h13-21,25-27H,4-12H2,1-3H3,(H,28,29)/t13-,14+,15+,16-,17+,18+,19+,20-,21+,23-,24-/m1/s1
Instrument: JMS-T100LP, JEOL
Instrument type: LC-ESI-TOF
Ms type: MS
Ion mode: NEGATIVE
Ionization: ESI
m/z	relative intensity
59.5042	9
61.4619	25
62.45507	111
63.42318	51
64.41441	16
69.41046	133
73.39424	11
79.30766	731
79.84734	2
80.30257	22
81.25406	140
85.34205	10
89.31674	12
96.20992	6
97.21371	41
99.19989	8
113.17268	150
114.17794	5
116.17522	5
125.15002	7
127.04705	201
129.15442	6
141.121	4
143.13471	8
153.11402	21
155.05219	52
167.05394	51
171.00059	4
173.05939	6
183.05435	12
187.04147	18
195.02598	7
197.99215	12
199.05061	6
205.18069	14
207.19571	7
211.00531	12
225.01357	9
247.17999	19
248.96528	368
249.97283	18
250.9831	5
255.24076	13
283.26489	8
287.24673	14
293.20076	6
297.23292	3
302.98549	5
309.2272	11
311.22278	10
325.25905	26
326.25793	6
327.27056	42
328.27569	11
337.21679	6
339.21413	7
341.26154	13
342.2655	4
343.27091	110
344.27634	25
345.29058	37
346.29061	9
353.25512	16
359.2825	11
361.28441	39
362.29012	10
363.30284	51
364.30681	14
365.30466	3
371.2749	20
372.27135	6
375.30402	15
377.3178	17
381.25185	4
384.95159	35
389.28807	17
390.29007	5
391.27973	4
395.32793	56
396.33945	14
397.3036	7
405.28204	27
406.28003	7
407.28893	999
408.29493	292
409.29554	57
410.29877	9
413.30147	3
421.282	4
423.24414	6
425.25077	33
426.25404	8
427.26304	66
428.27129	20
429.27637	160
430.27963	44
431.29148	8
438.96188	10
449.25871	7
451.29478	3
461.30327	61
462.31453	19
463.30557	5
465.25894	15
466.27159	3
467.26517	7
471.27492	17
472.28022	5
481.27594	16
483.29549	8
485.30286	5
487.24783	6
489.28658	10
490.29516	3
499.21286	2
503.26906	11
505.29867	4
511.28172	6
519.31352	8
520.33864	3
520.93395	16
543.27489	14
559.35184	3
565.27671	9
583.32252	13
605.30916	8
647.32539	4
657.37113	5
679.27298	7
687.34912	2
701.26849	7
797.583	3
837.56071	69
838.56123	36
839.56401	14
840.57566	4
859.53721	26
860.53611	14
861.53542	4
881.50255	17
882.49561	9
935.47881	4
