Mass spectrum: 3a,6b-Dihydroxy-5b-cholan-24-oic acid; LC-ESI-TOF; MS; Negative; Orifice voltage -90 V
Name: 3a,6b-Dihydroxy-5b-cholan-24-oic acid
Class: Natural Product; Bile acid
Formula: C24H40O4
Exact mass: 392.29266
SMILES: C[C@H](CCC(=O)O)[C@H]1CC[C@@H]2[C@@]1(CC[C@H]3[C@H]2C[C@H]([C@H]4[C@@]3(CC[C@H](C4)O)C)O)C
InChI: InChI=1S/C24H40O4/c1-14(4-7-22(27)28)17-5-6-18-16-13-21(26)20-12-15(25)8-10-24(20,3)19(16)9-11-23(17,18)2/h14-21,25-26H,4-13H2,1-3H3,(H,27,28)/t14-,15-,16+,17-,18+,19+,20+,21-,23-,24-/m1/s1
Instrument: JMS-T100LP, JEOL
Instrument type: LC-ESI-TOF
Ms type: MS
Ion mode: NEGATIVE
Ionization: ESI
m/z	relative intensity
61.13128	19
62.13377	193
64.10381	37
65.10932	51
69.12548	206
79.06867	12
80.06611	10
81.02315	7
85.12472	26
93.11942	59
97.04077	13
99.08362	12
113.0456	27
136.08002	10
141.03475	37
146.12661	9
148.14037	12
156.0356	11
173.01963	6
205.16577	37
206.1688	7
212.07767	96
213.08111	15
219.17892	22
220.16559	7
227.20552	14
241.22	11
247.05108	8
248.96061	12
255.2342	43
281.24956	7
283.26248	14
389.27028	36
390.27991	10
391.28377	999
392.2881	284
393.296	48
394.29819	5
413.26929	52
414.27403	15
421.30215	10
423.3118	173
424.31575	53
425.32994	9
445.29558	51
446.30681	16
459.278	10
467.28299	16
521.29058	12
783.58817	19
784.58764	11
805.56628	18
806.57066	9
