Mass spectrum: 3a,6b-Dihydroxy-5b-cholan-24-oic acid; LC-ESI-TOF; MS; Negative; Orifice voltage -30 V
Name: 3a,6b-Dihydroxy-5b-cholan-24-oic acid
Class: Natural Product; Bile acid
Formula: C24H40O4
Exact mass: 392.29266
SMILES: C[C@H](CCC(=O)O)[C@H]1CC[C@@H]2[C@@]1(CC[C@H]3[C@H]2C[C@H]([C@H]4[C@@]3(CC[C@H](C4)O)C)O)C
InChI: InChI=1S/C24H40O4/c1-14(4-7-22(27)28)17-5-6-18-16-13-21(26)20-12-15(25)8-10-24(20,3)19(16)9-11-23(17,18)2/h14-21,25-26H,4-13H2,1-3H3,(H,27,28)/t14-,15-,16+,17-,18+,19+,20+,21-,23-,24-/m1/s1
Instrument: JMS-T100LP, JEOL
Instrument type: LC-ESI-TOF
Ms type: MS
Ion mode: NEGATIVE
Ionization: ESI
m/z	relative intensity
51.19924	2
59.16666	35
61.14179	3
62.13387	55
63.1888	3
69.12548	227
70.12752	3
73.13787	7
75.12604	659
75.29199	2
75.34494	1
75.36721	1
76.12777	19
77.12591	4
85.12418	37
87.10193	1
87.13694	2
89.11555	20
91.11672	2
93.11933	24
94.12063	2
95.06712	2
97.0404	3
99.08304	11
100.07779	3
101.13447	2
107.1042	3
111.04032	3
113.0453	999
113.31392	4
113.71105	5
114.0477	21
114.26979	3
115.0481	5
117.1074	3
119.04673	3
121.07999	4
123.06141	6
127.06178	2
129.05977	19
137.06248	5
139.06852	2
143.05669	3
143.13667	4
145.03156	5
151.07318	2
153.04486	2
155.06331	2
157.14602	6
161.06557	2
163.00267	4
163.13064	3
167.01223	11
169.07025	2
171.0235	2
171.15368	4
173.02091	9
178.99214	3
180.99827	3
181.98165	2
183.03752	4
185.12402	3
194.99737	5
197.01446	3
199.17579	5
205.16544	13
206.16894	2
210.98952	5
212.07719	103
213.08179	15
214.07516	6
215.06453	4
219.17825	6
227.00568	22
228.98003	3
230.98856	2
233.15522	2
235.17241	2
241.21874	3
244.98678	4
248.95989	13
255.23365	9
256.23423	1
271.00499	5
281.02047	5
281.24819	2
283.26176	2
294.98899	3
300.06911	2
325.01383	4
344.98159	2
369.00572	2
391.28436	41
392.29296	13
393.30052	2
394.98244	1
423.01891	2
423.3143	10
424.31651	3
437.29748	3
444.98206	2
489.28908	4
604.37899	2
