Mass spectrum: 2-{[(3alpha,5beta,7alpha,12alpha)-3,7,12-Trihydroxy-24-oxocholan-24-yl]amino}ethanesulfonic acid; LC-ESI-TOF; MS; NEGATIVE; In source decay -150 V
Name: 2-{[(3alpha,5beta,7alpha,12alpha)-3,7,12-Trihydroxy-24-oxocholan-24-yl]amino}ethanesulfonic acid
Name: Tauro 3a,7a,12a-(OH)3-5b-cholanoic acid
Class: Natural Product; Bile acids
Formula: C26H45NO7S
Exact mass: 515.29167
SMILES: CC(CCC(=O)NCCS(=O)(=O)O)C1CCC2C1(C(CC3C2C(CC4C3(CCC(C4)O)C)O)O)C
InChI: InChI=1S/C26H45NO7S/c1-15(4-7-23(31)27-10-11-35(32,33)34)18-5-6-19-24-20(14-22(30)26(18,19)3)25(2)9-8-17(28)12-16(25)13-21(24)29/h15-22,24,28-30H,4-14H2,1-3H3,(H,27,31)(H,32,33,34)/t15-,16+,17-,18-,19+,20+,21-,22+,24+,25+,26-/m1/s1
Instrument: JMS-T100LP, JEOL
Instrument type: LC-ESI-TOF
Ms type: MS
Ion mode: NEGATIVE
Ionization: ESI
m/z	relative intensity
79.95	131
80.96	60
84.29	22
106.97	66
110.65	21
124.00	108
188.05	36
212.88	20
238.36	54
268.04	24
279.69	29
284.96	27
295.89	36
322.45	57
326.91	31
359.38	44
410.38	21
492.02	30
507.31	21
514.28	999
515.29	319
600.36	29
620.75	32
