Mass spectrum: 3b,6a,7a-Trihydroxy-5b-cholan-24-oic acid; LC-ESI-TOF; MS; Orifice voltage -90 V; Negative; In-suorce decay
Name: 3b,6a,7a-Trihydroxy-5b-cholan-24-oic acid
Class: Natural Product; Bile acid
Formula: C24H40O5
Exact mass: 408.28757
SMILES: C[C@H](CCC(=O)O)[C@H]1CC[C@@H]2[C@@]1(CC[C@H]3[C@H]2[C@@H]([C@@H]([C@H]4[C@@]3(CC[C@@H](C4)O)C)O)O)C
InChI: InChI=1S/C24H40O5/c1-13(4-7-19(26)27)15-5-6-16-20-17(9-11-23(15,16)2)24(3)10-8-14(25)12-18(24)21(28)22(20)29/h13-18,20-22,25,28-29H,4-12H2,1-3H3,(H,26,27)/t13-,14+,15-,16+,17+,18+,20+,21-,22+,23-,24-/m1/s1
Instrument: JMS-T100LP, JEOL
Instrument type: LC-ESI-TOF
Ms type: MS
Ion mode: NEGATIVE
Ionization: ESI
m/z	relative intensity
59.02952	13
61.00132	47
62.00184	87
63.97804	6
69.00589	365
73.01735	8
78.96625	275
79.96749	4
80.92441	25
85.03504	7
96.96793	9
112.98778	63
125.00182	13
126.9065	50
153.03203	10
154.97294	25
166.99562	13
187.00406	9
248.95885	94
249.9656	6
255.23614	16
283.2631	8
384.94493	7
389.27904	22
390.28029	6
391.28497	6
405.27219	10
407.27788	999
408.28159	282
409.29007	50
410.29364	5
421.30044	18
425.29288	7
429.265	96
430.26573	25
439.30452	706
440.31012	203
440.82605	4
441.3153	37
442.32737	5
461.29126	35
462.29686	12
465.24779	19
467.25183	7
475.28233	11
476.27815	6
483.29619	11
489.28301	33
490.29815	12
511.27514	8
543.25994	20
544.26877	6
583.31799	16
797.56708	7
815.5681	95
816.57826	54
817.59293	17
818.59121	5
837.54841	249
838.55352	133
839.55955	45
840.57081	12
859.56006	13
860.55085	8
881.54785	6
