Mass spectrum: 1b,3a,12a-Trihydroxy-5b-cholan-24-oic acid; LC-ESI-TOF; MS; Negative; Orifice voltage -60 V
Name: 1b,3a,12a-Trihydroxy-5b-cholan-24-oic acid
Class: Natural Product; Bile acids
Formula: C24H40O5
Exact mass: 408.28757
SMILES: C[C@H](CCC(=O)O)[C@H]1CC[C@@H]2[C@@]1([C@H](C[C@H]3[C@H]2CC[C@H]4[C@@]3([C@@H](C[C@H](C4)O)O)C)O)C
InChI: InChI=1S/C24H40O5/c1-13(4-9-22(28)29)17-7-8-18-16-6-5-14-10-15(25)11-20(26)23(14,2)19(16)12-21(27)24(17,18)3/h13-21,25-27H,4-12H2,1-3H3,(H,28,29)/t13-,14-,15+,16+,17-,18+,19+,20-,21+,23+,24-/m1/s1
Instrument: JMS-T100LP, JEOL
Instrument type: LC-ESI-TOF
Ms type: MS
Ion mode: NEGATIVE
Ionization: ESI
m/z	relative intensity
58.99539	23
62.49181	8
68.97616	172
69.54038	9
80.89834	4
89.00826	38
90.43772	3
93.02351	7
212.07387	18
213.18252	8
227.2	36
228.19606	3
239.05952	16
241.21491	36
242.21368	10
253.2143	53
254.21878	11
255.23466	109
256.22427	11
257.23469	1
264.16213	5
265.14967	40
266.13907	6
267.23627	14
269.24399	19
270.25067	3
271.22041	6
279.23771	10
280.54908	6
281.24051	43
282.24954	8
283.26038	32
284.27303	6
293.17544	14
295.25789	6
297.25626	9
298.70089	3
299.23079	3
299.80197	6
303.85657	4
308.25909	4
309.17034	12
310.32167	3
311.16318	29
312.17241	3
313.03728	7
325.19664	44
331.26127	8
331.9696	7
339.203	21
340.20233	2
353.20553	8
355.31311	11
366.4977	4
367.35567	7
370.32111	5
381.21965	2
385.61638	3
387.24991	5
388.51507	3
397.34674	5
399.55839	3
407.27612	999
408.2877	295
409.28862	49
415.19976	4
417.41231	4
418.06276	6
421.29842	3
422.30304	7
424.32801	5
425.3727	7
426.38216	4
427.34408	3
429.27118	5
432.39052	3
439.32988	11
440.82584	16
441.28379	3
443.25444	410
444.26004	112
445.24192	122
446.26222	40
449.29267	15
453.55001	15
454.39133	7
455.91269	27
457.31056	9
458.30674	4
459.8852	2
462.45439	6
463.15171	7
465.25952	46
466.26432	13
467.25747	19
469.63	3
470.28158	6
475.33059	7
477.28564	7
478.21312	3
478.50958	4
479.47696	2
481.28535	5
482.32024	7
484.88638	4
485.27578	2
486.28896	4
492.27253	7
493.27989	5
494.61591	7
495.29771	4
497.3065	13
504.75982	5
505.60759	6
506.56217	4
507.26543	6
508.1153	7
509.31163	5
512.41532	4
517.551	4
518.94632	13
521.31191	9
529.49822	5
531.24908	7
538.60965	5
540.10154	4
542.54227	6
543.25633	9
551.43258	6
553.19159	14
555.77283	7
561.442	10
562.97914	4
564.5744	5
572.45764	8
572.90895	3
579.35952	5
580.26776	4
581.06304	5
598.46647	2
600.64551	3
601.41127	3
627.48666	7
628.31367	6
635.45433	4
636.82186	5
637.5657	5
638.71207	5
659.02335	4
663.53966	9
664.51162	6
665.75798	6
681.6822	7
690.6671	9
691.61222	9
696.03652	3
711.26323	7
713.4182	5
716.45955	3
717.04335	5
719.42833	6
722.65672	5
729.51716	4
731.39671	2
732.78404	4
735.59459	5
738.71483	4
739.88463	5
743.60846	7
755.14374	4
759.36039	6
762.87239	6
765.54431	3
793.10126	3
793.99777	8
795.62606	11
801.63855	7
814.31992	7
815.56492	691
816.57508	402
817.56901	139
825.15278	11
827.76196	5
829.59423	5
834.81369	5
837.57453	44
838.56409	22
842.57947	4
843.6918	3
849.1099	6
851.56746	28
852.54804	18
853.54639	14
856.51048	4
857.58018	10
865.03482	10
865.72831	9
866.80375	8
868.12295	5
870.6774	3
871.72111	8
872.34764	4
873.54912	22
880.19822	6
881.23012	3
883.59354	6
888.50551	6
891.6704	5
894.82328	6
895.51096	16
899.62491	4
900.56201	9
907.43718	6
915.56852	3
924.56025	4
926.98101	3
927.60913	7
932.74975	3
934.89286	3
937.02039	14
939.34902	4
948.63795	3
952.05351	4
964.25761	5
964.91654	7
973.65015	5
985.01084	6
986.49109	11
988.65795	5
989.65884	4
