Mass spectrum: 3a,7a,16a-(OH)3-5b-cholanic acid; LC-ESI-TOF; MS; NEGATIVE; in source decay -150V
Name: 3a,7a,16a-(OH)3-5b-cholanic acid
Name: 3a,7a,16a-Trihydroxy-5b-cholan-24-oic Acid
Class: Natural Product; Bile acids
Formula: C24H40O5
Exact mass: 408.28757
SMILES: C(C3(C)4)([H])(CC(O)CC4)CC(C(C3([H])2)(C(C1(C)CC2)([H])CC(C1([H])C(C)CCC(O)=O)O)[H])O
InChI: InChI=1S/C24H40O5/c1-13(4-5-20(28)29)22-19(27)12-17-21-16(7-9-24(17,22)3)23(2)8-6-15(25)10-14(23)11-18(21)26/h13-19,21-22,25-27H,4-12H2,1-3H3,(H,28,29)/t13-,14+,15-,16+,17+,18-,19-,21-,22+,23+,24+/m1/s1
Instrument: JMS-T100LP, JEOL
Instrument type: LC-ESI-TOF
Ms type: MS
Ion mode: NEGATIVE
Ionization: ESI
m/z	relative intensity
57.25	25
59.22	37
62.19	62
63.16	49
69.22	137
79.12	88
80.11	199
81.07	45
83.20	45
89.16	26
95.18	92
96.08	31
97.09	150
99.21	184
109.17	30
113.09	203
119.15	116
127.09	34
135.19	38
139.18	22
153.19	117
157.08	23
171.08	24
177.18	44
183.06	272
184.06	36
185.05	23
197.07	24
221.23	23
231.20	61
233.21	31
245.21	27
248.98	44
261.24	54
271.22	163
272.23	34
273.24	32
289.23	36
297.22	30
299.24	44
309.24	28
311.24	39
313.26	30
315.28	52
316.27	24
317.27	40
323.25	28
325.26	191
326.26	52
327.27	83
329.26	27
331.27	26
339.21	31
341.26	56
343.27	119
344.28	32
345.3	101
346.29	25
353.25	29
355.23	29
359.30	26
361.28	35
363.30	27
367.27	66
368.28	22
371.27	26
389.27	137
390.27	42
391.23	39
405.27	28
407.28	999
408.29	297
409.28	86
411.26	29
421.28	37
425.25	33
429.26	63
435.26	24
449.29	28
465.26	49
475.25	25
489.28	20
503.27	21
797.52	47
798.52	26
815.53	79
816.53	45
817.55	27
837.51	238
838.52	136
839.52	59
840.53	21
859.50	44
860.50	25
