Mass spectrum: 1b,3a,12a-Trihydroxy-5b-cholan-24-oic acid; LC-ESI-TOF; MS; Negative; Orifice voltage -30 V
Name: 1b,3a,12a-Trihydroxy-5b-cholan-24-oic acid
Class: Natural Product; Bile acids
Formula: C24H40O5
Exact mass: 408.28757
SMILES: C[C@H](CCC(=O)O)[C@H]1CC[C@@H]2[C@@]1([C@H](C[C@H]3[C@H]2CC[C@H]4[C@@]3([C@@H](C[C@H](C4)O)O)C)O)C
InChI: InChI=1S/C24H40O5/c1-13(4-9-22(28)29)17-7-8-18-16-6-5-14-10-15(25)11-20(26)23(14,2)19(16)12-21(27)24(17,18)3/h13-21,25-27H,4-12H2,1-3H3,(H,28,29)/t13-,14-,15+,16+,17-,18+,19+,20-,21+,23+,24-/m1/s1
Instrument: JMS-T100LP, JEOL
Instrument type: LC-ESI-TOF
Ms type: MS
Ion mode: NEGATIVE
Ionization: ESI
m/z	relative intensity
58.99551	274
59.99597	5
68.9763	222
74.98711	216
86.118	13
87.02851	64
89.00844	577
90.01235	17
113.97431	11
115.0656	23
145.03593	12
145.87476	7
146.97314	30
157.11775	33
171.12912	12
196.82349	2
199.17049	6
202.12589	8
205.1537	2
210.07917	12
211.21686	9
212.0743	180
213.07109	12
214.07022	9
215.33107	9
227.19158	32
229.21261	11
230.57091	10
241.2154	19
250.1294	20
253.21481	24
254.21929	3
255.23518	74
256.24365	9
257.22576	14
258.57922	12
265.15021	5
269.24454	12
275.03906	7
275.69431	4
281.24108	25
283.27087	14
285.08901	10
289.31383	22
294.99525	14
297.31783	22
299.25178	22
301.30451	12
311.16381	9
312.29801	9
313.14219	4
315.12685	7
316.42548	17
324.05049	9
325.17604	6
331.3263	10
334.76801	7
339.23625	54
351.08284	10
356.04741	8
357.30513	14
358.24152	7
360.15152	6
376.43714	10
386.39294	4
395.37637	9
407.27694	999
408.28853	257
409.28944	46
413.64092	21
415.6931	27
417.84673	9
423.74634	43
431.27692	8
433.53185	9
439.30606	11
443.25533	123
444.27336	31
445.24281	30
447.88308	10
449.28108	11
453.29994	55
454.30431	23
457.58879	24
462.30325	12
463.16532	13
467.29663	35
470.26974	15
471.27994	7
473.56004	9
475.26731	15
478.51055	25
483.47384	8
484.45919	14
485.45853	15
487.3302	21
490.40543	12
492.2866	14
495.36429	8
497.30751	180
498.32001	59
505.29061	21
511.49625	13
515.8373	12
519.30992	30
520.30424	10
521.27259	80
522.26878	16
527.92733	86
533.86145	11
537.36679	11
539.33589	25
544.37065	57
547.01395	23
551.43369	28
553.44224	18
558.24981	8
562.36516	10
563.14809	12
565.43007	6
569.31862	21
572.12042	44
577.51803	14
579.44581	9
585.63343	18
590.16328	21
591.56721	12
593.61878	11
595.81776	21
598.25143	10
603.29285	26
605.39365	6
620.40697	10
623.75842	31
625.51123	9
634.13406	10
635.50018	18
644.05674	12
644.29607	17
649.5125	8
652.23396	17
654.26749	5
659.70569	23
663.52582	17
664.49777	34
670.77172	14
672.74219	7
675.52716	36
677.56597	19
678.50208	4
683.53132	20
685.21185	10
688.54819	10
689.53829	10
691.56711	11
695.40057	7
700.13322	18
701.47497	24
703.39622	15
705.69579	11
713.54557	56
715.54633	13
720.75824	10
722.38886	8
723.52981	15
736.68341	14
746.65052	65
757.02508	8
762.59722	9
784.46268	10
787.6848	17
789.80342	16
793.91634	11
795.57779	22
796.64204	33
799.30576	9
801.5901	22
804.16179	14
805.90085	7
807.30685	14
815.56656	670
816.57672	413
817.57065	144
837.57621	79
838.58284	44
841.60634	23
843.76198	13
845.59472	9
847.94422	26
849.30053	10
851.56917	23
852.54975	14
857.58191	15
858.58321	12
863.61579	28
871.30531	9
873.53345	12
874.56145	18
875.55517	29
879.57065	7
881.75683	8
886.47068	30
891.49622	23
894.73694	30
898.37211	8
900.58151	10
902.08545	19
906.6048	12
908.14928	12
914.00177	12
918.97955	9
922.96793	7
924.66963	12
925.70934	28
935.59764	18
940.68801	12
943.25647	10
948.96661	21
951.60088	25
960.20114	25
971.02421	21
981.46475	30
983.71852	8
984.69841	10
987.27065	9
989.67937	14
992.12816	9
993.74378	11
996.56963	24
999.26908	10
