Mass spectrum: 1b,3a,12a-Trihydroxy-5b-cholan-24-oic acid; LC-ESI-TOF; MS; Negative; Orifice voltage -90 V
Name: 1b,3a,12a-Trihydroxy-5b-cholan-24-oic acid
Class: Natural Product; Bile acids
Formula: C24H40O5
Exact mass: 408.28757
SMILES: C[C@H](CCC(=O)O)[C@H]1CC[C@@H]2[C@@]1([C@H](C[C@H]3[C@H]2CC[C@H]4[C@@]3([C@@H](C[C@H](C4)O)O)C)O)C
InChI: InChI=1S/C24H40O5/c1-13(4-9-22(28)29)17-7-8-18-16-6-5-14-10-15(25)11-20(26)23(14,2)19(16)12-21(27)24(17,18)3/h13-21,25-27H,4-12H2,1-3H3,(H,28,29)/t13-,14-,15+,16+,17-,18+,19+,20-,21+,23+,24-/m1/s1
Instrument: JMS-T100LP, JEOL
Instrument type: LC-ESI-TOF
Ms type: MS
Ion mode: NEGATIVE
Ionization: ESI
m/z	relative intensity
61.96616	51
68.97603	9
96.94709	7
255.22478	17
281.24	8
283.25987	6
311.16261	3
325.2173	5
339.20239	4
343.26311	10
407.27538	999
408.27505	299
409.28788	48
421.29766	4
429.2582	5
443.25363	10
449.29185	6
465.24597	26
466.26348	5
467.23114	10
475.29118	4
492.25856	4
519.30793	8
815.58028	94
816.5736	55
837.57301	56
838.56257	30
841.22703	1
