Mass spectrum: 3b,6a-(OH)2-5a-cholanic acid; LC-ESI-TOF; MS; NEGATIVE; In source decay -30 V
Name: 3b,6a-(OH)2-5a-cholanic acid
Name: 3b,6a-Dihydroxy-5a-cholan-24-oic Acid
Class: Natural Product; Bile acids
Formula: C24H40O4
Exact mass: 392.29266
SMILES: C(C1(C)4)([H])(C(C)CCC(O)=O)CCC1(C(C3([H])CC4)([H])CC(C(C3(C)2)([H])CC(O)CC2)O)[H]
InChI: InChI=1S/C24H40O4/c1-14(4-7-22(27)28)17-5-6-18-16-13-21(26)20-12-15(25)8-10-24(20,3)19(16)9-11-23(17,18)2/h14-21,25-26H,4-13H2,1-3H3,(H,27,28)/t14-,15+,16+,17-,18+,19+,20-,21+,23-,24-/m1/s1
Instrument: JMS-T100LP, JEOL
Instrument type: LC-ESI-TOF
Ms type: MS
Ion mode: NEGATIVE
Ionization: ESI
m/z	relative intensity
89.53	24
90.03	97
213.09	23
391.29	999
392.31	316
397.85	46
423.35	35
427.28	300
429.30	121
437.30	206
438.34	73
441.99	41
451.32	35
454.32	61
460.84	35
463.74	70
481.33	409
482.36	177
587.47	56
587.96	53
604.42	82
783.61	697
784.62	373
795.09	36
805.63	44
821.69	44
835.41	30
845.13	32
980.28	40
991.37	38
998.62	50
