Mass spectrum: 2b,3a,7a-Trihydroxy-5b-cholan-24-oic acid; LC-ESI-TOF; MS; Negative; Orifice voltage -90 V
Name: 2b,3a,7a-Trihydroxy-5b-cholan-24-oic acid
Name: LMST04010059
Class: Natural Product; Bile acids
Formula: C24H40O5
Exact mass: 408.28757
SMILES: C[C@H](CCC(=O)O)[C@H]1CC[C@@H]2[C@@]1(CC[C@H]3[C@H]2[C@@H](C[C@H]4[C@@]3(C[C@@H]([C@H](C4)O)O)C)O)C
InChI: InChI=1S/C24H40O5/c1-13(4-7-21(28)29)15-5-6-16-22-17(8-9-23(15,16)2)24(3)12-20(27)18(25)10-14(24)11-19(22)26/h13-20,22,25-27H,4-12H2,1-3H3,(H,28,29)/t13-,14+,15-,16+,17+,18+,19-,20+,22+,23-,24+/m1/s1
Instrument: JMS-T100LP, JEOL
Instrument type: LC-ESI-TOF
Ms type: MS
Ion mode: NEGATIVE
Ionization: ESI
m/z	relative intensity
61.00958	16
62.02095	184
63.9933	29
65.00058	37
69.02529	85
80.93899	5
85.04886	23
93.05101	27
96.97827	6
99.02514	5
129.02446	10
141.00961	27
205.16206	16
212.07342	54
213.07871	8
255.23081	24
283.26512	17
336.32587	11
405.27182	18
407.27933	999
408.279	291
409.29181	45
410.29394	4
423.27547	20
425.27842	7
429.26187	124
430.26369	36
439.3079	475
440.309	136
441.31124	26
455.31131	14
483.26738	17
537.28407	9
815.56581	45
816.55904	25
837.53918	87
838.54568	48
839.55278	17
859.54515	10
