Mass spectrum: N-[(3a,5b,7a,12a)-7,12-Dihydroxy-24-oxo-3-(sulfooxy)cholan-24-yl]glycine; LC-ESI-TOF; MS; NEGATIVE; In-source decay -60 V
Name: N-[(3a,5b,7a,12a)-7,12-Dihydroxy-24-oxo-3-(sulfooxy)cholan-24-yl]glycine
Class: Natural Product; Bile acids
Formula: C26H43NO9S
Exact mass: 545.26585
SMILES: C[C@H](CCC(=O)NCC(=O)O)[C@H]1CC[C@@H]2[C@@]1([C@H](C[C@H]3[C@H]2[C@@H](C[C@H]4[C@@]3(CC[C@H](C4)OS(=O)(=O)O)C)O)O)C
InChI: InChI=1S/C26H43NO9S/c1-14(4-7-22(30)27-13-23(31)32)17-5-6-18-24-19(12-21(29)26(17,18)3)25(2)9-8-16(36-37(33,34)35)10-15(25)11-20(24)28/h14-21,24,28-29H,4-13H2,1-3H3,(H,27,30)(H,31,32)(H,33,34,35)/t14-,15+,16-,17-,18+,19+,20-,21+,24+,25+,26-/m1/s1
Instrument: JMS-T100LP, JEOL
Instrument type: LC-ESI-TOF
Ms type: MS
Ion mode: NEGATIVE
Ionization: ESI
m/z	relative intensity
61.97	139
68.98	150
74.01	452
96.95	143
249.62	20
262.62	25
271.62	464
272.12	140
272.62	56
278.14	23
300.13	81
300.63	29
469.22	329
470.23	94
471.24	45
526.25	61
527.27	20
528.27	27
544.25	999
545.26	318
546.26	107
547.28	24
566.24	126
567.24	38
601.28	77
602.30	30
