Mass spectrum: 3a,4b-Dihydroxy-5b-cholan-24-oic acid; LC-ESI-TOF; MS; Negative; Orifice voltage -90 V
Name: 3a,4b-Dihydroxy-5b-cholan-24-oic acid
Class: Natural Product; Bile acids
Formula: C24H40O4
Exact mass: 392.29266
SMILES: C[C@H](CCC(=O)O)[C@H]1CC[C@@H]2[C@@]1(CC[C@H]3[C@H]2CC[C@H]4[C@@]3(CC[C@H]([C@@H]4O)O)C)C
InChI: InChI=1S/C24H40O4/c1-14(4-9-21(26)27)16-7-8-17-15-5-6-19-22(28)20(25)11-13-24(19,3)18(15)10-12-23(16,17)2/h14-20,22,25,28H,4-13H2,1-3H3,(H,26,27)/t14-,15+,16-,17+,18+,19-,20-,22-,23-,24-/m1/s1
Instrument: JMS-T100LP, JEOL
Instrument type: LC-ESI-TOF
Ms type: MS
Ion mode: NEGATIVE
Ionization: ESI
m/z	relative intensity
61.95501	97
62.17588	1
68.9653	2
78.89134	999
79.11113	3
79.46761	4
79.93091	2
80.8899	994
81.14415	3
81.48733	5
96.94226	3
126.89477	17
180.82697	6
182.82317	17
184.81913	5
255.24168	3
265.16108	3
293.18503	1
297.1554	4
309.17289	1
311.16698	19
312.1812	2
325.19197	17
326.20206	4
327.19562	1
339.20988	15
340.21624	2
391.28479	147
392.28751	42
423.31775	22
424.32049	5
425.36199	1
449.25962	2
471.2313	7
473.2233	7
493.2162	6
495.20958	5
496.22135	1
783.60243	34
784.60732	21
785.60439	10
786.62733	3
863.54171	5
864.55661	3
865.53696	6
