Mass spectrum: 3a,6b,7a,12a-Tetrahydroxy-5b-cholan-24-oic acid; LC-ESI-TOF; MS; Orifice voltage -60 V; Negative; In-suorce decay
Name: 3a,6b,7a,12a-Tetrahydroxy-5b-cholan-24-oic acid
Class: Natural Product; Bile acid
Formula: C24H40O6
Exact mass: 424.28249
SMILES: C[C@H](CCC(=O)O)[C@H]1CC[C@@H]2[C@@]1([C@H](C[C@H]3[C@H]2[C@@H]([C@H]([C@H]4[C@@]3(CC[C@H](C4)O)C)O)O)O)C
InChI: InChI=1S/C24H40O6/c1-12(4-7-19(27)28)14-5-6-15-20-16(11-18(26)24(14,15)3)23(2)9-8-13(25)10-17(23)21(29)22(20)30/h12-18,20-22,25-26,29-30H,4-11H2,1-3H3,(H,27,28)/t12-,13-,14-,15+,16+,17+,18+,20+,21+,22+,23-,24-/m1/s1
Instrument: JMS-T100LP, JEOL
Instrument type: LC-ESI-TOF
Ms type: MS
Ion mode: NEGATIVE
Ionization: ESI
m/z	relative intensity
59.00787	17
61.98009	999
68.98823	180
89.01789	116
93.03963	7
96.96033	10
98.94733	9
110.98165	6
112.9853	23
128.03159	26
207.07763	6
227.19832	13
239.07717	5
250.15575	5
253.21322	8
255.24057	28
265.15723	9
281.24846	8
283.27056	15
293.18691	6
297.17328	11
311.16939	52
312.17265	9
313.1974	4
325.19292	35
326.20339	9
339.21402	32
340.21211	6
423.27006	325
424.28412	103
425.30181	22
455.31808	4
459.24973	360
460.26525	100
461.24854	117
462.26344	29
465.45059	2
481.24546	16
482.28162	3
483.26279	6
486.28369	17
487.30509	4
508.26913	8
513.31638	13
514.35794	5
552.34187	8
553.35668	3
845.56609	8
846.56948	4
847.56118	295
848.5815	163
849.58228	62
852.68875	2
869.58724	19
870.59217	12
871.57707	5
883.56807	48
884.56208	29
885.55849	47
887.58712	4
905.56583	9
906.56601	7
907.55208	7
