Mass spectrum: 3b,4b,12a-Trihydroxy-5b-cholan-24-oic acid; LC-ESI-TOF; MS; Negative; Orifice voltage -120 V
Name: 3b,4b,12a-Trihydroxy-5b-cholan-24-oic acid
Class: Natural Product; Bile acid
Formula: C24H40O5
Exact mass: 408.28757
SMILES: C[C@H](CCC(=O)O)[C@H]1CC[C@@H]2[C@@]1([C@H](C[C@H]3[C@H]2CC[C@H]4[C@@]3(CC[C@@H]([C@@H]4O)O)C)O)C
InChI: InChI=1S/C24H40O5/c1-13(4-9-21(27)28)15-7-8-16-14-5-6-17-22(29)19(25)10-11-23(17,2)18(14)12-20(26)24(15,16)3/h13-20,22,25-26,29H,4-12H2,1-3H3,(H,27,28)/t13-,14+,15-,16+,17-,18+,19+,20+,22-,23+,24-/m1/s1
Instrument: JMS-T100LP, JEOL
Instrument type: LC-ESI-TOF
Ms type: MS
Ion mode: NEGATIVE
Ionization: ESI
m/z	relative intensity
57.24975	6
59.22374	4
62.19027	20
63.16246	6
64.15939	7
65.16491	1
69.21763	88
70.21833	4
71.22831	1
73.20321	1
79.1197	64
79.26385	2
80.11665	9
81.07327	6
81.18929	1
81.22668	1
83.20176	1
85.17678	3
89.16615	4
96.08058	1
97.08753	11
99.12984	10
105.18596	5
109.17324	1
111.1862	1
113.08841	48
114.09168	1
119.14639	1
123.17248	21
124.17654	2
125.18611	1
127.08991	3
129.10454	2
130.05997	2
143.0896	5
153.09534	3
155.03929	3
157.07291	3
167.04838	5
181.0231	7
183.05854	22
184.06699	4
185.05749	1
197.07032	2
205.19522	9
206.19781	1
207.2099	6
211.02947	2
217.19516	2
221.21943	2
225.04466	2
233.19856	2
248.98629	22
249.98919	1
250.17525	2
255.25928	4
281.26633	2
283.28636	3
287.26129	3
293.24609	4
297.23427	4
299.25742	2
309.24285	11
310.2478	3
311.25043	21
312.2563	5
313.26576	10
314.27205	3
315.27459	6
316.27916	1
323.24887	3
325.2645	47
326.26534	12
327.27575	52
328.28124	13
329.2771	6
330.27713	1
331.28219	2
333.29043	2
335.25842	2
337.22725	2
339.21894	7
340.22274	2
341.26037	18
342.2618	5
343.27181	103
344.27576	26
345.29359	18
346.29061	4
347.2992	2
353.25933	9
354.26113	2
357.28363	2
359.29952	32
360.30151	9
361.28031	34
362.28394	9
363.29829	35
364.3053	10
365.31023	2
369.25486	4
371.2674	17
372.2769	5
373.27835	2
375.29501	2
377.31439	4
387.26145	2
389.27778	13
390.28299	4
391.29215	4
392.28643	2
393.31011	8
394.28036	6
395.31243	18
396.31998	6
397.24399	4
403.28513	1
405.26855	10
406.27101	2
407.27683	999
408.2807	282
408.87385	1
409.28351	54
410.29564	6
411.2789	1
421.18713	1
421.27741	2
425.23303	21
426.23154	6
427.24564	11
428.25722	3
429.25878	52
430.26627	14
431.27375	4
449.24391	4
450.27263	2
461.2789	11
462.29498	3
465.23386	5
467.24092	2
475.25819	25
476.26433	8
477.27182	2
481.25289	2
489.27452	5
490.28949	2
492.25172	2
497.24554	8
498.26031	2
499.15578	5
505.27234	4
511.25785	2
517.21828	2
519.27959	5
521.27372	3
527.20643	3
543.23751	8
544.24369	3
565.22992	4
583.29309	3
633.20883	2
685.47996	2
815.54576	5
816.52952	3
837.51026	149
838.51111	81
839.52599	28
840.52773	9
841.52001	3
859.50521	18
860.49923	10
861.51191	3
881.48208	4
882.49056	3
905.52493	5
906.52225	3
927.49345	4
928.48808	2
949.49407	2
973.50092	3
