Mass spectrum: 3b,4b-Dihydroxy-5b-cholan-24-oic acid; LC-ESI-TOF; MS; NEGATIVE; Orifice voltage -150 V
Name: 3b,4b-Dihydroxy-5b-cholan-24-oic acid
Class: Natural Product; Bile acids
Formula: C24H40O4
Exact mass: 392.29266
SMILES: C[C@H](CCC(=O)O)[C@H]1CC[C@@H]2[C@@]1(CC[C@H]3[C@H]2CC[C@H]4[C@@]3(CC[C@@H]([C@@H]4O)O)C)C
InChI: InChI=1S/C24H40O4/c1-14(4-9-21(26)27)16-7-8-17-15-5-6-19-22(28)20(25)11-13-24(19,3)18(15)10-12-23(16,17)2/h14-20,22,25,28H,4-13H2,1-3H3,(H,26,27)/t14-,15+,16-,17+,18+,19-,20+,22-,23-,24-/m1/s1
Instrument: JMS-T100LP, JEOL
Instrument type: LC-ESI-TOF
Ms type: MS
Ion mode: NEGATIVE
Ionization: ESI
m/z	relative intensity
61.95486	10
78.89093	999
79.11042	3
79.46415	6
79.93096	13
80.88951	997
81.14374	3
81.49048	8
96.93959	2
119.03908	12
126.89378	9
136.86582	1
163.89266	2
165.89127	2
180.82508	8
182.82089	15
183.00968	42
184.02033	3
184.81688	9
197.03122	2
325.19479	2
391.28276	187
392.28633	71
393.31424	7
423.31968	4
424.33185	2
449.2606	2
471.22355	16
472.23363	7
473.2163	16
474.22125	5
493.21879	6
495.20458	6
496.21815	2
805.58017	13
806.59102	8
863.53262	6
864.5584	3
865.52704	6
866.53653	1
