Mass spectrum: 3b,6b,7a-Trihydroxy-5b-cholan-24-oic acid; LC-ESI-TOF; MS; Orifice voltage -90 V; Negative; In-suorce decay
Name: 3b,6b,7a-Trihydroxy-5b-cholan-24-oic acid
Class: Natural Product; Bile acid
Formula: C24H40O5
Exact mass: 408.28757
SMILES: C[C@H](CCC(=O)O)[C@H]1CC[C@@H]2[C@@]1(CC[C@H]3[C@H]2[C@@H]([C@H]([C@H]4[C@@]3(CC[C@@H](C4)O)C)O)O)C
InChI: InChI=1S/C24H40O5/c1-13(4-7-19(26)27)15-5-6-16-20-17(9-11-23(15,16)2)24(3)10-8-14(25)12-18(24)21(28)22(20)29/h13-18,20-22,25,28-29H,4-12H2,1-3H3,(H,26,27)/t13-,14+,15-,16+,17+,18+,20+,21+,22+,23-,24-/m1/s1
Instrument: JMS-T100LP, JEOL
Instrument type: LC-ESI-TOF
Ms type: MS
Ion mode: NEGATIVE
Ionization: ESI
m/z	relative intensity
59.21327	77
60.24265	137
67.43624	529
71.54852	16
77.64	266
79.64265	19
83.84082	8
87.91902	7
96.0072	10
112.28038	94
124.44974	12
126.37587	25
152.73913	14
154.694	43
166.79095	19
186.89394	17
227.19274	10
248.97595	138
249.98619	7
255.25531	30
283.29788	21
311.20865	7
325.22437	9
339.23555	9
384.96554	13
389.29701	20
390.29742	7
405.2901	33
406.28941	7
407.29881	999
408.30273	278
409.30987	53
410.31278	7
421.29666	25
422.30562	7
423.29758	9
425.31605	7
429.28763	63
430.28732	17
437.31355	12
439.32576	671
440.33115	193
441.33626	30
442.35285	5
443.28822	6
451.33403	7
453.31135	11
461.31404	54
462.32142	18
465.27243	25
466.27582	7
467.2742	11
475.30381	9
476.31187	6
483.33067	13
489.31189	18
490.3194	6
492.29849	7
519.33964	7
520.95713	8
543.29532	25
544.30111	8
583.35278	19
815.52383	110
816.53427	61
817.54862	21
818.54239	6
837.49125	227
838.49853	123
839.50319	42
840.51322	13
851.47981	10
852.47988	6
859.48048	14
860.48362	7
881.48411	5
