Mass spectrum: 3a,6b-Dihydroxy-5a-cholan-24-oic acid; LC-ESI-TOF; MS; Orifice voltage  -150 V; Negative; In-suorce decay
Name: 3a,6b-Dihydroxy-5a-cholan-24-oic acid
Class: Natural Product; Bile acid
Formula: C24H40O4
Exact mass: 392.29266
SMILES: C[C@H](CCC(=O)O)[C@H]1CC[C@@H]2[C@@]1(CC[C@H]3[C@H]2C[C@H]([C@@H]4[C@@]3(CC[C@H](C4)O)C)O)C
InChI: InChI=1S/C24H40O4/c1-14(4-7-22(27)28)17-5-6-18-16-13-21(26)20-12-15(25)8-10-24(20,3)19(16)9-11-23(17,18)2/h14-21,25-26H,4-13H2,1-3H3,(H,27,28)/t14-,15-,16+,17-,18+,19+,20-,21-,23-,24-/m1/s1
Instrument: JMS-T100LP, JEOL
Instrument type: LC-ESI-TOF
Ms type: MS
Ion mode: NEGATIVE
Ionization: ESI
m/z	relative intensity
188.29325	10
240.79443	13
267.06582	11
301.06779	26
339.26146	8
381.49752	22
390.08972	6
391.29921	999
393.36791	55
423.40401	55
427.32457	81
429.33293	35
436.52184	15
438.76288	20
449.29734	47
451.28261	18
454.35649	32
462.87614	13
464.74355	24
488.83052	17
520.53243	25
565.96165	16
591.47141	12
602.33912	16
604.17442	14
608.29625	14
632.40333	34
706.92309	18
736.76832	25
764.24975	23
783.66232	105
784.69605	62
790.2061	13
805.64485	255
806.67647	149
820.65949	8
836.83824	26
889.62188	20
991.04388	25
