Mass spectrum: 3b,4b,7a-Trihydroxy-5b-cholan-24-oic acid; LC-ESI-TOF; MS; Negative; Orifice voltage -30 V
Name: 3b,4b,7a-Trihydroxy-5b-cholan-24-oic acid
Class: Natural Product; Bile acids
Formula: C24H40O5
Exact mass: 408.28757
SMILES: C[C@H](CCC(=O)O)[C@H]1CC[C@@H]2[C@@]1(CC[C@H]3[C@H]2[C@@H](C[C@H]4[C@@]3(CC[C@@H]([C@@H]4O)O)C)O)C
InChI: InChI=1S/C24H40O5/c1-13(4-7-20(27)28)14-5-6-15-21-16(8-10-23(14,15)2)24(3)11-9-18(25)22(29)17(24)12-19(21)26/h13-19,21-22,25-26,29H,4-12H2,1-3H3,(H,27,28)/t13-,14-,15+,16+,17-,18+,19-,21+,22-,23-,24-/m1/s1
Instrument: JMS-T100LP, JEOL
Instrument type: LC-ESI-TOF
Ms type: MS
Ion mode: NEGATIVE
Ionization: ESI
m/z	relative intensity
59.22571	8
62.19221	25
69.181	370
69.33888	1
70.18278	5
75.18005	120
76.18337	3
85.17771	2
87.15346	2
89.1682	11
97.091	2
99.13326	9
113.09197	999
113.36021	5
113.75022	7
114.09412	21
115.09518	4
125.09455	2
153.09972	23
155.04122	4
167.05388	9
181.02933	5
212.11646	12
227.01246	28
228.02281	2
248.99111	51
249.99752	3
255.26495	6
283.29651	2
294.99567	2
311.19156	2
325.21259	2
344.11965	4
362.96843	3
384.95328	5
407.28854	158
407.78891	17
408.2951	42
409.29654	6
439.3116	70
440.32099	21
441.32639	4
443.26382	6
444.2811	2
445.26675	2
453.2909	65
454.29989	21
455.30909	4
467.30763	2
475.27327	15
476.28159	5
505.28889	3
521.27245	31
522.27973	8
523.28865	2
543.25963	4
561.32259	3
611.41111	25
611.91152	20
612.41118	9
612.90731	4
620.35908	2
622.39624	5
622.90813	5
623.40969	2
657.23266	2
815.55599	45
816.5535	22
817.05214	3
817.57651	7
826.54865	3
827.05218	3
837.54607	12
838.54164	8
