Mass spectrum: 3a-Sulfooxy-12a-hydroxy-5b-cholan-24-oyl-taurine; LC-ESI-TOF; MS; NEGATIVE; In-source decay -90 V
Name: 3a-Sulfooxy-12a-hydroxy-5b-cholan-24-oyl-taurine
Class: Natural Product; Bile acids
Formula: C26H45NO9S2
Exact mass: 579.25357
SMILES: C[C@H](CCC(=O)NCCS(=O)(=O)O)[C@H]1CC[C@@H]2[C@@]1([C@H](C[C@H]3[C@H]2CC[C@H]4[C@@]3(CC[C@H](C4)OS(=O)(=O)O)C)O)C
InChI: InChI=1S/C26H45NO9S2/c1-16(4-9-24(29)27-12-13-37(30,31)32)20-7-8-21-19-6-5-17-14-18(36-38(33,34)35)10-11-25(17,2)22(19)15-23(28)26(20,21)3/h16-23,28H,4-15H2,1-3H3,(H,27,29)(H,30,31,32)(H,33,34,35)/t16-,17-,18-,19+,20-,21+,22+,23+,25+,26-/m1/s1
Instrument: JMS-T100LP, JEOL
Instrument type: LC-ESI-TOF
Ms type: MS
Ion mode: NEGATIVE
Ionization: ESI
m/z	relative intensity
61.98	78
80.96	222
95.95	25
97.95	20
98.95	157
106.97	298
210.12	23
288.61	314
329.14	122
330.14	26
355.17	36
381.22	63
426.22	141
427.23	37
480.27	999
481.28	341
498.29	276
499.29	81
524.31	20
530.46	27
540.23	40
578.25	125
579.25	48
597.21	99
600.23	77
601.24	28
616.22	45
651.38	28
730.42	24
781.35	33
812.22	73
822.88	21
861.38	37
871.38	38
929.14	26
937.07	42
977.77	38
