Mass spectrum: 3a,6a,7a,12a-Tetrahydroxy-5b-cholan-24-oic acid; LC-ESI-TOF; MS; Orifice voltage -30 V; Negative; In-suorce decay
Name: 3a,6a,7a,12a-Tetrahydroxy-5b-cholan-24-oic acid
Class: Natural Product; Bile acid
Formula: C24H40O6
Exact mass: 424.28249
SMILES: C[C@H](CCC(=O)O)[C@H]1CC[C@@H]2[C@@]1([C@H](C[C@H]3[C@H]2[C@@H]([C@@H]([C@H]4[C@@]3(CC[C@H](C4)O)C)O)O)O)C
InChI: InChI=1S/C24H40O6/c1-12(4-7-19(27)28)14-5-6-15-20-16(11-18(26)24(14,15)3)23(2)9-8-13(25)10-17(23)21(29)22(20)30/h12-18,20-22,25-26,29-30H,4-11H2,1-3H3,(H,27,28)/t12-,13-,14-,15+,16+,17+,18+,20+,21-,22+,23-,24-/m1/s1
Instrument: JMS-T100LP, JEOL
Instrument type: LC-ESI-TOF
Ms type: MS
Ion mode: NEGATIVE
Ionization: ESI
m/z	relative intensity
75.00104	177
89.54081	5
90.02289	24
98.94575	52
294.93215	18
313.24441	14
314.3008	9
396.78784	17
405.30437	12
407.29785	38
408.29974	9
415.29611	14
423.26762	999
425.29394	60
437.2958	17
439.31958	7
447.29603	16
447.69561	9
459.25495	304
469.29712	79
470.29356	23
474.40297	28
481.26123	12
483.30809	53
487.29036	11
495.34513	24
497.33461	12
500.30819	16
513.31154	152
514.32291	53
523.38391	15
527.35293	14
537.30068	20
549.42435	11
581.44708	10
628.4638	10
635.4353	103
635.93311	69
641.47388	12
655.96246	16
656.96722	20
679.53274	23
680.5426	10
800.78428	19
831.58915	52
832.58443	25
847.55905	716
849.57795	135
861.59195	19
869.58049	59
870.57804	35
877.72708	12
881.67251	14
883.57166	57
885.55967	26
899.64299	12
907.5655	12
931.76768	9
949.57079	8
