Mass spectrum: Glyco 3a-sulfate-5b-cholanic acid; LC-ESI-TOF; MS; NEGATIVE; In-source decay -30 V
Name: Glyco 3a-sulfate-5b-cholanic acid
Name: N-[(3a,5b)-24-Oxo-3-(sulfooxy)cholan-24-yl]glycine
Class: Natural Product; Bile acids
Formula: C26H43NO7S
Exact mass: 513.27602
SMILES: O=C(O)CNC(=O)CC[C@@H](C)[C@H]1CC[C@H]2[C@@H]3CC[C@@H]4C[C@@H](CC[C@]4(C)[C@H]3CC[C@]12C)OS(=O)(=O)O
InChI: InChI=1S/C26H43NO7S/c1-16(4-9-23(28)27-15-24(29)30)20-7-8-21-19-6-5-17-14-18(34-35(31,32)33)10-12-25(17,2)22(19)11-13-26(20,21)3/h16-22H,4-15H2,1-3H3,(H,27,28)(H,29,30)(H,31,32,33)/t16-,17-,18-,19+,20-,21+,22+,25+,26-/m1/s1
Instrument: JMS-T100LP, JEOL
Instrument type: LC-ESI-TOF
Ms type: MS
Ion mode: NEGATIVE
Ionization: ESI
m/z	relative intensity
89.02	21
112.98	23
255.62	999
256.13	297
256.63	118
257.13	25
512.26	364
512.77	21
513.27	121
514.27	36
534.25	86
535.25	28
