Mass spectrum: 6a-Hydroxy-5a-cholan-24-oic acid; LC-ESI-TOF; MS; NEGATIVE; In source decay -60 V
Name: 6a-Hydroxy-5a-cholan-24-oic acid
Class: Natural Product; Bile acids
Formula: C24H40O3
Exact mass: 376.29775
SMILES: C(C1(C)4)([H])(C(C)CCC(O)=O)CCC1(C(C3([H])CC4)([H])CC(C(C3(C)2)([H])CCCC2)O[H])[H]
InChI: InChI=1S/C24H40O3/c1-15(7-10-22(26)27)17-8-9-18-16-14-21(25)20-6-4-5-12-23(20,2)19(16)11-13-24(17,18)3/h15-21,25H,4-14H2,1-3H3,(H,26,27)/t15-,16+,17-,18+,19+,20-,21+,23-,24-/m1/s1
Instrument: JMS-T100LP, JEOL
Instrument type: LC-ESI-TOF
Ms type: MS
Ion mode: NEGATIVE
Ionization: ESI
m/z	relative intensity
62.01	153
69.01	440
89.03	65
112.99	49
212.08	43
227.20	48
241.21	53
253.21	175
254.22	29
255.23	206
256.23	37
267.22	22
269.24	23
281.25	54
283.26	63
311.18	38
325.19	29
339.21	21
375.28	999
376.29	282
377.30	27
407.32	48
421.30	25
716.26	22
723.84	21
751.58	376
752.60	216
753.61	73
773.56	42
774.59	29
