Mass spectrum: 7,12-Dioxo-5b-cholan-24-oic acid; LC-ESI-TOF; MS; NEGATIVE; in source decay -60 V
Name: 7,12-Dioxo-5b-cholan-24-oic acid
Class: Natural Product; Bile acids
Formula: C24H36O4
Exact mass: 388.26136
SMILES: C(C1(C)4)([H])(C(C)CCC(O)=O)CCC1(C(C3([H])CC4=O)([H])C(=O)CC(C3(C)2)([H])CCCC2)[H]
InChI: InChI=1S/C24H36O4/c1-14(7-10-21(27)28)16-8-9-17-22-18(13-20(26)24(16,17)3)23(2)11-5-4-6-15(23)12-19(22)25/h14-18,22H,4-13H2,1-3H3,(H,27,28)/t14-,15+,16-,17+,18+,22+,23+,24-/m1/s1
Instrument: JMS-T100LP, JEOL
Instrument type: LC-ESI-TOF
Ms type: MS
Ion mode: NEGATIVE
Ionization: ESI
m/z	relative intensity
61.97	150
68.98	999
89.01	34
96.95	81
112.98	77
212.08	40
387.25	489
388.25	139
389.27	24
775.52	183
776.53	101
777.53	57
797.50	21
