Mass spectrum: 3a,6b-Dihydroxy-5a-cholan-24-oic acid; LC-ESI-TOF; MS; Orifice voltage  -30 V; Negative; In-suorce decay
Name: 3a,6b-Dihydroxy-5a-cholan-24-oic acid
Class: Natural Product; Bile acid
Formula: C24H40O4
Exact mass: 392.29266
SMILES: C[C@H](CCC(=O)O)[C@H]1CC[C@@H]2[C@@]1(CC[C@H]3[C@H]2C[C@H]([C@@H]4[C@@]3(CC[C@H](C4)O)C)O)C
InChI: InChI=1S/C24H40O4/c1-14(4-7-22(27)28)17-5-6-18-16-13-21(26)20-12-15(25)8-10-24(20,3)19(16)9-11-23(17,18)2/h14-21,25-26H,4-13H2,1-3H3,(H,27,28)/t14-,15-,16+,17-,18+,19+,20-,21-,23-,24-/m1/s1
Instrument: JMS-T100LP, JEOL
Instrument type: LC-ESI-TOF
Ms type: MS
Ion mode: NEGATIVE
Ionization: ESI
m/z	relative intensity
59.01626	148
61.98625	616
62.4033	26
68.99521	261
75.00918	302
89.01998	999
90.03892	31
114.00105	16
115.05282	16
158.88794	13
212.1083	170
240.15721	24
255.2748	59
287.00111	17
307.60842	21
309.05815	3
312.85455	15
314.96492	34
327.2763	6
361.14223	17
391.31057	551
393.34301	32
397.57453	46
405.64336	2
427.33292	88
429.32933	30
434.73369	7
437.32187	296
438.38696	106
441.88931	21
443.59947	21
449.31375	16
451.29904	10
455.16431	7
459.33285	43
463.63268	34
465.12558	28
473.55943	26
476.29028	19
481.38847	115
482.39337	43
489.34651	14
494.34801	40
503.37157	33
505.31197	9
507.38309	9
513.67942	27
518.0886	24
525.1286	13
527.96819	33
554.63443	20
556.6924	41
574.71415	25
582.17584	19
587.50325	45
587.99297	36
598.39507	8
604.47102	27
605.47217	13
619.53274	11
633.62466	12
635.2865	44
646.13474	41
648.56429	17
660.6441	39
674.00932	39
720.37653	31
763.46732	13
769.16115	14
783.63903	406
784.66235	237
791.73288	17
794.61737	14
801.7653	52
805.66992	47
806.67973	23
812.60763	61
816.58687	37
819.685	15
823.97521	8
827.05385	71
831.54344	92
835.79012	24
840.90411	21
847.26653	30
863.701	56
866.47944	26
868.7404	25
880.53688	86
886.48703	23
889.43474	39
893.33625	45
904.78859	40
934.92429	26
941.5872	32
980.53205	90
991.05836	14
