Mass spectrum: 3a,6a,7a,12a-Tetrahydroxy-5b-cholan-24-oic acid; LC-ESI-TOF; MS; Orifice voltage -120 V; Negative; In-suorce decay
Name: 3a,6a,7a,12a-Tetrahydroxy-5b-cholan-24-oic acid
Class: Natural Product; Bile acid
Formula: C24H40O6
Exact mass: 424.28249
SMILES: C[C@H](CCC(=O)O)[C@H]1CC[C@@H]2[C@@]1([C@H](C[C@H]3[C@H]2[C@@H]([C@@H]([C@H]4[C@@]3(CC[C@H](C4)O)C)O)O)O)C
InChI: InChI=1S/C24H40O6/c1-12(4-7-19(27)28)14-5-6-15-20-16(11-18(26)24(14,15)3)23(2)9-8-13(25)10-17(23)21(29)22(20)30/h12-18,20-22,25-26,29-30H,4-11H2,1-3H3,(H,27,28)/t12-,13-,14-,15+,16+,17+,18+,20+,21-,22+,23-,24-/m1/s1
Instrument: JMS-T100LP, JEOL
Instrument type: LC-ESI-TOF
Ms type: MS
Ion mode: NEGATIVE
Ionization: ESI
m/z	relative intensity
57.99909	18
61.98153	49
78.91702	4
79.95305	14
80.91378	3
82.95025	12
96.9573	8
98.94606	8
311.2309	4
313.2554	28
314.26464	5
325.24799	5
331.27197	8
341.25476	14
343.27161	7
345.28614	19
346.28548	5
359.26184	26
360.27897	5
361.27406	9
377.28921	6
379.29561	21
380.30036	5
387.26648	6
393.31645	5
405.27298	21
406.27062	5
407.28949	28
408.29597	9
421.2693	19
422.29062	5
423.26603	999
424.27386	313
425.28161	78
427.26155	1
437.2921	9
439.29132	3
455.31097	16
456.3199	5
459.25948	33
460.28432	9
461.25392	8
481.24337	13
483.26756	4
486.28591	4
847.56877	62
848.59393	37
849.59477	14
850.61444	4
869.56019	68
870.55616	37
871.5667	18
872.58627	5
883.57691	4
