Mass spectrum: N-[(3a,5b,7a)-3,7-Dihydroxy-24-oxocholan-24-yl]glycine; LC-ESI-TOF; MS; NEGATIVE; In source decay -60 V
Name: N-[(3a,5b,7a)-3,7-Dihydroxy-24-oxocholan-24-yl]glycine
Name: Glycochenodeoxycholic acid
Class: Natural Product; Bile acids
Formula: C26H43NO5
Exact mass: 449.31412
SMILES: CC(CCC(=O)NCC(=O)O)C1CCC2C1(CCC3C2C(CC4C3(CCC(C4)O)C)O)C
InChI: InChI=1S/C26H43NO5/c1-15(4-7-22(30)27-14-23(31)32)18-5-6-19-24-20(9-11-26(18,19)3)25(2)10-8-17(28)12-16(25)13-21(24)29/h15-21,24,28-29H,4-14H2,1-3H3,(H,27,30)(H,31,32)/t15-,16+,17-,18-,19+,20+,21-,24+,25+,26-/m1/s1
Instrument: JMS-T100LP, JEOL
Instrument type: LC-ESI-TOF
Ms type: MS
Ion mode: NEGATIVE
Ionization: ESI
m/z	relative intensity
61.98	119
68.99	88
112.98	36
448.30	999
449.31	302
450.31	81
897.62	309
898.62	192
899.64	67
900.66	35
