Mass spectrum: 3a,6a,7a,12a-Tetrahydroxy-5b-cholan-24-oic acid; LC-ESI-TOF; MS; Orifice voltage -150 V; Negative; In-suorce decay
Name: 3a,6a,7a,12a-Tetrahydroxy-5b-cholan-24-oic acid
Class: Natural Product; Bile acid
Formula: C24H40O6
Exact mass: 424.28249
SMILES: C[C@H](CCC(=O)O)[C@H]1CC[C@@H]2[C@@]1([C@H](C[C@H]3[C@H]2[C@@H]([C@@H]([C@H]4[C@@]3(CC[C@H](C4)O)C)O)O)O)C
InChI: InChI=1S/C24H40O6/c1-12(4-7-19(27)28)14-5-6-15-20-16(11-18(26)24(14,15)3)23(2)9-8-13(25)10-17(23)21(29)22(20)30/h12-18,20-22,25-26,29-30H,4-11H2,1-3H3,(H,27,28)/t12-,13-,14-,15+,16+,17+,18+,20+,21-,22+,23-,24-/m1/s1
Instrument: JMS-T100LP, JEOL
Instrument type: LC-ESI-TOF
Ms type: MS
Ion mode: NEGATIVE
Ionization: ESI
m/z	relative intensity
57.02965	18
57.99888	90
58.31307	1
58.42459	2
59.00808	21
61.98217	22
62.15768	1
69.02892	9
79.95447	14
80.91194	11
82.94941	18
85.02773	5
96.95757	16
98.94689	4
109.0624	4
111.07504	4
119.06129	5
139.0869	4
175.13514	4
183.01664	7
193.1621	5
199.15344	8
201.13314	5
203.13915	10
205.16048	8
207.17356	9
209.17229	5
217.15931	6
219.16646	6
221.17207	4
231.1775	4
233.16773	9
235.17267	5
239.17824	2
245.18057	4
247.18118	13
249.20022	4
255.22033	4
257.19051	5
265.18839	6
269.21855	6
273.2204	4
275.2158	3
279.23491	1
283.23641	6
285.23492	6
286.23586	2
287.23128	7
289.21583	6
293.2248	3
295.24769	6
297.24305	4
299.24696	4
301.24001	6
303.24372	12
304.27593	2
305.23218	4
307.23387	5
309.23426	5
311.24366	13
312.24345	5
313.25415	91
314.26187	17
315.25488	6
319.26383	10
320.31906	1
321.23931	5
323.2469	11
324.24698	3
325.25116	15
327.24504	7
329.25862	17
329.80997	1
330.274	3
331.26954	18
332.28004	6
333.27591	3
339.2511	6
340.36327	2
341.25139	49
341.79162	1
342.25964	12
343.26482	23
344.2644	4
344.68236	2
345.28428	62
346.28568	18
347.28748	8
348.28755	3
349.28632	4
350.35271	2
351.25625	2
355.27957	3
357.25324	13
359.26092	71
360.27365	19
361.27323	23
362.29233	6
363.30477	6
366.43814	1
367.25418	4
368.24428	4
369.25398	5
370.25216	5
373.29777	5
374.41111	3
375.29618	7
377.28528	12
378.29019	4
379.2967	45
380.30125	14
381.31044	2
381.644	1
382.43348	2
383.29413	3
385.23838	11
386.26954	3
387.26551	12
388.28781	4
393.32507	12
394.32583	3
403.25397	3
404.28741	2
405.27358	44
406.2724	11
407.29813	19
408.29869	4
409.30283	3
421.26939	21
422.28786	6
423.26727	999
423.86556	9
424.2792	319
425.28672	57
429.70023	1
431.1703	1
435.29501	4
437.29256	6
438.35764	2
438.67856	2
439.30063	3
440.34706	1
443.28121	3
445.25964	31
446.2866	9
447.31445	2
453.34401	3
455.31698	16
456.32404	6
459.25904	94
460.28382	21
461.25269	27
463.37935	3
463.88465	1
464.28744	1
465.34525	1
466.34264	2
467.24927	3
481.24597	19
482.26002	7
483.26164	7
484.28792	3
486.28524	19
487.29472	8
508.25894	3
544.26533	2
829.57302	13
830.58639	7
831.58484	8
845.57268	4
846.63348	3
847.56928	136
848.59575	81
849.5934	33
853.59041	2
854.69005	1
867.5428	5
868.65132	3
869.56082	165
870.55384	89
871.56626	42
874.63066	3
877.98278	1
883.58101	18
885.61459	6
886.65789	2
891.56852	4
898.06975	1
899.20817	2
910.60482	3
917.46918	3
927.53643	5
