Mass spectrum: 3,6-Dioxo-5b-cholan-24-oic acid; LC-ESI-TOF; MS; NEGATIVE; in source decay -150 V
Name: 3,6-Dioxo-5b-cholan-24-oic acid
Class: Natural Product; Bile acids
Formula: C24H36O4
Exact mass: 388.26136
SMILES: C(C1(C)4)([H])(C(C)CCC(O)=O)CCC1(C(C3([H])CC4)([H])CC(C(C3(C)2)([H])CC(=O)CC2)=O)[H]
InChI: InChI=1S/C24H36O4/c1-14(4-7-22(27)28)17-5-6-18-16-13-21(26)20-12-15(25)8-10-24(20,3)19(16)9-11-23(17,18)2/h14,16-20H,4-13H2,1-3H3,(H,27,28)/t14-,16+,17-,18+,19+,20+,23-,24-/m1/s1
Instrument: JMS-T100LP, JEOL
Instrument type: LC-ESI-TOF
Ms type: MS
Ion mode: NEGATIVE
Ionization: ESI
m/z	relative intensity
61.97	83
67.89	59
69.02	51
79.94	97
96.95	100
109.05	70
160.60	62
193.93	55
274.80	83
287.42	57
296.12	58
299.22	240
305.71	167
324.27	84
354.20	89
364.24	51
367.12	113
387.26	999
388.25	237
389.28	54
401.33	70
406.43	68
409.25	76
419.29	144
431.29	116
433.34	51
450.26	59
467.18	57
477.74	56
485.23	150
489.42	78
491.90	53
494.55	51
503.27	98
523.34	67
558.40	59
563.40	50
598.41	85
618.93	70
