Mass spectrum: 6b-Hydroxy-5b-cholan-24-oic acid; LC-ESI-TOF; MS; Negative; Orifice voltage -120 V
Name: 6b-Hydroxy-5b-cholan-24-oic acid
Class: Natural Product; Bile acid
Formula: C24H40O3
Exact mass: 376.29775
SMILES: C[C@H](CCC(=O)O)[C@H]1CC[C@@H]2[C@@]1(CC[C@H]3[C@H]2C[C@H]([C@H]4[C@@]3(CCCC4)C)O)C
InChI: InChI=1S/C24H40O3/c1-15(7-10-22(26)27)17-8-9-18-16-14-21(25)20-6-4-5-12-23(20,2)19(16)11-13-24(17,18)3/h15-21,25H,4-14H2,1-3H3,(H,26,27)/t15-,16+,17-,18+,19+,20+,21-,23-,24-/m1/s1
Instrument: JMS-T100LP, JEOL
Instrument type: LC-ESI-TOF
Ms type: MS
Ion mode: NEGATIVE
Ionization: ESI
m/z	relative intensity
59.91407	16
60.9274	17
61.93539	340
63.91109	123
64.91818	49
65.90956	5
68.94869	59
72.96256	11
78.87681	213
79.48982	2
79.91648	51
80.87596	184
83.01019	8
84.98889	86
93.00107	20
95.91901	21
96.92849	32
98.97468	19
99.97012	10
108.97237	3
112.96136	119
115.97398	14
117.0307	8
118.97065	12
126.88654	16
128.99837	15
130.95422	6
139.02126	7
140.9874	15
142.98047	4
146.95433	2
148.03642	4
150.95757	5
154.96254	11
166.98581	36
168.98207	8
171.05107	5
173.00031	17
180.97548	5
181.96105	14
183.00822	16
186.99569	5
190.10512	3
193.03753	8
197.95883	18
199.01473	8
205.15004	11
210.98049	20
212.07171	13
213.07093	3
219.17062	5
223.01002	4
225.06712	7
227.19777	12
233.03042	5
235.03009	16
237.0381	4
247.051	41
248.05514	4
248.95971	103
249.9666	11
251.0308	4
253.21701	4
255.23215	24
264.99646	5
269.24296	5
281.24293	15
283.26469	9
297.28262	6
298.9623	4
301.05904	10
302.97139	4
305.05576	3
309.24533	5
311.16836	4
315.03712	6
325.18769	9
337.29139	4
339.20368	9
341.2386	1
343.05165	7
345.05562	5
353.22229	4
355.07377	7
357.27943	4
373.27732	17
374.2853	3
375.2874	999
376.29329	297
377.29892	39
378.30686	4
379.34392	3
380.98319	8
385.0336	3
387.12576	3
391.28727	10
395.26233	15
397.0576	7
407.31603	65
408.32122	17
409.07679	10
415.25705	4
417.28095	15
423.30923	2
427.28355	89
428.28842	27
429.3011	14
430.96907	6
433.25685	2
437.24816	13
438.25179	4
439.26686	8
443.25921	7
449.27239	35
450.30086	16
451.29002	33
452.29125	7
453.2894	7
454.09482	3
459.30597	14
460.30897	5
461.29781	2
463.08502	7
471.2965	8
477.06147	4
479.05682	2
481.0066	6
483.31118	20
484.31479	6
485.28799	16
486.29415	5
487.28528	3
489.29882	2
491.06914	5
493.05498	6
497.05092	2
499.16711	10
500.17864	4
501.20701	1
503.07594	4
505.08028	23
507.07589	2
511.27795	5
517.0971	7
519.05857	6
523.30356	2
527.20186	3
530.30526	14
531.30095	6
532.00008	1
533.26226	5
535.5259	5
537.32132	19
538.33264	4
559.08557	7
613.31512	16
615.07997	5
625.12284	6
627.08035	4
630.99114	7
639.07709	2
653.08264	2
655.09135	3
657.06904	1
667.32163	8
669.11093	2
677.54938	2
681.04567	5
685.07937	4
693.10127	2
699.06498	2
707.12127	2
709.09343	8
751.07694	3
753.10103	3
755.05811	4
757.12891	2
761.29207	5
762.25316	2
763.31081	3
765.19403	7
773.58552	10
777.11466	3
781.01489	6
797.10638	1
803.32218	3
891.28322	3
