Mass spectrum: N-[(3a,5b,12a)-12-Hydroxy-24-oxo-3-(sulfooxy)cholan-24-yl]glycine; LC-ESI-TOF; MS; NEGATIVE; In-source decay -90 V
Name: N-[(3a,5b,12a)-12-Hydroxy-24-oxo-3-(sulfooxy)cholan-24-yl]glycine
Class: Natural Product; Bile acids
Formula: C26H43NO8S
Exact mass: 529.27093
SMILES: C1C[C@@H](OS(=O)(=O)O)C[C@@]2([H])CC[C@@]3([H])[C@]4([H])CC[C@]([H])([C@H](C)CCC(=O)NCC(=O)O)[C@@]4(C)[C@@H](O)C[C@]3([H])[C@@]12C
InChI: InChI=1S/C26H43NO8S/c1-15(4-9-23(29)27-14-24(30)31)19-7-8-20-18-6-5-16-12-17(35-36(32,33)34)10-11-25(16,2)21(18)13-22(28)26(19,20)3/h15-22,28H,4-14H2,1-3H3,(H,27,29)(H,30,31)(H,32,33,34)/t15-,16-,17-,18+,19-,20+,21+,22+,25+,26-/m1/s1
Instrument: JMS-T100LP, JEOL
Instrument type: LC-ESI-TOF
Ms type: MS
Ion mode: NEGATIVE
Ionization: ESI
m/z	relative intensity
61.97	220
74.01	75
79.94	25
96.95	602
98.95	39
329.14	63
355.17	41
381.22	29
448.30	581
449.31	180
450.32	48
453.23	42
471.25	27
528.26	999
529.26	308
530.26	101
531.28	21
550.24	387
551.25	123
552.25	45
