Mass spectrum: 3a,7a,15b-(OH)3-5b-cholanic acid; LC-ESI-TOF; MS; NEGATIVE; In source decay -120 V
Name: 3a,7a,15b-(OH)3-5b-cholanic acid
Name: (3a,5b,7a,15b)-3,7,15-Trihydroxycholan-24-oic acid
Class: Natural Product; Bile acids
Formula: C24H40O5
Exact mass: 408.28757
SMILES: C(C3(C)4)([H])(CC(O)CC4)CC(C(C3([H])2)(C(C1(C)CC2)([H])C(O)CC1([H])C(C)CCC(O)=O)[H])O
InChI: InChI=1S/C24H40O5/c1-13(4-5-20(28)29)17-12-19(27)22-21-16(7-9-24(17,22)3)23(2)8-6-15(25)10-14(23)11-18(21)26/h13-19,21-22,25-27H,4-12H2,1-3H3,(H,28,29)/t13-,14+,15-,16+,17-,18-,19-,21+,22+,23+,24-/m1/s1
Instrument: JMS-T100LP, JEOL
Instrument type: LC-ESI-TOF
Ms type: MS
Ion mode: NEGATIVE
Ionization: ESI
m/z	relative intensity
62.19	28
69.18	23
79.12	102
113.09	35
183.06	35
248.98	45
325.23	24
361.29	21
371.27	44
389.27	184
390.27	54
405.27	60
407.28	999
408.28	288
409.29	58
427.24	29
429.26	23
439.30	60
465.24	20
815.54	35
816.54	21
837.52	209
838.52	114
839.52	38
