Mass spectrum: 3a,6b,7a-Trihydroxy-5b-cholan-24-oic acid; LC-ESI-TOF; MS; Orifice voltage -120 V; Negative; In-suorce decay
Name: 3a,6b,7a-Trihydroxy-5b-cholan-24-oic acid
Name: alpha-Muricholic acid
Class: Natural Product; Bile acid
Formula: C24H40O5
Exact mass: 408.28757
SMILES: C[C@H](CCC(=O)O)[C@H]1CC[C@@H]2[C@@]1(CC[C@H]3[C@H]2[C@@H]([C@H]([C@H]4[C@@]3(CC[C@H](C4)O)C)O)O)C
InChI: InChI=1S/C24H40O5/c1-13(4-7-19(26)27)15-5-6-16-20-17(9-11-23(15,16)2)24(3)10-8-14(25)12-18(24)21(28)22(20)29/h13-18,20-22,25,28-29H,4-12H2,1-3H3,(H,26,27)/t13-,14-,15-,16+,17+,18+,20+,21+,22+,23-,24-/m1/s1
Instrument: JMS-T100LP, JEOL
Instrument type: LC-ESI-TOF
Ms type: MS
Ion mode: NEGATIVE
Ionization: ESI
m/z	relative intensity
58.02146	7
61.00191	13
62.00321	61
62.97837	40
63.97692	11
69.00768	67
78.96729	482
79.5088	3
79.96732	13
80.92516	39
85.03379	17
89.02985	16
96.96548	11
112.98899	69
125.00408	6
126.90807	41
129.0186	15
143.03284	12
153.03208	26
154.97392	31
166.99599	35
170.94566	4
173.0105	10
187.01068	16
197.96516	6
210.98785	9
248.96113	265
249.97111	13
250.99037	5
341.25269	8
353.24408	10
355.2348	16
357.25318	8
369.24745	18
370.25499	5
371.26635	99
372.26906	28
373.27669	8
375.26301	22
376.26778	6
377.27521	10
381.25417	6
384.94376	27
387.26186	80
388.26377	22
389.27511	74
390.27714	21
391.28226	15
392.29369	4
393.25809	6
403.27761	11
405.26825	333
406.27171	94
407.28316	999
408.28747	286
409.2917	67
410.28645	11
411.25702	57
412.26945	18
413.28809	9
419.28311	10
420.29594	3
421.30075	24
422.30649	7
423.28445	21
424.29656	6
425.28571	27
426.27748	9
427.26012	15
429.26966	150
430.2729	40
431.28603	8
437.29746	81
438.30227	29
438.94956	6
439.31021	541
440.31567	156
441.3149	34
442.32123	5
443.28391	26
444.29042	8
445.26991	9
451.30937	10
457.2951	4
465.25257	36
466.26089	9
467.25401	16
471.26306	5
481.26859	9
483.2946	17
489.28704	5
492.26518	6
519.31506	10
520.92838	11
543.2599	11
583.31981	23
584.3224	7
815.58119	8
821.59736	7
837.56001	361
838.5679	191
839.5675	66
840.5833	19
853.57409	5
859.55354	29
860.55898	15
881.55096	21
882.56099	12
