Mass spectrum: 3-Oxo-5a-cholan-24-oic acid; LC-ESI-TOF; MS; NEGATIVE; in source decay -90 V
Name: 3-Oxo-5a-cholan-24-oic acid
Class: Natural Product; Bile acids
Formula: C24H38O3
Exact mass: 374.2821
SMILES: CC(CCC(=O)O)C1CCC2C1(CCC3C2CCC4C3(CCC(=O)C4)C)C
InChI: InChI=1S/C24H38O3/c1-15(4-9-22(26)27)19-7-8-20-18-6-5-16-14-17(25)10-12-23(16,2)21(18)11-13-24(19,20)3/h15-16,18-21H,4-14H2,1-3H3,(H,26,27)/t15-,16+,18+,19-,20+,21+,23+,24-/m1/s1
Instrument: JMS-T100LP, JEOL
Instrument type: LC-ESI-TOF
Ms type: MS
Ion mode: NEGATIVE
Ionization: ESI
m/z	relative intensity
61.97	335
68.98	79
79.94	23
96.95	48
311.17	36
325.19	44
339.21	33
373.27	999
374.28	282
375.29	50
405.31	67
747.56	50
748.58	53
769.56	24
