Mass spectrum: 3b,4b,7a,12a-Tetrahydroxy-5b-cholan-24-oic acid; LC-ESI-TOF; MS; Negative; Orifice voltage -60 V
Name: 3b,4b,7a,12a-Tetrahydroxy-5b-cholan-24-oic acid
Class: Natural Product; Bile acid
Formula: C24H40O6
Exact mass: 424.28249
SMILES: C[C@H](CCC(=O)O)[C@H]1CC[C@@H]2[C@@]1([C@H](C[C@H]3[C@H]2[C@@H](C[C@H]4[C@@]3(CC[C@@H]([C@@H]4O)O)C)O)O)C
InChI: InChI=1S/C24H40O6/c1-12(4-7-20(28)29)13-5-6-14-21-15(11-19(27)24(13,14)3)23(2)9-8-17(25)22(30)16(23)10-18(21)26/h12-19,21-22,25-27,30H,4-11H2,1-3H3,(H,28,29)/t12-,13-,14+,15+,16-,17+,18-,19+,21+,22-,23-,24-/m1/s1
Instrument: JMS-T100LP, JEOL
Instrument type: LC-ESI-TOF
Ms type: MS
Ion mode: NEGATIVE
Ionization: ESI
m/z	relative intensity
69.54399	20
265.1508	85
282.10184	71
283.13222	29
293.16593	33
297.15517	115
308.18698	70
309.17064	38
311.16344	310
312.17266	37
313.17308	29
325.18603	266
326.20707	88
328.2326	15
329.23702	9
331.15394	14
336.18125	75
339.20279	196
340.2021	38
341.21377	20
423.28297	602
424.27779	397
426.59954	10
459.2512	873
460.26212	237
461.24884	253
465.29526	8
466.211	11
467.26777	12
479.22913	21
486.28616	163
487.27435	47
537.26623	33
610.61843	24
611.43423	13
612.51308	13
721.42886	29
734.51522	12
735.48985	76
847.57027	999
848.58286	572
849.59606	211
853.53435	16
856.55009	27
862.64947	21
869.55233	51
883.54568	95
886.54374	13
911.65385	25
943.09556	7
