Mass spectrum: 3a,7a,17a-(OH)3-5b-cholanic acid; LC-ESI-TOF; MS; NEGATIVE; in source decay -60 V
Name: 3a,7a,17a-(OH)3-5b-cholanic acid
Name: 3a,7a,17a-Trihydroxy-5b-cholan-24-oic Acid
Class: Natural Product; Bile acids
Formula: C24H40O5
Exact mass: 408.28757
SMILES: C(C3(C)4)([H])(CC(O)CC4)CC(C(C3([H])2)(C(C1(C)CC2)([H])CCC1(O)C(C)CCC(O)=O)[H])O
InChI: InChI=1S/C24H40O5/c1-14(4-5-20(27)28)24(29)11-8-18-21-17(7-10-23(18,24)3)22(2)9-6-16(25)12-15(22)13-19(21)26/h14-19,21,25-26,29H,4-13H2,1-3H3,(H,27,28)/t14-,15+,16-,17+,18+,19-,21-,22+,23+,24+/m1/s1
Instrument: JMS-T100LP, JEOL
Instrument type: LC-ESI-TOF
Ms type: MS
Ion mode: NEGATIVE
Ionization: ESI
m/z	relative intensity
61.98	999
68.98	617
78.90	30
80.90	33
89.02	53
93.03	23
98.94	24
112.98	120
227.20	54
241.22	39
253.22	73
255.24	153
256.24	22
265.15	76
281.24	43
283.26	45
293.19	29
297.16	47
309.17	27
311.16	147
312.17	24
325.19	125
326.20	26
339.20	89
340.20	20
407.29	135
408.29	43
443.25	27
815.60	21
