Mass spectrum: 3a,7a,16a-(OH)3-5b-cholanic acid; LC-ESI-TOF; MS; NEGATIVE; in source decay -90 V
Name: 3a,7a,16a-(OH)3-5b-cholanic acid
Name: 3a,7a,16a-Trihydroxy-5b-cholan-24-oic Acid
Class: Natural Product; Bile acids
Formula: C24H40O5
Exact mass: 408.28757
SMILES: C(C3(C)4)([H])(CC(O)CC4)CC(C(C3([H])2)(C(C1(C)CC2)([H])CC(C1([H])C(C)CCC(O)=O)O)[H])O
InChI: InChI=1S/C24H40O5/c1-13(4-5-20(28)29)22-19(27)12-17-21-16(7-9-24(17,22)3)23(2)8-6-15(25)10-14(23)11-18(21)26/h13-19,21-22,25-27H,4-12H2,1-3H3,(H,28,29)/t13-,14+,15-,16+,17+,18-,19-,21-,22+,23+,24+/m1/s1
Instrument: JMS-T100LP, JEOL
Instrument type: LC-ESI-TOF
Ms type: MS
Ion mode: NEGATIVE
Ionization: ESI
m/z	relative intensity
62.19	89
69.18	53
79.12	34
97.09	20
255.25	53
281.26	22
283.28	32
311.18	34
325.20	44
339.21	27
367.27	23
389.27	60
407.28	999
408.28	282
409.28	52
429.26	21
815.54	38
816.53	22
837.51	30
