Mass spectrum: 3b,4b,7a,12a-Tetrahydroxy-5b-cholan-24-oic acid; LC-ESI-TOF; MS; Negative; Orifice voltage -90 V
Name: 3b,4b,7a,12a-Tetrahydroxy-5b-cholan-24-oic acid
Class: Natural Product; Bile acid
Formula: C24H40O6
Exact mass: 424.28249
SMILES: C[C@H](CCC(=O)O)[C@H]1CC[C@@H]2[C@@]1([C@H](C[C@H]3[C@H]2[C@@H](C[C@H]4[C@@]3(CC[C@@H]([C@@H]4O)O)C)O)O)C
InChI: InChI=1S/C24H40O6/c1-12(4-7-20(28)29)13-5-6-14-21-15(11-19(27)24(13,14)3)23(2)9-8-17(25)22(30)16(23)10-18(21)26/h12-19,21-22,25-27,30H,4-11H2,1-3H3,(H,28,29)/t12-,13-,14+,15+,16-,17+,18-,19+,21+,22-,23-,24-/m1/s1
Instrument: JMS-T100LP, JEOL
Instrument type: LC-ESI-TOF
Ms type: MS
Ion mode: NEGATIVE
Ionization: ESI
m/z	relative intensity
265.14962	32
282.10058	12
297.15385	84
298.16046	17
311.16206	219
312.17127	30
313.16126	24
325.18459	202
326.18434	41
327.18562	17
336.17976	33
337.20707	11
339.20128	135
340.20059	26
341.20137	13
349.20544	15
353.21459	15
355.2444	4
377.23469	4
381.24006	9
393.7221	9
408.35597	7
423.26897	999
424.27591	348
425.2719	61
429.29196	10
440.00566	10
459.24917	114
460.26009	26
461.25946	23
463.26145	7
465.11524	1
486.27101	13
507.28651	11
656.17247	14
661.98229	8
842.49556	7
847.56653	261
848.57911	150
857.30538	6
869.58325	38
905.50349	18
