Mass spectrum: 3b,4b,7a,12a-Tetrahydroxy-5b-cholan-24-oic acid; LC-ESI-TOF; MS; Negative; Orifice voltage -120 V
Name: 3b,4b,7a,12a-Tetrahydroxy-5b-cholan-24-oic acid
Class: Natural Product; Bile acid
Formula: C24H40O6
Exact mass: 424.28249
SMILES: C[C@H](CCC(=O)O)[C@H]1CC[C@@H]2[C@@]1([C@H](C[C@H]3[C@H]2[C@@H](C[C@H]4[C@@]3(CC[C@@H]([C@@H]4O)O)C)O)O)C
InChI: InChI=1S/C24H40O6/c1-12(4-7-20(28)29)13-5-6-14-21-15(11-19(27)24(13,14)3)23(2)9-8-17(25)22(30)16(23)10-18(21)26/h12-19,21-22,25-27,30H,4-11H2,1-3H3,(H,28,29)/t12-,13-,14+,15+,16-,17+,18-,19+,21+,22-,23-,24-/m1/s1
Instrument: JMS-T100LP, JEOL
Instrument type: LC-ESI-TOF
Ms type: MS
Ion mode: NEGATIVE
Ionization: ESI
m/z	relative intensity
62.50017	13
79.94333	123
96.94746	155
183.01067	230
253.73873	31
281.18925	30
297.15237	45
311.16051	128
325.18296	155
327.18398	12
339.19959	95
365.17474	22
381.24966	5
387.24523	5
393.31096	4
405.26343	23
407.28281	5
418.91325	25
423.26685	999
425.26978	71
435.28155	52
438.27448	88
459.24688	40
462.32096	28
474.28335	34
477.34289	32
481.22639	25
486.29457	18
508.27998	26
521.69377	60
563.6548	23
594.75611	16
607.66	20
610.58355	19
636.76505	27
662.75253	18
689.55378	35
702.52084	27
730.47292	34
735.419	19
768.7104	23
844.75085	16
847.5623	99
848.57488	61
853.81904	15
855.71434	61
869.54416	29
870.535	16
883.5724	20
897.35977	21
905.51671	7
947.01806	13
952.06651	65
968.37406	17
971.97185	31
