Mass spectrum: Tauroursodeoxycholate-3-sulfate; LC-ESI-TOF; MS; NEGATIVE; In-source decay -30 V
Name: Tauroursodeoxycholate-3-sulfate
Class: Natural Product; Bile acids
Formula: C26H45NO9S2
Exact mass: 579.25357
SMILES: C[C@H](CCC(=O)NCCS(=O)(=O)O)[C@H]1CC[C@@H]2[C@@]1(CC[C@H]3[C@H]2[C@H](C[C@H]4[C@@]3(CC[C@H](C4)OS(=O)(=O)O)C)O)C
InChI: InChI=1S/C26H45NO9S2/c1-16(4-7-23(29)27-12-13-37(30,31)32)19-5-6-20-24-21(9-11-26(19,20)3)25(2)10-8-18(36-38(33,34)35)14-17(25)15-22(24)28/h16-22,24,28H,4-15H2,1-3H3,(H,27,29)(H,30,31,32)(H,33,34,35)/t16-,17+,18-,19-,20+,21+,22+,24+,25+,26-/m1/s1
Instrument: JMS-T100LP, JEOL
Instrument type: LC-ESI-TOF
Ms type: MS
Ion mode: NEGATIVE
Ionization: ESI
m/z	relative intensity
288.61	999
290.12	35
