Mass spectrum: 3b,4a-Dihydroxy-5b-cholan-24-oic acid; LC-ESI-TOF; MS; Negative; Orifice voltage -150 V
Name: 3b,4a-Dihydroxy-5b-cholan-24-oic acid
Class: Natural Product; Bile acids
Formula: C24H40O4
Exact mass: 392.29266
SMILES: O=C(O)CC[C@@H](C)C1CCC2C3CC[C@@H]4[C@H](O)[C@@H](O)CC[C@]4(C)C3CC[C@]12C
InChI: InChI=1S/C24H40O4/c1-14(4-9-21(26)27)16-7-8-17-15-5-6-19-22(28)20(25)11-13-24(19,3)18(15)10-12-23(16,17)2/h14-20,22,25,28H,4-13H2,1-3H3,(H,26,27)/t14-,15?,16?,17?,18?,19-,20+,22+,23-,24-/m1/s1
Instrument: JMS-T100LP, JEOL
Instrument type: LC-ESI-TOF
Ms type: MS
Ion mode: NEGATIVE
Ionization: ESI
m/z	relative intensity
61.95451	7
78.89111	999
79.11719	5
79.45936	6
79.9307	11
80.88962	990
81.14385	8
81.485	9
81.86138	1
81.96464	2
82.10351	1
96.94219	6
119.04124	5
126.89442	8
136.86518	2
163.89163	2
165.89007	4
180.82577	15
182.82137	47
184.01835	1
184.81703	10
185.13719	1
359.26984	6
360.27076	1
360.37318	1
371.26572	1
373.28092	6
374.28859	1
389.27981	39
389.83458	1
390.28982	12
390.88816	2
391.28409	202
392.28691	58
395.22449	1
395.54324	1
413.27829	4
421.29387	2
423.31574	12
424.3325	4
427.27348	1
449.25546	6
450.25219	1
451.24248	1
451.30855	1
471.22536	21
471.71893	1
471.81315	2
472.21518	7
473.21583	22
473.86526	1
474.22503	7
475.30092	1
476.29271	1
486.95653	1
487.08998	1
493.22067	11
494.20942	3
495.20505	10
496.22129	3
783.5901	4
784.62302	2
785.52675	1
786.50723	1
805.58177	26
806.5894	17
807.56426	6
808.62768	2
808.87579	2
833.94603	1
841.4657	2
863.52259	3
864.54021	1
864.68628	1
865.54862	3
908.5685	2
909.49946	3
992.20341	5
