Mass spectrum: 3a,7a,16b-(OH)3-5b-cholanic acid; LC-ESI-TOF; MS; NEGATIVE; in source decay -150 V
Name: 3a,7a,16b-(OH)3-5b-cholanic acid
Name: 3a,7a,16b-Trihydroxy-5b-cholan-24-oic Acid
Class: Natural Product; Bile acids
Formula: C24H40O5
Exact mass: 408.28757
SMILES: C(C3(C)4)([H])(CC(O)CC4)CC(C(C3([H])2)(C(C1(C)CC2)([H])CC(C1([H])C(C)CCC(O)=O)O)[H])O
InChI: InChI=1S/C24H40O5/c1-13(4-5-20(28)29)22-19(27)12-17-21-16(7-9-24(17,22)3)23(2)8-6-15(25)10-14(23)11-18(21)26/h13-19,21-22,25-27H,4-12H2,1-3H3,(H,28,29)/t13-,14+,15-,16+,17+,18-,19+,21-,22+,23+,24+/m1/s1
Instrument: JMS-T100LP, JEOL
Instrument type: LC-ESI-TOF
Ms type: MS
Ion mode: NEGATIVE
Ionization: ESI
m/z	relative intensity
57.25	26
59.22	20
69.22	116
79.12	42
80.11	30
83.20	70
95.18	109
97.19	24
99.21	304
100.20	22
109.17	23
113.09	76
139.18	23
151.18	26
153.19	30
177.18	46
183.06	31
203.17	51
221.22	28
231.20	24
233.21	28
245.21	46
248.98	38
261.24	79
271.22	53
273.24	28
287.22	36
297.22	25
299.23	56
309.24	30
311.25	25
313.26	22
315.28	70
317.27	79
323.26	51
325.26	77
326.26	20
327.24	165
328.26	43
329.26	23
333.29	21
337.23	20
341.26	163
342.26	45
343.27	165
344.28	43
345.29	151
346.29	40
353.26	22
355.23	36
359.27	32
361.28	44
363.30	74
364.30	21
367.27	41
371.27	65
389.27	159
390.27	46
391.25	29
405.27	30
407.28	999
408.28	287
409.28	93
425.25	33
429.26	53
435.27	26
465.26	27
475.25	26
503.25	90
504.25	25
797.52	84
798.52	47
815.52	47
816.51	27
837.51	269
838.52	145
839.54	58
855.53	21
859.50	26
