Mass spectrum: 3b,6a-Dihydroxy-5b-cholan-24-oic acid; LC-ESI-TOF; MS; Negative; Orifice voltage -60 V
Name: 3b,6a-Dihydroxy-5b-cholan-24-oic acid
Class: Natural Product; Bile acid
Formula: C24H40O4
Exact mass: 392.29266
SMILES: C[C@H](CCC(=O)O)[C@H]1CC[C@@H]2[C@@]1(CC[C@H]3[C@H]2C[C@@H]([C@H]4[C@@]3(CC[C@@H](C4)O)C)O)C
InChI: InChI=1S/C24H40O4/c1-14(4-7-22(27)28)17-5-6-18-16-13-21(26)20-12-15(25)8-10-24(20,3)19(16)9-11-23(17,18)2/h14-21,25-26H,4-13H2,1-3H3,(H,27,28)/t14-,15+,16+,17-,18+,19+,20+,21+,23-,24-/m1/s1
Instrument: JMS-T100LP, JEOL
Instrument type: LC-ESI-TOF
Ms type: MS
Ion mode: NEGATIVE
Ionization: ESI
m/z	relative intensity
51.1993	9
59.16737	3
61.13589	18
62.13431	30
63.18902	2
69.1288	999
69.33934	10
69.64362	19
70.12704	19
73.12878	24
79.06833	8
85.12444	10
89.11564	2
93.11946	4
99.0838	1
111.04371	1
113.04442	152
114.04808	4
125.04806	5
153.05739	6
154.99731	92
156.0027	2
157.14559	1
167.01139	21
187.00929	17
199.02625	2
205.16635	2
212.07727	20
213.08186	3
227.20432	3
241.21823	2
248.95852	83
249.96431	4
255.23353	7
256.2359	1
283.26234	4
290.948	3
302.97024	2
384.93564	17
391.28342	79
392.28976	24
393.29989	4
413.27336	2
423.31584	6
424.31793	2
438.94678	4
445.29734	3
489.28625	2
520.9104	32
521.91615	3
527.26588	6
528.26918	2
574.92427	4
656.8875	12
663.24391	2
677.54367	2
710.90492	3
783.59097	2
792.86085	7
928.83698	2
