Mass spectrum: 3a,6a,7b,12a-Tetrahydroxy-5b-cholan-24-oic acid; LC-ESI-TOF; MS; NEGATIVE; In-source decay -90 V
Name: 3a,6a,7b,12a-Tetrahydroxy-5b-cholan-24-oic acid
Class: Natural Product; Bile acids
Formula: C24H40O6
Exact mass: 424.28249
SMILES: C(C23[H])(O)C(C(C(C2([H])CC(C(C([H])(C(C)CCC(O)=O)4)(C3([H])CC4)C)O)(C)1)([H])CC(O)CC1)O
InChI: InChI=1S/C24H40O6/c1-12(4-7-19(27)28)14-5-6-15-20-16(11-18(26)24(14,15)3)23(2)9-8-13(25)10-17(23)21(29)22(20)30/h12-18,20-22,25-26,29-30H,4-11H2,1-3H3,(H,27,28)/t12-,13-,14-,15+,16+,17+,18+,20+,21-,22-,23-,24-/m1/s1
Instrument: JMS-T100LP, JEOL
Instrument type: LC-ESI-TOF
Ms type: MS
Ion mode: NEGATIVE
Ionization: ESI
m/z	relative intensity
61.97	999
68.98	978
112.98	138
325.19	77
423.27	997
424.29	312
459.25	497
460.26	134
461.25	160
470.76	76
478.64	75
481.25	139
497.90	105
511.42	95
519.22	99
643.45	65
669.56	109
720.25	81
774.95	84
829.58	101
830.57	64
836.08	87
847.59	237
848.59	141
861.83	69
883.56	124
884.57	65
885.55	68
923.43	73
943.87	76
948.58	78
