Mass spectrum: N-(3a-Hydroxy-5b-cholan-24-oyl)-glycine; LC-ESI-TOF; MS; NEGATIVE; in source decay -30 V
Name: N-(3a-Hydroxy-5b-cholan-24-oyl)-glycine
Name: Glycolithocholic acid
Class: Natural Product; Bile acids
Formula: C26H43NO4
Exact mass: 433.31921
SMILES: CC(CCC(=O)NCC(=O)O)C1CCC2C1(CCC3C2CCC4C3(CCC(C4)O)C)C
InChI: InChI=1S/C26H43NO4/c1-16(4-9-23(29)27-15-24(30)31)20-7-8-21-19-6-5-17-14-18(28)10-12-25(17,2)22(19)11-13-26(20,21)3/h16-22,28H,4-15H2,1-3H3,(H,27,29)(H,30,31)/t16-,17-,18-,19+,20-,21+,22+,25+,26-/m1/s1
Instrument: JMS-T100LP, JEOL
Instrument type: LC-ESI-TOF
Ms type: MS
Ion mode: NEGATIVE
Ionization: ESI
m/z	relative intensity
61.99	23
68.99	303
112.98	999
113.99	23
226.98	79
248.96	37
432.31	121
433.31	36
468.29	26
546.31	101
547.32	35
865.63	73
866.64	42
