Mass spectrum: 3a-Sulfate-7a,12a-(OH)2-5b-cholanic acid; LC-ESI-TOF; MS; NEGATIVE; In-source decay -150V
Name: 3a-Sulfate-7a,12a-(OH)2-5b-cholanic acid
Name: 3alpha-Sulfooxy-7alpha,12alpha-dihydroxy-5beta-cholan-24-oic acid
Class: Natural Product; Bile acids
Formula: C24H40O8S
Exact mass: 488.24439
SMILES: C[C@H](CCC(=O)O)[C@H]1CC[C@@H]2[C@@]1([C@H](C[C@H]3[C@H]2[C@@H](C[C@H]4[C@@]3(CC[C@H](C4)OS(=O)(=O)O)C)O)O)C
InChI: InChI=1S/C24H40O8S/c1-13(4-7-21(27)28)16-5-6-17-22-18(12-20(26)24(16,17)3)23(2)9-8-15(32-33(29,30)31)10-14(23)11-19(22)25/h13-20,22,25-26H,4-12H2,1-3H3,(H,27,28)(H,29,30,31)/t13-,14+,15-,16-,17+,18+,19-,20+,22+,23+,24-/m1/s1
Instrument: JMS-T100LP, JEOL
Instrument type: LC-ESI-TOF
Ms type: MS
Ion mode: NEGATIVE
Ionization: ESI
m/z	relative intensity
79.95	49
96.95	999
98.95	62
112.98	57
118.94	43
126.99	37
141.01	33
150.96	33
171.02	25
487.23	41
509.22	123
510.21	28
733.27	24
