Mass spectrum: 3b,6b-Dihydroxy-5b-cholan-24-oic acid; LC-ESI-TOF; MS; Negative; Orifice voltage -30 V
Name: 3b,6b-Dihydroxy-5b-cholan-24-oic acid
Class: Natural Product; Bile acid
Formula: C24H40O4
Exact mass: 392.29266
SMILES: C[C@H](CCC(=O)O)[C@H]1CC[C@@H]2[C@@]1(CC[C@H]3[C@H]2C[C@H]([C@H]4[C@@]3(CC[C@@H](C4)O)C)O)C
InChI: InChI=1S/C24H40O4/c1-14(4-7-22(27)28)17-5-6-18-16-13-21(26)20-12-15(25)8-10-24(20,3)19(16)9-11-23(17,18)2/h14-21,25-26H,4-13H2,1-3H3,(H,27,28)/t14-,15+,16+,17-,18+,19+,20+,21-,23-,24-/m1/s1
Instrument: JMS-T100LP, JEOL
Instrument type: LC-ESI-TOF
Ms type: MS
Ion mode: NEGATIVE
Ionization: ESI
m/z	relative intensity
59.16785	7
62.13428	17
63.18884	1
69.12557	319
70.1275	4
73.12976	2
75.12593	131
76.1282	3
85.1244	8
89.11528	16
93.1199	3
99.08227	2
113.04881	999
113.32758	6
113.6908	20
114.04672	26
114.26416	7
115.04811	5
129.05941	4
143.06387	1
145.04108	2
153.0571	10
154.99953	4
157.14491	1
167.01118	19
173.02228	2
180.98655	2
181.97959	2
187.02502	1
194.99486	1
197.97172	2
199.02853	2
199.17372	1
210.98679	5
212.07732	17
213.08146	3
225.00517	2
226.98163	12
227.20547	3
241.21835	2
248.95864	117
249.96525	7
255.23298	7
256.23291	1
264.98638	2
283.26137	3
300.06693	2
302.97025	3
346.96029	2
384.93511	24
385.94422	2
391.28311	96
392.28867	28
393.2984	5
423.31221	9
424.31333	3
438.94764	3
482.93526	2
489.28676	7
490.29133	2
505.28213	2
520.91592	9
527.26624	4
587.29145	2
604.37669	3
618.91873	2
656.89635	2
783.58642	3
805.57684	2
