Mass spectrum: Tauro 3a,12a-(OH)2-5b-cholanic acid; LC-ESI-TOF; MS; NEGATIVE; In source decay -30 V
Name: Tauro 3a,12a-(OH)2-5b-cholanic acid
Name: 2-{[(3alpha,5beta,12alpha)-3,12-Dihydroxy-24-oxocholan-24-yl]amino}ethanesulfonic acid
Class: Natural Product; Bile acids
Formula: C26H45NO6S
Exact mass: 499.29676
SMILES: C[C@H](CCC(=O)NCCS(=O)(=O)O)[C@H]1CC[C@@H]2[C@@]1([C@H](C[C@H]3[C@H]2CC[C@H]4[C@@]3(CC[C@H](C4)O)C)O)C
InChI: InChI=1S/C26H45NO6S/c1-16(4-9-24(30)27-12-13-34(31,32)33)20-7-8-21-19-6-5-17-14-18(28)10-11-25(17,2)22(19)15-23(29)26(20,21)3/h16-23,28-29H,4-15H2,1-3H3,(H,27,30)(H,31,32,33)/t16-,17-,18-,19+,20-,21+,22+,23+,25+,26-/m1/s1
Instrument: JMS-T100LP, JEOL
Instrument type: LC-ESI-TOF
Ms type: MS
Ion mode: NEGATIVE
Ionization: ESI
m/z	relative intensity
61.95	85
73.75	23
89.00	79
90.97	38
113.97	39
123.99	63
212.07	63
226.97	33
248.97	24
275.10	26
309.17	22
311.15	39
317.94	23
344.98	37
358.30	25
389.27	26
394.99	75
429.35	28
437.53	45
451.37	25
498.29	999
499.29	307
540.40	21
566.28	24
579.66	22
658.13	22
678.43	103
736.23	55
759.84	30
765.10	22
833.40	27
842.46	25
845.18	33
859.24	21
879.13	31
887.55	24
898.30	22
910.46	28
918.60	39
938.80	72
963.74	21
979.92	20
