Mass spectrum: 3b,6a,7a-Trihydroxy-5b-cholan-24-oic acid; LC-ESI-TOF; MS; Orifice voltage -120 V; Negative; In-suorce decay
Name: 3b,6a,7a-Trihydroxy-5b-cholan-24-oic acid
Class: Natural Product; Bile acid
Formula: C24H40O5
Exact mass: 408.28757
SMILES: C[C@H](CCC(=O)O)[C@H]1CC[C@@H]2[C@@]1(CC[C@H]3[C@H]2[C@@H]([C@@H]([C@H]4[C@@]3(CC[C@@H](C4)O)C)O)O)C
InChI: InChI=1S/C24H40O5/c1-13(4-7-19(26)27)15-5-6-16-20-17(9-11-23(15,16)2)24(3)10-8-14(25)12-18(24)21(28)22(20)29/h13-18,20-22,25,28-29H,4-12H2,1-3H3,(H,26,27)/t13-,14+,15-,16+,17+,18+,20+,21-,22+,23-,24-/m1/s1
Instrument: JMS-T100LP, JEOL
Instrument type: LC-ESI-TOF
Ms type: MS
Ion mode: NEGATIVE
Ionization: ESI
m/z	relative intensity
61.00159	9
62.00187	50
62.97714	31
63.97497	9
69.00675	52
78.96598	385
79.9673	9
80.92467	37
85.03406	9
89.03027	9
96.96523	7
112.98903	52
125.00234	4
126.90577	77
143.03169	6
153.03054	16
154.97211	24
166.9947	26
171.0211	4
173.00576	5
187.00835	9
197.96469	7
248.95765	199
249.96878	11
250.99809	3
371.26775	27
372.26882	8
373.27581	3
384.94138	13
387.26185	6
389.26871	221
390.27431	64
391.28026	19
392.29808	3
395.23381	7
403.28505	5
405.2719	19
406.26967	5
407.27694	999
408.28165	279
409.28934	52
410.28959	5
411.26267	11
412.27483	4
421.29747	97
422.30853	30
423.31284	8
425.29135	8
427.24884	16
429.26266	171
430.26614	43
431.27863	8
439.30351	643
440.30933	184
441.31261	33
442.32208	5
443.2853	4
449.24027	6
451.31218	5
459.28108	4
461.29085	59
462.29513	16
465.24852	18
466.25692	5
467.25337	7
471.25922	7
476.2805	5
483.2986	9
487.24714	5
489.28101	18
490.29134	6
511.26914	7
519.30148	6
520.92053	6
543.258	13
565.26439	7
583.3154	18
605.29025	6
797.58565	8
815.56382	7
816.58425	4
837.54564	408
838.55135	217
839.55578	71
840.57246	17
841.59161	5
859.54047	27
860.54377	13
861.54446	5
881.55052	13
882.55308	7
