Mass spectrum: 3b,4b,12a-Trihydroxy-5b-cholan-24-oic acid; LC-ESI-TOF; MS; Negative; Orifice voltage -60 V
Name: 3b,4b,12a-Trihydroxy-5b-cholan-24-oic acid
Class: Natural Product; Bile acid
Formula: C24H40O5
Exact mass: 408.28757
SMILES: C[C@H](CCC(=O)O)[C@H]1CC[C@@H]2[C@@]1([C@H](C[C@H]3[C@H]2CC[C@H]4[C@@]3(CC[C@@H]([C@@H]4O)O)C)O)C
InChI: InChI=1S/C24H40O5/c1-13(4-9-21(27)28)15-7-8-16-14-5-6-17-22(29)19(25)10-11-23(17,2)18(14)12-20(26)24(15,16)3/h13-20,22,25-26,29H,4-12H2,1-3H3,(H,27,28)/t13-,14+,15-,16+,17-,18+,19+,20+,22-,23+,24-/m1/s1
Instrument: JMS-T100LP, JEOL
Instrument type: LC-ESI-TOF
Ms type: MS
Ion mode: NEGATIVE
Ionization: ESI
m/z	relative intensity
51.25479	7
59.22313	155
60.2245	3
61.19207	8
62.18972	58
65.1647	2
69.17869	822
69.38743	3
69.7482	6
70.18047	12
73.20171	15
79.11967	34
81.07394	4
85.17525	5
87.18825	5
89.16519	8
93.16942	2
97.08906	6
99.12984	6
111.08721	3
113.08788	101
114.09117	3
121.13155	2
125.08978	15
127.09098	3
141.08887	1
143.0871	2
143.17927	2
148.18092	1
151.11893	1
153.09523	15
155.03539	22
157.0749	2
157.18461	5
167.04929	4
171.19095	2
181.0255	3
187.04924	4
199.21072	7
205.1943	1
212.10851	31
213.11168	5
214.10794	1
221.18869	3
225.21587	3
227.22812	19
228.23479	3
233.18412	4
239.22834	2
241.24465	10
242.24184	2
248.98805	10
250.17179	4
253.23925	19
254.25129	4
255.25523	45
256.2597	8
265.17284	5
267.25517	3
269.27156	5
279.25269	3
280.28441	4
281.26629	14
282.27812	3
283.28475	20
284.28748	4
293.19974	2
297.17366	6
307.22635	2
309.21419	3
311.17998	12
312.1856	2
323.2372	2
325.20037	11
326.20777	3
339.21548	8
340.21715	2
353.2207	2
367.36897	2
391.28353	4
395.25794	2
405.26706	2
407.27614	999
408.27978	282
409.28274	46
410.29753	5
410.6717	2
429.26088	22
430.26514	6
431.26722	3
443.24568	5
445.24914	2
461.27822	7
462.29614	2
465.23472	4
467.24164	2
475.2556	49
476.26395	16
477.27285	3
489.27476	17
490.28325	5
497.24705	8
498.25803	2
505.27172	6
506.28448	2
511.26164	3
519.27918	2
521.27004	2
543.23997	14
544.24482	5
557.24521	4
561.30982	3
565.22881	3
579.23412	2
583.29109	3
611.22672	2
657.20892	2
793.43847	3
815.52696	145
816.52704	79
817.54602	26
818.05447	2
818.55514	7
821.46505	1
837.51253	66
838.512	36
839.52734	12
840.52895	3
859.51594	4
860.50379	2
905.52156	5
906.52001	3
973.48902	2
