Mass spectrum: 3a,6a,7b-Trihydroxy-5b-cholan-24-oic acid; LC-ESI-TOF; MS; Orifice voltage -120 V; Negative; In-suorce decay
Name: 3a,6a,7b-Trihydroxy-5b-cholan-24-oic acid
Name: omega-Muricholic acid
Name: beta-Hyocholic acid
Class: Natural Product; Bile acid
Formula: C24H40O5
Exact mass: 408.28757
SMILES: C[C@H](CCC(=O)O)[C@H]1CC[C@@H]2[C@@]1(CC[C@H]3[C@H]2[C@H]([C@@H]([C@H]4[C@@]3(CC[C@H](C4)O)C)O)O)C
InChI: InChI=1S/C24H40O5/c1-13(4-7-19(26)27)15-5-6-16-20-17(9-11-23(15,16)2)24(3)10-8-14(25)12-18(24)21(28)22(20)29/h13-18,20-22,25,28-29H,4-12H2,1-3H3,(H,26,27)/t13-,14-,15-,16+,17+,18+,20+,21-,22-,23-,24-/m1/s1
Instrument: JMS-T100LP, JEOL
Instrument type: LC-ESI-TOF
Ms type: MS
Ion mode: NEGATIVE
Ionization: ESI
m/z	relative intensity
61.00084	11
62.00227	49
62.97714	22
69.00657	52
78.96626	263
79.96635	9
80.9237	22
85.03263	8
89.02863	9
112.98656	58
126.90632	33
129.01572	8
143.03134	7
153.02965	15
154.97104	21
166.99378	20
187.00626	11
248.95722	166
249.96636	8
371.26137	28
372.26267	9
381.24684	9
384.94238	19
389.27535	17
390.27803	6
397.23807	17
405.27367	7
407.2775	999
408.28187	282
409.2851	62
410.27796	8
411.25661	6
413.26767	9
427.24829	48
428.25509	15
429.26554	44
430.26267	10
439.30495	172
440.31067	49
441.30337	12
449.26288	8
461.29086	42
462.29865	12
465.24369	21
466.24577	6
467.24652	9
471.25608	7
481.26189	8
519.30126	7
520.92084	10
543.26193	7
583.30927	15
837.55026	162
838.55827	89
839.55704	31
840.57615	8
859.5417	18
860.54921	10
881.53053	10
882.53055	5
