Mass spectrum: N-[(3a,5b,7a,12a)-7,12-Dihydroxy-24-oxo-3-(sulfooxy)cholan-24-yl]glycine; LC-ESI-TOF; MS; NEGATIVE; In-source decay -150 V
Name: N-[(3a,5b,7a,12a)-7,12-Dihydroxy-24-oxo-3-(sulfooxy)cholan-24-yl]glycine
Class: Natural Product; Bile acids
Formula: C26H43NO9S
Exact mass: 545.26585
SMILES: C[C@H](CCC(=O)NCC(=O)O)[C@H]1CC[C@@H]2[C@@]1([C@H](C[C@H]3[C@H]2[C@@H](C[C@H]4[C@@]3(CC[C@H](C4)OS(=O)(=O)O)C)O)O)C
InChI: InChI=1S/C26H43NO9S/c1-14(4-7-22(30)27-13-23(31)32)17-5-6-18-24-19(12-21(29)26(17,18)3)25(2)9-8-16(36-37(33,34)35)10-15(25)11-20(24)28/h14-21,24,28-29H,4-13H2,1-3H3,(H,27,30)(H,31,32)(H,33,34,35)/t14-,15+,16-,17-,18+,19+,20-,21+,24+,25+,26-/m1/s1
Instrument: JMS-T100LP, JEOL
Instrument type: LC-ESI-TOF
Ms type: MS
Ion mode: NEGATIVE
Ionization: ESI
m/z	relative intensity
74.01	496
79.94	199
87.04	24
96.95	999
98.94	60
118.93	28
400.28	28
402.30	65
464.30	154
465.30	49
544.26	93
545.27	31
566.23	188
567.24	65
568.24	21
623.26	20
