Mass spectrum: Glyco 3a-sulfate-7b-OH-5b-cholanic acid; LC-ESI-TOF; MS; NEGATIVE; In-source decay -120 V
Name: Glyco 3a-sulfate-7b-OH-5b-cholanic acid
Name: N-((3a,5b,7b)-7-Hydroxy-24-oxo-3-(sulfooxy)cholan-24-yl)glycine
Class: Natural Product; Bile acids
Formula: C26H43NO8S
Exact mass: 529.27094
SMILES: O=C(O)CNC(=O)CC[C@@H](C)[C@H]1CC[C@H]2[C@H]3[C@H](CC[C@]12C)[C@@]4(C)CC[C@@H](OS(=O)(=O)O)C[C@H]4C[C@@H]3O
InChI: InChI=1S/C26H43NO8S/c1-15(4-7-22(29)27-14-23(30)31)18-5-6-19-24-20(9-11-26(18,19)3)25(2)10-8-17(35-36(32,33)34)12-16(25)13-21(24)28/h15-21,24,28H,4-14H2,1-3H3,(H,27,29)(H,30,31)(H,32,33,34)/t15-,16+,17-,18-,19+,20+,21+,24+,25+,26-/m1/s1
Instrument: JMS-T100LP, JEOL
Instrument type: LC-ESI-TOF
Ms type: MS
Ion mode: NEGATIVE
Ionization: ESI
m/z	relative intensity
61.97	45
74.01	525
79.94	53
96.95	795
98.94	49
183.01	34
386.31	49
404.32	25
448.30	999
449.30	303
450.31	75
471.24	44
528.26	202
529.26	64
530.27	25
550.24	272
551.25	85
552.25	42
