Mass spectrum: 3a,6b-Dihydroxy-5b-cholan-24-oic acid; LC-ESI-TOF; MS; Negative; Orifice voltage -120 V
Name: 3a,6b-Dihydroxy-5b-cholan-24-oic acid
Class: Natural Product; Bile acid
Formula: C24H40O4
Exact mass: 392.29266
SMILES: C[C@H](CCC(=O)O)[C@H]1CC[C@@H]2[C@@]1(CC[C@H]3[C@H]2C[C@H]([C@H]4[C@@]3(CC[C@H](C4)O)C)O)C
InChI: InChI=1S/C24H40O4/c1-14(4-7-22(27)28)17-5-6-18-16-13-21(26)20-12-15(25)8-10-24(20,3)19(16)9-11-23(17,18)2/h14-21,25-26H,4-13H2,1-3H3,(H,27,28)/t14-,15-,16+,17-,18+,19+,20+,21-,23-,24-/m1/s1
Instrument: JMS-T100LP, JEOL
Instrument type: LC-ESI-TOF
Ms type: MS
Ion mode: NEGATIVE
Ionization: ESI
m/z	relative intensity
62.13356	95
64.10356	58
65.10925	25
69.12653	25
79.06958	17
80.06489	13
81.0227	7
85.12467	15
93.11959	12
113.04616	34
167.01182	12
205.16501	11
248.95979	46
255.2337	9
373.27923	10
389.26914	34
390.28025	10
391.28359	999
392.28793	285
393.29507	48
394.29866	5
395.26754	11
411.25443	28
413.26878	63
414.27264	18
421.30077	7
423.3111	165
424.31522	53
425.30492	20
443.28084	17
445.29615	57
446.30463	18
465.263	20
466.26972	6
467.28471	9
519.27744	8
575.30064	7
805.56865	34
806.56991	20
807.57395	7
849.54574	7
