Mass spectrum: 3b,4b,7a,12a-Tetrahydroxy-5b-cholan-24-oic acid; LC-ESI-TOF; MS; Negative; Orifice voltage -30 V
Name: 3b,4b,7a,12a-Tetrahydroxy-5b-cholan-24-oic acid
Class: Natural Product; Bile acid
Formula: C24H40O6
Exact mass: 424.28249
SMILES: C[C@H](CCC(=O)O)[C@H]1CC[C@@H]2[C@@]1([C@H](C[C@H]3[C@H]2[C@@H](C[C@H]4[C@@]3(CC[C@@H]([C@@H]4O)O)C)O)O)C
InChI: InChI=1S/C24H40O6/c1-12(4-7-20(28)29)13-5-6-14-21-15(11-19(27)24(13,14)3)23(2)9-8-17(25)22(30)16(23)10-18(21)26/h12-19,21-22,25-27,30H,4-11H2,1-3H3,(H,28,29)/t12-,13-,14+,15+,16-,17+,18-,19+,21+,22-,23-,24-/m1/s1
Instrument: JMS-T100LP, JEOL
Instrument type: LC-ESI-TOF
Ms type: MS
Ion mode: NEGATIVE
Ionization: ESI
m/z	relative intensity
68.98471	438
113.98638	35
295.32933	62
301.94917	53
304.38112	52
308.17663	170
311.16344	196
313.18351	16
315.06364	76
325.19666	166
327.19773	44
395.22209	45
402.29483	52
423.28297	347
424.27779	125
428.23219	91
432.24168	158
437.18123	74
443.25244	58
448.15453	20
451.24141	105
459.2512	889
461.2615	228
469.26998	32
473.28725	28
476.22784	167
479.26784	41
481.28264	202
486.27316	772
487.27435	270
495.43901	78
501.30679	118
507.24894	75
510.58597	70
515.8864	103
519.21139	67
527.29991	69
537.27989	112
543.47214	64
554.65765	157
563.26841	93
566.51805	56
567.37403	167
570.9734	60
574.34402	109
580.30552	57
582.47968	87
602.46146	149
604.8796	67
610.38544	83
613.41772	56
619.44615	89
635.92364	163
643.39114	73
650.37609	83
653.17461	71
657.26277	148
658.2301	60
663.44169	96
670.64118	79
681.53635	63
685.35728	63
689.48289	210
705.4985	78
708.617	73
717.52431	147
721.47635	45
724.50302	40
735.47387	84
745.99587	91
749.49292	166
753.48339	67
758.57158	61
763.53033	244
770.46699	45
775.4644	169
793.09084	127
813.5187	67
834.80214	52
847.57027	999
848.58286	621
865.52521	136
866.60051	49
875.73262	139
878.07115	63
883.54568	428
885.56136	171
894.79256	68
897.58007	63
901.6633	245
910.56874	164
911.58268	113
917.58891	101
925.4247	124
947.6074	70
953.20322	121
961.60954	41
990.83055	66
995.65954	172
