Mass spectrum: 3a,4b-Dihydroxy-5b-cholan-24-oic acid; LC-ESI-TOF; MS; Negative; Orifice voltage -60 V
Name: 3a,4b-Dihydroxy-5b-cholan-24-oic acid
Class: Natural Product; Bile acids
Formula: C24H40O4
Exact mass: 392.29266
SMILES: C[C@H](CCC(=O)O)[C@H]1CC[C@@H]2[C@@]1(CC[C@H]3[C@H]2CC[C@H]4[C@@]3(CC[C@H]([C@@H]4O)O)C)C
InChI: InChI=1S/C24H40O4/c1-14(4-9-21(26)27)16-7-8-17-15-5-6-19-22(28)20(25)11-13-24(19,3)18(15)10-12-23(16,17)2/h14-20,22,25,28H,4-13H2,1-3H3,(H,26,27)/t14-,15+,16-,17+,18+,19-,20-,22-,23-,24-/m1/s1
Instrument: JMS-T100LP, JEOL
Instrument type: LC-ESI-TOF
Ms type: MS
Ion mode: NEGATIVE
Ionization: ESI
m/z	relative intensity
58.97975	17
61.95479	127
68.96666	23
78.89139	975
79.11145	3
79.45409	4
80.88994	999
81.06201	1
81.14447	4
81.48999	8
89.00411	7
98.9338	2
112.97557	5
126.89432	14
130.98073	2
136.86671	5
138.86431	4
157.12055	2
180.82624	15
182.82169	19
184.81819	8
212.08025	7
227.20221	2
230.98285	2
255.24116	6
265.15619	4
280.98462	1
297.16446	3
311.16604	13
312.17067	1
325.19327	14
326.19941	2
330.99076	3
339.21108	10
380.98983	2
391.28574	96
392.28868	33
393.31361	4
423.32039	13
424.32607	4
427.26973	35
428.27286	9
429.28016	11
430.27994	1
430.98726	1
449.26129	2
451.28782	2
471.22313	28
472.23468	11
473.21729	28
474.22517	7
493.21472	7
495.20487	6
496.22282	2
783.59752	74
784.60312	69
786.62107	3
819.58701	3
863.5316	3
865.54389	2
