Mass spectrum: Glyco 3a-sulfate-7b-OH-5b-cholanic acid; LC-ESI-TOF; MS; NEGATIVE; In-source decay -90 V
Name: Glyco 3a-sulfate-7b-OH-5b-cholanic acid
Name: N-((3a,5b,7b)-7-Hydroxy-24-oxo-3-(sulfooxy)cholan-24-yl)glycine
Class: Natural Product; Bile acids
Formula: C26H43NO8S
Exact mass: 529.27094
SMILES: O=C(O)CNC(=O)CC[C@@H](C)[C@H]1CC[C@H]2[C@H]3[C@H](CC[C@]12C)[C@@]4(C)CC[C@@H](OS(=O)(=O)O)C[C@H]4C[C@@H]3O
InChI: InChI=1S/C26H43NO8S/c1-15(4-7-22(29)27-14-23(30)31)18-5-6-19-24-20(9-11-26(18,19)3)25(2)10-8-17(35-36(32,33)34)12-16(25)13-21(24)28/h15-21,24,28H,4-14H2,1-3H3,(H,27,29)(H,30,31)(H,32,33,34)/t15-,16+,17-,18-,19+,20+,21+,24+,25+,26-/m1/s1
Instrument: JMS-T100LP, JEOL
Instrument type: LC-ESI-TOF
Ms type: MS
Ion mode: NEGATIVE
Ionization: ESI
m/z	relative intensity
61.97	153
74.01	68
96.95	414
98.95	26
311.17	25
325.19	28
329.14	74
355.16	34
448.30	456
449.31	149
450.32	25
453.23	45
471.24	82
472.26	28
528.26	999
529.26	305
530.26	103
531.28	33
550.24	240
551.25	76
552.25	39
