Mass spectrum: 3a,6b,7b-Trihydroxy-5a-cholan-24-oic acid; LC-ESI-TOF; MS; NEGATIVE; In source decay -120 V
Name: 3a,6b,7b-Trihydroxy-5a-cholan-24-oic acid
Name: 3alpha,6beta,7beta-Trihydroxy-5alpha-cholan-24-oic Acid
Class: Natural Product; Bile acids
Formula: C24H40O5
Exact mass: 408.28757
SMILES: C(C32[H])(O)C(C(C(C2([H])CCC(C([H])(C(C)CCC(O)=O)4)(C3([H])CC4)C)(C)1)([H])CC(O)CC1)O
InChI: InChI=1S/C24H40O5/c1-13(4-7-19(26)27)15-5-6-16-20-17(9-11-23(15,16)2)24(3)10-8-14(25)12-18(24)21(28)22(20)29/h13-18,20-22,25,28-29H,4-12H2,1-3H3,(H,26,27)/t13-,14-,15-,16+,17+,18-,20+,21+,22-,23-,24-/m1/s1
Instrument: JMS-T100LP, JEOL
Instrument type: LC-ESI-TOF
Ms type: MS
Ion mode: NEGATIVE
Ionization: ESI
m/z	relative intensity
61.98	115
96.96	22
407.28	999
408.28	302
409.30	53
439.32	35
443.27	35
465.26	26
815.59	105
816.61	54
837.57	143
838.58	137
