Mass spectrum: 3a,6b,12a-Trihydroxy-5b-cholan-24-oic acid; LC-ESI-TOF; MS; Orifice voltage -90 V; Negative; In-suorce decay
Name: 3a,6b,12a-Trihydroxy-5b-cholan-24-oic acid
Class: Natural Product; Bile acid
Formula: C24H40O5
Exact mass: 408.28757
SMILES: C[C@H](CCC(=O)O)[C@H]1CC[C@@H]2[C@@]1([C@H](C[C@H]3[C@H]2C[C@H]([C@H]4[C@@]3(CC[C@H](C4)O)C)O)O)C
InChI: InChI=1S/C24H40O5/c1-13(4-7-22(28)29)16-5-6-17-15-11-20(26)19-10-14(25)8-9-23(19,2)18(15)12-21(27)24(16,17)3/h13-21,25-27H,4-12H2,1-3H3,(H,28,29)/t13-,14-,15+,16-,17+,18+,19+,20-,21+,23-,24-/m1/s1
Instrument: JMS-T100LP, JEOL
Instrument type: LC-ESI-TOF
Ms type: MS
Ion mode: NEGATIVE
Ionization: ESI
m/z	relative intensity
61.46155	140
62.45498	188
64.41507	10
65.41456	8
69.40961	999
70.4073	14
73.39505	28
77.32119	10
79.3076	569
79.84439	4
80.30306	13
81.25432	43
85.34187	11
89.27312	15
93.20024	23
97.21813	19
99.19757	11
113.17223	191
125.15001	27
127.04823	42
153.11397	24
155.05075	90
167.05295	39
170.99968	18
173.02372	11
187.03785	26
197.99531	8
211.00762	13
212.09833	11
227.21638	9
248.96481	280
249.97472	14
255.23978	26
283.27208	15
311.17786	7
345.2902	10
384.94773	25
405.28407	24
407.28847	978
408.29444	271
409.30116	48
410.30097	4
410.91373	1
429.27896	77
430.28188	20
451.30562	9
461.30491	55
462.30805	17
465.25736	54
466.26654	14
467.26434	23
483.2951	20
487.24709	16
489.27408	11
520.93387	16
541.26713	8
543.26922	26
544.28509	10
565.27378	10
583.32589	17
605.30477	9
659.32914	6
816.6189	6
837.56218	28
838.55492	15
859.54401	9
