Mass spectrum: 2b,3a,7a,12a-Tetrahydroxy-5b-cholan-24-oic acid; LC-ESI-TOF; MS; Negative; Orifice voltage -30 V
Name: 2b,3a,7a,12a-Tetrahydroxy-5b-cholan-24-oic acid
Class: Natural Product; Bile acids
Formula: C24H40O6
Exact mass: 424.28249
SMILES: C[C@H](CCC(=O)O)[C@H]1CC[C@@H]2[C@@]1([C@H](C[C@H]3[C@H]2[C@@H](C[C@H]4[C@@]3(C[C@@H]([C@H](C4)O)O)C)O)O)C
InChI: InChI=1S/C24H40O6/c1-12(4-7-21(29)30)14-5-6-15-22-16(10-20(28)24(14,15)3)23(2)11-19(27)17(25)8-13(23)9-18(22)26/h12-20,22,25-28H,4-11H2,1-3H3,(H,29,30)/t12-,13+,14-,15+,16+,17+,18-,19+,20+,22+,23+,24-/m1/s1
Instrument: JMS-T100LP, JEOL
Instrument type: LC-ESI-TOF
Ms type: MS
Ion mode: NEGATIVE
Ionization: ESI
m/z	relative intensity
58.9382	39
61.91636	57
68.92746	265
74.948	494
75.9527	15
84.93568	27
112.95335	999
113.58731	9
113.95846	20
114.96168	5
212.07139	32
226.9762	31
248.96392	33
423.2817	287
423.77897	32
424.27653	75
425.28468	13
521.28142	20
847.55363	37
848.5662	20
869.53521	18
870.54343	11
