Mass spectrum: 3a,6a,12a-Trihydroxy-5b-cholan-24-oic acid; LC-ESI-TOF; MS; Orifice voltage -150 V; Negative; In-suorce decay
Name: 3a,6a,12a-Trihydroxy-5b-cholan-24-oic acid
Class: Natural Product; Bile acid
Formula: C24H40O5
Exact mass: 408.28757
SMILES: C[C@H](CCC(=O)O)[C@H]1CC[C@@H]2[C@@]1([C@H](C[C@H]3[C@H]2C[C@@H]([C@H]4[C@@]3(CC[C@H](C4)O)C)O)O)C
InChI: InChI=1S/C24H40O5/c1-13(4-7-22(28)29)16-5-6-17-15-11-20(26)19-10-14(25)8-9-23(19,2)18(15)12-21(27)24(16,17)3/h13-21,25-27H,4-12H2,1-3H3,(H,28,29)/t13-,14-,15+,16-,17+,18+,19+,20+,21+,23-,24-/m1/s1
Instrument: JMS-T100LP, JEOL
Instrument type: LC-ESI-TOF
Ms type: MS
Ion mode: NEGATIVE
Ionization: ESI
m/z	relative intensity
61.24546	477
61.77852	8
67.43807	134
77.64046	999
78.19406	8
79.40876	4
79.64286	89
91.8989	11
122.51039	8
126.37566	157
150.66352	4
152.74039	35
166.79047	153
194.92531	14
198.9502	27
204.91912	24
207.12801	17
210.94921	25
223.19126	9
224.99051	6
235.0656	10
249.98715	71
250.99262	30
262.90657	5
271.17407	31
289.04889	14
303.00978	17
313.24807	18
325.28485	20
327.2927	19
345.31115	111
346.31662	29
353.27895	17
360.31276	9
361.30557	8
384.96363	116
385.97046	8
387.26976	5
389.2971	18
393.27376	16
400.98141	9
407.30305	223
408.30855	68
409.26728	140
410.26572	36
411.2794	30
413.35265	8
421.23315	8
425.26532	23
427.26807	165
428.28119	48
429.29092	193
430.28928	43
431.2892	20
438.97113	43
443.28886	7
447.26631	10
449.29312	10
451.26805	30
453.31166	11
461.31333	23
462.33452	9
463.28281	21
465.28452	39
471.28282	20
479.27657	8
483.30729	36
493.28605	21
494.27094	13
505.28859	27
506.29794	8
507.28606	8
513.29726	5
519.34047	11
520.95005	99
521.95252	4
530.388	5
538.32417	7
573.28586	10
574.96641	17
581.29566	10
587.30045	11
591.32916	11
600.3567	4
605.35146	11
618.95348	13
660.32012	4
691.33786	4
767.23463	5
791.00166	5
797.52958	124
798.53153	66
799.53672	23
821.18246	7
837.50547	83
838.51471	48
839.5011	26
841.46796	10
859.47839	45
860.47074	24
861.46134	13
869.14679	3
871.1612	8
879.4751	9
881.4444	37
882.45197	18
903.41821	20
904.42531	11
925.43613	14
939.4399	9
973.50732	10
984.42688	7
999.39281	7
