Mass spectrum: 3a,7a,17a-(OH)3-5b-cholanic acid; LC-ESI-TOF; MS; NEGATIVE; in source decay -90 V
Name: 3a,7a,17a-(OH)3-5b-cholanic acid
Name: 3a,7a,17a-Trihydroxy-5b-cholan-24-oic Acid
Class: Natural Product; Bile acids
Formula: C24H40O5
Exact mass: 408.28757
SMILES: C(C3(C)4)([H])(CC(O)CC4)CC(C(C3([H])2)(C(C1(C)CC2)([H])CCC1(O)C(C)CCC(O)=O)[H])O
InChI: InChI=1S/C24H40O5/c1-14(4-5-20(27)28)24(29)11-8-18-21-17(7-10-23(18,24)3)22(2)9-6-16(25)12-15(22)13-19(21)26/h14-19,21,25-26,29H,4-13H2,1-3H3,(H,27,28)/t14-,15+,16-,17+,18+,19-,21-,22+,23+,24+/m1/s1
Instrument: JMS-T100LP, JEOL
Instrument type: LC-ESI-TOF
Ms type: MS
Ion mode: NEGATIVE
Ionization: ESI
m/z	relative intensity
61.97	999
68.98	92
78.90	58
79.94	44
80.91	66
83.04	29
96.95	98
98.94	21
113.01	21
183.01	29
227.20	31
233.18	23
235.10	31
241.22	31
253.21	48
255.23	132
265.15	59
281.25	51
283.26	59
293.18	29
297.15	76
309.17	35
311.16	229
312.16	35
325.18	201
326.19	45
339.20	145
340.20	33
353.21	24
407.28	279
408.28	79
465.29	21
