Mass spectrum: 3b,6a,7b-Trihydroxy-5b-cholan-24-oic acid; LC-ESI-TOF; MS; Orifice voltage -120 V; Negative; In-suorce decay
Name: 3b,6a,7b-Trihydroxy-5b-cholan-24-oic acid
Class: Natural Product; Bile acid
Formula: C24H40O5
Exact mass: 408.28757
SMILES: C[C@H](CCC(=O)O)[C@H]1CC[C@@H]2[C@@]1(CC[C@H]3[C@H]2[C@H]([C@@H]([C@H]4[C@@]3(CC[C@@H](C4)O)C)O)O)C
InChI: InChI=1S/C24H40O5/c1-13(4-7-19(26)27)15-5-6-16-20-17(9-11-23(15,16)2)24(3)10-8-14(25)12-18(24)21(28)22(20)29/h13-18,20-22,25,28-29H,4-12H2,1-3H3,(H,26,27)/t13-,14+,15-,16+,17+,18+,20+,21-,22-,23-,24-/m1/s1
Instrument: JMS-T100LP, JEOL
Instrument type: LC-ESI-TOF
Ms type: MS
Ion mode: NEGATIVE
Ionization: ESI
m/z	relative intensity
60.24144	38
61.24387	17
67.43556	48
77.63876	253
78.66115	7
79.64113	26
87.89567	7
91.89612	9
96.00332	6
112.27971	53
126.3739	22
152.73745	12
154.6931	16
166.79009	14
170.76052	7
232.9868	21
248.97428	157
249.98591	8
368.98797	17
384.96049	19
387.28136	8
389.29703	12
395.24552	21
405.28569	28
407.29676	999
408.30039	283
409.31033	50
410.31146	5
419.30525	13
427.27226	18
429.28737	8
439.32663	132
440.33573	40
441.33584	7
443.29009	11
445.32204	8
449.29061	13
451.32386	13
459.30473	8
461.31253	13
465.26663	63
466.2709	18
467.26867	23
473.33917	6
489.31135	15
520.95227	8
583.35153	14
815.52799	10
821.52846	22
822.53518	12
837.48963	114
838.49654	63
839.50596	24
840.51324	7
859.47299	6
