Mass spectrum: 1b,3a,7a-Trihydroxy-5b-cholan-24-oic acid; LC-ESI-TOF; MS; Negative; Orifice voltage -60 V
Name: 1b,3a,7a-Trihydroxy-5b-cholan-24-oic acid
Name: 1b,3a,7a-Trihydroxy-5b-cholanoic acid
Name: 1b-Hydroxychenodeoxycholate
Class: Natural Product; Bile acids
Formula: C24H40O5
Exact mass: 408.287994
SMILES: O=C(O)CC[C@H]([C@H]1CC[C@@H]2[C@]1(C)CC[C@H]4[C@H]2[C@H](O)C[C@@H]3C[C@H](O)C[C@@H](O)[C@@]34C)C
InChI: InChI=1S/C24H40O5/c1-13(4-7-21(28)29)16-5-6-17-22-18(8-9-23(16,17)2)24(3)14(11-19(22)26)10-15(25)12-20(24)27/h13-20,22,25-27H,4-12H2,1-3H3,(H,28,29)/t13-,14+,15+,16-,17+,18+,19-,20-,22+,23-,24+/m1/s1
Instrument: JMS-T100LP, JEOL
Instrument type: LC-ESI-TOF
Ms type: MS
Ion mode: NEGATIVE
Ionization: ESI
m/z	relative intensity
58.97837	175
59.98368	2
61.95474	188
64.93769	19
68.96669	76
69.49173	21
73.0008	9
85.0052	12
89.00336	109
98.92748	14
112.97418	17
118.92808	5
138.10744	14
148.10479	27
197.15491	13
203.89819	9
205.15407	21
212.07449	634
213.07126	70
214.07036	19
218.76083	11
227.19134	18
235.17523	10
243.92245	9
249.10416	15
249.9327	10
255.23399	32
256.23299	3
260.96207	16
265.13907	20
273.16379	10
274.98828	9
275.66302	10
277.41729	16
281.23894	18
283.27858	9
284.7485	18
293.20372	7
294.86103	12
303.10476	17
303.8234	20
311.97197	15
315.20718	13
325.21482	14
341.50442	13
359.90061	8
362.82457	12
369.03622	13
376.60325	53
385.55359	11
393.33402	8
406.54541	9
407.28247	999
408.28213	272
409.2711	49
411.89825	48
415.44621	13
419.57657	39
421.2804	2
424.41912	26
427.30144	39
429.26504	115
430.25463	32
436.30231	29
439.29875	344
440.32457	90
443.2355	19
446.26806	38
449.29846	435
450.29837	162
455.96873	44
465.23967	12
467.27575	11
471.29727	10
474.55256	8
475.28462	11
476.27444	6
478.81151	9
480.28275	4
481.32947	137
483.30972	14
485.26807	12
489.27486	23
491.32363	3
492.29077	7
492.94478	14
495.30282	14
499.2454	36
501.35449	17
503.29614	8
507.28362	8
511.26017	5
512.2734	5
513.34105	14
517.31442	8
519.28671	10
521.28965	11
527.26749	8
533.32024	7
534.30061	6
535.24097	6
536.55067	13
537.3154	28
541.28433	11
542.71123	9
543.27428	11
547.2789	11
548.52042	9
554.95735	16
559.29738	10
565.40461	18
569.33514	15
578.65383	7
581.02373	15
583.2846	12
584.66604	11
586.23458	7
589.44952	19
593.85031	43
599.7964	14
601.34174	28
603.04826	19
604.85865	13
607.7028	18
608.74926	22
610.43713	9
612.41898	15
618.75023	13
620.3785	33
622.77343	8
623.83279	10
632.13257	81
637.4631	12
643.48856	11
650.51901	11
664.54255	20
669.44343	33
673.6738	6
677.47259	9
682.51319	28
691.56516	23
697.00007	12
701.76916	12
705.53665	49
710.31909	15
714.36143	55
718.69959	12
721.56205	26
724.33504	18
728.57607	17
734.58541	26
735.54408	11
738.4879	10
741.90304	11
744.77913	22
746.24341	16
749.03111	18
755.09166	60
759.32422	19
771.96186	21
773.81322	13
776.79972	12
778.22936	14
786.58689	13
793.80973	11
796.55175	17
799.56511	6
801.59942	6
802.60085	4
804.78947	11
808.03612	18
809.98053	10
813.50654	11
815.59216	442
816.55176	277
817.61304	101
826.12805	15
830.91165	62
835.57278	20
836.69748	11
837.56708	104
838.55659	63
846.80238	14
849.54849	77
853.26279	12
854.36488	10
857.58912	172
858.57312	120
874.4984	68
879.6296	23
880.60867	14
885.88052	10
893.82662	29
895.64231	21
897.45984	19
899.61503	38
900.64053	29
907.39157	22
909.45201	10
910.60759	9
911.79949	15
917.52077	13
921.57747	37
926.57571	9
932.3611	10
935.585	25
940.49453	50
943.94972	29
955.28205	4
956.86741	27
965.78439	10
970.97447	25
976.69411	9
980.08598	3
994.41842	16
996.96615	8
