Mass spectrum: 3a,4b,12a-Trihydroxy-5b-cholan-24-oic acid; LC-ESI-TOF; MS; Negative; Orifice voltage -90 V
Name: 3a,4b,12a-Trihydroxy-5b-cholan-24-oic acid
Class: Natural Product; Bile acid
Formula: C24H40O5
Exact mass: 408.28757
SMILES: C[C@H](CCC(=O)O)[C@H]1CC[C@@H]2[C@@]1([C@H](C[C@H]3[C@H]2CC[C@H]4[C@@]3(CC[C@H]([C@@H]4O)O)C)O)C
InChI: InChI=1S/C24H40O5/c1-13(4-9-21(27)28)15-7-8-16-14-5-6-17-22(29)19(25)10-11-23(17,2)18(14)12-20(26)24(15,16)3/h13-20,22,25-26,29H,4-12H2,1-3H3,(H,27,28)/t13-,14+,15-,16+,17-,18+,19-,20+,22-,23+,24-/m1/s1
Instrument: JMS-T100LP, JEOL
Instrument type: LC-ESI-TOF
Ms type: MS
Ion mode: NEGATIVE
Ionization: ESI
m/z	relative intensity
59.22379	3
61.22657	3
62.18982	41
64.15928	5
65.16466	4
69.17914	40
79.11964	28
80.11764	4
81.07303	7
85.17637	1
89.16549	1
91.17201	3
92.18426	1
93.16848	2
97.08795	7
99.13052	3
113.08954	11
121.13794	2
141.0757	4
205.19409	2
212.11209	4
221.19007	2
227.22868	6
233.18516	4
241.24533	5
248.98901	3
250.17222	5
253.24022	9
254.25013	2
255.25603	25
256.26151	4
265.17322	3
267.25651	2
269.27058	3
277.20788	1
279.25302	3
281.2662	10
282.27367	2
283.28457	15
284.28739	3
291.21636	1
293.20514	2
297.17547	4
309.19078	4
311.1815	9
312.18631	2
325.20206	9
326.21045	2
327.27614	2
331.27916	6
332.28798	2
339.21743	6
341.12403	2
343.27832	3
353.21961	3
361.28023	21
362.28469	6
363.30304	6
364.31081	1
367.35188	4
371.26925	1
389.28149	4
391.2899	5
392.29175	1
395.33793	3
405.27204	2
407.2777	999
408.2809	283
409.28386	46
410.29641	3
411.27175	1
427.24951	2
429.26105	24
430.26815	6
431.27333	2
439.30444	2
461.27945	22
462.28913	7
465.23382	6
466.25001	2
467.24304	2
475.25928	14
476.26703	5
483.26843	3
489.28072	5
490.2928	2
497.24973	4
505.27135	4
519.27691	2
543.24149	4
685.481	2
815.53698	31
816.53204	17
817.55532	6
837.51358	67
838.51374	36
839.52982	13
840.52902	4
859.51135	7
860.50251	4
881.4823	3
905.51686	2
