Mass spectrum: 2-{[(3alpha,5beta,7alpha,12alpha)-3,7,12-Trihydroxy-24-oxocholan-24-yl]amino}ethanesulfonic acid; LC-ESI-TOF; MS; NEGATIVE; In source decay  -120 V
Name: 2-{[(3alpha,5beta,7alpha,12alpha)-3,7,12-Trihydroxy-24-oxocholan-24-yl]amino}ethanesulfonic acid
Name: Tauro 3a,7a,12a-(OH)3-5b-cholanoic acid
Class: Natural Product; Bile acids
Formula: C26H45NO7S
Exact mass: 515.29167
SMILES: CC(CCC(=O)NCCS(=O)(=O)O)C1CCC2C1(C(CC3C2C(CC4C3(CCC(C4)O)C)O)O)C
InChI: InChI=1S/C26H45NO7S/c1-15(4-7-23(31)27-10-11-35(32,33)34)18-5-6-19-24-20(14-22(30)26(18,19)3)25(2)9-8-17(28)12-16(25)13-21(24)29/h15-22,24,28-30H,4-14H2,1-3H3,(H,27,31)(H,32,33,34)/t15-,16+,17-,18-,19+,20+,21-,22+,24+,25+,26-/m1/s1
Instrument: JMS-T100LP, JEOL
Instrument type: LC-ESI-TOF
Ms type: MS
Ion mode: NEGATIVE
Ionization: ESI
m/z	relative intensity
68.98	41
80.97	138
102.97	34
112.98	30
217.04	21
255.24	29
336.14	28
467.63	26
514.28	999
515.29	318
570.24	20
623.86	24
763.59	72
950.96	38
