Mass spectrum: 3b,6a,7b-Trihydroxy-5b-cholan-24-oic acid; LC-ESI-TOF; MS; Orifice voltage  -30 V; Negative; In-suorce decay
Name: 3b,6a,7b-Trihydroxy-5b-cholan-24-oic acid
Class: Natural Product; Bile acid
Formula: C24H40O5
Exact mass: 408.28757
SMILES: C(C32[H])(O)C(C(C(C2([H])CCC(C([H])(C(C)CCC(O)=O)4)(C3([H])CC4)C)(C)1)([H])CC(O)CC1)O
InChI: InChI=1S/C24H40O5/c1-13(4-7-19(26)27)15-5-6-16-20-17(9-11-23(15,16)2)24(3)10-8-14(25)12-18(24)21(28)22(20)29/h13-18,20-22,25,28-29H,4-12H2,1-3H3,(H,26,27)/t13-,14+,15-,16+,17+,18+,20+,21-,22-,23-,24-/m1/s1
Instrument: JMS-T100LP, JEOL
Instrument type: LC-ESI-TOF
Ms type: MS
Ion mode: NEGATIVE
Ionization: ESI
m/z	relative intensity
57.18376	785
57.69848	8
60.24164	15
67.43552	287
73.59766	91
112.28071	999
112.97655	9
113.29681	20
152.73731	41
226.96841	40
248.97583	73
344.12495	13
384.96063	11
407.30049	86
408.30553	25
439.33304	14
443.28618	11
467.32791	38
468.335	12
521.31425	12
