Mass spectrum: 1b,3a,7a,12a-Tetrahydroxy-5b-cholan-24-oic acid; LC-ESI-TOF; MS; Negative; Orifice voltage -30 V
Name: 1b,3a,7a,12a-Tetrahydroxy-5b-cholan-24-oic acid
Class: Natural Product; Bile acids
Formula: C24H40O6
Exact mass: 424.28249
SMILES: C[C@H](CCC(=O)O)[C@H]1CC[C@@H]2[C@@]1([C@H](C[C@H]3[C@H]2[C@@H](C[C@H]4[C@@]3([C@@H](C[C@H](C4)O)O)C)O)O)C
InChI: InChI=1S/C24H40O6/c1-12(4-7-21(29)30)15-5-6-16-22-17(11-20(28)24(15,16)3)23(2)13(9-18(22)26)8-14(25)10-19(23)27/h12-20,22,25-28H,4-11H2,1-3H3,(H,29,30)/t12-,13+,14+,15-,16+,17+,18-,19-,20+,22+,23+,24-/m1/s1
Instrument: JMS-T100LP, JEOL
Instrument type: LC-ESI-TOF
Ms type: MS
Ion mode: NEGATIVE
Ionization: ESI
m/z	relative intensity
58.99645	60
61.97171	999
63.97385	6
68.98124	55
80.90281	3
89.01232	9
92.9137	14
94.90723	12
98.94016	20
112.97231	140
113.97692	3
119.9365	19
121.93289	4
146.95993	9
365.24036	10
393.28546	18
394.31462	3
395.27481	7
423.27667	43
424.27148	12
425.26746	2
437.28563	12
438.28442	3
443.25824	4
459.24434	383
460.25525	114
461.24195	116
462.25505	53
465.2883	2
467.27352	3
473.26734	120
474.25505	25
475.25664	59
477.90694	1
481.23665	10
482.23263	2
483.29443	7
486.26587	65
487.26705	18
488.26925	4
500.28377	25
501.27287	53
502.24975	15
503.28046	18
504.25929	4
517.23146	17
518.22376	6
519.20358	12
528.26678	10
531.23735	5
537.27179	8
543.28536	12
544.27483	6
545.27897	6
551.29555	3
570.33125	5
847.55717	61
848.58691	61
850.57951	4
861.58057	45
862.58417	49
875.63182	8
876.57377	4
883.53193	110
884.54823	64
885.54757	123
889.60333	4
890.62311	2
897.56606	51
898.55507	32
899.52694	32
905.56427	9
906.57541	5
907.53385	6
910.57226	4
911.5684	10
912.58289	6
913.58012	6
914.6492	3
919.55711	2
920.54027	3
925.55358	26
927.56271	7
928.58605	2
939.55486	5
941.57913	3
