Mass spectrum: 3b,6b,7b-Trihydroxy-5b-cholan-24-oic acid; LC-ESI-TOF; MS; Orifice voltage -90 V; Negative; In-suorce decay
Name: 3b,6b,7b-Trihydroxy-5b-cholan-24-oic acid
Class: Natural Product; Bile acid
Formula: C24H40O5
Exact mass: 408.28757
SMILES: C[C@H](CCC(=O)O)[C@H]1CC[C@@H]2[C@@]1(CC[C@H]3[C@H]2[C@H]([C@H]([C@H]4[C@@]3(CC[C@@H](C4)O)C)O)O)C
InChI: InChI=1S/C24H40O5/c1-13(4-7-19(26)27)15-5-6-16-20-17(9-11-23(15,16)2)24(3)10-8-14(25)12-18(24)21(28)22(20)29/h13-18,20-22,25,28-29H,4-12H2,1-3H3,(H,26,27)/t13-,14+,15-,16+,17+,18+,20+,21+,22-,23-,24-/m1/s1
Instrument: JMS-T100LP, JEOL
Instrument type: LC-ESI-TOF
Ms type: MS
Ion mode: NEGATIVE
Ionization: ESI
m/z	relative intensity
57.18534	8
59.21402	83
60.24289	258
61.3292	7
62.28825	5
67.43661	748
68.01079	4
68.46722	10
71.54978	16
75.59434	10
77.64008	360
78.66386	8
79.64266	64
87.88139	11
91.89815	27
93.93217	16
96.00751	13
98.02768	22
100.05816	7
110.24959	2
112.28027	165
124.44908	17
126.3757	21
138.59274	35
152.73881	14
154.69423	49
166.79252	17
170.76207	20
186.89388	16
197.89194	9
227.19299	13
232.98623	39
241.22855	7
248.97625	168
249.98705	9
255.25759	29
281.27862	7
283.29968	10
297.21139	6
311.20445	14
325.22162	17
339.23287	15
353.0196	5
368.9894	17
384.96544	18
391.30397	6
403.29229	6
405.29203	10
407.29824	999
408.30314	283
409.31038	51
410.31587	6
419.3019	20
420.30741	6
421.31969	23
422.33217	5
423.33355	4
425.26497	7
427.27349	7
429.29051	9
439.32708	135
440.3399	39
441.33979	7
447.31951	6
449.29104	17
450.31502	7
451.32874	25
452.34046	7
453.35235	14
457.29861	8
459.30442	11
461.31641	22
462.32605	7
463.31921	5
465.26766	65
466.27517	20
467.2758	26
468.27266	8
471.28265	5
473.32507	4
475.32076	8
483.33135	6
487.2606	10
489.30515	10
504.97434	6
511.32431	4
520.95012	9
527.31905	7
535.32566	23
536.33296	8
543.29513	14
544.30751	5
583.35547	9
815.52964	29
816.53538	15
817.54136	5
821.52202	8
829.5383	7
837.50306	34
838.50255	19
839.50103	6
