Mass spectrum: 3a,4b,7a-Trihydroxy-5b-cholan-24-oic acid; LC-ESI-TOF; MS; NEGATIVE; Orifice voltage -60 V
Name: 3a,4b,7a-Trihydroxy-5b-cholan-24-oic acid
Class: Natural Product; Bile acids
Formula: C24H40O5
Exact mass: 408.28757
SMILES: C[C@H](CCC(=O)O)[C@H]1CC[C@@H]2[C@@]1(CC[C@H]3[C@H]2[C@@H](C[C@H]4[C@@]3(CC[C@H]([C@@H]4O)O)C)O)C
InChI: InChI=1S/C24H40O5/c1-13(4-7-20(27)28)14-5-6-15-21-16(8-10-23(14,15)2)24(3)11-9-18(25)22(29)17(24)12-19(21)26/h13-19,21-22,25-26,29H,4-12H2,1-3H3,(H,27,28)/t13-,14-,15+,16+,17-,18-,19-,21+,22-,23-,24-/m1/s1
Instrument: JMS-T100LP, JEOL
Instrument type: LC-ESI-TOF
Ms type: MS
Ion mode: NEGATIVE
Ionization: ESI
m/z	relative intensity
51.25478	9
59.2239	4
61.19223	5
62.19008	46
69.17936	999
69.33698	3
69.38902	7
69.73964	10
70.18059	14
73.18189	5
79.12	31
81.07391	1
85.17482	5
87.14015	3
89.1655	7
93.17145	2
97.08887	6
99.13031	8
111.08557	2
113.08821	87
114.09262	2
125.09023	16
153.09575	14
155.03613	15
157.18573	2
167.04915	4
181.02636	3
187.04466	3
199.21163	2
201.00778	2
212.10897	23
213.11213	3
221.05256	2
227.22894	6
241.24634	3
248.98774	9
253.24004	3
255.25749	11
256.26256	2
268.98134	2
281.26866	3
283.28706	4
297.1718	3
311.18133	6
325.20133	6
339.21505	4
362.95753	3
407.278	89
408.28654	27
409.28453	4
429.26565	6
439.2996	28
440.31553	8
453.28632	5
475.25974	14
476.26744	4
497.24513	3
543.24253	4
815.54473	6
816.53285	4
837.531	4
838.52227	2
