Mass spectrum: 3a,4b,7a-Trihydroxy-5b-cholan-24-oic acid; LC-ESI-TOF; MS; NEGATIVE; Orifice voltage -30 V
Name: 3a,4b,7a-Trihydroxy-5b-cholan-24-oic acid
Class: Natural Product; Bile acids
Formula: C24H40O5
Exact mass: 408.28757
SMILES: C[C@H](CCC(=O)O)[C@H]1CC[C@@H]2[C@@]1(CC[C@H]3[C@H]2[C@@H](C[C@H]4[C@@]3(CC[C@H]([C@@H]4O)O)C)O)C
InChI: InChI=1S/C24H40O5/c1-13(4-7-20(27)28)14-5-6-15-21-16(8-10-23(14,15)2)24(3)11-9-18(25)22(29)17(24)12-19(21)26/h13-19,21-22,25-26,29H,4-12H2,1-3H3,(H,27,28)/t13-,14-,15+,16+,17-,18-,19-,21+,22-,23-,24-/m1/s1
Instrument: JMS-T100LP, JEOL
Instrument type: LC-ESI-TOF
Ms type: MS
Ion mode: NEGATIVE
Ionization: ESI
m/z	relative intensity
59.22566	9
62.19193	29
69.18095	359
69.33877	1
70.1828	5
75.18003	145
76.18312	4
77.18333	1
85.14227	1
85.17753	4
87.15276	3
89.16739	21
91.14342	2
97.09047	3
99.13285	16
103.07829	2
113.09203	999
113.36012	5
113.75077	7
114.09382	21
115.09499	4
125.09468	2
153.09919	31
155.0433	2
157.18946	2
167.05369	9
181.02844	8
212.11537	15
213.1175	2
221.05424	4
227.01236	33
228.02147	2
235.01658	2
248.99173	23
253.24778	2
255.26561	6
283.29597	2
294.99661	3
300.09746	2
302.07745	2
311.18964	4
325.21185	4
339.22589	2
344.11724	6
362.97359	3
384.95323	1
407.29069	32
408.30047	9
439.31272	15
440.3277	4
443.2635	2
453.29334	23
454.30291	7
475.27347	7
476.28204	2
521.28061	6
543.25869	2
815.56948	3
