Mass spectrum: 3b,6b-Dihydroxy-5b-cholan-24-oic acid; LC-ESI-TOF; MS; Negative; Orifice voltage -120 V
Name: 3b,6b-Dihydroxy-5b-cholan-24-oic acid
Class: Natural Product; Bile acid
Formula: C24H40O4
Exact mass: 392.29266
SMILES: C[C@H](CCC(=O)O)[C@H]1CC[C@@H]2[C@@]1(CC[C@H]3[C@H]2C[C@H]([C@H]4[C@@]3(CC[C@@H](C4)O)C)O)C
InChI: InChI=1S/C24H40O4/c1-14(4-7-22(27)28)17-5-6-18-16-13-21(26)20-12-15(25)8-10-24(20,3)19(16)9-11-23(17,18)2/h14-21,25-26H,4-13H2,1-3H3,(H,27,28)/t14-,15+,16+,17-,18+,19+,20+,21-,23-,24-/m1/s1
Instrument: JMS-T100LP, JEOL
Instrument type: LC-ESI-TOF
Ms type: MS
Ion mode: NEGATIVE
Ionization: ESI
m/z	relative intensity
61.1366	37
62.13433	72
63.10851	5
64.10425	35
65.10997	14
69.12596	143
73.12928	16
79.06836	105
80.06622	9
81.0216	4
85.12537	10
89.11544	7
93.11939	8
97.03987	5
113.04515	98
114.04656	3
141.03744	7
153.05932	3
154.99767	64
156.02397	3
167.01237	35
173.02113	3
183.02093	3
187.01219	23
197.97379	5
199.02923	8
205.16486	4
210.98921	6
212.07713	6
225.00334	3
226.99883	3
227.2033	4
248.95879	240
249.96673	13
250.98966	4
255.2335	12
283.26245	7
302.96788	6
373.27984	4
384.94058	40
391.28315	999
391.80548	5
392.2879	286
393.29642	48
394.29842	4
409.23543	36
410.24399	12
411.25324	86
412.25499	22
413.26725	7
423.31358	74
424.31456	24
425.31879	4
433.27633	37
434.28247	13
435.27416	4
438.94813	15
445.30025	6
449.25433	4
450.316	3
451.23354	5
453.2501	6
455.25844	7
463.24799	14
464.2573	3
465.2678	10
466.29161	3
467.28058	5
482.93447	3
485.28751	3
487.28955	6
492.95632	4
503.30579	4
517.2711	3
520.91765	33
521.91833	3
527.26971	9
549.25146	4
553.31496	2
574.928	7
581.27633	4
629.29902	2
656.90049	6
657.28505	2
669.52595	5
717.24734	4
799.22661	6
805.56687	41
806.57041	26
807.57655	9
827.5463	6
828.54999	3
859.5595	6
860.56671	4
881.56242	5
941.53175	4
947.50492	3
963.52445	3
