Mass spectrum: 3b,6b,7a-Trihydroxy-5b-cholan-24-oic acid; LC-ESI-TOF; MS; Orifice voltage -120 V; Negative; In-suorce decay
Name: 3b,6b,7a-Trihydroxy-5b-cholan-24-oic acid
Class: Natural Product; Bile acid
Formula: C24H40O5
Exact mass: 408.28757
SMILES: C[C@H](CCC(=O)O)[C@H]1CC[C@@H]2[C@@]1(CC[C@H]3[C@H]2[C@@H]([C@H]([C@H]4[C@@]3(CC[C@@H](C4)O)C)O)O)C
InChI: InChI=1S/C24H40O5/c1-13(4-7-19(26)27)15-5-6-16-20-17(9-11-23(15,16)2)24(3)10-8-14(25)12-18(24)21(28)22(20)29/h13-18,20-22,25,28-29H,4-12H2,1-3H3,(H,26,27)/t13-,14+,15-,16+,17+,18+,20+,21+,22+,23-,24-/m1/s1
Instrument: JMS-T100LP, JEOL
Instrument type: LC-ESI-TOF
Ms type: MS
Ion mode: NEGATIVE
Ionization: ESI
m/z	relative intensity
59.21289	17
60.24216	85
61.2448	25
62.27015	8
67.43693	82
77.63951	402
78.66392	13
79.6413	25
83.84079	10
87.91812	12
96.00371	15
112.28016	77
115.33087	8
126.37444	36
128.50891	8
152.73775	20
154.69333	37
166.79106	36
172.83712	6
182.88728	14
186.89357	16
197.88918	9
198.95084	8
210.94971	9
248.97412	281
249.98316	15
251.00363	3
311.20457	6
325.2243	12
339.22961	9
341.27256	8
353.26896	8
355.26109	9
359.28848	7
369.26565	18
371.28573	46
372.28621	13
375.28452	14
384.96175	35
387.27637	75
388.27941	18
389.2906	118
390.29552	34
391.29736	6
395.24669	32
396.2562	9
397.26181	5
403.28271	15
404.29681	5
405.28354	182
406.28691	51
407.29618	999
408.30053	287
409.28155	124
410.27792	27
411.2822	7
417.29845	3
419.30375	15
420.30657	4
421.31015	55
422.31759	16
423.2964	10
425.30587	11
427.27259	19
428.27936	7
429.28428	71
430.28953	17
431.29921	4
437.31091	48
438.31654	15
439.32294	636
440.32941	187
440.8883	4
441.33073	33
442.35126	5
443.28576	12
449.29604	6
450.3238	3
451.33319	8
453.31129	7
459.30419	9
461.31091	58
462.31917	19
463.3206	5
465.26715	30
466.27578	8
467.27196	13
471.2805	7
481.28884	6
483.33677	10
485.29578	4
487.26048	4
489.30112	8
492.29024	8
503.27009	5
519.33378	9
520.33848	4
520.95215	20
543.2893	13
583.35349	23
584.35374	6
685.53545	7
815.53441	15
816.53634	6
835.48075	9
837.48626	386
838.49184	210
839.49768	73
840.50821	31
851.47525	18
852.47961	7
853.48991	5
859.47015	24
860.47345	14
861.47779	4
881.47169	16
882.4768	11
883.48472	5
