Mass spectrum: 3a,6b,7b-Trihydroxy-5b-cholan-24-oic acid; LC-ESI-TOF; MS; Orifice voltage -150 V; Negative; In-suorce decay
Name: 3a,6b,7b-Trihydroxy-5b-cholan-24-oic acid
Name: beta-Muricholic acid
Class: Natural Product; Bile acid
Formula: C24H40O5
Exact mass: 408.28757
SMILES: C[C@H](CCC(=O)O)[C@H]1CC[C@@H]2[C@@]1(CC[C@H]3[C@H]2[C@H]([C@H]([C@H]4[C@@]3(CC[C@H](C4)O)C)O)O)C
InChI: InChI=1S/C24H40O5/c1-13(4-7-19(26)27)15-5-6-16-20-17(9-11-23(15,16)2)24(3)10-8-14(25)12-18(24)21(28)22(20)29/h13-18,20-22,25,28-29H,4-12H2,1-3H3,(H,26,27)/t13-,14-,15-,16+,17+,18+,20+,21+,22-,23-,24-/m1/s1
Instrument: JMS-T100LP, JEOL
Instrument type: LC-ESI-TOF
Ms type: MS
Ion mode: NEGATIVE
Ionization: ESI
m/z	relative intensity
59.02874	5
61.003	18
62.00277	60
62.9777	349
63.48194	5
63.97775	12
67.10657	2
69.00759	112
72.25027	5
72.69869	2
73.01762	10
78.96705	667
79.51716	7
79.96669	28
80.92513	67
85.03544	29
89.02926	29
91.23172	4
92.9355	4
96.96495	15
99.01225	7
112.98834	237
115.99906	20
117.05584	7
119.05288	11
119.69363	4
125.00404	15
126.90786	136
128.02875	3
128.56756	3
129.01871	25
130.00324	3
132.96513	6
134.98986	5
143.03501	21
144.02229	7
145.89804	3
146.98029	4
153.03259	50
154.97362	85
155.98584	6
157.01933	4
166.99494	106
168.96982	3
173.01002	14
183.01622	37
186.05869	3
187.00813	33
195.01201	6
197.96631	22
199.02047	20
204.97582	7
210.9909	18
215.08527	5
225.00314	10
227.01088	11
235.17388	8
248.95938	764
249.96961	47
250.98297	9
252.1138	3
252.71026	3
262.88664	4
265.02971	9
277.31071	2
278.20678	3
281.23486	6
284.25092	5
289.01219	7
297.2403	4
299.21772	4
302.97732	7
310.29494	4
325.21645	10
327.24806	8
331.23856	15
340.22602	8
341.25273	37
342.2607	10
343.25253	7
346.97703	6
351.21956	7
353.24139	9
355.23249	13
357.25038	99
358.26149	30
359.26434	10
361.15541	4
369.24375	18
371.27007	49
372.27054	17
373.25865	9
375.24211	15
377.21515	52
378.22545	12
379.23738	47
380.24191	12
381.2515	38
382.2597	9
383.26271	5
384.94393	80
385.94972	4
387.26356	9
389.27761	38
391.23524	27
392.24954	8
395.24663	20
397.24197	114
398.25324	29
399.25187	9
403.27896	8
405.2763	16
407.2814	999
408.28636	298
409.27837	87
410.27615	15
411.26317	26
412.26984	9
413.27599	34
423.26736	8
425.2733	23
426.25153	11
427.25421	81
428.26568	21
429.27313	87
430.27105	25
439.3074	220
440.32115	60
441.2964	23
442.29616	5
448.23798	3
448.53702	2
449.24898	6
450.30269	4
453.34487	2
455.17935	3
458.26335	5
459.27369	7
461.29372	92
462.30258	28
463.29134	9
465.25113	56
466.25035	14
467.25512	26
468.24176	14
469.24296	8
470.26799	2
471.26571	19
472.26725	9
481.26521	18
482.27465	8
483.2874	17
484.26075	3
487.22945	17
489.278	10
492.27183	16
493.28551	7
496.25078	3
503.27606	5
505.29698	9
506.31527	6
511.27012	7
513.28798	6
519.3052	16
520.92522	58
521.9358	4
522.28165	6
523.28907	6
527.27649	7
528.27511	9
529.19275	5
535.28382	6
537.28326	5
543.26428	26
544.27352	8
549.25771	7
550.66342	5
556.27794	5
557.24055	3
558.40845	2
560.20638	3
560.97137	8
562.24386	5
565.26212	12
567.25601	2
571.33405	5
582.29721	3
583.3164	38
584.32077	13
585.30646	3
605.2932	15
617.24459	4
618.93915	6
625.26529	4
627.29781	2
650.54287	3
656.91072	12
679.24084	10
683.48072	4
685.50908	8
699.39266	6
700.14462	4
701.25101	6
702.24991	4
725.37132	2
726.40992	2
741.53713	5
769.58359	4
770.59749	3
782.22605	5
815.24866	12
837.55616	621
838.56141	353
839.56317	120
840.56918	34
842.5442	4
844.5972	2
849.09038	4
857.49606	6
859.5464	78
860.55036	40
861.55834	16
863.55233	4
881.52935	53
882.53674	29
884.53145	3
895.52841	8
896.53113	4
903.52102	26
905.54022	6
913.5645	11
917.51483	5
919.51193	7
925.51353	9
940.50545	7
941.51427	8
945.51972	4
961.48277	5
965.53018	2
987.34827	4
996.54336	4
