Mass spectrum: 3a,7a,15a-(OH)3-5b-cholanic acid; LC-ESI-TOF; MS; NEGATIVE; In source decay -90 V
Name: 3a,7a,15a-(OH)3-5b-cholanic acid
Name: 3a,7a,15a-Trihydroxy-5b-cholan-24-oic Acid
Class: Natural Product; Bile acids
Formula: C24H40O5
Exact mass: 408.28757
SMILES: C(C3(C)4)([H])(CC(O)CC4)CC(C(C3([H])2)(C(C1(C)CC2)([H])C(O)CC1([H])C(C)CCC(O)=O)[H])O
InChI: InChI=1S/C24H40O5/c1-13(4-5-20(28)29)17-12-19(27)22-21-16(7-9-24(17,22)3)23(2)8-6-15(25)10-14(23)11-18(21)26/h13-19,21-22,25-27H,4-12H2,1-3H3,(H,28,29)/t13-,14+,15-,16+,17-,18-,19+,21+,22+,23+,24-/m1/s1
Instrument: JMS-T100LP, JEOL
Instrument type: LC-ESI-TOF
Ms type: MS
Ion mode: NEGATIVE
Ionization: ESI
m/z	relative intensity
62.19	40
69.17	107
79.12	58
113.09	21
248.98	25
407.28	999
408.28	284
409.28	48
429.26	47
439.29	35
475.26	30
815.52	112
816.53	63
817.54	20
837.49	63
838.51	34
