Mass spectrum: 3a,6a,7a-Trihydroxy-5b-cholan-24-oic acid; LC-ESI-TOF; MS; Orifice voltage -90 V; Negative; In-suorce decay
Name: 3a,6a,7a-Trihydroxy-5b-cholan-24-oic acid
Name: Hyocholic acid
Name: Gamma-Muricholic acid
Class: Natural Product; Bile acid
Formula: C24H40O5
Exact mass: 408.28757
SMILES: C[C@H](CCC(=O)O)[C@H]1CC[C@@H]2[C@@]1(CC[C@H]3[C@H]2[C@@H]([C@@H]([C@H]4[C@@]3(CC[C@H](C4)O)C)O)O)C
InChI: InChI=1S/C24H40O5/c1-13(4-7-19(26)27)15-5-6-16-20-17(9-11-23(15,16)2)24(3)10-8-14(25)12-18(24)21(28)22(20)29/h13-18,20-22,25,28-29H,4-12H2,1-3H3,(H,26,27)/t13-,14-,15-,16+,17+,18+,20+,21-,22+,23-,24-/m1/s1
Instrument: JMS-T100LP, JEOL
Instrument type: LC-ESI-TOF
Ms type: MS
Ion mode: NEGATIVE
Ionization: ESI
m/z	relative intensity
59.18134	41
61.14861	110
62.14744	188
64.1173	6
69.13735	855
70.13968	12
73.14059	24
79.07952	356
80.07647	8
81.03404	15
85.13539	9
89.12527	7
93.1197	9
97.05244	9
113.05196	178
125.05434	22
126.95665	19
153.06137	26
155.0017	70
167.01649	24
187.01575	31
221.15801	12
226.98206	39
248.96096	212
250.14485	29
255.23408	42
283.26117	25
311.17312	5
384.93725	41
407.28035	999
408.28493	290
409.29574	49
410.29493	4
411.25658	10
421.29176	10
425.29819	11
429.26389	171
430.27145	44
431.27749	8
439.30765	883
440.31317	265
441.31783	48
442.32638	6
443.28386	7
465.2491	30
466.24896	8
467.24919	11
475.27966	9
483.29035	12
489.29082	58
490.29477	18
511.2682	15
520.9227	28
543.2653	37
544.27166	12
565.27562	11
583.31445	31
584.32405	10
815.57367	197
816.57955	106
817.58353	48
837.55172	263
838.55345	143
839.57242	49
840.56519	13
859.54269	20
860.54339	12
