Mass spectrum: 3a,7a,16b-(OH)3-5b-cholanic acid; LC-ESI-TOF; MS; NEGATIVE; in source decay -30 V
Name: 3a,7a,16b-(OH)3-5b-cholanic acid
Name: 3a,7a,16b-Trihydroxy-5b-cholan-24-oic Acid
Class: Natural Product; Bile acids
Formula: C24H40O5
Exact mass: 408.28757
SMILES: C(C3(C)4)([H])(CC(O)CC4)CC(C(C3([H])2)(C(C1(C)CC2)([H])CC(C1([H])C(C)CCC(O)=O)O)[H])O
InChI: InChI=1S/C24H40O5/c1-13(4-5-20(28)29)22-19(27)12-17-21-16(7-9-24(17,22)3)23(2)8-6-15(25)10-14(23)11-18(21)26/h13-19,21-22,25-27H,4-12H2,1-3H3,(H,28,29)/t13-,14+,15-,16+,17+,18-,19+,21-,22+,23+,24+/m1/s1
Instrument: JMS-T100LP, JEOL
Instrument type: LC-ESI-TOF
Ms type: MS
Ion mode: NEGATIVE
Ionization: ESI
m/z	relative intensity
59.22	694
62.19	48
69.18	187
73.21	45
75.18	179
89.17	21
91.18	28
113.09	499
255.27	32
367.28	32
389.28	24
407.29	999
408.29	281
409.29	52
425.26	24
435.28	51
449.30	63
450.31	21
465.29	27
499.32	47
503.26	48
797.53	161
798.55	87
799.55	29
815.56	68
816.55	39
