Mass spectrum: 3b,4b,7a-Trihydroxy-5b-cholan-24-oic acid; LC-ESI-TOF; MS; Negative; Orifice voltage -90 V
Name: 3b,4b,7a-Trihydroxy-5b-cholan-24-oic acid
Class: Natural Product; Bile acid
Formula: C24H40O5
Exact mass: 408.28757
SMILES: C[C@H](CCC(=O)O)[C@H]1CC[C@@H]2[C@@]1(CC[C@H]3[C@H]2[C@@H](C[C@H]4[C@@]3(CC[C@@H]([C@@H]4O)O)C)O)C
InChI: InChI=1S/C24H40O5/c1-13(4-7-20(27)28)14-5-6-15-21-16(8-10-23(14,15)2)24(3)11-9-18(25)22(29)17(24)12-19(21)26/h13-19,21-22,25-26,29H,4-12H2,1-3H3,(H,27,28)/t13-,14-,15+,16+,17-,18+,19-,21+,22-,23-,24-/m1/s1
Instrument: JMS-T100LP, JEOL
Instrument type: LC-ESI-TOF
Ms type: MS
Ion mode: NEGATIVE
Ionization: ESI
m/z	relative intensity
51.25476	1
61.19195	11
62.19006	50
64.15956	4
65.16449	4
69.17904	128
70.18137	2
73.18131	2
79.11976	67
80.11697	5
81.13691	6
85.1759	2
89.16545	2
92.18588	1
93.13392	3
96.08137	1
97.08834	9
99.13057	4
113.089	24
125.09075	3
129.1035	1
141.07621	3
143.10152	3
153.09616	4
155.03744	5
167.04881	5
175.01847	3
181.023	2
187.06096	2
198.00492	2
211.01929	2
212.11202	4
227.00891	2
227.2282	3
241.2453	2
248.98542	32
249.9903	1
250.17527	2
253.24224	2
255.25844	10
256.26325	2
265.1751	3
268.98118	1
269.27444	2
281.26734	3
283.28756	5
293.19954	1
297.17387	4
311.18159	9
312.18457	2
325.20043	9
326.21084	2
339.21595	6
371.26941	5
372.27153	1
384.94299	1
389.27759	19
390.2826	5
391.28698	3
405.26994	5
407.27716	999
408.28101	282
408.85203	1
409.28345	52
410.29612	4
411.27583	1
421.28193	2
425.29468	2
427.2509	3
429.26223	24
430.2667	6
431.27277	2
439.29827	286
440.30415	85
441.31524	16
442.32172	2
443.26108	3
461.28045	9
462.29288	3
465.23232	11
466.24201	3
467.24065	4
475.25766	47
476.26637	15
477.28392	4
483.2693	2
492.25194	2
497.24828	6
498.25226	2
519.27769	4
521.27022	4
543.2406	9
544.24689	3
565.22589	2
583.28908	6
584.27874	2
657.21082	6
658.21673	2
815.53084	100
816.53009	55
817.55035	18
818.5609	5
837.51031	160
838.51154	87
839.31626	1
839.52647	29
840.52975	9
841.53878	2
853.51711	1
859.50939	9
860.50449	4
895.48455	2
905.52273	4
906.52873	2
927.48471	2
