Mass spectrum: 3a,4b-Dihydroxy-5b-cholan-24-oic acid; LC-ESI-TOF; MS; Negative; Orifice voltage -120 V
Name: 3a,4b-Dihydroxy-5b-cholan-24-oic acid
Class: Natural Product; Bile acids
Formula: C24H40O4
Exact mass: 392.29266
SMILES: C[C@H](CCC(=O)O)[C@H]1CC[C@@H]2[C@@]1(CC[C@H]3[C@H]2CC[C@H]4[C@@]3(CC[C@H]([C@@H]4O)O)C)C
InChI: InChI=1S/C24H40O4/c1-14(4-9-21(26)27)16-7-8-17-15-5-6-19-22(28)20(25)11-13-24(19,3)18(15)10-12-23(16,17)2/h14-20,22,25,28H,4-13H2,1-3H3,(H,26,27)/t14-,15+,16-,17+,18+,19-,20-,22-,23-,24-/m1/s1
Instrument: JMS-T100LP, JEOL
Instrument type: LC-ESI-TOF
Ms type: MS
Ion mode: NEGATIVE
Ionization: ESI
m/z	relative intensity
61.95498	33
78.89103	999
79.11089	3
79.46206	3
79.935	5
80.88965	997
81.1441	2
81.49249	3
96.94192	7
126.89435	14
180.8238	6
182.82261	12
183.00981	24
184.02199	3
184.81826	4
185.00276	3
311.16419	9
325.19222	11
326.19929	2
339.21211	11
391.2835	140
392.2864	47
393.31667	7
423.31701	19
424.32283	7
471.22501	9
472.23958	2
473.21704	8
474.22006	2
493.21274	3
495.20641	3
783.60757	2
863.5314	3
864.56071	2
865.53638	4
