Mass spectrum: 1b,3a,7a,12a-Tetrahydroxy-5b-cholan-24-oic acid; LC-ESI-TOF; MS; Negative; Orifice voltage -90 V
Name: 1b,3a,7a,12a-Tetrahydroxy-5b-cholan-24-oic acid
Class: Natural Product; Bile acids
Formula: C24H40O6
Exact mass: 424.28249
SMILES: C[C@H](CCC(=O)O)[C@H]1CC[C@@H]2[C@@]1([C@H](C[C@H]3[C@H]2[C@@H](C[C@H]4[C@@]3([C@@H](C[C@H](C4)O)O)C)O)O)C
InChI: InChI=1S/C24H40O6/c1-12(4-7-21(29)30)15-5-6-16-22-17(11-20(28)24(15,16)3)23(2)13(9-18(22)26)8-14(25)10-19(23)27/h12-20,22,25-28H,4-11H2,1-3H3,(H,29,30)/t12-,13+,14+,15-,16+,17+,18-,19-,20+,22+,23+,24-/m1/s1
Instrument: JMS-T100LP, JEOL
Instrument type: LC-ESI-TOF
Ms type: MS
Ion mode: NEGATIVE
Ionization: ESI
m/z	relative intensity
61.97113	999
62.48732	5
63.97797	7
68.98059	7
78.89983	7
80.89675	7
82.94009	9
92.91283	13
98.93338	20
311.15595	7
325.18883	9
339.19463	8
423.26063	410
424.26755	137
425.26352	24
426.27283	2
437.28158	123
438.2927	73
440.28134	2
459.24009	121
460.25098	31
461.23768	53
463.26497	2
465.28399	32
466.27606	14
467.26919	5
473.27578	22
474.26349	8
475.26509	8
481.21926	70
482.22817	16
483.22518	24
484.22322	3
486.27436	5
495.24336	10
496.25373	4
497.27827	4
508.27242	7
523.26208	6
847.54934	42
848.5619	30
849.55789	12
861.5899	30
862.5762	22
863.56306	11
869.56556	9
870.5564	4
875.60628	7
883.55879	19
884.54005	12
885.55692	7
