Mass spectrum: 7,12-Dioxo-5b-cholan-24-oic acid; LC-ESI-TOF; MS; NEGATIVE; in source decay -90 V
Name: 7,12-Dioxo-5b-cholan-24-oic acid
Class: Natural Product; Bile acids
Formula: C24H36O4
Exact mass: 388.26135
SMILES: CC(CCC(=O)O)C1CCC2C1(C(=O)CC3C2C(=O)CC4C3(CCCC4)C)C
InChI: InChI=1S/C24H36O4/c1-14(7-10-21(27)28)16-8-9-17-22-18(13-20(26)24(16,17)3)23(2)11-5-4-6-15(23)12-19(22)25/h14-18,22H,4-13H2,1-3H3,(H,27,28)/t14-,15+,16-,17+,18+,22+,23+,24-/m1/s1
Instrument: JMS-T100LP, JEOL
Instrument type: LC-ESI-TOF
Ms type: MS
Ion mode: NEGATIVE
Ionization: ESI
m/z	relative intensity
61.97	156
68.98	92
79.94	40
96.95	102
369.24	32
387.25	999
388.25	283
389.27	50
419.28	32
775.54	52
776.55	47
797.50	45
798.53	28
