Mass spectrum: 3-Oxo-5b-cholan-24-oic Acid; LC-ESI-TOF; MS; NEGATIVE; in source decay -90 V
Name: 3-Oxo-5b-cholan-24-oic Acid
Name: 3-Oxo-5b-cholanic acid
Class: Natural Product; Bile acids
Formula: C24H38O3
Exact mass: 374.28210
SMILES: C(C1(C)4)([H])(C(C)CCC(O)=O)CCC1(C(C3([H])CC4)([H])CCC(C3(C)2)([H])CC(=O)CC2)[H]
InChI: InChI=1S/C24H38O3/c1-15(4-9-22(26)27)19-7-8-20-18-6-5-16-14-17(25)10-12-23(16,2)21(18)11-13-24(19,20)3/h15-16,18-21H,4-14H2,1-3H3,(H,26,27)/t15-,16-,18+,19-,20+,21+,23+,24-/m1/s1
Instrument: JMS-T100LP, JEOL
Instrument type: LC-ESI-TOF
Ms type: MS
Ion mode: NEGATIVE
Ionization: ESI
m/z	relative intensity
61.98	725
68.99	233
311.17	46
325.20	50
373.27	999
374.28	226
375.30	48
405.31	94
419.32	63
451.37	49
462.37	47
731.60	50
747.57	72
748.57	46
763.64	49
