Mass spectrum: 12-Oxo-5b-cholan-24-ic acid; LC-ESI-TOF; MS; NEGATIVE; in source decay -120 V
Name: 12-Oxo-5b-cholan-24-ic acid
Class: Natural Product; Bile acids
Formula: C24H38O3
Exact mass: 374.28210
SMILES: CC(CCC(=O)O)C1CCC2C1(C(=O)CC3C2CCC4C3(CCCC4)C)C
InChI: InChI=1S/C24H38O3/c1-15(7-12-22(26)27)18-10-11-19-17-9-8-16-6-4-5-13-23(16,2)20(17)14-21(25)24(18,19)3/h15-20H,4-14H2,1-3H3,(H,26,27)/t15-,16+,17+,18-,19+,20+,23+,24-/m1/s1
Instrument: JMS-T100LP, JEOL
Instrument type: LC-ESI-TOF
Ms type: MS
Ion mode: NEGATIVE
Ionization: ESI
m/z	relative intensity
61.98	664
79.95	104
96.96	203
183.01	367
227.21	64
311.17	74
325.19	89
329.29	173
331.31	62
339.23	98
349.04	53
373.27	432
374.28	72
375.28	999
376.30	258
395.28	79
411.27	59
443.34	53
530.35	56
680.42	63
