Mass spectrum: 3a,6b-Dihydroxy-5b-cholan-24-oic acid; LC-ESI-TOF; MS; Negative; Orifice voltage -60 V
Name: 3a,6b-Dihydroxy-5b-cholan-24-oic acid
Class: Natural Product; Bile acid
Formula: C24H40O4
Exact mass: 392.29266
SMILES: C[C@H](CCC(=O)O)[C@H]1CC[C@@H]2[C@@]1(CC[C@H]3[C@H]2C[C@H]([C@H]4[C@@]3(CC[C@H](C4)O)C)O)C
InChI: InChI=1S/C24H40O4/c1-14(4-7-22(27)28)17-5-6-18-16-13-21(26)20-12-15(25)8-10-24(20,3)19(16)9-11-23(17,18)2/h14-21,25-26H,4-13H2,1-3H3,(H,27,28)/t14-,15-,16+,17-,18+,19+,20+,21-,23-,24-/m1/s1
Instrument: JMS-T100LP, JEOL
Instrument type: LC-ESI-TOF
Ms type: MS
Ion mode: NEGATIVE
Ionization: ESI
m/z	relative intensity
51.19901	6
58.13108	2
59.1666	20
61.13585	6
62.13372	102
63.1883	3
65.10929	6
69.12585	999
69.28464	3
69.33512	7
69.68328	10
70.12721	13
73.12934	14
75.12538	6
79.02835	3
81.02273	2
81.09932	2
85.1241	57
87.10174	3
89.11613	8
93.11937	47
94.12056	3
97.04009	6
99.03072	1
99.08321	10
100.07862	2
101.13388	2
107.10656	3
111.03934	6
113.04495	92
114.04824	3
117.10786	4
119.04662	4
121.08146	2
123.06083	8
127.06333	2
129.06087	2
131.03435	5
137.06276	5
139.07062	4
141.04286	2
143.13714	4
148.14048	5
151.07334	2
154.99906	11
156.03642	3
157.14678	9
163.13238	5
167.01205	4
169.07029	2
171.15413	6
173.02101	3
181.00572	5
185.12412	4
187.01482	2
193.05235	4
199.17621	9
205.16526	25
206.16905	5
212.07723	184
213.08162	26
214.07506	10
215.08081	2
219.17756	12
220.16578	4
225.07264	3
227.20467	12
228.20729	2
230.98817	4
233.15504	4
235.03273	3
241.21791	6
242.19812	2
247.05077	9
248.9619	5
253.21497	3
255.2332	18
256.2343	3
261.02705	3
269.24636	3
280.98258	5
281.24788	4
283.26229	5
301.05875	2
315.03534	2
330.9818	4
336.32947	2
345.05096	3
380.98119	4
389.26829	4
391.28412	84
392.29235	26
393.30085	4
413.27072	3
423.31351	17
424.31723	5
430.98678	4
445.2975	4
480.97978	3
530.99024	3
580.97607	2
