Mass spectrum: 3a,6a,7a,12a-Tetrahydroxy-5b-cholan-24-oic acid; LC-ESI-TOF; MS; Orifice voltage -90 V; Negative; In-suorce decay
Name: 3a,6a,7a,12a-Tetrahydroxy-5b-cholan-24-oic acid
Class: Natural Product; Bile acid
Formula: C24H40O6
Exact mass: 424.28249
SMILES: C[C@H](CCC(=O)O)[C@H]1CC[C@@H]2[C@@]1([C@H](C[C@H]3[C@H]2[C@@H]([C@@H]([C@H]4[C@@]3(CC[C@H](C4)O)C)O)O)O)C
InChI: InChI=1S/C24H40O6/c1-12(4-7-19(27)28)14-5-6-15-20-16(11-18(26)24(14,15)3)23(2)9-8-13(25)10-17(23)21(29)22(20)30/h12-18,20-22,25-26,29-30H,4-11H2,1-3H3,(H,27,28)/t12-,13-,14-,15+,16+,17+,18+,20+,21-,22+,23-,24-/m1/s1
Instrument: JMS-T100LP, JEOL
Instrument type: LC-ESI-TOF
Ms type: MS
Ion mode: NEGATIVE
Ionization: ESI
m/z	relative intensity
61.98109	79
79.95484	9
96.95536	19
98.94572	11
255.2431	8
379.29829	8
405.27748	4
407.28558	39
408.29473	12
421.26866	25
422.28324	7
423.26622	999
424.27353	306
425.28078	75
427.31634	2
437.29228	14
438.31429	5
439.30417	5
445.25806	6
455.31103	21
459.26114	15
460.28592	5
461.25722	4
481.24433	10
831.59738	7
832.59396	3
847.56019	159
848.5782	87
849.58007	48
851.59363	2
869.56027	68
870.55475	38
871.56612	17
872.58115	5
