Mass spectrum: 3b,4b,12a-Trihydroxy-5b-cholan-24-oic acid; LC-ESI-TOF; MS; Negative; Orifice voltage -30 V
Name: 3b,4b,12a-Trihydroxy-5b-cholan-24-oic acid
Class: Natural Product; Bile acid
Formula: C24H40O5
Exact mass: 408.28757
SMILES: C[C@H](CCC(=O)O)[C@H]1CC[C@@H]2[C@@]1([C@H](C[C@H]3[C@H]2CC[C@H]4[C@@]3(CC[C@@H]([C@@H]4O)O)C)O)C
InChI: InChI=1S/C24H40O5/c1-13(4-9-21(27)28)15-7-8-16-14-5-6-17-22(29)19(25)10-11-23(17,2)18(14)12-20(26)24(15,16)3/h13-20,22,25-26,29H,4-12H2,1-3H3,(H,27,28)/t13-,14+,15-,16+,17-,18+,19+,20+,22-,23+,24-/m1/s1
Instrument: JMS-T100LP, JEOL
Instrument type: LC-ESI-TOF
Ms type: MS
Ion mode: NEGATIVE
Ionization: ESI
m/z	relative intensity
59.2251	486
59.37211	1
60.22614	10
61.22535	3
62.19194	38
69.18082	374
70.1831	5
73.20554	32
75.17993	194
76.18341	5
77.18377	2
79.08338	3
81.07625	2
85.14185	1
85.17781	3
87.19136	13
89.16793	22
91.17985	3
97.09061	3
99.13326	14
101.18443	2
113.09143	999
113.29542	3
113.32698	1
113.36835	3
113.75064	6
114.09432	21
115.0949	7
121.12777	2
125.09343	2
127.09384	11
141.09556	4
143.18236	2
151.12326	2
153.09976	34
153.28002	1
154.1055	2
155.043	5
157.18977	5
167.05419	10
171.19686	2
181.03256	9
195.04187	5
199.21644	5
212.11577	23
213.11814	2
213.22312	2
225.22271	2
227.01312	17
227.23431	11
228.24019	2
233.19154	2
241.25279	6
248.99186	43
249.99853	2
250.18025	3
253.24812	10
254.26107	2
255.2644	25
256.26841	4
265.18161	3
267.26347	2
269.28018	3
279.26269	2
280.29322	3
281.2759	7
282.28744	2
283.29426	10
284.29674	2
297.18237	3
301.26645	2
311.19009	7
325.21162	6
339.22668	4
353.22798	3
384.95601	3
407.28876	442
408.29356	126
409.29626	21
410.308	3
421.19597	4
431.18608	5
443.26261	7
444.27855	2
445.25348	4
453.29224	63
454.30186	20
455.30714	4
465.25351	2
467.30538	13
468.31105	4
475.27209	28
476.28003	8
489.28992	8
490.30016	3
497.29931	3
499.16876	7
505.28469	15
506.29007	5
521.27489	31
522.27849	8
523.28895	2
527.22905	3
543.26323	9
544.26636	3
557.25902	3
561.32855	4
573.27571	3
611.42062	7
611.91685	5
612.41015	3
620.35984	3
635.47887	2
657.2317	3
661.4978	2
662.5109	2
663.51151	5
664.52307	2
688.54081	5
689.55093	4
690.55948	3
691.55526	3
793.45892	4
815.5549	82
816.55426	46
817.57545	15
818.59644	4
837.54527	27
838.5405	15
839.55777	6
905.55386	3
