Mass spectrum: 3,6-Dioxo-5a-cholan-24-oic acid; LC-ESI-TOF; MS; NEGATIVE; in source decay -120 V
Name: 3,6-Dioxo-5a-cholan-24-oic acid
Class: Natural Product; Bile acids
Formula: C24H36O4
Exact mass: 388.26135
SMILES: CC(CCC(=O)O)C1CCC2C1(CCC3C2CC(=O)C4C3(CCC(=O)C4)C)C
InChI: InChI=1S/C24H36O4/c1-14(4-7-22(27)28)17-5-6-18-16-13-21(26)20-12-15(25)8-10-24(20,3)19(16)9-11-23(17,18)2/h14,16-20H,4-13H2,1-3H3,(H,27,28)/t14-,16+,17-,18+,19+,20-,23-,24-/m1/s1
Instrument: JMS-T100LP, JEOL
Instrument type: LC-ESI-TOF
Ms type: MS
Ion mode: NEGATIVE
Ionization: ESI
m/z	relative intensity
61.97	37
79.94	32
96.95	42
183.01	46
325.20	21
385.24	37
387.25	999
388.25	279
389.27	50
419.28	167
420.28	53
423.23	36
775.53	76
776.54	45
807.54	20
811.51	26
