Mass spectrum: 3,7,12-Trioxo-5a-cholan-24-oic acid; LC-ESI-TOF; MS; NEGATIVE; in source decay -60 V
Name: 3,7,12-Trioxo-5a-cholan-24-oic acid
Class: Natural Product; Bile acids
Formula: C24H34O5
Exact mass: 402.24063
SMILES: CC(CCC(=O)O)C1CCC2C1(C(=O)CC3C2C(=O)CC4C3(CCC(=O)C4)C)C
InChI: InChI=1S/C24H34O5/c1-13(4-7-21(28)29)16-5-6-17-22-18(12-20(27)24(16,17)3)23(2)9-8-15(25)10-14(23)11-19(22)26/h13-14,16-18,22H,4-12H2,1-3H3,(H,28,29)/t13-,14-,16-,17+,18+,22+,23+,24-/m1/s1
Instrument: JMS-T100LP, JEOL
Instrument type: LC-ESI-TOF
Ms type: MS
Ion mode: NEGATIVE
Ionization: ESI
m/z	relative intensity
61.97	172
68.98	999
89.01	213
96.95	57
112.98	141
212.08	28
401.23	463
402.25	143
403.24	38
433.27	130
434.27	38
437.22	65
439.21	25
803.48	347
804.49	188
805.49	101
835.53	89
836.53	52
