Mass spectrum: 3b,6b,7b-Trihydroxy-5b-cholan-24-oic acid; LC-ESI-TOF; MS; Orifice voltage -120 V; Negative; In-suorce decay
Name: 3b,6b,7b-Trihydroxy-5b-cholan-24-oic acid
Class: Natural Product; Bile acid
Formula: C24H40O5
Exact mass: 408.28757
SMILES: C[C@H](CCC(=O)O)[C@H]1CC[C@@H]2[C@@]1(CC[C@H]3[C@H]2[C@H]([C@H]([C@H]4[C@@]3(CC[C@@H](C4)O)C)O)O)C
InChI: InChI=1S/C24H40O5/c1-13(4-7-19(26)27)15-5-6-16-20-17(9-11-23(15,16)2)24(3)10-8-14(25)12-18(24)21(28)22(20)29/h13-18,20-22,25,28-29H,4-12H2,1-3H3,(H,26,27)/t13-,14+,15-,16+,17+,18+,20+,21+,22-,23-,24-/m1/s1
Instrument: JMS-T100LP, JEOL
Instrument type: LC-ESI-TOF
Ms type: MS
Ion mode: NEGATIVE
Ionization: ESI
m/z	relative intensity
59.21419	18
60.24283	150
61.24609	37
62.27467	6
67.43742	135
71.54962	7
75.59531	9
77.63985	514
78.21761	3
78.66365	18
79.64258	87
81.7242	19
83.76445	6
87.87212	14
91.89796	30
93.93242	20
96.0041	14
98.02672	20
100.05859	7
112.28007	143
115.33223	6
119.33446	6
124.45244	5
126.37452	31
138.59405	13
146.63804	5
152.73918	14
154.69464	36
155.73715	3
166.79071	31
170.76077	24
172.77593	10
182.88876	24
184.91664	3
186.89311	12
194.92619	4
197.89306	21
198.95113	6
210.94951	8
226.9722	4
231.98722	5
232.98498	60
233.99179	4
248.97476	369
249.98605	19
250.99399	4
255.25974	6
297.21024	4
307.01737	5
311.20122	11
325.22337	17
339.23652	17
341.23562	3
343.29518	4
344.12772	12
353.01695	17
355.23394	6
367.23454	3
368.98804	40
370.27565	4
371.28531	10
373.30246	9
379.28082	5
383.27807	7
384.96295	46
387.2824	15
389.30144	20
390.29769	6
391.30147	13
395.25134	28
396.25078	10
397.26231	7
399.2112	2
401.29843	14
402.2968	4
403.3005	4
405.29326	15
407.29719	999
408.30137	287
409.02672	2
409.30973	56
410.30856	7
411.29045	5
413.30517	5
415.23985	4
419.30096	15
420.30652	5
421.31316	15
422.33513	6
423.3289	9
425.26109	20
426.26011	6
427.27516	19
429.2889	10
433.30802	7
439.32684	121
440.3428	35
441.33198	9
442.28911	3
443.29738	6
445.33196	7
447.30894	6
449.28846	20
450.30951	6
451.32698	26
452.33916	7
453.33476	6
455.31315	5
457.29448	8
459.30162	12
461.30972	14
463.31474	4
465.26824	64
466.27326	17
467.27547	28
468.26456	9
469.26853	4
471.27932	13
472.29371	4
473.28561	4
475.31423	4
481.2822	7
483.32638	6
485.28745	5
487.25301	19
488.26573	6
489.26993	11
490.29869	4
503.31879	4
504.96861	12
511.28153	2
513.28439	3
519.32152	5
520.94982	16
523.28002	3
527.3259	6
535.32341	55
536.33272	14
537.34641	8
543.29381	6
545.26856	8
563.27724	2
565.29062	4
567.35712	7
579.28057	3
583.3455	10
603.27328	2
655.31106	5
671.30891	5
685.46111	3
821.53212	13
822.53002	6
837.50257	55
838.49551	31
839.49604	11
843.51817	5
859.47451	6
881.4684	6
895.42607	5
917.4475	4
959.53719	2
