Mass spectrum: 7,12-Dioxo-5a-cholan-24-oic acid; LC-ESI-TOF; MS; NEGATIVE; in source decay -120 V
Name: 7,12-Dioxo-5a-cholan-24-oic acid
Class: Natural Product; Bile acids
Formula: C24H36O4
Exact mass: 388.26135
SMILES: CC(CCC(=O)O)C1CCC2C1(C(=O)CC3C2C(=O)CC4C3(CCCC4)C)C
InChI: InChI=1S/C24H36O4/c1-14(7-10-21(27)28)16-8-9-17-22-18(13-20(26)24(16,17)3)23(2)11-5-4-6-15(23)12-19(22)25/h14-18,22H,4-13H2,1-3H3,(H,27,28)/t14-,15-,16-,17+,18+,22+,23+,24-/m1/s1
Instrument: JMS-T100LP, JEOL
Instrument type: LC-ESI-TOF
Ms type: MS
Ion mode: NEGATIVE
Ionization: ESI
m/z	relative intensity
61.97	68
79.94	67
96.95	107
183.01	393
184.01	58
219.17	76
301.26	41
311.18	90
325.22	170
326.23	43
339.21	96
340.21	55
345.26	63
369.24	162
370.24	53
387.25	999
388.25	279
389.27	491
390.27	138
423.24	57
425.25	72
775.54	64
777.54	89
