Mass spectrum: 3b,6a-(OH)2-5a-cholanic acid; LC-ESI-TOF; MS; NEGATIVE; In source decay -60 V
Name: 3b,6a-(OH)2-5a-cholanic acid
Name: 3b,6a-Dihydroxy-5a-cholan-24-oic Acid
Class: Natural Product; Bile acids
Formula: C24H40O4
Exact mass: 392.29266
SMILES: C(C1(C)4)([H])(C(C)CCC(O)=O)CCC1(C(C3([H])CC4)([H])CC(C(C3(C)2)([H])CC(O)CC2)O)[H]
InChI: InChI=1S/C24H40O4/c1-14(4-7-22(27)28)17-5-6-18-16-13-21(26)20-12-15(25)8-10-24(20,3)19(16)9-11-23(17,18)2/h14-21,25-26H,4-13H2,1-3H3,(H,27,28)/t14-,15+,16+,17-,18+,19+,20-,21+,23-,24-/m1/s1
Instrument: JMS-T100LP, JEOL
Instrument type: LC-ESI-TOF
Ms type: MS
Ion mode: NEGATIVE
Ionization: ESI
m/z	relative intensity
89.02	431
93.04	35
96.96	33
212.08	150
265.16	30
281.26	23
391.29	999
392.30	306
423.34	28
427.28	54
445.33	39
449.26	52
451.27	23
476.30	26
503.34	72
518.38	25
523.19	27
557.00	21
563.41	35
591.58	21
602.11	21
625.28	35
681.02	28
781.27	26
783.60	535
785.64	86
800.42	24
805.61	80
806.60	48
824.04	26
831.85	31
863.73	50
888.51	21
917.65	41
945.54	24
976.66	27
998.36	30
