Mass spectrum: 3b,4a,12a-Trihydroxy-5b-cholan-24-oic acid; LC-ESI-TOF; MS; Negative; Orifice voltage -30 V
Name: 3b,4a,12a-Trihydroxy-5b-cholan-24-oic acid
Class: Natural Product; Bile acid
Formula: C24H40O5
Exact mass: 408.28757
SMILES: O=C(O)CC[C@@H](C)C2CCC1C3CC[C@@H]4[C@H](O)[C@@H](O)CC[C@]4(C)C3C[C@H](O)[C@@]12C
InChI: InChI=1S/C24H40O5/c1-13(4-9-21(27)28)15-7-8-16-14-5-6-17-22(29)19(25)10-11-23(17,2)18(14)12-20(26)24(15,16)3/h13-20,22,25-26,29H,4-12H2,1-3H3,(H,27,28)/t13-,14?,15?,16?,17-,18?,19+,20+,22+,23+,24-/m1/s1
Instrument: JMS-T100LP, JEOL
Instrument type: LC-ESI-TOF
Ms type: MS
Ion mode: NEGATIVE
Ionization: ESI
m/z	relative intensity
59.22493	490
60.22607	10
61.22541	3
62.19173	42
63.24699	2
69.18063	389
70.18352	5
73.20577	33
74.20589	1
75.1798	448
76.18319	13
77.18191	4
79.08278	1
81.0765	2
85.17823	8
87.19174	12
89.16779	16
91.17988	16
93.17126	2
97.09011	3
99.13285	14
101.18442	2
111.08588	3
113.09114	999
113.29506	2
113.32468	1
113.36834	3
113.75694	10
114.09436	23
115.09591	7
121.12727	2
125.09577	3
127.09512	6
129.11039	2
137.11916	3
141.0939	2
143.18421	3
145.09622	3
151.12484	14
153.09978	30
154.10356	2
155.05182	4
157.1895	5
167.0539	10
171.066	3
171.19545	2
181.03371	6
195.04159	3
199.21596	4
205.19955	2
211.0316	2
212.11467	52
213.11879	8
214.11532	2
227.01516	5
227.23595	10
233.19197	3
241.25441	5
248.99303	28
250.17935	4
253.24769	6
255.26403	29
256.26717	5
269.28014	3
279.26373	3
280.29323	3
281.27902	6
283.29359	15
284.2956	3
297.18219	4
311.18891	8
325.2106	8
326.22281	2
339.22618	6
367.28671	11
368.29669	3
385.19824	2
389.28909	18
390.29951	5
391.2978	2
403.27	2
405.28111	8
406.28669	2
407.28847	999
408.29299	281
409.29585	51
410.30761	6
421.29353	10
422.30876	3
423.29759	2
425.26237	9
426.25905	2
427.26176	3
429.27883	7
431.20144	3
433.27079	5
435.28839	25
436.29725	8
437.2919	2
439.31649	3
443.26334	6
444.27836	2
445.25309	4
449.29592	145
450.30306	47
451.30794	10
452.29811	2
453.29785	47
454.30624	15
455.31028	4
457.27634	3
461.29544	5
463.30356	2
465.29047	16
466.29814	5
467.30381	18
468.31077	5
469.30871	1
471.29235	3
473.26255	3
475.2729	22
476.27953	8
477.30041	2
479.34818	10
480.36019	4
481.31213	9
482.31191	3
487.27262	2
489.29276	10
490.29981	3
491.31057	2
495.30866	9
496.32112	3
497.306	4
499.3266	18
500.34043	5
503.27009	26
504.26607	6
505.28612	16
506.29498	5
509.31811	3
517.28094	4
521.28174	23
522.28141	7
527.2892	3
531.29304	3
535.29248	4
541.33701	2
543.28368	8
544.29428	2
547.29233	3
561.33069	3
563.28107	7
564.30196	2
611.42108	7
611.91696	6
612.41326	3
620.3554	4
621.36313	2
663.50822	4
688.54536	4
689.54445	3
691.55104	3
793.46516	4
794.46625	2
797.54309	54
798.55555	30
799.54549	12
800.56729	3
811.56899	2
813.55307	3
815.55342	141
816.55295	78
817.5714	26
817.99597	1
818.06346	1
818.14806	2
818.58271	8
821.47693	2
829.5782	12
830.58791	7
831.59345	3
835.50538	2
837.54382	42
838.53957	24
839.56198	17
840.56026	7
841.56092	3
855.56367	5
856.56099	3
857.56986	34
858.56723	21
859.59226	8
860.59669	3
871.5949	3
879.56475	8
880.55737	5
881.57148	2
887.60913	2
895.5479	4
896.5512	2
899.58736	3
935.55207	2
