Mass spectrum: 3a,7b,14a-(OH)3-5b-cholanic acid; LC-ESI-TOF; MS; NEGATIVE; In source decay -150 V
Name: 3a,7b,14a-(OH)3-5b-cholanic acid
Name: 3alpha,7beta,14alpha-Trihydroxy-5beta-cholan-24-oic Acid
Class: Natural Product; Bile acids
Formula: C24H40O5
Exact mass: 408.28757
SMILES: C(C3(C)4)([H])(CC(O)CC4)CC(C(C3([H])2)(C(C1(C)CC2)(O)CCC1([H])C(C)CCC(O)=O)[H])O
InChI: InChI=1S/C24H40O5/c1-14(4-5-20(27)28)17-8-11-24(29)21-18(7-10-23(17,24)3)22(2)9-6-16(25)12-15(22)13-19(21)26/h14-19,21,25-26,29H,4-13H2,1-3H3,(H,27,28)/t14-,15+,16-,17-,18+,19+,21+,22+,23-,24-/m1/s1
Instrument: JMS-T100LP, JEOL
Instrument type: LC-ESI-TOF
Ms type: MS
Ion mode: NEGATIVE
Ionization: ESI
m/z	relative intensity
64.51	21
80.31	28
80.78	247
97.58	97
99.61	98
109.58	36
153.36	248
154.36	21
155.20	69
167.17	124
184.15	28
219.15	92
227.03	73
249.99	49
371.27	37
387.27	44
389.29	295
391.28	42
395.27	21
405.28	228
407.30	999
408.31	300
425.26	37
429.28	367
431.30	42
451.27	42
463.23	146
465.24	142
481.27	37
483.28	43
521.28	41
819.52	39
837.54	379
838.53	219
859.55	64
869.50	40
871.53	88
874.54	40
881.51	64
903.50	26
937.54	25
949.52	22
