Mass spectrum: 3b,6a,12a-Trihydroxy-5b-cholan-24-oic acid; LC-ESI-TOF; MS; Orifice voltage -120 V; Negative; In-suorce decay
Name: 3b,6a,12a-Trihydroxy-5b-cholan-24-oic acid
Class: Natural Product; Bile acid
Formula: C24H40O5
Exact mass: 408.28757
SMILES: C[C@H](CCC(=O)O)[C@H]1CC[C@@H]2[C@@]1([C@H](C[C@H]3[C@H]2C[C@@H]([C@H]4[C@@]3(CC[C@@H](C4)O)C)O)O)C
InChI: InChI=1S/C24H40O5/c1-13(4-7-22(28)29)16-5-6-17-15-11-20(26)19-10-14(25)8-9-23(19,2)18(15)12-21(27)24(16,17)3/h13-21,25-27H,4-12H2,1-3H3,(H,28,29)/t13-,14+,15+,16-,17+,18+,19+,20+,21+,23-,24-/m1/s1
Instrument: JMS-T100LP, JEOL
Instrument type: LC-ESI-TOF
Ms type: MS
Ion mode: NEGATIVE
Ionization: ESI
m/z	relative intensity
62.45483	30
63.42357	10
69.41092	30
79.30791	200
81.25469	20
89.31752	10
97.21427	10
113.17214	40
127.04809	30
153.11449	10
155.05251	10
167.0548	20
193.18959	10
221.2052	10
248.96492	130
249.97266	10
251.20668	10
325.25814	20
327.27222	20
341.25649	10
343.27163	40
344.2768	10
345.28417	210
346.29092	60
347.29923	10
353.25957	20
359.30046	10
361.28673	10
371.27427	10
375.30304	10
377.31957	20
384.94937	10
389.28454	20
405.28022	20
407.28888	999
408.29275	280
409.29651	60
410.2983	10
425.24963	10
427.26098	20
428.26996	10
429.27571	70
430.27831	20
449.30806	20
451.32259	10
461.30479	20
462.31073	10
465.25822	20
467.26578	10
519.31516	10
543.27277	10
583.32841	10
797.57414	20
798.578	10
837.54981	140
838.55114	80
839.5576	30
840.57313	10
859.53302	20
860.535	10
881.51965	10
