Mass spectrum: 3,7,12-Trioxo-5b-cholan-24-oic acid; LC-ESI-TOF; MS; NEGATIVE; in source decay -90 V
Name: 3,7,12-Trioxo-5b-cholan-24-oic acid
Class: Natural Product; Bile acids
Formula: C24H34O5
Exact mass: 402.24063
SMILES: O=C(O)CC[C@@H](C)[C@H]1CC[C@H]2[C@H]3[C@H](CC(=O)[C@]12C)[C@@]4(C)CCC(=O)C[C@H]4CC3=O
InChI: InChI=1S/C24H34O5/c1-13(4-7-21(28)29)16-5-6-17-22-18(12-20(27)24(16,17)3)23(2)9-8-15(25)10-14(23)11-19(22)26/h13-14,16-18,22H,4-12H2,1-3H3,(H,28,29)/t13-,14+,16-,17+,18+,22+,23+,24-/m1/s1
Instrument: JMS-T100LP, JEOL
Instrument type: LC-ESI-TOF
Ms type: MS
Ion mode: NEGATIVE
Ionization: ESI
m/z	relative intensity
61.97	126
68.98	83
79.94	24
96.95	42
249.15	26
291.15	35
325.19	25
331.20	63
339.21	21
401.23	999
402.24	302
403.24	48
433.27	146
434.27	30
803.48	198
804.49	108
825.48	32
835.54	45
836.53	25
857.52	30
