Mass spectrum: 12-Oxo-5b-cholan-24-ic acid; LC-ESI-TOF; MS; NEGATIVE; in source decay -30 V
Name: 12-Oxo-5b-cholan-24-ic acid
Class: Natural Product; Bile acids
Formula: C24H38O3
Exact mass: 374.28210
SMILES: CC(CCC(=O)O)C1CCC2C1(C(=O)CC3C2CCC4C3(CCCC4)C)C
InChI: InChI=1S/C24H38O3/c1-15(7-12-22(26)27)18-10-11-19-17-9-8-16-6-4-5-13-23(16,2)20(17)14-21(25)24(18,19)3/h15-20H,4-14H2,1-3H3,(H,26,27)/t15-,16+,17+,18-,19+,20+,23+,24-/m1/s1
Instrument: JMS-T100LP, JEOL
Instrument type: LC-ESI-TOF
Ms type: MS
Ion mode: NEGATIVE
Ionization: ESI
m/z	relative intensity
59.01	70
61.98	294
68.99	347
75.00	83
87.00	57
89.02	749
90.02	30
112.98	999
212.08	43
248.97	21
373.28	101
375.29	96
376.31	25
409.26	21
411.27	142
412.29	39
413.27	41
419.27	26
463.31	23
465.32	78
466.33	23
489.29	63
747.57	21
749.57	49
750.59	28
751.61	56
752.62	46
