Mass spectrum: 3b,6a,12a-Trihydroxy-5b-cholan-24-oic acid; LC-ESI-TOF; MS; Orifice voltage -30 V; Negative; In-suorce decay
Name: 3b,6a,12a-Trihydroxy-5b-cholan-24-oic acid
Class: Natural Product; Bile acid
Formula: C24H40O5
Exact mass: 408.28757
SMILES: C[C@H](CCC(=O)O)[C@H]1CC[C@@H]2[C@@]1([C@H](C[C@H]3[C@H]2C[C@@H]([C@H]4[C@@]3(CC[C@@H](C4)O)C)O)O)C
InChI: InChI=1S/C24H40O5/c1-13(4-7-22(28)29)16-5-6-17-15-11-20(26)19-10-14(25)8-9-23(19,2)18(15)12-21(27)24(16,17)3/h13-21,25-27H,4-12H2,1-3H3,(H,28,29)/t13-,14+,15+,16-,17+,18+,19+,20+,21+,23-,24-/m1/s1
Instrument: JMS-T100LP, JEOL
Instrument type: LC-ESI-TOF
Ms type: MS
Ion mode: NEGATIVE
Ionization: ESI
m/z	relative intensity
59.50355	61
62.45511	20
69.41002	366
75.38247	143
89.31635	13
113.17356	999
113.84515	10
114.17145	23
153.11222	45
167.05328	14
226.98788	31
248.96424	99
384.94735	16
407.28887	232
408.29302	65
409.29995	11
521.29333	10
815.57489	27
816.58028	14
837.55744	11
