Mass spectrum: 3,6-Dioxo-5b-cholan-24-oic acid; LC-ESI-TOF; MS; NEGATIVE; in source decay -60 V
Name: 3,6-Dioxo-5b-cholan-24-oic acid
Class: Natural Product; Bile acids
Formula: C24H36O4
Exact mass: 388.26136
SMILES: C(C1(C)4)([H])(C(C)CCC(O)=O)CCC1(C(C3([H])CC4)([H])CC(C(C3(C)2)([H])CC(=O)CC2)=O)[H]
InChI: InChI=1S/C24H36O4/c1-14(4-7-22(27)28)17-5-6-18-16-13-21(26)20-12-15(25)8-10-24(20,3)19(16)9-11-23(17,18)2/h14,16-20H,4-13H2,1-3H3,(H,27,28)/t14-,16+,17-,18+,19+,20+,23-,24-/m1/s1
Instrument: JMS-T100LP, JEOL
Instrument type: LC-ESI-TOF
Ms type: MS
Ion mode: NEGATIVE
Ionization: ESI
m/z	relative intensity
61.97	256
68.98	999
96.95	37
112.97	396
387.26	214
388.25	61
419.28	70
423.24	46
455.27	26
775.53	206
776.53	115
777.53	51
807.54	144
808.56	86
809.58	70
