Mass spectrum: 3b,4b-Dihydroxy-5b-cholan-24-oic acid; LC-ESI-TOF; MS; NEGATIVE; Orifice voltage -120 V
Name: 3b,4b-Dihydroxy-5b-cholan-24-oic acid
Class: Natural Product; Bile acids
Formula: C24H40O4
Exact mass: 392.29266
SMILES: C[C@H](CCC(=O)O)[C@H]1CC[C@@H]2[C@@]1(CC[C@H]3[C@H]2CC[C@H]4[C@@]3(CC[C@@H]([C@@H]4O)O)C)C
InChI: InChI=1S/C24H40O4/c1-14(4-9-21(26)27)16-7-8-17-15-5-6-19-22(28)20(25)11-13-24(19,3)18(15)10-12-23(16,17)2/h14-20,22,25,28H,4-13H2,1-3H3,(H,26,27)/t14-,15+,16-,17+,18+,19-,20+,22-,23-,24-/m1/s1
Instrument: JMS-T100LP, JEOL
Instrument type: LC-ESI-TOF
Ms type: MS
Ion mode: NEGATIVE
Ionization: ESI
m/z	relative intensity
61.95495	53
78.8911	999
79.11033	6
79.42661	1
79.45461	3
79.93101	4
80.88962	996
81.06167	1
81.14346	4
81.4896	4
96.94073	4
126.89354	9
136.86662	2
138.86832	2
163.89297	1
180.8251	6
183.01063	32
184.01993	4
184.81914	3
185.01009	3
297.16814	2
311.16668	8
325.19196	12
326.19858	2
339.2099	10
340.21263	1
391.28216	393
391.7209	1
391.85942	4
392.28677	131
393.30943	23
394.3242	2
407.29468	2
423.31818	15
424.33004	4
449.26075	4
451.26423	2
471.22741	9
472.22806	2
473.21938	10
474.21977	2
493.21574	6
495.20411	7
496.22794	2
783.60758	3
784.60129	2
805.58257	10
806.59932	6
863.53473	4
864.55153	2
865.5366	4
866.53646	1
