Mass spectrum: Glyco 3a-sulfate-7b-OH-5b-cholanic acid; LC-ESI-TOF; MS; NEGATIVE; In-source decay -150 V
Name: Glyco 3a-sulfate-7b-OH-5b-cholanic acid
Name: N-((3a,5b,7b)-7-Hydroxy-24-oxo-3-(sulfooxy)cholan-24-yl)glycine
Class: Natural Product; Bile acids
Formula: C26H43NO8S
Exact mass: 529.27094
SMILES: O=C(O)CNC(=O)CC[C@@H](C)[C@H]1CC[C@H]2[C@H]3[C@H](CC[C@]12C)[C@@]4(C)CC[C@@H](OS(=O)(=O)O)C[C@H]4C[C@@H]3O
InChI: InChI=1S/C26H43NO8S/c1-15(4-7-22(29)27-14-23(30)31)18-5-6-19-24-20(9-11-26(18,19)3)25(2)10-8-17(35-36(32,33)34)12-16(25)13-21(24)28/h15-21,24,28H,4-14H2,1-3H3,(H,27,29)(H,30,31)(H,32,33,34)/t15-,16+,17-,18-,19+,20+,21+,24+,25+,26-/m1/s1
Instrument: JMS-T100LP, JEOL
Instrument type: LC-ESI-TOF
Ms type: MS
Ion mode: NEGATIVE
Ionization: ESI
m/z	relative intensity
61.97	20
74.01	945
75.01	28
79.94	169
84.03	46
96.95	999
98.94	61
118.93	39
183.01	29
386.30	99
387.31	32
448.30	168
449.31	59
528.26	77
550.24	374
551.25	116
552.25	58
