Mass spectrum: Tauroursodeoxycholate-3-sulfate; LC-ESI-TOF; MS; NEGATIVE; In-source decay -90 V
Name: Tauroursodeoxycholate-3-sulfate
Class: Natural Product; Bile acids
Formula: C26H45NO9S2
Exact mass: 579.25357
SMILES: C[C@H](CCC(=O)NCCS(=O)(=O)O)[C@H]1CC[C@@H]2[C@@]1(CC[C@H]3[C@H]2[C@H](C[C@H]4[C@@]3(CC[C@H](C4)OS(=O)(=O)O)C)O)C
InChI: InChI=1S/C26H45NO9S2/c1-16(4-7-23(29)27-12-13-37(30,31)32)19-5-6-20-24-21(9-11-26(19,20)3)25(2)10-8-18(36-38(33,34)35)14-17(25)15-22(24)28/h16-22,24,28H,4-15H2,1-3H3,(H,27,29)(H,30,31,32)(H,33,34,35)/t16-,17+,18-,19-,20+,21+,22+,24+,25+,26-/m1/s1
Instrument: JMS-T100LP, JEOL
Instrument type: LC-ESI-TOF
Ms type: MS
Ion mode: NEGATIVE
Ionization: ESI
m/z	relative intensity
61.98	31
80.96	87
96.95	999
98.95	57
288.61	105
329.14	74
369.17	21
426.22	64
427.24	20
480.27	390
481.28	131
498.29	73
499.28	22
578.25	23
597.21	44
600.23	41
967.82	22
