Mass spectrum: 2b,3a-Dihydroxy-5b-cholan-24-oic acid; LC-ESI-TOF; MS; Negative; Orifice voltage -150 V
Name: 2b,3a-Dihydroxy-5b-cholan-24-oic acid
Name: LMST04010021
Class: Natural Product; Bile acids
Formula: C24H40O4
Exact mass: 392.29266
SMILES: C[C@H](CCC(=O)O)[C@H]1CC[C@@H]2[C@@]1(CC[C@H]3[C@H]2CC[C@H]4[C@@]3(C[C@@H]([C@H](C4)O)O)C)C
InChI: InChI=1S/C24H40O4/c1-14(4-9-22(27)28)17-7-8-18-16-6-5-15-12-20(25)21(26)13-24(15,3)19(16)10-11-23(17,18)2/h14-21,25-26H,4-13H2,1-3H3,(H,27,28)/t14-,15-,16+,17-,18+,19+,20+,21+,23-,24+/m1/s1
Instrument: JMS-T100LP, JEOL
Instrument type: LC-ESI-TOF
Ms type: MS
Ion mode: NEGATIVE
Ionization: ESI
m/z	relative intensity
58.01345	18
59.0495	7
60.00348	65
61.01111	10
62.02251	92
63.99491	78
65.00695	10
69.02702	29
70.5422	2
73.03199	6
75.03354	6
75.99056	5
78.94519	62
79.97948	77
80.94101	72
81.37611	2
81.97761	2
83.07449	7
85.04555	63
89.04046	11
95.96814	19
96.97489	21
99.02175	18
102.97037	3
109.01676	5
110.98784	12
113.00165	111
116.00878	15
117.05818	6
118.0419	5
119.06187	16
123.09419	4
126.9148	14
129.02098	29
130.96914	4
139.03991	5
143.03549	8
148.05406	4
149.01638	3
154.98048	5
167.00105	25
169.0022	14
171.09234	4
173.00926	19
178.97391	13
180.98197	7
183.01717	30
189.12628	6
195.02288	5
197.01957	5
197.96369	13
199.01812	4
210.98159	17
212.08728	5
217.12905	3
218.11144	2
223.01266	6
225.05028	6
227.19488	9
228.97495	8
235.02495	6
247.05592	12
248.95853	38
249.96382	6
253.18873	5
255.22774	7
261.04142	3
283.26224	7
297.28843	19
299.21206	4
301.07031	4
311.17516	7
313.25787	7
314.94995	3
317.28663	3
325.18754	6
327.26323	4
329.30275	4
336.32341	4
339.20451	6
341.25907	15
343.26523	16
344.27052	4
353.27348	4
355.27017	6
359.25808	46
360.26413	12
363.26825	7
365.28168	8
369.27994	4
371.25316	12
372.27585	7
373.27718	58
374.27985	15
375.28387	7
378.29252	3
379.23304	4
380.23218	4
381.24414	390
382.24593	111
383.24903	21
384.29965	3
389.27197	26
390.26096	7
391.28617	999
391.83427	4
392.28938	296
393.29387	68
394.26454	9
395.25985	15
396.26813	5
397.27771	7
398.31209	4
401.30523	2
403.27926	3
405.29373	6
407.31322	5
409.24235	32
410.24443	50
411.24773	149
412.25227	44
413.27	30
414.265	10
417.19699	6
421.2998	9
422.2923	4
423.31022	202
424.31723	56
425.33758	14
429.30915	4
431.31409	5
433.29917	5
445.29289	49
446.3008	17
447.28491	8
449.2439	6
450.31879	25
451.33237	18
452.24681	8
453.22491	11
455.25972	9
459.29249	8
463.24157	11
464.24418	24
465.26058	13
466.329	4
467.27124	9
476.28283	8
485.28959	43
486.28977	15
487.25196	21
489.28347	11
491.07103	6
498.3065	8
499.17515	19
500.14999	8
505.06495	4
513.30996	21
514.32523	7
519.25547	12
521.29873	9
527.27666	13
529.29495	3
533.35671	8
535.53661	9
541.27998	16
542.28136	6
543.28366	6
547.37106	5
553.30213	4
555.21682	4
561.2739	9
563.55203	13
571.25892	8
575.29454	8
579.34436	5
615.29116	6
617.28088	5
629.30141	7
635.27344	1
649.49306	6
651.32669	8
683.29439	5
711.41469	5
723.31595	4
759.33575	5
760.39168	2
773.31655	4
783.57646	3
805.55292	179
806.57352	98
807.56127	32
809.01889	4
827.51094	31
828.56231	18
829.52947	7
847.49791	4
849.52345	24
850.51994	13
851.51701	5
861.34687	4
861.79659	2
864.70532	2
869.51195	11
871.49399	8
872.50326	5
880.9657	3
881.52548	11
882.52303	7
883.59121	3
886.88735	1
903.53081	10
923.49551	6
925.53802	9
927.52894	5
930.92379	4
931.46323	2
935.51396	7
954.42411	1
955.66236	1
957.52123	6
979.48864	5
981.4443	3
993.38622	4
999.56114	5
