Mass spectrum: Tauro 3a-OH-5b-cholanic acid; LC-ESI-TOF; MS; NEGATIVE; In source decay -90 V
Name: Tauro 3a-OH-5b-cholanic acid
Name: 2-{[(3alpha,5beta)-3-Hydroxy-24-oxocholan-24-yl]amino}ethanesulfonic acid
Class: Natural Product; Bile acids
Formula: C26H45NO5S
Exact mass: 483.30184
SMILES: O=S(=O)(O)CCNC(=O)CC[C@@H](C)[C@H]1CC[C@H]2[C@@H]3CC[C@@H]4C[C@H](O)CC[C@]4(C)[C@H]3CC[C@]12C
InChI: InChI=1S/C26H45NO5S/c1-17(4-9-24(29)27-14-15-33(30,31)32)21-7-8-22-20-6-5-18-16-19(28)10-12-25(18,2)23(20)11-13-26(21,22)3/h17-23,28H,4-16H2,1-3H3,(H,27,29)(H,30,31,32)/t17-,18-,19-,20+,21-,22+,23+,25+,26-/m1/s1
Instrument: JMS-T100LP, JEOL
Instrument type: LC-ESI-TOF
Ms type: MS
Ion mode: NEGATIVE
Ionization: ESI
m/z	relative intensity
61.92	31
466.30	44
482.28	999
483.29	307
