Mass spectrum: 3b,6a,7b-Trihydroxy-5b-cholan-24-oic acid; LC-ESI-TOF; MS; Orifice voltage -150 V; Negative; In-suorce decay
Name: 3b,6a,7b-Trihydroxy-5b-cholan-24-oic acid
Class: Natural Product; Bile acid
Formula: C24H40O5
Exact mass: 408.28757
SMILES: C[C@H](CCC(=O)O)[C@H]1CC[C@@H]2[C@@]1(CC[C@H]3[C@H]2[C@H]([C@@H]([C@H]4[C@@]3(CC[C@@H](C4)O)C)O)O)C
InChI: InChI=1S/C24H40O5/c1-13(4-7-19(26)27)15-5-6-16-20-17(9-11-23(15,16)2)24(3)10-8-14(25)12-18(24)21(28)22(20)29/h13-18,20-22,25,28-29H,4-12H2,1-3H3,(H,26,27)/t13-,14+,15-,16+,17+,18+,20+,21-,22-,23-,24-/m1/s1
Instrument: JMS-T100LP, JEOL
Instrument type: LC-ESI-TOF
Ms type: MS
Ion mode: NEGATIVE
Ionization: ESI
m/z	relative intensity
62.27271	6
67.43583	76
77.63901	519
79.64165	72
81.72271	13
87.87003	23
91.89748	43
126.37376	76
152.7385	42
154.69316	48
166.79063	55
172.78667	8
197.89226	15
198.95055	13
232.98764	72
249.98539	32
344.13158	19
345.13231	2
353.02621	16
368.9901	53
384.96104	79
385.97768	8
390.30331	7
395.24333	115
396.25177	28
397.25866	14
405.29027	49
406.29409	13
407.29801	999
408.30223	301
409.3142	58
410.30193	8
411.29413	6
412.31737	3
413.31008	8
419.30634	12
427.2764	28
439.33131	133
440.33834	41
441.33017	9
443.29353	18
445.32327	11
447.28574	6
449.28979	25
457.30214	11
459.31146	17
466.27224	40
467.26649	59
468.26941	13
469.28361	7
489.30637	11
491.30325	3
504.98128	15
507.27652	6
520.95375	43
523.27377	7
526.21874	6
656.937	7
821.52989	65
822.53626	56
824.58819	8
838.49754	192
839.50849	69
840.50551	16
842.55011	4
843.5108	14
844.5331	5
859.46734	21
860.48138	12
881.48655	15
895.44609	17
