Mass spectrum: 3-Oxo-5a-cholan-24-oic acid; LC-ESI-TOF; MS; NEGATIVE; in source decay -30 V
Name: 3-Oxo-5a-cholan-24-oic acid
Class: Natural Product; Bile acids
Formula: C24H38O3
Exact mass: 374.2821
SMILES: CC(CCC(=O)O)C1CCC2C1(CCC3C2CCC4C3(CCC(=O)C4)C)C
InChI: InChI=1S/C24H38O3/c1-15(4-9-22(26)27)19-7-8-20-18-6-5-16-14-17(25)10-12-23(16,2)21(18)11-13-24(19,20)3/h15-16,18-21H,4-14H2,1-3H3,(H,26,27)/t15-,16+,18+,19-,20+,21+,23+,24-/m1/s1
Instrument: JMS-T100LP, JEOL
Instrument type: LC-ESI-TOF
Ms type: MS
Ion mode: NEGATIVE
Ionization: ESI
m/z	relative intensity
59.00	55
61.97	308
68.98	339
74.99	76
89.01	158
96.95	25
112.97	999
113.98	21
212.08	23
373.28	176
374.28	39
409.26	112
410.26	27
411.25	43
419.28	40
436.27	38
463.32	43
487.27	142
488.29	40
747.56	173
748.57	96
749.59	34
779.60	21
