Mass spectrum: 3a,6b,7b,12a-(OH)4- 5b-cholanic acid; LC-ESI-TOF; MS; NEGATIVE; In source decay -120 V
Name: 3a,6b,7b,12a-(OH)4- 5b-cholanic acid
Name: 3a,6b,7b,12a-Tetrahydroxy- 5b-cholan- 24-oic acid
Class: Natural Product; Bile acids
Formula: C24H40O6
Exact mass: 424.28249
SMILES: CC(CCC(=O)O)C1CCC2C1(C(CC3C2C(C(C4C3(CCC(C4)O)C)O)O)O)C
InChI: InChI=1S/C24H40O6/c1-12(4-7-19(27)28)14-5-6-15-20-16(11-18(26)24(14,15)3)23(2)9-8-13(25)10-17(23)21(29)22(20)30/h12-18,20-22,25-26,29-30H,4-11H2,1-3H3,(H,27,28)/t12-,13-,14-,15+,16+,17+,18+,20+,21+,22-,23-,24-/m1/s1
Instrument: JMS-T100LP, JEOL
Instrument type: LC-ESI-TOF
Ms type: MS
Ion mode: NEGATIVE
Ionization: ESI
m/z	relative intensity
61.97	45
341.24	41
423.25	999
424.26	285
425.28	51
459.24	65
461.24	21
847.53	137
848.54	76
849.56	44
869.52	67
870.53	65
883.53	25
