Mass spectrum: 3a,7b,15b-(OH)3-5b-cholanic acid; LC-ESI-TOF; MS; NEGATIVE; In source decay -150 V
Name: 3a,7b,15b-(OH)3-5b-cholanic acid
Name: (3a,5b,7b,15b)-3,7,15-Trihydroxycholan-24-oic acid
Class: Natural Product; Bile acids
Formula: C24H40O5
Exact mass: 408.28757
SMILES: C(C3(C)4)([H])(CC(O)CC4)CC(C(C3([H])2)(C(C1(C)CC2)([H])C(O)CC1([H])C(C)CCC(O)=O)[H])O
InChI: InChI=1S/C24H40O5/c1-13(4-5-20(28)29)17-12-19(27)22-21-16(7-9-24(17,22)3)23(2)8-6-15(25)10-14(23)11-18(21)26/h13-19,21-22,25-27H,4-12H2,1-3H3,(H,28,29)/t13-,14+,15-,16+,17-,18+,19-,21+,22+,23+,24-/m1/s1
Instrument: JMS-T100LP, JEOL
Instrument type: LC-ESI-TOF
Ms type: MS
Ion mode: NEGATIVE
Ionization: ESI
m/z	relative intensity
62.19	36
63.16	84
69.18	53
79.12	140
80.11	33
109.17	22
113.09	106
119.15	24
167.05	25
183.06	57
227	30
248.98	148
271.22	46
325.25	25
343.27	53
345.25	57
359.27	21
361.28	60
387.25	29
389.27	141
390.28	44
407.28	999
408.28	288
409.28	55
425.23	35
427.24	64
429.26	192
430.26	50
439.29	26
465.24	30
815.55	36
816.53	23
837.51	404
838.52	222
839.53	77
840.53	23
859.50	87
860.49	50
