Mass spectrum: 3a,7b,14a-(OH)3-5b-cholanic acid; LC-ESI-TOF; MS; NEGATIVE; In source decay -90 V
Name: 3a,7b,14a-(OH)3-5b-cholanic acid
Name: 3alpha,7beta,14alpha-Trihydroxy-5beta-cholan-24-oic Acid
Class: Natural Product; Bile acids
Formula: C24H40O5
Exact mass: 408.28757
SMILES: C(C3(C)4)([H])(CC(O)CC4)CC(C(C3([H])2)(C(C1(C)CC2)(O)CCC1([H])C(C)CCC(O)=O)[H])O
InChI: InChI=1S/C24H40O5/c1-14(4-5-20(27)28)17-8-11-24(29)21-18(7-10-23(17,24)3)22(2)9-6-16(25)12-15(22)13-19(21)26/h14-19,21,25-26,29H,4-13H2,1-3H3,(H,27,28)/t14-,15+,16-,17-,18+,19+,21+,22+,23-,24-/m1/s1
Instrument: JMS-T100LP, JEOL
Instrument type: LC-ESI-TOF
Ms type: MS
Ion mode: NEGATIVE
Ionization: ESI
m/z	relative intensity
62.09	22
63.07	161
65.02	23
69.97	293
79.79	338
80.78	21
81.72	117
97.58	37
113.46	85
248.99	73
255.26	30
311.17	36
325.20	40
339.21	26
389.28	128
390.29	38
391.29	56
403.28	22
405.28	77
406.29	22
407.29	999
408.30	280
409.30	44
421.30	22
429.28	81
430.28	24
439.26	30
441.25	60
443.25	26
447.29	31
449.30	53
465.24	25
475.28	69
476.28	24
815.56	21
837.54	66
838.55	38
