Mass spectrum: 3,7-Dioxo-5b-cholan-24-oic acid; LC-ESI-TOF; MS; NEGATIVE; in source decay -120 V
Name: 3,7-Dioxo-5b-cholan-24-oic acid
Class: Natural Product; Bile acids
Formula: C24H36O4
Exact mass: 388.26136
SMILES: C(C3(C)4)([H])(CC(=O)CC4)CC(C(C3([H])2)(C(C1(C)CC2)([H])CCC1([H])C(C)CCC(O)=O)[H])=O
InChI: InChI=1S/C24H36O4/c1-14(4-7-21(27)28)17-5-6-18-22-19(9-11-24(17,18)3)23(2)10-8-16(25)12-15(23)13-20(22)26/h14-15,17-19,22H,4-13H2,1-3H3,(H,27,28)/t14-,15+,17-,18+,19+,22+,23+,24-/m1/s1
Instrument: JMS-T100LP, JEOL
Instrument type: LC-ESI-TOF
Ms type: MS
Ion mode: NEGATIVE
Ionization: ESI
m/z	relative intensity
61.97	60
79.94	40
96.95	28
273.23	23
317.21	25
387.25	999
388.25	286
389.27	47
419.28	74
420.29	28
775.54	86
776.54	48
797.50	39
798.52	21
807.54	34
808.56	24
