Mass spectrum: 3a,6b,7a,12a-Tetrahydroxy-5b-cholan-24-oic acid; LC-ESI-TOF; MS; Orifice voltage -150 V; Negative; In-suorce decay
Name: 3a,6b,7a,12a-Tetrahydroxy-5b-cholan-24-oic acid
Class: Natural Product; Bile acid
Formula: C24H40O6
Exact mass: 424.28249
SMILES: C[C@H](CCC(=O)O)[C@H]1CC[C@@H]2[C@@]1([C@H](C[C@H]3[C@H]2[C@@H]([C@H]([C@H]4[C@@]3(CC[C@H](C4)O)C)O)O)O)C
InChI: InChI=1S/C24H40O6/c1-12(4-7-19(27)28)14-5-6-15-20-16(11-18(26)24(14,15)3)23(2)9-8-13(25)10-17(23)21(29)22(20)30/h12-18,20-22,25-26,29-30H,4-11H2,1-3H3,(H,27,28)/t12-,13-,14-,15+,16+,17+,18+,20+,21+,22+,23-,24-/m1/s1
Instrument: JMS-T100LP, JEOL
Instrument type: LC-ESI-TOF
Ms type: MS
Ion mode: NEGATIVE
Ionization: ESI
m/z	relative intensity
61.98101	235
79.95324	22
80.9117	2
96.95673	24
98.9491	4
126.90514	2
146.96747	4
183.01293	57
184.02098	11
185.01095	5
217.15958	6
309.23623	6
311.17232	31
312.17991	4
313.25938	6
325.19712	26
326.20549	7
329.26841	8
331.26643	2
339.21835	28
340.20931	5
341.25223	18
342.27283	4
343.25708	3
347.27208	9
359.2622	49
360.27425	13
361.27189	4
367.32395	3
369.25302	3
370.58158	1
377.27694	30
378.29109	9
379.30152	5
385.23939	4
386.30171	1
387.27194	5
388.31542	3
405.27641	9
421.2703	47
422.28886	13
423.26721	999
423.86435	10
424.2787	300
425.2876	56
428.73211	4
439.30805	3
445.33582	3
455.31324	9
456.33428	2
457.28517	2
459.26008	76
460.28505	26
461.25345	35
463.32257	4
481.24271	47
482.25427	14
483.25861	18
484.24215	5
486.28222	16
487.30557	6
488.33558	2
508.27347	10
758.40669	2
847.57164	90
848.5982	52
849.59557	16
851.6188	1
869.57808	62
870.56511	57
883.57488	17
884.56722	8
885.58096	6
886.5661	3
927.52434	11
928.51182	9
929.55282	6
