Mass spectrum: 1b,3a-Dihydroxy-5b-cholan-24-oic acid; LC-ESI-TOF; MS; Negative; Orifice voltage -60 V
Name: 1b,3a-Dihydroxy-5b-cholan-24-oic acid
Name: (1b,3a,5b)-1,3-Dihydroxycholan-24-oic acid
Name: LMST04010020
Class: Natural Product; Bile acids
Formula: C24H40O4
Exact mass: 392.29266
SMILES: O=C(O)CC[C@H]([C@H]1CC[C@@H]2[C@]1(C)CC[C@H]4[C@H]2CC[C@@H]3C[C@H](O)C[C@@H](O)[C@@]34C)C
InChI: InChI=1S/C24H40O4/c1-14(4-9-22(27)28)18-7-8-19-17-6-5-15-12-16(25)13-21(26)24(15,3)20(17)10-11-23(18,19)2/h14-21,25-26H,4-13H2,1-3H3,(H,27,28)/t14-,15-,16+,17+,18-,19+,20+,21-,23-,24+/m1/s1
Instrument: JMS-T100LP, JEOL
Instrument type: LC-ESI-TOF
Ms type: MS
Ion mode: NEGATIVE
Ionization: ESI
m/z	relative intensity
58.9962	68
61.97145	228
68.98094	37
73.01376	6
78.90547	6
80.89716	6
87.02663	12
89.01194	103
96.95052	14
98.93388	5
112.97183	5
115.06767	6
121.02288	9
143.0981	10
157.11772	35
171.13616	11
180.9888	4
199.16859	12
208.0997	6
212.07186	63
213.07721	5
227.1974	27
239.06558	11
241.21178	20
242.21968	5
253.21073	32
254.21517	7
255.23101	61
255.87166	1
256.23002	7
257.24042	2
264.16773	6
265.14566	9
267.24181	6
269.2495	11
279.23319	8
281.2458	24
282.25481	4
283.26564	25
284.25839	2
293.1805	5
307.26101	4
309.15438	5
311.16791	6
339.19634	3
367.37059	6
369.25939	4
373.26781	6
374.27045	1
391.27617	999
391.88258	9
392.27934	316
393.29549	51
396.42222	1
396.833	1
407.29078	7
413.27123	6
421.26458	9
423.31126	134
424.30611	42
427.26111	21
428.26059	7
429.27345	9
430.2875	3
435.30192	11
436.29844	4
437.28378	4
438.34426	1
445.31841	4
449.24449	10
450.24433	5
451.30788	6
459.25503	6
473.29098	6
476.27013	8
477.27384	3
481.32511	3
482.32119	3
503.30478	18
504.32333	5
549.44058	4
619.52215	5
620.52002	4
633.52087	6
645.50308	12
646.50667	7
647.54103	42
649.53712	2
673.57689	9
674.57145	4
675.56673	10
676.54743	4
765.60124	7
766.61258	4
781.58267	4
783.57752	754
784.56764	413
785.57491	143
786.63241	43
792.34525	1
797.6293	6
799.61118	5
800.61138	4
805.57157	50
806.59222	28
811.62125	1
813.5868	6
814.54524	5
815.58839	3
819.66644	3
827.61567	7
828.58233	3
830.55132	5
