Mass spectrum: (5a,6b)-6-Hydroxycholan-24-oic acid; LC-ESI-TOF; MS; NEGATIVE; In source decay -120 V
Name: (5a,6b)-6-Hydroxycholan-24-oic acid
Class: Natural Product; Bile acids
Formula: C24H40O3
Exact mass: 376.29775
SMILES: O=C(O)CC[C@@H](C)[C@H]1CC[C@H]2[C@@H]3C[C@@H](O)[C@H]4CCCC[C@]4(C)[C@H]3CC[C@]12C
InChI: InChI=1S/C24H40O3/c1-15(7-10-22(26)27)17-8-9-18-16-14-21(25)20-6-4-5-12-23(20,2)19(16)11-13-24(17,18)3/h15-21,25H,4-14H2,1-3H3,(H,26,27)/t15-,16+,17-,18+,19+,20-,21-,23-,24-/m1/s1
Instrument: JMS-T100LP, JEOL
Instrument type: LC-ESI-TOF
Ms type: MS
Ion mode: NEGATIVE
Ionization: ESI
m/z	relative intensity
61.99	105
183.01	124
311.17	31
325.19	51
339.20	47
375.28	999
376.29	308
377.30	38
407.32	30
487.32	24
493.18	32
496.14	45
596.56	28
751.60	21
773.55	78
774.57	53
791.62	23
804.45	21
831.51	62
876.78	26
910.57	37
916.55	43
943.90	28
