Mass spectrum: 3a,6a,7b,12a-(OH)4-5a-cholanic acid; LC-ESI-TOF; MS; NEGATIVE; In source decay -120 V
Name: 3a,6a,7b,12a-(OH)4-5a-cholanic acid
Class: Natural Product; Bile acids
Formula: C24H40O6
Exact mass: 424.28249
SMILES: C(C23[H])(O)C(C(C(C2([H])CC(C(C([H])(C(C)CCC(O)=O)4)(C3([H])CC4)C)O)(C)1)([H])CC(O)CC1)O
InChI: InChI=1S/C24H40O6/c1-12(4-7-19(27)28)14-5-6-15-20-16(11-18(26)24(14,15)3)23(2)9-8-13(25)10-17(23)21(29)22(20)30/h12-18,20-22,25-26,29-30H,4-11H2,1-3H3,(H,27,28)/t12-,13-,14-,15+,16+,17-,18+,20+,21-,22-,23-,24-/m1/s1
Instrument: JMS-T100LP, JEOL
Instrument type: LC-ESI-TOF
Ms type: MS
Ion mode: NEGATIVE
Ionization: ESI
m/z	relative intensity
61.98	23
359.26	43
377.27	23
423.27	999
424.28	304
425.30	54
459.25	53
481.25	59
482.24	20
483.25	24
847.59	64
848.59	33
869.55	54
870.57	33
