Mass spectrum: 3a,6a,7b-Trihydroxy-5b-cholan-24-oic acid; LC-ESI-TOF; MS; Orifice voltage -60 V; Negative; In-suorce decay
Name: 3a,6a,7b-Trihydroxy-5b-cholan-24-oic acid
Name: omega-Muricholic acid
Name: beta-Hyocholic acid
Class: Natural Product; Bile acid
Formula: C24H40O5
Exact mass: 408.28757
SMILES: C[C@H](CCC(=O)O)[C@H]1CC[C@@H]2[C@@]1(CC[C@H]3[C@H]2[C@H]([C@@H]([C@H]4[C@@]3(CC[C@H](C4)O)C)O)O)C
InChI: InChI=1S/C24H40O5/c1-13(4-7-19(26)27)15-5-6-16-20-17(9-11-23(15,16)2)24(3)10-8-14(25)12-18(24)21(28)22(20)29/h13-18,20-22,25,28-29H,4-12H2,1-3H3,(H,26,27)/t13-,14-,15-,16+,17+,18+,20+,21-,22-,23-,24-/m1/s1
Instrument: JMS-T100LP, JEOL
Instrument type: LC-ESI-TOF
Ms type: MS
Ion mode: NEGATIVE
Ionization: ESI
m/z	relative intensity
59.02909	21
61.00145	16
62.00193	40
69.00732	999
69.54231	11
70.00962	15
73.01651	16
78.96648	41
112.98635	106
125.00168	22
153.03049	19
154.97149	56
186.99935	12
248.95782	37
407.2784	298
408.28192	84
409.28935	14
439.30585	53
440.31089	16
461.29144	14
815.56722	33
816.58059	18
837.55415	25
838.56079	13
