Mass spectrum: 12-Oxo-5a-cholan-24-oic acid; LC-ESI-TOF; MS; NEGATIVE; in source decay -120 V
Name: 12-Oxo-5a-cholan-24-oic acid
Class: Natural Product; Bile acids
Formula: C24H38O3
Exact mass: 374.2821
SMILES: CC(CCC(=O)O)C1CCC2C1(C(=O)CC3C2CCC4C3(CCCC4)C)C
InChI: InChI=1S/C24H38O3/c1-15(7-12-22(26)27)18-10-11-19-17-9-8-16-6-4-5-13-23(16,2)20(17)14-21(25)24(18,19)3/h15-20H,4-14H2,1-3H3,(H,26,27)/t15-,16-,17+,18-,19+,20+,23+,24-/m1/s1
Instrument: JMS-T100LP, JEOL
Instrument type: LC-ESI-TOF
Ms type: MS
Ion mode: NEGATIVE
Ionization: ESI
m/z	relative intensity
61.97	56
79.94	21
96.95	39
183.01	30
329.29	27
373.27	999
374.28	265
375.29	48
405.31	27
747.56	37
748.57	38
769.56	29
