Mass spectrum: 3b,4b,7a-Trihydroxy-5b-cholan-24-oic acid; LC-ESI-TOF; MS; Negative; Orifice voltage -120 V
Name: 3b,4b,7a-Trihydroxy-5b-cholan-24-oic acid
Class: Natural Product; Bile acid
Formula: C24H40O5
Exact mass: 408.28757
SMILES: C[C@H](CCC(=O)O)[C@H]1CC[C@@H]2[C@@]1(CC[C@H]3[C@H]2[C@@H](C[C@H]4[C@@]3(CC[C@@H]([C@@H]4O)O)C)O)C
InChI: InChI=1S/C24H40O5/c1-13(4-7-20(27)28)14-5-6-15-21-16(8-10-23(14,15)2)24(3)11-9-18(25)22(29)17(24)12-19(21)26/h13-19,21-22,25-26,29H,4-12H2,1-3H3,(H,27,28)/t13-,14-,15+,16+,17-,18+,19-,21+,22-,23-,24-/m1/s1
Instrument: JMS-T100LP, JEOL
Instrument type: LC-ESI-TOF
Ms type: MS
Ion mode: NEGATIVE
Ionization: ESI
m/z	relative intensity
61.19071	2
62.18994	26
63.16327	9
64.15977	7
65.16588	2
69.18015	18
73.18605	2
79.11966	94
80.1169	11
81.13718	8
85.17608	5
89.11869	1
89.16619	4
96.08192	1
97.08725	11
99.13088	7
113.08904	36
116.09745	2
125.09204	2
129.10508	3
130.05943	1
143.10193	4
153.09658	7
155.03713	8
157.07366	1
167.04889	11
173.06073	2
181.02309	4
183.06031	16
184.06599	3
185.06038	1
187.06325	2
197.07032	1
198.0051	3
211.02255	3
225.027	2
227.00623	4
248.98433	72
249.98896	4
250.16719	1
255.26068	2
297.18844	2
301.23987	2
303.24597	2
311.18188	6
325.21573	10
326.22936	2
337.23107	2
339.21986	6
341.25934	4
343.26371	2
353.25867	4
355.23636	7
356.24442	2
359.26891	2
369.25443	5
370.26371	1
371.26785	31
372.27389	9
373.2795	2
375.26503	2
379.24659	1
384.94028	3
387.25987	11
388.26378	3
389.27128	144
390.27812	43
391.28013	8
392.28657	2
393.25141	3
394.26023	2
397.24298	3
403.28065	2
405.27063	16
406.26782	3
407.27671	999
408.28095	282
408.87212	1
409.27833	72
410.28518	11
411.26327	6
412.2717	1
421.29014	7
422.30216	2
425.28755	2
427.24692	16
428.25527	4
429.26301	29
430.26595	8
431.27935	2
437.29069	2
439.29799	258
440.30537	76
441.31608	12
442.31734	2
443.26732	3
449.25917	2
461.27883	11
462.29262	4
465.23186	15
466.24159	5
467.24001	6
468.24184	2
469.25819	2
475.25992	21
476.271	7
477.28547	2
483.27234	4
487.22255	2
492.2524	3
497.24606	4
499.15794	2
519.27456	5
521.2674	9
522.26283	2
543.24286	5
544.24389	2
551.23906	1
563.23925	3
565.2301	2
583.28893	7
584.28189	1
657.20976	5
658.21975	2
685.47489	2
815.54433	14
816.53298	8
817.55807	3
837.5091	269
838.51161	148
839.5247	49
840.53195	14
841.53321	3
853.50528	3
859.51064	17
860.50049	9
861.51095	3
881.48054	4
882.48582	3
895.47711	3
896.48521	2
897.49353	2
905.51688	2
927.5027	4
928.48547	2
949.48494	2
