Mass spectrum: 3b,4a-Dihydroxy-5b-cholan-24-oic acid; LC-ESI-TOF; MS; Negative; Orifice voltage -120 V
Name: 3b,4a-Dihydroxy-5b-cholan-24-oic acid
Class: Natural Product; Bile acids
Formula: C24H40O4
Exact mass: 392.29266
SMILES: O=C(O)CC[C@@H](C)C1CCC2C3CC[C@@H]4[C@H](O)[C@@H](O)CC[C@]4(C)C3CC[C@]12C
InChI: InChI=1S/C24H40O4/c1-14(4-9-21(26)27)16-7-8-17-15-5-6-19-22(28)20(25)11-13-24(19,3)18(15)10-12-23(16,17)2/h14-20,22,25,28H,4-13H2,1-3H3,(H,26,27)/t14-,15?,16?,17?,18?,19-,20+,22+,23-,24-/m1/s1
Instrument: JMS-T100LP, JEOL
Instrument type: LC-ESI-TOF
Ms type: MS
Ion mode: NEGATIVE
Ionization: ESI
m/z	relative intensity
61.95472	40
78.89117	999
79.11435	5
79.46429	4
79.53162	1
79.61817	1
79.93202	6
80.88973	991
81.144	5
81.48879	7
96.94119	10
126.89319	10
163.89424	2
165.88874	2
180.82564	12
182.82129	36
184.0234	1
184.81789	7
311.16969	2
325.19334	3
339.21268	2
359.27203	2
373.28474	6
374.28316	1
389.28076	29
390.2945	7
391.28278	455
392.2871	147
393.31216	25
395.71078	1
421.30474	2
423.31721	33
424.3328	12
425.35092	1
449.25352	4
450.26365	1
451.25032	2
471.22344	13
472.23839	3
473.2179	14
474.22347	4
493.21338	11
494.21085	3
495.20219	10
496.21881	3
783.60336	5
784.59794	3
805.5803	19
806.59944	13
807.56235	4
863.54383	2
864.53461	1
864.63732	1
865.56516	3
907.48291	3
909.54528	3
