Mass spectrum: 3a,6b,7b,12a-(OH)4-5b-cholanic acid; LC-ESI-TOF; MS; NAGATIVE; in source decay -60 V
Name: 3a,6b,7b,12a-(OH)4-5b-cholanic acid
Name: 3a,6b,7b,12a-Tetrahydroxy-5b-cholan-24-oic acid
Class: Natural Product; Bile acids
Formula: C24H40O6
Exact mass: 424.28249
SMILES: C(C23[H])(O)C(C(C(C2([H])CC(C(C([H])(C(C)CCC(O)=O)4)(C3([H])CC4)C)O)(C)1)([H])CC(O)CC1)O
InChI: InChI=1S/C24H40O6/c1-12(4-7-19(27)28)14-5-6-15-20-16(11-18(26)24(14,15)3)23(2)9-8-13(25)10-17(23)21(29)22(20)30/h12-18,20-22,25-26,29-30H,4-11H2,1-3H3,(H,27,28)/t12-,13-,14-,15+,16+,17+,18+,20+,21+,22-,23-,24-/m1/s1
Instrument: JMS-T100LP, JEOL
Instrument type: LC-ESI-TOF
Ms type: MS
Ion mode: NEGATIVE
Ionization: ESI
m/z	relative intensity
61.97	108
68.98	98
89.01	23
253.21	23
255.23	30
423.25	999
424.26	300
425.28	52
459.24	104
460.25	31
461.23	33
491.26	20
847.53	519
848.53	285
849.55	95
850.56	32
869.54	37
870.54	22
883.54	37
884.55	23
885.52	22
