Mass spectrum: 1b,3a,12a-Trihydroxy-5b-cholan-24-oic acid; LC-ESI-TOF; MS; Negative; Orifice voltage -120 V
Name: 1b,3a,12a-Trihydroxy-5b-cholan-24-oic acid
Class: Natural Product; Bile acids
Formula: C24H40O5
Exact mass: 408.28757
SMILES: C[C@H](CCC(=O)O)[C@H]1CC[C@@H]2[C@@]1([C@H](C[C@H]3[C@H]2CC[C@H]4[C@@]3([C@@H](C[C@H](C4)O)O)C)O)C
InChI: InChI=1S/C24H40O5/c1-13(4-9-22(28)29)17-7-8-18-16-6-5-14-10-15(25)11-20(26)23(14,2)19(16)12-21(27)24(17,18)3/h13-21,25-27H,4-12H2,1-3H3,(H,28,29)/t13-,14-,15+,16+,17-,18+,19+,20-,21+,23+,24-/m1/s1
Instrument: JMS-T100LP, JEOL
Instrument type: LC-ESI-TOF
Ms type: MS
Ion mode: NEGATIVE
Ionization: ESI
m/z	relative intensity
57.01551	7
61.96656	40
71.03334	5
79.94184	7
80.89872	3
83.03355	8
96.94192	36
183.01004	13
233.14713	5
309.18214	3
311.17502	7
317.25506	4
325.25129	22
325.81486	3
326.25116	8
327.26323	13
339.20458	7
343.26533	101
344.27062	19
345.28834	15
361.27178	9
369.24619	3
371.27611	4
372.28746	1
375.29554	10
376.28949	3
387.2517	4
389.28394	12
405.25859	5
407.278	999
408.27769	306
409.29052	46
412.97105	3
421.28828	6
443.25649	25
444.2621	8
445.25642	6
446.28919	2
449.28226	1
465.24897	36
466.25376	9
467.24689	11
468.21558	3
470.28376	5
471.28117	1
492.27481	4
815.63602	39
816.57885	26
837.5784	53
838.5509	30
851.5886	8
852.55198	5
853.58478	4
854.63543	4
875.5749	4
895.49747	6
896.55595	5
897.50911	6
898.53344	4
