Mass spectrum: 1b,3a,7a-Trihydroxy-5b-cholan-24-oic acid; LC-ESI-TOF; MS; Negative; Orifice voltage -30 V
Name: 1b,3a,7a-Trihydroxy-5b-cholan-24-oic acid
Name: 1b,3a,7a-Trihydroxy-5b-cholanoic acid
Name: 1b-Hydroxychenodeoxycholate
Class: Natural Product; Bile acids
Formula: C24H40O5
Exact mass: 408.287994
SMILES: O=C(O)CC[C@H]([C@H]1CC[C@@H]2[C@]1(C)CC[C@H]4[C@H]2[C@H](O)C[C@@H]3C[C@H](O)C[C@@H](O)[C@@]34C)C
InChI: InChI=1S/C24H40O5/c1-13(4-7-21(28)29)16-5-6-17-22-18(8-9-23(16,17)2)24(3)14(11-19(22)26)10-15(25)12-20(24)27/h13-20,22,25-27H,4-12H2,1-3H3,(H,28,29)/t13-,14+,15+,16-,17+,18+,19-,20-,22+,23-,24+/m1/s1
Instrument: JMS-T100LP, JEOL
Instrument type: LC-ESI-TOF
Ms type: MS
Ion mode: NEGATIVE
Ionization: ESI
m/z	relative intensity
59.38193	46
59.9834	12
61.48645	11
61.95445	167
73.39399	8
74.9787	695
75.98287	8
85.0048	62
88.99738	332
92.23013	9
93.0132	18
98.98566	31
112.96739	227
115.06354	35
129.00689	21
153.18254	24
169.7671	5
170.38972	15
171.12911	11
173.00009	5
175.06055	8
177.10182	23
194.98354	27
206.17581	7
211.09619	7
212.0735	999
213.07026	108
214.06936	31
216.74216	34
219.27441	51
221.04084	11
227.19916	22
230.98132	10
239.04914	11
245.96897	12
256.21293	13
265.02268	18
268.32369	19
269.25125	22
270.07386	17
281.24751	17
283.28718	9
306.22015	17
310.45262	10
320.91272	20
324.56533	52
330.97764	16
332.05067	15
334.0188	17
344.9858	7
347.55194	23
354.05326	20
357.05362	21
363.10357	50
369.01185	15
381.78862	7
383.28706	11
391.3011	16
394.29118	14
402.83275	16
407.28057	554
408.28023	149
409.28111	21
412.65019	14
413.38077	24
415.92489	4
416.5862	14
423.37365	68
429.26303	25
430.26485	52
439.2967	211
440.32252	58
443.23343	18
446.24108	30
447.96073	26
449.29637	240
450.29627	88
453.2901	56
454.307	27
461.4825	79
466.28043	9
467.29905	80
470.2721	52
472.63939	11
474.62738	9
475.25671	9
477.04421	28
478.7577	8
481.32722	37
485.29177	13
490.30295	9
492.3277	22
495.32674	50
497.30926	37
503.30702	13
505.29218	55
506.29949	21
509.32742	36
517.35222	70
519.29771	8
523.48277	27
525.31817	24
527.26503	45
529.81219	21
531.27823	15
532.7599	12
539.3229	15
540.34986	15
541.70694	36
544.30245	24
545.29285	23
547.27635	26
548.31085	10
553.3039	23
561.37336	172
563.32991	23
567.60419	12
569.31842	46
573.30483	13
578.31094	24
579.3318	35
581.56095	10
583.08264	16
583.82287	15
585.70401	13
591.07902	23
593.37371	13
594.99701	18
604.23275	15
611.45394	16
611.90578	6
615.27795	4
619.04057	39
620.36093	31
621.35946	14
632.41118	17
634.96284	62
637.77263	104
645.37057	50
647.46827	12
653.96261	12
656.30066	16
659.06643	15
661.00441	21
662.38393	30
663.37018	38
666.97241	9
673.67066	26
676.53406	73
681.27888	29
685.3304	37
689.42488	27
694.9912	26
698.31993	16
699.67547	21
701.29761	10
703.23415	15
705.28292	18
707.24063	39
711.50998	17
714.37385	20
717.4171	24
721.08386	28
723.28523	65
727.4596	17
729.47966	13
730.21202	17
732.01265	49
742.12432	47
746.90012	31
750.7221	37
753.08142	17
758.36286	35
760.49035	29
763.76047	35
769.09549	103
773.00654	32
777.61757	31
779.09731	28
783.4295	19
785.36061	15
787.59177	37
790.15737	14
790.903	13
792.16309	15
794.13814	13
799.27812	43
804.38453	27
805.72222	16
807.24519	21
809.94321	25
815.58835	191
816.54796	107
825.92095	19
828.37857	35
830.83983	21
837.58023	48
843.64592	17
845.78693	22
850.36922	16
852.01981	12
853.4654	11
857.60238	66
858.58638	48
863.75733	17
867.48517	61
870.05597	14
871.39499	13
872.47391	10
877.25003	15
879.55559	59
883.49249	46
885.701	13
889.96805	71
893.66389	25
897.34973	15
899.59316	28
906.09189	15
908.43502	6
912.9345	33
915.73225	10
920.92922	18
922.07417	12
926.66109	28
929.08456	14
932.39275	16
937.87135	9
941.79188	37
948.58627	17
955.86056	32
975.49275	35
979.19602	18
980.52427	10
987.21607	25
988.45711	14
993.26188	22
995.64075	29
