Mass spectrum: 6a-Hydroxy-5b-cholan-24-oic acid; LC-ESI-TOF; MS; Negative; Orifice voltage -50 V
Name: 6a-Hydroxy-5b-cholan-24-oic acid
Class: Natural Product; Bile acid
Formula: C24H40O3
Exact mass: 376.29775
SMILES: C[C@H](CCC(=O)O)[C@H]1CC[C@@H]2[C@@]1(CC[C@H]3[C@H]2C[C@@H]([C@H]4[C@@]3(CCCC4)C)O)C
InChI: InChI=1S/C24H40O3/c1-15(7-10-22(26)27)17-8-9-18-16-14-21(25)20-6-4-5-12-23(20,2)19(16)11-13-24(17,18)3/h15-21,25H,4-14H2,1-3H3,(H,26,27)/t15-,16+,17-,18+,19+,20+,21+,23-,24-/m1/s1
Instrument: JMS-T100LP, JEOL
Instrument type: LC-ESI-TOF
Ms type: MS
Ion mode: NEGATIVE
Ionization: ESI
m/z	relative intensity
50.96331	8
58.95943	5
60.93353	10
61.93508	46
62.99314	2
68.94824	999
69.10721	3
69.15827	10
69.44479	10
69.95177	15
72.96176	16
78.87686	5
80.87569	4
84.98791	26
93.00019	4
110.9545	2
112.96037	89
113.96484	2
118.96991	2
122.99192	2
130.97407	2
154.96077	34
166.98502	8
186.99331	7
193.03777	2
205.15454	2
212.07025	22
213.07311	3
227.19625	2
247.0512	4
248.95788	20
255.2325	5
283.26458	2
375.2885	36
376.29556	11
391.28148	3
407.3189	2
429.32509	2
