Mass spectrum: 3a,7a,14a-(OH)3-5b-cholanic acid; LC-ESI-TOF; MS; NEGATIVE; In source decay -120 V
Name: 3a,7a,14a-(OH)3-5b-cholanic acid
Name: 3alpha,7alpha,14alpha-Trihydroxy-5beta-cholane-24-oic acid
Class: Natural Product; Bile acids
Formula: C24H40O5
Exact mass: 408.28757
SMILES: C(C3(C)4)([H])(CC(O)CC4)CC(C(C3([H])2)(C(C1(C)CC2)(O)CCC1([H])C(C)CCC(O)=O)[H])O
InChI: InChI=1S/C24H40O5/c1-14(4-5-20(27)28)17-8-11-24(29)21-18(7-10-23(17,24)3)22(2)9-6-16(25)12-15(22)13-19(21)26/h14-19,21,25-26,29H,4-13H2,1-3H3,(H,27,28)/t14-,15+,16-,17-,18+,19-,21+,22+,23-,24-/m1/s1
Instrument: JMS-T100LP, JEOL
Instrument type: LC-ESI-TOF
Ms type: MS
Ion mode: NEGATIVE
Ionization: ESI
m/z	relative intensity
63.07	51
69.97	28
79.79	208
80.78	22
81.72	84
95.69	21
97.58	24
113.46	48
153.36	74
183.14	43
248.99	72
325.21	20
345.30	20
389.28	234
390.28	69
391.29	24
407.29	999
408.30	291
409.30	59
411.27	33
421.31	27
429.28	166
430.28	48
837.54	36
838.55	21
859.53	23
