Mass spectrum: 7,12-Dioxo-5b-cholan-24-oic acid; LC-ESI-TOF; MS; NEGATIVE; in source decay -30 V
Name: 7,12-Dioxo-5b-cholan-24-oic acid
Class: Natural Product; Bile acids
Formula: C24H36O4
Exact mass: 388.26136
SMILES: C(C1(C)4)([H])(C(C)CCC(O)=O)CCC1(C(C3([H])CC4=O)([H])C(=O)CC(C3(C)2)([H])CCCC2)[H]
InChI: InChI=1S/C24H36O4/c1-14(7-10-21(27)28)16-8-9-17-22-18(13-20(26)24(16,17)3)23(2)11-5-4-6-15(23)12-19(22)25/h14-18,22H,4-13H2,1-3H3,(H,27,28)/t14-,15+,16-,17+,18+,22+,23+,24-/m1/s1
Instrument: JMS-T100LP, JEOL
Instrument type: LC-ESI-TOF
Ms type: MS
Ion mode: NEGATIVE
Ionization: ESI
m/z	relative intensity
59.00	44
61.97	90
68.98	413
74.99	109
89.01	171
96.95	56
112.97	999
212.07	54
248.96	32
387.25	184
388.25	58
433.27	41
775.53	70
776.54	39
