Mass spectrum: 3b,4b-Dihydroxy-5b-cholan-24-oic acid; LC-ESI-TOF; MS; NEGATIVE; Orifice voltage -30 V
Name: 3b,4b-Dihydroxy-5b-cholan-24-oic acid
Class: Natural Product; Bile acids
Formula: C24H40O4
Exact mass: 392.29266
SMILES: C[C@H](CCC(=O)O)[C@H]1CC[C@@H]2[C@@]1(CC[C@H]3[C@H]2CC[C@H]4[C@@]3(CC[C@@H]([C@@H]4O)O)C)C
InChI: InChI=1S/C24H40O4/c1-14(4-9-21(26)27)16-7-8-17-15-5-6-19-22(28)20(25)11-13-24(19,3)18(15)10-12-23(16,17)2/h14-20,22,25,28H,4-13H2,1-3H3,(H,26,27)/t14-,15+,16-,17+,18+,19-,20+,22-,23-,24-/m1/s1
Instrument: JMS-T100LP, JEOL
Instrument type: LC-ESI-TOF
Ms type: MS
Ion mode: NEGATIVE
Ionization: ESI
m/z	relative intensity
58.97921	151
59.38238	1
59.98315	3
61.95464	228
62.48625	2
63.96198	1
68.96631	48
73.00308	5
74.98043	4
78.89127	999
79.11557	4
79.46133	4
80.88978	998
81.14476	5
81.48923	9
81.59805	1
87.02062	14
89.00256	32
90.00849	1
92.9074	3
94.90839	2
98.93063	2
110.96172	3
112.97164	129
113.97817	2
115.06454	8
116.96209	1
119.9347	1
126.89443	11
128.02735	2
129.07317	2
136.8653	8
138.86388	10
140.86283	3
143.09973	3
157.11851	5
160.84218	1
160.91826	3
163.89153	3
165.89109	5
180.82699	10
182.82117	20
184.81911	8
212.07947	6
233.94345	1
255.24058	3
297.16825	4
311.17136	10
312.17768	1
325.19476	10
326.19532	2
339.21571	8
340.21779	2
391.28882	59
392.06557	1
392.11168	1
392.15585	1
392.28799	22
393.32045	3
423.31547	4
424.31366	1
427.2666	73
428.2727	21
429.27787	25
430.27909	6
430.68331	1
430.77043	1
437.29832	6
438.32741	3
449.25892	2
450.25191	1
451.31459	25
451.95357	1
452.31578	8
452.68038	1
452.79113	1
453.32691	1
453.41508	1
454.29921	23
455.30523	8
471.21469	158
472.22874	46
473.21219	160
474.22071	40
476.25779	3
477.28338	1
479.40724	3
480.36544	1
481.33282	8
482.34062	1
482.51248	1
485.26718	1
487.24109	3
493.22565	5
495.21629	5
505.30136	7
506.32122	3
507.37351	4
549.4312	1
587.45063	5
587.94123	4
588.43957	2
605.42036	2
647.55085	2
675.57741	2
703.49391	3
717.49893	2
717.70947	1
718.49555	1
731.53367	4
732.53497	2
783.59932	58
784.60818	37
819.57282	44
820.58835	26
821.56651	25
824.05583	1
824.22704	1
824.53579	2
841.53238	1
846.59062	6
847.57177	5
848.60519	2
863.52679	81
864.53943	47
865.51783	193
873.6107	1
897.59043	2
