Mass spectrum: 3a-Sulfate-7a,12a-(OH)2-5b-cholanic acid; LC-ESI-TOF; MS; NEGATIVE; In-source decay -90 V
Name: 3a-Sulfate-7a,12a-(OH)2-5b-cholanic acid
Name: 3alpha-Sulfooxy-7alpha,12alpha-dihydroxy-5beta-cholan-24-oic acid
Class: Natural Product; Bile acids
Formula: C24H40O8S
Exact mass: 488.24439
SMILES: C[C@H](CCC(=O)O)[C@H]1CC[C@@H]2[C@@]1([C@H](C[C@H]3[C@H]2[C@@H](C[C@H]4[C@@]3(CC[C@H](C4)OS(=O)(=O)O)C)O)O)C
InChI: InChI=1S/C24H40O8S/c1-13(4-7-21(27)28)16-5-6-17-22-18(12-20(26)24(16,17)3)23(2)9-8-15(32-33(29,30)31)10-14(23)11-19(22)25/h13-20,22,25-26H,4-12H2,1-3H3,(H,27,28)(H,29,30,31)/t13-,14+,15-,16-,17+,18+,19-,20+,22+,23+,24-/m1/s1
Instrument: JMS-T100LP, JEOL
Instrument type: LC-ESI-TOF
Ms type: MS
Ion mode: NEGATIVE
Ionization: ESI
m/z	relative intensity
59.00	38
61.98	234
63.95	23
68.99	143
79.95	22
89.02	23
96.95	222
112.98	58
127.00	28
141.01	39
227.21	29
241.22	24
253.22	28
255.24	70
469.23	159
470.23	43
471.25	24
487.23	999
488.24	293
489.23	92
491.21	52
509.21	438
510.21	114
511.23	38
997.46	44
