Mass spectrum: 6a-Hydroxy-5a-cholan-24-oic acid; LC-ESI-TOF; MS; NEGATIVE; In source decay -90 V
Name: 6a-Hydroxy-5a-cholan-24-oic acid
Class: Natural Product; Bile acids
Formula: C24H40O3
Exact mass: 376.29775
SMILES: C(C1(C)4)([H])(C(C)CCC(O)=O)CCC1(C(C3([H])CC4)([H])CC(C(C3(C)2)([H])CCCC2)O[H])[H]
InChI: InChI=1S/C24H40O3/c1-15(7-10-22(26)27)17-8-9-18-16-14-21(25)20-6-4-5-12-23(20,2)19(16)11-13-24(17,18)3/h15-21,25H,4-14H2,1-3H3,(H,26,27)/t15-,16+,17-,18+,19+,20-,21+,23-,24-/m1/s1
Instrument: JMS-T100LP, JEOL
Instrument type: LC-ESI-TOF
Ms type: MS
Ion mode: NEGATIVE
Ionization: ESI
m/z	relative intensity
62.01	94
69.01	24
253.21	43
255.23	65
281.24	22
283.26	29
311.17	42
325.19	38
339.20	29
375.28	999
376.28	306
377.30	30
407.31	47
751.60	57
752.61	33
773.56	46
774.58	42
