Mass spectrum: 2b,3a,7a-Trihydroxy-5b-cholan-24-oic acid; LC-ESI-TOF; MS; Negative; Orifice voltage -120 V
Name: 2b,3a,7a-Trihydroxy-5b-cholan-24-oic acid
Name: LMST04010059
Class: Natural Product; Bile acids
Formula: C24H40O5
Exact mass: 408.28757
SMILES: C[C@H](CCC(=O)O)[C@H]1CC[C@@H]2[C@@]1(CC[C@H]3[C@H]2[C@@H](C[C@H]4[C@@]3(C[C@@H]([C@H](C4)O)O)C)O)C
InChI: InChI=1S/C24H40O5/c1-13(4-7-21(28)29)15-5-6-16-22-17(8-9-23(15,16)2)24(3)12-20(27)18(25)10-14(24)11-19(22)26/h13-20,22,25-27H,4-12H2,1-3H3,(H,28,29)/t13-,14+,15-,16+,17+,18+,19-,20+,22+,23-,24+/m1/s1
Instrument: JMS-T100LP, JEOL
Instrument type: LC-ESI-TOF
Ms type: MS
Ion mode: NEGATIVE
Ionization: ESI
m/z	relative intensity
62.02095	107
63.9933	53
65.00058	21
69.02529	11
78.94322	11
79.98275	13
80.93899	9
85.04886	20
93.05101	9
96.97827	8
112.99883	19
129.02446	15
173.01271	11
325.19009	7
371.26666	30
372.26661	10
387.25337	23
389.27394	69
390.27456	19
391.27646	16
393.23737	31
405.27182	26
407.27933	999
408.279	292
409.27989	79
410.29394	10
411.26144	29
412.25401	10
421.28935	18
423.2876	18
425.26627	36
426.27559	10
427.24955	7
429.26187	84
430.26369	25
437.28447	11
439.3079	428
440.309	124
441.32362	25
443.28192	26
455.31131	11
483.28033	14
485.27756	10
537.28407	9
837.55623	132
838.54568	75
839.55278	25
859.52787	17
860.53019	9
881.52116	9
