Mass spectrum: 2b,3a,7a,12a-Tetrahydroxy-5b-cholan-24-oic acid; LC-ESI-TOF; MS; Negative; Orifice voltage -90 V
Name: 2b,3a,7a,12a-Tetrahydroxy-5b-cholan-24-oic acid
Class: Natural Product; Bile acids
Formula: C24H40O6
Exact mass: 424.28249
SMILES: C[C@H](CCC(=O)O)[C@H]1CC[C@@H]2[C@@]1([C@H](C[C@H]3[C@H]2[C@@H](C[C@H]4[C@@]3(C[C@@H]([C@H](C4)O)O)C)O)O)C
InChI: InChI=1S/C24H40O6/c1-12(4-7-21(29)30)14-5-6-15-22-16(10-20(28)24(14,15)3)23(2)11-19(27)17(25)8-13(23)9-18(22)26/h12-20,22,25-28H,4-11H2,1-3H3,(H,29,30)/t12-,13+,14-,15+,16+,17+,18-,19+,20+,22+,23+,24-/m1/s1
Instrument: JMS-T100LP, JEOL
Instrument type: LC-ESI-TOF
Ms type: MS
Ion mode: NEGATIVE
Ionization: ESI
m/z	relative intensity
60.91277	16
61.91669	127
63.89243	9
64.90141	8
68.92783	197
84.94157	15
92.98607	16
96.91773	13
112.95395	25
205.1599	8
212.07252	17
248.96523	12
255.23489	17
283.27071	10
423.28393	999
424.27877	278
425.28693	47
445.26603	75
446.26146	22
455.30809	22
499.26586	12
847.5581	88
848.57067	48
849.58384	15
869.55717	100
870.54801	55
871.57422	20
891.52133	13
892.54222	7
