Mass spectrum: 3,6-Dioxo-5a-cholan-24-oic acid; LC-ESI-TOF; MS; NEGATIVE; in source decay -60 V
Name: 3,6-Dioxo-5a-cholan-24-oic acid
Class: Natural Product; Bile acids
Formula: C24H36O4
Exact mass: 388.26135
SMILES: CC(CCC(=O)O)C1CCC2C1(CCC3C2CC(=O)C4C3(CCC(=O)C4)C)C
InChI: InChI=1S/C24H36O4/c1-14(4-7-22(27)28)17-5-6-18-16-13-21(26)20-12-15(25)8-10-24(20,3)19(16)9-11-23(17,18)2/h14,16-20H,4-13H2,1-3H3,(H,27,28)/t14-,16+,17-,18+,19+,20-,23-,24-/m1/s1
Instrument: JMS-T100LP, JEOL
Instrument type: LC-ESI-TOF
Ms type: MS
Ion mode: NEGATIVE
Ionization: ESI
m/z	relative intensity
61.97	181
68.98	999
89.01	392
93.03	50
96.95	87
112.98	243
128.03	33
311.18	33
325.20	33
387.25	467
388.26	132
419.28	150
420.29	38
423.23	152
424.25	53
425.23	63
775.53	381
776.53	213
777.53	80
807.54	178
808.56	106
839.58	33
