Mass spectrum: 3a,6a,7a-Trihydroxy-5b-cholan-24-oic acid; LC-ESI-TOF; MS; Orifice voltage -30 V; Negative; In-suorce decay
Name: 3a,6a,7a-Trihydroxy-5b-cholan-24-oic acid
Name: Hyocholic acid
Name: Gamma-Muricholic acid
Class: Natural Product; Bile acid
Formula: C24H40O5
Exact mass: 408.28757
SMILES: C[C@H](CCC(=O)O)[C@H]1CC[C@@H]2[C@@]1(CC[C@H]3[C@H]2[C@@H]([C@@H]([C@H]4[C@@]3(CC[C@H](C4)O)C)O)O)C
InChI: InChI=1S/C24H40O5/c1-13(4-7-19(26)27)15-5-6-16-20-17(9-11-23(15,16)2)24(3)10-8-14(25)12-18(24)21(28)22(20)29/h13-18,20-22,25,28-29H,4-12H2,1-3H3,(H,26,27)/t13-,14-,15-,16+,17+,18+,20+,21-,22+,23-,24-/m1/s1
Instrument: JMS-T100LP, JEOL
Instrument type: LC-ESI-TOF
Ms type: MS
Ion mode: NEGATIVE
Ionization: ESI
m/z	relative intensity
59.18065	344
62.14754	20
69.13757	339
75.13762	83
113.05349	999
113.70302	9
114.05391	21
153.06093	29
226.98055	52
248.96035	81
384.93578	25
407.28024	40
408.28633	11
439.30884	44
440.31478	14
467.30536	30
468.31062	9
520.91961	8
521.27908	19
815.57456	16
816.58192	9
837.55645	7
