Mass spectrum: 3a,6a-Dihydroxy-5b-cholan-24-oic acid; LC-ESI-TOF; MS; Negative; Orifice voltage -60 V
Name: 3a,6a-Dihydroxy-5b-cholan-24-oic acid
Class: Natural Product; Bile acid
Formula: C24H40O4
Exact mass: 392.29266
SMILES: C[C@H](CCC(=O)O)[C@H]1CC[C@@H]2[C@@]1(CC[C@H]3[C@H]2C[C@@H]([C@H]4[C@@]3(CC[C@H](C4)O)C)O)C
InChI: InChI=1S/C24H40O4/c1-14(4-7-22(27)28)17-5-6-18-16-13-21(26)20-12-15(25)8-10-24(20,3)19(16)9-11-23(17,18)2/h14-21,25-26H,4-13H2,1-3H3,(H,27,28)/t14-,15-,16+,17-,18+,19+,20+,21+,23-,24-/m1/s1
Instrument: JMS-T100LP, JEOL
Instrument type: LC-ESI-TOF
Ms type: MS
Ion mode: NEGATIVE
Ionization: ESI
m/z	relative intensity
50.96339	8
58.96003	8
60.9337	8
61.93506	66
62.99267	2
64.91916	2
68.9481	999
69.10711	3
69.1581	2
69.18226	1
69.4446	9
69.95205	14
72.9618	14
74.96412	2
78.87678	4
80.87548	4
84.98762	35
88.98764	2
92.99996	8
96.92853	2
98.97508	2
110.95265	2
112.96038	83
113.96501	2
117.03289	2
118.97007	2
122.99176	3
130.97364	2
137.01084	2
139.01902	2
154.961	23
157.1127	2
166.98473	6
180.98272	2
186.99274	5
193.03799	2
205.15438	3
212.07003	33
213.0728	5
214.0692	2
227.19628	3
247.05059	5
248.95798	13
255.23301	6
283.26585	2
330.99483	2
391.28272	27
392.2892	8
413.26852	3
423.31211	6
424.31351	2
