Mass spectrum: 3a,6b-Dihydroxy-5a-cholan-24-oic acid; LC-ESI-TOF; MS; Orifice voltage  -60 V; Negative; In-suorce decay
Name: 3a,6b-Dihydroxy-5a-cholan-24-oic acid
Class: Natural Product; Bile acid
Formula: C24H40O4
Exact mass: 392.29266
SMILES: C[C@H](CCC(=O)O)[C@H]1CC[C@@H]2[C@@]1(CC[C@H]3[C@H]2C[C@H]([C@@H]4[C@@]3(CC[C@H](C4)O)C)O)C
InChI: InChI=1S/C24H40O4/c1-14(4-7-22(27)28)17-5-6-18-16-13-21(26)20-12-15(25)8-10-24(20,3)19(16)9-11-23(17,18)2/h14-21,25-26H,4-13H2,1-3H3,(H,27,28)/t14-,15-,16+,17-,18+,19+,20-,21-,23-,24-/m1/s1
Instrument: JMS-T100LP, JEOL
Instrument type: LC-ESI-TOF
Ms type: MS
Ion mode: NEGATIVE
Ionization: ESI
m/z	relative intensity
68.99637	293
89.02721	224
212.10878	130
213.08271	10
255.28114	98
263.98833	21
269.28007	14
271.47146	4
281.29373	64
283.28333	19
293.20373	9
325.25009	38
392.33088	410
393.39555	85
418.91532	17
424.35934	22
427.3396	62
430.97425	6
434.78998	27
443.21684	31
446.79428	25
449.30678	45
451.33951	28
459.33987	36
460.36639	14
476.33397	39
477.27512	9
479.24124	19
481.39286	13
503.3796	93
505.91314	27
619.65937	39
623.48337	18
637.2952	15
646.01836	42
647.63461	20
650.68504	15
695.80393	25
740.44888	19
757.25587	37
771.34708	21
774.27607	19
783.61669	999
784.63933	504
792.33382	24
794.88489	13
805.65541	130
806.67596	79
815.85347	83
820.25876	26
824.74265	23
829.57167	44
839.91915	19
864.21821	37
895.91746	23
919.12319	53
980.9127	24
995.16334	14
