Mass spectrum: 3b,4a-Dihydroxy-5b-cholan-24-oic acid; LC-ESI-TOF; MS; Negative; Orifice voltage -60 V
Name: 3b,4a-Dihydroxy-5b-cholan-24-oic acid
Class: Natural Product; Bile acids
Formula: C24H40O4
Exact mass: 392.29266
SMILES: O=C(O)CC[C@@H](C)C1CCC2C3CC[C@@H]4[C@H](O)[C@@H](O)CC[C@]4(C)C3CC[C@]12C
InChI: InChI=1S/C24H40O4/c1-14(4-9-21(26)27)16-7-8-17-15-5-6-19-22(28)20(25)11-13-24(19,3)18(15)10-12-23(16,17)2/h14-20,22,25,28H,4-13H2,1-3H3,(H,26,27)/t14-,15?,16?,17?,18?,19-,20+,22+,23-,24-/m1/s1
Instrument: JMS-T100LP, JEOL
Instrument type: LC-ESI-TOF
Ms type: MS
Ion mode: NEGATIVE
Ionization: ESI
m/z	relative intensity
58.97947	28
61.95476	154
63.96558	2
68.96615	95
69.21293	3
78.89125	999
79.11303	4
79.4554	4
80.8898	989
81.14435	3
81.48739	7
87.02211	2
89.00411	5
110.96571	1
112.97386	9
126.8946	10
130.97918	1
136.86702	4
138.86342	2
157.12281	4
180.82725	19
182.82118	24
184.81904	9
212.07827	7
227.19961	2
230.99396	2
239.06918	1
255.2407	5
255.37657	1
265.15219	5
283.27106	2
297.16202	2
309.1827	1
311.16572	5
311.31661	1
311.36647	1
325.19401	6
330.99518	2
339.21294	5
380.99123	3
391.28488	156
392.28873	54
393.70389	1
393.87172	1
423.31908	15
424.32704	5
425.33097	1
427.27219	20
428.27537	6
429.28494	7
449.25785	6
450.26753	3
451.26838	4
471.22628	12
472.23026	4
473.2245	12
474.22729	4
476.28263	3
493.21596	15
494.21704	2
495.20245	11
496.2243	3
553.1817	2
597.10794	2
783.59185	179
784.59686	107
785.59629	43
788.45354	2
788.81374	1
805.57598	6
806.58161	3
863.52695	2
865.52104	3
909.5051	2
