Mass spectrum: 3a,6b,12a-Trihydroxy-5b-cholan-24-oic acid; LC-ESI-TOF; MS; Orifice voltage -30 V; Negative; In-suorce decay
Name: 3a,6b,12a-Trihydroxy-5b-cholan-24-oic acid
Class: Natural Product; Bile acid
Formula: C24H40O5
Exact mass: 408.28757
SMILES: C[C@H](CCC(=O)O)[C@H]1CC[C@@H]2[C@@]1([C@H](C[C@H]3[C@H]2C[C@H]([C@H]4[C@@]3(CC[C@H](C4)O)C)O)O)C
InChI: InChI=1S/C24H40O5/c1-13(4-7-22(28)29)16-5-6-17-15-11-20(26)19-10-14(25)8-9-23(19,2)18(15)12-21(27)24(16,17)3/h13-21,25-27H,4-12H2,1-3H3,(H,28,29)/t13-,14-,15+,16-,17+,18+,19+,20-,21+,23-,24-/m1/s1
Instrument: JMS-T100LP, JEOL
Instrument type: LC-ESI-TOF
Ms type: MS
Ion mode: NEGATIVE
Ionization: ESI
m/z	relative intensity
59.50354	34
62.45498	17
69.40992	384
75.38229	130
89.31563	14
113.17484	999
113.84187	12
114.17128	26
153.11208	41
167.05285	16
226.98747	36
248.96403	95
384.94737	19
407.28947	63
408.29522	18
