Mass spectrum: 3b,4b,7a-Trihydroxy-5b-cholan-24-oic acid; LC-ESI-TOF; MS; Negative; -60 V
Name: 3b,4b,7a-Trihydroxy-5b-cholan-24-oic acid
Class: Natural Product; Bile acid
Formula: C24H40O5
Exact mass: 408.28757
SMILES: C[C@H](CCC(=O)O)[C@H]1CC[C@@H]2[C@@]1(CC[C@H]3[C@H]2[C@@H](C[C@H]4[C@@]3(CC[C@@H]([C@@H]4O)O)C)O)C
InChI: InChI=1S/C24H40O5/c1-13(4-7-20(27)28)14-5-6-15-21-16(8-10-23(14,15)2)24(3)11-9-18(25)22(29)17(24)12-19(21)26/h13-19,21-22,25-26,29H,4-12H2,1-3H3,(H,27,28)/t13-,14-,15+,16+,17-,18+,19-,21+,22-,23-,24-/m1/s1
Instrument: JMS-T100LP, JEOL
Instrument type: LC-ESI-TOF
Ms type: MS
Ion mode: NEGATIVE
Ionization: ESI
m/z	relative intensity
51.25142	9
59.21985	3
61.18823	12
62.18597	43
69.17468	999
69.3841	7
69.73798	9
70.17623	14
73.17699	9
79.11482	25
85.13463	1
85.16884	2
89.1601	4
97.08204	5
99.12358	4
111.08009	2
113.0807	111
114.08493	3
125.08251	12
153.08584	12
155.02557	32
157.17461	2
167.03742	5
181.01592	2
187.03436	5
199.19824	2
212.09577	19
213.09734	2
227.21395	6
241.23094	3
248.96966	18
253.22437	3
255.24076	13
256.2449	2
265.157	3
268.96385	2
281.2519	3
283.26838	5
297.1546	2
311.16176	5
325.18087	5
339.19668	3
362.932	3
407.25048	478
408.25475	135
409.25693	22
410.27005	3
429.23646	8
430.23886	2
439.26991	154
440.2764	44
441.28651	8
443.22124	6
445.22509	2
453.25471	17
454.26202	6
461.25086	4
465.20162	5
467.21209	2
475.22675	32
476.2354	11
477.24926	2
497.21691	4
521.23348	3
543.20475	9
544.20948	3
561.27305	3
583.253	2
611.36523	3
611.85999	2
657.16615	4
815.47494	126
816.47643	69
817.49385	22
818.50411	6
837.45845	69
838.45896	37
839.47398	13
840.47491	4
859.45527	3
905.46447	2
