Mass spectrum: 3a,4b-Dihydroxy-5b-cholan-24-oic acid; LC-ESI-TOF; MS; Negative; Orifice voltage -150 V
Name: 3a,4b-Dihydroxy-5b-cholan-24-oic acid
Class: Natural Product; Bile acids
Formula: C24H40O4
Exact mass: 392.29266
SMILES: C[C@H](CCC(=O)O)[C@H]1CC[C@@H]2[C@@]1(CC[C@H]3[C@H]2CC[C@H]4[C@@]3(CC[C@H]([C@@H]4O)O)C)C
InChI: InChI=1S/C24H40O4/c1-14(4-9-21(26)27)16-7-8-17-15-5-6-19-22(28)20(25)11-13-24(19,3)18(15)10-12-23(16,17)2/h14-20,22,25,28H,4-13H2,1-3H3,(H,26,27)/t14-,15+,16-,17+,18+,19-,20-,22-,23-,24-/m1/s1
Instrument: JMS-T100LP, JEOL
Instrument type: LC-ESI-TOF
Ms type: MS
Ion mode: NEGATIVE
Ionization: ESI
m/z	relative intensity
61.95509	6
78.89081	999
79.11281	3
79.46523	5
79.93112	12
80.88923	993
81.14303	4
81.48802	4
96.94124	5
119.03847	11
126.89367	18
180.82297	8
183.00928	48
184.02042	3
184.81756	6
197.0369	2
325.19327	1
391.28427	65
392.17676	1
392.28548	24
393.31045	4
423.31513	6
424.32418	2
471.22544	16
472.22912	6
473.21457	14
474.21973	4
493.23513	2
495.20609	2
863.5311	5
864.53869	2
864.67266	2
865.51322	6
