Mass spectrum: 7-Oxo-5b-cholanic acid; LC-ESI-TOF; MS; NEGATIVE; in source decay -30 V
Name: 7-Oxo-5b-cholanic acid
Name: 7-Oxo-5b-cholan-24-oic Acid
Class: Natural Product; Bile acids
Formula: C24H38O3
Exact mass: 374.28210
SMILES: C(C1(C)4)([H])(C(C)CCC(O)=O)CCC1(C(C3([H])CC4)([H])C(=O)CC(C3(C)2)([H])CCCC2)[H]
InChI: InChI=1S/C24H38O3/c1-15(7-10-21(26)27)17-8-9-18-22-19(11-13-24(17,18)3)23(2)12-5-4-6-16(23)14-20(22)25/h15-19,22H,4-14H2,1-3H3,(H,26,27)/t15-,16+,17-,18+,19+,22+,23+,24-/m1/s1
Instrument: JMS-T100LP, JEOL
Instrument type: LC-ESI-TOF
Ms type: MS
Ion mode: NEGATIVE
Ionization: ESI
m/z	relative intensity
59.01	21
61.98	64
68.99	335
75.00	48
89.02	134
112.98	999
113.99	26
212.07	54
226.98	32
248.96	34
373.28	69
419.28	25
