Mass spectrum: 3a,7b,14a-(OH)3-5b-cholanic acid; LC-ESI-TOF; MS; NEGATIVE; In source decay -120 V
Name: 3a,7b,14a-(OH)3-5b-cholanic acid
Name: 3alpha,7beta,14alpha-Trihydroxy-5beta-cholan-24-oic Acid
Class: Natural Product; Bile acids
Formula: C24H40O5
Exact mass: 408.28757
SMILES: C(C3(C)4)([H])(CC(O)CC4)CC(C(C3([H])2)(C(C1(C)CC2)(O)CCC1([H])C(C)CCC(O)=O)[H])O
InChI: InChI=1S/C24H40O5/c1-14(4-5-20(27)28)17-8-11-24(29)21-18(7-10-23(17,24)3)22(2)9-6-16(25)12-15(22)13-19(21)26/h14-19,21,25-26,29H,4-13H2,1-3H3,(H,27,28)/t14-,15+,16-,17-,18+,19+,21+,22+,23-,24-/m1/s1
Instrument: JMS-T100LP, JEOL
Instrument type: LC-ESI-TOF
Ms type: MS
Ion mode: NEGATIVE
Ionization: ESI
m/z	relative intensity
64.03	37
79.79	438
80.78	52
81.72	170
97.58	60
99.61	29
153.36	55
167.17	26
183.13	78
248.99	160
325.21	38
343.27	38
389.28	179
390.29	53
391.29	47
403.26	21
406.29	36
407.30	999
408.30	287
409.30	56
421.30	22
427.25	97
428.27	27
429.28	100
430.28	27
441.25	33
449.30	36
463.27	24
465.24	36
475.28	25
837.56	123
838.55	70
839.56	36
871.53	32
