Mass spectrum: 2b,3a,7a-Trihydroxy-5b-cholan-24-oic acid; LC-ESI-TOF; MS; Negative; Orifice voltage -60 V
Name: 2b,3a,7a-Trihydroxy-5b-cholan-24-oic acid
Name: LMST04010059
Class: Natural Product; Bile acids
Formula: C24H40O5
Exact mass: 408.28757
SMILES: C[C@H](CCC(=O)O)[C@H]1CC[C@@H]2[C@@]1(CC[C@H]3[C@H]2[C@@H](C[C@H]4[C@@]3(C[C@@H]([C@H](C4)O)O)C)O)C
InChI: InChI=1S/C24H40O5/c1-13(4-7-21(28)29)15-5-6-16-22-17(8-9-23(15,16)2)24(3)12-20(27)18(25)10-14(24)11-19(22)26/h13-20,22,25-27H,4-12H2,1-3H3,(H,28,29)/t13-,14+,15-,16+,17+,18+,19-,20+,22+,23-,24+/m1/s1
Instrument: JMS-T100LP, JEOL
Instrument type: LC-ESI-TOF
Ms type: MS
Ion mode: NEGATIVE
Ionization: ESI
m/z	relative intensity
59.04802	33
62.02095	224
65.00058	9
69.02529	999
69.57926	7
85.01084	106
93.05101	39
96.97827	5
112.99883	94
119.00105	13
123.01922	17
154.97662	13
205.16206	18
212.07342	229
213.07871	32
214.07776	12
255.23081	35
283.26512	19
336.32587	13
405.27182	13
407.27933	744
408.279	211
409.29181	35
423.2876	14
429.26187	91
430.26369	27
439.3079	415
440.309	120
441.31124	20
455.31131	12
815.56581	65
816.55904	36
817.58657	12
837.53918	65
838.54568	35
839.56985	12
