Mass spectrum: 3a,6a,12a-Trihydroxy-5b-cholan-24-oic acid; LC-ESI-TOF; MS; Orifice voltage -90 V; Negative; In-suorce decay
Name: 3a,6a,12a-Trihydroxy-5b-cholan-24-oic acid
Class: Natural Product; Bile acid
Formula: C24H40O5
Exact mass: 408.28757
SMILES: C[C@H](CCC(=O)O)[C@H]1CC[C@@H]2[C@@]1([C@H](C[C@H]3[C@H]2C[C@@H]([C@H]4[C@@]3(CC[C@H](C4)O)C)O)O)C
InChI: InChI=1S/C24H40O5/c1-13(4-7-22(28)29)16-5-6-17-15-11-20(26)19-10-14(25)8-9-23(19,2)18(15)12-21(27)24(16,17)3/h13-21,25-27H,4-12H2,1-3H3,(H,28,29)/t13-,14-,15+,16-,17+,18+,19+,20+,21+,23-,24-/m1/s1
Instrument: JMS-T100LP, JEOL
Instrument type: LC-ESI-TOF
Ms type: MS
Ion mode: NEGATIVE
Ionization: ESI
m/z	relative intensity
57.18492	18
59.21387	139
60.24336	180
62.27277	11
63.30723	9
67.43689	999
68.0227	8
68.46774	15
71.54965	28
77.6405	551
78.66318	12
79.64303	46
83.84268	14
92.00304	12
96.00634	31
98.08478	7
112.28094	172
124.44949	25
126.37554	71
152.73974	26
154.69431	83
166.79146	38
172.83747	7
186.89397	26
212.0425	12
248.97614	277
249.9857	20
255.25693	28
283.29894	14
339.23709	6
345.3117	22
384.96461	25
389.30277	12
407.29922	802
408.30439	233
409.31245	38
410.3199	5
429.28697	142
430.28914	37
431.30396	8
438.27933	8
438.97057	9
439.31793	6
449.31972	26
450.32745	10
451.28533	16
461.31636	18
462.32335	7
465.2704	15
467.278	6
471.29258	6
483.30538	18
487.26976	23
489.31174	15
505.30003	13
509.26043	13
511.29935	9
520.95351	16
543.29578	24
544.30034	7
565.2991	15
583.35666	15
605.33006	9
797.53058	43
798.5295	25
799.54036	9
815.54107	9
819.50339	6
837.50763	33
838.50522	20
839.50507	9
859.48189	12
881.45379	8
