Mass spectrum: 12-Oxo-5b-cholan-24-ic acid; LC-ESI-TOF; MS; NEGATIVE; in source decay -60 V
Name: 12-Oxo-5b-cholan-24-ic acid
Class: Natural Product; Bile acids
Formula: C24H38O3
Exact mass: 374.28210
SMILES: CC(CCC(=O)O)C1CCC2C1(C(=O)CC3C2CCC4C3(CCCC4)C)C
InChI: InChI=1S/C24H38O3/c1-15(7-12-22(26)27)18-10-11-19-17-9-8-16-6-4-5-13-23(16,2)20(17)14-21(25)24(18,19)3/h15-20H,4-14H2,1-3H3,(H,26,27)/t15-,16+,17+,18-,19+,20+,23+,24-/m1/s1
Instrument: JMS-T100LP, JEOL
Instrument type: LC-ESI-TOF
Ms type: MS
Ion mode: NEGATIVE
Ionization: ESI
m/z	relative intensity
61.98	687
68.99	999
89.02	153
93.04	35
112.98	143
212.08	31
255.24	27
265.15	45
311.17	49
325.19	49
339.21	39
373.28	178
374.28	35
375.29	346
376.30	102
411.27	48
749.57	24
751.61	47
752.62	42
