Mass spectrum: 2b,3a,12a-Trihydroxy-5b-cholan-24-oic acid; LC-ESI-TOF; MS; Negative; Orifice voltage -120 V
Name: 2b,3a,12a-Trihydroxy-5b-cholan-24-oic acid
Class: Natural Product; Bile acids
Formula: C24H40O5
Exact mass: 408.28757
SMILES: C[C@H](CCC(=O)O)[C@H]1CC[C@@H]2[C@@]1([C@H](C[C@H]3[C@H]2CC[C@H]4[C@@]3(C[C@@H]([C@H](C4)O)O)C)O)C
InChI: InChI=1S/C24H40O5/c1-13(4-9-22(28)29)16-7-8-17-15-6-5-14-10-19(25)20(26)12-23(14,2)18(15)11-21(27)24(16,17)3/h13-21,25-27H,4-12H2,1-3H3,(H,28,29)/t13-,14-,15+,16-,17+,18+,19+,20+,21+,23+,24-/m1/s1
Instrument: JMS-T100LP, JEOL
Instrument type: LC-ESI-TOF
Ms type: MS
Ion mode: NEGATIVE
Ionization: ESI
m/z	relative intensity
57.07335	13
62.02014	53
63.99718	29
65.00447	11
69.02439	23
71.07966	14
73.0594	15
78.98405	30
79.9817	35
80.93793	16
85.04775	11
96.977	8
98.97109	16
112.99736	25
248.9584	43
298.94595	14
311.22576	6
313.25644	29
314.25859	8
315.25187	13
325.26026	13
327.26151	13
329.24752	21
331.26098	147
332.27002	42
333.26983	12
343.26317	39
344.26844	10
345.27517	29
359.26684	18
361.26913	79
362.27797	23
363.28821	101
364.29987	29
377.31601	14
387.25993	10
389.26888	14
393.30238	11
395.30349	16
396.32354	5
397.2392	13
405.26655	15
407.27404	999
408.2856	289
409.28649	60
410.2886	7
425.23643	11
427.244	38
428.25565	9
429.25629	39
430.27032	10
461.28546	59
462.2986	19
837.54536	116
838.5348	64
839.55896	22
859.53399	22
860.53631	11
881.50972	12
