Mass spectrum: 3a,4b,12a-Trihydroxy-5b-cholan-24-oic acid; LC-ESI-TOF; MS; Negative; Orifice voltage -60 V
Name: 3a,4b,12a-Trihydroxy-5b-cholan-24-oic acid
Class: Natural Product; Bile acid
Formula: C24H40O5
Exact mass: 408.28757
SMILES: C[C@H](CCC(=O)O)[C@H]1CC[C@@H]2[C@@]1([C@H](C[C@H]3[C@H]2CC[C@H]4[C@@]3(CC[C@H]([C@@H]4O)O)C)O)C
InChI: InChI=1S/C24H40O5/c1-13(4-9-21(27)28)15-7-8-16-14-5-6-17-22(29)19(25)10-11-23(17,2)18(14)12-20(26)24(15,16)3/h13-20,22,25-26,29H,4-12H2,1-3H3,(H,27,28)/t13-,14+,15-,16+,17-,18+,19-,20+,22-,23+,24-/m1/s1
Instrument: JMS-T100LP, JEOL
Instrument type: LC-ESI-TOF
Ms type: MS
Ion mode: NEGATIVE
Ionization: ESI
m/z	relative intensity
51.25475	3
59.22322	79
60.22456	1
61.19244	3
62.18984	52
65.1648	2
69.17868	401
69.33671	1
70.1808	6
73.2026	7
79.11955	19
81.07322	7
85.1767	3
87.18696	3
89.16522	11
89.26552	2
93.16956	2
97.08952	2
99.13089	2
111.08455	2
113.08846	49
121.13679	3
125.09068	6
143.17867	1
148.18135	1
151.1212	5
153.0961	6
155.037	7
157.18575	4
171.19359	2
199.21046	8
205.19558	2
212.10897	31
213.11254	7
214.10672	1
221.19132	2
225.21618	4
227.22896	26
228.23528	5
233.18568	4
239.22935	4
241.24412	15
242.24416	3
248.98976	2
250.17153	5
251.20656	2
253.23926	30
254.249	7
255.25503	65
256.26	11
257.26694	2
265.17345	6
267.25673	5
269.27094	7
270.27734	1
275.1943	2
277.21246	2
279.25328	6
280.27883	2
281.26582	20
282.27244	4
283.28363	28
284.28821	6
291.21607	2
293.20186	2
297.17633	4
307.2668	3
309.22604	4
311.18016	9
312.18508	2
323.23189	2
325.20131	8
326.21107	2
339.21842	6
353.21922	3
367.32526	5
389.27804	2
391.28803	5
392.28916	2
395.25829	1
407.27755	999
408.28089	281
408.79303	1
409.28381	53
410.29813	6
429.2632	13
430.26943	3
439.30438	2
443.25092	7
444.26672	2
445.24904	3
461.27975	21
462.29136	7
465.23562	6
467.24361	2
475.25889	18
476.26708	6
483.26821	1
489.27621	10
490.28753	3
497.25925	4
505.27446	4
511.25614	2
519.28023	2
527.27959	2
543.24554	5
544.24668	2
663.48671	2
685.48189	2
793.43891	4
794.43989	2
797.53592	2
799.54159	2
815.52832	176
816.52982	96
817.54509	30
818.55371	8
821.47942	3
837.51437	60
838.51443	33
839.53305	12
840.53004	4
859.51441	4
860.49822	2
