Mass spectrum: 3a,6b,7b-Trihydroxy-5b-cholan-24-oic acid; LC-ESI-TOF; MS; Orifice voltage -60 V; Negative; In-suorce decay
Name: 3a,6b,7b-Trihydroxy-5b-cholan-24-oic acid
Name: beta-Muricholic acid
Class: Natural Product; Bile acid
Formula: C24H40O5
Exact mass: 408.28757
SMILES: C[C@H](CCC(=O)O)[C@H]1CC[C@@H]2[C@@]1(CC[C@H]3[C@H]2[C@H]([C@H]([C@H]4[C@@]3(CC[C@H](C4)O)C)O)O)C
InChI: InChI=1S/C24H40O5/c1-13(4-7-19(26)27)15-5-6-16-20-17(9-11-23(15,16)2)24(3)10-8-14(25)12-18(24)21(28)22(20)29/h13-18,20-22,25,28-29H,4-12H2,1-3H3,(H,26,27)/t13-,14-,15-,16+,17+,18+,20+,21+,22-,23-,24-/m1/s1
Instrument: JMS-T100LP, JEOL
Instrument type: LC-ESI-TOF
Ms type: MS
Ion mode: NEGATIVE
Ionization: ESI
m/z	relative intensity
59.02911	21
61.00154	16
62.00199	41
69.00731	999
69.54726	11
73.01715	16
78.96679	43
112.98637	106
125.00181	23
153.03127	19
154.97154	55
187.00074	12
248.95885	36
407.27878	302
408.28268	86
409.28962	15
439.30703	54
440.31346	16
461.29195	14
815.57008	34
816.58004	18
837.55554	25
838.56158	13
