Mass spectrum: 3b,6b-(OH)2-5a-cholanic acid; LC-ESI-TOF; MS; NEGATIVE; In source decay -150 V
Name: 3b,6b-(OH)2-5a-cholanic acid
Name: 3b,6b-Dihydroxy-5a-cholan-24-oic Acid
Class: Natural Product; Bile acids
Formula: C24H40O4
Exact mass: 392.29266
SMILES: C(C1(C)4)([H])(C(C)CCC(O)=O)CCC1(C(C3([H])CC4)([H])CC(C(C3(C)2)([H])CC(O)CC2)O)[H]
InChI: InChI=1S/C24H40O4/c1-14(4-7-22(27)28)17-5-6-18-16-13-21(26)20-12-15(25)8-10-24(20,3)19(16)9-11-23(17,18)2/h14-21,25-26H,4-13H2,1-3H3,(H,27,28)/t14-,15+,16+,17-,18+,19+,20-,21-,23-,24-/m1/s1
Instrument: JMS-T100LP, JEOL
Instrument type: LC-ESI-TOF
Ms type: MS
Ion mode: NEGATIVE
Ionization: ESI
m/z	relative intensity
61.98	487
62.20	59
79.95	198
80.91	78
119.05	55
119.94	64
183.01	136
391.28	999
392.29	294
427.26	244
429.28	94
439.68	98
449.24	100
454.30	114
476.28	54
525.92	66
542.45	57
572.16	55
575.91	76
592.85	54
648.43	55
718.47	72
740.07	63
748.87	96
783.59	148
784.60	95
803.68	53
805.57	163
806.57	101
817.77	52
832.72	108
841.77	51
845.99	51
898.14	83
906.21	56
981.49	64
987.55	57
