Mass spectrum: 3,12-Dioxo-5b-cholan-24-oic acid; LC-ESI-TOF; MS; NEGATIVE; in source decay -150 V
Name: 3,12-Dioxo-5b-cholan-24-oic acid
Class: Natural Product; Bile acids
Formula: C24H36O4
Exact mass: 388.26136
SMILES: C(C1(C)4)([H])(C(C)CCC(O)=O)CCC1(C(C3([H])CC4=O)([H])CCC(C3(C)2)([H])CC(=O)CC2)[H]
InChI: InChI=1S/C24H36O4/c1-14(4-9-22(27)28)18-7-8-19-17-6-5-15-12-16(25)10-11-23(15,2)20(17)13-21(26)24(18,19)3/h14-15,17-20H,4-13H2,1-3H3,(H,27,28)/t14-,15-,17+,18-,19+,20+,23+,24-/m1/s1
Instrument: JMS-T100LP, JEOL
Instrument type: LC-ESI-TOF
Ms type: MS
Ion mode: NEGATIVE
Ionization: ESI
m/z	relative intensity
61.97	86
69.02	111
79.94	160
96.95	73
119.04	129
183.01	315
277.38	51
325.24	51
343.26	58
380.22	63
387.25	999
388.25	241
413.34	65
423.24	52
460.14	93
489.40	60
499.50	58
514.28	53
522.75	57
553.21	56
601.12	55
667.47	60
687.70	91
713.49	114
749.86	113
764.44	101
775.53	308
776.54	171
797.49	128
798.53	78
812.50	50
870.64	61
890.30	71
901.77	177
904.95	63
947.28	64
949.62	52
957.80	58
