Mass spectrum: 6a-Hydroxy-5b-cholan-24-oic acid; LC-ESI-TOF; MS; Negative; Orifice voltage -30 V
Name: 6a-Hydroxy-5b-cholan-24-oic acid
Class: Natural Product; Bile acid
Formula: C24H40O3
Exact mass: 376.29775
SMILES: C[C@H](CCC(=O)O)[C@H]1CC[C@@H]2[C@@]1(CC[C@H]3[C@H]2C[C@@H]([C@H]4[C@@]3(CCCC4)C)O)C
InChI: InChI=1S/C24H40O3/c1-15(7-10-22(26)27)17-8-9-18-16-14-21(25)20-6-4-5-12-23(20,2)19(16)11-13-24(17,18)3/h15-21,25H,4-14H2,1-3H3,(H,26,27)/t15-,16+,17-,18+,19+,20+,21+,23-,24-/m1/s1
Instrument: JMS-T100LP, JEOL
Instrument type: LC-ESI-TOF
Ms type: MS
Ion mode: NEGATIVE
Ionization: ESI
m/z	relative intensity
58.95942	11
61.9353	29
62.99263	2
68.94732	285
69.95199	4
72.96328	3
74.96432	272
75.1306	1
75.96883	8
76.97079	2
78.87691	2
80.87559	2
84.98796	19
88.98799	3
93.00059	2
98.975	2
99.97073	2
112.96179	999
113.16587	4
113.23101	9
113.60911	9
113.96415	20
114.96712	5
118.97029	1
121.00992	1
122.99108	2
128.99749	8
137.01096	1
144.99143	2
154.96193	2
162.97397	2
166.984	16
172.99864	4
181.96119	2
183.01799	2
194.98435	2
199.01554	2
210.98142	5
212.0702	15
213.07284	2
226.99045	10
227.19177	2
244.98417	2
248.95676	47
249.96403	2
255.23258	3
264.99375	2
271.00358	2
281.0197	2
302.04691	3
302.97289	2
325.01405	2
375.28953	17
376.29506	5
384.93785	4
