Mass spectrum: 1b,3a-Dihydroxy-5b-cholan-24-oic acid; LC-ESI-TOF; MS; Negative; Orifice voltage -90 V
Name: 1b,3a-Dihydroxy-5b-cholan-24-oic acid
Name: (1b,3a,5b)-1,3-Dihydroxycholan-24-oic acid
Name: LMST04010020
Class: Natural Product; Bile acids
Formula: C24H40O4
Exact mass: 392.29266
SMILES: O=C(O)CC[C@H]([C@H]1CC[C@@H]2[C@]1(C)CC[C@H]4[C@H]2CC[C@@H]3C[C@H](O)C[C@@H](O)[C@@]34C)C
InChI: InChI=1S/C24H40O4/c1-14(4-9-22(27)28)18-7-8-19-17-6-5-15-12-16(25)13-21(26)24(15,3)20(17)10-11-23(18,19)2/h14-21,25-26H,4-13H2,1-3H3,(H,27,28)/t14-,15-,16+,17+,18-,19+,20+,21-,23-,24+/m1/s1
Instrument: JMS-T100LP, JEOL
Instrument type: LC-ESI-TOF
Ms type: MS
Ion mode: NEGATIVE
Ionization: ESI
m/z	relative intensity
61.97193	139
78.90607	8
80.90309	3
96.94546	6
227.19915	6
241.21363	7
253.21267	13
255.23297	26
265.1477	6
269.25157	5
281.24795	13
283.26781	10
311.1599	4
369.27354	4
373.27067	6
391.27916	999
392.28234	302
393.2985	53
394.31597	4
395.38162	3
407.282	5
421.26781	10
423.30237	122
424.30935	44
425.32969	10
427.26438	5
435.30525	8
449.23543	13
450.24777	6
451.24873	5
476.27378	6
783.58351	155
784.57364	87
785.59743	45
805.57772	29
806.58165	17
807.56945	5
