Mass spectrum: 3a,6a,12a-Trihydroxy-5b-cholan-24-oic acid; LC-ESI-TOF; MS; Orifice voltage -120 V; Negative; In-suorce decay
Name: 3a,6a,12a-Trihydroxy-5b-cholan-24-oic acid
Class: Natural Product; Bile acid
Formula: C24H40O5
Exact mass: 408.28757
SMILES: C[C@H](CCC(=O)O)[C@H]1CC[C@@H]2[C@@]1([C@H](C[C@H]3[C@H]2C[C@@H]([C@H]4[C@@]3(CC[C@H](C4)O)C)O)O)C
InChI: InChI=1S/C24H40O5/c1-13(4-7-22(28)29)16-5-6-17-15-11-20(26)19-10-14(25)8-9-23(19,2)18(15)12-21(27)24(16,17)3/h13-21,25-27H,4-12H2,1-3H3,(H,28,29)/t13-,14-,15+,16-,17+,18+,19+,20+,21+,23-,24-/m1/s1
Instrument: JMS-T100LP, JEOL
Instrument type: LC-ESI-TOF
Ms type: MS
Ion mode: NEGATIVE
Ionization: ESI
m/z	relative intensity
58.1654	7
59.21382	42
59.785	3
60.24345	138
61.24554	74
62.27224	25
63.30773	7
67.43749	176
71.54867	16
77.6403	999
78.19871	4
78.66366	38
79.64292	80
83.84051	18
87.91994	14
94.97734	10
96.00365	66
98.08811	11
110.25503	3
112.28101	161
115.337	7
124.45051	8
126.37485	140
126.84457	1
128.50711	11
142.66007	10
152.73984	34
154.69467	81
162.87142	4
166.79131	78
170.76622	8
172.83671	10
180.84603	6
182.88818	14
186.89628	31
193.07373	10
194.92498	5
197.89364	10
198.9517	14
205.10941	7
207.06761	6
210.94985	17
218.09244	2
219.15184	6
221.17672	8
223.19317	6
224.98456	8
227.01534	12
247.19107	6
248.97538	641
249.98548	35
251.21493	17
255.25979	12
262.90529	7
269.25232	3
271.18502	5
283.28898	5
303.00559	9
309.2604	7
310.28972	4
311.20721	8
312.27935	5
315.27812	5
317.32325	4
325.27606	24
327.29652	16
328.29763	4
329.27291	6
331.30686	13
343.29424	34
344.30197	6
345.30825	222
346.31423	58
346.98837	4
347.31842	8
349.34499	5
353.28398	15
359.3157	10
361.30256	8
363.32918	21
365.32717	6
371.29068	29
372.29461	5
375.31438	8
377.33322	17
381.22741	4
384.96547	67
385.97182	3
389.29725	23
390.30178	5
393.28571	7
405.29148	12
407.29903	833
408.30529	243
409.29619	71
410.28814	10
411.27885	17
412.28845	5
417.30728	3
421.29539	7
424.27037	3
425.266	4
427.27088	96
428.27867	26
429.28473	249
430.28605	63
431.30508	11
434.30857	2
438.96718	18
449.31329	28
450.33367	8
451.27572	34
452.292	10
461.31354	33
462.32566	12
463.30238	3
465.27874	27
466.28838	10
467.26716	6
469.28344	7
471.28565	22
472.29632	5
475.28654	4
483.30838	47
484.30564	9
485.31829	5
487.26561	34
488.27972	8
489.29187	9
490.33556	4
491.26785	6
505.28881	21
506.32196	6
509.2529	22
510.26163	6
511.28613	5
520.95321	43
525.29722	4
527.31377	7
537.32799	10
543.28745	12
549.30514	7
559.30788	11
560.32756	6
563.26062	5
565.30091	14
571.26154	3
573.31108	4
574.96274	8
583.34611	19
587.30329	9
599.31184	6
605.33892	11
613.31556	6
614.31038	6
619.29061	6
627.31045	4
633.95968	3
641.27756	5
642.33924	2
653.32832	3
656.94632	3
659.34459	7
681.30866	5
695.29657	7
701.24869	5
716.2136	1
723.28159	8
763.29783	4
777.26328	4
797.52837	87
798.53667	47
799.53383	16
800.53984	4
801.47419	4
803.25429	3
805.2702	2
815.19998	5
819.51293	13
837.50117	68
838.49997	37
839.49948	19
840.51646	7
841.48102	11
859.47539	29
860.46889	16
861.48006	9
877.43833	7
881.44992	22
882.44807	10
883.45318	6
895.48012	4
899.41741	9
900.42365	7
901.45849	6
903.41953	10
904.43251	4
905.47973	2
924.44579	3
925.42026	11
926.40723	4
929.24467	3
939.42686	6
943.47609	3
973.50017	6
974.50313	4
975.55408	2
995.52511	4
