Mass spectrum: 3a,6a,7b-Trihydroxy-5b-cholan-24-oic acid; LC-ESI-TOF; MS; Orifice voltage -90 V; Negative; In-suorce decay
Name: 3a,6a,7b-Trihydroxy-5b-cholan-24-oic acid
Name: omega-Muricholic acid
Name: beta-Hyocholic acid
Class: Natural Product; Bile acid
Formula: C24H40O5
Exact mass: 408.28757
SMILES: C[C@H](CCC(=O)O)[C@H]1CC[C@@H]2[C@@]1(CC[C@H]3[C@H]2[C@H]([C@@H]([C@H]4[C@@]3(CC[C@H](C4)O)C)O)O)C
InChI: InChI=1S/C24H40O5/c1-13(4-7-19(26)27)15-5-6-16-20-17(9-11-23(15,16)2)24(3)10-8-14(25)12-18(24)21(28)22(20)29/h13-18,20-22,25,28-29H,4-12H2,1-3H3,(H,26,27)/t13-,14-,15-,16+,17+,18+,20+,21-,22-,23-,24-/m1/s1
Instrument: JMS-T100LP, JEOL
Instrument type: LC-ESI-TOF
Ms type: MS
Ion mode: NEGATIVE
Ionization: ESI
m/z	relative intensity
61.00118	40
62.00196	89
69.00606	269
78.96627	198
80.92409	14
85.03412	7
96.96735	7
112.98701	54
125.00184	7
126.90664	24
153.02948	8
154.97246	23
166.99319	11
187.00383	9
248.95747	75
255.23182	12
283.26733	9
384.94202	8
407.2777	999
408.28094	279
409.28879	50
410.29644	5
427.24925	11
429.26399	47
430.2655	13
439.30451	179
440.31072	53
441.31148	8
461.2902	50
462.29606	14
465.24459	18
467.24479	7
483.27991	8
489.28498	10
543.25679	16
544.26768	5
583.3071	15
815.56515	36
816.58219	18
817.58709	5
837.55084	90
838.55895	49
839.55511	18
859.54068	10
860.55495	5
