Mass spectrum: 3b,6b,12a-Trihydroxy-5b-cholan-24-oic acid; LC-ESI-TOF; MS; Orifice voltage -90 V; Negative; In-suorce decay
Name: 3b,6b,12a-Trihydroxy-5b-cholan-24-oic acid
Class: Natural Product; Bile acid
Formula: C24H40O5
Exact mass: 408.28757
SMILES: C[C@H](CCC(=O)O)[C@H]1CC[C@@H]2[C@@]1([C@H](C[C@H]3[C@H]2C[C@H]([C@H]4[C@@]3(CC[C@@H](C4)O)C)O)O)C
InChI: InChI=1S/C24H40O5/c1-13(4-7-22(28)29)16-5-6-17-15-11-20(26)19-10-14(25)8-9-23(19,2)18(15)12-21(27)24(16,17)3/h13-21,25-27H,4-12H2,1-3H3,(H,28,29)/t13-,14+,15+,16-,17+,18+,19+,20-,21+,23-,24-/m1/s1
Instrument: JMS-T100LP, JEOL
Instrument type: LC-ESI-TOF
Ms type: MS
Ion mode: NEGATIVE
Ionization: ESI
m/z	relative intensity
59.50428	14
61.46131	83
62.45487	154
64.41764	7
65.41454	6
69.40982	597
70.40781	8
73.39478	18
79.30763	405
80.30359	8
81.25434	77
85.34186	8
89.31759	7
93.30465	8
97.21667	17
99.24981	5
113.17194	127
125.14895	16
127.04679	104
153.11425	16
155.05142	51
167.05418	23
171.00635	4
187.04173	17
212.09566	8
227.21109	10
248.96512	150
249.97417	8
255.23904	33
265.15588	8
281.25198	9
283.27186	13
309.1934	9
311.1798	6
325.20154	6
353.22603	5
384.95126	14
395.32899	12
405.28056	20
407.28849	999
408.29309	284
409.29953	45
410.30718	5
429.27758	79
430.27945	18
431.2916	4
461.30193	32
462.31374	10
465.25809	15
467.26516	6
483.29589	13
489.29718	17
490.30785	6
511.28934	9
519.31455	6
520.93181	7
537.29916	6
543.2766	21
544.28349	7
565.27915	11
583.32932	11
605.30552	6
619.28427	6
837.56173	31
838.56112	17
839.56638	6
859.53277	9
860.53177	4
881.50132	6
