Mass spectrum: 2-{[(3alpha,5beta,7beta)-3,7-Dihydroxy-24-oxocholan-24-yl]amino}ethanesulfonic acid; LC-ESI-TOF; MS; NEGATIVE; In source decay -90 V
Name: 2-{[(3alpha,5beta,7beta)-3,7-Dihydroxy-24-oxocholan-24-yl]amino}ethanesulfonic acid
Name: Tauro 3a,7b-(OH)2-5b-cholanic acid
Class: Natural Product; Bile acids
Formula: C26H45NO6S
Exact mass: 499.29676
SMILES: O=S(=O)(O)CCNC(=O)CC[C@@H](C)[C@H]1CC[C@H]2[C@H]3[C@H](CC[C@]12C)[C@@]4(C)CC[C@@H](O)C[C@H]4C[C@@H]3O
InChI: InChI=1S/C26H45NO6S/c1-16(4-7-23(30)27-12-13-34(31,32)33)19-5-6-20-24-21(9-11-26(19,20)3)25(2)10-8-18(28)14-17(25)15-22(24)29/h16-22,24,28-29H,4-15H2,1-3H3,(H,27,30)(H,31,32,33)/t16-,17+,18-,19-,20+,21+,22+,24+,25+,26-/m1/s1
Instrument: JMS-T100LP, JEOL
Instrument type: LC-ESI-TOF
Ms type: MS
Ion mode: NEGATIVE
Ionization: ESI
m/z	relative intensity
61.95	22
78.92	104
79.92	44
273.37	25
301.78	27
312.28	28
325.72	37
498.28	999
499.28	308
662.33	22
674.33	21
692.33	21
768.98	44
