Mass spectrum: 3b,6b-Dihydroxy-5b-cholan-24-oic acid; LC-ESI-TOF; MS; Negative; Orifice voltage -60 V
Name: 3b,6b-Dihydroxy-5b-cholan-24-oic acid
Class: Natural Product; Bile acid
Formula: C24H40O4
Exact mass: 392.29266
SMILES: C[C@H](CCC(=O)O)[C@H]1CC[C@@H]2[C@@]1(CC[C@H]3[C@H]2C[C@H]([C@H]4[C@@]3(CC[C@@H](C4)O)C)O)C
InChI: InChI=1S/C24H40O4/c1-14(4-7-22(27)28)17-5-6-18-16-13-21(26)20-12-15(25)8-10-24(20,3)19(16)9-11-23(17,18)2/h14-21,25-26H,4-13H2,1-3H3,(H,27,28)/t14-,15+,16+,17-,18+,19+,20+,21-,23-,24-/m1/s1
Instrument: JMS-T100LP, JEOL
Instrument type: LC-ESI-TOF
Ms type: MS
Ion mode: NEGATIVE
Ionization: ESI
m/z	relative intensity
51.19949	10
59.16733	3
61.13591	19
62.13438	22
63.18961	2
69.12873	999
69.33954	11
69.64403	19
70.1272	19
73.12866	25
79.06846	5
85.12459	8
89.11597	5
93.11976	4
113.04446	136
114.04846	3
125.04776	3
153.05818	4
154.99728	89
156.00428	2
157.14728	2
167.01185	19
187.0102	17
199.02741	2
199.17541	2
205.16735	2
212.07783	22
213.08335	3
227.20496	4
241.22034	3
248.95901	72
249.18872	1
249.96576	4
255.23294	11
256.23418	2
283.2616	4
290.95027	2
302.96951	3
384.93731	12
391.28413	139
392.28885	40
393.29837	7
423.3146	11
424.31491	3
438.9481	5
445.29769	6
446.30619	2
489.28922	4
492.96109	2
520.91414	19
521.9163	2
527.26619	9
528.26467	3
574.92823	5
656.896	6
663.24631	2
710.90579	3
783.59081	4
784.59371	2
792.86182	5
805.56664	4
806.57934	2
