Mass spectrum: N-[(3alpha,5beta,7alpha,12alpha)-3,7,12-Trihydroxy-24-oxocholan-24-yl]glycine; LC-ESI-TOF; MS; NEGATIVE; In source decay -150 V
Name: N-[(3alpha,5beta,7alpha,12alpha)-3,7,12-Trihydroxy-24-oxocholan-24-yl]glycine
Class: Natural Product; Bile acids
Formula: C26H43NO6
Exact mass: 465.30904
SMILES: C[C@H](CCC(=O)NCC(=O)O)[C@H]1CC[C@@H]2[C@@]1([C@H](C[C@H]3[C@H]2[C@@H](C[C@H]4[C@@]3(CC[C@H](C4)O)C)O)O)C
InChI: InChI=1S/C26H43NO6/c1-14(4-7-22(31)27-13-23(32)33)17-5-6-18-24-19(12-21(30)26(17,18)3)25(2)9-8-16(28)10-15(25)11-20(24)29/h14-21,24,28-30H,4-13H2,1-3H3,(H,27,31)(H,32,33)/t14-,15+,16-,17-,18+,19+,20-,21+,24+,25+,26-/m1/s1
Instrument: JMS-T100LP, JEOL
Instrument type: LC-ESI-TOF
Ms type: MS
Ion mode: NEGATIVE
Ionization: ESI
m/z	relative intensity
73.96	999
95.00	55
198.65	55
204.64	62
210.45	91
216.43	85
227.15	87
259.17	74
285.67	57
297.21	104
304.82	58
314.39	93
358.28	65
402.31	97
424.91	129
464.29	736
465.30	155
482.31	81
498.29	79
554.98	163
602.19	88
609.63	96
688.30	55
735.56	96
743.90	62
874.61	64
883.16	160
929.60	231
930.63	151
981.38	94
986.15	68
