Mass spectrum: 12-Oxo-5b-cholan-24-ic acid; LC-ESI-TOF; MS; NEGATIVE; in source decay -90 V
Name: 12-Oxo-5b-cholan-24-ic acid
Class: Natural Product; Bile acids
Formula: C24H38O3
Exact mass: 374.28210
SMILES: CC(CCC(=O)O)C1CCC2C1(C(=O)CC3C2CCC4C3(CCCC4)C)C
InChI: InChI=1S/C24H38O3/c1-15(7-12-22(26)27)18-10-11-19-17-9-8-16-6-4-5-13-23(16,2)20(17)14-21(25)24(18,19)3/h15-20H,4-14H2,1-3H3,(H,26,27)/t15-,16+,17+,18-,19+,20+,23+,24-/m1/s1
Instrument: JMS-T100LP, JEOL
Instrument type: LC-ESI-TOF
Ms type: MS
Ion mode: NEGATIVE
Ionization: ESI
m/z	relative intensity
61.98	984
68.99	152
78.91	30
79.95	32
96.96	79
232.95	21
255.24	30
265.16	52
283.27	22
297.16	27
309.17	21
311.17	103
325.19	119
326.20	22
339.21	86
371.27	20
373.27	513
374.28	116
375.28	999
376.29	302
377.30	33
381.24	27
389.28	40
432.32	24
433.26	45
