Mass spectrum: 3,12-Dioxo-5b-cholan-24-oic acid; LC-ESI-TOF; MS; NEGATIVE; in source decay -60 V
Name: 3,12-Dioxo-5b-cholan-24-oic acid
Class: Natural Product; Bile acids
Formula: C24H36O4
Exact mass: 388.26136
SMILES: C(C1(C)4)([H])(C(C)CCC(O)=O)CCC1(C(C3([H])CC4=O)([H])CCC(C3(C)2)([H])CC(=O)CC2)[H]
InChI: InChI=1S/C24H36O4/c1-14(4-9-22(27)28)18-7-8-19-17-6-5-15-12-16(25)10-11-23(15,2)20(17)13-21(26)24(18,19)3/h14-15,17-20H,4-13H2,1-3H3,(H,27,28)/t14-,15-,17+,18-,19+,20+,23+,24-/m1/s1
Instrument: JMS-T100LP, JEOL
Instrument type: LC-ESI-TOF
Ms type: MS
Ion mode: NEGATIVE
Ionization: ESI
m/z	relative intensity
61.97	446
68.98	999
96.95	29
112.98	156
311.18	65
325.19	109
326.20	24
339.21	100
387.26	377
388.26	93
419.29	45
423.24	26
775.53	358
776.53	199
777.53	83
797.52	26
807.55	71
808.56	42
