Mass spectrum: 3a,6a,7a-Trihydroxy-5b-cholan-24-oic acid; LC-ESI-TOF; MS; Orifice voltage -120 V; Negative; In-suorce decay
Name: 3a,6a,7a-Trihydroxy-5b-cholan-24-oic acid
Name: Hyocholic acid
Name: Gamma-Muricholic acid
Class: Natural Product; Bile acid
Formula: C24H40O5
Exact mass: 408.28757
SMILES: C[C@H](CCC(=O)O)[C@H]1CC[C@@H]2[C@@]1(CC[C@H]3[C@H]2[C@@H]([C@@H]([C@H]4[C@@]3(CC[C@H](C4)O)C)O)O)C
InChI: InChI=1S/C24H40O5/c1-13(4-7-19(26)27)15-5-6-16-20-17(9-11-23(15,16)2)24(3)10-8-14(25)12-18(24)21(28)22(20)29/h13-18,20-22,25,28-29H,4-12H2,1-3H3,(H,26,27)/t13-,14-,15-,16+,17+,18+,20+,21-,22+,23-,24-/m1/s1
Instrument: JMS-T100LP, JEOL
Instrument type: LC-ESI-TOF
Ms type: MS
Ion mode: NEGATIVE
Ionization: ESI
m/z	relative intensity
59.18039	8
61.14809	21
62.14753	85
63.12061	24
69.1376	109
73.14129	7
79.07929	344
80.07538	10
81.03466	18
89.12648	8
97.04795	13
113.0526	93
126.95663	30
153.06019	21
155.00248	30
167.01685	23
183.03197	7
187.01374	18
199.0284	6
210.99242	5
226.98141	38
248.96062	287
249.96788	23
250.96748	6
255.2345	9
283.26123	6
325.20019	7
371.27015	6
384.93679	77
385.94593	6
389.27305	57
390.27842	16
391.28641	5
405.2682	14
407.28061	999
408.28538	291
409.29543	51
410.30105	3
411.25388	90
412.26481	27
413.26932	7
415.25467	2
421.30456	31
422.30668	10
423.29661	5
425.29855	13
429.26433	168
430.27385	42
431.27823	9
439.30796	839
440.31369	252
441.31827	41
442.32358	6
443.28988	34
444.28831	10
451.29402	5
456.23183	4
465.25224	31
466.25079	8
467.24939	12
483.28623	17
489.28731	16
490.29714	4
492.25498	7
519.3042	6
520.92267	67
521.93106	7
543.26424	16
544.27328	6
565.27597	8
583.31571	25
584.31767	7
656.90387	11
815.58311	41
816.59073	20
817.57464	7
837.55078	351
838.55493	192
839.57003	65
840.5643	21
859.53729	27
860.53203	13
861.54454	4
881.52576	11
895.51681	6
941.54858	4
