Mass spectrum: 3b,6b-Dihydroxy-5b-cholan-24-oic acid; LC-ESI-TOF; MS; Negative; Orifice voltage -90 V
Name: 3b,6b-Dihydroxy-5b-cholan-24-oic acid
Class: Natural Product; Bile acid
Formula: C24H40O4
Exact mass: 392.29266
SMILES: C[C@H](CCC(=O)O)[C@H]1CC[C@@H]2[C@@]1(CC[C@H]3[C@H]2C[C@H]([C@H]4[C@@]3(CC[C@@H](C4)O)C)O)C
InChI: InChI=1S/C24H40O4/c1-14(4-7-22(27)28)17-5-6-18-16-13-21(26)20-12-15(25)8-10-24(20,3)19(16)9-11-23(17,18)2/h14-21,25-26H,4-13H2,1-3H3,(H,27,28)/t14-,15+,16+,17-,18+,19+,20+,21-,23-,24-/m1/s1
Instrument: JMS-T100LP, JEOL
Instrument type: LC-ESI-TOF
Ms type: MS
Ion mode: NEGATIVE
Ionization: ESI
m/z	relative intensity
51.19872	7
58.13304	2
59.16856	2
60.11756	1
61.1357	104
62.1342	111
63.18865	2
64.10419	16
65.10981	19
69.1255	664
69.28329	1
69.35743	2
69.6495	1
69.69455	3
70.12825	8
73.12897	29
77.07324	1
79.06861	70
80.066	4
81.02368	4
83.15179	2
85.12481	12
87.10257	3
89.11567	4
92.13782	4
93.11915	19
96.03353	2
97.04053	6
99.08333	3
100.07886	2
105.10186	2
111.04279	1
113.04478	135
113.24084	1
113.31059	1
114.04899	3
115.04729	1
116.05345	2
119.04658	2
125.04849	5
129.06033	3
131.04629	1
136.08062	4
141.03578	14
143.06303	6
146.12782	4
148.14042	5
153.05868	6
154.99759	85
156.03272	7
157.1445	2
163.13098	2
167.01207	29
168.01417	1
169.0087	1
170.96321	1
173.02352	4
180.9873	2
181.98095	3
187.01139	28
195.03339	2
196.97214	1
197.97022	4
199.03019	4
199.17573	3
204.98108	2
205.16653	9
206.16764	1
210.99284	3
212.07751	41
213.0833	6
214.07858	2
219.17842	7
220.16579	2
225.00212	3
227.20319	11
228.20784	2
233.1535	1
235.03667	1
241.21813	9
242.2232	2
247.05021	2
248.95886	167
249.96581	8
251.0058	3
253.21532	6
255.23316	47
256.23272	8
257.23829	2
269.24685	7
270.24934	1
281.24847	8
283.26265	19
284.27245	4
290.95091	2
295.23195	1
297.2302	4
302.97122	3
309.2473	4
311.17077	1
311.29019	1
325.19754	3
330.9803	2
339.20246	2
341.2698	2
348.05905	1
380.98247	2
384.93986	25
385.93972	1
389.26508	2
391.28306	999
391.80238	4
392.28758	282
393.29581	51
394.2989	6
395.29151	2
409.24441	5
411.25425	43
412.2552	10
413.27052	5
423.31337	76
424.31431	23
425.32837	4
426.92854	2
430.97367	2
433.27674	20
434.28359	6
435.26726	2
438.94594	13
445.29767	24
446.30644	7
447.31725	2
449.24674	4
450.28096	2
451.25178	3
455.2516	2
459.28011	5
460.27876	4
461.28027	1
463.26557	3
465.28582	2
467.28367	11
468.2938	3
471.25639	2
473.29241	2
476.27186	2
477.32367	4
480.97478	2
481.25543	2
485.28834	2
487.29803	2
489.29341	3
492.96067	3
499.30667	5
500.31711	2
503.30345	5
520.91508	21
521.91898	2
527.26726	23
528.2657	8
529.29004	2
530.98062	2
549.25333	4
550.25868	1
553.31405	4
567.31459	3
574.9326	5
580.96974	2
581.28227	6
582.27805	2
628.9455	1
630.98646	2
635.28795	5
656.90671	4
663.2469	3
669.52516	2
710.91255	2
717.26046	4
783.58792	6
784.58284	3
799.22477	3
805.568	26
806.57166	16
807.57663	5
827.54565	3
828.55766	2
859.56194	4
860.57723	2
925.53915	4
926.54506	2
941.53753	4
942.53848	3
947.4974	2
