Mass spectrum: 1b,3a,12a-Trihydroxy-5b-cholan-24-oic acid; LC-ESI-TOF; MS; Negative; Orifice voltage -150 V
Name: 1b,3a,12a-Trihydroxy-5b-cholan-24-oic acid
Class: Natural Product; Bile acids
Formula: C24H40O5
Exact mass: 408.28757
SMILES: C[C@H](CCC(=O)O)[C@H]1CC[C@@H]2[C@@]1([C@H](C[C@H]3[C@H]2CC[C@H]4[C@@]3([C@@H](C[C@H](C4)O)O)C)O)C
InChI: InChI=1S/C24H40O5/c1-13(4-9-22(28)29)17-7-8-18-16-6-5-14-10-15(25)11-20(26)23(14,2)19(16)12-21(27)24(17,18)3/h13-21,25-27H,4-12H2,1-3H3,(H,28,29)/t13-,14-,15+,16+,17-,18+,19+,20-,21+,23+,24-/m1/s1
Instrument: JMS-T100LP, JEOL
Instrument type: LC-ESI-TOF
Ms type: MS
Ion mode: NEGATIVE
Ionization: ESI
m/z	relative intensity
57.01499	56
71.03269	45
81.01467	16
83.03279	41
97.04553	107
149.11651	3
177.11642	9
183.00838	34
217.14971	13
238.59394	10
243.21342	10
245.18434	7
252.10774	6
257.18629	6
261.24748	36
265.1485	10
269.23313	18
273.23206	20
274.84184	17
287.23064	12
290.25502	14
291.40079	7
295.76314	8
299.22946	9
304.23545	11
306.23297	25
307.25485	9
309.25187	14
311.23458	9
313.23404	11
315.26084	18
316.2662	7
317.25218	20
319.26032	19
320.39861	10
321.25366	12
323.22143	2
325.24834	56
326.2482	10
327.26026	48
328.27389	9
331.30271	4
334.27002	10
341.24517	10
343.26222	301
344.2675	49
345.27425	44
349.36003	43
352.24101	15
353.22612	37
355.61154	16
359.28851	6
361.2685	19
363.28762	6
364.29929	8
365.28984	15
368.23563	15
371.25003	13
372.26135	11
373.06912	21
375.29214	24
390.2694	4
405.26678	24
407.27431	999
408.28589	298
409.28681	53
414.90976	8
415.91875	20
418.62745	4
419.68925	8
421.30865	4
425.77202	9
431.23742	8
443.25247	85
444.25808	24
445.23994	20
450.35313	8
451.17895	9
455.19368	20
461.29975	36
465.24475	55
466.23681	9
467.24266	21
470.26671	8
473.8905	9
476.35695	18
477.2964	12
478.1079	32
483.61328	10
484.50796	7
488.78528	6
492.25727	9
493.27771	13
496.83128	8
507.28973	9
522.70997	11
526.0569	21
528.20833	7
533.87162	18
543.5699	15
549.74303	9
550.66924	10
558.51081	7
560.25316	8
565.03411	7
574.02136	6
590.1738	1
598.42056	9
609.9661	7
611.21852	8
620.6966	12
623.7544	8
624.96195	9
625.46298	9
655.83199	27
658.71788	5
666.74383	11
668.63218	9
673.56356	9
683.943	7
691.31471	14
699.39597	9
700.26906	25
704.70527	12
712.2821	17
733.59466	11
735.60732	6
738.64749	25
746.9195	29
748.72456	14
756.6473	7
762.99924	9
772.55235	11
773.97815	24
778.18121	7
791.63786	15
797.38563	15
801.635	13
815.61181	84
816.57146	50
821.6316	8
824.21828	7
827.41921	13
828.92868	9
830.86416	16
833.83968	18
837.57082	155
838.56038	77
844.784	18
846.90939	6
847.93877	10
851.56369	35
854.57601	11
856.33422	9
859.56228	48
866.95608	8
871.36929	23
873.54525	8
875.58441	37
877.36408	22
879.59995	9
887.09678	11
895.52464	8
920.90414	13
924.37697	12
932.45766	7
955.56208	8
970.39368	14
981.53229	19
992.27028	9
994.51781	20
996.89812	7
