Mass spectrum: 3b,4b,12a-Trihydroxy-5b-cholan-24-oic acid; LC-ESI-TOF; MS; Negative; Orifice voltage -90 V
Name: 3b,4b,12a-Trihydroxy-5b-cholan-24-oic acid
Class: Natural Product; Bile acid
Formula: C24H40O5
Exact mass: 408.28757
SMILES: C[C@H](CCC(=O)O)[C@H]1CC[C@@H]2[C@@]1([C@H](C[C@H]3[C@H]2CC[C@H]4[C@@]3(CC[C@@H]([C@@H]4O)O)C)O)C
InChI: InChI=1S/C24H40O5/c1-13(4-9-21(27)28)15-7-8-16-14-5-6-17-22(29)19(25)10-11-23(17,2)18(14)12-20(26)24(15,16)3/h13-20,22,25-26,29H,4-12H2,1-3H3,(H,27,28)/t13-,14+,15-,16+,17-,18+,19+,20+,22-,23+,24-/m1/s1
Instrument: JMS-T100LP, JEOL
Instrument type: LC-ESI-TOF
Ms type: MS
Ion mode: NEGATIVE
Ionization: ESI
m/z	relative intensity
59.22345	4
61.19169	4
62.1899	32
64.15897	4
65.16421	3
69.1791	53
79.11945	39
80.11735	3
81.07357	4
89.16624	2
97.08789	6
99.13007	5
113.08882	21
125.09026	1
127.09035	1
141.07782	3
143.08721	2
153.09612	2
155.03861	1
157.07477	2
167.04963	2
181.02381	3
212.11186	3
221.18821	2
227.22807	4
233.18582	3
241.24693	3
248.98739	8
250.1712	3
253.24045	6
255.25673	18
256.26157	3
265.17535	2
269.27292	2
279.25214	2
281.2659	6
283.2855	11
284.28767	2
297.1705	4
309.21392	2
311.1806	11
312.19093	2
325.20318	11
326.21674	2
327.27907	6
328.28348	1
339.21613	6
343.2784	6
345.29631	2
353.23639	2
359.30643	4
361.28351	2
363.30312	8
364.30418	2
371.26927	1
389.27926	2
391.28713	3
394.26339	2
395.32456	5
405.26912	2
407.27703	999
408.28011	285
409.28325	46
410.29555	5
429.25851	30
430.26532	8
431.27576	2
461.27867	6
462.29507	2
465.23382	4
467.24182	2
475.25639	33
476.2636	11
477.27371	2
489.27555	11
490.28264	4
497.24604	6
498.25301	2
499.1537	2
505.27766	3
511.25409	2
519.27919	3
543.2416	7
544.24333	2
565.23246	3
583.29334	2
815.53816	22
816.53085	13
817.55704	4
837.51141	72
838.51176	39
839.5272	14
840.53035	4
859.509	6
860.50358	3
905.51803	4
906.52115	3
927.49371	3
973.49611	2
