Mass spectrum: 3a,6a,7b-(OH)3-5a-cholanic acid; LC-ESI-TOF; MS; NEGATIVE; In source decay -90 V
Name: 3a,6a,7b-(OH)3-5a-cholanic acid
Name: 3a,6a,7b-Trihydroxy-5a-cholan-24-oic Acid
Class: Natural Product; Bile acids
Formula: C24H40O5
Exact mass: 408.28757
SMILES: C(C32[H])(O)C(C(C(C2([H])CCC(C([H])(C(C)CCC(O)=O)4)(C3([H])CC4)C)(C)1)([H])CC(O)CC1)O
InChI: InChI=1S/C24H40O5/c1-13(4-7-19(26)27)15-5-6-16-20-17(9-11-23(15,16)2)24(3)10-8-14(25)12-18(24)21(28)22(20)29/h13-18,20-22,25,28-29H,4-12H2,1-3H3,(H,26,27)/t13-,14-,15-,16+,17+,18-,20+,21-,22-,23-,24-/m1/s1
Instrument: JMS-T100LP, JEOL
Instrument type: LC-ESI-TOF
Ms type: MS
Ion mode: NEGATIVE
Ionization: ESI
m/z	relative intensity
69.00	100
96.97	203
209.08	22
253.21	58
255.24	131
256.25	24
265.15	200
267.20	22
281.25	84
283.27	70
293.18	244
297.19	44
305.31	27
309.18	118
311.17	191
312.18	29
315.13	34
317.17	30
325.19	170
326.20	32
337.21	79
339.22	167
340.22	31
354.37	56
379.16	21
407.27	999
408.29	287
409.29	55
420.62	25
425.34	26
443.26	90
444.29	24
455.05	47
465.25	148
466.28	24
467.27	38
489.08	34
505.52	28
513.12	80
519.48	50
521.61	21
534.61	24
599.85	26
641.04	30
643.00	42
651.01	46
655.86	26
669.14	21
701.80	29
710.33	23
715.88	21
732.49	67
755.66	24
763.53	24
777.02	32
778.26	32
787.39	33
797.56	25
815.57	249
816.58	135
837.59	57
838.59	29
841.84	23
851.58	32
853.65	51
857.30	27
873.57	28
881.22	46
886.33	22
895.56	77
899.74	31
903.70	20
925.06	25
948.14	22
956.66	79
969.78	23
973.22	21
979.03	23
988.59	36
