Mass spectrum: 3a,6a,7a-Trihydroxy-5b-cholan-24-oic acid; LC-ESI-TOF; MS; Orifice voltage  -60 V; Negative; In-suorce decay
Name: 3a,6a,7a-Trihydroxy-5b-cholan-24-oic acid
Name: Hyocholic acid
Name: Gamma-Muricholic acid
Class: Natural Product; Bile acid
Formula: C24H40O5
Exact mass: 408.28757
SMILES: C[C@H](CCC(=O)O)[C@H]1CC[C@@H]2[C@@]1(CC[C@H]3[C@H]2[C@@H]([C@@H]([C@H]4[C@@]3(CC[C@H](C4)O)C)O)O)C
InChI: InChI=1S/C24H40O5/c1-13(4-7-19(26)27)15-5-6-16-20-17(9-11-23(15,16)2)24(3)10-8-14(25)12-18(24)21(28)22(20)29/h13-18,20-22,25,28-29H,4-12H2,1-3H3,(H,26,27)/t13-,14-,15-,16+,17+,18+,20+,21-,22+,23-,24-/m1/s1
Instrument: JMS-T100LP, JEOL
Instrument type: LC-ESI-TOF
Ms type: MS
Ion mode: NEGATIVE
Ionization: ESI
m/z	relative intensity
59.18057	117
61.14893	13
62.14754	32
69.13901	999
69.63455	14
73.1408	13
79.0798	21
113.05182	137
155.00158	53
248.96092	44
407.28126	91
408.28561	27
429.26435	11
439.30825	80
440.31483	24
815.57319	34
816.57979	18
837.55543	22
838.55634	12
