Mass spectrum: 6b-Hydroxy-5b-cholan-24-oic acid; LC-ESI-TOF; MS; Negative; Orifice voltage -30 V
Name: 6b-Hydroxy-5b-cholan-24-oic acid
Class: Natural Product; Bile acid
Formula: C24H40O3
Exact mass: 376.29775
SMILES: C[C@H](CCC(=O)O)[C@H]1CC[C@@H]2[C@@]1(CC[C@H]3[C@H]2C[C@H]([C@H]4[C@@]3(CCCC4)C)O)C
InChI: InChI=1S/C24H40O3/c1-15(7-10-22(26)27)17-8-9-18-16-14-21(25)20-6-4-5-12-23(20,2)19(16)11-13-24(17,18)3/h15-21,25H,4-14H2,1-3H3,(H,26,27)/t15-,16+,17-,18+,19+,20+,21-,23-,24-/m1/s1
Instrument: JMS-T100LP, JEOL
Instrument type: LC-ESI-TOF
Ms type: MS
Ion mode: NEGATIVE
Ionization: ESI
m/z	relative intensity
58.95937	21
61.93523	57
68.94737	269
74.96447	501
75.96899	15
84.98771	33
112.96096	999
113.62504	7
113.96444	22
128.99719	12
212.0698	37
227.00395	10
248.95768	20
375.28741	58
376.29356	17
