Mass spectrum: N-[(3alpha,5beta,7beta)-3,7-Dihydroxy-24-oxocholan-24-yl]glycine; LC-ESI-TOF; MS; NEGATIVE; In source decay -90 V
Name: N-[(3alpha,5beta,7beta)-3,7-Dihydroxy-24-oxocholan-24-yl]glycine
Class: Natural Product; Bile acids
Formula: C26H43NO5
Exact mass: 449.31412
SMILES: C[C@H](CCC(=O)NCC(=O)O)[C@H]1CC[C@@H]2[C@@]1(CC[C@H]3[C@H]2[C@H](C[C@H]4[C@@]3(CC[C@H](C4)O)C)O)C
InChI: InChI=1S/C26H43NO5/c1-15(4-7-22(30)27-14-23(31)32)18-5-6-19-24-20(9-11-26(18,19)3)25(2)10-8-17(28)12-16(25)13-21(24)29/h15-21,24,28-29H,4-14H2,1-3H3,(H,27,30)(H,31,32)/t15-,16+,17-,18-,19+,20+,21+,24+,25+,26-/m1/s1
Instrument: JMS-T100LP, JEOL
Instrument type: LC-ESI-TOF
Ms type: MS
Ion mode: NEGATIVE
Ionization: ESI
m/z	relative intensity
61.93	383
64.92	61
68.94	78
73.97	124
96.92	44
102.06	42
121.56	43
140.98	66
152.98	94
184.04	43
203.36	42
212.07	58
248.96	60
256.09	80
274.99	64
284.09	68
296.06	131
300.66	43
365.25	85
370.12	43
381.01	69
433.17	70
448.30	999
449.31	288
470.30	44
625.64	54
687.48	107
742.75	404
866.83	130
