Mass spectrum: 2-{[(3alpha,5beta,7alpha,12alpha)-3,7,12-Trihydroxy-24-oxocholan-24-yl]amino}ethanesulfonic acid; LC-ESI-TOF; MS; NEGATIVE; In source decay -60 V
Name: 2-{[(3alpha,5beta,7alpha,12alpha)-3,7,12-Trihydroxy-24-oxocholan-24-yl]amino}ethanesulfonic acid
Name: Tauro 3a,7a,12a-(OH)3-5b-cholanoic acid
Class: Natural Product; Bile acids
Formula: C26H45NO7S
Exact mass: 515.29167
SMILES: CC(CCC(=O)NCCS(=O)(=O)O)C1CCC2C1(C(CC3C2C(CC4C3(CCC(C4)O)C)O)O)C
InChI: InChI=1S/C26H45NO7S/c1-15(4-7-23(31)27-10-11-35(32,33)34)18-5-6-19-24-20(14-22(30)26(18,19)3)25(2)9-8-17(28)12-16(25)13-21(24)29/h15-22,24,28-30H,4-14H2,1-3H3,(H,27,31)(H,32,33,34)/t15-,16+,17-,18-,19+,20+,21-,22+,24+,25+,26-/m1/s1
Instrument: JMS-T100LP, JEOL
Instrument type: LC-ESI-TOF
Ms type: MS
Ion mode: NEGATIVE
Ionization: ESI
m/z	relative intensity
174.96	62
196.96	30
269.96	90
284.93	21
290.95	63
350.82	30
353.70	23
362.94	519
394.90	25
396.89	46
440.32	30
486.19	28
514.28	999
515.29	315
556.90	25
603.53	92
728.55	28
870.23	31
905.08	43
916.25	21
