Mass spectrum: 3b,6b,7b-Trihydroxy-5b-cholan-24-oic acid; LC-ESI-TOF; MS; Orifice voltage -150 V; Negative; In-suorce decay
Name: 3b,6b,7b-Trihydroxy-5b-cholan-24-oic acid
Class: Natural Product; Bile acid
Formula: C24H40O5
Exact mass: 408.28757
SMILES: C[C@H](CCC(=O)O)[C@H]1CC[C@@H]2[C@@]1(CC[C@H]3[C@H]2[C@H]([C@H]([C@H]4[C@@]3(CC[C@@H](C4)O)C)O)O)C
InChI: InChI=1S/C24H40O5/c1-13(4-7-19(26)27)15-5-6-16-20-17(9-11-23(15,16)2)24(3)10-8-14(25)12-18(24)21(28)22(20)29/h13-18,20-22,25,28-29H,4-12H2,1-3H3,(H,26,27)/t13-,14+,15-,16+,17+,18+,20+,21+,22-,23-,24-/m1/s1
Instrument: JMS-T100LP, JEOL
Instrument type: LC-ESI-TOF
Ms type: MS
Ion mode: NEGATIVE
Ionization: ESI
m/z	relative intensity
61.24554	397
67.43805	254
77.64026	999
78.22911	5
79.64282	264
81.72506	44
83.76553	13
91.89811	115
126.37607	91
132.50591	12
152.73901	43
166.79152	125
170.76217	81
182.8887	118
197.89233	56
216.87159	13
226.96959	22
232.98676	374
233.99504	16
234.96607	15
249.98633	96
271.23619	17
287.03635	12
299.01767	12
315.0291	18
325.23095	33
329.27063	12
353.01934	122
354.03386	12
355.24788	14
368.9873	292
369.99787	34
371.2935	19
373.30408	25
379.28075	46
384.96237	252
385.97585	11
387.2856	21
389.29997	35
390.30312	13
391.29905	19
392.31217	7
393.26507	13
395.24947	140
396.25686	38
397.26091	23
405.29465	27
407.30085	870
408.30732	258
409.30393	64
411.29641	20
412.30952	10
413.29402	18
415.23468	12
421.31556	23
423.00816	29
425.26111	34
427.27472	43
433.30855	18
435.27029	15
439.33014	116
440.3381	32
441.32317	11
442.32359	7
443.29991	28
445.33227	18
447.26823	14
449.2908	48
450.3153	19
451.31867	34
453.31455	14
455.30286	19
461.30756	28
463.28944	18
465.27217	149
466.27704	45
467.27673	64
471.2834	48
473.28197	22
477.26415	12
481.26454	13
482.96927	22
487.26069	54
488.2652	20
488.99965	64
490.26795	11
497.23874	9
504.97285	148
505.98307	13
507.25879	11
520.95107	165
521.95573	20
523.2613	16
527.30877	17
535.32431	199
536.33652	68
545.02136	19
547.29818	15
559.00176	12
561.30895	16
563.24473	15
565.28805	19
567.3719	13
587.01145	11
591.31974	11
603.14791	19
625.00574	8
640.95258	35
643.32132	7
656.93301	20
658.24995	7
669.2633	10
680.99451	7
717.3546	14
738.92195	9
776.87842	14
821.53513	54
822.5286	31
837.50155	184
838.50441	101
839.49907	36
844.52452	15
895.42971	17
957.52866	10
