Mass spectrum: 3a,6b,7a-Trihydroxy-5b-cholan-24-oic acid; LC-ESI-TOF; MS; Orifice voltage -150 V; Negative; In-suorce decay
Name: 3a,6b,7a-Trihydroxy-5b-cholan-24-oic acid
Name: alpha-Muricholic acid
Class: Natural Product; Bile acid
Formula: C24H40O5
Exact mass: 408.28757
SMILES: C[C@H](CCC(=O)O)[C@H]1CC[C@@H]2[C@@]1(CC[C@H]3[C@H]2[C@@H]([C@H]([C@H]4[C@@]3(CC[C@H](C4)O)C)O)O)C
InChI: InChI=1S/C24H40O5/c1-13(4-7-19(26)27)15-5-6-16-20-17(9-11-23(15,16)2)24(3)10-8-14(25)12-18(24)21(28)22(20)29/h13-18,20-22,25,28-29H,4-12H2,1-3H3,(H,26,27)/t13-,14-,15-,16+,17+,18+,20+,21+,22+,23-,24-/m1/s1
Instrument: JMS-T100LP, JEOL
Instrument type: LC-ESI-TOF
Ms type: MS
Ion mode: NEGATIVE
Ionization: ESI
m/z	relative intensity
62.97773	472
78.96708	905
79.50385	9
80.92529	100
85.03402	53
89.02969	41
126.90802	119
129.01764	43
153.03263	66
154.97422	111
166.9956	141
183.01521	20
249.96856	54
250.97159	16
255.23435	9
265.04136	16
281.24797	8
289.18792	14
302.97242	12
315.23154	13
325.22967	16
347.23831	20
357.25014	77
359.26081	22
369.24579	64
372.26907	74
373.2714	23
375.26179	84
377.25694	41
378.25879	10
379.23832	30
381.25643	29
384.9446	118
385.94949	13
387.26093	226
388.26318	59
389.27523	106
390.27687	30
391.24811	35
392.26293	12
393.25596	21
397.24453	35
403.28409	21
405.26997	382
406.27154	106
407.28319	792
408.28634	237
409.27788	100
410.25814	22
411.25919	119
412.26815	36
413.28007	36
421.29549	34
423.2811	20
425.2783	50
426.26902	21
427.25885	33
430.27126	115
431.28593	24
432.29595	4
437.29733	78
438.30401	30
439.31164	444
440.31971	130
441.30689	28
443.28026	53
445.26701	30
446.27696	11
461.28888	13
465.25415	76
466.25755	22
468.24579	12
481.26589	31
519.30928	22
520.92729	73
521.92521	9
543.26852	30
560.97646	10
821.58708	22
837.55885	999
838.56657	535
839.56468	181
840.57989	50
843.57464	8
844.57371	6
859.54889	78
860.55826	38
861.55196	13
881.54906	64
882.55698	50
