Mass spectrum: 3a,7a,15a-(OH)3-5b-cholanic acid; LC-ESI-TOF; MS; NEGATIVE; In source decay -120 V
Name: 3a,7a,15a-(OH)3-5b-cholanic acid
Name: 3a,7a,15a-Trihydroxy-5b-cholan-24-oic Acid
Class: Natural Product; Bile acids
Formula: C24H40O5
Exact mass: 408.28757
SMILES: C(C3(C)4)([H])(CC(O)CC4)CC(C(C3([H])2)(C(C1(C)CC2)([H])C(O)CC1([H])C(C)CCC(O)=O)[H])O
InChI: InChI=1S/C24H40O5/c1-13(4-5-20(28)29)17-12-19(27)22-21-16(7-9-24(17,22)3)23(2)8-6-15(25)10-14(23)11-18(21)26/h13-19,21-22,25-27H,4-12H2,1-3H3,(H,28,29)/t13-,14+,15-,16+,17-,18-,19+,21+,22+,23+,24-/m1/s1
Instrument: JMS-T100LP, JEOL
Instrument type: LC-ESI-TOF
Ms type: MS
Ion mode: NEGATIVE
Ionization: ESI
m/z	relative intensity
79.12	73
113.09	30
248.98	54
389.26	104
390.27	33
407.28	999
408.28	283
409.28	54
429.26	58
439.30	33
815.51	23
837.51	96
838.51	52
