Mass spectrum: 3,12-Dioxo-5a-cholan-24-oic acid; LC-ESI-TOF; MS; NEGATIVE; in source decay -90 V
Name: 3,12-Dioxo-5a-cholan-24-oic acid
Class: Natural Product; Bile acids
Formula: C24H36O4
Exact mass: 388.26135
SMILES: CC(CCC(=O)O)C1CCC2C1(C(=O)CC3C2CCC4C3(CCC(=O)C4)C)C
InChI: InChI=1S/C24H36O4/c1-14(4-9-22(27)28)18-7-8-19-17-6-5-15-12-16(25)10-11-23(15,2)20(17)13-21(26)24(18,19)3/h14-15,17-20H,4-13H2,1-3H3,(H,27,28)/t14-,15+,17+,18-,19+,20+,23+,24-/m1/s1
Instrument: JMS-T100LP, JEOL
Instrument type: LC-ESI-TOF
Ms type: MS
Ion mode: NEGATIVE
Ionization: ESI
m/z	relative intensity
61.97	75
68.98	29
96.95	58
311.18	31
325.20	36
339.21	26
387.25	999
388.25	281
389.27	47
419.28	94
420.29	47
423.23	42
425.24	21
775.53	91
776.54	53
777.53	20
797.50	21
798.53	22
