Mass spectrum: 3a,6a,7b-Trihydroxy-5b-cholan-24-oic acid; LC-ESI-TOF; MS; Orifice voltage -30 V; Negative; In-suorce decay
Name: 3a,6a,7b-Trihydroxy-5b-cholan-24-oic acid
Name: omega-Muricholic acid
Name: beta-Hyocholic acid
Class: Natural Product; Bile acid
Formula: C24H40O5
Exact mass: 408.28757
SMILES: C[C@H](CCC(=O)O)[C@H]1CC[C@@H]2[C@@]1(CC[C@H]3[C@H]2[C@H]([C@@H]([C@H]4[C@@]3(CC[C@H](C4)O)C)O)O)C
InChI: InChI=1S/C24H40O5/c1-13(4-7-19(26)27)15-5-6-16-20-17(9-11-23(15,16)2)24(3)10-8-14(25)12-18(24)21(28)22(20)29/h13-18,20-22,25,28-29H,4-12H2,1-3H3,(H,26,27)/t13-,14-,15-,16+,17+,18+,20+,21-,22-,23-,24-/m1/s1
Instrument: JMS-T100LP, JEOL
Instrument type: LC-ESI-TOF
Ms type: MS
Ion mode: NEGATIVE
Ionization: ESI
m/z	relative intensity
59.02853	55
62.00194	24
69.00602	367
75.01694	140
89.02856	12
112.98789	999
113.64536	10
113.98941	23
114.23024	5
153.02939	46
166.99273	14
226.97419	30
248.95616	92
384.93606	20
407.27645	157
408.28082	44
439.30375	37
440.30985	12
505.27787	12
611.42079	10
611.92168	8
815.56557	13
837.54899	7
