Mass spectrum: 3a,6b,7b,12a-(OH)4-5b-cholanic acid; LC-ESI-TOF; MS; NEGATIVE; In-source decay -150 V
Name: 3a,6b,7b,12a-(OH)4-5b-cholanic acid
Name: 3a,6b,7b,12a-Tetrahydroxy-5b-cholan-24-oic acid
Class: Natural Product; Bile acids
Formula: C24H40O6
Exact mass: 424.28249
SMILES: C(C23[H])(O)C(C(C(C2([H])CC(C(C([H])(C(C)CCC(O)=O)4)(C3([H])CC4)C)O)(C)1)([H])CC(O)CC1)O
InChI: InChI=1S/C24H40O6/c1-12(4-7-19(27)28)14-5-6-15-20-16(11-18(26)24(14,15)3)23(2)9-8-13(25)10-17(23)21(29)22(20)30/h12-18,20-22,25-26,29-30H,4-11H2,1-3H3,(H,27,28)/t12-,13-,14-,15+,16+,17+,18+,20+,21+,22-,23-,24-/m1/s1
Instrument: JMS-T100LP, JEOL
Instrument type: LC-ESI-TOF
Ms type: MS
Ion mode: NEGATIVE
Ionization: ESI
m/z	relative intensity
57.02	23
61.97	50
217.15	43
303.23	37
309.21	21
325.23	24
341.24	112
342.25	23
359.25	36
423.25	999
424.26	316
425.28	53
459.23	170
460.25	49
461.23	59
481.24	36
486.26	50
847.54	233
848.54	130
849.56	51
869.52	151
870.53	89
871.54	32
883.53	47
884.54	25
885.52	27
