Mass spectrum: 3a-Sulfate-7a,12a-(OH)2-5b-cholanic acid; LC-ESI-TOF; MS; NEGATIVE; In source decay -60 V
Name: 3a-Sulfate-7a,12a-(OH)2-5b-cholanic acid
Name: 3alpha-Sulfooxy-7alpha,12alpha-dihydroxy-5beta-cholan-24-oic acid
Class: Natural Product; Bile acids
Formula: C24H40O8S
Exact mass: 488.24439
SMILES: CC(CCC(=O)O)C1CCC2C1(C(CC3C2C(CC4C3(CCC(C4)OS(=O)(=O)O)C)O)O)C
InChI: InChI=1S/C24H40O8S/c1-13(4-7-21(27)28)16-5-6-17-22-18(12-20(26)24(16,17)3)23(2)9-8-15(32-33(29,30)31)10-14(23)11-19(22)25/h13-20,22,25-26H,4-12H2,1-3H3,(H,27,28)(H,29,30,31)/t13-,14+,15-,16-,17+,18+,19-,20+,22+,23+,24-/m1/s1
Instrument: JMS-T100LP, JEOL
Instrument type: LC-ESI-TOF
Ms type: MS
Ion mode: NEGATIVE
Ionization: ESI
m/z	relative intensity
59.00	379
61.98	141
68.98	999
89.02	32
112.98	102
154.97	23
212.07	59
227.20	53
241.22	34
253.22	30
255.23	66
469.23	70
487.23	444
488.24	130
489.24	38
509.22	131
510.22	38
997.47	21
