Mass spectrum: 3a,6a,7a,12a-Tetrahydroxy-5b-cholan-24-oic acid; LC-ESI-TOF; MS; Orifice voltage -60 V; Negative; In-suorce decay
Name: 3a,6a,7a,12a-Tetrahydroxy-5b-cholan-24-oic acid
Class: Natural Product; Bile acid
Formula: C24H40O6
Exact mass: 424.28249
SMILES: C[C@H](CCC(=O)O)[C@H]1CC[C@@H]2[C@@]1([C@H](C[C@H]3[C@H]2[C@@H]([C@@H]([C@H]4[C@@]3(CC[C@H](C4)O)C)O)O)O)C
InChI: InChI=1S/C24H40O6/c1-12(4-7-19(27)28)14-5-6-15-20-16(11-18(26)24(14,15)3)23(2)9-8-13(25)10-17(23)21(29)22(20)30/h12-18,20-22,25-26,29-30H,4-11H2,1-3H3,(H,27,28)/t12-,13-,14-,15+,16+,17+,18+,20+,21-,22+,23-,24-/m1/s1
Instrument: JMS-T100LP, JEOL
Instrument type: LC-ESI-TOF
Ms type: MS
Ion mode: NEGATIVE
Ionization: ESI
m/z	relative intensity
59.00765	49
61.98088	220
68.9897	66
80.91139	3
87.03894	10
89.01763	111
96.95593	44
98.94537	40
100.93882	9
112.9879	11
157.12699	14
171.1436	6
212.07785	35
213.0826	3
227.1996	13
239.07257	6
241.21913	7
253.21463	13
255.24009	33
256.23874	5
265.16273	3
269.2585	5
281.25145	13
282.26604	2
283.27475	12
311.17386	5
325.20669	3
339.2396	3
407.29052	44
408.29691	14
409.29519	4
421.26947	32
422.28802	7
423.26681	999
424.27712	308
425.28652	57
437.29109	17
438.31562	5
439.30762	5
445.26008	8
453.30093	5
454.34219	2
455.31413	23
456.32146	7
457.29886	3
459.25534	139
460.27652	36
461.25129	43
465.29184	3
467.34239	4
481.24592	12
482.26619	4
483.27991	4
486.28585	3
513.31539	19
514.32458	5
535.29753	7
679.53607	4
829.58154	4
830.59081	3
831.58087	36
832.58811	20
845.55369	22
846.55543	16
847.55463	552
848.56683	300
849.56943	107
855.68332	2
857.02466	1
858.94772	1
859.60404	2
861.58713	11
867.58407	4
868.61017	2
869.57101	79
870.56076	79
874.67315	2
875.63889	2
883.57964	7
884.59672	4
885.58818	2
889.57974	2
891.58499	4
