Mass spectrum: 3,12-Dioxo-5b-cholan-24-oic acid; LC-ESI-TOF; MS; NEGATIVE; in source decay -120 V
Name: 3,12-Dioxo-5b-cholan-24-oic acid
Class: Natural Product; Bile acids
Formula: C24H36O4
Exact mass: 388.26136
SMILES: C(C1(C)4)([H])(C(C)CCC(O)=O)CCC1(C(C3([H])CC4=O)([H])CCC(C3(C)2)([H])CC(=O)CC2)[H]
InChI: InChI=1S/C24H36O4/c1-14(4-9-22(27)28)18-7-8-19-17-6-5-15-12-16(25)10-11-23(15,2)20(17)13-21(26)24(18,19)3/h14-15,17-20H,4-13H2,1-3H3,(H,27,28)/t14-,15-,17+,18-,19+,20+,23+,24-/m1/s1
Instrument: JMS-T100LP, JEOL
Instrument type: LC-ESI-TOF
Ms type: MS
Ion mode: NEGATIVE
Ionization: ESI
m/z	relative intensity
61.97	116
79.94	36
96.95	50
183.01	150
184.01	25
311.18	32
325.20	79
339.20	65
343.26	28
387.25	999
388.25	284
389.27	46
398.58	23
419.28	61
775.53	100
776.54	62
797.49	47
798.53	26
811.51	28
