Mass spectrum: 3a,4b,12a-Trihydroxy-5b-cholan-24-oic acid; LC-ESI-TOF; MS; Negative; Orifice voltage -120 V
Name: 3a,4b,12a-Trihydroxy-5b-cholan-24-oic acid
Class: Natural Product; Bile acid
Formula: C24H40O5
Exact mass: 408.28757
SMILES: C[C@H](CCC(=O)O)[C@H]1CC[C@@H]2[C@@]1([C@H](C[C@H]3[C@H]2CC[C@H]4[C@@]3(CC[C@H]([C@@H]4O)O)C)O)C
InChI: InChI=1S/C24H40O5/c1-13(4-9-21(27)28)15-7-8-16-14-5-6-17-22(29)19(25)10-11-23(17,2)18(14)12-20(26)24(15,16)3/h13-20,22,25-26,29H,4-12H2,1-3H3,(H,27,28)/t13-,14+,15-,16+,17-,18+,19-,20+,22-,23+,24-/m1/s1
Instrument: JMS-T100LP, JEOL
Instrument type: LC-ESI-TOF
Ms type: MS
Ion mode: NEGATIVE
Ionization: ESI
m/z	relative intensity
57.24983	3
58.21841	5
59.22338	4
62.18999	24
63.16267	3
64.15897	9
65.165	2
69.21791	37
70.21773	1
73.2042	3
79.11981	42
80.11622	12
81.07324	14
83.20192	1
85.17713	7
87.18684	1
89.1649	3
96.08107	1
97.0873	19
99.08115	1
99.13002	5
105.18591	1
113.08923	21
123.17383	3
129.10392	2
143.10176	3
153.09521	1
167.05011	3
173.06218	1
177.17848	4
179.10734	2
181.02381	1
183.0587	20
184.06695	3
185.05778	2
197.0721	1
205.19369	4
207.20838	2
211.02355	2
233.19167	3
248.9886	8
250.17094	2
253.24187	1
255.2588	4
281.26714	2
283.28411	5
293.23714	2
295.24094	2
297.2451	7
301.26313	2
303.28778	10
304.29097	2
305.29966	4
309.24427	5
311.2297	11
312.2478	2
313.26322	32
314.26829	8
315.25083	38
316.25677	9
317.26958	4
323.24536	2
325.26469	18
326.25841	4
327.26989	16
328.27785	4
329.26101	37
330.26943	10
331.273	159
332.28055	45
333.28749	21
334.29294	5
335.30238	2
337.31741	2
339.22905	8
340.23159	2
341.25876	11
342.26519	2
343.27437	45
344.27583	12
345.27361	21
346.28071	5
347.29697	3
353.24724	5
357.25628	5
358.27056	2
359.288	15
360.29068	4
361.27909	125
362.2825	37
363.29551	87
364.30225	25
365.30984	6
367.36891	2
369.25616	10
370.26221	4
371.26765	14
372.27493	4
375.29618	2
377.31436	2
387.25966	13
388.26286	3
389.27776	14
390.28193	4
391.28792	5
392.28885	2
393.31548	3
395.26916	9
396.30138	2
397.23926	7
398.25217	2
405.26889	13
406.27474	3
407.27704	999
408.28077	281
408.87465	1
409.27997	66
410.28691	6
411.2595	12
412.26703	4
421.28314	3
425.24231	5
426.23899	1
427.24551	19
428.25623	5
429.26222	27
430.26717	7
431.26729	2
439.30667	2
443.27439	2
449.24865	3
451.24259	2
461.27933	24
462.29124	7
463.29361	2
465.23552	8
466.2485	2
467.24244	3
475.26168	9
476.26477	3
483.26881	4
489.27809	2
492.25209	2
497.24956	3
499.15611	4
505.27198	6
506.27997	2
519.27533	3
527.24094	3
543.23689	4
544.24658	2
685.47822	3
815.54802	6
816.53317	3
837.51054	139
838.51319	76
839.52783	26
840.5314	8
841.53163	2
859.50773	16
860.5029	9
861.511	4
881.4859	6
882.4837	3
905.51897	2
927.49746	2
