Mass spectrum: 3b,6a,12a-Trihydroxy-5b-cholan-24-oic acid; LC-ESI-TOF; MS; Orifice voltage -90 V; Negative; In-suorce decay
Name: 3b,6a,12a-Trihydroxy-5b-cholan-24-oic acid
Class: Natural Product; Bile acid
Formula: C24H40O5
Exact mass: 408.28757
SMILES: C[C@H](CCC(=O)O)[C@H]1CC[C@@H]2[C@@]1([C@H](C[C@H]3[C@H]2C[C@@H]([C@H]4[C@@]3(CC[C@@H](C4)O)C)O)O)C
InChI: InChI=1S/C24H40O5/c1-13(4-7-22(28)29)16-5-6-17-15-11-20(26)19-10-14(25)8-9-23(19,2)18(15)12-21(27)24(16,17)3/h13-21,25-27H,4-12H2,1-3H3,(H,28,29)/t13-,14+,15+,16-,17+,18+,19+,20+,21+,23-,24-/m1/s1
Instrument: JMS-T100LP, JEOL
Instrument type: LC-ESI-TOF
Ms type: MS
Ion mode: NEGATIVE
Ionization: ESI
m/z	relative intensity
61.46144	29
62.45495	50
69.4099	202
79.3078	131
81.25455	13
113.17256	36
127.04812	18
155.05171	15
248.96512	54
255.24184	9
345.28819	23
405.28263	11
407.28906	999
408.29265	280
409.29762	47
410.30301	6
429.27608	44
430.28003	11
449.30756	14
451.32422	8
461.30435	16
465.25826	15
543.27377	12
797.57086	12
815.58074	17
816.58395	10
837.5494	70
838.5534	37
839.56225	14
859.53974	9
