Mass spectrum: 1b,3a,7a,12a-Tetrahydroxy-5b-cholan-24-oic acid; LC-ESI-TOF; MS; Negative; Orifice voltage -60 V
Name: 1b,3a,7a,12a-Tetrahydroxy-5b-cholan-24-oic acid
Class: Natural Product; Bile acids
Formula: C24H40O6
Exact mass: 424.28249
SMILES: C[C@H](CCC(=O)O)[C@H]1CC[C@@H]2[C@@]1([C@H](C[C@H]3[C@H]2[C@@H](C[C@H]4[C@@]3([C@@H](C[C@H](C4)O)O)C)O)O)C
InChI: InChI=1S/C24H40O6/c1-12(4-7-21(29)30)15-5-6-16-22-17(11-20(28)24(15,16)3)23(2)13(9-18(22)26)8-14(25)10-19(23)27/h12-20,22,25-28H,4-11H2,1-3H3,(H,29,30)/t12-,13+,14+,15-,16+,17+,18-,19-,20+,22+,23+,24-/m1/s1
Instrument: JMS-T100LP, JEOL
Instrument type: LC-ESI-TOF
Ms type: MS
Ion mode: NEGATIVE
Ionization: ESI
m/z	relative intensity
58.99639	10
61.97165	999
62.52046	5
68.98117	87
82.94078	7
92.9136	25
94.91288	14
98.94006	13
112.97219	11
325.19152	5
423.27625	133
424.27106	50
425.27919	8
437.28519	37
438.29632	11
439.27156	5
459.24388	336
460.25478	99
460.7733	5
461.24148	124
462.25458	31
465.28783	11
466.30536	3
473.26687	75
474.25458	13
475.25616	21
476.27167	7
481.23616	21
482.23215	6
483.24212	7
486.26538	9
501.28556	25
502.24925	8
503.26674	9
508.27662	5
847.55632	71
848.56889	56
861.57971	57
862.566	34
863.57017	14
864.60959	6
869.55535	6
875.6135	12
876.59034	9
883.53104	29
884.56487	17
885.54668	22
889.62001	3
897.56516	14
898.55416	9
899.52603	9
905.56336	5
