Mass spectrum: 2-{[(3alpha,5beta,7beta)-3,7-Dihydroxy-24-oxocholan-24-yl]amino}ethanesulfonic acid; LC-ESI-TOF; MS; NEGATIVE; In source decay -30 V
Name: 2-{[(3alpha,5beta,7beta)-3,7-Dihydroxy-24-oxocholan-24-yl]amino}ethanesulfonic acid
Name: Tauro 3a,7b-(OH)2-5b-cholanic acid
Class: Natural Product; Bile acids
Formula: C26H45NO6S
Exact mass: 499.29676
SMILES: O=S(=O)(O)CCNC(=O)CC[C@@H](C)[C@H]1CC[C@H]2[C@H]3[C@H](CC[C@]12C)[C@@]4(C)CC[C@@H](O)C[C@H]4C[C@@H]3O
InChI: InChI=1S/C26H45NO6S/c1-16(4-7-23(30)27-12-13-34(31,32)33)19-5-6-20-24-21(9-11-26(19,20)3)25(2)10-8-18(28)14-17(25)15-22(24)29/h16-22,24,28-29H,4-15H2,1-3H3,(H,27,30)(H,31,32,33)/t16-,17+,18-,19-,20+,21+,22+,24+,25+,26-/m1/s1
Instrument: JMS-T100LP, JEOL
Instrument type: LC-ESI-TOF
Ms type: MS
Ion mode: NEGATIVE
Ionization: ESI
m/z	relative intensity
61.95	70
65.76	31
68.96	106
74.97	60
89.00	76
90.97	51
123.99	79
153.02	182
170.96	23
185.06	33
209.06	29
212.07	45
263.72	24
317.02	68
325.21	44
435.15	26
473.73	45
475.06	31
498.29	999
499.29	312
558.26	25
561.79	28
566.29	25
626.31	31
713.27	43
729.66	53
742.32	21
780.34	65
813.95	31
817.24	27
872.58	25
951.27	74
959.78	25
965.55	61
980.57	37
984.40	20
