Mass spectrum: 3b,4a,12a-Trihydroxy-5b-cholan-24-oic acid; LC-ESI-TOF; MS; Negative; Orifice voltage -120 V
Name: 3b,4a,12a-Trihydroxy-5b-cholan-24-oic acid
Class: Natural Product; Bile acid
Formula: C24H40O5
Exact mass: 408.28757
SMILES: O=C(O)CC[C@@H](C)C2CCC1C3CC[C@@H]4[C@H](O)[C@@H](O)CC[C@]4(C)C3C[C@H](O)[C@@]12C
InChI: InChI=1S/C24H40O5/c1-13(4-9-21(27)28)15-7-8-16-14-5-6-17-22(29)19(25)10-11-23(17,2)18(14)12-20(26)24(15,16)3/h13-20,22,25-26,29H,4-12H2,1-3H3,(H,27,28)/t13-,14?,15?,16?,17-,18?,19+,20+,22+,23+,24-/m1/s1
Instrument: JMS-T100LP, JEOL
Instrument type: LC-ESI-TOF
Ms type: MS
Ion mode: NEGATIVE
Ionization: ESI
m/z	relative intensity
57.24956	7
58.21829	5
59.22326	31
62.19027	13
63.16311	2
64.15931	4
69.21796	22
71.22903	2
73.20377	5
79.11985	19
80.11685	4
81.07341	2
83.20198	3
85.17733	4
95.18009	3
97.08768	4
97.19165	2
99.20499	19
100.20788	1
105.18633	2
109.1733	1
113.08902	19
123.17292	7
127.09008	2
129.10385	1
143.07481	2
153.19057	1
167.04913	2
177.17759	13
178.18214	2
181.02389	1
183.05867	15
184.06625	3
185.05566	1
203.18195	3
205.19379	5
207.20963	2
221.22104	3
231.20373	2
233.20721	4
248.98904	6
250.17411	1
255.25815	3
261.24569	4
271.22799	4
273.24204	2
283.2853	3
285.24274	1
287.24739	2
293.24376	1
295.23469	2
297.24295	6
298.24057	1
299.23827	4
301.25912	2
303.28571	6
304.28828	1
305.29975	3
309.24773	5
311.24394	10
312.25256	2
313.2639	26
314.26889	7
315.25636	34
316.26227	9
317.27207	8
318.27649	2
323.25188	4
325.26452	23
326.26184	6
327.26451	25
328.2739	6
329.26144	29
330.26897	8
331.27274	116
332.28011	33
333.28901	14
334.29537	3
335.28677	2
337.22777	3
339.2293	7
340.23522	2
341.2591	18
342.26416	5
343.27221	49
344.27571	12
345.28636	35
346.28814	9
347.30432	3
351.24206	2
353.25865	7
354.25872	2
355.24206	4
357.25591	6
358.27041	1
359.28578	11
360.28796	3
361.27912	77
362.28322	23
363.29561	64
364.30269	18
365.30962	4
367.27804	5
369.25415	8
370.25825	3
371.26619	20
372.27453	6
373.27232	2
375.29183	5
376.30331	1
377.31243	8
378.31386	2
387.25867	14
388.26504	3
389.27063	94
390.2767	27
391.27718	6
393.30854	2
395.26679	4
397.24287	3
403.26188	4
405.26497	37
406.26984	9
407.27708	999
408.28061	283
409.28204	57
410.29545	4
411.26332	4
412.26916	1
421.28557	7
422.30025	1
423.28564	2
425.24581	6
426.24364	1
427.24637	8
428.25436	2
429.25967	24
430.26575	7
431.27556	2
435.28063	4
443.26444	2
449.28307	74
450.29	24
451.2934	5
452.27952	2
457.26099	2
461.2808	5
462.29728	2
465.26176	7
466.27567	2
467.26753	2
471.27224	3
475.26142	9
476.26508	3
479.33189	13
480.33853	5
481.32023	2
483.2691	1
489.27723	5
491.29668	2
497.26156	2
503.25876	9
504.25291	2
505.27184	3
517.27455	2
521.32142	2
543.25493	3
797.52219	11
798.53445	6
799.53045	2
815.54108	10
816.52835	6
817.54676	3
837.51036	112
838.51245	61
839.5278	23
840.53286	7
841.51802	2
857.54243	3
858.54277	2
859.51459	9
860.50605	5
861.51554	2
879.53182	21
880.52592	12
881.51993	7
882.52489	2
905.51837	2
909.57407	2
921.53604	2
