Mass spectrum: 2b,3a,7a-Trihydroxy-5b-cholan-24-oic acid; LC-ESI-TOF; MS; Negative; Orifice voltage -30 V
Name: 2b,3a,7a-Trihydroxy-5b-cholan-24-oic acid
Name: LMST04010059
Class: Natural Product; Bile acids
Formula: C24H40O5
Exact mass: 408.28757
SMILES: C[C@H](CCC(=O)O)[C@H]1CC[C@@H]2[C@@]1(CC[C@H]3[C@H]2[C@@H](C[C@H]4[C@@]3(C[C@@H]([C@H](C4)O)O)C)O)C
InChI: InChI=1S/C24H40O5/c1-13(4-7-21(28)29)15-5-6-16-22-17(8-9-23(15,16)2)24(3)12-20(27)18(25)10-14(24)11-19(22)26/h13-20,22,25-27H,4-12H2,1-3H3,(H,28,29)/t13-,14+,15-,16+,17+,18+,19-,20+,22+,23-,24+/m1/s1
Instrument: JMS-T100LP, JEOL
Instrument type: LC-ESI-TOF
Ms type: MS
Ion mode: NEGATIVE
Ionization: ESI
m/z	relative intensity
59.04782	66
62.02074	129
69.02505	283
75.03651	950
75.55265	10
76.03975	27
85.01055	79
89.04349	17
93.05069	24
112.99845	999
113.63186	5
114.00269	21
115.00507	11
121.04026	20
123.0188	15
129.02402	22
162.98479	17
173.00437	11
178.97673	13
212.0727	152
213.07799	23
227.01084	18
255.22994	20
407.27795	371
407.77763	42
408.27761	98
409.27849	15
439.30641	243
440.30751	72
441.32212	13
505.2759	39
506.28318	12
611.42071	19
815.56305	30
816.57311	17
837.53634	23
838.52577	13
