Mass spectrum: 2b,3a-Dihydroxy-5b-cholan-24-oic acid; LC-ESI-TOF; MS; Negative; Orifice voltage -30 V
Name: 2b,3a-Dihydroxy-5b-cholan-24-oic acid
Name: LMST04010021
Class: Natural Product; Bile acids
Formula: C24H40O4
Exact mass: 392.29266
SMILES: C[C@H](CCC(=O)O)[C@H]1CC[C@@H]2[C@@]1(CC[C@H]3[C@H]2CC[C@H]4[C@@]3(C[C@@H]([C@H](C4)O)O)C)C
InChI: InChI=1S/C24H40O4/c1-14(4-9-22(27)28)17-7-8-18-16-6-5-15-12-20(25)21(26)13-24(15,3)19(16)10-11-23(17,18)2/h14-21,25-26H,4-13H2,1-3H3,(H,27,28)/t14-,15-,16+,17-,18+,19+,20+,21+,23-,24+/m1/s1
Instrument: JMS-T100LP, JEOL
Instrument type: LC-ESI-TOF
Ms type: MS
Ion mode: NEGATIVE
Ionization: ESI
m/z	relative intensity
59.04919	59
62.02218	83
69.02666	264
73.05677	12
75.03314	739
75.54928	6
76.03638	22
85.01252	76
89.04555	17
91.04096	16
93.05284	16
110.98726	20
113.00106	999
113.63449	5
113.99904	21
115.00141	10
119.0034	11
123.02165	13
129.027	19
162.98856	19
178.97298	18
212.06901	78
213.0743	14
226.98055	27
255.23583	15
391.28413	313
392.28734	89
393.29183	15
423.30802	92
424.31502	30
489.28092	21
587.42643	12
783.57239	25
784.57898	13
