Mass spectrum: 3b,6a-(OH)2-5a-cholanic acid; LC-ESI-TOF; MS; NEGATIVE; In source decay -120 V
Name: 3b,6a-(OH)2-5a-cholanic acid
Name: 3b,6a-Dihydroxy-5a-cholan-24-oic Acid
Class: Natural Product; Bile acids
Formula: C24H40O4
Exact mass: 392.29266
SMILES: C(C1(C)4)([H])(C(C)CCC(O)=O)CCC1(C(C3([H])CC4)([H])CC(C(C3(C)2)([H])CC(O)CC2)O)[H]
InChI: InChI=1S/C24H40O4/c1-14(4-7-22(27)28)17-5-6-18-16-13-21(26)20-12-15(25)8-10-24(20,3)19(16)9-11-23(17,18)2/h14-21,25-26H,4-13H2,1-3H3,(H,27,28)/t14-,15+,16+,17-,18+,19+,20-,21+,23-,24-/m1/s1
Instrument: JMS-T100LP, JEOL
Instrument type: LC-ESI-TOF
Ms type: MS
Ion mode: NEGATIVE
Ionization: ESI
m/z	relative intensity
79.95	38
96.96	117
391.29	999
392.30	305
393.33	60
423.34	51
427.28	72
429.30	29
449.26	52
450.30	21
451.27	22
454.31	38
783.62	73
784.62	42
791.87	26
805.60	72
806.60	39
812.61	25
