Mass spectrum: 3a,6a-Dihydroxy-5b-cholan-24-oic acid; LC-ESI-TOF; MS; Negative; Orifice voltage -30 V
Name: 3a,6a-Dihydroxy-5b-cholan-24-oic acid
Class: Natural Product; Bile acid
Formula: C24H40O4
Exact mass: 392.29266
SMILES: C[C@H](CCC(=O)O)[C@H]1CC[C@@H]2[C@@]1(CC[C@H]3[C@H]2C[C@@H]([C@H]4[C@@]3(CC[C@H](C4)O)C)O)C
InChI: InChI=1S/C24H40O4/c1-14(4-7-22(27)28)17-5-6-18-16-13-21(26)20-12-15(25)8-10-24(20,3)19(16)9-11-23(17,18)2/h14-21,25-26H,4-13H2,1-3H3,(H,27,28)/t14-,15-,16+,17-,18+,19+,20+,21+,23-,24-/m1/s1
Instrument: JMS-T100LP, JEOL
Instrument type: LC-ESI-TOF
Ms type: MS
Ion mode: NEGATIVE
Ionization: ESI
m/z	relative intensity
50.96323	1
58.95952	19
60.93956	2
61.93503	46
62.99299	2
68.94742	263
69.9521	4
72.96293	4
74.96443	408
75.96876	11
76.97128	3
78.87721	2
80.8758	2
84.98789	27
88.98741	6
93.00058	5
96.92808	2
98.97457	2
99.96977	2
107.00956	2
110.95216	2
112.96142	999
113.16574	3
113.2303	9
113.62102	8
113.96457	18
114.96633	5
117.03078	2
118.97103	3
121.00886	3
122.99198	4
128.9969	11
137.0106	3
144.98932	3
157.11239	2
162.97376	4
166.9841	13
172.99879	5
178.96751	3
181.96365	2
183.0171	3
194.98239	3
199.01602	2
205.15509	2
210.98441	5
212.06995	27
213.07171	4
214.07033	2
227.00138	10
227.19407	3
228.97211	2
244.98666	2
248.95718	25
255.23292	4
264.99699	2
271.00252	3
281.02031	3
294.99302	2
325.01624	2
391.282	11
392.29064	3
423.01641	2
423.31612	4
