Mass spectrum: 1b,3a-Dihydroxy-5b-cholan-24-oic acid; LC-ESI-TOF; MS; Negative; Orifice voltage -120 V
Name: 1b,3a-Dihydroxy-5b-cholan-24-oic acid
Name: (1b,3a,5b)-1,3-Dihydroxycholan-24-oic acid
Name: LMST04010020
Class: Natural Product; Bile acids
Formula: C24H40O4
Exact mass: 392.29266
SMILES: O=C(O)CC[C@H]([C@H]1CC[C@@H]2[C@]1(C)CC[C@H]4[C@H]2CC[C@@H]3C[C@H](O)C[C@@H](O)[C@@]34C)C
InChI: InChI=1S/C24H40O4/c1-14(4-9-22(27)28)18-7-8-19-17-6-5-15-12-16(25)13-21(26)24(15,3)20(17)10-11-23(18,19)2/h14-21,25-26H,4-13H2,1-3H3,(H,27,28)/t14-,15-,16+,17+,18-,19+,20+,21-,23-,24+/m1/s1
Instrument: JMS-T100LP, JEOL
Instrument type: LC-ESI-TOF
Ms type: MS
Ion mode: NEGATIVE
Ionization: ESI
m/z	relative intensity
61.97161	48
78.90044	5
80.90268	5
96.94497	10
345.23696	4
373.26879	8
389.28631	13
391.27719	999
392.28037	303
393.29652	50
394.30228	5
395.27418	3
407.30374	4
423.30024	106
424.30722	37
425.32755	5
427.26223	8
435.30306	3
449.23317	10
783.59606	30
784.60271	16
785.59348	4
805.57367	39
806.5776	35
