Mass spectrum: 3b,6a,7a-Trihydroxy-5b-cholan-24-oic acid; LC-ESI-TOF; MS; Orifice voltage -150 V; Negative; In-suorce decay
Name: 3b,6a,7a-Trihydroxy-5b-cholan-24-oic acid
Class: Natural Product; Bile acid
Formula: C24H40O5
Exact mass: 408.28757
SMILES: C[C@H](CCC(=O)O)[C@H]1CC[C@@H]2[C@@]1(CC[C@H]3[C@H]2[C@@H]([C@@H]([C@H]4[C@@]3(CC[C@@H](C4)O)C)O)O)C
InChI: InChI=1S/C24H40O5/c1-13(4-7-19(26)27)15-5-6-16-20-17(9-11-23(15,16)2)24(3)10-8-14(25)12-18(24)21(28)22(20)29/h13-18,20-22,25,28-29H,4-12H2,1-3H3,(H,26,27)/t13-,14+,15-,16+,17+,18+,20+,21-,22+,23-,24-/m1/s1
Instrument: JMS-T100LP, JEOL
Instrument type: LC-ESI-TOF
Ms type: MS
Ion mode: NEGATIVE
Ionization: ESI
m/z	relative intensity
58.0218	41
59.02922	26
59.58959	7
59.7708	7
59.98718	3
62.97685	500
63.45618	3
63.97656	14
64.71911	4
66.98184	3
69.00805	117
70.01126	6
73.68528	3
78.96609	999
79.51132	7
79.96611	29
80.92383	122
82.31252	6
82.83889	4
85.03412	33
89.02985	25
99.01643	14
103.98087	4
125.94782	6
126.52976	6
126.90591	304
127.61533	9
128.01554	4
129.01602	22
132.09282	1
132.9697	3
138.06235	3
143.03745	22
153.03147	56
154.97286	106
166.99363	140
173.00874	14
177.80695	4
183.01457	26
183.60203	7
187.00468	42
194.99772	20
200.03306	7
203.90521	3
207.04279	6
207.77683	4
210.9902	28
235.16916	28
249.96777	54
250.97868	12
255.23462	14
261.90394	4
262.88542	10
265.00518	12
289.01102	6
297.20927	6
302.97266	16
307.20733	4
315.23044	7
317.20786	9
326.27645	3
335.22502	3
337.22898	4
339.22127	10
346.96889	6
347.99871	6
351.2231	9
353.24745	17
355.23269	10
