Mass spectrum: 2b,3a-Dihydroxy-5b-cholan-24-oic acid; LC-ESI-TOF; MS; Negative; Orifice voltage -120 V
Name: 2b,3a-Dihydroxy-5b-cholan-24-oic acid
Name: LMST04010021
Class: Natural Product; Bile acids
Formula: C24H40O4
Exact mass: 392.29266
SMILES: C[C@H](CCC(=O)O)[C@H]1CC[C@@H]2[C@@]1(CC[C@H]3[C@H]2CC[C@H]4[C@@]3(C[C@@H]([C@H](C4)O)O)C)C
InChI: InChI=1S/C24H40O4/c1-14(4-9-22(27)28)17-7-8-18-16-6-5-15-12-20(25)21(26)13-24(15,3)19(16)10-11-23(17,18)2/h14-21,25-26H,4-13H2,1-3H3,(H,27,28)/t14-,15-,16+,17-,18+,19+,20+,21+,23-,24+/m1/s1
Instrument: JMS-T100LP, JEOL
Instrument type: LC-ESI-TOF
Ms type: MS
Ion mode: NEGATIVE
Ionization: ESI
m/z	relative intensity
60.00348	26
62.02251	78
63.99491	35
65.0022	15
69.02702	10
78.93996	17
79.97948	26
80.94101	14
85.04555	12
95.96814	11
96.97489	9
99.02175	6
112.99539	18
373.27718	7
381.24414	48
382.25745	12
389.27197	10
391.28617	999
392.28938	285
393.29387	55
394.28795	5
411.24773	58
412.25227	17
413.27	17
423.31022	184
424.31723	58
425.32543	11
445.29289	25
485.28959	10
805.55292	41
806.55679	22
827.5279	8
