Mass spectrum: 6-Oxo-5b-cholan-24-oic Acid; LC-ESI-TOF; MS; NEGATIVE; in source decay -60 V
Name: 6-Oxo-5b-cholan-24-oic Acid
Name: 6-Oxo-5b-cholanic acid
Class: Natural Product; Bile acids
Formula: C24H38O3
Exact mass: 374.28210
SMILES: C(C3(C)4)([H])(CCCC4)C(=O)CC(C3([H])2)(C(C1(C)CC2)([H])CCC1([H])C(C)CCC(O)=O)[H]
InChI: InChI=1S/C24H38O3/c1-15(7-10-22(26)27)17-8-9-18-16-14-21(25)20-6-4-5-12-23(20,2)19(16)11-13-24(17,18)3/h15-20H,4-14H2,1-3H3,(H,26,27)/t15-,16+,17-,18+,19+,20+,23-,24-/m1/s1
Instrument: JMS-T100LP, JEOL
Instrument type: LC-ESI-TOF
Ms type: MS
Ion mode: NEGATIVE
Ionization: ESI
m/z	relative intensity
61.98	239
68.99	692
89.02	206
96.96	60
112.98	127
212.08	95
373.27	999
374.28	284
375.29	50
405.31	49
747.56	502
748.56	262
749.56	96
769.57	22
