Mass spectrum: 3b,4b-Dihydroxy-5b-cholan-24-oic acid; LC-ESI-TOF; MS; NEGATIVE; Orifice voltage -60 V
Name: 3b,4b-Dihydroxy-5b-cholan-24-oic acid
Class: Natural Product; Bile acids
Formula: C24H40O4
Exact mass: 392.29266
SMILES: C[C@H](CCC(=O)O)[C@H]1CC[C@@H]2[C@@]1(CC[C@H]3[C@H]2CC[C@H]4[C@@]3(CC[C@@H]([C@@H]4O)O)C)C
InChI: InChI=1S/C24H40O4/c1-14(4-9-21(26)27)16-7-8-17-15-5-6-19-22(28)20(25)11-13-24(19,3)18(15)10-12-23(16,17)2/h14-20,22,25,28H,4-13H2,1-3H3,(H,26,27)/t14-,15+,16-,17+,18+,19-,20+,22-,23-,24-/m1/s1
Instrument: JMS-T100LP, JEOL
Instrument type: LC-ESI-TOF
Ms type: MS
Ion mode: NEGATIVE
Ionization: ESI
m/z	relative intensity
58.97964	27
61.95466	205
68.96582	88
78.89135	999
79.1114	7
79.45128	4
79.53316	1
80.88993	997
81.06142	2
81.14336	4
81.40132	1
81.49134	3
87.02316	2
89.00299	13
98.93082	2
110.96749	2
112.97405	10
115.06719	2
126.89452	9
128.02493	2
136.86587	5
138.86424	5
157.12203	4
180.82576	7
182.82169	18
184.8173	8
212.07952	6
227.20191	2
255.24213	4
297.16304	5
311.16797	15
312.17622	2
325.19319	15
325.48612	2
326.19875	4
339.21077	12
340.21094	1
391.28529	130
392.28844	52
393.03209	1
393.30932	8
423.32172	6
427.26838	43
428.27409	11
429.27785	16
430.28684	2
449.25566	4
451.25798	2
471.22271	28
471.68336	1
472.23246	8
473.21654	29
474.22441	7
493.21946	8
494.21454	1
495.2046	6
496.2271	3
783.59454	102
784.60061	60
785.59661	33
805.59902	2
819.59073	2
863.53927	3
865.53628	3
