Mass spectrum: N-[(3a,5b,12a)-12-Hydroxy-24-oxo-3-(sulfooxy)cholan-24-yl]glycine; LC-ESI-TOF; MS; NEGATIVE; In-source decay -60 V
Name: N-[(3a,5b,12a)-12-Hydroxy-24-oxo-3-(sulfooxy)cholan-24-yl]glycine
Class: Natural Product; Bile acids
Formula: C26H43NO8S
Exact mass: 529.27093
SMILES: C1C[C@@H](OS(=O)(=O)O)C[C@@]2([H])CC[C@@]3([H])[C@]4([H])CC[C@]([H])([C@H](C)CCC(=O)NCC(=O)O)[C@@]4(C)[C@@H](O)C[C@]3([H])[C@@]12C
InChI: InChI=1S/C26H43NO8S/c1-15(4-9-23(29)27-14-24(30)31)19-7-8-20-18-6-5-16-12-17(35-36(32,33)34)10-11-25(16,2)21(18)13-22(28)26(19,20)3/h15-22,28H,4-14H2,1-3H3,(H,27,29)(H,30,31)(H,32,33,34)/t15-,16-,17-,18+,19-,20+,21+,22+,25+,26-/m1/s1
Instrument: JMS-T100LP, JEOL
Instrument type: LC-ESI-TOF
Ms type: MS
Ion mode: NEGATIVE
Ionization: ESI
m/z	relative intensity
61.97	119
68.98	41
74.01	219
96.95	66
263.62	214
264.12	64
264.63	25
453.23	169
454.24	58
528.26	999
529.26	304
530.26	101
531.28	23
550.24	162
551.25	51
552.26	21
