Mass spectrum: 2b,3a-Dihydroxy-5b-cholan-24-oic acid; LC-ESI-TOF; MS; Negative; Orifice voltage -90 V
Name: 2b,3a-Dihydroxy-5b-cholan-24-oic acid
Name: LMST04010021
Class: Natural Product; Bile acids
Formula: C24H40O4
Exact mass: 392.29266
SMILES: C[C@H](CCC(=O)O)[C@H]1CC[C@@H]2[C@@]1(CC[C@H]3[C@H]2CC[C@H]4[C@@]3(C[C@@H]([C@H](C4)O)O)C)C
InChI: InChI=1S/C24H40O4/c1-14(4-9-22(27)28)17-7-8-18-16-6-5-15-12-20(25)21(26)13-24(15,3)19(16)10-11-23(17,18)2/h14-21,25-26H,4-13H2,1-3H3,(H,27,28)/t14-,15-,16+,17-,18+,19+,20+,21+,23-,24+/m1/s1
Instrument: JMS-T100LP, JEOL
Instrument type: LC-ESI-TOF
Ms type: MS
Ion mode: NEGATIVE
Ionization: ESI
m/z	relative intensity
61.01111	15
62.02251	129
63.99491	17
65.0022	23
69.02702	107
78.93996	11
79.97948	18
80.94101	7
85.04555	24
93.05333	21
99.02175	7
110.98784	12
113.00165	14
141.00613	17
205.15872	11
212.0787	37
255.22774	24
283.26224	11
336.32341	12
381.3247	11
391.28617	999
392.28938	283
393.29387	52
411.25969	14
413.27	24
423.31022	205
424.31723	65
425.31328	11
445.29289	45
446.3008	13
467.27124	10
783.57646	30
784.56655	16
805.55292	26
806.55679	13
