Mass spectrum: 3a,6b,7b-Trihydroxy-5b-cholan-24-oic acid; LC-ESI-TOF; MS; Orifice voltage -90 V; Negative; In-suorce decay
Name: 3a,6b,7b-Trihydroxy-5b-cholan-24-oic acid
Name: beta-Muricholic acid
Class: Natural Product; Bile acid
Formula: C24H40O5
Exact mass: 408.28757
SMILES: C[C@H](CCC(=O)O)[C@H]1CC[C@@H]2[C@@]1(CC[C@H]3[C@H]2[C@H]([C@H]([C@H]4[C@@]3(CC[C@H](C4)O)C)O)O)C
InChI: InChI=1S/C24H40O5/c1-13(4-7-19(26)27)15-5-6-16-20-17(9-11-23(15,16)2)24(3)10-8-14(25)12-18(24)21(28)22(20)29/h13-18,20-22,25,28-29H,4-12H2,1-3H3,(H,26,27)/t13-,14-,15-,16+,17+,18+,20+,21+,22-,23-,24-/m1/s1
Instrument: JMS-T100LP, JEOL
Instrument type: LC-ESI-TOF
Ms type: MS
Ion mode: NEGATIVE
Ionization: ESI
m/z	relative intensity
61.00116	40
62.00199	89
69.006	262
78.96637	190
80.92384	14
85.034	7
112.9873	53
126.90668	23
154.9731	23
166.99424	11
187.00505	9
248.958	72
255.23467	12
283.26794	8
384.93979	8
407.27782	999
408.28138	279
409.28875	50
410.29726	7
427.24925	10
429.26521	45
430.26758	13
439.30473	180
440.31288	54
441.31773	8
461.2904	47
462.29904	14
465.24448	18
467.2481	7
489.28821	9
543.25754	16
544.26947	5
583.31141	15
815.56929	37
816.57928	20
817.59448	7
837.5511	91
838.55677	50
839.55668	18
859.55197	10
860.55612	6
