Mass spectrum: 7,12-Dioxo-5b-cholan-24-oic acid; LC-ESI-TOF; MS; NEGATIVE; in source decay -120 V
Name: 7,12-Dioxo-5b-cholan-24-oic acid
Class: Natural Product; Bile acids
Formula: C24H36O4
Exact mass: 388.26135
SMILES: CC(CCC(=O)O)C1CCC2C1(C(=O)CC3C2C(=O)CC4C3(CCCC4)C)C
InChI: InChI=1S/C24H36O4/c1-14(7-10-21(27)28)16-8-9-17-22-18(13-20(26)24(16,17)3)23(2)11-5-4-6-15(23)12-19(22)25/h14-18,22H,4-13H2,1-3H3,(H,27,28)/t14-,15+,16-,17+,18+,22+,23+,24-/m1/s1
Instrument: JMS-T100LP, JEOL
Instrument type: LC-ESI-TOF
Ms type: MS
Ion mode: NEGATIVE
Ionization: ESI
m/z	relative intensity
61.97	86
69.02	28
71.04	23
79.94	74
96.95	42
112.98	34
301.26	38
325.25	47
343.26	25
345.25	22
369.24	123
370.24	43
387.25	999
388.25	279
389.27	49
409.25	30
419.29	27
423.24	25
775.53	102
776.54	62
797.49	87
798.52	47
