Mass spectrum: 3a,6a,7b-(OH)3-5a-cholanic acid; LC-ESI-TOF; MS; NEGATIVE; In source decay -120 V
Name: 3a,6a,7b-(OH)3-5a-cholanic acid
Name: 3a,6a,7b-Trihydroxy-5a-cholan-24-oic Acid
Class: Natural Product; Bile acids
Formula: C24H40O5
Exact mass: 408.28757
SMILES: C(C32[H])(O)C(C(C(C2([H])CCC(C([H])(C(C)CCC(O)=O)4)(C3([H])CC4)C)(C)1)([H])CC(O)CC1)O
InChI: InChI=1S/C24H40O5/c1-13(4-7-19(26)27)15-5-6-16-20-17(9-11-23(15,16)2)24(3)10-8-14(25)12-18(24)21(28)22(20)29/h13-18,20-22,25,28-29H,4-12H2,1-3H3,(H,26,27)/t13-,14-,15-,16+,17+,18-,20+,21-,22-,23-,24-/m1/s1
Instrument: JMS-T100LP, JEOL
Instrument type: LC-ESI-TOF
Ms type: MS
Ion mode: NEGATIVE
Ionization: ESI
m/z	relative intensity
61.99	539
79.96	119
96.96	541
102.58	52
183.01	244
284.75	60
311.17	96
315.51	81
321.25	54
325.19	115
329.28	57
336.17	56
339.22	112
354.27	62
405.17	58
407.27	999
443.26	98
456.67	58
461.41	109
465.25	132
486.90	181
507.59	55
514.36	127
520.97	85
533.65	72
547.19	70
585.49	64
617.02	59
639.54	173
665.79	57
684.09	125
703.04	81
716.42	77
719.15	52
729.59	54
732.58	109
739.62	62
748.87	229
753.06	53
754.39	73
761.37	55
766.65	91
768.56	103
777.18	50
792.05	158
803.74	61
809.11	60
815.58	59
819.38	91
827.70	66
837.59	66
867.60	71
873.63	55
887.59	83
922.50	75
945.20	162
962.49	51
967.42	54
974.20	75
986.12	57
