Mass spectrum: 3a,6b,7b-Trihydroxy-5b-cholan-24-oic acid; LC-ESI-TOF; MS; Orifice voltage -120 V; Negative; In-suorce decay
Name: 3a,6b,7b-Trihydroxy-5b-cholan-24-oic acid
Name: beta-Muricholic acid
Class: Natural Product; Bile acid
Formula: C24H40O5
Exact mass: 408.28757
SMILES: C[C@H](CCC(=O)O)[C@H]1CC[C@@H]2[C@@]1(CC[C@H]3[C@H]2[C@H]([C@H]([C@H]4[C@@]3(CC[C@H](C4)O)C)O)O)C
InChI: InChI=1S/C24H40O5/c1-13(4-7-19(26)27)15-5-6-16-20-17(9-11-23(15,16)2)24(3)10-8-14(25)12-18(24)21(28)22(20)29/h13-18,20-22,25,28-29H,4-12H2,1-3H3,(H,26,27)/t13-,14-,15-,16+,17+,18+,20+,21+,22-,23-,24-/m1/s1
Instrument: JMS-T100LP, JEOL
Instrument type: LC-ESI-TOF
Ms type: MS
Ion mode: NEGATIVE
Ionization: ESI
m/z	relative intensity
61.00107	8
62.00209	48
62.97732	23
69.00687	46
78.96618	264
79.96835	8
80.92444	24
85.03268	8
89.02972	8
96.96524	7
112.98696	55
126.90667	34
143.03344	6
153.02926	14
154.97058	19
166.99357	18
173.00898	6
187.00929	10
197.96385	6
248.95741	152
249.96546	8
371.26316	28
372.26531	8
381.24796	9
384.94288	16
389.27783	18
397.23832	15
405.27324	7
407.27715	999
408.2818	281
409.28413	61
410.27816	9
411.26112	6
413.27076	9
427.2506	46
428.25842	13
429.26713	43
430.26654	10
439.30492	168
440.3127	49
441.30966	11
449.26481	7
461.29082	38
462.29904	11
465.24222	21
466.24695	6
467.25027	8
481.2597	8
519.30454	6
520.91807	7
583.31019	15
837.5494	159
838.55492	86
839.55445	31
840.57589	8
859.54284	19
860.54668	10
881.52767	10
