Mass spectrum: 3a,6b,7a,12a-Tetrahydroxy-5b-cholan-24-oic acid; LC-ESI-TOF; MS; Orifice voltage -90 V; Negative; In-suorce decay
Name: 3a,6b,7a,12a-Tetrahydroxy-5b-cholan-24-oic acid
Class: Natural Product; Bile acid
Formula: C24H40O6
Exact mass: 424.28249
SMILES: C[C@H](CCC(=O)O)[C@H]1CC[C@@H]2[C@@]1([C@H](C[C@H]3[C@H]2[C@@H]([C@H]([C@H]4[C@@]3(CC[C@H](C4)O)C)O)O)O)C
InChI: InChI=1S/C24H40O6/c1-12(4-7-19(27)28)14-5-6-15-20-16(11-18(26)24(14,15)3)23(2)9-8-13(25)10-17(23)21(29)22(20)30/h12-18,20-22,25-26,29-30H,4-11H2,1-3H3,(H,27,28)/t12-,13-,14-,15+,16+,17+,18+,20+,21+,22+,23-,24-/m1/s1
Instrument: JMS-T100LP, JEOL
Instrument type: LC-ESI-TOF
Ms type: MS
Ion mode: NEGATIVE
Ionization: ESI
m/z	relative intensity
61.9803	845
62.98349	5
63.98923	7
68.9919	14
78.92169	5
79.9548	11
80.91275	2
89.0211	12
93.03979	4
96.95678	23
98.9466	9
128.03184	13
146.96876	2
183.01753	6
207.03718	3
227.20366	5
250.15226	6
255.24583	21
257.22361	2
260.98637	3
265.16085	8
281.2487	8
283.27151	18
284.29241	2
297.16162	15
298.1985	4
309.19528	7
311.16932	68
312.1769	9
313.20366	5
325.19204	53
326.20262	11
327.23029	4
329.29009	2
337.22597	5
339.21422	50
340.21335	9
341.23926	4
353.2148	5
377.28641	7
381.28342	3
421.27103	17
422.2945	7
423.26725	999
423.8686	7
424.27902	301
425.28996	62
439.28129	2
455.31538	9
456.33333	3
457.30092	3
459.25661	131
460.2781	36
461.2517	41
462.26749	8
465.3218	2
466.51097	2
471.23427	2
481.24269	51
482.25462	12
483.2575	15
484.25955	6
486.27797	11
487.29047	3
490.74241	1
508.26275	14
535.29786	7
845.58062	2
847.56512	233
848.58915	132
849.58569	50
869.5803	45
870.56921	48
877.57772	1
881.08236	2
882.39038	2
883.57516	21
884.56947	13
885.56759	9
886.55971	5
893.61081	2
905.57133	8
927.50423	7
928.51447	4
929.5398	4
