Mass spectrum: 6b-Hydroxy-5b-cholan-24-oic acid; LC-ESI-TOF; MS; Negative; Orifice voltage -90 V
Name: 6b-Hydroxy-5b-cholan-24-oic acid
Class: Natural Product; Bile acid
Formula: C24H40O3
Exact mass: 376.29775
SMILES: C[C@H](CCC(=O)O)[C@H]1CC[C@@H]2[C@@]1(CC[C@H]3[C@H]2C[C@H]([C@H]4[C@@]3(CCCC4)C)O)C
InChI: InChI=1S/C24H40O3/c1-15(7-10-22(26)27)17-8-9-18-16-14-21(25)20-6-4-5-12-23(20,2)19(16)11-13-24(17,18)3/h15-21,25H,4-14H2,1-3H3,(H,26,27)/t15-,16+,17-,18+,19+,20+,21-,23-,24-/m1/s1
Instrument: JMS-T100LP, JEOL
Instrument type: LC-ESI-TOF
Ms type: MS
Ion mode: NEGATIVE
Ionization: ESI
m/z	relative intensity
60.93125	56
61.93545	465
62.93345	6
63.91114	46
64.91913	57
68.94769	525
72.9627	15
78.87712	107
79.91689	18
80.87609	103
84.98883	65
92.01564	12
93.00044	45
95.91926	11
96.92876	24
98.97519	15
110.95456	6
112.96149	92
118.97072	8
128.99827	9
136.02711	10
140.98621	40
142.98198	4
146.08403	8
148.10153	9
154.96214	19
156.00139	11
166.98599	19
172.99965	11
186.99805	5
193.03854	6
197.95964	8
205.15431	24
210.98223	11
212.07228	68
213.0735	11
219.17214	11
225.06867	4
227.00364	4
227.19764	18
235.02877	10
241.21622	14
247.05199	25
248.95949	59
253.21421	12
255.23203	69
256.2358	12
269.24468	11
281.24394	19
283.26552	28
297.24795	5
301.06171	7
309.24635	7
311.1673	7
325.1885	8
336.3322	7
339.20891	6
375.28773	999
376.2932	293
377.29947	51
378.30484	5
380.98225	9
384.93437	2
391.28408	9
407.31856	69
408.32226	21
409.08002	12
417.28506	10
427.28553	36
428.28685	13
429.30206	27
430.30467	6
430.97838	7
439.04222	3
451.28738	18
463.08991	6
480.97153	5
483.31077	10
485.29159	10
499.16712	4
505.08359	6
511.27882	7
530.30496	6
530.97751	5
537.32358	11
