Mass spectrum: 3b,4b,7a,12a-Tetrahydroxy-5b-cholan-24-oic acid; LC-ESI-TOF; MS; Negative; Orifice voltage -150 V
Name: 3b,4b,7a,12a-Tetrahydroxy-5b-cholan-24-oic acid
Class: Natural Product; Bile acid
Formula: C24H40O6
Exact mass: 424.28249
SMILES: C[C@H](CCC(=O)O)[C@H]1CC[C@@H]2[C@@]1([C@H](C[C@H]3[C@H]2[C@@H](C[C@H]4[C@@]3(CC[C@@H]([C@@H]4O)O)C)O)O)C
InChI: InChI=1S/C24H40O6/c1-12(4-7-20(28)29)13-5-6-14-21-15(11-19(27)24(13,14)3)23(2)9-8-17(25)22(30)16(23)10-18(21)26/h12-19,21-22,25-27,30H,4-11H2,1-3H3,(H,28,29)/t12-,13-,14+,15+,16-,17+,18-,19+,21+,22-,23-,24-/m1/s1
Instrument: JMS-T100LP, JEOL
Instrument type: LC-ESI-TOF
Ms type: MS
Ion mode: NEGATIVE
Ionization: ESI
m/z	relative intensity
61.97479	191
79.94349	346
80.95329	39
83.03488	28
96.94765	230
155.97735	82
183.01103	577
186.0051	78
247.92432	56
271.19997	12
277.36846	44
278.57704	48
283.20945	123
297.16312	23
301.26118	4
305.21225	51
311.16112	58
313.24375	23
321.23165	62
325.20486	93
339.21111	49
341.24388	58
343.26089	39
345.27289	21
347.24684	11
348.08197	34
357.24553	16
358.28221	16
359.25336	40
361.26682	35
369.27498	17
375.27877	27
378.27589	67
382.72475	154
387.246	21
390.74464	54
395.23086	86
398.22413	64
402.78845	40
405.26423	84
419.5174	63
423.27981	999
424.27463	363
435.18405	9
439.88072	83
444.62745	2
446.2693	14
459.24778	93
463.27273	43
470.49287	101
477.36959	70
481.24027	38
484.24432	3
486.28254	49
490.33266	10
492.12212	23
498.66752	43
504.68669	8
508.25441	31
514.10381	85
518.32162	67
529.44991	11
533.79815	15
543.48184	59
554.08461	66
557.62771	80
566.58397	76
569.94161	151
576.60176	88
579.33622	114
582.97327	45
596.59839	76
601.2136	93
608.75126	92
613.41316	68
617.03836	47
657.93795	92
680.39324	10
683.44039	11
711.39123	10
717.45583	127
721.45515	78
730.50622	55
731.54194	15
735.43643	55
740.72002	71
748.01986	56
749.47121	101
760.43372	128
771.80323	50
778.41548	81
783.42204	101
787.78287	51
796.07517	105
816.33903	86
827.37146	98
829.45783	40
836.00533	6
839.21189	175
847.56397	210
853.45913	77
869.58062	76
870.53671	51
875.72611	36
877.89	12
883.53911	42
890.43692	44
898.33277	10
900.45365	35
908.6779	31
911.66487	47
923.1961	62
927.51656	56
938.91251	44
946.58471	14
950.88679	14
959.3924	73
969.60507	76
986.20953	95
996.84261	47
