Mass spectrum: 3b,6b-Dihydroxy-5b-cholan-24-oic acid; LC-ESI-TOF; MS; Negative; Orifice voltage -150 V
Name: 3b,6b-Dihydroxy-5b-cholan-24-oic acid
Class: Natural Product; Bile acid
Formula: C24H40O4
Exact mass: 392.29266
SMILES: C[C@H](CCC(=O)O)[C@H]1CC[C@@H]2[C@@]1(CC[C@H]3[C@H]2C[C@H]([C@H]4[C@@]3(CC[C@@H](C4)O)C)O)C
InChI: InChI=1S/C24H40O4/c1-14(4-7-22(27)28)17-5-6-18-16-13-21(26)20-12-15(25)8-10-24(20,3)19(16)9-11-23(17,18)2/h14-21,25-26H,4-13H2,1-3H3,(H,27,28)/t14-,15+,16+,17-,18+,19+,20+,21-,23-,24-/m1/s1
Instrument: JMS-T100LP, JEOL
Instrument type: LC-ESI-TOF
Ms type: MS
Ion mode: NEGATIVE
Ionization: ESI
m/z	relative intensity
63.10738	114
64.10409	82
64.75668	7
73.13063	28
79.06854	321
80.06603	28
81.02276	38
82.77647	12
85.12611	23
88.08045	6
88.38825	5
89.11804	15
89.74553	5
93.12116	10
95.15052	5
100.07682	9
113.04493	298
113.68994	7
114.04968	10
146.66653	8
147.11944	6
149.03112	7
154.99787	153
155.49416	6
156.00231	6
164.59987	10
167.01138	147
168.00912	4
169.00371	5
170.95997	4
173.02444	15
180.98847	9
181.97769	19
183.02093	20
187.00981	65
191.71876	6
204.98422	11
210.98709	18
226.99465	19
245.64664	6
246.0915	8
248.95822	999
249.96543	59
250.97332	14
261.05646	6
281.23212	17
302.96732	26
330.96271	9
346.97309	8
384.93912	174
385.94014	13
387.25953	15
389.26659	17
391.28287	885
392.29119	268
393.2934	58
395.27237	6
400.97211	9
407.24095	10
408.22429	4
409.23579	323
410.2402	93
411.25296	223
412.25635	57
413.26903	12
414.27282	12
418.06661	5
423.31507	71
424.31548	17
425.29461	20
433.27576	38
438.94807	69
439.94276	4
451.23284	41
453.24627	37
454.24981	12
455.26378	12
463.24422	54
465.26334	15
473.24826	8
485.28916	13
486.28549	13
499.23229	10
505.25756	22
519.27675	11
520.9134	121
521.92546	12
527.26865	36
563.27856	7
571.27429	16
573.26996	7
574.92934	24
581.27277	19
625.3485	7
629.28495	12
649.52982	12
652.27109	5
656.89853	21
677.55825	12
710.9135	10
713.28884	6
729.55857	9
792.87087	6
799.22888	23
801.26382	8
802.3441	7
805.56466	166
806.57228	98
807.56878	30
808.57233	7
821.47318	4
825.53599	14
828.54091	15
829.54127	6
839.2516	7
847.52623	9
849.53442	9
853.22938	10
881.54998	21
882.55051	12
891.19504	7
935.16817	14
947.47286	6
973.03024	9
985.4685	10
987.27666	6
989.51877	5
