Mass spectrum: 2b,3a-Dihydroxy-5b-cholan-24-oic acid; LC-ESI-TOF; MS; Negative; Orifice voltage -60 V
Name: 2b,3a-Dihydroxy-5b-cholan-24-oic acid
Name: LMST04010021
Class: Natural Product; Bile acids
Formula: C24H40O4
Exact mass: 392.29266
SMILES: C[C@H](CCC(=O)O)[C@H]1CC[C@@H]2[C@@]1(CC[C@H]3[C@H]2CC[C@H]4[C@@]3(C[C@@H]([C@H](C4)O)O)C)C
InChI: InChI=1S/C24H40O4/c1-14(4-9-22(27)28)17-7-8-18-16-6-5-15-12-20(25)21(26)13-24(15,3)19(16)10-11-23(17,18)2/h14-21,25-26H,4-13H2,1-3H3,(H,27,28)/t14-,15-,16+,17-,18+,19+,20+,21+,23-,24+/m1/s1
Instrument: JMS-T100LP, JEOL
Instrument type: LC-ESI-TOF
Ms type: MS
Ion mode: NEGATIVE
Ionization: ESI
m/z	relative intensity
59.0495	36
62.02251	141
69.02702	999
69.57609	9
73.03199	15
80.94101	7
85.01296	123
91.04144	12
93.05333	29
110.98784	33
112.99539	112
119.00402	15
123.02229	15
154.98048	14
205.15872	12
212.07011	133
213.07541	19
227.20376	14
255.23715	29
336.32341	12
391.28617	688
392.28938	195
393.29387	35
413.27	11
423.31022	159
424.31723	50
445.29289	37
446.3008	11
783.57646	55
784.58306	31
805.55292	20
806.57352	11
