Mass spectrum: 3a-Sulfooxy-5b-cholanic acid; LC-ESI-TOF; MS; NEGATIVE; In source decay -120 V
Name: 3a-Sulfooxy-5b-cholanic acid
Name: (3a,5b)-3-(Sulfooxy)cholan-24-oic acid
Class: Natural Product; Bile acids
Formula: C24H40O6S
Exact mass: 456.25456
SMILES: C[C@H](CCC(=O)O)[C@H]1CC[C@@H]2[C@@]1(CC[C@H]3[C@H]2CC[C@H]4[C@@]3(CC[C@H](C4)OS(=O)(=O)O)C)C
InChI: InChI=1S/C24H40O6S/c1-15(4-9-22(25)26)19-7-8-20-18-6-5-16-14-17(30-31(27,28)29)10-12-23(16,2)21(18)11-13-24(19,20)3/h15-21H,4-14H2,1-3H3,(H,25,26)(H,27,28,29)/t15-,16-,17-,18+,19-,20+,21+,23+,24-/m1/s1
Instrument: JMS-T100LP, JEOL
Instrument type: LC-ESI-TOF
Ms type: MS
Ion mode: NEGATIVE
Ionization: ESI
m/z	relative intensity
81.90	35
98.91	86
183.00	32
244.94	39
301.27	46
320.09	25
381.25	29
392.62	21
455.24	999
457.25	77
477.22	69
570.62	33
652.67	47
669.23	33
679.19	22
687.86	23
709.82	21
779.80	51
794.62	25
873.41	27
933.50	80
