Mass spectrum: 3a,6b,7b-Trihydroxy-5b-cholan-24-oic acid; LC-ESI-TOF; MS; Orifice voltage -30 V; Negative; In-suorce decay
Name: 3a,6b,7b-Trihydroxy-5b-cholan-24-oic acid
Name: beta-Muricholic acid
Class: Natural Product; Bile acid
Formula: C24H40O5
Exact mass: 408.28757
SMILES: C[C@H](CCC(=O)O)[C@H]1CC[C@@H]2[C@@]1(CC[C@H]3[C@H]2[C@H]([C@H]([C@H]4[C@@]3(CC[C@H](C4)O)C)O)O)C
InChI: InChI=1S/C24H40O5/c1-13(4-7-19(26)27)15-5-6-16-20-17(9-11-23(15,16)2)24(3)10-8-14(25)12-18(24)21(28)22(20)29/h13-18,20-22,25,28-29H,4-12H2,1-3H3,(H,26,27)/t13-,14-,15-,16+,17+,18+,20+,21+,22-,23-,24-/m1/s1
Instrument: JMS-T100LP, JEOL
Instrument type: LC-ESI-TOF
Ms type: MS
Ion mode: NEGATIVE
Ionization: ESI
m/z	relative intensity
59.02831	54
62.00194	25
69.00588	357
75.01688	152
89.02927	12
112.98767	999
113.66403	10
113.98912	21
153.02905	49
166.99235	14
226.97452	30
248.95629	88
384.93713	18
407.27642	157
408.28051	44
439.30409	38
440.31253	12
505.27822	11
611.4219	10
611.92999	8
815.56999	14
837.55835	7
