Mass spectrum: 6-Oxo-5b-cholan-24-oic Acid; LC-ESI-TOF; MS; NEGATIVE; in source decay -30 V
Name: 6-Oxo-5b-cholan-24-oic Acid
Name: 6-Oxo-5b-cholanic acid
Class: Natural Product; Bile acids
Formula: C24H38O3
Exact mass: 374.28210
SMILES: C(C3(C)4)([H])(CCCC4)C(=O)CC(C3([H])2)(C(C1(C)CC2)([H])CCC1([H])C(C)CCC(O)=O)[H]
InChI: InChI=1S/C24H38O3/c1-15(7-10-22(26)27)17-8-9-18-16-14-21(25)20-6-4-5-12-23(20,2)19(16)11-13-24(17,18)3/h15-20H,4-14H2,1-3H3,(H,26,27)/t15-,16+,17-,18+,19+,20+,23-,24-/m1/s1
Instrument: JMS-T100LP, JEOL
Instrument type: LC-ESI-TOF
Ms type: MS
Ion mode: NEGATIVE
Ionization: ESI
m/z	relative intensity
59.01	72
61.98	150
68.99	360
75.00	160
89.02	386
96.96	40
112.98	999
113.99	30
212.07	178
373.27	239
374.28	82
409.26	26
419.28	114
420.31	38
463.31	75
464.34	25
487.28	73
586.38	30
747.57	68
748.57	44
