Mass spectrum: 3a,7a,14a-(OH)3-5b-cholanic acid; LC-ESI-TOF; MS; NEGATIVE; In source decay -150 V
Name: 3a,7a,14a-(OH)3-5b-cholanic acid
Name: 3alpha,7alpha,14alpha-Trihydroxy-5beta-cholane-24-oic acid
Class: Natural Product; Bile acids
Formula: C24H40O5
Exact mass: 408.28757
SMILES: C(C3(C)4)([H])(CC(O)CC4)CC(C(C3([H])2)(C(C1(C)CC2)(O)CCC1([H])C(C)CCC(O)=O)[H])O
InChI: InChI=1S/C24H40O5/c1-14(4-5-20(27)28)17-8-11-24(29)21-18(7-10-23(17,24)3)22(2)9-6-16(25)12-15(22)13-19(21)26/h14-19,21,25-26,29H,4-13H2,1-3H3,(H,27,28)/t14-,15+,16-,17-,18+,19-,21+,22+,23-,24-/m1/s1
Instrument: JMS-T100LP, JEOL
Instrument type: LC-ESI-TOF
Ms type: MS
Ion mode: NEGATIVE
Ionization: ESI
m/z	relative intensity
64.02	242
79.74	749
80.77	155
95.68	229
96.67	32
97.57	64
127.27	36
153.34	271
154.34	34
155.18	31
184.12	23
185.26	38
226.99	80
248.96	432
249.96	27
325.23	51
327.24	23
343.23	28
345.25	42
371.23	46
384.91	24
389.23	364
390.24	113
391.21	72
393.21	45
407.25	999
408.25	307
409.23	70
411.22	223
412.22	61
421.25	35
430.23	208
431.24	44
465.19	47
480.23	70
481.25	30
521.21	45
859.43	138
861.43	26
882.40	37
