Mass spectrum: 2-{[(3alpha,5beta,7alpha,12alpha)-3,7,12-Trihydroxy-24-oxocholan-24-yl]amino}ethanesulfonic acid; LC-ESI-TOF; MS; NEGATIVE; In source decay -90 V
Name: 2-{[(3alpha,5beta,7alpha,12alpha)-3,7,12-Trihydroxy-24-oxocholan-24-yl]amino}ethanesulfonic acid
Name: Tauro 3a,7a,12a-(OH)3-5b-cholanoic acid
Class: Natural Product; Bile acids
Formula: C26H45NO7S
Exact mass: 515.29167
SMILES: CC(CCC(=O)NCCS(=O)(=O)O)C1CCC2C1(C(CC3C2C(CC4C3(CCC(C4)O)C)O)O)C
InChI: InChI=1S/C26H45NO7S/c1-15(4-7-23(31)27-10-11-35(32,33)34)18-5-6-19-24-20(14-22(30)26(18,19)3)25(2)9-8-17(28)12-16(25)13-21(24)29/h15-22,24,28-30H,4-14H2,1-3H3,(H,27,31)(H,32,33,34)/t15-,16+,17-,18-,19+,20+,21-,22+,24+,25+,26-/m1/s1
Instrument: JMS-T100LP, JEOL
Instrument type: LC-ESI-TOF
Ms type: MS
Ion mode: NEGATIVE
Ionization: ESI
m/z	relative intensity
65.50	21
69.99	24
80.97	362
81.97	41
82.97	42
85.12	31
101.67	24
102.97	24
112.98	71
144.88	21
175.96	76
176.96	73
181.75	53
196.96	23
240.59	22
255.82	41
268.95	338
321.08	21
354.36	27
425.08	71
433.66	27
438.27	33
452.25	24
472.45	93
514.28	999
515.29	317
550.98	64
642.80	51
704.38	41
708.77	31
741.24	24
745.05	44
806.17	36
837.18	20
843.60	24
919.80	28
960.30	32
985.65	20
995.60	30
