Mass spectrum: 3a,6a,7b,12a-(OH)4-5a-cholanic acid; LC-ESI-TOF; MS; NEGATIVE; In source decay -150 V
Name: 3a,6a,7b,12a-(OH)4-5a-cholanic acid
Class: Natural Product; Bile acids
Formula: C24H40O6
Exact mass: 424.28249
SMILES: C(C23[H])(O)C(C(C(C2([H])CC(C(C([H])(C(C)CCC(O)=O)4)(C3([H])CC4)C)O)(C)1)([H])CC(O)CC1)O
InChI: InChI=1S/C24H40O6/c1-12(4-7-19(27)28)14-5-6-15-20-16(11-18(26)24(14,15)3)23(2)9-8-13(25)10-17(23)21(29)22(20)30/h12-18,20-22,25-26,29-30H,4-11H2,1-3H3,(H,27,28)/t12-,13-,14-,15+,16+,17-,18+,20+,21-,22-,23-,24-/m1/s1
Instrument: JMS-T100LP, JEOL
Instrument type: LC-ESI-TOF
Ms type: MS
Ion mode: NEGATIVE
Ionization: ESI
m/z	relative intensity
285.22	41
303.24	62
341.25	62
357.25	45
359.26	103
377.27	43
423.27	999
424.28	315
425.30	57
441.36	47
459.25	132
460.25	39
461.25	49
481.25	111
483.25	37
497.24	42
536.39	70
563.94	41
594.63	40
639.60	37
659.21	41
702.15	42
707.19	55
760.27	40
810.97	44
821.86	43
847.59	104
848.60	71
869.55	147
870.57	93
883.56	36
906.55	48
911.70	42
964.85	47
988.44	37
