Mass spectrum: 3a,6b,7a-Trihydroxy-5b-cholan-24-oic acid; LC-ESI-TOF; MS; Orifice voltage -60 V; Negative; In-suorce decay
Name: 3a,6b,7a-Trihydroxy-5b-cholan-24-oic acid
Name: alpha-Muricholic acid
Class: Natural Product; Bile acid
Formula: C24H40O5
Exact mass: 408.28757
SMILES: C[C@H](CCC(=O)O)[C@H]1CC[C@@H]2[C@@]1(CC[C@H]3[C@H]2[C@@H]([C@H]([C@H]4[C@@]3(CC[C@H](C4)O)C)O)O)C
InChI: InChI=1S/C24H40O5/c1-13(4-7-19(26)27)15-5-6-16-20-17(9-11-23(15,16)2)24(3)10-8-14(25)12-18(24)21(28)22(20)29/h13-18,20-22,25,28-29H,4-12H2,1-3H3,(H,26,27)/t13-,14-,15-,16+,17+,18+,20+,21+,22+,23-,24-/m1/s1
Instrument: JMS-T100LP, JEOL
Instrument type: LC-ESI-TOF
Ms type: MS
Ion mode: NEGATIVE
Ionization: ESI
m/z	relative intensity
59.02963	21
61.00214	16
62.00298	30
69.008	999
69.54672	5
73.01725	15
78.96747	44
112.98769	100
125.00261	24
153.03176	21
154.9736	50
187.00293	11
248.96078	35
407.28325	211
408.28664	58
429.26833	25
439.31034	130
440.31448	37
815.57558	37
816.58994	20
837.56133	36
838.57056	19
