Mass spectrum: 3a,6b,7b,12a-(OH)4-5b-cholanic acid; LC-ESI-TOF; MS; NEGATIVE; In source decay -30 V
Name: 3a,6b,7b,12a-(OH)4-5b-cholanic acid
Name: 3a,6b,7b,12a-Tetrahydroxy-5b-cholan-24-oic acid
Class: Natural Product; Bile acids
Formula: C24H40O6
Exact mass: 424.28249
SMILES: C(C23[H])(O)C(C(C(C2([H])CC(C(C([H])(C(C)CCC(O)=O)4)(C3([H])CC4)C)O)(C)1)([H])CC(O)CC1)O
InChI: InChI=1S/C24H40O6/c1-12(4-7-19(27)28)14-5-6-15-20-16(11-18(26)24(14,15)3)23(2)9-8-13(25)10-17(23)21(29)22(20)30/h12-18,20-22,25-26,29-30H,4-11H2,1-3H3,(H,27,28)/t12-,13-,14-,15+,16+,17+,18+,20+,21+,22-,23-,24-/m1/s1
Instrument: JMS-T100LP, JEOL
Instrument type: LC-ESI-TOF
Ms type: MS
Ion mode: NEGATIVE
Ionization: ESI
m/z	relative intensity
61.97	101
68.98	135
75.00	21
89.01	297
90.99	195
112.97	476
212.08	55
227.20	27
253.21	32
255.23	41
299.23	23
301.24	35
423.26	604
424.28	189
425.29	30
457.34	25
459.25	87
460.26	23
461.24	28
469.26	999
470.27	277
471.29	59
477.45	28
483.30	26
486.26	47
491.26	46
501.25	47
513.31	33
537.26	39
635.42	45
635.92	34
651.55	21
805.71	21
847.54	553
848.54	319
849.56	124
861.58	22
869.55	46
870.55	29
873.89	22
879.02	28
883.54	80
884.55	42
897.54	21
920.80	20
946.12	29
