Mass spectrum: 3a,6b,7a,12a-Tetrahydroxy-5b-cholan-24-oic acid; LC-ESI-TOF; MS; Orifice voltage -30 V; Negative; In-suorce decay
Name: 3a,6b,7a,12a-Tetrahydroxy-5b-cholan-24-oic acid
Class: Natural Product; Bile acid
Formula: C24H40O6
Exact mass: 424.28249
SMILES: C[C@H](CCC(=O)O)[C@H]1CC[C@@H]2[C@@]1([C@H](C[C@H]3[C@H]2[C@@H]([C@H]([C@H]4[C@@]3(CC[C@H](C4)O)C)O)O)O)C
InChI: InChI=1S/C24H40O6/c1-12(4-7-19(27)28)14-5-6-15-20-16(11-18(26)24(14,15)3)23(2)9-8-13(25)10-17(23)21(29)22(20)30/h12-18,20-22,25-26,29-30H,4-11H2,1-3H3,(H,27,28)/t12-,13-,14-,15+,16+,17+,18+,20+,21+,22+,23-,24-/m1/s1
Instrument: JMS-T100LP, JEOL
Instrument type: LC-ESI-TOF
Ms type: MS
Ion mode: NEGATIVE
Ionization: ESI
m/z	relative intensity
59.00751	184
59.46521	3
61.9806	570
68.99019	78
73.02479	15
75.00135	84
87.0395	41
89.01521	999
89.54345	3
90.02193	42
91.02586	6
96.9566	39
98.9595	10
101.05679	6
110.98578	7
112.98073	189
113.99113	3
115.07107	10
121.03025	12
128.03093	33
129.0702	6
137.03211	20
143.1072	9
145.05531	7
146.97535	7
157.12619	26
174.00651	8
177.09751	7
201.04132	6
212.07948	43
213.07996	5
227.20193	14
241.21902	7
242.19846	4
253.21492	9
255.24198	31
256.23699	6
265.16115	7
281.25454	11
283.27183	15
293.20102	3
297.2026	6
311.17224	21
312.18365	3
325.19605	16
326.20465	4
332.99627	5
334.99897	5
339.22655	15
340.23397	3
421.27778	6
423.27178	355
424.28551	111
428.7248	1
445.31445	3
455.3328	6
457.27424	4
459.25567	236
460.27442	74
