Mass spectrum: 3a,7a,15b-(OH)3-5b-cholanic acid; LC-ESI-TOF; MS; NEGATIVE; In source decay -150 V
Name: 3a,7a,15b-(OH)3-5b-cholanic acid
Name: (3a,5b,7a,15b)-3,7,15-Trihydroxycholan-24-oic acid
Class: Natural Product; Bile acids
Formula: C24H40O5
Exact mass: 408.28757
SMILES: C(C3(C)4)([H])(CC(O)CC4)CC(C(C3([H])2)(C(C1(C)CC2)([H])C(O)CC1([H])C(C)CCC(O)=O)[H])O
InChI: InChI=1S/C24H40O5/c1-13(4-5-20(28)29)17-12-19(27)22-21-16(7-9-24(17,22)3)23(2)8-6-15(25)10-14(23)11-18(21)26/h13-19,21-22,25-27H,4-12H2,1-3H3,(H,28,29)/t13-,14+,15-,16+,17-,18-,19-,21+,22+,23+,24-/m1/s1
Instrument: JMS-T100LP, JEOL
Instrument type: LC-ESI-TOF
Ms type: MS
Ion mode: NEGATIVE
Ionization: ESI
m/z	relative intensity
62.19	26
63.16	83
69.22	74
79.12	178
80.12	44
81.07	32
95.18	42
113.09	111
119.14	36
167.05	27
183.06	87
248.98	159
271.23	26
325.26	40
343.26	27
345.25	28
361.28	44
371.27	72
372.27	21
387.25	38
389.27	301
390.27	90
391.27	23
405.27	96
406.26	27
407.27	999
408.27	285
409.28	72
421.30	24
425.24	22
427.24	59
429.25	74
439.30	60
465.24	44
475.25	23
521.25	25
815.54	34
816.53	20
837.51	543
838.52	294
839.51	101
840.55	40
859.51	49
860.51	28
