Mass spectrum: 3b,6a,7b-Trihydroxy-5b-cholan-24-oic acid; LC-ESI-TOF; MS; Orifice voltage  -90 V; Negative; In-suorce decay
Name: 3b,6a,7b-Trihydroxy-5b-cholan-24-oic acid
Class: Natural Product; Bile acid
Formula: C24H40O5
Exact mass: 408.28757
SMILES: C[C@H](CCC(=O)O)[C@H]1CC[C@@H]2[C@@]1(CC[C@H]3[C@H]2[C@H]([C@@H]([C@H]4[C@@]3(CC[C@@H](C4)O)C)O)O)C
InChI: InChI=1S/C24H40O5/c1-13(4-7-19(26)27)15-5-6-16-20-17(9-11-23(15,16)2)24(3)10-8-14(25)12-18(24)21(28)22(20)29/h13-18,20-22,25,28-29H,4-12H2,1-3H3,(H,26,27)/t13-,14+,15-,16+,17+,18+,20+,21-,22-,23-,24-/m1/s1
Instrument: JMS-T100LP, JEOL
Instrument type: LC-ESI-TOF
Ms type: MS
Ion mode: NEGATIVE
Ionization: ESI
m/z	relative intensity
57.18327	32
59.21166	36
60.24106	76
67.43488	356
77.63882	203
79.64147	24
87.89297	5
91.89678	11
96.00616	6
98.02641	5
112.27931	64
124.4475	13
126.37368	20
138.5915	6
152.73598	12
154.69145	16
170.75881	6
232.98786	9
248.97539	75
255.25487	15
384.96294	7
407.29698	999
408.30051	281
409.31028	49
410.31477	4
419.30546	19
429.29435	7
439.32672	139
440.33428	42
441.33351	6
443.28644	15
445.30607	8
449.28783	8
451.32503	12
461.31203	21
462.317	6
465.26492	55
466.27256	17
467.26736	21
473.33786	9
489.31207	39
490.31857	14
543.29585	10
583.34994	13
815.52386	66
816.53531	36
817.5462	14
821.53096	13
822.53671	8
829.54329	11
837.49112	77
838.49902	42
839.50441	17
