Mass spectrum: 3alpha-Sulfatolithocholyltaurine; LC-ESI-TOF; MS; NEGATIVE; In-source decay -120 V
Name: 3alpha-Sulfatolithocholyltaurine
Class: Natural Product; Bile acids
Formula: C26H45NO8S2
Exact mass: 563.25866
SMILES: O=S(=O)(O)CCNC(=O)CC[C@@H](C)[C@H]1CC[C@H]2[C@@H]3CC[C@@H]4C[C@@H](CC[C@]4(C)[C@H]3CC[C@]12C)OS(=O)(=O)O
InChI: InChI=1S/C26H45NO8S2/c1-17(4-9-24(28)27-14-15-36(29,30)31)21-7-8-22-20-6-5-18-16-19(35-37(32,33)34)10-12-25(18,2)23(20)11-13-26(21,22)3/h17-23H,4-16H2,1-3H3,(H,27,28)(H,29,30,31)(H,32,33,34)/t17-,18-,19-,20+,21-,22+,23+,25+,26-/m1/s1
Instrument: JMS-T100LP, JEOL
Instrument type: LC-ESI-TOF
Ms type: MS
Ion mode: NEGATIVE
Ionization: ESI
m/z	relative intensity
80.95	85
81.94	36
96.95	999
98.94	58
106.97	77
124.00	38
232.08	24
313.15	27
375.44	21
410.24	29
464.28	100
482.29	287
483.29	85
484.31	21
562.25	75
584.24	50
859.03	24
