Mass spectrum: 6-Oxo-5a-cholan-24-oic acid; LC-ESI-TOF; MS; NEGATIVE; in source decay -150 V
Name: 6-Oxo-5a-cholan-24-oic acid
Class: Natural Product; Bile acids
Formula: C24H38O3
Exact mass: 374.2821
SMILES: C[C@H](CCC(=O)O)[C@H]1CC[C@@H]2[C@@]1(CC[C@H]3[C@H]2CC(=O)[C@@H]4[C@@]3(CCCC4)C)C
InChI: InChI=1S/C24H38O3/c1-15(7-10-22(26)27)17-8-9-18-16-14-21(25)20-6-4-5-12-23(20,2)19(16)11-13-24(17,18)3/h15-20H,4-14H2,1-3H3,(H,26,27)/t15-,16+,17-,18+,19+,20-,23-,24-/m1/s1
Instrument: JMS-T100LP, JEOL
Instrument type: LC-ESI-TOF
Ms type: MS
Ion mode: NEGATIVE
Ionization: ESI
m/z	relative intensity
79.94	55
373.27	999
374.28	257
383.90	122
389.29	54
409.26	66
418.73	51
496.07	66
623.99	55
641.43	51
651.12	51
669.12	51
680.28	58
688.03	98
715.18	62
747.56	203
748.57	124
759.59	89
769.55	119
770.54	64
833.70	73
911.57	57
934.58	89
