Mass spectrum: 6-Oxo-5a-cholan-24-oic acid; LC-ESI-TOF; MS; NEGATIVE; in source decay -60 V
Name: 6-Oxo-5a-cholan-24-oic acid
Class: Natural Product; Bile acids
Formula: C24H38O3
Exact mass: 374.2821
SMILES: C[C@H](CCC(=O)O)[C@H]1CC[C@@H]2[C@@]1(CC[C@H]3[C@H]2CC(=O)[C@@H]4[C@@]3(CCCC4)C)C
InChI: InChI=1S/C24H38O3/c1-15(7-10-22(26)27)17-8-9-18-16-14-21(25)20-6-4-5-12-23(20,2)19(16)11-13-24(17,18)3/h15-20H,4-14H2,1-3H3,(H,26,27)/t15-,16+,17-,18+,19+,20-,23-,24-/m1/s1
Instrument: JMS-T100LP, JEOL
Instrument type: LC-ESI-TOF
Ms type: MS
Ion mode: NEGATIVE
Ionization: ESI
m/z	relative intensity
61.97	289
68.98	999
89.01	30
96.95	35
102.96	25
112.97	218
212.08	29
373.27	558
374.28	143
375.29	30
405.31	26
409.26	46
747.55	595
748.56	326
749.58	109
769.56	23
