Mass spectrum: Cefazolin; LC-ESI-QTOF; MS2; HILIC; CE: 20 eV; R=35000; [M+H]+
Name: Cefazolin
Name: (6R,7R)-3-[(5-methyl-1,3,4-thiadiazol-2-yl)sulfanylmethyl]-8-oxo-7-[[2-(tetrazol-1-yl)acetyl]amino]-5-thia-1-azabicyclo[4.2.0]oct-2-ene-2-carboxylic acid
Formula: C14H14N8O4S3
Exact mass: 454.0300139
SMILES: Cc1nnc(s1)SCC2=C(N3[C@@H]([C@@H](C3=O)NC(=O)Cn4cnnn4)SC2)C(=O)O
InChI: InChI=1S/C14H14N8O4S3/c1-6-17-18-14(29-6)28-4-7-3-27-12-9(11(24)22(12)10(7)13(25)26)16-8(23)2-21-5-15-19-20-21/h5,9,12H,2-4H2,1H3,(H,16,23)(H,25,26)/t9-,12-/m1/s1
Instrument: Bruker maXis Impact
Instrument type: LC-ESI-QTOF
Ms type: MS2
Ion mode: POSITIVE
Ionization: ESI
Fragmentation mode: CID
Collision energy: 20 eV
Resolution: 35000
Column name: ACQUITY UPLC BEH Amide 1.7 um 2.1x100 mm, Waters
Retention time: 5.629 min
Base peak: 455.0369
Precursor m/z: 455.0373
Precursor type: [M+H]+
m/z	relative intensity	assigned
120.0692	14	CH14NO3S+
124.0216	70	C6H6NS+
124.0488	39	C3H4N6+
126.0041	14	C2H8NOS2+
126.0373	27	C6H8NS+
128.0264	29	C9H4O+
132.9881	169	C3H5N2S2+
139.0332	34	H13NO3S2+
140.045	27	C5H6N3O2+
141.047	39	C6H9N2S+
144.0092	16	C3H12S3+
151.0323	39	C7H7N2S+
152.0165	81	C7H6NOS+
153.0179	16	C7H5O4+
153.0476	243	C7H9N2S+
154.0072	14	C5H4N3OS+
156.0107	999	C6H6NO2S+
157.0147	88	C5[13]CH6NO2S+
157.0277	30	C2H9N2O4S+
158.0248	29	C4H14S3+
161.0794	40	C5H11N3O3+
162.0658	34	H12N5O3S+
162.0869	16	C5H12N3O3+
163.0321	25	H3N8O3+
166.0421	145	C12H6O+
167.0465	25	C2H9N5O2S+
168.011	22	C7H6NO2S+
168.0529	33	C7H8N2O3+
177.1111	22	C6H15N3O3+
178.042	128	C13H6O+
179.0275	32	C8H7N2OS+
180.0577	48	H14N5O2S2+
181.0436	19	C2H15NO4S2+
190.0847	20	C9H10N4O+
193.0544	14	C8H9N4S+
194.041	15	C5H12N3OS2+
195.0242	30	C3H9N5OS2+
195.0691	52	H15N6O2S2+
196.0499	20	C3H10N5O3S+
197.0369	21	C6H7N5OS+
206.0371	72	C7H6N6S+
207.0224	20	C9H7N2O2S+
210.0339	29	C10H10O3S+
221.0468	27	C6H11N3O4S+
223.0646	101	C9H11N4OS+
224.0681	14	C10H6N7+
239.0592	20	CH15N6O4S2+
249.0454	24	C12H11NO3S+
251.0711	16	C9H11N6OS+
252.0432	147	C10H10N3O3S+
253.0291	15	C11H5N6S+
253.0443	20	CH15N7O2S3+
267.0545	57	C10H11N4O3S+
295.0603	800	C10H11N6O3S+
296.062	95	C9[13]CH11N6O3S+
323.0556	897	C11H11N6O4S+
324.0581	117	C10[13]CH11N6O4S+
325.0522	46	C11H11N6O4[34]S+
