Mass spectrum: Ofloxacin; LC-ESI-QTOF; MS2; CE: 30 eV; R=35000; [M+H]+
Name: Ofloxacin
Name: 7-fluoro-2-methyl-6-(4-methylpiperazin-1-yl)-10-oxo-4-oxa-1-azatricyclo[7.3.1.05,13]trideca-5(13),6,8,11-tetraene-11-carboxylic acid
Formula: C18H20FN3O4
Exact mass: 361.1437843
SMILES: CC1COC2=C3N1C=C(C(O)=O)C(=O)C3=CC(F)=C2N1CCN(C)CC1
InChI: InChI=1S/C18H20FN3O4/c1-10-9-26-17-14-11(16(23)12(18(24)25)8-22(10)14)7-13(19)15(17)21-5-3-20(2)4-6-21/h7-8,10H,3-6,9H2,1-2H3,(H,24,25)
Instrument: Bruker maXis Impact
Instrument type: LC-ESI-QTOF
Ms type: MS2
Ion mode: POSITIVE
Ionization: ESI
Fragmentation mode: CID
Collision energy: 30 eV
Resolution: 35000
Column name: Acclaim RSLC C18 2.2um, 2.1x100mm, Thermo
Retention time: 4.203 min
Base peak: 362.1513
Precursor m/z: 362.1511
Precursor type: [M+H]+
m/z	relative intensity	assigned
205.0404	5	C10H6FN2O2+
205.0762	6	C14H9N2+
219.0562	11	C11H8FN2O2+
221.0714	18	C14H9N2O+
233.0716	20	C12H10FN2O2+
241.0968	8	C14H13N2O2+
247.0869	22	C16H11N2O+
261.1032	999	C14H15NO4+
262.1064	128	C13[13]CH15NO4+
263.1086	10	C12[13]C2H15NO4+
270.1232	11	C15H16N3O2+
273.1023	9	C18H13N2O+
298.1544	10	C17H20N3O2+
301.1219	7	C16H16FN3O2+
316.1099	6	C18H17FO4+
316.1452	53	C17H19FN3O2+
317.1482	10	C16[13]CH19FN3O2+
318.1614	792	C17H21FN3O2+
319.1644	126	C16[13]CH21FN3O2+
320.1667	12	C15[13]C2H21FN3O2+
344.1404	51	C18H19FN3O3+
345.1434	10	C17[13]CH19FN3O3+
362.151	159	C18H21FN3O4+
363.1543	33	C17[13]CH21FN3O4+
