Mass spectrum: Erythromycin; LC-ESI-QTOF; MS2; HILIC; CE: 20 eV; R=35000; [M+H]+
Name: Erythromycin
Name: (3R,4S,5S,6R,7R,9R,11R,12R,13S,14R)-6-[(2S,3R,4S,6R)-4-(dimethylamino)-3-hydroxy-6-methyloxan-2-yl]oxy-14-ethyl-7,12,13-trihydroxy-4-[(2R,4R,5S,6S)-5-hydroxy-4-methoxy-4,6-dimethyloxan-2-yl]oxy-3,5,7,9,11,13-hexamethyl-oxacyclotetradecane-2,10-dione
Formula: C37H67NO13
Exact mass: 733.4612412
SMILES: CC[C@@H]1[C@@]([C@@H]([C@H](C(=O)[C@@H](C[C@@]([C@@H]([C@H]([C@@H]([C@H](C(=O)O1)C)O[C@H]2C[C@@]([C@H]([C@@H](O2)C)O)(C)OC)C)O[C@H]3[C@@H]([C@H](C[C@H](O3)C)N(C)C)O)(C)O)C)C)O)(C)O
InChI: InChI=1S/C37H67NO13/c1-14-25-37(10,45)30(41)20(4)27(39)18(2)16-35(8,44)32(51-34-28(40)24(38(11)12)15-19(3)47-34)21(5)29(22(6)33(43)49-25)50-26-17-36(9,46-13)31(42)23(7)48-26/h18-26,28-32,34,40-42,44-45H,14-17H2,1-13H3/t18-,19-,20+,21+,22-,23+,24+,25-,26+,28-,29+,30-,31+,32-,34+,35-,36-,37-/m1/s1
Instrument: Bruker maXis Impact
Instrument type: LC-ESI-QTOF
Ms type: MS2
Ion mode: POSITIVE
Ionization: ESI
Fragmentation mode: CID
Collision energy: 20 eV
Resolution: 35000
Column name: ACQUITY UPLC BEH Amide 1.7 um 2.1x100 mm, Waters
Retention time: 6.344 min
Base peak: 301.2864
Precursor m/z: 734.4685
Precursor type: [M+H]+
m/z	relative intensity	assigned
116.1065	13	C6H14NO+
127.0761	21	C7H11O2+
158.1178	687	C8H16NO2+
159.0998	7	C8H15O3+
159.1211	50	C7[13]CH16NO2+
316.2131	92	C16H30NO5+
317.2166	18	C15[13]CH30NO5+
325.2036	6	C21H27NO2+
365.232	7	C21H33O5+
383.2406	12	C21H35O6+
401.2513	5	C21H37O7+
500.3219	5	C26H46NO8+
522.3427	107	C29H48NO7+
523.3503	37	C29H49NO7+
524.3495	11	C28[13]CH49NO7+
538.3365	7	C29H48NO8+
540.3559	66	C29H50NO8+
541.3578	23	C28[13]CH50NO8+
556.3499	6	C29H50NO9+
558.3668	254	C29H52NO9+
559.3697	82	C26H55O12+
560.371	17	C25[13]CH55O12+
574.3611	112	C29H52NO10+
575.3652	49	C28[13]CH52NO10+
576.377	999	C29H54NO10+
577.3797	318	C26H57O13+
578.3838	63	C36H52NO5+
579.3891	9	C35[13]CH52NO5+
698.4533	35	C37H64NO11+
699.4518	12	C36[13]CH64NO11+
716.4622	76	C37H66NO12+
717.4645	37	C37H67NO12+
718.469	11	C36[13]CH67NO12+
732.4569	45	C37H66NO13+
733.4618	25	C36[13]CH66NO13+
734.4732	942	C37H68NO13+
735.4761	407	C36[13]CH68NO13+
736.4797	86	C35[13]C2H68NO13+
