Mass spectrum: Ciprofloxacin; LC-ESI-QTOF; MS2; CE: 10 eV; R=35000; [M+H]+
Name: Ciprofloxacin
Name: 1-cyclopropyl-6-fluoro-4-oxo-7-piperazin-1-ylquinoline-3-carboxylic acid
Formula: C17H18FN3O3
Exact mass: 331.1332197
SMILES: OC(=O)C1=CN(C2CC2)C2=C(C=C(F)C(=C2)N2CCNCC2)C1=O
InChI: InChI=1S/C17H18FN3O3/c18-13-7-11-14(8-15(13)20-5-3-19-4-6-20)21(10-1-2-10)9-12(16(11)22)17(23)24/h7-10,19H,1-6H2,(H,23,24)
Instrument: Bruker maXis Impact
Instrument type: LC-ESI-QTOF
Ms type: MS2
Ion mode: POSITIVE
Ionization: ESI
Fragmentation mode: CID
Collision energy: 10 eV
Resolution: 35000
Column name: Acclaim RSLC C18 2.2um, 2.1x100mm, Thermo
Retention time: 4.380 min
Base peak: 362.1508
Precursor m/z: 332.1405
Precursor type: [M+H]+
m/z	relative intensity	assigned
149.0584	12	C7H7N3O+
288.1497	9	C16H19FN3O+
332.1399	999	C17H19FN3O3+
333.1445	189	C16[13]CH19FN3O3+
