Mass spectrum: Methylprednisolone; LC-ESI-QTOF; MS2; HILIC; CE: 40 eV; R=35000; [M+H]+
Name: Methylprednisolone
Name: methylprednisolone
Name: (6S,8S,9S,10R,11S,13S,14S,17R)-11,17-dihydroxy-17-(2-hydroxyacetyl)-6,10,13-trimethyl-7,8,9,11,12,14,15,16-octahydro-6H-cyclopenta[a]phenanthren-3-one
Formula: C22H30O5
Exact mass: 374.2093241
SMILES: C[C@H]1C[C@H]2[C@@H]3CC[C@@]([C@]3(C[C@@H]([C@@H]2[C@@]4(C1=CC(=O)C=C4)C)O)C)(C(=O)CO)O
InChI: InChI=1S/C22H30O5/c1-12-8-14-15-5-7-22(27,18(26)11-23)21(15,3)10-17(25)19(14)20(2)6-4-13(24)9-16(12)20/h4,6,9,12,14-15,17,19,23,25,27H,5,7-8,10-11H2,1-3H3/t12-,14-,15-,17-,19+,20-,21-,22-/m0/s1
Instrument: Bruker maXis Impact
Instrument type: LC-ESI-QTOF
Ms type: MS2
Ion mode: POSITIVE
Ionization: ESI
Fragmentation mode: CID
Collision energy: 40 eV
Resolution: 35000
Column name: ACQUITY UPLC BEH Amide 1.7 um 2.1x100mm, Waters
Retention time: 1.816 min
Base peak: 375.2168
Precursor m/z: 375.2166
Precursor type: [M+H]+
m/z	relative intensity	assigned
115.0536	61	C9H7+
116.0605	10	C9H8+
117.0697	54	C9H9+
119.0847	69	C9H11+
121.0643	290	C8H9O+
121.1007	14	C9H13+
122.0678	31	C7[13]CH9O+
123.0437	9	C7H7O2+
123.0793	18	C8H11O+
125.0595	13	C7H9O2+
127.0527	10	C10H7+
128.0625	33	C10H8+
129.0697	62	C10H9+
130.0766	28	C10H10+
131.0486	17	C9H7O+
131.0853	102	C10H11+
132.0549	9	C9H8O+
132.0909	10	C10H12+
133.0636	38	C9H9O+
133.1008	111	C10H13+
135.0798	629	C9H11O+
136.084	62	C8[13]CH11O+
137.0591	38	C8H9O2+
137.095	17	C9H13O+
141.0689	63	C11H9+
142.0763	57	C11H10+
143.0851	80	C11H11+
144.0565	25	C10H8O+
144.0918	25	C11H12+
145.0643	147	C10H9O+
145.1004	119	C11H13+
146.0723	112	C10H10O+
146.1048	13	C10[13]CH13+
147.0796	149	C10H11O+
147.1163	40	C11H15+
148.0838	21	C9[13]CH11O+
149.0957	58	C10H13O+
151.0753	12	C9H11O2+
152.0604	13	C12H8+
153.0703	18	C12H9+
154.0761	12	C12H10+
155.0851	45	C12H11+
156.0914	17	C12H12+
157.0636	37	C11H9O+
157.1005	69	C12H13+
158.072	114	C11H10O+
159.0796	329	C11H11O+
159.1155	44	C12H15+
160.0859	85	C11H12O+
160.1214	8	C12H16+
161.0955	999	C11H13O+
162.0987	125	C10[13]CH13O+
165.0695	26	C13H9+
165.0886	23	C10H13O2+
166.0755	22	C13H10+
167.085	32	C13H11+
168.0918	17	C13H12+
169.0646	15	C12H9O+
169.0998	36	C13H13+
170.072	20	C12H10O+
170.1067	12	C13H14+
171.0795	123	C12H11O+
171.1154	38	C13H15+
172.0872	133	C12H12O+
172.125	8	C13H16+
173.0947	241	C12H13O+
173.1319	23	C13H17+
174.1013	33	C11[13]CH13O+
175.111	78	C12H15O+
175.1465	9	C13H19+
177.091	42	C11H13O2+
178.0761	22	C14H10+
179.0838	31	C14H11+
180.0917	21	C14H12+
181.0641	27	C13H9O+
181.1003	34	C14H13+
182.072	14	C13H10O+
182.1087	9	C14H14+
183.0796	44	C13H11O+
183.1159	26	C14H15+
184.0878	28	C13H12O+
185.0954	772	C13H13O+
186.0992	107	C12[13]CH13O+
187.1113	432	C13H15O+
188.1149	60	C12[13]CH15O+
189.0905	88	C12H13O2+
189.126	17	C13H17O+
191.0843	12	C15H11+
191.1408	11	C13H19O+
192.0944	19	C15H12+
193.1004	95	C15H13+
194.072	13	C14H10O+
194.1091	25	C14[13]CH13+
195.0799	94	C14H11O+
195.1155	38	C15H15+
196.0871	137	C14H12O+
196.1231	8	C15H16+
197.0948	116	C14H13O+
197.1321	17	C15H17+
198.1024	60	C14H14O+
199.1112	138	C14H15O+
200.1149	20	C13[13]CH15O+
201.0916	11	C13H13O2+
201.127	31	C14H17O+
202.0763	11	C16H10+
203.0826	13	C16H11+
203.1051	8	C13H15O2+
203.1411	11	C14H19O+
204.0925	29	C16H12+
205.1006	21	C16H13+
206.1069	32	C16H14+
207.0811	8	C15H11O+
207.1161	29	C16H15+
208.087	56	C15H12O+
208.1248	9	C16H16+
209.0954	217	C15H13O+
209.133	27	C16H17+
210.1027	115	C15H14O+
211.1109	554	C15H15O+
212.116	118	C14[13]CH15O+
213.0905	10	C14H13O2+
213.1265	154	C15H17O+
214.1299	30	C14[13]CH17O+
217.0997	19	C17H13+
218.1091	22	C17H14+
219.0803	11	C16H11O+
219.1147	26	C17H15+
220.0891	9	C16H12O+
220.1234	43	C17H16+
221.0958	38	C16H13O+
221.1313	28	C17H17+
222.1029	142	C16H14O+
222.1349	8	C17H18+
223.1105	203	C16H15O+
224.1169	131	C16H16O+
225.1256	151	C16H17O+
225.1641	16	C17H21+
226.1313	43	C16H18O+
227.1066	15	C15H15O2+
227.1417	60	C16H19O+
228.1467	12	C16H20O+
229.1243	11	C15H17O2+
231.0793	14	C17H11O+
231.117	15	C18H15+
231.1378	22	C15H19O2+
232.0885	16	C17H12O+
233.0951	33	C17H13O+
233.1315	19	C18H17+
234.1046	33	C17H14O+
234.1358	10	C18H18+
235.1117	91	C17H15O+
235.1472	31	C18H19+
236.1188	115	C17H16O+
237.1268	232	C17H17O+
238.1338	181	C17H18O+
239.1055	12	C16H15O2+
239.1418	126	C17H19O+
240.1478	40	C17H20O+
241.1219	8	C16H17O2+
241.1569	14	C17H21O+
243.1158	9	C19H15+
244.1195	8	C19H16+
245.0958	18	C18H13O+
245.1294	10	C19H17+
246.1045	48	C18H14O+
247.1099	34	C18H15O+
248.1195	49	C18H16O+
249.127	78	C18H17O+
250.1339	52	C18H18O+
251.1042	15	C17H15O2+
251.1428	198	C18H19O+
252.1197	9	C17H16O2+
252.147	50	C17[13]CH19O+
253.1581	233	C18H21O+
254.1618	46	C17[13]CH21O+
255.1362	9	C17H19O2+
255.1734	21	C18H23O+
259.1108	28	C19H15O+
259.1492	10	C20H19+
260.1182	23	C19H16O+
261.1271	48	C19H17O+
261.1632	9	C20H21+
262.1332	42	C19H18O+
263.1049	8	C18H15O2+
263.142	65	C19H19O+
263.1795	56	C20H23+
264.1151	12	C18H16O2+
264.1499	40	C19H20O+
264.1828	15	C20H24+
265.1214	16	C18H17O2+
265.1581	259	C19H21O+
266.1292	12	C18H18O2+
266.1608	64	C18[13]CH21O+
267.136	34	C18H19O2+
267.164	12	C15H23O4+
268.1445	11	C18H20O2+
269.1522	14	C18H21O2+
273.1262	50	C20H17O+
274.1366	23	C20H18O+
275.1437	27	C20H19O+
276.1493	13	C20H20O+
277.1593	30	C20H21O+
278.1635	30	C20H22O+
279.1372	40	C19H19O2+
279.1734	91	C20H23O+
280.181	160	C20H24O+
281.1857	52	C19[13]CH24O+
282.1891	8	C16H26O4+
287.1465	8	C21H19O+
288.151	28	C21H20O+
289.1578	9	C21H21O+
290.1638	8	C21H22O+
291.1725	33	C21H23O+
292.1786	9	C21H24O+
293.1528	20	C20H21O2+
293.1904	24	C21H25O+
294.1584	7	C20H22O2+
294.193	8	C21H26O+
297.1461	11	C19H21O3+
303.1739	30	C22H23O+
306.1633	8	C21H22O2+
308.176	18	C21H24O2+
309.1872	22	C21H25O2+
311.164	8	C20H23O3+
321.1851	12	C22H25O2+
