Mass spectrum: Mebendazole; LC-ESI-QTOF; MS2; CE: 20 eV; R=35000; [M+H]+
Name: Mebendazole
Name: methyl N-(6-benzoyl-1H-benzimidazol-2-yl)carbamate
Formula: C16H13N3O3
Exact mass: 295.0956913
SMILES: COC(=O)Nc1[nH]c2ccc(cc2n1)C(=O)c3ccccc3
InChI: InChI=1S/C16H13N3O3/c1-22-16(21)19-15-17-12-8-7-11(9-13(12)18-15)14(20)10-5-3-2-4-6-10/h2-9H,1H3,(H2,17,18,19,21)
Instrument: Bruker maXis Impact
Instrument type: LC-ESI-QTOF
Ms type: MS2
Ion mode: POSITIVE
Ionization: ESI
Fragmentation mode: CID
Collision energy: 20 eV
Resolution: 35000
Column name: Acclaim RSLC C18 2.2um, 2.1x100mm, Thermo
Retention time: 8.1 min
Base peak: 296.1026
Precursor m/z: 296.103
Precursor type: [M+H]+
m/z	relative intensity	assigned
264.0767	999	C15H10N3O2+
265.0806	120	C14[13]CH10N3O2+
266.0827	14	C16H12NO3+
296.1031	511	C16H14N3O3+
297.107	83	C15[13]CH14N3O3+
