Mass spectrum: Cefazolin; LC-ESI-QTOF; MS2; HILIC; CE: 30 eV; R=35000; [M+H]+
Name: Cefazolin
Name: (6R,7R)-3-[(5-methyl-1,3,4-thiadiazol-2-yl)sulfanylmethyl]-8-oxo-7-[[2-(tetrazol-1-yl)acetyl]amino]-5-thia-1-azabicyclo[4.2.0]oct-2-ene-2-carboxylic acid
Formula: C14H14N8O4S3
Exact mass: 454.0300139
SMILES: Cc1nnc(s1)SCC2=C(N3[C@@H]([C@@H](C3=O)NC(=O)Cn4cnnn4)SC2)C(=O)O
InChI: InChI=1S/C14H14N8O4S3/c1-6-17-18-14(29-6)28-4-7-3-27-12-9(11(24)22(12)10(7)13(25)26)16-8(23)2-21-5-15-19-20-21/h5,9,12H,2-4H2,1H3,(H,16,23)(H,25,26)/t9-,12-/m1/s1
Instrument: Bruker maXis Impact
Instrument type: LC-ESI-QTOF
Ms type: MS2
Ion mode: POSITIVE
Ionization: ESI
Fragmentation mode: CID
Collision energy: 30 eV
Resolution: 35000
Column name: ACQUITY UPLC BEH Amide 1.7 um 2.1x100 mm, Waters
Retention time: 5.679 min
Base peak: 704.5231
Precursor m/z: 455.0373
Precursor type: [M+H]+
m/z	relative intensity	assigned
119.0621	69	CH13NO3S+
124.0208	303	C6H6NS+
124.0509	113	C5H6N3O+
126.0018	76	C5H4NOS+
128.0269	124	C4H6N3S+
132.9885	339	C3H5N2S2+
133.0861	65	C6H13O3+
139.0315	292	C6H7N2S+
140.0148	118	C4H4N4S+
141.0467	102	C3H11NO3S+
151.0315	165	C7H7N2S+
152.014	146	C4H8O4S+
153.0476	633	C7H9N2S+
154.0491	62	C5H6N4O2+
156.0111	999	C6H6NO2S+
157.0169	136	C2H3N7S+
158.0222	62	C7H2N4O+
161.0822	76	C8H9N4+
162.0669	74	C2H14N2O4S+
162.0899	84	C8H10N4+
166.0435	550	C7H8N3S+
167.0279	83	CH13NO4S2+
168.0111	83	C7H6NO2S+
178.044	267	C2H14N2O3S2+
179.0266	125	H11N4O3S2+
181.044	69	C2H15NO4S2+
189.0763	62	CH13N6O3S+
193.0539	73	H13N6O2S2+
195.07	68	C8H11N4S+
197.0385	87	CH9N8S2+
206.0384	150	C9H8N3OS+
207.022	76	C9H7N2O2S+
208.0552	85	C11H12O2S+
210.0334	92	C8H8N3O2S+
221.0502	72	C3H15N3O4S2+
223.0621	133	C6H13N3O4S+
252.0435	354	C10H10N3O3S+
295.0603	392	C10H11N6O3S+
296.0588	82	C12H8N8S+
323.056	115	C11H11N6O4S+
