Mass spectrum: Methylprednisolone; LC-ESI-QTOF; MS2; HILIC; CE: 10 eV; R=35000; [M+H]+
Name: Methylprednisolone
Name: methylprednisolone
Name: (6S,8S,9S,10R,11S,13S,14S,17R)-11,17-dihydroxy-17-(2-hydroxyacetyl)-6,10,13-trimethyl-7,8,9,11,12,14,15,16-octahydro-6H-cyclopenta[a]phenanthren-3-one
Formula: C22H30O5
Exact mass: 374.2093241
SMILES: C[C@H]1C[C@H]2[C@@H]3CC[C@@]([C@]3(C[C@@H]([C@@H]2[C@@]4(C1=CC(=O)C=C4)C)O)C)(C(=O)CO)O
InChI: InChI=1S/C22H30O5/c1-12-8-14-15-5-7-22(27,18(26)11-23)21(15,3)10-17(25)19(14)20(2)6-4-13(24)9-16(12)20/h4,6,9,12,14-15,17,19,23,25,27H,5,7-8,10-11H2,1-3H3/t12-,14-,15-,17-,19+,20-,21-,22-/m0/s1
Instrument: Bruker maXis Impact
Instrument type: LC-ESI-QTOF
Ms type: MS2
Ion mode: POSITIVE
Ionization: ESI
Fragmentation mode: CID
Collision energy: 10 eV
Resolution: 35000
Column name: ACQUITY  UPLC BEH Amide 1.7 um 2.1x100mm, Waters
Retention time: 1.816 min
Base peak: 375.2161
Precursor m/z: 375.2166
Precursor type: [M+H]+
m/z	relative intensity	assigned
135.0796	31	C9H11O+
147.0788	5	C10H11O+
149.0945	5	C10H13O+
161.095	59	C11H13O+
162.099	7	C10[13]CH13O+
165.0903	10	C10H13O2+
173.0947	5	C12H13O+
175.11	7	C12H15O+
183.0998	9	C10H15O3+
185.0949	23	C13H13O+
187.1102	31	C13H15O+
211.1092	6	C15H15O+
213.1252	13	C15H17O+
225.1255	5	C16H17O+
231.1374	8	C15H19O2+
237.1263	8	C17H17O+
241.1566	6	C17H21O+
249.1261	5	C18H17O+
251.1412	30	C18H19O+
253.1569	50	C18H21O+
254.1612	9	C17[13]CH21O+
255.1728	10	C18H23O+
267.138	8	C18H19O2+
277.1574	14	C20H21O+
279.137	6	C19H19O2+
279.1732	44	C20H23O+
280.1772	20	C20H24O+
281.1884	21	C20H25O+
291.173	7	C21H23O+
293.1519	31	C20H21O2+
293.1891	22	C21H25O+
294.1563	7	C19[13]CH21O2+
294.1913	5	C20[13]CH25O+
295.169	10	C20H23O2+
297.1479	11	C19H21O3+
297.1843	20	C20H25O2+
303.1734	34	C22H23O+
304.1759	11	C21[13]CH23O+
309.1829	19	C21H25O2+
311.1985	15	C21H27O2+
315.1585	8	C19H23O4+
321.184	161	C22H25O2+
322.187	40	C21[13]CH25O2+
327.1943	10	C21H27O3+
329.2081	5	C21H29O3+
339.1947	466	C22H27O3+
340.1977	88	C21[13]CH27O3+
357.2054	999	C22H29O4+
358.2083	209	C21[13]CH29O4+
375.2162	731	C22H31O5+
376.2185	149	C21[13]CH31O5+
377.2239	23	C20[13]C2H31O5+
