Mass spectrum: Methylprednisolone; LC-ESI-QTOF; MS2; HILIC; CE: 30 eV; R=35000; [M+H]+
Name: Methylprednisolone
Name: methylprednisolone
Name: (6S,8S,9S,10R,11S,13S,14S,17R)-11,17-dihydroxy-17-(2-hydroxyacetyl)-6,10,13-trimethyl-7,8,9,11,12,14,15,16-octahydro-6H-cyclopenta[a]phenanthren-3-one
Formula: C22H30O5
Exact mass: 374.2093241
SMILES: C[C@H]1C[C@H]2[C@@H]3CC[C@@]([C@]3(C[C@@H]([C@@H]2[C@@]4(C1=CC(=O)C=C4)C)O)C)(C(=O)CO)O
InChI: InChI=1S/C22H30O5/c1-12-8-14-15-5-7-22(27,18(26)11-23)21(15,3)10-17(25)19(14)20(2)6-4-13(24)9-16(12)20/h4,6,9,12,14-15,17,19,23,25,27H,5,7-8,10-11H2,1-3H3/t12-,14-,15-,17-,19+,20-,21-,22-/m0/s1
Instrument: Bruker maXis Impact
Instrument type: LC-ESI-QTOF
Ms type: MS2
Ion mode: POSITIVE
Ionization: ESI
Fragmentation mode: CID
Collision energy: 30 eV
Resolution: 35000
Column name: ACQUITY UPLC BEH Amide 1.7 um 2.1x100 mm, Waters
Retention time: 1.816 min
Base peak: 375.2161
Precursor m/z: 375.2166
Precursor type: [M+H]+
m/z	relative intensity	assigned
115.0537	21	C9H7+
116.0604	6	C9H8+
117.0696	13	C9H9+
119.0843	48	C9H11+
121.0642	173	C8H9O+
122.0681	12	C7[13]CH9O+
123.0791	27	C8H11O+
125.0613	18	C7H9O2+
127.0762	8	C7H11O2+
128.0606	13	C10H8+
129.069	19	C10H9+
131.0488	7	C9H7O+
131.0848	66	C10H11+
133.0646	27	C9H9O+
133.1007	57	C10H13+
135.0795	622	C9H11O+
136.0834	66	C8[13]CH11O+
137.0591	29	C8H9O2+
137.0959	26	C9H13O+
139.0741	19	C8H11O2+
139.1095	8	C9H15O+
141.0688	19	C11H9+
142.076	11	C11H10+
143.0844	51	C11H11+
144.0558	9	C10H8O+
145.0635	78	C10H9O+
145.1	99	C11H13+
146.0706	27	C10H10O+
146.1043	12	C10[13]CH13+
147.0793	134	C10H11O+
147.116	34	C11H15+
148.0836	15	C9[13]CH11O+
149.0952	83	C10H13O+
150.1004	16	C10H14O+
151.0738	14	C9H11O2+
151.1103	8	C10H15O+
153.0893	9	C9H13O2+
155.0686	6	C8H11O3+
155.085	10	C12H11+
156.0913	7	C12H12+
157.0648	10	C11H9O+
157.0999	34	C12H13+
158.0714	23	C11H10O+
159.0795	205	C11H11O+
159.1162	34	C12H15+
160.0845	38	C10[13]CH11O+
161.0952	999	C11H13O+
162.0983	117	C10[13]CH13O+
163.0754	6	C10H11O2+
163.1097	16	C11H15O+
165.0905	52	C10H13O2+
165.1257	7	C11H17O+
167.0853	7	C13H11+
167.1077	6	C10H15O2+
169.1009	13	C13H13+
170.0713	10	C12H10O+
171.0792	49	C12H11O+
171.1159	28	C13H15+
172.0867	30	C12H12O+
172.121	9	C13H16+
173.0947	210	C12H13O+
173.1302	34	C13H17+
174.0987	30	C11[13]CH13O+
175.0739	9	C11H11O2+
175.1112	84	C12H15O+
175.1477	6	C13H19+
176.1158	10	C12H16O+
177.0905	68	C11H13O2+
179.1062	21	C11H15O2+
181.1	17	C14H13+
183.079	16	C13H11O+
183.101	12	C10H15O3+
183.1153	9	C14H15+
184.0874	11	C13H12O+
185.0951	768	C13H13O+
186.0989	95	C12[13]CH13O+
187.1109	517	C13H15O+
188.1149	83	C12[13]CH15O+
189.0905	108	C12H13O2+
189.1257	22	C13H17O+
190.0941	14	C11[13]CH13O2+
191.1066	16	C12H15O2+
191.1417	16	C13H19O+
193.1011	17	C15H13+
193.1234	6	C12H17O2+
195.0804	21	C14H11O+
195.1156	18	C15H15+
196.0858	23	C14H12O+
197.0942	53	C14H13O+
197.1309	7	C15H17+
198.1002	16	C14H14O+
199.1108	139	C14H15O+
200.1151	22	C13[13]CH15O+
201.0897	12	C13H13O2+
201.1257	60	C14H17O+
202.1308	9	C14H18O+
203.1065	7	C13H15O2+
203.1425	8	C14H19O+
205.1219	6	C13H17O2+
206.1091	13	C16H14+
207.1171	9	C16H15+
208.0877	14	C15H12O+
208.1196	9	C16H16+
209.0947	86	C15H13O+
209.131	13	C16H17+
210.1015	41	C15H14O+
211.1108	447	C15H15O+
212.1146	74	C14[13]CH15O+
213.089	12	C14H13O2+
213.1265	167	C15H17O+
214.1298	28	C14[13]CH17O+
215.1048	12	C14H15O2+
215.1408	8	C15H19O+
219.1166	13	C17H15+
219.1373	10	C14H19O2+
220.1223	13	C17H16+
221.1001	12	C16H13O+
221.1307	19	C17H17+
222.1031	40	C16H14O+
223.1104	124	C16H15O+
224.1169	44	C16H16O+
225.1257	136	C16H17O+
225.1623	8	C17H21+
226.1301	30	C15[13]CH17O+
227.1075	20	C15H15O2+
227.1421	66	C16H19O+
228.1476	9	C15[13]CH19O+
229.1199	8	C15H17O2+
231.1155	8	C18H15+
231.1369	72	C15H19O2+
232.1398	10	C14[13]CH19O2+
233.0961	11	C17H13O+
233.1321	11	C18H17+
234.1017	15	C17H14O+
234.1395	7	C18H18+
235.1118	78	C17H15O+
235.1464	27	C18H19+
236.1171	44	C17H16O+
236.1517	8	C18H20+
237.126	306	C17H17O+
238.133	118	C17H18O+
239.1066	9	C16H15O2+
239.1414	153	C17H19O+
240.1485	33	C16[13]CH19O+
241.1185	16	C16H17O2+
241.1574	39	C17H21O+
242.1635	15	C17H22O+
243.1357	8	C16H19O2+
245.0945	6	C18H13O+
246.1063	12	C18H14O+
247.1086	13	C18H15O+
247.1453	10	C19H19+
248.1186	20	C18H16O+
249.1269	103	C18H17O+
249.1623	6	C19H21+
250.1315	29	C17[13]CH17O+
251.1417	274	C18H19O+
252.1461	57	C17[13]CH19O+
253.1582	559	C18H21O+
254.1604	108	C17[13]CH21O+
255.139	12	C17H19O2+
255.1728	67	C18H23O+
256.1751	13	C17[13]CH23O+
259.1125	19	C19H15O+
260.1168	19	C19H16O+
261.126	64	C19H17O+
261.1617	6	C20H21+
262.1329	37	C19H18O+
263.142	68	C19H19O+
263.1785	24	C20H23+
264.1126	9	C18H16O2+
264.1501	33	C19H20O+
264.1815	11	C20H24+
265.1195	14	C18H17O2+
265.158	121	C19H21O+
266.127	12	C18H18O2+
266.1623	51	C19H22O+
267.1375	44	C18H19O2+
267.1724	7	C19H23O+
268.1426	20	C18H20O2+
269.115	7	C17H17O3+
269.1511	29	C18H21O2+
273.1258	19	C20H17O+
273.1546	8	C17H21O3+
274.1335	36	C20H18O+
275.1406	39	C20H19O+
275.1758	8	C21H23+
276.1482	9	C20H20O+
277.1575	103	C20H21O+
278.1633	42	C20H22O+
279.1374	90	C19H19O2+
279.1731	219	C20H23O+
280.1813	375	C20H24O+
281.1469	10	C19H21O2+
281.1869	138	C20H25O+
282.1924	26	C19[13]CH25O+
283.1713	7	C19H23O2+
285.1455	10	C18H21O3+
285.1618	8	C22H21+
288.149	50	C21H20O+
289.1518	16	C20[13]CH20O+
290.1631	16	C21H22O+
291.1738	62	C21H23O+
292.1765	19	C20[13]CH23O+
293.1528	17	C20H21O2+
293.1896	92	C21H25O+
294.193	25	C20[13]CH25O+
295.1689	20	C20H23O2+
297.1464	58	C19H21O3+
297.1859	17	C20H25O2+
298.1532	17	C18[13]CH21O3+
299.2001	12	C20H27O2+
303.1735	129	C22H23O+
304.1775	34	C21[13]CH23O+
305.1781	8	C18H25O4+
306.1582	10	C21H22O2+
308.1746	19	C21H24O2+
309.1833	70	C21H25O2+
310.1884	14	C20[13]CH25O2+
311.1643	14	C20H23O3+
311.2018	12	C21H27O2+
315.1597	14	C19H23O4+
321.1838	108	C22H25O2+
322.1894	28	C21[13]CH25O2+
339.1946	61	C22H27O3+
340.1976	19	C21[13]CH27O3+
357.2054	56	C22H29O4+
358.2048	13	C21[13]CH29O4+
