Mass spectrum: Tylosin; LC-ESI-QTOF; MS2; HILIC; CE: 40 eV; R=35000; [M+H]+
Name: Tylosin
Name: 2-[(4R,5S,6S,7R,9R,11E,13E,15R,16R)-6-[(2R,3R,4R,5S,6R)-5-[(2S,4R,5S,6S)-4,5-dihydroxy-4,6-dimethyloxan-2-yl]oxy-4-(dimethylamino)-3-hydroxy-6-methyloxan-2-yl]oxy-16-ethyl-4-hydroxy-15-[[(2R,3R,4R,5R,6R)-5-hydroxy-3,4-dimethoxy-6-methyloxan-2-yl]oxymethyl]-5,9,13-trimethyl-2,10-dioxo-1-oxacyclohexadeca-11,13-dien-7-yl]acetaldehyde
Formula: C46H77NO17
Exact mass: 915.5191500
SMILES: CC[C@@H]1[C@H](/C=C(/C=C/C(=O)[C@@H](C[C@@H]([C@@H]([C@H]([C@@H](CC(=O)O1)O)C)O[C@H]2[C@@H]([C@H]([C@@H]([C@H](O2)C)O[C@H]3C[C@@]([C@H]([C@@H](O3)C)O)(C)O)N(C)C)O)CC=O)C)\C)CO[C@H]4[C@@H]([C@@H]([C@@H]([C@H](O4)C)O)OC)OC
InChI: InChI=1S/C46H77NO17/c1-13-33-30(22-58-45-42(57-12)41(56-11)37(52)26(5)60-45)18-23(2)14-15-31(49)24(3)19-29(16-17-48)39(25(4)32(50)20-34(51)62-33)64-44-38(53)36(47(9)10)40(27(6)61-44)63-35-21-46(8,55)43(54)28(7)59-35/h14-15,17-18,24-30,32-33,35-45,50,52-55H,13,16,19-22H2,1-12H3/b15-14+,23-18+/t24-,25+,26-,27-,28+,29+,30-,32-,33-,35+,36-,37-,38-,39-,40-,41-,42-,43+,44+,45-,46-/m1/s1
Instrument: Bruker maXis Impact
Instrument type: LC-ESI-QTOF
Ms type: MS2
Ion mode: POSITIVE
Ionization: ESI
Fragmentation mode: CID
Collision energy: 40 eV
Resolution: 35000
Column name: ACQUITY UPLC BEH Amide 1.7 um 2.1x100mm, Waters
Retention time: 6.231 min
Base peak: 916.5285
Precursor m/z: 916.5264
Precursor type: [M+H]+
m/z	relative intensity	assigned
127.0753	29	C7H11O2+
132.1018	31	C6H14NO2+
145.0859	72	C7H13O3+
146.0893	5	C6[13]CH13O3+
156.1019	20	C8H14NO2+
174.1127	999	C8H16NO3+
175.1157	59	C5H19O6+
176.1174	5	C4[13]CH19O6+
232.1549	6	C11H22NO4+
276.1809	14	C13H26NO5+
318.1917	62	C15H28NO6+
319.1952	10	C14[13]CH28NO6+
389.2336	13	C23H33O5+
391.2479	5	C23H35O5+
407.2438	24	C23H35O6+
408.2471	6	C22[13]CH35O6+
409.2584	6	C23H37O6+
598.3599	18	C46H46+
599.3646	6	C45[13]CH46+
772.4511	258	C39H66NO14+
773.4552	104	C39H67NO14+
774.4568	22	C38[13]CH67NO14+
916.5324	286	C46H78NO17+
917.5343	155	C45[13]CH78NO17+
918.5368	41	C44[13]C2H78NO17+
