Mass spectrum: Erythromycin; LC-ESI-QTOF; MS2; HILIC; CE: 40 eV; R=35000; [M+H]+
Name: Erythromycin
Name: (3R,4S,5S,6R,7R,9R,11R,12R,13S,14R)-6-[(2S,3R,4S,6R)-4-(dimethylamino)-3-hydroxy-6-methyloxan-2-yl]oxy-14-ethyl-7,12,13-trihydroxy-4-[(2R,4R,5S,6S)-5-hydroxy-4-methoxy-4,6-dimethyloxan-2-yl]oxy-3,5,7,9,11,13-hexamethyl-oxacyclotetradecane-2,10-dione
Formula: C37H67NO13
Exact mass: 733.4612412
SMILES: CC[C@@H]1[C@@]([C@@H]([C@H](C(=O)[C@@H](C[C@@]([C@@H]([C@H]([C@@H]([C@H](C(=O)O1)C)O[C@H]2C[C@@]([C@H]([C@@H](O2)C)O)(C)OC)C)O[C@H]3[C@@H]([C@H](C[C@H](O3)C)N(C)C)O)(C)O)C)C)O)(C)O
InChI: InChI=1S/C37H67NO13/c1-14-25-37(10,45)30(41)20(4)27(39)18(2)16-35(8,44)32(51-34-28(40)24(38(11)12)15-19(3)47-34)21(5)29(22(6)33(43)49-25)50-26-17-36(9,46-13)31(42)23(7)48-26/h18-26,28-32,34,40-42,44-45H,14-17H2,1-13H3/t18-,19-,20+,21+,22-,23+,24+,25-,26+,28-,29+,30-,31+,32-,34+,35-,36-,37-/m1/s1
Instrument: Bruker maXis Impact
Instrument type: LC-ESI-QTOF
Ms type: MS2
Ion mode: POSITIVE
Ionization: ESI
Fragmentation mode: CID
Collision energy: 40 eV
Resolution: 35000
Column name: ACQUITY UPLC BEH Amide 1.7 um 2.1x100mm, Waters
Retention time: 6.331 min
Base peak: 301.2864
Precursor m/z: 734.4685
Precursor type: [M+H]+
m/z	relative intensity	assigned
116.0707	13	C5H10NO2+
116.1075	20	C6H14NO+
123.0807	7	C8H11O+
127.0754	21	C7H11O2+
158.1179	999	C8H16NO2+
159.1208	81	C7[13]CH16NO2+
160.1216	7	C12H16+
233.1544	14	C15H21O2+
408.2747	8	C23H38NO5+
522.3461	9	C22H52NO12+
540.3577	5	C22H54NO13+
558.365	13	C29H52NO9+
559.3721	5	C28[13]CH52NO9+
576.3767	47	C29H54NO10+
577.3795	18	C28[13]CH54NO10+
