Mass spectrum: Cefazolin; LC-ESI-QTOF; MS2; HILIC; CE: 10 eV; R=35000; [M+H]+
Name: Cefazolin
Name: (6R,7R)-3-[(5-methyl-1,3,4-thiadiazol-2-yl)sulfanylmethyl]-8-oxo-7-[[2-(tetrazol-1-yl)acetyl]amino]-5-thia-1-azabicyclo[4.2.0]oct-2-ene-2-carboxylic acid
Formula: C14H14N8O4S3
Exact mass: 454.0300139
SMILES: Cc1nnc(s1)SCC2=C(N3[C@@H]([C@@H](C3=O)NC(=O)Cn4cnnn4)SC2)C(=O)O
InChI: InChI=1S/C14H14N8O4S3/c1-6-17-18-14(29-6)28-4-7-3-27-12-9(11(24)22(12)10(7)13(25)26)16-8(23)2-21-5-15-19-20-21/h5,9,12H,2-4H2,1H3,(H,16,23)(H,25,26)/t9-,12-/m1/s1
Instrument: Bruker maXis Impact
Instrument type: LC-ESI-QTOF
Ms type: MS2
Ion mode: POSITIVE
Ionization: ESI
Fragmentation mode: CID
Collision energy: 10 eV
Resolution: 35000
Column name: ACQUITY  UPLC BEH Amide 1.7 um 2.1x100mm, Waters
Retention time: 5.679 min
Base peak: 704.523
Precursor m/z: 455.0373
Precursor type: [M+H]+
m/z	relative intensity	assigned
132.9884	17	C3H5N2S2+
156.0107	135	C6H6NO2S+
158.0095	19	C6N5O+
295.0624	61	C12H13N3O4S+
323.0559	999	C11H11N6O4S+
324.0591	155	C10[13]CH11N6O4S+
455.0373	511	C14H15N8O4S3+
456.0403	104	C13[13]CH15N8O4S3+
457.0343	89	C14H15N8O4S2[34]S+
