Mass spectrum: Sulfamethazine; LC-ESI-QTOF; MS2; CE: Ramp 20.8-31.1 eV; R=35000; [M+H]+
Name: Sulfamethazine
Name: 4-amino-N-(4,6-dimethylpyrimidin-2-yl)benzenesulfonamide
Formula: C12H14N4O2S
Exact mass: 278.0837467
SMILES: CC1=CC(C)=NC(NS(=O)(=O)C2=CC=C(N)C=C2)=N1
InChI: InChI=1S/C12H14N4O2S/c1-8-7-9(2)15-12(14-8)16-19(17,18)11-5-3-10(13)4-6-11/h3-7H,13H2,1-2H3,(H,14,15,16)
Instrument: Bruker maXis Impact
Instrument type: LC-ESI-QTOF
Ms type: MS2
Ion mode: POSITIVE
Ionization: ESI
Fragmentation mode: CID
Collision energy: Ramp 20.8-31.1 eV
Resolution: 35000
Column name: Acclaim RSLC C18 2.2um, 2.1x100mm, Thermo
Retention time: 4.256 min
Base peak: 279.0906
Precursor m/z: 279.091
Precursor type: [M+H]+
m/z	relative intensity	assigned
54.0341	5	C3H4N+
55.0176	5	C3H3O+
65.038	34	C5H5+
68.049	81	C4H6N+
69.0329	6	C4H5O+
78.0333	8	C5H4N+
79.0176	13	C5H3O+
80.0494	6	C5H6N+
81.0443	14	C4H5N2+
92.0501	133	C6H6N+
93.0565	18	C6H7N+
94.0655	11	C6H8N+
95.0606	19	C5H7N2+
96.0447	8	C5H6NO+
108.0459	181	C6H6NO+
109.0489	13	C5[13]CH6NO+
110.0608	28	C6H8NO+
120.0559	15	C6H6N3+
122.0707	38	C6H8N3+
123.0788	16	C6H9N3+
124.0864	684	C6H10N3+
125.0892	51	C5[13]CH10N3+
147.09	5	CH15N4O2S+
156.0103	557	C6H6NO2S+
157.0135	45	C5[13]CH6NO2S+
158.0061	17	C6H6NO2[34]S+
174.0216	11	C12H2N2+
186.0322	134	C9H4N3O2+
187.0345	8	C8[13]CH4N3O2+
196.0859	5	C12H10N3+
204.0431	999	C9H8N4S+
205.0459	82	C8[13]CH8N4S+
206.0396	39	C9H8N4[34]S+
213.113	204	C12H13N4+
214.1169	23	C11[13]CH13N4+
215.1291	9	C12H15N4+
279.0912	577	C12H15N4O2S+
280.0943	76	C11[13]CH15N4O2S+
281.0884	22	C12H15N4O2[34]S+
