Mass spectrum: Tiamulin; LC-ESI-QTOF; MS2; HILIC; CE: 20 eV; R=35000; [M+H]+
Name: Tiamulin
Formula: C28H47NO4S
Exact mass: 493.3225800
SMILES: CCN(CC)CCSCC(=O)O[C@@H]1C[C@@]([C@H]([C@@H]([C@@]23CC[C@H]([C@@]1([C@@H]2C(=O)CC3)C)C)C)O)(C)C=C
InChI: InChI=1S/C28H47NO4S/c1-8-26(6)17-22(33-23(31)18-34-16-15-29(9-2)10-3)27(7)19(4)11-13-28(20(5)25(26)32)14-12-21(30)24(27)28/h8,19-20,22,24-25,32H,1,9-18H2,2-7H3/t19-,20+,22-,24+,25+,26-,27+,28+/m1/s1
Instrument: Bruker maXis Impact
Instrument type: LC-ESI-QTOF
Ms type: MS2
Ion mode: POSITIVE
Ionization: ESI
Fragmentation mode: CID
Collision energy: 20 eV
Resolution: 35000
Column name: ACQUITY UPLC BEH Amide 1.7 um 2.1x100 mm, Waters
Retention time: 6.154 min
Base peak: 494.3317
Precursor m/z: 494.3299
Precursor type: [M+H]+
m/z	relative intensity	assigned
119.0157	13	C4H7O2S+
163.1111	12	C11H15O+
177.1273	6	C12H17O+
192.1061	999	C8H18NO2S+
194.1014	52	C8H18NO2[34]S+
221.1532	9	C14H21O2+
227.1783	6	C17H23+
229.1946	6	C17H25+
245.1896	33	C17H25O+
246.193	5	C16[13]CH25O+
257.2254	9	C19H29+
267.2101	19	C20H27+
285.221	54	C20H29O+
286.2242	10	C19[13]CH29O+
303.2313	43	C20H31O2+
304.2349	8	C19[13]CH31O2+
494.3316	909	C28H48NO4S+
495.3338	277	C27[13]CH48NO4S+
496.3324	67	C26[13]C2H48NO4S+
