Mass spectrum: Enrofloxacin; LC-ESI-QTOF; MS2; CE: 10 eV; R=35000; [M+H]+
Name: Enrofloxacin
Name: 1-cyclopropyl-7-(4-ethylpiperazin-1-yl)-6-fluoro-4-oxoquinoline-3-carboxylic acid
Formula: C19H22FN3O3
Exact mass: 359.1645198
SMILES: CCN1CCN(CC1)C1=C(F)C=C2C(=O)C(=CN(C3CC3)C2=C1)C(O)=O
InChI: InChI=1S/C19H22FN3O3/c1-2-21-5-7-22(8-6-21)17-10-16-13(9-15(17)20)18(24)14(19(25)26)11-23(16)12-3-4-12/h9-12H,2-8H2,1H3,(H,25,26)
Instrument: Bruker maXis Impact
Instrument type: LC-ESI-QTOF
Ms type: MS2
Ion mode: POSITIVE
Ionization: ESI
Fragmentation mode: CID
Collision energy: 10 eV
Resolution: 35000
Column name: Acclaim RSLC C18 2.2um, 2.1x100mm, Thermo
Retention time: 4.530 min
Base peak: 238.0993
Precursor m/z: 360.1718
Precursor type: [M+H]+
m/z	relative intensity	assigned
316.1819	12	C18H23FN3O+
318.1616	6	C17H21FN3O2+
360.172	999	C19H23FN3O3+
361.175	186	C18[13]CH23FN3O3+
