Mass spectrum: Ciprofloxacin; LC-ESI-QTOF; MS2; CE: 50 eV; R=35000; [M+H]+
Name: Ciprofloxacin
Name: 1-cyclopropyl-6-fluoro-4-oxo-7-piperazin-1-ylquinoline-3-carboxylic acid
Formula: C17H18FN3O3
Exact mass: 331.1332197
SMILES: OC(=O)C1=CN(C2CC2)C2=C(C=C(F)C(=C2)N2CCNCC2)C1=O
InChI: InChI=1S/C17H18FN3O3/c18-13-7-11-14(8-15(13)20-5-3-19-4-6-20)21(10-1-2-10)9-12(16(11)22)17(23)24/h7-10,19H,1-6H2,(H,23,24)
Instrument: Bruker maXis Impact
Instrument type: LC-ESI-QTOF
Ms type: MS2
Ion mode: POSITIVE
Ionization: ESI
Fragmentation mode: CID
Collision energy: 50 eV
Resolution: 35000
Column name: Acclaim RSLC C18 2.2um, 2.1x100mm, Thermo
Retention time: 4.368 min
Base peak: 362.1504
Precursor m/z: 332.1405
Precursor type: [M+H]+
m/z	relative intensity	assigned
136.0554	9	C8H7FN+
148.0548	26	C9H7FN+
155.0577	9	C7H9NO3+
173.0621	10	C8H10FO3+
174.0583	7	C10H7FN2+
174.0675	11	C11H10O2+
175.065	21	C7H10FNO3+
176.0752	7	C10H9FN2+
187.0666	15	C11H8FN2+
188.0369	19	C13H4N2+
188.0732	10	C11H9FN2+
189.0439	29	C13H5N2+
189.0907	8	C7H12FN3O2+
191.0604	10	C13H7N2+
201.0796	18	C9H12FNO3+
202.0309	7	C11H5FNO2+
203.0614	72	C11H8FN2O+
204.0682	18	C14H8N2+
205.0773	12	C11H10FN2O+
215.0258	15	C11H4FN2O2+
215.0958	11	C10H14FNO3+
216.1046	7	C13H13FN2+
217.0396	9	C14H5N2O+
218.0471	11	C14H6N2O+
225.047	7	C13H6FN2O+
229.0769	14	C13H10FN2O+
231.0557	999	C15H7N2O+
232.058	183	C14[13]CH7N2O+
233.0599	17	C13[13]C2H7N2O+
243.0567	7	C13H8FN2O2+
249.0662	192	C15H9N2O2+
250.0695	24	C14[13]CH9N2O2+
272.1165	9	C15H16N2O3+
312.13	10	C17H18N3O3+
332.1394	36	C17H19FN3O3+
