Mass spectrum: Sulfathiazole; LC-ESI-QTOF; MS2; CE: 50 eV; R=35000; [M+H]+
Name: Sulfathiazole
Name: 4-amino-N-(1,3-thiazol-2-yl)benzenesulfonamide
Formula: C9H9N3O2S2
Exact mass: 255.0136185
SMILES: NC1=CC=C(C=C1)S(=O)(=O)NC1=NC=CS1
InChI: InChI=1S/C9H9N3O2S2/c10-7-1-3-8(4-2-7)16(13,14)12-9-11-5-6-15-9/h1-6H,10H2,(H,11,12)
Instrument: Bruker maXis Impact
Instrument type: LC-ESI-QTOF
Ms type: MS2
Ion mode: POSITIVE
Ionization: ESI
Fragmentation mode: CID
Collision energy: 50 eV
Resolution: 35000
Column name: Acclaim RSLC C18 2.2um, 2.1x100mm, Thermo
Retention time: 5.135 min
Base peak: 256.0149
Precursor m/z: 256.0209
Precursor type: [M+H]+
m/z	relative intensity	assigned
108.9846	14	C4HN2S+
110.9808	9	CH5NOS2+
114.0325	23	H8N3O2S+
115.0287	20	C7H3N2+
115.04	16	H9N3O2S+
116.0359	10	C7H4N2+
116.0492	28	C8H6N+
117.044	7	C7H5N2+
121.9916	11	C5H2N2S+
122.9987	232	C5H3N2S+
123.994	267	C9O+
124.9984	86	C2H7NOS2+
125.9908	57	CH6N2OS2+
126.9959	27	C4H3N2OS+
127.0174	10	C9H3O+
128.0015	29	C7N2O+
128.9918	5	CH7NO2S2+
129.0438	23	C8H5N2+
129.9978	5	CH8NO2S2+
130.0523	8	C8H6N2+
131.0593	234	C8H7N2+
132.0625	14	C7[13]CH7N2+
133.9629	23	C2H2N2OS2+
134.9564	142	C3H3O2S2+
135.9614	5	C2[13]CH3O2S2+
135.9937	60	C5H2N3S+
137.0011	20	C5H3N3S+
137.9905	16	C2H6N2OS2+
138.0091	202	C8N3+
138.9991	6	C2H7N2OS2+
139.0159	34	C8HN3+
140.0065	47	C2H8N2OS2+
140.0361	16	C9H4N2+
141.014	8	C2H9N2OS2+
141.043	8	C9H5N2+
142.0053	6	C2H8N2OS[34]S+
142.0396	6	C8H4N3+
143.0464	22	C8H5N3+
144.0541	10	C8H6N3+
146.9566	104	C4H3O2S2+
146.9745	10	C7HNOS+
147.9622	9	C7O2S+
147.9935	78	C6H2N3S+
148.971	10	C2H3N3OS2+
149.0008	48	C6H3N3S+
149.9917	25	C3H6N2OS2+
150.009	49	C9N3+
151.0049	68	C7H5NOS+
151.0169	387	C9HN3+
153.0144	123	C3H9N2OS2+
154.0087	135	C5H4N3OS+
154.9996	15	C9HNO2+
155.014	6	C4[13]CH4N3OS+
156.0019	6	C5H4N3O[34]S+
157.963	47	C4H2N2OS2+
158.9564	395	C5H3O2S2+
158.9751	365	C8HNOS+
159.9705	251	C7N2OS+
160.9723	257	C5H5O2S2+
161.9672	159	C4H4NO2S2+
162.9699	78	C7HNO2S+
163.0048	21	C8H5NOS+
163.9996	209	C5H8O2S2+
164.9673	47	C2H3N3O2S2+
165.003	20	C3H7N3OS2+
165.0202	194	C8H7NOS+
165.9971	51	C7H4NO2S+
166.028	280	C8H8NOS+
167.0176	55	C3H9N3OS2+
167.0295	21	C7H7N2OS+
168.0249	68	C8H8O2S+
169.0162	9	C8H9S2+
171.9699	261	C8N2OS+
172.9651	999	C9HO2S+
173.9672	203	C5H4NO2S2+
173.9856	33	C8H2N2OS+
174.9627	544	C4H3N2O2S2+
175.9665	23	C3[13]CH3N2O2S2+
175.9832	24	C5H6NO2S2+
176.0114	23	C5H8N2OS2+
177.0077	22	C6H9O2S2+
178.0147	71	C6H10O2S2+
179.0229	31	C8H7N2OS+
180.0138	13	C5H10NO2S2+
180.0299	9	C4H10N3OS2+
181.0192	9	C8H7NO2S+
183.9702	259	C9N2OS+
184.9773	90	C9HN2OS+
185.9676	161	C6H4NO2S2+
186.9807	196	C8HN3OS+
187.9836	19	C7[13]CHN3OS+
187.9997	6	C7H8O2S2+
188.9782	113	C5H5N2O2S2+
189.9811	26	C8H2N2O2S+
191.9792	11	C8H4N2S2+
194.0348	19	C8H8N3OS+
195.9667	17	C8H4O2S2+
196.031	7	C8H8N2O2S+
196.9605	92	C7H3NO2S2+
198.9646	7	C6H3N2O2S2+
198.9797	8	C9HN3OS+
199.9908	5	C9H2N3OS+
201.9841	6	C9H2N2O2S+
209.9742	6	C7H4N3OS2+
210.9816	212	C7H5N3OS2+
212.9784	147	C7H5N2O2S2+
213.974	56	C6H4N3O2S2+
214.9801	6	C7H5N2O2S[34]S+
222.0352	12	C9H8N3O2S+
256.0148	41	C9H10N3O2S2+
