Mass spectrum: Cefazolin; LC-ESI-QTOF; MS2; HILIC; CE: 40 eV; R=35000; [M+H]+
Name: Cefazolin
Name: (6R,7R)-3-[(5-methyl-1,3,4-thiadiazol-2-yl)sulfanylmethyl]-8-oxo-7-[[2-(tetrazol-1-yl)acetyl]amino]-5-thia-1-azabicyclo[4.2.0]oct-2-ene-2-carboxylic acid
Formula: C14H14N8O4S3
Exact mass: 454.0300139
SMILES: Cc1nnc(s1)SCC2=C(N3[C@@H]([C@@H](C3=O)NC(=O)Cn4cnnn4)SC2)C(=O)O
InChI: InChI=1S/C14H14N8O4S3/c1-6-17-18-14(29-6)28-4-7-3-27-12-9(11(24)22(12)10(7)13(25)26)16-8(23)2-21-5-15-19-20-21/h5,9,12H,2-4H2,1H3,(H,16,23)(H,25,26)/t9-,12-/m1/s1
Instrument: Bruker maXis Impact
Instrument type: LC-ESI-QTOF
Ms type: MS2
Ion mode: POSITIVE
Ionization: ESI
Fragmentation mode: CID
Collision energy: 40 eV
Resolution: 35000
Column name: ACQUITY UPLC BEH Amide 1.7 um 2.1x100mm, Waters
Retention time: 5.629 min
Base peak: 455.0379
Precursor m/z: 455.0373
Precursor type: [M+H]+
m/z	relative intensity	assigned
119.0601	162	C7H7N2+
120.0681	112	C7H8N2+
122.0057	68	C6H4NS+
123.0142	36	H11O3S2+
124.022	433	H12O3S2+
124.0509	68	C5H6N3O+
126.0019	56	H6N4S2+
126.0154	65	CH8N3S2+
126.0361	50	C6H8NS+
127.0196	50	C4H5N3S+
128.0266	129	C9H4O+
130.0199	39	C4H6N2OS+
132.0551	37	C7H6N3+
132.9884	541	C3H5N2S2+
133.0635	56	C7H7N3+
134.0708	84	C7H8N3+
134.9841	64	H9NOS3+
137.0152	53	C3H7NO3S+
139.0088	34	C6H5NOS+
139.0323	545	C6H7N2S+
140.0166	84	C6H6NOS+
140.032	52	C2H2N7O+
140.0427	41	C3H12N2S2+
141.0479	122	C6H9N2S+
144.0109	36	C5H6NO2S+
146.073	37	C10H10O+
147.0773	48	C5H11N2O3+
149.0165	42	C7H5N2S+
149.0796	46	C4H11N3O3+
151.0322	304	C7H7N2S+
152.0165	95	C7H6NOS+
152.0358	50	C2H8N4O2S+
153.0477	535	C7H9N2S+
154.0084	33	C7H6O2S+
154.0485	39	C5H6N4O2+
155.0454	38	C6H7N2O3+
156.0108	999	C6H6NO2S+
157.017	142	C4H13S3+
157.0315	69	C7H9O2S+
158.0265	69	C6H8NO2S+
161.0819	112	C8H9N4+
162.0659	38	C8H8N3O+
162.0863	66	C3H10N6O2+
163.0321	61	H3N8O3+
164.0281	43	CH12N2O3S2+
166.0429	433	C7H8N3S+
167.0277	65	CH13NO4S2+
167.0471	39	C2H9N5O2S+
168.0124	51	H6N7S2+
169.0409	33	C4H11NO4S+
178.0429	304	H12N5O2S2+
179.0277	89	C8H7N2OS+
179.0486	35	C5H11N2O3S+
180.0582	86	H14N5O2S2+
181.0429	43	H5N8O4+
182.0396	33	C9H10O2S+
185.0393	35	C2H11N5OS2+
189.0771	50	C9H9N4O+
192.0246	65	C3H8N6S2+
193.007	43	CH5N8S2+
193.0551	62	C2H15N3O3S2+
194.0389	41	C2H14N2O4S2+
195.0228	53	CH7N8S2+
195.0719	34	C10H13NOS+
196.0541	39	C8H10N3OS+
197.0373	59	H13N4O4S2+
206.0395	68	C11H10O2S+
208.0514	36	C6H12N2O4S+
210.0326	55	H12N5O4S2+
252.0434	126	C10H10N3O3S+
