Mass spectrum: Ciprofloxacin; LC-ESI-QTOF; MS2; CE: 30 eV; R=35000; [M+H]+
Name: Ciprofloxacin
Name: 1-cyclopropyl-6-fluoro-4-oxo-7-piperazin-1-ylquinoline-3-carboxylic acid
Formula: C17H18FN3O3
Exact mass: 331.1332197
SMILES: OC(=O)C1=CN(C2CC2)C2=C(C=C(F)C(=C2)N2CCNCC2)C1=O
InChI: InChI=1S/C17H18FN3O3/c18-13-7-11-14(8-15(13)20-5-3-19-4-6-20)21(10-1-2-10)9-12(16(11)22)17(23)24/h7-10,19H,1-6H2,(H,23,24)
Instrument: Bruker maXis Impact
Instrument type: LC-ESI-QTOF
Ms type: MS2
Ion mode: POSITIVE
Ionization: ESI
Fragmentation mode: CID
Collision energy: 30 eV
Resolution: 35000
Column name: Acclaim RSLC C18 2.2um, 2.1x100mm, Thermo
Retention time: 4.404 min
Base peak: 362.151
Precursor m/z: 332.1405
Precursor type: [M+H]+
m/z	relative intensity	assigned
149.0569	9	C7H7N3O+
203.0614	13	C11H8FN2O+
204.0678	29	C14H8N2+
205.0755	10	C14H9N2+
215.1269	40	C9H17N3O3+
225.053	8	C12H7N3O2+
231.0557	194	C15H7N2O+
231.0905	14	C16H11N2+
232.0594	20	C14[13]CH7N2O+
245.1074	99	C17H13N2+
246.1102	16	C16[13]CH13N2+
249.0664	25	C15H9N2O2+
268.1467	12	C13H19FN3O2+
273.0893	11	C17H11N3O+
286.1322	9	C16H18N2O3+
288.1508	73	C16H19FN3O+
289.1529	9	C15[13]CH19FN3O+
294.1226	8	C17H16N3O2+
312.1344	34	C17H18N3O3+
314.1292	201	C17H17FN3O2+
315.131	41	C16[13]CH17FN3O2+
332.1407	999	C17H19FN3O3+
333.1434	224	C16[13]CH19FN3O3+
