Mass spectrum: Methylprednisolone; LC-ESI-QTOF; MS2; HILIC; CE: 20 eV; R=35000; [M+H]+
Name: Methylprednisolone
Name: methylprednisolone
Name: (6S,8S,9S,10R,11S,13S,14S,17R)-11,17-dihydroxy-17-(2-hydroxyacetyl)-6,10,13-trimethyl-7,8,9,11,12,14,15,16-octahydro-6H-cyclopenta[a]phenanthren-3-one
Formula: C22H30O5
Exact mass: 374.2093241
SMILES: C[C@H]1C[C@H]2[C@@H]3CC[C@@]([C@]3(C[C@@H]([C@@H]2[C@@]4(C1=CC(=O)C=C4)C)O)C)(C(=O)CO)O
InChI: InChI=1S/C22H30O5/c1-12-8-14-15-5-7-22(27,18(26)11-23)21(15,3)10-17(25)19(14)20(2)6-4-13(24)9-16(12)20/h4,6,9,12,14-15,17,19,23,25,27H,5,7-8,10-11H2,1-3H3/t12-,14-,15-,17-,19+,20-,21-,22-/m0/s1
Instrument: Bruker maXis Impact
Instrument type: LC-ESI-QTOF
Ms type: MS2
Ion mode: POSITIVE
Ionization: ESI
Fragmentation mode: CID
Collision energy: 20 eV
Resolution: 35000
Column name: ACQUITY UPLC BEH Amide 1.7 um 2.1x100 mm, Waters
Retention time: 1.840 min
Base peak: 375.2156
Precursor m/z: 375.2166
Precursor type: [M+H]+
m/z	relative intensity	assigned
119.0848	18	C9H11+
121.0643	53	C8H9O+
123.0802	12	C8H11O+
125.058	14	C7H9O2+
125.0949	8	C8H13O+
127.0737	10	C7H11O2+
131.0844	23	C10H11+
133.1	28	C10H13+
135.0795	491	C9H11O+
136.0824	43	C8[13]CH11O+
137.0579	8	C8H9O2+
137.0958	15	C9H13O+
139.0744	31	C8H11O2+
143.0863	11	C11H11+
145.0637	22	C10H9O+
145.1007	48	C11H13+
147.0796	74	C10H11O+
147.119	16	C11H15+
149.0951	73	C10H13O+
151.0739	27	C9H11O2+
153.0903	14	C9H13O2+
155.0719	15	C8H11O3+
155.0848	8	C12H11+
157.0852	9	C8H13O3+
157.0999	16	C12H13+
158.0716	8	C11H10O+
159.0792	97	C11H11O+
159.1168	13	C12H15+
160.0849	14	C11H12O+
161.0949	741	C11H13O+
162.0983	92	C10[13]CH13O+
163.1111	35	C11H15O+
165.09	100	C10H13O2+
166.0956	8	C10H14O2+
167.1067	13	C10H15O2+
169.0999	11	C13H13+
171.0799	26	C12H11O+
171.1161	23	C13H15+
172.0861	11	C12H12O+
173.0958	98	C12H13O+
173.1321	8	C13H17+
175.1117	71	C12H15O+
177.0896	60	C11H13O2+
177.1272	14	C12H17O+
178.0944	14	C11H14O2+
179.1038	14	C11H15O2+
183.0995	40	C10H15O3+
183.1134	12	C14H15+
185.0948	406	C13H13O+
186.0981	56	C12[13]CH13O+
187.1109	347	C13H15O+
188.1146	56	C12[13]CH15O+
189.0906	68	C12H13O2+
189.1251	23	C13H17O+
191.1066	19	C12H15O2+
191.1401	8	C13H19O+
193.1222	12	C12H17O2+
195.115	8	C15H15+
197.0956	11	C14H13O+
198.1014	8	C14H14O+
199.1112	76	C14H15O+
201.0927	10	C13H13O2+
201.1265	53	C14H17O+
203.1089	11	C13H15O2+
203.1437	8	C14H19O+
205.1234	14	C13H17O2+
209.095	21	C15H13O+
210.101	8	C15H14O+
211.1109	170	C15H15O+
212.1145	34	C14[13]CH15O+
213.126	133	C15H17O+
214.128	28	C14[13]CH17O+
215.1047	11	C14H15O2+
215.1422	15	C15H19O+
219.135	12	C14H19O2+
222.1043	8	C16H14O+
223.1108	47	C16H15O+
224.1186	14	C16H16O+
225.1261	69	C16H17O+
226.1305	20	C16H18O+
227.1042	26	C15H15O2+
227.1405	46	C16H19O+
228.1101	8	C15H16O2+
228.1464	16	C16H20O+
229.1209	11	C15H17O2+
231.1371	95	C15H19O2+
232.1407	15	C14[13]CH19O2+
235.1114	43	C17H15O+
236.116	11	C17H16O+
237.1265	181	C17H17O+
238.1298	51	C16[13]CH17O+
239.1424	100	C17H19O+
240.147	25	C16[13]CH19O+
241.1559	60	C17H21O+
247.1102	12	C18H15O+
248.1169	8	C18H16O+
249.127	47	C18H17O+
249.1505	9	C15H21O3+
250.1301	18	C18H18O+
251.1417	221	C18H19O+
252.1446	45	C17[13]CH19O+
253.158	668	C18H21O+
254.1619	116	C17[13]CH21O+
255.1743	87	C18H23O+
256.1775	12	C17[13]CH23O+
261.1294	35	C19H17O+
262.1343	15	C19H18O+
263.1419	53	C19H19O+
264.146	14	C19H20O+
265.12	12	C18H17O2+
265.1587	51	C19H21O+
267.1365	55	C18H19O2+
267.1617	11	C15H23O4+
268.1404	16	C18H20O2+
269.1529	31	C18H21O2+
274.133	18	C20H18O+
275.1438	18	C20H19O+
275.1736	7	C21H23+
277.1572	129	C20H21O+
278.1621	52	C20H22O+
279.137	107	C19H19O2+
279.1732	350	C20H23O+
280.1395	27	C18[13]CH19O2+
280.1795	311	C20H24O+
281.1509	11	C19H21O2+
281.1875	212	C20H25O+
282.191	44	C19[13]CH25O+
283.1956	11	C16H27O4+
285.1519	12	C18H21O3+
288.1481	22	C21H20O+
289.1522	10	C21H21O+
290.1634	10	C21H22O+
291.175	90	C21H23O+
292.1779	25	C20[13]CH23O+
293.1521	56	C20H21O2+
293.1892	206	C21H25O+
294.1516	8	C16H22O5+
294.1627	10	C20H22O2+
294.1929	45	C20[13]CH25O+
295.1673	37	C20H23O2+
296.1729	10	C20H24O2+
297.1481	94	C19H21O3+
297.1855	47	C20H25O2+
298.1534	31	C18[13]CH21O3+
298.189	9	C20H26O2+
299.1998	24	C20H27O2+
300.2094	8	C20H28O2+
303.1731	247	C22H23O+
304.1755	71	C22H24O+
305.1813	12	C21[13]CH24O+
306.1608	11	C21H22O2+
309.1836	106	C21H25O2+
310.1872	31	C20[13]CH25O2+
311.1671	13	C20H23O3+
311.1988	46	C21H27O2+
312.1975	10	C17H28O5+
312.2061	8	C21H28O2+
315.1575	73	C19H23O4+
316.1612	15	C18[13]CH23O4+
321.1844	504	C22H25O2+
322.1874	122	C22H26O2+
323.1905	12	C21[13]CH26O2+
327.1959	25	C21H27O3+
329.209	14	C21H29O3+
339.1948	660	C22H27O3+
340.1981	146	C21[13]CH27O3+
357.206	999	C22H29O4+
358.2084	221	C21[13]CH29O4+
375.2122	35	C22H31O5+
