Mass spectrum: Cefazolin; LC-ESI-QTOF; MS2; HILIC; CE: 50 eV; R=35000; [M+H]+
Name: Cefazolin
Name: (6R,7R)-3-[(5-methyl-1,3,4-thiadiazol-2-yl)sulfanylmethyl]-8-oxo-7-[[2-(tetrazol-1-yl)acetyl]amino]-5-thia-1-azabicyclo[4.2.0]oct-2-ene-2-carboxylic acid
Formula: C14H14N8O4S3
Exact mass: 454.0300139
SMILES: Cc1nnc(s1)SCC2=C(N3[C@@H]([C@@H](C3=O)NC(=O)Cn4cnnn4)SC2)C(=O)O
InChI: InChI=1S/C14H14N8O4S3/c1-6-17-18-14(29-6)28-4-7-3-27-12-9(11(24)22(12)10(7)13(25)26)16-8(23)2-21-5-15-19-20-21/h5,9,12H,2-4H2,1H3,(H,16,23)(H,25,26)/t9-,12-/m1/s1
Instrument: Bruker maXis Impact
Instrument type: LC-ESI-QTOF
Ms type: MS2
Ion mode: POSITIVE
Ionization: ESI
Fragmentation mode: CID
Collision energy: 50 eV
Resolution: 35000
Column name: ACQUITY UPLC BEH Amide 1.7 um 2.1x100mm, Water
Retention time: 5.679 min
Base peak: 455.038
Precursor m/z: 455.0373
Precursor type: [M+H]+
m/z	relative intensity	assigned
118.0533	60	CH12NO3S+
119.0615	240	CH13NO3S+
120.0683	221	C7H8N2+
122.0065	176	H10O3S2+
123.012	60	C3H7O3S+
124.0217	552	C6H6NS+
126.001	81	C5H4NOS+
126.0371	63	C6H8NS+
127.0205	151	C4H5N3S+
128.027	298	C4H6N3S+
132.9883	931	C3H5N2S2+
133.0638	74	C7H7N3+
134.0708	155	C7H8N3+
134.9843	92	H9NOS3+
135.0561	59	CH13NO4S+
136.0207	85	C7H6NS+
137.0177	76	H11NO3S2+
139.0088	69	C6H5NOS+
139.0329	793	H13NO3S2+
140.0173	96	H12O4S2+
140.0382	64	C3H10NO3S+
141.0274	60	C3H11NOS2+
141.0485	116	H15NO3S2+
145.0624	64	H11N5O2S+
151.0324	397	C7H7N2S+
152.0163	109	C7H6NOS+
153.0475	397	C7H9N2S+
154.0131	68	C6H4NO4+
156.0115	999	C6H6NO2S+
157.0166	143	C2H3N7S+
158.0248	73	C4H14S3+
161.0822	131	C8H9N4+
162.0915	60	C10H12NO+
163.0329	61	C2H13NO3S2+
164.0266	101	C12H4O+
166.0436	336	C7H8N3S+
167.0279	81	CH13NO4S2+
168.0113	74	C7H6NO2S+
178.0432	173	C8H8N3S+
179.0263	80	C6H5N5S+
195.0215	73	H11N4O4S2+
197.039	60	CH9N8S2+
210.036	75	C5H12N3O2S2+
