Mass spectrum: Flumequine; LC-ESI-QTOF; MS2; CE: 10 eV; R=35000; [M+H]+
Name: Flumequine
Name: 7-fluoro-12-methyl-4-oxo-1-azatricyclo[7.3.1.05,13]trideca-2,5,7,9(13)-tetraene-3-carboxylic acid
Formula: C14H12FNO3
Exact mass: 261.0801215
SMILES: CC1CCC2=C3N1C=C(C(O)=O)C(=O)C3=CC(F)=C2
InChI: InChI=1S/C14H12FNO3/c1-7-2-3-8-4-9(15)5-10-12(8)16(7)6-11(13(10)17)14(18)19/h4-7H,2-3H2,1H3,(H,18,19)
Instrument: Bruker maXis Impact
Instrument type: LC-ESI-QTOF
Ms type: MS2
Ion mode: POSITIVE
Ionization: ESI
Fragmentation mode: CID
Collision energy: 10 eV
Resolution: 35000
Column name: Acclaim RSLC C18 2.2um, 2.1x100mm, Thermo
Retention time: 7.400 min
Base peak: 262.0871
Precursor m/z: 262.0874
Precursor type: [M+H]+
m/z	relative intensity	assigned
244.0764	100	C14H11FNO2+
245.0792	13	C13[13]CH11FNO2+
262.0874	999	C14H13FNO3+
263.0903	148	C13[13]CH13FNO3+
264.0923	10	C12[13]C2H13FNO3+
