Mass spectrum: Methylprednisolone; LC-ESI-QTOF; MS2; HILIC; CE: 50 eV; R=35000; [M+H]+
Name: Methylprednisolone
Name: methylprednisolone
Name: (6S,8S,9S,10R,11S,13S,14S,17R)-11,17-dihydroxy-17-(2-hydroxyacetyl)-6,10,13-trimethyl-7,8,9,11,12,14,15,16-octahydro-6H-cyclopenta[a]phenanthren-3-one
Formula: C22H30O5
Exact mass: 374.2093241
SMILES: C[C@H]1C[C@H]2[C@@H]3CC[C@@]([C@]3(C[C@@H]([C@@H]2[C@@]4(C1=CC(=O)C=C4)C)O)C)(C(=O)CO)O
InChI: InChI=1S/C22H30O5/c1-12-8-14-15-5-7-22(27,18(26)11-23)21(15,3)10-17(25)19(14)20(2)6-4-13(24)9-16(12)20/h4,6,9,12,14-15,17,19,23,25,27H,5,7-8,10-11H2,1-3H3/t12-,14-,15-,17-,19+,20-,21-,22-/m0/s1
Instrument: Bruker maXis Impact
Instrument type: LC-ESI-QTOF
Ms type: MS2
Ion mode: POSITIVE
Ionization: ESI
Fragmentation mode: CID
Collision energy: 50 eV
Resolution: 35000
Column name: ACQUITY UPLC BEH Amide 1.7 um 2.1x100mm, Water
Retention time: 1.816 min
Base peak: 375.2162
Precursor m/z: 375.2166
Precursor type: [M+H]+
m/z	relative intensity	assigned
115.0536	260	C9H7+
116.0592	45	C9H8+
117.0699	162	C9H9+
119.0852	143	C9H11+
121.0639	602	C8H9O+
122.0675	62	C7[13]CH9O+
123.0781	16	C8H11O+
127.0543	36	C10H7+
128.0615	236	C10H8+
129.0692	182	C10H9+
130.0752	96	C10H10+
131.0488	67	C9H7O+
131.0853	235	C10H11+
132.0557	29	C9H8O+
133.0641	80	C9H9O+
133.1007	225	C10H13+
135.0796	942	C9H11O+
136.0833	94	C8[13]CH11O+
137.0594	55	C8H9O2+
137.0954	15	C9H13O+
141.069	205	C11H9+
142.0767	230	C11H10+
143.085	215	C11H11+
144.0562	106	C10H8O+
144.0918	59	C11H12+
145.0643	394	C10H9O+
145.1006	155	C11H13+
146.0714	295	C10H10O+
147.079	220	C10H11O+
147.1165	64	C11H15+
149.096	48	C10H13O+
150.101	16	C10H14O+
152.0618	59	C12H8+
153.0681	84	C12H9+
154.0755	54	C12H10+
155.085	168	C12H11+
156.0916	77	C12H12+
157.0637	108	C11H9O+
157.0999	168	C12H13+
158.0715	383	C11H10O+
158.1065	29	C12H14+
159.0791	545	C11H11O+
159.1158	85	C12H15+
160.0847	142	C11H12O+
161.0951	999	C11H13O+
162.0984	126	C10[13]CH13O+
165.0694	135	C13H9+
166.0765	93	C13H10+
167.0843	95	C13H11+
168.092	65	C13H12+
169.0646	38	C12H9O+
169.0993	93	C13H13+
170.0712	97	C12H10O+
170.1072	20	C13H14+
171.0795	316	C12H11O+
171.1161	39	C13H15+
172.0871	336	C12H12O+
173.0947	305	C12H13O+
173.1329	21	C13H17+
174.0999	42	C11[13]CH13O+
175.1112	64	C12H15O+
177.0684	15	C14H9+
177.089	22	C11H13O2+
178.0763	156	C14H10+
179.0845	127	C14H11+
180.0903	60	C14H12+
181.0635	150	C13H9O+
181.1004	90	C14H13+
182.0704	85	C13H10O+
182.1079	43	C14H14+
183.079	121	C13H11O+
183.1156	78	C14H15+
184.086	122	C13H12O+
185.095	947	C13H13O+
186.0996	126	C12[13]CH13O+
187.1103	310	C13H15O+
188.115	38	C12[13]CH15O+
189.0681	19	C15H9+
189.0898	53	C12H13O2+
190.0749	38	C15H10+
191.084	67	C15H11+
192.0921	81	C15H12+
193.1002	231	C15H13+
194.0727	59	C14H10O+
194.1072	75	C15H14+
195.0797	338	C14H11O+
195.1152	58	C15H15+
196.087	359	C14H12O+
197.0941	253	C14H13O+
197.1312	25	C15H17+
198.1016	81	C14H14O+
199.1106	108	C14H15O+
200.1171	26	C14H16O+
202.0764	58	C16H10+
203.0835	79	C16H11+
204.091	62	C16H12+
205.0998	125	C16H13+
206.1063	80	C16H14+
207.0788	67	C15H11O+
207.1152	89	C16H15+
208.0873	205	C15H12O+
208.1219	23	C16H16+
209.0954	540	C15H13O+
210.1021	318	C15H14O+
211.1104	557	C15H15O+
212.116	142	C14[13]CH15O+
213.1256	88	C15H17O+
215.0843	29	C17H11+
216.0911	35	C17H12+
217.0998	42	C17H13+
218.1088	63	C17H14+
219.0785	35	C16H11O+
219.1171	42	C17H15+
220.0877	49	C16H12O+
220.1235	68	C17H16+
221.0948	185	C16H13O+
221.1309	46	C17H17+
222.1028	315	C16H14O+
223.1107	484	C16H15O+
224.1177	196	C16H16O+
225.1256	174	C16H17O+
226.131	42	C15[13]CH17O+
227.1429	19	C16H19O+
228.0934	14	C18H12+
229.0984	20	C18H13+
230.1064	34	C18H14+
231.0788	23	C17H11O+
231.1159	24	C18H15+
232.0871	35	C17H12O+
233.0958	112	C17H13O+
233.1351	28	C18H17+
234.1021	87	C17H14O+
235.1102	185	C17H15O+
235.1454	26	C18H19+
236.1185	211	C17H16O+
237.0909	19	C16H13O2+
237.1262	265	C17H17O+
238.096	14	C16H14O2+
238.1328	136	C17H18O+
239.1398	71	C17H19O+
240.1449	28	C17H20O+
243.1172	19	C19H15+
245.0953	54	C18H13O+
245.1309	15	C19H17+
246.102	65	C18H14O+
247.1097	86	C18H15O+
248.1177	88	C18H16O+
249.089	22	C17H13O2+
249.1258	154	C18H17O+
250.1326	93	C18H18O+
251.106	21	C17H15O2+
251.1414	155	C18H19O+
252.1461	30	C17[13]CH19O+
253.1579	78	C18H21O+
255.1156	15	C20H15+
256.1236	17	C20H16+
258.1023	27	C19H14O+
259.1105	73	C19H15O+
260.1186	45	C19H16O+
261.1262	65	C19H17O+
262.1329	27	C19H18O+
263.1058	23	C18H15O2+
263.1406	51	C19H19O+
263.1795	76	C20H23+
264.1143	21	C18H16O2+
264.1483	46	C19H20O+
265.1201	20	C18H17O2+
265.1576	393	C19H21O+
266.1313	19	C18H18O2+
266.1611	99	C18[13]CH21O+
267.1351	15	C18H19O2+
273.1252	63	C20H17O+
274.1304	16	C20H18O+
275.1386	21	C20H19O+
277.1207	16	C19H17O2+
277.1584	27	C20H21O+
278.1685	14	C20H22O+
279.1383	15	C19H19O2+
279.1733	78	C20H23O+
280.1788	35	C20H24O+
281.1856	16	C20H25O+
287.1426	27	C21H19O+
