Mass spectrum: Clarithromycin; LC-ESI-QTOF; MS2; HILIC; CE: 20 eV; R=35000; [M+H]+
Name: Clarithromycin
Name: (3R,4S,5S,6R,7R,9R,11R,12R,13S,14R)-6-[(2S,3R,4S,6R)-4-(dimethylamino)-3-hydroxy-6-methyloxan-2-yl]oxy-14-ethyl-12,13-dihydroxy-4-[(2R,4R,5S,6S)-5-hydroxy-4-methoxy-4,6-dimethyloxan-2-yl]oxy-7-methoxy-3,5,7,9,11,13-hexamethyl-oxacyclotetradecane-2,10-dione
Formula: C38H69NO13
Exact mass: 747.4768913
SMILES: CC[C@H]1OC(=O)[C@H](C)[C@@H](O[C@H]2C[C@@](C)(OC)[C@@H](O)[C@H](C)O2)[C@H](C)[C@@H](O[C@@H]2O[C@H](C)C[C@@H]([C@H]2O)N(C)C)[C@@](C)(C[C@@H](C)C(=O)[C@H](C)[C@@H](O)[C@]1(C)O)OC
InChI: InChI=1S/C38H69NO13/c1-15-26-38(10,45)31(42)21(4)28(40)19(2)17-37(9,47-14)33(52-35-29(41)25(39(11)12)16-20(3)48-35)22(5)30(23(6)34(44)50-26)51-27-18-36(8,46-13)32(43)24(7)49-27/h19-27,29-33,35,41-43,45H,15-18H2,1-14H3/t19-,20-,21+,22+,23-,24+,25+,26-,27+,29-,30+,31-,32+,33-,35+,36-,37-,38-/m1/s1
Instrument: Bruker maXis Impact
Instrument type: LC-ESI-QTOF
Ms type: MS2
Ion mode: POSITIVE
Ionization: ESI
Fragmentation mode: CID
Collision energy: 20 eV
Resolution: 35000
Column name: ACQUITY UPLC BEH Amide 1.7 um 2.1x100 mm, Waters
Retention time: 6.255 min
Base peak: 324.2081
Precursor m/z: 748.4842
Precursor type: [M+H]+
m/z	relative intensity	assigned
116.1068	8	C6H14NO+
127.0746	7	C7H11O2+
158.1172	355	C8H16NO2+
159.1204	29	C7[13]CH16NO2+
316.2115	31	C16H30NO5+
317.2156	5	C15[13]CH30NO5+
558.3646	59	C29H52NO9+
559.3678	18	C28[13]CH52NO9+
590.391	449	C30H56NO10+
591.3949	144	C27H59O13+
592.3959	27	C26[13]CH59O13+
716.4611	7	C37H66NO12+
748.487	999	C38H70NO13+
749.4895	291	C37[13]CH70NO13+
750.4916	73	C36[13]C2H70NO13+
