Mass spectrum: Tiamulin; LC-ESI-QTOF; MS2; HILIC; CE: 50 eV; R=35000; [M+H]+
Name: Tiamulin
Formula: C28H47NO4S
Exact mass: 493.3225800
SMILES: CCN(CC)CCSCC(=O)O[C@@H]1C[C@@]([C@H]([C@@H]([C@@]23CC[C@H]([C@@]1([C@@H]2C(=O)CC3)C)C)C)O)(C)C=C
InChI: InChI=1S/C28H47NO4S/c1-8-26(6)17-22(33-23(31)18-34-16-15-29(9-2)10-3)27(7)19(4)11-13-28(20(5)25(26)32)14-12-21(30)24(27)28/h8,19-20,22,24-25,32H,1,9-18H2,2-7H3/t19-,20+,22-,24+,25+,26-,27+,28+/m1/s1
Instrument: Bruker maXis Impact
Instrument type: LC-ESI-QTOF
Ms type: MS2
Ion mode: POSITIVE
Ionization: ESI
Fragmentation mode: CID
Collision energy: 50 eV
Resolution: 35000
Column name: ACQUITY UPLC BEH Amide 1.7 um 2.1x100mm, Water
Retention time: 6.131 min
Base peak: 494.3313
Precursor m/z: 494.3299
Precursor type: [M+H]+
m/z	relative intensity	assigned
115.054	5	C9H7+
117.0697	10	C9H9+
119.016	540	C4H7O2S+
119.0853	70	C9H11+
120.0188	19	C3[13]CH7O2S+
120.0886	7	C8[13]CH11+
121.0117	17	C4H7O2[34]S+
121.0644	9	C8H9O+
121.1009	56	C9H13+
122.1042	5	C8[13]CH13+
123.08	15	C8H11O+
123.1161	8	C9H15+
125.0957	8	C8H13O+
128.0615	6	C10H8+
129.0692	11	C10H9+
131.085	43	C10H11+
133.1007	120	C10H13+
134.1041	11	C9[13]CH13+
135.0799	25	C9H11O+
135.1163	32	C10H15+
137.0955	13	C9H13O+
137.1321	5	C10H17+
141.0694	5	C11H9+
142.0768	7	C11H10+
143.0849	27	C11H11+
144.0914	6	C11H12+
145.1006	76	C11H13+
146.1043	8	C10[13]CH13+
147.0798	18	C10H11O+
147.1163	78	C11H15+
148.1194	8	C10[13]CH15+
149.0957	89	C10H13O+
149.1319	24	C11H17+
150.0987	8	C9[13]CH13O+
151.111	7	C10H15O+
155.0847	16	C12H11+
156.092	9	C12H12+
157.1005	42	C12H13+
158.1066	8	C11[13]CH13+
159.0798	7	C11H11O+
159.1162	82	C12H15+
160.1203	11	C11[13]CH15+
161.0952	31	C11H13O+
161.132	53	C12H17+
162.1359	6	C11[13]CH17+
163.1113	239	C11H15O+
164.1143	23	C10[13]CH15O+
165.1266	13	C11H17O+
169.1004	26	C13H13+
170.1066	9	C13H14+
171.1163	44	C13H15+
172.1206	6	C12[13]CH15+
173.0956	10	C12H13O+
173.1319	61	C13H17+
174.1357	8	C12[13]CH17+
175.1112	52	C12H15O+
175.1475	45	C13H19+
176.115	5	C11[13]CH15O+
176.1511	5	C12[13]CH19+
177.1269	66	C12H17O+
178.1302	7	C11[13]CH17O+
179.1424	5	C12H19O+
182.1081	7	C14H14+
183.116	21	C14H15+
185.1319	38	C14H17+
186.1366	6	C13[13]CH17+
187.1108	11	C13H15O+
187.1476	45	C14H19+
188.1511	5	C13[13]CH19+
189.1267	21	C13H17O+
189.1629	10	C14H21+
191.1425	16	C13H19O+
192.1049	999	C8H18NO2S+
193.1079	55	C7[13]CH18NO2S+
194.1008	20	C8H18NO2[34]S+
196.124	6	C15H16+
197.1318	24	C15H17+
198.1373	5	C14[13]CH17+
199.1477	23	C15H19+
201.1264	7	C14H17O+
201.1631	22	C15H21+
203.1422	24	C14H19O+
203.1785	5	C15H23+
205.1576	7	C14H21O+
211.1473	23	C16H19+
212.1521	7	C16H20+
213.1627	11	C16H21+
215.1422	13	C15H19O+
215.1789	9	C16H23+
217.1573	9	C15H21O+
221.1529	6	C14H21O2+
225.1628	9	C17H21+
227.179	19	C17H23+
229.1579	9	C16H21O+
229.1944	12	C17H25+
241.1946	5	C18H25+
245.1891	8	C17H25O+
267.2103	12	C20H27+
285.2208	8	C20H29O+
