Mass spectrum: Erythromycin; LC-ESI-QTOF; MS2; HILIC; CE: 30 eV; R=35000; [M+H]+
Name: Erythromycin
Name: (3R,4S,5S,6R,7R,9R,11R,12R,13S,14R)-6-[(2S,3R,4S,6R)-4-(dimethylamino)-3-hydroxy-6-methyloxan-2-yl]oxy-14-ethyl-7,12,13-trihydroxy-4-[(2R,4R,5S,6S)-5-hydroxy-4-methoxy-4,6-dimethyloxan-2-yl]oxy-3,5,7,9,11,13-hexamethyl-oxacyclotetradecane-2,10-dione
Formula: C37H67NO13
Exact mass: 733.4612412
SMILES: CC[C@@H]1[C@@]([C@@H]([C@H](C(=O)[C@@H](C[C@@]([C@@H]([C@H]([C@@H]([C@H](C(=O)O1)C)O[C@H]2C[C@@]([C@H]([C@@H](O2)C)O)(C)OC)C)O[C@H]3[C@@H]([C@H](C[C@H](O3)C)N(C)C)O)(C)O)C)C)O)(C)O
InChI: InChI=1S/C37H67NO13/c1-14-25-37(10,45)30(41)20(4)27(39)18(2)16-35(8,44)32(51-34-28(40)24(38(11)12)15-19(3)47-34)21(5)29(22(6)33(43)49-25)50-26-17-36(9,46-13)31(42)23(7)48-26/h18-26,28-32,34,40-42,44-45H,14-17H2,1-13H3/t18-,19-,20+,21+,22-,23+,24+,25-,26+,28-,29+,30-,31+,32-,34+,35-,36-,37-/m1/s1
Instrument: Bruker maXis Impact
Instrument type: LC-ESI-QTOF
Ms type: MS2
Ion mode: POSITIVE
Ionization: ESI
Fragmentation mode: CID
Collision energy: 30 eV
Resolution: 35000
Column name: ACQUITY UPLC BEH Amide 1.7 um 2.1x100 mm, Waters
Retention time: 6.331 min
Base peak: 301.2865
Precursor m/z: 734.4685
Precursor type: [M+H]+
m/z	relative intensity	assigned
116.0717	8	C5H10NO2+
116.1073	21	C6H14NO+
127.0758	27	C7H11O2+
158.1181	999	C8H16NO2+
159.1012	6	C8H15O3+
159.121	79	C5H19O5+
160.124	5	C4[13]CH19O5+
176.1298	6	C8H18NO3+
233.1538	5	C15H21O2+
316.2134	15	C16H30NO5+
365.2342	5	C24H31NO2+
383.2435	6	C21H35O6+
408.2795	6	C16H42NO10+
500.3236	6	C26H46NO8+
522.345	46	C29H48NO7+
523.3491	15	C28[13]CH48NO7+
540.3564	35	C22H54NO13+
541.3602	12	C21[13]CH54NO13+
556.3482	5	C29H50NO9+
558.3673	72	C37H50O4+
559.3707	28	C29H53NO9+
560.3804	5	C28[13]CH53NO9+
574.3626	28	C37H50O5+
575.3683	11	C36[13]CH50O5+
576.3779	304	C37H52O5+
577.3809	108	C29H55NO10+
578.3836	21	C28[13]CH55NO10+
716.4674	5	C37H66NO12+
734.4719	28	C37H68NO13+
735.4785	13	C36[13]CH68NO13+
