Mass spectrum: Tiamulin; LC-ESI-QTOF; MS2; HILIC; CE: 30 eV; R=35000; [M+H]+
Name: Tiamulin
Formula: C28H47NO4S
Exact mass: 493.3225800
SMILES: CCN(CC)CCSCC(=O)O[C@@H]1C[C@@]([C@H]([C@@H]([C@@]23CC[C@H]([C@@]1([C@@H]2C(=O)CC3)C)C)C)O)(C)C=C
InChI: InChI=1S/C28H47NO4S/c1-8-26(6)17-22(33-23(31)18-34-16-15-29(9-2)10-3)27(7)19(4)11-13-28(20(5)25(26)32)14-12-21(30)24(27)28/h8,19-20,22,24-25,32H,1,9-18H2,2-7H3/t19-,20+,22-,24+,25+,26-,27+,28+/m1/s1
Instrument: Bruker maXis Impact
Instrument type: LC-ESI-QTOF
Ms type: MS2
Ion mode: POSITIVE
Ionization: ESI
Fragmentation mode: CID
Collision energy: 30 eV
Resolution: 35000
Column name: ACQUITY UPLC BEH Amide 1.7 um 2.1x100 mm, Waters
Retention time: 6.130 min
Base peak: 494.3298
Precursor m/z: 494.3299
Precursor type: [M+H]+
m/z	relative intensity	assigned
119.0156	93	C4H7O2S+
119.085	13	C9H11+
121.1005	11	C9H13+
123.1165	5	C9H15+
131.0846	6	C10H11+
133.1005	27	C10H13+
135.0796	6	C9H11O+
135.1163	11	C10H15+
145.1002	14	C11H13+
147.1159	25	C11H15+
149.0952	23	C10H13O+
149.1315	14	C11H17+
157.1002	8	C12H13+
159.1159	22	C12H15+
161.0951	9	C11H13O+
161.1317	20	C12H17+
163.111	114	C11H15O+
163.1474	10	C12H19+
164.114	10	C10[13]CH15O+
165.1263	10	C11H17O+
169.1003	5	C13H13+
171.1158	12	C13H15+
173.1316	22	C13H17+
175.1109	25	C12H15O+
175.1473	24	C13H19+
177.1268	39	C12H17O+
179.142	5	C12H19O+
183.1158	6	C14H15+
185.1316	13	C14H17+
187.1474	20	C14H19+
189.1263	13	C13H17O+
189.1628	7	C14H21+
191.1421	12	C13H19O+
192.1062	999	C8H18NO2S+
193.1078	280	C11H15NO2+
194.1012	84	C11H16NS+
197.1317	11	C15H17+
199.147	9	C15H19+
201.1628	13	C15H21+
203.1421	25	C14H19O+
203.1784	5	C15H23+
205.1579	9	C14H21O+
211.1473	18	C16H19+
213.1628	8	C16H21+
215.1424	13	C15H19O+
215.1787	13	C16H23+
217.1577	12	C15H21O+
221.1529	35	C14H21O2+
225.1631	9	C17H21+
227.1786	27	C17H23+
228.1816	5	C16[13]CH23+
229.1577	14	C16H21O+
229.1942	20	C17H25+
231.173	5	C16H23O+
233.1528	14	C15H21O2+
235.1685	10	C15H23O2+
241.1939	8	C18H25+
243.173	5	C17H23O+
243.21	5	C18H27+
245.1895	75	C17H25O+
246.1923	13	C16[13]CH25O+
247.1682	5	C16H23O2+
247.2045	5	C17H27O+
257.2257	29	C19H29+
258.2287	5	C18[13]CH29+
259.2046	6	C18H27O+
267.2102	63	C20H27+
268.213	12	C19[13]CH27+
275.2357	6	C19H31O+
285.2209	114	C20H29O+
286.224	20	C19[13]CH29O+
303.2315	53	C20H31O2+
304.2341	10	C19[13]CH31O2+
494.3299	53	C28H48NO4S+
495.3329	16	C27[13]CH48NO4S+
