Mass spectrum: Tiamulin; LC-ESI-QTOF; MS2; HILIC; CE: 40 eV; R=35000; [M+H]+
Name: Tiamulin
Formula: C28H47NO4S
Exact mass: 493.3225800
SMILES: CCN(CC)CCSCC(=O)O[C@@H]1C[C@@]([C@H]([C@@H]([C@@]23CC[C@H]([C@@]1([C@@H]2C(=O)CC3)C)C)C)O)(C)C=C
InChI: InChI=1S/C28H47NO4S/c1-8-26(6)17-22(33-23(31)18-34-16-15-29(9-2)10-3)27(7)19(4)11-13-28(20(5)25(26)32)14-12-21(30)24(27)28/h8,19-20,22,24-25,32H,1,9-18H2,2-7H3/t19-,20+,22-,24+,25+,26-,27+,28+/m1/s1
Instrument: Bruker maXis Impact
Instrument type: LC-ESI-QTOF
Ms type: MS2
Ion mode: POSITIVE
Ionization: ESI
Fragmentation mode: CID
Collision energy: 40 eV
Resolution: 35000
Column name: ACQUITY UPLC BEH Amide 1.7 um 2.1x100mm, Waters
Retention time: 6.130 min
Base peak: 494.3328
Precursor m/z: 494.3299
Precursor type: [M+H]+
m/z	relative intensity	assigned
119.016	350	C4H7O2S+
119.0853	35	C9H11+
120.0188	11	C3[13]CH7O2S+
121.0118	9	C4H7O2[34]S+
121.1008	29	C9H13+
123.0799	9	C8H11O+
123.1164	8	C9H15+
125.0957	7	C8H13O+
131.0851	16	C10H11+
133.1009	64	C10H13+
134.1042	5	C9[13]CH13+
135.0799	13	C9H11O+
135.1164	22	C10H15+
137.0957	9	C9H13O+
137.1322	7	C10H17+
143.0852	11	C11H11+
145.1007	39	C11H13+
147.0799	11	C10H11O+
147.1166	55	C11H15+
148.1198	5	C10[13]CH15+
149.0958	61	C10H13O+
149.132	25	C11H17+
150.0988	5	C9[13]CH13O+
151.1112	5	C10H15O+
155.0853	6	C12H11+
157.1007	21	C12H13+
159.1164	47	C12H15+
160.1199	5	C11[13]CH15+
161.0956	20	C11H13O+
161.1321	42	C12H17+
162.1357	5	C11[13]CH17+
163.1114	197	C11H15O+
163.1479	13	C12H19+
164.1145	17	C10[13]CH15O+
165.1268	14	C11H17O+
169.1004	15	C13H13+
171.1163	28	C13H15+
173.0954	6	C12H13O+
173.1321	47	C13H17+
174.1356	6	C12[13]CH17+
175.1112	44	C12H15O+
175.1477	43	C13H19+
176.115	5	C11[13]CH15O+
176.1511	5	C12[13]CH19+
177.1271	61	C12H17O+
178.1302	6	C11[13]CH17O+
179.1423	6	C12H19O+
183.1165	13	C14H15+
185.1321	28	C14H17+
187.1114	7	C13H15O+
187.1477	38	C14H19+
188.1512	5	C13[13]CH19+
189.127	20	C13H17O+
189.1632	10	C14H21+
191.1426	17	C13H19O+
192.1058	999	C8H18NO2S+
194.1014	44	C8H18NO2[34]S+
197.1321	20	C15H17+
199.1478	18	C15H19+
201.1269	7	C14H17O+
201.1633	25	C15H21+
203.1427	34	C14H19O+
203.1791	6	C15H23+
205.1583	11	C14H21O+
211.1478	25	C16H19+
212.1524	5	C15[13]CH19+
213.1631	11	C16H21+
215.1425	18	C15H19O+
215.179	13	C16H23+
217.1583	13	C15H21O+
221.1531	20	C14H21O2+
225.1633	12	C17H21+
227.1791	30	C17H23+
228.1821	5	C16[13]CH23+
229.1582	16	C16H21O+
229.1947	19	C17H25+
233.1529	9	C15H21O2+
235.1685	6	C15H23O2+
239.1788	5	C18H23+
241.1945	8	C18H25+
243.1733	5	C17H23O+
243.2099	5	C18H27+
245.1898	32	C17H25O+
246.1932	5	C16[13]CH25O+
257.2261	15	C19H29+
267.2107	39	C20H27+
268.2135	7	C19[13]CH27+
285.2211	39	C20H29O+
286.2244	7	C19[13]CH29O+
303.2315	11	C20H31O2+
