Mass spectrum: Colchicine; LC-ESI-QTOF; MS2; HILIC; CE: 40 eV; R=35000; [M+H]+
Name: Colchicine
Name: N-[(7S)-1,2,3,10-tetramethoxy-9-oxo-6,7-dihydro-5H-benzo[a]heptalen-7-yl]acetamide
Formula: C22H25NO6
Exact mass: 399.1681875
SMILES: C/C(=N\[C@H]1CCc2cc(c(c(c2-c3c1cc(=O)c(cc3)OC)OC)OC)OC)/O
InChI: InChI=1S/C22H25NO6/c1-12(24)23-16-8-6-13-10-19(27-3)21(28-4)22(29-5)20(13)14-7-9-18(26-2)17(25)11-15(14)16/h7,9-11,16H,6,8H2,1-5H3,(H,23,24)/t16-/m0/s1
Instrument: Bruker maXis Impact
Instrument type: LC-ESI-QTOF
Ms type: MS2
Ion mode: POSITIVE
Ionization: ESI
Fragmentation mode: CID
Collision energy: 40 eV
Resolution: 35000
Column name: ACQUITY UPLC BEH Amide 1.7 um 2.1x100mm, Waters
Retention time: 2.017 min
Base peak: 400.177
Precursor m/z: 400.1755
Precursor type: [M+H]+
m/z	relative intensity	assigned
119.0499	5	C8H7O+
123.0446	5	C7H7O2+
130.0646	6	C9H8N+
131.0495	7	C9H7O+
132.0547	5	C9H8O+
133.0526	9	C8H7NO+
133.0636	5	C9H9O+
136.0769	5	C8H10NO+
137.0597	66	C8H9O2+
138.0573	7	C7H8NO2+
138.0642	10	C8H10O2+
145.0645	25	C10H9O+
146.062	6	C9H8NO+
147.0443	7	C9H7O2+
147.0675	6	C9H9NO+
148.0526	7	C9H8O2+
148.075	8	C9H10NO+
149.0599	7	C9H9O2+
150.0547	30	C8H8NO2+
151.076	24	C9H11O2+
152.0705	40	C8H10NO2+
153.0723	8	C12H9+
155.0701	5	C8H11O3+
158.0615	7	C10H8NO+
159.0441	5	C10H7O2+
160.0523	7	C10H8O2+
160.0753	20	C10H10NO+
161.059	14	C10H9O2+
161.0811	7	C7H13O4+
162.0565	5	C9H8NO2+
162.0658	8	C10H10O2+
162.09	5	C10H12NO+
163.0743	13	C10H11O2+
164.0713	9	C9H10NO2+
165.0783	55	C9H11NO2+
166.0621	13	C9H10O3+
166.0839	12	C6H14O5+
167.0697	19	C9H11O3+
167.0856	8	C13H11+
168.0763	5	C9H12O3+
172.0742	5	C8H12O4+
173.06	20	C11H9O2+
173.0861	5	C11H11NO+
174.0662	13	C11H10O2+
174.0904	5	C11H12NO+
175.064	16	C10H9NO2+
175.0735	20	C11H11O2+
176.0714	52	C10H10NO2+
177.0545	18	C10H9O3+
177.0756	15	C7H13O5+
177.0887	11	C11H13O2+
178.0611	9	C10H10O3+
178.0784	12	C14H10+
179.0702	38	C10H11O3+
180.0771	10	C10H12O3+
181.0644	11	C13H9O+
181.0858	149	C10H13O3+
182.0742	6	C13H10O+
182.0894	20	C9[13]CH13O3+
183.08	8	C13H11O+
187.074	6	C12H11O2+
188.0825	26	C12H12O2+
189.0784	10	C11H11NO2+
189.0886	10	C12H13O2+
190.0639	15	C14H8N+
190.0866	29	C11H12NO2+
191.0703	30	C11H11O3+
191.0868	12	C15H11+
192.0658	16	C10H10NO3+
192.0759	13	C11H12O3+
192.0929	6	C15H12+
193.0737	23	C10H11NO3+
193.1005	6	C15H13+
194.0747	9	C14H10O+
194.0938	16	C11H14O3+
195.0807	31	C14H11O+
195.1019	8	C11H15O3+
196.0878	13	C14H12O+
197.0604	11	C13H9O2+
197.0965	9	C14H13O+
198.0674	11	C13H10O2+
199.0756	18	C13H11O2+
200.0756	7	C12H10NO2+
201.0809	7	C12H11NO2+
202.0631	5	C12H10O3+
202.0859	15	C12H12NO2+
203.0688	13	C12H11O3+
203.0937	64	C12H13NO2+
204.0653	24	C11H10NO3+
204.0982	12	C11[13]CH13NO2+
205.0704	17	C8H13O6+
205.0857	33	C12H13O3+
206.0793	27	C8H14O6+
206.0928	27	C12H14O3+
207.0809	39	C15H11O+
207.1014	88	C12H15O3+
208.0516	5	C14H8O2+
208.0861	20	C15H12O+
208.1047	16	C11[13]CH15O3+
209.06	11	C14H9O2+
209.0961	21	C15H13O+
209.1206	5	C15H15N+
210.068	21	C14H10O2+
210.1001	5	C7H16NO6+
211.0749	30	C14H11O2+
211.1112	11	C15H15O+
212.0819	23	C14H12O2+
213.089	18	C14H13O2+
214.0995	8	C14H14O2+
215.0701	8	C13H11O3+
216.079	12	C13H12O3+
217.0678	7	C9H13O6+
217.0859	6	C13H13O3+
218.0793	18	C9H14O6+
219.0876	50	C9H15O6+
220.0931	46	C9H16O6+
221.0591	12	C15H9O2+
221.0963	41	C16H13O+
222.0679	11	C15H10O2+
222.1096	22	C9H18O6+
223.0757	64	C15H11O2+
223.1105	10	C16H15O+
224.0823	63	C15H12O2+
224.108	11	C15H14NO+
225.055	6	C14H9O3+
225.0896	54	C15H13O2+
226.0621	13	C14H10O3+
226.0979	47	C15H14O2+
227.0704	63	C14H11O3+
227.1061	30	C15H15O2+
228.0747	15	C13[13]CH11O3+
228.1069	7	C14[13]CH15O2+
229.0831	17	C14H13O3+
230.0831	6	C13H12NO3+
230.0936	5	C14H14O3+
231.1007	17	C14H15O3+
232.0724	5	C13H12O4+
232.0981	9	C13H14NO3+
233.0599	14	C16H9O2+
233.0827	6	C16H11NO+
233.1017	9	C10H17O6+
234.0666	29	C16H10O2+
234.092	15	C16H12NO+
234.1127	142	C13H16NO3+
235.0753	117	C16H11O2+
235.0973	16	C13H15O4+
235.1184	28	C12[13]CH16NO3+
236.0817	58	C16H12O2+
236.1055	24	C13H16O4+
237.0545	13	C15H9O3+
237.0907	82	C16H13O2+
237.1119	20	C13H17O4+
238.061	9	C15H10O3+
238.0977	73	C16H14O2+
239.0703	31	C15H11O3+
239.1063	153	C16H15O2+
240.0782	60	C15H12O3+
240.1107	50	C16H16O2+
241.0852	99	C15H13O3+
241.1154	11	C15[13]CH16O2+
242.0931	116	C15H14O3+
242.1137	8	C12H18O5+
243.0659	20	C14H11O4+
243.0993	27	C14[13]CH14O3+
244.0711	7	C14H12O4+
244.0981	8	C14H14NO3+
245.0791	7	C14H13O4+
245.1053	14	C14H15NO3+
246.0748	7	C13H12NO4+
246.0859	8	C14H14O4+
246.1108	16	C11H18O6+
247.0759	32	C17H11O2+
247.0968	8	C14H15O4+
248.0824	46	C17H12O2+
248.1056	13	C14H16O4+
249.0522	5	C16H9O3+
249.09	86	C17H13O2+
249.1112	12	C14H17O4+
250.0628	13	C16H10O3+
250.0979	118	C17H14O2+
251.0701	144	C16H11O3+
251.1061	155	C17H15O2+
252.0772	133	C16H12O3+
252.1119	87	C17H16O2+
253.0506	6	C15H9O4+
253.0853	100	C16H13O3+
253.1184	35	C17H17O2+
254.0932	78	C16H14O3+
254.1167	20	C16H16NO2+
255.0656	78	C15H11O4+
255.1016	156	C16H15O3+
256.07	29	C15H12O4+
256.1066	65	C16H16O3+
257.0797	30	C15H13O4+
257.1155	46	C16H17O3+
258.0887	47	C15H14O4+
258.113	18	C15H16NO3+
259.095	17	C15H15O4+
259.1197	6	C15H17NO3+
260.1039	5	C15H16O4+
260.1304	6	C15H18NO3+
261.0562	5	C20H7N+
261.1003	11	C14H15NO4+
262.0629	16	C17H10O3+
262.0864	17	C17H12NO2+
263.0705	99	C17H11O3+
263.0944	27	C17H13NO2+
264.0764	44	C17H12O3+
264.1017	60	C17H14NO2+
265.086	141	C17H13O3+
265.109	61	C17H15NO2+
266.0937	165	C17H14O3+
266.117	48	C17H16NO2+
267.102	694	C17H15O3+
268.0731	44	C16H12O4+
268.1051	242	C17H16O3+
269.0805	95	C16H13O4+
269.1113	56	C16[13]CH16O3+
270.0887	176	C16H14O4+
270.1229	64	C17H18O3+
271.0594	10	C15H11O5+
271.095	96	C16H15O4+
271.1307	25	C17H19O3+
272.0704	7	C18H10NO2+
272.1037	42	C16H16O4+
272.1285	29	C16H18NO3+
273.0781	6	C18H11NO2+
273.1124	47	C16H17O4+
275.0693	6	C18H11O3+
275.0937	8	C18H13NO2+
275.1275	5	C16H19O4+
276.0778	22	C18H12O3+
276.1028	22	C18H14NO2+
277.0855	72	C18H13O3+
277.1096	29	C18H15NO2+
278.0931	217	C18H14O3+
279.0646	145	C17H11O4+
279.1007	170	C18H15O3+
280.0715	74	C17H12O4+
280.1002	135	C17H14NO3+
280.1307	29	C15H20O5+
281.0802	39	C17H13O4+
281.1171	266	C18H17O3+
282.1249	892	C18H18O3+
283.0969	426	C17H15O4+
283.1281	198	C17[13]CH18O3+
284.1022	189	C17H16O4+
284.1283	75	C17H18NO3+
285.0764	38	C16H13O5+
285.1125	498	C17H17O4+
286.0826	25	C16H14O5+
287.092	146	C16H15O5+
287.116	27	C16H17NO4+
288.0957	29	C16H16O5+
288.1219	6	C15[13]CH17NO4+
288.1282	5	C16H18NO4+
289.1089	6	C15[13]CH16O5+
290.1176	8	C19H16NO2+
291.0976	13	C19H15O3+
291.1233	8	C16H19O5+
292.0988	70	C18H14NO3+
293.0805	87	C18H13O4+
293.105	82	C18H15NO3+
293.1409	6	C19H19NO2+
294.0887	166	C18H14O4+
294.1121	165	C18H16NO3+
295.0971	858	C18H15O4+
295.1195	225	C18H17NO3+
296.0689	25	C17H12O5+
296.1267	105	C15H20O6+
297.0762	18	C17H13O5+
297.1096	118	C18H17O4+
297.1343	77	C15H21O6+
298.084	46	C17H14O5+
298.1198	295	C18H18O4+
298.144	190	C18H20NO3+
299.0908	43	C17H15O5+
299.1238	162	C18H19O4+
300.0961	47	C17H16O5+
300.124	284	C17H18NO4+
301.1065	40	C17H17O5+
301.1297	154	C17H19NO4+
302.1159	90	C17H18O5+
303.1191	23	C16[13]CH18O5+
304.097	7	C19H14NO3+
305.1076	7	C19H15NO3+
306.1129	38	C19H16NO3+
307.0972	9	C19H15O4+
307.1206	38	C19H17NO3+
308.1044	52	C19H16O4+
308.1288	121	C19H18NO3+
309.1118	246	C19H17O4+
310.1191	999	C19H18O4+
311.092	632	C18H15O5+
311.1197	260	C18[13]CH18O4+
312.0956	130	C17[13]CH15O5+
312.1237	158	C18H18NO4+
313.1054	82	C18H17O5+
313.1433	134	C19H21O4+
314.1038	119	C17H16NO5+
314.1401	127	C18H20NO4+
315.1117	52	C17H17NO5+
315.1435	47	C18H21NO4+
316.1085	7	C16[13]CH17NO5+
316.1222	10	C17H18NO5+
316.1551	83	C18H22NO4+
317.1583	16	C17[13]CH22NO4+
319.1213	8	C20H17NO3+
320.0935	19	C19H14NO4+
320.1273	15	C20H18NO3+
321.0993	25	C19H15NO4+
321.1349	6	C20H19NO3+
322.1071	15	C19H16NO4+
322.1453	14	C20H20NO3+
323.1192	27	C19H17NO4+
323.1508	35	C20H21NO3+
324.1234	238	C19H18NO4+
325.1077	67	C19H17O5+
325.1297	113	C19H19NO4+
326.1157	327	C19H18O5+
326.1384	305	C19H20NO4+
327.1194	80	C18[13]CH18O5+
327.1446	101	C18[13]CH20NO4+
328.1191	380	C18H18NO5+
329.1237	126	C18H19NO5+
330.1329	46	C18H20NO5+
330.1698	30	C19H24NO4+
331.1379	10	C17[13]CH20NO5+
331.1734	8	C18[13]CH24NO4+
334.1079	19	C20H16NO4+
335.1138	18	C20H17NO4+
336.1233	35	C20H18NO4+
337.0994	11	C19H15NO5+
337.1287	8	C19[13]CH18NO4+
338.1034	9	C19H16NO5+
338.1398	45	C20H20NO4+
339.1468	147	C20H21NO4+
340.1546	172	C20H22NO4+
341.139	205	C20H21O5+
342.1362	249	C19H20NO5+
343.1406	165	C19H21NO5+
344.1445	29	C18[13]CH21NO5+
345.1449	5	C18[13]CH22NO5+
350.1384	19	C21H20NO4+
351.1134	7	C20H17NO5+
351.1445	13	C21H21NO4+
352.1183	75	C20H18NO5+
352.1471	7	C21H22NO4+
353.1226	21	C19[13]CH18NO5+
354.133	10	C20H20NO5+
354.1704	35	C21H24NO4+
355.1723	9	C20[13]CH24NO4+
356.1504	11	C20H22NO5+
357.1217	8	C19H19NO6+
357.1592	20	C20H23NO5+
358.1658	356	C20H24NO5+
359.1684	80	C20H25NO5+
360.172	9	C19[13]CH25NO5+
366.1347	33	C21H20NO5+
367.1425	67	C21H21NO5+
368.1468	24	C21H22NO5+
369.1498	6	C20[13]CH22NO5+
370.1279	10	C20H20NO6+
382.165	54	C22H24NO5+
383.1688	15	C21[13]CH24NO5+
384.1451	20	C21H22NO6+
385.1493	5	C20[13]CH22NO6+
400.1762	97	C22H26NO6+
401.1812	23	C21[13]CH26NO6+
