Mass spectrum: Ketoprofen; LC-ESI-QTOF; MS2; CE: 40 eV; R=35000; [M+H]+
Name: Ketoprofen
Name: 2-(3-benzoylphenyl)propanoic acid
Formula: C16H14O3
Exact mass: 254.0942943
SMILES: CC(C(O)=O)C1=CC=CC(=C1)C(=O)C1=CC=CC=C1
InChI: InChI=1S/C16H14O3/c1-11(16(18)19)13-8-5-9-14(10-13)15(17)12-6-3-2-4-7-12/h2-11H,1H3,(H,18,19)
Instrument: Bruker maXis Impact
Instrument type: LC-ESI-QTOF
Ms type: MS2
Ion mode: POSITIVE
Ionization: ESI
Fragmentation mode: CID
Collision energy: 40 eV
Resolution: 35000
Column name: Acclaim RSLC C18 2.2um, 2.1x100mm, Thermo
Retention time: 8.651 min
Base peak: 255.101
Precursor m/z: 255.1016
Precursor type: [M+H]+
m/z	relative intensity	assigned
121.0639	57	C8H9O+
131.0489	225	C9H7O+
149.0589	58	C9H9O2+
165.0686	393	C13H9+
166.0759	372	C13H10+
167.0816	68	C12[13]CH10+
177.0528	298	C10H9O3+
179.0852	88	C14H11+
190.0753	49	C15H10+
191.0831	98	C15H11+
193.0639	141	C14H9O+
194.0719	999	C14H10O+
195.0759	111	C13[13]CH10O+
209.0953	106	C15H13O+
227.0176	51	C16H3O2+
