Mass spectrum: Ketoprofen; LC-ESI-QTOF; MS2; CE: 50 eV; R=35000; [M+H]+
Name: Ketoprofen
Name: 2-(3-benzoylphenyl)propanoic acid
Formula: C16H14O3
Exact mass: 254.0942943
SMILES: CC(C(O)=O)C1=CC=CC(=C1)C(=O)C1=CC=CC=C1
InChI: InChI=1S/C16H14O3/c1-11(16(18)19)13-8-5-9-14(10-13)15(17)12-6-3-2-4-7-12/h2-11H,1H3,(H,18,19)
Instrument: Bruker maXis Impact
Instrument type: LC-ESI-QTOF
Ms type: MS2
Ion mode: POSITIVE
Ionization: ESI
Fragmentation mode: CID
Collision energy: 50 eV
Resolution: 35000
Column name: Acclaim RSLC C18 2.2um, 2.1x100mm, Thermo
Retention time: 8.634 min
Base peak: 255.1011
Precursor m/z: 255.1016
Precursor type: [M+H]+
m/z	relative intensity	assigned
131.0477	110	C9H7O+
165.069	999	C13H9+
166.0736	364	C13H10+
177.0529	130	C10H9O3+
189.0699	74	C15H9+
191.0839	73	C15H11+
193.0642	78	C14H9O+
194.0714	376	C14H10O+
