Mass spectrum: Propranolol; LC-ESI-QTOF; MS2; CE: 30 eV; R=35000; [M+H]+
Name: Propranolol
Name: 1-naphthalen-1-yloxy-3-(propan-2-ylamino)propan-2-ol
Formula: C16H21NO2
Exact mass: 259.1572289
SMILES: CC(C)NCC(O)COC1=C2C=CC=CC2=CC=C1
InChI: InChI=1S/C16H21NO2/c1-12(2)17-10-14(18)11-19-16-9-5-7-13-6-3-4-8-15(13)16/h3-9,12,14,17-18H,10-11H2,1-2H3
Instrument: Bruker maXis Impact
Instrument type: LC-ESI-QTOF
Ms type: MS2
Ion mode: POSITIVE
Ionization: ESI
Fragmentation mode: CID
Collision energy: 30 eV
Resolution: 35000
Column name: Acclaim RSLC C18 2.2um, 2.1x100mm, Thermo
Retention time: 6.317 min
Base peak: 325.1719
Precursor m/z: 260.1645
Precursor type: [M+H]+
m/z	relative intensity	assigned
115.0537	41	C9H7+
116.1063	102	C6H14NO+
117.0686	8	C9H9+
117.1097	9	C5[13]CH14NO+
126.0449	6	C10H6+
127.0534	29	C10H7+
128.0608	95	C10H8+
129.0687	299	C10H9+
130.0722	31	C9[13]CH9+
141.0685	128	C11H9+
142.0724	17	C10[13]CH9+
143.0478	53	C10H7O+
143.0846	6	C11H11+
144.0545	16	C10H8O+
145.0634	230	C10H9O+
146.0664	24	C9[13]CH9O+
152.0604	14	C12H8+
153.0685	209	C12H9+
154.0752	70	C12H10+
155.0844	999	C12H11+
156.0874	114	C11[13]CH11+
157.0635	732	C11H9O+
158.0669	79	C10[13]CH9O+
159.0684	5	C9[13]C2H9O+
165.0686	308	C13H9+
166.0719	43	C12[13]CH9+
167.0748	5	C12H9N+
168.0559	86	C12H8O+
169.0594	17	C11[13]CH8O+
171.0793	53	C12H11O+
181.0638	15	C13H9O+
182.0705	19	C13H10O+
183.0794	867	C13H11O+
184.0823	106	C12[13]CH11O+
185.086	9	C11[13]C2H11O+
218.1161	44	C13H16NO2+
219.1202	7	C12[13]CH16NO2+
260.1637	119	C16H22NO2+
261.166	24	C15[13]CH22NO2+
