Mass spectrum: Rifaximin; LC-ESI-QTOF; MS2; HILIC; CE: 40 eV; R=35000; [M+H]+
Name: Rifaximin
Formula: C43H51N3O11
Exact mass: 785.3523595
SMILES: C[C@H]1/C=C/C=C(\C(=O)NC2=C(C3=C(C4=C(C(=C3O)C)O[C@@](C4=O)(O/C=C/[C@@H]([C@H]([C@H]([C@@H]([C@@H]([C@@H]([C@H]1O)C)O)C)OC(=O)C)C)OC)C)C5=C2N6C=CC(=CC6=N5)C)O)/C
InChI: InChI=1S/C43H51N3O11/c1-19-14-16-46-28(18-19)44-32-29-30-37(50)25(7)40-31(29)41(52)43(9,57-40)55-17-15-27(54-10)22(4)39(56-26(8)47)24(6)36(49)23(5)35(48)20(2)12-11-13-21(3)42(53)45-33(34(32)46)38(30)51/h11-18,20,22-24,27,35-36,39,48-51H,1-10H3,(H,45,53)/b12-11+,17-15+,21-13-/t20-,22+,23+,24+,27-,35-,36+,39+,43-/m0/s1
Instrument: Bruker maXis Impact
Instrument type: LC-ESI-QTOF
Ms type: MS2
Ion mode: POSITIVE
Ionization: ESI
Fragmentation mode: CID
Collision energy: 40 eV
Resolution: 35000
Column name: ACQUITY UPLC BEH Amide 1.7 um 2.1x100mm, Waters
Retention time: 1.616 min
Base peak: 284.1709
Precursor m/z: 786.3596
Precursor type: [M+H]+
m/z	relative intensity	assigned
115.054	9	C9H7+
119.0855	45	C9H11+
120.0895	11	C4H12N2O2+
121.0645	39	C8H9O+
121.1015	43	C9H13+
123.0802	246	C8H11O+
123.1171	25	C9H15+
124.0835	28	C7[13]CH11O+
125.0956	42	C8H13O+
131.0869	14	C10H11+
133.0649	13	C9H9O+
133.0865	13	C6H13O3+
133.1011	60	C10H13+
135.0805	139	C9H11O+
135.1167	60	C10H15+
136.0844	16	C4H12N2O3+
137.0594	16	C8H9O2+
137.0956	91	C9H13O+
137.1329	19	C10H17+
138.1009	9	C4H14N2O3+
139.0755	37	C8H11O2+
139.1093	9	C7H13N3+
143.0859	9	C11H11+
145.1008	108	C11H13+
146.1033	14	C3H16NO5+
147.08	24	C10H11O+
147.117	171	C11H15+
148.1202	13	C10[13]CH15+
149.096	26	C10H13O+
149.1329	22	C11H17+
151.0753	999	C9H11O2+
152.0781	93	C8[13]CH11O2+
153.091	230	C9H13O2+
154.0946	27	C8[13]CH13O2+
155.1069	22	C9H15O2+
157.1008	40	C12H13+
158.106	13	C7H14N2O2+
159.0793	14	C9H9N3+
159.1171	89	C12H15+
160.1211	9	C7H16N2O2+
161.0957	160	C11H13O+
161.1332	21	C12H17+
162.0996	25	C10[13]CH13O+
163.1115	658	C11H15O+
164.1146	72	C10[13]CH15O+
165.1272	75	C11H17O+
166.1318	16	C6H18N2O3+
169.0851	10	C7H11N3O2+
171.1175	23	C13H15+
173.0956	138	C12H13O+
173.1322	99	C13H17+
174.0997	25	C11[13]CH13O+
174.1382	10	C8H18N2O2+
175.1119	166	C12H15O+
175.148	33	C13H19+
176.1177	31	C11[13]CH15O+
177.0913	49	C11H13O2+
177.1268	57	C12H17O+
179.1059	340	C9H13N3O+
180.1098	33	C8[13]CH13N3O+
181.122	56	C11H17O2+
182.1271	9	C6H18N2O4+
183.1193	14	C2H19N2O7+
183.1385	16	C11H19O2+
185.0943	14	C11H11N3+
185.1319	52	C14H17+
186.136	13	C9H18N2O2+
187.1116	17	C13H15O+
187.1492	25	C2H23N2O7+
189.0916	13	C12H13O2+
189.1287	30	CH21N2O8+
190.0936	11	C7H14N2O4+
191.1064	398	C12H15O2+
192.1096	52	C11[13]CH15O2+
193.1221	127	C12H17O2+
194.1262	15	C11[13]CH17O2+
195.1188	11	C3H19N2O7+
195.1407	14	H23N2O9+
197.1334	11	C3H21N2O7+
198.14	10	C15H18+
199.1115	25	C14H15O+
199.1488	17	C15H19+
200.1529	19	C10H20N2O2+
201.1274	103	C14H17O+
202.1323	13	C9H18N2O3+
203.108	13	CH19N2O9+
203.1433	82	C14H19O+
204.1484	12	C12H18N3+
205.1214	22	C11H15N3O+
207.1013	11	C12H15O3+
209.1168	169	C12H17O3+
210.1211	32	C11[13]CH17O3+
211.1093	9	C13H13N3+
211.1284	25	C7H19N2O5+
211.1477	15	C16H19+
213.1303	42	C3H21N2O8+
215.1444	25	C3H23N2O8+
215.1789	9	CH29NO10+
216.1508	9	C15H20O+
217.1219	40	C14H17O2+
217.1587	17	C15H21O+
218.1257	10	C9H18N2O4+
219.1379	90	C14H19O2+
220.1408	22	C9H20N2O4+
221.1523	43	C12H19N3O+
223.1497	12	C5H23N2O7+
225.1639	18	C17H21+
227.1428	16	C16H19O+
229.1238	9	C3H21N2O9+
229.1614	9	C4H25N2O8+
231.1371	83	C13H17N3O+
232.1437	19	C13H18N3O+
235.1312	12	C12H17N3O2+
237.1255	14	C15H15N3+
237.1481	17	C14H21O3+
238.1372	8	C5H22N2O8+
241.1211	9	C14H15N3O+
241.1957	9	C18H25+
245.1558	12	C4H25N2O9+
249.1498	24	C3H25N2O10+
251.1802	18	C19H23+
252.1811	9	C11H26NO5+
253.1554	18	C13H21N2O3+
255.1434	16	C10H23O7+
255.1738	17	C3H29NO11+
259.1689	14	C17H23O2+
261.1631	12	C5H27NO10+
261.1848	13	C17H25O2+
264.1482	10	C14H20N2O3+
269.1915	48	C7H29N2O8+
271.1687	44	C18H23O2+
272.1749	9	C16H22N3O+
279.174	70	C20H23O+
280.1752	13	C12H26NO6+
281.1769	14	C4H29N2O11+
287.2013	23	C19H27O2+
289.1819	21	C6H29N2O10+
297.1844	145	C20H25O2+
298.1892	43	C19[13]CH25O2+
315.1973	110	C8H31N2O10+
333.2068	25	C20H29O4+
334.2071	12	C12H32NO9+
346.0969	10	C23H12N3O+
347.1045	55	C23H13N3O+
348.1063	17	C14H20O10+
357.2119	18	C15H33O9+
361.1056	56	C20H15N3O4+
362.1137	333	C20H16N3O4+
363.1174	97	C29H15+
364.1204	13	C28[13]CH15+
375.2157	21	C20H29N3O4+
455.1465	13	C26H21N3O5+
482.1721	9	C30H26O6+
512.1822	10	C29H26N3O6+
513.18	13	C33H25N2O4+
571.2224	9	C36H31N2O5+
676.3038	27	C42H44O8+
694.3163	34	C42H46O9+
695.3119	18	C37H47N2O11+
695.329	16	C42H47O9+
708.3219	10	C38H48N2O11+
736.327	61	C42H46N3O9+
737.3273	45	C42H47N3O9+
738.3467	10	C41[13]CH47N3O9+
754.3362	300	C42H48N3O10+
755.341	172	C42H49N3O10+
756.3419	33	C41[13]CH49N3O10+
768.3495	46	C43H50N3O10+
769.3633	22	C42[13]CH50N3O10+
786.3591	21	C43H52N3O11+
