Mass spectrum: Atorvastatin; LC-ESI-QTOF; MS2; HILIC; CE: 10 eV; R=35000; [M+H]+
Name: Atorvastatin
Name: atorvastatin
Name: (3R,5R)-7-[2-(4-fluorophenyl)-3-phenyl-4-(phenylcarbamoyl)-5-propan-2-ylpyrrol-1-yl]-3,5-dihydroxyheptanoic acid
Formula: C33H35FN2O5
Exact mass: 558.2530004
SMILES: CC(C)c1c(c(c(n1CC[C@H](C[C@H](CC(=O)O)O)O)c2ccc(cc2)F)c3ccccc3)/C(=N/c4ccccc4)/O
InChI: InChI=1S/C33H35FN2O5/c1-21(2)31-30(33(41)35-25-11-7-4-8-12-25)29(22-9-5-3-6-10-22)32(23-13-15-24(34)16-14-23)36(31)18-17-26(37)19-27(38)20-28(39)40/h3-16,21,26-27,37-38H,17-20H2,1-2H3,(H,35,41)(H,39,40)/t26-,27-/m1/s1
Instrument: Bruker maXis Impact
Instrument type: LC-ESI-QTOF
Ms type: MS2
Ion mode: POSITIVE
Ionization: ESI
Fragmentation mode: CID
Collision energy: 10 eV
Resolution: 35000
Column name: ACQUITY  UPLC BEH Amide 1.7 um 2.1x100mm, Waters
Retention time: 1.816 min
Base peak: 375.2161
Precursor m/z: 559.2603
Precursor type: [M+H]+
m/z	relative intensity	assigned
440.2203	30	C29H30NO3+
441.223	5	C28[13]CH30NO3+
466.2036	20	C33H26N2O+
467.205	6	C32[13]CH26N2O+
557.2419	7	C33H34FN2O5+
559.2589	999	C33H36FN2O5+
560.2625	372	C32[13]CH36FN2O5+
561.2634	61	C31[13]C2H36FN2O5+
