Mass spectrum: Colchicine; LC-ESI-QTOF; MS2; HILIC; CE: 20 eV; R=35000; [M+H]+
Name: Colchicine
Name: N-[(7S)-1,2,3,10-tetramethoxy-9-oxo-6,7-dihydro-5H-benzo[a]heptalen-7-yl]acetamide
Formula: C22H25NO6
Exact mass: 399.1681875
SMILES: C/C(=N\[C@H]1CCc2cc(c(c(c2-c3c1cc(=O)c(cc3)OC)OC)OC)OC)/O
InChI: InChI=1S/C22H25NO6/c1-12(24)23-16-8-6-13-10-19(27-3)21(28-4)22(29-5)20(13)14-7-9-18(26-2)17(25)11-15(14)16/h7,9-11,16H,6,8H2,1-5H3,(H,23,24)/t16-/m0/s1
Instrument: Bruker maXis Impact
Instrument type: LC-ESI-QTOF
Ms type: MS2
Ion mode: POSITIVE
Ionization: ESI
Fragmentation mode: CID
Collision energy: 20 eV
Resolution: 35000
Column name: ACQUITY UPLC BEH Amide 1.7 um 2.1x100 mm, Waters
Retention time: 2.017 min
Base peak: 400.1767
Precursor m/z: 400.1755
Precursor type: [M+H]+
m/z	relative intensity	assigned
282.1249	7	C18H18O3+
309.1122	5	C19H17O4+
310.1196	13	C19H18O4+
313.1432	8	C19H21O4+
326.1386	12	C19H20NO4+
341.1388	24	C20H21O5+
342.1414	5	C19[13]CH21O5+
358.1655	49	C20H24NO5+
359.1688	9	C19[13]CH24NO5+
368.1497	6	C21H22NO5+
382.1654	21	C22H24NO5+
383.1689	5	C21[13]CH24NO5+
400.1771	999	C22H26NO6+
401.1798	272	C21[13]CH26NO6+
402.1822	27	C20[13]C2H26NO6+
