Mass spectrum: Atorvastatin; LC-ESI-QTOF; MS2; HILIC; CE: 50 eV; R=35000; [M+H]+
Name: Atorvastatin
Name: atorvastatin
Name: (3R,5R)-7-[2-(4-fluorophenyl)-3-phenyl-4-(phenylcarbamoyl)-5-propan-2-ylpyrrol-1-yl]-3,5-dihydroxyheptanoic acid
Formula: C33H35FN2O5
Exact mass: 558.2530004
SMILES: CC(C)c1c(c(c(n1CC[C@H](C[C@H](CC(=O)O)O)O)c2ccc(cc2)F)c3ccccc3)/C(=N/c4ccccc4)/O
InChI: InChI=1S/C33H35FN2O5/c1-21(2)31-30(33(41)35-25-11-7-4-8-12-25)29(22-9-5-3-6-10-22)32(23-13-15-24(34)16-14-23)36(31)18-17-26(37)19-27(38)20-28(39)40/h3-16,21,26-27,37-38H,17-20H2,1-2H3,(H,35,41)(H,39,40)/t26-,27-/m1/s1
Instrument: Bruker maXis Impact
Instrument type: LC-ESI-QTOF
Ms type: MS2
Ion mode: POSITIVE
Ionization: ESI
Fragmentation mode: CID
Collision energy: 50 eV
Resolution: 35000
Column name: ACQUITY UPLC BEH Amide 1.7 um 2.1x100mm, Water
Retention time: 1.816 min
Base peak: 375.2162
Precursor m/z: 559.2603
Precursor type: [M+H]+
m/z	relative intensity	assigned
120.0434	6	CH9FO5+
209.0747	7	C15H10F+
233.0771	11	C17H10F+
237.0933	16	C13H14FO3+
238.1018	75	C16H13FN+
239.1059	13	C15[13]CH13FN+
248.0869	13	C17H11FN+
249.0936	80	C17H12FN+
250.1021	999	C17H13FN+
251.1058	172	C17H15O2+
252.1155	35	C16[13]CH15O2+
262.1018	42	C18H13FN+
263.106	11	C17[13]CH13FN+
264.081	11	C20H10N+
264.1183	17	C18H15FN+
265.1238	5	C15H18FO3+
275.1103	8	C19H14FN+
276.0817	37	C18H11FNO+
276.1178	324	C19H15FN+
277.0837	7	C17[13]CH11FNO+
277.1211	72	C19H17O2+
278.0944	6	C15H15FO4+
278.1298	14	C18[13]CH17O2+
279.1398	14	C16H20FO3+
280.1475	39	C16H21FO3+
281.1521	9	C15[13]CH21FO3+
288.1189	6	C20H15FN+
289.1257	6	C20H16FN+
290.1347	17	C20H17FN+
291.1371	6	C20H19O2+
292.1486	289	C20H19FN+
293.1523	65	C19[13]CH19FN+
294.1272	12	C22H16N+
294.1625	34	C17H23FO3+
295.167	6	C16[13]CH23FO3+
302.0963	17	C23H12N+
302.1334	37	C21H17FN+
303.1392	11	C20[13]CH17FN+
304.1465	6	C18H21FO3+
306.128	41	C23H16N+
307.1354	7	C22[13]CH16N+
308.141	5	C20H20O3+
316.1491	16	C22H19FN+
317.1549	6	C19H22FO3+
318.127	22	C24H16N+
318.1641	46	C22H21FN+
319.132	6	C23[13]CH16N+
319.1686	15	C21[13]CH21FN+
320.1065	5	C23H14NO+
320.1435	43	C24H18N+
321.147	9	C23[13]CH18N+
334.1247	6	C21H17FNO2+
336.1759	18	C22H23FNO+
338.1548	6	C21H21FNO2+
344.1433	20	C26H18N+
345.1463	7	C25[13]CH18N+
346.1224	5	C25H16NO+
361.1455	7	C26H19NO+
362.155	105	C23H21FNO2+
362.19	8	C27H24N+
363.1573	28	C22[13]CH21FNO2+
363.192	5	C19H27N2O5+
369.1387	5	C27H17N2+
370.1252	8	C24H17FNO2+
379.1593	9	C26H20FN2+
380.1649	112	C26H22NO2+
380.1964	15	C24H28O4+
381.1677	36	C25[13]CH22NO2+
381.206	5	C24H29O4+
388.1334	5	C27H18NO2+
398.1754	17	C26H24NO3+
404.2017	15	C26H27FNO2+
406.1814	19	C25H25FNO3+
407.1849	6	C24[13]CH25FNO3+
422.2127	27	C26H29FNO3+
423.2179	9	C25[13]CH29FNO3+
424.1526	6	C27H22NO4+
440.2228	63	C26H31FNO4+
441.2249	17	C25[13]CH31FNO4+
466.2022	71	C27H29FNO5+
467.2063	24	C26[13]CH29FNO5+
