Mass spectrum: Colchicine; LC-ESI-QTOF; MS2; HILIC; CE: 50 eV; R=35000; [M+H]+
Name: Colchicine
Name: N-[(7S)-1,2,3,10-tetramethoxy-9-oxo-6,7-dihydro-5H-benzo[a]heptalen-7-yl]acetamide
Formula: C22H25NO6
Exact mass: 399.1681875
SMILES: C/C(=N\[C@H]1CCc2cc(c(c(c2-c3c1cc(=O)c(cc3)OC)OC)OC)OC)/O
InChI: InChI=1S/C22H25NO6/c1-12(24)23-16-8-6-13-10-19(27-3)21(28-4)22(29-5)20(13)14-7-9-18(26-2)17(25)11-15(14)16/h7,9-11,16H,6,8H2,1-5H3,(H,23,24)/t16-/m0/s1
Instrument: Bruker maXis Impact
Instrument type: LC-ESI-QTOF
Ms type: MS2
Ion mode: POSITIVE
Ionization: ESI
Fragmentation mode: CID
Collision energy: 50 eV
Resolution: 35000
Column name: ACQUITY UPLC BEH Amide 1.7 um 2.1x100mm, Water
Retention time: 2.017 min
Base peak: 400.1768
Precursor m/z: 400.1755
Precursor type: [M+H]+
m/z	relative intensity	assigned
115.0544	13	C9H7+
119.0489	10	C8H7O+
121.0643	8	C8H9O+
123.0434	9	C7H7O2+
125.0593	11	C7H9O2+
128.0608	7	C10H8+
130.0402	6	C9H6O+
130.0647	14	C9H8N+
131.0492	15	C9H7O+
132.0563	11	C9H8O+
133.0525	79	C8H7NO+
134.0564	8	C7[13]CH7NO+
135.0315	16	C7H5NO2+
135.0437	6	C8H7O2+
136.0519	8	C8H8O2+
137.0466	12	C7H7NO2+
137.0596	104	C8H9O2+
138.0662	15	C8H10O2+
139.0539	8	C11H7+
141.0706	9	C11H9+
143.0491	5	C10H7O+
144.0567	9	C10H8O+
145.0519	5	C9H7NO+
145.0645	39	C10H9O+
146.0605	18	C9H8NO+
146.0724	8	C10H10O+
147.0441	23	C9H7O2+
147.0678	16	C9H9NO+
147.0797	7	C10H11O+
148.0516	28	C9H8O2+
148.0757	26	C9H10NO+
149.0588	24	C9H9O2+
150.0548	60	C8H8NO2+
151.038	10	C8H7O3+
151.0576	7	C5H11O5+
151.0747	28	C9H11O2+
152.0685	40	C5H12O5+
153.0554	6	C8H9O3+
153.0695	21	C12H9+
154.0745	8	C12H10+
155.0508	5	C11H7O+
155.0675	5	C8H11O3+
155.0838	6	C12H11+
156.0565	9	C11H8O+
157.0631	5	C11H9O+
158.0589	19	C10H8NO+
158.072	9	C11H10O+
159.0435	11	C10H7O2+
159.0676	6	C10H9NO+
159.0794	5	C11H11O+
160.052	15	C10H8O2+
160.0758	25	C10H10NO+
161.0472	9	C9H7NO2+
161.0592	32	C10H9O2+
161.0815	11	C7H13O4+
162.0664	8	C10H10O2+
163.037	5	C9H7O3+
163.0618	5	C9H9NO2+
163.0742	17	C10H11O2+
164.0697	22	C9H10NO2+
165.0552	8	C9H9O3+
165.0743	59	C6H13O5+
166.0628	23	C9H10O3+
166.0776	25	C13H10+
167.047	7	C12H7O+
167.0703	13	C9H11O3+
167.0852	37	C13H11+
168.0569	9	C12H8O+
168.0799	5	C12H10N+
169.0648	18	C12H9O+
170.0708	8	C12H10O+
171.0467	5	C11H7O2+
171.0673	5	C11H9NO+
171.0796	16	C12H11O+
172.0509	6	C11H8O2+
172.0757	8	C11H10NO+
173.0595	24	C11H9O2+
173.0844	5	C11H11NO+
174.057	12	C10H8NO2+
174.067	15	C11H10O2+
174.0922	7	C11H12NO+
175.0395	7	C10H7O3+
175.063	25	C10H9NO2+
175.0741	28	C11H11O2+
176.0699	96	C10H10NO2+
176.0814	59	C11H12O2+
177.0542	34	C10H9O3+
177.0721	24	C14H9+
177.0883	17	C11H13O2+
178.0614	10	C10H10O3+
178.0774	42	C14H10+
179.0704	49	C10H11O3+
179.0848	50	C14H11+
180.0566	13	C13H8O+
180.0857	17	C6H14NO5+
181.0647	63	C13H9O+
181.0854	132	C10H13O3+
182.0717	39	C13H10O+
182.0893	13	C9[13]CH13O3+
183.0445	5	C12H7O2+
183.0798	34	C13H11O+
184.0529	11	C12H8O2+
184.0781	9	C12H10NO+
184.0878	14	C13H12O+
185.0591	12	C12H9O2+
185.0947	6	C13H13O+
186.0583	5	C11H8NO2+
186.0656	6	C12H10O2+
187.0387	6	C11H7O3+
187.0742	11	C12H11O2+
188.071	54	C11H10NO2+
189.0551	13	C11H9O3+
189.0726	32	C15H9+
189.0927	7	C12H13O2+
190.0624	19	C11H10O3+
190.0738	15	C7H12NO5+
190.0865	22	C11H12NO2+
191.0535	5	C7H11O6+
191.0698	48	C11H11O3+
191.0851	37	C15H11+
192.0653	37	C10H10NO3+
192.0916	17	C15H12+
193.0672	29	C14H9O+
193.0886	14	C14H11N+
193.0986	14	C15H13+
194.0723	50	C14H10O+
194.097	14	C14H12N+
195.0452	8	C13H7O2+
195.08	155	C14H11O+
195.1002	10	C11H15O3+
196.0514	10	C13H8O2+
196.0873	71	C14H12O+
197.0593	51	C13H9O2+
197.0954	32	C14H13O+
198.0668	44	C13H10O2+
198.0966	12	C6H16NO6+
199.0746	75	C13H11O2+
199.1129	5	C14H15O+
201.0556	15	C12H9O3+
201.0819	9	C12H11NO2+
202.0613	8	C12H10O3+
202.0822	12	C9H14O5+
203.0709	11	C12H11O3+
203.0937	71	C12H13NO2+
204.0652	67	C11H10NO3+
204.099	11	C11[13]CH13NO2+
205.066	64	C15H9O+
205.0848	30	C12H13O3+
206.0731	66	C15H10O+
206.0917	31	C12H14O3+
207.08	168	C15H11O+
207.1016	68	C12H15O3+
208.0522	26	C14H8O2+
208.0869	88	C15H12O+
209.0594	60	C14H9O2+
209.0957	101	C15H13O+
209.1174	9	C12H17O3+
210.0668	61	C14H10O2+
210.0967	23	C14[13]CH13O+
211.0747	130	C14H11O2+
211.1104	35	C15H15O+
212.047	12	C13H8O3+
212.0827	108	C14H12O2+
212.1081	10	C14H14NO+
213.0539	16	C13H9O3+
213.09	55	C14H13O2+
214.0608	19	C13H10O3+
214.0935	16	C14H14O2+
215.0703	23	C13H11O3+
215.0935	5	C13H13NO2+
215.1018	6	C14H15O2+
216.0773	15	C13H12O3+
216.1045	5	C13H14NO2+
217.0662	21	C16H9O+
217.0849	9	C13H13O3+
218.0786	34	C9H14O6+
219.0456	6	C15H7O2+
219.0819	74	C16H11O+
220.0527	24	C15H8O2+
220.0888	52	C16H12O+
221.0594	47	C15H9O2+
221.0954	76	C16H13O+
222.0673	60	C15H10O2+
222.0922	42	C15H12NO+
223.0748	250	C15H11O2+
223.1076	19	C8H17NO6+
224.0828	257	C15H12O2+
224.1074	29	C15H14NO+
225.055	47	C14H9O3+
225.0889	146	C15H13O2+
226.0614	46	C14H10O3+
226.0966	76	C15H14O2+
227.0703	222	C14H11O3+
227.1054	66	C15H15O2+
228.0749	55	C13[13]CH11O3+
228.1047	13	C14H14NO2+
229.0479	6	C13H9O4+
229.085	30	C14H13O3+
229.1107	7	C14H15NO2+
230.0575	7	C13H10O4+
230.0804	6	C13H12NO3+
231.0862	12	C10H15O6+
231.0993	12	C14H15O3+
232.0507	4	C16H8O2+
232.0827	11	C9H14NO6+
233.0603	43	C16H9O2+
233.0827	20	C16H11NO+
233.0961	13	C17H13O+
234.0673	69	C16H10O2+
234.0899	44	C13H14O4+
234.1122	34	C13H16NO3+
235.0753	296	C16H11O2+
235.099	24	C16H13NO+
236.0464	25	C15H8O3+
236.0815	185	C16H12O2+
236.107	61	C16H14NO+
237.055	67	C15H9O3+
237.0907	242	C16H13O2+
237.1138	36	C16H15NO+
238.0612	39	C15H10O3+
238.0973	123	C16H14O2+
238.1205	10	C13H18O4+
239.0703	110	C15H11O3+
239.1067	354	C16H15O2+
240.0781	207	C15H12O3+
240.1074	89	C15H14NO2+
241.0492	11	C14H9O4+
241.0853	229	C15H13O3+
241.11	23	C14[13]CH14NO2+
242.058	14	C14H10O4+
242.0924	138	C15H14O3+
243.0648	48	C14H11O4+
243.0982	43	C15H15O3+
244.073	25	C14H12O4+
244.1025	10	C14[13]CH15O3+
245.0611	6	C17H9O2+
245.0774	11	C14H13O4+
245.1033	7	C11H17O6+
246.0714	12	C17H10O2+
246.0914	14	C17H12NO+
246.1106	8	C11H18O6+
247.0375	5	C16H7O3+
247.0751	63	C17H11O2+
247.0982	18	C17H13NO+
248.0457	9	C16H8O3+
248.0823	70	C17H12O2+
248.1062	22	C17H14NO+
249.0536	27	C16H9O3+
249.0902	120	C17H13O2+
250.0619	69	C16H10O3+
250.0946	137	C17H14O2+
251.0703	398	C16H11O3+
251.106	188	C17H15O2+
252.0776	357	C16H12O3+
252.1057	134	C16H14NO2+
253.0493	46	C15H9O4+
253.0839	190	C16H13O3+
253.1088	57	C16H15NO2+
254.0552	24	C15H10O4+
254.091	108	C16H14O3+
254.1175	30	C16H16NO2+
255.0648	226	C15H11O4+
255.1014	258	C16H15O3+
256.0708	99	C15H12O4+
257.0455	12	C14H9O5+
257.0793	55	C15H13O4+
257.1111	39	C16H17O3+
258.0881	45	C15H14O4+
258.1147	25	C15H16NO3+
259.0954	32	C15H15O4+
259.1204	6	C15H17NO3+
260.1025	11	C15H16O4+
261.055	13	C17H9O3+
261.0883	14	C18H13O2+
262.062	15	C17H10O3+
262.0861	36	C17H12NO2+
263.07	191	C17H11O3+
263.0943	52	C17H13NO2+
264.0464	7	C19H6NO+
264.076	101	C17H12O3+
264.1017	122	C17H14NO2+
265.0499	30	C16H9O4+
265.086	310	C17H13O3+
265.1079	66	C14H17O5+
266.0544	14	C16H10O4+
266.0916	191	C17H14O3+
266.1158	60	C14H18O5+
267.0645	67	C16H11O4+
267.1017	999	C17H15O3+
268.073	189	C16H12O4+
268.102	342	C16H14NO3+
269.0798	199	C16H13O4+
269.1062	80	C15[13]CH14NO3+
270.088	174	C16H14O4+
270.1129	55	C16H16NO3+
271.0594	20	C15H11O5+
271.0941	120	C16H15O4+
271.1176	21	C13H19O6+
272.0658	21	C15H12O5+
272.0969	45	C15H14NO4+
272.1283	39	C16H18NO3+
273.074	16	C15H13O5+
273.1117	24	C16H17O4+
274.0863	9	C18H12NO2+
275.0733	7	C21H9N+
275.0927	13	C15H15O5+
276.0787	19	C18H12O3+
276.1014	26	C18H14NO2+
277.0857	67	C18H13O3+
277.106	27	C15H17O5+
278.0564	17	C17H10O4+
278.0888	136	C18H14O3+
278.1155	40	C15H18O5+
279.0651	196	C17H11O4+
279.0988	141	C18H15O3+
280.0726	151	C17H12O4+
280.0976	175	C17H14NO3+
280.1321	16	C18H18NO2+
281.0442	14	C16H9O5+
281.078	80	C17H13O4+
281.1146	122	C18H17O3+
282.0854	72	C17H14O4+
282.1215	290	C18H18O3+
283.0604	26	C16H11O5+
283.0966	526	C17H15O4+
283.123	81	C17[13]CH18O3+
284.0667	14	C16H12O5+
284.1001	164	C16[13]CH15O4+
284.1279	58	C17H18NO3+
285.0751	57	C16H13O5+
285.1106	173	C17H17O4+
286.109	130	C16H16NO4+
286.143	10	C17H20NO3+
287.0911	148	C16H15O5+
288.096	30	C15[13]CH15O5+
289.1077	10	C16H17O5+
290.0833	6	C18H12NO3+
290.1179	10	C19H16NO2+
291.0933	19	C18H13NO3+
291.1227	6	C16H19O5+
292.0966	107	C18H14NO3+
292.1313	7	C16H20O5+
293.0812	108	C18H13O4+
293.1043	104	C18H15NO3+
294.0867	106	C18H14O4+
294.1127	158	C18H16NO3+
295.0967	730	C18H15O4+
296.0687	76	C17H12O5+
296.1271	82	C18H18NO3+
297.0742	30	C17H13O5+
297.1099	108	C18H17O4+
298.0821	30	C17H14O5+
298.1179	106	C18H18O4+
298.1434	43	C18H20NO3+
299.0883	39	C17H15O5+
299.1194	72	C17H17NO4+
300.0888	53	C16H14NO5+
300.1236	385	C17H18NO4+
301.1288	114	C17H19NO4+
302.1141	23	C17H18O5+
302.1346	21	C16[13]CH19NO4+
303.1195	6	C17H19O5+
304.0969	7	C19H14NO3+
305.1032	12	C16H17O6+
306.0763	7	C18H12NO4+
306.1119	36	C19H16NO3+
307.0967	20	C19H15O4+
307.1196	26	C19H17NO3+
308.0928	45	C18H14NO4+
308.1281	74	C19H18NO3+
309.0782	10	C21H11NO2+
309.1067	93	C19H17O4+
310.0849	25	C21H12NO2+
310.114	228	C19H18O4+
311.0918	480	C18H15O5+
312.0951	102	C17[13]CH15O5+
312.1231	92	C18H18NO4+
313.0962	47	C17H15NO5+
313.1258	22	C17[13]CH18NO4+
313.1408	22	C19H21O4+
314.1025	106	C17H16NO5+
314.1394	52	C18H20NO4+
315.1076	31	C17H17NO5+
315.1428	21	C18H21NO4+
316.1093	7	C16[13]CH17NO5+
316.1524	13	C18H22NO4+
319.0853	5	C19H13NO4+
320.092	24	C19H14NO4+
320.1274	11	C20H18NO3+
321.0984	31	C19H15NO4+
322.0734	6	C18H12NO5+
322.1062	16	C19H16NO4+
322.1415	11	C17H22O6+
323.1154	31	C19H17NO4+
323.1501	6	C17H23O6+
324.1233	176	C19H18NO4+
325.1085	64	C22H15NO2+
325.1276	55	C18[13]CH18NO4+
326.114	62	C19H18O5+
326.1392	53	C19H20NO4+
327.1129	31	C18H17NO5+
327.1441	22	C19H21NO4+
328.1177	157	C18H18NO5+
329.1219	42	C18H19NO5+
330.1275	7	C17[13]CH19NO5+
334.1079	15	C20H16NO4+
335.1138	6	C20H17NO4+
336.0889	13	C19H14NO5+
336.1249	14	C20H18NO4+
337.094	12	C19H15NO5+
337.1245	5	C20H19NO4+
338.1015	7	C19H16NO5+
338.1395	33	C20H20NO4+
339.1467	38	C20H21NO4+
340.1204	8	C19H18NO5+
340.1539	29	C20H22NO4+
341.1395	17	C20H21O5+
342.0962	10	C18H16NO6+
342.1339	105	C19H20NO5+
343.1405	43	C19H21NO5+
344.1436	10	C18[13]CH21NO5+
351.1113	15	C20H17NO5+
352.1186	27	C20H18NO5+
353.1255	6	C19[13]CH18NO5+
358.1643	20	C20H24NO5+
366.1338	9	C21H20NO5+
367.139	11	C21H21NO5+
384.1473	7	C21H22NO6+
