Mass spectrum: Valsartan; LC-ESI-QTOF; MS2; HILIC; CE: 50 eV; R=35000; [M+H]+
Name: Valsartan
Name: (2S)-3-methyl-2-[pentanoyl-[[4-[2-(2H-tetrazol-5-yl)phenyl]phenyl]methyl]amino]butanoic acid
Formula: C24H29N5O3
Exact mass: 435.2270398
SMILES: CCCCC(=O)N(CC1=CC=C(C=C1)C1=CC=CC=C1C1=NNN=N1)[C@@H](C(C)C)C(O)=O
InChI: InChI=1S/C24H29N5O3/c1-4-5-10-21(30)29(22(16(2)3)24(31)32)15-17-11-13-18(14-12-17)19-8-6-7-9-20(19)23-25-27-28-26-23/h6-9,11-14,16,22H,4-5,10,15H2,1-3H3,(H,31,32)(H,25,26,27,28)/t22-/m0/s1
Instrument: Bruker maXis Impact
Instrument type: LC-ESI-QTOF
Ms type: MS2
Ion mode: POSITIVE
Ionization: ESI
Fragmentation mode: CID
Collision energy: 50 eV
Resolution: 35000
Column name: ACQUITY UPLC BEH Amide 1.7 um 2.1x100mm, Water
Retention time: 1.967 min
Base peak: 436.2371
Precursor m/z: 436.2343
Precursor type: [M+H]+
m/z	relative intensity	assigned
115.0547	5	C9H7+
129.0455	8	C8H5N2+
140.0497	36	C10H6N+
141.0696	6	C11H9+
151.0541	8	C12H7+
152.0622	57	C12H8+
153.0703	177	C12H9+
154.0732	25	C11[13]CH9+
163.0545	43	C13H7+
164.0589	8	C12[13]CH7+
165.0701	51	C13H9+
166.0666	18	C12H8N+
167.0729	26	C12H9N+
168.07	9	C11H8N2+
169.0655	9	C12H9O+
177.0579	10	C13H7N+
177.07	6	C14H9+
178.0781	212	C14H10+
179.0772	47	C13[13]CH10+
180.0816	759	C13H10N+
181.0657	18	C13H9O+
181.0843	86	C8H11N3O2+
182.0869	7	C7[13]CH11N3O2+
190.0659	427	C14H8N+
191.0717	117	C14H9N+
192.0693	161	C13H8N2+
193.0716	27	C12[13]CH8N2+
193.0881	35	C14H11N+
194.0606	5	C13H8NO+
194.0966	36	C14H12N+
195.0809	12	C14H11O+
195.1005	5	C13[13]CH12N+
196.0764	24	C13H10NO+
205.0768	125	C14H9N2+
206.0848	359	C14H10N2+
207.0925	999	C14H11N2+
208.0765	142	C14H10NO+
208.0956	100	C13[13]CH11N2+
209.0801	22	C13[13]CH10NO+
209.1074	31	C14H13N2+
210.092	55	C14H12NO+
210.1107	6	C13[13]CH13N2+
211.0953	10	C13[13]CH12NO+
235.0908	33	C15H11N2O+
236.0935	6	C14[13]CH11N2O+
291.1502	31	C19H19N2O+
292.155	6	C18[13]CH19N2O+
