Mass spectrum: Valsartan; LC-ESI-QTOF; MS2; HILIC; CE: 10 eV; R=35000; [M+H]+
Name: Valsartan
Name: (2S)-3-methyl-2-[pentanoyl-[[4-[2-(2H-tetrazol-5-yl)phenyl]phenyl]methyl]amino]butanoic acid
Formula: C24H29N5O3
Exact mass: 435.2270398
SMILES: CCCCC(=O)N(CC1=CC=C(C=C1)C1=CC=CC=C1C1=NNN=N1)[C@@H](C(C)C)C(O)=O
InChI: InChI=1S/C24H29N5O3/c1-4-5-10-21(30)29(22(16(2)3)24(31)32)15-17-11-13-18(14-12-17)19-8-6-7-9-20(19)23-25-27-28-26-23/h6-9,11-14,16,22H,4-5,10,15H2,1-3H3,(H,31,32)(H,25,26,27,28)/t22-/m0/s1
Instrument: Bruker maXis Impact
Instrument type: LC-ESI-QTOF
Ms type: MS2
Ion mode: POSITIVE
Ionization: ESI
Fragmentation mode: CID
Collision energy: 10 eV
Resolution: 35000
Column name: ACQUITY  UPLC BEH Amide 1.7 um 2.1x100mm, Waters
Retention time: 1.967 min
Base peak: 436.2362
Precursor m/z: 436.2343
Precursor type: [M+H]+
m/z	relative intensity	assigned
207.0922	30	C14H11N2+
235.0982	347	C14H11N4+
236.101	51	C13[13]CH11N4+
291.1501	243	C19H19N2O+
292.1537	50	C18[13]CH19N2O+
306.1723	270	C20H22N2O+
307.1752	56	C15H23N4O3+
308.181	5	C14[13]CH23N4O3+
352.1777	167	C21H24N2O3+
353.1813	36	C20[13]CH24N2O3+
362.2236	158	C23H28N3O+
363.2259	41	C18H29N5O3+
364.23	6	C17[13]CH29N5O3+
408.2301	483	C24H30N3O3+
409.233	127	C23H29N4O3+
410.2354	16	C22[13]CH29N4O3+
418.2253	447	C24H28N5O2+
419.2286	115	C24H29N5O2+
420.231	14	C23[13]CH29N5O2+
436.2366	999	C24H30N5O3+
437.2392	268	C23[13]CH30N5O3+
438.242	36	C22[13]C2H30N5O3+
