Mass spectrum: Theophyllin; LC-ESI-QTOF; MS2; CE: 40 eV; R=35000; [M+H]+
Name: Theophyllin
Name: Theophylline
Name: 1,3-dimethyl-7H-purine-2,6-dione
Formula: C7H8N4O2
Exact mass: 180.0647255
SMILES: CN1C2=C(NC=N2)C(=O)N(C)C1=O
InChI: InChI=1S/C7H8N4O2/c1-10-5-4(8-3-9-5)6(12)11(2)7(10)13/h3H,1-2H3,(H,8,9)
Instrument: Bruker maXis Impact
Instrument type: LC-ESI-QTOF
Ms type: MS2
Ion mode: POSITIVE
Ionization: ESI
Fragmentation mode: CID
Collision energy: 40 eV
Resolution: 35000
Column name: Acclaim RSLC C18 2.2um, 2.1x100mm, Thermo
Retention time: 3.860 min
Base peak: 181.0711
Precursor m/z: 181.072
Precursor type: [M+H]+
m/z	relative intensity	assigned
124.0497	999	C5H6N3O+
