Mass spectrum: Imidocarb; LC-ESI-QTOF; MS2; HILIC; CE: 30 eV; R=35000; [M+H]+
Name: Imidocarb
Name: 1,3-bis[3-(4,5-dihydro-1H-imidazol-2-yl)phenyl]urea
Formula: C19H20N6O
Exact mass: 348.1698593
SMILES: c1cc(cc(c1)NC(=O)Nc2cccc(c2)C3=NCCN3)C4=NCCN4
InChI: InChI=1S/C19H20N6O/c26-19(24-15-5-1-3-13(11-15)17-20-7-8-21-17)25-16-6-2-4-14(12-16)18-22-9-10-23-18/h1-6,11-12H,7-10H2,(H,20,21)(H,22,23)(H2,24,25,26)
Instrument: Bruker maXis Impact
Instrument type: LC-ESI-QTOF
Ms type: MS2
Ion mode: POSITIVE
Ionization: ESI
Fragmentation mode: CID
Collision energy: 30 eV
Resolution: 35000
Column name: ACQUITY UPLC BEH Amide 1.7 um 2.1x100 mm, Waters
Retention time: 6.632 min
Base peak: 175.0925
Precursor m/z: 349.1771
Precursor type: [M+H]+
m/z	relative intensity	assigned
162.1028	551	C9H12N3+
163.1064	56	C8[13]CH12N3+
188.0824	999	C10H10N3O+
189.086	133	C9[13]CH10N3O+
190.0881	13	C9H10N4O+
232.0259	12	C12H2N5O+
260.0204	61	C18H2N3+
261.0252	14	C19H3NO+
262.0191	11	C18H2N2O+
276.0133	36	C16N6+
277.0209	18	C16HN6+
304.0104	198	C17N6O+
305.0131	40	C16[13]CN6O+
306.1361	57	C17H16N5O+
307.139	17	C17H17N5O+
349.1798	200	C19H21N6O+
350.1833	37	C18[13]CH21N6O+
