Mass spectrum: Propranolol; LC-ESI-QTOF; MS2; CE: 40 eV; R=35000; [M+H]+
Name: Propranolol
Name: 1-naphthalen-1-yloxy-3-(propan-2-ylamino)propan-2-ol
Formula: C16H21NO2
Exact mass: 259.1572289
SMILES: CC(C)NCC(O)COC1=C2C=CC=CC2=CC=C1
InChI: InChI=1S/C16H21NO2/c1-12(2)17-10-14(18)11-19-16-9-5-7-13-6-3-4-8-15(13)16/h3-9,12,14,17-18H,10-11H2,1-2H3
Instrument: Bruker maXis Impact
Instrument type: LC-ESI-QTOF
Ms type: MS2
Ion mode: POSITIVE
Ionization: ESI
Fragmentation mode: CID
Collision energy: 40 eV
Resolution: 35000
Column name: Acclaim RSLC C18 2.2um, 2.1x100mm, Thermo
Retention time: 6.318 min
Base peak: 325.1721
Precursor m/z: 260.1645
Precursor type: [M+H]+
m/z	relative intensity	assigned
115.0536	148	C9H7+
116.058	19	C8[13]CH7+
116.1065	24	C6H14NO+
117.0692	39	C9H9+
118.0735	5	C8[13]CH9+
126.046	29	C10H6+
127.0534	171	C10H7+
128.0611	398	C10H8+
129.0688	734	C10H9+
130.0726	66	C9[13]CH9+
139.0535	12	C11H7+
140.0611	14	C11H8+
141.0689	125	C11H9+
142.0734	18	C10[13]CH9+
143.0482	32	C10H7O+
143.0842	10	C11H11+
144.0555	49	C10H8O+
145.0638	438	C10H9O+
146.0671	39	C9[13]CH9O+
152.0608	69	C12H8+
153.0688	479	C12H9+
154.0759	246	C12H10+
155.0843	999	C12H11+
156.0877	126	C11[13]CH11+
157.0636	477	C11H9O+
158.0673	51	C10[13]CH9O+
164.062	8	C13H8+
165.0687	470	C13H9+
166.0724	72	C12[13]CH9+
167.0751	7	C12H9N+
168.0559	152	C12H8O+
169.0602	24	C11[13]CH8O+
171.0794	26	C12H11O+
181.0635	28	C13H9O+
182.0711	39	C13H10O+
183.079	135	C13H11O+
184.0828	18	C12[13]CH11O+
