Mass spectrum: Atorvastatin; LC-ESI-QTOF; MS2; HILIC; CE: 20 eV; R=35000; [M+H]+
Name: Atorvastatin
Name: atorvastatin
Name: (3R,5R)-7-[2-(4-fluorophenyl)-3-phenyl-4-(phenylcarbamoyl)-5-propan-2-ylpyrrol-1-yl]-3,5-dihydroxyheptanoic acid
Formula: C33H35FN2O5
Exact mass: 558.2530004
SMILES: CC(C)c1c(c(c(n1CC[C@H](C[C@H](CC(=O)O)O)O)c2ccc(cc2)F)c3ccccc3)/C(=N/c4ccccc4)/O
InChI: InChI=1S/C33H35FN2O5/c1-21(2)31-30(33(41)35-25-11-7-4-8-12-25)29(22-9-5-3-6-10-22)32(23-13-15-24(34)16-14-23)36(31)18-17-26(37)19-27(38)20-28(39)40/h3-16,21,26-27,37-38H,17-20H2,1-2H3,(H,35,41)(H,39,40)/t26-,27-/m1/s1
Instrument: Bruker maXis Impact
Instrument type: LC-ESI-QTOF
Ms type: MS2
Ion mode: POSITIVE
Ionization: ESI
Fragmentation mode: CID
Collision energy: 20 eV
Resolution: 35000
Column name: ACQUITY UPLC BEH Amide 1.7 um 2.1x100 mm, Waters
Retention time: 1.840 min
Base peak: 375.2156
Precursor m/z: 559.2603
Precursor type: [M+H]+
m/z	relative intensity	assigned
133.0856	8	C6H13O3+
177.1102	6	C8H17O4+
292.1484	7	C20H19FN+
336.1419	6	C21H19FNO2+
380.1608	6	C23H24O5+
413.2048	5	C23H29N2O5+
422.2118	35	C29H28NO2+
423.2162	11	C28[13]CH28NO2+
430.1887	7	C26H26N2O4+
440.2223	845	C29H30NO3+
441.2259	303	C30H30FO2+
442.2275	36	C29[13]CH30FO2+
448.1909	23	C30H26NO3+
466.2022	158	C27H29FNO5+
467.2051	52	C31H28FO3+
468.2076	8	C30[13]CH28FO3+
517.2079	8	C33H29N2O4+
541.2486	6	C33H34FN2O4+
557.2472	6	C33H34FN2O5+
558.2463	6	C33H35FN2O5+
559.2599	999	C33H36FN2O5+
560.2637	384	C32[13]CH36FN2O5+
561.2664	81	C31[13]C2H36FN2O5+
