Mass spectrum: Rifaximin; LC-ESI-QTOF; MS2; CE: 20 eV; R=35000; [M+H]+
Name: Rifaximin
Formula: C43H51N3O11
Exact mass: 785.3523595
SMILES: C[C@H]1/C=C/C=C(\C(=O)NC2=C(C3=C(C4=C(C(=C3O)C)O[C@@](C4=O)(O/C=C/[C@@H]([C@H]([C@H]([C@@H]([C@@H]([C@@H]([C@H]1O)C)O)C)OC(=O)C)C)OC)C)C5=C2N6C=CC(=CC6=N5)C)O)/C
InChI: InChI=1S/C43H51N3O11/c1-19-14-16-46-28(18-19)44-32-29-30-37(50)25(7)40-31(29)41(52)43(9,57-40)55-17-15-27(54-10)22(4)39(56-26(8)47)24(6)36(49)23(5)35(48)20(2)12-11-13-21(3)42(53)45-33(34(32)46)38(30)51/h11-18,20,22-24,27,35-36,39,48-51H,1-10H3,(H,45,53)/b12-11+,17-15+,21-13-/t20-,22+,23+,24+,27-,35-,36+,39+,43-/m0/s1
Instrument: Bruker maXis Impact
Instrument type: LC-ESI-QTOF
Ms type: MS2
Ion mode: POSITIVE
Ionization: ESI
Fragmentation mode: CID
Collision energy: 20 eV
Resolution: 35000
Column name: Acclaim RSLC C18 2.2um, 2.1x100mm, Thermo
Retention time: 9.8 min
Base peak: 786.339
Precursor m/z: 786.3596
Precursor type: [M+H]+
m/z	relative intensity	assigned
754.3135	192	C42H46N2O11+
755.3186	67	C41[13]CH46N2O11+
756.3211	11	C42[13]CH49NO11+
756.3325	18	C42[13]CH49NO11+
786.3392	999	C43H52N3O11+
787.3482	481	C42[13]CH52N3O11+
