Mass spectrum: Bromhexine; LC-ESI-QTOF; MS2; CE: 30 eV; R=35000; [M+H]+
Name: Bromhexine
Name: 2,4-dibromo-6-[[cyclohexyl(methyl)amino]methyl]aniline
Formula: C14H20Br2N2
Exact mass: 373.9993228
SMILES: CN(Cc1cc(cc(c1N)Br)Br)C2CCCCC2
InChI: InChI=1S/C14H20Br2N2/c1-18(12-5-3-2-4-6-12)9-10-7-11(15)8-13(16)14(10)17/h7-8,12H,2-6,9,17H2,1H3
Instrument: Bruker maXis Impact
Instrument type: LC-ESI-QTOF
Ms type: MS2
Ion mode: POSITIVE
Ionization: ESI
Fragmentation mode: CID
Collision energy: 30 eV
Resolution: 35000
Column name: Acclaim RSLC C18 2.2um, 2.1x100mm, Thermo
Retention time: 10.1 min
Base peak: 376.9922
Precursor m/z: 375.0066
Precursor type: [M+H]+
m/z	relative intensity	assigned
114.1262	65	C7H16N+
261.8773	576	C6H4Br2N2+
262.8852	36	C6[13]CH6Br2N+
263.8752	999	C5H4Br2N3+
264.879	24	C5[13]CH4Br[81]BrN2+
