Mass spectrum: Atorvastatin; LC-ESI-QTOF; MS2; HILIC; CE: 40 eV; R=35000; [M+H]+
Name: Atorvastatin
Name: atorvastatin
Name: (3R,5R)-7-[2-(4-fluorophenyl)-3-phenyl-4-(phenylcarbamoyl)-5-propan-2-ylpyrrol-1-yl]-3,5-dihydroxyheptanoic acid
Formula: C33H35FN2O5
Exact mass: 558.2530004
SMILES: CC(C)c1c(c(c(n1CC[C@H](C[C@H](CC(=O)O)O)O)c2ccc(cc2)F)c3ccccc3)/C(=N/c4ccccc4)/O
InChI: InChI=1S/C33H35FN2O5/c1-21(2)31-30(33(41)35-25-11-7-4-8-12-25)29(22-9-5-3-6-10-22)32(23-13-15-24(34)16-14-23)36(31)18-17-26(37)19-27(38)20-28(39)40/h3-16,21,26-27,37-38H,17-20H2,1-2H3,(H,35,41)(H,39,40)/t26-,27-/m1/s1
Instrument: Bruker maXis Impact
Instrument type: LC-ESI-QTOF
Ms type: MS2
Ion mode: POSITIVE
Ionization: ESI
Fragmentation mode: CID
Collision energy: 40 eV
Resolution: 35000
Column name: ACQUITY UPLC BEH Amide 1.7 um 2.1x100mm, Waters
Retention time: 1.816 min
Base peak: 375.2168
Precursor m/z: 559.2603
Precursor type: [M+H]+
m/z	relative intensity	assigned
120.0439	9	C7H6NO+
133.0856	10	C6H13O3+
233.0752	5	C17H10F+
238.1025	36	C16H13FN+
239.1055	6	C16H15O2+
248.0857	6	C14H13FO3+
249.0942	25	C17H12FN+
250.1022	564	C17H13FN+
251.1056	119	C17H15O2+
252.1146	31	C16[13]CH15O2+
262.1032	24	C18H13FN+
263.1061	5	C18H15O2+
264.0819	5	C17H11FNO+
264.1159	5	C15H17FO3+
276.0792	17	C15H13FO4+
276.1173	192	C19H15FN+
277.1213	46	C19H17O2+
278.131	7	C18[13]CH17O2+
279.1423	20	C19H18FN+
280.1485	56	C19H19FN+
281.1511	9	C18[13]CH19FN+
290.1325	15	C17H19FO3+
292.1494	682	C20H19FN+
293.1524	146	C19[13]CH19FN+
294.093	10	C18H13FNO2+
294.1296	14	C19H17FNO+
294.1639	86	C17H23FO3+
295.0954	5	C18H15O4+
295.168	16	C16[13]CH23FO3+
302.0995	10	C20H13FNO+
302.1347	22	C21H17FN+
303.1365	7	C13H20FN2O5+
304.1472	8	C18H21FO3+
306.128	28	C23H16N+
307.1314	8	C20H19O3+
308.1434	12	C23H18N+
316.1513	7	C22H19FN+
318.1283	23	C24H16N+
318.1659	63	C22H21FN+
319.1334	6	C21H19O3+
319.1674	21	C21[13]CH21FN+
320.1104	5	C20H15FNO2+
320.1439	41	C24H18N+
321.147	7	C23[13]CH18N+
334.1984	8	C23H25FN+
336.1421	10	C21H19FNO2+
336.1746	27	C25H22N+
337.1764	8	C17H25N2O5+
344.1452	22	C23H19FNO+
344.1786	5	C21H25FO3+
360.1398	9	C23H19FNO2+
360.2146	6	C25H27FN+
361.1472	12	C23H20FNO2+
362.1549	174	C23H21FNO2+
362.1939	14	C20H28NO5+
363.1594	45	C23H23O4+
364.1641	8	C22[13]CH23O4+
369.1388	11	C27H17N2+
370.1225	6	C23H18N2O3+
370.1341	7	C23H18N2O3+
378.2238	27	C25H29FNO+
379.1591	22	C23H22FNO3+
380.1654	323	C23H23FNO3+
380.2015	38	C24H27FNO2+
381.1684	95	C23H25O5+
381.2011	11	C23[13]CH27FNO2+
382.1721	11	C22[13]CH25O5+
388.1335	8	C27H18NO2+
398.1778	95	C29H22N2+
399.179	21	C28[13]CH22N2+
402.1856	8	C29H24NO+
404.201	74	C29H26NO+
405.2038	19	C28[13]CH26NO+
406.1444	17	C24H21FNO4+
406.1795	13	C28H24NO2+
411.1837	5	C24H26FNO4+
422.2134	241	C26H29FNO3+
423.2155	64	C26H31O5+
424.154	29	C27H22NO4+
424.2188	12	C25[13]CH31O5+
425.1569	6	C26[13]CH22NO4+
430.1811	11	C27H25FNO3+
440.2239	999	C26H31FNO4+
441.2266	288	C29H31NO3+
442.228	47	C28[13]CH31NO3+
448.1888	10	C30H26NO3+
466.2028	212	C27H29FNO5+
467.2059	60	C30H29NO4+
468.2093	6	C29[13]CH29NO4+
