Mass spectrum: Carbamazepine; LC-ESI-QTOF; MS2; CE: Ramp 19.3-29.0 eV; R=35000; [M+H]+
Name: Carbamazepine
Name: benzo[b][1]benzazepine-11-carboxamide
Formula: C15H12N2O
Exact mass: 236.0949630
SMILES: NC(=O)N1C2=CC=CC=C2C=CC2=CC=CC=C12
InChI: InChI=1S/C15H12N2O/c16-15(18)17-13-7-3-1-5-11(13)9-10-12-6-2-4-8-14(12)17/h1-10H,(H2,16,18)
Instrument: Bruker maXis Impact
Instrument type: LC-ESI-QTOF
Ms type: MS2
Ion mode: POSITIVE
Ionization: ESI
Fragmentation mode: CID
Collision energy: Ramp 19.3-29.0 eV
Resolution: 35000
Column name: Acclaim RSLC C18 2.2um, 2.1x100mm, Thermo
Retention time: 7.504 min
Base peak: 237.1025
Precursor m/z: 237.1022
Precursor type: [M+H]+
m/z	relative intensity	assigned
165.0687	10	C13H9+
167.0843	9	C13H11+
179.0721	24	C13H9N+
191.0718	7	C14H9N+
192.0802	297	C14H10N+
193.0867	124	C14H11N+
194.0963	999	C14H12N+
195.0991	200	C13[13]CH12N+
196.1021	11	C12[13]C2H12N+
220.075	14	C15H10NO+
237.102	267	C15H13N2O+
238.1052	43	C14[13]CH13N2O+
