Mass spectrum: Metoprolol; LC-ESI-QTOF; MS2; CE: 40 eV; R=35000; [M+H]+
Name: Metoprolol
Name: 1-[4-(2-methoxyethyl)phenoxy]-3-(propan-2-ylamino)propan-2-ol
Formula: C15H25NO3
Exact mass: 267.1834437
SMILES: COCCC1=CC=C(OCC(O)CNC(C)C)C=C1
InChI: InChI=1S/C15H25NO3/c1-12(2)16-10-14(17)11-19-15-6-4-13(5-7-15)8-9-18-3/h4-7,12,14,16-17H,8-11H2,1-3H3
Instrument: Bruker maXis Impact
Instrument type: LC-ESI-QTOF
Ms type: MS2
Ion mode: POSITIVE
Ionization: ESI
Fragmentation mode: CID
Collision energy: 40 eV
Resolution: 35000
Column name: Acclaim RSLC C18 2.2um, 2.1x100mm, Thermo
Retention time: 4.763 min
Base peak: 268.1907
Precursor m/z: 268.1907
Precursor type: [M+H]+
m/z	relative intensity	assigned
115.0536	112	C9H7+
116.0612	50	C9H8+
116.1068	39	C6H14NO+
117.0689	30	C9H9+
118.0729	5	C8[13]CH9+
119.0484	18	C8H7O+
119.0854	25	C9H11+
120.0564	34	C8H8O+
120.0798	15	C8H10N+
121.0641	506	C8H9O+
122.0676	42	C7[13]CH9O+
123.0706	5	C7H9NO+
128.0612	44	C10H8+
129.0686	112	C10H9+
130.0738	16	C9[13]CH9+
131.0484	65	C9H7O+
131.0847	160	C10H11+
132.0537	14	C9H8O+
132.0874	21	C9[13]CH11+
133.0639	999	C9H9O+
134.0675	91	C8[13]CH9O+
135.0796	137	C9H11O+
136.0828	16	C8[13]CH11O+
141.0688	105	C11H9+
142.0725	14	C10[13]CH9+
143.0736	5	C10H9N+
144.0557	247	C10H8O+
145.0608	33	C9[13]CH8O+
146.07	10	C10H10O+
147.0794	84	C10H11O+
148.0746	270	C9H10NO+
149.0579	11	C9H9O2+
149.0775	36	C8[13]CH10NO+
149.0937	7	C10H13O+
151.0741	42	C9H11O2+
153.0904	5	C9H13O2+
155.0586	11	C7H9NO3+
157.0651	14	C11H9O+
158.0704	9	C11H10O+
159.0791	293	C11H11O+
160.0834	37	C10[13]CH11O+
161.0947	12	C11H13O+
163.1102	15	C11H15O+
165.0898	65	C10H13O2+
166.0938	5	C9[13]CH13O2+
169.0753	27	C8H11NO3+
176.1064	15	C11H14NO+
177.0888	26	C11H13O2+
179.107	10	C11H15O2+
191.1054	34	C12H15O2+
268.1896	6	C15H26NO3+
