Mass spectrum: Valsartan; LC-ESI-QTOF; MS2; HILIC; CE: 40 eV; R=35000; [M+H]+
Name: Valsartan
Name: (2S)-3-methyl-2-[pentanoyl-[[4-[2-(2H-tetrazol-5-yl)phenyl]phenyl]methyl]amino]butanoic acid
Formula: C24H29N5O3
Exact mass: 435.2270398
SMILES: CCCCC(=O)N(CC1=CC=C(C=C1)C1=CC=CC=C1C1=NNN=N1)[C@@H](C(C)C)C(O)=O
InChI: InChI=1S/C24H29N5O3/c1-4-5-10-21(30)29(22(16(2)3)24(31)32)15-17-11-13-18(14-12-17)19-8-6-7-9-20(19)23-25-27-28-26-23/h6-9,11-14,16,22H,4-5,10,15H2,1-3H3,(H,31,32)(H,25,26,27,28)/t22-/m0/s1
Instrument: Bruker maXis Impact
Instrument type: LC-ESI-QTOF
Ms type: MS2
Ion mode: POSITIVE
Ionization: ESI
Fragmentation mode: CID
Collision energy: 40 eV
Resolution: 35000
Column name: ACQUITY UPLC BEH Amide 1.7 um 2.1x100mm, Waters
Retention time: 1.966 min
Base peak: 436.2373
Precursor m/z: 436.2343
Precursor type: [M+H]+
m/z	relative intensity	assigned
140.0498	10	C10H6N+
152.0624	9	C12H8+
153.0699	51	C12H9+
154.0734	7	C11[13]CH9+
163.0542	10	C13H7+
165.0698	10	C13H9+
167.0727	8	C12H9N+
178.0781	67	C14H10+
179.0834	21	C9H11N2O2+
180.0815	260	C13H10N+
181.0844	33	C12[13]CH10N+
190.0657	170	C14H8N+
191.0713	41	C13[13]CH8N+
192.0692	46	C13H8N2+
193.0721	7	C12[13]CH8N2+
193.0879	13	C14H11N+
194.0968	38	C14H12N+
195.081	6	C14H11O+
195.0988	7	C13[13]CH12N+
196.0764	7	C13H10NO+
205.0763	27	C14H9N2+
206.0846	121	C14H10N2+
207.0927	999	C14H11N2+
208.0764	77	C14H10NO+
208.0955	114	C13[13]CH11N2+
209.0803	13	C13[13]CH10NO+
210.0921	53	C14H12NO+
211.0961	8	C13[13]CH12NO+
235.098	144	C14H11N4+
236.1009	21	C13[13]CH11N4+
291.1508	111	C19H19N2O+
292.1537	21	C18[13]CH19N2O+
