Mass spectrum: Mefenamic acid; LC-ESI-QTOF; MS2; CE: Ramp 19.5-29.3 eV; R=35000; [M+H]+
Name: Mefenamic acid
Name: 2-(2,3-dimethylanilino)benzoic acid
Formula: C15H15NO2
Exact mass: 241.1102787
SMILES: CC1=C(C)C(NC2=CC=CC=C2C(O)=O)=CC=C1
InChI: InChI=1S/C15H15NO2/c1-10-6-5-9-13(11(10)2)16-14-8-4-3-7-12(14)15(17)18/h3-9,16H,1-2H3,(H,17,18)
Instrument: Bruker maXis Impact
Instrument type: LC-ESI-QTOF
Ms type: MS2
Ion mode: POSITIVE
Ionization: ESI
Fragmentation mode: CID
Collision energy: Ramp 19.5-29.3 eV
Resolution: 35000
Column name: Acclaim RSLC C18 2.2um, 2.1x100mm, Thermo
Retention time: 11.703 min
Base peak: 242.1176
Precursor m/z: 242.1176
Precursor type: [M+H]+
m/z	relative intensity	assigned
180.0796	27	C13H10N+
181.0864	11	C13H11N+
194.0955	13	C14H12N+
208.075	79	C14H10NO+
209.0829	280	C14H11NO+
210.0861	40	C13[13]CH11NO+
222.0909	57	C15H12NO+
223.0987	186	C15H13NO+
224.1068	999	C15H14NO+
225.1101	190	C14[13]CH14NO+
226.1127	15	C13[13]C2H14NO+
241.1096	17	C15H15NO2+
242.1159	12	C15H16NO2+
