Mass spectrum: Rifaximin; LC-ESI-QTOF; MS2; HILIC; CE: 20 eV; R=35000; [M+H]+
Name: Rifaximin
Formula: C43H51N3O11
Exact mass: 785.3523595
SMILES: C[C@H]1/C=C/C=C(\C(=O)NC2=C(C3=C(C4=C(C(=C3O)C)O[C@@](C4=O)(O/C=C/[C@@H]([C@H]([C@H]([C@@H]([C@@H]([C@@H]([C@H]1O)C)O)C)OC(=O)C)C)OC)C)C5=C2N6C=CC(=CC6=N5)C)O)/C
InChI: InChI=1S/C43H51N3O11/c1-19-14-16-46-28(18-19)44-32-29-30-37(50)25(7)40-31(29)41(52)43(9,57-40)55-17-15-27(54-10)22(4)39(56-26(8)47)24(6)36(49)23(5)35(48)20(2)12-11-13-21(3)42(53)45-33(34(32)46)38(30)51/h11-18,20,22-24,27,35-36,39,48-51H,1-10H3,(H,45,53)/b12-11+,17-15+,21-13-/t20-,22+,23+,24+,27-,35-,36+,39+,43-/m0/s1
Instrument: Bruker maXis Impact
Instrument type: LC-ESI-QTOF
Ms type: MS2
Ion mode: POSITIVE
Ionization: ESI
Fragmentation mode: CID
Collision energy: 20 eV
Resolution: 35000
Column name: ACQUITY UPLC BEH Amide 1.7 um 2.1x100 mm, Waters
Retention time: 1.616 min
Base peak: 808.3419
Precursor m/z: 786.3596
Precursor type: [M+H]+
m/z	relative intensity	assigned
123.0791	5	C6H9N3+
151.0747	15	C7H9N3O+
163.1115	6	C11H15O+
179.109	6	C2H17N3O6+
209.1161	6	C10H15N3O2+
362.1129	10	C20H16N3O4+
754.3371	222	C42H48N3O10+
755.3379	104	C42H49N3O10+
756.3418	29	C41[13]CH49N3O10+
784.3359	7	C43H50N3O11+
785.3458	8	C43H51N3O11+
785.3611	7	C43H51N3O11+
786.362	999	C43H52N3O11+
787.3673	455	C42[13]CH52N3O11+
788.3706	136	C41[13]C2H52N3O11+
