Mass spectrum: Imidocarb; LC-ESI-QTOF; MS2; HILIC; CE: 40 eV; R=35000; [M+H]+
Name: Imidocarb
Name: 1,3-bis[3-(4,5-dihydro-1H-imidazol-2-yl)phenyl]urea
Formula: C19H20N6O
Exact mass: 348.1698593
SMILES: c1cc(cc(c1)NC(=O)Nc2cccc(c2)C3=NCCN3)C4=NCCN4
InChI: InChI=1S/C19H20N6O/c26-19(24-15-5-1-3-13(11-15)17-20-7-8-21-17)25-16-6-2-4-14(12-16)18-22-9-10-23-18/h1-6,11-12H,7-10H2,(H,20,21)(H,22,23)(H2,24,25,26)
Instrument: Bruker maXis Impact
Instrument type: LC-ESI-QTOF
Ms type: MS2
Ion mode: POSITIVE
Ionization: ESI
Fragmentation mode: CID
Collision energy: 40 eV
Resolution: 35000
Column name: ACQUITY UPLC BEH Amide 1.7 um 2.1x100mm, Waters
Retention time: 6.631 min
Base peak: 175.0922
Precursor m/z: 349.1771
Precursor type: [M+H]+
m/z	relative intensity	assigned
145.0391	30	C8H5N2O+
159.0583	9	C9H7N2O+
162.1028	302	C9H12N3+
163.1054	38	C8[13]CH12N3+
188.0822	999	C10H10N3O+
189.0851	143	C9[13]CH10N3O+
217.0019	8	C18H+
232.0257	30	C12H2N5O+
248.0198	9	C17H2N3+
260.0206	43	C18H2N3+
276.0147	26	C16N6+
277.0211	15	C16HN6+
304.011	35	C17N6O+
306.1357	15	C17H16N5O+
