Mass spectrum: Propranolol; LC-ESI-QTOF; MS2; CE: 20 eV; R=35000; [M+H]+
Name: Propranolol
Name: 1-naphthalen-1-yloxy-3-(propan-2-ylamino)propan-2-ol
Formula: C16H21NO2
Exact mass: 259.1572289
SMILES: CC(C)NCC(O)COC1=C2C=CC=CC2=CC=C1
InChI: InChI=1S/C16H21NO2/c1-12(2)17-10-14(18)11-19-16-9-5-7-13-6-3-4-8-15(13)16/h3-9,12,14,17-18H,10-11H2,1-2H3
Instrument: Bruker maXis Impact
Instrument type: LC-ESI-QTOF
Ms type: MS2
Ion mode: POSITIVE
Ionization: ESI
Fragmentation mode: CID
Collision energy: 20 eV
Resolution: 35000
Column name: Acclaim RSLC C18 2.2um, 2.1x100mm, Thermo
Retention time: 6.343 min
Base peak: 325.1714
Precursor m/z: 260.1645
Precursor type: [M+H]+
m/z	relative intensity	assigned
116.1064	52	C6H14NO+
117.1095	5	C5[13]CH14NO+
129.0688	10	C10H9+
141.0687	11	C11H9+
145.0636	11	C10H9O+
153.0686	6	C12H9+
155.0844	42	C12H11+
156.0875	5	C11[13]CH11+
157.0637	106	C11H9O+
158.0673	11	C10[13]CH9O+
165.0686	14	C13H9+
183.0794	267	C13H11O+
184.0825	32	C12[13]CH11O+
218.1168	52	C13H16NO2+
219.1204	7	C12[13]CH16NO2+
242.153	6	C16H20NO+
260.164	999	C16H22NO2+
261.1672	125	C15[13]CH22NO2+
262.1701	10	C14[13]C2H22NO2+
