Mass spectrum: Rifaximin; LC-ESI-QTOF; MS2; HILIC; CE: 50 eV; R=35000; [M+H]+
Name: Rifaximin
Formula: C43H51N3O11
Exact mass: 785.3523595
SMILES: C[C@H]1/C=C/C=C(\C(=O)NC2=C(C3=C(C4=C(C(=C3O)C)O[C@@](C4=O)(O/C=C/[C@@H]([C@H]([C@H]([C@@H]([C@@H]([C@@H]([C@H]1O)C)O)C)OC(=O)C)C)OC)C)C5=C2N6C=CC(=CC6=N5)C)O)/C
InChI: InChI=1S/C43H51N3O11/c1-19-14-16-46-28(18-19)44-32-29-30-37(50)25(7)40-31(29)41(52)43(9,57-40)55-17-15-27(54-10)22(4)39(56-26(8)47)24(6)36(49)23(5)35(48)20(2)12-11-13-21(3)42(53)45-33(34(32)46)38(30)51/h11-18,20,22-24,27,35-36,39,48-51H,1-10H3,(H,45,53)/b12-11+,17-15+,21-13-/t20-,22+,23+,24+,27-,35-,36+,39+,43-/m0/s1
Instrument: Bruker maXis Impact
Instrument type: LC-ESI-QTOF
Ms type: MS2
Ion mode: POSITIVE
Ionization: ESI
Fragmentation mode: CID
Collision energy: 50 eV
Resolution: 35000
Column name: ACQUITY UPLC BEH Amide 1.7 um 2.1x100mm, Water
Retention time: 1.616 min
Base peak: 284.1711
Precursor m/z: 786.3596
Precursor type: [M+H]+
m/z	relative intensity	assigned
109.0669	12	C7H9O+
115.0533	18	C9H7+
117.0689	15	C9H9+
119.0867	62	C9H11+
121.0651	58	C8H9O+
121.1009	103	C9H13+
122.1045	14	C4H14N2O2+
123.0803	309	C8H11O+
123.1176	22	C9H15+
124.0842	30	C7[13]CH11O+
125.0577	11	C5H7N3O+
125.0963	81	C8H13O+
130.0773	23	C10H10+
131.0864	22	C10H11+
133.0641	24	C7H7N3+
133.0843	14	C4H11N3O2+
133.1009	115	C10H13+
134.1055	25	C5H14N2O2+
135.0802	244	C9H11O+
135.1163	133	C10H15+
136.0836	24	C8[13]CH11O+
137.0597	21	C8H9O2+
137.0957	96	C9H13O+
137.1323	31	C10H17+
138.0997	20	C4H14N2O3+
138.137	13	C5H18N2O2+
139.0765	43	C8H11O2+
139.1114	18	C9H15O+
141.0914	17	C8H13O2+
142.0795	12	C11H10+
143.0853	39	C11H11+
144.0931	11	C11H12+
145.0638	13	C8H7N3+
145.1011	172	C11H13+
146.1052	33	C6H14N2O2+
147.0796	25	C8H9N3+
147.1164	212	C11H15+
148.0871	16	C8H10N3+
148.1201	25	C10[13]CH15+
149.0591	29	C9H9O2+
149.0955	37	C10H13O+
149.132	20	C11H17+
151.0752	999	C9H11O2+
152.0786	107	C8[13]CH11O2+
152.117	19	C8H14N3+
153.0906	243	C9H13O2+
154.0934	23	C8[13]CH13O2+
155.1063	27	C9H15O2+
157.0999	57	C12H13+
159.08	24	C11H11O+
159.1163	116	C12H15+
160.12	18	C7H16N2O2+
161.0962	242	C11H13O+
161.1321	29	C12H17+
162.1001	27	C10[13]CH13O+
162.1331	11	C4H20NO5+
163.1114	816	C11H15O+
164.1151	96	C10[13]CH15O+
165.0911	14	C10H13O2+
165.1276	104	C11H17O+
166.1313	22	C6H18N2O3+
170.1082	16	C13H14+
171.1166	42	C13H15+
172.1253	12	C13H16+
173.0958	156	C12H13O+
173.1325	98	C13H17+
174.1006	35	C7H14N2O3+
174.136	27	C8H18N2O2+
175.0743	14	C9H9N3O+
175.1113	213	C12H15O+
175.1489	36	C13H19+
176.1164	23	C11[13]CH15O+
177.0901	77	C9H11N3O+
177.1278	46	C12H17O+
178.095	14	C6H14N2O4+
179.1065	188	C11H15O2+
180.1098	25	C10[13]CH15O2+
181.1035	12	C2H17N2O7+
181.122	36	C11H17O2+
182.1234	11	C3H20NO7+
183.1174	27	C14H15+
183.1379	13	C11H19O2+
185.0976	14	CH17N2O8+
185.1319	77	C14H17+
186.1045	12	C13H14O+
187.1116	19	C13H15O+
187.1485	21	C14H19+
188.1563	12	C14H20+
189.093	22	H17N2O9+
189.1275	35	C13H17O+
191.1062	333	C12H15O2+
191.1425	18	C13H19O+
192.1097	65	C11[13]CH15O2+
193.1215	105	C10H15N3O+
195.117	15	C15H15+
197.1307	18	H23NO10+
198.1417	20	C3H22N2O7+
199.1112	20	C14H15O+
199.1474	35	H25NO10+
201.1273	97	C14H17O+
201.1617	13	H27NO10+
202.1284	15	C6H20NO6+
203.1065	15	C13H15O2+
203.1426	83	C14H19O+
205.1202	16	C11H15N3O+
209.0951	12	H19NO11+
209.1173	67	C12H17O3+
211.1097	11	C13H13N3+
211.1359	28	C15H17N+
211.1483	23	C16H19+
213.1278	70	C15H17O+
213.1661	11	C4H25N2O7+
214.1298	11	C7H20NO6+
215.1416	22	C13H17N3+
217.1213	26	C12H15N3O+
219.1372	66	C12H17N3O+
221.1543	16	C14H21O2+
223.1121	11	C16H15O+
223.1459	15	C2H25NO10+
225.1644	21	C17H21+
227.1445	17	C4H23N2O8+
231.1383	111	C15H19O2+
232.1398	17	C7H22NO7+
237.1274	15	C17H17O+
238.134	11	C15H16N3+
239.1435	23	C17H19O+
241.1598	13	C5H25N2O8+
241.193	15	C3H31NO10+
243.1726	13	C15H21N3+
249.148	20	C15H21O3+
251.1788	21	C4H29NO10+
253.1589	20	C18H21O+
255.1723	12	C16H21N3+
269.1891	25	C4H31NO11+
271.1678	16	C16H21N3O+
279.1756	41	C8H27N2O8+
280.1766	12	C12H26NO6+
289.1822	11	C21H23N+
297.185	60	C20H25O2+
298.1914	16	C18H24N3O+
315.1975	46	C8H31N2O10+
316.2012	16	C18H26N3O2+
347.1025	81	C20H15N2O4+
348.1058	42	C14H20O10+
357.2072	13	C10H33N2O11+
360.0998	14	C22H16O5+
361.1046	84	C20H15N3O4+
362.1145	377	C22H18O5+
363.1175	123	C29H15+
364.1237	11	C28[13]CH15+
456.1588	13	C31H22NO3+
465.1703	21	C30H25O5+
466.1778	46	C30H26O5+
467.1823	21	C25H27N2O7+
495.1801	28	C31H27O6+
496.1854	23	C29H26N3O5+
497.196	13	C31H29O6+
512.1805	14	C29H26N3O6+
676.3051	26	C42H44O8+
708.3255	12	C38H48N2O11+
736.3247	48	C42H46N3O9+
737.3296	33	C41[13]CH46N3O9+
754.3352	36	C42H48N3O10+
755.3332	12	C43H49NO11+
768.3605	20	C43H50N3O10+
769.3598	15	C43H51N3O10+
