Mass spectrum: Rifaximin; LC-ESI-QTOF; MS2; HILIC; CE: 30 eV; R=35000; [M+H]+
Name: Rifaximin
Formula: C43H51N3O11
Exact mass: 785.3523595
SMILES: C[C@H]1/C=C/C=C(\C(=O)NC2=C(C3=C(C4=C(C(=C3O)C)O[C@@](C4=O)(O/C=C/[C@@H]([C@H]([C@H]([C@@H]([C@@H]([C@@H]([C@H]1O)C)O)C)OC(=O)C)C)OC)C)C5=C2N6C=CC(=CC6=N5)C)O)/C
InChI: InChI=1S/C43H51N3O11/c1-19-14-16-46-28(18-19)44-32-29-30-37(50)25(7)40-31(29)41(52)43(9,57-40)55-17-15-27(54-10)22(4)39(56-26(8)47)24(6)36(49)23(5)35(48)20(2)12-11-13-21(3)42(53)45-33(34(32)46)38(30)51/h11-18,20,22-24,27,35-36,39,48-51H,1-10H3,(H,45,53)/b12-11+,17-15+,21-13-/t20-,22+,23+,24+,27-,35-,36+,39+,43-/m0/s1
Instrument: Bruker maXis Impact
Instrument type: LC-ESI-QTOF
Ms type: MS2
Ion mode: POSITIVE
Ionization: ESI
Fragmentation mode: CID
Collision energy: 30 eV
Resolution: 35000
Column name: ACQUITY UPLC BEH Amide 1.7 um 2.1x100 mm, Waters
Retention time: 1.616 min
Base peak: 284.1708
Precursor m/z: 786.3596
Precursor type: [M+H]+
m/z	relative intensity	assigned
121.0643	10	C8H9O+
121.1012	25	C9H13+
123.0809	52	C8H11O+
125.0973	17	C8H13O+
133.1013	22	C10H13+
135.0806	24	C9H11O+
135.1164	15	C10H15+
137.0598	10	C8H9O2+
137.0953	48	C7H11N3+
137.1348	10	CH19N3O4+
139.0749	26	C8H11O2+
139.1112	9	C9H15O+
141.0901	9	C6H11N3O+
145.1017	27	C11H13+
147.1159	40	C11H15+
149.1313	10	C11H17+
151.075	319	C9H11O2+
152.0789	24	C8[13]CH11O2+
153.09	53	C7H11N3O+
155.1071	18	C9H15O2+
159.1159	25	C12H15+
160.1217	10	C7H16N2O2+
161.0962	52	C11H13O+
163.1116	168	C11H15O+
164.1154	19	C10[13]CH15O+
165.128	34	C11H17O+
173.0951	40	C10H11N3+
173.1328	24	C13H17+
175.1117	61	C12H15O+
175.1461	9	C8H19N2O2+
176.1168	10	C7H16N2O3+
177.0912	20	C11H13O2+
177.1271	21	C12H17O+
179.1064	156	C11H15O2+
180.1091	21	C10[13]CH15O2+
181.1218	26	C11H17O2+
183.1404	17	C2H21N3O6+
185.132	13	C14H17+
189.0927	13	H17N2O9+
191.1063	121	C12H15O2+
192.1102	14	C7H16N2O4+
193.1215	41	C10H15N3O+
194.1276	14	C10H16N3O+
195.1377	12	C12H19O2+
199.112	10	C14H15O+
199.1495	15	C3H23N2O7+
201.1296	27	C2H21N2O8+
203.1427	19	C14H19O+
205.1226	9	C13H17O2+
209.1178	108	C12H17O3+
210.1184	16	C4H20NO8+
211.1368	11	C3H21N3O7+
213.1286	10	C3H21N2O8+
217.1209	13	C12H15N3O+
219.1377	51	C14H19O2+
220.1409	13	C9H20N2O4+
221.1529	13	C12H19N3O+
227.1419	10	C14H17N3+
231.1392	28	C3H23N2O9+
237.1482	15	C14H21O3+
249.1476	11	C13H19N3O2+
251.182	13	C7H27N2O7+
255.1363	9	C15H17N3O+
261.1651	12	C8H25N2O7+
269.1893	24	C4H31NO11+
270.1955	8	C17H24N3+
271.1693	16	C18H23O2+
272.1723	11	C13H24N2O4+
277.1776	11	C15H23N3O2+
279.1749	28	C20H23O+
287.2041	18	C10H29N3O6+
289.1819	19	C6H29N2O10+
297.1861	111	C8H29N2O9+
315.1946	95	C18H25N3O2+
316.2004	22	C17[13]CH25N3O2+
333.2072	40	C8H33N2O11+
334.2099	11	C15H30N2O6+
347.1038	33	C20H15N2O4+
361.1104	12	C25H15NO2+
362.1146	171	C22H18O5+
363.1146	42	C21[13]CH18O5+
375.2206	20	C13H33N3O9+
676.3077	9	C38H46NO10+
694.3206	27	C38H48NO11+
695.318	13	C37H47N2O11+
736.3193	24	C42H46N3O9+
737.3385	14	C43H49N2O9+
754.3372	999	C42H48N3O10+
755.3408	538	C42H49N3O10+
756.3429	113	C41[13]CH49N3O10+
768.3574	23	C43H50N3O10+
769.3634	14	C43H51N3O10+
784.3496	11	C43H50N3O11+
786.364	385	C43H52N3O11+
787.3629	209	C42[13]CH52N3O11+
788.3714	53	C41[13]C2H52N3O11+
