Mass spectrum: Ketoprofen; LC-ESI-QTOF; MS2; CE: Ramp 20.0-30.0 eV; R=35000; [M+H]+
Name: Ketoprofen
Name: 2-(3-benzoylphenyl)propanoic acid
Formula: C16H14O3
Exact mass: 254.0942943
SMILES: CC(C(O)=O)C1=CC=CC(=C1)C(=O)C1=CC=CC=C1
InChI: InChI=1S/C16H14O3/c1-11(16(18)19)13-8-5-9-14(10-13)15(17)12-6-3-2-4-7-12/h2-11H,1H3,(H,18,19)
Instrument: Bruker maXis Impact
Instrument type: LC-ESI-QTOF
Ms type: MS2
Ion mode: POSITIVE
Ionization: ESI
Fragmentation mode: CID
Collision energy: Ramp 20.0-30.0 eV
Resolution: 35000
Column name: Acclaim RSLC C18 2.2um, 2.1x100mm, Thermo
Retention time: 8.641 min
Base peak: 255.1012
Precursor m/z: 255.1016
Precursor type: [M+H]+
m/z	relative intensity	assigned
105.0344	92	C7H5O+
106.0364	8	C6[13]CH5O+
121.0636	11	C8H9O+
131.0494	54	C9H7O+
132.0516	6	C8[13]CH7O+
149.0587	7	C9H9O2+
165.0695	5	C13H9+
166.0767	7	C13H10+
177.0545	266	C10H9O3+
178.0575	29	C9[13]CH9O3+
181.1009	9	C14H13+
191.0871	11	C15H11+
194.0728	119	C14H10O+
195.0752	21	C13[13]CH10O+
209.0966	999	C15H13O+
210.1	146	C14[13]CH13O+
211.1034	12	C13[13]C2H13O+
213.0383	6	C16H5O+
255.1019	55	C16H15O3+
256.1084	10	C15[13]CH15O3+
