Mass spectrum: Diclofenac; LC-ESI-QTOF; MS2; CE: Ramp 21.5-32.2 eV; R=35000; [M+H]+
Name: Diclofenac
Name: 2-[2-(2,6-dichloroanilino)phenyl]acetic acid
Formula: C14H11Cl2NO2
Exact mass: 295.0166840
SMILES: OC(=O)CC1=C(NC2=C(Cl)C=CC=C2Cl)C=CC=C1
InChI: InChI=1S/C14H11Cl2NO2/c15-10-5-3-6-11(16)14(10)17-12-7-2-1-4-9(12)8-13(18)19/h1-7,17H,8H2,(H,18,19)
Instrument: Bruker maXis Impact
Instrument type: LC-ESI-QTOF
Ms type: MS2
Ion mode: POSITIVE
Ionization: ESI
Fragmentation mode: CID
Collision energy: Ramp 19.3-29.0 eV
Resolution: 35000
Column name: Acclaim RSLC C18 2.2um, 2.1x100mm, Thermo
Retention time: 10.508 min
Base peak: 515.2445
Precursor m/z: 296.024
Precursor type: [M+H]+
m/z	relative intensity	assigned
180.0795	18	C13H10N+
214.0414	681	C13H9ClN+
215.0489	999	C13H10ClN+
216.0396	140	C13H9[37]ClN+
216.0502	128	C12[13]CH10ClN+
217.0461	212	C13H10[37]ClN+
218.0494	25	C13H11ClO+
242.0376	10	C14H9ClNO+
250.0181	114	C13H10Cl2N+
251.0204	22	C12[13]CH10Cl2N+
252.0149	77	C13H10Cl[37]ClN+
253.0159	5	C13H11Cl2O+
278.0158	6	C14H10Cl2NO+
