Mass spectrum: Valsartan; LC-ESI-QTOF; MS2; HILIC; CE: 30 eV; R=35000; [M+H]+
Name: Valsartan
Name: (2S)-3-methyl-2-[pentanoyl-[[4-[2-(2H-tetrazol-5-yl)phenyl]phenyl]methyl]amino]butanoic acid
Formula: C24H29N5O3
Exact mass: 435.2270398
SMILES: CCCCC(=O)N(CC1=CC=C(C=C1)C1=CC=CC=C1C1=NNN=N1)[C@@H](C(C)C)C(O)=O
InChI: InChI=1S/C24H29N5O3/c1-4-5-10-21(30)29(22(16(2)3)24(31)32)15-17-11-13-18(14-12-17)19-8-6-7-9-20(19)23-25-27-28-26-23/h6-9,11-14,16,22H,4-5,10,15H2,1-3H3,(H,31,32)(H,25,26,27,28)/t22-/m0/s1
Instrument: Bruker maXis Impact
Instrument type: LC-ESI-QTOF
Ms type: MS2
Ion mode: POSITIVE
Ionization: ESI
Fragmentation mode: CID
Collision energy: 30 eV
Resolution: 35000
Column name: ACQUITY UPLC BEH Amide 1.7 um 2.1x100 mm, Waters
Retention time: 1.967 min
Base peak: 436.2366
Precursor m/z: 436.2343
Precursor type: [M+H]+
m/z	relative intensity	assigned
153.0699	12	C12H9+
178.0778	26	C14H10+
179.0848	12	C14H11+
180.0812	98	C13H10N+
181.0843	11	C12[13]CH10N+
190.0653	67	C14H8N+
191.0709	14	C13[13]CH8N+
192.0701	15	C13H8N2+
194.0968	38	C14H12N+
195.0991	6	C13[13]CH12N+
205.0758	7	C14H9N2+
206.0841	44	C14H10N2+
207.0925	999	C14H11N2+
208.0757	21	C14H10NO+
208.0957	118	C13[13]CH11N2+
210.0918	39	C14H12NO+
211.0942	6	C13[13]CH12NO+
235.0987	573	C16H13NO+
236.1018	87	C11H14N3O3+
237.1037	5	C10[13]CH14N3O3+
291.1507	413	C19H19N2O+
292.1535	83	C14H20N4O3+
293.1567	9	C13[13]CH20N4O3+
306.1726	86	C20H22N2O+
307.1756	14	C19[13]CH22N2O+
352.1784	10	C21H24N2O3+
362.2252	7	C23H28N3O+
