Mass spectrum: Atorvastatin; LC-ESI-QTOF; MS2; HILIC; CE: 30 eV; R=35000; [M+H]+
Name: Atorvastatin
Name: atorvastatin
Name: (3R,5R)-7-[2-(4-fluorophenyl)-3-phenyl-4-(phenylcarbamoyl)-5-propan-2-ylpyrrol-1-yl]-3,5-dihydroxyheptanoic acid
Formula: C33H35FN2O5
Exact mass: 558.2530004
SMILES: CC(C)c1c(c(c(n1CC[C@H](C[C@H](CC(=O)O)O)O)c2ccc(cc2)F)c3ccccc3)/C(=N/c4ccccc4)/O
InChI: InChI=1S/C33H35FN2O5/c1-21(2)31-30(33(41)35-25-11-7-4-8-12-25)29(22-9-5-3-6-10-22)32(23-13-15-24(34)16-14-23)36(31)18-17-26(37)19-27(38)20-28(39)40/h3-16,21,26-27,37-38H,17-20H2,1-2H3,(H,35,41)(H,39,40)/t26-,27-/m1/s1
Instrument: Bruker maXis Impact
Instrument type: LC-ESI-QTOF
Ms type: MS2
Ion mode: POSITIVE
Ionization: ESI
Fragmentation mode: CID
Collision energy: 30 eV
Resolution: 35000
Column name: ACQUITY UPLC BEH Amide 1.7 um 2.1x100 mm, Waters
Retention time: 1.816 min
Base peak: 375.2161
Precursor m/z: 559.2603
Precursor type: [M+H]+
m/z	relative intensity	assigned
133.0842	8	C6H13O3+
250.1018	26	C17H13FN+
276.1177	6	C19H15FN+
280.1487	5	C19H19FN+
292.1484	66	C20H19FN+
293.1526	14	C19[13]CH19FN+
294.1636	15	C17H23FO3+
336.1364	6	C18H21FO5+
362.1552	12	C23H21FNO2+
380.1638	28	C26H22NO2+
380.202	5	C24H27FNO2+
381.1677	8	C25[13]CH22NO2+
398.1756	14	C26H24NO3+
404.2011	13	C29H26NO+
406.1427	5	C27H20NO3+
422.2118	83	C29H28NO2+
423.2156	22	C26H31O5+
424.1536	10	C27H22NO4+
424.215	5	C25[13]CH31O5+
430.1802	13	C30H24NO2+
438.2073	5	C26H29FNO4+
440.2233	999	C26H31FNO4+
441.2269	289	C29H31NO3+
442.2283	43	C28[13]CH31NO3+
448.1913	15	C30H26NO3+
466.2016	79	C30H28NO4+
467.2038	23	C29[13]CH28NO4+
517.211	6	C33H29N2O4+
559.2586	44	C33H36FN2O5+
560.2638	14	C32[13]CH36FN2O5+
