Mass spectrum: Colchicine; LC-ESI-QTOF; MS2; HILIC; CE: 30 eV; R=35000; [M+H]+
Name: Colchicine
Name: N-[(7S)-1,2,3,10-tetramethoxy-9-oxo-6,7-dihydro-5H-benzo[a]heptalen-7-yl]acetamide
Formula: C22H25NO6
Exact mass: 399.1681875
SMILES: C/C(=N\[C@H]1CCc2cc(c(c(c2-c3c1cc(=O)c(cc3)OC)OC)OC)OC)/O
InChI: InChI=1S/C22H25NO6/c1-12(24)23-16-8-6-13-10-19(27-3)21(28-4)22(29-5)20(13)14-7-9-18(26-2)17(25)11-15(14)16/h7,9-11,16H,6,8H2,1-5H3,(H,23,24)/t16-/m0/s1
Instrument: Bruker maXis Impact
Instrument type: LC-ESI-QTOF
Ms type: MS2
Ion mode: POSITIVE
Ionization: ESI
Fragmentation mode: CID
Collision energy: 30 eV
Resolution: 35000
Column name: ACQUITY UPLC BEH Amide 1.7 um 2.1x100 mm, Waters
Retention time: 2.017 min
Base peak: 400.1765
Precursor m/z: 400.1755
Precursor type: [M+H]+
m/z	relative intensity	assigned
137.0594	8	C8H9O2+
152.0697	5	C8H10NO2+
181.0853	18	C10H13O3+
203.0935	7	C12H13NO2+
205.085	6	C12H13O3+
207.1014	9	C12H15O3+
219.0903	5	C12H13NO3+
219.0983	6	C13H15O3+
220.0969	5	C12H14NO3+
222.1115	5	C12H16NO3+
234.1122	46	C13H16NO3+
235.1162	7	C12[13]CH16NO3+
239.1062	8	C16H15O2+
242.0936	7	C15H14O3+
245.1046	5	C14H15NO3+
249.0914	9	C17H13O2+
250.0978	12	C17H14O2+
251.1058	10	C17H15O2+
252.1123	9	C17H16O2+
253.084	5	C16H13O3+
253.1207	5	C17H17O2+
254.0917	5	C16H14O3+
255.1004	8	C16H15O3+
256.1071	6	C16H16O3+
257.1166	7	C16H17O3+
265.0845	7	C17H13O3+
266.0923	15	C17H14O3+
266.1157	6	C14H18O5+
267.1011	38	C17H15O3+
268.1074	20	C17H16O3+
269.0806	5	C16H13O4+
269.1147	6	C16[13]CH16O3+
270.0875	12	C16H14O4+
270.1243	12	C17H18O3+
271.0953	6	C16H15O4+
272.1012	5	C16H16O4+
273.111	10	C16H17O4+
277.0855	16	C18H13O3+
278.0929	45	C18H14O3+
279.0648	7	C17H11O4+
279.0993	22	C18H15O3+
280.1048	10	C18H16O3+
281.1171	60	C18H17O3+
282.1247	243	C18H18O3+
283.0962	29	C17H15O4+
283.1282	47	C17[13]CH18O3+
284.1029	20	C17H16O4+
284.1295	11	C17H18NO3+
285.1118	97	C17H17O4+
286.1161	31	C17H18O4+
287.0911	8	C16H15O5+
287.1226	7	C16[13]CH18O4+
292.1065	10	C19H16O3+
293.0805	5	C18H13O4+
293.1048	8	C18H15NO3+
294.0883	29	C18H14O4+
294.1117	21	C18H16NO3+
295.0959	57	C18H15O4+
295.1188	41	C15H19O6+
296.0967	18	C17[13]CH15O4+
296.1249	14	C15H20O6+
297.1101	13	C18H17O4+
297.1348	15	C18H19NO3+
298.0833	10	C17H14O5+
298.1194	70	C18H18O4+
298.1431	50	C18H20NO3+
299.0897	5	C17H15O5+
299.1251	40	C18H19O4+
300.0985	7	C17H16O5+
300.1283	20	C17H18NO4+
301.1071	10	C17H17O5+
301.1324	10	C17H19NO4+
302.1142	25	C17H18O5+
303.1187	5	C16[13]CH18O5+
307.1193	6	C19H17NO3+
308.1038	10	C19H16O4+
308.127	20	C19H18NO3+
309.1122	100	C19H17O4+
310.1197	366	C19H18O4+
311.0912	43	C18H15O5+
311.1214	90	C18H17NO4+
312.0955	11	C17[13]CH15O5+
312.1236	22	C17[13]CH17NO4+
313.1068	44	C18H17O5+
313.1438	107	C19H21O4+
314.1102	13	C17[13]CH17O5+
314.1448	27	C18H20NO4+
315.1212	12	C18H19O5+
315.1471	8	C17[13]CH20NO4+
316.1541	38	C18H22NO4+
317.1563	8	C17[13]CH22NO4+
323.1265	12	C20H19O4+
323.1506	8	C20H21NO3+
324.1232	24	C19H18NO4+
325.109	6	C22H15NO2+
325.13	31	C19H19NO4+
326.1146	128	C19H18O5+
326.1383	181	C19H20NO4+
327.1192	32	C18[13]CH18O5+
327.1428	55	C19H21NO4+
328.1187	39	C18H18NO5+
328.1462	6	C18[13]CH21NO4+
329.1284	21	C18H19NO5+
330.1338	24	C18H20NO5+
330.1699	13	C19H24NO4+
336.124	5	C20H18NO4+
338.1384	5	C20H20NO4+
339.1461	30	C20H21NO4+
340.1544	94	C20H22NO4+
341.1387	242	C20H21O5+
342.1393	73	C19[13]CH21O5+
343.1412	47	C19H21NO5+
344.1445	9	C18[13]CH21NO5+
350.138	12	C21H20NO4+
351.1464	7	C21H21NO4+
352.1182	15	C20H18NO5+
353.1239	5	C19[13]CH18NO5+
354.1701	17	C21H24NO4+
357.157	14	C20H23NO5+
358.1656	588	C20H24NO5+
359.1685	106	C19[13]CH24NO5+
360.1706	12	C19[13]CH25NO5+
367.1411	37	C21H21NO5+
368.1485	34	C21H22NO5+
369.1518	8	C20[13]CH22NO5+
382.165	122	C22H24NO5+
383.1677	32	C21[13]CH24NO5+
400.1765	999	C22H26NO6+
401.1795	199	C21[13]CH26NO6+
402.1816	25	C20[13]C2H26NO6+
