Mass spectrum: Valsartan; LC-ESI-QTOF; MS2; HILIC; CE: 20 eV; R=35000; [M+H]+
Name: Valsartan
Name: (2S)-3-methyl-2-[pentanoyl-[[4-[2-(2H-tetrazol-5-yl)phenyl]phenyl]methyl]amino]butanoic acid
Formula: C24H29N5O3
Exact mass: 435.2270398
SMILES: CCCCC(=O)N(CC1=CC=C(C=C1)C1=CC=CC=C1C1=NNN=N1)[C@@H](C(C)C)C(O)=O
InChI: InChI=1S/C24H29N5O3/c1-4-5-10-21(30)29(22(16(2)3)24(31)32)15-17-11-13-18(14-12-17)19-8-6-7-9-20(19)23-25-27-28-26-23/h6-9,11-14,16,22H,4-5,10,15H2,1-3H3,(H,31,32)(H,25,26,27,28)/t22-/m0/s1
Instrument: Bruker maXis Impact
Instrument type: LC-ESI-QTOF
Ms type: MS2
Ion mode: POSITIVE
Ionization: ESI
Fragmentation mode: CID
Collision energy: 20 eV
Resolution: 35000
Column name: ACQUITY UPLC BEH Amide 1.7 um 2.1x100 mm, Waters
Retention time: 1.930 min
Base peak: 436.2369
Precursor m/z: 436.2343
Precursor type: [M+H]+
m/z	relative intensity	assigned
178.0779	5	C14H10+
180.0812	17	C13H10N+
190.0653	12	C14H8N+
194.0972	9	C14H12N+
206.0841	7	C14H10N2+
207.0921	317	C14H11N2+
208.0955	45	C13[13]CH11N2+
210.0924	5	C14H12NO+
235.0987	999	C16H13NO+
236.1017	129	C11H14N3O3+
237.1035	8	C10[13]CH14N3O3+
291.1506	874	C19H19N2O+
292.1534	144	C14H20N4O3+
293.1576	14	C13[13]CH20N4O3+
306.1728	373	C20H22N2O+
307.1756	72	C15H23N4O3+
308.1781	5	C14[13]CH23N4O3+
352.1781	173	C21H24N2O3+
353.1809	40	C20[13]CH24N2O3+
362.2239	117	C23H28N3O+
363.2273	29	C22[13]CH28N3O+
408.2308	18	C24H30N3O3+
409.233	5	C23[13]CH30N3O3+
418.2254	58	C24H28N5O2+
419.2282	14	C23[13]CH28N5O2+
