Mass spectrum: Methimazole; LC-ESI-QTOF; MS2; HILIC; CE: 30 eV; R=35000; [M+H]+
Name: Methimazole
Name: 3-methyl-1H-imidazole-2-thione
Formula: C4H6N2S
Exact mass: 114.0251692
SMILES: Cn1ccnc1S
InChI: InChI=1S/C4H6N2S/c1-6-3-2-5-4(6)7/h2-3H,1H3,(H,5,7)
Instrument: Bruker maXis Impact
Instrument type: LC-ESI-QTOF
Ms type: MS2
Ion mode: POSITIVE
Ionization: ESI
Fragmentation mode: CID
Collision energy: 30 eV
Resolution: 35000
Column name: ACQUITY UPLC BEH Amide 1.7 um 2.1x100 mm, Waters
Retention time: 1.817 min
Base peak: 115.0326
Precursor m/z: 115.0324
Precursor type: [M+H]+
m/z	relative intensity	assigned
115.0325	999	C4H7N2S+
