Mass spectrum: Propranolol; LC-ESI-QTOF; MS2; CE: 10 eV; R=35000; [M+H]+
Name: Propranolol
Name: 1-naphthalen-1-yloxy-3-(propan-2-ylamino)propan-2-ol
Formula: C16H21NO2
Exact mass: 259.1572289
SMILES: CC(C)NCC(O)COC1=C2C=CC=CC2=CC=C1
InChI: InChI=1S/C16H21NO2/c1-12(2)17-10-14(18)11-19-16-9-5-7-13-6-3-4-8-15(13)16/h3-9,12,14,17-18H,10-11H2,1-2H3
Instrument: Bruker maXis Impact
Instrument type: LC-ESI-QTOF
Ms type: MS2
Ion mode: POSITIVE
Ionization: ESI
Fragmentation mode: CID
Collision energy: 10 eV
Resolution: 35000
Column name: Acclaim RSLC C18 2.2um, 2.1x100mm, Thermo
Retention time: 6.335 min
Base peak: 325.1714
Precursor m/z: 260.1645
Precursor type: [M+H]+
m/z	relative intensity	assigned
183.0788	7	C13H11O+
260.1642	999	C16H22NO2+
261.1672	210	C15[13]CH22NO2+
262.1701	16	C14[13]C2H22NO2+
