Mass spectrum: Indapamide; LC-ESI-QTOF; MS2; CE: 10 eV; R=35000; [M+H]+
Name: Indapamide
Name: 4-chloro-N-(2-methyl-2,3-dihydroindol-1-yl)-3-sulfamoylbenzamide
Formula: C16H16ClN3O3S
Exact mass: 365.0600901
SMILES: CC1Cc2ccccc2N1NC(=O)c3ccc(c(c3)S(=O)(=O)N)Cl
InChI: InChI=1S/C16H16ClN3O3S/c1-10-8-11-4-2-3-5-14(11)20(10)19-16(21)12-6-7-13(17)15(9-12)24(18,22)23/h2-7,9-10H,8H2,1H3,(H,19,21)(H2,18,22,23)
Instrument: Bruker maXis Impact
Instrument type: LC-ESI-QTOF
Ms type: MS2
Ion mode: POSITIVE
Ionization: ESI
Fragmentation mode: CID
Collision energy: 10 eV
Resolution: 35000
Column name: Acclaim RSLC C18 2.2um, 2.1x100mm, Thermo
Retention time: 6.6 min
Base peak: 260.1637
Precursor m/z: 366.0674
Precursor type: [M+H]+
m/z	relative intensity	assigned
117.0578	23	C2H13O3S+
132.0803	999	CH14N3O2S+
133.0843	101	C8[13]CH10N+
366.0668	383	C16H17ClN3O3S+
367.0704	87	C15[13]CH17ClN3O3S+
368.0651	109	C16H17[37]ClN3O3S+
