Mass spectrum: Propranolol; LC-ESI-QTOF; MS2; CE: 50 eV; R=35000; [M+H]+
Name: Propranolol
Name: 1-naphthalen-1-yloxy-3-(propan-2-ylamino)propan-2-ol
Formula: C16H21NO2
Exact mass: 259.1572289
SMILES: CC(C)NCC(O)COC1=C2C=CC=CC2=CC=C1
InChI: InChI=1S/C16H21NO2/c1-12(2)17-10-14(18)11-19-16-9-5-7-13-6-3-4-8-15(13)16/h3-9,12,14,17-18H,10-11H2,1-2H3
Instrument: Bruker maXis Impact
Instrument type: LC-ESI-QTOF
Ms type: MS2
Ion mode: POSITIVE
Ionization: ESI
Fragmentation mode: CID
Collision energy: 50 eV
Resolution: 35000
Column name: Acclaim RSLC C18 2.2um, 2.1x100mm, Thermo
Retention time: 6.316 min
Base peak: 325.1717
Precursor m/z: 260.1645
Precursor type: [M+H]+
m/z	relative intensity	assigned
115.0535	262	C9H7+
116.0581	37	C8[13]CH7+
117.0689	33	C9H9+
126.0455	85	C10H6+
127.0532	437	C10H7+
128.061	999	C10H8+
129.0686	686	C10H9+
130.0718	73	C9[13]CH9+
131.0475	8	C9H7O+
139.053	43	C11H7+
140.0609	37	C11H8+
141.069	97	C11H9+
142.0734	17	C10[13]CH9+
143.049	10	C10H7O+
143.0823	6	C11H11+
144.0557	43	C10H8O+
145.0636	600	C10H9O+
146.0674	68	C9[13]CH9O+
151.052	7	C12H7+
152.0607	205	C12H8+
153.0685	600	C12H9+
154.0757	265	C12H10+
155.0845	338	C12H11+
156.0874	43	C11[13]CH11+
157.0638	117	C11H9O+
158.067	19	C10[13]CH9O+
163.0517	10	C13H7+
164.06	23	C13H8+
165.0684	454	C13H9+
166.072	59	C12[13]CH9+
167.0765	8	C12H9N+
168.0557	136	C12H8O+
170.0688	7	C12H10O+
171.0794	7	C12H11O+
181.0641	42	C13H9O+
182.0721	30	C13H10O+
183.0788	17	C13H11O+
196.0518	5	C13H8O2+
