Mass spectrum: Propylthiouracil; LC-ESI-QTOF; MS2; CE: Ramp 17.0-25.4 eV; R=35000; [M+H]+
Name: Propylthiouracil
Name: CID 4950
Name: 6-propyl-2-sulfanyl-1H-pyrimidin-4-one
Formula: C7H10N2OS
Exact mass: 170.05138394
SMILES: CCCC1=CC(=O)NC(=S)N1
InChI: InChI=1S/C7H10N2OS/c1-2-3-5-4-6(10)9-7(11)8-5/h4H,2-3H2,1H3,(H2,8,9,10,11)
Instrument: Bruker maXis Impact
Instrument type: LC-ESI-QTOF
Ms type: MS2
Ion mode: POSITIVE
Ionization: ESI
Fragmentation mode: CID
Collision energy: Ramp 17.0-25.4 eV
Resolution: 35000
Column name: Acclaim RSLC C18 2.2um, 2.1x100mm, Thermo
Retention time: 4.506 min
Base peak: 102.1286
Precursor m/z: 171.0587
Precursor type: [M+H]+
m/z	relative intensity	assigned
59.9892	14	CH2NS+
67.0531	12	C5H7+
112.0754	105	C6H10NO+
126.0381	15	C6H8NS+
129.0362	16	C6H9OS+
153.0454	13	C7H9N2S+
154.0313	569	C7H8NOS+
155.0328	27	C6[13]CH8NOS+
156.0274	14	C7H8NO[34]S+
171.0576	999	C7H11N2OS+
172.0607	70	C6[13]CH11N2OS+
173.0541	22	C7H11N2O[34]S+
