Mass spectrum: Droperidol; LC-ESI-QTOF; MS2; CE: 40 eV; R=35000; [M+H]+
Name: Droperidol
Name: droperidol
Name: 3-[1-[4-(4-fluorophenyl)-4-oxobutyl]-3,6-dihydro-2H-pyridin-4-yl]-1H-benzimidazol-2-one
Formula: C22H22FN3O2
Exact mass: 379.1696052
SMILES: c1ccc2c(c1)nc(n2C3=CCN(CC3)CCCC(=O)c4ccc(cc4)F)O
InChI: InChI=1S/C22H22FN3O2/c23-17-9-7-16(8-10-17)21(27)6-3-13-25-14-11-18(12-15-25)26-20-5-2-1-4-19(20)24-22(26)28/h1-2,4-5,7-11H,3,6,12-15H2,(H,24,28)
Instrument: Bruker maXis Impact
Instrument type: LC-ESI-QTOF
Ms type: MS2
Ion mode: POSITIVE
Ionization: ESI
Fragmentation mode: CID
Collision energy: 40 eV
Resolution: 35000
Column name: Acclaim RSLC C18 2.2um, 2.1x100mm, Thermo
Retention time: 6.433 min
Base peak: 380.1803
Precursor m/z: 380.1769
Precursor type: [M+H]+
m/z	relative intensity	assigned
123.025	374	C7H4FO+
124.0281	24	C6[13]CH4FO+
165.0722	999	C10H10FO+
166.075	83	C8H10N2O2+
167.0784	5	C7[13]CH10N2O2+
187.0878	13	C8H12FN2O2+
194.099	44	C11H13FNO+
195.1021	7	C10[13]CH13FNO+
