Mass spectrum: Lidocaine; LC-ESI-QTOF; MS2; CE: 50 eV; R=35000; [M+H]+
Name: Lidocaine
Name: 2-(diethylamino)-N-(2,6-dimethylphenyl)acetamide
Formula: C14H22N2O
Exact mass: 234.1732133
SMILES: CCN(CC)CC(=O)NC1=C(C)C=CC=C1C
InChI: InChI=1S/C14H22N2O/c1-5-16(6-2)10-13(17)15-14-11(3)8-7-9-12(14)4/h7-9H,5-6,10H2,1-4H3,(H,15,17)
Instrument: Bruker maXis Impact
Instrument type: LC-ESI-QTOF
Ms type: MS2
Ion mode: POSITIVE
Ionization: ESI
Fragmentation mode: CID
Collision energy: 50 eV
Resolution: 35000
Column name: Acclaim RSLC C18 2.2um, 2.1x100mm, Thermo
Retention time: 4.409 min
Base peak: 235.1804
Precursor m/z: 235.1805
Precursor type: [M+H]+
m/z	relative intensity	assigned
117.0553	939	C8H7N+
118.0635	741	C8H8N+
130.0654	891	C9H8N+
131.0711	496	C9H9N+
134.0956	999	C9H12N+
144.0797	771	C10H10N+
173.1063	723	C11H13N2+
