Mass spectrum: Lidocaine; LC-ESI-QTOF; MS2; CE: 10 eV; R=35000; [M+H]+
Name: Lidocaine
Name: 2-(diethylamino)-N-(2,6-dimethylphenyl)acetamide
Formula: C14H22N2O
Exact mass: 234.1732133
SMILES: CCN(CC)CC(=O)NC1=C(C)C=CC=C1C
InChI: InChI=1S/C14H22N2O/c1-5-16(6-2)10-13(17)15-14-11(3)8-7-9-12(14)4/h7-9H,5-6,10H2,1-4H3,(H,15,17)
Instrument: Bruker maXis Impact
Instrument type: LC-ESI-QTOF
Ms type: MS2
Ion mode: POSITIVE
Ionization: ESI
Fragmentation mode: CID
Collision energy: 10 eV
Resolution: 35000
Column name: Acclaim RSLC C18 2.2um, 2.1x100mm, Thermo
Retention time: 4.429 min
Base peak: 235.18
Precursor m/z: 235.1805
Precursor type: [M+H]+
m/z	relative intensity	assigned
235.1804	999	C14H23N2O+
236.1828	177	C13[13]CH23N2O+
237.1855	14	C12[13]C2H23N2O+
