Mass spectrum: Propylthiouracil; LC-ESI-QTOF; MS2; CE: 30 eV; R=35000; [M+H]+
Name: Propylthiouracil
Name: propylthiouracil
Name: 6-propyl-2-sulfanylidene-1H-pyrimidin-4-one
Formula: C7H10N2OS
Exact mass: 170.0513839
SMILES: CCCc1cc(nc(n1)S)O
InChI: InChI=1S/C7H10N2OS/c1-2-3-5-4-6(10)9-7(11)8-5/h4H,2-3H2,1H3,(H2,8,9,10,11)
Instrument: Bruker maXis Impact
Instrument type: LC-ESI-QTOF
Ms type: MS2
Ion mode: POSITIVE
Ionization: ESI
Fragmentation mode: CID
Collision energy: 30 eV
Resolution: 35000
Column name: Acclaim RSLC C18 2.2um, 2.1x100mm, Thermo
Retention time: 4.442 min
Base peak: 432.2849
Precursor m/z: 171.0587
Precursor type: [M+H]+
m/z	relative intensity	assigned
142.0187	163	C5H6N2OS+
154.0343	999	C7H8NOS+
171.0615	323	C7H11N2OS+
