Mass spectrum: Ketamine; LC-ESI-QTOF; MS2; CE: 30 eV; R=35000; [M+H]+
Name: Ketamine
Name: 2-(2-chlorophenyl)-2-(methylamino)cyclohexan-1-one
Formula: C13H16ClNO
Exact mass: 237.0920418
SMILES: CNC1(CCCCC1=O)C1=CC=CC=C1Cl
InChI: InChI=1S/C13H16ClNO/c1-15-13(9-5-4-8-12(13)16)10-6-2-3-7-11(10)14/h2-3,6-7,15H,4-5,8-9H2,1H3
Instrument: Bruker maXis Impact
Instrument type: LC-ESI-QTOF
Ms type: MS2
Ion mode: POSITIVE
Ionization: ESI
Fragmentation mode: CID
Collision energy: 30 eV
Resolution: 35000
Column name: Acclaim RSLC C18 2.2um, 2.1x100mm, Thermo
Retention time: 4.504 min
Base peak: 238.0995
Precursor m/z: 238.0993
Precursor type: [M+H]+
m/z	relative intensity	assigned
115.0536	12	C9H7+
116.0608	6	C9H8+
125.0146	999	C7H6Cl+
126.0179	56	C6[13]CH6Cl+
127.0116	251	C7H6[37]Cl+
128.0147	9	C8H2NO+
128.0611	40	C10H8+
129.0687	26	C10H9+
130.0763	18	C10H10+
138.9933	7	C7H4ClO+
141.009	24	C7H6ClO+
142.0759	5	C11H10+
143.0059	7	C7H6[37]ClO+
143.0845	11	C11H11+
144.0923	27	C11H12+
145.0634	6	C10H9O+
149.0143	13	C9H6Cl+
151.0298	56	C9H8Cl+
152.0252	36	C8H7ClN+
152.0611	6	C12H8+
153.0269	17	C9H8[37]Cl+
153.0687	33	C12H9+
154.0222	10	C8H7[37]ClN+
154.0766	52	C12H10+
155.059	11	C9H12Cl+
155.0814	7	C11[13]CH10+
156.0922	11	C12H12+
157.0876	9	C11H11N+
163.0299	109	C10H8Cl+
164.0335	12	C9[13]CH8Cl+
165.0092	46	C9H6ClO+
165.0269	27	C10H8[37]Cl+
165.0454	19	C10H10Cl+
167.006	13	C9H6[37]ClO+
167.0424	7	C10H10[37]Cl+
172.087	5	C12H12O+
179.0613	87	C11H12Cl+
180.0642	10	C10[13]CH12Cl+
181.0583	25	C11H12[37]Cl+
189.0455	23	C12H10Cl+
191.0426	6	C12H10[37]Cl+
207.0563	20	C12H12ClO+
209.0537	5	C12H12[37]ClO+
220.088	37	C13H15ClN+
221.0912	5	C12[13]CH15ClN+
222.0852	11	C13H15[37]ClN+
