Mass spectrum: 8-OH-Mirtazapine; LC-ESI-QTOF; MS2; HILIC; CE: 30 eV; R=35000; [M+H]+
Name: 8-OH-Mirtazapine
Name: 8-Hydroxymirtazapine
Formula: C17H19N3O
Exact mass: 281.1528122
SMILES: CN1CCN2C(C1)C1=CC=CC=C1CC1=CC(O)=CN=C21
InChI: InChI=1S/C17H19N3O/c1-19-6-7-20-16(11-19)15-5-3-2-4-12(15)8-13-9-14(21)10-18-17(13)20/h2-5,9-10,16,21H,6-8,11H2,1H3
Instrument: Bruker maXis Impact
Instrument type: LC-ESI-QTOF
Ms type: MS2
Ion mode: POSITIVE
Ionization: ESI
Fragmentation mode: CID
Collision energy: 30 eV
Resolution: 35000
Column name: ACQUITY UPLC BEH Amide 1.7 um 2.1x100 mm, Waters
Retention time: 6.280 min
Base peak: 282.1598
Precursor m/z: 282.1601
Precursor type: [M+H]+
m/z	relative intensity	assigned
144.0799	6	C10H10N+
149.0696	8	C8H9N2O+
166.0638	9	C12H8N+
196.0747	9	C13H10NO+
198.09	8	C13H12NO+
210.0777	20	C13H10N2O+
211.086	999	C13H11N2O+
212.0892	105	C12[13]CH11N2O+
213.0916	6	C11[13]C2H11N2O+
223.0853	6	C14H11N2O+
225.1015	138	C14H13N2O+
226.1045	19	C13[13]CH13N2O+
235.0863	5	C15H11N2O+
236.0935	7	C15H12N2O+
239.1169	39	C15H15N2O+
240.1206	6	C14[13]CH15N2O+
251.1171	59	C16H15N2O+
252.1202	9	C15[13]CH15N2O+
253.132	5	C16H17N2O+
280.1438	16	C17H18N3O+
282.1594	61	C17H20N3O+
283.1622	12	C16[13]CH20N3O+
