Mass spectrum: 8-OH-Mirtazapine; LC-ESI-QTOF; MS2; HILIC; CE: 50 eV; R=35000; [M+H]+
Name: 8-OH-Mirtazapine
Name: 8-Hydroxymirtazapine
Formula: C17H19N3O
Exact mass: 281.1528122
SMILES: CN1CCN2C(C1)C1=CC=CC=C1CC1=CC(O)=CN=C21
InChI: InChI=1S/C17H19N3O/c1-19-6-7-20-16(11-19)15-5-3-2-4-12(15)8-13-9-14(21)10-18-17(13)20/h2-5,9-10,16,21H,6-8,11H2,1H3
Instrument: Bruker maXis Impact
Instrument type: LC-ESI-QTOF
Ms type: MS2
Ion mode: POSITIVE
Ionization: ESI
Fragmentation mode: CID
Collision energy: 50 eV
Resolution: 35000
Column name: ACQUITY UPLC BEH Amide 1.7 um 2.1x100mm, Water
Retention time: 6.280 min
Base peak: 282.1601
Precursor m/z: 282.1601
Precursor type: [M+H]+
m/z	relative intensity	assigned
115.0537	34	C9H7+
116.0491	23	C8H6N+
127.0538	8	C10H7+
128.0614	22	C10H8+
129.0692	27	C10H9+
130.0646	36	C9H8N+
131.0721	19	C9H9N+
132.0793	5	C9H10N+
133.0393	10	C7H5N2O+
134.0463	10	C7H6N2O+
135.0548	6	C7H7N2O+
139.0534	36	C11H7+
140.0495	11	C10H6N+
141.0692	31	C11H9+
142.0647	8	C10H8N+
143.072	9	C10H9N+
144.0801	40	C10H10N+
145.0636	5	C8H7N3+
145.0854	5	C10H11N+
146.0953	5	C10H12N+
147.0545	19	C8H7N2O+
149.07	11	C8H9N2O+
152.0614	14	C12H8+
153.0689	16	C12H9+
154.0643	33	C11H8N+
155.0608	10	C10H7N2+
155.0702	12	C11H9N+
156.0801	41	C11H10N+
165.0683	6	C13H9+
166.0645	262	C12H8N+
167.0711	93	C12H9N+
168.0773	27	C12H10N+
169.0751	26	C11H9N2+
170.0951	12	C12H12N+
178.0644	6	C13H8N+
178.0763	5	C14H10+
180.0802	22	C13H10N+
181.0755	54	C12H9N2+
182.0592	15	C12H8NO+
182.0829	89	C12H10N2+
183.0671	65	C12H9NO+
183.0906	44	C12H11N2+
184.074	39	C12H10NO+
191.0726	5	C14H9N+
192.0675	13	C13H8N2+
193.0753	18	C13H9N2+
194.0597	9	C13H8NO+
194.0828	43	C13H10N2+
195.0672	67	C13H9NO+
195.0886	13	C13H11N2+
196.0743	77	C13H10NO+
197.0787	18	C13H11NO+
198.0895	21	C13H12NO+
205.0747	5	C14H9N2+
206.0826	6	C14H10N2+
207.091	9	C14H11N2+
208.0749	16	C14H10NO+
209.0704	33	C13H9N2O+
210.0784	815	C13H10N2O+
211.0858	999	C13H11N2O+
213.0913	8	C12H11N3O+
221.0705	23	C14H9N2O+
222.0776	17	C14H10N2O+
223.0858	43	C14H11N2O+
224.0925	18	C14H12N2O+
225.1014	59	C14H13N2O+
226.1052	9	C14H14N2O+
234.0794	9	C15H10N2O+
235.0856	74	C15H11N2O+
236.0908	18	C15H12N2O+
237.1009	12	C15H13N2O+
239.1174	6	C15H15N2O+
249.1021	8	C16H13N2O+
250.0972	9	C15H12N3O+
251.117	7	C16H15N2O+
