Mass spectrum: Midazolam; LC-ESI-QTOF; MS2; HILIC; CE: 30 eV; R=35000; [M+H]+
Name: Midazolam
Name: 8-chloro-6-(2-fluorophenyl)-1-methyl-4H-imidazo[1,5-a][1,4]benzodiazepine
Formula: C18H13ClFN3
Exact mass: 325.0782033
SMILES: CC1=NC=C2N1C3=C(C=C(C=C3)Cl)C(=NC2)C4=CC=CC=C4F
InChI: InChI=1S/C18H13ClFN3/c1-11-21-9-13-10-22-18(14-4-2-3-5-16(14)20)15-8-12(19)6-7-17(15)23(11)13/h2-9H,10H2,1H3
Instrument: Bruker maXis Impact
Instrument type: LC-ESI-QTOF
Ms type: MS2
Ion mode: POSITIVE
Ionization: ESI
Fragmentation mode: CID
Collision energy: 30 eV
Resolution: 35000
Column name: ACQUITY UPLC BEH Amide 1.7 um 2.1x100 mm, Waters
Retention time: 2.067 min
Base peak: 326.0863
Precursor m/z: 326.0855
Precursor type: [M+H]+
m/z	relative intensity	assigned
170.0829	7	C11H10N2+
189.0211	5	C10H6ClN2+
189.0817	6	C11H10FN2+
205.0522	12	C11H10ClN2+
208.0551	11	C14H7FN+
209.0629	58	C14H8FN+
210.066	7	C13[13]CH8FN+
222.0702	6	C15H9FN+
223.0786	17	C15H10FN+
230.0472	15	C12H9ClN3+
231.0533	5	C12H10ClN3+
232.0436	5	C12H9[37]ClN3+
244.0322	243	C14H8ClFN+
245.036	28	C13[13]CH8ClFN+
246.0293	52	C14H8[37]ClFN+
249.082	79	C16H10FN2+
250.0889	54	C16H11FN2+
251.0928	6	C15[13]CH11FN2+
257.0389	5	C16H4FN3+
258.0477	33	C15H10ClFN+
259.0501	5	C14[13]CH10ClFN+
260.0445	8	C15H10[37]ClFN+
265.0522	10	C16H10ClN2+
270.1017	7	C18H12N3+
284.0505	7	C16H10ClFN2+
285.0588	123	C16H11ClFN2+
286.0616	18	C15[13]CH11ClFN2+
287.0558	31	C16H11[37]ClFN2+
290.1088	189	C18H13FN3+
291.1168	961	C18H14FN3+
292.1197	168	C17[13]CH14FN3+
293.1225	8	C16[13]C2H14FN3+
297.0583	6	C17H11ClFN2+
299.0741	11	C17H13ClFN2+
306.0792	10	C18H13ClN3+
309.0591	39	C18H11ClFN2+
310.0621	8	C17[13]CH11ClFN2+
311.0583	15	C18H11[37]ClFN2+
325.0775	12	C18H13ClFN3+
326.0863	999	C18H14ClFN3+
327.0887	280	C17[13]CH14ClFN3+
328.083	414	C18H14[37]ClFN3+
