Mass spectrum: Diacetylmorphine (Heroin); LC-ESI-QTOF; MS2; HILIC; CE: 30 eV; R=35000; [M+H]+
Name: Diacetylmorphine (Heroin)
Name: Diacetylmorphine
Name: [(4R,4aR,7S,7aR,12bS)-9-acetyloxy-3-methyl-2,4,4a,7,7a,13-hexahydro-1H-4,12-methanobenzofuro[3,2-e]isoquinoline-7-yl] acetate
Formula: C21H23NO5
Exact mass: 369.1576228
SMILES: CC(=O)Oc1ccc2c3c1O[C@@H]4[C@]35CCN([C@H](C2)[C@@H]5C=C[C@@H]4OC(=O)C)C
InChI: InChI=1S/C21H23NO5/c1-11(23)25-16-6-4-13-10-15-14-5-7-17(26-12(2)24)20-21(14,8-9-22(15)3)18(13)19(16)27-20/h4-7,14-15,17,20H,8-10H2,1-3H3/t14-,15+,17-,20-,21-/m0/s1
Instrument: Bruker maXis Impact
Instrument type: LC-ESI-QTOF
Ms type: MS2
Ion mode: POSITIVE
Ionization: ESI
Fragmentation mode: CID
Collision energy: 30 eV
Resolution: 35000
Column name: ACQUITY UPLC BEH Amide 1.7 um 2.1x100 mm, Waters
Retention time: 5.980 min
Base peak: 370.1663
Precursor m/z: 370.1649
Precursor type: [M+H]+
m/z	relative intensity	assigned
165.0696	10	C13H9+
183.0818	10	C13H11O+
187.0732	5	C12H11O2+
191.0847	14	C15H11+
193.0644	41	C14H9O+
194.0688	9	C13[13]CH9O+
201.0913	6	C13H13O2+
203.0702	11	C12H11O3+
207.0809	10	C15H11O+
209.0591	20	C14H9O2+
209.0953	5	C15H13O+
211.0751	101	C14H11O2+
212.0799	14	C13[13]CH11O2+
219.08	28	C16H11O+
221.0986	5	C16H13O+
225.0919	6	C15H13O2+
229.0849	17	C14H13O3+
237.0907	41	C16H13O2+
238.0965	8	C15[13]CH13O2+
239.1085	9	C16H15O2+
240.1026	9	C15H14NO2+
250.1228	5	C17H16NO+
253.0864	5	C16H13O3+
255.1036	7	C19H13N+
267.1254	7	C17H17NO2+
268.1342	142	C17H18NO2+
269.1379	29	C16[13]CH18NO2+
286.1442	21	C17H20NO3+
287.1464	5	C21H19O+
310.145	77	C19H20NO3+
311.1462	16	C18[13]CH20NO3+
328.1548	156	C19H22NO4+
329.1592	31	C18[13]CH22NO4+
370.1667	999	C21H24NO5+
371.1696	260	C20[13]CH24NO5+
372.171	36	C19[13]C2H24NO5+
