Mass spectrum: Primidone; LC-ESI-QTOF; MS2; CE: 50 eV; R=35000; [M+H]+
Name: Primidone
Name: 5-ethyl-5-phenyl-1,3-diazinane-4,6-dione
Formula: C12H14N2O2
Exact mass: 218.1055277
SMILES: CCC1(C(=O)NCNC1=O)C1=CC=CC=C1
InChI: InChI=1S/C12H14N2O2/c1-2-12(9-6-4-3-5-7-9)10(15)13-8-14-11(12)16/h3-7H,2,8H2,1H3,(H,13,15)(H,14,16)
Instrument: Bruker maXis Impact
Instrument type: LC-ESI-QTOF
Ms type: MS2
Ion mode: POSITIVE
Ionization: ESI
Fragmentation mode: CID
Collision energy: 50 eV
Resolution: 35000
Column name: Acclaim RSLC C18 2.2um, 2.1x100mm, Thermo
Retention time: 5.285 min
Base peak: 256.0147
Precursor m/z: 219.1128
Precursor type: [M+H]+
m/z	relative intensity	assigned
115.0551	999	C9H7+
146.0567	771	C9H8NO+
