Mass spectrum: Ketamine; LC-ESI-QTOF; MS2; CE: 10 eV; R=35000; [M+H]+
Name: Ketamine
Name: 2-(2-chlorophenyl)-2-(methylamino)cyclohexan-1-one
Formula: C13H16ClNO
Exact mass: 237.0920418
SMILES: CNC1(CCCCC1=O)C1=CC=CC=C1Cl
InChI: InChI=1S/C13H16ClNO/c1-15-13(9-5-4-8-12(13)16)10-6-2-3-7-11(10)14/h2-3,6-7,15H,4-5,8-9H2,1H3
Instrument: Bruker maXis Impact
Instrument type: LC-ESI-QTOF
Ms type: MS2
Ion mode: POSITIVE
Ionization: ESI
Fragmentation mode: CID
Collision energy: 10 eV
Resolution: 35000
Column name: Acclaim RSLC C18 2.2um, 2.1x100mm, Thermo
Retention time: 4.480 min
Base peak: 238.0993
Precursor m/z: 238.0993
Precursor type: [M+H]+
m/z	relative intensity	assigned
125.0145	21	C7H6Cl+
127.0113	6	C7H6[37]Cl+
179.0613	42	C11H12Cl+
181.0583	10	C11H12[37]Cl+
207.0567	126	C12H12ClO+
208.0598	12	C11[13]CH12ClO+
209.0535	32	C12H12[37]ClO+
220.0882	66	C13H15ClN+
221.0912	8	C12[13]CH15ClN+
222.0851	17	C13H15[37]ClN+
238.0996	999	C13H17ClNO+
239.1023	161	C12[13]CH17ClNO+
240.0963	426	C13H17[37]ClNO+
