Mass spectrum: Midazolam; LC-ESI-QTOF; MS2; HILIC; CE: 40 eV; R=35000; [M+H]+
Name: Midazolam
Name: 8-chloro-6-(2-fluorophenyl)-1-methyl-4H-imidazo[1,5-a][1,4]benzodiazepine
Formula: C18H13ClFN3
Exact mass: 325.0782033
SMILES: CC1=NC=C2N1C3=C(C=C(C=C3)Cl)C(=NC2)C4=CC=CC=C4F
InChI: InChI=1S/C18H13ClFN3/c1-11-21-9-13-10-22-18(14-4-2-3-5-16(14)20)15-8-12(19)6-7-17(15)23(11)13/h2-9H,10H2,1H3
Instrument: Bruker maXis Impact
Instrument type: LC-ESI-QTOF
Ms type: MS2
Ion mode: POSITIVE
Ionization: ESI
Fragmentation mode: CID
Collision energy: 40 eV
Resolution: 35000
Column name: ACQUITY UPLC BEH Amide 1.7 um 2.1x100mm, Waters
Retention time: 2.017 min
Base peak: 326.0862
Precursor m/z: 326.0855
Precursor type: [M+H]+
m/z	relative intensity	assigned
128.0487	10	C9H6N+
129.0566	39	C9H7N+
137.0144	6	C3H5ClFN3+
147.0468	5	C9H6FN+
148.0546	9	C9H7FN+
152.0252	10	C9H2N3+
162.0097	7	C9H5ClN+
164.0252	19	C10H2N3+
169.0749	9	C11H9N2+
170.0829	28	C11H10N2+
173.0498	5	C10H6FN2+
182.0514	7	C13H7F+
183.0594	32	C13H8F+
184.0667	25	C13H9F+
189.0205	55	C10H6ClN2+
189.0814	12	C11H10FN2+
190.0245	5	C9[13]CH6ClN2+
191.0177	13	C10H6[37]ClN2+
196.0673	31	C14H9F+
203.0362	5	C11H8ClN2+
203.0716	7	C15H9N+
205.0517	20	C11H10ClN2+
208.0551	58	C14H7FN+
209.0628	424	C14H8FN+
210.0661	40	C13[13]CH8FN+
214.0766	9	C12H9FN3+
215.0844	16	C12H10FN3+
217.0204	14	C14H2FN2+
222.0706	65	C15H9FN+
223.0784	278	C15H10FN+
224.0254	6	C14H7ClN+
224.0823	29	C14[13]CH10FN+
229.0752	13	C16H9N2+
230.0472	22	C12H9ClN3+
230.0823	9	C16H10N2+
231.0358	6	C15H4FN2+
231.0541	18	C12H10ClN3+
232.0421	7	C12H9[37]ClN3+
233.0584	5	C12H10[37]ClN3+
237.0928	6	C16H12FN+
238.0405	6	C16H4N3+
243.0908	15	C17H11N2+
244.0316	227	C14H8ClFN+
245.0367	40	C13[13]CH8ClFN+
246.0288	52	C14H8[37]ClFN+
249.0815	428	C16H10FN2+
250.0887	248	C16H11FN2+
251.093	27	C15[13]CH11FN2+
255.0681	13	C15H12ClN2+
257.0358	13	C16H4FN3+
258.0473	109	C15H10ClFN+
259.0491	11	C14[13]CH10ClFN+
260.0443	25	C15H10[37]ClFN+
263.0968	18	C17H12FN2+
264.1037	8	C17H13FN2+
265.052	36	C16H10ClN2+
266.0552	6	C15[13]CH10ClN2+
267.0487	9	C16H10[37]ClN2+
268.0314	9	C17H3FN3+
270.1018	27	C18H12N3+
271.1088	16	C18H13N3+
273.0577	6	C15H11ClFN2+
273.0811	7	C18H10FN2+
274.0885	7	C18H11FN2+
276.0922	13	C17H11FN3+
283.0434	5	C16H9ClFN2+
284.0503	39	C16H10ClFN2+
285.0582	155	C16H11ClFN2+
286.06	21	C15[13]CH11ClFN2+
287.0552	34	C16H11[37]ClFN2+
289.0517	34	C18H10ClN2+
289.0999	5	C18H12FN3+
290.1082	140	C18H13FN3+
291.1166	999	C18H14FN3+
292.1193	246	C17[13]CH14FN3+
293.1219	11	C16[13]C2H14FN3+
297.0581	9	C17H11ClFN2+
299.0727	11	C17H13ClFN2+
306.0783	12	C18H13ClN3+
307.0421	5	C18H9ClFN2+
309.0582	84	C18H11ClFN2+
310.0611	14	C17[13]CH11ClFN2+
311.0585	34	C18H11[37]ClFN2+
312.0613	5	C16[13]CH11ClFN3+
313.0588	5	C17H11[37]ClFN3+
325.0767	36	C18H13ClFN3+
326.0848	168	C18H14ClFN3+
327.0861	29	C17[13]CH14ClFN3+
328.0822	45	C18H14[37]ClFN3+
