Mass spectrum: Morphine; LC-ESI-QTOF; MS2; HILIC; CE: 40 eV; R=35000; [M+H]+
Name: Morphine
Name: (4R,4aR,7S,7aR,12bS)-3-methyl-2,4,4a,7,7a,13-hexahydro-1H-4,12-methanobenzofuro[3,2-e]isoquinoline-7,9-diol
Formula: C17H19NO3
Exact mass: 285.1364935
SMILES: CN1CC[C@]23c4c5ccc(c4O[C@H]2[C@H](C=C[C@H]3[C@H]1C5)O)O
InChI: InChI=1S/C17H19NO3/c1-18-7-6-17-10-3-5-13(20)16(17)21-15-12(19)4-2-9(14(15)17)8-11(10)18/h2-5,10-11,13,16,19-20H,6-8H2,1H3/t10-,11+,13-,16-,17-/m0/s1
Instrument: Bruker maXis Impact
Instrument type: LC-ESI-QTOF
Ms type: MS2
Ion mode: POSITIVE
Ionization: ESI
Fragmentation mode: CID
Collision energy: 40 eV
Resolution: 35000
Column name: ACQUITY UPLC BEH Amide 1.7 um 2.1x100mm, Waters
Retention time: 6.632 min
Base peak: 286.1431
Precursor m/z: 286.1438
Precursor type: [M+H]+
m/z	relative intensity	assigned
115.054	61	C9H7+
116.0599	9	C9H8+
117.0687	49	C9H9+
120.0802	15	C8H10N+
121.0646	33	C8H9O+
123.0431	98	C7H7O2+
127.0534	60	C10H7+
128.061	146	C10H8+
129.0688	88	C10H9+
131.0479	54	C9H7O+
131.0843	16	C10H11+
132.0542	17	C9H8O+
132.0794	24	C6H12O3+
133.0636	25	C9H9O+
137.0581	10	C8H9O2+
139.0532	24	C11H7+
141.0691	125	C11H9+
143.0472	23	C10H7O+
143.0838	35	C11H11+
144.0559	79	C10H8O+
144.0808	20	C10H10N+
145.0639	321	C10H9O+
145.0997	37	C11H13+
146.0671	36	C9[13]CH9O+
146.0955	19	C10H12N+
147.0429	343	C9H7O2+
148.0466	42	C8[13]CH7O2+
149.058	24	C9H9O2+
151.0538	16	C12H7+
152.0609	208	C12H8+
153.0689	707	C12H9+
154.074	127	C11[13]CH9+
155.0589	69	C7H9NO3+
155.0843	578	C12H11+
156.0625	19	C7H10NO3+
156.0881	74	C11[13]CH11+
157.0639	657	C11H9O+
158.0689	110	C10[13]CH9O+
158.0948	13	C8H14O3+
159.0439	29	C10H7O2+
159.0794	52	C11H11O+
160.0512	92	C10H8O2+
160.0749	30	C10H10NO+
161.0575	78	C10H9O2+
162.0541	17	C9H8NO2+
162.0895	31	C10H12NO+
163.0618	12	C9H9NO2+
164.0605	14	C13H8+
164.1049	11	C10H14NO+
165.0688	888	C13H9+
166.0743	216	C13H10+
167.048	15	C12H7O+
167.084	72	C13H11+
168.0557	99	C12H8O+
169.0636	137	C12H9O+
170.0694	39	C12H10O+
171.0431	138	C11H7O2+
171.0789	135	C12H11O+
172.05	68	C11H8O2+
172.0821	14	C11[13]CH11O+
173.0586	304	C11H9O2+
173.0944	118	C12H13O+
174.0627	47	C10[13]CH9O2+
175.0713	15	C11H11O2+
176.0681	19	C10H10NO2+
177.0706	18	C14H9+
178.0827	74	C10H12NO2+
179.0601	14	C9H9NO3+
179.0845	93	C14H11+
180.0578	17	C13H8O+
180.0897	16	C14H12+
181.0635	999	C13H9O+
181.0996	94	C14H13+
182.0683	144	C12[13]CH9O+
182.1045	15	C14H14+
183.079	593	C13H11O+
184.0508	160	C12H8O2+
184.0834	93	C12[13]CH11O+
185.0587	814	C12H9O2+
186.0644	163	C11[13]CH9O2+
187.0391	16	C11H7O3+
187.0738	92	C12H11O2+
188.0751	17	C11H10NO2+
189.0684	39	C15H9+
190.0757	101	C15H10+
191.084	278	C15H11+
192.0877	59	C14[13]CH11+
193.0634	183	C14H9O+
193.1003	49	C15H13+
194.0712	129	C14H10O+
194.1042	14	C15H14+
195.0797	41	C14H11O+
196.0504	17	C13H8O2+
196.0742	8	C13H10NO+
197.0588	73	C13H9O2+
197.0944	27	C14H13O+
198.0658	111	C13H10O2+
198.09	11	C13H12NO+
199.0745	287	C13H11O2+
200.0473	8	C12H8O3+
200.0791	54	C12[13]CH11O2+
201.0902	690	C13H13O2+
202.076	29	C16H10+
202.0932	135	C12[13]CH13O2+
203.0845	28	C16H11+
205.0657	11	C15H9O+
206.0724	18	C15H10O+
207.0787	55	C15H11O+
207.1043	9	C15H13N+
208.0534	11	C14H8O2+
208.0867	16	C15H12O+
209.0586	453	C14H9O2+
209.0948	114	C15H13O+
210.0625	74	C13[13]CH9O2+
210.0978	12	C14[13]CH13O+
211.0744	481	C14H11O2+
212.0781	94	C13[13]CH11O2+
213.0524	32	C13H9O3+
214.0627	36	C13H10O3+
214.0849	20	C13H12NO2+
215.0679	10	C13H11O3+
215.0895	11	C17H11+
216.1015	16	C13H14NO2+
218.0705	27	C16H10O+
219.079	114	C16H11O+
220.0839	33	C15[13]CH11O+
221.0586	19	C15H9O2+
221.0951	54	C16H13O+
222.066	28	C15H10O2+
222.126	13	C13H18O3+
223.0708	18	C15H11O2+
224.0805	18	C15H12O2+
225.0884	30	C15H13O2+
226.061	14	C14H10O3+
226.0884	16	C14H12NO2+
227.0693	304	C14H11O3+
227.1046	27	C15H15O2+
228.073	56	C13[13]CH11O3+
228.1011	10	C14H14NO2+
229.0847	268	C14H13O3+
230.0883	40	C13[13]CH13O3+
232.0949	9	C13H14NO3+
235.0743	14	C16H11O2+
235.0954	9	C16H13NO+
237.0909	80	C16H13O2+
239.1055	29	C16H15O2+
240.0759	9	C15H12O3+
240.1012	15	C15H14NO2+
240.1089	14	C16H16O2+
240.1394	16	C16H18NO+
252.1022	19	C16H14NO2+
253.1069	25	C16H15NO2+
254.1132	8	C16H16NO2+
258.1117	10	C15H16NO3+
266.1171	8	C17H16NO2+
268.1317	75	C17H18NO2+
269.1358	28	C17H19NO2+
286.1428	899	C17H20NO3+
287.1457	176	C16[13]CH20NO3+
