Mass spectrum: Paroxetine; LC-ESI-QTOF; MS2; CE: 10 eV; R=35000; [M+H]+
Name: Paroxetine
Name: 3-[(1,3-Benzodioxol-5-yloxy)methyl]-4-(4-fluorophenyl)piperidine
Name: 3-(1,3-benzodioxol-5-yloxymethyl)-4-(4-fluorophenyl)piperidine
Formula: C19H20FNO3
Exact mass: 329.1427217
SMILES: FC1=CC=C(C=C1)C1CCNCC1COC1=CC2=C(OCO2)C=C1
InChI: InChI=1S/C19H20FNO3/c20-15-3-1-13(2-4-15)17-7-8-21-10-14(17)11-22-16-5-6-18-19(9-16)24-12-23-18/h1-6,9,14,17,21H,7-8,10-12H2
Instrument: Bruker maXis Impact
Instrument type: LC-ESI-QTOF
Ms type: MS2
Ion mode: POSITIVE
Ionization: ESI
Fragmentation mode: CID
Collision energy: 10 eV
Resolution: 35000
Column name: Acclaim RSLC C18 2.2um, 2.1x100mm, Thermo
Retention time: 7.563 min
Base peak: 237.1016
Precursor m/z: 330.15
Precursor type: [M+H]+
m/z	relative intensity	assigned
330.1495	999	C19H21FNO3+
331.1529	207	C18[13]CH21FNO3+
332.1556	17	C17[13]C2H21FNO3+
