Mass spectrum: 8-OH-Mirtazapine; LC-ESI-QTOF; MS2; HILIC; CE: 10 eV; R=35000; [M+H]+
Name: 8-OH-Mirtazapine
Name: 8-Hydroxymirtazapine
Formula: C17H19N3O
Exact mass: 281.1528122
SMILES: CN1CCN2C(C1)C1=CC=CC=C1CC1=CC(O)=CN=C21
InChI: InChI=1S/C17H19N3O/c1-19-6-7-20-16(11-19)15-5-3-2-4-12(15)8-13-9-14(21)10-18-17(13)20/h2-5,9-10,16,21H,6-8,11H2,1H3
Instrument: Bruker maXis Impact
Instrument type: LC-ESI-QTOF
Ms type: MS2
Ion mode: POSITIVE
Ionization: ESI
Fragmentation mode: CID
Collision energy: 10 eV
Resolution: 35000
Column name: ACQUITY  UPLC BEH Amide 1.7 um 2.1x100mm, Waters
Retention time: 6.294 min
Base peak: 282.1603
Precursor m/z: 282.1601
Precursor type: [M+H]+
m/z	relative intensity	assigned
211.0858	10	C13H11N2O+
282.1603	999	C17H20N3O+
283.1631	162	C16[13]CH20N3O+
284.1657	12	C15[13]C2H20N3O+
