Mass spectrum: Amitriptyline; LC-ESI-QTOF; MS2; CE: 20 eV; R=35000; [M+H]+
Name: Amitriptyline
Name: N,N-dimethyl-3-(2-tricyclo[9.4.0.03,8]pentadeca-1(15),3,5,7,11,13-hexaenylidene)propan-1-amine
Formula: C20H23N
Exact mass: 277.1830497
SMILES: CN(C)CCC=C1C2=CC=CC=C2CCC2=CC=CC=C12
InChI: InChI=1S/C20H23N/c1-21(2)15-7-12-20-18-10-5-3-8-16(18)13-14-17-9-4-6-11-19(17)20/h3-6,8-12H,7,13-15H2,1-2H3
Instrument: Bruker maXis Impact
Instrument type: LC-ESI-QTOF
Ms type: MS2
Ion mode: POSITIVE
Ionization: ESI
Fragmentation mode: CID
Collision energy: 20 eV
Resolution: 35000
Column name: Acclaim RSLC C18 2.2um, 2.1x100mm, Thermo
Retention time: 8.048 min
Base peak: 278.1905
Precursor m/z: 278.1903
Precursor type: [M+H]+
m/z	relative intensity	assigned
115.0536	13	C9H7+
117.0693	76	C9H9+
118.0725	8	C8[13]CH9+
129.0689	16	C10H9+
141.0687	8	C11H9+
155.0844	59	C12H11+
156.0874	7	C11[13]CH11+
178.0763	21	C14H10+
179.084	33	C14H11+
191.0847	126	C15H11+
192.0888	21	C14[13]CH11+
193.0997	13	C15H13+
203.0845	5	C16H11+
204.0925	14	C16H12+
205.1002	47	C16H13+
206.1035	7	C15[13]CH13+
207.1153	12	C16H15+
218.1082	52	C17H14+
219.1113	8	C16[13]CH14+
231.1159	5	C18H15+
233.1318	715	C18H17+
234.1353	111	C17[13]CH17+
235.1386	7	C16[13]C2H17+
278.1902	999	C20H24N+
279.1933	204	C19[13]CH24N+
280.1964	15	C18[13]C2H24N+
