Mass spectrum: Norclozapine; LC-ESI-QTOF; MS2; HILIC; CE: 10 eV; R=35000; [M+H]+
Name: Norclozapine
Formula: C17H17ClN4
Exact mass: 312.1141742
SMILES: ClC1=CC2=C(C=C1)N=C1C=CC=CC1=C(N2)N1CCNCC1
InChI: InChI=1S/C17H17ClN4/c18-12-5-6-15-16(11-12)21-17(22-9-7-19-8-10-22)13-3-1-2-4-14(13)20-15/h1-6,11,19,21H,7-10H2
Instrument: Bruker maXis Impact
Instrument type: LC-ESI-QTOF
Ms type: MS2
Ion mode: POSITIVE
Ionization: ESI
Fragmentation mode: CID
Collision energy: 10 eV
Resolution: 35000
Column name: ACQUITY  UPLC BEH Amide 1.7 um 2.1x100mm, Waters
Retention time: 6.481 min
Base peak: 411.221
Precursor m/z: 313.1215
Precursor type: [M+H]+
m/z	relative intensity	assigned
313.1224	999	C17H18ClN4+
314.1252	142	C16[13]CH18ClN4+
315.1198	248	C17H18[37]ClN4+
