Mass spectrum: Olanzapine; LC-ESI-QTOF; MS2; HILIC; CE: 40 eV; R=35000; [M+H]+
Name: Olanzapine
Formula: C17H20N4S
Exact mass: 312.1408676
SMILES: Cc1cc2c(s1)Nc3ccccc3N=C2N4CCN(CC4)C
InChI: InChI=1S/C17H20N4S/c1-12-11-13-16(21-9-7-20(2)8-10-21)18-14-5-3-4-6-15(14)19-17(13)22-12/h3-6,11,19H,7-10H2,1-2H3
Instrument: Bruker maXis Impact
Instrument type: LC-ESI-QTOF
Ms type: MS2
Ion mode: POSITIVE
Ionization: ESI
Fragmentation mode: CID
Collision energy: 40 eV
Resolution: 35000
Column name: ACQUITY UPLC BEH Amide 1.7 um 2.1x100mm, Waters
Retention time: 6.732 min
Base peak: 313.1483
Precursor m/z: 313.1481
Precursor type: [M+H]+
m/z	relative intensity	assigned
133.0754	5	C8H9N2+
142.0647	5	C10H8N+
155.06	6	C10H7N2+
167.0595	5	C11H7N2+
168.0669	5	C11H8N2+
169.0755	177	C11H9N2+
170.0789	16	C10[13]CH9N2+
173.0159	13	C9H5N2S+
179.06	33	C12H7N2+
180.0676	122	C12H8N2+
181.072	16	C11[13]CH8N2+
182.0812	5	C12H10N2+
186.0366	67	C11H8NS+
187.0414	9	C10[13]CH8NS+
195.0783	29	C12H9N3+
196.0859	7	C12H10N3+
198.0244	414	C11H6N2S+
199.0271	37	C10[13]CH6N2S+
200.0197	12	C11H6N2[34]S+
200.0518	6	C12H10NS+
201.0474	6	C11H9N2S+
208.0862	6	C13H10N3+
211.0321	8	C12H7N2S+
212.0398	82	C12H8N2S+
213.0478	492	C12H9N2S+
214.0512	55	C11[13]CH9N2S+
215.0435	13	C12H9N2[34]S+
215.0623	17	C12H11N2S+
222.102	56	C14H12N3+
223.1091	45	C14H13N3+
224.1165	24	C14H14N3+
225.0469	7	C13H9N2S+
226.0545	9	C13H10N2S+
227.0627	29	C13H11N2S+
228.0597	17	C12H10N3S+
229.0644	6	C15H7N3+
229.0764	6	C16H9N2+
230.0745	7	C12H12N3S+
239.0625	22	C14H11N2S+
240.0605	11	C13H10N3S+
241.0663	24	C13H11N3S+
242.0733	10	C13H12N3S+
248.1171	5	C16H14N3+
253.066	6	C14H11N3S+
254.0736	12	C14H12N3S+
255.081	9	C14H13N3S+
256.0902	999	C14H14N3S+
257.0929	129	C13[13]CH14N3S+
258.0867	28	C14H14N3[34]S+
282.1055	156	C16H16N3S+
283.1086	23	C15[13]CH16N3S+
284.1028	6	C16H16N3[34]S+
313.1476	5	C17H21N4S+
