Mass spectrum: 8-OH-Mirtazapine; LC-ESI-QTOF; MS2; HILIC; CE: 20 eV; R=35000; [M+H]+
Name: 8-OH-Mirtazapine
Name: 8-Hydroxymirtazapine
Formula: C17H19N3O
Exact mass: 281.1528122
SMILES: CN1CCN2C(C1)C1=CC=CC=C1CC1=CC(O)=CN=C21
InChI: InChI=1S/C17H19N3O/c1-19-6-7-20-16(11-19)15-5-3-2-4-12(15)8-13-9-14(21)10-18-17(13)20/h2-5,9-10,16,21H,6-8,11H2,1H3
Instrument: Bruker maXis Impact
Instrument type: LC-ESI-QTOF
Ms type: MS2
Ion mode: POSITIVE
Ionization: ESI
Fragmentation mode: CID
Collision energy: 20 eV
Resolution: 35000
Column name: ACQUITY UPLC BEH Amide 1.7 um 2.1x100 mm, Waters
Retention time: 6.281 min
Base peak: 282.16
Precursor m/z: 282.1601
Precursor type: [M+H]+
m/z	relative intensity	assigned
211.0862	400	C13H11N2O+
212.0891	45	C12[13]CH11N2O+
225.1018	66	C14H13N2O+
226.1049	9	C13[13]CH13N2O+
239.1172	28	C15H15N2O+
251.1174	30	C16H15N2O+
252.1206	5	C15[13]CH15N2O+
280.1439	17	C17H18N3O+
282.1601	999	C17H20N3O+
283.1632	146	C16[13]CH20N3O+
284.1653	10	C15[13]C2H20N3O+
