Mass spectrum: Olanzapine; LC-ESI-QTOF; MS2; HILIC; CE: 10 eV; R=35000; [M+H]+
Name: Olanzapine
Formula: C17H20N4S
Exact mass: 312.1408676
SMILES: Cc1cc2c(s1)Nc3ccccc3N=C2N4CCN(CC4)C
InChI: InChI=1S/C17H20N4S/c1-12-11-13-16(21-9-7-20(2)8-10-21)18-14-5-3-4-6-15(14)19-17(13)22-12/h3-6,11,19H,7-10H2,1-2H3
Instrument: Bruker maXis Impact
Instrument type: LC-ESI-QTOF
Ms type: MS2
Ion mode: POSITIVE
Ionization: ESI
Fragmentation mode: CID
Collision energy: 10 eV
Resolution: 35000
Column name: ACQUITY  UPLC BEH Amide 1.7 um 2.1x100mm, Waters
Retention time: 6.731 min
Base peak: 313.1483
Precursor m/z: 313.1481
Precursor type: [M+H]+
m/z	relative intensity	assigned
256.0897	9	C14H14N3S+
311.1327	5	C17H19N4S+
313.1487	999	C17H21N4S+
314.1516	181	C16[13]CH21N4S+
315.1464	31	C17H21N4[34]S+
