Mass spectrum: Amphetamine; LC-ESI-QTOF; MS2; CE: 10 eV; R=35000; [M+Na]+
Name: Amphetamine
Name: 1-phenylpropan-2-amine
Formula: C9H13N
Exact mass: 135.1047994
SMILES: CC(Cc1ccccc1)N
InChI: InChI=1S/C9H13N/c1-8(10)7-9-5-3-2-4-6-9/h2-6,8H,7,10H2,1H3
Instrument: Bruker maXis Impact
Instrument type: LC-ESI-QTOF
Ms type: MS2
Ionization: ESI
Ion mode: POSITIVE
Fragmentation mode: CID
Collision energy: 10 eV
Resolution: 35000
Column name: Acclaim RSLC C18 2.2um, 2.1x100mm, Thermo
Retention time: 8.248 min
Base peak: 150.1128
Precursor m/z: 158.094
Precursor type: [M+Na]+
m/z	relative intensity	assigned
157.0837	999	C9H12NNa+
158.0962	928	C9H13NNa+
