Mass spectrum: Diacetylmorphine (Heroin); LC-ESI-QTOF; MS2; HILIC; CE: 50 eV; R=35000; [M+H]+
Name: Diacetylmorphine (Heroin)
Name: Diacetylmorphine
Name: [(4R,4aR,7S,7aR,12bS)-9-acetyloxy-3-methyl-2,4,4a,7,7a,13-hexahydro-1H-4,12-methanobenzofuro[3,2-e]isoquinoline-7-yl] acetate
Formula: C21H23NO5
Exact mass: 369.1576228
SMILES: CC(=O)Oc1ccc2c3c1O[C@@H]4[C@]35CCN([C@H](C2)[C@@H]5C=C[C@@H]4OC(=O)C)C
InChI: InChI=1S/C21H23NO5/c1-11(23)25-16-6-4-13-10-15-14-5-7-17(26-12(2)24)20-21(14,8-9-22(15)3)18(13)19(16)27-20/h4-7,14-15,17,20H,8-10H2,1-3H3/t14-,15+,17-,20-,21-/m0/s1
Instrument: Bruker maXis Impact
Instrument type: LC-ESI-QTOF
Ms type: MS2
Ion mode: POSITIVE
Ionization: ESI
Fragmentation mode: CID
Collision energy: 50 eV
Resolution: 35000
Column name: ACQUITY UPLC BEH Amide 1.7 um 2.1x100mm, Water
Retention time: 5.993 min
Base peak: 370.1652
Precursor m/z: 370.1649
Precursor type: [M+H]+
m/z	relative intensity	assigned
115.0531	41	C9H7+
117.0684	26	C9H9+
121.0638	34	C8H9O+
123.0438	24	C7H7O2+
128.0627	26	C10H8+
131.0478	31	C9H7O+
131.0716	25	C9H9N+
132.0791	20	C6H12O3+
135.0436	19	C8H7O2+
141.0695	116	C11H9+
144.0581	22	C10H8O+
144.0798	21	C10H10N+
145.0632	60	C10H9O+
146.0591	27	C9H8NO+
146.0695	21	C10H10O+
146.0952	19	C10H12N+
147.0438	69	C9H7O2+
152.0614	60	C12H8+
153.0688	203	C12H9+
154.0748	33	C12H10+
155.0847	181	C12H11+
156.0885	25	C4H14NO5+
157.0631	87	C11H9O+
158.0691	31	C11H10O+
158.0968	26	C11H12N+
159.1031	22	C11H13N+
160.075	22	C10H10NO+
161.0591	69	C10H9O2+
164.0682	20	C6H12O5+
165.0691	999	C13H9+
166.0733	187	C12[13]CH9+
167.0832	40	C13H11+
168.0564	38	C12H8O+
169.0638	78	C12H9O+
171.0444	28	C11H7O2+
171.0776	28	C12H11O+
173.0585	65	C11H9O2+
173.0956	31	C12H13O+
176.0711	28	C10H10NO2+
178.0778	80	C14H10+
179.0852	114	C14H11+
180.0882	35	C6H14NO5+
181.0642	541	C13H9O+
181.101	49	C14H13+
182.0674	111	C12[13]CH9O+
183.0797	317	C13H11O+
184.0824	56	C12[13]CH11O+
185.0591	131	C12H9O2+
186.0667	48	C12H10O2+
187.0752	83	C12H11O2+
189.0699	56	C15H9+
190.0763	92	C15H10+
191.0848	505	C15H11+
192.0888	91	C14[13]CH11+
193.0636	456	C14H9O+
193.1001	47	C15H13+
194.0688	125	C14H10O+
195.0788	35	C14H11O+
196.0485	21	C13H8O2+
197.0584	52	C13H9O2+
197.0945	55	C14H13O+
198.0657	22	C13H10O2+
198.0926	21	C13H12NO+
199.0751	66	C13H11O2+
201.0711	43	C16H9+
201.0908	178	C13H13O2+
202.0769	35	C16H10+
203.0826	22	C16H11+
203.0881	25	C16H11+
205.0667	20	C15H9O+
207.0802	73	C15H11O+
208.0848	22	C15H12O+
209.0593	491	C14H9O2+
209.0945	133	C15H13O+
210.0635	130	C13[13]CH9O2+
211.0745	588	C14H11O2+
212.0796	132	C13[13]CH11O2+
213.0516	19	C13H9O3+
214.0608	40	C13H10O3+
216.0997	20	C10H16O5+
218.072	53	C16H10O+
219.0797	215	C16H11O+
220.0831	52	C16H12O+
220.1105	31	C13H16O3+
221.0586	20	C15H9O2+
221.0958	62	C16H13O+
222.0684	46	C15H10O2+
222.0917	26	C15H12NO+
222.1281	34	C16H16N+
223.0736	19	C15H11O2+
225.0902	66	C15H13O2+
227.07	138	C14H11O3+
227.1038	25	C15H15O2+
228.0762	19	C14H12O3+
228.1008	25	C14H14NO2+
229.0844	106	C14H13O3+
230.0852	33	C13H12NO3+
234.0909	35	C16H12NO+
235.0985	27	C16H13NO+
236.1053	19	C13H16O4+
237.0898	197	C16H13O2+
238.0937	43	C16H14O2+
239.0952	24	C15H13NO2+
240.1027	53	C15H14NO2+
240.1385	31	C16H18NO+
250.1211	42	C14H18O4+
251.1265	27	C14H19O4+
252.1043	57	C16H14NO2+
253.1072	56	C13H17O5+
255.098	37	C16H15O3+
266.117	76	C17H16NO2+
267.1231	35	C14H19O5+
268.1335	333	C17H18NO2+
269.0815	20	C16H13O4+
269.1359	98	C16[13]CH18NO2+
286.1435	63	C17H20NO3+
328.1545	135	C19H22NO4+
329.1565	29	C19H23NO4+
370.1665	58	C21H24NO5+
