Mass spectrum: Morphine; LC-ESI-QTOF; MS2; HILIC; CE: 30 eV; R=35000; [M+H]+
Name: Morphine
Name: (4R,4aR,7S,7aR,12bS)-3-methyl-2,4,4a,7,7a,13-hexahydro-1H-4,12-methanobenzofuro[3,2-e]isoquinoline-7,9-diol
Formula: C17H19NO3
Exact mass: 285.1364935
SMILES: CN1CC[C@]23[C@@H]4[C@H]1CC5=C2C(=C(C=C5)O)O[C@H]3[C@H](C=C4)O
InChI: InChI=1S/C17H19NO3/c1-18-7-6-17-10-3-5-13(20)16(17)21-15-12(19)4-2-9(14(15)17)8-11(10)18/h2-5,10-11,13,16,19-20H,6-8H2,1H3/t10-,11+,13-,16-,17-/m0/s1
Instrument: Bruker maXis Impact
Instrument type: LC-ESI-QTOF
Ms type: MS2
Ion mode: POSITIVE
Ionization: ESI
Fragmentation mode: CID
Collision energy: 30 eV
Resolution: 35000
Column name: ACQUITY UPLC BEH Amide 1.7 um 2.1x100 mm, Waters
Retention time: 6.581 min
Base peak: 286.1433
Precursor m/z: 286.1438
Precursor type: [M+H]+
m/z	relative intensity	assigned
123.0432	8	C7H7O2+
145.0639	15	C10H9O+
147.043	24	C9H7O2+
153.0694	19	C12H9+
155.0844	30	C12H11+
156.0877	5	C11[13]CH11+
157.0637	22	C11H9O+
161.0589	6	C10H9O2+
165.0694	32	C13H9+
166.0746	7	C12[13]CH9+
169.0631	5	C12H9O+
171.0436	5	C11H7O2+
171.0792	6	C12H11O+
173.059	35	C11H9O2+
173.0949	12	C12H13O+
174.0626	6	C10[13]CH9O2+
178.0852	10	C10H12NO2+
179.0859	7	C14H11+
181.0642	36	C13H9O+
181.1001	7	C14H13+
182.0674	6	C12[13]CH9O+
183.0792	56	C13H11O+
184.0508	5	C12H8O2+
184.0831	6	C12[13]CH11O+
185.0587	71	C12H9O2+
186.0635	12	C11[13]CH9O2+
187.0744	11	C12H11O2+
191.0845	23	C15H11+
193.064	23	C14H9O+
193.0998	5	C15H13+
194.0702	7	C14H10O+
198.066	5	C13H10O2+
199.0744	21	C13H11O2+
200.0786	5	C12[13]CH11O2+
201.0902	150	C13H13O2+
202.0936	21	C12[13]CH13O2+
207.0792	5	C15H11O+
209.0591	49	C14H9O2+
209.0948	14	C15H13O+
210.0634	7	C13[13]CH9O2+
211.0744	71	C14H11O2+
212.0787	12	C13[13]CH11O2+
219.079	17	C16H11O+
221.0951	10	C16H13O+
225.0895	5	C15H13O2+
227.069	35	C14H11O3+
227.1053	6	C15H15O2+
228.0725	7	C13[13]CH11O3+
229.0851	92	C14H13O3+
230.0885	16	C13[13]CH13O3+
237.091	15	C16H13O2+
239.1059	10	C16H15O2+
268.132	33	C17H18NO2+
269.1362	7	C16[13]CH18NO2+
286.1433	999	C17H20NO3+
287.1465	170	C16[13]CH20NO3+
288.1485	15	C15[13]C2H20NO3+
