Mass spectrum: Norclozapine; LC-ESI-QTOF; MS2; HILIC; CE: 30 eV; R=35000; [M+H]+
Name: Norclozapine
Formula: C17H17ClN4
Exact mass: 312.1141742
SMILES: ClC1=CC2=C(C=C1)N=C1C=CC=CC1=C(N2)N1CCNCC1
InChI: InChI=1S/C17H17ClN4/c18-12-5-6-15-16(11-12)21-17(22-9-7-19-8-10-22)13-3-1-2-4-14(13)20-15/h1-6,11,19,21H,7-10H2
Instrument: Bruker maXis Impact
Instrument type: LC-ESI-QTOF
Ms type: MS2
Ion mode: POSITIVE
Ionization: ESI
Fragmentation mode: CID
Collision energy: 30 eV
Resolution: 35000
Column name: ACQUITY UPLC BEH Amide 1.7 um 2.1x100 mm, Waters
Retention time: 6.482 min
Base peak: 411.2214
Precursor m/z: 313.1215
Precursor type: [M+H]+
m/z	relative intensity	assigned
192.0681	244	C13H8N2+
193.071	27	C12[13]CH8N2+
226.0288	6	C13H7ClN2+
227.0371	373	C13H8ClN2+
228.0399	40	C12[13]CH8ClN2+
229.0342	80	C13H8[37]ClN2+
244.0636	114	C13H11ClN3+
245.0661	17	C12[13]CH11ClN3+
246.0605	32	C13H11[37]ClN3+
253.0528	97	C15H10ClN2+
255.0499	28	C14H10ClN3+
256.0596	5	C13[13]CH10ClN3+
270.0795	999	C15H13ClN3+
271.0823	128	C14[13]CH13ClN3+
272.0767	234	C15H13[37]ClN3+
273.08	19	C13[13]CH13ClN4+
296.0951	143	C17H15ClN3+
297.098	22	C16[13]CH15ClN3+
298.0921	36	C17H15[37]ClN3+
311.1053	6	C17H16ClN4+
313.1219	514	C17H18ClN4+
314.1247	80	C16[13]CH18ClN4+
315.119	136	C17H18[37]ClN4+
