Mass spectrum: Lamotrigine; LC-ESI-QTOF; MS2; CE: 30 eV; R=35000; [M+H]+
Name: Lamotrigine
Name: 6-(2,3-dichlorophenyl)-1,2,4-triazine-3,5-diamine
Formula: C9H7Cl2N5
Exact mass: 255.0078506
SMILES: NC1=NC(N)=C(N=N1)C1=C(Cl)C(Cl)=CC=C1
InChI: InChI=1S/C9H7Cl2N5/c10-5-3-1-2-4(6(5)11)7-8(12)14-9(13)16-15-7/h1-3H,(H4,12,13,14,16)
Instrument: Bruker maXis Impact
Instrument type: LC-ESI-QTOF
Ms type: MS2
Ion mode: POSITIVE
Ionization: ESI
Fragmentation mode: CID
Collision energy: 30 eV
Resolution: 35000
Column name: Acclaim RSLC C18 2.2um, 2.1x100mm, Thermo
Retention time: 5.124 min
Base peak: 256.0149
Precursor m/z: 256.0151
Precursor type: [M+H]+
m/z	relative intensity	assigned
122.9987	8	C7H4Cl+
151.0169	26	C8H6ClN+
152.0123	9	C8N4+
153.0141	7	C8H6[37]ClN+
156.9594	22	C7H3Cl2+
158.9563	13	C7H3Cl[37]Cl+
158.975	41	C7H5Cl2+
160.9719	25	C7H5Cl[37]Cl+
165.0201	33	C8H6ClN2+
166.0281	63	C8H7ClN2+
167.0175	8	C8H6[37]ClN2+
168.0247	13	C8H7[37]ClN2+
171.9703	49	C7H4Cl2N+
172.9658	11	C6H3Cl2N2+
173.9675	28	C7H4Cl[37]ClN+
173.9859	17	C7H6Cl2N+
174.9635	6	C6H3Cl[37]ClN2+
175.9829	9	C7H6Cl[37]ClN+
178.0148	8	C9N5+
179.0231	8	C9HN5+
183.9702	28	C8H4Cl2N+
185.9675	18	C8H4Cl[37]ClN+
185.9859	20	C8H6Cl2N+
186.9814	57	C7H5Cl2N2+
187.9835	16	C8H6Cl[37]ClN+
188.9786	31	C7H5Cl[37]ClN2+
193.0386	7	C9H8ClN3+
196.9652	6	C8H3Cl2N2+
210.9815	97	C9H5Cl2N2+
211.9784	21	C8H4Cl2N3+
212.9787	57	C9H5Cl[37]ClN2+
213.9743	11	C8H4Cl[37]ClN3+
213.9901	8	C9HClN5+
215.9888	5	C6H4Cl2N5+
220.0377	33	C9H7ClN5+
221.0429	7	C9H8ClN5+
222.0343	6	C9H7[37]ClN5+
229.003	22	C8H7Cl2N4+
231.0003	11	C8H7Cl[37]ClN4+
256.0147	999	C9H8Cl2N5+
257.017	72	C8[13]CH8Cl2N5+
258.0117	532	C9H8Cl[37]ClN5+
