Mass spectrum: Paroxetine; LC-ESI-QTOF; MS2; CE: 30 eV; R=35000; [M+H]+
Name: Paroxetine
Name: 3-[(1,3-Benzodioxol-5-yloxy)methyl]-4-(4-fluorophenyl)piperidine
Name: 3-(1,3-benzodioxol-5-yloxymethyl)-4-(4-fluorophenyl)piperidine
Formula: C19H20FNO3
Exact mass: 329.1427217
SMILES: FC1=CC=C(C=C1)C1CCNCC1COC1=CC2=C(OCO2)C=C1
InChI: InChI=1S/C19H20FNO3/c20-15-3-1-13(2-4-15)17-7-8-21-10-14(17)11-22-16-5-6-18-19(9-16)24-12-23-18/h1-6,9,14,17,21H,7-8,10-12H2
Instrument: Bruker maXis Impact
Instrument type: LC-ESI-QTOF
Ms type: MS2
Ion mode: POSITIVE
Ionization: ESI
Fragmentation mode: CID
Collision energy: 30 eV
Resolution: 35000
Column name: Acclaim RSLC C18 2.2um, 2.1x100mm, Thermo
Retention time: 7.572 min
Base peak: 237.1014
Precursor m/z: 330.15
Precursor type: [M+H]+
m/z	relative intensity	assigned
123.0427	28	C7H7O2+
123.0597	98	C8H8F+
124.0627	9	C7[13]CH8F+
133.0441	8	C9H6F+
135.0447	9	C5H8FO3+
135.059	91	C9H8F+
136.0661	37	C9H9F+
137.0743	17	C9H10F+
138.0705	15	C8H9FN+
139.0378	19	C7H7O3+
147.0441	7	C9H7O2+
147.059	28	C10H8F+
148.0663	22	C10H9F+
149.0743	22	C10H10F+
150.0698	34	C6H11FO3+
151.0377	211	C8H7O3+
152.0413	18	C7[13]CH7O3+
161.0584	8	C10H9O2+
161.0749	66	C11H10F+
162.078	8	C10[13]CH10F+
163.0904	184	C11H12F+
164.09	35	C10H11FN+
175.09	14	C12H12F+
176.0981	38	C12H13F+
177.0535	5	C10H9O3+
178.1014	99	C8H15FO3+
179.1048	13	C7[13]CH15FO3+
190.1014	17	C12H13FN+
192.1175	999	C12H15FN+
193.1218	149	C11[13]CH15FN+
194.1269	11	C10[13]C2H15FN+
208.1123	9	C15H14N+
313.1217	9	C19H18FO3+
330.1495	503	C19H21FNO3+
331.1526	124	C18[13]CH21FNO3+
332.1558	13	C17[13]C2H21FNO3+
