Mass spectrum: Olanzapine; LC-ESI-QTOF; MS2; CE: 30 eV; R=35000; [M+Na]+
Name: Olanzapine
Formula: C17H20N4S
Exact mass: 312.1408676
SMILES: Cc1cc2c(s1)Nc3ccccc3N=C2N4CCN(CC4)C
InChI: InChI=1S/C17H20N4S/c1-12-11-13-16(21-9-7-20(2)8-10-21)18-14-5-3-4-6-15(14)19-17(13)22-12/h3-6,11,19H,7-10H2,1-2H3
Instrument: Bruker maXis Impact
Instrument type: LC-ESI-QTOF
Ms type: MS2
Ionization: ESI
Ion mode: POSITIVE
Fragmentation mode: CID
Collision energy: 30 eV
Resolution: 35000
Column name: Acclaim RSLC C18 2.2um, 2.1x100mm, Thermo
Retention time: 5.153 min
Base peak: 150.1133
Precursor m/z: 335.1301
Precursor type: [M+Na]+
m/z	relative intensity	assigned
133.0866	999	C7H12NNa+
215.1262	874	C10H16N4Na+
