Mass spectrum: Morphine; LC-ESI-QTOF; MS2; HILIC; CE: 50 eV; R=35000; [M+H]+
Name: Morphine
Name: (4R,4aR,7S,7aR,12bS)-3-methyl-2,4,4a,7,7a,13-hexahydro-1H-4,12-methanobenzofuro[3,2-e]isoquinoline-7,9-diol
Formula: C17H19NO3
Exact mass: 285.1364935
SMILES: CN1CC[C@]23c4c5ccc(c4O[C@H]2[C@H](C=C[C@H]3[C@H]1C5)O)O
InChI: InChI=1S/C17H19NO3/c1-18-7-6-17-10-3-5-13(20)16(17)21-15-12(19)4-2-9(14(15)17)8-11(10)18/h2-5,10-11,13,16,19-20H,6-8H2,1H3/t10-,11+,13-,16-,17-/m0/s1
Instrument: Bruker maXis Impact
Instrument type: LC-ESI-QTOF
Ms type: MS2
Ion mode: POSITIVE
Ionization: ESI
Fragmentation mode: CID
Collision energy: 50 eV
Resolution: 35000
Column name: ACQUITY UPLC BEH Amide 1.7 um 2.1x100mm, Water
Retention time: 6.581 min
Base peak: 286.1432
Precursor m/z: 286.1438
Precursor type: [M+H]+
m/z	relative intensity	assigned
115.0535	127	C9H7+
117.0695	48	C9H9+
119.0475	6	C8H7O+
121.0628	9	C8H9O+
123.0431	59	C7H7O2+
126.0452	25	C10H6+
127.0538	98	C10H7+
128.0614	333	C10H8+
129.0691	186	C10H9+
131.0487	103	C9H7O+
131.0849	16	C10H11+
132.0564	21	C9H8O+
132.08	19	C9H10N+
133.0636	14	C9H9O+
134.0588	7	C8H8NO+
134.0959	7	C9H12N+
135.0445	7	C8H7O2+
137.0586	6	C8H9O2+
139.0532	57	C11H7+
140.061	30	C11H8+
141.0685	143	C11H9+
143.0492	21	C10H7O+
143.0839	33	C11H11+
144.0561	93	C10H8O+
144.0782	9	C7H12O3+
145.0635	251	C10H9O+
145.1003	16	C11H13+
146.0973	20	C10H12N+
147.0433	226	C9H7O2+
148.0726	8	C9H10NO+
151.0531	38	C12H7+
152.0611	560	C12H8+
153.0688	999	C12H9+
154.0744	170	C12H10+
155.0589	126	C7H9NO3+
155.0846	374	C12H11+
156.0591	33	C11H8O+
157.0639	734	C11H9O+
158.07	116	C11H10O+
159.0419	16	C10H7O2+
159.0784	32	C11H11O+
160.0511	60	C10H8O2+
160.0747	9	C10H10NO+
161.058	42	C10H9O2+
162.056	8	C9H8NO2+
162.0919	10	C10H12NO+
163.0535	18	C13H7+
164.0609	24	C13H8+
165.0691	965	C13H9+
166.0746	204	C13H10+
167.0469	10	C12H7O+
167.082	47	C13H11+
168.056	138	C12H8O+
168.0811	9	C12H10N+
169.0631	136	C12H9O+
170.0699	44	C12H10O+
170.0946	7	C9H14O3+
171.0429	143	C11H7O2+
171.0798	99	C12H11O+
172.049	52	C11H8O2+
173.0583	129	C11H9O2+
173.0947	29	C12H13O+
175.0723	10	C11H11O2+
176.064	15	C14H8+
177.0696	16	C14H9+
178.0768	99	C14H10+
179.0591	23	C9H9NO3+
179.084	90	C14H11+
180.0575	30	C13H8O+
181.064	717	C13H9O+
182.0685	143	C13H10O+
183.0421	11	C12H7O2+
183.0789	181	C13H11O+
184.0513	249	C12H8O2+
185.0584	317	C12H9O2+
186.0644	69	C12H10O2+
186.0919	5	C12H12NO+
187.038	13	C11H7O3+
187.0735	28	C12H11O2+
188.0743	6	C11H10NO2+
189.0685	103	C15H9+
190.0767	117	C15H10+
191.0843	159	C15H11+
192.0555	6	C14H8O+
193.0641	67	C14H9O+
193.1015	18	C15H13+
194.0713	88	C14H10O+
195.0769	35	C14H11O+
196.0516	11	C13H8O2+
196.0788	7	C13H10NO+
197.059	71	C13H9O2+
197.0943	6	C14H13O+
198.0663	114	C13H10O2+
198.0933	7	C13H12NO+
199.0382	8	C12H7O3+
199.0749	114	C13H11O2+
200.0461	9	C12H8O3+
201.0715	22	C16H9+
201.0894	85	C13H13O2+
202.0809	32	C16H10+
203.0823	6	C16H11+
205.0648	19	C15H9O+
206.0696	7	C15H10O+
206.0946	6	C12H14O3+
207.0787	28	C15H11O+
208.0501	9	C14H8O2+
208.085	11	C15H12O+
209.0587	170	C14H9O2+
209.095	22	C15H13O+
210.0632	34	C14H10O2+
211.0746	109	C14H11O2+
212.0797	20	C14H12O2+
213.0535	23	C13H9O3+
213.0893	7	C14H13O2+
214.0627	6	C13H10O3+
214.0828	9	C13H12NO2+
215.0937	5	C13H13NO2+
218.0709	32	C16H10O+
219.0786	40	C16H11O+
220.0832	6	C16H12O+
221.0597	30	C15H9O2+
221.0939	12	C16H13O+
222.0655	24	C15H10O2+
223.0722	22	C15H11O2+
224.0811	6	C15H12O2+
226.0628	6	C14H10O3+
226.0829	6	C14H12NO2+
227.0697	65	C14H11O3+
228.0729	14	C14H12O3+
228.1044	5	C14H14NO2+
229.0854	26	C14H13O3+
234.0923	11	C16H12NO+
235.0732	5	C16H11O2+
236.1068	6	C16H14NO+
237.0925	10	C16H13O2+
238.0906	7	C15H12NO2+
239.1083	6	C16H15O2+
240.1035	6	C15H14NO2+
252.0999	6	C16H14NO2+
253.1072	5	C16H15NO2+
268.1304	8	C17H18NO2+
286.1435	37	C17H20NO3+
