Mass spectrum: Paroxetine; LC-ESI-QTOF; MS2; CE: 50 eV; R=35000; [M+H]+
Name: Paroxetine
Name: 3-[(1,3-Benzodioxol-5-yloxy)methyl]-4-(4-fluorophenyl)piperidine
Name: 3-(1,3-benzodioxol-5-yloxymethyl)-4-(4-fluorophenyl)piperidine
Formula: C19H20FNO3
Exact mass: 329.1427217
SMILES: FC1=CC=C(C=C1)C1CCNCC1COC1=CC2=C(OCO2)C=C1
InChI: InChI=1S/C19H20FNO3/c20-15-3-1-13(2-4-15)17-7-8-21-10-14(17)11-22-16-5-6-18-19(9-16)24-12-23-18/h1-6,9,14,17,21H,7-8,10-12H2
Instrument: Bruker maXis Impact
Instrument type: LC-ESI-QTOF
Ms type: MS2
Ion mode: POSITIVE
Ionization: ESI
Fragmentation mode: CID
Collision energy: 50 eV
Resolution: 35000
Column name: Acclaim RSLC C18 2.2um, 2.1x100mm, Thermo
Retention time: 7.571 min
Base peak: 237.1019
Precursor m/z: 330.15
Precursor type: [M+H]+
m/z	relative intensity	assigned
109.044	22	C7H6F+
115.0535	90	C9H7+
119.0497	7	C8H7O+
121.0269	14	C7H5O2+
121.0442	47	C8H6F+
123.043	28	C7H7O2+
123.0593	264	C8H8F+
124.0625	27	C7[13]CH8F+
127.0517	8	C10H7+
128.0606	53	C10H8+
129.069	10	C9[13]CH8+
130.0654	9	C9H8N+
133.0438	217	C9H6F+
134.0504	78	C9H7F+
135.0594	999	C9H8F+
137.0214	18	C7H5O3+
138.0302	10	C7H6O3+
139.0376	12	C7H7O3+
141.0704	11	C11H9+
143.0848	30	C11H11+
145.0631	11	C10H9O+
146.0513	179	C10H7F+
147.0591	199	C10H8F+
148.0666	182	C10H9F+
149.0741	74	C10H10F+
150.0699	86	C9H9FN+
151.0379	230	C8H7O3+
151.0754	13	C8[13]CH9FN+
152.0417	19	C7[13]CH7O3+
155.0592	22	C7H9NO3+
159.0589	15	C11H8F+
160.0667	16	C11H9F+
161.0744	194	C11H10F+
162.0775	19	C10[13]CH10F+
163.0904	216	C11H12F+
164.0883	54	C10H11FN+
173.0509	8	C7H8FNO3+
175.0395	23	C10H7O3+
175.0915	9	C12H12F+
178.1014	44	C11H14O2+
179.1033	6	C10[13]CH14O2+
190.1027	7	C12H13FN+
192.1174	181	C12H15FN+
193.1215	26	C11[13]CH15FN+
231.1469	15	C15H18FN+
