Mass spectrum: Norclozapine; LC-ESI-QTOF; MS2; HILIC; CE: 20 eV; R=35000; [M+H]+
Name: Norclozapine
Formula: C17H17ClN4
Exact mass: 312.1141742
SMILES: ClC1=CC2=C(C=C1)N=C1C=CC=CC1=C(N2)N1CCNCC1
InChI: InChI=1S/C17H17ClN4/c18-12-5-6-15-16(11-12)21-17(22-9-7-19-8-10-22)13-3-1-2-4-14(13)20-15/h1-6,11,19,21H,7-10H2
Instrument: Bruker maXis Impact
Instrument type: LC-ESI-QTOF
Ms type: MS2
Ion mode: POSITIVE
Ionization: ESI
Fragmentation mode: CID
Collision energy: 20 eV
Resolution: 35000
Column name: ACQUITY UPLC BEH Amide 1.7 um 2.1x100 mm, Waters
Retention time: 6.482 min
Base peak: 411.2214
Precursor m/z: 313.1215
Precursor type: [M+H]+
m/z	relative intensity	assigned
227.0371	10	C13H8ClN2+
244.0637	18	C13H11ClN3+
246.0603	5	C13H11[37]ClN3+
253.0528	19	C15H10ClN2+
270.0798	90	C15H13ClN3+
271.0825	12	C14[13]CH13ClN3+
272.0767	21	C15H13[37]ClN3+
296.095	12	C17H15ClN3+
313.1222	999	C17H18ClN4+
314.1252	142	C16[13]CH18ClN4+
315.1195	233	C17H18[37]ClN4+
