Mass spectrum: Lorazepam; LC-ESI-QTOF; MS2; CE: 50 eV; R=35000; [M+H]+
Name: Lorazepam
Name: 7-chloro-5-(2-chlorophenyl)-3-hydroxy-1,3-dihydro-1,4-benzodiazepin-2-one
Formula: C15H10Cl2N2O2
Exact mass: 320.0119329
SMILES: OC1N=C(C2=CC=CC=C2Cl)C2=C(NC1=O)C=CC(Cl)=C2
InChI: InChI=1S/C15H10Cl2N2O2/c16-8-5-6-12-10(7-8)13(19-15(21)14(20)18-12)9-3-1-2-4-11(9)17/h1-7,15,21H,(H,18,20)
Instrument: Bruker maXis Impact
Instrument type: LC-ESI-QTOF
Ms type: MS2
Ion mode: POSITIVE
Ionization: ESI
Fragmentation mode: CID
Collision energy: 50 eV
Resolution: 35000
Column name: Acclaim RSLC C18 2.2um, 2.1x100mm, Thermo
Retention time: 8.273 min
Base peak: 278.1903
Precursor m/z: 321.0192
Precursor type: [M+H]+
m/z	relative intensity	assigned
118.0522	36	C7H6N2+
126.0098	10	C9H2O+
127.0168	10	Cl2H11NO2+
128.0249	36	C9H4O+
135.9944	22	C10O+
138.0099	329	C7H5ClN+
139.0134	26	C6[13]CH5ClN+
140.0062	105	C7H5[37]ClN+
150.0476	11	C12H6+
151.0032	13	CH9Cl2N2O2+
153.02	62	C7H6ClN2+
154.0049	21	C10H2O2+
155.0189	22	C7H6[37]ClN2+
163.0048	389	C8H4ClN2+
164.0002	132	C9H5ClO+
165.002	73	C8H4[37]ClN2+
165.9996	31	C9H5[37]ClO+
166.0642	48	C12H8N+
167.0725	41	C12H9N+
168.0675	23	C11H8N2+
168.0777	10	C11[13]CH9N+
177.0559	112	C13H7N+
178.0618	29	C12[13]CH7N+
178.999	12	C11HNO2+
179.071	13	C13H9N+
181.0149	95	C8H6ClN2O+
183.0134	17	C8H6[37]ClN2O+
186.0224	24	C12H7Cl+
192.0665	15	C13H8N2+
193.0755	119	C13H9N2+
194.0831	791	C13H10N2+
195.086	111	C12[13]CH10N2+
199.0267	24	C8H8ClN2O2+
204.0543	14	C15H8O+
204.0675	34	C14H8N2+
205.0752	116	C14H9N2+
206.0627	21	C11H11ClN2+
206.0758	17	C13[13]CH9N2+
212.0278	12	C13H7ClN+
213.0335	34	C13H8ClN+
214.0417	16	C13H9ClN+
215.0296	12	C13H8[37]ClN+
221.0717	25	C14H9N2O+
228.0464	27	C13H9ClN2+
229.0523	999	C13H10ClN2+
230.0551	131	C12[13]CH10ClN2+
231.0496	266	C13H10[37]ClN2+
232.0544	22	C13H11ClNO+
239.0368	237	C14H8ClN2+
240.04	37	C13[13]CH8ClN2+
241.0337	59	C14H8[37]ClN2+
242.0385	12	C14H9ClNO+
248.002	14	C13H8Cl2N+
257.0449	19	C14H10ClN2O+
259.0483	10	C14H10[37]ClN2O+
263.0133	69	C13H9Cl2N2+
265.0108	32	C13H9Cl[37]ClN2+
273.0001	16	C14H7Cl2N2+
275.0139	388	C14H9Cl2N2+
276.0161	76	C13[13]CH9Cl2N2+
277.0108	250	C14H9Cl[37]ClN2+
278.0144	29	C14H10Cl2NO+
291.0089	24	C14H9Cl2N2O+
293.0067	18	C14H9Cl[37]ClN2O+
