Mass spectrum: Mirtazapine; LC-ESI-QTOF; MS2; HILIC; CE: 20 eV; R=35000; [M+H]+
Name: Mirtazapine
Formula: C17H19N3
Exact mass: 265.1578976
SMILES: CN1CCN2C(C1)C1=C(CC3=C2N=CC=C3)C=CC=C1
InChI: InChI=1S/C17H19N3/c1-19-9-10-20-16(12-19)15-7-3-2-5-13(15)11-14-6-4-8-18-17(14)20/h2-8,16H,9-12H2,1H3
Instrument: Bruker maXis Impact
Instrument type: LC-ESI-QTOF
Ms type: MS2
Ion mode: POSITIVE
Ionization: ESI
Fragmentation mode: CID
Collision energy: 20 eV
Resolution: 35000
Column name: ACQUITY UPLC BEH Amide 1.7 um 2.1x100 mm, Waters
Retention time: 6.031 min
Base peak: 266.1663
Precursor m/z: 266.1652
Precursor type: [M+H]+
m/z	relative intensity	assigned
194.0831	6	C13H10N2+
195.0915	849	C13H11N2+
196.0946	112	C12[13]CH11N2+
197.0978	5	C11[13]C2H11N2+
209.1071	183	C14H13N2+
210.11	21	C13[13]CH13N2+
223.1227	35	C15H15N2+
224.1258	5	C14[13]CH15N2+
235.1225	35	C16H15N2+
236.1251	6	C15[13]CH15N2+
264.1491	20	C17H18N3+
266.1655	999	C17H20N3+
267.1682	213	C16[13]CH20N3+
268.1708	13	C15[13]C2H20N3+
