Mass spectrum: Amitriptyline; LC-ESI-QTOF; MS2; CE: 40 eV; R=35000; [M+H]+
Name: Amitriptyline
Name: N,N-dimethyl-3-(2-tricyclo[9.4.0.03,8]pentadeca-1(15),3,5,7,11,13-hexaenylidene)propan-1-amine
Formula: C20H23N
Exact mass: 277.1830497
SMILES: CN(C)CCC=C1C2=CC=CC=C2CCC2=CC=CC=C12
InChI: InChI=1S/C20H23N/c1-21(2)15-7-12-20-18-10-5-3-8-16(18)13-14-17-9-4-6-11-19(17)20/h3-6,8-12H,7,13-15H2,1-2H3
Instrument: Bruker maXis Impact
Instrument type: LC-ESI-QTOF
Ms type: MS2
Ion mode: POSITIVE
Ionization: ESI
Fragmentation mode: CID
Collision energy: 40 eV
Resolution: 35000
Column name: Acclaim RSLC C18 2.2um, 2.1x100mm, Thermo
Retention time: 8.024 min
Base peak: 278.1906
Precursor m/z: 278.1903
Precursor type: [M+H]+
m/z	relative intensity	assigned
115.0538	165	C9H7+
116.0584	18	C8[13]CH7+
117.0695	178	C9H9+
118.0729	20	C8[13]CH9+
127.0533	14	C10H7+
128.0612	110	C10H8+
129.0689	183	C10H9+
130.0726	17	C9[13]CH9+
131.0847	5	C10H11+
141.0689	93	C11H9+
142.0747	21	C11H10+
152.061	15	C12H8+
153.0688	81	C12H9+
154.076	38	C12H10+
155.0845	213	C12H11+
156.0877	29	C11[13]CH11+
165.069	62	C13H9+
166.0734	10	C12[13]CH9+
167.0846	8	C13H11+
177.0688	7	C14H9+
178.077	456	C14H10+
179.0841	339	C14H11+
180.0879	43	C13[13]CH11+
189.0692	64	C15H9+
190.0766	150	C15H10+
191.0849	999	C15H11+
192.0906	260	C14[13]CH11+
193.0991	89	C15H13+
194.1033	12	C14[13]CH13+
202.0768	99	C16H10+
203.0849	687	C16H11+
204.0921	414	C16H12+
205.1	347	C16H13+
206.1037	55	C15[13]CH13+
207.1162	6	C16H15+
215.0845	43	C17H11+
216.0921	42	C17H12+
217.1005	288	C17H13+
218.1083	528	C17H14+
219.1115	76	C16[13]CH14+
220.115	7	C15[13]C2H14+
231.1164	22	C18H15+
232.1223	9	C18H16+
233.1317	48	C18H17+
234.1357	10	C17[13]CH17+
