Mass spectrum: 9-OH-Risperidone; LC-ESI-QTOF; MS2; HILIC; CE: 20 eV; R=35000; [M+H]+
Name: 9-OH-Risperidone
Name: 3-[2-[4-(6-fluoro-1,2-benzoxazol-3-yl)piperidin-1-yl]ethyl]-9-hydroxy-6,7,8,9-tetrahydropyrido[1,2-a]pyrimidin-4-one
Formula: C22H25FN4O3
Exact mass: 412.1910689
SMILES: C1=C(CCN2CCC(CC2)C2=NOC3=CC(F)=CC=C23)C(=O)N2CCCC(O)C2=N1
InChI: InChI=1S/C22H25FN4O3/c23-16-3-4-17-19(12-16)30-25-20(17)14-5-9-26(10-6-14)11-7-15-13-24-21-18(28)2-1-8-27(21)22(15)29/h3-4,12-14,18,28H,1-2,5-11H2
Instrument: Bruker maXis Impact
Instrument type: LC-ESI-QTOF
Ms type: MS2
Ion mode: POSITIVE
Ionization: ESI
Fragmentation mode: CID
Collision energy: 20 eV
Resolution: 35000
Column name: ACQUITY UPLC BEH Amide 1.7 um 2.1x100 mm, Waters
Retention time: 1.014 min
Base peak: 226.9506
Precursor m/z: 413.1983
Precursor type: [M+H]+
m/z	relative intensity	assigned
151.0957	446	C4H13N3O3+
301.1411	644	C16H19N3O3+
355.1516	964	C22H19N4O+
371.1635	486	C20H22FN3O3+
413.1916	999	C22H26FN4O3+
