Mass spectrum: Sertraline; LC-ESI-QTOF; MS2; CE: 50 eV; R=35000; [M+H]+
Name: Sertraline
Name: (1S,4S)-4-(3,4-dichlorophenyl)-N-methyl-1,2,3,4-tetrahydronaphthalen-1-amine
Formula: C17H17Cl2N
Exact mass: 305.0738049
SMILES: CN[C@H]1CC[C@@H](C2=CC=C(Cl)C(Cl)=C2)C2=CC=CC=C12
InChI: InChI=1S/C17H17Cl2N/c1-20-17-9-7-12(13-4-2-3-5-14(13)17)11-6-8-15(18)16(19)10-11/h2-6,8,10,12,17,20H,7,9H2,1H3/t12-,17-/m0/s1
Instrument: Bruker maXis Impact
Instrument type: LC-ESI-QTOF
Ms type: MS2
Ion mode: POSITIVE
Ionization: ESI
Fragmentation mode: CID
Collision energy: 50 eV
Resolution: 35000
Column name: Acclaim RSLC C18 2.2um, 2.1x100mm, Thermo
Retention time: 8.734 min
Base peak: 306.0809
Precursor m/z: 306.0811
Precursor type: [M+H]+
m/z	relative intensity	assigned
122.9989	95	C7H4Cl+
124.006	23	C7H5Cl+
124.9957	20	C7H4[37]Cl+
126.0031	6	C7H5[37]Cl+
127.0532	9	C10H7+
128.0613	90	C10H8+
129.0687	75	C10H9+
130.0722	6	C9[13]CH9+
132.9594	17	C5H3Cl2+
134.9565	7	C5H3Cl[37]Cl+
145.0636	9	C7H12ClN+
155.0595	15	C9H12Cl+
158.9752	999	C7H5Cl2+
159.9786	52	C6[13]CH5Cl2+
160.9723	483	C7H5Cl[37]Cl+
162.0217	14	C10H7Cl+
203.0843	6	C16H11+
204.092	8	C16H12+
205.1003	18	C16H13+
225.0456	11	C15H10Cl+
