Mass spectrum: Norclozapine; LC-ESI-QTOF; MS2; HILIC; CE: 40 eV; R=35000; [M+H]+
Name: Norclozapine
Formula: C17H17ClN4
Exact mass: 312.1141742
SMILES: ClC1=CC2=C(C=C1)N=C1C=CC=CC1=C(N2)N1CCNCC1
InChI: InChI=1S/C17H17ClN4/c18-12-5-6-15-16(11-12)21-17(22-9-7-19-8-10-22)13-3-1-2-4-14(13)20-15/h1-6,11,19,21H,7-10H2
Instrument: Bruker maXis Impact
Instrument type: LC-ESI-QTOF
Ms type: MS2
Ion mode: POSITIVE
Ionization: ESI
Fragmentation mode: CID
Collision energy: 40 eV
Resolution: 35000
Column name: ACQUITY UPLC BEH Amide 1.7 um 2.1x100mm, Waters
Retention time: 6.482 min
Base peak: 411.221
Precursor m/z: 313.1215
Precursor type: [M+H]+
m/z	relative intensity	assigned
123.9948	5	C6H3ClN+
164.0492	8	C12H6N+
191.0604	18	C13H7N2+
192.0686	999	C13H8N2+
193.0717	111	C13H9N2+
194.0769	5	C12[13]CH9N2+
200.0259	10	C12H7ClN+
209.0709	9	C10H12ClN3+
218.0838	7	C15H10N2+
219.0666	5	C13H7N4+
220.089	6	C13H15ClN+
226.0296	26	C13H7ClN2+
227.0374	292	C13H8ClN2+
229.0345	66	C13H8[37]ClN2+
234.102	7	C15H12N3+
235.1101	6	C15H13N3+
244.0636	21	C13H11ClN3+
246.0609	7	C13H11[37]ClN3+
253.0521	22	C15H10ClN2+
254.0558	7	C16H6N4+
255.0533	10	C15H10[37]ClN2+
270.08	317	C15H13ClN3+
271.0826	44	C14[13]CH13ClN3+
272.077	86	C15H13[37]ClN3+
273.0804	7	C13[13]CH13ClN4+
296.0959	52	C17H15ClN3+
297.0985	9	C16[13]CH15ClN3+
298.0929	17	C17H15[37]ClN3+
313.1217	13	C17H18ClN4+
