Mass spectrum: Olanzapine; LC-ESI-QTOF; MS2; HILIC; CE: 30 eV; R=35000; [M+H]+
Name: Olanzapine
Formula: C17H20N4S
Exact mass: 312.1408676
SMILES: Cc1cc2c(s1)Nc3ccccc3N=C2N4CCN(CC4)C
InChI: InChI=1S/C17H20N4S/c1-12-11-13-16(21-9-7-20(2)8-10-21)18-14-5-3-4-6-15(14)19-17(13)22-12/h3-6,11,19H,7-10H2,1-2H3
Instrument: Bruker maXis Impact
Instrument type: LC-ESI-QTOF
Ms type: MS2
Ion mode: POSITIVE
Ionization: ESI
Fragmentation mode: CID
Collision energy: 30 eV
Resolution: 35000
Column name: ACQUITY UPLC BEH Amide 1.7 um 2.1x100 mm, Waters
Retention time: 6.732 min
Base peak: 313.1473
Precursor m/z: 313.1481
Precursor type: [M+H]+
m/z	relative intensity	assigned
169.0747	13	C11H9N2+
180.067	13	C12H8N2+
186.0361	5	C11H8NS+
198.0235	34	C11H6N2S+
212.0387	7	C12H8N2S+
213.0472	150	C12H9N2S+
214.0502	17	C11[13]CH9N2S+
215.0429	5	C12H9N2[34]S+
215.0619	7	C15H7N2+
222.1008	6	C14H12N3+
223.1083	10	C14H13N3+
227.0622	5	C13H11N2S+
230.0734	15	C12H12N3S+
239.062	9	C17H7N2+
242.0729	5	C16H8N3+
256.0895	999	C14H14N3S+
257.0925	133	C13[13]CH14N3S+
258.0865	26	C14H14N3[34]S+
282.1051	117	C16H16N3S+
283.1075	18	C15[13]CH16N3S+
313.1473	114	C17H21N4S+
314.1497	20	C16[13]CH21N4S+
315.1442	5	C17H21N4[34]S+
