Mass spectrum: Mirtazapine; LC-ESI-QTOF; MS2; HILIC; CE: 30 eV; R=35000; [M+H]+
Name: Mirtazapine
Formula: C17H19N3
Exact mass: 265.1578976
SMILES: CN1CCN2C(C1)C1=C(CC3=C2N=CC=C3)C=CC=C1
InChI: InChI=1S/C17H19N3/c1-19-9-10-20-16(12-19)15-7-3-2-5-13(15)11-14-6-4-8-18-17(14)20/h2-8,16H,9-12H2,1H3
Instrument: Bruker maXis Impact
Instrument type: LC-ESI-QTOF
Ms type: MS2
Ion mode: POSITIVE
Ionization: ESI
Fragmentation mode: CID
Collision energy: 30 eV
Resolution: 35000
Column name: ACQUITY UPLC BEH Amide 1.7 um 2.1x100 mm, Waters
Retention time: 6.029 min
Base peak: 266.1662
Precursor m/z: 266.1652
Precursor type: [M+H]+
m/z	relative intensity	assigned
115.0538	6	C9H7+
144.0799	9	C10H10N+
167.0717	6	C12H9N+
168.079	6	C12H10N+
180.0798	19	C13H10N+
182.0954	23	C13H12N+
192.0797	6	C14H10N+
194.0831	62	C13H10N2+
195.0921	999	C13H11N2+
197.0971	10	C11[13]C2H11N2+
207.0905	9	C14H11N2+
209.1066	301	C14H13N2+
210.1099	32	C13[13]CH13N2+
218.0949	5	C16H12N+
219.0913	7	C15H11N2+
220.0979	8	C15H12N2+
223.1222	36	C15H15N2+
224.1251	5	C14[13]CH15N2+
235.1222	51	C16H15N2+
236.125	8	C15[13]CH15N2+
264.1484	13	C17H18N3+
266.1646	61	C17H20N3+
267.1675	10	C16[13]CH20N3+
