Mass spectrum: Ketamine; LC-ESI-QTOF; MS2; CE: 40 eV; R=35000; [M+H]+
Name: Ketamine
Name: 2-(2-chlorophenyl)-2-(methylamino)cyclohexan-1-one
Formula: C13H16ClNO
Exact mass: 237.0920418
SMILES: CNC1(CCCCC1=O)C1=CC=CC=C1Cl
InChI: InChI=1S/C13H16ClNO/c1-15-13(9-5-4-8-12(13)16)10-6-2-3-7-11(10)14/h2-3,6-7,15H,4-5,8-9H2,1H3
Instrument: Bruker maXis Impact
Instrument type: LC-ESI-QTOF
Ms type: MS2
Ion mode: POSITIVE
Ionization: ESI
Fragmentation mode: CID
Collision energy: 40 eV
Resolution: 35000
Column name: Acclaim RSLC C18 2.2um, 2.1x100mm, Thermo
Retention time: 4.537 min
Base peak: 238.0991
Precursor m/z: 238.0993
Precursor type: [M+H]+
m/z	relative intensity	assigned
115.0536	44	C9H7+
116.0607	25	C9H8+
125.0144	999	C7H6Cl+
126.0177	54	C6[13]CH6Cl+
127.0114	243	C7H6[37]Cl+
128.0145	10	C8H2NO+
128.0611	106	C10H8+
129.0685	79	C10H9+
130.0759	37	C10H10+
138.9933	5	C7H4ClO+
141.0088	20	C7H6ClO+
141.0687	12	C11H9+
142.0759	9	C11H10+
143.0056	6	C7H6[37]ClO+
143.0837	9	C11H11+
144.0563	7	C10H8O+
144.0919	16	C11H12+
145.0633	12	C10H9O+
149.014	13	C9H6Cl+
151.0296	38	C9H8Cl+
152.025	27	C8H7ClN+
152.0608	21	C12H8+
153.0266	12	C9H8[37]Cl+
153.0684	49	C12H9+
154.0219	8	C8H7[37]ClN+
154.0762	42	C12H10+
155.0587	21	C9H12Cl+
155.0812	8	C11[13]CH10+
156.0915	7	C12H12+
157.0874	9	C11H11N+
163.0297	46	C10H8Cl+
164.0338	5	C9[13]CH8Cl+
165.0089	50	C9H6ClO+
165.0268	12	C10H8[37]Cl+
165.045	8	C10H10Cl+
166.0127	5	C8[13]CH6ClO+
167.0058	14	C9H6[37]ClO+
179.0611	7	C11H12Cl+
