Mass spectrum: Mirtazapine; LC-ESI-QTOF; MS2; HILIC; CE: 50 eV; R=35000; [M+H]+
Name: Mirtazapine
Formula: C17H19N3
Exact mass: 265.1578976
SMILES: CN1CCN2C(C1)C1=C(CC3=C2N=CC=C3)C=CC=C1
InChI: InChI=1S/C17H19N3/c1-19-9-10-20-16(12-19)15-7-3-2-5-13(15)11-14-6-4-8-18-17(14)20/h2-8,16H,9-12H2,1H3
Instrument: Bruker maXis Impact
Instrument type: LC-ESI-QTOF
Ms type: MS2
Ion mode: POSITIVE
Ionization: ESI
Fragmentation mode: CID
Collision energy: 50 eV
Resolution: 35000
Column name: ACQUITY UPLC BEH Amide 1.7 um 2.1x100mm, Water
Retention time: 6.029 min
Base peak: 266.1663
Precursor m/z: 266.1652
Precursor type: [M+H]+
m/z	relative intensity	assigned
115.0539	19	C9H7+
116.049	6	C8H6N+
117.0442	7	C7H5N2+
128.0611	5	C10H8+
130.0647	21	C9H8N+
131.0597	9	C8H7N2+
131.0717	10	C9H9N+
139.0538	6	C11H7+
141.0692	16	C11H9+
144.08	17	C10H10N+
151.0537	16	C12H7+
152.0608	14	C12H8+
153.0578	8	C11H7N+
153.0682	8	C12H9+
154.0643	10	C11H8N+
165.0689	13	C13H9+
166.0645	20	C12H8N+
167.0724	128	C12H9N+
168.0796	98	C12H10N+
169.0647	8	C10H7N3+
177.0568	9	C13H7N+
178.0645	59	C13H8N+
179.0716	58	C13H9N+
180.0798	78	C13H10N+
182.0952	12	C13H12N+
191.0721	12	C14H9N+
192.0785	11	C14H10N+
193.0756	54	C13H9N2+
194.0834	943	C13H10N2+
195.0911	999	C13H11N2+
197.0979	5	C12H11N3+
205.0756	12	C14H9N2+
206.0819	10	C14H10N2+
207.0909	23	C14H11N2+
208.0976	9	C14H12N2+
209.1066	32	C14H13N2+
218.0839	8	C15H10N2+
219.0909	37	C15H11N2+
220.0957	8	C15H12N2+
221.1061	5	C15H13N2+
