Mass spectrum: Lorazepam; LC-ESI-QTOF; MS2; CE: 10 eV; R=35000; [M+H]+
Name: Lorazepam
Name: 7-chloro-5-(2-chlorophenyl)-3-hydroxy-1,3-dihydro-1,4-benzodiazepin-2-one
Formula: C15H10Cl2N2O2
Exact mass: 320.0119329
SMILES: OC1N=C(C2=CC=CC=C2Cl)C2=C(NC1=O)C=CC(Cl)=C2
InChI: InChI=1S/C15H10Cl2N2O2/c16-8-5-6-12-10(7-8)13(19-15(21)14(20)18-12)9-3-1-2-4-11(9)17/h1-7,15,21H,(H,18,20)
Instrument: Bruker maXis Impact
Instrument type: LC-ESI-QTOF
Ms type: MS2
Ion mode: POSITIVE
Ionization: ESI
Fragmentation mode: CID
Collision energy: 10 eV
Resolution: 35000
Column name: Acclaim RSLC C18 2.2um, 2.1x100mm, Thermo
Retention time: 8.266 min
Base peak: 278.1897
Precursor m/z: 321.0192
Precursor type: [M+H]+
m/z	relative intensity	assigned
275.0137	27	C14H9Cl2N2+
277.0123	15	C14H9Cl[37]ClN2+
303.0068	102	C15H9Cl2N2O+
304.0125	16	C14[13]CH9Cl2N2O+
305.0048	67	C15H9Cl[37]ClN2O+
306.006	9	C15H10Cl2NO2+
321.0183	999	C15H11Cl2N2O2+
322.0211	202	C14[13]CH11Cl2N2O2+
323.0161	660	C15H11Cl[37]ClN2O2+
