Mass spectrum: Lamotrigine; LC-ESI-QTOF; MS2; CE: 40 eV; R=35000; [M+H]+
Name: Lamotrigine
Name: 6-(2,3-dichlorophenyl)-1,2,4-triazine-3,5-diamine
Formula: C9H7Cl2N5
Exact mass: 255.0078506
SMILES: NC1=NC(N)=C(N=N1)C1=C(Cl)C(Cl)=CC=C1
InChI: InChI=1S/C9H7Cl2N5/c10-5-3-1-2-4(6(5)11)7-8(12)14-9(13)16-15-7/h1-3H,(H4,12,13,14,16)
Instrument: Bruker maXis Impact
Instrument type: LC-ESI-QTOF
Ms type: MS2
Ion mode: POSITIVE
Ionization: ESI
Fragmentation mode: CID
Collision energy: 40 eV
Resolution: 35000
Column name: Acclaim RSLC C18 2.2um, 2.1x100mm, Thermo
Retention time: 5.116 min
Base peak: 256.0151
Precursor m/z: 256.0151
Precursor type: [M+H]+
m/z	relative intensity	assigned
110.9987	7	C6H4Cl+
114.0336	10	C8H4N+
115.028	14	C7H3N2+
115.0393	8	C8H5N+
116.0347	6	C7H4N2+
116.0488	10	C8H6N+
120.9593	7	C4H3Cl2+
122.9988	211	C7H4Cl+
123.9943	130	C6H3ClN+
124.997	63	C7H4[37]Cl+
125.9913	31	C6H3[37]ClN+
126.994	17	C4H2ClN3+
127.0173	9	C7HN3+
128.0018	17	C4H3ClN3+
129.0438	20	C8H5N2+
130.0504	6	C8H6N2+
131.0594	168	C8H7N2+
132.0628	13	C7[13]CH7N2+
132.9597	87	C5H3Cl2+
133.9651	5	C4[13]CH3Cl2+
134.9567	56	C5H3Cl[37]Cl+
135.9934	19	C7H3ClN+
137.0012	8	C7H4ClN+
138.0094	133	C7H5ClN+
139.0164	29	C7H6ClN+
140.0061	30	C7H5[37]ClN+
141.0126	11	C7H6[37]ClN+
141.0431	10	C9H5N2+
142.0386	5	C8H4N3+
143.0473	20	C8H5N3+
144.053	8	C8H6N3+
144.9592	98	C6H3Cl2+
145.0028	7	CH7Cl2N4+
145.9671	12	C6H4Cl2+
146.9566	62	C6H3Cl[37]Cl+
146.9754	27	C6H5Cl2+
147.9652	6	C6H4Cl[37]Cl+
147.9934	47	C8H3ClN+
148.9731	15	C6H5Cl[37]Cl+
149.001	22	C8H4ClN+
149.9909	7	C8H3[37]ClN+
150.0093	63	C9N3+
151.0052	81	C7H4ClN2+
151.0171	572	C8H6ClN+
152.0125	501	C7H5ClN2+
153.0146	165	C8H6[37]ClN+
154.009	140	C7H5[37]ClN2+
154.9999	17	C4H2ClN5+
156.9595	708	C7H3Cl2+
157.9624	56	C6[13]CH3Cl2+
158.0588	9	C8H6N4+
158.0687	12	C9H8N3+
158.9565	384	C7H3Cl[37]Cl+
158.9751	713	C7H5Cl2+
159.9708	296	C6H4Cl2N+
160.9722	420	C7H5Cl[37]Cl+
161.9675	168	C6H4Cl[37]ClN+
162.97	58	C4H3Cl2N3+
163.0048	16	C8H4ClN2+
163.9999	135	C7H3ClN3+
164.9672	37	C4H3Cl[37]ClN3+
165.0203	387	C8H6ClN2+
166.028	833	C8H7ClN2+
167.0172	98	C8H6[37]ClN2+
167.0305	62	C7[13]CH7ClN2+
168.0248	188	C8H7[37]ClN2+
169.0156	11	C5H4ClN5+
169.0283	11	C6H6ClN4+
170.9622	208	C7H3Cl2N+
171.9703	717	C7H4Cl2N+
172.9653	787	C6H3Cl2N2+
173.9676	465	C7H4Cl[37]ClN+
173.9856	134	C7H6Cl2N+
174.9626	450	C6H3Cl[37]ClN2+
175.9656	21	C4H2Cl2N4+
175.983	95	C7H6Cl[37]ClN+
176.0127	49	C9H5ClN2+
177.0072	31	C8H4ClN3+
178.0153	168	C8H5ClN3+
179.0224	84	C8H6ClN3+
180.0127	32	C8H5[37]ClN3+
180.0295	33	C8H7ClN3+
181.0196	23	C8H6[37]ClN3+
182.0256	7	C8H7[37]ClN3+
183.9703	521	C8H4Cl2N+
184.9766	98	C9ClN3+
185.0703	10	C9H7N5+
185.9674	270	C8H4Cl[37]ClN+
185.9851	74	C9HClN3+
186.076	24	C9H8N5+
186.9811	714	C8ClN4+
187.9838	92	C7[13]CClN4+
189.9811	55	C5H4Cl2N4+
190.9838	6	C5H5Cl2N4+
191.0236	6	C9H6ClN3+
191.9779	18	C5H4Cl[37]ClN4+
192.0296	9	C9H7ClN3+
193.0392	28	C9H8ClN3+
194.0348	39	C8H7ClN4+
194.9621	65	C9H3Cl2N+
195.0383	13	C9H8[37]ClN3+
195.966	5	C8[13]CH3Cl2N+
196.0324	13	C8H7[37]ClN4+
196.9642	81	C8H3Cl2N2+
197.9698	8	C7[13]CH3Cl2N2+
198.9635	32	C8H3Cl[37]ClN2+
198.9791	12	C8H5Cl2N2+
199.9902	11	C8H6Cl2N2+
200.9781	9	C8H5Cl[37]ClN2+
201.9833	17	C6H4Cl2N4+
203.0108	5	C9H4ClN4+
203.977	6	C6H4Cl[37]ClN4+
204.0187	12	C9H5ClN4+
206.0169	5	C9H5[37]ClN4+
209.9737	8	C9H4Cl2N2+
210.9817	976	C9H5Cl2N2+
211.9778	328	C8H4Cl2N3+
212.9789	612	C9H5Cl[37]ClN2+
213.9746	178	C8H4Cl[37]ClN3+
214.9771	12	C6H3Cl2N5+
214.9986	5	C9H2ClN5+
220.0373	170	C9H7ClN5+
221.042	30	C9H8ClN5+
222.0342	38	C9H7[37]ClN5+
223.0401	8	C9H8[37]ClN5+
227.0002	12	C9H7Cl2N3+
229.0033	175	C8H7Cl2N4+
230.0052	11	C7[13]CH7Cl2N4+
231.0001	93	C8H7Cl[37]ClN4+
238.9892	8	C9H5Cl2N4+
240.985	8	C9H5Cl[37]ClN4+
256.0146	999	C9H8Cl2N5+
257.0172	103	C8[13]CH8Cl2N5+
258.0113	565	C9H8Cl[37]ClN5+
