Mass spectrum: Olanzapine; LC-ESI-QTOF; MS2; HILIC; CE: 50 eV; R=35000; [M+H]+
Name: Olanzapine
Formula: C17H20N4S
Exact mass: 312.1408676
SMILES: Cc1cc2c(s1)Nc3ccccc3N=C2N4CCN(CC4)C
InChI: InChI=1S/C17H20N4S/c1-12-11-13-16(21-9-7-20(2)8-10-21)18-14-5-3-4-6-15(14)19-17(13)22-12/h3-6,11,19H,7-10H2,1-2H3
Instrument: Bruker maXis Impact
Instrument type: LC-ESI-QTOF
Ms type: MS2
Ion mode: POSITIVE
Ionization: ESI
Fragmentation mode: CID
Collision energy: 50 eV
Resolution: 35000
Column name: ACQUITY UPLC BEH Amide 1.7 um 2.1x100mm, Water
Retention time: 6.732 min
Base peak: 313.1479
Precursor m/z: 313.1481
Precursor type: [M+H]+
m/z	relative intensity	assigned
115.0539	21	C9H7+
132.0672	5	C8H8N2+
140.049	13	C10H6N+
142.052	5	C9H6N2+
142.0645	34	C10H8N+
143.0597	7	C9H7N2+
146.0048	7	C8H4NS+
146.0175	23	C9H6S+
152.0491	6	C11H6N+
153.0562	15	C11H7N+
154.0531	7	C10H6N2+
154.0634	20	C11H8N+
155.0594	26	C10H7N2+
167.0596	18	C11H7N2+
168.0666	32	C11H8N2+
169.0756	511	C11H9N2+
170.0599	6	C9H6N4+
170.0788	45	C10[13]CH9N2+
171.0127	13	C10H5NS+
173.0164	29	C9H5N2S+
173.0274	21	C13H3N+
174.0221	6	C12H2N2+
179.0596	171	C12H7N2+
180.0673	282	C12H8N2+
181.0723	46	C11[13]CH8N2+
182.0818	16	C12H10N2+
183.0809	5	C8H13N3S+
183.0886	6	C12H11N2+
184.0867	5	C11H10N3+
185.0283	13	C11H7NS+
186.0365	220	C11H8NS+
187.0408	31	C10[13]CH8NS+
188.0331	8	C11H8N[34]S+
193.0754	7	C13H9N2+
194.0711	14	C12H8N3+
195.0786	51	C12H9N3+
196.0849	25	C12H10N3+
197.0162	13	C11H5N2S+
197.0929	5	C11[13]CH10N3+
197.101	5	C9H15N3S+
198.0243	999	C11H6N2S+
199.0268	103	C10[13]CH6N2S+
200.0199	36	C11H6N2[34]S+
200.0503	13	C15H6N+
201.0474	21	C11H9N2S+
206.0826	6	C14H10N2+
207.0789	11	C13H9N3+
208.0858	19	C13H10N3+
209.0924	8	C13H11N3+
211.0317	41	C12H7N2S+
212.0398	209	C12H8N2S+
213.0472	289	C12H9N2S+
214.052	53	C11[13]CH9N2S+
215.0441	10	C12H9N2[34]S+
215.0619	17	C15H7N2+
220.0859	12	C14H10N3+
221.0934	9	C14H11N3+
222.1022	120	C14H12N3+
223.1079	43	C14H13N3+
224.0392	10	C13H8N2S+
224.1169	32	C14H14N3+
225.0466	13	C13H9N2S+
226.0541	22	C16H6N2+
227.0625	37	C13H11N2S+
228.0597	19	C12H10N3S+
229.0637	8	C15H7N3+
229.0756	7	C16H9N2+
238.052	5	C17H6N2+
239.0627	26	C14H11N2S+
240.059	36	C13H10N3S+
241.0653	30	C13H11N3S+
248.1176	13	C16H14N3+
250.133	7	C16H16N3+
252.0595	5	C14H10N3S+
254.0732	22	C14H12N3S+
255.0791	11	C17H9N3+
256.0897	254	C14H14N3S+
257.0926	40	C13[13]CH14N3S+
258.0865	10	C14H14N3[34]S+
266.0729	7	C15H12N3S+
282.1052	55	C16H16N3S+
283.1094	9	C15[13]CH16N3S+
