Mass spectrum: Sertraline; LC-ESI-QTOF; MS2; CE: Ramp 21.7-32.6 eV; R=35000; [M+H]+
Name: Sertraline
Name: (1S,4S)-4-(3,4-dichlorophenyl)-N-methyl-1,2,3,4-tetrahydronaphthalen-1-amine
Formula: C17H17Cl2N
Exact mass: 305.0738049
SMILES: CN[C@H]1CC[C@@H](C2=CC=C(Cl)C(Cl)=C2)C2=CC=CC=C12
InChI: InChI=1S/C17H17Cl2N/c1-20-17-9-7-12(13-4-2-3-5-14(13)17)11-6-8-15(18)16(19)10-11/h2-6,8,10,12,17,20H,7,9H2,1H3/t12-,17-/m0/s1
Instrument: Bruker maXis Impact
Instrument type: LC-ESI-QTOF
Ms type: MS2
Ion mode: POSITIVE
Ionization: ESI
Fragmentation mode: CID
Collision energy: Ramp 21.7-32.6 eV
Resolution: 35000
Column name: Acclaim RSLC C18 2.2um, 2.1x100mm, Thermo
Retention time: 8.741 min
Base peak: 306.0811
Precursor m/z: 306.0811
Precursor type: [M+H]+
m/z	relative intensity	assigned
91.0547	110	C7H7+
92.058	6	C6[13]CH7+
115.055	10	C9H7+
122.9987	7	C7H4Cl+
128.0613	24	C10H8+
129.0699	256	C10H9+
130.073	23	C9[13]CH9+
155.0589	5	C9H12Cl+
158.9754	999	C7H5Cl2+
159.9788	68	C6[13]CH5Cl2+
160.9725	520	C7H5Cl[37]Cl+
196.9915	13	C10H7Cl2+
198.9888	8	C10H7Cl[37]Cl+
205.1002	6	C16H13+
240.0694	20	C16H13Cl+
275.0391	268	C16H13Cl2+
276.0421	61	C15[13]CH13Cl2+
277.0363	175	C16H13Cl[37]Cl+
