Mass spectrum: Midazolam; LC-ESI-QTOF; MS2; HILIC; CE: 50 eV; R=35000; [M+H]+
Name: Midazolam
Name: 8-chloro-6-(2-fluorophenyl)-1-methyl-4H-imidazo[1,5-a][1,4]benzodiazepine
Formula: C18H13ClFN3
Exact mass: 325.0782033
SMILES: CC1=NC=C2N1C3=C(C=C(C=C3)Cl)C(=NC2)C4=CC=CC=C4F
InChI: InChI=1S/C18H13ClFN3/c1-11-21-9-13-10-22-18(14-4-2-3-5-16(14)20)15-8-12(19)6-7-17(15)23(11)13/h2-9H,10H2,1H3
Instrument: Bruker maXis Impact
Instrument type: LC-ESI-QTOF
Ms type: MS2
Ion mode: POSITIVE
Ionization: ESI
Fragmentation mode: CID
Collision energy: 50 eV
Resolution: 35000
Column name: ACQUITY UPLC BEH Amide 1.7 um 2.1x100mm, Water
Retention time: 2.016 min
Base peak: 326.0871
Precursor m/z: 326.0855
Precursor type: [M+H]+
m/z	relative intensity	assigned
115.0537	6	C4H6FN3+
120.0366	5	C8H5F+
121.0443	13	C8H6F+
122.0398	6	C7H5FN+
127.0409	14	C9H5N+
128.049	81	C9H6N+
129.0568	155	C9H7N+
137.0148	28	C3H5ClFN3+
138.0112	5	C7H5ClN+
140.0486	5	C10H6N+
142.0642	7	C10H8N+
143.0723	7	C10H9N+
146.0394	18	C9H5FN+
147.047	41	C9H6FN+
148.0548	22	C9H7FN+
152.0256	27	C8H7ClN+
153.044	16	C10H5N2+
154.0226	6	C11H3F+
154.0399	6	C9H4N3+
154.0511	8	C10H6N2+
155.0596	25	C10H7N2+
162.0098	52	C9H5ClN+
162.0707	8	C10H9FN+
163.0054	33	C8H4ClN2+
163.016	33	C10HN3+
163.0533	5	C8H6FN3+
164.005	22	C12HF+
164.0252	33	C10H2N3+
164.061	14	C8H7FN3+
165.0029	9	C11FN+
165.0139	10	C12H2F+
166.0225	9	C12H3F+
168.0671	8	C11H8N2+
169.0751	22	C11H9N2+
170.0523	5	C12H7F+
170.0831	41	C11H10N2+
173.0503	19	C10H6FN2+
174.0576	11	C10H7FN2+
175.0535	7	C9H6FN3+
176.0606	7	C9H7FN3+
177.0209	12	C9H6ClN2+
177.0568	29	C13H7N+
178.0414	10	C10H9ClN+
180.0205	7	C12H3FN+
181.0442	11	C13H6F+
182.0521	103	C13H7F+
183.0599	232	C13H8F+
184.0665	60	C13H9F+
185.0701	7	C8H12ClN3+
186.0468	12	C15H6+
187.0653	6	C11H8FN2+
189.021	152	C10H6ClN2+
189.0819	10	C11H10FN2+
190.0249	18	C14H3F+
191.0179	38	C13H2FN+
195.0592	7	C14H8F+
195.0785	7	C12H9N3+
196.0678	115	C14H9F+
196.086	11	C12H10N3+
197.0703	14	C9H12ClN3+
198.0704	5	C13H9FN+
201.0569	13	C15H7N+
202.0644	43	C15H8N+
203.0361	9	C11H8ClN2+
203.072	75	C15H9N+
204.0783	21	C15H10N+
205.0517	12	C11H10ClN2+
208.0555	189	C14H7FN+
209.0631	740	C14H8FN+
210.0676	91	C14H9FN+
211.0766	12	C14H10FN+
214.0765	8	C12H9FN3+
215.0844	28	C12H10FN3+
217.0211	59	C13H7ClF+
218.0244	8	C14H3FN2+
219.0183	15	C13H2FN3+
220.0752	12	C12H13ClN2+
221.0634	21	C15H8FN+
222.0711	507	C15H9FN+
223.0787	873	C15H10FN+
224.0257	15	C14H7ClN+
224.0829	107	C15H11FN+
225.0862	6	C14H10FN2+
226.0655	8	C17H8N+
227.0724	9	C17H9N+
228.0682	7	C16H8N2+
229.0756	79	C16H9N2+
230.0472	13	C12H9ClN3+
230.0816	30	C16H10N2+
231.0548	20	C12H10ClN3+
231.0903	14	C16H11N2+
232.0339	6	C13H8ClFN+
232.0549	12	C16H7FN+
233.062	25	C16H8FN+
234.069	8	C16H9FN+
235.0778	11	C16H10FN+
236.0826	12	C16H11FN+
237.0936	27	C16H12FN+
238.0408	17	C16H4N3+
238.065	6	C18H8N+
240.0382	6	C18H5F+
241.021	10	C15H7ClF+
242.0172	9	C14H6ClFN+
242.0833	8	C17H10N2+
243.0218	8	C15H2FN3+
243.0913	38	C17H11N2+
244.0321	68	C14H8ClFN+
244.0956	6	C17H12N2+
245.0389	32	C15H4FN3+
246.0291	18	C17H7Cl+
247.0364	9	C17H8Cl+
247.0692	7	C15H13ClF+
248.0763	8	C15H14ClF+
249.0821	999	C16H10FN2+
250.0884	338	C16H11FN2+
251.0937	38	C16H12FN2+
253.0755	13	C18H9N2+
254.0808	5	C18H10N2+
255.0687	54	C15H12ClN2+
256.0323	14	C15H8ClFN+
256.0735	8	C15H13ClN2+
256.0812	7	C15H13ClN2+
257.0358	44	C16H4FN3+
258.0475	163	C15H10ClFN+
259.0485	23	C14H9ClFN2+
260.045	42	C14H10ClFN2+
261.081	8	C17H10FN2+
262.0889	6	C17H11FN2+
263.0974	32	C17H12FN2+
264.1038	10	C17H13FN2+
265.0523	44	C16H10ClN2+
266.0564	8	C16H11ClN2+
268.0321	11	C16H8ClFN+
269.0379	6	C17H4FN3+
270.0334	7	C15H8ClFN2+
270.1023	37	C18H12N3+
271.0409	7	C15H9ClFN2+
271.1085	19	C18H13N3+
272.0497	6	C15H10ClFN2+
273.0578	9	C15H11ClFN2+
273.0816	27	C18H10FN2+
274.0881	17	C18H11FN2+
275.0882	6	C17H10FN3+
276.0928	43	C17H11FN3+
277.0954	6	C17H12FN3+
282.0471	6	C18H5FN3+
283.0432	41	C16H9ClFN2+
284.0505	62	C16H10ClFN2+
285.058	72	C16H11ClFN2+
286.0507	17	C15H10ClFN3+
287.0556	18	C15H11ClFN3+
288.0935	11	C18H11FN3+
289.0527	128	C18H10ClN2+
289.1005	7	C18H12FN3+
290.0548	22	C18H11ClN2+
290.1086	76	C18H13FN3+
291.0506	35	C17H10ClN3+
291.1166	547	C18H14FN3+
292.0583	5	C17H11ClN3+
297.0584	9	C17H11ClFN2+
299.0737	7	C17H13ClFN2+
306.0775	5	C18H13ClN3+
307.0431	36	C18H9ClFN2+
308.0488	9	C18H10ClFN2+
309.0578	49	C18H11ClFN2+
310.059	16	C17H10ClFN3+
311.0591	27	C17H11ClFN3+
325.0777	26	C18H13ClFN3+
326.0829	12	C18H14ClFN3+
