Mass spectrum: Paroxetine; LC-ESI-QTOF; MS2; CE: 40 eV; R=35000; [M+H]+
Name: Paroxetine
Name: 3-[(1,3-Benzodioxol-5-yloxy)methyl]-4-(4-fluorophenyl)piperidine
Name: 3-(1,3-benzodioxol-5-yloxymethyl)-4-(4-fluorophenyl)piperidine
Formula: C19H20FNO3
Exact mass: 329.1427217
SMILES: FC1=CC=C(C=C1)C1CCNCC1COC1=CC2=C(OCO2)C=C1
InChI: InChI=1S/C19H20FNO3/c20-15-3-1-13(2-4-15)17-7-8-21-10-14(17)11-22-16-5-6-18-19(9-16)24-12-23-18/h1-6,9,14,17,21H,7-8,10-12H2
Instrument: Bruker maXis Impact
Instrument type: LC-ESI-QTOF
Ms type: MS2
Ion mode: POSITIVE
Ionization: ESI
Fragmentation mode: CID
Collision energy: 40 eV
Resolution: 35000
Column name: Acclaim RSLC C18 2.2um, 2.1x100mm, Thermo
Retention time: 7.573 min
Base peak: 237.1021
Precursor m/z: 330.15
Precursor type: [M+H]+
m/z	relative intensity	assigned
109.045	16	C7H6F+
115.0538	50	C9H7+
116.0599	11	C9H8+
121.0279	16	C7H5O2+
121.0441	24	C8H6F+
122.0513	10	C8H7F+
123.0428	53	C7H7O2+
123.0597	387	C8H8F+
124.0638	44	C7[13]CH8F+
128.0607	21	C10H8+
129.0684	10	C10H9+
130.0654	18	C9H8N+
133.0285	12	C8H5O2+
133.0441	119	C9H6F+
134.0507	33	C9H7F+
135.0596	950	C9H8F+
136.0662	309	C9H9F+
137.0223	11	C7H5O3+
137.0727	21	C8[13]CH9F+
138.029	15	C7H6O3+
138.0709	32	C8H9FN+
139.0377	48	C7H7O3+
141.0685	14	C11H9+
143.0849	39	C11H11+
145.0629	11	C10H9O+
146.0517	78	C10H7F+
147.0591	225	C10H8F+
148.0665	179	C10H9F+
149.0745	124	C10H10F+
150.0704	168	C9H9FN+
151.038	576	C8H7O3+
152.0417	63	C7[13]CH7O3+
153.0412	10	C7H7NO3+
155.0593	14	C7H9NO3+
160.0675	21	C11H9F+
161.0746	358	C11H10F+
162.0777	43	C10[13]CH10F+
163.0906	651	C11H12F+
164.0883	125	C10H11FN+
165.0908	16	C9[13]CH11FN+
173.0505	7	C7H8FNO3+
175.0382	16	C10H7O3+
175.0915	44	C12H12F+
176.0462	9	C10H8O3+
176.0982	40	C12H13F+
177.0536	10	C10H9O3+
177.0932	7	C8H14FO3+
177.1018	7	C11[13]CH13F+
178.1013	224	C11H13FN+
179.105	32	C10[13]CH13FN+
187.0756	7	C12H11O2+
189.0519	8	C11H9O3+
190.1023	38	C12H13FN+
192.1176	999	C12H15FN+
193.1216	172	C11[13]CH15FN+
194.1241	10	C10[13]C2H15FN+
330.1498	59	C19H21FNO3+
331.155	16	C18[13]CH21FNO3+
