Mass spectrum: Diacetylmorphine (Heroin); LC-ESI-QTOF; MS2; HILIC; CE: 40 eV; R=35000; [M+H]+
Name: Diacetylmorphine (Heroin)
Name: Diacetylmorphine
Name: [(4R,4aR,7S,7aR,12bS)-9-acetyloxy-3-methyl-2,4,4a,7,7a,13-hexahydro-1H-4,12-methanobenzofuro[3,2-e]isoquinoline-7-yl] acetate
Formula: C21H23NO5
Exact mass: 369.1576228
SMILES: CC(=O)Oc1ccc2c3c1O[C@@H]4[C@]35CCN([C@H](C2)[C@@H]5C=C[C@@H]4OC(=O)C)C
InChI: InChI=1S/C21H23NO5/c1-11(23)25-16-6-4-13-10-15-14-5-7-17(26-12(2)24)20-21(14,8-9-22(15)3)18(13)19(16)27-20/h4-7,14-15,17,20H,8-10H2,1-3H3/t14-,15+,17-,20-,21-/m0/s1
Instrument: Bruker maXis Impact
Instrument type: LC-ESI-QTOF
Ms type: MS2
Ion mode: POSITIVE
Ionization: ESI
Fragmentation mode: CID
Collision energy: 40 eV
Resolution: 35000
Column name: ACQUITY UPLC BEH Amide 1.7 um 2.1x100mm, Waters
Retention time: 5.993 min
Base peak: 370.166
Precursor m/z: 370.1649
Precursor type: [M+H]+
m/z	relative intensity	assigned
123.0447	18	C7H7O2+
132.0796	17	C9H10N+
133.0872	17	C6H13O3+
137.0596	28	C8H9O2+
141.0701	34	C11H9+
144.0808	22	C10H10N+
145.0651	25	C10H9O+
146.0942	18	C7H14O3+
147.0437	31	C9H7O2+
152.061	25	C12H8+
153.0692	41	C12H9+
154.0747	14	C12H10+
155.0848	46	C12H11+
157.0635	42	C11H9O+
158.0948	15	C8H14O3+
159.1029	14	C8H15O3+
161.0594	86	C10H9O2+
164.108	17	C10H14NO+
165.0692	412	C13H9+
166.0732	77	C12[13]CH9+
167.0856	22	C13H11+
168.057	17	C12H8O+
169.0644	35	C12H9O+
173.0591	52	C11H9O2+
173.096	17	C12H13O+
178.0848	28	C7H14O5+
179.0855	76	C14H11+
181.0644	213	C13H9O+
181.1012	45	C14H13+
182.0699	32	C13H10O+
183.08	204	C13H11O+
184.0847	25	C13H12O+
184.1133	17	C13H14N+
185.0592	65	C12H9O2+
186.066	24	C12H10O2+
187.0748	77	C12H11O2+
191.0848	323	C15H11+
192.088	54	C14[13]CH11+
193.0641	515	C14H9O+
193.101	34	C15H13+
194.0686	97	C13[13]CH9O+
197.0583	18	C13H9O2+
197.0966	21	C14H13O+
198.0651	17	C13H10O2+
199.0738	39	C13H11O2+
201.0902	186	C13H13O2+
202.0897	52	C12H12NO2+
203.07	38	C12H11O3+
203.0879	21	C16H11+
207.0795	105	C15H11O+
208.0852	16	C15H12O+
209.0591	416	C14H9O2+
209.0958	124	C15H13O+
210.0634	62	C13[13]CH9O2+
211.0752	992	C14H11O2+
212.0784	178	C13[13]CH11O2+
213.0823	40	C13H11NO2+
213.0895	34	C14H13O2+
218.0718	26	C16H10O+
219.0797	339	C16H11O+
220.0835	60	C15[13]CH11O+
220.1092	14	C13H16O3+
221.0951	77	C16H13O+
222.0643	15	C15H10O2+
222.0918	18	C15H12NO+
222.1258	39	C13H18O3+
223.0744	16	C15H11O2+
225.0915	99	C15H13O2+
226.0889	15	C14H12NO2+
226.0965	19	C15H14O2+
227.0695	133	C14H11O3+
227.1091	27	C15H15O2+
229.0857	192	C14H13O3+
232.1097	14	C14H16O3+
235.0972	17	C13H15O4+
236.1064	15	C16H14NO+
237.0906	292	C16H13O2+
238.0942	87	C16H14O2+
239.1048	78	C16H15O2+
240.1028	83	C15H14NO2+
240.1376	25	C16H18NO+
243.1022	20	C15H15O3+
248.1044	22	C14H16O4+
249.1166	15	C17H15NO+
250.1217	75	C17H16NO+
251.1276	24	C14H19O4+
252.1048	30	C16H14NO2+
253.0882	21	C19H11N+
253.1077	59	C13H17O5+
254.1138	18	C13H18O5+
255.1023	94	C16H15O3+
256.1045	18	C16H16O3+
266.1179	76	C17H16NO2+
267.1258	59	C17H17NO2+
268.1332	999	C17H18NO2+
269.0798	45	C16H13O4+
269.1368	224	C14H21O5+
270.1404	24	C13[13]CH21O5+
271.0978	16	C16H15O4+
282.1119	15	C17H16NO3+
286.1438	194	C17H20NO3+
287.1469	26	C16[13]CH20NO3+
310.1441	179	C19H20NO3+
311.149	36	C18[13]CH20NO3+
328.1545	674	C19H22NO4+
329.1586	116	C18[13]CH22NO4+
370.1655	965	C21H24NO5+
371.168	252	C20[13]CH24NO5+
