Mass spectrum: Olanzapine; LC-ESI-QTOF; MS2; HILIC; CE: 20 eV; R=35000; [M+H]+
Name: Olanzapine
Formula: C17H20N4S
Exact mass: 312.1408676
SMILES: Cc1cc2c(s1)Nc3ccccc3N=C2N4CCN(CC4)C
InChI: InChI=1S/C17H20N4S/c1-12-11-13-16(21-9-7-20(2)8-10-21)18-14-5-3-4-6-15(14)19-17(13)22-12/h3-6,11,19H,7-10H2,1-2H3
Instrument: Bruker maXis Impact
Instrument type: LC-ESI-QTOF
Ms type: MS2
Ion mode: POSITIVE
Ionization: ESI
Fragmentation mode: CID
Collision energy: 20 eV
Resolution: 35000
Column name: ACQUITY UPLC BEH Amide 1.7 um 2.1x100 mm, Waters
Retention time: 6.706 min
Base peak: 313.1487
Precursor m/z: 313.1481
Precursor type: [M+H]+
m/z	relative intensity	assigned
213.0469	12	C12H9N2S+
230.0736	15	C12H12N3S+
256.0895	453	C14H14N3S+
257.0923	56	C13[13]CH14N3S+
258.0862	12	C14H14N3[34]S+
282.105	30	C16H16N3S+
313.1479	999	C17H21N4S+
314.1505	182	C16[13]CH21N4S+
315.1455	32	C17H21N4[34]S+
