Mass spectrum: Amphetamine; LC-ESI-QTOF; MS2; HILIC; CE: 10 eV; R=35000; [M+H]+
Name: Amphetamine
Name: AMPHETAMINE
Name: 1-phenylpropan-2-amine
Formula: C9H13N
Exact mass: 135.1047994
SMILES: CC(Cc1ccccc1)N
InChI: InChI=1S/C9H13N/c1-8(10)7-9-5-3-2-4-6-9/h2-6,8H,7,10H2,1H3
Instrument: Bruker maXis Impact
Instrument type: LC-ESI-QTOF
Ms type: MS2
Ion mode: POSITIVE
Ionization: ESI
Fragmentation mode: CID
Collision energy: 10 eV
Resolution: 35000
Column name: ACQUITY  UPLC BEH Amide 1.7 um 2.1x100mm, Waters
Retention time: 6.481 min
Base peak: 136.1116
Precursor m/z: 136.1121
Precursor type: [M+H]+
m/z	relative intensity	assigned
119.085	999	C9H11+
120.0878	130	C8[13]CH11+
136.1112	877	C9H14N+
137.1148	79	C8[13]CH14N+
