Mass spectrum: Norclozapine; LC-ESI-QTOF; MS2; HILIC; CE: 50 eV; R=35000; [M+H]+
Name: Norclozapine
Formula: C17H17ClN4
Exact mass: 312.1141742
SMILES: ClC1=CC2=C(C=C1)N=C1C=CC=CC1=C(N2)N1CCNCC1
InChI: InChI=1S/C17H17ClN4/c18-12-5-6-15-16(11-12)21-17(22-9-7-19-8-10-22)13-3-1-2-4-14(13)20-15/h1-6,11,19,21H,7-10H2
Instrument: Bruker maXis Impact
Instrument type: LC-ESI-QTOF
Ms type: MS2
Ion mode: POSITIVE
Ionization: ESI
Fragmentation mode: CID
Collision energy: 50 eV
Resolution: 35000
Column name: ACQUITY UPLC BEH Amide 1.7 um 2.1x100mm, Water
Retention time: 6.482 min
Base peak: 411.2221
Precursor m/z: 313.1215
Precursor type: [M+H]+
m/z	relative intensity	assigned
123.9949	6	C6H3ClN+
164.0495	18	C12H6N+
165.0568	12	C12H7N+
191.0606	22	C13H7N2+
192.0688	999	C13H8N2+
193.072	99	C13H9N2+
194.0798	5	C12[13]CH9N2+
200.0261	10	C12H7ClN+
209.0714	7	C10H12ClN3+
218.0842	5	C15H10N2+
226.0297	34	C13H7ClN2+
227.0371	45	C13H8ClN2+
228.0272	8	C13H7[37]ClN2+
228.0413	8	C12[13]CH8ClN2+
229.0344	12	C13H8[37]ClN2+
253.0527	5	C15H10ClN2+
270.08	32	C15H13ClN3+
271.0825	5	C14[13]CH13ClN3+
272.077	9	C15H13[37]ClN3+
