Mass spectrum: Amitriptyline; LC-ESI-QTOF; MS2; CE: 50 eV; R=35000; [M+H]+
Name: Amitriptyline
Name: N,N-dimethyl-3-(2-tricyclo[9.4.0.03,8]pentadeca-1(15),3,5,7,11,13-hexaenylidene)propan-1-amine
Formula: C20H23N
Exact mass: 277.1830497
SMILES: CN(C)CCC=C1C2=CC=CC=C2CCC2=CC=CC=C12
InChI: InChI=1S/C20H23N/c1-21(2)15-7-12-20-18-10-5-3-8-16(18)13-14-17-9-4-6-11-19(17)20/h3-6,8-12H,7,13-15H2,1-2H3
Instrument: Bruker maXis Impact
Instrument type: LC-ESI-QTOF
Ms type: MS2
Ion mode: POSITIVE
Ionization: ESI
Fragmentation mode: CID
Collision energy: 50 eV
Resolution: 35000
Column name: Acclaim RSLC C18 2.2um, 2.1x100mm, Thermo
Retention time: 8.023 min
Base peak: 278.1905
Precursor m/z: 278.1903
Precursor type: [M+H]+
m/z	relative intensity	assigned
115.0536	182	C9H7+
116.0574	25	C8[13]CH7+
117.0692	88	C9H9+
118.0726	9	C8[13]CH9+
126.0453	10	C10H6+
127.0531	37	C10H7+
128.061	186	C10H8+
129.0687	125	C10H9+
130.0723	11	C9[13]CH9+
141.0688	91	C11H9+
142.0734	16	C10[13]CH9+
152.0609	49	C12H8+
153.0687	89	C12H9+
154.0756	43	C12H10+
155.084	69	C12H11+
156.0883	7	C11[13]CH11+
165.0686	155	C13H9+
166.0729	26	C12[13]CH9+
167.0835	6	C13H11+
176.0613	18	C14H8+
177.068	22	C14H9+
178.0769	713	C14H10+
179.083	196	C14H11+
180.0873	26	C13[13]CH11+
189.069	237	C15H9+
190.0764	286	C15H10+
191.0845	765	C15H11+
192.09	178	C14[13]CH11+
193.0972	34	C15H13+
201.0692	5	C16H9+
202.0769	389	C16H10+
203.0845	999	C16H11+
204.0911	339	C16H12+
205.0988	111	C16H13+
206.1032	18	C15[13]CH13+
215.0848	114	C17H11+
216.0911	70	C17H12+
217.1005	398	C17H13+
218.1067	181	C17H14+
219.1106	25	C16[13]CH14+
231.1162	7	C18H15+
