Mass spectrum: Risperidone; LC-ESI-QTOF; MS2; HILIC; CE: 50 eV; R=35000; [M+H]+
Name: Risperidone
Name: 3-[2-[4-(6-fluoro-1,2-benzoxazol-3-yl)piperidin-1-yl]ethyl]-2-methyl-6,7,8,9-tetrahydropyrido[1,2-a]pyrimidin-4-one
Formula: C23H27FN4O2
Exact mass: 410.2118043
SMILES: Cc1c(c(=O)n2c(n1)CCCC2)CCN3CCC(CC3)c4c5ccc(cc5on4)F
InChI: InChI=1S/C23H27FN4O2/c1-15-18(23(29)28-10-3-2-4-21(28)25-15)9-13-27-11-7-16(8-12-27)22-19-6-5-17(24)14-20(19)30-26-22/h5-6,14,16H,2-4,7-13H2,1H3
Instrument: Bruker maXis Impact
Instrument type: LC-ESI-QTOF
Ms type: MS2
Ion mode: POSITIVE
Ionization: ESI
Fragmentation mode: CID
Collision energy: 50 eV
Resolution: 35000
Column name: ACQUITY UPLC BEH Amide 1.7 um 2.1x100mm, Water
Retention time: 6.381 min
Base peak: 411.2207
Precursor m/z: 411.2191
Precursor type: [M+H]+
m/z	relative intensity	assigned
110.0604	11	C6H8NO+
123.0915	5	C7H11N2+
125.0708	12	C6H9N2O+
148.1121	53	C10H14N+
149.0708	5	C8H9N2O+
150.0788	52	C8H10N2O+
163.0866	82	C9H11N2O+
163.1231	77	C10H15N2+
164.0894	6	C8[13]CH11N2O+
164.1264	7	C9[13]CH15N2+
191.1198	999	C8H16FN2O2+
192.1218	960	C12H15FN+
193.1242	48	C11[13]CH15FN+
