Mass spectrum: 8-OH-Mirtazapine; LC-ESI-QTOF; MS2; HILIC; CE: 40 eV; R=35000; [M+H]+
Name: 8-OH-Mirtazapine
Name: 8-Hydroxymirtazapine
Formula: C17H19N3O
Exact mass: 281.1528122
SMILES: CN1CCN2C(C1)C1=CC=CC=C1CC1=CC(O)=CN=C21
InChI: InChI=1S/C17H19N3O/c1-19-6-7-20-16(11-19)15-5-3-2-4-12(15)8-13-9-14(21)10-18-17(13)20/h2-5,9-10,16,21H,6-8,11H2,1H3
Instrument: Bruker maXis Impact
Instrument type: LC-ESI-QTOF
Ms type: MS2
Ion mode: POSITIVE
Ionization: ESI
Fragmentation mode: CID
Collision energy: 40 eV
Resolution: 35000
Column name: ACQUITY UPLC BEH Amide 1.7 um 2.1x100mm, Waters
Retention time: 6.281 min
Base peak: 282.1599
Precursor m/z: 282.1601
Precursor type: [M+H]+
m/z	relative intensity	assigned
115.0541	6	C9H7+
130.0646	5	C9H8N+
141.0691	6	C11H9+
144.0798	12	C10H10N+
147.0545	5	C8H7N2O+
149.0698	8	C8H9N2O+
156.0795	5	C11H10N+
166.0642	52	C12H8N+
167.0705	15	C12H9N+
168.0792	5	C12H10N+
181.0751	6	C12H9N2+
182.0832	11	C12H10N2+
183.0668	10	C12H9NO+
183.0903	10	C12H11N2+
184.0744	6	C12H10NO+
194.0827	6	C13H10N2+
195.0673	9	C13H9NO+
196.0746	22	C13H10NO+
197.0786	5	C13H11NO+
198.0901	15	C13H12NO+
208.0752	5	C14H10NO+
210.0785	120	C13H10N2O+
211.0861	999	C13H11N2O+
212.0893	101	C12[13]CH11N2O+
213.0924	5	C11[13]C2H11N2O+
222.0778	5	C14H10N2O+
223.0857	14	C14H11N2O+
224.093	7	C14H12N2O+
225.1015	92	C14H13N2O+
226.1049	12	C13[13]CH13N2O+
235.0858	20	C15H11N2O+
236.0928	10	C15H12N2O+
237.1006	6	C15H13N2O+
239.1171	15	C15H15N2O+
251.1171	20	C16H15N2O+
