Mass spectrum: Norclozapine; LC-ESI-QTOF; MS2; CE: 50 eV; R=35000; [M+H]+
Name: Norclozapine
Name: 3-chloro-6-piperazin-1-yl-5H-benzo[b][1,4]benzodiazepine
Formula: C17H17ClN4
Exact mass: 312.1141742
SMILES: ClC1=CC2=C(C=C1)N=C1C=CC=CC1=C(N2)N1CCNCC1
InChI: InChI=1S/C17H17ClN4/c18-12-5-6-15-16(11-12)21-17(22-9-7-19-8-10-22)13-3-1-2-4-14(13)20-15/h1-6,11,19,21H,7-10H2
Instrument: Bruker maXis Impact
Instrument type: LC-ESI-QTOF
Ms type: MS2
Ion mode: POSITIVE
Ionization: ESI
Fragmentation mode: CID
Collision energy: 50 eV
Resolution: 35000
Column name: Acclaim RSLC C18 2.2um, 2.1x100mm, Thermo
Retention time: 7.4 min
Base peak: 313.1216
Precursor m/z: 313.1215
Precursor type: [M+H]+
m/z	relative intensity	assigned
192.0676	999	C13H8N2+
193.0705	99	C12[13]CH8N2+
218.0831	6	C15H10N2+
219.0664	5	C13H7N4+
220.0854	6	C14H10N3+
226.0287	40	C13H7ClN2+
227.0366	49	C13H8ClN2+
228.0399	11	C12[13]CH8ClN2+
229.0338	12	C13H8[37]ClN2+
253.0518	7	C15H10ClN2+
254.0563	3	C14[13]CH10ClN2+
255.0518	5	C15H10[37]ClN2+
270.079	34	C15H13ClN3+
271.0823	6	C14[13]CH13ClN3+
272.0761	9	C15H13[37]ClN3+
273.0787	1	C14[13]CH13[37]ClN3+
