Mass spectrum: Mirtazapine; LC-ESI-QTOF; MS2; HILIC; CE: 40 eV; R=35000; [M+H]+
Name: Mirtazapine
Formula: C17H19N3
Exact mass: 265.1578976
SMILES: CN1CCN2C(C1)C1=C(CC3=C2N=CC=C3)C=CC=C1
InChI: InChI=1S/C17H19N3/c1-19-9-10-20-16(12-19)15-7-3-2-5-13(15)11-14-6-4-8-18-17(14)20/h2-8,16H,9-12H2,1H3
Instrument: Bruker maXis Impact
Instrument type: LC-ESI-QTOF
Ms type: MS2
Ion mode: POSITIVE
Ionization: ESI
Fragmentation mode: CID
Collision energy: 40 eV
Resolution: 35000
Column name: ACQUITY UPLC BEH Amide 1.7 um 2.1x100mm, Waters
Retention time: 6.030 min
Base peak: 266.1662
Precursor m/z: 266.1652
Precursor type: [M+H]+
m/z	relative intensity	assigned
115.0538	12	C9H7+
130.0646	8	C9H8N+
131.0598	6	C8H7N2+
131.0719	8	C9H9N+
133.0756	5	C8H9N2+
144.08	13	C10H10N+
165.0693	5	C13H9+
167.0722	34	C12H9N+
168.0796	32	C12H10N+
178.0645	21	C13H8N+
179.0715	18	C13H9N+
180.08	42	C13H10N+
181.0845	8	C12[13]CH10N+
182.0953	23	C13H12N+
192.0798	11	C14H10N+
193.0759	10	C13H9N2+
194.0833	351	C13H10N2+
195.0918	999	C13H11N2+
196.0945	190	C12[13]CH11N2+
197.0974	8	C11[13]C2H11N2+
206.0829	7	C14H10N2+
207.091	18	C14H11N2+
208.098	7	C14H12N2+
209.1069	114	C14H13N2+
210.1101	12	C13[13]CH13N2+
219.0912	22	C15H11N2+
220.0976	10	C15H12N2+
221.1055	6	C15H13N2+
223.1223	9	C15H15N2+
235.1224	12	C16H15N2+
