Mass spectrum: Flurazepam; LC-ESI-QTOF; MS2; HILIC; CE: 30 eV; R=35000; [M+H]+
Name: Flurazepam
Name: 7-chloro-1-[2-(diethylamino)ethyl]-5-(2-fluorophenyl)-3H-1,4-benzodiazepin-2-one
Formula: C21H23ClFN3O
Exact mass: 387.1513683
SMILES: CCN(CC)CCN1c2ccc(cc2C(=NCC1=O)c3ccccc3F)Cl
InChI: InChI=1S/C21H23ClFN3O/c1-3-25(4-2)11-12-26-19-10-9-15(22)13-17(19)21(24-14-20(26)27)16-7-5-6-8-18(16)23/h5-10,13H,3-4,11-12,14H2,1-2H3
Instrument: Bruker maXis Impact
Instrument type: LC-ESI-QTOF
Ms type: MS2
Ion mode: POSITIVE
Ionization: ESI
Fragmentation mode: CID
Collision energy: 30 eV
Resolution: 35000
Column name: ACQUITY UPLC BEH Amide 1.7 um 2.1x100 mm, Waters
Retention time: 5.829 min
Base peak: 388.1591
Precursor m/z: 388.1586
Precursor type: [M+H]+
m/z	relative intensity	assigned
143.1172	11	C7H15N2O+
225.094	7	C15H12FN+
244.0315	7	C17H5FO+
253.0881	7	C19H11N+
258.047	5	C18H7FO+
260.0629	20	C18H9FO+
271.0422	7	C21H5N+
272.0263	14	C18H7ClN+
287.0502	18	C19H10ClN+
287.0735	13	C19H10FNO+
288.0582	193	C16H12ClFNO+
289.0615	35	C15[13]CH12ClFNO+
290.0554	44	C21H8NO+
291.0591	5	C20[13]CH8NO+
315.0712	999	C17H13ClFN2O+
316.0725	407	C20H13ClN2+
317.0676	552	C19H12ClN3+
318.0698	37	C18[13]CH12ClN3+
318.0839	27	C21H15ClO+
319.0821	51	C19H14ClN3+
388.1583	37	C21H24ClFN3O+
389.1617	9	C20[13]CH24ClFN3O+
390.1561	10	C21H24[37]ClFN3O+
