Mass spectrum: Codeine; LC-ESI-QTOF; MS2; HILIC; CE: 50 eV; R=35000; [M+H]+
Name: Codeine
Name: (4R,4aR,7S,7aR,12bS)-9-methoxy-3-methyl-2,4,4a,7,7a,13-hexahydro-1H-4,12-methanobenzofuro[3,2-e]isoquinoline-7-ol
Formula: C18H21NO3
Exact mass: 299.1521435
SMILES: CN1CC[C@]23[C@@H]4[C@H]1CC5=C2C(=C(C=C5)OC)O[C@H]3[C@H](C=C4)O
InChI: InChI=1S/C18H21NO3/c1-19-8-7-18-11-4-5-13(20)17(18)22-16-14(21-2)6-3-10(15(16)18)9-12(11)19/h3-6,11-13,17,20H,7-9H2,1-2H3/t11-,12+,13-,17-,18-/m0/s1
Instrument: Bruker maXis Impact
Instrument type: LC-ESI-QTOF
Ms type: MS2
Ion mode: POSITIVE
Ionization: ESI
Fragmentation mode: CID
Collision energy: 50 eV
Resolution: 35000
Column name: ACQUITY UPLC BEH Amide 1.7 um 2.1x100mm, Water
Retention time: 6.380 min
Base peak: 300.1592
Precursor m/z: 300.1594
Precursor type: [M+H]+
m/z	relative intensity	assigned
115.0536	134	C9H7+
116.0592	21	C9H8+
117.0692	11	C9H9+
118.0404	11	C8H6O+
119.0466	5	C8H7O+
121.0641	26	C8H9O+
122.036	18	C7H6O2+
126.0463	10	C10H6+
127.0536	44	C10H7+
128.0611	284	C10H8+
129.0686	113	C10H9+
131.0485	48	C9H7O+
131.0727	6	C9H9N+
131.0858	12	C10H11+
132.0558	13	C9H8O+
132.0814	15	C9H10N+
133.0637	7	C9H9O+
134.06	5	C8H8NO+
134.0955	9	C9H12N+
135.0438	6	C8H7O2+
136.0755	7	C8H10NO+
137.059	95	C8H9O2+
139.0533	44	C11H7+
140.0603	20	C11H8+
141.0691	294	C11H9+
142.0403	5	C10H6O+
142.0752	56	C11H10+
143.0481	44	C10H7O+
143.0839	15	C11H11+
144.0559	216	C10H8O+
144.0799	16	C10H10N+
145.0634	88	C10H9O+
146.0353	25	C9H6O2+
146.0696	25	C10H10O+
146.0946	8	C7H14O3+
147.0422	12	C9H7O2+
147.0788	21	C10H11O+
148.0496	5	C9H8O2+
148.0738	15	C9H10NO+
149.06	10	C9H9O2+
150.0476	6	C12H6+
151.0539	24	C12H7+
151.074	5	C9H11O2+
152.0612	443	C12H8+
153.069	886	C12H9+
154.0751	198	C12H10+
155.0487	88	C11H7O+
155.0845	315	C12H11+
156.0564	157	C11H8O+
157.0635	117	C11H9O+
157.0899	5	C11H11N+
157.1004	7	C12H13+
158.0715	118	C11H10O+
159.0428	43	C10H7O2+
159.0792	105	C11H11O+
160.0502	25	C10H8O2+
160.0759	32	C10H10NO+
161.059	248	C10H9O2+
162.0897	11	C10H12NO+
163.0533	11	C13H7+
164.0623	30	C13H8+
165.0692	999	C13H9+
166.0744	208	C13H10+
167.0489	7	C12H7O+
167.0837	79	C13H11+
168.0559	229	C12H8O+
169.0635	215	C12H9O+
170.0348	37	C11H6O2+
170.0712	116	C12H10O+
170.0945	8	C9H14O3+
171.0429	82	C11H7O2+
171.0795	457	C12H11O+
172.0509	73	C11H8O2+
172.0858	122	C12H12O+
173.0572	27	C11H9O2+
173.0936	34	C12H13O+
174.0659	44	C11H10O2+
175.0742	51	C11H11O2+
176.0623	24	C14H8+
177.0695	42	C14H9+
178.0767	99	C14H10+
179.0592	21	C9H9NO3+
179.0841	93	C14H11+
180.056	61	C13H8O+
180.0909	22	C14H12+
181.0639	611	C13H9O+
182.0706	265	C13H10O+
183.043	198	C12H7O2+
183.0791	225	C13H11O+
184.0506	119	C12H8O2+
184.0849	58	C13H12O+
185.0585	246	C12H9O2+
185.0946	54	C13H13O+
186.0309	9	C11H6O3+
186.0655	83	C12H10O2+
187.074	92	C12H11O2+
187.1101	28	C13H15O+
189.069	53	C15H9+
189.0878	9	C12H13O2+
190.0762	67	C15H10+
191.0838	104	C15H11+
192.0581	11	C14H8O+
192.0905	20	C15H12+
193.064	148	C14H9O+
193.0989	22	C15H13+
194.0712	196	C14H10O+
195.0783	108	C14H11O+
196.0507	16	C13H8O2+
196.0855	31	C14H12O+
196.1093	6	C11H16O3+
197.0587	193	C13H9O2+
197.0949	36	C14H13O+
198.0665	266	C13H10O2+
198.0929	19	C13H12NO+
199.0743	377	C13H11O2+
200.0457	5	C12H8O3+
200.0803	113	C13H12O2+
200.1067	7	C13H14NO+
201.0543	12	C12H9O3+
201.0881	33	C13H13O2+
202.0769	26	C16H10+
203.0829	13	C16H11+
205.0639	44	C15H9O+
205.0925	5	C15H11N+
206.0714	19	C15H10O+
206.0974	9	C15H12N+
207.0797	52	C15H11O+
207.1023	5	C12H15O3+
208.0512	46	C14H8O2+
208.0864	40	C15H12O+
208.1088	6	C12H16O3+
209.0589	125	C14H9O2+
209.0946	33	C15H13O+
210.0659	161	C14H10O2+
210.0919	10	C14H12NO+
210.0995	12	C15H14O+
211.0382	9	C13H7O3+
211.0737	90	C14H11O2+
211.1099	5	C15H15O+
212.0506	5	C16H6N+
212.0816	77	C14H12O2+
213.0532	17	C13H9O3+
213.0893	92	C14H13O2+
214.0894	30	C13H12NO2+
215.0694	5	C13H11O3+
215.106	93	C14H15O2+
218.0715	25	C16H10O+
218.0933	6	C13H14O3+
219.0795	48	C16H11O+
220.0858	28	C16H12O+
220.1109	32	C16H14N+
221.0597	47	C15H9O2+
221.0945	18	C16H13O+
221.1149	5	C13H17O3+
222.0633	15	C15H10O2+
222.0913	5	C15H12NO+
222.106	6	C16H14O+
222.1243	5	C13H18O3+
223.0743	123	C15H11O2+
223.101	7	C15H13NO+
224.08	34	C15H12O2+
224.1066	12	C15H14NO+
225.0535	15	C14H9O3+
225.0895	111	C15H13O2+
226.061	30	C14H10O3+
226.0938	30	C15H14O2+
227.0694	16	C14H11O3+
227.0935	5	C14H13NO2+
228.0778	10	C14H12O3+
228.1008	13	C14H14NO2+
229.0775	7	C13H11NO3+
234.091	16	C16H12NO+
235.0739	21	C16H11O2+
235.0993	13	C16H13NO+
236.0815	31	C16H12O2+
236.1046	6	C16H14NO+
237.0841	14	C15H11NO2+
238.0962	12	C16H14O2+
238.1224	8	C16H16NO+
239.0677	10	C15H11O3+
239.0995	9	C15H13NO2+
240.0752	6	C15H12O3+
240.1015	6	C15H14NO2+
240.1369	7	C16H18NO+
241.0853	91	C15H13O3+
242.091	15	C15H14O3+
242.114	9	C15H16NO2+
243.1003	20	C15H15O3+
248.1058	18	C17H14NO+
249.1141	8	C17H15NO+
250.1214	22	C17H16NO+
251.1032	11	C17H15O2+
251.1264	6	C17H17NO+
252.1005	22	C16H14NO2+
254.116	6	C16H16NO2+
266.1169	57	C17H16NO2+
267.1226	20	C17H17NO2+
268.1287	9	C17H18NO2+
282.149	12	C18H20NO2+
300.1593	35	C18H22NO3+
