Mass spectrum: Norbuprenorphine; LC-ESI-QTOF; MS2; HILIC; CE: 30 eV; R=35000; [M+H]+
Name: Norbuprenorphine
Formula: C25H35NO4
Exact mass: 413.2566086
SMILES: C[C@]([C@H]1C[C@@]23CC[C@@]1([C@H]4[C@@]25CCN[C@@H]3Cc6c5c(c(cc6)O)O4)OC)(C(C)(C)C)O
InChI: InChI=1S/C25H35NO4/c1-21(2,3)22(4,28)16-13-23-8-9-25(16,29-5)20-24(23)10-11-26-17(23)12-14-6-7-15(27)19(30-20)18(14)24/h6-7,16-17,20,26-28H,8-13H2,1-5H3/t16-,17-,20-,22+,23-,24+,25-/m1/s1
Instrument: Bruker maXis Impact
Instrument type: LC-ESI-QTOF
Ms type: MS2
Ion mode: POSITIVE
Ionization: ESI
Fragmentation mode: CID
Collision energy: 30 eV
Resolution: 35000
Column name: ACQUITY UPLC BEH Amide 1.7 um 2.1x100 mm, Waters
Retention time: 6.231 min
Base peak: 328.1554
Precursor m/z: 414.2639
Precursor type: [M+H]+
m/z	relative intensity	assigned
187.0756	6	C12H11O2+
237.0915	5	C16H13O2+
239.1076	5	C16H15O2+
255.1024	5	C16H15O3+
265.1195	7	C18H17O2+
267.0996	5	C17H15O3+
271.129	5	C17H19O3+
271.1381	5	C20H17N+
279.139	5	C19H19O2+
297.1468	5	C19H21O3+
311.1641	8	C20H23O3+
312.1625	8	C19H22NO3+
326.1774	8	C20H24NO3+
328.1559	6	C19H22NO4+
340.1926	13	C21H26NO3+
341.1957	5	C21H27NO3+
353.2105	5	C23H29O3+
364.2266	11	C24H30NO2+
382.2388	9	C24H32NO3+
396.2562	19	C25H34NO3+
397.2623	9	C25H35NO3+
414.2652	999	C25H36NO4+
415.2692	300	C24[13]CH36NO4+
416.2723	41	C23[13]C2H36NO4+
