Mass spectrum: Levetiracetam; LC-ESI-QTOF; MS2; HILIC; CE: 20 eV; R=35000; [M+H]+
Name: Levetiracetam
Name: LEVITIRACETAM
Name: (2R)-2-(2-oxopyrrolidin-1-yl)butanamide
Formula: C8H14N2O2
Exact mass: 170.1055277
SMILES: CC[C@H](C(=O)N)N1CCCC1=O
InChI: InChI=1S/C8H14N2O2/c1-2-6(8(9)12)10-5-3-4-7(10)11/h6H,2-5H2,1H3,(H2,9,12)/t6-/m1/s1
Instrument: Bruker maXis Impact
Instrument type: LC-ESI-QTOF
Ms type: MS2
Ion mode: POSITIVE
Ionization: ESI
Fragmentation mode: CID
Collision energy: 20 eV
Resolution: 35000
Column name: ACQUITY UPLC BEH Amide 1.7 um 2.1x100 mm, Waters
Retention time: 2.068 min
Base peak: 326.0862
Precursor m/z: 171.1128
Precursor type: [M+H]+
m/z	relative intensity	assigned
126.0909	999	C7H12NO+
127.0939	57	C6[13]CH12NO+
154.0856	12	C8H12NO2+
