Mass spectrum: Norbuprenorphine; LC-ESI-QTOF; MS2; HILIC; CE: 40 eV; R=35000; [M+H]+
Name: Norbuprenorphine
Formula: C25H35NO4
Exact mass: 413.2566086
SMILES: C[C@]([C@H]1C[C@@]23CC[C@@]1([C@H]4[C@@]25CCN[C@@H]3Cc6c5c(c(cc6)O)O4)OC)(C(C)(C)C)O
InChI: InChI=1S/C25H35NO4/c1-21(2,3)22(4,28)16-13-23-8-9-25(16,29-5)20-24(23)10-11-26-17(23)12-14-6-7-15(27)19(30-20)18(14)24/h6-7,16-17,20,26-28H,8-13H2,1-5H3/t16-,17-,20-,22+,23-,24+,25-/m1/s1
Instrument: Bruker maXis Impact
Instrument type: LC-ESI-QTOF
Ms type: MS2
Ion mode: POSITIVE
Ionization: ESI
Fragmentation mode: CID
Collision energy: 40 eV
Resolution: 35000
Column name: ACQUITY UPLC BEH Amide 1.7 um 2.1x100mm, Waters
Retention time: 6.194 min
Base peak: 414.265
Precursor m/z: 414.2639
Precursor type: [M+H]+
m/z	relative intensity	assigned
121.1008	7	C9H13+
123.0439	8	C7H7O2+
123.117	14	C9H15+
135.0798	9	C9H11O+
135.1165	5	C10H15+
137.0958	27	C9H13O+
147.0439	5	C9H7O2+
149.0956	13	C10H13O+
151.1123	10	C10H15O+
155.1434	7	C10H19O+
157.0632	9	C11H9O+
159.08	5	C11H11O+
161.0578	19	C10H9O2+
163.0748	8	C10H11O2+
164.0722	5	C9H10NO2+
173.0588	22	C11H9O2+
174.0637	5	C11H10O2+
175.0755	22	C11H11O2+
176.0732	6	C10H10NO2+
181.0662	8	C13H9O+
184.0515	9	C12H8O2+
185.0581	11	C12H9O2+
187.0751	86	C12H11O2+
188.0741	16	C11H10NO2+
189.0784	8	C11H11NO2+
190.0861	23	C11H12NO2+
191.0699	15	C11H11O3+
191.0868	5	C15H11+
193.0652	15	C14H9O+
195.0807	10	C14H11O+
197.0588	11	C13H9O2+
198.065	6	C13H10O2+
199.0748	32	C13H11O2+
201.0908	10	C13H13O2+
202.086	16	C12H12NO2+
203.0816	5	C16H11+
204.102	10	C12H14NO2+
205.1601	5	C14H21O+
207.0812	8	C15H11O+
209.0969	6	C15H13O+
211.0745	42	C14H11O2+
212.079	10	C14H12O2+
213.0914	29	C14H13O2+
214.0897	12	C13H12NO2+
215.0695	6	C13H11O3+
215.1042	6	C14H15O2+
217.0849	12	C13H13O3+
219.0812	7	C16H11O+
219.1175	7	C17H15+
221.095	18	C16H13O+
223.0748	32	C15H11O2+
223.1113	9	C16H15O+
224.0819	8	C15H12O2+
225.091	33	C15H13O2+
226.0945	9	C15H14O2+
227.0697	11	C14H11O3+
227.1055	9	C15H15O2+
229.0867	6	C14H13O3+
233.0957	13	C17H13O+
235.0736	5	C16H11O2+
236.084	5	C16H12O2+
237.0917	34	C16H13O2+
238.0955	13	C16H14O2+
239.1061	42	C16H15O2+
240.0776	7	C15H12O3+
240.1109	6	C16H16O2+
241.0864	29	C15H13O3+
241.1196	8	C16H17O2+
242.0949	15	C15H14O3+
243.101	45	C15H15O3+
245.0959	10	C18H13O+
247.1102	20	C18H15O+
248.1164	5	C18H16O+
249.0916	5	C17H13O2+
251.1064	22	C17H15O2+
252.1097	8	C17H16O2+
253.0841	8	C16H13O3+
253.121	24	C17H17O2+
254.1178	12	C16H16NO2+
255.1006	29	C16H15O3+
257.1172	9	C16H17O3+
261.127	15	C19H17O+
263.1069	13	C18H15O2+
264.1111	7	C18H16O2+
265.1227	51	C18H17O2+
266.1263	12	C17[13]CH17O2+
267.1008	20	C17H15O3+
267.1391	7	C18H19O2+
268.1102	12	C17H16O3+
269.1163	26	C17H17O3+
269.1546	5	C18H21O2+
270.1211	6	C17H18O3+
271.1334	21	C17H19O3+
272.1369	5	C17H20O3+
273.1325	12	C16H19NO3+
277.1237	6	C19H17O2+
279.1386	27	C19H19O2+
280.1377	15	C18H18NO2+
281.1174	5	C18H17O3+
281.1517	14	C19H21O2+
282.1227	5	C18H18O3+
282.1518	10	C18H20NO2+
283.133	27	C18H19O3+
284.136	6	C18H20O3+
285.1363	7	C17H19NO3+
286.1466	7	C17H20NO3+
291.138	21	C20H19O2+
292.1435	7	C20H20O2+
293.1535	7	C20H21O2+
295.1344	19	C22H17N+
297.1487	37	C19H21O3+
307.1663	5	C21H23O2+
308.1645	13	C20H22NO2+
309.1512	5	C23H19N+
311.1648	31	C20H23O3+
312.1606	34	C19H22NO3+
313.1627	13	C23H21O+
314.175	7	C19H24NO3+
315.1579	6	C19H23O4+
321.1877	19	C22H25O2+
322.1892	6	C22H26O2+
323.1603	11	C21H23O3+
326.1749	35	C20H24NO3+
327.1781	12	C24H23O+
335.1995	15	C23H27O2+
339.1944	7	C22H27O3+
340.1908	62	C21H26NO3+
341.194	19	C20[13]CH26NO3+
342.1694	11	C20H24NO4+
343.1731	5	C24H23O2+
347.1982	5	C24H27O2+
351.1964	6	C23H27O3+
353.2113	20	C23H29O3+
354.2162	7	C23H30O3+
364.2284	35	C24H30NO2+
365.2317	11	C23[13]CH30NO2+
367.2254	6	C24H31O3+
382.2395	24	C24H32NO3+
383.2412	10	C24H33NO3+
396.2524	68	C25H34NO3+
397.2572	17	C24[13]CH34NO3+
414.2651	999	C25H36NO4+
415.2685	271	C24[13]CH36NO4+
416.2719	46	C23[13]C2H36NO4+
