Mass spectrum: Pregabalin; LC-ESI-QTOF; MS2; HILIC; CE: 40 eV; R=35000; [M+H]+
Name: Pregabalin
Name: (3S)-3-(aminomethyl)-5-methylhexanoic acid
Formula: C8H17NO2
Exact mass: 159.1259288
SMILES: CC(C)C[C@H](CN)CC(O)=O
InChI: InChI=1S/C8H17NO2/c1-6(2)3-7(5-9)4-8(10)11/h6-7H,3-5,9H2,1-2H3,(H,10,11)/t7-/m0/s1
Instrument: Bruker maXis Impact
Instrument type: LC-ESI-QTOF
Ms type: MS2
Ion mode: POSITIVE
Ionization: ESI
Fragmentation mode: CID
Collision energy: 40 eV
Resolution: 35000
Column name: ACQUITY UPLC BEH Amide 1.7 um 2.1x100mm, Waters
Retention time: 6.481 min
Base peak: 160.1324
Precursor m/z: 160.1332
Precursor type: [M+H]+
m/z	relative intensity	assigned
117.0567	999	C8H7N+
118.0649	163	C8H8N+
