Mass spectrum: Pregabalin; LC-ESI-QTOF; MS2; HILIC; CE: 10 eV; R=35000; [M+H]+
Name: Pregabalin
Name: (3S)-3-(aminomethyl)-5-methylhexanoic acid
Formula: C8H17NO2
Exact mass: 159.1259288
SMILES: CC(C)C[C@H](CN)CC(O)=O
InChI: InChI=1S/C8H17NO2/c1-6(2)3-7(5-9)4-8(10)11/h6-7H,3-5,9H2,1-2H3,(H,10,11)/t7-/m0/s1
Instrument: Bruker maXis Impact
Instrument type: LC-ESI-QTOF
Ms type: MS2
Ion mode: POSITIVE
Ionization: ESI
Fragmentation mode: CID
Collision energy: 10 eV
Resolution: 35000
Column name: ACQUITY  UPLC BEH Amide 1.7 um 2.1x100mm, Waters
Retention time: 6.495 min
Base peak: 160.1327
Precursor m/z: 160.1332
Precursor type: [M+H]+
m/z	relative intensity	assigned
124.1117	66	C8H14N+
125.0958	58	C8H13O+
125.1153	9	C7[13]CH14N+
126.0986	6	C7[13]CH13O+
142.1222	999	C8H16NO+
143.106	229	C8H15O2+
143.1255	75	C7[13]CH16NO+
144.1101	19	C7[13]CH15O2+
160.1328	896	C8H18NO2+
161.1358	81	C7[13]CH18NO2+
