Mass spectrum: Oxycodone; LC-ESI-QTOF; MS2; HILIC; CE: 50 eV; R=35000; [M+H]+
Name: Oxycodone
Name: (4R,4aS,7aR,12bS)-4a-hydroxy-9-methoxy-3-methyl-2,4,5,6,7a,13-hexahydro-1H-4,12-methanobenzofuro[3,2-e]isoquinoline-7-one
Formula: C18H21NO4
Exact mass: 315.1470582
SMILES: CN1CC[C@]23c4c5ccc(c4O[C@H]2C(=O)CC[C@]3([C@H]1C5)O)OC
InChI: InChI=1S/C18H21NO4/c1-19-8-7-17-14-10-3-4-12(22-2)15(14)23-16(17)11(20)5-6-18(17,21)13(19)9-10/h3-4,13,16,21H,5-9H2,1-2H3/t13-,16+,17+,18-/m1/s1
Instrument: Bruker maXis Impact
Instrument type: LC-ESI-QTOF
Ms type: MS2
Ion mode: POSITIVE
Ionization: ESI
Fragmentation mode: CID
Collision energy: 50 eV
Resolution: 35000
Column name: ACQUITY UPLC BEH Amide 1.7 um 2.1x100mm, Water
Retention time: 6.230 min
Base peak: 427.2144
Precursor m/z: 316.1543
Precursor type: [M+H]+
m/z	relative intensity	assigned
115.054	44	C9H7+
117.057	9	C8H7N+
120.0797	5	C8H10N+
127.0531	11	C10H7+
128.0614	55	C10H8+
129.0684	42	C10H9+
131.0481	88	C9H7O+
131.0723	5	C9H9N+
131.0845	15	C10H11+
132.0561	60	C9H8O+
132.0802	62	C9H10N+
133.0637	18	C9H9O+
133.0859	13	C6H13O3+
137.0581	10	C8H9O2+
139.0531	10	C11H7+
141.0688	79	C11H9+
142.0747	17	C11H10+
143.0485	16	C10H7O+
143.0836	7	C11H11+
144.0559	53	C10H8O+
144.0794	11	C7H12O3+
145.0636	30	C10H9O+
145.087	5	C7H13O3+
146.0357	20	C9H6O2+
146.0706	11	C10H10O+
147.042	6	C9H7O2+
147.0662	5	C6H11O4+
147.0801	5	C10H11O+
148.0512	7	C9H8O2+
148.0746	13	C9H10NO+
151.0741	9	C9H11O2+
152.0611	73	C12H8+
153.069	159	C12H9+
154.0746	34	C12H10+
155.0485	26	C11H7O+
155.0731	13	C11H9N+
155.084	33	C12H11+
156.0561	18	C11H8O+
156.0833	9	C11H10N+
157.0635	28	C11H9O+
157.088	7	C11H11N+
158.0711	35	C11H10O+
158.0949	8	C8H14O3+
159.0434	54	C10H7O2+
159.0792	90	C11H11O+
160.0507	96	C10H8O2+
160.0751	47	C10H10NO+
161.058	41	C10H9O2+
161.0818	22	C7H13O4+
162.0645	10	C10H10O2+
162.0895	5	C7H14O4+
163.0715	5	C10H11O2+
165.0692	72	C13H9+
166.0751	27	C13H10+
167.0843	58	C13H11+
168.0562	30	C12H8O+
168.08	44	C12H10N+
169.0639	72	C12H9O+
169.087	39	C9H13O3+
170.0715	43	C12H10O+
170.0951	44	C12H12N+
171.043	16	C11H7O2+
171.079	71	C12H11O+
171.1006	8	C9H15O3+
172.0507	54	C11H8O2+
172.0763	20	C11H10NO+
172.0853	32	C12H12O+
173.0569	15	C11H9O2+
173.0825	22	C11H11NO+
174.0666	23	C11H10O2+
174.0902	40	C11H12NO+
175.0746	392	C11H11O2+
176.0629	5	C14H8+
177.0703	9	C14H9+
178.0766	27	C14H10+
179.0843	35	C14H11+
180.0555	9	C13H8O+
180.0805	25	C13H10N+
181.064	161	C13H9O+
181.0879	134	C13H11N+
182.0702	66	C13H10O+
182.0945	52	C10H14O3+
183.0432	28	C12H7O2+
183.0785	51	C13H11O+
183.1021	17	C10H15O3+
184.0506	56	C12H8O2+
184.0754	23	C12H10NO+
184.0845	18	C13H12O+
184.111	56	C13H14N+
185.058	43	C12H9O2+
185.0812	9	C9H13O4+
185.0943	18	C13H13O+
185.1178	12	C10H17O3+
186.0658	23	C12H10O2+
186.0908	9	C12H12NO+
187.0749	92	C12H11O2+
187.1108	8	C13H15O+
188.0717	27	C11H10NO2+
189.0709	8	C15H9+
189.0897	11	C12H13O2+
191.0867	7	C15H11+
193.0634	21	C14H9O+
193.0871	6	C11H13O3+
194.0707	16	C14H10O+
194.0953	37	C14H12N+
195.0789	51	C14H11O+
195.1017	21	C11H15O3+
196.0498	15	C13H8O2+
196.0764	39	C13H10NO+
196.084	42	C14H12O+
196.1109	49	C14H14N+
197.0583	38	C13H9O2+
197.0826	89	C13H11NO+
197.1172	10	C11H17O3+
198.0667	75	C13H10O2+
198.0904	216	C13H12NO+
199.0744	238	C13H11O2+
199.095	30	C10H15O4+
200.0793	40	C13H12O2+
200.1052	9	C10H16O4+
201.0888	17	C13H13O2+
202.0853	59	C12H12NO2+
203.0906	18	C12H13NO2+
205.0644	5	C15H9O+
205.0876	7	C15H11N+
206.0716	7	C15H10O+
207.0798	22	C15H11O+
208.0767	19	C14H10NO+
208.1106	10	C12H16O3+
209.0593	26	C14H9O2+
209.082	34	C11H13O4+
209.1162	7	C12H17O3+
210.0666	61	C14H10O2+
210.0906	98	C14H12NO+
210.1274	8	C15H16N+
211.0726	45	C14H11O2+
211.0977	48	C11H15O4+
212.1065	999	C14H14NO+
213.0894	94	C14H13O2+
213.1125	303	C11H17O4+
214.064	7	C16H8N+
214.0863	36	C13H12NO2+
214.1167	38	C11H18O4+
215.105	30	C14H15O2+
218.095	7	C13H14O3+
220.1115	18	C16H14N+
221.0826	32	C15H11NO+
221.1178	6	C13H17O3+
222.0904	46	C15H12NO+
223.0751	19	C15H11O2+
223.0968	30	C12H15O4+
224.082	24	C15H12O2+
224.106	94	C15H14NO+
225.0879	70	C15H13O2+
225.1133	45	C12H17O4+
226.0858	545	C14H12NO2+
226.1212	28	C12H18O4+
227.0678	9	C14H11O3+
227.0908	106	C14H13NO2+
227.1281	11	C12H19O4+
228.1005	69	C14H14NO2+
228.1374	28	C15H18NO+
229.0842	6	C14H13O3+
229.1047	10	C18H13+
230.1171	12	C14H16NO2+
234.0673	5	C16H10O2+
234.0905	17	C16H12NO+
235.0723	8	C16H11O2+
235.0924	5	C13H15O4+
236.0701	6	C15H10NO2+
236.1055	17	C13H16O4+
237.0525	5	C15H9O3+
237.0852	7	C16H13O2+
237.1133	10	C13H17O4+
238.0863	26	C15H12NO2+
238.1217	41	C16H16NO+
239.069	12	C15H11O3+
239.0934	56	C15H13NO2+
239.127	10	C13H19O4+
240.101	334	C15H14NO2+
241.109	780	C15H15NO2+
242.1131	146	C15H16NO2+
243.1196	20	C15H17NO2+
247.0978	6	C14H15O4+
248.1061	19	C17H14NO+
249.1144	9	C17H15NO+
250.0853	18	C16H12NO2+
250.1199	5	C14H18O4+
251.0909	7	C16H13NO2+
252.0772	11	C16H12O3+
252.1014	12	C16H14NO2+
253.0742	7	C15H11NO3+
253.1063	5	C16H15NO2+
254.0806	36	C15H12NO3+
254.1171	89	C16H16NO2+
255.0877	22	C15H13NO3+
255.1228	30	C16H17NO2+
256.1323	127	C16H18NO2+
257.1362	21	C16H19NO2+
264.101	31	C17H14NO2+
265.109	25	C17H15NO2+
266.1169	53	C17H16NO2+
267.1208	11	C17H17NO2+
268.0955	44	C16H14NO3+
268.1294	5	C17H18NO2+
269.1029	15	C16H15NO3+
270.1122	26	C16H16NO3+
270.1465	10	C17H20NO2+
280.1328	7	C18H18NO2+
282.1116	40	C17H16NO3+
283.1188	21	C17H17NO3+
298.1436	27	C18H20NO3+
299.1444	5	C18H21NO3+
