Mass spectrum: Diazepam; LC-ESI-QTOF; MS2; CE: Ramp 21.1-31.6 eV; R=35000; [M+H]+
Name: Diazepam
Name: 7-chloro-1-methyl-5-phenyl-3H-1,4-benzodiazepin-2-one
Formula: C16H13ClN2O
Exact mass: 284.0716407
SMILES: CN1C2=C(C=C(Cl)C=C2)C(=NCC1=O)C1=CC=CC=C1
InChI: InChI=1S/C16H13ClN2O/c1-19-14-8-7-12(17)9-13(14)16(18-10-15(19)20)11-5-3-2-4-6-11/h2-9H,10H2,1H3
Instrument: Bruker maXis Impact
Instrument type: LC-ESI-QTOF
Ms type: MS2
Ion mode: POSITIVE
Ionization: ESI
Fragmentation mode: CID
Collision energy: Ramp 21.1-31.6 eV
Resolution: 35000
Column name: Acclaim RSLC C18 2.2um, 2.1x100mm, Thermo
Retention time: 9.494 min
Base peak: 285.0801
Precursor m/z: 285.0789
Precursor type: [M+H]+
m/z	relative intensity	assigned
58.0284	6	C2H4NO+
91.0545	68	C7H7+
104.0495	6	C7H6N+
105.034	53	C4H8ClN+
116.0493	12	C8H6N+
117.0572	15	C8H7N+
118.0649	10	C8H8N+
119.0726	5	C8H9N+
125.0152	8	C7H6Cl+
141.0342	7	C7H8ClN+
143.06	6	C9H7N2+
144.0674	5	C9H8N2+
147.0677	14	C9H9NO+
150.01	6	C11H2O+
152.0253	5	C11H4O+
154.0418	292	C8H9ClN+
155.0448	22	C7[13]CH9ClN+
156.0388	68	C8H9[37]ClN+
167.0128	18	C8H6ClNO+
169.0096	5	C8H6[37]ClNO+
172.0628	33	C10H8N2O+
179.0368	25	C9H8ClN2+
180.0207	22	C9H7ClNO+
181.033	6	C9H8[37]ClN2+
182.018	6	C9H7[37]ClNO+
182.0365	36	C9H9ClNO+
184.0332	10	C9H9[37]ClNO+
192.0796	5	C14H10N+
193.0883	272	C14H11N+
194.0924	34	C13[13]CH11N+
204.0809	7	C15H10N+
205.088	5	C15H11N+
206.0837	5	C14H10N2+
207.0915	6	C14H11N2+
216.057	13	C16H8O+
221.1072	22	C15H13N2+
222.1152	245	C15H14N2+
223.1185	28	C14[13]CH14N2+
226.0419	5	C14H9ClN+
227.0496	16	C14H10ClN+
228.0575	151	C14H11ClN+
229.0602	20	C13[13]CH11ClN+
230.0548	36	C14H11[37]ClN+
240.0569	6	C15H11ClN+
241.0529	37	C14H10ClN2+
242.0586	14	C14H11ClN2+
243.0499	10	C14H10[37]ClN2+
255.0685	28	C15H12ClN2+
256.0741	7	C14[13]CH12ClN2+
257.0844	239	C15H14ClN2+
258.0872	36	C14[13]CH14ClN2+
259.0815	57	C15H14[37]ClN2+
285.0797	999	C16H14ClN2O+
287.0768	436	C16H14[37]ClN2O+
