Mass spectrum: Flurazepam; LC-ESI-QTOF; MS2; CE: 20 eV; R=35000; [M+Na]+
Name: Flurazepam
Name: 7-chloro-1-[2-(diethylamino)ethyl]-5-(2-fluorophenyl)-3H-1,4-benzodiazepin-2-one
Formula: C21H23ClFN3O
Exact mass: 387.1513683
SMILES: CCN(CC)CCN1c2ccc(cc2C(=NCC1=O)c3ccccc3F)Cl
InChI: InChI=1S/C21H23ClFN3O/c1-3-25(4-2)11-12-26-19-10-9-15(22)13-17(19)21(24-14-20(26)27)16-7-5-6-8-18(16)23/h5-10,13H,3-4,11-12,14H2,1-2H3
Instrument: Bruker maXis Impact
Instrument type: LC-ESI-QTOF
Ms type: MS2
Ionization: ESI
Ion mode: POSITIVE
Fragmentation mode: CID
Collision energy: 20 eV
Resolution: 35000
Column name: Acclaim RSLC C18 2.2um, 2.1x100mm, Thermo
Retention time: 13.043 min
Base peak: 150.1128
Precursor m/z: 410.1406
Precursor type: [M+Na]+
m/z	relative intensity	assigned
133.0855	430	C7H12NNa+
177.1128	208	C6H19ClN2Na+
178.1191	96	C9H17NNaO+
195.1234	113	C6H21ClN2NaO+
239.1507	999	C14H20N2Na+
