Mass spectrum: Flurazepam; LC-ESI-QTOF; MS2; HILIC; CE: 20 eV; R=35000; [M+H]+
Name: Flurazepam
Name: 7-chloro-1-[2-(diethylamino)ethyl]-5-(2-fluorophenyl)-3H-1,4-benzodiazepin-2-one
Formula: C21H23ClFN3O
Exact mass: 387.1513683
SMILES: CCN(CC)CCN1c2ccc(cc2C(=NCC1=O)c3ccccc3F)Cl
InChI: InChI=1S/C21H23ClFN3O/c1-3-25(4-2)11-12-26-19-10-9-15(22)13-17(19)21(24-14-20(26)27)16-7-5-6-8-18(16)23/h5-10,13H,3-4,11-12,14H2,1-2H3
Instrument: Bruker maXis Impact
Instrument type: LC-ESI-QTOF
Ms type: MS2
Ion mode: POSITIVE
Ionization: ESI
Fragmentation mode: CID
Collision energy: 20 eV
Resolution: 35000
Column name: ACQUITY UPLC BEH Amide 1.7 um 2.1x100 mm, Waters
Retention time: 5.830 min
Base peak: 388.1597
Precursor m/z: 388.1586
Precursor type: [M+H]+
m/z	relative intensity	assigned
143.1172	11	C7H15N2O+
288.0581	28	C16H12ClFNO+
289.0626	4	C15[13]CH12ClFNO+
290.0551	7	C16H12[37]ClFNO+
315.0696	974	C17H13ClFN2O+
316.0725	182	C16[13]CH13ClFN2O+
317.0683	155	C17H13[37]ClFN2O+
317.0819	310	C20H14ClN2+
318.0868	47	C20H15ClN2+
319.0822	79	C19H14ClN3+
320.085	6	C18[13]CH14ClN3+
388.1593	999	C21H24ClFN3O+
389.1618	231	C20[13]CH24ClFN3O+
390.1564	294	C21H24[37]ClFN3O+
