Mass spectrum: Oxycodone; LC-ESI-QTOF; MS2; HILIC; CE: 20 eV; R=35000; [M+H]+
Name: Oxycodone
Name: (4R,4aS,7aR,12bS)-4a-hydroxy-9-methoxy-3-methyl-2,4,5,6,7a,13-hexahydro-1H-4,12-methanobenzofuro[3,2-e]isoquinoline-7-one
Formula: C18H21NO4
Exact mass: 315.1470582
SMILES: CN1CC[C@]23c4c5ccc(c4O[C@H]2C(=O)CC[C@]3([C@H]1C5)O)OC
InChI: InChI=1S/C18H21NO4/c1-19-8-7-17-14-10-3-4-12(22-2)15(14)23-16(17)11(20)5-6-18(17,21)13(19)9-10/h3-4,13,16,21H,5-9H2,1-2H3/t13-,16+,17+,18-/m1/s1
Instrument: Bruker maXis Impact
Instrument type: LC-ESI-QTOF
Ms type: MS2
Ion mode: POSITIVE
Ionization: ESI
Fragmentation mode: CID
Collision energy: 20 eV
Resolution: 35000
Column name: ACQUITY UPLC BEH Amide 1.7 um 2.1x100 mm, Waters
Retention time: 6.231 min
Base peak: 282.1598
Precursor m/z: 316.1543
Precursor type: [M+H]+
m/z	relative intensity	assigned
187.0742	15	C12H11O2+
213.0899	5	C14H13O2+
241.0855	8	C15H13O3+
241.1089	52	C15H15NO2+
242.1121	8	C14[13]CH15NO2+
256.1324	50	C16H18NO2+
257.1349	8	C15[13]CH18NO2+
298.1435	999	C18H20NO3+
299.1466	175	C17[13]CH20NO3+
300.1495	17	C17[13]CH21NO3+
316.154	768	C18H22NO4+
317.1572	119	C17[13]CH22NO4+
318.1595	12	C16[13]C2H22NO4+
