Mass spectrum: LSD; LC-ESI-QTOF; MS2; HILIC; CE: 20 eV; R=35000; [M+H]+
Name: LSD
Name: D-Lysergic acid N,N-diethylamide
Name: N,N-diethyl-7-methyl-6,6a,8,9-tetrahydro-4H-indolo[4,3-fg]quinoline-9-carboxamide
Formula: C20H25N3O
Exact mass: 323.1997624
SMILES: CCN(CC)C(=O)C1CN(C2CC3=CNC4=CC=CC(=C34)C2=C1)C
InChI: InChI=1S/C20H25N3O/c1-4-23(5-2)20(24)14-9-16-15-7-6-8-17-19(15)13(11-21-17)10-18(16)22(3)12-14/h6-9,11,14,18,21H,4-5,10,12H2,1-3H3
Instrument: Bruker maXis Impact
Instrument type: LC-ESI-QTOF
Ms type: MS2
Ion mode: POSITIVE
Ionization: ESI
Fragmentation mode: CID
Collision energy: 20 eV
Resolution: 35000
Column name: ACQUITY UPLC BEH Amide 1.7 um 2.1x100 mm, Waters
Retention time: 6.305 min
Base peak: 324.2076
Precursor m/z: 324.207
Precursor type: [M+H]+
m/z	relative intensity	assigned
128.1062	18	C7H14NO+
180.0796	9	C13H10N+
192.0797	15	C14H10N+
197.1066	108	C13H13N2+
198.1093	12	C12[13]CH13N2+
208.0748	63	C14H10NO+
208.0985	10	C14H12N2+
209.0778	7	C13[13]CH10NO+
223.1224	673	C15H15N2+
224.1255	98	C14[13]CH15N2+
225.1285	5	C13[13]C2H15N2+
251.1174	58	C16H15N2O+
252.1203	9	C15[13]CH15N2O+
281.1642	259	C18H21N2O+
282.1673	45	C17[13]CH21N2O+
293.1634	9	C19H21N2O+
309.1824	20	C19H23N3O+
324.2088	999	C20H26N3O+
