Mass spectrum: LSD; LC-ESI-QTOF; MS2; HILIC; CE: 40 eV; R=35000; [M+H]+
Name: LSD
Name: D-Lysergic acid N,N-diethylamide
Name: N,N-diethyl-7-methyl-6,6a,8,9-tetrahydro-4H-indolo[4,3-fg]quinoline-9-carboxamide
Formula: C20H25N3O
Exact mass: 323.1997624
SMILES: CCN(CC)C(=O)C1CN(C2CC3=CNC4=CC=CC(=C34)C2=C1)C
InChI: InChI=1S/C20H25N3O/c1-4-23(5-2)20(24)14-9-16-15-7-6-8-17-19(15)13(11-21-17)10-18(16)22(3)12-14/h6-9,11,14,18,21H,4-5,10,12H2,1-3H3
Instrument: Bruker maXis Impact
Instrument type: LC-ESI-QTOF
Ms type: MS2
Ion mode: POSITIVE
Ionization: ESI
Fragmentation mode: CID
Collision energy: 40 eV
Resolution: 35000
Column name: ACQUITY UPLC BEH Amide 1.7 um 2.1x100mm, Waters
Retention time: 6.280 min
Base peak: 324.209
Precursor m/z: 324.207
Precursor type: [M+H]+
m/z	relative intensity	assigned
128.1067	33	C7H14NO+
152.0614	7	C12H8+
153.0693	19	C12H9+
154.0649	29	C11H8N+
156.0802	14	C11H10N+
165.0693	13	C13H9+
167.0726	67	C12H9N+
168.0799	41	C12H10N+
180.0806	365	C13H10N+
181.0647	7	C13H9O+
181.0866	87	C12[13]CH10N+
182.0839	57	C12H10N2+
182.0951	138	C13H12N+
183.0986	15	C12[13]CH12N+
190.0647	13	C14H8N+
191.0727	60	C14H9N+
192.0805	235	C14H10N+
193.0796	50	C13H9N2+
194.0818	14	C13H10N2+
194.0958	94	C14H12N+
195.103	48	C14H13N+
196.1113	50	C14H14N+
197.1074	229	C13H13N2+
198.1105	24	C12[13]CH13N2+
205.0758	5	C14H9N2+
206.0951	12	C15H12N+
207.0676	80	C14H9NO+
207.0917	579	C14H11N2+
208.0756	529	C14H10NO+
208.0993	958	C14H12N2+
209.079	49	C14H11NO+
209.1031	111	C14H13N2+
210.0903	8	C13[13]CH11NO+
210.106	6	C13[13]CH13N2+
220.0992	16	C15H12N2+
221.1073	144	C15H13N2+
222.114	62	C15H14N2+
223.1236	999	C15H15N2+
224.1264	225	C14[13]CH15N2+
225.1294	10	C13[13]C2H15N2+
236.0941	5	C15H12N2O+
251.1177	15	C16H15N2O+
281.1649	30	C18H21N2O+
324.2073	7	C20H26N3O+
