Mass spectrum: Flurazepam; LC-ESI-QTOF; MS2; HILIC; CE: 40 eV; R=35000; [M+H]+
Name: Flurazepam
Name: 7-chloro-1-[2-(diethylamino)ethyl]-5-(2-fluorophenyl)-3H-1,4-benzodiazepin-2-one
Formula: C21H23ClFN3O
Exact mass: 387.1513683
SMILES: CCN(CC)CCN1c2ccc(cc2C(=NCC1=O)c3ccccc3F)Cl
InChI: InChI=1S/C21H23ClFN3O/c1-3-25(4-2)11-12-26-19-10-9-15(22)13-17(19)21(24-14-20(26)27)16-7-5-6-8-18(16)23/h5-10,13H,3-4,11-12,14H2,1-2H3
Instrument: Bruker maXis Impact
Instrument type: LC-ESI-QTOF
Ms type: MS2
Ion mode: POSITIVE
Ionization: ESI
Fragmentation mode: CID
Collision energy: 40 eV
Resolution: 35000
Column name: ACQUITY UPLC BEH Amide 1.7 um 2.1x100mm, Waters
Retention time: 5.829 min
Base peak: 388.1595
Precursor m/z: 388.1586
Precursor type: [M+H]+
m/z	relative intensity	assigned
130.0644	9	C9H8N+
131.0722	19	C9H9N+
134.0393	16	C8H5FN+
150.0095	7	C6HFN3O+
162.0342	7	C12H4N+
166.041	18	C7H5FN3O+
191.0363	8	C13H5NO+
209.0628	6	C14H8FN+
211.078	6	C14H10FN+
224.0858	9	C15H11FN+
225.0942	67	C15H12FN+
226.0973	7	C14[13]CH12FN+
236.0734	16	C15H9FN2+
244.0318	60	C17H5FO+
245.0383	22	C15H4FN3+
252.0811	5	C19H10N+
253.089	35	C19H11N+
254.0921	5	C18[13]CH11N+
258.0472	21	C18H7FO+
259.0536	23	C16H6FN3+
260.063	83	C18H9FO+
261.0653	12	C14[13]CH12ClFN+
271.043	61	C18H6FNO+
272.0269	64	C15H8ClFNO+
272.046	8	C14[13]CH9ClFN2+
273.0373	17	C14[13]CH8ClFNO+
273.0541	7	C21H7N+
274.0235	15	C15H8[37]ClFNO+
280.0996	8	C20H12N2+
285.0581	20	C19H8FNO+
287.0505	120	C16H11ClFNO+
287.0737	29	C19H10FNO+
288.0577	117	C19H11ClN+
289.0534	42	C15H11ClFN2O+
290.0553	30	C19H11[37]ClN+
291.0548	6	C15H11[37]ClFN2O+
295.0626	10	C17H12ClN2O+
315.07	999	C17H13ClFN2O+
316.0726	238	C20H13ClN2+
317.0668	343	C19H12ClN3+
318.0696	26	C18[13]CH12ClN3+
