Mass spectrum: LSD; LC-ESI-QTOF; MS2; HILIC; CE: 30 eV; R=35000; [M+H]+
Name: LSD
Name: D-Lysergic acid N,N-diethylamide
Name: N,N-diethyl-7-methyl-6,6a,8,9-tetrahydro-4H-indolo[4,3-fg]quinoline-9-carboxamide
Formula: C20H25N3O
Exact mass: 323.1997624
SMILES: CCN(CC)C(=O)C1CN(C2CC3=CNC4=CC=CC(=C34)C2=C1)C
InChI: InChI=1S/C20H25N3O/c1-4-23(5-2)20(24)14-9-16-15-7-6-8-17-19(15)13(11-21-17)10-18(16)22(3)12-14/h6-9,11,14,18,21H,4-5,10,12H2,1-3H3
Instrument: Bruker maXis Impact
Instrument type: LC-ESI-QTOF
Ms type: MS2
Ion mode: POSITIVE
Ionization: ESI
Fragmentation mode: CID
Collision energy: 30 eV
Resolution: 35000
Column name: ACQUITY UPLC BEH Amide 1.7 um 2.1x100 mm, Waters
Retention time: 6.230 min
Base peak: 324.2072
Precursor m/z: 324.207
Precursor type: [M+H]+
m/z	relative intensity	assigned
128.1064	46	C7H14NO+
154.0644	5	C11H8N+
156.0796	7	C11H10N+
167.0718	7	C12H9N+
168.0795	11	C12H10N+
180.0799	134	C13H10N+
181.0845	18	C12[13]CH10N+
182.0948	35	C13H12N+
191.0716	6	C14H9N+
192.0799	79	C14H10N+
193.083	14	C13[13]CH10N+
194.0951	31	C14H12N+
195.1016	9	C14H13N+
196.1107	11	C14H14N+
197.1066	286	C13H13N2+
198.1096	28	C12[13]CH13N2+
207.0671	8	C14H9NO+
207.0908	57	C14H11N2+
208.0749	381	C14H10NO+
208.0985	279	C14H12N2+
209.078	38	C13[13]CH10NO+
209.1026	34	C13[13]CH12N2+
210.0895	10	C14H12NO+
220.0985	6	C15H12N2+
221.1064	43	C15H13N2+
222.113	19	C15H14N2+
223.1237	999	C15H15N2+
224.1255	344	C15H16N2+
225.1288	17	C13[13]C2H15N2+
251.1171	70	C16H15N2O+
252.1205	12	C15[13]CH15N2O+
281.1642	251	C18H21N2O+
282.1674	39	C17[13]CH21N2O+
309.1825	32	C19H23N3O+
310.1855	6	C18[13]CH23N3O+
324.2063	416	C20H26N3O+
325.2095	71	C19[13]CH26N3O+
326.212	6	C18[13]C2H26N3O+
