Mass spectrum: Norbuprenorphine; LC-ESI-QTOF; MS2; HILIC; CE: 50 eV; R=35000; [M+H]+
Name: Norbuprenorphine
Formula: C25H35NO4
Exact mass: 413.2566086
SMILES: C[C@]([C@H]1C[C@@]23CC[C@@]1([C@H]4[C@@]25CCN[C@@H]3Cc6c5c(c(cc6)O)O4)OC)(C(C)(C)C)O
InChI: InChI=1S/C25H35NO4/c1-21(2,3)22(4,28)16-13-23-8-9-25(16,29-5)20-24(23)10-11-26-17(23)12-14-6-7-15(27)19(30-20)18(14)24/h6-7,16-17,20,26-28H,8-13H2,1-5H3/t16-,17-,20-,22+,23-,24+,25-/m1/s1
Instrument: Bruker maXis Impact
Instrument type: LC-ESI-QTOF
Ms type: MS2
Ion mode: POSITIVE
Ionization: ESI
Fragmentation mode: CID
Collision energy: 50 eV
Resolution: 35000
Column name: ACQUITY UPLC BEH Amide 1.7 um 2.1x100mm, Water
Retention time: 6.244 min
Base peak: 328.1551
Precursor m/z: 414.2639
Precursor type: [M+H]+
m/z	relative intensity	assigned
123.0431	117	C7H7O2+
123.114	129	C9H15+
135.0814	152	C9H11O+
137.0962	167	C9H13O+
143.0485	108	C10H7O+
145.0649	134	C10H9O+
147.0445	101	C9H7O2+
149.0955	124	C10H13O+
151.1108	97	C10H15O+
159.0804	113	C11H11O+
161.0599	177	C10H9O2+
162.0541	109	C9H8NO2+
162.0917	101	C10H12NO+
165.0692	193	C13H9+
169.0649	108	C12H9O+
173.0585	463	C11H9O2+
174.0919	119	C11H12NO+
175.0734	164	C11H11O2+
176.071	103	C10H10NO2+
179.0846	99	C14H11+
181.0622	203	C13H9O+
184.0511	353	C12H8O2+
185.0566	203	C12H9O2+
187.0746	850	C12H11O2+
189.0776	116	C11H11NO2+
190.0857	293	C11H12NO2+
191.069	196	C11H11O3+
191.0855	164	C15H11+
193.0648	263	C14H9O+
193.1055	102	C11H15NO2+
195.0794	243	C14H11O+
197.0572	138	C13H9O2+
197.0943	169	C14H13O+
198.0669	108	C13H10O2+
199.075	420	C13H11O2+
202.0839	137	C12H12NO2+
204.0917	111	C16H12+
205.1569	118	C14H21O+
207.0798	114	C15H11O+
209.0978	164	C15H13O+
211.0747	635	C14H11O2+
212.08	153	C14H12O2+
213.0903	227	C14H13O2+
217.1038	97	C17H13+
219.0779	128	C16H11O+
221.0958	234	C16H13O+
223.0753	459	C15H11O2+
223.11	104	C16H15O+
224.0782	197	C15H12O2+
225.0573	109	C17H7N+
225.0902	392	C15H13O2+
227.0706	153	C14H11O3+
233.0953	101	C17H13O+
235.0736	207	C16H11O2+
235.1136	98	C17H15O+
237.0914	368	C16H13O2+
238.0973	144	C16H14O2+
239.1062	318	C16H15O2+
240.0789	124	C15H12O3+
241.0857	264	C15H13O3+
241.1209	188	C16H17O2+
242.0909	167	C15H14O3+
242.1243	97	C16H18O2+
243.1021	269	C15H15O3+
244.1066	122	C15H16O3+
245.0963	203	C18H13O+
247.1116	181	C18H15O+
249.0889	113	C17H13O2+
251.1051	241	C17H15O2+
252.102	94	C16H14NO2+
253.1219	129	C17H17O2+
255.1013	246	C16H15O3+
261.1245	107	C19H17O+
263.1074	217	C18H15O2+
264.1122	97	C18H16O2+
265.1244	313	C18H17O2+
266.1254	191	C18H18O2+
267.0995	310	C17H15O3+
269.1157	138	C17H17O3+
279.1372	214	C19H19O2+
280.1361	127	C18H18NO2+
281.1172	143	C18H17O3+
281.1545	121	C19H21O2+
282.1432	113	C22H18+
283.1301	134	C18H19O3+
295.1331	102	C19H19O3+
297.1499	132	C22H19N+
308.1705	97	C20H22NO2+
311.1671	158	C23H21N+
312.1591	158	C19H22NO3+
321.1839	137	C22H25O2+
326.1769	176	C20H24NO3+
340.1895	179	C21H26NO3+
342.1734	186	C20H24NO4+
364.2251	142	C24H30NO2+
396.2534	222	C25H34NO3+
414.2614	999	C25H36NO4+
415.2727	197	C24[13]CH36NO4+
