Mass spectrum: Flurazepam; LC-ESI-QTOF; MS2; HILIC; CE: 50 eV; R=35000; [M+H]+
Name: Flurazepam
Name: 7-chloro-1-[2-(diethylamino)ethyl]-5-(2-fluorophenyl)-3H-1,4-benzodiazepin-2-one
Formula: C21H23ClFN3O
Exact mass: 387.1513683
SMILES: CCN(CC)CCN1c2ccc(cc2C(=NCC1=O)c3ccccc3F)Cl
InChI: InChI=1S/C21H23ClFN3O/c1-3-25(4-2)11-12-26-19-10-9-15(22)13-17(19)21(24-14-20(26)27)16-7-5-6-8-18(16)23/h5-10,13H,3-4,11-12,14H2,1-2H3
Instrument: Bruker maXis Impact
Instrument type: LC-ESI-QTOF
Ms type: MS2
Ion mode: POSITIVE
Ionization: ESI
Fragmentation mode: CID
Collision energy: 50 eV
Resolution: 35000
Column name: ACQUITY UPLC BEH Amide 1.7 um 2.1x100mm, Water
Retention time: 5.829 min
Base peak: 388.1598
Precursor m/z: 388.1586
Precursor type: [M+H]+
m/z	relative intensity	assigned
109.0448	13	C7H6F+
122.0397	6	C7H5FN+
122.9991	5	C5FN2O+
123.0235	17	C7H4FO+
125.0147	55	C5H2FN2O+
130.0646	124	C9H8N+
131.0724	146	C9H9N+
133.0438	6	C9H6F+
134.0396	272	C8H5FN+
135.0449	27	C5H10ClNO+
138.0099	13	C10H2O+
144.0437	12	C9H6NO+
150.0099	68	C6HFN3O+
150.0702	6	C9H9FN+
151.0165	16	C9HN3+
152.0068	16	C11HF+
152.0251	12	C6H3FN3O+
153.0179	6	C10H3NO+
159.0666	6	C10H9NO+
162.0343	67	C12H4N+
163.0051	11	C11HNO+
164.0253	45	C7H3FN3O+
165.0304	6	C10H3N3+
166.0044	7	C9N3O+
166.0224	10	C12H3F+
166.0411	59	C7H5FN3O+
168.0382	17	C12H5F+
177.0208	5	C12H3NO+
179.0361	6	C12H5NO+
183.0598	62	C13H8F+
184.0675	80	C13H9F+
185.0708	10	C11H9N2O+
189.0208	26	C13H3NO+
191.0179	6	C13H2FN+
191.0362	33	C13H5NO+
193.0307	14	C13H4FN+
194.036	9	C10H9ClNO+
204.0806	7	C15H10N+
208.0552	12	C14H7FN+
209.063	111	C14H8FN+
210.0675	18	C11H13ClNO+
211.0783	48	C14H10FN+
212.0812	7	C12H10N3O+
214.0414	6	C16H6O+
216.0676	28	C15H8N2+
217.0209	70	C13H7ClF+
217.0875	7	C16H11N+
218.0244	9	C11H7ClN2O+
219.0182	16	C10H6ClN3O+
222.0707	26	C15H9FN+
223.078	39	C15H10FN+
224.0866	145	C15H11FN+
225.0945	467	C15H12FN+
226.0976	56	C13H12N3O+
231.0245	6	C13H7ClFN+
232.0312	5	C19H4+
232.099	6	C16H12N2+
235.0669	32	C15H8FN2+
236.0743	194	C15H9FN2+
237.0782	33	C12H14ClN2O+
237.0903	21	C14H11N3O+
238.0913	5	C14H16ClF+
240.0568	8	C13H7FN3O+
244.0323	301	C14H8ClFN+
245.0387	141	C20H5+
246.0293	66	C19H4N+
247.0364	33	C14H9ClFO+
248.0429	5	C14H10ClFO+
251.0368	18	C18H5NO+
251.0972	30	C16H12FN2+
252.0437	6	C18H6NO+
252.0814	58	C16H11FNO+
252.1037	15	C13H17ClN2O+
253.0518	8	C18H7NO+
253.0892	115	C16H12FNO+
254.0926	17	C19H12N+
257.0283	9	C14H7ClFN2+
258.0479	181	C15H10ClFN+
259.054	245	C16H6FN3+
260.0456	41	C20H6N+
260.0622	182	C21H8+
260.0939	9	C17H12N2O+
261.052	54	C15H11ClFO+
262.06	42	C15H12ClFO+
267.031	7	C15H8ClN2O+
267.0678	17	C19H9NO+
269.0647	5	C19H8FN+
270.0354	22	C15H8ClFN2+
271.0432	293	C15H9ClFN2+
272.0273	134	C15H8ClFNO+
272.0468	49	C21H6N+
273.0387	71	C15H9ClFNO+
273.0557	43	C21H7N+
274.0239	31	C21H3F+
274.0584	13	C16H12ClFO+
275.0559	11	C20H7N2+
279.0918	11	C20H11N2+
280.0993	20	C20H12N2+
285.0587	114	C19H8FNO+
286.0621	21	C19H9FNO+
287.0508	347	C16H11ClFNO+
287.0739	50	C19H10FNO+
288.0559	93	C20H6N3+
289.0506	117	C21H7NO+
290.0548	26	C21H8NO+
291.0516	14	C21H6FN+
295.0623	26	C17H12ClN2O+
296.0668	5	C18H12ClFN+
297.0599	7	C17H11ClFN2+
315.0697	999	C17H13ClFN2O+
316.0728	163	C20H13ClN2+
317.0668	236	C19H12ClN3+
318.07	23	C20H13ClNO+
