Mass spectrum: Clozapine; LC-ESI-QTOF; MS2; CE: 10 eV; R=35000; [M+H]+
Name: Clozapine
Name: 3-chloro-6-(4-methylpiperazin-1-yl)-5H-benzo[b][1,4]benzodiazepine
Formula: C18H19ClN4
Exact mass: 326.1298243
SMILES: CN1CCN(CC1)C1=C2C=CC=CC2=NC2=C(N1)C=C(Cl)C=C2
InChI: InChI=1S/C18H19ClN4/c1-22-8-10-23(11-9-22)18-14-4-2-3-5-15(14)20-16-7-6-13(19)12-17(16)21-18/h2-7,12,21H,8-11H2,1H3
Instrument: Bruker maXis Impact
Instrument type: LC-ESI-QTOF
Ms type: MS2
Ion mode: POSITIVE
Ionization: ESI
Fragmentation mode: CID
Collision energy: 10 eV
Resolution: 35000
Column name: Acclaim RSLC C18 2.2um, 2.1x100mm, Thermo
Retention time: 7.4 min
Base peak: 327.1372
Precursor m/z: 327.1371
Precursor type: [M+H]+
m/z	relative intensity	assigned
270.0787	14	C15H13ClN3+
271.0818	2	C14[13]CH13ClN3+
272.0763	3	C15H13[37]ClN3+
273.0759	1	C14[13]CH13[37]ClN3+
327.1374	999	C18H20ClN4+
328.1406	177	C17[13]CH20ClN4+
329.1346	26	C18H20[37]ClN4+
330.1372	24	C17[13]CH20[37]ClN4+
