Mass spectrum: Pregabalin; LC-ESI-QTOF; MS2; HILIC; CE: 20 eV; R=35000; [M+H]+
Name: Pregabalin
Name: (3S)-3-(aminomethyl)-5-methylhexanoic acid
Formula: C8H17NO2
Exact mass: 159.1259288
SMILES: CC(C)C[C@H](CN)CC(O)=O
InChI: InChI=1S/C8H17NO2/c1-6(2)3-7(5-9)4-8(10)11/h6-7H,3-5,9H2,1-2H3,(H,10,11)/t7-/m0/s1
Instrument: Bruker maXis Impact
Instrument type: LC-ESI-QTOF
Ms type: MS2
Ion mode: POSITIVE
Ionization: ESI
Fragmentation mode: CID
Collision energy: 20 eV
Resolution: 35000
Column name: ACQUITY UPLC BEH Amide 1.7 um 2.1x100 mm, Waters
Retention time: 6.482 min
Base peak: 160.1327
Precursor m/z: 160.1332
Precursor type: [M+H]+
m/z	relative intensity	assigned
117.0572	201	C8H7N+
120.081	76	C8H10N+
124.1117	594	C8H14N+
125.0954	188	C8H13O+
125.1153	55	C7[13]CH14N+
142.1219	999	C8H16NO+
143.1056	63	C8H15O2+
143.1248	87	C7[13]CH16NO+
160.1316	49	C8H18NO2+
