Mass spectrum: Codeine; LC-ESI-QTOF; MS2; HILIC; CE: 30 eV; R=35000; [M+H]+
Name: Codeine
Name: (4R,4aR,7S,7aR,12bS)-9-methoxy-3-methyl-2,4,4a,7,7a,13-hexahydro-1H-4,12-methanobenzofuro[3,2-e]isoquinoline-7-ol
Formula: C18H21NO3
Exact mass: 299.1521435
SMILES: CN1CC[C@]23[C@@H]4[C@H]1CC5=C2C(=C(C=C5)OC)O[C@H]3[C@H](C=C4)O
InChI: InChI=1S/C18H21NO3/c1-19-8-7-18-11-4-5-13(20)17(18)22-16-14(21-2)6-3-10(15(16)18)9-12(11)19/h3-6,11-13,17,20H,7-9H2,1-2H3/t11-,12+,13-,17-,18-/m0/s1
Instrument: Bruker maXis Impact
Instrument type: LC-ESI-QTOF
Ms type: MS2
Ion mode: POSITIVE
Ionization: ESI
Fragmentation mode: CID
Collision energy: 30 eV
Resolution: 35000
Column name: ACQUITY UPLC BEH Amide 1.7 um 2.1x100 mm, Waters
Retention time: 6.330 min
Base peak: 300.159
Precursor m/z: 300.1594
Precursor type: [M+H]+
m/z	relative intensity	assigned
137.0591	11	C8H9O2+
153.0691	7	C12H9+
155.0845	13	C12H11+
159.0793	10	C11H11O+
161.0588	23	C10H9O2+
165.069	25	C13H9+
171.0797	10	C12H11O+
175.0742	11	C11H11O2+
181.0641	20	C13H9O+
182.0704	6	C13H10O+
183.0797	51	C13H11O+
184.0844	8	C12[13]CH11O+
185.059	7	C12H9O2+
187.0745	30	C12H11O2+
187.1108	8	C13H15O+
191.0844	9	C15H11+
192.1011	8	C11H14NO2+
193.064	25	C14H9O+
194.071	13	C14H10O+
195.0791	6	C14H11O+
197.0956	9	C14H13O+
198.0666	5	C13H10O2+
199.0748	67	C13H11O2+
200.0803	14	C12[13]CH11O2+
201.0896	7	C13H13O2+
207.079	5	C15H11O+
209.0587	19	C14H9O2+
209.0951	7	C15H13O+
210.0654	8	C14H10O2+
211.0744	13	C14H11O2+
212.0816	7	C14H12O2+
213.0898	17	C14H13O2+
215.1062	130	C14H15O2+
216.1092	19	C13[13]CH15O2+
219.0792	8	C16H11O+
221.0951	7	C16H13O+
223.0749	10	C15H11O2+
225.0904	72	C15H13O2+
226.0943	13	C14[13]CH13O2+
241.0854	34	C15H13O3+
242.089	6	C14[13]CH13O3+
243.1012	87	C15H15O3+
244.1045	13	C14[13]CH15O3+
251.1066	10	C17H15O2+
253.1215	7	C17H17O2+
266.1169	8	C17H16NO2+
267.1247	11	C17H17NO2+
282.1482	45	C18H20NO2+
283.1512	8	C17[13]CH20NO2+
300.1596	999	C18H22NO3+
301.1628	147	C17[13]CH22NO3+
302.1653	13	C16[13]C2H22NO3+
