Mass spectrum: Oxycodone; LC-ESI-QTOF; MS2; HILIC; CE: 40 eV; R=35000; [M+H]+
Name: Oxycodone
Name: (4R,4aS,7aR,12bS)-4a-hydroxy-9-methoxy-3-methyl-2,4,5,6,7a,13-hexahydro-1H-4,12-methanobenzofuro[3,2-e]isoquinoline-7-one
Formula: C18H21NO4
Exact mass: 315.1470582
SMILES: CN1CC[C@]23c4c5ccc(c4O[C@H]2C(=O)CC[C@]3([C@H]1C5)O)OC
InChI: InChI=1S/C18H21NO4/c1-19-8-7-17-14-10-3-4-12(22-2)15(14)23-16(17)11(20)5-6-18(17,21)13(19)9-10/h3-4,13,16,21H,5-9H2,1-2H3/t13-,16+,17+,18-/m1/s1
Instrument: Bruker maXis Impact
Instrument type: LC-ESI-QTOF
Ms type: MS2
Ion mode: POSITIVE
Ionization: ESI
Fragmentation mode: CID
Collision energy: 40 eV
Resolution: 35000
Column name: ACQUITY UPLC BEH Amide 1.7 um 2.1x100mm, Waters
Retention time: 6.231 min
Base peak: 427.214
Precursor m/z: 316.1543
Precursor type: [M+H]+
m/z	relative intensity	assigned
115.0545	8	C9H7+
128.0613	6	C10H8+
129.0694	12	C10H9+
131.0486	17	C9H7O+
131.0847	6	C10H11+
132.056	7	C9H8O+
132.0801	21	C9H10N+
133.0646	7	C9H9O+
133.0878	8	C9H11N+
137.0591	10	C8H9O2+
141.069	14	C11H9+
143.0489	8	C10H7O+
144.0558	10	C10H8O+
145.0626	7	C10H9O+
146.0357	5	C9H6O2+
148.0747	6	C9H10NO+
152.0614	8	C12H8+
153.0685	38	C12H9+
154.0747	8	C11[13]CH9+
155.0844	8	C12H11+
157.0643	13	C11H9O+
158.0711	7	C11H10O+
159.043	16	C10H7O2+
159.0668	5	C10H9NO+
159.0794	34	C11H11O+
160.0504	19	C10H8O2+
160.0744	15	C10H10NO+
161.0588	24	C10H9O2+
161.0823	25	C10H11NO+
162.065	5	C10H10O2+
162.0892	5	C7H14O4+
163.0743	5	C10H11O2+
165.0688	14	C13H9+
166.0755	6	C13H10+
167.084	17	C13H11+
168.0557	6	C12H8O+
168.0805	6	C12H10N+
169.0635	18	C12H9O+
170.0704	10	C12H10O+
170.0954	6	C12H12N+
171.0794	24	C12H11O+
172.0508	15	C11H8O2+
172.0849	8	C12H12O+
173.0829	9	C11H11NO+
174.0662	9	C11H10O2+
174.0909	19	C11H12NO+
175.0745	217	C11H11O2+
176.0779	21	C10[13]CH11O2+
178.0793	5	C14H10+
179.0843	13	C14H11+
181.064	99	C13H9O+
181.0877	12	C13H11N+
182.0691	21	C12[13]CH9O+
182.0946	8	C10H14O3+
183.0789	20	C13H11O+
184.0502	6	C12H8O2+
184.1109	9	C13H14N+
185.0577	12	C12H9O2+
185.0948	8	C13H13O+
186.0662	11	C12H10O2+
187.0746	159	C12H11O2+
188.0763	22	C11[13]CH11O2+
189.0897	15	C12H13O2+
193.0646	8	C14H9O+
194.0964	5	C14H12N+
195.0797	31	C14H11O+
195.1043	5	C14H13N+
196.0855	13	C14H12O+
196.1116	19	C14H14N+
197.0586	26	C13H9O2+
197.0932	11	C14H13O+
198.0668	21	C13H10O2+
198.0905	36	C13H12NO+
199.0743	126	C13H11O2+
200.079	22	C12[13]CH11O2+
201.0904	16	C13H13O2+
202.0857	57	C12H12NO2+
203.0915	20	C12H13NO2+
207.0796	14	C15H11O+
208.0864	8	C15H12O+
209.0595	7	C14H9O2+
209.0833	7	C14H11NO+
209.0933	9	C15H13O+
210.0662	21	C14H10O2+
210.0898	21	C11H14O4+
211.0736	19	C14H11O2+
211.0973	14	C11H15O4+
212.0817	15	C14H12O2+
212.1062	181	C14H14NO+
213.0899	99	C14H13O2+
213.1134	117	C11H17O4+
214.093	20	C13[13]CH13O2+
214.1173	16	C10[13]CH17O4+
215.1057	29	C14H15O2+
216.1072	5	C13[13]CH15O2+
220.1096	6	C13H16O3+
221.0825	17	C15H11NO+
222.0897	11	C12H14O4+
223.0739	12	C15H11O2+
223.0977	13	C12H15O4+
224.0822	12	C15H12O2+
224.106	69	C15H14NO+
225.0899	63	C15H13O2+
225.1126	29	C12H17O4+
226.062	6	C14H10O3+
226.0862	112	C14H12NO2+
226.1201	10	C12H18O4+
227.0922	36	C14H13NO2+
227.1036	31	C15H15O2+
227.1286	10	C12H19O4+
228.1006	44	C14H14NO2+
228.1373	38	C15H18NO+
229.0853	11	C14H13O3+
229.1057	8	C13[13]CH14NO2+
229.1417	5	C14[13]CH18NO+
230.1165	7	C14H16NO2+
234.0895	6	C13H14O4+
235.0735	5	C16H11O2+
236.1053	4	C13H16O4+
237.0891	5	C16H13O2+
237.1129	6	C13H17O4+
238.1215	16	C16H16NO+
239.1037	26	C16H15O2+
239.1212	5	C12H17NO4+
240.1011	110	C15H14NO2+
241.0846	57	C15H13O3+
241.1092	999	C15H15NO2+
242.0905	15	C14[13]CH13O3+
242.113	155	C15H16NO2+
243.1215	24	C14[13]CH16NO2+
248.1056	14	C14H16O4+
249.1129	13	C14H17O4+
250.0864	5	C16H12NO2+
251.0916	5	C16H13NO2+
252.1005	19	C16H14NO2+
254.0809	13	C15H12NO3+
254.1164	46	C16H16NO2+
255.1006	16	C16H15O3+
255.1235	29	C16H17NO2+
256.1327	411	C16H18NO2+
257.1157	7	C16H17O3+
257.1353	59	C15[13]CH18NO2+
258.1384	5	C14[13]C2H18NO2+
264.1003	9	C17H14NO2+
265.1087	18	C17H15NO2+
266.1166	41	C17H16NO2+
267.1008	10	C17H15O3+
267.1215	14	C17H17NO2+
268.0968	25	C16H14NO3+
269.1029	19	C16H15NO3+
270.1115	32	C16H16NO3+
270.1479	25	C17H20NO2+
271.1136	7	C15[13]CH16NO3+
271.1502	5	C16[13]CH20NO2+
280.132	21	C18H18NO2+
281.1379	5	C17[13]CH18NO2+
282.1116	21	C17H16NO3+
283.1192	35	C17H17NO3+
284.1224	5	C16[13]CH17NO3+
298.1434	259	C18H20NO3+
299.1463	45	C17[13]CH20NO3+
316.154	9	C18H22NO4+
