Mass spectrum: Oxycodone; LC-ESI-QTOF; MS2; HILIC; CE: 30 eV; R=35000; [M+H]+
Name: Oxycodone
Name: (4R,4aS,7aR,12bS)-4a-hydroxy-9-methoxy-3-methyl-2,4,5,6,7a,13-hexahydro-1H-4,12-methanobenzofuro[3,2-e]isoquinoline-7-one
Formula: C18H21NO4
Exact mass: 315.1470582
SMILES: CN1CC[C@]23c4c5ccc(c4O[C@H]2C(=O)CC[C@]3([C@H]1C5)O)OC
InChI: InChI=1S/C18H21NO4/c1-19-8-7-17-14-10-3-4-12(22-2)15(14)23-16(17)11(20)5-6-18(17,21)13(19)9-10/h3-4,13,16,21H,5-9H2,1-2H3/t13-,16+,17+,18-/m1/s1
Instrument: Bruker maXis Impact
Instrument type: LC-ESI-QTOF
Ms type: MS2
Ion mode: POSITIVE
Ionization: ESI
Fragmentation mode: CID
Collision energy: 30 eV
Resolution: 35000
Column name: ACQUITY UPLC BEH Amide 1.7 um 2.1x100 mm, Waters
Retention time: 6.230 min
Base peak: 282.1595
Precursor m/z: 316.1543
Precursor type: [M+H]+
m/z	relative intensity	assigned
161.0826	12	C10H11NO+
175.0744	38	C11H11O2+
181.0639	23	C13H9O+
187.0746	88	C12H11O2+
188.0773	11	C11[13]CH11O2+
189.09	11	C12H13O2+
195.0804	7	C14H11O+
197.0587	13	C13H9O2+
199.0745	24	C13H11O2+
201.0903	5	C13H13O2+
202.0858	17	C12H12NO2+
203.0922	6	C12H13NO2+
212.1062	10	C14H14NO+
213.0901	40	C14H13O2+
213.1139	7	C14H15NO+
214.0947	6	C13[13]CH13O2+
215.1053	7	C14H15O2+
224.1065	27	C15H14NO+
225.0896	15	C15H13O2+
225.1113	6	C14[13]CH14NO+
226.086	8	C14H12NO2+
227.1047	11	C15H15O2+
228.1023	8	C14H14NO2+
228.1379	9	C15H18NO+
229.0845	9	C14H13O3+
238.1206	5	C13H18O4+
239.1054	8	C16H15O2+
240.1014	11	C15H14NO2+
241.0846	43	C15H13O3+
241.1093	347	C15H15NO2+
242.0894	8	C14[13]CH13O3+
242.1129	55	C15H16NO2+
243.1219	9	C14[13]CH16NO2+
248.1058	5	C17H14NO+
249.1126	5	C14H17O4+
252.1013	10	C16H14NO2+
254.1174	7	C16H16NO2+
255.1006	12	C16H15O3+
255.1227	7	C16H17NO2+
256.1326	328	C16H18NO2+
257.1357	46	C15[13]CH18NO2+
266.1164	11	C17H16NO2+
267.1007	6	C17H15O3+
268.0975	5	C16H14NO3+
269.1037	7	C16H15NO3+
270.1117	14	C16H16NO3+
270.1478	16	C17H20NO2+
280.1321	18	C18H18NO2+
283.1197	14	C17H17NO3+
298.1435	999	C18H20NO3+
299.1466	166	C17[13]CH20NO3+
316.1538	65	C18H22NO4+
317.1572	13	C17[13]CH22NO4+
