Mass spectrum: Codeine; LC-ESI-QTOF; MS2; HILIC; CE: 40 eV; R=35000; [M+H]+
Name: Codeine
Name: (4R,4aR,7S,7aR,12bS)-9-methoxy-3-methyl-2,4,4a,7,7a,13-hexahydro-1H-4,12-methanobenzofuro[3,2-e]isoquinoline-7-ol
Formula: C18H21NO3
Exact mass: 299.1521435
SMILES: CN1CC[C@]23[C@@H]4[C@H]1CC5=C2C(=C(C=C5)OC)O[C@H]3[C@H](C=C4)O
InChI: InChI=1S/C18H21NO3/c1-19-8-7-18-11-4-5-13(20)17(18)22-16-14(21-2)6-3-10(15(16)18)9-12(11)19/h3-6,11-13,17,20H,7-9H2,1-2H3/t11-,12+,13-,17-,18-/m0/s1
Instrument: Bruker maXis Impact
Instrument type: LC-ESI-QTOF
Ms type: MS2
Ion mode: POSITIVE
Ionization: ESI
Fragmentation mode: CID
Collision energy: 40 eV
Resolution: 35000
Column name: ACQUITY UPLC BEH Amide 1.7 um 2.1x100mm, Waters
Retention time: 6.381 min
Base peak: 300.1592
Precursor m/z: 300.1594
Precursor type: [M+H]+
m/z	relative intensity	assigned
115.0537	54	C9H7+
116.0602	12	C9H8+
117.0685	8	C9H9+
118.0646	5	C8H8N+
120.0822	5	C8H10N+
121.0641	38	C8H9O+
122.0364	12	C7H6O2+
127.0536	19	C10H7+
128.0612	89	C10H8+
129.0686	60	C10H9+
131.0482	29	C9H7O+
131.0846	20	C10H11+
132.0803	20	C9H10N+
133.0637	5	C9H9O+
134.0622	6	C8H8NO+
134.0954	11	C9H12N+
136.0736	6	C8H10NO+
137.0588	171	C8H9O2+
138.063	14	C7[13]CH9O2+
139.0536	14	C11H7+
140.0607	6	C11H8+
141.069	177	C11H9+
142.0737	23	C10[13]CH9+
143.0479	32	C10H7O+
143.0849	20	C11H11+
144.0559	189	C10H8O+
144.0804	14	C10H10N+
145.0623	62	C10H9O+
145.0875	7	C10H11N+
146.0354	18	C9H6O2+
146.0595	27	C9H8NO+
146.0708	23	C10H10O+
146.0948	10	C7H14O3+
147.043	7	C9H7O2+
147.0661	5	C9H9NO+
147.0796	18	C10H11O+
148.0741	14	C9H10NO+
149.0587	10	C9H9O2+
149.0831	5	C9H11NO+
150.0655	6	C9H10O2+
151.0519	11	C12H7+
151.075	15	C9H11O2+
152.0611	130	C12H8+
153.0688	472	C12H9+
154.0751	105	C12H10+
155.0479	45	C11H7O+
155.0587	30	C7H9NO3+
155.0843	419	C12H11+
156.0561	107	C11H8O+
156.088	48	C11[13]CH11+
157.0636	76	C11H9O+
157.1004	10	C12H13+
158.0713	116	C11H10O+
158.0972	5	C11H12N+
159.0428	29	C10H7O2+
159.0792	224	C11H11O+
160.0494	20	C10H8O2+
160.0762	47	C10H10NO+
161.0587	401	C10H9O2+
162.0628	44	C9[13]CH9O2+
162.09	21	C10H12NO+
163.0571	6	C13H7+
163.0721	22	C10H11O2+
163.0971	5	C10H13NO+
164.0691	36	C9H10NO2+
165.0689	913	C13H9+
166.0746	171	C12[13]CH9+
167.0485	6	C12H7O+
167.0838	89	C13H11+
168.0559	174	C12H8O+
168.089	12	C12[13]CH11+
169.0637	102	C12H9O+
169.0999	16	C13H13+
170.0359	7	C11H6O2+
170.0717	68	C12H10O+
170.0954	17	C12H12N+
171.044	40	C11H7O2+
171.0795	463	C12H11O+
172.0506	94	C11H8O2+
172.0861	150	C12H12O+
173.0569	30	C11H9O2+
173.0941	46	C12H13O+
174.0672	71	C11H10O2+
174.0931	8	C11H12NO+
175.0742	113	C11H11O2+
176.074	29	C10H10NO2+
177.0538	15	C10H9O3+
177.0697	36	C14H9+
178.0775	57	C14H10+
179.0595	6	C9H9NO3+
179.0836	104	C14H11+
180.0569	27	C13H8O+
180.0976	30	C14H12+
181.0638	677	C13H9O+
181.1	76	C14H13+
182.0705	280	C13H10O+
182.1023	14	C13[13]CH13+
183.0432	62	C12H7O2+
183.0794	608	C13H11O+
184.0506	62	C12H8O2+
184.0843	130	C12[13]CH11O+
185.0585	240	C12H9O2+
185.0951	66	C13H13O+
186.066	133	C12H10O2+
186.0986	15	C12[13]CH13O+
187.0739	283	C12H11O2+
187.1106	116	C13H15O+
188.0788	50	C11[13]CH11O2+
188.1145	16	C12[13]CH15O+
189.0525	6	C11H9O3+
189.0692	24	C15H9+
189.089	34	C12H13O2+
190.0771	58	C15H10+
191.0846	146	C15H11+
192.0567	10	C14H8O+
192.0997	45	C11H14NO2+
193.0641	266	C14H9O+
193.1011	46	C15H13+
194.0714	300	C14H10O+
195.0781	149	C14H11O+
196.0512	14	C13H8O2+
196.085	36	C13[13]CH11O+
196.1096	5	C11H16O3+
197.0588	101	C13H9O2+
197.0949	126	C14H13O+
198.0666	256	C13H10O2+
198.1004	38	C14H14O+
199.0746	999	C13H11O2+
200.0804	235	C12[13]CH11O2+
201.0536	26	C12H9O3+
201.0893	83	C13H13O2+
201.1119	5	C13H15NO+
202.0602	5	C12H10O3+
202.0804	19	C16H10+
203.0857	29	C16H11+
204.1004	12	C12H14NO2+
205.0649	26	C15H9O+
205.1007	8	C16H13+
206.0716	15	C15H10O+
207.079	78	C15H11O+
208.0499	24	C14H8O2+
208.0868	64	C15H12O+
209.0587	243	C14H9O2+
209.0949	85	C15H13O+
210.0663	218	C14H10O2+
210.0995	27	C15H14O+
211.0739	186	C14H11O2+
211.1105	10	C15H15O+
212.0817	154	C14H12O2+
213.0526	17	C13H9O3+
213.0899	267	C14H13O2+
214.0593	12	C13H10O3+
214.0938	60	C13[13]CH13O2+
215.1057	681	C14H15O2+
216.1089	117	C13[13]CH15O2+
217.1106	13	C13H15NO2+
218.0708	25	C16H10O+
219.0797	83	C16H11O+
220.0876	57	C16H12O+
220.1098	25	C13H16O3+
221.0591	57	C15H9O2+
221.0942	71	C16H13O+
222.0655	18	C15H10O2+
222.0994	22	C16H14O+
222.1274	13	C16H16N+
223.0742	213	C15H11O2+
223.1098	22	C16H15O+
224.0797	65	C15H12O2+
224.1049	17	C15H14NO+
225.0903	580	C15H13O2+
226.0609	35	C14H10O3+
226.0942	117	C15H14O2+
227.0685	30	C14H11O3+
227.1012	21	C14[13]CH14O2+
228.0761	35	C14H12O3+
228.1011	22	C14H14NO2+
229.076	15	C13H11NO3+
229.1099	15	C14H15NO2+
230.1164	16	C14H16NO2+
233.0951	8	C17H13O+
234.0938	7	C16H12NO+
235.0735	22	C16H11O2+
235.097	9	C16H13NO+
236.0826	60	C16H12O2+
236.108	9	C16H14NO+
237.0893	44	C16H13O2+
237.1126	5	C16H15NO+
238.096	45	C16H14O2+
238.1222	15	C16H16NO+
239.0709	17	C15H11O3+
239.1031	41	C16H15O2+
239.1281	11	C16H17NO+
240.0748	10	C15H12O3+
240.1048	12	C15H14NO2+
240.1336	8	C16H18NO+
241.0852	401	C15H13O3+
241.1202	28	C16H17O2+
242.088	75	C14[13]CH13O3+
242.1171	12	C15H16NO2+
243.1007	268	C15H15O3+
244.1046	41	C14[13]CH15O3+
248.1066	18	C17H14NO+
249.1119	17	C17H15NO+
250.0965	7	C17H14O2+
250.1223	53	C17H16NO+
251.1056	57	C17H15O2+
251.1261	28	C17H17NO+
252.1024	45	C16H14NO2+
253.0831	6	C16H13O3+
253.121	47	C17H17O2+
254.093	12	C16H14O3+
254.1189	13	C16H16NO2+
254.1521	6	C17H20NO+
255.1219	5	C16H17NO2+
256.1317	8	C16H18NO2+
257.1151	6	C16H17O3+
264.0998	7	C17H14NO2+
265.1138	5	C17H15NO2+
266.117	150	C17H16NO2+
267.1233	91	C17H17NO2+
268.1282	30	C17H18NO2+
269.1172	17	C17H17O3+
270.1182	5	C16H16NO3+
272.1259	6	C16H18NO3+
280.1327	13	C18H18NO2+
282.1478	112	C18H20NO2+
283.1507	22	C17[13]CH20NO2+
285.134	33	C17H19NO3+
286.1414	5	C17H20NO3+
298.1432	7	C18H20NO3+
300.159	837	C18H22NO3+
301.1614	152	C17[13]CH22NO3+
302.1651	19	C16[13]C2H22NO3+
