Mass spectrum: LSD; LC-ESI-QTOF; MS2; HILIC; CE: 50 eV; R=35000; [M+H]+
Name: LSD
Name: D-Lysergic acid N,N-diethylamide
Name: N,N-diethyl-7-methyl-6,6a,8,9-tetrahydro-4H-indolo[4,3-fg]quinoline-9-carboxamide
Formula: C20H25N3O
Exact mass: 323.1997624
SMILES: CCN(CC)C(=O)C1CN(C2CC3=CNC4=CC=CC(=C34)C2=C1)C
InChI: InChI=1S/C20H25N3O/c1-4-23(5-2)20(24)14-9-16-15-7-6-8-17-19(15)13(11-21-17)10-18(16)22(3)12-14/h6-9,11,14,18,21H,4-5,10,12H2,1-3H3
Instrument: Bruker maXis Impact
Instrument type: LC-ESI-QTOF
Ms type: MS2
Ion mode: POSITIVE
Ionization: ESI
Fragmentation mode: CID
Collision energy: 50 eV
Resolution: 35000
Column name: ACQUITY UPLC BEH Amide 1.7 um 2.1x100mm, Water
Retention time: 6.231 min
Base peak: 324.2081
Precursor m/z: 324.207
Precursor type: [M+H]+
m/z	relative intensity	assigned
128.1065	10	C7H14NO+
129.0694	13	C10H9+
141.069	5	C11H9+
152.0614	29	C12H8+
153.0567	5	C11H7N+
153.0691	87	C12H9+
154.065	72	C11H8N+
155.0696	12	C10[13]CH8N+
155.0841	5	C12H11+
156.0799	15	C11H10N+
164.0611	6	C13H8+
165.0691	35	C13H9+
166.0661	8	C12H8N+
167.0725	186	C12H9N+
168.0793	55	C12H10N+
169.0831	6	C11[13]CH10N+
178.0649	8	C13H8N+
179.0719	16	C13H9N+
180.0803	430	C13H10N+
181.0647	16	C13H9O+
181.0865	146	C13H11N+
182.0844	117	C12H10N2+
182.0922	82	C13H12N+
183.0871	14	C11[13]CH10N2+
183.0963	12	C12[13]CH12N+
190.0644	20	C14H8N+
191.0725	140	C14H9N+
192.08	223	C14H10N+
193.077	111	C13H9N2+
194.0802	18	C12[13]CH9N2+
194.0954	88	C14H12N+
195.1027	55	C14H13N+
196.1104	34	C14H14N+
197.1072	92	C13H13N2+
198.1096	11	C12[13]CH13N2+
205.0758	18	C14H9N2+
206.0834	22	C14H10N2+
207.0676	157	C14H9NO+
207.0916	999	C14H11N2+
208.0749	189	C14H10NO+
208.0982	696	C14H12N2+
209.0782	19	C13[13]CH10NO+
209.1027	66	C13[13]CH12N2+
220.099	26	C15H12N2+
221.1069	150	C15H13N2+
222.1132	48	C15H14N2+
223.1225	322	C15H15N2+
224.126	38	C14[13]CH15N2+
