Mass spectrum: JWH-073; LC-ESI-QTOF; MS2; HILIC; CE: 50 eV; R=35000; [M+H]+
Name: JWH-073
Name: 1-Butyl-3-(1-naphthoyl)indole
Name: (1-butylindol-3-yl)-naphthalen-1-ylmethanone
Formula: C23H21NO
Exact mass: 327.1623143
SMILES: CCCCN1C=C(C2=CC=CC=C21)C(=O)C3=CC=CC4=CC=CC=C43
InChI: InChI=1S/C23H21NO/c1-2-3-15-24-16-21(19-12-6-7-14-22(19)24)23(25)20-13-8-10-17-9-4-5-11-18(17)20/h4-14,16H,2-3,15H2,1H3
Instrument: Bruker maXis Impact
Instrument type: LC-ESI-QTOF
Ms type: MS2
Ion mode: POSITIVE
Ionization: ESI
Fragmentation mode: CID
Collision energy: 50 eV
Resolution: 35000
Column name: ACQUITY UPLC BEH Amide 1.7 um 2.1x100mm, Water
Retention time: 1.364 min
Base peak: 342.1855
Precursor m/z: 328.1696
Precursor type: [M+H]+
m/z	relative intensity	assigned
116.049	47	C8H6N+
117.0695	13	C9H9+
126.0459	86	C10H6+
127.0538	851	C10H7+
130.0643	8	C9H8N+
131.0493	9	C9H7O+
144.0439	393	C9H6NO+
145.0642	999	C10H9O+
155.0482	505	C11H7O+
157.0648	9	C11H9O+
158.0583	9	C10H8NO+
200.1064	66	C13H14NO+
