Mass spectrum: JWH-073; LC-ESI-QTOF; MS2; CE: 20 eV; R=35000; [M+Na]+
Name: JWH-073
Name: 1-Butyl-3-(1-naphthoyl)indole
Name: (1-butylindol-3-yl)-naphthalen-1-ylmethanone
Formula: C23H21NO
Exact mass: 327.1623143
SMILES: CCCCN1C=C(C2=CC=CC=C21)C(=O)C3=CC=CC4=CC=CC=C43
InChI: InChI=1S/C23H21NO/c1-2-3-15-24-16-21(19-12-6-7-14-22(19)24)23(25)20-13-8-10-17-9-4-5-11-18(17)20/h4-14,16H,2-3,15H2,1H3
Instrument: Bruker maXis Impact
Instrument type: LC-ESI-QTOF
Ms type: MS2
Ion mode: POSITIVE
Ionization: ESI
Fragmentation mode: CID
Collision energy: 20 eV
Resolution: 35000
Column name: Acclaim RSLC C18 2.2um, 2.1x100mm, Thermo
Retention time: 12.091 min
Base peak: 328.1721
Precursor m/z: 350.1515
Precursor type: [M+Na]+
m/z	relative intensity	assigned
301.0669	144	C23H9O+
350.1542	999	C23H21NNaO+
351.1582	226	C22[13]CH21NNaO+
