Mass spectrum: JWH-073; LC-ESI-QTOF; MS2; CE: 40 eV; R=35000; [M+H]+
Name: JWH-073
Name: 1-Butyl-3-(1-naphthoyl)indole
Name: (1-butylindol-3-yl)-naphthalen-1-ylmethanone
Formula: C23H21NO
Exact mass: 327.1623143
SMILES: CCCCN1C=C(C2=CC=CC=C21)C(=O)C3=CC=CC4=CC=CC=C43
InChI: InChI=1S/C23H21NO/c1-2-3-15-24-16-21(19-12-6-7-14-22(19)24)23(25)20-13-8-10-17-9-4-5-11-18(17)20/h4-14,16H,2-3,15H2,1H3
Instrument: Bruker maXis Impact
Instrument type: LC-ESI-QTOF
Ms type: MS2
Ion mode: POSITIVE
Ionization: ESI
Fragmentation mode: CID
Collision energy: 40 eV
Resolution: 35000
Column name: Acclaim RSLC C18 2.2um, 2.1x100mm, Thermo
Retention time: 12.128 min
Base peak: 328.1724
Precursor m/z: 328.1696
Precursor type: [M+H]+
m/z	relative intensity	assigned
116.0503	7	C8H6N+
117.0703	6	C9H9+
126.0468	23	C10H6+
127.0551	250	C10H7+
128.0579	24	C9[13]CH7+
144.0453	201	C9H6NO+
145.0658	472	C10H9O+
146.0689	39	C9[13]CH9O+
155.0505	999	C11H7O+
156.0536	103	C10[13]CH7O+
157.0561	6	C9[13]C2H7O+
158.0605	6	C10H8NO+
200.1085	153	C13H14NO+
201.1117	19	C12[13]CH14NO+
