Mass spectrum: Betamethasone 21-Acetate; LC-ESI-QTOF; MS2; HILIC; CE: 50 eV; R=35000; [M+H]+
Name: Betamethasone 21-Acetate
Name: [2-[(8S,9R,10S,11S,13S,14S,16S,17R)-9-fluoro-11,17-dihydroxy-10,13,16-trimethyl-3-oxo-6,7,8,11,12,14,15,16-octahydrocyclopenta[a]phenanthren-17-yl]-2-oxoethyl] acetate
Formula: C24H31FO6
Exact mass: 434.2104669
SMILES: C[C@H]1C[C@H]2[C@@H]3CCC4=CC(=O)C=C[C@]4(C)[C@@]3(F)[C@@H](O)C[C@]2(C)[C@@]1(O)C(=O)COC(C)=O
InChI: InChI=1S/C24H31FO6/c1-13-9-18-17-6-5-15-10-16(27)7-8-21(15,3)23(17,25)19(28)11-22(18,4)24(13,30)20(29)12-31-14(2)26/h7-8,10,13,17-19,28,30H,5-6,9,11-12H2,1-4H3/t13-,17-,18-,19-,21-,22-,23-,24-/m0/s1
Instrument: Bruker maXis Impact
Instrument type: LC-ESI-QTOF
Ms type: MS2
Ion mode: POSITIVE
Ionization: ESI
Fragmentation mode: CID
Collision energy: 50 eV
Resolution: 35000
Column name: ACQUITY UPLC BEH Amide 1.7 um 2.1x100mm, Water
Retention time: 1.515 min
Base peak: 435.2209
Precursor m/z: 435.2177
Precursor type: [M+H]+
m/z	relative intensity	assigned
115.0541	68	C9H7+
116.0601	13	C9H8+
117.0703	40	C9H9+
119.0857	130	C9H11+
121.0652	290	C8H9O+
121.1016	52	C9H13+
122.0682	29	C7[13]CH9O+
123.0817	43	C5H12FO2+
125.0597	18	C7H9O2+
127.0542	13	C10H7+
128.0628	152	C7H9FO+
129.07	90	C10H9+
130.0773	17	C10H10+
131.0503	26	C6H8FO2+
131.086	119	C10H11+
132.0575	64	C9H8O+
132.0904	20	C10H12+
133.0653	62	C9H9O+
133.1014	78	C10H13+
135.0808	256	C9H11O+
136.0846	23	C8[13]CH11O+
137.0603	21	C5H10FO3+
137.0957	28	C9H13O+
139.0567	14	C8H8FO+
139.0742	17	C8H11O2+
141.07	89	C11H9+
142.0776	51	C11H10+
143.0859	177	C11H11+
144.0568	67	C10H8O+
144.09	41	C11H12+
145.0646	161	C10H9O+
145.1015	107	C11H13+
146.0727	45	C10H10O+
147.0807	999	C10H11O+
148.0845	101	C9[13]CH11O+
149.0964	85	C10H13O+
150.1011	17	C10H14O+
151.0753	30	C9H11O2+
153.0708	39	C9H10FO+
153.091	54	C9H13O2+
154.0764	32	C12H10+
155.0588	16	C4H11O6+
155.0859	106	C12H11+
156.0913	25	C12H12+
157.0661	31	C8H10FO2+
157.1015	64	C12H13+
158.0728	124	C11H10O+
159.0806	485	C11H11O+
160.0864	89	C10[13]CH11O+
161.0592	20	C10H9O2+
161.0963	192	C11H13O+
163.0774	35	C7H12FO3+
165.0703	38	C13H9+
165.0916	17	C7H14FO3+
166.0793	27	C10H11FO+
167.0854	63	C13H11+
167.1071	36	C10H15O2+
168.0592	19	C9H9FO2+
168.0924	29	C13H12+
169.0655	62	C9H10FO2+
169.1005	67	C13H13+
170.072	40	C12H10O+
170.107	21	C13H14+
171.0812	515	C9H12FO2+
171.1168	30	C13H15+
172.0857	69	C8[13]CH12FO2+
173.0965	278	C12H13O+
174.1006	58	C11[13]CH13O+
175.0765	22	C8H12FO3+
175.1108	31	C12H15O+
177.0937	18	C8H14FO3+
178.0779	71	C14H10+
179.0861	118	C11H12FO+
180.0926	31	C14H12+
181.0651	61	C13H9O+
181.1024	61	C11H14FO+
182.072	46	C13H10O+
183.0798	81	C13H11O+
183.119	36	C11H16FO+
184.0883	34	C13H12O+
185.0594	21	C12H9O2+
185.0964	245	C13H13O+
186.1013	54	C12[13]CH13O+
187.076	120	C9H12FO3+
187.111	71	C13H15O+
188.079	19	C12H12O2+
189.0728	29	C12H10FO+
189.09	23	C12H13O2+
190.0783	35	C15H10+
191.0861	56	C15H11+
192.093	46	C15H12+
193.1019	117	C12H14FO+
194.0729	22	C14H10O+
194.1108	46	C12H15FO+
195.0812	97	C11H12FO2+
195.1171	46	C15H15+
196.0886	122	C14H12O+
197.0965	242	C14H13O+
198.1024	71	C14H14O+
199.076	17	C10H12FO3+
199.1115	73	C14H15O+
202.0773	15	C16H10+
203.0852	40	C16H11+
204.093	85	C16H12+
205.1024	73	C13H14FO+
206.0756	13	C12H11FO2+
206.1102	45	C13H15FO+
207.0823	41	C12H12FO2+
207.117	90	C16H15+
208.0887	106	C15H12O+
208.1216	21	C16H16+
209.0958	221	C15H13O+
209.1317	47	C16H17+
210.1032	122	C15H14O+
211.1126	238	C12H16FO2+
212.1182	162	C15H16O+
213.0903	33	C14H13O2+
213.1286	106	C12H18FO2+
214.1316	20	C15H18O+
215.0865	23	C14H12FO+
215.1071	50	C14H15O2+
216.0941	33	C14H13FO+
216.1093	22	C14H16O2+
217.1028	20	C14H14FO+
218.1079	20	C17H14+
219.0808	33	C16H11O+
219.1175	81	C14H16FO+
220.0898	31	C13H13FO2+
220.1235	39	C17H16+
221.0971	197	C13H14FO2+
221.1325	37	C17H17+
222.1045	273	C13H15FO2+
222.1385	15	C17H18+
223.1114	230	C16H15O+
224.1187	82	C16H16O+
225.0906	18	C15H13O2+
225.1286	77	C13H18FO2+
226.1354	38	C16H18O+
227.109	15	C12H16FO3+
227.1431	58	C16H19O+
228.0946	14	C15H13FO+
228.1474	21	C16H20O+
229.1023	49	C15H14FO+
230.1082	33	C18H14+
231.0819	16	C14H12FO2+
231.1174	41	C18H15+
232.0898	26	C14H13FO2+
232.1255	24	C15H17FO+
233.0957	61	C17H13O+
233.1306	19	C18H17+
234.1038	93	C17H14O+
234.1384	18	C18H18+
235.112	227	C17H15O+
235.1475	47	C18H19+
236.1194	96	C17H16O+
236.1561	28	C18H20+
237.1279	244	C17H17O+
237.1635	15	C18H21+
238.1028	18	C13H15FO3+
238.1329	68	C16[13]CH17O+
239.1071	25	C16H15O2+
239.1436	86	C17H19O+
240.1121	14	C16H16O2+
240.1512	13	C17H20O+
241.1048	16	C12H17O5+
241.1211	16	C16H17O2+
242.1096	13	C19H14+
243.1175	36	C16H16FO+
244.1235	42	C19H16+
245.0967	48	C15H14FO2+
245.1349	38	C16H18FO+
246.1041	54	C18H14O+
246.1372	20	C19H18+
247.1124	125	C15H16FO2+
247.149	23	C16H20FO+
248.1203	155	C15H17FO2+
249.1273	132	C18H17O+
249.1647	20	C16H22FO+
250.1338	53	C18H18O+
250.1697	13	C19H22+
251.1118	15	C14H16FO3+
251.1438	60	C15H20FO2+
252.151	56	C18H20O+
253.1228	18	C17H17O2+
253.158	51	C18H21O+
257.1318	14	C20H17+
258.1432	25	C17H19FO+
259.1116	38	C19H15O+
259.1494	17	C17H20FO+
260.1209	82	C16H17FO2+
261.128	155	C16H18FO2+
261.1645	39	C17H22FO+
262.1366	150	C16H19FO2+
263.1067	19	C18H15O2+
263.1446	269	C16H20FO2+
264.1144	14	C18H16O2+
264.15	65	C15[13]CH20FO2+
265.1599	38	C16H22FO2+
266.1651	17	C19H22O+
267.1402	23	C15H20FO3+
268.1301	17	C14H20O5+
269.1331	13	C18H18FO+
271.1137	66	C17H16FO2+
271.1477	17	C21H19+
272.1223	37	C17H17FO2+
273.1286	23	C17H18FO2+
274.1356	33	C20H18O+
275.1052	14	C19H15O2+
275.1415	35	C20H19O+
276.1142	16	C19H16O2+
276.1525	118	C17H21FO2+
277.1227	18	C19H17O2+
277.1579	87	C20H21O+
278.1682	49	C17H23FO2+
279.14	19	C16H20FO3+
279.1761	61	C17H24FO2+
285.1289	22	C18H18FO2+
286.1353	56	C21H18O+
287.1432	29	C21H19O+
289.1234	20	C17H18FO3+
289.1591	23	C21H21O+
290.126	15	C20H18O2+
291.1412	13	C17H20FO3+
291.1764	55	C18H24FO2+
292.1824	15	C21H24O+
293.1521	15	C20H21O2+
295.1702	20	C17H24FO3+
301.1616	45	C19H22FO2+
302.1604	17	C22H22O+
304.1518	19	C18H21FO3+
305.1561	14	C18H22FO3+
306.1664	14	C18H23FO3+
309.1858	18	C18H26FO3+
319.167	22	C22H23O2+
