Mass spectrum: N4-Acetylsulfadiazine; LC-ESI-QTOF; MS2; CE: 20 eV; R=35000; [M+H]+
Name: N4-Acetylsulfadiazine
Name: N-Acetyl Sulfadiazine
Name: N-[4-(pyrimidin-2-ylsulfamoyl)phenyl]acetamide
Formula: C12H12N4O3S
Exact mass: 292.0630112
SMILES: CC(=O)NC1=CC=C(C=C1)S(=O)(=O)NC1=NC=CC=N1
InChI: InChI=1S/C12H12N4O3S/c1-9(17)15-10-3-5-11(6-4-10)20(18,19)16-12-13-7-2-8-14-12/h2-8H,1H3,(H,15,17)(H,13,14,16)
Instrument: Bruker maXis Impact
Instrument type: LC-ESI-QTOF
Ms type: MS2
Ion mode: POSITIVE
Ionization: ESI
Fragmentation mode: CID
Collision energy: 20 eV
Resolution: 35000
Column name: Acclaim RSLC C18 2.2um, 2.1x100mm, Thermo
Retention time: 3.9 min
Base peak: 293.0698
Precursor m/z: 293.0703
Precursor type: [M+H]+
m/z	relative intensity	assigned
134.0589	369	C6H6N4+
135.0639	52	C3H9N3O3+
136.0748	221	C6H8N4+
137.078	27	C3H11N3O3+
150.0542	89	C6H6N4O+
152.0685	18	C6H8N4O+
156.0114	42	C6H6NO2S+
158.0007	82	C9H2O3+
162.065	82	C8H8N3O+
176.0118	70	C10N4+
185.0808	32	C7H11N3O3+
198.0212	885	C6H6N4O2S+
199.0244	98	C5[13]CH6N4O2S+
200.0176	47	C11H6NOS+
227.0919	193	C12H11N4O+
228.0953	37	C11[13]CH11N4O+
293.0702	999	C12H13N4O3S+
