Mass spectrum: Azoxystrobin acid; LC-ESI-QTOF; MS2; HILIC; CE: 50 eV; R=35000; [M+H]+
Name: Azoxystrobin acid
Name: SCHEMBL435486
Name: (E)-2-[2-[6-(2-cyanophenoxy)pyrimidin-4-yl]oxyphenyl]-3-methoxyprop-2-enoic acid
Formula: C21H15N3O5
Exact mass: 389.1011706
SMILES: CO\C=C(\C(O)=O)c1ccccc1Oc1cc(Oc2ccccc2C#N)ncn1
InChI: InChI=1S/C21H15N3O5/c1-27-12-16(21(25)26)15-7-3-5-9-18(15)29-20-10-19(23-13-24-20)28-17-8-4-2-6-14(17)11-22/h2-10,12-13H,1H3,(H,25,26)/b16-12+
Instrument: Bruker maXis Impact
Instrument type: LC-ESI-QTOF
Ms type: MS2
Ion mode: POSITIVE
Ionization: ESI
Fragmentation mode: CID
Collision energy: 50 eV
Resolution: 35000
Column name: ACQUITY UPLC BEH Amide 1.7 um 2.1x100mm, Water
Retention time: 1.565 min
Base peak: 453.2799
Precursor m/z: 390.1084
Precursor type: [M+H]+
m/z	relative intensity	assigned
114.0345	31	C8H4N+
116.0493	27	C8H6N+
119.0372	24	C7H5NO+
120.0451	61	C7H6NO+
121.0651	15	C8H9O+
127.0428	36	C9H5N+
128.0504	28	C9H6N+
129.0353	46	C9H5O+
129.0448	89	C8H5N2+
130.0298	21	C8H4NO+
131.0496	19	C9H7O+
132.0461	49	C8H6NO+
133.0285	25	C8H5O2+
133.0524	187	C8H7NO+
134.0361	26	C8H6O2+
134.061	204	C8H8NO+
135.0637	16	C3H9N3O3+
140.0537	15	C3H10NO5+
141.0453	70	C9H5N2+
143.0376	49	C9H5NO+
143.0611	104	C9H7N2+
144.0461	62	C9H6NO+
145.0286	53	C9H5O2+
145.0526	150	C9H7NO+
146.0248	44	C8H4NO2+
146.0588	26	C9H8NO+
149.0232	67	C8H5O3+
154.0306	22	C10H4NO+
154.0537	24	C10H6N2+
155.0369	20	C10H5NO+
155.0605	81	C10H7N2+
156.0452	664	C10H6NO+
157.0294	35	C10H5O2+
157.0495	67	C9[13]CH6NO+
159.0343	18	C9H5NO2+
159.0559	23	C9H7N2O+
160.0387	26	C9H6NO2+
161.0457	15	C6H9O5+
162.032	28	C9H6O3+
169.0407	73	C10H5N2O+
170.0267	19	C10H4NO2+
170.0478	76	C10H6N2O+
171.0319	54	C10H5NO2+
171.0569	143	C10H7N2O+
172.0401	999	C10H6NO2+
173.045	137	C9[13]CH6NO2+
174.0484	23	C14H6+
177.0551	39	C10H9O3+
181.0406	27	C11H5N2O+
182.048	72	C11H6N2O+
182.0726	43	C13H10O+
183.0564	716	C11H7N2O+
184.0412	26	C11H6NO2+
184.0593	84	C10[13]CH7N2O+
185.036	22	C10H5N2O2+
185.0744	18	C11H9N2O+
186.0576	36	C11H8NO2+
187.0519	41	C10H7N2O2+
197.0368	22	C16H5+
197.0714	20	C12H9N2O+
199.0515	272	C11H7N2O2+
200.0351	454	C11H6NO3+
201.0431	244	C11H7NO3+
201.0686	44	C16H9+
202.0458	31	C10[13]CH7NO3+
210.0444	156	C12H6N2O2+
210.0679	31	C14H10O2+
211.0505	111	C12H7N2O2+
216.0673	54	C15H8N2+
217.075	20	C15H9N2+
218.0855	19	C15H10N2+
227.045	18	C12H7N2O3+
228.0698	15	C16H8N2+
229.0777	17	C16H9N2+
231.0925	22	C16H11N2+
232.0832	23	C12H12N2O3+
233.073	23	C15H9N2O+
234.0918	15	C16H12NO+
242.0348	61	C15H4N3O+
244.0861	56	C16H10N3+
245.0722	54	C16H9N2O+
245.0944	23	C16H11N3+
246.0813	63	C16H10N2O+
247.0856	31	C16H11N2O+
256.089	16	C19H12O+
257.0692	21	C14H11NO4+
258.0799	22	C17H10N2O+
259.0869	31	C17H11N2O+
261.0796	24	C17H11NO2+
261.1066	15	C13H15N3O3+
272.0845	206	C19H12O2+
273.0693	136	C17H9N2O2+
273.0906	160	C19H13O2+
274.0751	104	C17H10N2O2+
274.0922	33	C18[13]CH13O2+
275.0809	67	C17H11N2O2+
284.0847	20	C20H12O2+
287.082	39	C18H11N2O2+
288.065	17	C18H10NO3+
288.1116	15	C15H16N2O4+
300.0796	253	C20H12O3+
301.0855	329	C20H13O3+
302.0901	81	C19[13]CH13O3+
303.0874	17	C19H13NO3+
328.0742	548	C21H12O4+
329.0811	864	C21H13O4+
330.0844	179	C20[13]CH13O4+
344.1046	56	C20H14N3O3+
