Mass spectrum: Carbamazepine-10,11-epoxide; LC-ESI-QTOF; MS2; HILIC; CE: 30 eV; R=35000; [M+H]+
Name: Carbamazepine-10,11-epoxide
Name: Carbamazepine epoxide
Formula: C15H12N2O2
Exact mass: 252.0898776
SMILES: NC(=O)N1C2=C(C=CC=C2)C2OC2C2=C1C=CC=C2
InChI: InChI=1S/C15H12N2O2/c16-15(18)17-11-7-3-1-5-9(11)13-14(19-13)10-6-2-4-8-12(10)17/h1-8,13-14H,(H2,16,18)
Instrument: Bruker maXis Impact
Instrument type: LC-ESI-QTOF
Ms type: MS2
Ion mode: POSITIVE
Ionization: ESI
Fragmentation mode: CID
Collision energy: 30 eV
Resolution: 35000
Column name: ACQUITY UPLC BEH Amide 1.7 um 2.1x100 mm, Waters
Retention time: 2.518 min
Base peak: 271.1096
Precursor m/z: 253.0972
Precursor type: [M+H]+
m/z	relative intensity	assigned
131.0495	7	C9H7O+
152.0638	5	C12H8+
165.0706	10	C13H9+
167.0734	37	C12H9N+
179.0736	6	C13H9N+
180.0817	999	C13H10N+
181.0855	162	C12[13]CH10N+
182.0972	298	C13H12N+
183.1006	40	C12[13]CH12N+
192.0831	6	C14H10N+
193.0883	10	C14H11N+
208.0767	7	C14H10NO+
209.0829	7	C14H11NO+
210.0923	170	C14H12NO+
211.0948	40	C13[13]CH12NO+
