Mass spectrum: Irbesartan; LC-ESI-QTOF; MS2; HILIC; CE: 40 eV; R=35000; [M+H]+
Name: Irbesartan
Name: 2-butyl-3-[[4-[2-(2H-tetrazol-5-yl)phenyl]phenyl]methyl]-1,3-diazaspiro[4.4]non-1-en-4-one
Formula: C25H28N6O
Exact mass: 428.2324595
SMILES: CCCCC1=NC2(CCCC2)C(=O)N1CC1=CC=C(C=C1)C1=CC=CC=C1C1=NNN=N1
InChI: InChI=1S/C25H28N6O/c1-2-3-10-22-26-25(15-6-7-16-25)24(32)31(22)17-18-11-13-19(14-12-18)20-8-4-5-9-21(20)23-27-29-30-28-23/h4-5,8-9,11-14H,2-3,6-7,10,15-17H2,1H3,(H,27,28,29,30)
Instrument: Bruker maXis Impact
Instrument type: LC-ESI-QTOF
Ms type: MS2
Ion mode: POSITIVE
Ionization: ESI
Fragmentation mode: CID
Collision energy: 40 eV
Resolution: 35000
Column name: ACQUITY UPLC BEH Amide 1.7 um 2.1x100mm, Waters
Retention time: 1.616 min
Base peak: 224.0695
Precursor m/z: 429.2397
Precursor type: [M+H]+
m/z	relative intensity	assigned
153.0696	6	C12H9+
167.1545	16	C10H19N2+
178.0655	6	C13H8N+
179.0727	8	C13H9N+
180.0812	82	C13H10N+
181.0844	10	C12[13]CH10N+
190.0654	17	C14H8N+
191.0717	6	C14H9N+
192.0806	42	C14H10N+
193.0841	6	C13[13]CH10N+
195.15	81	C11H19N2O+
196.076	7	C13H10NO+
196.153	9	C10[13]CH19N2O+
205.0765	20	C14H9N2+
206.0844	69	C14H10N2+
207.0927	999	C14H11N2+
208.0957	130	C14H12N2+
209.0984	6	C13[13]CH12N2+
386.2247	8	C25H28N3O+
