Mass spectrum: Atenolol acid; LC-ESI-QTOF; MS2; CE: 20 eV; R=35000; [M+H]+
Name: Atenolol acid
Name: Metoprolol acid
Name: 2-[4-[2-hydroxy-3-(propan-2-ylamino)propoxy]phenyl]acetic acid
Formula: C14H21NO4
Exact mass: 267.1470582
SMILES: CC(C)NCC(O)COC1=CC=C(CC(O)=O)C=C1
InChI: InChI=1S/C14H21NO4/c1-10(2)15-8-12(16)9-19-13-5-3-11(4-6-13)7-14(17)18/h3-6,10,12,15-16H,7-9H2,1-2H3,(H,17,18)
Instrument: Bruker maXis Impact
Instrument type: LC-ESI-QTOF
Ms type: MS2
Ion mode: POSITIVE
Ionization: ESI
Fragmentation mode: CID
Collision energy: 20 eV
Resolution: 35000
Column name: Acclaim RSLC C18 2.2um, 2.1x100mm, Thermo
Retention time: 3.733 min
Base peak: 268.1539
Precursor m/z: 268.1543
Precursor type: [M+H]+
m/z	relative intensity	assigned
116.1061	13	C6H14NO+
145.0636	111	C10H9O+
146.0672	12	C9[13]CH9O+
162.0901	5	C10H12NO+
163.0734	7	C10H11O2+
165.0534	53	C9H9O3+
179.0688	6	C10H11O3+
191.0694	293	C11H11O3+
192.0726	31	C10[13]CH11O3+
208.0958	8	C11H14NO3+
226.1064	150	C11H16NO4+
227.1101	13	C10[13]CH16NO4+
250.143	32	C14H20NO3+
268.154	999	C14H22NO4+
269.1569	128	C13[13]CH22NO4+
270.1583	13	C12[13]C2H22NO4+
