Mass spectrum: Thiacloprid-amide; LC-ESI-QTOF; MS2; CE: Ramp 20.6-30.9 eV; R=35000; [M+H]+
Name: Thiacloprid-amide
Name: (Z)-[3-[(6-chloropyridin-3-yl)methyl]-1,3-thiazolidin-2-ylidene]urea
Formula: C10H11ClN4OS
Exact mass: 270.0342097
SMILES: NC(=O)\N=C1/SCCN1CC1=CN=C(Cl)C=C1
InChI: InChI=1S/C10H11ClN4OS/c11-8-2-1-7(5-13-8)6-15-3-4-17-10(15)14-9(12)16/h1-2,5H,3-4,6H2,(H2,12,16)/b14-10-
Instrument: Bruker maXis Impact
Instrument type: LC-ESI-QTOF
Ms type: MS2
Ion mode: POSITIVE
Ionization: ESI
Fragmentation mode: CID
Collision energy: Ramp 20.6-30.9 eV
Resolution: 35000
Column name: Acclaim RSLC C18 2.2um, 2.1x100mm, Thermo
Retention time: 4.778 min
Base peak: 271.041
Precursor m/z: 271.0415
Precursor type: [M+H]+
m/z	relative intensity	assigned
90.0336	9	C6H4N+
101.0171	13	C3H5N2S+
103.0322	8	C3H7N2S+
126.0098	999	C6H5ClN+
127.013	83	C5[13]CH5ClN+
128.0067	293	C6H5[37]ClN+
129.0104	21	C6H6ClO+
132.0546	13	C7H6N3+
144.0192	11	C7H2N3O+
165.0463	6	C10H10Cl+
168.0306	21	C10H4N2O+
186.0129	76	C8H9ClNS+
187.0174	6	C7[13]CH9ClNS+
188.0095	23	C8H9[37]ClNS+
192.0578	64	C9H10N3S+
211.008	8	C10H3N4S+
228.0351	582	C9H11ClN3S+
229.0375	55	C8[13]CH11ClN3S+
230.0321	170	C9H11[37]ClN3S+
231.0348	9	C9H12ClN2OS+
254.0145	202	C10H9ClN3OS+
255.0167	21	C9[13]CH9ClN3OS+
256.0116	63	C10H9[37]ClN3OS+
271.0411	11	C10H12ClN4OS+
