Mass spectrum: Azoxystrobin acid; LC-ESI-QTOF; MS2; HILIC; CE: 30 eV; R=35000; [M+H]+
Name: Azoxystrobin acid
Name: SCHEMBL435486
Name: (E)-2-[2-[6-(2-cyanophenoxy)pyrimidin-4-yl]oxyphenyl]-3-methoxyprop-2-enoic acid
Formula: C21H15N3O5
Exact mass: 389.1011706
SMILES: CO\C=C(\C(O)=O)c1ccccc1Oc1cc(Oc2ccccc2C#N)ncn1
InChI: InChI=1S/C21H15N3O5/c1-27-12-16(21(25)26)15-7-3-5-9-18(15)29-20-10-19(23-13-24-20)28-17-8-4-2-6-14(17)11-22/h2-10,12-13H,1H3,(H,25,26)/b16-12+
Instrument: Bruker maXis Impact
Instrument type: LC-ESI-QTOF
Ms type: MS2
Ion mode: POSITIVE
Ionization: ESI
Fragmentation mode: CID
Collision energy: 30 eV
Resolution: 35000
Column name: ACQUITY UPLC BEH Amide 1.7 um 2.1x100 mm, Waters
Retention time: 1.529 min
Base peak: 453.279
Precursor m/z: 390.1084
Precursor type: [M+H]+
m/z	relative intensity	assigned
129.045	5	C8H5N2+
133.087	5	C6H13O3+
134.0609	27	C8H8NO+
143.0609	17	C9H7N2+
145.0289	10	C9H5O2+
156.0448	6	C10H6NO+
162.0553	8	C9H8NO2+
169.0408	8	C10H5N2O+
171.056	12	C10H7N2O+
172.0398	32	C10H6NO2+
177.055	12	C10H9O3+
183.0563	14	C11H7N2O+
187.0509	8	C10H7N2O2+
201.0427	12	C11H7NO3+
201.0664	31	C11H9N2O2+
202.0493	6	C11H8NO3+
210.0428	10	C12H6N2O2+
210.0671	26	C14H10O2+
216.0664	48	C12H10NO3+
217.0706	6	C11[13]CH10NO3+
273.0907	6	C19H13O2+
287.0835	17	C18H11N2O2+
288.0668	5	C18H10NO3+
288.0854	5	C17[13]CH11N2O2+
288.1171	8	C20H16O2+
289.0982	10	C18H13N2O2+
301.0871	33	C20H13O3+
302.0899	9	C19[13]CH13O3+
303.0775	15	C18H11N2O3+
312.079	6	C21H12O3+
314.094	12	C21H14O3+
315.1018	15	C21H15O3+
316.1097	68	C21H16O3+
317.0962	12	C19H13N2O3+
317.1119	16	C20[13]CH16O3+
328.0736	11	C21H12O4+
329.0819	466	C21H13O4+
330.0846	92	C19H12N3O3+
331.0869	11	C18[13]CH12N3O3+
340.0739	7	C20H10N3O3+
344.106	999	C20H14N3O3+
345.1087	210	C20H15N3O3+
346.1141	33	C19[13]CH15N3O3+
372.1011	560	C21H14N3O4+
373.1035	116	C21H15N3O4+
374.106	12	C20[13]CH15N3O4+
