Mass spectrum: Atenolol acid; LC-ESI-QTOF; MS2; CE: 50 eV; R=35000; [M+H]+
Name: Atenolol acid
Name: Metoprolol acid
Name: 2-[4-[2-hydroxy-3-(propan-2-ylamino)propoxy]phenyl]acetic acid
Formula: C14H21NO4
Exact mass: 267.1470582
SMILES: CC(C)NCC(O)COC1=CC=C(CC(O)=O)C=C1
InChI: InChI=1S/C14H21NO4/c1-10(2)15-8-12(16)9-19-13-5-3-11(4-6-13)7-14(17)18/h3-6,10,12,15-16H,7-9H2,1-2H3,(H,17,18)
Instrument: Bruker maXis Impact
Instrument type: LC-ESI-QTOF
Ms type: MS2
Ion mode: POSITIVE
Ionization: ESI
Fragmentation mode: CID
Collision energy: 50 eV
Resolution: 35000
Column name: Acclaim RSLC C18 2.2um, 2.1x100mm, Thermo
Retention time: 3.706 min
Base peak: 268.1542
Precursor m/z: 268.1543
Precursor type: [M+H]+
m/z	relative intensity	assigned
115.0535	288	C9H7+
116.0593	55	C9H8+
117.0693	111	C9H9+
118.0721	14	C8[13]CH9+
119.0481	44	C8H7O+
120.0545	9	C8H8O+
121.0643	13	C8H9O+
123.0435	29	C7H7O2+
127.0537	28	C10H7+
131.0487	31	C9H7O+
132.0555	14	C9H8O+
133.0641	27	C9H9O+
134.0605	13	C8H8NO+
135.0431	73	C8H7O2+
136.0489	8	C7[13]CH7O2+
137.0587	34	C8H9O2+
144.0561	88	C10H8O+
145.0636	999	C10H9O+
146.0664	97	C9[13]CH9O+
147.0422	12	C9H7O2+
153.0523	20	C8H9O3+
155.0593	58	C7H9NO3+
156.064	7	C7H10NO3+
163.0742	11	C10H11O2+
164.0509	17	C12H6N+
165.0529	31	C9H9O3+
191.0708	7	C11H11O3+
