Mass spectrum: N-Desmethyl Clarithromycin; LC-ESI-QTOF; MS2; HILIC; CE: 50 eV; R=35000; [M+H]+
Name: N-Desmethyl Clarithromycin
Name: 14-ethyl-12,13-dihydroxy-4-(5-hydroxy-4-methoxy-4,6-dimethyloxan-2-yl)oxy-6-[3-hydroxy-6-methyl-4-(methylamino)oxan-2-yl]oxy-7-methoxy-3,5,7,9,11,13-hexamethyl-oxacyclotetradecane-2,10-dione
Formula: C37H67NO13
Exact mass: 733.4612412
SMILES: CCC1OC(=O)C(C)C(OC2CC(C)(OC)C(O)C(C)O2)C(C)C(OC2OC(C)CC(NC)C2O)C(C)(CC(C)C(=O)C(C)C(O)C1(C)O)OC
InChI: InChI=1S/C37H67NO13/c1-14-25-37(10,44)30(41)20(4)27(39)18(2)16-36(9,46-13)32(51-34-28(40)24(38-11)15-19(3)47-34)21(5)29(22(6)33(43)49-25)50-26-17-35(8,45-12)31(42)23(7)48-26/h18-26,28-32,34,38,40-42,44H,14-17H2,1-13H3
Instrument: Bruker maXis Impact
Instrument type: LC-ESI-QTOF
Ms type: MS2
Ion mode: POSITIVE
Ionization: ESI
Fragmentation mode: CID
Collision energy: 50 eV
Resolution: 35000
Column name: ACQUITY UPLC BEH Amide 1.7 um 2.1x100mm, Water
Retention time: 6.131 min
Base peak: 734.4731
Precursor m/z: 734.4685
Precursor type: [M+H]+
m/z	relative intensity	assigned
123.0804	24	C8H11O+
126.0915	6	C7H12NO+
127.0753	27	C7H11O2+
137.096	5	C9H13O+
144.1021	999	C7H14NO2+
145.1054	76	C6[13]CH14NO2+
170.1177	24	C9H16NO2+
183.1019	7	C10H15O3+
193.1223	11	C12H17O2+
251.1644	6	C15H23O3+
289.1805	23	C18H25O3+
307.1912	20	C18H27O4+
365.2333	11	C21H33O5+
