Mass spectrum: Carbamazepine-10,11-epoxide; LC-ESI-QTOF; MS2; HILIC; CE: 20 eV; R=35000; [M+H]+
Name: Carbamazepine-10,11-epoxide
Name: Carbamazepine epoxide
Formula: C15H12N2O2
Exact mass: 252.0898776
SMILES: NC(=O)N1C2=C(C=CC=C2)C2OC2C2=C1C=CC=C2
InChI: InChI=1S/C15H12N2O2/c16-15(18)17-11-7-3-1-5-9(11)13-14(19-13)10-6-2-4-8-12(10)17/h1-8,13-14H,(H2,16,18)
Instrument: Bruker maXis Impact
Instrument type: LC-ESI-QTOF
Ms type: MS2
Ion mode: POSITIVE
Ionization: ESI
Fragmentation mode: CID
Collision energy: 20 eV
Resolution: 35000
Column name: ACQUITY UPLC BEH Amide 1.7 um 2.1x100 mm, Waters
Retention time: 2.482 min
Base peak: 271.11
Precursor m/z: 253.0972
Precursor type: [M+H]+
m/z	relative intensity	assigned
131.0496	12	C9H7O+
133.0863	5	C9H11N+
180.0818	999	C13H10N+
181.0848	152	C12[13]CH10N+
182.097	180	C13H12N+
183.0998	21	C12[13]CH12N+
192.0803	11	C14H10N+
208.0769	68	C14H10NO+
209.0784	10	C13[13]CH10NO+
210.0929	803	C14H12NO+
211.0961	101	C13[13]CH12NO+
212.0976	9	C12[13]C2H12NO+
236.0718	72	C15H10NO2+
237.0755	11	C14[13]CH10NO2+
253.0974	18	C15H13N2O2+
