Mass spectrum: Chloridazone-methyl-desphenyl; LC-ESI-QTOF; MS2; HILIC; CE: 20 eV; R=35000; [M+H]+
Name: Chloridazone-methyl-desphenyl
Name: 5-Amino-4-chloro-2-methyl-3(2H)-pyridazinone
Name: 5-amino-4-chloro-2-methylpyridazin-3-one
Formula: C5H6ClN3O
Exact mass: 159.0199395
SMILES: ClC(=C(C=N1)N)C(=O)N1C
InChI: InChI=1S/C5H6ClN3O/c1-9-5(10)4(6)3(7)2-8-9/h2H,7H2,1H3
Instrument: Bruker maXis Impact
Instrument type: LC-ESI-QTOF
Ms type: MS2
Ion mode: POSITIVE
Ionization: ESI
Fragmentation mode: CID
Collision energy: 20 eV
Resolution: 35000
Column name: ACQUITY UPLC BEH Amide 1.7 um 2.1x100 mm, Waters
Retention time: 1.766 min
Base peak: 206.0029
Precursor m/z: 160.0272
Precursor type: [M+H]+
m/z	relative intensity	assigned
116.9982	16	C4H4ClNO+
118.9952	8	C4H4[37]ClNO+
124.051	6	C5H6N3O+
130.0061	28	C5H5ClNO+
131.0012	7	C4H4ClN2O+
131.0137	14	C5H6ClNO+
132.004	10	C5H5[37]ClNO+
133.0133	6	C5H6[37]ClNO+
145.0044	13	C4H4ClN3O+
160.0281	999	C5H7ClN3O+
161.0301	45	C4[13]CH7ClN3O+
162.0249	269	C5H7[37]ClN3O+
