Mass spectrum: Betamethasone 21-Acetate; LC-ESI-QTOF; MS2; HILIC; CE: 40 eV; R=35000; [M+H]+
Name: Betamethasone 21-Acetate
Name: [2-[(8S,9R,10S,11S,13S,14S,16S,17R)-9-fluoro-11,17-dihydroxy-10,13,16-trimethyl-3-oxo-6,7,8,11,12,14,15,16-octahydrocyclopenta[a]phenanthren-17-yl]-2-oxoethyl] acetate
Formula: C24H31FO6
Exact mass: 434.2104669
SMILES: C[C@H]1C[C@H]2[C@@H]3CCC4=CC(=O)C=C[C@]4(C)[C@@]3(F)[C@@H](O)C[C@]2(C)[C@@]1(O)C(=O)COC(C)=O
InChI: InChI=1S/C24H31FO6/c1-13-9-18-17-6-5-15-10-16(27)7-8-21(15,3)23(17,25)19(28)11-22(18,4)24(13,30)20(29)12-31-14(2)26/h7-8,10,13,17-19,28,30H,5-6,9,11-12H2,1-4H3/t13-,17-,18-,19-,21-,22-,23-,24-/m0/s1
Instrument: Bruker maXis Impact
Instrument type: LC-ESI-QTOF
Ms type: MS2
Ion mode: POSITIVE
Ionization: ESI
Fragmentation mode: CID
Collision energy: 40 eV
Resolution: 35000
Column name: ACQUITY UPLC BEH Amide 1.7 um 2.1x100mm, Waters
Retention time: 1.515 min
Base peak: 435.2211
Precursor m/z: 435.2177
Precursor type: [M+H]+
m/z	relative intensity	assigned
115.0564	24	C6H8FO+
117.0694	18	C9H9+
119.0857	98	C9H11+
121.0652	244	C8H9O+
121.1017	56	C9H13+
123.0811	63	C5H12FO2+
125.0601	26	C7H9O2+
125.0968	20	C5H14FO2+
128.0622	45	C10H8+
129.0705	36	C7H10FO+
131.0513	22	C6H8FO2+
131.0862	120	C7H12FO+
132.0573	46	C9H8O+
132.0906	16	C10H12+
133.0654	72	C9H9O+
133.1017	110	C10H13+
135.0808	256	C9H11O+
136.0844	31	C8[13]CH11O+
137.0613	15	C5H10FO3+
137.0966	64	C9H13O+
139.0752	14	C8H11O2+
141.0711	49	C8H10FO+
142.077	21	C11H10+
143.0854	112	C11H11+
144.0589	14	C7H9FO2+
144.0902	15	C11H12+
145.0646	138	C10H9O+
145.1017	98	C11H13+
146.0711	26	C10H10O+
147.0809	999	C10H11O+
148.0842	123	C9[13]CH11O+
149.0966	134	C10H13O+
151.0755	66	C9H11O2+
153.0703	18	C12H9+
153.0916	100	C6H14FO3+
154.0956	12	C9H14O2+
155.0846	42	C12H11+
157.0652	17	C11H9O+
157.1016	67	C12H13+
158.0741	50	C8H11FO2+
159.081	376	C11H11O+
160.0857	45	C10[13]CH11O+
161.0605	22	C7H10FO3+
161.0968	243	C8H14FO2+
163.0766	27	C7H12FO3+
163.1135	14	C8H16FO2+
165.0707	32	C10H10FO+
165.0918	24	C7H14FO3+
167.0864	23	C10H12FO+
167.1069	122	C10H15O2+
168.0927	12	C13H12+
169.0666	36	C9H10FO2+
169.1018	35	C10H14FO+
170.0716	24	C12H10O+
170.1079	19	C13H14+
171.0808	579	C12H11O+
171.1173	34	C13H15+
172.0854	89	C11[13]CH11O+
173.0964	358	C12H13O+
174.1005	35	C11[13]CH13O+
175.0747	33	C11H11O2+
175.1126	36	C9H16FO2+
177.092	37	C8H14FO3+
178.0776	24	C14H10+
179.0858	42	C14H11+
179.109	21	C8H16FO3+
180.0931	22	C14H12+
181.0651	25	C13H9O+
181.103	25	C11H14FO+
182.0726	26	C13H10O+
183.0802	40	C13H11O+
183.1176	38	C11H16FO+
184.0916	23	C10H13FO2+
185.0964	312	C13H13O+
186.1006	65	C12[13]CH13O+
187.0765	142	C9H12FO3+
187.113	83	C10H16FO2+
188.0792	30	C12H12O2+
188.1155	14	C13H16O+
189.0719	18	C12H10FO+
189.0924	27	C9H14FO3+
190.0762	12	C15H10+
191.0875	30	C12H12FO+
192.0954	23	C12H13FO+
193.0873	21	C8H14FO4+
193.1018	67	C12H14FO+
194.1093	21	C15H14+
195.0818	53	C11H12FO2+
195.1009	21	C11H15O3+
195.117	51	C15H15+
196.0885	55	C14H12O+
197.0963	216	C14H13O+
197.135	18	C12H18FO+
198.103	52	C13[13]CH13O+
199.1125	116	C11H16FO2+
200.1165	18	C14H16O+
201.0919	24	C10H14FO3+
201.1278	12	C14H17O+
203.0859	23	C16H11+
203.106	16	C13H15O2+
204.0943	29	C13H13FO+
205.101	32	C16H13+
206.1093	22	C16H14+
207.1169	46	C16H15+
208.0889	55	C12H13FO2+
208.1208	12	C16H16+
209.0964	168	C15H13O+
209.134	46	C13H18FO+
210.1041	84	C15H14O+
211.0783	24	C11H12FO3+
211.1125	336	C12H16FO2+
212.1186	176	C15H16O+
213.0912	27	C14H13O2+
213.128	172	C12H18FO2+
214.1332	28	C11[13]CH18FO2+
215.1071	83	C14H15O2+
216.0936	17	C17H12+
218.1066	16	C17H14+
219.1188	66	C14H16FO+
220.1246	36	C17H16+
221.0975	166	C13H14FO2+
221.133	36	C17H17+
222.106	193	C13H15FO2+
222.1487	32	C7H23FO6+
223.1125	256	C13H16FO2+
224.1188	88	C16H16O+
225.0909	18	C15H13O2+
225.1289	133	C13H18FO2+
226.0999	12	C12H15FO3+
227.1088	20	C12H16FO3+
227.144	187	C13H20FO2+
228.1484	44	C12[13]CH20FO2+
229.1058	19	C11H17O5+
229.1241	12	C12H18FO3+
230.1114	28	C15H15FO+
231.1164	49	C18H15+
232.1249	14	C18H16+
233.098	26	C14H14FO2+
233.1326	24	C18H17+
234.1058	62	C14H15FO2+
235.1131	275	C14H16FO2+
235.1509	43	C15H20FO+
236.118	60	C13[13]CH16FO2+
236.1631	28	C8H25FO6+
237.1284	450	C14H18FO2+
237.1631	27	C18H21+
238.1342	80	C13[13]CH18FO2+
239.1091	49	C13H16FO3+
239.1449	178	C14H20FO2+
240.114	19	C16H16O2+
240.1483	20	C13[13]CH20FO2+
241.1249	37	C13H18FO3+
243.1176	28	C16H16FO+
244.1244	32	C19H16+
245.0932	12	C18H13O+
245.1038	14	C11H17O6+
245.1319	38	C19H17+
246.1043	23	C18H14O+
246.1419	13	C16H19FO+
247.1147	57	C15H16FO2+
247.1487	22	C19H19+
248.1205	135	C15H17FO2+
249.1283	163	C15H18FO2+
249.166	39	C16H22FO+
250.1342	60	C18H18O+
250.1667	16	C19H22+
251.109	28	C14H16FO3+
251.146	83	C15H20FO2+
252.1505	38	C18H20O+
253.1237	63	C14H18FO3+
253.1602	126	C15H22FO2+
254.1275	21	C17H18O2+
255.1387	32	C14H20FO3+
256.1241	13	C20H16+
257.1329	20	C20H17+
258.1419	32	C17H19FO+
259.111	35	C19H15O+
259.1506	37	C17H20FO+
260.1208	44	C16H17FO2+
260.155	14	C20H20+
261.1291	103	C16H18FO2+
261.1657	35	C17H22FO+
262.1348	168	C19H18O+
263.1098	20	C15H16FO3+
263.1435	265	C19H19O+
263.1806	13	C17H24FO+
264.111	19	C18H16O2+
264.1485	98	C19H20O+
265.1233	15	C15H18FO3+
265.1612	83	C16H22FO2+
266.1691	30	C16H23FO2+
267.1376	51	C18H19O2+
267.1758	24	C16H24FO2+
268.1471	13	C15H21FO3+
271.1119	30	C20H15O+
272.1204	35	C17H17FO2+
273.1272	36	C20H17O+
273.1639	27	C21H21+
274.1358	26	C20H18O+
275.1429	103	C20H19O+
276.1526	155	C17H21FO2+
277.1248	37	C16H18FO3+
277.1596	255	C17H22FO2+
278.1291	24	C19H18O2+
278.1675	167	C17H23FO2+
279.1378	23	C19H19O2+
279.1753	238	C17H24FO2+
280.1799	61	C16[13]CH24FO2+
281.1539	18	C19H21O2+
281.1896	18	C20H25O+
283.1498	14	C19H20FO+
285.1334	12	C14H21O6+
286.1358	85	C18H19FO2+
287.1408	25	C21H19O+
289.1225	30	C20H17O2+
289.1592	48	C21H21O+
290.1294	20	C20H18O2+
290.1632	13	C21H22O+
291.1386	20	C17H20FO3+
291.176	231	C18H24FO2+
292.1793	73	C17[13]CH24FO2+
293.1524	18	C20H21O2+
294.1579	12	C20H22O2+
295.1346	13	C16H20FO4+
295.1695	77	C20H23O2+
296.1741	17	C20H24O2+
297.1852	22	C20H25O2+
301.161	121	C19H22FO2+
302.1693	26	C18[13]CH22FO2+
304.147	29	C18H21FO3+
306.1649	25	C18H23FO3+
307.1708	44	C18H24FO3+
308.1722	13	C21H24O2+
309.1867	59	C18H26FO3+
311.1688	40	C17H24FO4+
312.172	13	C20H24O3+
319.1703	115	C19H24FO3+
320.1759	36	C18[13]CH24FO3+
325.1826	16	C18H26FO4+
337.1831	60	C19H26FO4+
338.184	21	C22H26O3+
435.2236	32	C24H32FO6+
