Mass spectrum: 2-Methyl-4-amino-6-methoxy-s-triazine; LC-ESI-QTOF; MS2; HILIC; CE: 10 eV; R=35000; [M+H]+
Name: 2-Methyl-4-amino-6-methoxy-s-triazine
Name: 2-Amino-4-methoxy-6-methyl-1,3,5-triazine
Name: 4-methoxy-6-methyl-1,3,5-triazin-2-amine
Formula: C5H8N4O
Exact mass: 140.0698109
SMILES: CC1=NC(OC)=NC(N)=N1
InChI: InChI=1S/C5H8N4O/c1-3-7-4(6)9-5(8-3)10-2/h1-2H3,(H2,6,7,8,9)
Instrument: Bruker maXis Impact
Instrument type: LC-ESI-QTOF
Ms type: MS2
Ion mode: POSITIVE
Ionization: ESI
Fragmentation mode: CID
Collision energy: 10 eV
Resolution: 35000
Column name: ACQUITY  UPLC BEH Amide 1.7 um 2.1x100mm, Waters
Retention time: 1.880 min
Base peak: 141.0778
Precursor m/z: 141.0771
Precursor type: [M+H]+
m/z	relative intensity	assigned
141.0778	999	C5H9N4O+
142.0804	47	C4[13]CH9N4O+
