Mass spectrum: Metazachlor-ESA; LC-ESI-QTOF; MS2; CE: Ramp 22.1-33.1 eV; R=35000; [M+H]+
Name: Metazachlor-ESA
Name: 2-[(2,6-Dimethylphenyl)(1H-pyrazol-1-ylmethyl)amino]-2-oxoethanesulfonic acid
Name: 2-[2,6-dimethyl-N-(pyrazol-1-ylmethyl)anilino]-2-oxoethanesulfonic acid
Formula: C14H17N3O4S
Exact mass: 323.0939770
SMILES: CC1=CC=CC(C)=C1N(CN1C=CC=N1)C(=O)CS(O)(=O)=O
InChI: InChI=1S/C14H17N3O4S/c1-11-5-3-6-12(2)14(11)17(10-16-8-4-7-15-16)13(18)9-22(19,20)21/h3-8H,9-10H2,1-2H3,(H,19,20,21)
Instrument: Bruker maXis Impact
Instrument type: LC-ESI-QTOF
Ms type: MS2
Ion mode: POSITIVE
Ionization: ESI
Fragmentation mode: CID
Collision energy: Ramp 22.1-33.1 eV
Resolution: 35000
Column name: Acclaim RSLC C18 2.2um, 2.1x100mm, Thermo
Retention time: 5.169 min
Base peak: 203.0928
Precursor m/z: 324.1013
Precursor type: [M+H]+
m/z	relative intensity	assigned
69.0445	187	C3H5N2+
70.0478	7	C2[13]CH5N2+
134.0966	999	C9H12N+
135.0996	122	C8[13]CH12N+
160.0747	15	C2H14N3O3S+
176.1051	5	C8H16O4+
256.0639	120	C14H10NO4+
257.0659	19	C13[13]CH10NO4+
258.0595	10	C14H12NO2S+
