Mass spectrum: Betamethasone 21-Acetate; LC-ESI-QTOF; MS2; HILIC; CE: 10 eV; R=35000; [M+H]+
Name: Betamethasone 21-Acetate
Name: [2-[(8S,9R,10S,11S,13S,14S,16S,17R)-9-fluoro-11,17-dihydroxy-10,13,16-trimethyl-3-oxo-6,7,8,11,12,14,15,16-octahydrocyclopenta[a]phenanthren-17-yl]-2-oxoethyl] acetate
Formula: C24H31FO6
Exact mass: 434.2104669
SMILES: C[C@H]1C[C@H]2[C@@H]3CCC4=CC(=O)C=C[C@]4(C)[C@@]3(F)[C@@H](O)C[C@]2(C)[C@@]1(O)C(=O)COC(C)=O
InChI: InChI=1S/C24H31FO6/c1-13-9-18-17-6-5-15-10-16(27)7-8-21(15,3)23(17,25)19(28)11-22(18,4)24(13,30)20(29)12-31-14(2)26/h7-8,10,13,17-19,28,30H,5-6,9,11-12H2,1-4H3/t13-,17-,18-,19-,21-,22-,23-,24-/m0/s1
Instrument: Bruker maXis Impact
Instrument type: LC-ESI-QTOF
Ms type: MS2
Ion mode: POSITIVE
Ionization: ESI
Fragmentation mode: CID
Collision energy: 10 eV
Resolution: 35000
Column name: ACQUITY  UPLC BEH Amide 1.7 um 2.1x100mm, Waters
Retention time: 1.516 min
Base peak: 134.0722
Precursor m/z: 435.2177
Precursor type: [M+H]+
m/z	relative intensity	assigned
133.1011	5	C10H13+
135.0807	9	C9H11O+
137.0986	7	C6H14FO2+
147.0811	24	C7H12FO2+
149.0978	7	C7H14FO2+
153.0907	5	C9H13O2+
159.0805	5	C11H11O+
161.0962	11	C11H13O+
171.0808	11	C12H11O+
173.0978	17	C9H14FO2+
177.091	13	C11H13O2+
185.0964	21	C13H13O+
187.0755	7	C12H11O2+
195.1021	14	C11H15O3+
197.0958	7	C14H13O+
209.1187	9	C9H18FO4+
211.0978	13	C8H16FO5+
211.1124	9	C12H16FO2+
215.1093	5	C11H16FO3+
222.1482	7	C7H23FO6+
225.1288	5	C13H18FO2+
227.1434	11	C16H19O+
235.112	5	C17H15O+
236.164	10	C8H25FO6+
237.129	38	C14H18FO2+
239.1103	5	C13H16FO3+
239.1463	5	C14H20FO2+
251.1438	7	C15H20FO2+
253.1252	6	C14H18FO3+
253.16	6	C15H22FO2+
255.1384	8	C17H19O2+
261.1299	7	C16H18FO2+
263.1435	10	C19H19O+
267.1423	7	C15H20FO3+
267.1739	9	C19H23O+
269.1905	8	C19H25O+
275.1453	15	C17H20FO2+
277.1622	23	C13H25O6+
278.1653	8	C20H22O+
279.1766	121	C17H24FO2+
280.1806	24	C16[13]CH24FO2+
281.1895	15	C20H25O+
289.1634	8	C14H25O6+
291.1767	61	C18H24FO2+
292.1804	15	C17[13]CH24FO2+
293.1553	5	C17H22FO3+
293.1809	5	C14H26FO5+
295.1733	12	C17H24FO3+
297.1866	25	C17H26FO3+
298.1902	6	C20H26O2+
301.1612	37	C19H22FO2+
302.1627	5	C18[13]CH22FO2+
307.1733	8	C18H24FO3+
309.1871	150	C18H26FO3+
310.1913	34	C21H26O2+
311.1902	6	C20[13]CH26O2+
319.1721	147	C19H24FO3+
320.1763	35	C22H24O2+
321.1763	5	C21[13]CH24O2+
325.1829	6	C18H26FO4+
327.1991	32	C18H28FO4+
337.1823	190	C19H26FO4+
338.1866	54	C22H26O3+
339.1836	9	C21[13]CH26O3+
351.1993	10	C20H28FO4+
353.1776	29	C19H26FO5+
355.1936	180	C19H28FO5+
356.1968	40	C22H28O4+
357.1948	11	C21[13]CH28O4+
361.1817	5	C21H26FO4+
369.2107	8	C20H30FO5+
373.206	16	C19H30FO6+
374.2074	5	C22H30O5+
379.1934	75	C21H28FO5+
380.1991	19	C20[13]CH28FO5+
397.2047	481	C21H30FO6+
398.2074	155	C24H30O5+
399.2091	36	C23[13]CH30O5+
400.209	6	C24H29FO4+
415.2156	999	C24H31O6+
416.2184	296	C24H32O6+
417.2206	53	C23[13]CH32O6+
418.225	5	C22[13]C2H32O6+
434.2169	5	C24H31FO6+
435.2218	850	C24H32FO6+
436.2249	235	C23[13]CH32FO6+
