Mass spectrum: Terbutylazine-2-hydroxy; LC-ESI-QTOF; MS2; CE: Ramp 18.4-27.7 eV; R=35000; [M+H]+
Name: Terbutylazine-2-hydroxy
Name: CID 5151089
Name: 2-(tert-butylamino)-6-(ethylamino)-1H-1,3,5-triazin-4-one
Formula: C9H17N5O
Exact mass: 211.1433102
SMILES: CCNC1=NC(=O)N=C(NC(C)(C)C)N1
InChI: InChI=1S/C9H17N5O/c1-5-10-6-11-7(13-8(15)12-6)14-9(2,3)4/h5H2,1-4H3,(H3,10,11,12,13,14,15)
Instrument: Bruker maXis Impact
Instrument type: LC-ESI-QTOF
Ms type: MS2
Ion mode: POSITIVE
Ionization: ESI
Fragmentation mode: CID
Collision energy: Ramp 18.4-27.7 eV
Resolution: 35000
Column name: Acclaim RSLC C18 2.2um, 2.1x100mm, Thermo
Retention time: 5.721 min
Base peak: 212.1511
Precursor m/z: 212.1506
Precursor type: [M+H]+
m/z	relative intensity	assigned
57.0693	59	C4H9+
69.0078	76	C2HN2O+
71.0598	25	C3H7N2+
85.0507	5	C2H5N4+
86.0348	258	C2H4N3O+
87.0381	5	C[13]CH4N3O+
97.0401	70	C4H5N2O+
113.0837	5	C6H11NO+
114.0677	100	C4H8N3O+
128.0569	18	C3H6N5O+
156.0883	999	C5H10N5O+
157.0905	81	C4[13]CH10N5O+
212.1511	135	C9H18N5O+
213.1542	12	C8[13]CH18N5O+
