Mass spectrum: N-Desmethyl Clarithromycin; LC-ESI-QTOF; MS2; HILIC; CE: 40 eV; R=35000; [M+H]+
Name: N-Desmethyl Clarithromycin
Name: 14-ethyl-12,13-dihydroxy-4-(5-hydroxy-4-methoxy-4,6-dimethyloxan-2-yl)oxy-6-[3-hydroxy-6-methyl-4-(methylamino)oxan-2-yl]oxy-7-methoxy-3,5,7,9,11,13-hexamethyl-oxacyclotetradecane-2,10-dione
Formula: C37H67NO13
Exact mass: 733.4612412
SMILES: CCC1OC(=O)C(C)C(OC2CC(C)(OC)C(O)C(C)O2)C(C)C(OC2OC(C)CC(NC)C2O)C(C)(CC(C)C(=O)C(C)C(O)C1(C)O)OC
InChI: InChI=1S/C37H67NO13/c1-14-25-37(10,44)30(41)20(4)27(39)18(2)16-36(9,46-13)32(51-34-28(40)24(38-11)15-19(3)47-34)21(5)29(22(6)33(43)49-25)50-26-17-35(8,45-12)31(42)23(7)48-26/h18-26,28-32,34,38,40-42,44H,14-17H2,1-13H3
Instrument: Bruker maXis Impact
Instrument type: LC-ESI-QTOF
Ms type: MS2
Ion mode: POSITIVE
Ionization: ESI
Fragmentation mode: CID
Collision energy: 40 eV
Resolution: 35000
Column name: ACQUITY UPLC BEH Amide 1.7 um 2.1x100mm, Waters
Retention time: 6.130 min
Base peak: 734.474
Precursor m/z: 734.4685
Precursor type: [M+H]+
m/z	relative intensity	assigned
123.081	11	C8H11O+
127.0756	28	C7H11O2+
144.1027	999	C7H14NO2+
145.1059	64	C6[13]CH14NO2+
159.1019	5	C8H15O3+
170.1181	17	C9H16NO2+
289.1812	12	C21H23N+
302.198	10	C5H34O13+
307.192	26	C21H25NO+
365.2348	31	C24H31NO2+
366.2378	6	C23[13]CH31NO2+
383.2451	8	C24H33NO3+
602.3958	5	C31H56NO10+
