Mass spectrum: Irbesartan; LC-ESI-QTOF; MS2; HILIC; CE: 50 eV; R=35000; [M+H]+
Name: Irbesartan
Name: 2-butyl-3-[[4-[2-(2H-tetrazol-5-yl)phenyl]phenyl]methyl]-1,3-diazaspiro[4.4]non-1-en-4-one
Formula: C25H28N6O
Exact mass: 428.2324595
SMILES: CCCCC1=NC2(CCCC2)C(=O)N1CC1=CC=C(C=C1)C1=CC=CC=C1C1=NNN=N1
InChI: InChI=1S/C25H28N6O/c1-2-3-10-22-26-25(15-6-7-16-25)24(32)31(22)17-18-11-13-19(14-12-18)20-8-4-5-9-21(20)23-27-29-30-28-23/h4-5,8-9,11-14H,2-3,6-7,10,15-17H2,1H3,(H,27,28,29,30)
Instrument: Bruker maXis Impact
Instrument type: LC-ESI-QTOF
Ms type: MS2
Ion mode: POSITIVE
Ionization: ESI
Fragmentation mode: CID
Collision energy: 50 eV
Resolution: 35000
Column name: ACQUITY UPLC BEH Amide 1.7 um 2.1x100mm, Water
Retention time: 1.616 min
Base peak: 224.0695
Precursor m/z: 429.2397
Precursor type: [M+H]+
m/z	relative intensity	assigned
129.045	5	C8H5N2+
140.0495	6	C10H6N+
151.0542	6	C12H7+
152.0621	23	C12H8+
153.0696	29	C12H9+
163.0545	6	C13H7+
165.0698	24	C13H9+
166.0756	7	C13H10+
167.0729	14	C12H9N+
167.1544	14	C10H19N2+
169.0647	6	C12H9O+
177.0577	5	C13H7N+
178.0654	29	C13H8N+
179.0729	45	C13H9N+
180.0812	293	C13H10N+
181.0842	33	C12[13]CH10N+
190.0656	69	C14H8N+
191.0721	26	C14H9N+
192.0697	57	C13H8N2+
192.0799	77	C14H10N+
193.0723	7	C12[13]CH8N2+
193.0836	12	C13[13]CH10N+
194.06	5	C13H8NO+
195.1496	36	C11H19N2O+
196.0764	21	C13H10NO+
205.0768	112	C14H9N2+
206.0843	223	C14H10N2+
207.0924	999	C14H11N2+
208.0759	13	C14H10NO+
208.0957	108	C14H12N2+
209.099	6	C13[13]CH12N2+
