Mass spectrum: Azoxystrobin acid; LC-ESI-QTOF; MS2; HILIC; CE: 10 eV; R=35000; [M+H]+
Name: Azoxystrobin acid
Name: SCHEMBL435486
Name: (E)-2-[2-[6-(2-cyanophenoxy)pyrimidin-4-yl]oxyphenyl]-3-methoxyprop-2-enoic acid
Formula: C21H15N3O5
Exact mass: 389.1011706
SMILES: CO\C=C(\C(O)=O)c1ccccc1Oc1cc(Oc2ccccc2C#N)ncn1
InChI: InChI=1S/C21H15N3O5/c1-27-12-16(21(25)26)15-7-3-5-9-18(15)29-20-10-19(23-13-24-20)28-17-8-4-2-6-14(17)11-22/h2-10,12-13H,1H3,(H,25,26)/b16-12+
Instrument: Bruker maXis Impact
Instrument type: LC-ESI-QTOF
Ms type: MS2
Ion mode: POSITIVE
Ionization: ESI
Fragmentation mode: CID
Collision energy: 10 eV
Resolution: 35000
Column name: ACQUITY  UPLC BEH Amide 1.7 um 2.1x100mm, Waters
Retention time: 1.528 min
Base peak: 453.2809
Precursor m/z: 390.1084
Precursor type: [M+H]+
m/z	relative intensity	assigned
346.1222	12	C20H16N3O3+
372.1015	999	C21H14N3O4+
373.1047	193	C21H15N3O4+
374.1068	19	C20[13]CH15N3O4+
390.1123	446	C21H16N3O5+
391.1155	85	C20[13]CH16N3O5+
392.1173	10	C19[13]C2H16N3O5+
