Mass spectrum: Irbesartan; LC-ESI-QTOF; MS2; HILIC; CE: 30 eV; R=35000; [M+H]+
Name: Irbesartan
Name: 2-butyl-3-[[4-[2-(2H-tetrazol-5-yl)phenyl]phenyl]methyl]-1,3-diazaspiro[4.4]non-1-en-4-one
Formula: C25H28N6O
Exact mass: 428.2324595
SMILES: CCCCC1=NC2(CCCC2)C(=O)N1CC1=CC=C(C=C1)C1=CC=CC=C1C1=NNN=N1
InChI: InChI=1S/C25H28N6O/c1-2-3-10-22-26-25(15-6-7-16-25)24(32)31(22)17-18-11-13-19(14-12-18)20-8-4-5-9-21(20)23-27-29-30-28-23/h4-5,8-9,11-14H,2-3,6-7,10,15-17H2,1H3,(H,27,28,29,30)
Instrument: Bruker maXis Impact
Instrument type: LC-ESI-QTOF
Ms type: MS2
Ion mode: POSITIVE
Ionization: ESI
Fragmentation mode: CID
Collision energy: 30 eV
Resolution: 35000
Column name: ACQUITY UPLC BEH Amide 1.7 um 2.1x100 mm, Waters
Retention time: 1.616 min
Base peak: 224.07
Precursor m/z: 429.2397
Precursor type: [M+H]+
m/z	relative intensity	assigned
167.1549	7	C10H19N2+
180.0812	17	C13H10N+
192.0808	8	C14H10N+
195.1502	168	C11H19N2O+
196.1534	18	C10[13]CH19N2O+
206.0846	14	C14H10N2+
207.0933	999	C14H11N2+
208.0961	148	C14H12N2+
209.0991	6	C13[13]CH12N2+
235.0988	13	C16H13NO+
386.2253	33	C25H28N3O+
387.2281	8	C24[13]CH28N3O+
429.243	18	C25H29N6O+
430.2458	5	C24[13]CH29N6O+
