Mass spectrum: Propachlor-OXA; LC-ESI-QTOF; MS2; CE: 20 eV; R=35000; [M+H]+
Name: Propachlor-OXA
Name: Propachlor OA
Name: 2-oxo-2-(N-propan-2-ylanilino)acetic acid
Formula: C11H13NO3
Exact mass: 207.0895433
SMILES: CC(C)N(C(=O)C(O)=O)C1=CC=CC=C1
InChI: InChI=1S/C11H13NO3/c1-8(2)12(10(13)11(14)15)9-6-4-3-5-7-9/h3-8H,1-2H3,(H,14,15)
Instrument: Bruker maXis Impact
Instrument type: LC-ESI-QTOF
Ms type: MS2
Ion mode: POSITIVE
Ionization: ESI
Fragmentation mode: CID
Collision energy: 20 eV
Resolution: 35000
Column name: Acclaim RSLC C18 2.2um, 2.1x100mm, Thermo
Retention time: 4.8 min
Base peak: 188.143
Precursor m/z: 208.0968
Precursor type: [M+H]+
m/z	relative intensity	assigned
120.0438	999	C7H6NO+
121.0469	120	C6[13]CH6NO+
124.0723	46	C2H10N3O3+
137.082	102	C8H11NO+
150.0763	79	C5H12NO4+
151.0842	55	C5H13NO4+
162.0897	78	C10H12NO+
164.0925	428	C6H14NO4+
166.0491	107	C8H8NO3+
