Mass spectrum: Atenolol acid; LC-ESI-QTOF; MS2; CE: 40 eV; R=35000; [M+H]+
Name: Atenolol acid
Name: Metoprolol acid
Name: 2-[4-[2-hydroxy-3-(propan-2-ylamino)propoxy]phenyl]acetic acid
Formula: C14H21NO4
Exact mass: 267.1470582
SMILES: CC(C)NCC(O)COC1=CC=C(CC(O)=O)C=C1
InChI: InChI=1S/C14H21NO4/c1-10(2)15-8-12(16)9-19-13-5-3-11(4-6-13)7-14(17)18/h3-6,10,12,15-16H,7-9H2,1-2H3,(H,17,18)
Instrument: Bruker maXis Impact
Instrument type: LC-ESI-QTOF
Ms type: MS2
Ion mode: POSITIVE
Ionization: ESI
Fragmentation mode: CID
Collision energy: 40 eV
Resolution: 35000
Column name: Acclaim RSLC C18 2.2um, 2.1x100mm, Thermo
Retention time: 3.709 min
Base peak: 268.1541
Precursor m/z: 268.1543
Precursor type: [M+H]+
m/z	relative intensity	assigned
115.0536	68	C9H7+
116.0592	12	C9H8+
117.0693	51	C9H9+
118.0728	7	C8[13]CH9+
119.0486	39	C8H7O+
121.0632	6	C8H9O+
123.0433	32	C7H7O2+
127.0545	6	C10H7+
131.0479	13	C9H7O+
133.0634	31	C9H9O+
134.0596	7	C8H8NO+
135.0432	38	C8H7O2+
137.0586	77	C8H9O2+
144.0556	16	C10H8O+
145.0637	999	C10H9O+
146.0669	94	C9[13]CH9O+
147.0414	6	C9H7O2+
147.0707	5	C8[13]C2H9O+
153.0534	25	C8H9O3+
155.0593	11	C7H9NO3+
163.0739	21	C10H11O2+
164.0523	16	C12H6N+
165.0535	117	C9H9O3+
166.0569	11	C8[13]CH9O3+
191.0692	37	C11H11O3+
192.0716	5	C10[13]CH11O3+
