Mass spectrum: Carbamazepine-10,11-epoxide; LC-ESI-QTOF; MS2; HILIC; CE: 50 eV; R=35000; [M+H]+
Name: Carbamazepine-10,11-epoxide
Name: Carbamazepine epoxide
Formula: C15H12N2O2
Exact mass: 252.0898776
SMILES: NC(=O)N1C2=C(C=CC=C2)C2OC2C2=C1C=CC=C2
InChI: InChI=1S/C15H12N2O2/c16-15(18)17-11-7-3-1-5-9(11)13-14(19-13)10-6-2-4-8-12(10)17/h1-8,13-14H,(H2,16,18)
Instrument: Bruker maXis Impact
Instrument type: LC-ESI-QTOF
Ms type: MS2
Ion mode: POSITIVE
Ionization: ESI
Fragmentation mode: CID
Collision energy: 50 eV
Resolution: 35000
Column name: ACQUITY UPLC BEH Amide 1.7 um 2.1x100mm, Water
Retention time: 2.518 min
Base peak: 271.1095
Precursor m/z: 253.0972
Precursor type: [M+H]+
m/z	relative intensity	assigned
128.0507	10	C9H6N+
139.0546	6	C11H7+
151.0538	6	C12H7+
152.0624	82	C12H8+
153.0694	15	C11[13]CH8+
154.0663	5	C11H8N+
165.0701	27	C13H9+
166.0663	14	C12H8N+
167.0737	141	C12H9N+
168.0768	24	C11[13]CH9N+
169.065	10	C12H9O+
177.0585	6	C13H7N+
178.0656	40	C13H8N+
179.0734	105	C13H9N+
180.0816	999	C13H10N+
181.085	146	C12[13]CH10N+
182.0978	34	C13H12N+
183.1049	5	C13H13N+
191.074	8	C14H9N+
192.0815	10	C14H10N+
193.0896	14	C14H11N+
