Mass spectrum: Betamethasone 21-Acetate; LC-ESI-QTOF; MS2; HILIC; CE: 20 eV; R=35000; [M+H]+
Name: Betamethasone 21-Acetate
Name: [2-[(8S,9R,10S,11S,13S,14S,16S,17R)-9-fluoro-11,17-dihydroxy-10,13,16-trimethyl-3-oxo-6,7,8,11,12,14,15,16-octahydrocyclopenta[a]phenanthren-17-yl]-2-oxoethyl] acetate
Formula: C24H31FO6
Exact mass: 434.2104669
SMILES: C[C@H]1C[C@H]2[C@@H]3CCC4=CC(=O)C=C[C@]4(C)[C@@]3(F)[C@@H](O)C[C@]2(C)[C@@]1(O)C(=O)COC(C)=O
InChI: InChI=1S/C24H31FO6/c1-13-9-18-17-6-5-15-10-16(27)7-8-21(15,3)23(17,25)19(28)11-22(18,4)24(13,30)20(29)12-31-14(2)26/h7-8,10,13,17-19,28,30H,5-6,9,11-12H2,1-4H3/t13-,17-,18-,19-,21-,22-,23-,24-/m0/s1
Instrument: Bruker maXis Impact
Instrument type: LC-ESI-QTOF
Ms type: MS2
Ion mode: POSITIVE
Ionization: ESI
Fragmentation mode: CID
Collision energy: 20 eV
Resolution: 35000
Column name: ACQUITY UPLC BEH Amide 1.7 um 2.1x100 mm, Waters
Retention time: 1.515 min
Base peak: 435.221
Precursor m/z: 435.2177
Precursor type: [M+H]+
m/z	relative intensity	assigned
119.0851	37	C9H11+
121.0654	43	C5H10FO2+
121.1011	28	C9H13+
123.0809	35	C8H11O+
123.1181	15	C6H16FO+
125.0596	15	C7H9O2+
131.0844	27	C10H11+
133.0646	10	C9H9O+
133.0853	42	C6H13O3+
133.1015	50	C10H13+
134.1059	12	C10H14+
135.0804	110	C9H11O+
137.097	82	C6H14FO2+
139.0752	14	C8H11O2+
143.0863	13	C8H12FO+
145.0661	14	C7H10FO2+
145.1012	26	C11H13+
147.0807	469	C10H11O+
148.0845	47	C9[13]CH11O+
149.0965	124	C10H13O+
151.0757	34	C9H11O2+
151.112	37	C10H15O+
153.0908	126	C9H13O2+
155.071	12	C5H12FO4+
157.1029	12	C9H14FO+
159.0813	129	C8H12FO2+
159.1172	11	C12H15+
161.0605	16	C7H10FO3+
161.0962	168	C11H13O+
162.0998	21	C10[13]CH13O+
163.0751	21	C10H11O2+
163.1107	25	C11H15O+
165.0918	14	C7H14FO3+
167.1063	57	C10H15O2+
169.0651	30	C12H9O+
169.086	21	C9H13O3+
171.0811	217	C9H12FO2+
171.1506	24	C11H20F+
172.0841	27	C8[13]CH12FO2+
172.1354	12	C3H21FO6+
173.0961	211	C12H13O+
174.0999	31	C11[13]CH13O+
175.0746	16	C11H11O2+
175.1113	26	C12H15O+
177.0916	131	C11H13O2+
177.1145	23	C5H18FO5+
178.0945	26	C11H14O2+
179.0866	13	C11H12FO+
179.1053	32	C11H15O2+
183.0807	28	C13H11O+
185.0609	13	C9H10FO3+
185.0966	226	C13H13O+
186.1014	33	C12[13]CH13O+
187.0757	122	C12H11O2+
187.1117	56	C13H15O+
188.0795	15	C12H12O2+
189.0902	42	C12H13O2+
191.1069	12	C12H15O2+
193.084	16	C11H13O3+
193.1228	15	C12H17O2+
195.1025	90	C8H16FO4+
196.1049	11	C11H16O3+
197.0974	79	C11H14FO2+
198.0999	21	C14H14O+
199.0756	12	C13H11O2+
199.1114	56	C14H15O+
201.0921	17	C10H14FO3+
201.1273	13	C14H17O+
203.1081	35	C10H16FO3+
207.1028	11	C9H16FO4+
209.0982	41	C12H14FO2+
209.1188	53	C9H18FO4+
211.1125	156	C12H16FO2+
213.0909	18	C14H13O2+
213.1279	73	C15H17O+
214.1333	17	C15H18O+
215.1064	93	C14H15O2+
216.111	18	C14H16O2+
217.1067	11	C10H17O5+
221.0978	49	C13H14FO2+
221.1395	12	C7H22FO6+
222.1016	18	C16H14O+
222.1471	38	C7H23FO6+
223.1136	79	C13H16FO2+
224.1181	22	C16H16O+
225.1288	86	C13H18FO2+
227.1059	22	C15H15O2+
227.1444	174	C13H20FO2+
228.1477	34	C12[13]CH20FO2+
229.1237	18	C12H18FO3+
231.1161	12	C18H15+
235.113	112	C14H16FO2+
236.1615	35	C11H24O5+
237.1282	420	C14H18FO2+
238.1319	74	C13[13]CH18FO2+
239.1077	39	C13H16FO3+
239.1439	123	C14H20FO2+
240.1117	15	C16H16O2+
241.1236	43	C13H18FO3+
241.1622	14	C10H25O6+
247.1131	12	C15H16FO2+
248.1236	10	C11H20O6+
249.128	63	C15H18FO2+
249.1686	11	C12H25O5+
250.1319	12	C18H18O+
250.1736	12	C16H23FO+
251.1438	112	C15H20FO2+
253.1242	66	C14H18FO3+
253.1598	108	C15H22FO2+
254.1291	14	C17H18O2+
255.139	89	C14H20FO3+
256.1412	17	C17H20O2+
257.1358	15	C17H18FO+
259.1148	15	C16H16FO2+
259.1494	11	C17H20FO+
260.1214	12	C16H17FO2+
261.1282	57	C16H18FO2+
262.1329	20	C19H18O+
263.1068	13	C18H15O2+
263.1453	108	C16H20FO2+
265.1217	16	C18H17O2+
265.1596	51	C16H22FO2+
266.1646	12	C19H22O+
267.1386	75	C15H20FO3+
267.1766	87	C16H24FO2+
268.1455	18	C18H20O2+
268.179	21	C19H24O+
269.1541	16	C18H21O2+
269.189	24	C19H25O+
270.1917	13	C19H26O+
273.1275	11	C20H17O+
273.1648	24	C18H22FO+
275.1438	125	C17H20FO2+
276.1499	38	C16[13]CH20FO2+
277.1241	30	C16H18FO3+
277.1595	357	C17H22FO2+
279.1754	710	C17H24FO2+
280.1779	160	C16[13]CH24FO2+
281.1543	39	C16H22FO3+
281.1905	111	C20H25O+
282.1945	26	C19[13]CH25O+
283.1526	13	C15H23O5+
283.1759	12	C16H24FO3+
286.14	20	C14H22O6+
287.1462	12	C18H20FO2+
289.1595	54	C18H22FO2+
290.1609	12	C21H22O+
291.176	730	C18H24FO2+
292.179	164	C21H24O+
293.1564	51	C17H22FO3+
293.1833	23	C20[13]CH24O+
294.1591	22	C20H22O2+
295.1327	44	C19H19O3+
295.1697	151	C20H23O2+
296.1754	27	C19[13]CH23O2+
297.1569	10	C23H21+
297.1855	77	C17H26FO3+
298.1893	24	C20H26O2+
301.1614	345	C19H22FO2+
302.1647	90	C18[13]CH22FO2+
306.1606	15	C21H22O2+
307.1715	78	C18H24FO3+
308.1792	18	C18H25FO3+
309.1864	670	C18H26FO3+
310.1895	176	C21H26O2+
311.1669	45	C17H24FO4+
311.1904	37	C20[13]CH26O2+
313.1809	27	C17H26FO4+
319.1709	999	C19H24FO3+
320.1745	240	C22H24O2+
321.1763	33	C21[13]CH24O2+
325.1811	60	C18H26FO4+
326.1832	12	C21H26O3+
327.1969	205	C18H28FO4+
328.1997	49	C17[13]CH28FO4+
329.1941	21	C17H29O6+
333.1865	13	C20H26FO3+
337.1817	804	C19H26FO4+
338.1844	234	C22H26O3+
339.1842	49	C21[13]CH26O3+
351.1977	51	C20H28FO4+
353.1771	136	C19H26FO5+
354.183	31	C18[13]CH26FO5+
355.192	605	C19H28FO5+
356.1953	135	C18[13]CH28FO5+
357.1906	56	C22H26FO3+
361.1835	38	C21H26FO4+
362.183	12	C24H26O3+
369.2077	24	C20H30FO5+
373.2033	70	C19H30FO6+
374.2071	15	C22H30O5+
375.2018	36	C22H28FO4+
379.1924	283	C21H28FO5+
380.1964	75	C24H28O4+
381.1972	19	C23[13]CH28O4+
397.2038	911	C21H30FO6+
398.2074	242	C24H30O5+
399.2098	50	C23[13]CH30O5+
415.2135	145	C24H31O6+
416.2187	36	C23[13]CH31O6+
417.2111	30	C24H30FO5+
418.2142	11	C24H31FO5+
433.2083	11	C24H30FO6+
435.2234	93	C24H32FO6+
436.2288	34	C23[13]CH32FO6+
