Mass spectrum: Carbamazepine-10,11-epoxide; LC-ESI-QTOF; MS2; HILIC; CE: 10 eV; R=35000; [M+H]+
Name: Carbamazepine-10,11-epoxide
Name: Carbamazepine epoxide
Formula: C15H12N2O2
Exact mass: 252.0898776
SMILES: NC(=O)N1C2=C(C=CC=C2)C2OC2C2=C1C=CC=C2
InChI: InChI=1S/C15H12N2O2/c16-15(18)17-11-7-3-1-5-9(11)13-14(19-13)10-6-2-4-8-12(10)17/h1-8,13-14H,(H2,16,18)
Instrument: Bruker maXis Impact
Instrument type: LC-ESI-QTOF
Ms type: MS2
Ion mode: POSITIVE
Ionization: ESI
Fragmentation mode: CID
Collision energy: 10 eV
Resolution: 35000
Column name: ACQUITY  UPLC BEH Amide 1.7 um 2.1x100mm, Waters
Retention time: 2.518 min
Base peak: 271.1093
Precursor m/z: 253.0972
Precursor type: [M+H]+
m/z	relative intensity	assigned
133.0884	9	C9H11N+
159.0443	18	C10H7O2+
180.0816	61	C13H10N+
181.0857	14	C13H11N+
182.0975	18	C13H12N+
208.0765	11	C14H10NO+
210.092	381	C14H12NO+
211.0949	79	C13[13]CH12NO+
212.0995	8	C13H12N2O+
236.0717	185	C15H10NO2+
237.0745	38	C14[13]CH10NO2+
253.0985	999	C15H13N2O2+
