Mass spectrum: N-Desmethyl Clarithromycin; LC-ESI-QTOF; MS2; HILIC; CE: 20 eV; R=35000; [M+H]+
Name: N-Desmethyl Clarithromycin
Name: 14-ethyl-12,13-dihydroxy-4-(5-hydroxy-4-methoxy-4,6-dimethyloxan-2-yl)oxy-6-[3-hydroxy-6-methyl-4-(methylamino)oxan-2-yl]oxy-7-methoxy-3,5,7,9,11,13-hexamethyl-oxacyclotetradecane-2,10-dione
Formula: C37H67NO13
Exact mass: 733.4612412
SMILES: CCC1OC(=O)C(C)C(OC2CC(C)(OC)C(O)C(C)O2)C(C)C(OC2OC(C)CC(NC)C2O)C(C)(CC(C)C(=O)C(C)C(O)C1(C)O)OC
InChI: InChI=1S/C37H67NO13/c1-14-25-37(10,44)30(41)20(4)27(39)18(2)16-36(9,46-13)32(51-34-28(40)24(38-11)15-19(3)47-34)21(5)29(22(6)33(43)49-25)50-26-17-35(8,45-12)31(42)23(7)48-26/h18-26,28-32,34,38,40-42,44H,14-17H2,1-13H3
Instrument: Bruker maXis Impact
Instrument type: LC-ESI-QTOF
Ms type: MS2
Ion mode: POSITIVE
Ionization: ESI
Fragmentation mode: CID
Collision energy: 20 eV
Resolution: 35000
Column name: ACQUITY UPLC BEH Amide 1.7 um 2.1x100 mm, Waters
Retention time: 6.131 min
Base peak: 734.4742
Precursor m/z: 734.4685
Precursor type: [M+H]+
m/z	relative intensity	assigned
127.0758	35	C7H11O2+
144.1025	960	C7H14NO2+
145.1056	46	C6[13]CH14NO2+
159.1019	7	C8H15O3+
270.171	18	C14H24NO4+
302.1982	154	C5H34O13+
307.1923	5	C21H25NO+
339.2185	21	C22H29NO2+
365.2343	30	C24H31NO2+
366.2372	6	C23[13]CH31NO2+
383.2452	27	C24H33NO3+
384.2473	6	C23[13]CH33NO3+
397.261	40	C25H35NO3+
398.2639	9	C24[13]CH35NO3+
401.2552	7	C24H35NO4+
415.2719	11	C25H37NO4+
433.2822	25	C25H39NO5+
434.2863	5	C24[13]CH39NO5+
526.3392	6	C28H48NO8+
544.3525	44	C36H48O4+
545.3555	13	C35[13]CH48O4+
576.3789	497	C37H52O5+
577.3824	142	C29H55NO10+
578.3848	24	C28[13]CH55NO10+
702.4477	18	C36H64NO12+
703.452	7	C35[13]CH64NO12+
734.4755	999	C37H68NO13+
735.4785	384	C36[13]CH68NO13+
736.4801	72	C35[13]C2H68NO13+
