Mass spectrum: Chloridazone-methyl-desphenyl; LC-ESI-QTOF; MS2; HILIC; CE: 30 eV; R=35000; [M+H]+
Name: Chloridazone-methyl-desphenyl
Name: 5-Amino-4-chloro-2-methyl-3(2H)-pyridazinone
Name: 5-amino-4-chloro-2-methylpyridazin-3-one
Formula: C5H6ClN3O
Exact mass: 159.0199395
SMILES: ClC(=C(C=N1)N)C(=O)N1C
InChI: InChI=1S/C5H6ClN3O/c1-9-5(10)4(6)3(7)2-8-9/h2H,7H2,1H3
Instrument: Bruker maXis Impact
Instrument type: LC-ESI-QTOF
Ms type: MS2
Ion mode: POSITIVE
Ionization: ESI
Fragmentation mode: CID
Collision energy: 30 eV
Resolution: 35000
Column name: ACQUITY UPLC BEH Amide 1.7 um 2.1x100 mm, Waters
Retention time: 1.766 min
Base peak: 206.0024
Precursor m/z: 160.0272
Precursor type: [M+H]+
m/z	relative intensity	assigned
115.9922	16	C4H3ClNO+
116.9981	133	C4H4ClNO+
118.9954	68	C4H4[37]ClNO+
124.051	38	C5H6N3O+
125.0584	12	C5H7N3O+
128.9853	19	C4H2ClN2O+
130.0057	256	C5H5ClNO+
131.0024	27	C4H4ClN2O+
131.0127	84	C5H6ClNO+
132.0032	80	C5H5[37]ClNO+
133.012	22	C5H6[37]ClNO+
145.0041	135	C4H4ClN3O+
146.0093	9	C4H5ClN3O+
147.0008	34	C4H4[37]ClN3O+
158.0128	18	C5H5ClN3O+
160.0274	999	C5H7ClN3O+
161.0317	42	C4[13]CH7ClN3O+
162.0248	321	C5H7[37]ClN3O+
