Mass spectrum: Atenolol acid; LC-ESI-QTOF; MS2; CE: 30 eV; R=35000; [M+H]+
Name: Atenolol acid
Name: Metoprolol acid
Name: 2-[4-[2-hydroxy-3-(propan-2-ylamino)propoxy]phenyl]acetic acid
Formula: C14H21NO4
Exact mass: 267.1470582
SMILES: CC(C)NCC(O)COC1=CC=C(CC(O)=O)C=C1
InChI: InChI=1S/C14H21NO4/c1-10(2)15-8-12(16)9-19-13-5-3-11(4-6-13)7-14(17)18/h3-6,10,12,15-16H,7-9H2,1-2H3,(H,17,18)
Instrument: Bruker maXis Impact
Instrument type: LC-ESI-QTOF
Ms type: MS2
Ion mode: POSITIVE
Ionization: ESI
Fragmentation mode: CID
Collision energy: 30 eV
Resolution: 35000
Column name: Acclaim RSLC C18 2.2um, 2.1x100mm, Thermo
Retention time: 3.708 min
Base peak: 268.1541
Precursor m/z: 268.1543
Precursor type: [M+H]+
m/z	relative intensity	assigned
115.0536	13	C9H7+
116.1064	16	C6H14NO+
117.0693	13	C9H9+
119.0482	25	C8H7O+
123.0432	17	C7H7O2+
133.064	20	C9H9O+
135.043	7	C8H7O2+
137.0586	53	C8H9O2+
145.064	999	C10H9O+
146.0671	94	C9[13]CH9O+
147.0426	6	C9H7O2+
147.0702	5	C8[13]C2H9O+
153.0535	10	C8H9O3+
162.0897	14	C7H14O4+
163.0743	33	C10H11O2+
164.0529	6	C12H6N+
165.0536	291	C9H9O3+
166.057	25	C8[13]CH9O3+
179.069	20	C10H11O3+
191.0693	368	C11H11O3+
192.0727	38	C10[13]CH11O3+
226.1066	61	C11H16NO4+
227.1093	9	C10[13]CH16NO4+
250.1438	7	C14H20NO3+
268.1537	88	C14H22NO4+
269.1573	17	C13[13]CH22NO4+
