Mass spectrum: 4-Acetamidoantipyrin; LC-ESI-QTOF; MS2; CE: Ramp 19.7-29.5 eV; R=35000; [M+H]+
Name: 4-Acetamidoantipyrin
Name: 4-Acetamidoantipyrine
Name: N-(1,5-dimethyl-3-oxo-2-phenylpyrazol-4-yl)acetamide
Formula: C13H15N3O2
Exact mass: 245.1164267
SMILES: CN1N(C(=O)C(NC(C)=O)=C1C)C1=CC=CC=C1
InChI: InChI=1S/C13H15N3O2/c1-9-12(14-10(2)17)13(18)16(15(9)3)11-7-5-4-6-8-11/h4-8H,1-3H3,(H,14,17)
Instrument: Bruker maXis Impact
Instrument type: LC-ESI-QTOF
Ms type: MS2
Ion mode: POSITIVE
Ionization: ESI
Fragmentation mode: CID
Collision energy: Ramp 19.7-29.5 eV
Resolution: 35000
Column name: Acclaim RSLC C18 2.2um, 2.1x100mm, Thermo
Retention time: 4.065 min
Base peak: 246.1244
Precursor m/z: 246.1237
Precursor type: [M+H]+
m/z	relative intensity	assigned
56.0492	230	C3H6N+
57.0524	6	C2[13]CH6N+
58.0648	7	C3H8N+
77.0382	10	C6H5+
83.0605	999	C4H7N2+
84.0637	41	C3[13]CH7N2+
85.0759	51	C4H9N2+
94.0657	75	C6H8N+
95.0495	15	C6H7O+
95.0705	5	C5[13]CH8N+
96.081	8	C6H10N+
104.0506	628	C7H6N+
105.0533	34	C6[13]CH6N+
111.0568	10	C5H7N2O+
132.0437	5	C8H6NO+
144.0803	5	C10H10N+
145.0753	18	C9H9N2+
146.0596	20	C9H8NO+
159.0543	9	C9H7N2O+
159.091	102	C10H11N2+
160.0936	9	C9[13]CH11N2+
171.0541	9	C10H7N2O+
171.0907	5	C11H11N2+
172.0619	18	C10H8N2O+
173.0697	33	C10H9N2O+
185.0697	10	C11H9N2O+
186.0772	11	C11H10N2O+
187.0859	66	C11H11N2O+
188.0892	7	C10[13]CH11N2O+
189.0891	13	C10H11N3O+
204.1129	436	C11H14N3O+
205.1156	58	C10[13]CH14N3O+
213.0893	24	C12H11N3O+
226.0968	11	C13H12N3O+
228.1133	699	C13H14N3O+
229.1161	105	C12[13]CH14N3O+
230.1188	7	C11[13]C2H14N3O+
246.1238	83	C13H16N3O2+
247.1265	9	C12[13]CH16N3O2+
