Mass spectrum: Dimethenamid-ESA; LC-ESI-QTOF; MS2; CE: Ramp 22.0-33.1 eV; R=35000; [M+H]+
Name: Dimethenamid-ESA
Name: 2-[(2,4-Dimethylthiophen-3-yl)(1-methoxypropan-2-yl)amino]-2-oxoethanesulfonic acid
Name: 2-[(2,4-dimethylthiophen-3-yl)-(1-methoxypropan-2-yl)amino]-2-oxoethanesulfonic acid
Formula: C12H19NO5S2
Exact mass: 321.0704647
SMILES: COCC(C)N(C(=O)CS(O)(=O)=O)C1=C(C)SC=C1C
InChI: InChI=1S/C12H19NO5S2/c1-8-6-19-10(3)12(8)13(9(2)5-18-4)11(14)7-20(15,16)17/h6,9H,5,7H2,1-4H3,(H,15,16,17)
Instrument: Bruker maXis Impact
Instrument type: LC-ESI-QTOF
Ms type: MS2
Ion mode: POSITIVE
Ionization: ESI
Fragmentation mode: CID
Collision energy: Ramp 22.0-33.1 eV
Resolution: 35000
Column name: Acclaim RSLC C18 2.2um, 2.1x100mm, Thermo
Retention time: 6.474 min
Base peak: 102.1288
Precursor m/z: 322.0777
Precursor type: [M+H]+
m/z	relative intensity	assigned
125.0413	26	C7H9S+
126.0371	26	C6H8NS+
128.0528	14	C6H10NS+
134.0956	49	C9H12N+
138.0376	13	CH14O3S2+
150.0479	64	C12H6+
151.0452	14	C5H13NS2+
151.0521	14	C11[13]CH6+
152.0163	17	C7H6NOS+
152.0524	123	C8H10NS+
166.0686	290	C6H14O3S+
167.0769	120	C3H19O3S2+
168.0489	30	C2H16O4S2+
168.0632	17	C6H14O3[34]S+
168.0838	192	C9H14NS+
169.0729	13	C3H19O3S[34]S+
169.0866	28	C8[13]CH14NS+
176.1057	28	C11H14NO+
194.0624	19	C10H12NOS+
209.0865	83	C11H15NOS+
210.095	658	C11H16NOS+
211.0974	75	C10[13]CH16NOS+
212.0452	19	C6H14NO3S2+
212.0928	25	C11H16NO[34]S+
226.0894	22	C11H16NO2S+
290.0516	999	C11H16NO4S2+
291.0546	166	C10[13]CH16NO4S2+
292.0481	84	C11H16NO4S[34]S+
