Mass spectrum: Azoxystrobin acid; LC-ESI-QTOF; MS2; HILIC; CE: 40 eV; R=35000; [M+H]+
Name: Azoxystrobin acid
Name: SCHEMBL435486
Name: (E)-2-[2-[6-(2-cyanophenoxy)pyrimidin-4-yl]oxyphenyl]-3-methoxyprop-2-enoic acid
Formula: C21H15N3O5
Exact mass: 389.1011706
SMILES: CO\C=C(\C(O)=O)c1ccccc1Oc1cc(Oc2ccccc2C#N)ncn1
InChI: InChI=1S/C21H15N3O5/c1-27-12-16(21(25)26)15-7-3-5-9-18(15)29-20-10-19(23-13-24-20)28-17-8-4-2-6-14(17)11-22/h2-10,12-13H,1H3,(H,25,26)/b16-12+
Instrument: Bruker maXis Impact
Instrument type: LC-ESI-QTOF
Ms type: MS2
Ion mode: POSITIVE
Ionization: ESI
Fragmentation mode: CID
Collision energy: 40 eV
Resolution: 35000
Column name: ACQUITY UPLC BEH Amide 1.7 um 2.1x100mm, Waters
Retention time: 1.565 min
Base peak: 453.2798
Precursor m/z: 390.1084
Precursor type: [M+H]+
m/z	relative intensity	assigned
114.0336	5	C8H4N+
120.0453	15	C7H6NO+
129.045	20	C8H5N2+
130.0302	5	C8H4NO+
132.0453	7	C8H6NO+
133.0528	19	C8H7NO+
133.086	5	C6H13O3+
134.0608	62	C8H8NO+
135.063	10	C3H9N3O3+
141.0456	15	C9H5N2+
143.0365	7	C9H5NO+
143.0614	37	C9H7N2+
144.0451	7	C9H6NO+
145.0283	23	C9H5O2+
145.0532	10	C9H7NO+
149.0232	42	C8H5O3+
150.0285	7	C6H4N3O2+
154.0532	5	C10H6N2+
155.061	10	C10H7N2+
156.0447	76	C10H6NO+
157.0299	5	C10H5O2+
157.0481	11	C5H7N3O3+
159.0553	6	C9H7N2O+
160.0402	7	C9H6NO2+
161.0721	14	C9H9N2O+
162.0554	12	C9H8NO2+
168.0446	5	C11H6NO+
169.0399	37	C10H5N2O+
170.0483	9	C10H6N2O+
171.0314	14	C10H5NO2+
171.056	31	C10H7N2O+
172.0402	103	C10H6NO2+
173.0473	21	C10H7NO2+
177.0551	22	C10H9O3+
182.0489	10	C11H6N2O+
182.0711	17	C11H8N3+
183.056	178	C11H7N2O+
184.0391	8	C11H6NO2+
184.0598	25	C10[13]CH7N2O+
185.0243	8	C11H5O3+
185.0457	5	C8H9O5+
185.07	6	C11H9N2O+
186.0556	12	C11H8NO2+
187.0502	26	C10H7N2O2+
196.0545	5	C13H8O2+
197.0716	9	C12H9N2O+
199.0516	36	C11H7N2O2+
200.0348	44	C11H6NO3+
201.0427	101	C11H7NO3+
201.067	39	C11H9N2O2+
202.049	16	C10[13]CH7NO3+
207.056	7	C13H7N2O+
210.0436	73	C12H6N2O2+
210.0673	24	C14H10O2+
211.0506	27	C12H7N2O2+
212.0364	7	C15H4N2+
216.0669	83	C12H10NO3+
217.0702	16	C11[13]CH10NO3+
225.0657	6	C13H9N2O2+
227.0473	5	C15H5N3+
231.0905	6	C16H11N2+
232.0738	6	C13H12O4+
242.0344	26	C15H4N3O+
244.0875	7	C16H10N3+
245.0716	7	C16H9N2O+
245.0975	8	C18H13O+
246.0803	6	C16H10N2O+
247.0863	6	C16H11N2O+
258.0787	5	C17H10N2O+
259.0865	14	C17H11N2O+
261.0845	5	C13H13N2O4+
262.087	7	C17H12NO2+
271.0865	5	C18H11N2O+
272.0829	48	C19H12O2+
273.0685	31	C17H9N2O2+
273.0905	43	C19H13O2+
274.0739	16	C17H10N2O2+
274.0921	18	C14H14N2O4+
275.0837	13	C17H11N2O2+
284.0837	9	C20H12O2+
285.0914	5	C20H13O2+
287.0837	23	C18H11N2O2+
288.0675	6	C21H8N2+
288.0749	8	C14H12N2O5+
288.0914	13	C18H12N2O2+
288.1142	10	C20H16O2+
289.098	11	C18H13N2O2+
289.1179	6	C18H15N3O+
300.0785	50	C20H12O3+
301.0866	163	C20H13O3+
302.0883	32	C19[13]CH13O3+
303.0853	13	C14H13N3O5+
312.0819	9	C21H12O3+
313.0802	6	C16H13N2O5+
314.094	13	C21H14O3+
315.1022	14	C21H15O3+
316.11	23	C21H16O3+
317.092	6	C19H13N2O3+
317.1091	7	C20H15NO3+
328.0742	132	C21H12O4+
329.0817	999	C21H13O4+
330.0848	242	C19H12N3O3+
331.0869	32	C18[13]CH12N3O3+
344.1052	268	C20H14N3O3+
345.1077	69	C20H15N3O3+
346.1111	8	C19[13]CH15N3O3+
372.1051	27	C21H14N3O4+
373.1032	10	C21H15N3O4+
