Mass spectrum: Betamethasone 21-Acetate; LC-ESI-QTOF; MS2; HILIC; CE: 30 eV; R=35000; [M+H]+
Name: Betamethasone 21-Acetate
Name: [2-[(8S,9R,10S,11S,13S,14S,16S,17R)-9-fluoro-11,17-dihydroxy-10,13,16-trimethyl-3-oxo-6,7,8,11,12,14,15,16-octahydrocyclopenta[a]phenanthren-17-yl]-2-oxoethyl] acetate
Formula: C24H31FO6
Exact mass: 434.2104669
SMILES: C[C@H]1C[C@H]2[C@@H]3CCC4=CC(=O)C=C[C@]4(C)[C@@]3(F)[C@@H](O)C[C@]2(C)[C@@]1(O)C(=O)COC(C)=O
InChI: InChI=1S/C24H31FO6/c1-13-9-18-17-6-5-15-10-16(27)7-8-21(15,3)23(17,25)19(28)11-22(18,4)24(13,30)20(29)12-31-14(2)26/h7-8,10,13,17-19,28,30H,5-6,9,11-12H2,1-4H3/t13-,17-,18-,19-,21-,22-,23-,24-/m0/s1
Instrument: Bruker maXis Impact
Instrument type: LC-ESI-QTOF
Ms type: MS2
Ion mode: POSITIVE
Ionization: ESI
Fragmentation mode: CID
Collision energy: 30 eV
Resolution: 35000
Column name: ACQUITY UPLC BEH Amide 1.7 um 2.1x100 mm, Waters
Retention time: 1.515 min
Base peak: 134.0718
Precursor m/z: 435.2177
Precursor type: [M+H]+
m/z	relative intensity	assigned
119.0858	91	C9H11+
121.0652	129	C8H9O+
121.1013	52	C9H13+
123.0815	78	C5H12FO2+
125.0605	25	C4H10FO3+
125.098	17	C5H14FO2+
128.0622	20	C10H8+
129.07	20	C10H9+
131.0852	63	C10H11+
132.0597	19	C6H9FO2+
133.0651	52	C9H9O+
133.0846	32	C6H13O3+
133.1014	78	C10H13+
135.0807	323	C9H11O+
135.1187	17	C7H16FO+
136.0839	48	C8[13]CH11O+
137.0615	19	C5H10FO3+
137.0964	68	C9H13O+
139.0757	17	C8H11O2+
141.0717	17	C8H10FO+
143.0861	46	C11H11+
144.0576	20	C7H9FO2+
145.0656	79	C7H10FO2+
145.1015	55	C11H13+
147.0805	999	C10H11O+
148.0835	108	C9[13]CH11O+
149.0964	195	C10H13O+
151.0762	97	C6H12FO3+
151.1118	49	C10H15O+
153.0912	192	C9H13O2+
154.0957	20	C9H14O2+
154.1222	29	C3H19FO5+
155.0711	28	C5H12FO4+
155.0869	16	C9H12FO+
157.0633	16	C11H9O+
157.1018	40	C9H14FO+
158.0733	18	C8H11FO2+
159.0808	352	C11H11O+
160.0842	28	C10[13]CH11O+
161.0593	17	C10H9O2+
161.0964	233	C11H13O+
162.0987	32	C10[13]CH13O+
163.0748	41	C10H11O2+
163.1112	26	C11H15O+
165.0911	42	C10H13O2+
167.1066	166	C10H15O2+
169.0639	33	C12H9O+
169.0867	21	C6H14FO4+
169.1013	16	C13H13+
171.0809	536	C12H11O+
171.1165	28	C13H15+
172.0843	66	C11[13]CH11O+
173.0964	348	C12H13O+
174.0995	57	C11[13]CH13O+
175.0758	20	C11H11O2+
175.1114	46	C12H15O+
177.0913	131	C11H13O2+
179.0877	23	C11H12FO+
179.1057	22	C11H15O2+
181.1019	17	C11H14FO+
183.0805	45	C13H11O+
185.0963	349	C13H13O+
186.0996	54	C12[13]CH13O+
187.0755	188	C12H11O2+
187.1122	148	C13H15O+
188.0805	37	C12H12O2+
189.0922	52	C9H14FO3+
191.1077	18	C9H16FO3+
193.086	26	C11H13O3+
193.1017	29	C15H13+
195.0812	27	C11H12FO2+
195.1004	60	C11H15O3+
196.0874	19	C14H12O+
196.1093	16	C11H16O3+
197.0965	194	C14H13O+
198.102	43	C13[13]CH13O+
199.0745	31	C13H11O2+
199.1121	109	C14H15O+
201.0919	24	C10H14FO3+
201.1263	46	C14H17O+
203.1066	31	C13H15O2+
207.1173	25	C16H15+
209.0963	82	C15H13O+
209.1184	15	C9H18FO4+
209.1326	33	C16H17+
210.1018	39	C15H14O+
211.1128	310	C12H16FO2+
212.1179	106	C15H16O+
213.0907	29	C14H13O2+
213.1274	205	C15H17O+
214.1319	44	C14[13]CH17O+
215.1076	150	C11H16FO3+
215.1414	23	C15H19O+
217.1005	22	C17H13+
219.1173	28	C17H15+
221.0959	116	C16H13O+
221.1311	27	C17H17+
222.1046	75	C13H15FO2+
222.1484	20	C7H23FO6+
223.1123	223	C13H16FO2+
224.1156	49	C12[13]CH16FO2+
225.0919	21	C12H14FO3+
225.1281	201	C13H18FO2+
226.1321	39	C12[13]CH18FO2+
227.1077	38	C12H16FO3+
227.1439	269	C13H20FO2+
228.1473	40	C12[13]CH20FO2+
229.1226	29	C15H17O2+
231.1193	16	C15H16FO+
234.1037	17	C17H14O+
235.1133	231	C14H16FO2+
235.1495	17	C15H20FO+
236.1179	54	C13[13]CH16FO2+
236.1597	41	C11H24O5+
237.1285	665	C14H18FO2+
238.1317	141	C13[13]CH18FO2+
239.1081	78	C13H16FO3+
239.1438	303	C14H20FO2+
240.1105	14	C16H16O2+
240.1474	61	C13[13]CH20FO2+
241.1233	56	C13H18FO3+
242.1294	18	C16H18O2+
244.1297	17	C12H20O5+
245.0966	15	C18H13O+
245.134	25	C16H18FO+
247.1121	33	C18H15O+
247.1495	15	C16H20FO+
248.121	43	C15H17FO2+
249.1284	181	C15H18FO2+
249.165	35	C16H22FO+
250.1345	60	C18H18O+
250.1745	20	C16H23FO+
251.1087	29	C14H16FO3+
251.144	115	C15H20FO2+
252.1508	49	C18H20O+
253.1217	100	C17H17O2+
253.1595	184	C15H22FO2+
254.1255	21	C17H18O2+
254.1632	36	C14[13]CH22FO2+
255.1388	122	C14H20FO3+
256.1429	15	C17H20O2+
257.1377	36	C13H21O5+
258.1455	17	C13H22O5+
259.1133	23	C16H16FO2+
259.151	35	C17H20FO+
260.1218	28	C16H17FO2+
261.1285	130	C16H18FO2+
261.1661	21	C17H22FO+
262.135	87	C19H18O+
263.1057	27	C18H15O2+
263.1435	283	C19H19O+
263.1807	23	C17H24FO+
264.1479	89	C18[13]CH19O+
265.1223	22	C18H17O2+
265.159	91	C19H21O+
266.1299	15	C18H18O2+
266.1651	41	C19H22O+
267.1381	110	C18H19O2+
267.1759	74	C16H24FO2+
268.142	24	C18H20O2+
268.1767	15	C19H24O+
272.123	32	C17H17FO2+
273.1252	28	C20H17O+
273.1674	70	C14H25O5+
274.1329	20	C20H18O+
274.1669	15	C21H22+
275.1444	160	C17H20FO2+
276.1512	127	C20H20O+
277.1248	62	C16H18FO3+
277.16	402	C17H22FO2+
278.1275	23	C19H18O2+
278.1662	232	C20H22O+
279.1383	59	C19H19O2+
279.1754	717	C17H24FO2+
280.1785	167	C20H24O+
281.1563	47	C16H22FO3+
281.1888	42	C19[13]CH24O+
286.1359	73	C18H19FO2+
287.1427	14	C21H19O+
289.1591	72	C21H21O+
290.1296	32	C20H18O2+
290.1652	19	C21H22O+
291.1757	726	C18H24FO2+
292.1801	188	C21H24O+
293.1542	87	C20H21O2+
293.1861	19	C20[13]CH24O+
294.1612	31	C20H22O2+
295.1352	25	C16H20FO4+
295.1702	156	C17H24FO3+
296.1777	74	C17H25FO3+
297.188	58	C17H26FO3+
301.16	358	C19H22FO2+
302.162	90	C18[13]CH22FO2+
304.1468	45	C18H21FO3+
305.1522	17	C21H21O2+
306.1606	40	C21H22O2+
307.1692	114	C21H23O2+
308.1759	18	C21H24O2+
309.1858	277	C18H26FO3+
310.1903	82	C17[13]CH26FO3+
311.1659	78	C17H24FO4+
313.1789	17	C20H25O3+
319.1704	573	C19H24FO3+
320.1745	111	C18[13]CH24FO3+
321.1726	22	C15H26FO6+
325.1796	62	C21H25O3+
327.1971	31	C18H28FO4+
337.1811	370	C19H26FO4+
338.1844	88	C18[13]CH26FO4+
339.1834	19	C18H27O6+
351.1985	16	C20H28FO4+
353.1784	52	C19H26FO5+
354.1779	15	C22H26O4+
355.1929	125	C19H28FO5+
357.1918	30	C22H26FO3+
379.1914	81	C21H28FO5+
380.1969	27	C24H28O4+
397.2048	98	C21H30FO6+
398.2095	35	C21H31FO6+
433.2065	17	C24H30FO6+
435.2216	153	C24H32FO6+
436.2225	35	C23[13]CH32FO6+
