Mass spectrum: Azoxystrobin acid; LC-ESI-QTOF; MS2; HILIC; CE: 20 eV; R=35000; [M+H]+
Name: Azoxystrobin acid
Name: SCHEMBL435486
Name: (E)-2-[2-[6-(2-cyanophenoxy)pyrimidin-4-yl]oxyphenyl]-3-methoxyprop-2-enoic acid
Formula: C21H15N3O5
Exact mass: 389.1011706
SMILES: CO\C=C(\C(O)=O)c1ccccc1Oc1cc(Oc2ccccc2C#N)ncn1
InChI: InChI=1S/C21H15N3O5/c1-27-12-16(21(25)26)15-7-3-5-9-18(15)29-20-10-19(23-13-24-20)28-17-8-4-2-6-14(17)11-22/h2-10,12-13H,1H3,(H,25,26)/b16-12+
Instrument: Bruker maXis Impact
Instrument type: LC-ESI-QTOF
Ms type: MS2
Ion mode: POSITIVE
Ionization: ESI
Fragmentation mode: CID
Collision energy: 20 eV
Resolution: 35000
Column name: ACQUITY UPLC BEH Amide 1.7 um 2.1x100 mm, Waters
Retention time: 1.566 min
Base peak: 453.2806
Precursor m/z: 390.1084
Precursor type: [M+H]+
m/z	relative intensity	assigned
133.0868	41	C6H13O3+
149.0238	12	C8H5O3+
177.1131	26	C11H15NO+
316.111	11	C21H16O3+
329.0822	11	C21H13O4+
344.1055	111	C20H14N3O3+
345.109	19	C19[13]CH14N3O3+
346.1211	22	C20H16N3O3+
347.1253	7	C19[13]CH16N3O3+
372.1015	999	C21H14N3O4+
373.1045	230	C21H15N3O4+
374.1064	31	C20[13]CH15N3O4+
