Mass spectrum: 2-Aminobenzimidazole; LC-ESI-QTOF; MS2; HILIC; CE: 30 eV; R=35000; [M+H]+
Name: 2-Aminobenzimidazole
Name: 1H-benzimidazol-2-amine
Formula: C7H7N3
Exact mass: 133.0639972
SMILES: c1ccc2c(c1)[nH]c(=N)[nH]2
InChI: InChI=1S/C7H7N3/c8-7-9-5-3-1-2-4-6(5)10-7/h1-4H,(H3,8,9,10)
Instrument: Bruker maXis Impact
Instrument type: LC-ESI-QTOF
Ms type: MS2
Ion mode: POSITIVE
Ionization: ESI
Fragmentation mode: CID
Collision energy: 30 eV
Resolution: 35000
Column name: ACQUITY UPLC BEH Amide 1.7 um 2.1x100 mm, Waters
Retention time: 6.531 min
Base peak: 134.0723
Precursor m/z: 134.0713
Precursor type: [M+H]+
m/z	relative intensity	assigned
117.0453	21	C7H5N2+
133.0639	68	C7H7N3+
134.072	999	C7H8N3+
135.075	63	C6[13]CH8N3+
