Mass spectrum: 2-Aminobenzimidazole; LC-ESI-QTOF; MS2; HILIC; CE: 40 eV; R=35000; [M+H]+
Name: 2-Aminobenzimidazole
Name: 1H-benzimidazol-2-amine
Formula: C7H7N3
Exact mass: 133.0639972
SMILES: c1ccc2c(c1)[nH]c(=N)[nH]2
InChI: InChI=1S/C7H7N3/c8-7-9-5-3-1-2-4-6(5)10-7/h1-4H,(H3,8,9,10)
Instrument: Bruker maXis Impact
Instrument type: LC-ESI-QTOF
Ms type: MS2
Ion mode: POSITIVE
Ionization: ESI
Fragmentation mode: CID
Collision energy: 40 eV
Resolution: 35000
Column name: ACQUITY UPLC BEH Amide 1.7 um 2.1x100mm, Waters
Retention time: 6.582 min
Base peak: 134.0723
Precursor m/z: 134.0713
Precursor type: [M+H]+
m/z	relative intensity	assigned
117.0454	67	C7H5N2+
118.0522	38	C7H6N2+
132.0571	24	C7H6N3+
133.0635	415	C7H7N3+
134.0716	999	C7H8N3+
135.0752	90	C6[13]CH8N3+
