Mass spectrum: Carbamazepine-10,11-epoxide; LC-ESI-QTOF; MS2; HILIC; CE: 40 eV; R=35000; [M+H]+
Name: Carbamazepine-10,11-epoxide
Name: Carbamazepine epoxide
Formula: C15H12N2O2
Exact mass: 252.0898776
SMILES: NC(=O)N1C2=C(C=CC=C2)C2OC2C2=C1C=CC=C2
InChI: InChI=1S/C15H12N2O2/c16-15(18)17-11-7-3-1-5-9(11)13-14(19-13)10-6-2-4-8-12(10)17/h1-8,13-14H,(H2,16,18)
Instrument: Bruker maXis Impact
Instrument type: LC-ESI-QTOF
Ms type: MS2
Ion mode: POSITIVE
Ionization: ESI
Fragmentation mode: CID
Collision energy: 40 eV
Resolution: 35000
Column name: ACQUITY UPLC BEH Amide 1.7 um 2.1x100mm, Waters
Retention time: 2.482 min
Base peak: 271.1099
Precursor m/z: 253.0972
Precursor type: [M+H]+
m/z	relative intensity	assigned
152.0631	24	C12H8+
153.0694	6	C12H9+
165.0714	18	C13H9+
167.0735	99	C12H9N+
168.0774	17	C11[13]CH9N+
178.0651	12	C13H8N+
179.0745	31	C13H9N+
180.0819	999	C13H10N+
181.0852	147	C12[13]CH10N+
182.0975	136	C13H12N+
183.1003	19	C12[13]CH12N+
192.0816	5	C14H10N+
193.0896	18	C14H11N+
210.0919	19	C14H12NO+
