Mass spectrum: Propazine-2-hydroxy; LC-ESI-QTOF; MS2; CE: 40 eV; R=35000; [M+H]+
Name: Propazine-2-hydroxy
Name: 2-Hydroxypropazine
Name: 2,6-bis(propan-2-ylamino)-1H-1,3,5-triazin-4-one
Formula: C9H17N5O
Exact mass: 211.1433102
SMILES: CC(C)NC1=NC(=O)N=C(NC(C)C)N1
InChI: InChI=1S/C9H17N5O/c1-5(2)10-7-12-8(11-6(3)4)14-9(15)13-7/h5-6H,1-4H3,(H3,10,11,12,13,14,15)
Instrument: Bruker maXis Impact
Instrument type: LC-ESI-QTOF
Ms type: MS2
Ion mode: POSITIVE
Ionization: ESI
Fragmentation mode: CID
Collision energy: 40 eV
Resolution: 35000
Column name: Acclaim RSLC C18 2.2um, 2.1x100mm, Thermo
Retention time: 5.7 min
Base peak: 212.15
Precursor m/z: 212.1506
Precursor type: [M+H]+
m/z	relative intensity	assigned
128.0561	999	C3H6N5O+
129.0588	6	C9H7N+
170.1025	5	C6H12N5O+
