Mass spectrum: Capecitabine; LC-ESI-QTOF; MS2; CE: 40 eV; R=35000; [M+H]+
Name: Capecitabine
Name: pentyl N-[1-[(2R,3R,4S,5R)-3,4-dihydroxy-5-methyloxolan-2-yl]-5-fluoro-2-oxopyrimidin-4-yl]carbamate
Formula: C15H22FN3O6
Exact mass: 359.1492636
SMILES: CCCCCOC(=O)NC1=NC(=O)N(C=C1F)[C@@H]1O[C@H](C)[C@@H](O)[C@H]1O
InChI: InChI=1S/C15H22FN3O6/c1-3-4-5-6-24-15(23)18-12-9(16)7-19(14(22)17-12)13-11(21)10(20)8(2)25-13/h7-8,10-11,13,20-21H,3-6H2,1-2H3,(H,17,18,22,23)/t8-,10-,11-,13-/m1/s1
Instrument: Bruker maXis Impact
Instrument type: LC-ESI-QTOF
Ms type: MS2
Ion mode: POSITIVE
Ionization: ESI
Fragmentation mode: CID
Collision energy: 40 eV
Resolution: 35000
Column name: Acclaim RSLC C18 2.2um, 2.1x100mm, Thermo
Retention time: 7.3 min
Base peak: 251.154
Precursor m/z: 360.1565
Precursor type: [M+H]+
m/z	relative intensity	assigned
113.0138	13	C7HN2+
130.0402	999	C7H4N3+
131.043	55	C6[13]CH4N3+
132.0449	5	C8H6NO+
156.0188	45	C8H2N3O+
174.0296	563	C8H4N3O2+
175.0325	47	C7[13]CH4N3O2+
176.0333	6	C6[13]C2H4N3O2+
244.1092	32	C10H15FN3O3+
245.1115	5	C9[13]CH15FN3O3+
