Mass spectrum: Deprenyl; LC-ESI-QTOF; MS2; CE: 30 eV; R=35000; [M+H]+
Name: Deprenyl
Name: selegiline
Name: (2R)-N-methyl-1-phenyl-N-prop-2-ynylpropan-2-amine
Formula: C13H17N
Exact mass: 187.1360995
SMILES: C[C@H](CC1=CC=CC=C1)N(C)CC#C
InChI: InChI=1S/C13H17N/c1-4-10-14(3)12(2)11-13-8-6-5-7-9-13/h1,5-9,12H,10-11H2,2-3H3/t12-/m1/s1
Instrument: Bruker maXis Impact
Instrument type: LC-ESI-QTOF
Ms type: MS2
Ion mode: POSITIVE
Ionization: ESI
Fragmentation mode: CID
Collision energy: 30 eV
Resolution: 35000
Column name: Acclaim RSLC C18 2.2um, 2.1x100mm, Thermo
Retention time: 4.7 min
Base peak: 188.1429
Precursor m/z: 188.1434
Precursor type: [M+H]+
m/z	relative intensity	assigned
119.0858	854	C9H11+
141.0499	999	C8H7F2+
148.11	476	C10H14N+
