Mass spectrum: Repaglinide; LC-ESI-QTOF; MS2; HILIC; CE: 50 eV; R=35000; [M+H]+
Name: Repaglinide
Name: 2-ethoxy-4-[2-[[(1S)-3-methyl-1-(2-piperidin-1-ylphenyl)butyl]amino]-2-oxoethyl]benzoic acid
Formula: C27H36N2O4
Exact mass: 452.2675076
SMILES: CCOc1cc(ccc1C(=O)O)CC(=O)N[C@@H](CC(C)C)c2ccccc2N3CCCCC3
InChI: InChI=1S/C27H36N2O4/c1-4-33-25-17-20(12-13-22(25)27(31)32)18-26(30)28-23(16-19(2)3)21-10-6-7-11-24(21)29-14-8-5-9-15-29/h6-7,10-13,17,19,23H,4-5,8-9,14-16,18H2,1-3H3,(H,28,30)(H,31,32)/t23-/m0/s1
Instrument: Bruker maXis Impact
Instrument type: LC-ESI-QTOF
Ms type: MS2
Ion mode: POSITIVE
Ionization: ESI
Fragmentation mode: CID
Collision energy: 50 eV
Resolution: 35000
Column name: ACQUITY UPLC BEH Amide 1.7 um 2.1x100mm, Water
Retention time: 1.515 min
Base peak: 453.2794
Precursor m/z: 453.2748
Precursor type: [M+H]+
m/z	relative intensity	assigned
117.0583	8	C8H7N+
118.0661	42	C8H8N+
120.0817	12	C8H10N+
130.0659	36	C9H8N+
131.0735	24	C9H9N+
132.0816	43	C9H10N+
133.0871	5	C8[13]CH10N+
144.0818	39	C10H10N+
145.0889	15	C10H11N+
146.0975	233	C10H12N+
147.1007	17	C9[13]CH12N+
158.0975	34	C11H12N+
159.1049	25	C11H13N+
160.1128	26	C11H14N+
162.1289	212	C11H16N+
163.1319	20	C10[13]CH16N+
172.1135	121	C12H14N+
173.12	35	C12H15N+
174.1291	965	C12H16N+
175.1326	89	C11[13]CH16N+
179.0715	32	C10H11O3+
186.1289	21	C13H16N+
187.1356	8	C13H17N+
188.1446	12	C13H18N+
189.0558	11	C11H9O3+
202.1606	41	C14H20N+
203.164	6	C13[13]CH20N+
228.1761	8	C16H22N+
230.1945	999	C16H24N+
231.1958	569	C13H27O3+
232.1989	25	C12[13]CH27O3+
