Mass spectrum: Norfluoxetine; LC-ESI-QTOF; MS2; CE: 20 eV; R=35000; [M+H]+
Name: Norfluoxetine
Name: 3-phenyl-3-[4-(trifluoromethyl)phenoxy]propan-1-amine
Formula: C16H16F3NO
Exact mass: 295.1183988
SMILES: c1ccc(cc1)C(CCN)Oc2ccc(cc2)C(F)(F)F
InChI: InChI=1S/C16H16F3NO/c17-16(18,19)13-6-8-14(9-7-13)21-15(10-11-20)12-4-2-1-3-5-12/h1-9,15H,10-11,20H2
Instrument: Bruker maXis Impact
Instrument type: LC-ESI-QTOF
Ms type: MS2
Ion mode: POSITIVE
Ionization: ESI
Fragmentation mode: CID
Collision energy: 20 eV
Resolution: 35000
Column name: Acclaim RSLC C18 2.2um, 2.1x100mm, Thermo
Retention time: 8.7 min
Base peak: 296.1252
Precursor m/z: 296.1257
Precursor type: [M+H]+
m/z	relative intensity	assigned
157.0488	917	C8H7F2O+
162.0924	999	C10H12NO+
