Mass spectrum: Benzamidine; LC-ESI-QTOF; MS2; HILIC; CE: 20 eV; R=35000; [M+H]+
Name: Benzamidine
Name: benzenecarboximidamide
Formula: C7H8N2
Exact mass: 120.0687483
SMILES: c1ccc(cc1)C(=N)N
InChI: InChI=1S/C7H8N2/c8-7(9)6-4-2-1-3-5-6/h1-5H,(H3,8,9)
Instrument: Bruker maXis Impact
Instrument type: LC-ESI-QTOF
Ms type: MS2
Ion mode: POSITIVE
Ionization: ESI
Fragmentation mode: CID
Collision energy: 20 eV
Resolution: 35000
Column name: ACQUITY UPLC BEH Amide 1.7 um 2.1x100 mm, Waters
Retention time: 6.683 min
Base peak: 121.0772
Precursor m/z: 121.076
Precursor type: [M+H]+
m/z	relative intensity	assigned
104.05	9	C7H6N+
121.0764	999	C7H9N2+
122.0793	60	C6[13]CH9N2+
