Mass spectrum: Atazanavir; LC-ESI-QTOF; MS2; HILIC; CE: 40 eV; R=35000; [M+H]+
Name: Atazanavir
Name: methyl N-[(2S)-1-[2-[(2S,3S)-2-hydroxy-3-[[(2S)-2-(methoxycarbonylamino)-3,3-dimethylbutanoyl]amino]-4-phenylbutyl]-2-[(4-pyridin-2-ylphenyl)methyl]hydrazinyl]-3,3-dimethyl-1-oxobutan-2-yl]carbamate
Formula: C38H52N6O7
Exact mass: 704.3897480
SMILES: CC(C)(C)[C@@H](C(=O)N[C@@H](Cc1ccccc1)[C@H](CN(Cc2ccc(cc2)c3ccccn3)NC(=O)[C@H](C(C)(C)C)NC(=O)OC)O)NC(=O)OC
InChI: InChI=1S/C38H52N6O7/c1-37(2,3)31(41-35(48)50-7)33(46)40-29(22-25-14-10-9-11-15-25)30(45)24-44(43-34(47)32(38(4,5)6)42-36(49)51-8)23-26-17-19-27(20-18-26)28-16-12-13-21-39-28/h9-21,29-32,45H,22-24H2,1-8H3,(H,40,46)(H,41,48)(H,42,49)(H,43,47)/t29-,30-,31+,32+/m0/s1
Instrument: Bruker maXis Impact
Instrument type: LC-ESI-QTOF
Ms type: MS2
Ion mode: POSITIVE
Ionization: ESI
Fragmentation mode: CID
Collision energy: 40 eV
Resolution: 35000
Column name: ACQUITY UPLC BEH Amide 1.7 um 2.1x100mm, Waters
Retention time: 1.565 min
Base peak: 453.2798
Precursor m/z: 705.397
Precursor type: [M+H]+
m/z	relative intensity	assigned
120.0813	9	C8H10N+
144.1028	79	C7H14NO2+
145.106	5	C6[13]CH14NO2+
146.097	10	C10H12N+
167.0735	33	C12H9N+
168.0817	999	H14N3O7+
311.1771	9	C19H23N2O2+
322.193	6	C22H26O2+
328.1833	10	C10H26N5O7+
335.1994	604	C21H25N3O+
336.2024	95	C16H26N5O3+
337.2049	10	C15[13]CH26N5O3+
363.2199	7	C24H29NO2+
371.2104	7	C23H25N5+
424.2417	17	C19H32N6O5+
425.2454	5	C18[13]CH32N6O5+
499.2743	10	C35H35N2O+
502.2861	5	C36H38O2+
516.3017	7	C37H40O2+
534.3124	114	C37H42O3+
535.3156	40	C30H41N5O4+
536.3198	6	C29[13]CH41N5O4+
612.3595	14	C32H48N6O6+
613.3631	6	C31[13]CH48N6O6+
705.4038	20	C38H53N6O7+
706.4079	8	C37[13]CH53N6O7+
