Mass spectrum: Darunavir; LC-ESI-QTOF; MS2; HILIC; CE: 50 eV; R=35000; [M+H]+
Name: Darunavir
Name: [(3aS,4R,6aR)-2,3,3a,4,5,6a-hexahydrofuro[2,3-b]furan-4-yl] N-[(2S,3R)-4-[(4-aminophenyl)sulfonyl-(2-methylpropyl)amino]-3-hydroxy-1-phenylbutan-2-yl]carbamate
Formula: C27H37N3O7S
Exact mass: 547.2352215
SMILES: CC(C)CN(C[C@H]([C@H](Cc1ccccc1)NC(=O)O[C@H]2CO[C@@H]3[C@H]2CCO3)O)S(=O)(=O)c4ccc(cc4)N
InChI: InChI=1S/C27H37N3O7S/c1-18(2)15-30(38(33,34)21-10-8-20(28)9-11-21)16-24(31)23(14-19-6-4-3-5-7-19)29-27(32)37-25-17-36-26-22(25)12-13-35-26/h3-11,18,22-26,31H,12-17,28H2,1-2H3,(H,29,32)/t22-,23-,24+,25-,26+/m0/s1
Instrument: Bruker maXis Impact
Instrument type: LC-ESI-QTOF
Ms type: MS2
Ion mode: POSITIVE
Ionization: ESI
Fragmentation mode: CID
Collision energy: 50 eV
Resolution: 35000
Column name: ACQUITY UPLC BEH Amide 1.7 um 2.1x100mm, Water
Retention time: 1.515 min
Base peak: 183.0793
Precursor m/z: 548.2425
Precursor type: [M+H]+
m/z	relative intensity	assigned
120.0817	85	C2H16O3S+
127.1215	24	C4H17NO3+
129.0708	68	C10H9+
146.0971	71	C4H18O3S+
149.018	17	C7H5N2S+
156.0118	999	C6H6NO2S+
157.0147	92	C5[13]CH6NO2S+
158.0081	49	C6H6NO2[34]S+
158.0978	20	C5H18O3S+
164.1073	33	C10H14NO+
200.1429	34	C6H22N3O2S+
201.1497	20	C6H23N3O2S+
202.1592	123	C14H20N+
203.1657	18	C6H25N3O2S+
208.0987	21	C14H12N2+
220.1689	40	C6H26N3O3S+
237.1987	34	C11H29N2OS+
241.1047	30	C16H17S+
263.1783	16	C12H27N2O2S+
320.263	19	C17H38NO2S+
