Mass spectrum: Prednisone; LC-ESI-QTOF; MS2; HILIC; CE: 10 eV; R=35000; [M+H]+
Name: Prednisone
Name: (8S,9S,10R,13S,14S,17R)-17-hydroxy-17-(2-hydroxyacetyl)-10,13-dimethyl-6,7,8,9,12,14,15,16-octahydrocyclopenta[a]phenanthrene-3,11-dione
Formula: C21H26O5
Exact mass: 358.1780239
SMILES: C[C@]12CC(=O)[C@H]3[C@H]([C@@H]1CC[C@@]2(C(=O)CO)O)CCC4=CC(=O)C=C[C@]34C
InChI: InChI=1S/C21H26O5/c1-19-7-5-13(23)9-12(19)3-4-14-15-6-8-21(26,17(25)11-22)20(15,2)10-16(24)18(14)19/h5,7,9,14-15,18,22,26H,3-4,6,8,10-11H2,1-2H3/t14-,15-,18+,19-,20-,21-/m0/s1
Instrument: Bruker maXis Impact
Instrument type: LC-ESI-QTOF
Ms type: MS2
Ion mode: POSITIVE
Ionization: ESI
Fragmentation mode: CID
Collision energy: 10 eV
Resolution: 35000
Column name: ACQUITY  UPLC BEH Amide 1.7 um 2.1x100mm, Waters
Retention time: 1.716 min
Base peak: 372.2258
Precursor m/z: 359.1853
Precursor type: [M+H]+
m/z	relative intensity	assigned
147.0811	34	C10H11O+
159.0793	8	C11H11O+
171.0804	14	C12H11O+
172.1318	10	C6H20O5+
173.0954	11	C12H13O+
181.0849	13	C10H13O3+
183.1016	12	C10H15O3+
197.097	8	C14H13O+
213.1281	13	C15H17O+
237.129	22	C17H17O+
239.1056	8	C16H15O2+
253.1244	13	C17H17O2+
255.1381	10	C17H19O2+
261.1298	14	C19H17O+
263.1466	10	C19H19O+
265.1591	27	C19H21O+
267.1398	44	C18H19O2+
268.144	8	C18H20O2+
277.161	16	C20H21O+
281.1539	12	C19H21O2+
283.1696	13	C19H23O2+
287.1452	8	C21H19O+
293.1517	12	C20H21O2+
295.1698	61	C20H23O2+
296.1761	19	C20H24O2+
297.1476	8	C19H21O3+
305.1542	46	C21H21O2+
306.1602	13	C21H22O2+
311.1648	17	C20H23O3+
313.1824	110	C20H25O3+
314.1842	26	C19[13]CH25O3+
323.166	91	C21H23O3+
324.1678	20	C20[13]CH23O3+
341.1769	280	C21H25O4+
342.1799	55	C20[13]CH25O4+
359.1881	999	C21H27O5+
360.1911	244	C20[13]CH27O5+
