Mass spectrum: Prednisone; LC-ESI-QTOF; MS2; HILIC; CE: 40 eV; R=35000; [M+H]+
Name: Prednisone
Name: (8S,9S,10R,13S,14S,17R)-17-hydroxy-17-(2-hydroxyacetyl)-10,13-dimethyl-6,7,8,9,12,14,15,16-octahydrocyclopenta[a]phenanthrene-3,11-dione
Formula: C21H26O5
Exact mass: 358.1780239
SMILES: C[C@]12CC(=O)[C@H]3[C@H]([C@@H]1CC[C@@]2(C(=O)CO)O)CCC4=CC(=O)C=C[C@]34C
InChI: InChI=1S/C21H26O5/c1-19-7-5-13(23)9-12(19)3-4-14-15-6-8-21(26,17(25)11-22)20(15,2)10-16(24)18(14)19/h5,7,9,14-15,18,22,26H,3-4,6,8,10-11H2,1-2H3/t14-,15-,18+,19-,20-,21-/m0/s1
Instrument: Bruker maXis Impact
Instrument type: LC-ESI-QTOF
Ms type: MS2
Ion mode: POSITIVE
Ionization: ESI
Fragmentation mode: CID
Collision energy: 40 eV
Resolution: 35000
Column name: ACQUITY UPLC BEH Amide 1.7 um 2.1x100mm, Waters
Retention time: 1.729 min
Base peak: 416.2529
Precursor m/z: 359.1853
Precursor type: [M+H]+
m/z	relative intensity	assigned
115.0551	73	C9H7+
119.0849	94	C9H11+
121.0662	167	C8H9O+
129.0709	83	C10H9+
131.0502	53	C9H7O+
131.0876	103	C10H11+
133.066	58	C9H9O+
133.1002	51	C10H13+
135.0812	98	C9H11O+
141.069	71	C11H9+
143.0865	65	C11H11+
145.0652	177	C10H9O+
145.1042	48	C4H17O5+
146.0737	86	C10H10O+
147.081	999	C10H11O+
148.085	141	C9[13]CH11O+
153.0708	61	C12H9+
155.0851	55	C12H11+
158.0727	115	C11H10O+
159.0811	511	C11H11O+
160.0856	140	C11H12O+
161.0964	161	C11H13O+
167.0879	60	C13H11+
169.064	66	C12H9O+
171.081	700	C12H11O+
172.0883	112	C11[13]CH11O+
173.0978	316	C12H13O+
179.0881	115	C14H11+
181.065	66	C13H9O+
182.0737	82	C13H10O+
183.0812	109	C13H11O+
184.0869	66	C13H12O+
185.1001	127	C13H13O+
186.1038	120	C13H14O+
187.0771	89	C12H11O2+
187.1126	138	C13H15O+
193.1023	50	C15H13+
195.0798	113	C14H11O+
196.087	81	C14H12O+
197.0967	327	C14H13O+
198.1048	63	C14H14O+
199.113	133	C14H15O+
205.1016	61	C16H13+
207.1173	58	C16H15+
208.0876	127	C15H12O+
209.0978	211	C15H13O+
210.1048	191	C15H14O+
211.1128	176	C15H15O+
212.1199	201	C15H16O+
213.1284	111	C15H17O+
219.1175	75	C17H15+
220.0895	55	C16H12O+
221.0986	178	C16H13O+
222.106	311	C16H14O+
223.1138	285	C16H15O+
224.1187	87	C16H16O+
225.1294	112	C16H17O+
227.1437	117	C16H19O+
233.0964	74	C17H13O+
234.1044	78	C17H14O+
235.1116	142	C17H15O+
236.1206	87	C17H16O+
237.128	317	C17H17O+
238.0986	79	C16H14O2+
238.1329	101	C17H18O+
239.1461	122	C17H19O+
246.1021	54	C18H14O+
247.1142	107	C18H15O+
248.1224	127	C18H16O+
249.1284	298	C18H17O+
250.1334	80	C18H18O+
251.1446	57	C18H19O+
253.126	69	C17H17O2+
255.1388	81	C17H19O2+
260.1187	71	C19H16O+
261.1281	55	C19H17O+
262.1374	72	C19H18O+
263.1429	142	C19H19O+
264.1519	84	C19H20O+
265.1589	102	C19H21O+
267.1407	53	C18H19O2+
277.1573	59	C20H21O+
