Mass spectrum: Prednisone; LC-ESI-QTOF; MS2; HILIC; CE: 50 eV; R=35000; [M+H]+
Name: Prednisone
Name: (8S,9S,10R,13S,14S,17R)-17-hydroxy-17-(2-hydroxyacetyl)-10,13-dimethyl-6,7,8,9,12,14,15,16-octahydrocyclopenta[a]phenanthrene-3,11-dione
Formula: C21H26O5
Exact mass: 358.1780239
SMILES: C[C@]12CC(=O)[C@H]3[C@H]([C@@H]1CC[C@@]2(C(=O)CO)O)CCC4=CC(=O)C=C[C@]34C
InChI: InChI=1S/C21H26O5/c1-19-7-5-13(23)9-12(19)3-4-14-15-6-8-21(26,17(25)11-22)20(15,2)10-16(24)18(14)19/h5,7,9,14-15,18,22,26H,3-4,6,8,10-11H2,1-2H3/t14-,15-,18+,19-,20-,21-/m0/s1
Instrument: Bruker maXis Impact
Instrument type: LC-ESI-QTOF
Ms type: MS2
Ion mode: POSITIVE
Ionization: ESI
Fragmentation mode: CID
Collision energy: 50 eV
Resolution: 35000
Column name: ACQUITY UPLC BEH Amide 1.7 um 2.1x100mm, Water
Retention time: 1.715 min
Base peak: 372.2259
Precursor m/z: 359.1853
Precursor type: [M+H]+
m/z	relative intensity	assigned
115.0558	104	C9H7+
117.0709	78	C9H9+
119.0857	176	C9H11+
121.0663	292	C8H9O+
128.0628	165	C10H8+
129.0707	160	C10H9+
131.0503	92	C9H7O+
131.0861	142	C10H11+
132.0569	198	C9H8O+
135.0812	113	C9H11O+
141.0697	278	C11H9+
143.0875	153	C11H11+
144.0566	180	C10H8O+
145.0647	460	C10H9O+
146.0724	279	C10H10O+
147.0809	999	C10H11O+
148.0853	126	C10H12O+
153.0695	129	C12H9+
155.0862	95	C12H11+
157.0654	103	C11H9O+
158.0729	564	C11H10O+
159.0808	563	C11H11O+
160.0854	180	C11H12O+
161.0971	207	C11H13O+
165.0709	202	C13H9+
166.0769	101	C13H10+
167.0857	151	C13H11+
169.0639	124	C12H9O+
170.0721	136	C12H10O+
171.0809	878	C12H11O+
172.0855	245	C12H12O+
173.0961	301	C12H13O+
178.0772	202	C14H10+
179.0863	302	C14H11+
180.0915	116	C14H12+
181.0638	293	C13H9O+
181.1009	81	C14H13+
182.0724	255	C13H10O+
183.0797	209	C13H11O+
184.0873	154	C13H12O+
185.0606	102	C12H9O2+
185.0973	165	C13H13O+
189.0712	85	C15H9+
191.086	91	C15H11+
193.1016	131	C15H13+
194.0742	122	C14H10O+
194.1088	118	C15H14+
195.0809	312	C14H11O+
196.0899	220	C14H12O+
197.0959	268	C14H13O+
199.112	108	C14H15O+
203.0885	75	C9H15O5+
204.0935	75	C16H12+
205.0636	110	C15H9O+
205.0994	124	C16H13+
207.0786	237	C15H11O+
207.1189	83	C16H15+
208.0887	307	C15H12O+
209.0962	355	C15H13O+
210.1052	213	C15H14O+
211.1112	194	C15H15O+
212.1224	96	C15H16O+
215.1098	86	C14H15O2+
219.0838	76	C16H11O+
219.1169	91	C17H15+
220.09	184	C16H12O+
221.098	379	C16H13O+
222.1046	478	C16H14O+
223.1104	235	C16H15O+
224.1186	95	C16H16O+
225.1276	141	C16H17O+
228.0931	80	C18H12+
229.1034	96	C18H13+
231.0817	98	C17H11O+
232.0894	92	C17H12O+
233.0983	256	C17H13O+
233.1327	81	C18H17+
234.1025	203	C17H14O+
235.1128	137	C17H15O+
236.1195	104	C17H16O+
237.1278	145	C17H17O+
238.0985	108	C16H14O2+
238.1353	100	C17H18O+
239.1436	79	C17H19O+
245.0962	142	C18H13O+
246.105	123	C18H14O+
247.1125	246	C18H15O+
248.1189	237	C18H16O+
249.1287	271	C18H17O+
263.1491	79	C19H19O+
