Mass spectrum: Darunavir; LC-ESI-QTOF; MS2; HILIC; CE: 10 eV; R=35000; [M+H]+
Name: Darunavir
Name: [(3aS,4R,6aR)-2,3,3a,4,5,6a-hexahydrofuro[2,3-b]furan-4-yl] N-[(2S,3R)-4-[(4-aminophenyl)sulfonyl-(2-methylpropyl)amino]-3-hydroxy-1-phenylbutan-2-yl]carbamate
Formula: C27H37N3O7S
Exact mass: 547.2352215
SMILES: CC(C)CN(C[C@H]([C@H](Cc1ccccc1)NC(=O)O[C@H]2CO[C@@H]3[C@H]2CCO3)O)S(=O)(=O)c4ccc(cc4)N
InChI: InChI=1S/C27H37N3O7S/c1-18(2)15-30(38(33,34)21-10-8-20(28)9-11-21)16-24(31)23(14-19-6-4-3-5-7-19)29-27(32)37-25-17-36-26-22(25)12-13-35-26/h3-11,18,22-26,31H,12-17,28H2,1-2H3,(H,29,32)/t22-,23-,24+,25-,26+/m0/s1
Instrument: Bruker maXis Impact
Instrument type: LC-ESI-QTOF
Ms type: MS2
Ion mode: POSITIVE
Ionization: ESI
Fragmentation mode: CID
Collision energy: 10 eV
Resolution: 35000
Column name: ACQUITY  UPLC BEH Amide 1.7 um 2.1x100mm, Waters
Retention time: 1.479 min
Base peak: 183.0793
Precursor m/z: 548.2425
Precursor type: [M+H]+
m/z	relative intensity	assigned
250.1817	5	C9H30O5S+
320.258	12	C12H38N3O4S+
321.2545	13	C19H33N2O2+
392.2029	999	C25H30NOS+
393.2055	253	C17H33N2O6S+
394.2028	66	C18H34O7S+
395.2016	7	C17[13]CH34O7S+
418.1849	27	C22H28NO7+
419.189	8	C21[13]CH28NO7+
436.1928	821	C26H30NO3S+
437.1959	209	C26H29O6+
438.1934	53	C22H32NO6S+
439.1957	7	C21[13]CH32NO6S+
504.2553	58	C26H38N3O5S+
505.2608	20	C25[13]CH38N3O5S+
506.2564	5	C26H38N2O6S+
548.2464	723	C27H38N3O7S+
549.2493	209	C26[13]CH38N3O7S+
