Mass spectrum: Candesartan; LC-ESI-QTOF; MS2; HILIC; CE: 40 eV; R=35000; [M+H]+
Name: Candesartan
Name: 2-ethoxy-3-[[4-[2-(2H-tetrazol-5-yl)phenyl]phenyl]methyl]benzimidazole-4-carboxylic acid
Formula: C24H20N6O3
Exact mass: 440.1596885
SMILES: CCOC1=NC2=CC=CC(C(O)=O)=C2N1CC1=CC=C(C=C1)C1=CC=CC=C1C1=NNN=N1
InChI: InChI=1S/C24H20N6O3/c1-2-33-24-25-20-9-5-8-19(23(31)32)21(20)30(24)14-15-10-12-16(13-11-15)17-6-3-4-7-18(17)22-26-28-29-27-22/h3-13H,2,14H2,1H3,(H,31,32)(H,26,27,28,29)
Instrument: Bruker maXis Impact
Instrument type: LC-ESI-QTOF
Ms type: MS2
Ion mode: POSITIVE
Ionization: ESI
Fragmentation mode: CID
Collision energy: 40 eV
Resolution: 35000
Column name: ACQUITY UPLC BEH Amide 1.7 um 2.1x100mm, Waters
Retention time: 2.618 min
Base peak: 441.1705
Precursor m/z: 441.167
Precursor type: [M+H]+
m/z	relative intensity	assigned
140.0498	16	C10H6N+
147.0552	5	C8H7N2O+
151.0546	5	C12H7+
152.0624	37	C12H8+
153.0702	83	C12H9+
154.0734	8	C11[13]CH9+
161.0347	64	C8H5N2O2+
162.0376	5	C7[13]CH5N2O2+
163.0545	17	C13H7+
164.0612	8	C13H8+
165.0705	167	C13H9+
166.0744	31	C12[13]CH9+
167.0857	39	C13H11+
168.0888	5	C12[13]CH11+
173.0349	28	C9H5N2O2+
177.0578	20	C13H7N+
177.0693	10	C14H9+
178.0783	210	C14H10+
179.0456	34	C8H7N2O3+
179.0825	44	C13[13]CH10+
180.0815	392	C13H10N+
181.0845	53	C12[13]CH10N+
189.0663	52	C10H9N2O2+
190.066	316	C14H8N+
191.0463	10	C9H7N2O3+
191.0722	122	C14H9N+
192.081	272	C14H10N+
193.0887	156	C14H11N+
194.097	248	C14H12N+
195.0992	34	C13[13]CH12N+
196.0764	12	C13H10NO+
203.0741	6	C15H9N+
205.0768	76	C14H9N2+
206.0846	245	C14H10N2+
207.0768	77	C10H11N2O3+
207.0925	999	C14H11N2+
208.0956	127	C9H12N4O2+
208.1121	54	C15H14N+
209.1002	9	C8[13]CH12N4O2+
209.1152	7	C14[13]CH14N+
210.0923	270	C14H12NO+
211.096	41	C13[13]CH12NO+
217.0896	13	C16H11N+
218.0971	48	C16H12N+
219.093	49	C15H11N2+
220.0997	50	C15H12N2+
221.1039	11	C14[13]CH12N2+
233.0725	6	C15H9N2O+
233.1079	20	C16H13N2+
234.1158	71	C16H14N2+
235.0983	49	C14H11N4+
235.1239	177	C16H15N2+
236.1023	10	C13[13]CH11N4+
236.1274	29	C15[13]CH15N2+
251.1301	6	C17H17NO+
263.1308	31	C18H17NO+
264.134	6	C17[13]CH17NO+
308.0952	5	C21H12N2O+
308.1201	22	C23H16O+
309.1039	51	C21H13N2O+
310.1105	25	C21H14N2O+
311.1137	5	C20[13]CH14N2O+
322.0993	13	C23H14O2+
323.1065	5	C23H15O2+
324.1135	16	C21H14N3O+
325.1175	5	C20[13]CH14N3O+
334.0992	7	C24H14O2+
337.0999	26	C22H13N2O2+
338.1058	44	C22H14N2O2+
339.11	10	C21[13]CH14N2O2+
348.1018	7	C24H14NO2+
349.0862	14	C24H13O3+
349.11	48	C24H15NO2+
350.0935	64	C24H14O3+
351.0995	24	C23[13]CH14O3+
352.1101	236	C24H16O3+
353.1132	53	C20H13N6O+
354.1177	7	C19[13]CH13N6O+
366.1135	5	C24H16NO3+
367.1203	14	C24H17NO3+
368.1073	6	C22H14N3O3+
380.1433	6	C24H18N3O2+
395.1518	10	C24H19N4O2+
