Mass spectrum: Roxithromycin; LC-ESI-QTOF; MS2; HILIC; CE: 30 eV; R=35000; [M+H]+
Name: Roxithromycin
Name: (3R,4S,5S,6R,7R,9R,10E,11S,12R,13S,14R)-6-[(2S,3R,4S,6R)-4-(dimethylamino)-3-hydroxy-6-methyloxan-2-yl]oxy-14-ethyl-7,12,13-trihydroxy-4-[(2R,4R,5S,6S)-5-hydroxy-4-methoxy-4,6-dimethyloxan-2-yl]oxy-10-(2-methoxyethoxymethoxyimino)-3,5,7,9,11,13-hexamethyl-oxacyclotetradecan-2-one
Formula: C41H76N2O15
Exact mass: 836.5245697
SMILES: CC[C@@H]1[C@@]([C@@H]([C@H](/C(=N/OCOCCOC)/[C@@H](C[C@@]([C@@H]([C@H]([C@@H]([C@H](C(=O)O1)C)O[C@H]2C[C@@]([C@H]([C@@H](O2)C)O)(C)OC)C)O[C@H]3[C@@H]([C@H](C[C@H](O3)C)N(C)C)O)(C)O)C)C)O)(C)O
InChI: InChI=1S/C41H76N2O15/c1-15-29-41(10,49)34(45)24(4)31(42-53-21-52-17-16-50-13)22(2)19-39(8,48)36(58-38-32(44)28(43(11)12)18-23(3)54-38)25(5)33(26(6)37(47)56-29)57-30-20-40(9,51-14)35(46)27(7)55-30/h22-30,32-36,38,44-46,48-49H,15-21H2,1-14H3/b42-31+/t22-,23-,24+,25+,26-,27+,28+,29-,30+,32-,33+,34-,35+,36-,38+,39-,40-,41-/m1/s1
Instrument: Bruker maXis Impact
Instrument type: LC-ESI-QTOF
Ms type: MS2
Ion mode: POSITIVE
Ionization: ESI
Fragmentation mode: CID
Collision energy: 30 eV
Resolution: 35000
Column name: ACQUITY UPLC BEH Amide 1.7 um 2.1x100 mm, Waters
Retention time: 6.195 min
Base peak: 837.5397
Precursor m/z: 837.5318
Precursor type: [M+H]+
m/z	relative intensity	assigned
116.0715	5	C5H10NO2+
116.1076	21	C6H14NO+
127.0756	7	C7H11O2+
158.1184	669	C8H16NO2+
159.1217	46	C7[13]CH16NO2+
316.2137	19	C19H28N2O2+
398.2564	7	C24H34N2O3+
522.3342	49	C33H46O5+
523.3365	14	C32[13]CH46O5+
540.3577	15	C22H54NO13+
541.3599	5	C21[13]CH54NO13+
555.3684	8	C34H51O6+
558.3685	51	C22H56NO14+
559.3716	16	C21[13]CH56NO14+
573.3798	10	C22H57N2O14+
603.3903	17	C23H59N2O15+
604.3919	5	C22[13]CH59N2O15+
661.4318	18	C38H61O9+
662.4347	6	C37[13]CH61O9+
679.4449	999	C41H61NO7+
680.4473	347	C33H64N2O12+
681.4495	59	C30H67NO15+
682.4523	6	C29[13]CH67NO15+
837.5404	79	C41H77N2O15+
838.5437	46	C40[13]CH77N2O15+
839.5462	9	C39[13]C2H77N2O15+
