Mass spectrum: Candesartan; LC-ESI-QTOF; MS2; HILIC; CE: 20 eV; R=35000; [M+H]+
Name: Candesartan
Name: 2-ethoxy-3-[[4-[2-(2H-tetrazol-5-yl)phenyl]phenyl]methyl]benzimidazole-4-carboxylic acid
Formula: C24H20N6O3
Exact mass: 440.1596885
SMILES: CCOC1=NC2=CC=CC(C(O)=O)=C2N1CC1=CC=C(C=C1)C1=CC=CC=C1C1=NNN=N1
InChI: InChI=1S/C24H20N6O3/c1-2-33-24-25-20-9-5-8-19(23(31)32)21(20)30(24)14-15-10-12-16(13-11-15)17-6-3-4-7-18(17)22-26-28-29-27-22/h3-13H,2,14H2,1H3,(H,31,32)(H,26,27,28,29)
Instrument: Bruker maXis Impact
Instrument type: LC-ESI-QTOF
Ms type: MS2
Ion mode: POSITIVE
Ionization: ESI
Fragmentation mode: CID
Collision energy: 20 eV
Resolution: 35000
Column name: ACQUITY UPLC BEH Amide 1.7 um 2.1x100 mm, Waters
Retention time: 2.619 min
Base peak: 441.17
Precursor m/z: 441.167
Precursor type: [M+H]+
m/z	relative intensity	assigned
178.0779	5	C14H10+
180.0814	9	C13H10N+
189.0667	8	C10H9N2O2+
190.067	6	C14H8N+
191.0457	12	C9H7N2O3+
192.081	25	C14H10N+
193.0879	13	C14H11N+
194.097	30	C14H12N+
206.0846	8	C14H10N2+
207.0777	37	C10H11N2O3+
207.0923	185	C14H11N2+
208.0958	24	C13[13]CH11N2+
208.1123	15	C15H14N+
210.0919	59	C14H12NO+
211.0953	8	C13[13]CH12NO+
218.0972	7	C16H12N+
220.1002	12	C15H12N2+
234.1157	11	C16H14N2+
235.099	177	C16H13NO+
235.1238	163	C16H15N2+
236.1014	28	C15[13]CH13NO+
236.1278	31	C15[13]CH15N2+
251.1303	5	C17H17NO+
263.1308	999	C18H17NO+
264.1335	152	C11H16N6O2+
265.1367	9	C10[13]CH16N6O2+
338.1069	95	C22H14N2O2+
339.1105	26	C21[13]CH14N2O2+
349.11	13	C24H15NO2+
350.0947	19	C24H14O3+
352.1095	46	C24H16O3+
353.1116	9	C23[13]CH16O3+
367.1212	9	C24H17NO3+
380.1423	46	C24H18N3O2+
381.144	11	C23[13]CH18N3O2+
395.1522	107	C24H19N4O2+
396.1557	27	C23[13]CH19N4O2+
413.1643	5	C24H21N4O3+
423.1598	331	C24H19N6O2+
424.1624	89	C24H20N6O2+
425.1653	12	C23[13]CH20N6O2+
441.1685	17	C24H21N6O3+
