Mass spectrum: Candesartan; LC-ESI-QTOF; MS2; HILIC; CE: 30 eV; R=35000; [M+H]+
Name: Candesartan
Name: 2-ethoxy-3-[[4-[2-(2H-tetrazol-5-yl)phenyl]phenyl]methyl]benzimidazole-4-carboxylic acid
Formula: C24H20N6O3
Exact mass: 440.1596885
SMILES: CCOC1=NC2=CC=CC(C(O)=O)=C2N1CC1=CC=C(C=C1)C1=CC=CC=C1C1=NNN=N1
InChI: InChI=1S/C24H20N6O3/c1-2-33-24-25-20-9-5-8-19(23(31)32)21(20)30(24)14-15-10-12-16(13-11-15)17-6-3-4-7-18(17)22-26-28-29-27-22/h3-13H,2,14H2,1H3,(H,31,32)(H,26,27,28,29)
Instrument: Bruker maXis Impact
Instrument type: LC-ESI-QTOF
Ms type: MS2
Ion mode: POSITIVE
Ionization: ESI
Fragmentation mode: CID
Collision energy: 30 eV
Resolution: 35000
Column name: ACQUITY UPLC BEH Amide 1.7 um 2.1x100 mm, Waters
Retention time: 2.632 min
Base peak: 441.1697
Precursor m/z: 441.167
Precursor type: [M+H]+
m/z	relative intensity	assigned
140.0492	6	C10H6N+
147.0555	7	C8H7N2O+
152.0631	9	C12H8+
153.07	20	C12H9+
161.0345	24	C8H5N2O2+
165.0699	40	C13H9+
166.0723	6	C12[13]CH9+
167.0852	23	C13H11+
173.0347	17	C9H5N2O2+
178.0778	76	C14H10+
179.0454	17	C8H7N2O3+
179.0836	21	C14H11+
180.0813	140	C13H10N+
181.0838	25	C12[13]CH10N+
189.0661	41	C10H9N2O2+
190.0657	113	C14H8N+
191.0454	20	C9H7N2O3+
191.0721	34	C14H9N+
192.0808	185	C14H10N+
193.0884	93	C14H11N+
194.0966	226	C14H12N+
195.0998	32	C13[13]CH12N+
205.0762	20	C14H9N2+
206.0845	83	C14H10N2+
206.1088	16	C16H14+
207.0756	72	C8H9N5O2+
207.0923	999	C14H11N2+
208.0954	124	C13[13]CH11N2+
208.112	54	C15H14N+
209.1138	10	C14[13]CH14N+
210.0919	323	C14H12NO+
211.0954	45	C13[13]CH12NO+
217.0891	7	C16H11N+
218.0965	50	C16H12N+
219.0942	24	C15H11N2+
220.0998	57	C15H12N2+
221.1039	12	C14[13]CH12N2+
233.0714	5	C15H9N2O+
233.1078	18	C16H13N2+
234.1151	60	C16H14N2+
235.0986	246	C16H13NO+
235.1238	397	C16H15N2+
236.1014	36	C15[13]CH13NO+
236.1272	76	C15[13]CH15N2+
251.13	8	C17H17NO+
261.1046	5	C17H13N2O+
262.111	8	C17H14N2O+
263.1303	318	C18H17NO+
264.1326	54	C11H16N6O2+
265.1361	5	C10[13]CH16N6O2+
309.1033	25	C21H13N2O+
310.1096	13	C21H14N2O+
337.0983	24	C22H13N2O2+
338.1061	135	C22H14N2O2+
339.1107	33	C20H13N5O+
340.1125	6	C19[13]CH13N5O+
349.1096	59	C24H15NO2+
350.0946	89	C24H14O3+
351.0986	22	C23[13]CH14O3+
352.11	287	C24H16O3+
353.113	62	C20H13N6O+
354.1152	6	C19[13]CH13N6O+
366.1137	8	C24H16NO3+
367.1201	28	C24H17NO3+
368.1058	11	C22H14N3O3+
370.1216	6	C22H16N3O3+
377.1418	7	C24H17N4O+
380.1413	54	C24H18N3O2+
381.1447	16	C23[13]CH18N3O2+
395.1528	85	C24H19N4O2+
396.1559	27	C23[13]CH19N4O2+
423.1575	22	C24H19N6O2+
424.1607	6	C23[13]CH19N6O2+
