Mass spectrum: Repaglinide; LC-ESI-QTOF; MS2; HILIC; CE: 40 eV; R=35000; [M+H]+
Name: Repaglinide
Name: 2-ethoxy-4-[2-[[(1S)-3-methyl-1-(2-piperidin-1-ylphenyl)butyl]amino]-2-oxoethyl]benzoic acid
Formula: C27H36N2O4
Exact mass: 452.2675076
SMILES: CCOc1cc(ccc1C(=O)O)CC(=O)N[C@@H](CC(C)C)c2ccccc2N3CCCCC3
InChI: InChI=1S/C27H36N2O4/c1-4-33-25-17-20(12-13-22(25)27(31)32)18-26(30)28-23(16-19(2)3)21-10-6-7-11-24(21)29-14-8-5-9-15-29/h6-7,10-13,17,19,23H,4-5,8-9,14-16,18H2,1-3H3,(H,28,30)(H,31,32)/t23-/m0/s1
Instrument: Bruker maXis Impact
Instrument type: LC-ESI-QTOF
Ms type: MS2
Ion mode: POSITIVE
Ionization: ESI
Fragmentation mode: CID
Collision energy: 40 eV
Resolution: 35000
Column name: ACQUITY UPLC BEH Amide 1.7 um 2.1x100mm, Waters
Retention time: 1.515 min
Base peak: 453.2792
Precursor m/z: 453.2748
Precursor type: [M+H]+
m/z	relative intensity	assigned
118.0658	8	C8H8N+
130.0658	7	C9H8N+
131.0733	5	C9H9N+
132.0815	9	C9H10N+
144.0815	8	C10H10N+
146.0973	49	C10H12N+
158.0972	6	C11H12N+
159.1044	5	C11H13N+
160.1126	6	C11H14N+
162.1288	414	C11H16N+
163.132	36	C10[13]CH16N+
172.1131	20	C12H14N+
173.1197	7	C12H15N+
174.1288	329	C12H16N+
175.1323	31	C11[13]CH16N+
179.0714	27	C10H11O3+
189.0555	15	C11H9O3+
202.1601	15	C14H20N+
207.0665	6	C11H11O4+
230.1937	999	C16H24N+
231.1956	793	C13H27O3+
232.1989	36	C12[13]CH27O3+
