Mass spectrum: Dronedarone; LC-ESI-QTOF; MS2; HILIC; CE: 50 eV; R=35000; [M+H]+
Name: Dronedarone
Name: N-[2-butyl-3-[4-[3-(dibutylamino)propoxy]benzoyl]-1-benzofuran-5-yl]methanesulfonamide
Formula: C31H44N2O5S
Exact mass: 556.2970935
SMILES: CCCCc1c(c2cc(ccc2o1)NS(=O)(=O)C)C(=O)c3ccc(cc3)OCCCN(CCCC)CCCC
InChI: InChI=1S/C31H44N2O5S/c1-5-8-12-29-30(27-23-25(32-39(4,35)36)15-18-28(27)38-29)31(34)24-13-16-26(17-14-24)37-22-11-21-33(19-9-6-2)20-10-7-3/h13-18,23,32H,5-12,19-22H2,1-4H3
Instrument: Bruker maXis Impact
Instrument type: LC-ESI-QTOF
Ms type: MS2
Ion mode: POSITIVE
Ionization: ESI
Fragmentation mode: CID
Collision energy: 50 eV
Resolution: 35000
Column name: ACQUITY UPLC BEH Amide 1.7 um 2.1x100mm, Water
Retention time: 5.853 min
Base peak: 557.3088
Precursor m/z: 557.3044
Precursor type: [M+H]+
m/z	relative intensity	assigned
114.1286	38	CH22O3S+
121.0289	13	C7H5O2+
128.144	94	C2H24O3S+
130.1594	9	C2H26O3S+
142.1598	999	C3H26O3S+
147.0446	6	C9H7O2+
161.0601	44	C10H9O2+
170.1912	308	C5H30O3S+
171.1945	27	C4[13]CH30O3S+
214.0874	8	C7H18O5S+
215.095	46	C7H19O5S+
216.102	22	C13H14NO2+
252.0339	21	C14H8N2OS+
266.0822	5	C16H12NO3+
278.0822	11	C17H12NO3+
279.0896	10	C17H13NO3+
280.098	9	C17H14NO3+
294.0813	264	C17H14N2OS+
295.0843	29	C16[13]CH14N2OS+
305.1061	5	C22H13N2+
306.113	6	C19H16NO3+
308.1297	21	C22H16N2+
309.1371	32	C19H19NO3+
310.1451	38	C19H20NO3+
311.1473	6	C18[13]CH20NO3+
320.1295	6	C23H16N2+
321.1375	13	C23H17N2+
321.1739	5	C15H29O5S+
322.1443	5	C22[13]CH17N2+
324.1608	31	C23H20N2+
325.164	6	C22[13]CH20N2+
336.1619	90	C24H20N2+
337.1639	19	C23[13]CH20N2+
348.1618	5	C25H20N2+
349.1683	5	C22H23NO3+
350.1764	8	C22H24NO3+
366.1961	8	C19H30N2O3S+
379.2043	52	C20H31N2O3S+
380.2075	12	C19[13]CH31N2O3S+
388.124	26	C23H20N2O2S+
393.2196	26	C21H33N2O3S+
394.223	6	C20[13]CH33N2O3S+
421.2515	11	C23H37N2O3S+
435.2678	658	C24H39N2O3S+
436.271	168	C27H36N2O3+
437.2735	18	C26[13]CH36N2O3+
449.282	5	C25H41N2O3S+
477.315	5	C27H45N2O3S+
501.2455	69	C27H37N2O5S+
502.2484	19	C26[13]CH37N2O5S+
557.3093	713	C31H45N2O5S+
558.3123	204	C30[13]CH45N2O5S+
559.3114	42	C31H45N2O5[34]S+
