Mass spectrum: Dihydrocodeine; LC-ESI-QTOF; MS2; HILIC; CE: 20 eV; R=35000; [M+H]+
Name: Dihydrocodeine
Name: (4R,4aR,7S,7aR,12bS)-9-methoxy-3-methyl-2,4,4a,5,6,7,7a,13-octahydro-1H-4,12-methanobenzofuro[3,2-e]isoquinoline-7-ol
Formula: C18H23NO3
Exact mass: 301.1677936
SMILES: CN1CC[C@]23c4c5ccc(c4O[C@H]2[C@H](CC[C@H]3[C@H]1C5)O)OC
InChI: InChI=1S/C18H23NO3/c1-19-8-7-18-11-4-5-13(20)17(18)22-16-14(21-2)6-3-10(15(16)18)9-12(11)19/h3,6,11-13,17,20H,4-5,7-9H2,1-2H3/t11-,12+,13-,17-,18-/m0/s1
Instrument: Bruker maXis Impact
Instrument type: LC-ESI-QTOF
Ms type: MS2
Ion mode: POSITIVE
Ionization: ESI
Fragmentation mode: CID
Collision energy: 20 eV
Resolution: 35000
Column name: ACQUITY UPLC BEH Amide 1.7 um 2.1x100 mm, Waters
Retention time: 6.595 min
Base peak: 302.1791
Precursor m/z: 302.1751
Precursor type: [M+H]+
m/z	relative intensity	assigned
195.0816	6	C14H11O+
199.0767	17	C13H11O2+
201.0923	18	C13H13O2+
213.0924	6	C14H13O2+
217.1239	5	C14H17O2+
227.1082	18	C15H15O2+
243.1029	10	C15H15O3+
245.1193	53	C18H15N+
246.1226	7	C17[13]CH15N+
302.1803	999	C18H24NO3+
