Mass spectrum: Dihydrocodeine; LC-ESI-QTOF; MS2; HILIC; CE: 50 eV; R=35000; [M+H]+
Name: Dihydrocodeine
Name: (4R,4aR,7S,7aR,12bS)-9-methoxy-3-methyl-2,4,4a,5,6,7,7a,13-octahydro-1H-4,12-methanobenzofuro[3,2-e]isoquinoline-7-ol
Formula: C18H23NO3
Exact mass: 301.1677936
SMILES: CN1CC[C@]23c4c5ccc(c4O[C@H]2[C@H](CC[C@H]3[C@H]1C5)O)OC
InChI: InChI=1S/C18H23NO3/c1-19-8-7-18-11-4-5-13(20)17(18)22-16-14(21-2)6-3-10(15(16)18)9-12(11)19/h3,6,11-13,17,20H,4-5,7-9H2,1-2H3/t11-,12+,13-,17-,18-/m0/s1
Instrument: Bruker maXis Impact
Instrument type: LC-ESI-QTOF
Ms type: MS2
Ion mode: POSITIVE
Ionization: ESI
Fragmentation mode: CID
Collision energy: 50 eV
Resolution: 35000
Column name: ACQUITY UPLC BEH Amide 1.7 um 2.1x100mm, Water
Retention time: 6.555 min
Base peak: 302.1785
Precursor m/z: 302.1751
Precursor type: [M+H]+
m/z	relative intensity	assigned
115.055	54	C9H7+
116.0595	5	C8[13]CH7+
121.0652	7	C8H9O+
127.0548	10	C10H7+
128.0626	165	C10H8+
129.0698	63	C10H9+
130.0762	10	C9[13]CH9+
131.0493	19	C9H7O+
131.0851	5	C10H11+
137.0601	35	C8H9O2+
141.0705	220	C11H9+
142.0756	31	C10[13]CH9+
143.0494	25	C10H7O+
143.0857	22	C11H11+
144.0573	37	C10H8O+
145.065	28	C10H9O+
146.0366	8	C9H6O2+
146.0715	7	C10H10O+
147.0803	10	C10H11O+
152.0626	56	C12H8+
153.0702	73	C12H9+
154.0764	18	C12H10+
155.0499	16	C11H7O+
155.0858	48	C12H11+
156.0575	79	C11H8O+
156.0909	6	C11[13]CH11+
157.0647	55	C11H9O+
157.1014	10	C12H13+
158.0733	225	C11H10O+
159.0796	53	C11H11O+
160.0515	6	C10H8O2+
160.0841	6	C10[13]CH11O+
161.0605	109	C10H9O2+
161.0966	16	C11H13O+
162.0647	12	C9[13]CH9O2+
163.0758	9	C10H11O2+
165.0706	212	C13H9+
166.0762	42	C12[13]CH9+
167.0861	99	C13H11+
168.0576	30	C12H8O+
168.0907	15	C12[13]CH11+
169.0655	47	C12H9O+
170.0723	17	C12H10O+
171.0812	702	C12H11O+
172.0521	23	C11H8O2+
172.0847	65	C11[13]CH11O+
173.0968	137	C12H13O+
174.0678	11	C11H10O2+
174.1	13	C11[13]CH13O+
175.0757	22	C11H11O2+
176.0627	9	C14H8+
176.0814	4	C11H12O2+
177.0705	36	C14H9+
178.077	18	C14H10+
179.0847	6	C14H11+
181.0656	41	C13H9O+
182.0725	30	C13H10O+
183.0446	20	C12H7O2+
183.0813	143	C13H11O+
184.0522	34	C12H8O2+
184.0876	41	C13H12O+
185.0602	38	C12H9O2+
185.0961	31	C13H13O+
186.0678	45	C12H10O2+
187.076	47	C12H11O2+
188.0808	8	C11[13]CH11O2+
189.0917	39	C12H13O2+
190.0947	5	C11[13]CH13O2+
193.0662	23	C14H9O+
193.1023	5	C15H13+
194.0734	34	C14H10O+
195.0813	76	C14H11O+
196.0882	39	C14H12O+
197.0602	28	C13H9O2+
197.0959	19	C14H13O+
198.0683	44	C13H10O2+
199.0764	999	C13H11O2+
200.0802	109	C12[13]CH11O2+
201.092	162	C13H13O2+
202.0952	20	C12[13]CH13O2+
209.0969	8	C15H13O+
210.0687	9	C14H10O2+
211.0758	23	C14H11O2+
212.0841	28	C14H12O2+
213.0911	19	C14H13O2+
214.0633	10	C13H10O3+
214.0965	5	C14H14O2+
215.1073	9	C14H15O2+
217.1223	6	C14H17O2+
225.0921	31	C15H13O2+
226.0958	8	C14[13]CH13O2+
227.1079	60	C15H15O2+
228.1099	12	C14[13]CH15O2+
243.1024	15	C15H15O3+
245.1187	13	C18H15N+
302.1771	19	C18H24NO3+
