Mass spectrum: Acamprosate; LC-ESI-QTOF; MS2; HILIC; CE: 10 eV; R=35000; [M+H]+
Name: Acamprosate
Name: 3-acetamidopropane-1-sulfonic acid
Formula: C5H11NO4S
Exact mass: 181.0408788
SMILES: C/C(=N/CCCS(=O)(=O)O)/O
InChI: InChI=1S/C5H11NO4S/c1-5(7)6-3-2-4-11(8,9)10/h2-4H2,1H3,(H,6,7)(H,8,9,10)
Instrument: Bruker maXis Impact
Instrument type: LC-ESI-QTOF
Ms type: MS2
Ion mode: POSITIVE
Ionization: ESI
Fragmentation mode: CID
Collision energy: 10 eV
Resolution: 35000
Column name: ACQUITY  UPLC BEH Amide 1.7 um 2.1x100mm, Waters
Retention time: 5.779 min
Base peak: 182.0491
Precursor m/z: 182.0482
Precursor type: [M+H]+
m/z	relative intensity	assigned
122.0278	5	C3H8NO2S+
123.0119	29	C3H7O3S+
140.0382	999	C3H10NO3S+
141.0409	27	C2[13]CH10NO3S+
142.0337	27	C3H10NO3[34]S+
182.0486	362	C5H12NO4S+
183.0518	23	C4[13]CH12NO4S+
184.0452	11	C5H12NO4[34]S+
