Mass spectrum: Dihydrocodeine; LC-ESI-QTOF; MS2; HILIC; CE: 30 eV; R=35000; [M+H]+
Name: Dihydrocodeine
Name: (4R,4aR,7S,7aR,12bS)-9-methoxy-3-methyl-2,4,4a,5,6,7,7a,13-octahydro-1H-4,12-methanobenzofuro[3,2-e]isoquinoline-7-ol
Formula: C18H23NO3
Exact mass: 301.1677936
SMILES: CN1CC[C@]23c4c5ccc(c4O[C@H]2[C@H](CC[C@H]3[C@H]1C5)O)OC
InChI: InChI=1S/C18H23NO3/c1-19-8-7-18-11-4-5-13(20)17(18)22-16-14(21-2)6-3-10(15(16)18)9-12(11)19/h3,6,11-13,17,20H,4-5,7-9H2,1-2H3/t11-,12+,13-,17-,18-/m0/s1
Instrument: Bruker maXis Impact
Instrument type: LC-ESI-QTOF
Ms type: MS2
Ion mode: POSITIVE
Ionization: ESI
Fragmentation mode: CID
Collision energy: 30 eV
Resolution: 35000
Column name: ACQUITY UPLC BEH Amide 1.7 um 2.1x100 mm, Waters
Retention time: 6.582 min
Base peak: 302.1789
Precursor m/z: 302.1751
Precursor type: [M+H]+
m/z	relative intensity	assigned
137.0602	14	C8H9O2+
157.0656	6	C11H9O+
158.0729	6	C11H10O+
161.0603	11	C10H9O2+
163.0757	7	C10H11O2+
165.0703	5	C13H9+
167.0864	12	C13H11+
169.0654	5	C12H9O+
171.0811	22	C12H11O+
173.0968	16	C12H13O+
175.0761	8	C11H11O2+
181.0656	7	C13H9O+
183.0815	37	C13H11O+
184.0868	6	C12[13]CH11O+
185.097	19	C13H13O+
187.0762	15	C12H11O2+
189.0922	34	C12H13O2+
195.0816	55	C14H11O+
196.0868	12	C13[13]CH11O+
197.0959	5	C14H13O+
199.0767	271	C13H11O2+
199.1132	17	C14H15O+
200.0799	27	C12[13]CH11O2+
201.0923	180	C13H13O2+
202.0955	20	C12[13]CH13O2+
209.0973	9	C15H13O+
211.0764	13	C14H11O2+
212.0829	6	C14H12O2+
213.0924	28	C14H13O2+
214.0961	5	C13[13]CH13O2+
215.1075	8	C14H15O2+
217.1235	32	C14H17O2+
218.1261	5	C13[13]CH17O2+
225.092	16	C15H13O2+
227.1083	126	C15H15O2+
228.1112	18	C14[13]CH15O2+
241.1233	6	C16H17O2+
243.1034	60	C18H13N+
244.1065	8	C17[13]CH13N+
245.1192	195	C18H15N+
246.1224	24	C17[13]CH15N+
253.1237	8	C17H17O2+
269.1429	6	C17H19NO2+
274.1454	5	C16H20NO3+
284.1663	21	C18H22NO2+
302.1783	999	C18H24NO3+
303.1808	256	C17[13]CH24NO3+
304.1837	18	C16[13]C2H24NO3+
