Mass spectrum: Ritonavir; LC-ESI-QTOF; MS2; CE: 50 eV; R=35000; [M+Na]+
Name: Ritonavir
Name: 1,3-thiazol-5-ylmethyl N-[(2S,3S,5S)-3-hydroxy-5-[[(2S)-3-methyl-2-[[methyl-[(2-propan-2-yl-1,3-thiazol-4-yl)methyl]carbamoyl]amino]butanoyl]amino]-1,6-diphenylhexan-2-yl]carbamate
Formula: C37H48N6O5S2
Exact mass: 720.3127606
SMILES: CC(C)c1nc(cs1)CN(C)/C(=N\[C@@H](C(C)C)/C(=N\[C@@H](Cc2ccccc2)C[C@@H]([C@H](Cc3ccccc3)/N=C(\O)/OCc4cncs4)O)/O)/O
InChI: InChI=1S/C37H48N6O5S2/c1-24(2)33(42-36(46)43(5)20-29-22-49-35(40-29)25(3)4)34(45)39-28(16-26-12-8-6-9-13-26)18-32(44)31(17-27-14-10-7-11-15-27)41-37(47)48-21-30-19-38-23-50-30/h6-15,19,22-25,28,31-33,44H,16-18,20-21H2,1-5H3,(H,39,45)(H,41,47)(H,42,46)/t28-,31-,32-,33-/m0/s1
Instrument: Bruker maXis Impact
Instrument type: LC-ESI-QTOF
Ms type: MS2
Ionization: ESI
Ion mode: POSITIVE
Fragmentation mode: CID
Collision energy: 50 eV
Resolution: 35000
Column name: Acclaim RSLC C18 2.2um, 2.1x100mm, Thermo
Retention time: 11.001 min
Base peak: 721.3227
Precursor m/z: 743.302
Precursor type: [M+Na]+
m/z	relative intensity	assigned
193.0797	23	C4H14N2NaO5+
458.2057	54	C25H34N2O2S2+
529.2298	69	C27H32N5NaO5+
530.2297	36	C31H36N3OS2+
573.2185	999	C34H34N2NaO3S+
574.218	286	C30H34N6O2S2+
575.2192	102	C29[13]CH34N6O2S2+
628.2972	27	C37H44N2O5S+
743.3086	396	C37H48N6NaO5S2+
744.3098	208	C36[13]CH48N6NaO5S2+
