Mass spectrum: Dihydrocodeine; LC-ESI-QTOF; MS2; HILIC; CE: 40 eV; R=35000; [M+H]+
Name: Dihydrocodeine
Name: (4R,4aR,7S,7aR,12bS)-9-methoxy-3-methyl-2,4,4a,5,6,7,7a,13-octahydro-1H-4,12-methanobenzofuro[3,2-e]isoquinoline-7-ol
Formula: C18H23NO3
Exact mass: 301.1677936
SMILES: CN1CC[C@]23c4c5ccc(c4O[C@H]2[C@H](CC[C@H]3[C@H]1C5)O)OC
InChI: InChI=1S/C18H23NO3/c1-19-8-7-18-11-4-5-13(20)17(18)22-16-14(21-2)6-3-10(15(16)18)9-12(11)19/h3,6,11-13,17,20H,4-5,7-9H2,1-2H3/t11-,12+,13-,17-,18-/m0/s1
Instrument: Bruker maXis Impact
Instrument type: LC-ESI-QTOF
Ms type: MS2
Ion mode: POSITIVE
Ionization: ESI
Fragmentation mode: CID
Collision energy: 40 eV
Resolution: 35000
Column name: ACQUITY UPLC BEH Amide 1.7 um 2.1x100mm, Waters
Retention time: 6.545 min
Base peak: 302.179
Precursor m/z: 302.1751
Precursor type: [M+H]+
m/z	relative intensity	assigned
115.0549	10	C9H7+
128.0625	23	C10H8+
129.0701	16	C10H9+
131.0497	7	C9H7O+
137.0603	32	C8H9O2+
141.0705	38	C11H9+
142.0759	6	C10[13]CH9+
143.0498	14	C10H7O+
143.0855	6	C11H11+
144.0571	9	C10H8O+
145.0651	8	C10H9O+
152.0625	11	C12H8+
153.0703	16	C12H9+
155.0859	15	C12H11+
156.0575	11	C11H8O+
157.0653	30	C11H9O+
157.1021	7	C12H13+
158.0732	62	C11H10O+
159.0801	18	C11H11O+
161.0603	53	C10H9O2+
161.0966	9	C11H13O+
162.0647	6	C9[13]CH9O2+
163.0759	15	C10H11O2+
165.0709	45	C13H9+
166.0764	10	C12[13]CH9+
167.0864	59	C13H11+
168.057	5	C12H8O+
168.0904	8	C12[13]CH11+
169.0655	21	C12H9O+
170.0722	5	C12H10O+
171.0814	189	C12H11O+
172.0523	5	C11H8O2+
172.0848	19	C11[13]CH11O+
173.0969	86	C12H13O+
174.1	10	C11[13]CH13O+
175.0759	21	C11H11O2+
177.0707	17	C14H9+
178.0771	6	C14H10+
181.0653	22	C13H9O+
182.0725	9	C13H10O+
183.0815	128	C13H11O+
184.0874	29	C12[13]CH11O+
185.0605	15	C12H9O2+
185.0968	44	C13H13O+
186.0683	26	C12H10O2+
186.1001	5	C12[13]CH13O+
187.0762	41	C12H11O2+
188.0807	6	C11[13]CH11O2+
189.0922	71	C12H13O2+
190.0949	9	C11[13]CH13O2+
193.0659	14	C14H9O+
193.1026	6	C15H13+
194.073	12	C14H10O+
195.0816	112	C14H11O+
196.0878	38	C14H12O+
197.0605	8	C13H9O2+
197.0961	17	C14H13O+
198.0685	19	C13H10O2+
199.0766	999	C13H11O2+
200.0804	99	C12[13]CH11O2+
200.1165	5	C14H16O+
201.0921	333	C13H13O2+
202.0955	34	C13H14O2+
203.1057	6	C12[13]CH14O2+
209.0971	14	C15H13O+
211.0763	28	C14H11O2+
212.0839	22	C14H12O2+
213.0918	37	C14H13O2+
214.0631	5	C13H10O3+
214.0974	7	C13[13]CH13O2+
215.1075	14	C14H15O2+
217.1231	26	C14H17O2+
221.097	8	C16H13O+
222.1043	5	C16H14O+
225.0925	38	C15H13O2+
226.0968	7	C14[13]CH13O2+
227.1082	164	C15H15O2+
228.111	23	C14[13]CH15O2+
241.1225	5	C16H17O2+
243.1031	54	C18H13N+
244.1061	8	C17[13]CH13N+
245.1189	93	C18H15N+
246.1219	14	C17[13]CH15N+
253.1237	7	C17H17O2+
269.1422	9	C17H19NO2+
274.146	7	C16H20NO3+
284.1663	14	C18H22NO2+
302.1775	295	C18H24NO3+
303.1807	46	C17[13]CH24NO3+
