Mass spectrum: Roxithromycin; LC-ESI-QTOF; MS2; HILIC; CE: 40 eV; R=35000; [M+H]+
Name: Roxithromycin
Name: (3R,4S,5S,6R,7R,9R,10E,11S,12R,13S,14R)-6-[(2S,3R,4S,6R)-4-(dimethylamino)-3-hydroxy-6-methyloxan-2-yl]oxy-14-ethyl-7,12,13-trihydroxy-4-[(2R,4R,5S,6S)-5-hydroxy-4-methoxy-4,6-dimethyloxan-2-yl]oxy-10-(2-methoxyethoxymethoxyimino)-3,5,7,9,11,13-hexamethyl-oxacyclotetradecan-2-one
Formula: C41H76N2O15
Exact mass: 836.5245697
SMILES: CC[C@@H]1[C@@]([C@@H]([C@H](/C(=N/OCOCCOC)/[C@@H](C[C@@]([C@@H]([C@H]([C@@H]([C@H](C(=O)O1)C)O[C@H]2C[C@@]([C@H]([C@@H](O2)C)O)(C)OC)C)O[C@H]3[C@@H]([C@H](C[C@H](O3)C)N(C)C)O)(C)O)C)C)O)(C)O
InChI: InChI=1S/C41H76N2O15/c1-15-29-41(10,49)34(45)24(4)31(42-53-21-52-17-16-50-13)22(2)19-39(8,48)36(58-38-32(44)28(43(11)12)18-23(3)54-38)25(5)33(26(6)37(47)56-29)57-30-20-40(9,51-14)35(46)27(7)55-30/h22-30,32-36,38,44-46,48-49H,15-21H2,1-14H3/b42-31+/t22-,23-,24+,25+,26-,27+,28+,29-,30+,32-,33+,34-,35+,36-,38+,39-,40-,41-/m1/s1
Instrument: Bruker maXis Impact
Instrument type: LC-ESI-QTOF
Ms type: MS2
Ion mode: POSITIVE
Ionization: ESI
Fragmentation mode: CID
Collision energy: 40 eV
Resolution: 35000
Column name: ACQUITY UPLC BEH Amide 1.7 um 2.1x100mm, Waters
Retention time: 6.180 min
Base peak: 837.5405
Precursor m/z: 837.5318
Precursor type: [M+H]+
m/z	relative intensity	assigned
116.0716	16	C5H10NO2+
116.1081	42	C6H14NO+
127.0763	13	C7H11O2+
158.1191	999	C8H16NO2+
159.122	112	C5H19O5+
160.1239	5	C4[13]CH19O5+
176.129	5	C8H18NO3+
246.1715	5	C15H22N2O+
380.2468	7	C11H40O13+
398.2573	18	C11H42O14+
416.2677	7	C11H44O15+
446.2798	7	C15H44NO13+
522.3363	28	C36H44NO2+
523.3392	9	C35[13]CH44NO2+
540.3583	8	C22H54NO13+
555.3698	10	C22H55N2O13+
558.3694	17	C22H56NO14+
559.372	5	C21[13]CH56NO14+
573.3798	8	C22H57N2O14+
603.3914	13	C38H53NO5+
604.3937	5	C37[13]CH53NO5+
661.433	12	C41H59NO6+
662.4372	5	C40[13]CH59NO6+
679.4453	171	C41H61NO7+
680.4481	63	C38H64O10+
681.4512	11	C37[13]CH64O10+
