Mass spectrum: Prednisone; LC-ESI-QTOF; MS2; HILIC; CE: 30 eV; R=35000; [M+H]+
Name: Prednisone
Name: (8S,9S,10R,13S,14S,17R)-17-hydroxy-17-(2-hydroxyacetyl)-10,13-dimethyl-6,7,8,9,12,14,15,16-octahydrocyclopenta[a]phenanthrene-3,11-dione
Formula: C21H26O5
Exact mass: 358.1780239
SMILES: C[C@]12CC(=O)[C@H]3[C@H]([C@@H]1CC[C@@]2(C(=O)CO)O)CCC4=CC(=O)C=C[C@]34C
InChI: InChI=1S/C21H26O5/c1-19-7-5-13(23)9-12(19)3-4-14-15-6-8-21(26,17(25)11-22)20(15,2)10-16(24)18(14)19/h5,7,9,14-15,18,22,26H,3-4,6,8,10-11H2,1-2H3/t14-,15-,18+,19-,20-,21-/m0/s1
Instrument: Bruker maXis Impact
Instrument type: LC-ESI-QTOF
Ms type: MS2
Ion mode: POSITIVE
Ionization: ESI
Fragmentation mode: CID
Collision energy: 30 eV
Resolution: 35000
Column name: ACQUITY UPLC BEH Amide 1.7 um 2.1x100 mm, Waters
Retention time: 1.716 min
Base peak: 372.2259
Precursor m/z: 359.1853
Precursor type: [M+H]+
m/z	relative intensity	assigned
119.0856	65	C9H11+
121.0653	138	C8H9O+
123.0818	52	C8H11O+
133.0661	66	C9H9O+
135.0809	362	C9H11O+
137.0616	55	C8H9O2+
139.0759	57	C8H11O2+
143.086	52	C11H11+
145.0657	79	C10H9O+
146.0702	53	C10H10O+
147.0805	999	C10H11O+
148.0862	132	C9[13]CH11O+
153.0916	57	C9H13O2+
158.0737	91	C11H10O+
159.0809	499	C11H11O+
160.0857	76	C11H12O+
161.0961	278	C11H13O+
163.0762	138	C10H11O2+
169.1022	53	C13H13+
171.0804	678	C12H11O+
172.0841	124	C12H12O+
173.0963	426	C12H13O+
174.1006	65	C12H14O+
177.0941	72	C11H13O2+
179.0852	74	C14H11+
182.0742	61	C13H10O+
183.0807	173	C13H11O+
183.1043	65	C10H15O3+
185.0962	185	C13H13O+
186.1031	77	C13H14O+
187.077	183	C12H11O2+
187.1118	343	C13H15O+
189.0923	63	C12H13O2+
197.0973	477	C14H13O+
198.1007	92	C14H14O+
199.1133	240	C14H15O+
200.1178	57	C14H16O+
208.0886	104	C15H12O+
209.0971	189	C15H13O+
210.1005	73	C15H14O+
211.1129	265	C15H15O+
212.1169	120	C15H16O+
213.1266	163	C15H17O+
215.108	103	C14H15O2+
219.1194	58	C17H15+
221.0992	146	C16H13O+
222.1038	263	C16H14O+
223.1124	307	C16H15O+
224.1209	107	C16H16O+
225.1276	279	C16H17O+
227.1067	54	C15H15O2+
227.1432	192	C16H19O+
234.1052	69	C17H14O+
235.1118	241	C17H15O+
236.1182	63	C17H16O+
237.129	793	C17H17O+
238.0989	64	C16H14O2+
238.1351	207	C16[13]CH17O+
239.1087	84	C16H15O2+
239.144	335	C17H19O+
240.1478	70	C17H20O+
247.1109	58	C18H15O+
248.1209	160	C18H16O+
249.1288	316	C18H17O+
251.1432	139	C18H19O+
253.124	197	C17H17O2+
253.1609	116	C18H21O+
254.1265	94	C17H18O2+
255.1392	221	C17H19O2+
256.1414	53	C17H20O2+
261.1281	103	C19H17O+
262.1361	111	C19H18O+
263.1432	404	C19H19O+
264.1508	258	C19H20O+
265.1609	504	C19H21O+
266.163	112	C18[13]CH21O+
267.1385	206	C18H19O2+
267.1748	90	C19H23O+
275.148	77	C20H19O+
277.1607	255	C20H21O+
278.1633	79	C20H22O+
279.1385	74	C19H19O2+
281.1563	148	C19H21O2+
282.1597	57	C19H22O2+
283.1663	70	C19H23O2+
287.1429	119	C21H19O+
292.1434	52	C20H20O2+
293.155	175	C20H21O2+
295.1722	181	C20H23O2+
296.1811	74	C20H24O2+
297.1482	65	C19H21O3+
305.1535	128	C21H21O2+
313.1848	112	C20H25O3+
323.1649	121	C21H23O3+
341.1807	114	C21H25O4+
