Mass spectrum: Atazanavir; LC-ESI-QTOF; MS2; CE: 40 eV; R=35000; [M+Na]+
Name: Atazanavir
Name: methyl N-[(2S)-1-[2-[(2S,3S)-2-hydroxy-3-[[(2S)-2-(methoxycarbonylamino)-3,3-dimethylbutanoyl]amino]-4-phenylbutyl]-2-[(4-pyridin-2-ylphenyl)methyl]hydrazinyl]-3,3-dimethyl-1-oxobutan-2-yl]carbamate
Formula: C38H52N6O7
Exact mass: 704.3897480
SMILES: CC(C)(C)[C@@H](C(=O)N[C@@H](Cc1ccccc1)[C@H](CN(Cc2ccc(cc2)c3ccccn3)NC(=O)[C@H](C(C)(C)C)NC(=O)OC)O)NC(=O)OC
InChI: InChI=1S/C38H52N6O7/c1-37(2,3)31(41-35(48)50-7)33(46)40-29(22-25-14-10-9-11-15-25)30(45)24-44(43-34(47)32(38(4,5)6)42-36(49)51-8)23-26-17-19-27(20-18-26)28-16-12-13-21-39-28/h9-21,29-32,45H,22-24H2,1-8H3,(H,40,46)(H,41,48)(H,42,49)(H,43,47)/t29-,30-,31+,32+/m0/s1
Instrument: Bruker maXis Impact
Instrument type: LC-ESI-QTOF
Ms type: MS2
Ionization: ESI
Ion mode: POSITIVE
Fragmentation mode: CID
Collision energy: 40 eV
Resolution: 35000
Column name: Acclaim RSLC C18 2.2um, 2.1x100mm, Thermo
Retention time: 10.799 min
Base peak: 705.4008
Precursor m/z: 727.379
Precursor type: [M+Na]+
m/z	relative intensity	assigned
211.1056	102	C8H16N2NaO3+
238.1161	119	C8H18N2O6+
253.1161	183	C10H18N2NaO4+
254.1188	38	C5H19N4NaO6+
343.1654	654	C19H23N2O4+
344.169	183	C18[13]CH23N2O4+
345.1701	31	C21H24NNaO2+
372.1926	74	C22H28O5+
541.2795	336	C32H40NNaO5+
542.2879	134	C31[13]CH40NNaO5+
559.3022	48	C31H42N3NaO5+
695.3571	29	C38H50N5NaO6+
695.3788	27	C38H50N5NaO6+
727.3845	999	C38H52N6NaO7+
728.385	467	C37[13]CH52N6NaO7+
729.3862	102	C36[13]C2H52N6NaO7+
