Mass spectrum: Prednisone; LC-ESI-QTOF; MS2; HILIC; CE: 20 eV; R=35000; [M+H]+
Name: Prednisone
Name: (8S,9S,10R,13S,14S,17R)-17-hydroxy-17-(2-hydroxyacetyl)-10,13-dimethyl-6,7,8,9,12,14,15,16-octahydrocyclopenta[a]phenanthrene-3,11-dione
Formula: C21H26O5
Exact mass: 358.1780239
SMILES: C[C@]12CC(=O)[C@H]3[C@H]([C@@H]1CC[C@@]2(C(=O)CO)O)CCC4=CC(=O)C=C[C@]34C
InChI: InChI=1S/C21H26O5/c1-19-7-5-13(23)9-12(19)3-4-14-15-6-8-21(26,17(25)11-22)20(15,2)10-16(24)18(14)19/h5,7,9,14-15,18,22,26H,3-4,6,8,10-11H2,1-2H3/t14-,15-,18+,19-,20-,21-/m0/s1
Instrument: Bruker maXis Impact
Instrument type: LC-ESI-QTOF
Ms type: MS2
Ion mode: POSITIVE
Ionization: ESI
Fragmentation mode: CID
Collision energy: 20 eV
Resolution: 35000
Column name: ACQUITY UPLC BEH Amide 1.7 um 2.1x100 mm, Waters
Retention time: 1.729 min
Base peak: 416.2526
Precursor m/z: 359.1853
Precursor type: [M+H]+
m/z	relative intensity	assigned
121.0654	81	C8H9O+
123.0818	57	C8H11O+
135.0812	293	C9H11O+
137.0952	98	C9H13O+
139.0759	67	C8H11O2+
147.081	829	C10H11O+
148.0852	104	C10H12O+
153.0901	140	C9H13O2+
159.0812	220	C11H11O+
161.0971	260	C11H13O+
163.0762	104	C10H11O2+
171.0814	459	C12H11O+
173.0982	223	C12H13O+
181.0862	110	C10H13O3+
183.1019	127	C10H15O3+
185.0976	85	C13H13O+
187.0772	165	C12H11O2+
187.1131	183	C13H15O+
189.0912	83	C12H13O2+
197.0975	348	C14H13O+
199.1133	257	C14H15O+
209.0978	150	C15H13O+
211.114	111	C15H15O+
213.0923	61	C14H13O2+
213.1303	137	C15H17O+
215.1064	76	C14H15O2+
221.0962	112	C16H13O+
223.111	105	C16H15O+
224.119	71	C16H16O+
225.1298	128	C16H17O+
227.1077	77	C15H15O2+
227.1437	153	C16H19O+
235.1114	159	C17H15O+
237.1284	584	C17H17O+
238.1329	168	C16[13]CH17O+
239.1068	119	C16H15O2+
239.1438	183	C17H19O+
240.1453	57	C17H20O+
241.1241	69	C16H17O2+
249.1284	76	C18H17O+
251.1417	107	C18H19O+
253.1243	256	C17H17O2+
253.1599	147	C18H21O+
254.1646	67	C18H22O+
255.1407	320	C17H19O2+
256.1426	82	C17H20O2+
261.1273	166	C19H17O+
262.1331	113	C19H18O+
263.145	493	C19H19O+
264.1503	189	C19H20O+
265.1238	61	C18H17O2+
265.1604	703	C19H21O+
266.1644	164	C18[13]CH21O+
267.1391	556	C18H19O2+
267.1793	84	C19H23O+
268.1432	183	C17[13]CH19O2+
275.1441	85	C20H19O+
277.1598	425	C20H21O+
278.1643	113	C20H22O+
279.1406	64	C19H19O2+
281.1543	275	C19H21O2+
283.1701	196	C19H23O2+
284.1721	76	C19H24O2+
287.1451	217	C21H19O+
288.1464	94	C21H20O+
293.1564	275	C20H21O2+
294.156	69	C20H22O2+
295.1712	694	C20H23O2+
296.1769	177	C19[13]CH23O2+
297.1523	140	C19H21O3+
305.1561	419	C21H21O2+
306.1615	159	C21H22O2+
311.1665	111	C20H23O3+
312.1698	58	C20H24O3+
313.1821	695	C20H25O3+
314.186	168	C19[13]CH25O3+
323.1669	667	C21H23O3+
324.1707	189	C20[13]CH23O3+
341.1776	999	C21H25O4+
342.1823	186	C20[13]CH25O4+
359.191	283	C21H27O5+
