Mass spectrum: Nordeprenyl; LC-ESI-QTOF; MS2; CE: 30 eV; R=35000; [M+H]+
Name: Nordeprenyl
Name: Desmethylselegiline
Name: 1-phenyl-N-prop-2-ynylpropan-2-amine
Formula: C12H15N
Exact mass: 173.1204495
SMILES: CC(CC1=CC=CC=C1)NCC#C
InChI: InChI=1S/C12H15N/c1-3-9-13-11(2)10-12-7-5-4-6-8-12/h1,4-8,11,13H,9-10H2,2H3
Instrument: Bruker maXis Impact
Instrument type: LC-ESI-QTOF
Ms type: MS2
Ion mode: POSITIVE
Ionization: ESI
Fragmentation mode: CID
Collision energy: 30 eV
Resolution: 35000
Column name: Acclaim RSLC C18 2.2um, 2.1x100mm, Thermo
Retention time: 4.6 min
Base peak: 174.127
Precursor m/z: 174.1277
Precursor type: [M+H]+
m/z	relative intensity	assigned
115.0545	589	C9H7+
119.085	999	C9H11+
