Mass spectrum: Darunavir; LC-ESI-QTOF; MS2; HILIC; CE: 40 eV; R=35000; [M+H]+
Name: Darunavir
Name: [(3aS,4R,6aR)-2,3,3a,4,5,6a-hexahydrofuro[2,3-b]furan-4-yl] N-[(2S,3R)-4-[(4-aminophenyl)sulfonyl-(2-methylpropyl)amino]-3-hydroxy-1-phenylbutan-2-yl]carbamate
Formula: C27H37N3O7S
Exact mass: 547.2352215
SMILES: CC(C)CN(C[C@H]([C@H](Cc1ccccc1)NC(=O)O[C@H]2CO[C@@H]3[C@H]2CCO3)O)S(=O)(=O)c4ccc(cc4)N
InChI: InChI=1S/C27H37N3O7S/c1-18(2)15-30(38(33,34)21-10-8-20(28)9-11-21)16-24(31)23(14-19-6-4-3-5-7-19)29-27(32)37-25-17-36-26-22(25)12-13-35-26/h3-11,18,22-26,31H,12-17,28H2,1-2H3,(H,29,32)/t22-,23-,24+,25-,26+/m0/s1
Instrument: Bruker maXis Impact
Instrument type: LC-ESI-QTOF
Ms type: MS2
Ion mode: POSITIVE
Ionization: ESI
Fragmentation mode: CID
Collision energy: 40 eV
Resolution: 35000
Column name: ACQUITY UPLC BEH Amide 1.7 um 2.1x100mm, Waters
Retention time: 1.465 min
Base peak: 183.0795
Precursor m/z: 548.2425
Precursor type: [M+H]+
m/z	relative intensity	assigned
120.0814	38	C2H16O3S+
127.1241	14	CH21NO3S+
129.0708	48	C10H9+
131.0858	10	C10H11+
133.0872	5	CH15N3O2S+
134.0967	17	C9H12N+
140.0172	8	C6H6NOS+
144.0814	10	C4H16O3S+
146.097	44	C4H18O3S+
156.0121	999	C6H6NO2S+
157.0149	72	C5[13]CH6NO2S+
158.0984	16	C5H18O3S+
164.0696	5	CH14N3O4S+
164.1077	34	C4H20O4S+
189.1033	12	C5H19NO4S+
200.1449	58	C2H22N3O7+
201.1508	23	C6H23N3O2S+
202.1601	92	C8H26O3S+
208.0994	7	C14H12N2+
216.1377	8	C6H22N3O3S+
217.1718	10	C8H27NO3S+
218.1552	14	C8H26O4S+
218.1768	11	C14H22N2+
219.1844	12	C5H31O6S+
220.1706	29	C8H28O4S+
229.1023	5	C6H17N2O7+
237.1969	37	C8H31NO4S+
238.2015	6	C11H28NO4+
241.1024	189	C7H17N2O7+
243.0981	10	C10H15N2O5+
245.1667	31	C9H27NO4S+
246.1692	9	C4H28N3O6S+
247.2069	7	C12H29N3S+
250.1788	12	C7H28N3O4S+
261.1621	10	C12H25N2O2S+
263.1765	24	C9H29NO5S+
271.1121	8	C20H15O+
281.1918	6	C15H27N3S+
319.2475	6	C17H35O5+
320.2574	10	C12H38N3O4S+
321.2535	17	C19H33N2O2+
336.1419	5	C21H22NOS+
357.1674	12	C25H25S+
392.2024	84	C22H32O4S+
393.207	27	C21[13]CH32O4S+
393.2379	5	C21H33N2O5+
394.1994	10	C21H30O7+
