Mass spectrum: Darunavir; LC-ESI-QTOF; MS2; HILIC; CE: 30 eV; R=35000; [M+H]+
Name: Darunavir
Name: [(3aS,4R,6aR)-2,3,3a,4,5,6a-hexahydrofuro[2,3-b]furan-4-yl] N-[(2S,3R)-4-[(4-aminophenyl)sulfonyl-(2-methylpropyl)amino]-3-hydroxy-1-phenylbutan-2-yl]carbamate
Formula: C27H37N3O7S
Exact mass: 547.2352215
SMILES: CC(C)CN(C[C@H]([C@H](Cc1ccccc1)NC(=O)O[C@H]2CO[C@@H]3[C@H]2CCO3)O)S(=O)(=O)c4ccc(cc4)N
InChI: InChI=1S/C27H37N3O7S/c1-18(2)15-30(38(33,34)21-10-8-20(28)9-11-21)16-24(31)23(14-19-6-4-3-5-7-19)29-27(32)37-25-17-36-26-22(25)12-13-35-26/h3-11,18,22-26,31H,12-17,28H2,1-2H3,(H,29,32)/t22-,23-,24+,25-,26+/m0/s1
Instrument: Bruker maXis Impact
Instrument type: LC-ESI-QTOF
Ms type: MS2
Ion mode: POSITIVE
Ionization: ESI
Fragmentation mode: CID
Collision energy: 30 eV
Resolution: 35000
Column name: ACQUITY UPLC BEH Amide 1.7 um 2.1x100 mm, Waters
Retention time: 1.479 min
Base peak: 183.079
Precursor m/z: 548.2425
Precursor type: [M+H]+
m/z	relative intensity	assigned
113.0605	10	C6H9O2+
120.0811	24	C8H10N+
129.0694	17	C2H13N2O2S+
133.0857	16	C6H13O3+
134.0957	8	CH16N3O2S+
146.0976	33	C4H18O3S+
156.0115	562	C6H6NO2S+
157.0144	55	C5[13]CH6NO2S+
158.0958	5	C3H16N3O2S+
164.1071	58	C10H14NO+
177.1115	9	H21N2O6S+
189.1031	8	C5H19NO4S+
200.1441	46	C8H24O3S+
201.1509	19	C14H19N+
202.1596	72	C8H26O3S+
208.0968	12	C11H14NO3+
216.1394	12	C8H24O4S+
217.1715	18	C8H27NO3S+
218.1538	27	C14H20NO+
218.1778	6	C14H22N2+
219.1588	7	C3H27N2O6S+
219.1856	16	C14H23N2+
220.1699	21	C14H22NO+
220.188	8	C8H28O6+
221.1739	5	C3H29N2O6S+
229.1023	9	C6H17N2O7+
237.1969	25	C8H31NO4S+
238.2013	8	C11H28NO4+
241.1014	498	C19H13+
242.1041	68	C18[13]CH13+
245.1652	81	C9H27NO4S+
250.1789	10	C7H28N3O4S+
255.1182	5	C8H19N2O7+
261.1607	16	C9H27NO5S+
263.1769	14	C9H29NO5S+
271.1114	11	C20H15O+
291.2321	5	C19H31O2+
320.1502	15	C17H22NO5+
320.2563	17	C17H36O5+
321.255	13	C19H33N2O2+
336.1391	6	C18H24O4S+
357.1662	28	C16H25N2O7+
358.1706	8	C20H26N2O2S+
374.1909	15	C22H30O3S+
375.1754	22	C23H25N3S+
376.1874	5	C21H28O6+
392.2033	999	C25H30NOS+
393.2053	237	C17H33N2O6S+
394.2026	70	C18H34O7S+
395.2058	11	C17[13]CH34O7S+
418.1804	17	C23H30O5S+
419.1884	6	C23H31O5S+
