Mass spectrum: Candesartan; LC-ESI-QTOF; MS2; HILIC; CE: 50 eV; R=35000; [M+H]+
Name: Candesartan
Name: 2-ethoxy-3-[[4-[2-(2H-tetrazol-5-yl)phenyl]phenyl]methyl]benzimidazole-4-carboxylic acid
Formula: C24H20N6O3
Exact mass: 440.1596885
SMILES: CCOC1=NC2=CC=CC(C(O)=O)=C2N1CC1=CC=C(C=C1)C1=CC=CC=C1C1=NNN=N1
InChI: InChI=1S/C24H20N6O3/c1-2-33-24-25-20-9-5-8-19(23(31)32)21(20)30(24)14-15-10-12-16(13-11-15)17-6-3-4-7-18(17)22-26-28-29-27-22/h3-13H,2,14H2,1H3,(H,31,32)(H,26,27,28,29)
Instrument: Bruker maXis Impact
Instrument type: LC-ESI-QTOF
Ms type: MS2
Ion mode: POSITIVE
Ionization: ESI
Fragmentation mode: CID
Collision energy: 50 eV
Resolution: 35000
Column name: ACQUITY UPLC BEH Amide 1.7 um 2.1x100mm, Water
Retention time: 2.619 min
Base peak: 441.1706
Precursor m/z: 441.167
Precursor type: [M+H]+
m/z	relative intensity	assigned
115.0552	9	C9H7+
128.0627	5	C10H8+
129.0457	16	C8H5N2+
129.0711	7	C10H9+
133.0405	5	C7H5N2O+
139.0557	5	C11H7+
140.0505	69	C10H6N+
141.0543	7	C9[13]CH6N+
141.0708	14	C11H9+
145.0406	10	C8H5N2O+
147.0572	6	C8H7N2O+
150.0472	8	C12H6+
151.0537	22	C12H7+
152.0629	191	C12H8+
153.0705	302	C12H9+
154.0733	42	C11[13]CH9+
155.0613	6	C10H7N2+
161.0353	174	C8H5N2O2+
162.0378	16	C7[13]CH5N2O2+
163.0551	79	C13H7+
164.0614	34	C13H8+
165.0708	566	C13H9+
166.0749	86	C12[13]CH9+
167.0744	50	C12H9N+
167.0859	78	C13H11+
168.069	15	C11H8N2+
168.0896	10	C12[13]CH11+
169.0664	17	C12H9O+
171.0568	8	C10H7N2O+
173.0352	70	C9H5N2O2+
174.0388	8	C8[13]CH5N2O2+
176.0629	17	C14H8+
177.0586	86	C13H7N+
178.0788	592	C14H10+
179.0456	76	C8H7N2O3+
179.0791	121	C13[13]CH10+
180.082	999	C13H10N+
181.085	148	C8H11N3O2+
182.0874	10	C7[13]CH11N3O2+
189.0665	63	C10H9N2O2+
190.0665	827	C14H8N+
191.0733	421	C14H9N+
192.0807	495	C14H10N+
193.0891	286	C14H11N+
194.0973	282	C14H12N+
195.1009	43	C13[13]CH12N+
196.0771	32	C13H10NO+
197.0806	6	C12[13]CH10NO+
203.0746	13	C15H9N+
205.0773	323	C14H9N2+
206.0852	572	C14H10N2+
207.0931	981	C14H11N2+
208.0784	35	C14H10NO+
208.0965	133	C11H14NO3+
208.1106	44	C12H16O3+
209.0822	11	C12H9N4+
209.1039	9	C10[13]CH14NO3+
210.0926	206	C14H12NO+
211.0953	25	C13[13]CH12NO+
216.0824	7	C16H10N+
217.0904	45	C16H11N+
218.0975	40	C16H12N+
219.0936	101	C15H11N2+
220.1002	66	C15H12N2+
221.1047	14	C14[13]CH12N2+
232.1019	8	C16H12N2+
233.0727	8	C15H9N2O+
233.1088	45	C16H13N2+
234.078	5	C13H8N5+
234.1167	97	C16H14N2+
235.1025	5	C16H13NO+
235.1237	85	C16H15N2+
236.1284	16	C15[13]CH15N2+
254.0953	5	C19H12N+
267.1044	6	C20H13N+
279.0922	5	C20H11N2+
281.1077	14	C20H13N2+
282.0947	18	C20H12NO+
282.1147	12	C20H14N2+
283.1213	5	C17H17NO3+
293.0995	8	C22H13O+
294.0796	6	C20H10N2O+
294.1051	11	C22H14O+
295.0886	9	C20H11N2O+
295.1031	5	C15H13N5O2+
296.1153	9	C17H16N2O3+
297.1045	11	C20H13N2O+
306.1063	9	C23H14O+
307.0876	8	C21H11N2O+
307.1103	9	C21H13N3+
308.0966	24	C21H12N2O+
308.1206	56	C23H16O+
309.1048	88	C21H13N2O+
310.1115	40	C21H14N2O+
311.1158	8	C20[13]CH14N2O+
320.1073	5	C23H14NO+
321.0941	12	C23H13O2+
322.0994	31	C23H14O2+
323.1055	17	C21H13N3O+
324.1157	52	C23H16O2+
325.1181	11	C22[13]CH16O2+
333.0946	6	C24H13O2+
334.0984	20	C24H14O2+
335.0849	8	C22H11N2O2+
335.1082	13	C24H15O2+
336.092	7	C22H12N2O2+
337.1013	34	C16H13N6O3+
348.104	22	C24H14NO2+
349.0902	35	C24H13O3+
349.1105	54	C24H15NO2+
350.0942	54	C24H14O3+
351.101	38	C24H15O3+
352.1106	125	C24H16O3+
353.1129	33	C23[13]CH16O3+
365.1062	11	C24H15NO3+
366.1101	5	C22H14N4O2+
