Mass spectrum: Dronedarone; LC-ESI-QTOF; MS2; HILIC; CE: 30 eV; R=35000; [M+H]+
Name: Dronedarone
Name: N-[2-butyl-3-[4-[3-(dibutylamino)propoxy]benzoyl]-1-benzofuran-5-yl]methanesulfonamide
Formula: C31H44N2O5S
Exact mass: 556.2970935
SMILES: CCCCc1c(c2cc(ccc2o1)NS(=O)(=O)C)C(=O)c3ccc(cc3)OCCCN(CCCC)CCCC
InChI: InChI=1S/C31H44N2O5S/c1-5-8-12-29-30(27-23-25(32-39(4,35)36)15-18-28(27)38-29)31(34)24-13-16-26(17-14-24)37-22-11-21-33(19-9-6-2)20-10-7-3/h13-18,23,32H,5-12,19-22H2,1-4H3
Instrument: Bruker maXis Impact
Instrument type: LC-ESI-QTOF
Ms type: MS2
Ion mode: POSITIVE
Ionization: ESI
Fragmentation mode: CID
Collision energy: 30 eV
Resolution: 35000
Column name: ACQUITY UPLC BEH Amide 1.7 um 2.1x100 mm, Waters
Retention time: 5.829 min
Base peak: 557.3104
Precursor m/z: 557.3044
Precursor type: [M+H]+
m/z	relative intensity	assigned
142.1595	28	C3H26O3S+
170.191	31	C5H30O3S+
294.0812	5	C17H14N2OS+
435.2674	85	C24H39N2O3S+
436.2701	17	C23[13]CH39N2O3S+
501.2441	11	C27H37N2O5S+
557.3051	999	C31H45N2O5S+
