Mass spectrum: Ritonavir; LC-ESI-QTOF; MS2; HILIC; CE: 30 eV; R=35000; [M+H]+
Name: Ritonavir
Name: 1,3-thiazol-5-ylmethyl N-[(2S,3S,5S)-3-hydroxy-5-[[(2S)-3-methyl-2-[[methyl-[(2-propan-2-yl-1,3-thiazol-4-yl)methyl]carbamoyl]amino]butanoyl]amino]-1,6-diphenylhexan-2-yl]carbamate
Formula: C37H48N6O5S2
Exact mass: 720.3127606
SMILES: CC(C)c1nc(cs1)CN(C)/C(=N\[C@@H](C(C)C)/C(=N\[C@@H](Cc2ccccc2)C[C@@H]([C@H](Cc3ccccc3)/N=C(\O)/OCc4cncs4)O)/O)/O
InChI: InChI=1S/C37H48N6O5S2/c1-24(2)33(42-36(46)43(5)20-29-22-49-35(40-29)25(3)4)34(45)39-28(16-26-12-8-6-9-13-26)18-32(44)31(17-27-14-10-7-11-15-27)41-37(47)48-21-30-19-38-23-50-30/h6-15,19,22-25,28,31-33,44H,16-18,20-21H2,1-5H3,(H,39,45)(H,41,47)(H,42,46)/t28-,31-,32-,33-/m0/s1
Instrument: Bruker maXis Impact
Instrument type: LC-ESI-QTOF
Ms type: MS2
Ion mode: POSITIVE
Ionization: ESI
Fragmentation mode: CID
Collision energy: 30 eV
Resolution: 35000
Column name: ACQUITY UPLC BEH Amide 1.7 um 2.1x100 mm, Waters
Retention time: 1.615 min
Base peak: 151.0337
Precursor m/z: 721.32
Precursor type: [M+H]+
m/z	relative intensity	assigned
140.0533	49	CH16O3S2+
171.0957	259	C2H21NO3S2+
173.0912	7	C8H15N2[34]S+
197.0752	102	C3H11N5O5+
250.1598	5	C12H26O3S+
268.1496	805	C8H24N6S2+
269.1522	91	C7[13]CH24N6S2+
296.1447	999	C9H24N6OS2+
297.1476	118	C8[13]CH24N6OS2+
311.1783	5	C8H31N4O4S2+
382.1962	7	C24H30O2S+
426.1877	148	C20H32N3O3S2+
427.1905	36	C28H27O4+
428.1883	8	C27[13]CH27O4+
507.2458	18	C25H39N4O3S2+
508.2502	6	C24[13]CH39N4O3S2+
533.2243	5	C32H31N5OS+
