Mass spectrum: Acemetacin; LC-ESI-QTOF; MS2; HILIC; CE: 20 eV; R=35000; [M+H]+
Name: Acemetacin
Name: 2-[2-[1-(4-chlorobenzoyl)-5-methoxy-2-methylindol-3-yl]acetyl]oxyacetic acid
Formula: C21H18ClNO6
Exact mass: 415.0822650
SMILES: Cc1c(c2cc(ccc2n1C(=O)c3ccc(cc3)Cl)OC)CC(=O)OCC(=O)O
InChI: InChI=1S/C21H18ClNO6/c1-12-16(10-20(26)29-11-19(24)25)17-9-15(28-2)7-8-18(17)23(12)21(27)13-3-5-14(22)6-4-13/h3-9H,10-11H2,1-2H3,(H,24,25)
Instrument: Bruker maXis Impact
Instrument type: LC-ESI-QTOF
Ms type: MS2
Ion mode: POSITIVE
Ionization: ESI
Fragmentation mode: CID
Collision energy: 20 eV
Resolution: 35000
Column name: ACQUITY UPLC BEH Amide 1.7 um 2.1x100 mm, Waters
Retention time: 1.766 min
Base peak: 586.2951
Precursor m/z: 416.0895
Precursor type: [M+H]+
m/z	relative intensity	assigned
131.0706	96	C3H14ClNO2+
133.0864	508	C3H16ClNO2+
134.0908	76	ClH19O5+
138.9953	999	C7H4ClO+
140.9923	298	C7H4[37]ClO+
152.1443	361	C10H18N+
161.1171	130	C8H17O3+
174.0924	135	C11H12NO+
175.0964	80	C8H15O4+
177.1129	613	C8H17O4+
178.1163	126	C8H18O4+
205.1083	277	C9H17O5+
221.0152	87	C15H6Cl+
221.1425	100	C13H19NO2+
249.1335	89	C14H19NO3+
312.0808	98	C18H15ClNO2+
416.0911	89	C21H19ClNO6+
