Mass spectrum: Candesartan; LC-ESI-QTOF; MS2; HILIC; CE: 10 eV; R=35000; [M+H]+
Name: Candesartan
Name: 2-ethoxy-3-[[4-[2-(2H-tetrazol-5-yl)phenyl]phenyl]methyl]benzimidazole-4-carboxylic acid
Formula: C24H20N6O3
Exact mass: 440.1596885
SMILES: CCOC1=NC2=CC=CC(C(O)=O)=C2N1CC1=CC=C(C=C1)C1=CC=CC=C1C1=NNN=N1
InChI: InChI=1S/C24H20N6O3/c1-2-33-24-25-20-9-5-8-19(23(31)32)21(20)30(24)14-15-10-12-16(13-11-15)17-6-3-4-7-18(17)22-26-28-29-27-22/h3-13H,2,14H2,1H3,(H,31,32)(H,26,27,28,29)
Instrument: Bruker maXis Impact
Instrument type: LC-ESI-QTOF
Ms type: MS2
Ion mode: POSITIVE
Ionization: ESI
Fragmentation mode: CID
Collision energy: 10 eV
Resolution: 35000
Column name: ACQUITY  UPLC BEH Amide 1.7 um 2.1x100mm, Waters
Retention time: 2.632 min
Base peak: 441.1702
Precursor m/z: 441.167
Precursor type: [M+H]+
m/z	relative intensity	assigned
207.078	5	C13H9N3+
207.0926	25	C14H11N2+
235.0992	19	C16H13NO+
235.124	19	C16H15N2+
263.131	999	C18H17NO+
264.1336	150	C13H18N3O3+
265.137	11	C12[13]CH18N3O3+
338.1071	6	C22H14N2O2+
395.1534	8	C24H19N4O2+
413.1392	6	C22H17N6O3+
413.1638	7	C24H21N4O3+
423.1598	426	C24H19N6O2+
424.1624	111	C24H20N6O2+
425.1652	14	C23[13]CH20N6O2+
441.1706	872	C24H21N6O3+
442.1733	205	C23[13]CH21N6O3+
443.1758	27	C22[13]C2H21N6O3+
