Mass spectrum: Repaglinide; LC-ESI-QTOF; MS2; HILIC; CE: 30 eV; R=35000; [M+H]+
Name: Repaglinide
Name: 2-ethoxy-4-[2-[[(1S)-3-methyl-1-(2-piperidin-1-ylphenyl)butyl]amino]-2-oxoethyl]benzoic acid
Formula: C27H36N2O4
Exact mass: 452.2675076
SMILES: CCOc1cc(ccc1C(=O)O)CC(=O)N[C@@H](CC(C)C)c2ccccc2N3CCCCC3
InChI: InChI=1S/C27H36N2O4/c1-4-33-25-17-20(12-13-22(25)27(31)32)18-26(30)28-23(16-19(2)3)21-10-6-7-11-24(21)29-14-8-5-9-15-29/h6-7,10-13,17,19,23H,4-5,8-9,14-16,18H2,1-3H3,(H,28,30)(H,31,32)/t23-/m0/s1
Instrument: Bruker maXis Impact
Instrument type: LC-ESI-QTOF
Ms type: MS2
Ion mode: POSITIVE
Ionization: ESI
Fragmentation mode: CID
Collision energy: 30 eV
Resolution: 35000
Column name: ACQUITY UPLC BEH Amide 1.7 um 2.1x100 mm, Waters
Retention time: 1.529 min
Base peak: 453.279
Precursor m/z: 453.2748
Precursor type: [M+H]+
m/z	relative intensity	assigned
146.0968	6	C10H12N+
162.1284	871	C11H16N+
163.1318	78	C10[13]CH16N+
174.1283	44	C12H16N+
179.0708	10	C10H11O3+
189.0556	6	C11H9O3+
207.066	15	C11H11O4+
230.194	999	C16H24N+
231.195	723	C13H27O3+
232.1984	31	C12[13]CH27O3+
292.1562	121	C19H20N2O+
293.1594	16	C18[13]CH20N2O+
453.2783	195	C27H37N2O4+
454.2815	49	C26[13]CH37N2O4+
455.2835	6	C25[13]C2H37N2O4+
