Mass spectrum: Dronedarone; LC-ESI-QTOF; MS2; HILIC; CE: 40 eV; R=35000; [M+H]+
Name: Dronedarone
Name: N-[2-butyl-3-[4-[3-(dibutylamino)propoxy]benzoyl]-1-benzofuran-5-yl]methanesulfonamide
Formula: C31H44N2O5S
Exact mass: 556.2970935
SMILES: CCCCc1c(c2cc(ccc2o1)NS(=O)(=O)C)C(=O)c3ccc(cc3)OCCCN(CCCC)CCCC
InChI: InChI=1S/C31H44N2O5S/c1-5-8-12-29-30(27-23-25(32-39(4,35)36)15-18-28(27)38-29)31(34)24-13-16-26(17-14-24)37-22-11-21-33(19-9-6-2)20-10-7-3/h13-18,23,32H,5-12,19-22H2,1-4H3
Instrument: Bruker maXis Impact
Instrument type: LC-ESI-QTOF
Ms type: MS2
Ion mode: POSITIVE
Ionization: ESI
Fragmentation mode: CID
Collision energy: 40 eV
Resolution: 35000
Column name: ACQUITY UPLC BEH Amide 1.7 um 2.1x100mm, Waters
Retention time: 5.843 min
Base peak: 557.3084
Precursor m/z: 557.3044
Precursor type: [M+H]+
m/z	relative intensity	assigned
114.1286	10	CH22O3S+
128.144	25	C2H24O3S+
142.1598	386	C3H26O3S+
161.0604	9	C10H9O2+
170.1914	234	C5H30O3S+
294.0816	91	C17H14N2OS+
295.0846	11	C16[13]CH14N2OS+
309.1376	5	C22H17N2+
310.1454	9	C22H18N2+
324.1618	5	C23H20N2+
336.1611	8	C24H20N2+
379.2043	19	C20H31N2O3S+
388.1247	9	C31H16+
393.2202	6	C21H33N2O3S+
421.2519	7	C23H37N2O3S+
428.1558	5	C26H24N2O2S+
435.2682	782	C24H39N2O3S+
436.2713	199	C27H36N2O3+
437.274	20	C26[13]CH36N2O3+
501.2461	102	C27H37N2O5S+
502.2494	25	C27H38N2O5S+
503.2484	6	C26[13]CH38N2O5S+
557.3148	999	C31H45N2O5S+
