Mass spectrum: Darunavir; LC-ESI-QTOF; MS2; HILIC; CE: 20 eV; R=35000; [M+H]+
Name: Darunavir
Name: [(3aS,4R,6aR)-2,3,3a,4,5,6a-hexahydrofuro[2,3-b]furan-4-yl] N-[(2S,3R)-4-[(4-aminophenyl)sulfonyl-(2-methylpropyl)amino]-3-hydroxy-1-phenylbutan-2-yl]carbamate
Formula: C27H37N3O7S
Exact mass: 547.2352215
SMILES: CC(C)CN(C[C@H]([C@H](Cc1ccccc1)NC(=O)O[C@H]2CO[C@@H]3[C@H]2CCO3)O)S(=O)(=O)c4ccc(cc4)N
InChI: InChI=1S/C27H37N3O7S/c1-18(2)15-30(38(33,34)21-10-8-20(28)9-11-21)16-24(31)23(14-19-6-4-3-5-7-19)29-27(32)37-25-17-36-26-22(25)12-13-35-26/h3-11,18,22-26,31H,12-17,28H2,1-2H3,(H,29,32)/t22-,23-,24+,25-,26+/m0/s1
Instrument: Bruker maXis Impact
Instrument type: LC-ESI-QTOF
Ms type: MS2
Ion mode: POSITIVE
Ionization: ESI
Fragmentation mode: CID
Collision energy: 20 eV
Resolution: 35000
Column name: ACQUITY UPLC BEH Amide 1.7 um 2.1x100 mm, Waters
Retention time: 1.465 min
Base peak: 183.0793
Precursor m/z: 548.2425
Precursor type: [M+H]+
m/z	relative intensity	assigned
113.0601	5	C6H9O2+
156.0117	17	C6H6NO2S+
241.1015	37	C19H13+
245.1656	20	C9H27NO4S+
374.1904	7	C22H30O3S+
392.203	999	C25H30NOS+
393.2051	219	C17H33N2O6S+
394.2029	51	C18H34O7S+
395.2018	6	C17[13]CH34O7S+
418.182	20	C23H30O5S+
419.1838	6	C22[13]CH30O5S+
436.1917	34	C23H32O6S+
437.1927	11	C22[13]CH32O6S+
504.2553	10	C26H38N3O5S+
548.2463	14	C27H38N3O7S+
