Mass spectrum: Atazanavir; LC-ESI-QTOF; MS2; HILIC; CE: 30 eV; R=35000; [M+H]+
Name: Atazanavir
Name: methyl N-[(2S)-1-[2-[(2S,3S)-2-hydroxy-3-[[(2S)-2-(methoxycarbonylamino)-3,3-dimethylbutanoyl]amino]-4-phenylbutyl]-2-[(4-pyridin-2-ylphenyl)methyl]hydrazinyl]-3,3-dimethyl-1-oxobutan-2-yl]carbamate
Formula: C38H52N6O7
Exact mass: 704.3897480
SMILES: CC(C)(C)[C@@H](C(=O)N[C@@H](Cc1ccccc1)[C@H](CN(Cc2ccc(cc2)c3ccccn3)NC(=O)[C@H](C(C)(C)C)NC(=O)OC)O)NC(=O)OC
InChI: InChI=1S/C38H52N6O7/c1-37(2,3)31(41-35(48)50-7)33(46)40-29(22-25-14-10-9-11-15-25)30(45)24-44(43-34(47)32(38(4,5)6)42-36(49)51-8)23-26-17-19-27(20-18-26)28-16-12-13-21-39-28/h9-21,29-32,45H,22-24H2,1-8H3,(H,40,46)(H,41,48)(H,42,49)(H,43,47)/t29-,30-,31+,32+/m0/s1
Instrument: Bruker maXis Impact
Instrument type: LC-ESI-QTOF
Ms type: MS2
Ion mode: POSITIVE
Ionization: ESI
Fragmentation mode: CID
Collision energy: 30 eV
Resolution: 35000
Column name: ACQUITY UPLC BEH Amide 1.7 um 2.1x100 mm, Waters
Retention time: 1.579 min
Base peak: 453.2791
Precursor m/z: 705.397
Precursor type: [M+H]+
m/z	relative intensity	assigned
120.0818	5	C8H10N+
144.1027	24	C7H14NO2+
167.0734	14	C12H9N+
168.0814	387	C12H10N+
169.0854	41	C11[13]CH10N+
170.097	12	C12H12N+
311.1778	14	C24H23+
312.1808	5	C23[13]CH23+
322.1927	8	C22H26O2+
328.1832	7	C10H26N5O7+
335.1991	999	C21H25N3O+
336.2021	186	C15H30NO7+
337.2042	21	C14[13]CH30NO7+
371.2095	24	C22H29NO4+
372.217	6	C21[13]CH29NO4+
397.2269	7	C27H29N2O+
424.2413	18	C19H32N6O5+
434.0749	5	C23H10N6O4+
499.274	29	C35H35N2O+
500.2789	8	C34[13]CH35N2O+
502.282	7	C31H38N2O4+
516.3045	9	C26H40N6O5+
519.3033	6	C26H41N5O6+
520.3169	5	C31H42N3O4+
534.3122	268	C37H42O3+
535.3144	85	C30H41N5O4+
536.3162	14	C29[13]CH41N5O4+
544.2949	5	C34H36N6O+
612.3594	60	C32H48N6O6+
613.3606	26	C33H49N4O7+
614.3601	5	C32[13]CH49N4O7+
673.3769	18	C37H49N6O6+
674.3792	8	C36[13]CH49N6O6+
687.3923	47	C38H51N6O6+
688.3945	22	C38H52N6O6+
689.395	6	C37[13]CH52N6O6+
705.4042	777	C38H53N6O7+
706.4067	376	C37[13]CH53N6O7+
707.4091	75	C36[13]C2H53N6O7+
