Mass spectrum: Cilastatin; LC-ESI-QTOF; MS2; HILIC; CE: 20 eV; R=35000; [M+H]+
Name: Cilastatin
Name: (Z)-7-[(2R)-2-amino-2-carboxyethyl]sulfanyl-2-[[(1S)-2,2-dimethylcyclopropanecarbonyl]amino]hept-2-enoic acid
Formula: C16H26N2O5S
Exact mass: 358.1562429
SMILES: CC1(C[C@@H]1/C(=N/C(=C\CCCCSC[C@@H](C(=O)O)N)/C(=O)O)/O)C
InChI: InChI=1S/C16H26N2O5S/c1-16(2)8-10(16)13(19)18-12(15(22)23)6-4-3-5-7-24-9-11(17)14(20)21/h6,10-11H,3-5,7-9,17H2,1-2H3,(H,18,19)(H,20,21)(H,22,23)/b12-6-/t10-,11+/m1/s1
Instrument: Bruker maXis Impact
Instrument type: LC-ESI-QTOF
Ms type: MS2
Ion mode: POSITIVE
Ionization: ESI
Fragmentation mode: CID
Collision energy: 20 eV
Resolution: 35000
Column name: ACQUITY UPLC BEH Amide 1.7 um 2.1x100 mm, Waters
Retention time: 7.398 min
Base peak: 359.1649
Precursor m/z: 359.1635
Precursor type: [M+H]+
m/z	relative intensity	assigned
130.0697	357	C6H12NS+
156.0856	247	C4H14NO5+
174.0594	219	C7H12NO2S+
200.0733	237	C9H14NO2S+
202.0908	822	C9H16NO2S+
219.118	999	C9H19N2O2S+
238.1439	172	C13H20NO3+
245.0965	213	C10H17N2O3S+
263.1082	420	C15H19O2S+
342.1435	164	C16H24NO5S+
359.1685	371	C16H27N2O5S+
