Mass spectrum: Acemetacin; LC-ESI-QTOF; MS2; HILIC; CE: 30 eV; R=35000; [M+H]+
Name: Acemetacin
Name: 2-[2-[1-(4-chlorobenzoyl)-5-methoxy-2-methylindol-3-yl]acetyl]oxyacetic acid
Formula: C21H18ClNO6
Exact mass: 415.0822650
SMILES: Cc1c(c2cc(ccc2n1C(=O)c3ccc(cc3)Cl)OC)CC(=O)OCC(=O)O
InChI: InChI=1S/C21H18ClNO6/c1-12-16(10-20(26)29-11-19(24)25)17-9-15(28-2)7-8-18(17)23(12)21(27)13-3-5-14(22)6-4-13/h3-9H,10-11H2,1-2H3,(H,24,25)
Instrument: Bruker maXis Impact
Instrument type: LC-ESI-QTOF
Ms type: MS2
Ion mode: POSITIVE
Ionization: ESI
Fragmentation mode: CID
Collision energy: 30 eV
Resolution: 35000
Column name: ACQUITY UPLC BEH Amide 1.7 um 2.1x100 mm, Waters
Retention time: 1.780 min
Base peak: 586.2942
Precursor m/z: 416.0895
Precursor type: [M+H]+
m/z	relative intensity	assigned
128.0691	66	ClH15NO4+
133.0863	168	C3H16ClNO2+
138.9947	999	C7H4ClO+
139.9974	64	C5H2NO4+
140.9915	254	C7H4[37]ClO+
152.1441	324	C10H18N+
174.0918	129	C11H12NO+
177.1124	106	C8H17O4+
197.0717	69	C11H14ClO+
221.0734	73	C13H14ClO+
