Mass spectrum: Prolinamide; LC-ESI-QTOF; MS2; HILIC; CE: 10 eV; R=35000; [M+H]+
Name: Prolinamide
Name: pyrrolidine-2-carboxamide
Formula: C5H10N2O
Exact mass: 114.0793129
SMILES: C1CC(NC1)C(=O)N
InChI: InChI=1S/C5H10N2O/c6-5(8)4-2-1-3-7-4/h4,7H,1-3H2,(H2,6,8)
Instrument: Bruker maXis Impact
Instrument type: LC-ESI-QTOF
Ms type: MS2
Ion mode: POSITIVE
Ionization: ESI
Fragmentation mode: CID
Collision energy: 10 eV
Resolution: 35000
Column name: ACQUITY  UPLC BEH Amide 1.7 um 2.1x100mm, Waters
Retention time: 6.895 min
Base peak: 115.0874
Precursor m/z: 115.0866
Precursor type: [M+H]+
m/z	relative intensity	assigned
115.0872	999	C5H11N2O+
