Mass spectrum: Lovastatin; LC-ESI-QTOF; MS2; HILIC; CE: 20 eV; R=35000; [M+H]+
Name: Lovastatin
Name: [(1S,3R,7S,8S,8aR)-8-[2-[(2R,4R)-4-hydroxy-6-oxooxan-2-yl]ethyl]-3,7-dimethyl-1,2,3,7,8,8a-hexahydronaphthalen-1-yl] (2S)-2-methylbutanoate
Formula: C24H36O5
Exact mass: 404.2562743
SMILES: CC[C@H](C)C(=O)O[C@H]1C[C@H](C=C2[C@H]1[C@H]([C@H](C=C2)C)CC[C@@H]3C[C@H](CC(=O)O3)O)C
InChI: InChI=1S/C24H36O5/c1-5-15(3)24(27)29-21-11-14(2)10-17-7-6-16(4)20(23(17)21)9-8-19-12-18(25)13-22(26)28-19/h6-7,10,14-16,18-21,23,25H,5,8-9,11-13H2,1-4H3/t14-,15-,16-,18+,19+,20-,21-,23-/m0/s1
Instrument: Bruker maXis Impact
Instrument type: LC-ESI-QTOF
Ms type: MS2
Ion mode: POSITIVE
Ionization: ESI
Fragmentation mode: CID
Collision energy: 20 eV
Resolution: 35000
Column name: ACQUITY UPLC BEH Amide 1.7 um 2.1x100 mm, Waters
Retention time: 1.428 min
Base peak: 405.2676
Precursor m/z: 405.2636
Precursor type: [M+H]+
m/z	relative intensity	assigned
119.0863	8	C9H11+
121.1013	13	C9H13+
125.0601	16	C7H9O2+
128.063	5	C10H8+
131.0864	28	C10H11+
133.1018	14	C10H13+
135.1177	8	C10H15+
143.0711	34	C7H11O3+
143.0862	39	C11H11+
144.0906	5	C10[13]CH11+
145.1014	59	C11H13+
146.1053	6	C10[13]CH13+
147.1175	13	C11H15+
151.0767	7	C9H11O2+
155.0857	7	C12H11+
157.1019	47	C12H13+
158.1067	9	C11[13]CH13+
159.1176	128	C12H15+
160.1215	20	C11[13]CH15+
161.1326	10	C12H17+
163.1119	9	C11H15O+
165.0913	7	C10H13O2+
169.1025	47	C13H13+
170.1064	7	C12[13]CH13+
171.1173	96	C13H15+
172.1211	14	C12[13]CH15+
173.1335	544	C13H17+
174.1365	71	C12[13]CH17+
181.1028	8	C14H13+
183.118	24	C14H15+
185.1338	35	C14H17+
187.1104	5	C13H15O+
189.093	10	C12H13O2+
191.1079	50	C12H15O2+
192.1109	7	C11[13]CH15O2+
193.1021	6	C15H13+
193.1241	6	C12H17O2+
195.1221	11	C8H19O5+
197.134	27	C15H17+
198.136	7	C15H18+
199.1495	999	C15H19+
200.1525	130	C14[13]CH19+
201.1651	254	C15H21+
202.1681	42	C15H22+
203.1081	11	C13H15O2+
203.1782	5	C14[13]CH22+
205.1232	21	C13H17O2+
207.1178	10	C16H15+
209.1182	32	C12H17O3+
210.1268	5	C12H18O3+
211.1127	8	C15H15O+
211.1495	18	C16H19+
212.155	5	C16H20+
213.1653	8	C16H21+
215.1096	5	C14H15O2+
215.1805	27	C16H23+
216.1847	6	C15[13]CH23+
221.1339	5	C17H17+
221.1744	7	C11H25O4+
223.1501	100	C17H19+
224.1526	18	C16[13]CH19+
225.1655	537	C17H21+
226.1685	104	C16[13]CH21+
227.1714	5	C15[13]C2H21+
229.1242	27	C15H17O2+
239.1449	9	C17H19O+
239.1811	144	C18H23+
240.1844	30	C17[13]CH23+
241.1611	5	C17H21O+
241.1953	9	C18H25+
243.1759	573	C17H23O+
244.1793	99	C16[13]CH23O+
247.1339	6	C15H19O3+
249.1655	177	C19H21+
250.1691	45	C18[13]CH21+
251.1723	6	C18[13]CH22+
257.1556	9	C17H21O2+
257.1912	7	C18H25O+
267.1762	285	C19H23O+
268.1796	63	C18[13]CH23O+
269.1825	7	C18[13]CH24O+
285.1874	655	C19H25O2+
286.1908	129	C19H26O2+
287.1952	15	C18[13]CH26O2+
303.1982	212	C19H27O3+
304.2016	43	C18[13]CH27O3+
305.2031	6	C18[13]CH28O3+
321.2084	7	C19H29O4+
405.2655	43	C24H37O5+
406.2672	11	C23[13]CH37O5+
