Mass spectrum: 1-Hydroxy-Benzotriazol; LC-ESI-QTOF; MS2; CE: 10 eV; R=35000; [M+H]+
Name: 1-Hydroxy-Benzotriazol
Name: 1-hydroxybenzotriazole
Formula: C6H5N3O
Exact mass: 135.0432618
SMILES: c1ccc2c(c1)nnn2O
InChI: InChI=1S/C6H5N3O/c10-9-6-4-2-1-3-5(6)7-8-9/h1-4,10H
Instrument: Bruker maXis Impact
Instrument type: LC-ESI-QTOF
Ms type: MS2
Ion mode: POSITIVE
Ionization: ESI
Fragmentation mode: CID
Collision energy: 10 eV
Resolution: 35000
Column name: Acclaim RSLC C18 2.2um, 2.1x100mm, Thermo
Retention time: 3.6 min
Base peak: 136.0497
Precursor m/z: 136.0505
Precursor type: [M+H]+
m/z	relative intensity	assigned
119.047	16	C6H5N3+
121.0396	7	C6H5N2O+
136.0497	999	C6H6N3O+
137.0529	61	C5[13]CH6N3O+
138.0449	7	C4[13]C2H6N3O+
