Mass spectrum: Trazodone; LC-ESI-QTOF; MS2; CE: 10 eV; R=35000; [M+H]+
Name: Trazodone
Name: 2-[3-[4-(3-chlorophenyl)piperazin-1-yl]propyl]-[1,2,4]triazolo[4,3-a]pyridin-3-one
Formula: C19H22ClN5O
Exact mass: 371.1512880
SMILES: c1ccn2c(c1)nn(c2=O)CCCN3CCN(CC3)c4cccc(c4)Cl
InChI: InChI=1S/C19H22ClN5O/c20-16-5-3-6-17(15-16)23-13-11-22(12-14-23)8-4-10-25-19(26)24-9-2-1-7-18(24)21-25/h1-3,5-7,9,15H,4,8,10-14H2
Instrument: Bruker maXis Impact
Instrument type: LC-ESI-QTOF
Ms type: MS2
Ion mode: POSITIVE
Ionization: ESI
Fragmentation mode: CID
Collision energy: 10 eV
Resolution: 35000
Column name: Acclaim RSLC C18 2.2um, 2.1x100mm, Thermo
Retention time: 6.015 min
Base peak: 372.1583
Precursor m/z: 372.1586
Precursor type: [M+H]+
m/z	relative intensity	assigned
176.0803	6	C9H10N3O+
372.159	999	C19H23ClN5O+
373.1614	232	C18[13]CH23ClN5O+
374.1559	326	C19H23[37]ClN5O+
