Mass spectrum: Maprotiline; LC-ESI-QTOF; MS2; HILIC; CE: 50 eV; R=35000; [M+H]+
Name: Maprotiline
Formula: C20H23N
Exact mass: 277.1830497
SMILES: CNCCCC12CCC(c3c1cccc3)c4c2cccc4
InChI: InChI=1S/C20H23N/c1-21-14-6-12-20-13-11-15(16-7-2-4-9-18(16)20)17-8-3-5-10-19(17)20/h2-5,7-10,15,21H,6,11-14H2,1H3
Instrument: Bruker maXis Impact
Instrument type: LC-ESI-QTOF
Ms type: MS2
Ion mode: POSITIVE
Ionization: ESI
Fragmentation mode: CID
Collision energy: 50 eV
Resolution: 35000
Column name: ACQUITY UPLC BEH Amide 1.7 um 2.1x100mm, Water
Retention time: 6.104 min
Base peak: 278.1938
Precursor m/z: 278.1903
Precursor type: [M+H]+
m/z	relative intensity	assigned
115.055	72	C9H7+
116.06	8	C8[13]CH7+
117.0706	38	C9H9+
127.0545	5	C10H7+
128.0626	48	C10H8+
129.07	17	C10H9+
131.0861	23	C10H11+
141.0706	110	C11H9+
142.0738	10	C10[13]CH9+
152.0625	10	C12H8+
153.0698	8	C12H9+
154.0778	11	C12H10+
155.0855	5	C12H11+
165.0706	45	C13H9+
166.0741	5	C12[13]CH9+
176.0626	6	C14H8+
177.0703	7	C14H9+
178.0787	623	C14H10+
179.0839	121	C13[13]CH10+
189.0709	103	C15H9+
190.0784	141	C15H10+
191.0868	999	C15H11+
192.0902	149	C15H12+
193.1003	15	C14[13]CH12+
202.0789	42	C16H10+
203.0867	206	C16H11+
204.0943	300	C16H12+
205.0992	43	C15[13]CH12+
215.0863	5	C17H11+
217.1023	27	C17H13+
218.1094	19	C17H14+
219.1179	57	C17H15+
220.1211	10	C16[13]CH15+
