Mass spectrum: Lovastatin; LC-ESI-QTOF; MS2; HILIC; CE: 30 eV; R=35000; [M+H]+
Name: Lovastatin
Name: [(1S,3R,7S,8S,8aR)-8-[2-[(2R,4R)-4-hydroxy-6-oxooxan-2-yl]ethyl]-3,7-dimethyl-1,2,3,7,8,8a-hexahydronaphthalen-1-yl] (2S)-2-methylbutanoate
Formula: C24H36O5
Exact mass: 404.2562743
SMILES: CC[C@H](C)C(=O)O[C@H]1C[C@H](C=C2[C@H]1[C@H]([C@H](C=C2)C)CC[C@@H]3C[C@H](CC(=O)O3)O)C
InChI: InChI=1S/C24H36O5/c1-5-15(3)24(27)29-21-11-14(2)10-17-7-6-16(4)20(23(17)21)9-8-19-12-18(25)13-22(26)28-19/h6-7,10,14-16,18-21,23,25H,5,8-9,11-13H2,1-4H3/t14-,15-,16-,18+,19+,20-,21-,23-/m0/s1
Instrument: Bruker maXis Impact
Instrument type: LC-ESI-QTOF
Ms type: MS2
Ion mode: POSITIVE
Ionization: ESI
Fragmentation mode: CID
Collision energy: 30 eV
Resolution: 35000
Column name: ACQUITY UPLC BEH Amide 1.7 um 2.1x100 mm, Waters
Retention time: 1.415 min
Base peak: 405.267
Precursor m/z: 405.2636
Precursor type: [M+H]+
m/z	relative intensity	assigned
117.0706	5	C9H9+
119.086	21	C9H11+
121.1015	21	C9H13+
125.0613	9	C7H9O2+
128.063	22	C10H8+
129.0706	15	C10H9+
131.0862	81	C10H11+
132.0894	8	C9[13]CH11+
133.1022	32	C10H13+
135.0803	6	C9H11O+
135.117	8	C10H15+
141.0705	10	C11H9+
142.0777	19	C11H10+
143.0708	7	C7H11O3+
143.0864	150	C11H11+
144.091	27	C10[13]CH11+
145.1017	139	C11H13+
146.1054	15	C10[13]CH13+
147.1172	19	C11H15+
149.0963	6	C10H13O+
151.0763	11	C9H11O2+
155.0863	33	C12H11+
156.0931	18	C12H12+
157.1017	132	C12H13+
158.1083	34	C12H14+
159.1176	248	C12H15+
160.1209	31	C11[13]CH15+
161.1334	13	C12H17+
163.0752	5	C10H11O2+
163.1126	12	C11H15O+
165.0915	15	C10H13O2+
168.0955	5	C13H12+
169.1018	134	C13H13+
170.1057	17	C12[13]CH13+
171.1173	209	C13H15+
172.1205	32	C12[13]CH15+
173.1335	668	C13H17+
174.1365	84	C12[13]CH17+
175.1139	5	C12H15O+
177.091	10	C11H13O2+
179.1081	5	C11H15O2+
181.1019	21	C14H13+
182.108	5	C14H14+
183.1176	85	C14H15+
184.1229	18	C13[13]CH15+
185.1336	48	C14H17+
186.1378	12	C13[13]CH17+
187.1125	9	C13H15O+
187.1486	6	C14H19+
189.0925	8	C12H13O2+
191.1072	72	C12H15O2+
192.1121	8	C11[13]CH15O2+
193.102	11	C15H13+
194.1089	6	C15H14+
195.1174	18	C15H15+
196.1235	5	C15H16+
197.1335	75	C15H17+
198.1384	19	C14[13]CH17+
199.1495	999	C15H19+
200.1524	151	C14[13]CH19+
201.1647	218	C15H21+
202.1684	41	C15H22+
203.1077	11	C13H15O2+
203.1765	6	C14[13]CH22+
205.1229	29	C13H17O2+
207.1181	29	C16H15+
208.1226	9	C16H16+
209.1184	7	C12H17O3+
209.1327	8	C16H17+
210.1418	5	C16H18+
211.1136	23	C15H15O+
211.1494	43	C16H19+
212.1179	5	C14[13]CH15O+
212.1525	11	C15[13]CH19+
213.1656	7	C16H21+
215.1075	7	C14H15O2+
215.1805	46	C16H23+
216.1826	9	C15[13]CH23+
217.1237	8	C14H17O2+
220.1264	5	C17H16+
221.1332	10	C17H17+
223.1497	125	C17H19+
224.1529	24	C16[13]CH19+
225.1654	623	C17H21+
226.1685	113	C16[13]CH21+
227.1729	8	C16[13]CH22+
229.1242	34	C15H17O2+
230.1283	6	C14[13]CH17O2+
234.1408	10	C18H18+
239.1448	11	C17H19O+
239.1809	126	C18H23+
240.1843	30	C18H24+
241.1959	6	C17[13]CH24+
243.1761	277	C17H23O+
244.1792	51	C16[13]CH23O+
249.1649	159	C19H21+
250.1692	34	C18[13]CH21+
251.172	6	C18[13]CH22+
257.1558	6	C17H21O2+
267.1763	100	C19H23O+
268.1794	27	C18[13]CH23O+
285.1866	182	C19H25O2+
286.1908	40	C19H26O2+
287.1946	11	C18[13]CH26O2+
303.1973	35	C19H27O3+
304.201	10	C18[13]CH27O3+
405.2648	49	C24H37O5+
406.2707	10	C23[13]CH37O5+
