Mass spectrum: Lovastatin; LC-ESI-QTOF; MS2; HILIC; CE: 50 eV; R=35000; [M+H]+
Name: Lovastatin
Name: [(1S,3R,7S,8S,8aR)-8-[2-[(2R,4R)-4-hydroxy-6-oxooxan-2-yl]ethyl]-3,7-dimethyl-1,2,3,7,8,8a-hexahydronaphthalen-1-yl] (2S)-2-methylbutanoate
Formula: C24H36O5
Exact mass: 404.2562743
SMILES: CC[C@H](C)C(=O)O[C@H]1C[C@H](C=C2[C@H]1[C@H]([C@H](C=C2)C)CC[C@@H]3C[C@H](CC(=O)O3)O)C
InChI: InChI=1S/C24H36O5/c1-5-15(3)24(27)29-21-11-14(2)10-17-7-6-16(4)20(23(17)21)9-8-19-12-18(25)13-22(26)28-19/h6-7,10,14-16,18-21,23,25H,5,8-9,11-13H2,1-4H3/t14-,15-,16-,18+,19+,20-,21-,23-/m0/s1
Instrument: Bruker maXis Impact
Instrument type: LC-ESI-QTOF
Ms type: MS2
Ion mode: POSITIVE
Ionization: ESI
Fragmentation mode: CID
Collision energy: 50 eV
Resolution: 35000
Column name: ACQUITY UPLC BEH Amide 1.7 um 2.1x100mm, Water
Retention time: 1.414 min
Base peak: 405.2667
Precursor m/z: 405.2636
Precursor type: [M+H]+
m/z	relative intensity	assigned
115.0547	47	C9H7+
116.0607	10	C9H8+
117.0702	52	C9H9+
118.0748	12	C9H10+
119.0858	93	C9H11+
121.1015	20	C9H13+
127.0541	13	C10H7+
128.0625	215	C10H8+
129.0699	166	C10H9+
130.0773	63	C10H10+
131.086	388	C10H11+
132.0894	45	C9[13]CH11+
133.0639	5	C9H9O+
133.1016	51	C10H13+
135.0817	8	C9H11O+
135.1178	7	C10H15+
141.0706	105	C11H9+
142.0781	219	C11H10+
143.086	999	C11H11+
144.0919	184	C10[13]CH11+
145.1018	415	C11H13+
146.1053	52	C10[13]CH13+
147.0802	10	C10H11O+
147.1175	28	C11H15+
149.0964	9	C10H13O+
152.0622	8	C12H8+
153.0703	33	C12H9+
154.078	41	C12H10+
155.0858	232	C12H11+
156.0934	174	C12H12+
157.1018	385	C12H13+
158.109	227	C12H14+
159.1173	409	C12H15+
160.1213	58	C12H16+
161.0968	9	C11H13O+
161.1321	10	C11[13]CH16+
163.076	6	C10H11O2+
163.1128	8	C11H15O+
165.0714	18	C13H9+
166.0786	11	C13H10+
167.0856	34	C13H11+
168.0933	71	C13H12+
169.1016	382	C13H13+
170.1067	72	C12[13]CH13+
171.1175	280	C13H15+
172.1206	49	C12[13]CH15+
173.1333	589	C13H17+
174.1366	70	C12[13]CH17+
177.0935	6	C11H13O2+
178.0777	14	C14H10+
179.0865	24	C14H11+
180.0932	9	C14H12+
181.102	75	C14H13+
182.1081	43	C14H14+
183.1175	222	C14H15+
184.123	57	C13[13]CH15+
185.1321	46	C14H17+
186.1376	8	C13[13]CH17+
187.1125	11	C13H15O+
187.1483	5	C14H19+
191.0858	8	C15H11+
191.1067	19	C12H15O2+
192.0952	21	C15H12+
193.1019	51	C15H13+
194.1086	20	C15H14+
195.1174	64	C15H15+
196.1254	31	C15H16+
197.1333	151	C15H17+
198.1391	31	C14[13]CH17+
199.149	464	C15H19+
200.1522	82	C14[13]CH19+
201.1637	50	C15H21+
202.168	9	C14[13]CH21+
205.1018	17	C16H13+
206.1094	10	C16H14+
207.1168	49	C16H15+
208.125	24	C16H16+
209.132	20	C16H17+
210.1409	46	C16H18+
211.1116	13	C15H15O+
211.1488	34	C16H19+
212.1162	5	C15H16O+
212.1561	10	C16H20+
213.1661	7	C16H21+
215.1794	9	C16H23+
219.1179	30	C17H15+
220.1249	15	C17H16+
221.1326	14	C17H17+
223.1486	79	C17H19+
224.1531	17	C16[13]CH19+
225.1653	260	C17H21+
226.1684	49	C17H22+
227.1773	6	C16[13]CH22+
229.1235	11	C15H17O2+
230.1278	5	C15H18O2+
234.1428	18	C18H18+
235.145	6	C18H19+
239.1441	6	C17H19O+
239.1807	17	C18H23+
243.1423	5	C16H19O2+
243.176	7	C17H23O+
249.1651	19	C19H21+
250.1706	5	C19H22+
