Mass spectrum: Maprotiline; LC-ESI-QTOF; MS2; HILIC; CE: 10 eV; R=35000; [M+H]+
Name: Maprotiline
Formula: C20H23N
Exact mass: 277.1830497
SMILES: CNCCCC12CCC(c3c1cccc3)c4c2cccc4
InChI: InChI=1S/C20H23N/c1-21-14-6-12-20-13-11-15(16-7-2-4-9-18(16)20)17-8-3-5-10-19(17)20/h2-5,7-10,15,21H,6,11-14H2,1H3
Instrument: Bruker maXis Impact
Instrument type: LC-ESI-QTOF
Ms type: MS2
Ion mode: POSITIVE
Ionization: ESI
Fragmentation mode: CID
Collision energy: 10 eV
Resolution: 35000
Column name: ACQUITY  UPLC BEH Amide 1.7 um 2.1x100mm, Waters
Retention time: 6.130 min
Base peak: 278.1936
Precursor m/z: 278.1903
Precursor type: [M+H]+
m/z	relative intensity	assigned
169.1015	6	C13H13+
219.1179	5	C17H15+
247.1496	9	C19H19+
250.1607	86	C18H20N+
251.1636	14	C17[13]CH20N+
278.1936	999	C20H24N+
