Mass spectrum: 1-Methylbenzotriazole; LC-ESI-QTOF; MS2; HILIC; CE: 50 eV; R=35000; [M+H]+
Name: 1-Methylbenzotriazole
Formula: C7H7N3
Exact mass: 133.0639972
SMILES: Cn1c2ccccc2nn1
InChI: InChI=1S/C7H7N3/c1-10-7-5-3-2-4-6(7)8-9-10/h2-5H,1H3
Instrument: Bruker maXis Impact
Instrument type: LC-ESI-QTOF
Ms type: MS2
Ion mode: POSITIVE
Ionization: ESI
Fragmentation mode: CID
Collision energy: 50 eV
Resolution: 35000
Column name: ACQUITY UPLC BEH Amide 1.7 um 2.1x100mm, Water
Retention time: 6.531 min
Base peak: 134.0727
Precursor m/z: 134.0713
Precursor type: [M+H]+
m/z	relative intensity	assigned
117.045	91	C7H5N2+
118.0517	123	C7H6N2+
132.0563	130	C7H6N3+
133.0642	907	C7H7N3+
134.0716	999	C7H8N3+
