Mass spectrum: Sitagliptin; LC-ESI-QTOF; MS2; HILIC; CE: 30 eV; R=35000; [M+H]+
Name: Sitagliptin
Name: (3R)-3-amino-1-[3-(trifluoromethyl)-6,8-dihydro-5H-[1,2,4]triazolo[4,3-a]pyrazin-7-yl]-4-(2,4,5-trifluorophenyl)butan-1-one
Formula: C16H15F6N5O
Exact mass: 407.1180794
SMILES: c1c(c(cc(c1F)F)F)C[C@H](CC(=O)N2CCn3c(nnc3C(F)(F)F)C2)N
InChI: InChI=1S/C16H15F6N5O/c17-10-6-12(19)11(18)4-8(10)3-9(23)5-14(28)26-1-2-27-13(7-26)24-25-15(27)16(20,21)22/h4,6,9H,1-3,5,7,23H2/t9-/m1/s1
Instrument: Bruker maXis Impact
Instrument type: LC-ESI-QTOF
Ms type: MS2
Ion mode: POSITIVE
Ionization: ESI
Fragmentation mode: CID
Collision energy: 30 eV
Resolution: 35000
Column name: ACQUITY UPLC BEH Amide 1.7 um 2.1x100 mm, Waters
Retention time: 6.295 min
Base peak: 408.1287
Precursor m/z: 408.1254
Precursor type: [M+H]+
m/z	relative intensity	assigned
127.0357	27	C7H5F2+
138.0281	10	F4H4N3O+
154.0469	42	F4H6N4O+
171.0422	26	CH6F5N3O+
174.0534	999	F5H7N4O+
193.0708	838	C3H9F4N4O+
194.0731	45	C2[13]CH9F4N4O+
199.0375	7	C10H6F3O+
219.0503	8	C12H7F2NO+
235.0818	713	C13H11F2NO+
236.084	53	C12[13]CH11F2NO+
237.0608	5	C15H8FNO+
391.1018	67	C16H13F6N4O+
392.1042	13	C15[13]CH13F6N4O+
408.1276	18	C16H16F6N5O+
