Mass spectrum: Olopatadine; LC-ESI-QTOF; MS2; HILIC; CE: 50 eV; R=35000; [M+H]+
Name: Olopatadine
Name: 2-[(11Z)-11-[3-(dimethylazaniumyl)propylidene]-6H-benzo[c][1]benzoxepin-2-yl]acetate
Formula: C21H23NO3
Exact mass: 337.1677936
SMILES: CN(C)CC/C=C\1/c2ccccc2COc3c1cc(cc3)CC(=O)O
InChI: InChI=1S/C21H23NO3/c1-22(2)11-5-8-18-17-7-4-3-6-16(17)14-25-20-10-9-15(12-19(18)20)13-21(23)24/h3-4,6-10,12H,5,11,13-14H2,1-2H3,(H,23,24)/b18-8-
Instrument: Bruker maXis Impact
Instrument type: LC-ESI-QTOF
Ms type: MS2
Ion mode: POSITIVE
Ionization: ESI
Fragmentation mode: CID
Collision energy: 50 eV
Resolution: 35000
Column name: ACQUITY UPLC BEH Amide 1.7 um 2.1x100mm, Water
Retention time: 6.330 min
Base peak: 338.1793
Precursor m/z: 338.1751
Precursor type: [M+H]+
m/z	relative intensity	assigned
115.0554	324	C9H7+
116.0592	29	C8[13]CH7+
117.0708	115	C9H9+
118.0739	12	C8[13]CH9+
119.0499	83	C8H7O+
120.0568	18	C8H8O+
121.0655	31	C8H9O+
123.0449	323	C7H7O2+
124.0483	22	C6[13]CH7O2+
127.0548	18	C10H7+
128.0629	177	C10H8+
129.0705	162	C10H9+
130.0743	16	C9[13]CH9+
131.0501	101	C9H7O+
131.0861	6	C10H11+
132.0534	10	C8[13]CH7O+
133.0657	5	C9H9O+
137.0607	234	C8H9O2+
138.0641	17	C7[13]CH9O2+
141.0709	465	C11H9+
142.0763	68	C11H10+
143.0841	10	C10[13]CH10+
144.0575	26	C10H8O+
145.0654	32	C10H9O+
147.045	15	C9H7O2+
149.0605	10	C9H9O2+
152.0628	18	C12H8+
153.0703	24	C12H9+
154.0775	6	C12H10+
155.0615	18	C7H9NO3+
155.0858	6	C12H11+
157.0658	9	C11H9O+
158.097	10	C11H12N+
159.081	5	C11H11O+
161.0607	16	C10H9O2+
165.0558	422	C9H9O3+
165.0705	75	C13H9+
166.059	34	C8[13]CH9O3+
166.0777	50	C13H10+
167.0856	25	C13H11+
169.0657	24	C12H9O+
170.0973	9	C12H12N+
172.1129	9	C12H14N+
173.1209	8	C12H15N+
176.0634	6	C14H8+
177.0706	19	C14H9+
178.079	426	C14H10+
179.0865	654	C14H11+
180.0902	80	C14H12+
181.066	10	C13H9O+
181.101	12	C13[13]CH12+
183.082	5	C13H11O+
189.0559	49	C11H9O3+
189.0708	100	C15H9+
190.0788	158	C15H10+
191.0867	351	C15H11+
192.0918	60	C14[13]CH11+
193.0656	8	C14H9O+
193.1021	84	C15H13+
194.0737	26	C14H10O+
194.1054	11	C14[13]CH13+
195.0813	16	C14H11O+
201.0707	9	C16H9+
202.0792	179	C16H10+
203.0869	502	C16H11+
204.0946	605	C16H12+
205.066	101	C15H9O+
205.1014	189	C16H13+
206.0735	74	C15H10O+
206.1073	29	C15[13]CH13+
207.0821	319	C15H11O+
208.0865	61	C15H12O+
209.0945	8	C14[13]CH12O+
213.0709	6	C17H9+
214.0792	30	C17H10+
215.0873	312	C17H11+
216.0922	67	C16[13]CH11+
217.1026	82	C17H13+
218.0743	117	C16H10O+
218.1086	24	C16[13]CH13+
219.0821	386	C16H11O+
219.1184	114	C17H15+
220.0874	85	C15[13]CH11O+
220.1219	18	C16[13]CH15+
221.0974	127	C16H13O+
222.1009	21	C15[13]CH13O+
223.0768	9	C15H11O2+
226.0785	10	C18H10+
227.0872	59	C18H11+
228.0952	297	C18H12+
229.1028	676	C18H13+
230.1067	108	C17[13]CH13+
231.0825	612	C17H11O+
232.0899	999	C17H12O+
233.0961	286	C17H13O+
234.104	86	C17H14O+
235.1085	13	C16[13]CH14O+
239.0717	5	C18H9N+
245.098	39	C18H13O+
246.1051	31	C18H14O+
247.1136	249	C18H15O+
248.117	46	C17[13]CH15O+
252.0804	117	C19H10N+
253.0852	28	C18[13]CH10N+
263.072	6	C20H9N+
265.0874	6	C20H11N+
277.0882	9	C21H11N+
278.0948	5	C18H14O3+
