Mass spectrum: 1,3-Dimethyl-2-imidazolidinon; LC-ESI-QTOF; MS2; HILIC; CE: 30 eV; R=35000; [M+H]+
Name: 1,3-Dimethyl-2-imidazolidinon
Name: 1,3-Dimethyl-2-imidazolidinone
Name: 1,3-dimethylimidazolidin-2-one
Formula: C5H10N2O
Exact mass: 114.0793129
SMILES: CN1CCN(C1=O)C
InChI: InChI=1S/C5H10N2O/c1-6-3-4-7(2)5(6)8/h3-4H2,1-2H3
Instrument: Bruker maXis Impact
Instrument type: LC-ESI-QTOF
Ms type: MS2
Ion mode: POSITIVE
Ionization: ESI
Fragmentation mode: CID
Collision energy: 30 eV
Resolution: 35000
Column name: ACQUITY UPLC BEH Amide 1.7 um 2.1x100 mm, Waters
Retention time: 1.716 min
Base peak: 151.0331
Precursor m/z: 115.0866
Precursor type: [M+H]+
m/z	relative intensity	assigned
115.0869	999	C5H11N2O+
