Mass spectrum: Sitagliptin; LC-ESI-QTOF; MS2; HILIC; CE: 40 eV; R=35000; [M+H]+
Name: Sitagliptin
Name: (3R)-3-amino-1-[3-(trifluoromethyl)-6,8-dihydro-5H-[1,2,4]triazolo[4,3-a]pyrazin-7-yl]-4-(2,4,5-trifluorophenyl)butan-1-one
Formula: C16H15F6N5O
Exact mass: 407.1180794
SMILES: c1c(c(cc(c1F)F)F)C[C@H](CC(=O)N2CCn3c(nnc3C(F)(F)F)C2)N
InChI: InChI=1S/C16H15F6N5O/c17-10-6-12(19)11(18)4-8(10)3-9(23)5-14(28)26-1-2-27-13(7-26)24-25-15(27)16(20,21)22/h4,6,9H,1-3,5,7,23H2/t9-/m1/s1
Instrument: Bruker maXis Impact
Instrument type: LC-ESI-QTOF
Ms type: MS2
Ion mode: POSITIVE
Ionization: ESI
Fragmentation mode: CID
Collision energy: 40 eV
Resolution: 35000
Column name: ACQUITY UPLC BEH Amide 1.7 um 2.1x100mm, Waters
Retention time: 6.280 min
Base peak: 408.1293
Precursor m/z: 408.1254
Precursor type: [M+H]+
m/z	relative intensity	assigned
127.0362	109	C4H6F3O+
128.0398	7	C3[13]CH6F3O+
134.0408	8	F3H5N4O+
137.0332	6	C4H3N5O+
138.0282	36	F4H4N3O+
145.0267	7	C7H3N3O+
151.0359	14	CH5F4N3O+
153.0386	8	C8H5F2N+
154.0472	133	F4H6N4O+
165.0393	6	CH5F4N4O+
168.0384	13	C9H6F2O+
171.0424	63	CH6F5N3O+
174.0538	999	C5H8F4NO+
175.0566	69	C4[13]CH8F4NO+
176.044	5	C3H6F4N3O+
193.0711	643	C8H10F3NO+
194.0737	37	C7[13]CH10F3NO+
199.0386	6	C10H6F3O+
219.0498	6	C12H7F2NO+
235.082	138	C13H11F2NO+
236.0842	15	C12[13]CH11F2NO+
391.1019	9	C16H13F6N4O+
