Mass spectrum: Lovastatin; LC-ESI-QTOF; MS2; HILIC; CE: 10 eV; R=35000; [M+H]+
Name: Lovastatin
Name: [(1S,3R,7S,8S,8aR)-8-[2-[(2R,4R)-4-hydroxy-6-oxooxan-2-yl]ethyl]-3,7-dimethyl-1,2,3,7,8,8a-hexahydronaphthalen-1-yl] (2S)-2-methylbutanoate
Formula: C24H36O5
Exact mass: 404.2562743
SMILES: CC[C@H](C)C(=O)O[C@H]1C[C@H](C=C2[C@H]1[C@H]([C@H](C=C2)C)CC[C@@H]3C[C@H](CC(=O)O3)O)C
InChI: InChI=1S/C24H36O5/c1-5-15(3)24(27)29-21-11-14(2)10-17-7-6-16(4)20(23(17)21)9-8-19-12-18(25)13-22(26)28-19/h6-7,10,14-16,18-21,23,25H,5,8-9,11-13H2,1-4H3/t14-,15-,16-,18+,19+,20-,21-,23-/m0/s1
Instrument: Bruker maXis Impact
Instrument type: LC-ESI-QTOF
Ms type: MS2
Ion mode: POSITIVE
Ionization: ESI
Fragmentation mode: CID
Collision energy: 10 eV
Resolution: 35000
Column name: ACQUITY  UPLC BEH Amide 1.7 um 2.1x100mm, Waters
Retention time: 1.415 min
Base peak: 405.2666
Precursor m/z: 405.2636
Precursor type: [M+H]+
m/z	relative intensity	assigned
125.0597	9	C7H9O2+
143.0705	63	C7H11O3+
144.0739	6	C6[13]CH11O3+
145.1015	9	C11H13+
157.1009	6	C12H13+
159.1173	20	C12H15+
169.1011	5	C13H13+
171.1169	11	C13H15+
173.1328	204	C13H17+
174.1363	27	C12[13]CH17+
191.1062	5	C12H15O2+
199.149	794	C15H19+
200.1518	114	C14[13]CH19+
201.1644	84	C15H21+
202.1675	13	C14[13]CH21+
209.1174	15	C12H17O3+
215.181	6	C16H23+
221.1758	13	C11H25O4+
223.1479	21	C17H19+
224.1528	5	C16[13]CH19+
225.1647	193	C17H21+
226.1682	32	C16[13]CH21+
229.1233	5	C15H17O2+
239.1804	38	C18H23+
240.1832	7	C17[13]CH23+
243.1755	428	C17H23O+
244.1786	70	C16[13]CH23O+
249.1647	43	C19H21+
250.1758	13	C12H26O5+
267.1755	232	C19H23O+
268.1792	50	C18[13]CH23O+
285.1867	999	C19H25O2+
286.1896	187	C19H26O2+
287.1946	26	C18[13]CH26O2+
303.1974	607	C19H27O3+
304.2005	137	C19H28O3+
305.2039	17	C18[13]CH28O3+
321.2062	8	C19H29O4+
405.2665	538	C24H37O5+
406.2699	141	C23[13]CH37O5+
407.2722	16	C22[13]C2H37O5+
