Mass spectrum: 1-Hydroxy-Benzotriazol; LC-ESI-QTOF; MS2; HILIC; CE: 20 eV; R=35000; [M+H]+
Name: 1-Hydroxy-Benzotriazol
Name: 1-hydroxybenzotriazole
Formula: C6H5N3O
Exact mass: 135.0432618
SMILES: c1ccc2c(c1)nnn2O
InChI: InChI=1S/C6H5N3O/c10-9-6-4-2-1-3-5(6)7-8-9/h1-4,10H
Instrument: Bruker maXis Impact
Instrument type: LC-ESI-QTOF
Ms type: MS2
Ion mode: POSITIVE
Ionization: ESI
Fragmentation mode: CID
Collision energy: 20 eV
Resolution: 35000
Column name: ACQUITY UPLC BEH Amide 1.7 um 2.1x100 mm, Waters
Retention time: 2.783 min
Base peak: 136.0515
Precursor m/z: 136.0505
Precursor type: [M+H]+
m/z	relative intensity	assigned
119.0486	165	C6H5N3+
120.0521	13	C5[13]CH5N3+
136.0515	999	C6H6N3O+
137.0546	71	C5[13]CH6N3O+
