Mass spectrum: Triethyl phosphate; LC-ESI-QTOF; MS2; HILIC; CE: 10 eV; R=35000; [M+H]+
Name: Triethyl phosphate
Formula: C6H15O4P
Exact mass: 182.0707956
SMILES: CCOP(=O)(OCC)OCC
InChI: InChI=1S/C6H15O4P/c1-4-8-11(7,9-5-2)10-6-3/h4-6H2,1-3H3
Instrument: Bruker maXis Impact
Instrument type: LC-ESI-QTOF
Ms type: MS2
Ion mode: POSITIVE
Ionization: ESI
Fragmentation mode: CID
Collision energy: 10 eV
Resolution: 35000
Column name: ACQUITY  UPLC BEH Amide 1.7 um 2.1x100mm, Waters
Retention time: 1.479 min
Base peak: 183.0793
Precursor m/z: 183.0781
Precursor type: [M+H]+
m/z	relative intensity	assigned
127.0162	704	C2H8O4P+
128.0196	8	C[13]CH8O4P+
155.0476	999	C4H12O4P+
156.0508	25	C3[13]CH12O4P+
183.0791	494	C6H16O4P+
184.0821	17	C5[13]CH16O4P+
