Mass spectrum: Normianserin; LC-ESI-QTOF; MS2; HILIC; CE: 20 eV; R=35000; [M+H]+
Name: Normianserin
Name: Desmethylmianserin
Formula: C17H18N2
Exact mass: 250.1469986
SMILES: c1ccc2c(c1)Cc3ccccc3N4C2CNCC4
InChI: InChI=1S/C17H18N2/c1-3-7-15-13(5-1)11-14-6-2-4-8-16(14)19-10-9-18-12-17(15)19/h1-8,17-18H,9-12H2
Instrument: Bruker maXis Impact
Instrument type: LC-ESI-QTOF
Ms type: MS2
Ion mode: POSITIVE
Ionization: ESI
Fragmentation mode: CID
Collision energy: 20 eV
Resolution: 35000
Column name: ACQUITY UPLC BEH Amide 1.7 um 2.1x100 mm, Waters
Retention time: 6.332 min
Base peak: 251.1563
Precursor m/z: 251.1543
Precursor type: [M+H]+
m/z	relative intensity	assigned
118.0655	41	C8H8N+
120.0812	39	C8H10N+
130.0654	6	C9H8N+
132.0811	76	C9H10N+
133.0844	6	C8[13]CH10N+
134.0967	14	C9H12N+
144.0809	16	C10H10N+
147.0921	42	C9H11N2+
158.0966	22	C11H12N+
179.0858	8	C14H11+
196.1125	9	C14H14N+
206.097	5	C15H12N+
208.113	454	C15H14N+
209.1163	61	C14[13]CH14N+
222.1286	9	C16H16N+
234.1288	44	C17H16N+
235.1316	7	C16[13]CH16N+
249.1397	28	C17H17N2+
250.1428	5	C16[13]CH17N2+
251.156	999	C17H19N2+
252.1588	174	C16[13]CH19N2+
253.1616	9	C15[13]C2H19N2+
