Mass spectrum: Fosinopril; LC-ESI-QTOF; MS2; HILIC; CE: 40 eV; R=35000; [M+H]+
Name: Fosinopril
Name: (2S,4S)-4-cyclohexyl-1-[2-[(2-methyl-1-propanoyloxypropoxy)-(4-phenylbutyl)phosphoryl]acetyl]pyrrolidine-2-carboxylic acid
Formula: C30H46NO7P
Exact mass: 563.3011894
SMILES: O=C(CP(=O)(CCCCc1ccccc1)OC(OC(=O)CC)C(C)C)N2C[C@@H](C[C@H]2C(O)=O)C3CCCCC3
InChI: InChI=1S/C30H46NO7P/c1-4-28(33)37-30(22(2)3)38-39(36,18-12-11-15-23-13-7-5-8-14-23)21-27(32)31-20-25(19-26(31)29(34)35)24-16-9-6-10-17-24/h5,7-8,13-14,22,24-26,30H,4,6,9-12,15-21H2,1-3H3,(H,34,35)/t25-,26+,30?,39?/m1/s1
Instrument: Bruker maXis Impact
Instrument type: LC-ESI-QTOF
Ms type: MS2
Ion mode: POSITIVE
Ionization: ESI
Fragmentation mode: CID
Collision energy: 40 eV
Resolution: 35000
Column name: ACQUITY UPLC BEH Amide 1.7 um 2.1x100mm, Waters
Retention time: 2.418 min
Base peak: 432.2838
Precursor m/z: 564.3085
Precursor type: [M+H]+
m/z	relative intensity	assigned
133.0866	999	C2H16NO3P+
152.1451	711	C10H18N+
177.1117	306	C8H17O4+
281.299	161	C16H42OP+
282.2814	371	C18H36NO+
310.3141	167	C13H44NO6+
390.2221	470	C29H28N+
391.2224	159	C19H36O6P+
