Mass spectrum: Sitagliptin; LC-ESI-QTOF; MS2; HILIC; CE: 50 eV; R=35000; [M+H]+
Name: Sitagliptin
Name: (3R)-3-amino-1-[3-(trifluoromethyl)-6,8-dihydro-5H-[1,2,4]triazolo[4,3-a]pyrazin-7-yl]-4-(2,4,5-trifluorophenyl)butan-1-one
Formula: C16H15F6N5O
Exact mass: 407.1180794
SMILES: c1c(c(cc(c1F)F)F)C[C@H](CC(=O)N2CCn3c(nnc3C(F)(F)F)C2)N
InChI: InChI=1S/C16H15F6N5O/c17-10-6-12(19)11(18)4-8(10)3-9(23)5-14(28)26-1-2-27-13(7-26)24-25-15(27)16(20,21)22/h4,6,9H,1-3,5,7,23H2/t9-/m1/s1
Instrument: Bruker maXis Impact
Instrument type: LC-ESI-QTOF
Ms type: MS2
Ion mode: POSITIVE
Ionization: ESI
Fragmentation mode: CID
Collision energy: 50 eV
Resolution: 35000
Column name: ACQUITY UPLC BEH Amide 1.7 um 2.1x100mm, Water
Retention time: 6.280 min
Base peak: 338.1777
Precursor m/z: 408.1254
Precursor type: [M+H]+
m/z	relative intensity	assigned
118.0215	7	C8H3F+
127.0359	446	C7H5F2+
128.0395	35	C6[13]CH5F2+
134.0411	32	F3H5N4O+
135.0447	5	C3H7F4O+
137.0209	5	C5H4F3O+
137.0325	12	C4H4F3N2+
138.028	90	C8H4F2+
139.0304	5	C7[13]CH4F2+
145.0267	35	C7H3N3O+
150.0284	15	CH4F4N3O+
151.0359	61	CH5F4N3O+
152.0508	5	C8H7FNO+
153.0392	26	F4H5N4O+
154.0472	408	F4H6N4O+
157.0265	16	F5H4N3O+
164.0437	5	C2H6F4N3O+
165.0388	14	C9H5F2N+
168.0386	54	C9H6F2O+
169.0264	5	C9H4F3+
171.0422	88	CH6F5N3O+
174.0536	999	C8H6N4O+
175.0567	71	C7[13]CH6N4O+
176.0439	9	C3H6F4N3O+
193.0708	436	C8H10F3NO+
194.0732	32	C7[13]CH10F3NO+
199.0388	5	C10H6F3O+
235.0812	32	C13H11F2NO+
