Mass spectrum: Praziquantel; LC-ESI-QTOF; MS2; HILIC; CE: 50 eV; R=35000; [M+H]+
Name: Praziquantel
Name: 2-(cyclohexanecarbonyl)-3,6,7,11b-tetrahydro-1H-pyrazino[2,1-a]isoquinolin-4-one
Formula: C19H24N2O2
Exact mass: 312.1837780
SMILES: c1ccc2c(c1)CCN3C2CN(CC3=O)C(=O)C4CCCCC4
InChI: InChI=1S/C19H24N2O2/c22-18-13-20(19(23)15-7-2-1-3-8-15)12-17-16-9-5-4-6-14(16)10-11-21(17)18/h4-6,9,15,17H,1-3,7-8,10-13H2
Instrument: Bruker maXis Impact
Instrument type: LC-ESI-QTOF
Ms type: MS2
Ion mode: POSITIVE
Ionization: ESI
Fragmentation mode: CID
Collision energy: 50 eV
Resolution: 35000
Column name: ACQUITY UPLC BEH Amide 1.7 um 2.1x100mm, Water
Retention time: 1.515 min
Base peak: 313.1935
Precursor m/z: 313.1911
Precursor type: [M+H]+
m/z	relative intensity	assigned
115.0547	56	C9H7+
116.0587	10	C4H8N2O2+
117.0581	63	C8H7N+
117.0703	61	C9H9+
118.064	8	C8H8N+
118.0732	7	C4H10N2O2+
119.0851	6	C9H11+
127.0544	13	C10H7+
128.0622	130	C10H8+
129.0702	316	C10H9+
130.0659	131	C9H8N+
131.0731	103	C9H9N+
132.0813	999	C9H10N+
133.0843	98	C8[13]CH10N+
143.073	17	C10H9N+
144.0813	120	C10H10N+
145.0649	23	C10H9O+
145.0886	102	C10H11N+
146.097	304	C10H12N+
147.1004	46	C9[13]CH12N+
155.0612	23	C10H7N2+
156.0835	6	C11H10N+
158.0973	63	C11H12N+
159.1004	13	C11H13N+
173.1089	15	C11H13N2+
174.092	636	C11H12NO+
175.0957	78	C10[13]CH12NO+
175.1221	10	C11H15N2+
176.0986	5	C10H12N2O+
185.1073	20	C12H13N2+
186.0923	6	C12H12NO+
203.1197	56	C12H15N2O+
204.1223	11	C12H16N2O+
256.1699	17	C17H22NO+
