Mass spectrum: Vildagliptin; LC-ESI-QTOF; MS2; HILIC; CE: 10 eV; R=35000; [M+H]+
Name: Vildagliptin
Name: (2S)-1-[2-[(3-hydroxy-1-adamantyl)amino]acetyl]pyrrolidine-2-carbonitrile
Formula: C17H25N3O2
Exact mass: 303.1946770
SMILES: C1C[C@H](N(C1)C(=O)CNC23CC4CC(C2)CC(C4)(C3)O)C#N
InChI: InChI=1S/C17H25N3O2/c18-9-14-2-1-3-20(14)15(21)10-19-16-5-12-4-13(6-16)8-17(22,7-12)11-16/h12-14,19,22H,1-8,10-11H2/t12?,13?,14-,16?,17?/m0/s1
Instrument: Bruker maXis Impact
Instrument type: LC-ESI-QTOF
Ms type: MS2
Ion mode: POSITIVE
Ionization: ESI
Fragmentation mode: CID
Collision energy: 10 eV
Resolution: 35000
Column name: ACQUITY  UPLC BEH Amide 1.7 um 2.1x100mm, Waters
Retention time: 6.644 min
Base peak: 304.2048
Precursor m/z: 304.202
Precursor type: [M+H]+
m/z	relative intensity	assigned
151.1127	5	C10H15O+
154.0983	152	C9H14O2+
155.1013	11	C8[13]CH14O2+
304.2047	999	C17H26N3O2+
305.2076	188	C16[13]CH26N3O2+
306.2104	13	C15[13]C2H26N3O2+
