Mass spectrum: 4-Piperidinecarboxamide; LC-ESI-QTOF; MS2; CE: 10 eV; R=35000; [M+Na]+
Name: 4-Piperidinecarboxamide
Name: piperidine-4-carboxamide
Formula: C6H12N2O
Exact mass: 128.0949630
SMILES: C1CNCCC1C(=O)N
InChI: InChI=1S/C6H12N2O/c7-6(9)5-1-3-8-4-2-5/h5,8H,1-4H2,(H2,7,9)
Instrument: Bruker maXis Impact
Instrument type: LC-ESI-QTOF
Ms type: MS2
Ionization: ESI
Ion mode: POSITIVE
Fragmentation mode: CID
Collision energy: 10 eV
Resolution: 35000
Column name: Acclaim RSLC C18 2.2um, 2.1x100mm, Thermo
Retention time: 1.432 min
Base peak: 129.1028
Precursor m/z: 151.0842
Precursor type: [M+Na]+
m/z	relative intensity	assigned
151.085	999	C6H12N2NaO+
