Mass spectrum: Maprotiline; LC-ESI-QTOF; MS2; HILIC; CE: 40 eV; R=35000; [M+H]+
Name: Maprotiline
Formula: C20H23N
Exact mass: 277.1830497
SMILES: CNCCCC12CCC(c3c1cccc3)c4c2cccc4
InChI: InChI=1S/C20H23N/c1-21-14-6-12-20-13-11-15(16-7-2-4-9-18(16)20)17-8-3-5-10-19(17)20/h2-5,7-10,15,21H,6,11-14H2,1H3
Instrument: Bruker maXis Impact
Instrument type: LC-ESI-QTOF
Ms type: MS2
Ion mode: POSITIVE
Ionization: ESI
Fragmentation mode: CID
Collision energy: 40 eV
Resolution: 35000
Column name: ACQUITY UPLC BEH Amide 1.7 um 2.1x100mm, Waters
Retention time: 6.044 min
Base peak: 278.1936
Precursor m/z: 278.1903
Precursor type: [M+H]+
m/z	relative intensity	assigned
115.0551	48	C9H7+
116.0599	5	C8[13]CH7+
117.0708	69	C9H9+
118.0741	6	C8[13]CH9+
128.0627	27	C10H8+
129.0703	20	C10H9+
131.0864	48	C10H11+
141.0708	118	C11H9+
142.0739	11	C10[13]CH9+
143.0862	16	C11H11+
154.0783	9	C12H10+
155.0856	8	C12H11+
165.0707	9	C13H9+
169.102	29	C13H13+
178.0788	461	C14H10+
179.0843	85	C14H11+
180.0889	6	C13[13]CH11+
189.0709	15	C15H9+
190.0784	28	C15H10+
191.0869	999	C15H11+
192.0903	117	C14[13]CH11+
193.1021	51	C15H13+
194.1056	6	C14[13]CH13+
202.079	10	C16H10+
203.0867	51	C16H11+
204.0947	195	C16H12+
205.1012	64	C16H13+
206.1058	9	C15[13]CH13+
217.1025	16	C17H13+
218.1099	20	C17H14+
219.1185	414	C17H15+
220.1218	52	C16[13]CH15+
250.161	52	C18H20N+
251.1638	8	C17[13]CH20N+
