Mass spectrum: Praziquantel; LC-ESI-QTOF; MS2; HILIC; CE: 40 eV; R=35000; [M+H]+
Name: Praziquantel
Name: 2-(cyclohexanecarbonyl)-3,6,7,11b-tetrahydro-1H-pyrazino[2,1-a]isoquinolin-4-one
Formula: C19H24N2O2
Exact mass: 312.1837780
SMILES: c1ccc2c(c1)CCN3C2CN(CC3=O)C(=O)C4CCCCC4
InChI: InChI=1S/C19H24N2O2/c22-18-13-20(19(23)15-7-2-1-3-8-15)12-17-16-9-5-4-6-14(16)10-11-21(17)18/h4-6,9,15,17H,1-3,7-8,10-13H2
Instrument: Bruker maXis Impact
Instrument type: LC-ESI-QTOF
Ms type: MS2
Ion mode: POSITIVE
Ionization: ESI
Fragmentation mode: CID
Collision energy: 40 eV
Resolution: 35000
Column name: ACQUITY UPLC BEH Amide 1.7 um 2.1x100mm, Waters
Retention time: 1.529 min
Base peak: 313.194
Precursor m/z: 313.1911
Precursor type: [M+H]+
m/z	relative intensity	assigned
115.0551	20	C9H7+
116.06	5	C4H8N2O2+
117.0576	18	C8H7N+
117.0707	29	C9H9+
127.0564	5	C10H7+
128.0629	51	C10H8+
129.0703	178	C10H9+
130.066	61	C9H8N+
131.0737	47	C9H9N+
132.0816	935	C9H10N+
133.0847	77	C8[13]CH10N+
144.0816	96	C10H10N+
145.066	9	C10H9O+
145.0888	36	C10H11N+
146.0972	283	C10H12N+
147.1004	47	C9[13]CH12N+
155.0613	9	C10H7N2+
156.0821	5	C11H10N+
158.0972	91	C11H12N+
159.1001	11	C10[13]CH12N+
173.108	22	C11H13N2+
174.0924	999	C11H12NO+
175.0956	133	C10[13]CH12NO+
175.1238	49	C11H15N2+
176.0982	8	C9[13]C2H12NO+
176.1261	5	C10[13]CH15N2+
185.1071	24	C12H13N2+
186.0918	9	C12H12NO+
203.1193	443	C12H15N2O+
204.1221	54	C11[13]CH15N2O+
205.1244	5	C13H17O2+
256.172	44	C17H22NO+
257.175	9	C16[13]CH22NO+
285.2011	7	C18H25N2O+
