Mass spectrum: Telmisartan; LC-ESI-QTOF; MS2; CE: Ramp 25.9-38.9 eV; R=35000; [M+H]+
Name: Telmisartan
Name: 2-[4-[[4-methyl-6-(1-methylbenzimidazol-2-yl)-2-propylbenzimidazol-1-yl]methyl]phenyl]benzoic acid
Formula: C33H30N4O2
Exact mass: 514.2368762
SMILES: CCCC1=NC2=C(C)C=C(C=C2N1CC1=CC=C(C=C1)C1=CC=CC=C1C(O)=O)C1=NC2=CC=CC=C2N1C
InChI: InChI=1S/C33H30N4O2/c1-4-9-30-35-31-21(2)18-24(32-34-27-12-7-8-13-28(27)36(32)3)19-29(31)37(30)20-22-14-16-23(17-15-22)25-10-5-6-11-26(25)33(38)39/h5-8,10-19H,4,9,20H2,1-3H3,(H,38,39)
Instrument: Bruker maXis Impact
Instrument type: LC-ESI-QTOF
Ms type: MS2
Ion mode: POSITIVE
Ionization: ESI
Fragmentation mode: CID
Collision energy: Ramp 25.9-38.9 eV
Resolution: 35000
Column name: Acclaim RSLC C18 2.2um, 2.1x100mm, Thermo
Retention time: 10.558 min
Base peak: 515.2437
Precursor m/z: 515.2442
Precursor type: [M+H]+
m/z	relative intensity	assigned
211.0743	9	C12H9N3O+
276.1368	20	C17H16N4+
305.1753	17	C19H21N4+
497.2344	262	C33H29N4O+
498.2377	88	C32[13]CH29N4O+
499.2412	13	C31[13]C2H29N4O+
515.2451	999	C33H31N4O2+
516.248	406	C32[13]CH31N4O2+
517.2506	69	C31[13]C2H31N4O2+
