Mass spectrum: Olopatadine; LC-ESI-QTOF; MS2; HILIC; CE: 40 eV; R=35000; [M+H]+
Name: Olopatadine
Name: 2-[(11Z)-11-[3-(dimethylazaniumyl)propylidene]-6H-benzo[c][1]benzoxepin-2-yl]acetate
Formula: C21H23NO3
Exact mass: 337.1677936
SMILES: CN(C)CC/C=C\1/c2ccccc2COc3c1cc(cc3)CC(=O)O
InChI: InChI=1S/C21H23NO3/c1-22(2)11-5-8-18-17-7-4-3-6-16(17)14-25-20-10-9-15(12-19(18)20)13-21(23)24/h3-4,6-10,12H,5,11,13-14H2,1-2H3,(H,23,24)/b18-8-
Instrument: Bruker maXis Impact
Instrument type: LC-ESI-QTOF
Ms type: MS2
Ion mode: POSITIVE
Ionization: ESI
Fragmentation mode: CID
Collision energy: 40 eV
Resolution: 35000
Column name: ACQUITY UPLC BEH Amide 1.7 um 2.1x100mm, Waters
Retention time: 6.381 min
Base peak: 338.1793
Precursor m/z: 338.1751
Precursor type: [M+H]+
m/z	relative intensity	assigned
115.0551	127	C9H7+
116.0588	14	C8[13]CH7+
117.0708	97	C9H9+
118.0737	10	C8[13]CH9+
119.0498	40	C8H7O+
121.0654	17	C8H9O+
123.045	185	C7H7O2+
124.0481	12	C6[13]CH7O2+
127.0546	5	C10H7+
128.0628	58	C10H8+
129.0707	121	C10H9+
130.074	13	C9[13]CH9+
131.0499	47	C9H7O+
131.0869	4	C10H11+
137.0606	190	C8H9O2+
138.0639	13	C7[13]CH9O2+
141.0708	311	C11H9+
142.0763	52	C10[13]CH9+
143.0861	16	C11H11+
145.0655	10	C10H9O+
147.0451	7	C9H7O2+
149.0608	13	C9H9O2+
153.0707	7	C12H9+
155.0612	6	C7H9NO3+
157.0651	6	C11H9O+
158.0969	6	C11H12N+
161.0602	19	C10H9O2+
165.0558	999	C9H9O3+
166.059	79	C8[13]CH9O3+
166.0774	11	C13H10+
167.0614	6	C7[13]C2H9O3+
167.0853	7	C13H11+
169.0657	16	C12H9O+
171.1057	5	C12H13N+
172.1125	8	C12H14N+
173.1207	22	C12H15N+
174.126	5	C9H18O3+
178.0785	77	C14H10+
179.0866	256	C14H11+
180.0903	33	C13[13]CH11+
181.1013	8	C14H13+
186.129	8	C13H16N+
187.0764	7	C12H11O2+
189.0558	31	C11H9O3+
189.0698	11	C15H9+
190.0789	23	C15H10+
191.0864	92	C15H11+
192.0913	20	C14[13]CH11+
193.1023	59	C15H13+
194.074	7	C14H10O+
194.1058	9	C14[13]CH13+
195.081	7	C14H11O+
202.079	28	C16H10+
203.0868	84	C16H11+
204.0946	160	C16H12+
205.0661	37	C15H9O+
205.1017	99	C16H13+
206.0735	34	C15H10O+
206.107	19	C15[13]CH13+
207.0818	119	C15H11O+
208.0874	23	C14[13]CH11O+
209.0965	6	C15H13O+
214.0789	5	C17H10+
215.0868	73	C17H11+
216.0934	21	C16[13]CH11+
217.1025	41	C17H13+
218.074	36	C16H10O+
218.1089	12	C16[13]CH13+
219.082	209	C16H11O+
219.1184	159	C17H15+
220.0865	42	C15[13]CH11O+
220.1216	28	C16[13]CH15+
221.0978	198	C16H13O+
222.1008	30	C15[13]CH13O+
223.0773	12	C15H11O2+
225.0921	7	C15H13O2+
227.0867	9	C18H11+
228.0944	54	C18H12+
229.103	397	C18H13+
230.1069	74	C18H14+
231.0822	126	C17H11O+
231.1131	8	C17[13]CH14+
232.0901	573	C17H12O+
233.0958	156	C16[13]CH12O+
234.105	123	C17H14O+
235.109	24	C16[13]CH14O+
245.0975	18	C18H13O+
246.1049	17	C18H14O+
247.1139	896	C18H15O+
248.1171	132	C18H16O+
249.1238	13	C17[13]CH16O+
252.0798	88	C19H10N+
253.0868	75	C16H13O3+
254.0899	14	C15[13]CH13O3+
257.1008	7	C15H15NO3+
265.0874	11	C20H11N+
278.095	10	C18H14O3+
293.1192	30	C19H17O3+
294.1215	6	C18[13]CH17O3+
338.1776	38	C21H24NO3+
339.18	8	C20[13]CH24NO3+
