Mass spectrum: Fosinopril; LC-ESI-QTOF; MS2; HILIC; CE: 30 eV; R=35000; [M+H]+
Name: Fosinopril
Name: (2S,4S)-4-cyclohexyl-1-[2-[(2-methyl-1-propanoyloxypropoxy)-(4-phenylbutyl)phosphoryl]acetyl]pyrrolidine-2-carboxylic acid
Formula: C30H46NO7P
Exact mass: 563.3011894
SMILES: O=C(CP(=O)(CCCCc1ccccc1)OC(OC(=O)CC)C(C)C)N2C[C@@H](C[C@H]2C(O)=O)C3CCCCC3
InChI: InChI=1S/C30H46NO7P/c1-4-28(33)37-30(22(2)3)38-39(36,18-12-11-15-23-13-7-5-8-14-23)21-27(32)31-20-25(19-26(31)29(34)35)24-16-9-6-10-17-24/h5,7-8,13-14,22,24-26,30H,4,6,9-12,15-21H2,1-3H3,(H,34,35)/t25-,26+,30?,39?/m1/s1
Instrument: Bruker maXis Impact
Instrument type: LC-ESI-QTOF
Ms type: MS2
Ion mode: POSITIVE
Ionization: ESI
Fragmentation mode: CID
Collision energy: 30 eV
Resolution: 35000
Column name: ACQUITY UPLC BEH Amide 1.7 um 2.1x100 mm, Waters
Retention time: 2.532 min
Base peak: 520.3361
Precursor m/z: 564.3085
Precursor type: [M+H]+
m/z	relative intensity	assigned
131.0706	66	C2H14NO3P+
133.0858	999	C6H13O3+
134.0892	73	C5[13]CH13O3+
175.0983	49	C11H13NO+
177.1123	614	C4H20NO4P+
221.1383	108	C10H21O5+
239.1504	29	C13H21NO3+
265.1665	29	C15H23NO3+
283.1768	40	C15H25NO4+
299.3072	28	C16H44O2P+
309.1898	37	C14H29O7+
327.2011	26	C17H29NO5+
327.3422	28	C18H47O4+
390.2201	44	C22H33NO3P+
418.2178	35	C30H28NO+
436.2283	56	C30H30NO2+
459.2838	29	C24H44O6P+
