Mass spectrum: 1-Methylbenzotriazole; LC-ESI-QTOF; MS2; HILIC; CE: 20 eV; R=35000; [M+H]+
Name: 1-Methylbenzotriazole
Formula: C7H7N3
Exact mass: 133.0639972
SMILES: Cn1c2ccccc2nn1
InChI: InChI=1S/C7H7N3/c1-10-7-5-3-2-4-6(7)8-9-10/h2-5H,1H3
Instrument: Bruker maXis Impact
Instrument type: LC-ESI-QTOF
Ms type: MS2
Ion mode: POSITIVE
Ionization: ESI
Fragmentation mode: CID
Collision energy: 20 eV
Resolution: 35000
Column name: ACQUITY UPLC BEH Amide 1.7 um 2.1x100mm, Waters
Retention time: 6.581 min
Base peak: 134.0725
Precursor m/z: 134.0713
Precursor type: [M+H]+
m/z	relative intensity	assigned
133.0639	11	C7H7N3+
134.0721	999	C7H8N3+
135.0752	68	C6[13]CH8N3+
