Mass spectrum: N-Butylbenzenesulfonamide; LC-ESI-QTOF; MS2; CE: 10 eV; R=35000; [M-H]-
Name: N-Butylbenzenesulfonamide
Name: N-butylbenzenesulfonamide
Formula: C10H15NO2S
Exact mass: 213.0823497
SMILES: CCCCNS(=O)(=O)C1=CC=CC=C1
InChI: InChI=1S/C10H15NO2S/c1-2-3-9-11-14(12,13)10-7-5-4-6-8-10/h4-8,11H,2-3,9H2,1H3
Instrument: Bruker maXis Impact
Instrument type: LC-ESI-QTOF
Ms type: MS2
Ion mode: NEGATIVE
Ionization: ESI
Fragmentation mode: CID
Collision energy: 10 eV
Resolution: 35000
Column name: Acclaim RSLC C18 2.2um, 2.1x100mm, Thermo
Retention time: 7.711 min
Base peak: 212.0762
Precursor m/z: 212.0751
Precursor type: [M-H]-
m/z	relative intensity	assigned
212.077	999	C10H14NO2S-
213.0763	92	C9[13]CH14NO2S-
