Mass spectrum: Normianserin; LC-ESI-QTOF; MS2; HILIC; CE: 30 eV; R=35000; [M+H]+
Name: Normianserin
Name: Desmethylmianserin
Formula: C17H18N2
Exact mass: 250.1469986
SMILES: c1ccc2c(c1)Cc3ccccc3N4C2CNCC4
InChI: InChI=1S/C17H18N2/c1-3-7-15-13(5-1)11-14-6-2-4-8-16(14)19-10-9-18-12-17(15)19/h1-8,17-18H,9-12H2
Instrument: Bruker maXis Impact
Instrument type: LC-ESI-QTOF
Ms type: MS2
Ion mode: POSITIVE
Ionization: ESI
Fragmentation mode: CID
Collision energy: 30 eV
Resolution: 35000
Column name: ACQUITY UPLC BEH Amide 1.7 um 2.1x100 mm, Waters
Retention time: 6.295 min
Base peak: 251.1564
Precursor m/z: 251.1543
Precursor type: [M+H]+
m/z	relative intensity	assigned
115.0547	21	C9H7+
117.0574	16	C8H7N+
117.07	12	C9H9+
118.0654	130	C8H8N+
119.0699	10	C7[13]CH8N+
120.0811	150	C8H10N+
121.0844	10	C7[13]CH10N+
128.0621	5	C10H8+
129.07	22	C10H9+
130.0654	55	C9H8N+
131.0713	9	C9H9N+
132.081	196	C9H10N+
133.0842	15	C8[13]CH10N+
134.0964	11	C9H12N+
143.073	12	C10H9N+
144.0807	39	C10H10N+
145.0872	8	C10H11N+
146.0962	19	C10H12N+
147.092	124	C9H11N2+
148.0951	9	C8[13]CH11N2+
158.0966	45	C11H12N+
159.0977	5	C10[13]CH12N+
160.0993	9	C10H12N2+
178.0777	11	C14H10+
179.0854	26	C14H11+
181.1017	8	C14H13+
193.0891	76	C14H11N+
194.0954	31	C14H12N+
196.1123	22	C14H14N+
204.0812	11	C15H10N+
205.0883	11	C15H11N+
206.0968	21	C15H12N+
207.1037	14	C15H13N+
208.1129	999	C15H14N+
209.116	111	C15H15N+
210.1193	7	C14[13]CH15N+
218.0969	13	C16H12N+
219.1041	18	C16H13N+
220.1118	15	C16H14N+
222.1281	27	C16H16N+
223.1256	7	C15H15N2+
232.1126	5	C17H14N+
234.1284	45	C17H16N+
235.1315	7	C16[13]CH16N+
249.1397	43	C17H17N2+
250.1423	7	C16[13]CH17N2+
251.1553	169	C17H19N2+
252.1582	26	C16[13]CH19N2+
