Mass spectrum: 4-Piperidinecarboxamide; LC-ESI-QTOF; MS2; HILIC; CE: 10 eV; R=35000; [M+H]+
Name: 4-Piperidinecarboxamide
Name: Isonipecotamide
Name: piperidine-4-carboxamide
Formula: C6H12N2O
Exact mass: 128.0949630
SMILES: C1CNCCC1C(=O)N
InChI: InChI=1S/C6H12N2O/c7-6(9)5-1-3-8-4-2-5/h5,8H,1-4H2,(H2,7,9)
Instrument: Bruker maXis Impact
Instrument type: LC-ESI-QTOF
Ms type: MS2
Ion mode: POSITIVE
Ionization: ESI
Fragmentation mode: CID
Collision energy: 10 eV
Resolution: 35000
Column name: ACQUITY  UPLC BEH Amide 1.7 um 2.1x100mm, Waters
Retention time: 8.186 min
Base peak: 129.103
Precursor m/z: 129.1022
Precursor type: [M+H]+
m/z	relative intensity	assigned
112.0764	60	C6H10NO+
129.103	999	C6H13N2O+
130.1058	68	C5[13]CH13N2O+
