Mass spectrum: PHIP; LC-ESI-QTOF; MS2; CE: Ramp 20.9-31.4 eV; R=35000; [M-H]-
Name: PHIP
Name: 2-Amino-1-methyl-6-phenylimidazo[4,5-b]pyridine
Name: 1-methyl-6-phenylimidazo[4,5-b]pyridin-2-amine
Formula: C13H12N4
Exact mass: 224.1061964
SMILES: CN1C(N)=NC2=NC=C(C=C12)C1=CC=CC=C1
InChI: InChI=1S/C13H12N4/c1-17-11-7-10(9-5-3-2-4-6-9)8-15-12(11)16-13(17)14/h2-8H,1H3,(H2,14,15,16)
Instrument: Bruker maXis Impact
Instrument type: LC-ESI-QTOF
Ms type: MS2
Ion mode: NEGATIVE
Ionization: ESI
Fragmentation mode: CID
Collision energy: Ramp 20.9-31.4 eV
Resolution: 35000
Column name: Acclaim RSLC C18 2.2um, 2.1x100mm, Thermo
Retention time: 7.265 min
Base peak: 59.0135
Precursor m/z: 223.0989
Precursor type: [M-H]-
m/z	relative intensity	assigned
167.0598	230	C11H7N2-
181.0647	149	C11H7N3-
208.0753	999	C12H8N4-
209.0739	147	C11[13]CH8N4-
223.0981	336	C13H11N4-
