Mass spectrum: Lovastatin; LC-ESI-QTOF; MS2; HILIC; CE: 40 eV; R=35000; [M+H]+
Name: Lovastatin
Name: [(1S,3R,7S,8S,8aR)-8-[2-[(2R,4R)-4-hydroxy-6-oxooxan-2-yl]ethyl]-3,7-dimethyl-1,2,3,7,8,8a-hexahydronaphthalen-1-yl] (2S)-2-methylbutanoate
Formula: C24H36O5
Exact mass: 404.2562743
SMILES: CC[C@H](C)C(=O)O[C@H]1C[C@H](C=C2[C@H]1[C@H]([C@H](C=C2)C)CC[C@@H]3C[C@H](CC(=O)O3)O)C
InChI: InChI=1S/C24H36O5/c1-5-15(3)24(27)29-21-11-14(2)10-17-7-6-16(4)20(23(17)21)9-8-19-12-18(25)13-22(26)28-19/h6-7,10,14-16,18-21,23,25H,5,8-9,11-13H2,1-4H3/t14-,15-,16-,18+,19+,20-,21-,23-/m0/s1
Instrument: Bruker maXis Impact
Instrument type: LC-ESI-QTOF
Ms type: MS2
Ion mode: POSITIVE
Ionization: ESI
Fragmentation mode: CID
Collision energy: 40 eV
Resolution: 35000
Column name: ACQUITY UPLC BEH Amide 1.7 um 2.1x100mm, Waters
Retention time: 1.428 min
Base peak: 405.2673
Precursor m/z: 405.2636
Precursor type: [M+H]+
m/z	relative intensity	assigned
115.055	17	C9H7+
116.0621	10	C9H8+
117.0708	29	C9H9+
119.0861	57	C9H11+
120.0904	6	C9H12+
121.102	23	C9H13+
125.0593	7	C7H9O2+
128.0628	84	C10H8+
129.0705	60	C10H9+
130.0768	18	C10H10+
131.0859	263	C10H11+
132.0895	25	C9[13]CH11+
133.0644	5	C9H9O+
133.1016	56	C10H13+
134.1067	7	C9[13]CH13+
135.0809	9	C9H11O+
135.1178	9	C10H15+
141.071	42	C11H9+
142.0781	86	C11H10+
143.086	531	C11H11+
144.0917	91	C10[13]CH11+
145.1017	321	C11H13+
146.1055	36	C10[13]CH13+
147.0812	9	C10H11O+
147.1176	27	C11H15+
149.0962	16	C10H13O+
151.0768	13	C9H11O2+
153.0707	11	C12H9+
154.0793	15	C12H10+
155.0864	114	C12H11+
156.0931	70	C12H12+
157.1018	299	C12H13+
158.1088	142	C12H14+
159.1176	402	C12H15+
160.1215	61	C11[13]CH15+
161.0969	7	C11H13O+
161.1332	15	C12H17+
163.0753	7	C10H11O2+
163.1118	15	C11H15O+
165.0918	11	C10H13O2+
167.0868	11	C13H11+
168.0943	20	C13H12+
169.1018	304	C13H13+
170.1071	46	C12[13]CH13+
171.1177	347	C13H15+
172.1211	56	C12[13]CH15+
173.1334	886	C13H17+
174.1367	124	C12[13]CH17+
175.1134	5	C12H15O+
177.0918	13	C11H13O2+
177.1274	5	C12H17O+
179.0851	10	C14H11+
181.1026	50	C14H13+
182.1082	20	C14H14+
183.1176	211	C14H15+
184.122	50	C13[13]CH15+
185.1334	65	C14H17+
186.1378	14	C13[13]CH17+
187.1118	18	C13H15O+
187.1475	7	C14H19+
189.0911	9	C12H13O2+
191.1083	59	C12H15O2+
192.0958	13	C15H12+
192.1113	9	C11[13]CH15O2+
193.1025	45	C15H13+
194.1088	15	C15H14+
195.1183	28	C15H15+
196.1251	23	C15H16+
197.1335	164	C15H17+
198.1379	39	C14[13]CH17+
199.1495	999	C15H19+
200.1528	163	C14[13]CH19+
201.1647	152	C15H21+
202.169	21	C14[13]CH21+
203.108	8	C13H15O2+
205.101	15	C16H13+
205.1234	17	C13H17O2+
206.1098	7	C16H14+
206.127	5	C13H18O2+
207.1176	56	C16H15+
208.1237	21	C16H16+
209.1335	13	C16H17+
210.1413	23	C16H18+
211.1122	38	C15H15O+
211.1486	63	C16H19+
212.1195	6	C14[13]CH15O+
212.1553	14	C15[13]CH19+
213.1288	6	C15H17O+
213.1649	11	C16H21+
215.1073	6	C14H15O2+
215.181	30	C16H23+
217.1247	8	C14H17O2+
219.1182	16	C17H15+
220.1261	18	C17H16+
221.1337	26	C17H17+
223.1495	141	C17H19+
224.1538	29	C16[13]CH19+
225.165	561	C17H21+
226.1685	114	C16[13]CH21+
229.1238	37	C15H17O2+
230.1268	5	C14[13]CH17O2+
234.1414	24	C18H18+
235.1439	10	C18H19+
239.1453	11	C17H19O+
239.1805	63	C18H23+
240.1843	14	C17[13]CH23+
241.1947	5	C18H25+
243.1394	12	C16H19O2+
243.1758	88	C17H23O+
244.1798	19	C16[13]CH23O+
249.1656	75	C19H21+
250.1697	19	C18[13]CH21+
257.155	7	C17H21O2+
267.1758	33	C19H23O+
268.1784	8	C18[13]CH23O+
285.1873	35	C19H25O2+
286.189	5	C18[13]CH25O2+
405.2651	17	C24H37O5+
