Mass spectrum: 4-Nitrophenol; LC-ESI-QTOF; MS2; CE: 10 eV; R=35000; [M-H]-
Name: 4-Nitrophenol
Name: p-Nitrophenol
Formula: C6H5NO3
Exact mass: 139.0269430
SMILES: OC1=CC=C(C=C1)[N+]([O-])=O
InChI: InChI=1S/C6H5NO3/c8-6-3-1-5(2-4-6)7(9)10/h1-4,8H
Instrument: Bruker maXis Impact
Instrument type: LC-ESI-QTOF
Ms type: MS2
Ion mode: NEGATIVE
Ionization: ESI
Fragmentation mode: CID
Collision energy: 10 eV
Resolution: 35000
Column name: Acclaim RSLC C18 2.2um, 2.1x100mm, Thermo
Retention time: 5.616 min
Base peak: 138.0209
Precursor m/z: 138.0197
Precursor type: [M-H]-
m/z	relative intensity	assigned
138.0208	999	C6H4NO3-
139.0238	50	C5[13]CH4NO3-
140.0253	8	C6H4NO2[18]O-
