Mass spectrum: Normianserin; LC-ESI-QTOF; MS2; HILIC; CE: 40 eV; R=35000; [M+H]+
Name: Normianserin
Name: Desmethylmianserin
Formula: C17H18N2
Exact mass: 250.1469986
SMILES: c1ccc2c(c1)Cc3ccccc3N4C2CNCC4
InChI: InChI=1S/C17H18N2/c1-3-7-15-13(5-1)11-14-6-2-4-8-16(14)19-10-9-18-12-17(15)19/h1-8,17-18H,9-12H2
Instrument: Bruker maXis Impact
Instrument type: LC-ESI-QTOF
Ms type: MS2
Ion mode: POSITIVE
Ionization: ESI
Fragmentation mode: CID
Collision energy: 40 eV
Resolution: 35000
Column name: ACQUITY UPLC BEH Amide 1.7 um 2.1x100mm, Waters
Retention time: 6.281 min
Base peak: 251.1567
Precursor m/z: 251.1543
Precursor type: [M+H]+
m/z	relative intensity	assigned
115.055	172	C9H7+
116.061	27	C8[13]CH7+
117.0579	139	C8H7N+
117.0703	46	C9H9+
118.0658	373	C8H8N+
119.071	41	C7[13]CH8N+
119.0852	5	C9H11+
120.0814	286	C8H10N+
121.0848	18	C7[13]CH10N+
127.0541	7	C10H7+
128.05	6	C9H6N+
128.0625	51	C10H8+
129.0702	77	C10H9+
130.0658	321	C9H8N+
131.0716	60	C9H9N+
131.085	8	C10H11+
132.0686	26	C8H8N2+
132.0813	349	C9H10N+
133.0844	32	C8[13]CH10N+
134.097	7	C9H12N+
141.0708	16	C11H9+
142.066	9	C10H8N+
143.0733	83	C10H9N+
144.0811	107	C10H10N+
145.0776	21	C9H9N2+
145.0866	18	C9[13]CH10N+
146.0967	47	C10H12N+
147.0923	237	C9H11N2+
148.0953	22	C8[13]CH11N2+
152.0622	7	C12H8+
153.0704	5	C12H9+
155.0606	11	C10H7N2+
156.0808	12	C11H10N+
157.0888	9	C11H11N+
158.0968	67	C11H12N+
159.0934	18	C10H11N2+
160.0999	16	C10H12N2+
165.0704	48	C13H9+
166.0781	65	C13H10+
167.0833	18	C13H11+
177.0709	8	C14H9+
178.0783	139	C14H10+
179.0857	107	C14H11+
180.0841	27	C13H10N+
181.102	54	C14H13+
182.105	10	C13[13]CH13+
189.0698	5	C15H9+
190.0773	7	C15H10+
191.0856	26	C15H11+
192.0817	30	C14H10N+
193.0897	923	C14H11N+
194.0951	175	C14H12N+
195.1001	20	C13[13]CH12N+
196.1127	20	C14H14N+
202.0788	9	C16H10+
203.0856	8	C16H11+
204.0818	91	C15H10N+
205.0883	41	C15H11N+
206.0973	129	C15H12N+
207.1045	104	C15H13N+
208.1133	999	C15H14N+
209.1166	123	C15H15N+
210.1227	8	C14[13]CH15N+
217.0892	26	C16H11N+
218.0975	122	C16H12N+
219.104	55	C16H13N+
220.1124	43	C16H14N+
221.1112	20	C15H13N2+
222.1291	29	C16H16N+
223.1282	7	C15[13]CH16N+
232.1131	19	C17H14N+
234.1286	22	C17H16N+
235.1255	10	C16H15N2+
249.1397	39	C17H17N2+
250.1451	7	C16[13]CH17N2+
251.1556	19	C17H19N2+
