Mass spectrum: Olopatadine; LC-ESI-QTOF; MS2; HILIC; CE: 20 eV; R=35000; [M+H]+
Name: Olopatadine
Name: 2-[(11Z)-11-[3-(dimethylazaniumyl)propylidene]-6H-benzo[c][1]benzoxepin-2-yl]acetate
Formula: C21H23NO3
Exact mass: 337.1677936
SMILES: CN(C)CC/C=C\1/c2ccccc2COc3c1cc(cc3)CC(=O)O
InChI: InChI=1S/C21H23NO3/c1-22(2)11-5-8-18-17-7-4-3-6-16(17)14-25-20-10-9-15(12-19(18)20)13-21(23)24/h3-4,6-10,12H,5,11,13-14H2,1-2H3,(H,23,24)/b18-8-
Instrument: Bruker maXis Impact
Instrument type: LC-ESI-QTOF
Ms type: MS2
Ion mode: POSITIVE
Ionization: ESI
Fragmentation mode: CID
Collision energy: 20 eV
Resolution: 35000
Column name: ACQUITY UPLC BEH Amide 1.7 um 2.1x100 mm, Waters
Retention time: 6.382 min
Base peak: 338.1788
Precursor m/z: 338.1751
Precursor type: [M+H]+
m/z	relative intensity	assigned
115.0553	5	C9H7+
117.0708	10	C9H9+
129.0707	6	C10H9+
137.0607	10	C8H9O2+
141.0706	20	C11H9+
165.0558	180	C9H9O3+
166.059	14	C8[13]CH9O3+
221.0975	9	C16H13O+
233.0973	6	C17H13O+
234.1054	11	C17H14O+
247.114	271	C18H15O+
248.1171	37	C18H16O+
249.1273	6	C17[13]CH16O+
253.0878	8	C19H11N+
293.1199	177	C19H17O3+
294.1232	29	C18[13]CH17O3+
338.1789	999	C21H24NO3+
