Mass spectrum: Olopatadine; LC-ESI-QTOF; MS2; HILIC; CE: 30 eV; R=35000; [M+H]+
Name: Olopatadine
Name: 2-[(11Z)-11-[3-(dimethylazaniumyl)propylidene]-6H-benzo[c][1]benzoxepin-2-yl]acetate
Formula: C21H23NO3
Exact mass: 337.1677936
SMILES: CN(C)CC/C=C\1/c2ccccc2COc3c1cc(cc3)CC(=O)O
InChI: InChI=1S/C21H23NO3/c1-22(2)11-5-8-18-17-7-4-3-6-16(17)14-25-20-10-9-15(12-19(18)20)13-21(23)24/h3-4,6-10,12H,5,11,13-14H2,1-2H3,(H,23,24)/b18-8-
Instrument: Bruker maXis Impact
Instrument type: LC-ESI-QTOF
Ms type: MS2
Ion mode: POSITIVE
Ionization: ESI
Fragmentation mode: CID
Collision energy: 30 eV
Resolution: 35000
Column name: ACQUITY UPLC BEH Amide 1.7 um 2.1x100 mm, Waters
Retention time: 6.395 min
Base peak: 338.1788
Precursor m/z: 338.1751
Precursor type: [M+H]+
m/z	relative intensity	assigned
115.0549	36	C9H7+
117.0706	50	C9H9+
119.0497	6	C8H7O+
123.0447	27	C7H7O2+
128.0626	7	C10H8+
129.0705	40	C10H9+
131.0497	9	C9H7O+
137.0603	62	C8H9O2+
141.0706	117	C11H9+
142.0759	16	C10[13]CH9+
143.0855	8	C11H11+
149.06	5	C9H9O2+
161.06	8	C10H9O2+
165.0556	796	C9H9O3+
166.0589	59	C8[13]CH9O3+
173.1206	13	C12H15N+
178.0788	5	C14H10+
179.0863	27	C14H11+
186.1287	11	C13H16N+
189.0556	12	C11H9O3+
191.0865	11	C15H11+
193.102	10	C15H13+
203.0861	6	C16H11+
204.0941	12	C16H12+
205.1019	20	C16H13+
207.0811	16	C15H11O+
215.0863	9	C17H11+
217.102	8	C17H13+
219.0817	37	C16H11O+
219.1184	54	C17H15+
220.0858	5	C15[13]CH11O+
220.1214	9	C16[13]CH15+
221.0974	95	C16H13O+
222.1004	13	C15[13]CH13O+
229.1026	67	C18H13+
230.1062	12	C17[13]CH13+
231.0815	9	C17H11O+
232.0895	91	C17H12O+
233.096	36	C17H13O+
234.1051	81	C17H14O+
235.1096	14	C16[13]CH14O+
247.1136	999	C18H15O+
248.1169	133	C18H16O+
249.125	17	C17[13]CH16O+
252.0795	20	C19H10N+
253.0873	69	C19H11N+
254.0907	11	C18[13]CH11N+
265.0873	9	C20H11N+
265.1233	5	C18H17O2+
293.1195	109	C19H17O3+
294.1223	19	C18[13]CH17O3+
338.1779	760	C21H24NO3+
339.181	129	C20[13]CH24NO3+
340.1838	13	C19[13]C2H24NO3+
