Mass spectrum: Praziquantel; LC-ESI-QTOF; MS2; HILIC; CE: 30 eV; R=35000; [M+H]+
Name: Praziquantel
Name: 2-(cyclohexanecarbonyl)-3,6,7,11b-tetrahydro-1H-pyrazino[2,1-a]isoquinolin-4-one
Formula: C19H24N2O2
Exact mass: 312.1837780
SMILES: c1ccc2c(c1)CCN3C2CN(CC3=O)C(=O)C4CCCCC4
InChI: InChI=1S/C19H24N2O2/c22-18-13-20(19(23)15-7-2-1-3-8-15)12-17-16-9-5-4-6-14(16)10-11-21(17)18/h4-6,9,15,17H,1-3,7-8,10-13H2
Instrument: Bruker maXis Impact
Instrument type: LC-ESI-QTOF
Ms type: MS2
Ion mode: POSITIVE
Ionization: ESI
Fragmentation mode: CID
Collision energy: 30 eV
Resolution: 35000
Column name: ACQUITY UPLC BEH Amide 1.7 um 2.1x100 mm, Waters
Retention time: 1.515 min
Base peak: 313.1934
Precursor m/z: 313.1911
Precursor type: [M+H]+
m/z	relative intensity	assigned
128.0619	6	C10H8+
129.0704	32	C10H9+
130.0661	7	C9H8N+
131.0727	6	C9H9N+
132.0814	218	C9H10N+
133.0849	19	C8[13]CH10N+
144.0812	17	C10H10N+
146.0971	108	C10H12N+
147.1003	11	C9[13]CH12N+
158.097	34	C11H12N+
159.1005	5	C10[13]CH12N+
173.1078	6	C11H13N2+
174.0924	327	C11H12NO+
175.0953	40	C10[13]CH12NO+
175.1238	79	C11H15N2+
176.1269	9	C10[13]CH15N2+
185.1072	6	C12H13N2+
203.1194	999	C12H15N2O+
204.1221	113	C11[13]CH15N2O+
205.1239	8	C10[13]C2H15N2O+
256.1716	40	C17H22NO+
257.1742	6	C16[13]CH22NO+
285.1988	21	C18H25N2O+
313.1939	11	C19H25N2O2+
