Mass spectrum: Pioglitazone; LC-ESI-QTOF; MS2; CE: 40 eV; R=35000; [M+H]+
Name: Pioglitazone
Name: 5-[[4-[2-(5-ethylpyridin-2-yl)ethoxy]phenyl]methyl]-1,3-thiazolidine-2,4-dione
Formula: C19H20N2O3S
Exact mass: 356.1194635
SMILES: CCC1=CN=C(CCOC2=CC=C(CC3SC(=O)NC3=O)C=C2)C=C1
InChI: InChI=1S/C19H20N2O3S/c1-2-13-3-6-15(20-12-13)9-10-24-16-7-4-14(5-8-16)11-17-18(22)21-19(23)25-17/h3-8,12,17H,2,9-11H2,1H3,(H,21,22,23)
Instrument: Bruker maXis Impact
Instrument type: LC-ESI-QTOF
Ms type: MS2
Ion mode: POSITIVE
Ionization: ESI
Fragmentation mode: CID
Collision energy: 40 eV
Resolution: 35000
Column name: Acclaim RSLC C18 2.2um, 2.1x100mm, Thermo
Retention time: 9.130 min
Base peak: 357.1272
Precursor m/z: 357.1267
Precursor type: [M+H]+
m/z	relative intensity	assigned
117.0568	5	C8H7N+
118.0645	29	C8H8N+
119.0725	224	C8H9N+
120.0783	26	C7[13]CH9N+
121.0873	7	C8H11N+
134.0959	999	C9H12N+
135.1022	180	C6H15O3+
136.1061	12	C5[13]CH15O3+
240.1376	5	C16H18NO+
357.1267	17	C19H21N2O3S+
