Mass spectrum: Maprotiline; LC-ESI-QTOF; MS2; HILIC; CE: 30 eV; R=35000; [M+H]+
Name: Maprotiline
Formula: C20H23N
Exact mass: 277.1830497
SMILES: CNCCCC12CCC(c3c1cccc3)c4c2cccc4
InChI: InChI=1S/C20H23N/c1-21-14-6-12-20-13-11-15(16-7-2-4-9-18(16)20)17-8-3-5-10-19(17)20/h2-5,7-10,15,21H,6,11-14H2,1H3
Instrument: Bruker maXis Impact
Instrument type: LC-ESI-QTOF
Ms type: MS2
Ion mode: POSITIVE
Ionization: ESI
Fragmentation mode: CID
Collision energy: 30 eV
Resolution: 35000
Column name: ACQUITY UPLC BEH Amide 1.7 um 2.1x100 mm, Waters
Retention time: 6.130 min
Base peak: 278.1939
Precursor m/z: 278.1903
Precursor type: [M+H]+
m/z	relative intensity	assigned
115.055	31	C9H7+
117.0708	125	C9H9+
118.0739	11	C8[13]CH9+
128.0628	11	C10H8+
129.0703	23	C10H9+
131.0863	76	C10H11+
132.0897	6	C9[13]CH11+
141.0707	91	C11H9+
142.0739	8	C10[13]CH9+
143.0863	34	C11H11+
155.0862	13	C12H11+
169.1022	143	C13H13+
170.1054	16	C12[13]CH13+
178.0788	187	C14H10+
179.0843	40	C13[13]CH10+
191.0868	422	C15H11+
192.0902	49	C14[13]CH11+
193.1022	75	C15H13+
194.1056	10	C14[13]CH13+
203.0864	7	C16H11+
204.0945	40	C16H12+
205.1021	64	C16H13+
206.1062	11	C15[13]CH13+
217.1026	5	C17H13+
218.1099	9	C17H14+
219.1185	999	C17H15+
220.1218	125	C17H16+
221.1249	8	C16[13]CH16+
247.1494	12	C19H19+
250.1611	791	C18H20N+
251.1642	105	C17[13]CH20N+
278.1924	100	C20H24N+
279.1955	18	C19[13]CH24N+
