Mass spectrum: Normianserin; LC-ESI-QTOF; MS2; HILIC; CE: 50 eV; R=35000; [M+H]+
Name: Normianserin
Name: Desmethylmianserin
Formula: C17H18N2
Exact mass: 250.1469986
SMILES: c1ccc2c(c1)Cc3ccccc3N4C2CNCC4
InChI: InChI=1S/C17H18N2/c1-3-7-15-13(5-1)11-14-6-2-4-8-16(14)19-10-9-18-12-17(15)19/h1-8,17-18H,9-12H2
Instrument: Bruker maXis Impact
Instrument type: LC-ESI-QTOF
Ms type: MS2
Ion mode: POSITIVE
Ionization: ESI
Fragmentation mode: CID
Collision energy: 50 eV
Resolution: 35000
Column name: ACQUITY UPLC BEH Amide 1.7 um 2.1x100mm, Water
Retention time: 6.281 min
Base peak: 251.1568
Precursor m/z: 251.1543
Precursor type: [M+H]+
m/z	relative intensity	assigned
115.055	214	C9H7+
116.0518	23	C8H6N+
116.0611	42	C9H8+
117.058	161	C8H7N+
118.0657	242	C8H8N+
119.0711	25	C7[13]CH8N+
120.0812	96	C8H10N+
121.0847	8	C7[13]CH10N+
127.0547	13	C10H7+
128.0501	18	C9H6N+
128.0625	80	C10H8+
129.07	41	C10H9+
130.0659	328	C9H8N+
131.0717	54	C8[13]CH8N+
132.0689	24	C8H8N2+
132.0812	144	C9H10N+
133.085	11	C8[13]CH10N+
141.0703	16	C11H9+
142.0659	15	C10H8N+
143.0734	73	C10H9N+
144.0811	76	C10H10N+
145.0781	12	C9H9N2+
146.0967	17	C10H12N+
147.0921	73	C9H11N2+
148.0953	7	C8[13]CH11N2+
152.0623	29	C12H8+
153.0696	13	C12H9+
155.0606	15	C10H7N2+
156.0811	12	C11H10N+
157.0894	8	C11H11N+
158.097	17	C11H12N+
159.0927	19	C10H11N2+
164.0619	5	C13H8+
165.0706	217	C13H9+
166.0776	117	C13H10+
167.0819	22	C12[13]CH10+
176.0626	15	C14H8+
177.07	29	C14H9+
178.0786	281	C14H10+
179.0847	94	C14H11+
180.0824	39	C13H10N+
181.0882	11	C13H11N+
181.102	23	C14H13+
189.0708	17	C15H9+
190.0778	11	C15H10+
191.0857	32	C15H11+
192.0817	100	C14H10N+
193.0898	999	C14H11N+
194.0944	139	C13[13]CH11N+
202.0791	22	C16H10+
203.0841	9	C16H11+
204.082	121	C15H10N+
205.0868	34	C15H11N+
206.0975	164	C15H12N+
207.1043	96	C15H13N+
208.113	132	C15H14N+
209.1161	22	C14[13]CH14N+
216.0825	7	C16H10N+
217.0897	68	C16H11N+
218.0972	102	C16H12N+
219.1023	33	C16H13N+
220.1122	21	C16H14N+
221.1098	11	C15H13N2+
222.1281	6	C16H16N+
232.113	11	C17H14N+
233.1108	7	C16H13N2+
235.124	8	C16H15N2+
