Mass spectrum: Maprotiline; LC-ESI-QTOF; MS2; HILIC; CE: 20 eV; R=35000; [M+H]+
Name: Maprotiline
Formula: C20H23N
Exact mass: 277.1830497
SMILES: CNCCCC12CCC(c3c1cccc3)c4c2cccc4
InChI: InChI=1S/C20H23N/c1-21-14-6-12-20-13-11-15(16-7-2-4-9-18(16)20)17-8-3-5-10-19(17)20/h2-5,7-10,15,21H,6,11-14H2,1H3
Instrument: Bruker maXis Impact
Instrument type: LC-ESI-QTOF
Ms type: MS2
Ion mode: POSITIVE
Ionization: ESI
Fragmentation mode: CID
Collision energy: 20 eV
Resolution: 35000
Column name: ACQUITY UPLC BEH Amide 1.7 um 2.1x100 mm, Waters
Retention time: 6.144 min
Base peak: 278.1942
Precursor m/z: 278.1903
Precursor type: [M+H]+
m/z	relative intensity	assigned
115.0552	8	C9H7+
117.0709	63	C9H9+
118.0741	6	C8[13]CH9+
129.0708	7	C10H9+
131.0865	27	C10H11+
141.0708	12	C11H9+
143.0864	19	C11H11+
155.0863	5	C12H11+
169.1025	106	C13H13+
170.1056	12	C12[13]CH13+
178.0789	12	C14H10+
179.0854	5	C14H11+
191.0869	26	C15H11+
193.1024	8	C15H13+
205.1025	12	C16H13+
219.1187	178	C17H15+
220.1219	26	C16[13]CH15+
247.1504	45	C19H19+
248.1535	9	C18[13]CH19+
250.1616	881	C18H20N+
251.1646	160	C17[13]CH20N+
252.1676	8	C16[13]C2H20N+
278.1935	999	C20H24N+
279.1965	264	C19[13]CH24N+
280.1995	16	C18[13]C2H24N+
