Mass spectrum: Vardenafil; LC-ESI-QTOF; MS2; CE: 20 eV; R=35000; [M+H]+
Name: Vardenafil
Name: CID 110634
Name: 2-[2-ethoxy-5-(4-ethylpiperazin-1-yl)sulfonylphenyl]-5-methyl-7-propyl-1H-imidazo[5,1-f][1,2,4]triazin-4-one
Formula: C23H32N6O4S
Exact mass: 488.2205745
SMILES: CCCC1=NC(C)=C2N1NC(=NC2=O)C1=C(OCC)C=CC(=C1)S(=O)(=O)N1CCN(CC)CC1
InChI: InChI=1S/C23H32N6O4S/c1-5-8-20-24-16(4)21-23(30)25-22(26-29(20)21)18-15-17(9-10-19(18)33-7-3)34(31,32)28-13-11-27(6-2)12-14-28/h9-10,15H,5-8,11-14H2,1-4H3,(H,25,26,30)
Instrument: Bruker maXis Impact
Instrument type: LC-ESI-QTOF
Ms type: MS2
Ion mode: POSITIVE
Ionization: ESI
Fragmentation mode: CID
Collision energy: 20 eV
Resolution: 35000
Column name: Acclaim RSLC C18 2.2um, 2.1x100mm, Thermo
Retention time: 7.733 min
Base peak: 489.2271
Precursor m/z: 489.2279
Precursor type: [M+H]+
m/z	relative intensity	assigned
489.2279	999	C23H33N6O4S+
490.2308	274	C22[13]CH33N6O4S+
491.2284	64	C23H33N6O4[34]S+
