Mass spectrum: Climbazol; LC-ESI-QTOF; MS2; CE: 50 eV; R=35000; [M+H]+
Name: Climbazol
Name: Climbazole
Name: 1-(4-chlorophenoxy)-1-imidazol-1-yl-3,3-dimethylbutan-2-one
Formula: C15H17ClN2O2
Exact mass: 292.0978555
SMILES: CC(C)(C)C(=O)C(OC1=CC=C(Cl)C=C1)N1C=CN=C1
InChI: InChI=1S/C15H17ClN2O2/c1-15(2,3)13(19)14(18-9-8-17-10-18)20-12-6-4-11(16)5-7-12/h4-10,14H,1-3H3
Instrument: Bruker maXis Impact
Instrument type: LC-ESI-QTOF
Ms type: MS2
Ion mode: POSITIVE
Ionization: ESI
Fragmentation mode: CID
Collision energy: 50 eV
Resolution: 35000
Column name: Acclaim RSLC C18 2.2um, 2.1x100mm, Thermo
Retention time: 9.802 min
Base peak: 293.1059
Precursor m/z: 293.1051
Precursor type: [M+H]+
m/z	relative intensity	assigned
110.999	131	C6H4Cl+
112.0027	15	CH5ClN2O2+
112.9962	69	C6H4[37]Cl+
113.0141	36	C6H6Cl+
115.0101	13	C6H6[37]Cl+
115.0542	22	C9H7+
117.0712	10	C9H9+
119.0479	47	C8H7O+
119.0847	35	C9H11+
120.0563	94	C8H8O+
121.0278	12	C7H5O2+
121.0746	12	CH14ClN2O2+
122.0821	8	CH15ClN2O2+
125.0138	62	C8HN2+
126.0177	13	C2H7ClN2O2+
126.9934	999	C6H4ClO+
127.0296	84	C8H3N2+
127.9978	89	C5[13]CH4ClO+
128.0606	32	C4H13ClO2+
128.9907	299	C6H4[37]ClO+
129.009	353	C6H6ClO+
129.0683	51	C4H14ClO2+
129.9952	16	C4H3ClN2O+
130.0122	33	C5[13]CH6ClO+
130.0717	9	C5H10N2O2+
131.0062	132	C6H6[37]ClO+
131.0486	27	C9H7O+
132.0099	9	C4H5ClN2O+
132.0541	15	C9H8O+
133.0637	20	C9H9O+
133.1	19	C4H18ClO2+
137.0145	42	C8H6Cl+
137.1055	9	C2H18ClN2O2+
139.0051	52	C9HNO+
140.01	12	C9H2NO+
141.0087	884	C7H6ClO+
142.0126	67	C6[13]CH6ClO+
143.0065	279	C7H6[37]ClO+
144.0094	18	C5H5ClN2O+
144.0928	10	C11H12+
145.0627	30	C10H9O+
146.0712	32	C10H10O+
147.0413	8	C9H7O2+
147.0792	103	C10H11O+
155.0247	253	C8H8ClO+
156.0281	30	C7[13]CH8ClO+
157.0215	79	C8H8[37]ClO+
161.0943	24	C11H13O+
167.0734	8	C12H9N+
170.095	19	C6H17ClNO2+
175.0744	151	C11H11O2+
176.0767	22	C10[13]CH11O2+
184.1122	16	C13H14N+
190.0986	8	C12H14O2+
