Mass spectrum: Efavirenz; LC-ESI-QTOF; MS2; CE: 50 eV; R=35000; [M+H]+
Name: Efavirenz
Name: 6-Chloro-4-(cyclopropylethynyl)-4-(trifluoromethyl)-1,4-dihydro-2H-3,1-benzoxazin-2-one
Name: 6-chloro-4-(2-cyclopropylethynyl)-4-(trifluoromethyl)-1H-3,1-benzoxazin-2-one
Formula: C14H9ClF3NO2
Exact mass: 315.0273909
SMILES: FC(F)(F)C1(OC(=O)NC2=C1C=C(Cl)C=C2)C#CC1CC1
InChI: InChI=1S/C14H9ClF3NO2/c15-9-3-4-11-10(7-9)13(14(16,17)18,21-12(20)19-11)6-5-8-1-2-8/h3-4,7-8H,1-2H2,(H,19,20)
Instrument: Bruker maXis Impact
Instrument type: LC-ESI-QTOF
Ms type: MS2
Ion mode: POSITIVE
Ionization: ESI
Fragmentation mode: CID
Collision energy: 50 eV
Resolution: 35000
Column name: Acclaim RSLC C18 2.2um, 2.1x100mm, Thermo
Retention time: 10.655 min
Base peak: 491.2315
Precursor m/z: 316.0347
Precursor type: [M+H]+
m/z	relative intensity	assigned
138.0269	220	C8H4F2+
140.0482	128	C10H6N+
141.0686	130	C11H9+
151.0168	89	C11H3O+
162.0104	157	C9H5ClN+
164.0231	129	C4H8ClF3O+
166.0634	363	C12H8N+
167.0712	999	C12H9N+
168.0798	646	C12H10N+
169.0318	112	C11H4FN+
170.0525	84	C12H7F+
172.9945	108	C8H4ClF2+
174.008	97	C13H2O+
182.0375	90	C6H10ClFNO2+
184.055	97	C12H7FN+
185.0617	111	C12H8FN+
188.0254	275	C14H4O+
189.0375	466	C11H5F2N+
190.0425	134	C11H7FO2+
191.9989	178	C10H5ClO2+
195.0469	143	C13H6FN+
196.0527	211	C13H8O2+
197.0621	170	C13H8FN+
198.0688	105	C13H10O2+
200.0063	86	C12H2F2O+
201.0313	121	C7H9ClF3O+
202.0397	234	C12H9ClN+
203.0495	98	C12H10ClN+
209.0436	103	C11H6F3N+
212.0056	168	C13H2F2O+
214.0441	151	C10H10ClFNO+
215.0523	176	C13H7F2N+
216.0611	289	C13H8F2N+
217.065	117	C13H10FO2+
222.0519	204	C12H7F3N+
224.0076	477	C11H5ClF2N+
226.0046	148	C11H5[37]ClF2N+
230.017	109	C13H6ClFN+
232.0174	107	C12H7ClNO2+
