Mass spectrum: Propanil; LC-ESI-QTOF; MS2; CE: 30 eV; R=35000; [M+H]+
Name: Propanil
Name: N-(3,4-dichlorophenyl)propanamide
Formula: C9H9Cl2NO
Exact mass: 217.0061193
SMILES: CCC(=O)NC1=CC(Cl)=C(Cl)C=C1
InChI: InChI=1S/C9H9Cl2NO/c1-2-9(13)12-6-3-4-7(10)8(11)5-6/h3-5H,2H2,1H3,(H,12,13)
Instrument: Bruker maXis Impact
Instrument type: LC-ESI-QTOF
Ms type: MS2
Ion mode: POSITIVE
Ionization: ESI
Fragmentation mode: CID
Collision energy: 30 eV
Resolution: 35000
Column name: Acclaim RSLC C18 2.2um, 2.1x100mm, Thermo
Retention time: 9.412 min
Base peak: 218.0129
Precursor m/z: 218.0134
Precursor type: [M+H]+
m/z	relative intensity	assigned
126.0099	5	C9H2O+
127.0175	999	C6H6ClN+
128.0204	66	C5[13]CH6ClN+
129.0142	283	C6H6[37]ClN+
130.0183	8	C3H10Cl2N+
161.9859	268	C6H6Cl2N+
162.989	21	C5[13]CH6Cl2N+
163.9827	172	C6H6Cl[37]ClN+
164.9867	7	C6H7Cl2O+
218.0131	9	C9H10Cl2NO+
