Mass spectrum: Clothianidin; LC-ESI-QTOF; MS2; CE: 10 eV; R=35000; [M+H]+
Name: Clothianidin
Name: n-[(2-Chloro-5-thiazolyl)methyl]-n`-methyl-n``-nitroguanidine
Name: 1-[(2-chloro-1,3-thiazol-5-yl)methyl]-2-methyl-3-nitroguanidine
Formula: C6H8ClN5O2S
Exact mass: 249.0087232
SMILES: CN\C(NCC1=CN=C(Cl)S1)=N/[N+]([O-])=O
InChI: InChI=1S/C6H8ClN5O2S/c1-8-6(11-12(13)14)10-3-4-2-9-5(7)15-4/h2H,3H2,1H3,(H2,8,10,11)
Instrument: Bruker maXis Impact
Instrument type: LC-ESI-QTOF
Ms type: MS2
Ion mode: POSITIVE
Ionization: ESI
Fragmentation mode: CID
Collision energy: 10 eV
Resolution: 35000
Column name: Acclaim RSLC C18 2.2um, 2.1x100mm, Thermo
Retention time: 4.875 min
Base peak: 250.0153
Precursor m/z: 250.016
Precursor type: [M+H]+
m/z	relative intensity	assigned
131.9657	450	C4H3ClNS+
132.9686	19	C3[13]CH3ClNS+
133.9624	130	C4H3[37]ClNS+
134.9653	5	C2H2ClN3S+
146.9763	5	C4H4ClN2S+
168.0451	260	C6H8N4S+
169.0529	999	C6H9N4S+
170.0555	59	C5[13]CH9N4S+
171.0487	30	C6H9N4[34]S+
172.9795	12	C5H4ClN3S+
174.972	13	C3H2ClN5S+
186.9944	5	CH6ClN5O2S+
203.0139	6	C6H8ClN4S+
204.0218	59	C6H9ClN4S+
205.0238	6	C5[13]CH9ClN4S+
206.0147	102	C6H9ClN3OS+
207.0172	6	C5[13]CH9ClN3OS+
208.0098	24	C6H9[37]ClN3OS+
220.0163	14	C6H9ClN4OS+
250.015	530	C6H9ClN5O2S+
251.0165	42	C5[13]CH9ClN5O2S+
252.0119	165	C6H9[37]ClN5O2S+
