Mass spectrum: Linuron; LC-ESI-QTOF; MS2; CE: 50 eV; R=35000; [M+H]+
Name: Linuron
Name: 3-(3,4-dichlorophenyl)-1-methoxy-1-methylurea
Formula: C9H10Cl2N2O2
Exact mass: 248.0119329
SMILES: CON(C)C(=O)NC1=CC=C(Cl)C(Cl)=C1
InChI: InChI=1S/C9H10Cl2N2O2/c1-13(15-2)9(14)12-6-3-4-7(10)8(11)5-6/h3-5H,1-2H3,(H,12,14)
Instrument: Bruker maXis Impact
Instrument type: LC-ESI-QTOF
Ms type: MS2
Ion mode: POSITIVE
Ionization: ESI
Fragmentation mode: CID
Collision energy: 50 eV
Resolution: 35000
Column name: Acclaim RSLC C18 2.2um, 2.1x100mm, Thermo
Retention time: 9.296 min
Base peak: 249.0183
Precursor m/z: 249.0192
Precursor type: [M+H]+
m/z	relative intensity	assigned
117.0442	18	C7H5N2+
118.0517	31	C7H6N2+
119.059	6	C7H7N2+
123.9939	52	C6H3ClN+
125.0018	507	C6H4ClN+
125.991	14	C6H3[37]ClN+
126.0087	99	C9H2O+
126.9985	112	C6H4[37]ClN+
127.0154	14	C8[13]CH2O+
128.0057	22	C3H8Cl2N+
132.9597	999	C5H3Cl2+
133.9653	75	C4[13]CH3Cl2+
134.9566	517	C5H3Cl[37]Cl+
138.0091	8	CH10Cl2NO2+
139.0043	16	Cl2H9N2O2+
139.9887	24	C6H3ClNO+
141.9853	5	C6H3[37]ClNO+
142.004	5	C9H2O2+
145.0496	13	C9H7NO+
147.9696	8	C8HClO+
153.0203	459	C7H6ClN2+
154.0232	37	C6[13]CH6ClN2+
155.0169	102	C7H6[37]ClN2+
156.0203	7	C7H7ClNO+
159.9702	98	C6H4Cl2N+
160.9781	453	C6H5Cl2N+
161.9668	52	C6H4Cl[37]ClN+
161.9799	27	C5[13]CH5Cl2N+
162.9751	236	C6H5Cl[37]ClN+
163.0044	22	C2H9Cl2N2O2+
163.9793	9	C6H6Cl2O+
163.999	7	C9H5ClO+
165.0003	6	C2H9Cl[37]ClN2O2+
165.0197	19	C2H11Cl2N2O2+
166.9992	18	C7H4ClN2O+
172.9643	5	C9ClNO+
173.9859	12	C7H6Cl2N+
174.981	8	C9H2ClNO+
175.9829	9	C7H6Cl[37]ClN+
181.0151	96	C8H6ClN2O+
182.0221	44	C8H7ClN2O+
183.0119	22	C8H6[37]ClN2O+
184.0195	9	C8H7[37]ClN2O+
201.9691	6	C7H4Cl2N2O+
203.9644	5	C7H4Cl[37]ClN2O+
216.9922	11	C8H7Cl2N2O+
218.9893	6	C8H7Cl[37]ClN2O+
