Mass spectrum: 4-Hydroxybenzotriazole; LC-ESI-QTOF; MS2; CE: 30 eV; R=35000; [M+H]+
Name: 4-Hydroxybenzotriazole
Name: Hydroxybenzotriazole
Name: 2H-benzotriazol-4-ol
Formula: C6H5N3O
Exact mass: 135.0432618
SMILES: OC1=C2N=NNC2=CC=C1
InChI: InChI=1S/C6H5N3O/c10-5-3-1-2-4-6(5)8-9-7-4/h1-3,10H,(H,7,8,9)
Instrument: Bruker maXis Impact
Instrument type: LC-ESI-QTOF
Ms type: MS2
Ion mode: POSITIVE
Ionization: ESI
Fragmentation mode: CID
Collision energy: 30 eV
Resolution: 35000
Column name: Acclaim RSLC C18 2.2um, 2.1x100mm, Thermo
Retention time: 4.028 min
Base peak: 136.0493
Precursor m/z: 136.0505
Precursor type: [M+H]+
m/z	relative intensity	assigned
136.0492	999	C6H6N3O+
