Mass spectrum: Sulfapyridine; LC-ESI-QTOF; MS2; CE: 50 eV; R=35000; [M+H]+
Name: Sulfapyridine
Name: 4-amino-N-pyridin-2-ylbenzenesulfonamide
Formula: C11H11N3O2S
Exact mass: 249.0571976
SMILES: NC1=CC=C(C=C1)S(=O)(=O)NC1=NC=CC=C1
InChI: InChI=1S/C11H11N3O2S/c12-9-4-6-10(7-5-9)17(15,16)14-11-3-1-2-8-13-11/h1-8H,12H2,(H,13,14)
Instrument: Bruker maXis Impact
Instrument type: LC-ESI-QTOF
Ms type: MS2
Ion mode: POSITIVE
Ionization: ESI
Fragmentation mode: CID
Collision energy: 50 eV
Resolution: 35000
Column name: Acclaim RSLC C18 2.2um, 2.1x100mm, Thermo
Retention time: 3.706 min
Base peak: 268.1542
Precursor m/z: 250.0645
Precursor type: [M+H]+
m/z	relative intensity	assigned
108.0422	27	C6H6NO+
115.0533	81	CH11N2O2S+
116.0487	93	H10N3O2S+
117.0565	135	H11N3O2S+
117.0687	44	C9H9+
118.0632	82	H12N3O2S+
127.0544	44	C10H7+
130.064	83	CH12N3O2S+
133.0504	82	C8H7NO+
134.0587	216	C8H8NO+
140.0484	251	C10H6N+
141.0532	40	C9[13]CH6N+
142.064	53	C2H12N3O2S+
143.0717	193	C10H9N+
144.0523	41	C8H6N3+
144.0796	184	C10H10N+
145.0634	50	C8H7N3+
145.085	30	C9[13]CH10N+
146.0594	47	C9H8NO+
154.0637	33	C3H12N3O2S+
155.059	97	C10H7N2+
156.0659	117	C10H8N2+
157.0517	38	C10H7NO+
157.0747	161	C10H9N2+
159.0542	26	C9H7N2O+
166.0511	128	C11H6N2+
167.0589	999	C11H7N2+
168.066	506	C11H8N2+
169.0706	70	C10[13]CH8N2+
182.0693	100	C11H8N3+
183.0785	521	C11H9N3+
184.0856	487	C11H10N3+
185.0725	21	C11H9N2O+
185.0886	67	C10[13]CH10N3+
