Mass spectrum: Diclofenac; LC-ESI-QTOF; MS2; CE: 10 eV; R=35000; [M-H]-
Name: Diclofenac
Name: 2-[2-(2,6-dichloroanilino)phenyl]acetic acid
Formula: C14H11Cl2NO2
Exact mass: 295.0166840
SMILES: OC(=O)CC1=C(NC2=C(Cl)C=CC=C2Cl)C=CC=C1
InChI: InChI=1S/C14H11Cl2NO2/c15-10-5-3-6-11(16)14(10)17-12-7-2-1-4-9(12)8-13(18)19/h1-7,17H,8H2,(H,18,19)
Instrument: Bruker maXis Impact
Instrument type: LC-ESI-QTOF
Ms type: MS2
Ion mode: NEGATIVE
Ionization: ESI
Fragmentation mode: CID
Collision energy: 10 eV
Resolution: 35000
Column name: Acclaim RSLC C18 2.2um, 2.1x100mm, Thermo
Retention time: 8.703 min
Base peak: 429.0537
Precursor m/z: 294.0094
Precursor type: [M-H]-
m/z	relative intensity	assigned
250.0183	999	C13H10Cl2N-
251.0197	170	C12[13]CH10Cl2N-
252.0197	450	C13H10Cl[37]ClN-
294.0096	122	C14H10Cl2NO2-
