Mass spectrum: Boscalid; LC-ESI-QTOF; MS2; CE: 20 eV; R=35000; [M-H]-
Name: Boscalid
Name: 2-chloro-N-[2-(4-chlorophenyl)phenyl]pyridine-3-carboxamide
Formula: C18H12Cl2N2O
Exact mass: 342.0326684
SMILES: ClC1=CC=C(C=C1)C1=CC=CC=C1NC(=O)C1=CC=CN=C1Cl
InChI: InChI=1S/C18H12Cl2N2O/c19-13-9-7-12(8-10-13)14-4-1-2-6-16(14)22-18(23)15-5-3-11-21-17(15)20/h1-11H,(H,22,23)
Instrument: Bruker maXis Impact
Instrument type: LC-ESI-QTOF
Ms type: MS2
Ion mode: NEGATIVE
Ionization: ESI
Fragmentation mode: CID
Collision energy: 20 eV
Resolution: 35000
Column name: Acclaim RSLC C18 2.2um, 2.1x100mm, Thermo
Retention time: 9.416 min
Base peak: 341.0239
Precursor m/z: 341.0254
Precursor type: [M-H]-
m/z	relative intensity	assigned
228.0225	783	C10H10Cl2N2-
341.0229	999	C18H11Cl2N2O-
343.0244	629	C18H11Cl[37]ClN2O-
