Mass spectrum: Propyzamide; LC-ESI-QTOF; MS2; CE: 30 eV; R=35000; [M+H]+
Name: Propyzamide
Name: 3,5-dichloro-N-(2-methylbut-3-yn-2-yl)benzamide
Formula: C12H11Cl2NO
Exact mass: 255.0217693
SMILES: CC(C)(NC(=O)C1=CC(Cl)=CC(Cl)=C1)C#C
InChI: InChI=1S/C12H11Cl2NO/c1-4-12(2,3)15-11(16)8-5-9(13)7-10(14)6-8/h1,5-7H,2-3H3,(H,15,16)
Instrument: Bruker maXis Impact
Instrument type: LC-ESI-QTOF
Ms type: MS2
Ion mode: POSITIVE
Ionization: ESI
Fragmentation mode: CID
Collision energy: 30 eV
Resolution: 35000
Column name: Acclaim RSLC C18 2.2um, 2.1x100mm, Thermo
Retention time: 9.720 min
Base peak: 256.0289
Precursor m/z: 256.029
Precursor type: [M+H]+
m/z	relative intensity	assigned
126.9928	7	C6H4ClO+
128.0021	7	C6H5ClO+
144.9594	23	C6H3Cl2+
146.9566	13	C6H3Cl[37]Cl+
146.975	77	C6H5Cl2+
147.9781	5	C5[13]CH5Cl2+
148.9718	41	C6H5Cl[37]Cl+
162.9697	33	C6H5Cl2O+
164.9675	18	C6H5Cl[37]ClO+
171.9709	10	C10HClO+
172.9547	999	C7H3Cl2O+
173.958	88	C6[13]CH3Cl2O+
174.9518	584	C7H3Cl[37]ClO+
189.9815	612	C7H6Cl2NO+
190.9836	43	C6[13]CH6Cl2NO+
191.9784	310	C7H6Cl[37]ClNO+
227.0206	7	C11H11Cl2N+
