Mass spectrum: Sulcotrione; LC-ESI-QTOF; MS2; CE: 10 eV; R=35000; [M+H]+
Name: Sulcotrione
Name: 2-(2-chloro-4-methylsulfonylbenzoyl)cyclohexane-1,3-dione
Formula: C14H13ClO5S
Exact mass: 328.0172222
SMILES: CS(=O)(=O)C1=CC(Cl)=C(C=C1)C(=O)C1C(=O)CCCC1=O
InChI: InChI=1S/C14H13ClO5S/c1-21(19,20)8-5-6-9(10(15)7-8)14(18)13-11(16)3-2-4-12(13)17/h5-7,13H,2-4H2,1H3
Instrument: Bruker maXis Impact
Instrument type: LC-ESI-QTOF
Ms type: MS2
Ion mode: POSITIVE
Ionization: ESI
Fragmentation mode: CID
Collision energy: 10 eV
Resolution: 35000
Column name: Acclaim RSLC C18 2.2um, 2.1x100mm, Thermo
Retention time: 5.229 min
Base peak: 346.0505
Precursor m/z: 329.0245
Precursor type: [M+H]+
m/z	relative intensity	assigned
139.036	86	CH12ClO5+
157.0485	77	C7H9O4+
329.024	999	C14H14ClO5S+
330.0271	185	C13[13]CH14ClO5S+
331.0216	338	C14H14[37]ClO5S+
