Mass spectrum: Medroxyprogesterone; LC-ESI-QTOF; MS2; CE: Ramp 22.5-33.8 eV; R=35000; [M+H]+
Name: Medroxyprogesterone
Name: (6S,8R,9S,10R,13S,14S,17R)-17-acetyl-17-hydroxy-6,10,13-trimethyl-2,6,7,8,9,11,12,14,15,16-decahydro-1H-cyclopenta[a]phenanthren-3-one
Formula: C22H32O3
Exact mass: 344.2351449
SMILES: [H][C@@]12CC[C@](O)(C(C)=O)[C@@]1(C)CC[C@@]1([H])[C@@]2([H])C[C@H](C)C2=CC(=O)CC[C@]12C
InChI: InChI=1S/C22H32O3/c1-13-11-16-17(20(3)8-5-15(24)12-19(13)20)6-9-21(4)18(16)7-10-22(21,25)14(2)23/h12-13,16-18,25H,5-11H2,1-4H3/t13-,16+,17-,18-,20+,21-,22-/m0/s1
Instrument: Bruker maXis Impact
Instrument type: LC-ESI-QTOF
Ms type: MS2
Ion mode: POSITIVE
Ionization: ESI
Fragmentation mode: CID
Collision energy: Ramp 22.5-33.8 eV
Resolution: 35000
Column name: Acclaim RSLC C18 2.2um, 2.1x100mm, Thermo
Retention time: 10.703 min
Base peak: 345.2424
Precursor m/z: 345.2424
Precursor type: [M+H]+
m/z	relative intensity	assigned
67.0538	12	C5H7+
69.0694	7	C5H9+
79.0542	8	C6H7+
81.0693	14	C6H9+
83.0485	35	C5H7O+
83.0856	5	C6H11+
85.0653	5	C5H9O+
93.0697	13	C7H9+
95.0851	21	C7H11+
97.0653	293	C6H9O+
98.0682	22	C5[13]CH9O+
99.0807	9	C6H11O+
107.0857	8	C8H11+
119.0845	17	C9H11+
121.0646	5	C8H9O+
121.1	24	C9H13+
123.0799	999	C8H11O+
124.0829	126	C7[13]CH11O+
131.0846	15	C10H11+
133.1005	32	C10H13+
134.1039	5	C9[13]CH13+
135.0797	18	C9H11O+
135.1163	14	C10H15+
137.0951	122	C9H13O+
138.0977	10	C8[13]CH13O+
143.0839	11	C11H11+
145.1004	47	C11H13+
146.1043	6	C10[13]CH13+
147.0792	9	C10H11O+
147.1159	44	C11H15+
149.0944	21	C10H13O+
149.1316	8	C11H17+
151.1101	9	C10H15O+
157.1004	25	C12H13+
159.1152	41	C12H15+
161.095	19	C11H13O+
161.1317	46	C12H17+
162.1356	6	C11[13]CH17+
163.1101	37	C11H15O+
163.1462	7	C12H19+
165.1245	6	C11H17O+
169.0994	10	C13H13+
171.1154	35	C13H15+
172.119	5	C12[13]CH15+
173.0944	7	C12H13O+
173.1314	63	C13H17+
174.1354	14	C12[13]CH17+
175.1107	23	C12H15O+
175.1469	46	C13H19+
176.15	7	C12[13]CH19+
177.1266	36	C12H17O+
178.1307	5	C11[13]CH17O+
183.1151	19	C14H15+
184.1191	5	C13[13]CH15+
185.1312	32	C14H17+
186.1354	6	C13[13]CH17+
187.1109	19	C13H15O+
187.1469	37	C14H19+
188.1497	5	C13[13]CH19+
189.1261	35	C13H17O+
189.1633	9	C14H21+
190.1291	6	C12[13]CH17O+
191.1421	39	C13H19O+
192.1451	7	C12[13]CH19O+
195.116	7	C15H15+
197.1319	28	C15H17+
198.1353	5	C14[13]CH17+
199.1108	6	C14H15O+
199.1473	43	C15H19+
200.1519	9	C14[13]CH19+
201.1258	9	C14H17O+
201.1616	15	C15H21+
203.1424	35	C14H19O+
203.1794	7	C15H23+
204.1449	6	C13[13]CH19O+
205.1582	37	C14H21O+
206.1638	6	C13[13]CH21O+
209.131	9	C16H17+
211.1466	29	C16H19+
213.1275	9	C15H17O+
213.1624	22	C16H21+
214.1339	24	C15H18O+
214.1666	5	C15[13]CH21+
215.142	46	C15H19O+
215.1785	5	C16H23+
216.1463	7	C14[13]CH19O+
217.157	40	C15H21O+
218.1618	6	C14[13]CH21O+
223.1473	7	C17H19+
225.1623	26	C17H21+
226.166	7	C17H22+
227.1439	5	C16H19O+
227.1786	28	C17H23+
228.182	6	C16[13]CH23+
229.1565	14	C16H21O+
231.1732	20	C16H23O+
237.1618	7	C18H21+
239.1417	21	C17H19O+
239.1768	14	C18H23+
241.1607	5	C17H21O+
241.1952	9	C18H25+
243.1731	14	C17H23O+
245.1886	22	C17H25O+
249.1647	6	C19H21+
251.1784	24	C19H23+
253.1595	9	C18H21O+
253.1939	6	C19H25+
255.1736	12	C18H23O+
257.153	78	C17H21O2+
257.1898	11	C18H25O+
258.1569	13	C16[13]CH21O2+
259.2054	7	C18H27O+
265.1939	8	C20H25+
266.2008	14	C20H26+
267.172	11	C19H23O+
267.2102	97	C20H27+
268.2132	17	C19[13]CH27+
269.1899	28	C19H25O+
271.2066	6	C19H27O+
273.1835	7	C18H25O2+
275.164	84	C17H23O3+
276.1664	11	C16[13]CH23O3+
281.2257	7	C21H29+
283.205	23	C20H27O+
284.2133	28	C20H28O+
285.1823	5	C19H25O2+
285.2203	107	C20H29O+
286.2222	25	C19[13]CH29O+
291.2102	21	C22H27+
292.2145	6	C21[13]CH27+
299.2373	7	C21H31O+
303.2328	10	C20H31O2+
309.2212	102	C22H29O+
310.2244	24	C21[13]CH29O+
327.2323	155	C22H31O2+
328.2348	34	C21[13]CH31O2+
345.2426	914	C22H33O3+
346.2459	299	C21[13]CH33O3+
347.248	28	C20[13]C2H33O3+
