Mass spectrum: Glimepiride; LC-ESI-QTOF; MS2; CE: 40 eV; R=35000; [M+H]+
Name: Glimepiride
Name: 4-ethyl-3-methyl-N-[2-[4-[(4-methylcyclohexyl)carbamoylsulfamoyl]phenyl]ethyl]-5-oxo-2H-pyrrole-1-carboxamide
Formula: C24H34N4O5S
Exact mass: 490.2249912
SMILES: CCC1=C(C)CN(C(=O)NCCC2=CC=C(C=C2)S(=O)(=O)NC(=O)NC2CCC(C)CC2)C1=O
InChI: InChI=1S/C24H34N4O5S/c1-4-21-17(3)15-28(22(21)29)24(31)25-14-13-18-7-11-20(12-8-18)34(32,33)27-23(30)26-19-9-5-16(2)6-10-19/h7-8,11-12,16,19H,4-6,9-10,13-15H2,1-3H3,(H,25,31)(H2,26,27,30)
Instrument: Bruker maXis Impact
Instrument type: LC-ESI-QTOF
Ms type: MS2
Ion mode: POSITIVE
Ionization: ESI
Fragmentation mode: CID
Collision energy: 40 eV
Resolution: 35000
Column name: Acclaim RSLC C18 2.2um, 2.1x100mm, Thermo
Retention time: 10.636 min
Base peak: 491.2316
Precursor m/z: 491.2323
Precursor type: [M+H]+
m/z	relative intensity	assigned
118.0641	5	H12N3O2S+
124.0747	50	C5H8N4+
126.0906	999	C5H10N4+
127.0938	75	C4[13]CH10N4+
151.0208	8	C8H7OS+
151.0858	11	H15N4O3S+
152.0698	73	C6H8N4O+
153.0723	7	C5[13]CH8N4O+
167.015	155	C11H3O2+
168.0183	17	C10[13]CH3O2+
169.0046	31	C3H7NO5S+
170.0798	109	C6H10N4O2+
171.0821	7	C5[13]CH10N4O2+
174.0648	52	C9H8N3O+
175.0695	5	C8[13]CH8N3O+
179.0805	15	CH15N4O4S+
181.096	265	C9H13N2O2+
182.0991	32	C8[13]CH13N2O2+
184.0411	15	C6H8N4OS+
192.0104	7	C7H4N4OS+
210.0211	36	C15H2N2+
228.1368	5	C13H16N4+
229.0631	15	C15H7N3+
243.1492	8	C15H19N2O+
246.043	19	C9H12NO5S+
271.1437	28	C13H21NO5+
272.1453	5	C12[13]CH21NO5+
287.1384	19	C16H19N2O3+
288.1418	5	C15[13]CH19N2O3+
292.1011	11	C15H18NO3S+
304.0738	5	C20H8N4+
335.1062	74	C16H19N2O4S+
336.1095	13	C15[13]CH19N2O4S+
352.1325	30	C21H20O5+
353.1342	7	C20[13]CH20O5+
394.1661	19	C18H26N4O4S+
