Mass spectrum: 17alpha-Hydroxyprogesterone; LC-ESI-QTOF; MS2; CE: 20 eV; R=35000; [M+H]+
Name: 17alpha-Hydroxyprogesterone
Name: 17alpha-Hydroxypregn-4-ene-3,20-dione
Name: 17-acetyl-17-hydroxy-10,13-dimethyl-2,6,7,8,9,11,12,14,15,16-decahydro-1H-cyclopenta[a]phenanthren-3-one
Formula: C21H30O3
Exact mass: 330.2194948
SMILES: CC(=O)C1(O)CCC2C3CCC4=CC(=O)CCC4(C)C3CCC12C
InChI: InChI=1S/C21H30O3/c1-13(22)21(24)11-8-18-16-5-4-14-12-15(23)6-9-19(14,2)17(16)7-10-20(18,21)3/h12,16-18,24H,4-11H2,1-3H3
Instrument: Bruker maXis Impact
Instrument type: LC-ESI-QTOF
Ms type: MS2
Ion mode: POSITIVE
Ionization: ESI
Fragmentation mode: CID
Collision energy: 20 eV
Resolution: 35000
Column name: Acclaim RSLC C18 2.2um, 2.1x100mm, Thermo
Retention time: 10.003 min
Base peak: 331.2268
Precursor m/z: 331.2268
Precursor type: [M+H]+
m/z	relative intensity	assigned
121.0637	5	C8H9O+
123.0794	14	C8H11O+
137.0952	11	C9H13O+
145.1	14	C11H13+
147.1156	7	C11H15+
149.0957	5	C10H13O+
157.1002	7	C12H13+
159.1155	12	C12H15+
161.1312	10	C12H17+
163.1105	25	C11H15O+
171.1156	11	C13H15+
173.1314	10	C13H17+
175.1106	10	C12H15O+
175.1466	13	C13H19+
177.1264	21	C12H17O+
185.1313	7	C14H17+
187.1474	10	C14H19+
189.1267	10	C13H17O+
191.1422	6	C13H19O+
197.1312	6	C15H17+
199.1465	14	C15H19+
203.1425	8	C14H19O+
205.1577	23	C14H21O+
211.1473	7	C16H19+
213.1626	13	C16H21+
215.1424	5	C15H19O+
217.1575	20	C15H21O+
225.1629	6	C17H21+
229.1578	8	C16H21O+
231.1733	16	C16H23O+
237.1624	10	C18H21+
241.1576	8	C17H21O+
243.1739	6	C17H23O+
245.1892	6	C17H25O+
251.1788	6	C19H23+
253.1944	54	C19H25+
254.1977	12	C18[13]CH25+
255.1738	16	C18H23O+
259.169	10	C17H23O2+
269.1895	15	C19H25O+
270.1955	8	C19H26O+
271.2053	86	C19H27O+
272.2083	17	C18[13]CH27O+
277.195	14	C21H25+
285.2195	5	C20H29O+
287.2013	7	C19H27O2+
289.2153	14	C19H29O2+
295.205	84	C21H27O+
296.2099	18	C20[13]CH27O+
313.216	205	C21H29O2+
314.2194	43	C20[13]CH29O2+
315.2222	5	C19[13]C2H29O2+
331.2268	999	C21H31O3+
332.23	184	C20[13]CH31O3+
333.2332	25	C19[13]C2H31O3+
