Mass spectrum: Celecoxib; LC-ESI-QTOF; MS2; CE: 50 eV; R=35000; [M+H]+
Name: Celecoxib
Name: 4-[5-(4-methylphenyl)-3-(trifluoromethyl)pyrazol-1-yl]benzenesulfonamide
Formula: C17H14F3N3O2S
Exact mass: 381.0758823
SMILES: CC1=CC=C(C=C1)C1=CC(=NN1C1=CC=C(C=C1)S(N)(=O)=O)C(F)(F)F
InChI: InChI=1S/C17H14F3N3O2S/c1-11-2-4-12(5-3-11)15-10-16(17(18,19)20)22-23(15)13-6-8-14(9-7-13)26(21,24)25/h2-10H,1H3,(H2,21,24,25)
Instrument: Bruker maXis Impact
Instrument type: LC-ESI-QTOF
Ms type: MS2
Ion mode: POSITIVE
Ionization: ESI
Fragmentation mode: CID
Collision energy: 50 eV
Resolution: 35000
Column name: Acclaim RSLC C18 2.2um, 2.1x100mm, Thermo
Retention time: 10.254 min
Base peak: 494.1503
Precursor m/z: 382.0832
Precursor type: [M+H]+
m/z	relative intensity	assigned
115.0538	60	C4H6FN3+
116.0602	15	CH12N2O2S+
118.0658	15	C5H9FNO+
125.0193	34	C2H2F3N3+
130.0631	95	CH13F3OS+
131.0714	59	CH14F3OS+
133.0441	41	CH10FN2O2S+
134.0388	26	C3H8N3OS+
138.0263	17	C3H7FN2OS+
138.9829	36	C4H2F3S+
140.0471	14	C5H10F2S+
142.0628	15	C2H13F3OS+
153.0504	49	CH11F2N2O2S+
155.0592	15	C2H12F3NOS+
160.0546	29	C2H11FN3O2S+
164.0303	16	C6H9FO2S+
164.0489	15	C4H10N3O2S+
165.0373	285	C9H9OS+
165.0692	29	C5H13N2O2S+
166.0453	76	CH10F2N3O2S+
172.0374	20	C8H5F3N+
177.0504	21	C3H11F2N2O2S+
178.064	29	C5H12N3O2S+
178.0776	22	C9H9FN3+
179.0523	16	C5H10FN3OS+
179.0852	65	C9H10FN3+
180.0612	106	C13H8O+
181.0654	19	C12[13]CH8O+
182.0439	19	C9H9FNS+
184.0154	68	C9H6F2S+
184.0359	44	CH9F3N3O2S+
185.0437	87	CH10F3N3O2S+
186.0424	20	C10H6N2O2+
190.0643	36	C6H12N3O2S+
191.0708	51	C6H14F3OS+
192.0785	30	C6H15F3OS+
193.0876	48	C6H15N3O2S+
194.0933	16	C4H15F3N3S+
198.0517	15	C2H11F3N3O2S+
203.0743	15	C12H10FNO+
204.0792	57	C7H15F3OS+
205.0858	35	C10H15F2S+
206.0952	160	C15H12N+
207.1039	251	C15H13N+
208.1092	63	C14[13]CH13N+
210.0876	18	C12H15FS+
212.0428	27	C9H5F3N3+
214.0649	20	C16H8N+
216.0795	20	C8H15F3OS+
217.0863	29	C11H15F2S+
218.0833	73	C15H10N2+
219.0873	19	C14[13]CH10N2+
221.0186	74	C7H7F2N2O2S+
221.0735	20	C11H13N2OS+
225.0638	22	C11H8F3N2+
229.0747	18	C8H14F3NOS+
230.0835	29	C16H10N2+
231.0915	90	C16H11N2+
232.098	148	C16H12N2+
233.0728	19	C12H10FN2O2+
233.1066	355	C16H13N2+
234.0696	28	C11H12N3OS+
234.1115	64	C15[13]CH13N2+
235.0799	61	C13H11F2NO+
236.085	64	C11H14N3OS+
237.0884	19	C14H12F3+
238.0598	27	C13H9F3O+
240.0618	30	C15H8F2N+
241.071	18	C12H10F3NO+
242.0827	19	C9H15F3NOS+
243.0916	35	C17H11N2+
244.0915	15	C10H15FN3OS+
246.0587	21	C16H7FN2+
247.0647	83	C13H9F2N2O+
248.0668	14	C12[13]CH9F2N2O+
248.0766	20	C12[13]CH9F2N2O+
249.102	24	C16H13N2O+
252.0809	19	C11H14N3O2S+
254.0808	24	C13H14F2NS+
255.0729	73	C15H9F2N2+
256.0773	28	C12H11F3N2O+
256.088	25	C12H11F3N2O+
260.0727	19	C12H13F3NS+
261.0818	171	C14H15NO2S+
262.0898	129	C17H11FN2+
263.097	217	C17H12FN2+
264.1002	55	C16[13]CH12FN2+
265.0567	17	C13H12FNO2S+
266.0663	26	C13H9F3N2O+
267.0722	416	C16H13NOS+
268.0747	102	C15[13]CH13NOS+
269.0845	18	C16H12FNO2+
272.0629	22	C14H8F2N3O+
273.0711	39	C14H9F2N3O+
275.0779	39	C15H14FNOS+
275.0935	14	C16H12F3N+
279.0958	33	C17H15N2S+
280.0809	68	C17H10F2N2+
281.088	999	C17H11F2N2+
282.0946	868	C17H12F2N2+
283.1007	293	C17H14FNO2+
284.0707	14	C14H13F3NS+
284.1046	49	C16[13]CH14FNO2+
285.0691	33	C17H10F3N+
285.0828	16	C17H10F3N+
286.0738	54	C13H13F3N2S+
287.0774	165	C13H15F2NO2S+
288.0821	33	C12[13]CH15F2NO2S+
294.0788	41	C17H11FN2O2+
299.0637	30	C13H12F3N3S+
299.0751	31	C13H12F3N3S+
299.1024	23	C14H14F3N2O2+
300.0873	164	C17H11F3N2+
301.0933	536	C17H12F3N2+
302.1002	243	C17H14F2NO2+
303.1079	118	C17H15F2NO2+
312.0694	55	C17H10F2N2O2+
313.0797	34	C17H14FN2OS+
314.0847	278	C17H12F2N2O2+
315.0888	59	C16[13]CH12F2N2O2+
317.0884	17	C17H12F3N2O+
332.0764	133	C17H11F3N2O2+
333.0809	23	C16[13]CH11F3N2O2+
334.0907	58	C17H13F3N2O2+
335.0994	15	C16[13]CH13F3N2O2+
342.0707	49	C17H13FN3O2S+
343.0699	18	C15H14F3N2O2S+
362.0766	403	C17H14F2N3O2S+
363.08	130	C17H15F2N3O2S+
364.0736	29	C17H14F2N3O2[34]S+
382.0806	19	C17H15F3N3O2S+
