Mass spectrum: Efavirenz; LC-ESI-QTOF; MS2; CE: Ramp 21.9-32.9 eV; R=35000; [M+H]+
Name: Efavirenz
Name: 6-Chloro-4-(cyclopropylethynyl)-4-(trifluoromethyl)-1,4-dihydro-2H-3,1-benzoxazin-2-one
Name: 6-chloro-4-(2-cyclopropylethynyl)-4-(trifluoromethyl)-1H-3,1-benzoxazin-2-one
Formula: C14H9ClF3NO2
Exact mass: 315.0273909
SMILES: FC(F)(F)C1(OC(=O)NC2=C1C=C(Cl)C=C2)C#CC1CC1
InChI: InChI=1S/C14H9ClF3NO2/c15-9-3-4-11-10(7-9)13(14(16,17)18,21-12(20)19-11)6-5-8-1-2-8/h3-4,7-8H,1-2H2,(H,19,20)
Instrument: Bruker maXis Impact
Instrument type: LC-ESI-QTOF
Ms type: MS2
Ion mode: POSITIVE
Ionization: ESI
Fragmentation mode: CID
Collision energy: Ramp 21.9-32.9 eV
Resolution: 35000
Column name: Acclaim RSLC C18 2.2um, 2.1x100mm, Thermo
Retention time: 10.649 min
Base peak: 491.2326
Precursor m/z: 316.0347
Precursor type: [M+H]+
m/z	relative intensity	assigned
53.0385	251	C4H5+
167.071	220	C12H9N+
168.0792	999	C12H10N+
169.0833	153	C11[13]CH10N+
185.0443	61	C9H6F3N+
188.0242	158	C14H4O+
189.0372	56	C5H10ClF2NO2+
190.0461	52	C11H6F2N+
201.0332	158	C12H8ClN+
202.0409	177	C7H10ClF3O+
203.0311	68	C12H8[37]ClN+
203.0475	270	C10H10ClF2+
204.0349	64	C7H10[37]ClF3O+
205.044	103	C10H10[37]ClF2+
209.0414	78	C8H10ClF2NO+
212.0069	124	C13H2F2O+
216.0616	105	C13H8F2N+
217.0708	100	C10H10F3NO+
220.0106	86	C9H7ClF2O2+
222.0509	246	C12H7F3N+
223.0576	66	C12H9F2O2+
224.007	448	C11H5ClF2N+
225.0094	55	C10[13]CH5ClF2N+
226.0036	144	C11H5[37]ClF2N+
232.0122	432	C10H6ClF3N+
233.0168	60	C9[13]CH6ClF3N+
234.0118	149	C10H6[37]ClF3N+
235.0597	83	C13H8F3N+
236.0678	160	C13H9F3N+
237.0147	67	C12H6ClF2N+
237.0747	252	C13H10F3N+
244.0119	887	C11H6ClF3N+
245.0185	107	C10[13]CH6ClF3N+
246.0096	261	C11H6[37]ClF3N+
250.0227	246	C13H8ClFO2+
251.0263	63	C13H9ClFO2+
252.0161	62	C13H8[37]ClFO2+
252.0338	119	C13H10ClFO2+
270.0303	106	C13H8ClF3N+
272.0435	55	C13H10ClF3N+
278.0146	86	C14H7ClF2NO+
