Mass spectrum: Sulfapyridine; LC-ESI-QTOF; MS2; CE: 30 eV; R=35000; [M+H]+
Name: Sulfapyridine
Name: 4-amino-N-pyridin-2-ylbenzenesulfonamide
Formula: C11H11N3O2S
Exact mass: 249.0571976
SMILES: NC1=CC=C(C=C1)S(=O)(=O)NC1=NC=CC=C1
InChI: InChI=1S/C11H11N3O2S/c12-9-4-6-10(7-5-9)17(15,16)14-11-3-1-2-8-13-11/h1-8H,12H2,(H,13,14)
Instrument: Bruker maXis Impact
Instrument type: LC-ESI-QTOF
Ms type: MS2
Ion mode: POSITIVE
Ionization: ESI
Fragmentation mode: CID
Collision energy: 30 eV
Resolution: 35000
Column name: Acclaim RSLC C18 2.2um, 2.1x100mm, Thermo
Retention time: 3.708 min
Base peak: 268.1541
Precursor m/z: 250.0645
Precursor type: [M+H]+
m/z	relative intensity	assigned
108.0446	14	C6H6NO+
134.0587	16	C8H8NO+
144.0801	20	C10H10N+
146.0595	9	C9H8NO+
156.0103	685	C6H6NO2S+
157.0077	107	C5H5N2O2S+
157.0741	9	C10H9N2+
158.0064	42	C6H6NO2[34]S+
167.0593	73	C11H7N2+
168.0665	32	C11H8N2+
169.075	22	C11H9N2+
172.0725	13	C11H10NO+
183.0778	38	C11H9N3+
184.086	999	C11H10N3+
185.089	136	C10[13]CH10N3+
186.0999	19	C11H12N3+
250.0631	22	C11H12N3O2S+
