Mass spectrum: 17alpha-Hydroxyprogesterone; LC-ESI-QTOF; MS2; CE: Ramp 22.2-33.3 eV; R=35000; [M+H]+
Name: 17alpha-Hydroxyprogesterone
Name: 17alpha-Hydroxypregn-4-ene-3,20-dione
Name: 17-acetyl-17-hydroxy-10,13-dimethyl-2,6,7,8,9,11,12,14,15,16-decahydro-1H-cyclopenta[a]phenanthren-3-one
Formula: C21H30O3
Exact mass: 330.2194948
SMILES: CC(=O)C1(O)CCC2C3CCC4=CC(=O)CCC4(C)C3CCC12C
InChI: InChI=1S/C21H30O3/c1-13(22)21(24)11-8-18-16-5-4-14-12-15(23)6-9-19(14,2)17(16)7-10-20(18,21)3/h12,16-18,24H,4-11H2,1-3H3
Instrument: Bruker maXis Impact
Instrument type: LC-ESI-QTOF
Ms type: MS2
Ion mode: POSITIVE
Ionization: ESI
Fragmentation mode: CID
Collision energy: Ramp 22.2-33.3 eV
Resolution: 35000
Column name: Acclaim RSLC C18 2.2um, 2.1x100mm, Thermo
Retention time: 10.001 min
Base peak: 331.2266
Precursor m/z: 331.2268
Precursor type: [M+H]+
m/z	relative intensity	assigned
55.0537	5	C4H7+
67.0537	9	C5H7+
69.0694	6	C5H9+
79.0538	17	C6H7+
81.0691	27	C6H9+
83.049	52	C5H7O+
85.0639	7	C5H9O+
87.0443	5	C4H7O2+
93.0704	16	C7H9+
95.0856	24	C7H11+
97.0656	357	C6H9O+
98.0685	30	C5[13]CH9O+
105.0703	7	C8H9+
107.0869	7	C8H11+
109.0661	199	C7H9O+
110.0693	19	C6[13]CH9O+
119.0845	22	C9H11+
121.0643	18	C8H9O+
121.1005	18	C9H13+
123.0801	88	C8H11O+
124.0826	5	C7[13]CH11O+
131.0845	22	C10H11+
133.0999	34	C10H13+
134.1047	5	C9[13]CH13+
135.0802	13	C9H11O+
135.1157	17	C10H15+
137.0952	44	C9H13O+
139.1106	5	C9H15O+
143.0847	20	C11H11+
145.1002	96	C11H13+
146.1028	10	C10[13]CH13+
147.0793	10	C10H11O+
147.1156	48	C11H15+
148.1193	7	C10[13]CH15+
149.095	25	C10H13O+
149.1312	13	C11H17+
151.1107	10	C10H15O+
155.0836	12	C12H11+
157.1001	38	C12H13+
158.1045	6	C11[13]CH13+
159.1153	76	C12H15+
160.1193	11	C11[13]CH15+
161.0951	20	C11H13O+
161.1313	42	C12H17+
162.1334	5	C11[13]CH17+
163.1106	102	C11H15O+
163.1463	9	C12H19+
164.114	11	C10[13]CH15O+
169.0998	27	C13H13+
170.105	5	C12[13]CH13+
171.1162	56	C13H15+
172.119	9	C12[13]CH15+
173.0953	8	C12H13O+
173.1316	59	C13H17+
174.1346	8	C12[13]CH17+
175.1113	37	C12H15O+
175.147	55	C13H19+
177.1264	67	C12H17O+
178.1299	8	C11[13]CH17O+
181.1	6	C14H13+
183.1161	24	C14H15+
185.1309	45	C14H17+
186.1347	6	C13[13]CH17+
187.1099	14	C13H15O+
187.1473	42	C14H19+
188.1503	6	C13[13]CH19+
189.1263	37	C13H17O+
189.1635	13	C14H21+
190.1297	8	C12[13]CH17O+
191.1415	20	C13H19O+
195.1153	10	C15H15+
197.1306	34	C15H17+
198.1375	6	C14[13]CH17+
199.1471	43	C15H19+
200.1512	10	C14[13]CH19+
201.1263	15	C14H17O+
201.1623	15	C15H21+
203.1419	38	C14H19O+
204.1451	5	C13[13]CH19O+
205.1575	58	C14H21O+
206.1609	7	C13[13]CH21O+
209.1305	18	C16H17+
211.1472	42	C16H19+
212.1522	10	C15[13]CH19+
213.126	12	C15H17O+
213.1636	46	C16H21+
214.1658	7	C15[13]CH21+
215.1413	16	C15H19O+
216.147	5	C15H20O+
217.1577	48	C15H21O+
218.1615	11	C14[13]CH21O+
221.1311	5	C17H17+
223.1474	9	C17H19+
225.1268	6	C16H17O+
225.1625	20	C17H21+
226.1654	5	C16[13]CH21+
227.1428	8	C16H19O+
227.1791	13	C17H23+
229.1579	22	C16H21O+
231.173	30	C16H23O+
232.1759	6	C15[13]CH23O+
235.1464	8	C18H19+
237.1624	40	C18H21+
238.1671	6	C17[13]CH21+
239.1418	11	C17H19O+
239.1767	5	C18H23+
241.1586	19	C17H21O+
242.1604	5	C16[13]CH21O+
243.1732	17	C17H23O+
245.1891	13	C17H25O+
251.1794	17	C19H23+
252.1858	13	C19H24+
253.1578	10	C18H21O+
253.195	152	C19H25+
254.1982	27	C18[13]CH25+
255.1735	47	C18H23O+
256.1773	7	C17[13]CH23O+
257.1882	7	C18H25O+
259.1679	23	C17H23O2+
267.21	11	C20H27+
269.1891	37	C19H25O+
270.1968	22	C19H26O+
271.2057	208	C19H27O+
272.2083	37	C18[13]CH27O+
273.1846	9	C18H25O2+
277.1952	28	C21H25+
278.1974	8	C20[13]CH25+
285.2206	11	C20H29O+
287.2003	15	C19H27O2+
289.2154	27	C19H29O2+
295.2056	157	C21H27O+
296.2092	35	C20[13]CH27O+
297.2153	5	C19[13]C2H27O+
313.2165	303	C21H29O2+
314.2196	73	C20[13]CH29O2+
315.2229	9	C19[13]C2H29O2+
331.227	999	C21H31O3+
332.2305	255	C20[13]CH31O3+
333.233	28	C19[13]C2H31O3+
