Mass spectrum: Sotalol; LC-ESI-QTOF; MS2; CE: 20 eV; R=35000; [M+H]+
Name: Sotalol
Name: N-[4-[1-hydroxy-2-(propan-2-ylamino)ethyl]phenyl]methanesulfonamide
Formula: C12H20N2O3S
Exact mass: 272.1194635
SMILES: CC(C)NCC(O)C1=CC=C(NS(C)(=O)=O)C=C1
InChI: InChI=1S/C12H20N2O3S/c1-9(2)13-8-12(15)10-4-6-11(7-5-10)14-18(3,16)17/h4-7,9,12-15H,8H2,1-3H3
Instrument: Bruker maXis Impact
Instrument type: LC-ESI-QTOF
Ms type: MS2
Ion mode: POSITIVE
Ionization: ESI
Fragmentation mode: CID
Collision energy: 20 eV
Resolution: 35000
Column name: Acclaim RSLC C18 2.2um, 2.1x100mm, Thermo
Retention time: 2.875 min
Base peak: 273.1266
Precursor m/z: 273.1267
Precursor type: [M+H]+
m/z	relative intensity	assigned
133.0749	184	C8H9N2+
134.082	70	C5H12NO3+
135.0851	6	C4[13]CH12NO3+
176.1293	101	C11H16N2+
177.1324	16	C10[13]CH16N2+
198.0569	5	C9H12NO2S+
213.0682	999	C9H13N2O2S+
214.0709	87	C8[13]CH13N2O2S+
215.0648	32	C9H13N2O2[34]S+
255.1154	906	C12H19N2O2S+
256.1181	113	C11[13]CH19N2O2S+
257.1114	30	C12H19N2O2[34]S+
273.1253	5	C12H21N2O3S+
