Mass spectrum: Cyproterone; LC-ESI-QTOF; MS2; CE: 20 eV; R=35000; [M+H]+
Name: Cyproterone
Name: (1S,2S,3S,5R,11R,12S,15R,16S)-15-acetyl-9-chloro-15-hydroxy-2,16-dimethylpentacyclo[9.7.0.02,8.03,5.012,16]octadeca-7,9-dien-6-one
Formula: C22H27ClO3
Exact mass: 374.1648724
SMILES: CC(=O)[C@@]1(O)CC[C@H]2[C@@H]3C=C(Cl)C4=CC(=O)[C@@H]5C[C@@H]5[C@]4(C)[C@H]3CC[C@]12C
InChI: InChI=1S/C22H27ClO3/c1-11(24)22(26)7-5-14-12-9-18(23)17-10-19(25)13-8-16(13)21(17,3)15(12)4-6-20(14,22)2/h9-10,12-16,26H,4-8H2,1-3H3/t12-,13+,14-,15-,16-,20-,21-,22-/m0/s1
Instrument: Bruker maXis Impact
Instrument type: LC-ESI-QTOF
Ms type: MS2
Ion mode: POSITIVE
Ionization: ESI
Fragmentation mode: CID
Collision energy: 20 eV
Resolution: 35000
Column name: Acclaim RSLC C18 2.2um, 2.1x100mm, Thermo
Retention time: 10.104 min
Base peak: 375.1722
Precursor m/z: 375.1721
Precursor type: [M+H]+
m/z	relative intensity	assigned
133.1001	7	C10H13+
147.116	10	C11H15+
175.1104	8	C6H20ClO3+
219.0564	22	C13H12ClO+
239.1414	5	C11H24ClO3+
249.1636	5	C19H21+
251.1425	6	C18H19O+
261.1627	7	C20H21+
263.1431	5	C19H19O+
273.1037	6	C17H18ClO+
277.158	12	C20H21O+
278.1644	10	C14H27ClO3+
279.1731	32	C14H28ClO3+
280.1767	5	C13[13]CH28ClO3+
293.1528	10	C20H21O2+
293.19	9	C21H25O+
297.1856	5	C20H25O2+
303.1733	17	C22H23O+
306.1617	5	C21H22O2+
313.1357	14	C20H22ClO+
314.1426	12	C20H23ClO+
315.1497	18	C20H24ClO+
316.152	5	C19[13]CH24ClO+
317.1464	5	C20H24[37]ClO+
321.185	148	C22H25O2+
322.1876	36	C21[13]CH25O2+
339.1502	6	C22H24ClO+
339.1944	8	C22H27O3+
357.1615	68	C22H26ClO2+
358.1651	17	C21[13]CH26ClO2+
359.1584	21	C22H26[37]ClO2+
375.1724	999	C22H28ClO3+
376.1757	189	C21[13]CH28ClO3+
377.17	234	C22H28[37]ClO3+
