Mass spectrum: Flutamide; LC-ESI-QTOF; MS2; CE: 30 eV; R=35000; [M+H]+
Name: Flutamide
Name: 2-methyl-N-[4-nitro-3-(trifluoromethyl)phenyl]propanamide
Formula: C11H11F3N2O3
Exact mass: 276.0721769
SMILES: CC(C)C(=O)NC1=CC(=C(C=C1)[N+]([O-])=O)C(F)(F)F
InChI: InChI=1S/C11H11F3N2O3/c1-6(2)10(17)15-7-3-4-9(16(18)19)8(5-7)11(12,13)14/h3-6H,1-2H3,(H,15,17)
Instrument: Bruker maXis Impact
Instrument type: LC-ESI-QTOF
Ms type: MS2
Ion mode: POSITIVE
Ionization: ESI
Fragmentation mode: CID
Collision energy: 30 eV
Resolution: 35000
Column name: Acclaim RSLC C18 2.2um, 2.1x100mm, Thermo
Retention time: 11.178 min
Base peak: 277.0782
Precursor m/z: 277.0795
Precursor type: [M+H]+
m/z	relative intensity	assigned
125.0143	11	C5H2FN2O+
164.0606	9	C5H9FN2O3+
165.069	999	C10H10FO+
166.0722	128	C9[13]CH10FO+
167.0755	5	C8[13]C2H10FO+
199.0301	173	C11H4FN2O+
200.0332	22	C10[13]CH4FN2O+
201.0272	43	C8H4F3N2O+
215.0844	15	C9H12FN2O3+
226.077	16	C10H11FN2O3+
227.0833	6	C10H12FN2O3+
239.085	33	C11H12FN2O3+
249.0458	7	C9H8F3N2O3+
262.0537	10	C10H9F3N2O3+
277.0771	15	C11H12F3N2O3+
