Mass spectrum: Cyproterone; LC-ESI-QTOF; MS2; CE: Ramp 23.1-34.7 eV; R=35000; [M+H]+
Name: Cyproterone
Name: (1S,2S,3S,5R,11R,12S,15R,16S)-15-acetyl-9-chloro-15-hydroxy-2,16-dimethylpentacyclo[9.7.0.02,8.03,5.012,16]octadeca-7,9-dien-6-one
Formula: C22H27ClO3
Exact mass: 374.1648724
SMILES: CC(=O)[C@@]1(O)CC[C@H]2[C@@H]3C=C(Cl)C4=CC(=O)[C@@H]5C[C@@H]5[C@]4(C)[C@H]3CC[C@]12C
InChI: InChI=1S/C22H27ClO3/c1-11(24)22(26)7-5-14-12-9-18(23)17-10-19(25)13-8-16(13)21(17,3)15(12)4-6-20(14,22)2/h9-10,12-16,26H,4-8H2,1-3H3/t12-,13+,14-,15-,16-,20-,21-,22-/m0/s1
Instrument: Bruker maXis Impact
Instrument type: LC-ESI-QTOF
Ms type: MS2
Ion mode: POSITIVE
Ionization: ESI
Fragmentation mode: CID
Collision energy: Ramp 23.1-34.7 eV
Resolution: 35000
Column name: Acclaim RSLC C18 2.2um, 2.1x100mm, Thermo
Retention time: 10.101 min
Base peak: 375.1723
Precursor m/z: 375.1721
Precursor type: [M+H]+
m/z	relative intensity	assigned
55.0534	5	C4H7+
59.0489	8	C3H7O+
61.0279	6	C2H5O2+
67.0534	9	C5H7+
69.032	6	C4H5O+
69.0697	5	C5H9+
71.0482	9	C4H7O+
79.0541	6	C6H7+
81.07	9	C6H9+
83.0487	13	C5H7O+
85.0646	10	C5H9O+
87.0436	17	C4H7O2+
91.0546	7	C7H7+
93.0699	12	C7H9+
95.0494	9	C6H7O+
95.0855	7	C7H11+
97.0639	5	C6H9O+
105.07	9	C8H9+
107.0501	6	C7H7O+
107.0859	8	C8H11+
109.0649	10	C7H9O+
109.1024	7	C8H13+
111.0809	9	C7H11O+
117.0687	8	C3H14ClO2+
119.0849	21	C9H11+
121.0638	16	C8H9O+
121.0996	11	C3H18ClO2+
123.0793	15	C2H16ClO3+
129.0685	12	C4H14ClO2+
131.0841	21	C4H16ClO2+
133.0629	6	C3H14ClO3+
133.1	68	C10H13+
134.1041	6	C9[13]CH13+
135.0795	13	C9H11O+
135.1162	7	C10H15+
137.0947	8	C3H18ClO3+
141.0685	7	C5H14ClO2+
142.0768	7	C11H10+
143.0846	23	C11H11+
144.0881	5	C5H17ClO2+
145.0634	19	C4H14ClO3+
145.0998	45	C11H13+
146.1032	6	C10[13]CH13+
147.0791	18	C4H16ClO3+
147.1154	79	C11H15+
148.1187	10	C10[13]CH15+
149.095	13	C10H13O+
151.1098	12	C4H20ClO3+
155.0841	19	C6H16ClO2+
156.0916	5	C6H17ClO2+
157.0633	5	C5H14ClO3+
157.1	32	C6H18ClO2+
159.0793	16	C5H16ClO3+
159.1157	24	C12H15+
160.12	5	C11[13]CH15+
161.0949	14	C5H18ClO3+
163.1103	19	C5H20ClO3+
165.0454	6	C10H10Cl+
167.0851	7	C13H11+
169.0403	9	C9H10ClO+
169.1	18	C7H18ClO2+
171.0792	14	C6H16ClO3+
171.1156	25	C7H20ClO2+
173.0933	10	C6H18ClO3+
173.1302	5	C7H22ClO2+
175.1106	51	C12H15O+
176.1141	6	C11[13]CH15O+
177.0441	17	C11H10Cl+
177.1264	10	C12H17O+
179.0842	8	C8H16ClO2+
181.0396	28	C10H10ClO+
181.076	7	C11H14Cl+
181.1001	19	C14H13+
182.1057	6	C8H19ClO2+
183.0358	7	C10H10[37]ClO+
183.0562	8	C10H12ClO+
183.0794	9	C13H11O+
183.1157	31	C14H15+
184.0866	8	C7H17ClO3+
184.1207	7	C13[13]CH15+
185.0951	48	C13H13O+
185.1311	13	C8H22ClO2+
186.0981	7	C12[13]CH13O+
187.0762	5	C12H11O2+
187.1094	16	C7H20ClO3+
189.0457	14	C12H10Cl+
189.1265	20	C13H17O+
191.0235	6	C11H8ClO+
191.0612	16	C12H12Cl+
192.0915	6	C9H17ClO2+
193.0407	12	C11H10ClO+
193.0998	17	C9H18ClO2+
193.1216	6	C12H17O2+
194.1062	9	C9H19ClO2+
195.0549	9	C11H12ClO+
195.1153	40	C9H20ClO2+
196.1214	15	C9H21ClO2+
197.0953	16	C14H13O+
197.1304	17	C9H22ClO2+
199.1105	16	C8H20ClO3+
199.1447	6	C9H24ClO2+
201.1269	21	C14H17O+
203.0607	14	C13H12Cl+
205.0395	19	C12H10ClO+
205.0772	7	C13H14Cl+
205.101	14	C16H13+
206.1066	9	C10H19ClO2+
207.0373	8	C12H10[37]ClO+
207.0563	14	C12H12ClO+
207.1153	24	C16H15+
208.1207	7	C15[13]CH15+
209.0951	9	C15H13O+
209.1318	21	C16H17+
210.1015	6	C9H19ClO3+
210.1372	8	C10H23ClO2+
211.1104	16	C9H20ClO3+
211.1469	6	C10H24ClO2+
213.1263	15	C9H22ClO3+
215.0612	7	C14H12Cl+
217.0766	7	C14H14Cl+
217.1002	6	C17H13+
218.1084	8	C17H14+
219.056	125	C13H12ClO+
219.1154	19	C11H20ClO2+
220.0587	15	C12[13]CH12ClO+
220.1231	8	C11H21ClO2+
221.0525	30	C13H12[37]ClO+
221.0686	14	C13H14ClO+
221.0939	7	C10H18ClO3+
221.131	25	C17H17+
222.102	8	C10H19ClO3+
222.1361	7	C16[13]CH17+
223.0678	5	C13H14[37]ClO+
223.1106	19	C10H20ClO3+
223.1468	16	C11H24ClO2+
224.1171	6	C10H21ClO3+
225.1267	14	C16H17O+
225.1627	6	C11H26ClO2+
226.1332	6	C10H23ClO3+
227.1054	6	C15H15O2+
227.1413	7	C10H24ClO3+
227.1794	7	C17H23+
231.0922	10	C15H16Cl+
231.1158	7	C18H15+
232.1229	10	C12H21ClO2+
233.0719	5	C14H14ClO+
233.1313	23	C12H22ClO2+
234.1382	9	C12H23ClO2+
235.1102	20	C11H20ClO3+
235.1474	40	C18H19+
236.1174	9	C11H21ClO3+
236.1524	9	C17[13]CH19+
237.1263	38	C17H17O+
237.1631	28	C18H21+
238.1325	11	C16[13]CH17O+
238.167	6	C17[13]CH21+
239.1414	21	C11H24ClO3+
241.1575	6	C11H26ClO3+
243.0927	7	C16H16Cl+
245.0717	27	C15H14ClO+
245.1092	9	C16H18Cl+
245.1323	9	C19H17+
245.1883	36	C17H25O+
246.0763	6	C14[13]CH14ClO+
246.1388	14	C13H23ClO2+
246.1919	8	C16[13]CH25O+
247.0691	8	C15H14[37]ClO+
247.1099	6	C12H20ClO3+
247.1471	26	C19H19+
248.1155	5	C12H21ClO3+
248.1533	9	C18[13]CH19+
249.1261	19	C12H22ClO3+
249.1623	35	C13H26ClO2+
250.1337	9	C12H23ClO3+
250.1677	14	C13H27ClO2+
251.1426	45	C18H19O+
251.1786	23	C19H23+
252.1486	8	C17[13]CH19O+
252.1828	7	C18[13]CH23+
253.1567	18	C12H26ClO3+
255.0917	5	C17H16Cl+
257.1099	7	C17H18Cl+
259.0868	15	C16H16ClO+
259.1477	15	C20H19+
260.1541	16	C14H25ClO2+
261.1049	5	C16H18ClO+
261.1258	11	C13H22ClO3+
261.1629	48	C20H21+
262.1335	10	C13H23ClO3+
262.1665	12	C19[13]CH21+
263.1421	88	C19H19O+
264.1476	26	C18[13]CH19O+
265.1565	23	C13H26ClO3+
269.109	6	C18H18Cl+
271.087	7	C17H16ClO+
271.1241	7	C18H20Cl+
272.0907	5	C17H17ClO+
273.1034	23	C17H18ClO+
273.1256	5	C14H22ClO3+
275.1053	5	C17H18[37]ClO+
275.1178	10	C17H20ClO+
275.1393	8	C14H24ClO3+
275.1793	20	C21H23+
277.1585	83	C20H21O+
277.1935	6	C21H25+
278.1653	86	C14H27ClO3+
279.1736	201	C20H23O+
280.1773	37	C19[13]CH23O+
285.1029	6	C18H18ClO+
285.1618	7	C16H26ClO2+
287.1184	12	C18H20ClO+
288.15	7	C21H20O+
289.1176	5	C18H20[37]ClO+
289.1349	7	C18H22ClO+
293.1537	63	C20H21O2+
293.1895	26	C21H25O+
294.1571	16	C19[13]CH21O2+
294.1911	7	C20[13]CH25O+
295.1664	9	C20H23O2+
295.2042	16	C21H27O+
297.1408	13	C20H22Cl+
297.1844	17	C20H25O2+
299.1189	19	C19H20ClO+
301.1186	5	C19H20[37]ClO+
301.1343	7	C19H22ClO+
303.1318	5	C21H19O2+
303.173	60	C22H23O+
304.1783	17	C21[13]CH23O+
306.1606	32	C21H22O2+
307.1658	8	C20[13]CH22O2+
311.1585	5	C21H24Cl+
313.1345	67	C20H22ClO+
314.1409	64	C20H23ClO+
315.1487	64	C20H24ClO+
316.1482	18	C19[13]CH24ClO+
317.1469	18	C20H24[37]ClO+
321.1848	425	C22H25O2+
322.188	107	C21[13]CH25O2+
323.1939	13	C20[13]C2H25O2+
329.1655	17	C21H26ClO+
332.1522	5	C20H25ClO2+
333.1625	10	C20H26ClO2+
339.1492	17	C22H24ClO+
339.1955	24	C22H27O3+
340.1992	7	C21[13]CH27O3+
341.1491	5	C22H24[37]ClO+
357.1609	135	C22H26ClO2+
358.1648	34	C21[13]CH26ClO2+
359.1598	47	C22H26[37]ClO2+
375.1723	999	C22H28ClO3+
376.1753	253	C21[13]CH28ClO3+
377.1699	381	C22H28[37]ClO3+
