Mass spectrum: Chloridazon; LC-ESI-QTOF; MS2; CE: 50 eV; R=35000; [M+H]+
Name: Chloridazon
Name: 5-amino-4-chloro-2-phenylpyridazin-3-one
Formula: C10H8ClN3O
Exact mass: 221.0355896
SMILES: NC1=C(Cl)C(=O)N(N=C1)C1=CC=CC=C1
InChI: InChI=1S/C10H8ClN3O/c11-9-8(12)6-13-14(10(9)15)7-4-2-1-3-5-7/h1-6H,12H2
Instrument: Bruker maXis Impact
Instrument type: LC-ESI-QTOF
Ms type: MS2
Ion mode: POSITIVE
Ionization: ESI
Fragmentation mode: CID
Collision energy: 50 eV
Resolution: 35000
Column name: Acclaim RSLC C18 2.2um, 2.1x100mm, Thermo
Retention time: 5.309 min
Base peak: 222.0424
Precursor m/z: 222.0429
Precursor type: [M+H]+
m/z	relative intensity	assigned
113.038	32	C9H5+
114.0326	59	C8H4N+
114.0465	39	C9H6+
115.0407	26	C8H5N+
115.0541	33	C9H7+
116.0477	28	C8H6N+
116.9965	132	C4H4ClNO+
117.0557	30	C8H7N+
118.9958	31	C4H4[37]ClNO+
119.0596	42	C7H7N2+
122.9988	252	C7H4Cl+
124.0021	20	C6[13]CH4Cl+
124.996	80	C7H4[37]Cl+
125.0133	57	C8HN2+
128.0492	40	C9H6N+
128.9837	209	C4H2ClN2O+
129.0429	29	C8H5N2+
129.0554	41	C9H7N+
130.0643	448	C9H8N+
130.9808	89	C4H2[37]ClN2O+
131.0596	198	C8H7N2+
132.0433	102	C8H6NO+
132.0657	62	C8H8N2+
133.0502	46	C8H7NO+
140.0258	19	C10H4O+
140.0486	251	C10H6N+
141.0557	191	C10H7N+
142.0511	118	C9H6N2+
143.0344	22	C9H5NO+
143.0614	30	C9H7N2+
146.0104	999	C4H5ClN3O+
147.014	60	C3[13]CH5ClN3O+
148.0072	377	C4H5[37]ClN3O+
149.0136	237	C9H6Cl+
150.0091	326	C8H5ClN+
151.0112	87	C9H6[37]Cl+
152.0067	90	C8H5[37]ClN+
156.0448	29	C7H9ClN2+
157.0607	20	C9H7N3+
158.058	56	C10H8NO+
158.0698	32	C9H8N3+
159.0538	87	C9H7N2O+
160.0611	25	C9H8N2O+
164.024	30	C10H2N3+
166.0218	23	C9H7ClO+
186.0677	42	C10H8N3O+
193.0279	51	C10H8ClNO+
195.0278	21	C10H8[37]ClNO+
222.0415	47	C10H9ClN3O+
224.0395	15	C10H9[37]ClN3O+
