Mass spectrum: Propanil; LC-ESI-QTOF; MS2; CE: 10 eV; R=35000; [M+H]+
Name: Propanil
Name: N-(3,4-dichlorophenyl)propanamide
Formula: C9H9Cl2NO
Exact mass: 217.0061193
SMILES: CCC(=O)NC1=CC(Cl)=C(Cl)C=C1
InChI: InChI=1S/C9H9Cl2NO/c1-2-9(13)12-6-3-4-7(10)8(11)5-6/h3-5H,2H2,1H3,(H,12,13)
Instrument: Bruker maXis Impact
Instrument type: LC-ESI-QTOF
Ms type: MS2
Ion mode: POSITIVE
Ionization: ESI
Fragmentation mode: CID
Collision energy: 10 eV
Resolution: 35000
Column name: Acclaim RSLC C18 2.2um, 2.1x100mm, Thermo
Retention time: 9.396 min
Base peak: 218.0129
Precursor m/z: 218.0134
Precursor type: [M+H]+
m/z	relative intensity	assigned
127.0172	14	C9H3O+
161.9861	161	C9H3ClO+
162.9886	12	C8[13]CH3ClO+
163.9829	82	C9H3[37]ClO+
218.013	999	C9H10Cl2NO+
219.0159	72	C8[13]CH10Cl2NO+
220.0099	503	C9H10Cl[37]ClNO+
