Mass spectrum: 5-Aminonaphthalene-2-sulfonic acid; LC-ESI-QTOF; MS2; CE: 50 eV; R=35000; [M+H]+
Name: 5-Aminonaphthalene-2-sulfonic acid
Name: 5-Amino-2-naphthalenesulfonic acid
Formula: C10H9NO3S
Exact mass: 223.0303141
SMILES: NC1=C2C=CC(=CC2=CC=C1)S(O)(=O)=O
InChI: InChI=1S/C10H9NO3S/c11-10-3-1-2-7-6-8(15(12,13)14)4-5-9(7)10/h1-6H,11H2,(H,12,13,14)
Instrument: Bruker maXis Impact
Instrument type: LC-ESI-QTOF
Ms type: MS2
Ion mode: POSITIVE
Ionization: ESI
Fragmentation mode: CID
Collision energy: 50 eV
Resolution: 35000
Column name: Acclaim RSLC C18 2.2um, 2.1x100mm, Thermo
Retention time: 3.242 min
Base peak: 224.0358
Precursor m/z: 224.0376
Precursor type: [M+H]+
m/z	relative intensity	assigned
115.0547	830	C9H7+
116.0611	374	C9H8+
143.072	999	C10H9N+
