Mass spectrum: Metolachlor CGA 368208; LC-ESI-QTOF; MS2; CE: 50 eV; R=35000; [M+H]+
Name: Metolachlor CGA 368208
Name: 2-(2-ethyl-6-methylanilino)-2-oxoethanesulfonic acid
Formula: C11H15NO4S
Exact mass: 257.0721790
SMILES: CCC1=CC=CC(C)=C1NC(=O)CS(O)(=O)=O
InChI: InChI=1S/C11H15NO4S/c1-3-9-6-4-5-8(2)11(9)12-10(13)7-17(14,15)16/h4-6H,3,7H2,1-2H3,(H,12,13)(H,14,15,16)
Instrument: Bruker maXis Impact
Instrument type: LC-ESI-QTOF
Ms type: MS2
Ion mode: POSITIVE
Ionization: ESI
Fragmentation mode: CID
Collision energy: 50 eV
Resolution: 35000
Column name: Acclaim RSLC C18 2.2um, 2.1x100mm, Thermo
Retention time: 5.219 min
Base peak: 258.0785
Precursor m/z: 258.0795
Precursor type: [M+H]+
m/z	relative intensity	assigned
118.0644	584	C8H8N+
119.0734	481	C2H15O3S+
120.0787	999	C5H12O3+
134.0961	367	C9H12N+
143.0703	438	C7H11O3+
144.0798	351	C10H10N+
