Mass spectrum: Tepraloxydim; LC-ESI-QTOF; MS2; CE: 50 eV; R=35000; [M+H]+
Name: Tepraloxydim
Name: Tepraloxydim [ISO]
Name: 2-[N-[(E)-3-chloroprop-2-enoxy]-C-ethylcarbonimidoyl]-3-hydroxy-5-(oxan-4-yl)cyclohex-2-en-1-one
Formula: C17H24ClNO4
Exact mass: 341.1393859
SMILES: [H]\C(Cl)=C(\[H])CON=C(CC)C1=C(O)CC(CC1=O)C1CCOCC1
InChI: InChI=1S/C17H24ClNO4/c1-2-14(19-23-7-3-6-18)17-15(20)10-13(11-16(17)21)12-4-8-22-9-5-12/h3,6,12-13,20H,2,4-5,7-11H2,1H3/b6-3+,19-14?
Instrument: Bruker maXis Impact
Instrument type: LC-ESI-QTOF
Ms type: MS2
Ion mode: POSITIVE
Ionization: ESI
Fragmentation mode: CID
Collision energy: 50 eV
Resolution: 35000
Column name: Acclaim RSLC C18 2.2um, 2.1x100mm, Thermo
Retention time: 7.313 min
Base peak: 342.1461
Precursor m/z: 342.1467
Precursor type: [M+H]+
m/z	relative intensity	assigned
111.0443	21	C6H7O2+
115.0535	115	C9H7+
116.0599	27	C3H13ClO2+
117.0565	62	C8H7N+
117.0688	129	C9H9+
118.0659	70	C8H8N+
119.0496	44	C5H10ClN+
119.0711	29	C2H14ClNO2+
119.085	59	C9H11+
120.0436	95	C7H6NO+
120.0793	77	C2H15ClNO2+
121.0637	772	C2H14ClO3+
122.0594	164	C7H8NO+
122.0971	22	C8H12N+
123.0429	37	CH12ClO4+
123.0677	42	C7H9NO+
123.0801	37	C8H11O+
124.0381	167	ClH11NO4+
124.0747	111	C7H10NO+
126.0531	23	ClH13NO4+
128.0606	168	C4H13ClO2+
129.0687	141	C4H14ClO2+
130.0642	116	C9H8N+
130.0753	49	C4H15ClO2+
131.0477	72	C3H12ClO3+
131.0742	55	C9H9N+
131.0843	144	C4H16ClO2+
132.044	88	C8H6NO+
132.0801	145	C9H10N+
133.0509	36	C2H12ClNO3+
133.0641	72	C9H9O+
133.0858	50	C6H13O3+
133.1006	63	C10H13+
134.0586	138	C2H13ClNO3+
134.0955	104	C9H12N+
135.0429	35	C2H12ClO4+
135.0798	62	C9H11O+
136.0381	199	CH11ClNO4+
136.0745	522	C8H10NO+
137.0583	80	C2H14ClO4+
137.0811	72	C7[13]CH10NO+
138.0536	87	CH13ClNO4+
138.0901	452	C2H17ClNO3+
139.0614	56	CH14ClNO4+
139.0936	68	C5H15O4+
140.0684	37	CH15ClNO4+
141.0691	87	C11H9+
142.0485	105	C6H8NO3+
142.0642	27	C10H8N+
142.0755	52	C5H15ClO2+
143.0704	52	C7H11O3+
143.0847	68	C11H11+
144.0539	34	C4H13ClO3+
144.0789	93	C4H15ClNO2+
144.0895	46	C5H17ClO2+
145.0622	80	C4H14ClO3+
145.0874	50	C4H16ClNO2+
145.0984	37	C5H18ClO2+
146.0587	163	C3H13ClNO3+
146.0948	87	C4H17ClNO2+
147.0425	160	C3H12ClO4+
147.0652	88	C6H11O4+
147.0802	73	C10H11O+
147.1031	26	C4H18ClNO2+
148.0384	115	C8H6NO2+
148.0742	310	C9H10NO+
148.1109	41	C4H19ClNO2+
149.0581	856	C9H9O2+
149.0793	48	C8[13]CH10NO+
150.0604	101	C8[13]CH9O2+
150.0891	72	C3H17ClNO3+
151.0317	142	C9H8Cl+
151.0611	23	C2H14ClNO4+
152.0698	67	C8H10NO2+
153.0695	39	C12H9+
154.0761	28	C6H15ClO2+
155.06	30	C9H12Cl+
156.0779	41	C8H12O3+
157.0646	29	C11H9O+
157.0859	37	C8H13O3+
158.0711	27	C5H15ClO3+
158.0954	39	C11H12N+
159.0669	23	C10H9NO+
159.0788	59	C5H16ClO3+
159.1061	26	C11H13N+
160.0498	30	C4H13ClO4+
160.0745	201	C4H15ClNO3+
160.1107	69	C5H19ClNO2+
161.0581	65	C7H12ClNO+
161.0831	52	C10H11NO+
161.0939	49	C5H18ClO3+
162.054	98	C9H8NO2+
162.0904	102	C10H12NO+
163.0618	29	C7H12[37]ClNO+
163.0975	27	C4H18ClNO3+
164.0694	395	C9H10NO2+
164.1061	38	C10H14NO+
165.0731	40	C8[13]CH10NO2+
166.0847	999	C9H12NO2+
167.0894	109	C8[13]CH12NO2+
170.0946	31	C6H17ClNO2+
171.0866	23	C8H13NO3+
171.0999	22	C9H15O3+
172.0775	25	C11H10NO+
172.1099	38	C6H19ClNO2+
173.0811	23	C5H16ClNO3+
173.0945	23	C6H18ClO3+
174.0903	75	C11H12NO+
175.0693	28	C5H16ClO4+
175.0991	29	C11H13NO+
176.0701	65	C10H10NO2+
176.1068	50	C11H14NO+
177.0906	30	C11H13O2+
177.1084	27	C8H17O4+
178.1205	22	C5H21ClNO3+
180.1387	24	C11H18NO+
188.1081	38	C12H14NO+
190.0861	43	C11H12NO2+
190.122	21	C12H16NO+
192.1002	21	C5H19ClNO4+
192.1356	26	C9H20O4+
194.1147	28	C5H21ClNO4+
202.086	23	C12H12NO2+
204.1379	22	C13H18NO+
206.1152	23	C6H21ClNO4+
206.1502	22	C10H22O4+
208.132	27	C6H23ClNO4+
222.1509	29	C13H20NO2+
234.1492	117	C14H20NO2+
250.1445	44	C14H20NO3+
