Mass spectrum: Orlistat; LC-ESI-QTOF; MS2; CE: 30 eV; R=35000; [M+H]+
Name: Orlistat
Name: [(2S)-1-[(2S,3S)-3-hexyl-4-oxooxetan-2-yl]tridecan-2-yl] (2S)-2-formamido-4-methylpentanoate
Formula: C29H53NO5
Exact mass: 495.3923738
SMILES: CCCCCCCCCCC[C@@H](C[C@@H]1OC(=O)[C@H]1CCCCCC)OC(=O)[C@H](CC(C)C)NC=O
InChI: InChI=1S/C29H53NO5/c1-5-7-9-11-12-13-14-15-16-18-24(34-29(33)26(30-22-31)20-23(3)4)21-27-25(28(32)35-27)19-17-10-8-6-2/h22-27H,5-21H2,1-4H3,(H,30,31)/t24-,25-,26-,27-/m0/s1
Instrument: Bruker maXis Impact
Instrument type: LC-ESI-QTOF
Ms type: MS2
Ion mode: POSITIVE
Ionization: ESI
Fragmentation mode: CID
Collision energy: 30 eV
Resolution: 35000
Column name: Acclaim RSLC C18 2.2um, 2.1x100mm, Thermo
Retention time: 14.507 min
Base peak: 513.4255
Precursor m/z: 496.3997
Precursor type: [M+H]+
m/z	relative intensity	assigned
123.1166	135	C9H15+
133.0852	321	C6H13O3+
142.0848	164	C4H14O5+
151.146	121	C11H19+
160.0949	338	C7H14NO3+
163.0582	117	C6H11O5+
167.0552	196	C8H9NO3+
167.143	108	C11H19O+
179.1432	193	C12H19O+
181.0686	219	C13H9O+
191.1768	110	C14H23+
193.1971	193	C14H25+
223.0649	256	C14H9NO2+
225.0416	158	C13H7NO3+
226.0464	108	C13H8NO3+
237.0776	556	C15H11NO2+
238.0803	237	C19H10+
239.0752	203	C18H9N+
283.1739	152	C15H25NO4+
283.2634	391	C18H35O2+
284.2628	138	C17H34NO2+
291.3094	142	C14H43O5+
299.0643	169	C20H11O3+
300.0612	157	C23H8O+
301.2884	144	C22H37+
319.299	290	C22H39O+
355.0765	120	C26H11O2+
356.0689	144	C22H12O5+
357.0109	179	C23H3NO4+
359.0266	999	C23H5NO4+
360.0275	718	C23H6NO4+
361.0253	459	C27H5O2+
362.0245	116	C26[13]CH5O2+
363.0183	108	C22H5NO5+
394.1648	401	C23H24NO5+
395.1683	172	C22[13]CH24NO5+
