Mass spectrum: Boscalid; LC-ESI-QTOF; MS2; CE: 10 eV; R=35000; [M+H]+
Name: Boscalid
Name: 2-chloro-N-[2-(4-chlorophenyl)phenyl]pyridine-3-carboxamide
Formula: C18H12Cl2N2O
Exact mass: 342.0326684
SMILES: ClC1=CC=C(C=C1)C1=CC=CC=C1NC(=O)C1=CC=CN=C1Cl
InChI: InChI=1S/C18H12Cl2N2O/c19-13-9-7-12(8-10-13)14-4-1-2-6-16(14)22-18(23)15-5-3-11-21-17(15)20/h1-11H,(H,22,23)
Instrument: Bruker maXis Impact
Instrument type: LC-ESI-QTOF
Ms type: MS2
Ion mode: POSITIVE
Ionization: ESI
Fragmentation mode: CID
Collision energy: 10 eV
Resolution: 35000
Column name: Acclaim RSLC C18 2.2um, 2.1x100mm, Thermo
Retention time: 9.441 min
Base peak: 333.1809
Precursor m/z: 343.0399
Precursor type: [M+H]+
m/z	relative intensity	assigned
139.9887	35	C6H3ClNO+
141.9855	6	C6H3[37]ClNO+
250.9983	9	C14H4ClN2O+
307.0627	42	C18H12ClN2O+
308.0663	7	C17[13]CH12ClN2O+
309.0589	10	C18H12[37]ClN2O+
327.0073	28	C17H9Cl2N2O+
329.0041	15	C17H9Cl[37]ClN2O+
343.04	999	C18H13Cl2N2O+
344.0432	155	C17[13]CH13Cl2N2O+
345.0367	506	C18H13Cl[37]ClN2O+
