Mass spectrum: Celecoxib; LC-ESI-QTOF; MS2; CE: 30 eV; R=35000; [M+H]+
Name: Celecoxib
Name: 4-[5-(4-methylphenyl)-3-(trifluoromethyl)pyrazol-1-yl]benzenesulfonamide
Formula: C17H14F3N3O2S
Exact mass: 381.0758823
SMILES: CC1=CC=C(C=C1)C1=CC(=NN1C1=CC=C(C=C1)S(N)(=O)=O)C(F)(F)F
InChI: InChI=1S/C17H14F3N3O2S/c1-11-2-4-12(5-3-11)15-10-16(17(18,19)20)22-23(15)13-6-8-14(9-7-13)26(21,24)25/h2-10H,1H3,(H2,21,24,25)
Instrument: Bruker maXis Impact
Instrument type: LC-ESI-QTOF
Ms type: MS2
Ion mode: POSITIVE
Ionization: ESI
Fragmentation mode: CID
Collision energy: 30 eV
Resolution: 35000
Column name: Acclaim RSLC C18 2.2um, 2.1x100mm, Thermo
Retention time: 10.242 min
Base peak: 494.1503
Precursor m/z: 382.0832
Precursor type: [M+H]+
m/z	relative intensity	assigned
184.0357	7	CH9F3N3O2S+
185.0436	10	CH10F3N3O2S+
207.1028	18	C15H13N+
208.1044	5	C8H13F3N3+
233.1066	11	C16H13N2+
261.0779	6	C17H11NO2+
262.0903	7	C17H11FN2+
263.0965	9	C17H12FN2+
267.0739	5	C13H10F3N2O+
275.0785	13	C12H15F2NO2S+
281.089	22	C17H11F2N2+
282.0958	36	C17H12F2N2+
283.1031	38	C17H13F2N2+
284.1069	5	C16[13]CH13F2N2+
286.0758	8	C13H13F3N2S+
287.0797	33	C16H14FNOS+
288.0805	8	C15[13]CH14FNOS+
300.0862	57	C17H11F3N2+
301.0928	80	C17H13F2NO2+
302.1016	133	C17H13F3N2+
303.1093	205	C17H15F2NO2+
304.1112	34	C16[13]CH15F2NO2+
311.0706	7	C16H14F3OS+
317.0889	14	C17H12F3N2O+
318.0934	5	C17H13F3N2O+
332.0759	63	C17H11F3N2O2+
333.0774	15	C16[13]CH11F3N2O2+
334.0928	9	C17H13F3N2O2+
342.0702	22	C17H13FN3O2S+
343.075	7	C15H14F3N2O2S+
362.0763	368	C17H14F2N3O2S+
363.0791	87	C16[13]CH14F2N3O2S+
364.0741	26	C17H14F2N3O2[34]S+
382.0827	999	C17H15F3N3O2S+
383.0847	219	C16[13]CH15F3N3O2S+
384.0806	74	C17H15F3N3O2[34]S+
