Mass spectrum: Medroxyprogesterone; LC-ESI-QTOF; MS2; CE: 40 eV; R=35000; [M+H]+
Name: Medroxyprogesterone
Name: (6S,8R,9S,10R,13S,14S,17R)-17-acetyl-17-hydroxy-6,10,13-trimethyl-2,6,7,8,9,11,12,14,15,16-decahydro-1H-cyclopenta[a]phenanthren-3-one
Formula: C22H32O3
Exact mass: 344.2351449
SMILES: [H][C@@]12CC[C@](O)(C(C)=O)[C@@]1(C)CC[C@@]1([H])[C@@]2([H])C[C@H](C)C2=CC(=O)CC[C@]12C
InChI: InChI=1S/C22H32O3/c1-13-11-16-17(20(3)8-5-15(24)12-19(13)20)6-9-21(4)18(16)7-10-22(21,25)14(2)23/h12-13,16-18,25H,5-11H2,1-4H3/t13-,16+,17-,18-,20+,21-,22-/m0/s1
Instrument: Bruker maXis Impact
Instrument type: LC-ESI-QTOF
Ms type: MS2
Ion mode: POSITIVE
Ionization: ESI
Fragmentation mode: CID
Collision energy: 40 eV
Resolution: 35000
Column name: Acclaim RSLC C18 2.2um, 2.1x100mm, Thermo
Retention time: 10.697 min
Base peak: 345.242
Precursor m/z: 345.2424
Precursor type: [M+H]+
m/z	relative intensity	assigned
117.0692	14	C9H9+
119.085	43	C9H11+
121.0641	8	C8H9O+
121.1008	16	C9H13+
123.0797	999	C8H11O+
124.083	85	C7[13]CH11O+
128.0614	5	C10H8+
129.0689	10	C10H9+
131.0844	52	C10H11+
132.0876	7	C9[13]CH11+
133.0633	5	C9H9O+
133.1003	66	C10H13+
134.1036	8	C9[13]CH13+
135.0791	35	C9H11O+
135.1153	16	C10H15+
137.0947	139	C9H13O+
138.098	15	C8[13]CH13O+
141.0682	8	C11H9+
142.0762	9	C11H10+
143.0837	39	C11H11+
144.0909	9	C11H12+
145.0996	83	C11H13+
146.1039	15	C10[13]CH13+
147.0785	12	C10H11O+
147.1155	67	C11H15+
148.1192	9	C10[13]CH15+
149.0951	15	C10H13O+
149.131	10	C11H17+
151.1108	7	C10H15O+
154.0772	5	C12H10+
155.0834	15	C12H11+
156.091	16	C12H12+
157.0993	53	C12H13+
158.1047	9	C11[13]CH13+
159.078	7	C11H11O+
159.1157	71	C12H15+
160.1211	11	C11[13]CH15+
161.0943	22	C11H13O+
161.1313	53	C12H17+
162.1008	6	C11H14O+
162.1344	8	C11[13]CH17+
163.1107	18	C11H15O+
163.1465	6	C12H19+
169.0999	28	C13H13+
170.1053	10	C13H14+
171.1155	51	C13H15+
172.1204	9	C12[13]CH15+
173.0939	7	C12H13O+
173.131	75	C13H17+
174.1369	13	C12[13]CH17+
175.1106	20	C12H15O+
175.1465	53	C13H19+
176.15	5	C12[13]CH19+
177.1258	27	C12H17O+
181.1	7	C14H13+
182.1069	8	C14H14+
183.1157	25	C14H15+
184.1218	9	C14H16+
185.1309	41	C14H17+
186.1362	7	C13[13]CH17+
187.1101	14	C13H15O+
187.1465	34	C14H19+
189.1262	29	C13H17O+
189.162	9	C14H21+
190.1323	5	C12[13]CH17O+
191.1415	19	C13H19O+
195.1152	14	C15H15+
196.1213	8	C15H16+
197.1306	40	C15H17+
198.1355	8	C14[13]CH17+
199.1103	8	C14H15O+
199.1469	39	C15H19+
200.1526	6	C14[13]CH19+
201.1257	5	C14H17O+
201.1621	13	C15H21+
203.1414	16	C14H19O+
205.1574	7	C14H21O+
209.1314	13	C16H17+
210.1389	5	C16H18+
211.1468	36	C16H19+
212.1512	10	C15[13]CH19+
213.126	11	C15H17O+
213.1638	15	C16H21+
214.134	43	C15H18O+
215.141	52	C15H19O+
216.1466	7	C14[13]CH19O+
217.1565	13	C15H21O+
221.1305	7	C17H17+
223.1467	11	C17H19+
225.1626	21	C17H21+
226.169	8	C17H22+
227.1789	25	C17H23+
229.1581	11	C16H21O+
237.1628	7	C18H21+
239.142	11	C17H19O+
239.178	10	C18H23+
241.157	5	C17H21O+
241.1933	6	C18H25+
243.1728	5	C17H23O+
251.1777	19	C19H23+
252.1842	9	C19H24+
257.1525	31	C17H21O2+
258.157	10	C17H22O2+
265.1945	5	C20H25+
266.2022	9	C20H26+
267.1725	5	C19H23O+
267.2096	28	C20H27+
268.2138	6	C19[13]CH27+
269.1885	18	C19H25O+
283.2042	4	C20H27O+
284.2129	11	C20H28O+
285.2174	9	C20H29O+
309.2217	10	C22H29O+
