Mass spectrum: Thiadone; LC-ESI-QTOF; MS2; CE: 20 eV; R=35000; [M-H]-
Name: Thiadone
Name: 5-(Trifluoromethyl)-1,3,4-thiadiazol-2(3H)-one
Name: 5-(trifluoromethyl)-3H-1,3,4-thiadiazol-2-one
Formula: C3HF3N2OS
Exact mass: 169.9761683
SMILES: FC(F)(F)C1=NNC(=O)S1
InChI: InChI=1S/C3HF3N2OS/c4-3(5,6)1-7-8-2(9)10-1/h(H,8,9)
Instrument: Bruker maXis Impact
Instrument type: LC-ESI-QTOF
Ms type: MS2
Ion mode: NEGATIVE
Ionization: ESI
Fragmentation mode: CID
Collision energy: 20 eV
Resolution: 35000
Column name: Acclaim RSLC C18 2.2um, 2.1x100mm, Thermo
Retention time: 4.986 min
Base peak: 168.9695
Precursor m/z: 168.9689
Precursor type: [M-H]-
m/z	relative intensity	assigned
112.9673	587	C2F3S-
168.9688	999	C3F3N2OS-
