Mass spectrum: Glimepiride; LC-ESI-QTOF; MS2; CE: 10 eV; R=35000; [M+H]+
Name: Glimepiride
Name: 4-ethyl-3-methyl-N-[2-[4-[(4-methylcyclohexyl)carbamoylsulfamoyl]phenyl]ethyl]-5-oxo-2H-pyrrole-1-carboxamide
Formula: C24H34N4O5S
Exact mass: 490.2249912
SMILES: CCC1=C(C)CN(C(=O)NCCC2=CC=C(C=C2)S(=O)(=O)NC(=O)NC2CCC(C)CC2)C1=O
InChI: InChI=1S/C24H34N4O5S/c1-4-21-17(3)15-28(22(21)29)24(31)25-14-13-18-7-11-20(12-8-18)34(32,33)27-23(30)26-19-9-5-16(2)6-10-19/h7-8,11-12,16,19H,4-6,9-10,13-15H2,1-3H3,(H,25,31)(H2,26,27,30)
Instrument: Bruker maXis Impact
Instrument type: LC-ESI-QTOF
Ms type: MS2
Ion mode: POSITIVE
Ionization: ESI
Fragmentation mode: CID
Collision energy: 10 eV
Resolution: 35000
Column name: Acclaim RSLC C18 2.2um, 2.1x100mm, Thermo
Retention time: 10.611 min
Base peak: 491.2321
Precursor m/z: 491.2323
Precursor type: [M+H]+
m/z	relative intensity	assigned
126.0902	11	C5H10N4+
352.1326	999	C16H22N3O4S+
353.1353	143	C15[13]CH22N3O4S+
354.1317	45	C16H22N3O4[34]S+
355.1339	5	C19H21N3O2S+
369.0675	9	C19H15NO5S+
378.1117	17	C17H20N3O5S+
491.2322	410	C24H35N4O5S+
492.2349	127	C23[13]CH35N4O5S+
