Mass spectrum: 2-Hydroxycarbamazepine; LC-ESI-QTOF; MS2; CE: 50 eV; R=35000; [M+H]+
Name: 2-Hydroxycarbamazepine
Name: 3-hydroxybenzo[b][1]benzazepine-11-carboxamide
Formula: C15H12N2O2
Exact mass: 252.0898776
SMILES: NC(=O)N1C2=CC=CC=C2C=CC2=CC(O)=CC=C12
InChI: InChI=1S/C15H12N2O2/c16-15(19)17-13-4-2-1-3-10(13)5-6-11-9-12(18)7-8-14(11)17/h1-9,18H,(H2,16,19)
Instrument: Bruker maXis Impact
Instrument type: LC-ESI-QTOF
Ms type: MS2
Ion mode: POSITIVE
Ionization: ESI
Fragmentation mode: CID
Collision energy: 50 eV
Resolution: 35000
Column name: Acclaim RSLC C18 2.2um, 2.1x100mm, Thermo
Retention time: 6.015 min
Base peak: 253.0966
Precursor m/z: 253.0972
Precursor type: [M+H]+
m/z	relative intensity	assigned
115.0534	13	C9H7+
116.0488	5	C8H6N+
117.0565	14	C8H7N+
127.0527	8	C10H7+
128.048	9	C9H6N+
128.0605	11	C10H8+
129.0685	7	C10H9+
133.0512	5	C8H7NO+
139.053	47	C11H7+
140.0489	26	C10H6N+
140.0601	22	C11H8+
141.0553	5	C10H7N+
141.0681	9	C11H9+
145.0631	6	C10H9O+
150.0457	7	C12H6+
151.0527	17	C12H7+
152.0609	176	C12H8+
153.0682	108	C12H9+
154.0646	29	C11H8N+
155.0589	9	C10H7N2+
155.0699	8	C11H9N+
155.0835	7	C12H11+
156.0796	5	C11H10N+
163.0527	22	C13H7+
164.0603	23	C13H8+
165.0686	294	C13H9+
166.0645	149	C12H8N+
167.0719	999	C12H9N+
168.0551	10	C12H8O+
168.0753	103	C11[13]CH9N+
169.0635	24	C12H9O+
169.0779	5	C10[13]C2H9N+
170.0605	5	C11H8NO+
176.0601	10	C14H8+
177.0564	20	C13H7N+
178.0642	103	C13H8N+
179.0717	249	C13H9N+
180.0797	606	C13H10N+
181.0638	86	C13H9O+
181.0865	215	C13H11N+
182.0672	18	C12[13]CH9O+
182.0945	105	C13H12N+
183.0668	25	C12H9NO+
183.098	11	C12[13]CH12N+
184.0728	5	C11[13]CH9NO+
189.0557	6	C14H7N+
190.0643	172	C14H8N+
191.0719	228	C14H9N+
192.0797	250	C14H10N+
193.0875	523	C14H11N+
194.0589	15	C13H8NO+
194.0948	184	C14H12N+
195.067	295	C13H9NO+
196.0704	38	C12[13]CH9NO+
206.059	27	C14H8NO+
207.0667	116	C14H9NO+
208.0746	310	C14H10NO+
209.0823	353	C14H11NO+
210.0894	138	C14H12NO+
211.0934	18	C13[13]CH12NO+
