Mass spectrum: Metolachlor CGA 368208; LC-ESI-QTOF; MS2; CE: 20 eV; R=35000; [M+H]+
Name: Metolachlor CGA 368208
Name: 2-(2-ethyl-6-methylanilino)-2-oxoethanesulfonic acid
Formula: C11H15NO4S
Exact mass: 257.0721790
SMILES: CCC1=CC=CC(C)=C1NC(=O)CS(O)(=O)=O
InChI: InChI=1S/C11H15NO4S/c1-3-9-6-4-5-8(2)11(9)12-10(13)7-17(14,15)16/h4-6H,3,7H2,1-2H3,(H,12,13)(H,14,15,16)
Instrument: Bruker maXis Impact
Instrument type: LC-ESI-QTOF
Ms type: MS2
Ion mode: POSITIVE
Ionization: ESI
Fragmentation mode: CID
Collision energy: 20 eV
Resolution: 35000
Column name: Acclaim RSLC C18 2.2um, 2.1x100mm, Thermo
Retention time: 5.191 min
Base peak: 258.0787
Precursor m/z: 258.0795
Precursor type: [M+H]+
m/z	relative intensity	assigned
119.0841	48	C9H11+
120.0807	56	C8H10N+
134.0947	60	C6H14O3+
135.1035	144	C9H13N+
136.1112	999	C9H14N+
137.1133	144	C8[13]CH14N+
144.0793	76	C7H12O3+
147.0663	42	C6H11O4+
148.0743	209	C6H12O4+
148.1105	111	C7H16O3+
158.0941	156	C8H14O3+
159.1009	80	C8H15O3+
162.0906	106	C10H12NO+
176.1062	63	C11H14NO+
177.1131	74	C11H15NO+
178.1227	83	C11H16NO+
240.0694	67	C11H14NO3S+
258.0779	241	C11H16NO4S+
