Mass spectrum: Cyproterone; LC-ESI-QTOF; MS2; CE: 30 eV; R=35000; [M+H]+
Name: Cyproterone
Name: (1S,2S,3S,5R,11R,12S,15R,16S)-15-acetyl-9-chloro-15-hydroxy-2,16-dimethylpentacyclo[9.7.0.02,8.03,5.012,16]octadeca-7,9-dien-6-one
Formula: C22H27ClO3
Exact mass: 374.1648724
SMILES: CC(=O)[C@@]1(O)CC[C@H]2[C@@H]3C=C(Cl)C4=CC(=O)[C@@H]5C[C@@H]5[C@]4(C)[C@H]3CC[C@]12C
InChI: InChI=1S/C22H27ClO3/c1-11(24)22(26)7-5-14-12-9-18(23)17-10-19(25)13-8-16(13)21(17,3)15(12)4-6-20(14,22)2/h9-10,12-16,26H,4-8H2,1-3H3/t12-,13+,14-,15-,16-,20-,21-,22-/m0/s1
Instrument: Bruker maXis Impact
Instrument type: LC-ESI-QTOF
Ms type: MS2
Ion mode: POSITIVE
Ionization: ESI
Fragmentation mode: CID
Collision energy: 30 eV
Resolution: 35000
Column name: Acclaim RSLC C18 2.2um, 2.1x100mm, Thermo
Retention time: 10.095 min
Base peak: 375.1723
Precursor m/z: 375.1721
Precursor type: [M+H]+
m/z	relative intensity	assigned
115.0532	5	C9H7+
117.0699	13	C9H9+
119.0849	41	C9H11+
120.0887	7	C8[13]CH11+
121.0644	29	C8H9O+
121.1004	27	C9H13+
122.1031	5	C8[13]CH13+
123.08	29	C8H11O+
123.1157	9	C3H20ClO2+
125.096	11	C8H13O+
127.0295	6	C7H8Cl+
127.0741	5	C7H11O2+
128.0617	10	C10H8+
129.0688	32	C10H9+
130.0764	8	C4H15ClO2+
131.0495	6	C9H7O+
131.0851	70	C10H11+
132.0868	8	C9[13]CH11+
133.0639	16	C9H9O+
133.1001	183	C10H13+
134.1032	26	C9[13]CH13+
135.0798	40	C9H11O+
135.1163	31	C10H15+
137.0599	7	C8H9O2+
137.0954	27	C9H13O+
139.0285	5	C8H8Cl+
141.0459	8	C8H10Cl+
141.0694	25	C11H9+
142.0767	25	C11H10+
143.0436	7	C4H12ClO3+
143.0842	77	C11H11+
144.0558	5	C4H13ClO3+
144.09	11	C10[13]CH11+
145.0648	38	C10H9O+
145.1002	109	C11H13+
146.071	14	C4H15ClO3+
146.1036	15	C10[13]CH13+
147.079	72	C10H11O+
147.1154	222	C11H15+
148.0837	9	C9[13]CH11O+
148.1193	29	C10[13]CH15+
149.0583	8	C9H9O2+
149.0952	50	C10H13O+
149.1315	6	C11H17+
150.0992	9	C4H19ClO3+
151.1101	34	C10H15O+
152.064	5	C12H8+
152.1122	5	C9[13]CH15O+
153.0443	13	C9H10Cl+
153.0672	6	C6H14ClO2+
153.0897	5	C9H13O2+
154.0757	6	C6H15ClO2+
155.025	15	C8H8ClO+
155.0615	11	C9H12Cl+
155.0849	58	C12H11+
156.0912	14	C6H17ClO2+
157.0226	5	C8H8[37]ClO+
157.0414	8	C8H10ClO+
157.0638	17	C11H9O+
157.0994	96	C12H13+
158.0694	9	C5H15ClO3+
158.1045	9	C11[13]CH13+
159.0792	75	C11H11O+
159.1154	92	C12H15+
160.0861	10	C10[13]CH11O+
160.1211	14	C11[13]CH15+
161.095	40	C5H18ClO3+
161.1311	18	C6H22ClO2+
163.0303	6	C10H8Cl+
163.1106	68	C11H15O+
164.1141	9	C10[13]CH15O+
165.0459	14	C10H10Cl+
165.069	9	C13H9+
165.1258	12	C5H22ClO3+
167.0251	23	C9H8ClO+
167.0587	5	C10H12Cl+
167.0851	22	C13H11+
168.0907	13	C7H17ClO2+
169.0403	24	C9H10ClO+
169.0614	13	C6H14ClO3+
169.1007	70	C13H13+
170.0694	7	C6H15ClO3+
170.1052	12	C12[13]CH13+
171.0368	9	C9H10[37]ClO+
171.0795	48	C12H11O+
171.1158	69	C13H15+
172.0851	10	C11[13]CH11O+
172.1214	10	C12[13]CH15+
173.0942	47	C6H18ClO3+
173.1324	18	C13H17+
174.137	6	C7H23ClO2+
175.1103	200	C12H15O+
176.1147	29	C11[13]CH15O+
177.0454	48	C11H10Cl+
177.0925	5	C11H13O2+
177.126	36	C12H17O+
178.0499	6	C10[13]CH10Cl+
178.1315	6	C11[13]CH17O+
179.0244	15	C10H8ClO+
179.0428	16	C11H10[37]Cl+
179.061	24	C11H12Cl+
179.0847	19	C14H11+
180.0913	13	C8H17ClO2+
181.0223	6	C10H8[37]ClO+
181.0398	109	C10H10ClO+
181.0653	6	C13H9O+
181.0776	19	C11H14Cl+
181.1009	63	C14H13+
182.0447	11	C9[13]CH10ClO+
182.1056	17	C8H19ClO2+
183.038	21	C10H10[37]ClO+
183.0557	34	C10H12ClO+
183.0785	37	C7H16ClO3+
183.1158	104	C14H15+
184.0874	25	C13H12O+
184.1216	18	C13[13]CH15+
185.0542	10	C10H12[37]ClO+
185.0946	143	C13H13O+
185.1312	51	C8H22ClO2+
186.0997	20	C12[13]CH13O+
186.1345	7	C7[13]CH22ClO2+
187.0751	17	C12H11O2+
187.1107	56	C13H15O+
187.1474	11	C14H19+
188.1149	10	C12[13]CH15O+
189.0456	33	C12H10Cl+
189.0901	9	C12H13O2+
189.1258	52	C13H17O+
190.0481	6	C11[13]CH10Cl+
190.1288	11	C12[13]CH17O+
191.0246	15	C11H8ClO+
191.0408	15	C12H10[37]Cl+
191.0607	50	C12H12Cl+
191.0818	9	C9H16ClO2+
192.0647	9	C11[13]CH12Cl+
192.0902	7	C9H17ClO2+
193.0409	38	C11H10ClO+
193.057	18	C12H12[37]Cl+
193.0771	19	C12H14Cl+
193.1004	70	C15H13+
193.1236	15	C12H17O2+
194.0475	8	C11H11ClO+
194.0832	5	C11[13]CH14Cl+
194.1057	23	C9H19ClO2+
195.0385	8	C11H10[37]ClO+
195.0555	47	C11H12ClO+
195.0777	15	C8H16ClO3+
195.1158	107	C15H15+
196.0583	7	C10[13]CH12ClO+
196.0843	7	C8H17ClO3+
196.1213	40	C9H21ClO2+
197.0557	10	C11H12[37]ClO+
197.0949	43	C14H13O+
197.1314	58	C15H17+
198.1019	9	C13[13]CH13O+
198.1369	15	C14[13]CH17+
199.1113	40	C14H15O+
199.145	13	C9H24ClO2+
200.116	11	C8H21ClO3+
201.044	11	C13H10Cl+
201.1264	63	C14H17O+
202.1308	12	C13[13]CH17O+
203.0611	39	C13H12Cl+
203.1076	8	C13H15O2+
203.1433	14	C14H19O+
204.0645	5	C12[13]CH12Cl+
204.0897	5	C10H17ClO2+
205.0414	64	C12H10ClO+
205.0576	16	C13H12[37]Cl+
205.0775	19	C13H14Cl+
205.1	45	C10H18ClO2+
205.1197	6	C13H17O2+
206.0424	10	C11[13]CH10ClO+
206.0818	5	C13H15Cl+
206.1049	15	C10H19ClO2+
207.0386	20	C12H10[37]ClO+
207.0566	34	C12H12ClO+
207.0751	12	C9H16ClO3+
207.1153	89	C10H20ClO2+
208.0878	5	C15H12O+
208.1215	31	C10H21ClO2+
209.053	13	C12H12[37]ClO+
209.0714	12	C12H14ClO+
209.0948	35	C9H18ClO3+
209.1311	75	C10H22ClO2+
210.1025	16	C9H19ClO3+
210.1363	22	C10H23ClO2+
211.1114	50	C15H15O+
211.1471	23	C10H24ClO2+
212.1172	10	C14[13]CH15O+
212.1498	5	C9[13]CH24ClO2+
213.048	6	C14H10Cl+
213.0888	7	C14H13O2+
213.1264	36	C15H17O+
213.1616	9	C10H26ClO2+
215.0618	21	C14H12Cl+
215.1056	8	C14H15O2+
215.1437	6	C15H19O+
216.0662	7	C14H13Cl+
217.041	8	C13H10ClO+
217.0582	9	C14H12[37]Cl+
217.0774	29	C14H14Cl+
217.1	18	C11H18ClO2+
217.1215	5	C14H17O2+
217.1583	6	C15H21O+
218.08	7	C13[13]CH14Cl+
218.1082	14	C17H14+
219.0563	389	C13H12ClO+
219.1171	70	C17H15+
220.0596	51	C12[13]CH12ClO+
220.097	5	C14H17Cl+
220.1211	35	C11H21ClO2+
221.0536	110	C13H12[37]ClO+
221.0711	67	C13H14ClO+
221.0947	33	C10H18ClO3+
221.1325	61	C17H17+
222.0763	8	C12[13]CH14ClO+
222.1	18	C10H19ClO3+
222.1375	22	C11H23ClO2+
223.0513	14	C12H12ClO2+
223.0695	15	C13H14[37]ClO+
223.1111	65	C16H15O+
223.1476	51	C17H19+
224.1168	19	C10H21ClO3+
224.1516	12	C16[13]CH19+
225.127	52	C16H17O+
225.1637	18	C17H21+
226.1314	19	C10H23ClO3+
227.0606	9	C15H12Cl+
227.1037	23	C15H15O2+
227.1416	28	C10H24ClO3+
227.1797	18	C17H23+
228.1816	5	C16[13]CH23+
229.077	23	C15H14Cl+
229.1239	7	C15H17O2+
230.1049	9	C12H19ClO2+
231.0562	13	C14H12ClO+
231.0918	27	C15H16Cl+
231.1136	18	C12H20ClO2+
232.0978	8	C15H17Cl+
232.124	27	C18H16+
233.073	19	C14H14ClO+
233.0901	14	C15H16[37]Cl+
233.1106	8	C12H20[37]ClO2+
233.1318	84	C18H17+
234.1026	7	C11H19ClO3+
234.1391	42	C12H23ClO2+
235.0693	7	C14H14[37]ClO+
235.088	20	C14H16ClO+
235.1112	55	C17H15O+
235.1476	133	C18H19+
236.118	31	C11H21ClO3+
236.1537	42	C17[13]CH19+
237.0883	7	C14H16[37]ClO+
237.1262	104	C11H22ClO3+
237.163	66	C18H21+
238.1339	33	C11H23ClO3+
238.1651	16	C17[13]CH21+
239.1414	65	C17H19O+
240.1492	12	C16[13]CH19O+
241.0765	15	C16H14Cl+
241.1209	11	C16H17O2+
241.1588	14	C17H21O+
242.0823	5	C16H15Cl+
243.0571	6	C15H12ClO+
243.0703	7	C16H14[37]Cl+
243.0952	18	C16H16Cl+
243.1158	13	C19H15+
243.1744	6	C17H23O+
244.0985	11	C16H17Cl+
244.1216	10	C13H21ClO2+
245.0719	97	C15H14ClO+
245.1076	31	C16H18Cl+
245.1316	36	C19H17+
245.1895	78	C17H25O+
246.0782	14	C14[13]CH14ClO+
246.1048	8	C18H14O+
246.1396	44	C19H18+
246.1945	21	C16[13]CH25O+
247.0696	17	C15H14[37]ClO+
247.0863	22	C15H16ClO+
247.1112	23	C18H15O+
247.1467	94	C13H24ClO2+
248.1192	22	C18H16O+
248.1537	37	C13H25ClO2+
249.0851	7	C15H16[37]ClO+
249.0949	8	C17H13O2+
249.1258	62	C12H22ClO3+
249.1628	113	C19H21+
250.1334	39	C12H23ClO3+
250.169	46	C13H27ClO2+
251.1061	8	C17H15O2+
251.142	151	C18H19O+
251.1779	72	C19H23+
252.1482	34	C17[13]CH19O+
252.1837	7	C18[13]CH23+
253.0779	9	C17H14Cl+
253.1229	9	C17H17O2+
253.1578	59	C18H21O+
253.1918	7	C19H25+
254.1616	13	C17[13]CH21O+
255.0929	16	C17H16Cl+
255.1357	8	C17H19O2+
255.1732	10	C12H28ClO3+
256.1127	5	C16H16O3+
257.0696	17	C16H14ClO+
257.0911	15	C13H18ClO3+
257.1088	33	C17H18Cl+
257.1322	8	C20H17+
258.1122	8	C16[13]CH18Cl+
258.1399	5	C20H18+
259.0692	9	C16H14[37]ClO+
259.0888	41	C16H16ClO+
259.1067	14	C17H18[37]Cl+
259.12	14	C17H20Cl+
259.1478	50	C20H19+
260.0896	13	C18H12O2+
260.1201	6	C19H16O+
260.1548	47	C14H25ClO2+
261.084	15	C16H16[37]ClO+
261.1034	17	C16H18ClO+
261.1272	30	C19H17O+
261.1631	150	C20H21+
262.1348	29	C19H18O+
262.1674	43	C19[13]CH21+
263.1424	190	C19H19O+
264.1482	62	C18[13]CH19O+
265.1206	15	C18H17O2+
265.1573	70	C19H21O+
265.1945	12	C20H25+
266.1273	8	C18H18O2+
266.1625	21	C18[13]CH21O+
267.1366	12	C18H19O2+
267.1701	16	C13H28ClO3+
268.096	5	C18H17Cl+
268.178	7	C19H24O+
269.0753	9	C17H14ClO+
269.1108	24	C18H18Cl+
269.1551	6	C18H21O2+
269.1906	10	C19H25O+
270.112	5	C17[13]CH18Cl+
270.139	7	C15H23ClO2+
271.0895	18	C17H16ClO+
271.1224	22	C18H20Cl+
271.1475	6	C21H19+
272.0966	9	C17H17ClO+
272.1268	7	C17[13]CH20Cl+
273.1046	59	C17H18ClO+
273.1634	23	C21H21+
274.1088	27	C17H19ClO+
274.1375	22	C14H23ClO3+
275.1196	31	C17H20ClO+
275.1414	32	C14H24ClO3+
275.1788	72	C21H23+
276.1251	12	C14H23[37]ClO3+
276.1456	6	C13[13]CH24ClO3+
276.1828	22	C20[13]CH23+
277.1161	12	C17H20[37]ClO+
277.1585	252	C20H21O+
277.195	18	C21H25+
278.165	268	C14H27ClO3+
279.1733	597	C20H23O+
280.1431	8	C19H20O2+
280.1777	104	C19[13]CH23O+
281.1048	13	C19H18Cl+
281.1811	8	C18[13]C2H23O+
283.0873	15	C18H16ClO+
283.1248	11	C19H20Cl+
284.093	7	C18H17ClO+
285.1047	20	C18H18ClO+
285.1412	7	C19H22Cl+
285.1623	28	C22H21+
286.1084	11	C18H19ClO+
286.1693	9	C21[13]CH21+
287.0881	8	C17H16ClO2+
287.118	50	C18H20ClO+
287.1509	5	C19H24Cl+
288.1242	18	C18H21ClO+
288.1483	36	C21H20O+
289.1144	24	C18H20[37]ClO+
289.1344	25	C18H22ClO+
289.1525	12	C20[13]CH20O+
290.1398	7	C17[13]CH22ClO+
291.1327	11	C18H22[37]ClO+
291.1709	14	C15H28ClO3+
292.1808	8	C21H24O+
293.1533	230	C20H21O2+
293.1893	94	C21H25O+
294.1576	50	C19[13]CH21O2+
294.1939	21	C20[13]CH25O+
295.1238	10	C20H20Cl+
295.1662	23	C20H23O2+
295.2057	37	C21H27O+
296.1341	10	C20H21Cl+
296.1746	15	C20H24O2+
296.2054	5	C20[13]CH27O+
297.1046	8	C19H18ClO+
297.1416	39	C20H22Cl+
297.1848	53	C20H25O2+
298.1144	5	C19H19ClO+
298.1439	10	C19[13]CH22Cl+
298.1866	10	C19[13]CH25O2+
299.1188	57	C19H20ClO+
300.1257	13	C18[13]CH20ClO+
301.0989	6	C18H18ClO2+
301.1209	17	C19H20[37]ClO+
301.1345	33	C19H22ClO+
302.1347	9	C18[13]CH22ClO+
303.1747	185	C22H23O+
304.1776	46	C21[13]CH23O+
305.1318	5	C18H22ClO2+
305.1845	10	C22H25O+
306.1607	93	C21H22O2+
307.1672	30	C20[13]CH22O2+
311.1567	7	C21H24Cl+
311.1981	11	C21H27O2+
312.203	5	C21H28O2+
313.1347	255	C20H22ClO+
314.1424	212	C20H23ClO+
315.1492	202	C20H24ClO+
316.1438	73	C20H23[37]ClO+
317.1453	46	C20H24[37]ClO+
321.1848	999	C22H25O2+
322.1884	202	C21[13]CH25O2+
323.1931	30	C20[13]C2H25O2+
324.1312	7	C21H21ClO+
329.1301	6	C20H22ClO2+
329.1667	33	C21H26ClO+
330.1717	9	C20[13]CH26ClO+
331.1573	12	C21H26[37]ClO+
332.1522	15	C20H25ClO2+
333.1596	20	C20H26ClO2+
334.1539	6	C20H25[37]ClO2+
335.1556	6	C20H26[37]ClO2+
339.1513	49	C22H24ClO+
339.1944	52	C22H27O3+
340.153	16	C21[13]CH24ClO+
340.2	21	C21[13]CH27O3+
341.1509	20	C22H24[37]ClO+
342.1388	9	C21H23ClO2+
357.1612	266	C22H26ClO2+
358.1654	53	C21[13]CH26ClO2+
359.1585	73	C22H26[37]ClO2+
375.1721	884	C22H28ClO3+
376.1752	223	C21[13]CH28ClO3+
377.1695	257	C22H28[37]ClO3+
