Mass spectrum: Vardenafil; LC-ESI-QTOF; MS2; CE: 50 eV; R=35000; [M+H]+
Name: Vardenafil
Name: CID 110634
Name: 2-[2-ethoxy-5-(4-ethylpiperazin-1-yl)sulfonylphenyl]-5-methyl-7-propyl-1H-imidazo[5,1-f][1,2,4]triazin-4-one
Formula: C23H32N6O4S
Exact mass: 488.2205745
SMILES: CCCC1=NC(C)=C2N1NC(=NC2=O)C1=C(OCC)C=CC(=C1)S(=O)(=O)N1CCN(CC)CC1
InChI: InChI=1S/C23H32N6O4S/c1-5-8-20-24-16(4)21-23(30)25-22(26-29(20)21)18-15-17(9-10-19(18)33-7-3)34(31,32)28-13-11-27(6-2)12-14-28/h9-10,15H,5-8,11-14H2,1-4H3,(H,25,26,30)
Instrument: Bruker maXis Impact
Instrument type: LC-ESI-QTOF
Ms type: MS2
Ion mode: POSITIVE
Ionization: ESI
Fragmentation mode: CID
Collision energy: 50 eV
Resolution: 35000
Column name: Acclaim RSLC C18 2.2um, 2.1x100mm, Thermo
Retention time: 7.744 min
Base peak: 489.2277
Precursor m/z: 489.2279
Precursor type: [M+H]+
m/z	relative intensity	assigned
123.0907	10	C7H11N2+
149.0694	9	C6H7N5+
151.0857	404	C6H9N5+
152.0887	33	C5[13]CH9N5+
167.0797	13	C6H9N5O+
169.0961	999	C8H13N2O2+
170.0994	74	C7[13]CH13N2O2+
171.1008	5	C8H13N2O[18]O+
256.0953	12	C13H12N4O2+
283.1181	22	C7H19N6O4S+
284.1256	89	C17H18NO3+
285.1316	25	C16[13]CH18NO3+
286.1387	5	C18H22OS+
294.0886	5	C18H14O4+
296.1264	7	C8H20N6O4S+
297.134	40	C18H19NO3+
298.1395	9	C17[13]CH19NO3+
299.1135	229	C15H15N4O3+
300.1167	36	C14[13]CH15N4O3+
301.1288	19	C15H17N4O3+
311.1497	7	C9H23N6O4S+
312.158	367	C17H20N4O2+
313.1614	79	C16[13]CH20N4O2+
314.1638	9	C15[13]C2H20N4O2+
316.117	34	C18H20O3S+
317.1178	7	C17[13]CH20O3S+
328.1161	7	C16H16N4O4+
329.1602	13	C17H21N4O3+
331.0862	6	C15H15N4O3S+
339.1493	7	C23H19N2O+
344.148	256	C23H22NS+
345.1507	48	C22[13]CH22NS+
346.1533	8	C21[13]C2H22NS+
349.0955	9	C21H11N5O+
376.1066	69	C22H12N6O+
377.1265	48	C20H17N4O4+
378.1295	10	C19[13]CH17N4O4+
489.2274	110	C23H33N6O4S+
490.23	32	C22[13]CH33N6O4S+
