Mass spectrum: Chlorotoluron; LC-ESI-QTOF; MS2; CE: 50 eV; R=35000; [M+H]+
Name: Chlorotoluron
Name: 3-(3-chloro-4-methylphenyl)-1,1-dimethylurea
Formula: C10H13ClN2O
Exact mass: 212.0716407
SMILES: CN(C)C(=O)NC1=CC(Cl)=C(C)C=C1
InChI: InChI=1S/C10H13ClN2O/c1-7-4-5-8(6-9(7)11)12-10(14)13(2)3/h4-6H,1-3H3,(H,12,14)
Instrument: Bruker maXis Impact
Instrument type: LC-ESI-QTOF
Ms type: MS2
Ion mode: POSITIVE
Ionization: ESI
Fragmentation mode: CID
Collision energy: 50 eV
Resolution: 35000
Column name: Acclaim RSLC C18 2.2um, 2.1x100mm, Thermo
Retention time: 8.019 min
Base peak: 213.0787
Precursor m/z: 213.0789
Precursor type: [M+H]+
m/z	relative intensity	assigned
113.0134	78	C7HN2+
120.0791	110	C8H10N+
125.0022	52	C9HO+
125.0141	948	C7H6Cl+
126.0177	62	C6[13]CH6Cl+
127.011	334	C7H6[37]Cl+
132.0429	291	C8H6NO+
133.0502	74	C8H7NO+
140.0245	999	C7H7ClN+
141.0288	48	C6[13]CH7ClN+
142.0216	305	C7H7[37]ClN+
145.0749	47	C9H9N2+
