Mass spectrum: Glibenclamide; LC-ESI-QTOF; MS2; CE: 10 eV; R=35000; [M+H]+
Name: Glibenclamide
Name: Glyburide
Name: 5-chloro-N-[2-[4-(cyclohexylcarbamoylsulfamoyl)phenyl]ethyl]-2-methoxybenzamide
Formula: C23H28ClN3O5S
Exact mass: 493.1438197
SMILES: COC1=C(C=C(Cl)C=C1)C(=O)NCCC1=CC=C(C=C1)S(=O)(=O)NC(=O)NC1CCCCC1
InChI: InChI=1S/C23H28ClN3O5S/c1-32-21-12-9-17(24)15-20(21)22(28)25-14-13-16-7-10-19(11-8-16)33(30,31)27-23(29)26-18-5-3-2-4-6-18/h7-12,15,18H,2-6,13-14H2,1H3,(H,25,28)(H2,26,27,29)
Instrument: Bruker maXis Impact
Instrument type: LC-ESI-QTOF
Ms type: MS2
Ion mode: POSITIVE
Ionization: ESI
Fragmentation mode: CID
Collision energy: 10 eV
Resolution: 35000
Column name: Acclaim RSLC C18 2.2um, 2.1x100mm, Thermo
Retention time: 10.160 min
Base peak: 494.1509
Precursor m/z: 494.1511
Precursor type: [M+H]+
m/z	relative intensity	assigned
169.0039	7	C3H7NO5S+
369.067	999	C16H18ClN2O4S+
370.0702	140	C15[13]CH18ClN2O4S+
371.0646	293	C16H18[37]ClN2O4S+
372.0668	33	C16H19ClNO5S+
395.0458	46	C23H10ClN3O2+
396.0496	9	C22[13]CH10ClN3O2+
397.0426	15	C23H10[37]ClN3O2+
494.1513	568	C23H29ClN3O5S+
495.1537	151	C22[13]CH29ClN3O5S+
496.1489	200	C23H29[37]ClN3O5S+
