Mass spectrum: Canrenone; LC-ESI-QTOF; MS2; CE: Ramp 22.4-33.6 eV; R=35000; [M+H]+
Name: Canrenone
Name: UJVLDDZCTMKXJK-AFDHUMPMSA-N
Name: (9S,14S)-10,13-dimethylspiro[2,8,9,11,12,14,15,16-octahydro-1H-cyclopenta[a]phenanthrene-17,5`-oxolane]-2`,3-dione
Formula: C22H28O3
Exact mass: 340.2038448
SMILES: CC12CC[C@H]3C(C=CC4=CC(=O)CCC34C)[C@@H]1CCC21CCC(=O)O1
InChI: InChI=1S/C22H28O3/c1-20-9-5-15(23)13-14(20)3-4-16-17(20)6-10-21(2)18(16)7-11-22(21)12-8-19(24)25-22/h3-4,13,16-18H,5-12H2,1-2H3/t16?,17-,18-,20?,21?,22?/m0/s1
Instrument: Bruker maXis Impact
Instrument type: LC-ESI-QTOF
Ms type: MS2
Ion mode: POSITIVE
Ionization: ESI
Fragmentation mode: CID
Collision energy: Ramp 22.4-33.6 eV
Resolution: 35000
Column name: Acclaim RSLC C18 2.2um, 2.1x100mm, Thermo
Retention time: 9.649 min
Base peak: 341.2109
Precursor m/z: 341.2111
Precursor type: [M+H]+
m/z	relative intensity	assigned
71.0486	7	C4H7O+
79.0538	20	C6H7+
81.0699	5	C6H9+
83.0484	22	C5H7O+
91.0543	17	C7H7+
93.0698	13	C7H9+
95.0852	5	C7H11+
97.0651	55	C6H9O+
99.0446	31	C5H7O2+
105.0703	13	C8H9+
107.0867	138	C8H11+
108.0895	10	C7[13]CH11+
119.0849	16	C9H11+
121.1007	9	C9H13+
123.0797	5	C8H11O+
131.0845	14	C10H11+
133.1003	12	C10H13+
135.0793	12	C9H11O+
137.0953	6	C9H13O+
143.0844	43	C11H11+
145.0999	35	C11H13+
147.0793	17	C10H11O+
147.1158	8	C11H15+
149.0949	14	C10H13O+
153.0892	7	C9H13O2+
155.0843	7	C12H11+
157.0996	15	C12H13+
159.0794	14	C11H11O+
159.1153	13	C12H15+
161.0944	27	C11H13O+
163.11	14	C11H15O+
165.0893	13	C10H13O2+
167.1058	5	C10H15O2+
169.0998	66	C13H13+
170.1031	10	C12[13]CH13+
171.0799	5	C12H11O+
171.1158	10	C13H15+
173.0948	73	C12H13O+
174.0983	8	C11[13]CH13O+
175.1107	41	C12H15O+
176.1138	5	C11[13]CH15O+
177.1262	12	C12H17O+
179.1051	20	C11H15O2+
181.0998	7	C14H13+
183.1162	12	C14H15+
185.1316	17	C14H17+
187.1105	160	C13H15O+
188.1142	23	C12[13]CH15O+
189.1252	5	C13H17O+
195.1162	7	C15H15+
197.1312	6	C15H17+
199.1104	7	C14H15O+
199.1465	5	C15H19+
205.121	104	C13H17O2+
206.1246	14	C12[13]CH17O2+
209.1312	8	C16H17+
213.1257	6	C15H17O+
221.132	5	C17H17+
223.1477	9	C17H19+
227.143	8	C16H19O+
241.1567	9	C17H21O+
243.1725	5	C17H23O+
245.1531	6	C16H21O2+
257.1526	5	C17H21O2+
259.1676	7	C17H23O2+
263.1778	6	C20H23+
265.158	11	C19H21O+
268.1807	5	C19H24O+
279.172	8	C20H23O+
281.1891	14	C20H25O+
283.1682	54	C19H23O2+
284.1713	10	C18[13]CH23O2+
295.205	10	C21H27O+
305.1893	21	C22H25O+
306.1934	5	C21[13]CH25O+
323.2008	42	C22H27O2+
324.2036	12	C21[13]CH27O2+
341.2109	999	C22H29O3+
342.2144	277	C21[13]CH29O3+
343.2172	31	C20[13]C2H29O3+
