Mass spectrum: Efavirenz; LC-ESI-QTOF; MS2; CE: 20 eV; R=35000; [M+H]+
Name: Efavirenz
Name: 6-Chloro-4-(cyclopropylethynyl)-4-(trifluoromethyl)-1,4-dihydro-2H-3,1-benzoxazin-2-one
Name: 6-chloro-4-(2-cyclopropylethynyl)-4-(trifluoromethyl)-1H-3,1-benzoxazin-2-one
Formula: C14H9ClF3NO2
Exact mass: 315.0273909
SMILES: FC(F)(F)C1(OC(=O)NC2=C1C=C(Cl)C=C2)C#CC1CC1
InChI: InChI=1S/C14H9ClF3NO2/c15-9-3-4-11-10(7-9)13(14(16,17)18,21-12(20)19-11)6-5-8-1-2-8/h3-4,7-8H,1-2H2,(H,19,20)
Instrument: Bruker maXis Impact
Instrument type: LC-ESI-QTOF
Ms type: MS2
Ion mode: POSITIVE
Ionization: ESI
Fragmentation mode: CID
Collision energy: 20 eV
Resolution: 35000
Column name: Acclaim RSLC C18 2.2um, 2.1x100mm, Thermo
Retention time: 10.643 min
Base peak: 491.2313
Precursor m/z: 316.0347
Precursor type: [M+H]+
m/z	relative intensity	assigned
167.0732	65	C12H9N+
168.0794	536	C12H10N+
169.0821	63	C11[13]CH10N+
188.0262	60	C11H7ClN+
201.034	98	C12H8ClN+
202.0398	114	C7H10ClF3O+
203.0479	216	C12H10ClN+
204.0364	51	C7H10[37]ClF3O+
205.0463	125	C9H10ClF2N+
217.068	92	C13H9F2N+
220.0125	77	C12H3F3O+
222.0131	52	C8H7ClF2NO2+
222.0525	158	C12H7F3N+
223.0579	52	C12H9F2O2+
224.008	87	C11H3F3O2+
232.0126	480	C10H7ClF2O2+
232.0303	188	C13H9ClO2+
233.0131	50	C9[13]CH7ClF2O2+
234.0095	113	C10H7[37]ClF2O2+
235.0584	130	C13H9F2O2+
236.0678	116	C13H9F3N+
237.0751	364	C13H10F3N+
238.0777	59	C12[13]CH10F3N+
244.0129	999	C11H6ClF3N+
245.016	116	C10[13]CH6ClF3N+
246.0107	232	C11H6[37]ClF3N+
247.0133	44	C11H7ClF3O+
250.0243	136	C13H8ClFO2+
252.0176	51	C13H8[37]ClFO2+
252.0359	171	C10H10ClF3NO+
254.0381	77	C10H10[37]ClF3NO+
263.0548	44	C14H8F3NO+
270.0294	107	C13H8ClF3N+
272.045	126	C13H10ClF3N+
278.0195	134	C11H8ClF3NO2+
280.0163	53	C11H8[37]ClF3NO2+
