Mass spectrum: 17alpha-Hydroxyprogesterone; LC-ESI-QTOF; MS2; CE: 30 eV; R=35000; [M+H]+
Name: 17alpha-Hydroxyprogesterone
Name: 17alpha-Hydroxypregn-4-ene-3,20-dione
Name: 17-acetyl-17-hydroxy-10,13-dimethyl-2,6,7,8,9,11,12,14,15,16-decahydro-1H-cyclopenta[a]phenanthren-3-one
Formula: C21H30O3
Exact mass: 330.2194948
SMILES: CC(=O)C1(O)CCC2C3CCC4=CC(=O)CCC4(C)C3CCC12C
InChI: InChI=1S/C21H30O3/c1-13(22)21(24)11-8-18-16-5-4-14-12-15(23)6-9-19(14,2)17(16)7-10-20(18,21)3/h12,16-18,24H,4-11H2,1-3H3
Instrument: Bruker maXis Impact
Instrument type: LC-ESI-QTOF
Ms type: MS2
Ion mode: POSITIVE
Ionization: ESI
Fragmentation mode: CID
Collision energy: 30 eV
Resolution: 35000
Column name: Acclaim RSLC C18 2.2um, 2.1x100mm, Thermo
Retention time: 9.995 min
Base peak: 331.2269
Precursor m/z: 331.2268
Precursor type: [M+H]+
m/z	relative intensity	assigned
109.0653	52	C7H9O+
117.0691	34	C9H9+
119.085	205	C9H11+
120.0882	27	C8[13]CH11+
121.0641	158	C8H9O+
121.1009	95	C9H13+
122.0676	15	C7[13]CH9O+
123.0796	617	C8H11O+
124.084	55	C7[13]CH11O+
125.0973	18	C8H13O+
127.0757	26	C7H11O2+
128.0611	28	C10H8+
129.0696	52	C10H9+
131.0852	250	C10H11+
132.0889	36	C9[13]CH11+
133.1	336	C10H13+
135.0794	139	C9H11O+
135.1162	167	C10H15+
136.0848	20	C8[13]CH11O+
137.0949	362	C9H13O+
138.0979	32	C8[13]CH13O+
139.1116	25	C9H15O+
141.0692	35	C11H9+
142.0755	32	C11H10+
143.0842	201	C11H11+
144.0886	40	C10[13]CH11+
145.1002	708	C11H13+
146.1043	96	C10[13]CH13+
147.0801	84	C10H11O+
147.1158	428	C11H15+
148.0848	16	C9[13]CH11O+
148.1189	62	C10[13]CH15+
149.0954	218	C10H13O+
149.1312	113	C11H17+
150.0985	40	C9[13]CH13O+
150.1355	18	C10[13]CH17+
151.111	90	C10H15O+
153.0904	20	C9H13O2+
155.0844	73	C12H11+
156.0919	27	C12H12+
157.1004	320	C12H13+
158.1049	63	C11[13]CH13+
159.1155	611	C12H15+
160.1201	127	C11[13]CH15+
161.0952	122	C11H13O+
161.131	380	C12H17+
162.1007	20	C10[13]CH13O+
162.1343	64	C11[13]CH17+
163.111	694	C11H15O+
163.1468	115	C12H19+
164.1135	72	C10[13]CH15O+
165.1266	46	C11H17O+
167.0839	28	C13H11+
168.0911	15	C13H12+
169.0996	210	C13H13+
170.1038	39	C12[13]CH13+
171.1156	504	C13H15+
172.1204	94	C12[13]CH15+
173.0947	62	C12H13O+
173.1315	497	C13H17+
174.0999	17	C12H14O+
174.1342	45	C12[13]CH17+
175.1107	258	C12H15O+
175.1469	492	C13H19+
176.1141	41	C11[13]CH15O+
176.1497	82	C12[13]CH19+
177.1265	533	C12H17O+
178.1301	79	C11[13]CH17O+
179.1072	22	C11H15O2+
179.1417	23	C12H19O+
181.1007	72	C14H13+
182.1045	23	C14H14+
183.1156	214	C14H15+
184.1201	56	C13[13]CH15+
185.0958	26	C13H13O+
185.1313	399	C14H17+
186.1359	100	C14H18+
187.11	126	C13H15O+
187.1473	396	C14H19+
188.1134	29	C12[13]CH15O+
188.1513	61	C13[13]CH19+
189.1261	279	C13H17O+
189.1618	140	C14H21+
190.1311	62	C12[13]CH17O+
190.167	23	C13[13]CH21+
191.1424	123	C13H19O+
192.1436	15	C12[13]CH19O+
195.1155	134	C15H15+
196.1204	29	C14[13]CH15+
197.1317	299	C15H17+
198.1376	75	C14[13]CH17+
199.1118	50	C14H15O+
199.1472	494	C15H19+
200.1509	80	C14[13]CH19+
201.126	129	C14H17O+
201.1626	104	C15H21+
202.1287	18	C13[13]CH17O+
203.1412	263	C14H19O+
203.1766	27	C15H23+
204.144	48	C13[13]CH19O+
205.1578	294	C14H21O+
206.1622	61	C13[13]CH21O+
207.1164	42	C16H15+
209.1317	108	C16H17+
210.1376	31	C15[13]CH17+
211.1475	333	C16H19+
212.1522	71	C15[13]CH19+
213.126	104	C15H17O+
213.1629	396	C16H21+
214.1318	18	C14[13]CH17O+
214.1671	74	C15[13]CH21+
215.1419	145	C15H19O+
215.1785	38	C16H23+
216.1481	41	C14[13]CH19O+
217.158	334	C15H21O+
218.162	46	C14[13]CH21O+
219.1356	18	C14H19O2+
219.1734	19	C15H23O+
221.1314	65	C17H17+
221.1495	16	C14H21O2+
222.1371	42	C17H18+
223.1465	74	C17H19+
223.1665	15	C14H23O2+
224.154	24	C16[13]CH19+
225.1279	51	C16H17O+
225.1634	168	C17H21+
226.1344	17	C16H18O+
226.1657	45	C16[13]CH21+
227.1418	65	C16H19O+
227.18	123	C17H23+
228.1465	19	C16H20O+
229.1584	202	C16H21O+
229.1938	23	C17H25+
230.1611	40	C15[13]CH21O+
231.1393	23	C15H19O2+
231.1739	114	C16H23O+
232.1789	30	C15[13]CH23O+
235.1476	71	C18H19+
236.1498	17	C17[13]CH19+
237.1629	287	C18H21+
238.1667	61	C17[13]CH21+
239.143	93	C17H19O+
239.1774	44	C18H23+
240.1494	25	C16[13]CH19O+
240.1831	19	C18H24+
241.1585	123	C17H21O+
242.165	28	C16[13]CH21O+
243.1357	25	C16H19O2+
243.1732	137	C17H23O+
243.2084	14	C18H27+
244.18	22	C16[13]CH23O+
245.1902	69	C17H25O+
248.1578	20	C19H20+
249.1616	49	C19H21+
251.1781	153	C19H23+
252.1868	117	C19H24+
253.1579	79	C18H21O+
253.1947	999	C19H25+
254.1624	17	C17[13]CH21O+
254.1976	228	C18[13]CH25+
255.1733	360	C18H23O+
255.1985	21	C17[13]C2H25+
256.1778	77	C17[13]CH23O+
257.154	17	C17H21O2+
257.1892	32	C18H25O+
259.1686	114	C17H23O2+
262.1717	14	C20H22+
267.175	54	C19H23O+
267.2108	75	C20H27+
268.2121	15	C19[13]CH27+
269.1896	258	C19H25O+
270.1968	232	C19H26O+
271.2052	948	C19H27O+
272.2083	205	C18[13]CH27O+
273.1842	48	C18H25O2+
273.2116	17	C17[13]C2H27O+
274.187	19	C18H26O2+
277.1937	180	C21H25+
278.199	55	C20[13]CH25+
280.1838	22	C20H24O+
285.1839	20	C19H25O2+
285.2192	46	C20H29O+
287.2005	54	C19H27O2+
288.207	24	C19H28O2+
289.2145	111	C19H29O2+
290.2186	27	C18[13]CH29O2+
295.2059	707	C21H27O+
296.208	172	C20[13]CH27O+
297.2117	24	C19[13]C2H27O+
313.2157	801	C21H29O2+
314.2201	186	C20[13]CH29O2+
315.2227	30	C19[13]C2H29O2+
331.2268	834	C21H31O3+
332.2304	250	C20[13]CH31O3+
