Mass spectrum: Metolachlor CGA 368208; LC-ESI-QTOF; MS2; CE: Ramp 20.1-30.1 eV; R=35000; [M+H]+
Name: Metolachlor CGA 368208
Name: 2-(2-ethyl-6-methylanilino)-2-oxoethanesulfonic acid
Formula: C11H15NO4S
Exact mass: 257.0721790
SMILES: CCC1=CC=CC(C)=C1NC(=O)CS(O)(=O)=O
InChI: InChI=1S/C11H15NO4S/c1-3-9-6-4-5-8(2)11(9)12-10(13)7-17(14,15)16/h4-6H,3,7H2,1-2H3,(H,12,13)(H,14,15,16)
Instrument: Bruker maXis Impact
Instrument type: LC-ESI-QTOF
Ms type: MS2
Ion mode: POSITIVE
Ionization: ESI
Fragmentation mode: CID
Collision energy: Ramp 20.1-30.1 eV
Resolution: 35000
Column name: Acclaim RSLC C18 2.2um, 2.1x100mm, Thermo
Retention time: 5.239 min
Base peak: 61.0392
Precursor m/z: 258.0795
Precursor type: [M+H]+
m/z	relative intensity	assigned
119.0852	41	C9H11+
120.0811	78	C8H10N+
134.0951	107	C9H12N+
135.1021	143	C6H15O3+
136.1109	999	C9H14N+
137.1148	88	C8[13]CH14N+
144.0785	55	C7H12O3+
147.0653	52	C6H11O4+
148.0746	178	C9H10NO+
148.1118	86	C10H14N+
158.0949	109	C8H14O3+
162.0907	55	C10H12NO+
176.1064	44	C11H14NO+
177.1117	47	C11H15NO+
178.1194	49	C11H16NO+
230.0471	35	C9H12NO4S+
240.0707	54	C11H14NO3S+
258.0783	114	C11H16NO4S+
