Mass spectrum: Sulfapyridine; LC-ESI-QTOF; MS2; CE: Ramp 19.8-29.7 eV; R=35000; [M+H]+
Name: Sulfapyridine
Name: 4-amino-N-pyridin-2-ylbenzenesulfonamide
Formula: C11H11N3O2S
Exact mass: 249.0571976
SMILES: NC1=CC=C(C=C1)S(=O)(=O)NC1=NC=CC=C1
InChI: InChI=1S/C11H11N3O2S/c12-9-4-6-10(7-5-9)17(15,16)14-11-3-1-2-8-13-11/h1-8H,12H2,(H,13,14)
Instrument: Bruker maXis Impact
Instrument type: LC-ESI-QTOF
Ms type: MS2
Ion mode: POSITIVE
Ionization: ESI
Fragmentation mode: CID
Collision energy: Ramp 19.8-29.7 eV
Resolution: 35000
Column name: Acclaim RSLC C18 2.2um, 2.1x100mm, Thermo
Retention time: 3.713 min
Base peak: 268.1546
Precursor m/z: 250.0645
Precursor type: [M+H]+
m/z	relative intensity	assigned
53.0379	5	C4H5+
55.0172	5	C3H3O+
56.0491	137	C3H6N+
57.0521	7	C2[13]CH6N+
58.0646	83	C3H8N+
60.0797	8	C3H10N+
65.0382	44	C5H5+
67.0414	9	C4H5N+
68.049	120	C4H6N+
69.033	7	C4H5O+
72.0804	287	C4H10N+
73.0835	10	C3[13]CH10N+
74.0598	263	C3H8NO+
75.0638	9	C2[13]CH8NO+
78.0337	10	C5H4N+
79.0178	19	C5H3O+
82.029	5	C4H4NO+
86.096	18	C5H12N+
92.05	187	C6H6N+
93.0448	15	C5H5N2+
93.0573	41	C6H7N+
94.053	43	C5H6N2+
94.0652	6	C6H8N+
95.061	320	C5H7N2+
96.0448	16	C5H6NO+
96.0642	12	C4[13]CH7N2+
98.0971	79	C6H12N+
99.1014	5	C5[13]CH12N+
108.0458	211	C6H6NO+
109.0491	18	C5[13]CH6NO+
110.061	34	C6H8NO+
117.0567	8	H11N3O2S+
117.0691	11	C9H9+
118.0652	38	C8H8N+
120.0562	19	C6H6N3+
130.0641	22	CH12N3O2S+
132.0443	22	C8H6NO+
132.0793	8	C9H10N+
133.0511	11	C8H7NO+
134.0593	203	C8H8NO+
135.062	21	C7[13]CH8NO+
143.0724	9	C10H9N+
144.0801	212	C10H10N+
145.0643	5	C10H9O+
145.0835	22	C9[13]CH10N+
146.0592	270	C9H8NO+
147.0625	26	C8[13]CH8NO+
154.0648	6	C11H8N+
155.0595	7	C10H7N2+
156.0106	999	C6H6NO2S+
157.0095	84	C10H5S+
158.007	55	C6H6NO2[34]S+
159.0021	5	C8H3N2S+
160.0756	28	C10H10NO+
167.0598	13	C11H7N2+
168.0679	6	C11H8N2+
169.0741	7	C11H9N2+
171.0666	5	C11H9NO+
172.0751	480	C11H10NO+
173.0784	59	C10[13]CH10NO+
183.0791	6	C11H9N3+
184.0864	733	C11H10N3+
185.0894	74	C10[13]CH10N3+
186.1024	14	C11H12N3+
250.0648	546	C11H12N3O2S+
251.0678	64	C10[13]CH12N3O2S+
252.0618	16	C11H12N3O2[34]S+
