Mass spectrum: Efavirenz; LC-ESI-QTOF; MS2; CE: 10 eV; R=35000; [M+H]+
Name: Efavirenz
Name: 6-Chloro-4-(cyclopropylethynyl)-4-(trifluoromethyl)-1,4-dihydro-2H-3,1-benzoxazin-2-one
Name: 6-chloro-4-(2-cyclopropylethynyl)-4-(trifluoromethyl)-1H-3,1-benzoxazin-2-one
Formula: C14H9ClF3NO2
Exact mass: 315.0273909
SMILES: FC(F)(F)C1(OC(=O)NC2=C1C=C(Cl)C=C2)C#CC1CC1
InChI: InChI=1S/C14H9ClF3NO2/c15-9-3-4-11-10(7-9)13(14(16,17)18,21-12(20)19-11)6-5-8-1-2-8/h3-4,7-8H,1-2H2,(H,19,20)
Instrument: Bruker maXis Impact
Instrument type: LC-ESI-QTOF
Ms type: MS2
Ion mode: POSITIVE
Ionization: ESI
Fragmentation mode: CID
Collision energy: 10 eV
Resolution: 35000
Column name: Acclaim RSLC C18 2.2um, 2.1x100mm, Thermo
Retention time: 10.662 min
Base peak: 491.2317
Precursor m/z: 316.0347
Precursor type: [M+H]+
m/z	relative intensity	assigned
168.0801	123	C12H10N+
203.0476	124	C12H10ClN+
220.0107	108	C9H7ClF2O2+
222.053	71	C12H7F3N+
232.0128	234	C12H7ClNO2+
234.0157	65	C12H7[37]ClNO2+
236.0725	91	C13H9F3N+
237.0744	301	C13H10F3N+
238.0785	48	C12[13]CH10F3N+
244.0123	498	C14H6ClFO+
245.0155	100	C13[13]CH6ClFO+
246.0089	156	C14H6[37]ClFO+
252.0369	162	C13H9ClF2N+
254.0354	54	C13H9[37]ClF2N+
270.0274	68	C13H8ClF3N+
272.0441	749	C13H10ClF3N+
273.0462	118	C12[13]CH10ClF3N+
274.0419	199	C13H10[37]ClF3N+
278.0165	57	C14H7ClF2NO+
298.0241	127	C14H8ClF3NO+
300.0236	49	C14H8[37]ClF3NO+
316.0337	999	C14H10ClF3NO2+
317.0374	156	C13[13]CH10ClF3NO2+
318.0321	265	C14H10[37]ClF3NO2+
