Mass spectrum: Methiocarb-sulfoxide phenol; LC-ESI-QTOF; MS2; CE: 50 eV; R=35000; [M+H]+
Name: Methiocarb-sulfoxide phenol
Name: Phenol, 3,5-dimethyl-4-(methylsulfinyl)-
Name: 3,5-dimethyl-4-methylsulfinylphenol
Formula: C9H12O2S
Exact mass: 184.0558006
SMILES: CC1=CC(O)=CC(C)=C1S(C)=O
InChI: InChI=1S/C9H12O2S/c1-6-4-8(10)5-7(2)9(6)12(3)11/h4-5,10H,1-3H3
Instrument: Bruker maXis Impact
Instrument type: LC-ESI-QTOF
Ms type: MS2
Ion mode: POSITIVE
Ionization: ESI
Fragmentation mode: CID
Collision energy: 50 eV
Resolution: 35000
Column name: Acclaim RSLC C18 2.2um, 2.1x100mm, Thermo
Retention time: 4.667 min
Base peak: 185.0622
Precursor m/z: 185.0631
Precursor type: [M+H]+
m/z	relative intensity	assigned
107.0495	46	C7H7O+
109.063	61	C7H9O+
120.0565	48	C8H8O+
121.0639	999	C8H9O+
122.071	285	C8H10O+
123.0249	130	C7H7S+
123.0736	42	C7[13]CH10O+
125.043	43	C7H9S+
133.0086	51	C8H5S+
134.0181	103	C8H6S+
137.0041	324	C7H5OS+
138.0115	199	C7H6OS+
150.0119	96	C8H6OS+
151.02	965	C8H7OS+
152.0258	241	C8H8OS+
153.0166	54	C8H7O[34]S+
153.0349	387	C8H9OS+
154.0404	54	C7[13]CH9OS+
