Mass spectrum: Climbazol; LC-ESI-QTOF; MS2; CE: 30 eV; R=35000; [M+H]+
Name: Climbazol
Name: Climbazole
Name: 1-(4-chlorophenoxy)-1-imidazol-1-yl-3,3-dimethylbutan-2-one
Formula: C15H17ClN2O2
Exact mass: 292.0978555
SMILES: CC(C)(C)C(=O)C(OC1=CC=C(Cl)C=C1)N1C=CN=C1
InChI: InChI=1S/C15H17ClN2O2/c1-15(2,3)13(19)14(18-9-8-17-10-18)20-12-6-4-11(16)5-7-12/h4-10,14H,1-3H3
Instrument: Bruker maXis Impact
Instrument type: LC-ESI-QTOF
Ms type: MS2
Ion mode: POSITIVE
Ionization: ESI
Fragmentation mode: CID
Collision energy: 30 eV
Resolution: 35000
Column name: Acclaim RSLC C18 2.2um, 2.1x100mm, Thermo
Retention time: 9.790 min
Base peak: 293.1053
Precursor m/z: 293.1051
Precursor type: [M+H]+
m/z	relative intensity	assigned
113.0144	9	C6H6Cl+
120.0558	6	C8H8O+
121.0636	7	C8H9O+
125.0141	7	C8HN2+
126.9936	394	C6H4ClO+
127.9969	24	C5[13]CH4ClO+
128.9905	104	C6H4[37]ClO+
129.0094	499	C6H6ClO+
129.9942	5	C4H3ClN2O+
130.0127	31	C5[13]CH6ClO+
131.0062	141	C6H6[37]ClO+
132.0094	5	C4H5ClN2O+
133.1006	5	C10H13+
137.1065	43	C8H13N2+
141.0092	999	C7H6ClO+
142.0125	72	C6[13]CH6ClO+
143.0062	242	C7H6[37]ClO+
144.0097	10	C5H5ClN2O+
144.0929	6	C11H12+
146.0709	5	C10H10O+
147.0793	18	C10H11O+
153.0458	7	C9H10Cl+
155.0247	464	C8H8ClO+
156.0278	39	C7[13]CH8ClO+
157.0214	108	C8H8[37]ClO+
161.0949	56	C11H13O+
162.1012	22	C11H14O+
166.1091	23	C9H14N2O+
175.0748	10	C11H11O2+
179.0615	8	C11H12Cl+
181.0571	5	C9H10ClN2+
190.0976	30	C12H14O2+
191.102	5	C11[13]CH14O2+
197.0719	944	C11H14ClO+
198.0748	108	C10[13]CH14ClO+
199.0689	243	C11H14[37]ClO+
200.072	17	C9H13ClN2O+
225.0676	7	C12H14ClO2+
293.1043	11	C15H18ClN2O2+
