Mass spectrum: Bezafibrate; LC-ESI-QTOF; MS2; CE: 40 eV; R=35000; [M+H]+
Name: Bezafibrate
Name: 2-[4-[2-[(4-chlorobenzoyl)amino]ethyl]phenoxy]-2-methylpropanoic acid
Formula: C19H20ClNO4
Exact mass: 361.1080858
SMILES: CC(C)(OC1=CC=C(CCNC(=O)C2=CC=C(Cl)C=C2)C=C1)C(O)=O
InChI: InChI=1S/C19H20ClNO4/c1-19(2,18(23)24)25-16-9-3-13(4-10-16)11-12-21-17(22)14-5-7-15(20)8-6-14/h3-10H,11-12H2,1-2H3,(H,21,22)(H,23,24)
Instrument: Bruker maXis Impact
Instrument type: LC-ESI-QTOF
Ms type: MS2
Ion mode: POSITIVE
Ionization: ESI
Fragmentation mode: CID
Collision energy: 40 eV
Resolution: 35000
Column name: Acclaim RSLC C18 2.2um, 2.1x100mm, Thermo
Retention time: 8.978 min
Base peak: 419.2693
Precursor m/z: 362.1154
Precursor type: [M+H]+
m/z	relative intensity	assigned
110.9986	29	C6H4Cl+
121.064	423	C8H9O+
122.067	58	C7[13]CH9O+
138.9934	999	C7H4ClO+
139.9971	67	C6[13]CH4ClO+
140.9909	242	C7H4[37]ClO+
161.0948	64	C5H18ClO3+
