Mass spectrum: Metolachlor CGA 368208; LC-ESI-QTOF; MS2; CE: 30 eV; R=35000; [M+H]+
Name: Metolachlor CGA 368208
Name: 2-(2-ethyl-6-methylanilino)-2-oxoethanesulfonic acid
Formula: C11H15NO4S
Exact mass: 257.0721790
SMILES: CCC1=CC=CC(C)=C1NC(=O)CS(O)(=O)=O
InChI: InChI=1S/C11H15NO4S/c1-3-9-6-4-5-8(2)11(9)12-10(13)7-17(14,15)16/h4-6H,3,7H2,1-2H3,(H,12,13)(H,14,15,16)
Instrument: Bruker maXis Impact
Instrument type: LC-ESI-QTOF
Ms type: MS2
Ion mode: POSITIVE
Ionization: ESI
Fragmentation mode: CID
Collision energy: 30 eV
Resolution: 35000
Column name: Acclaim RSLC C18 2.2um, 2.1x100mm, Thermo
Retention time: 5.193 min
Base peak: 258.0784
Precursor m/z: 258.0795
Precursor type: [M+H]+
m/z	relative intensity	assigned
117.0689	61	C9H9+
119.0849	66	C9H11+
120.0799	218	C8H10N+
134.0958	100	C9H12N+
135.1028	186	C6H15O3+
136.1108	999	C9H14N+
137.1137	115	C8[13]CH14N+
143.0713	100	C7H11O3+
144.0773	132	C7H12O3+
147.0662	121	C6H11O4+
148.0736	190	C6H12O4+
148.1103	157	C7H16O3+
158.0953	118	C11H12N+
159.1029	90	C8H15O3+
162.0907	167	C10H12NO+
177.1145	115	C11H15NO+
