Mass spectrum: Boscalid; LC-ESI-QTOF; MS2; CE: Ramp 22.5-33.7 eV; R=35000; [M+H]+
Name: Boscalid
Name: 2-chloro-N-[2-(4-chlorophenyl)phenyl]pyridine-3-carboxamide
Formula: C18H12Cl2N2O
Exact mass: 342.0326684
SMILES: ClC1=CC=C(C=C1)C1=CC=CC=C1NC(=O)C1=CC=CN=C1Cl
InChI: InChI=1S/C18H12Cl2N2O/c19-13-9-7-12(8-10-13)14-4-1-2-6-16(14)22-18(23)15-5-3-11-21-17(15)20/h1-11H,(H,22,23)
Instrument: Bruker maXis Impact
Instrument type: LC-ESI-QTOF
Ms type: MS2
Ion mode: POSITIVE
Ionization: ESI
Fragmentation mode: CID
Collision energy: Ramp 22.5-33.7 eV
Resolution: 35000
Column name: Acclaim RSLC C18 2.2um, 2.1x100mm, Thermo
Retention time: 9.432 min
Base peak: 333.1811
Precursor m/z: 343.0399
Precursor type: [M+H]+
m/z	relative intensity	assigned
96.0447	8	C2H9ClN2+
98.9847	13	C4H2ClN+
112.0412	6	C2H9ClN2O+
114.0108	6	C5H5ClN+
139.9891	306	C6H3ClNO+
140.9925	17	C5[13]CH3ClNO+
141.9861	84	C6H3[37]ClNO+
174.9918	12	C10H4ClO+
243.0917	9	C17H11N2+
244.0981	5	C17H12N2+
254.0828	8	C18H10N2+
271.0868	228	C18H11N2O+
272.0937	249	C18H12N2O+
273.0972	42	C17[13]CH12N2O+
289.0529	28	C18H10ClN2+
290.0556	7	C17[13]CH10ClN2+
291.0496	7	C18H10[37]ClN2+
307.0635	999	C18H12ClN2O+
308.067	196	C17[13]CH12ClN2O+
309.0608	270	C18H12[37]ClN2O+
343.0404	182	C18H13Cl2N2O+
344.0424	48	C17[13]CH13Cl2N2O+
345.0372	131	C18H13Cl[37]ClN2O+
