Mass spectrum: Cyproterone; LC-ESI-QTOF; MS2; CE: 10 eV; R=35000; [M+H]+
Name: Cyproterone
Name: (1S,2S,3S,5R,11R,12S,15R,16S)-15-acetyl-9-chloro-15-hydroxy-2,16-dimethylpentacyclo[9.7.0.02,8.03,5.012,16]octadeca-7,9-dien-6-one
Formula: C22H27ClO3
Exact mass: 374.1648724
SMILES: CC(=O)[C@@]1(O)CC[C@H]2[C@@H]3C=C(Cl)C4=CC(=O)[C@@H]5C[C@@H]5[C@]4(C)[C@H]3CC[C@]12C
InChI: InChI=1S/C22H27ClO3/c1-11(24)22(26)7-5-14-12-9-18(23)17-10-19(25)13-8-16(13)21(17,3)15(12)4-6-20(14,22)2/h9-10,12-16,26H,4-8H2,1-3H3/t12-,13+,14-,15-,16-,20-,21-,22-/m0/s1
Instrument: Bruker maXis Impact
Instrument type: LC-ESI-QTOF
Ms type: MS2
Ion mode: POSITIVE
Ionization: ESI
Fragmentation mode: CID
Collision energy: 10 eV
Resolution: 35000
Column name: Acclaim RSLC C18 2.2um, 2.1x100mm, Thermo
Retention time: 10.112 min
Base peak: 375.1717
Precursor m/z: 375.1721
Precursor type: [M+H]+
m/z	relative intensity	assigned
321.1831	7	C22H25O2+
375.1722	999	C22H28ClO3+
376.1755	173	C21[13]CH28ClO3+
377.1697	213	C22H28[37]ClO3+
