Mass spectrum: 17alpha-Hydroxyprogesterone; LC-ESI-QTOF; MS2; CE: 40 eV; R=35000; [M+H]+
Name: 17alpha-Hydroxyprogesterone
Name: 17alpha-Hydroxypregn-4-ene-3,20-dione
Name: 17-acetyl-17-hydroxy-10,13-dimethyl-2,6,7,8,9,11,12,14,15,16-decahydro-1H-cyclopenta[a]phenanthren-3-one
Formula: C21H30O3
Exact mass: 330.2194948
SMILES: CC(=O)C1(O)CCC2C3CCC4=CC(=O)CCC4(C)C3CCC12C
InChI: InChI=1S/C21H30O3/c1-13(22)21(24)11-8-18-16-5-4-14-12-15(23)6-9-19(14,2)17(16)7-10-20(18,21)3/h12,16-18,24H,4-11H2,1-3H3
Instrument: Bruker maXis Impact
Instrument type: LC-ESI-QTOF
Ms type: MS2
Ion mode: POSITIVE
Ionization: ESI
Fragmentation mode: CID
Collision energy: 40 eV
Resolution: 35000
Column name: Acclaim RSLC C18 2.2um, 2.1x100mm, Thermo
Retention time: 9.994 min
Base peak: 331.2264
Precursor m/z: 331.2268
Precursor type: [M+H]+
m/z	relative intensity	assigned
109.0637	41	C7H9O+
115.0543	58	C9H7+
117.0686	124	C9H9+
119.0845	371	C9H11+
120.0877	53	C8[13]CH11+
121.0639	147	C8H9O+
121.1001	109	C9H13+
123.0796	840	C8H11O+
124.0831	71	C7[13]CH11O+
125.0949	21	C8H13O+
128.0611	101	C10H8+
129.0696	184	C10H9+
130.0758	84	C10H10+
131.0844	435	C10H11+
133.0629	46	C9H9O+
133.0998	456	C10H13+
134.104	84	C9[13]CH13+
135.0786	149	C9H11O+
135.1152	148	C10H15+
137.0944	295	C9H13O+
138.0977	30	C8[13]CH13O+
141.0679	96	C11H9+
142.0765	106	C11H10+
143.0842	412	C11H11+
144.0907	106	C11H12+
145.1001	999	C11H13+
146.1033	140	C10[13]CH13+
147.0795	164	C10H11O+
147.1152	705	C11H15+
148.0857	58	C10H12O+
148.119	72	C10[13]CH15+
149.0951	182	C10H13O+
149.1315	108	C11H17+
150.0981	34	C9[13]CH13O+
151.1114	52	C10H15O+
153.0689	36	C12H9+
154.0788	24	C12H10+
155.0841	259	C12H11+
156.0915	143	C12H12+
157.0998	596	C12H13+
158.1043	100	C11[13]CH13+
159.0777	41	C11H11O+
159.1154	810	C12H15+
160.1196	130	C11[13]CH15+
161.0944	175	C11H13O+
161.1312	377	C12H17+
162.0999	27	C10[13]CH13O+
162.134	57	C11[13]CH17+
163.1104	505	C11H15O+
163.1473	77	C12H19+
164.1145	63	C10[13]CH15O+
165.0687	27	C13H9+
167.0841	51	C13H11+
168.0911	66	C13H12+
169.0998	405	C13H13+
170.1065	132	C13H14+
171.1154	585	C13H15+
172.1205	92	C12[13]CH15+
173.0948	80	C12H13O+
173.1314	442	C13H17+
174.104	25	C12H14O+
174.1357	103	C12[13]CH17+
175.1112	208	C12H15O+
175.1466	393	C13H19+
176.1163	34	C11[13]CH15O+
176.1515	65	C12[13]CH19+
177.1253	291	C12H17O+
178.1275	52	C11[13]CH17O+
180.0906	32	C14H12+
181.1005	95	C14H13+
182.1066	62	C14H14+
183.1153	293	C14H15+
184.1216	66	C13[13]CH15+
185.0961	29	C13H13O+
185.1312	325	C14H17+
186.134	62	C13[13]CH17+
187.1098	89	C13H15O+
187.1465	241	C14H19+
188.1502	43	C13[13]CH19+
189.1256	159	C13H17O+
189.162	54	C14H21+
191.1403	69	C13H19O+
192.0911	21	C15H12+
193.0982	54	C15H13+
194.1067	23	C15H14+
195.1151	209	C15H15+
196.121	57	C14[13]CH15+
197.1314	288	C15H17+
198.1379	103	C15H18+
199.1098	38	C14H15O+
199.1474	304	C15H19+
200.1511	73	C14[13]CH19+
201.1261	96	C14H17O+
201.1625	62	C15H21+
202.1319	31	C14H18O+
203.1427	78	C14H19O+
205.1579	91	C14H21O+
206.1078	23	C16H14+
207.1158	51	C16H15+
208.1215	29	C16H16+
209.1322	100	C16H17+
210.1395	46	C16H18+
211.11	23	C15H15O+
211.147	303	C16H19+
212.1531	101	C16H20+
213.1262	59	C15H17O+
213.1626	328	C16H21+
214.1346	23	C15H18O+
214.1656	86	C15[13]CH21+
215.1413	78	C15H19O+
216.1472	27	C15H20O+
217.1568	67	C15H21O+
221.1281	36	C17H17+
222.1416	53	C17H18+
223.1465	83	C17H19+
224.1535	33	C17H20+
225.1275	23	C16H17O+
225.1616	118	C17H21+
227.1411	38	C16H19O+
227.1759	48	C17H23+
229.1575	52	C16H21O+
231.1777	24	C16H23O+
233.1323	27	C18H17+
235.1479	29	C18H19+
236.154	38	C18H20+
237.1625	232	C18H21+
238.1671	60	C17[13]CH21+
239.143	48	C17H19O+
240.1477	27	C17H20O+
241.1567	57	C17H21O+
242.1627	24	C17H22O+
243.1756	40	C17H23O+
248.1553	22	C19H20+
249.1667	24	C19H21+
251.1788	115	C19H23+
252.1842	105	C19H24+
253.1942	310	C19H25+
254.1973	63	C18[13]CH25+
255.1746	166	C18H23O+
256.1775	57	C17[13]CH23O+
265.1609	28	C19H21O+
269.1904	66	C19H25O+
270.1983	96	C19H26O+
271.2044	183	C19H27O+
272.2092	42	C18[13]CH27O+
277.1916	34	C21H25+
280.1814	34	C20H24O+
285.1899	22	C19H25O2+
295.2041	72	C21H27O+
313.2168	31	C21H29O2+
