Mass spectrum: Canrenone; LC-ESI-QTOF; MS2; CE: 40 eV; R=35000; [M+H]+
Name: Canrenone
Name: UJVLDDZCTMKXJK-AFDHUMPMSA-N
Name: (9S,14S)-10,13-dimethylspiro[2,8,9,11,12,14,15,16-octahydro-1H-cyclopenta[a]phenanthrene-17,5`-oxolane]-2`,3-dione
Formula: C22H28O3
Exact mass: 340.2038448
SMILES: CC12CC[C@H]3C(C=CC4=CC(=O)CCC34C)[C@@H]1CCC21CCC(=O)O1
InChI: InChI=1S/C22H28O3/c1-20-9-5-15(23)13-14(20)3-4-16-17(20)6-10-21(2)18(16)7-11-22(21)12-8-19(24)25-22/h3-4,13,16-18H,5-12H2,1-2H3/t16?,17-,18-,20?,21?,22?/m0/s1
Instrument: Bruker maXis Impact
Instrument type: LC-ESI-QTOF
Ms type: MS2
Ion mode: POSITIVE
Ionization: ESI
Fragmentation mode: CID
Collision energy: 40 eV
Resolution: 35000
Column name: Acclaim RSLC C18 2.2um, 2.1x100mm, Thermo
Retention time: 9.693 min
Base peak: 341.2106
Precursor m/z: 341.2111
Precursor type: [M+H]+
m/z	relative intensity	assigned
107.0851	10	C8H11+
115.0537	79	C9H7+
116.06	22	C9H8+
117.0687	99	C9H9+
119.0845	415	C9H11+
120.0885	44	C8[13]CH11+
121.0637	97	C8H9O+
121.1	117	C9H13+
122.1045	10	C8[13]CH13+
123.0792	103	C8H11O+
125.0585	43	C7H9O2+
127.0535	14	C10H7+
128.0613	151	C10H8+
129.0685	173	C10H9+
130.076	43	C10H10+
131.0841	493	C10H11+
132.0569	17	C9H8O+
132.0879	77	C9[13]CH11+
133.0638	104	C9H9O+
133.1001	370	C10H13+
134.1044	30	C9[13]CH13+
135.0793	184	C9H11O+
135.115	53	C10H15+
136.0832	18	C8[13]CH11O+
137.0943	55	C9H13O+
141.0684	166	C11H9+
142.076	147	C11H10+
143.0842	999	C11H11+
144.0545	29	C10H8O+
144.0882	139	C10[13]CH11+
145.0628	110	C10H9O+
145.0999	994	C11H13+
146.07	30	C10H10O+
146.1038	110	C10[13]CH13+
147.0791	378	C10H11O+
147.1152	159	C11H15+
148.0843	67	C9[13]CH11O+
149.0943	281	C10H13O+
149.1313	17	C11H17+
150.0981	35	C9[13]CH13O+
151.0745	14	C9H11O2+
151.1092	16	C10H15O+
152.0596	9	C12H8+
153.0684	43	C12H9+
153.0893	47	C9H13O2+
154.076	126	C12H10+
155.0839	225	C12H11+
156.0902	73	C12H12+
157.0998	462	C12H13+
158.0715	53	C11H10O+
158.104	63	C11[13]CH13+
159.0787	219	C11H11O+
159.1152	344	C12H15+
160.0852	50	C11H12O+
160.1189	49	C11[13]CH15+
161.0945	395	C11H13O+
161.1312	57	C12H17+
162.0991	47	C10[13]CH13O+
163.0736	21	C10H11O2+
163.1103	204	C11H15O+
164.1133	25	C10[13]CH15O+
165.0689	30	C13H9+
165.0895	134	C10H13O2+
166.0742	12	C13H10+
166.0933	15	C9[13]CH13O2+
167.0848	71	C13H11+
167.1059	38	C10H15O2+
168.0921	47	C13H12+
169.0997	915	C13H13+
170.1058	204	C12[13]CH13+
171.0789	80	C12H11O+
171.1153	231	C13H15+
172.0858	34	C12H12O+
172.1204	40	C12[13]CH15+
173.0948	850	C12H13O+
173.1315	62	C13H17+
174.0985	138	C11[13]CH13O+
175.1102	522	C12H15O+
176.1141	59	C11[13]CH15O+
177.0902	20	C11H13O2+
177.1253	134	C12H17O+
178.1295	19	C11[13]CH17O+
179.0836	44	C14H11+
179.1056	201	C11H15O2+
180.0912	40	C14H12+
180.1082	24	C10[13]CH15O2+
181.0993	216	C14H13+
181.1247	11	C11H17O2+
182.1053	59	C14H14+
183.1155	333	C14H15+
184.0856	19	C13H12O+
184.1192	53	C13[13]CH15+
185.0943	61	C13H13O+
185.131	427	C14H17+
186.1368	96	C13[13]CH17+
187.1102	713	C13H15O+
188.1138	126	C12[13]CH15O+
189.1256	71	C13H17O+
190.1292	9	C12[13]CH17O+
191.1053	25	C12H15O2+
192.0916	18	C15H12+
193.098	57	C15H13+
193.1208	18	C12H17O2+
194.107	59	C15H14+
195.1153	160	C15H15+
196.121	44	C15H16+
197.095	21	C14H13O+
197.1312	123	C15H17+
198.1033	13	C14H14O+
198.1347	34	C14[13]CH17+
199.1098	124	C14H15O+
199.147	78	C15H19+
200.1155	33	C14H16O+
200.1507	16	C14[13]CH19+
201.1252	53	C14H17O+
201.16	11	C15H21+
202.1317	10	C13[13]CH17O+
203.0831	8	C16H11+
205.1002	18	C16H13+
205.121	321	C13H17O2+
206.11	18	C16H14+
206.125	48	C12[13]CH17O2+
207.1161	74	C16H15+
208.1226	69	C16H16+
209.0918	26	C15H13O+
209.1313	123	C16H17+
210.1033	12	C15H14O+
210.1381	86	C16H18+
211.1106	41	C15H15O+
211.1451	60	C16H19+
212.1175	19	C15H16O+
212.1537	18	C15[13]CH19+
213.1254	93	C15H17O+
214.1311	23	C14[13]CH17O+
215.1048	18	C14H15O2+
215.139	31	C15H19O+
217.1006	19	C17H13+
217.1195	25	C14H17O2+
218.1066	18	C17H14+
219.1173	39	C17H15+
219.1367	19	C14H19O2+
220.121	14	C16[13]CH15+
221.1317	138	C17H17+
222.1351	43	C16[13]CH17+
223.1104	40	C16H15O+
223.1465	158	C17H19+
224.1506	34	C16[13]CH19+
225.1249	59	C16H17O+
225.1625	51	C17H21+
226.1343	14	C15[13]CH17O+
226.1689	10	C16[13]CH21+
227.1414	65	C16H19O+
228.148	37	C16H20O+
229.1234	15	C15H17O2+
229.153	10	C16H21O+
231.1139	10	C18H15+
231.1365	25	C15H19O2+
232.1229	21	C18H16+
233.1325	34	C18H17+
234.1412	12	C18H18+
235.1111	11	C17H15O+
235.1469	78	C18H19+
236.1513	16	C17[13]CH19+
237.1255	20	C17H17O+
237.1632	48	C18H21+
238.131	13	C17H18O+
239.1428	53	C17H19O+
239.177	16	C18H23+
240.1471	17	C17H20O+
241.1193	17	C16H17O2+
241.1581	53	C17H21O+
243.1726	44	C17H23O+
244.1764	9	C16[13]CH23O+
245.1318	14	C19H17+
245.1523	20	C16H21O2+
246.1378	20	C19H18+
247.1475	38	C19H19+
248.1524	23	C19H20+
249.1274	24	C18H17O+
249.1598	29	C19H21+
250.1329	12	C18H18O+
250.1704	20	C19H22+
251.1418	18	C18H19O+
251.1822	12	C19H23+
252.1457	16	C18H20O+
253.1177	9	C17H17O2+
253.1584	41	C18H21O+
253.1958	13	C19H25+
254.1632	12	C17[13]CH21O+
255.1363	11	C17H19O2+
257.1283	10	C20H17+
257.1533	45	C17H21O2+
258.1596	12	C16[13]CH21O2+
259.1506	11	C20H19+
259.1687	25	C17H23O2+
261.1633	49	C20H21+
262.1653	15	C19[13]CH21+
263.1409	25	C19H19O+
263.178	51	C20H23+
264.1829	20	C20H24+
265.157	76	C19H21O+
266.1656	29	C19H22O+
267.1376	20	C18H19O2+
267.1735	39	C19H23O+
268.1429	9	C18H20O2+
268.1806	93	C19H24O+
269.1831	17	C18[13]CH24O+
271.1692	33	C18H23O2+
272.1607	9	C21H20+
277.1565	25	C20H21O+
277.1965	23	C21H25+
279.173	37	C20H23O+
280.1773	15	C20H24O+
281.1524	17	C19H21O2+
281.1899	71	C20H25O+
282.1943	19	C19[13]CH25O+
283.1686	207	C19H23O2+
284.1713	42	C18[13]CH23O2+
285.1496	10	C18H21O3+
287.1773	20	C22H23+
290.1705	8	C21H22O+
295.1716	12	C20H23O2+
295.2063	28	C21H27O+
296.2139	9	C20[13]CH27O+
297.1826	9	C20H25O2+
299.1997	8	C20H27O2+
305.1895	66	C22H25O+
306.1989	12	C21[13]CH25O+
308.1771	13	C21H24O2+
323.1997	84	C22H27O2+
324.2027	30	C21[13]CH27O2+
326.1874	25	C21H26O3+
341.2091	272	C22H29O3+
342.2162	61	C21[13]CH29O3+
