Mass spectrum: Glimepiride; LC-ESI-QTOF; MS2; CE: 30 eV; R=35000; [M+H]+
Name: Glimepiride
Name: 4-ethyl-3-methyl-N-[2-[4-[(4-methylcyclohexyl)carbamoylsulfamoyl]phenyl]ethyl]-5-oxo-2H-pyrrole-1-carboxamide
Formula: C24H34N4O5S
Exact mass: 490.2249912
SMILES: CCC1=C(C)CN(C(=O)NCCC2=CC=C(C=C2)S(=O)(=O)NC(=O)NC2CCC(C)CC2)C1=O
InChI: InChI=1S/C24H34N4O5S/c1-4-21-17(3)15-28(22(21)29)24(31)25-14-13-18-7-11-20(12-8-18)34(32,33)27-23(30)26-19-9-5-16(2)6-10-19/h7-8,11-12,16,19H,4-6,9-10,13-15H2,1-3H3,(H,25,31)(H2,26,27,30)
Instrument: Bruker maXis Impact
Instrument type: LC-ESI-QTOF
Ms type: MS2
Ion mode: POSITIVE
Ionization: ESI
Fragmentation mode: CID
Collision energy: 30 eV
Resolution: 35000
Column name: Acclaim RSLC C18 2.2um, 2.1x100mm, Thermo
Retention time: 10.593 min
Base peak: 491.2311
Precursor m/z: 491.2323
Precursor type: [M+H]+
m/z	relative intensity	assigned
124.0748	55	C5H8N4+
125.0778	7	C2H11N3O3+
126.0904	999	C5H10N4+
127.0935	82	C4[13]CH10N4+
151.0206	12	C8H7OS+
152.0692	17	C6H8N4O+
167.0145	128	C6H5N3OS+
168.0187	12	C5[13]CH5N3OS+
169.0041	19	C3H7NO5S+
170.0798	31	C6H10N4O2+
174.0652	9	C9H8N3O+
179.0802	19	CH15N4O4S+
181.0959	156	C10H15NS+
182.0983	17	C9[13]CH15NS+
184.0419	8	C6H8N4OS+
210.0203	18	C7H6N4O2S+
229.0635	15	C15H7N3+
246.0425	7	C15H6N2O2+
271.1438	16	C16H19N2O2+
287.1385	15	C8H23N4O5S+
292.098	22	C13H16N4O2S+
304.0703	5	C17H10N3O3+
335.1056	220	C16H19N2O4S+
336.1077	43	C15[13]CH19N2O4S+
337.1047	10	C16H19N2O4[34]S+
352.1324	481	C18H24O5S+
353.1343	97	C17[13]CH24O5S+
354.1304	27	C18H24O5[34]S+
369.0649	7	C17H13N4O4S+
378.112	20	C23H14N4O2+
379.1139	5	C22[13]CH14N4O2+
394.1654	15	C23H24NO5+
