Mass spectrum: Chloridazon; LC-ESI-QTOF; MS2; CE: Ramp 18.8-28.2 eV; R=35000; [M+H]+
Name: Chloridazon
Name: 5-amino-4-chloro-2-phenylpyridazin-3-one
Formula: C10H8ClN3O
Exact mass: 221.0355896
SMILES: NC1=C(Cl)C(=O)N(N=C1)C1=CC=CC=C1
InChI: InChI=1S/C10H8ClN3O/c11-9-8(12)6-13-14(10(9)15)7-4-2-1-3-5-7/h1-6H,12H2
Instrument: Bruker maXis Impact
Instrument type: LC-ESI-QTOF
Ms type: MS2
Ion mode: POSITIVE
Ionization: ESI
Fragmentation mode: CID
Collision energy: Ramp 18.8-28.2 eV
Resolution: 35000
Column name: Acclaim RSLC C18 2.2um, 2.1x100mm, Thermo
Retention time: 5.420 min
Base peak: 222.0429
Precursor m/z: 222.0429
Precursor type: [M+H]+
m/z	relative intensity	assigned
65.0389	8	C5H5+
92.0493	11	C6H6N+
104.0498	11	C7H6N+
128.9843	39	C4H2ClN2O+
130.0641	6	C9H8N+
130.9817	7	C4H2[37]ClN2O+
131.0611	5	C8H7N2+
132.0434	5	C8H6NO+
146.0108	27	C4H5ClN3O+
148.0077	6	C4H5[37]ClN3O+
159.0553	8	C9H7N2O+
186.0662	15	C10H8N3O+
193.0274	20	C10H8ClNO+
194.0356	6	C10H9ClNO+
195.0288	8	C10H8[37]ClNO+
207.0218	5	C9H6ClN3O+
222.0429	999	C10H9ClN3O+
223.0454	89	C9[13]CH9ClN3O+
224.0399	273	C10H9[37]ClN3O+
