Mass spectrum: Glibenclamide; LC-ESI-QTOF; MS2; CE: 30 eV; R=35000; [M+H]+
Name: Glibenclamide
Name: Glyburide
Name: 5-chloro-N-[2-[4-(cyclohexylcarbamoylsulfamoyl)phenyl]ethyl]-2-methoxybenzamide
Formula: C23H28ClN3O5S
Exact mass: 493.1438197
SMILES: COC1=C(C=C(Cl)C=C1)C(=O)NCCC1=CC=C(C=C1)S(=O)(=O)NC(=O)NC1CCCCC1
InChI: InChI=1S/C23H28ClN3O5S/c1-32-21-12-9-17(24)15-20(21)22(28)25-14-13-16-7-10-19(11-8-16)33(30,31)27-23(29)26-18-5-3-2-4-6-18/h7-12,15,18H,2-6,13-14H2,1H3,(H,25,28)(H2,26,27,29)
Instrument: Bruker maXis Impact
Instrument type: LC-ESI-QTOF
Ms type: MS2
Ion mode: POSITIVE
Ionization: ESI
Fragmentation mode: CID
Collision energy: 30 eV
Resolution: 35000
Column name: Acclaim RSLC C18 2.2um, 2.1x100mm, Thermo
Retention time: 10.141 min
Base peak: 494.1503
Precursor m/z: 494.1511
Precursor type: [M+H]+
m/z	relative intensity	assigned
134.095	5	C3H17ClNO2+
167.0148	22	C6H5N3OS+
168.0194	9	C9H2N3O+
169.0041	999	C6H4ClN3O+
170.0073	69	C5[13]CH4ClN3O+
171.0011	250	C6H4[37]ClN3O+
172.0039	11	ClH11NO5S+
198.0302	16	C4H10N2O5S+
210.1025	7	C13H12N3+
245.0717	6	C10H15NO4S+
245.9971	10	C18NO+
259.0514	39	C13H10ClN3O+
260.0541	5	C12[13]CH10ClN3O+
261.0485	10	C13H10[37]ClN3O+
288.0783	87	C16H15ClNO2+
289.0823	14	C15[13]CH15ClNO2+
290.0755	23	C16H15[37]ClNO2+
303.0661	6	C16H14ClNO3+
304.0731	306	C16H15ClNO3+
305.0763	52	C15[13]CH15ClNO3+
306.0706	84	C16H15[37]ClNO3+
307.0727	8	C16H16ClO4+
352.0405	32	C22H9ClN2O+
353.0439	7	C21[13]CH9ClN2O+
354.0372	11	C22H9[37]ClN2O+
369.0672	644	C22H12ClN3O+
370.0691	105	C21[13]CH12ClN3O+
371.064	194	C22H12[37]ClN3O+
372.065	23	C17H14N3O5S+
394.168	8	C23H25ClN3O+
395.0458	51	C23H10ClN3O2+
396.0489	10	C22[13]CH10ClN3O2+
397.0431	15	C23H10[37]ClN3O2+
