Mass spectrum: Acetamiprid; LC-ESI-QTOF; MS2; CE: 30 eV; R=35000; [M+H]+
Name: Acetamiprid
Name: N-[(6-chloropyridin-3-yl)methyl]-N`-cyano-N-methylethanimidamide
Formula: C10H11ClN4
Exact mass: 222.0672240
SMILES: CN(CC1=CC=C(Cl)N=C1)C(C)=NC#N
InChI: InChI=1S/C10H11ClN4/c1-8(14-7-12)15(2)6-9-3-4-10(11)13-5-9/h3-5H,6H2,1-2H3
Instrument: Bruker maXis Impact
Instrument type: LC-ESI-QTOF
Ms type: MS2
Ion mode: POSITIVE
Ionization: ESI
Fragmentation mode: CID
Collision energy: 30 eV
Resolution: 35000
Column name: Acclaim RSLC C18 2.2um, 2.1x100mm, Thermo
Retention time: 5.115 min
Base peak: 223.0737
Precursor m/z: 223.0745
Precursor type: [M+H]+
m/z	relative intensity	assigned
126.0094	999	C6H5ClN+
127.0124	78	C5[13]CH5ClN+
128.0063	377	C6H5[37]ClN+
129.0093	15	C4H4ClN3+
144.0194	39	C4H5ClN4+
146.0167	11	C4H5[37]ClN4+
181.0514	5	C10H5N4+
187.0968	5	C10H11N4+
