Mass spectrum: Ethylparaben; LC-ESI-QTOF; MS2; CE: 10 eV; R=35000; [M+H]+
Name: Ethylparaben
Name: ethyl 4-hydroxybenzoate
Formula: C9H10O3
Exact mass: 166.0629942
SMILES: CCOC(=O)C1=CC=C(O)C=C1
InChI: InChI=1S/C9H10O3/c1-2-12-9(11)7-3-5-8(10)6-4-7/h3-6,10H,2H2,1H3
Instrument: Bruker maXis Impact
Instrument type: LC-ESI-QTOF
Ms type: MS2
Ion mode: POSITIVE
Ionization: ESI
Fragmentation mode: CID
Collision energy: 10 eV
Resolution: 35000
Column name: Acclaim RSLC C18 2.2um, 2.1x100mm, Thermo
Retention time: 7.153 min
Base peak: 167.0687
Precursor m/z: 167.0703
Precursor type: [M+H]+
m/z	relative intensity	assigned
121.0273	96	C7H5O2+
122.0318	11	C6[13]CH5O2+
139.0373	999	C7H7O3+
140.0409	80	C6[13]CH7O3+
167.0686	206	C9H11O3+
168.0711	26	C8[13]CH11O3+
