Mass spectrum: Orlistat; LC-ESI-QTOF; MS2; CE: 40 eV; R=35000; [M+H]+
Name: Orlistat
Name: [(2S)-1-[(2S,3S)-3-hexyl-4-oxooxetan-2-yl]tridecan-2-yl] (2S)-2-formamido-4-methylpentanoate
Formula: C29H53NO5
Exact mass: 495.3923738
SMILES: CCCCCCCCCCC[C@@H](C[C@@H]1OC(=O)[C@H]1CCCCCC)OC(=O)[C@H](CC(C)C)NC=O
InChI: InChI=1S/C29H53NO5/c1-5-7-9-11-12-13-14-15-16-18-24(34-29(33)26(30-22-31)20-23(3)4)21-27-25(28(32)35-27)19-17-10-8-6-2/h22-27H,5-21H2,1-4H3,(H,30,31)/t24-,25-,26-,27-/m0/s1
Instrument: Bruker maXis Impact
Instrument type: LC-ESI-QTOF
Ms type: MS2
Ion mode: POSITIVE
Ionization: ESI
Fragmentation mode: CID
Collision energy: 40 eV
Resolution: 35000
Column name: Acclaim RSLC C18 2.2um, 2.1x100mm, Thermo
Retention time: 14.499 min
Base peak: 513.4265
Precursor m/z: 496.3997
Precursor type: [M+H]+
m/z	relative intensity	assigned
132.1002	221	C3H16O5+
133.0852	170	C6H13O3+
137.1316	174	C10H17+
167.0544	363	C8H9NO3+
181.0696	229	C9H11NO3+
223.0622	272	C14H9NO2+
225.0432	607	C13H7NO3+
226.0415	267	C17H6O+
237.0787	707	C15H11NO2+
238.0798	359	C19H10+
239.0772	325	C11H13NO5+
283.2655	567	C18H35O2+
284.2654	199	C18H36O2+
299.0635	344	C19H9NO3+
300.0578	204	C23H8O+
342.9954	278	C22HNO4+
357.0113	408	C23H3NO4+
359.0269	999	C23H5NO4+
360.028	769	C23H6NO4+
361.0254	533	C27H5O2+
361.0437	250	C24H9O4+
394.1666	544	C23H24NO5+
395.172	320	C23H25NO5+
