Mass spectrum: Metolachlor CGA 368208; LC-ESI-QTOF; MS2; CE: 10 eV; R=35000; [M+H]+
Name: Metolachlor CGA 368208
Name: 2-(2-ethyl-6-methylanilino)-2-oxoethanesulfonic acid
Formula: C11H15NO4S
Exact mass: 257.0721790
SMILES: CCC1=CC=CC(C)=C1NC(=O)CS(O)(=O)=O
InChI: InChI=1S/C11H15NO4S/c1-3-9-6-4-5-8(2)11(9)12-10(13)7-17(14,15)16/h4-6H,3,7H2,1-2H3,(H,12,13)(H,14,15,16)
Instrument: Bruker maXis Impact
Instrument type: LC-ESI-QTOF
Ms type: MS2
Ion mode: POSITIVE
Ionization: ESI
Fragmentation mode: CID
Collision energy: 10 eV
Resolution: 35000
Column name: Acclaim RSLC C18 2.2um, 2.1x100mm, Thermo
Retention time: 5.237 min
Base peak: 258.0787
Precursor m/z: 258.0795
Precursor type: [M+H]+
m/z	relative intensity	assigned
136.1112	171	C9H14N+
137.1152	22	C8[13]CH14N+
178.1218	29	C11H16NO+
240.0681	28	C11H14NO3S+
258.0783	999	C11H16NO4S+
259.0818	117	C10[13]CH16NO4S+
260.0798	36	C11H16NO4[34]S+
