Mass spectrum: Torasemide; LC-ESI-QTOF; MS2; CE: Ramp 22.6-33.9 eV; R=35000; [M+H]+
Name: Torasemide
Name: Torsemide
Name: 1-[4-(3-methylanilino)pyridin-3-yl]sulfonyl-3-propan-2-ylurea
Formula: C16H20N4O3S
Exact mass: 348.1256115
SMILES: CC(C)NC(=O)NS(=O)(=O)C1=CN=CC=C1NC1=CC=CC(C)=C1
InChI: InChI=1S/C16H20N4O3S/c1-11(2)18-16(21)20-24(22,23)15-10-17-8-7-14(15)19-13-6-4-5-12(3)9-13/h4-11H,1-3H3,(H,17,19)(H2,18,20,21)
Instrument: Bruker maXis Impact
Instrument type: LC-ESI-QTOF
Ms type: MS2
Ion mode: POSITIVE
Ionization: ESI
Fragmentation mode: CID
Collision energy: Ramp 22.6-33.9 eV
Resolution: 35000
Column name: Acclaim RSLC C18 2.2um, 2.1x100mm, Thermo
Retention time: 6.666 min
Base peak: 430.2592
Precursor m/z: 349.1329
Precursor type: [M+H]+
m/z	relative intensity	assigned
125.0157	26	C5H5N2S+
168.0673	28	C3H12N4O2S+
182.0824	8	C4H14N4O2S+
183.0908	176	C9H13NO3+
184.0932	22	C8[13]CH13NO3+
191.0626	8	C10H11N2S+
198.0777	19	C4H14N4O3S+
199.0855	23	C4H15N4O3S+
201.0478	14	C11H9N2S+
219.0579	46	C11H11N2OS+
220.0616	5	C10[13]CH11N2OS+
229.0432	5	C12H9N2OS+
230.05	35	C12H10N2OS+
247.053	47	C12H11N2O2S+
248.056	5	C11[13]CH11N2O2S+
264.0801	999	C12H14N3O2S+
265.0828	219	C11[13]CH14N3O2S+
266.0763	50	C12H14N3O2[34]S+
267.0796	5	C12H15N2O3S+
290.0594	207	C13H12N3O3S+
291.0616	25	C12[13]CH12N3O3S+
292.0567	8	C13H12N3O3[34]S+
