Mass spectrum: Torasemide; LC-ESI-QTOF; MS2; CE: 10 eV; R=35000; [M+H]+
Name: Torasemide
Name: Torsemide
Name: 1-[4-(3-methylanilino)pyridin-3-yl]sulfonyl-3-propan-2-ylurea
Formula: C16H20N4O3S
Exact mass: 348.1256115
SMILES: CC(C)NC(=O)NS(=O)(=O)C1=CN=CC=C1NC1=CC=CC(C)=C1
InChI: InChI=1S/C16H20N4O3S/c1-11(2)18-16(21)20-24(22,23)15-10-17-8-7-14(15)19-13-6-4-5-12(3)9-13/h4-11H,1-3H3,(H,17,19)(H2,18,20,21)
Instrument: Bruker maXis Impact
Instrument type: LC-ESI-QTOF
Ms type: MS2
Ion mode: POSITIVE
Ionization: ESI
Fragmentation mode: CID
Collision energy: 10 eV
Resolution: 35000
Column name: Acclaim RSLC C18 2.2um, 2.1x100mm, Thermo
Retention time: 6.647 min
Base peak: 430.2592
Precursor m/z: 349.1329
Precursor type: [M+H]+
m/z	relative intensity	assigned
264.0804	999	C12H14N3O2S+
265.083	130	C11[13]CH14N3O2S+
266.0773	44	C12H14N3O2[34]S+
290.06	234	C13H12N3O3S+
291.0623	32	C12[13]CH12N3O3S+
292.057	11	C13H12N3O3[34]S+
349.1339	868	C16H21N4O3S+
350.1362	175	C15[13]CH21N4O3S+
351.132	48	C16H21N4O3[34]S+
