Mass spectrum: Celecoxib; LC-ESI-QTOF; MS2; CE: 40 eV; R=35000; [M+H]+
Name: Celecoxib
Name: 4-[5-(4-methylphenyl)-3-(trifluoromethyl)pyrazol-1-yl]benzenesulfonamide
Formula: C17H14F3N3O2S
Exact mass: 381.0758823
SMILES: CC1=CC=C(C=C1)C1=CC(=NN1C1=CC=C(C=C1)S(N)(=O)=O)C(F)(F)F
InChI: InChI=1S/C17H14F3N3O2S/c1-11-2-4-12(5-3-11)15-10-16(17(18,19)20)22-23(15)13-6-8-14(9-7-13)26(21,24)25/h2-10H,1H3,(H2,21,24,25)
Instrument: Bruker maXis Impact
Instrument type: LC-ESI-QTOF
Ms type: MS2
Ion mode: POSITIVE
Ionization: ESI
Fragmentation mode: CID
Collision energy: 40 eV
Resolution: 35000
Column name: Acclaim RSLC C18 2.2um, 2.1x100mm, Thermo
Retention time: 10.284 min
Base peak: 382.0832
Precursor m/z: 382.0832
Precursor type: [M+H]+
m/z	relative intensity	assigned
115.0526	34	CH11N2O2S+
116.0599	11	CH12N2O2S+
117.07	24	C9H9+
118.0649	12	C8H8N+
130.0646	20	CH12N3O2S+
131.0722	26	CH13N3O2S+
153.0518	15	C6H8F3O+
165.0376	30	CH9F2N3O2S+
166.0448	12	C9H10OS+
180.0604	31	C10H12OS+
184.0157	16	C9H6F2S+
184.0372	28	C9H5F3N+
185.0437	72	CH10F3N3O2S+
187.048	12	C8H6F3N2+
191.0728	13	C14H9N+
193.0884	14	C14H11N+
200.0681	12	C10H9F3N+
201.0631	11	C6H13F2NO2S+
206.0957	44	C15H12N+
207.1021	108	C10H13N3O2+
208.1083	51	C10H14N3O2+
218.0819	12	C7H15F3NOS+
221.0199	15	C15H3F2+
230.0861	11	C10H12F2N2O2+
231.0913	18	C16H11N2+
232.0979	38	C16H12N2+
233.106	144	C16H13N2+
234.1102	27	C15[13]CH13N2+
235.0796	17	C16H10FN+
236.0878	16	C13H12F2NO+
243.0899	15	C12H15F2NS+
247.0651	16	C13H13NO2S+
254.0786	14	C13H11F3NO+
255.0779	34	C9H14F3N2OS+
261.0816	38	C14H15NO2S+
262.0876	63	C12H15F3NS+
263.0963	101	C15H12F3N+
264.0955	14	C14[13]CH12F3N+
266.0706	15	C10H13F3N2OS+
267.0726	97	C13H14FNO2S+
268.0766	33	C16H11FNO2+
272.061	18	C14H12N2O2S+
273.0637	21	C15H8F3N2+
275.0795	60	C15H11F2NO2+
276.08	12	C14[13]CH11F2NO2+
279.0915	18	C17H12FN2O+
280.0824	13	C14H11F3N2O+
281.0873	236	C17H15NOS+
282.0947	397	C17H12F2N2+
283.1024	252	C17H14FNO2+
284.106	48	C16[13]CH14FNO2+
286.0743	33	C13H13F3N2S+
287.0795	164	C16H14FNOS+
288.0819	35	C15[13]CH14FNOS+
289.0913	11	C16H13F2NO2+
294.0764	15	C15H14F2NOS+
300.0871	158	C17H11F3N2+
301.0938	397	C17H12F3N2+
302.1013	297	C17H13F3N2+
303.1091	349	C17H14F3N2+
304.113	54	C16[13]CH14F3N2+
311.0697	16	C14H12F3N3S+
312.0757	24	C17H9F3N3+
313.0773	16	C17H11F2N2O2+
314.0846	84	C15H15F3NOS+
315.0879	18	C14[13]CH15F3NOS+
317.095	20	C16H13F2N3O2+
332.0767	166	C17H11F3N2O2+
333.0786	29	C16[13]CH11F3N2O2+
334.0916	64	C17H13F3N2O2+
335.067	14	C16H13F2N2O2S+
335.0935	22	C16H15F2N3OS+
342.0735	73	C17H13FN3O2S+
343.0742	11	C16[13]CH13FN3O2S+
362.0767	999	C17H14F2N3O2S+
363.0789	283	C16[13]CH14F2N3O2S+
364.073	54	C17H14F2N3O2[34]S+
382.0822	271	C17H15F3N3O2S+
383.0853	59	C16[13]CH15F3N3O2S+
