Mass spectrum: Picolinafen; LC-ESI-QTOF; MS2; CE: 30 eV; R=35000; [M+H]+
Name: Picolinafen
Name: N-(4-fluorophenyl)-6-[3-(trifluoromethyl)phenoxy]pyridine-2-carboxamide
Formula: C19H12F4N2O2
Exact mass: 376.0834905
SMILES: FC1=CC=C(NC(=O)C2=NC(OC3=CC=CC(=C3)C(F)(F)F)=CC=C2)C=C1
InChI: InChI=1S/C19H12F4N2O2/c20-13-7-9-14(10-8-13)24-18(26)16-5-2-6-17(25-16)27-15-4-1-3-12(11-15)19(21,22)23/h1-11H,(H,24,26)
Instrument: Bruker maXis Impact
Instrument type: LC-ESI-QTOF
Ms type: MS2
Ion mode: POSITIVE
Ionization: ESI
Fragmentation mode: CID
Collision energy: 30 eV
Resolution: 35000
Column name: Acclaim RSLC C18 2.2um, 2.1x100mm, Thermo
Retention time: 12.329 min
Base peak: 377.0906
Precursor m/z: 377.0908
Precursor type: [M+H]+
m/z	relative intensity	assigned
236.0511	20	C15H7FNO+
238.047	235	C15H6F2N+
239.0501	32	C14[13]CH6F2N+
256.0577	999	C15H8F2NO+
257.0609	97	C14[13]CH8F2NO+
258.0628	7	C13[13]C2H8F2NO+
284.0524	34	C16H8F2NO2+
285.0552	5	C15[13]CH8F2NO2+
309.0828	5	C18H11F2N2O+
337.078	9	C19H11F2N2O2+
359.0801	258	C19H11F4N2O+
360.0833	48	C18[13]CH11F4N2O+
377.0897	7	C19H13F4N2O2+
