Mass spectrum: Fluconazole; LC-ESI-QTOF; MS2; CE: 50 eV; R=35000; [M+H]+
Name: Fluconazole
Name: 2-(2,4-difluorophenyl)-1,3-bis(1,2,4-triazol-1-yl)propan-2-ol
Formula: C13H12F2N6O
Exact mass: 306.1040654
SMILES: OC(CN1C=NC=N1)(CN1C=NC=N1)C1=C(F)C=C(F)C=C1
InChI: InChI=1S/C13H12F2N6O/c14-10-1-2-11(12(15)3-10)13(22,4-20-8-16-6-18-20)5-21-9-17-7-19-21/h1-3,6-9,22H,4-5H2
Instrument: Bruker maXis Impact
Instrument type: LC-ESI-QTOF
Ms type: MS2
Ion mode: POSITIVE
Ionization: ESI
Fragmentation mode: CID
Collision energy: 50 eV
Resolution: 35000
Column name: Acclaim RSLC C18 2.2um, 2.1x100mm, Thermo
Retention time: 5.121 min
Base peak: 266.1658
Precursor m/z: 307.1113
Precursor type: [M+H]+
m/z	relative intensity	assigned
115.0346	7	C6H5F2+
119.0288	65	C3H3F2N3+
120.0338	10	C6H4N2O+
121.044	324	C8H6F+
122.0475	47	C7[13]CH6F+
125.0184	13	C7H3F2+
125.0373	6	F2H3N6+
126.0322	5	C4H3FN4+
127.0344	854	C7H5F2+
128.0377	68	C6[13]CH5F2+
131.0286	12	C4H3F2N3+
136.0544	6	C3H6F2N4+
137.0388	19	C11H5+
139.0343	900	C8H5F2+
140.0373	96	C7[13]CH5F2+
141.0133	153	C10H2F+
141.0499	277	C8H7F2+
142.0173	15	C9[13]CH2F+
142.053	32	C7[13]CH7F2+
145.0429	9	C5H5F2N3+
146.0389	36	C4H4F2N4+
147.0341	216	C3H3F2N5+
148.0374	33	C6H4N4O+
149.0378	22	C2H3F2N6+
151.0341	999	C9H5F2+
152.0368	121	C8[13]CH5F2+
153.0408	27	C8H5F2N+
154.0196	10	C6H2F2N3+
154.0394	16	C4H3FN6+
158.0383	7	C5H4F2N4+
164.0423	29	C10H6F2+
165.0476	5	C8H6FN2O+
166.0446	68	C9H6F2N+
167.0311	8	C9H5F2O+
167.0479	10	C8[13]CH6F2N+
168.0367	10	C7H4F2N3+
169.0446	194	C7H5F2N3+
170.0471	17	C6[13]CH5F2N3+
171.0507	7	C8H7F2NO+
172.0558	5	C11H7FN+
173.0495	102	C10H6FN2+
174.0511	14	C9[13]CH6FN2+
176.0304	15	C10H4F2N+
177.0413	17	C10H5F2N+
178.0451	9	C10H6F2N+
191.0424	5	C10H5F2N2+
193.0558	26	C10H7F2N2+
200.0607	51	C6H6F2N6+
219.0609	8	C11H7F2N3+
220.0672	54	C13H10F2O+
221.0732	8	C12[13]CH10F2O+
238.0804	14	C11H10F2N3O+
