Mass spectrum: Methylparaben; LC-ESI-QTOF; MS2; CE: Ramp 16.3-24.5 eV; R=35000; [M+H]+
Name: Methylparaben
Name: methyl 4-hydroxybenzoate
Formula: C8H8O3
Exact mass: 152.0473441
SMILES: COC(=O)C1=CC=C(O)C=C1
InChI: InChI=1S/C8H8O3/c1-11-8(10)6-2-4-7(9)5-3-6/h2-5,9H,1H3
Instrument: Bruker maXis Impact
Instrument type: LC-ESI-QTOF
Ms type: MS2
Ion mode: POSITIVE
Ionization: ESI
Fragmentation mode: CID
Collision energy: Ramp 16.3-24.5 eV
Resolution: 35000
Column name: Acclaim RSLC C18 2.2um, 2.1x100mm, Thermo
Retention time: 6.020 min
Base peak: 61.0391
Precursor m/z: 153.0546
Precursor type: [M+H]+
m/z	relative intensity	assigned
59.0488	59	C3H7O+
81.07	51	C6H9+
121.0282	999	C7H5O2+
122.0308	118	C6[13]CH5O2+
153.0533	332	C8H9O3+
