Mass spectrum: Celecoxib; LC-ESI-QTOF; MS2; CE: 20 eV; R=35000; [M-H]-
Name: Celecoxib
Name: 4-[5-(4-methylphenyl)-3-(trifluoromethyl)pyrazol-1-yl]benzenesulfonamide
Formula: C17H14F3N3O2S
Exact mass: 381.0758823
SMILES: CC1=CC=C(C=C1)C1=CC(=NN1C1=CC=C(C=C1)S(N)(=O)=O)C(F)(F)F
InChI: InChI=1S/C17H14F3N3O2S/c1-11-2-4-12(5-3-11)15-10-16(17(18,19)20)22-23(15)13-6-8-14(9-7-13)26(21,24)25/h2-10H,1H3,(H2,21,24,25)
Instrument: Bruker maXis Impact
Instrument type: LC-ESI-QTOF
Ms type: MS2
Ion mode: NEGATIVE
Ionization: ESI
Fragmentation mode: CID
Collision energy: 20 eV
Resolution: 35000
Column name: Acclaim RSLC C18 2.2um, 2.1x100mm, Thermo
Retention time: 10.248 min
Base peak: 380.067
Precursor m/z: 380.0686
Precursor type: [M-H]-
m/z	relative intensity	assigned
179.0425	17	C9H5F2N2-
247.1099	20	C16H13N3-
276.0994	25	C16H13F3N-
296.097	54	C17H13FN2O2-
297.1004	12	C16[13]CH13FN2O2-
316.1053	358	C17H13F3N3-
317.0869	14	C17H12F3N2O-
317.1061	46	C16[13]CH13F3N3-
380.0669	999	C17H13F3N3O2S-
381.0689	196	C16[13]CH13F3N3O2S-
382.063	61	C17H13F3N3O2[34]S-
