Mass spectrum: Canrenone; LC-ESI-QTOF; MS2; CE: 40 eV; R=35000; [M-H]-
Name: Canrenone
Name: UJVLDDZCTMKXJK-AFDHUMPMSA-N
Name: (9S,14S)-10,13-dimethylspiro[2,8,9,11,12,14,15,16-octahydro-1H-cyclopenta[a]phenanthrene-17,5`-oxolane]-2`,3-dione
Formula: C22H28O3
Exact mass: 340.2038448
SMILES: CC12CC[C@H]3C(C=CC4=CC(=O)CCC34C)[C@@H]1CCC21CCC(=O)O1
InChI: InChI=1S/C22H28O3/c1-20-9-5-15(23)13-14(20)3-4-16-17(20)6-10-21(2)18(16)7-11-22(21)12-8-19(24)25-22/h3-4,13,16-18H,5-12H2,1-2H3/t16?,17-,18-,20?,21?,22?/m0/s1
Instrument: Bruker maXis Impact
Instrument type: LC-ESI-QTOF
Ms type: MS2
Ion mode: NEGATIVE
Ionization: ESI
Fragmentation mode: CID
Collision energy: 40 eV
Resolution: 35000
Column name: Acclaim RSLC C18 2.2um, 2.1x100mm, Thermo
Retention time: 13.014 min
Base peak: 227.2013
Precursor m/z: 339.1966
Precursor type: [M-H]-
m/z	relative intensity	assigned
119.0503	55	C8H7O-
183.0125	999	C11H3O3-
184.0156	144	C10[13]CH3O3-
185.0076	57	C14HO-
197.0283	41	C12H5O3-
225.0571	30	C14H9O3-
239.0749	47	C15H11O3-
339.1984	123	C22H27O3-
340.2051	34	C21[13]CH27O3-
