Mass spectrum: Clobetasol; LC-ESI-QTOF; MS2; CE: 50 eV; R=35000; [M+H]+
Name: Clobetasol
Name: (8S,9R,10S,11S,13S,14S,16S,17R)-17-(2-chloroacetyl)-9-fluoro-11,17-dihydroxy-10,13,16-trimethyl-6,7,8,11,12,14,15,16-octahydrocyclopenta[a]phenanthren-3-one
Formula: C22H28ClFO4
Exact mass: 410.1660153
SMILES: [H][C@@]12C[C@H](C)[C@](O)(C(=O)CCl)[C@@]1(C)C[C@H](O)[C@@]1(F)[C@@]2([H])CCC2=CC(=O)C=C[C@]12C
InChI: InChI=1S/C22H28ClFO4/c1-12-8-16-15-5-4-13-9-14(25)6-7-19(13,2)21(15,24)17(26)10-20(16,3)22(12,28)18(27)11-23/h6-7,9,12,15-17,26,28H,4-5,8,10-11H2,1-3H3/t12-,15-,16-,17-,19-,20-,21-,22-/m0/s1
Instrument: Bruker maXis Impact
Instrument type: LC-ESI-QTOF
Ms type: MS2
Ion mode: POSITIVE
Ionization: ESI
Fragmentation mode: CID
Collision energy: 50 eV
Resolution: 35000
Column name: Acclaim RSLC C18 2.2um, 2.1x100mm, Thermo
Retention time: 9.478 min
Base peak: 311.2003
Precursor m/z: 411.1733
Precursor type: [M+H]+
m/z	relative intensity	assigned
115.0532	115	ClFH13O3+
116.0595	40	C3H13ClO2+
117.069	66	ClFH15O3+
119.0844	160	ClFH17O3+
121.0638	389	C8H9O+
128.061	282	CH14ClFO3+
129.0684	178	CH15ClFO3+
130.076	64	C4H15ClO2+
131.0468	66	C3H12ClO3+
131.0844	202	C10H11+
132.0557	136	ClFH14O4+
132.0906	39	C9[13]CH11+
133.0634	62	ClFH15O4+
133.1021	46	C7H14FO+
135.0793	161	ClFH17O4+
136.0831	58	C3H17ClO3+
141.0692	126	C2H15ClFO3+
142.0765	149	C2H16ClFO3+
143.0844	274	C2H17ClFO3+
144.0565	88	C10H8O+
144.0902	63	C5H17ClO2+
145.0635	361	CH15ClFO4+
145.101	132	C11H13+
146.0712	74	CH16ClFO4+
147.079	999	C10H11O+
148.083	131	C9[13]CH11O+
152.0634	35	C9H9FO+
153.0689	72	C3H15ClFO3+
154.0764	62	C3H16ClFO3+
155.0593	86	C9H12Cl+
155.0843	134	C3H17ClFO3+
156.0894	74	C6H17ClO2+
157.0626	76	C5H14ClO3+
157.0994	107	C6H18ClO2+
158.071	176	C2H16ClFO4+
159.0791	469	C11H11O+
160.0857	88	C10[13]CH11O+
161.0957	198	C11H13O+
165.068	129	C7H14ClO2+
166.0757	51	C7H15ClO2+
167.062	37	C7H14[37]ClO2+
167.0843	103	C4H17ClFO3+
168.0908	55	C7H17ClO2+
169.0638	76	C3H15ClFO4+
169.1035	65	C10H14FO+
170.0699	69	C6H15ClO3+
170.1052	45	C7H19ClO2+
171.0567	44	C9H12ClO+
171.0795	551	C3H17ClFO4+
172.085	129	C6H17ClO3+
173.0948	188	C3H19ClFO4+
175.1107	42	C3H21ClFO4+
178.075	117	C8H15ClO2+
179.0833	191	C8H16ClO2+
180.0915	65	C8H17ClO2+
181.0641	86	C4H15ClFO4+
181.1011	103	C14H13+
182.0712	163	C4H16ClFO4+
183.0789	161	C4H17ClFO4+
183.1143	63	C8H20ClO2+
184.0861	106	C7H17ClO3+
185.0943	197	C10H14FO2+
186.101	37	C9[13]CH14FO2+
187.0716	49	C6H16ClO4+
187.1119	44	C13H15O+
189.0699	50	C15H9+
190.0765	56	C6H16ClFO3+
191.0837	85	C9H16ClO2+
192.0919	45	C6H18ClFO3+
193.0997	176	C6H19ClFO3+
194.0724	51	C14H10O+
194.105	93	C9H19ClO2+
195.0793	183	C5H17ClFO4+
195.1175	72	C12H16FO+
196.087	189	C5H18ClFO4+
196.125	36	C15H16+
197.0951	269	C5H19ClFO4+
197.1335	42	C12H18FO+
198.1023	107	C5H20ClFO4+
199.1115	101	C14H15O+
202.0753	40	C10H15ClO2+
203.0854	61	C16H11+
204.0931	82	C16H12+
205.0992	122	C10H18ClO2+
206.1092	60	C16H14+
207.0797	92	C6H17ClFO4+
207.1147	98	C10H20ClO2+
208.0883	179	C15H12O+
209.0955	303	C6H19ClFO4+
209.1316	57	C7H23ClFO3+
210.1008	138	C9H19ClO3+
211.1116	220	C15H15O+
212.1167	185	C9H21ClO3+
213.1257	91	C9H22ClO3+
215.0862	58	C14H12FO+
215.1073	41	C11H16FO3+
216.0916	48	C11H17ClO2+
217.0982	61	C11H18ClO2+
218.1064	48	C11H19ClO2+
219.0802	44	C16H11O+
219.1152	111	C8H21ClFO3+
220.0826	58	C10H17ClO3+
220.1232	42	C8H22ClFO3+
221.0946	193	C7H19ClFO4+
221.1307	80	C11H22ClO2+
222.1034	335	C7H20ClFO4+
223.11	328	C10H20ClO3+
224.1183	114	C7H22ClFO4+
225.1266	56	C7H23ClFO4+
229.1014	46	C18H13+
230.1087	76	C18H14+
231.1179	54	C15H16FO+
232.1251	49	C18H16+
233.0951	127	C8H19ClFO4+
234.1034	90	C8H20ClFO4+
235.1102	206	C8H21ClFO4+
235.1469	169	C18H19+
236.1185	78	C8H22ClFO4+
236.1557	55	C17[13]CH19+
237.1272	306	C17H17O+
238.131	63	C16[13]CH17O+
239.1422	81	C8H25ClFO4+
243.114	36	C13H20ClO2+
244.1224	48	C13H21ClO2+
245.093	54	C12H18ClO3+
245.1349	92	C16H18FO+
246.1	47	C12H19ClO3+
247.1125	169	C15H16FO2+
248.1179	291	C12H21ClO3+
249.1232	132	C12H22ClO3+
249.1625	43	C10H27ClFO3+
250.1315	81	C12H23ClO3+
250.1692	41	C13H27ClO2+
251.1404	37	C12H24ClO3+
251.1766	34	C13H28ClO2+
252.1515	70	C15H21FO2+
257.1296	37	C14H22ClO2+
258.1057	46	C16H15FO2+
258.14	39	C20H18+
259.1106	62	C10H21ClFO4+
259.1482	44	C20H19+
260.1209	63	C16H17FO2+
260.1535	35	C14H25ClO2+
261.1256	151	C13H22ClO3+
261.1676	47	C17H22FO+
262.1331	95	C13H23ClO3+
263.1419	595	C16H20FO2+
264.1491	117	C15[13]CH20FO2+
271.1134	54	C17H16FO2+
273.1277	79	C20H17O+
274.1323	44	C14H23ClO3+
276.1491	41	C14H25ClO3+
277.1175	38	C17H19ClF+
277.1578	98	C11H27ClFO4+
278.1638	65	C14H27ClO3+
279.1722	36	C14H28ClO3+
281.1563	48	C16H22FO3+
287.1407	61	C15H24ClO3+
291.1401	90	C17H20FO3+
