Mass spectrum: Glimepiride; LC-ESI-QTOF; MS2; CE: Ramp 25.4-38.1 eV; R=35000; [M+H]+
Name: Glimepiride
Name: 4-ethyl-3-methyl-N-[2-[4-[(4-methylcyclohexyl)carbamoylsulfamoyl]phenyl]ethyl]-5-oxo-2H-pyrrole-1-carboxamide
Formula: C24H34N4O5S
Exact mass: 490.2249912
SMILES: CCC1=C(C)CN(C(=O)NCCC2=CC=C(C=C2)S(=O)(=O)NC(=O)NC2CCC(C)CC2)C1=O
InChI: InChI=1S/C24H34N4O5S/c1-4-21-17(3)15-28(22(21)29)24(31)25-14-13-18-7-11-20(12-8-18)34(32,33)27-23(30)26-19-9-5-16(2)6-10-19/h7-8,11-12,16,19H,4-6,9-10,13-15H2,1-3H3,(H,25,31)(H2,26,27,30)
Instrument: Bruker maXis Impact
Instrument type: LC-ESI-QTOF
Ms type: MS2
Ion mode: POSITIVE
Ionization: ESI
Fragmentation mode: CID
Collision energy: Ramp 25.4-38.1 eV
Resolution: 35000
Column name: Acclaim RSLC C18 2.2um, 2.1x100mm, Thermo
Retention time: 10.598 min
Base peak: 491.2322
Precursor m/z: 491.2323
Precursor type: [M+H]+
m/z	relative intensity	assigned
55.0538	8	C4H7+
97.1017	6	C7H13+
114.1286	5	CH22O3S+
121.0642	5	H13N2O3S+
124.0751	72	C7H10NO+
125.0777	6	C6[13]CH10NO+
126.0908	999	C7H12NO+
127.0939	107	C6[13]CH12NO+
128.0955	5	H18NO4S+
131.0602	13	C8H7N2+
151.0206	12	C8H7OS+
151.0859	6	H15N4O3S+
152.0698	30	H14N3O4S+
167.0152	147	C6H5N3OS+
168.0189	14	C5[13]CH5N3OS+
169.0048	35	C3H7NO5S+
170.0803	74	C6H10N4O2+
171.084	6	C5[13]CH10N4O2+
174.0656	28	C9H8N3O+
179.0806	18	CH15N4O4S+
181.0964	244	C6H15NO5+
182.0987	19	C5[13]CH15NO5+
184.0416	9	C6H8N4OS+
210.0206	19	C7H6N4O2S+
229.0636	15	C15H7N3+
246.0422	23	C15H6N2O2+
271.144	17	C16H19N2O2+
287.1391	15	C16H19N2O3+
292.1012	19	C15H18NO3S+
304.0724	6	C19H12O4+
335.1062	202	C16H19N2O4S+
336.1089	36	C15[13]CH19N2O4S+
337.1053	9	C16H19N2O4[34]S+
352.133	889	C18H24O5S+
353.136	171	C17[13]CH24O5S+
354.1316	52	C18H24O5[34]S+
355.1323	5	C16H23N2O5S+
369.0666	15	C19H15NO5S+
378.1122	38	C20H16N3O5+
379.1128	6	C19[13]CH16N3O5+
394.1668	18	C18H26N4O4S+
