Mass spectrum: Canrenone; LC-ESI-QTOF; MS2; CE: 30 eV; R=35000; [M+H]+
Name: Canrenone
Name: UJVLDDZCTMKXJK-AFDHUMPMSA-N
Name: (9S,14S)-10,13-dimethylspiro[2,8,9,11,12,14,15,16-octahydro-1H-cyclopenta[a]phenanthrene-17,5`-oxolane]-2`,3-dione
Formula: C22H28O3
Exact mass: 340.2038448
SMILES: CC12CC[C@H]3C(C=CC4=CC(=O)CCC34C)[C@@H]1CCC21CCC(=O)O1
InChI: InChI=1S/C22H28O3/c1-20-9-5-15(23)13-14(20)3-4-16-17(20)6-10-21(2)18(16)7-11-22(21)12-8-19(24)25-22/h3-4,13,16-18H,5-12H2,1-2H3/t16?,17-,18-,20?,21?,22?/m0/s1
Instrument: Bruker maXis Impact
Instrument type: LC-ESI-QTOF
Ms type: MS2
Ion mode: POSITIVE
Ionization: ESI
Fragmentation mode: CID
Collision energy: 30 eV
Resolution: 35000
Column name: Acclaim RSLC C18 2.2um, 2.1x100mm, Thermo
Retention time: 9.694 min
Base peak: 341.2114
Precursor m/z: 341.2111
Precursor type: [M+H]+
m/z	relative intensity	assigned
117.0686	7	C9H9+
119.0848	43	C9H11+
121.0641	10	C8H9O+
121.1004	22	C9H13+
123.0797	16	C8H11O+
125.0594	7	C7H9O2+
128.0614	8	C10H8+
129.0684	6	C10H9+
131.0847	40	C10H11+
132.0873	5	C9[13]CH11+
133.0637	14	C9H9O+
133.1003	41	C10H13+
135.0793	34	C9H11O+
135.1164	11	C10H15+
137.0944	17	C9H13O+
141.069	9	C11H9+
143.0843	119	C11H11+
144.0881	15	C10[13]CH11+
145.0633	11	C10H9O+
145.0999	118	C11H13+
146.103	12	C10[13]CH13+
147.0791	54	C10H11O+
147.1161	19	C11H15+
148.0832	5	C9[13]CH11O+
149.0955	40	C10H13O+
153.0904	20	C9H13O2+
155.0843	20	C12H11+
157.0998	46	C12H13+
158.1042	6	C11[13]CH13+
159.0792	44	C11H11O+
159.1156	40	C12H15+
160.0838	7	C10[13]CH11O+
160.1186	6	C11[13]CH15+
161.095	80	C11H13O+
161.1309	8	C12H17+
162.0983	13	C10[13]CH13O+
163.1107	44	C11H15O+
164.113	5	C10[13]CH15O+
165.0898	40	C10H13O2+
166.0931	5	C9[13]CH13O2+
167.1059	21	C10H15O2+
169.0998	172	C13H13+
170.1038	24	C12[13]CH13+
171.0789	24	C12H11O+
171.1156	29	C13H15+
172.1193	6	C12[13]CH15+
173.0949	206	C12H13O+
174.0987	28	C11[13]CH13O+
175.1106	128	C12H15O+
176.1143	17	C11[13]CH15O+
177.126	29	C12H17O+
179.1056	68	C11H15O2+
180.11	7	C10[13]CH15O2+
181.1004	23	C14H13+
181.1211	9	C11H17O2+
183.1158	41	C14H15+
184.1199	6	C13[13]CH15+
185.0953	8	C13H13O+
185.1314	55	C14H17+
186.1371	10	C13[13]CH17+
187.1108	395	C13H15O+
188.1139	58	C12[13]CH15O+
189.127	17	C13H17O+
193.1209	7	C12H17O2+
195.116	21	C15H15+
197.0951	5	C14H13O+
197.1318	17	C15H17+
199.1104	23	C14H15O+
199.1469	12	C15H19+
201.1276	12	C14H17O+
205.1216	228	C13H17O2+
206.1247	36	C12[13]CH17O2+
207.1168	8	C16H15+
207.1348	10	C13H19O2+
209.1316	26	C16H17+
210.138	12	C16H18+
211.1112	9	C15H15O+
211.145	7	C16H19+
213.1265	25	C15H17O+
214.131	5	C14[13]CH17O+
215.1417	9	C15H19O+
217.1206	7	C14H17O2+
219.1376	6	C14H19O2+
221.1311	15	C17H17+
222.1376	5	C17H18+
223.1115	7	C16H15O+
223.1472	23	C17H19+
224.1506	5	C16[13]CH19+
225.1275	15	C16H17O+
225.1631	14	C17H21+
227.1422	23	C16H19O+
228.1482	5	C15[13]CH19O+
231.137	9	C15H19O2+
235.1485	8	C18H19+
237.1281	6	C17H17O+
237.1622	7	C18H21+
239.1418	12	C17H19O+
241.1585	23	C17H21O+
242.1611	5	C16[13]CH21O+
243.1734	18	C17H23O+
245.1529	14	C16H21O2+
247.147	11	C19H19+
249.1254	5	C18H17O+
249.1625	6	C19H21+
253.1577	6	C18H21O+
257.152	16	C17H21O2+
259.1691	23	C17H23O2+
260.1718	6	C16[13]CH23O2+
261.165	11	C20H21+
263.1421	7	C19H19O+
263.1794	21	C20H23+
265.1578	38	C19H21O+
266.1637	7	C18[13]CH21O+
267.1386	5	C18H19O2+
267.1748	8	C19H23O+
268.1826	13	C19H24O+
269.1858	5	C19H25O+
271.1674	11	C18H23O2+
277.1572	6	C20H21O+
277.1947	9	C21H25+
279.1742	16	C20H23O+
281.154	5	C19H21O2+
281.1893	32	C20H25O+
282.1932	7	C19[13]CH25O+
283.1685	141	C19H23O2+
284.1722	32	C18[13]CH23O2+
285.1779	5	C19H25O2+
287.1796	14	C22H23+
295.2052	27	C21H27O+
296.2069	10	C20[13]CH27O+
297.1852	7	C20H25O2+
299.2006	5	C20H27O2+
305.1898	50	C22H25O+
306.1922	16	C21[13]CH25O+
323.2003	94	C22H27O2+
324.2033	22	C21[13]CH27O2+
326.1882	6	C21H26O3+
341.2114	999	C22H29O3+
342.2144	211	C21[13]CH29O3+
343.2174	32	C20[13]C2H29O3+
