Mass spectrum: Efavirenz; LC-ESI-QTOF; MS2; CE: 30 eV; R=35000; [M+H]+
Name: Efavirenz
Name: 6-Chloro-4-(cyclopropylethynyl)-4-(trifluoromethyl)-1,4-dihydro-2H-3,1-benzoxazin-2-one
Name: 6-chloro-4-(2-cyclopropylethynyl)-4-(trifluoromethyl)-1H-3,1-benzoxazin-2-one
Formula: C14H9ClF3NO2
Exact mass: 315.0273909
SMILES: FC(F)(F)C1(OC(=O)NC2=C1C=C(Cl)C=C2)C#CC1CC1
InChI: InChI=1S/C14H9ClF3NO2/c15-9-3-4-11-10(7-9)13(14(16,17)18,21-12(20)19-11)6-5-8-1-2-8/h3-4,7-8H,1-2H2,(H,19,20)
Instrument: Bruker maXis Impact
Instrument type: LC-ESI-QTOF
Ms type: MS2
Ion mode: POSITIVE
Ionization: ESI
Fragmentation mode: CID
Collision energy: 30 eV
Resolution: 35000
Column name: Acclaim RSLC C18 2.2um, 2.1x100mm, Thermo
Retention time: 10.643 min
Base peak: 491.2311
Precursor m/z: 316.0347
Precursor type: [M+H]+
m/z	relative intensity	assigned
167.0726	209	C12H9N+
168.0797	999	C12H10N+
169.0837	147	C11[13]CH10N+
188.0243	237	C14H4O+
189.0328	106	C14H5O+
197.0613	76	C13H9O2+
201.0337	267	C12H8ClN+
202.0407	374	C12H9ClN+
203.0473	232	C12H10ClN+
205.0489	78	C12H10[37]ClN+
212.0062	127	C13H2F2O+
215.0515	85	C13H8FO2+
216.0636	68	C10H9F3NO+
217.068	176	C13H9F2N+
220.0134	128	C9H6ClF3N+
222.0506	448	C12H8F2O2+
224.0055	675	C11H5ClF2N+
225.0106	110	C10[13]CH5ClF2N+
226.0025	173	C11H5[37]ClF2N+
230.0176	82	C13H4F2O2+
232.0128	583	C12H7ClNO2+
232.0329	206	C13H6F2O2+
233.0227	69	C11[13]CH7ClNO2+
233.0372	78	C13H10ClO2+
234.0085	197	C12H7[37]ClNO2+
234.028	156	C13H5F3O+
235.0589	116	C13H8F3N+
236.0678	132	C13H9F3N+
237.015	77	C12H6ClF2N+
237.0718	146	C13H10F3N+
244.013	834	C14H6ClFO+
245.0124	142	C13[13]CH6ClFO+
246.0092	228	C14H6[37]ClFO+
250.0222	324	C13H7ClF2N+
251.025	75	C12[13]CH7ClF2N+
252.0191	141	C13H7[37]ClF2N+
252.0375	82	C13H9ClF2N+
