Mass spectrum: Flutamide; LC-ESI-QTOF; MS2; CE: 20 eV; R=35000; [M+H]+
Name: Flutamide
Name: 2-methyl-N-[4-nitro-3-(trifluoromethyl)phenyl]propanamide
Formula: C11H11F3N2O3
Exact mass: 276.0721769
SMILES: CC(C)C(=O)NC1=CC(=C(C=C1)[N+]([O-])=O)C(F)(F)F
InChI: InChI=1S/C11H11F3N2O3/c1-6(2)10(17)15-7-3-4-9(16(18)19)8(5-7)11(12,13)14/h3-6H,1-2H3,(H,15,17)
Instrument: Bruker maXis Impact
Instrument type: LC-ESI-QTOF
Ms type: MS2
Ion mode: POSITIVE
Ionization: ESI
Fragmentation mode: CID
Collision energy: 20 eV
Resolution: 35000
Column name: Acclaim RSLC C18 2.2um, 2.1x100mm, Thermo
Retention time: 11.187 min
Base peak: 277.0782
Precursor m/z: 277.0795
Precursor type: [M+H]+
m/z	relative intensity	assigned
125.0144	10	C5H2FN2O+
165.069	999	C8H9N2O2+
166.0724	104	C7[13]CH9N2O2+
167.0753	5	C6[13]C2H9N2O2+
199.0302	102	C11H4FN2O+
200.0337	12	C10[13]CH4FN2O+
201.0271	26	C8H4F3N2O+
249.0462	8	C9H8F3N2O3+
262.0541	6	C10H9F3N2O3+
277.0777	640	C11H12F3N2O3+
278.0811	124	C10[13]CH12F3N2O3+
