Mass spectrum: Glibenclamide; LC-ESI-QTOF; MS2; CE: Ramp 25.5-38.2 eV; R=35000; [M+H]+
Name: Glibenclamide
Name: Glyburide
Name: 5-chloro-N-[2-[4-(cyclohexylcarbamoylsulfamoyl)phenyl]ethyl]-2-methoxybenzamide
Formula: C23H28ClN3O5S
Exact mass: 493.1438197
SMILES: COC1=C(C=C(Cl)C=C1)C(=O)NCCC1=CC=C(C=C1)S(=O)(=O)NC(=O)NC1CCCCC1
InChI: InChI=1S/C23H28ClN3O5S/c1-32-21-12-9-17(24)15-20(21)22(28)25-14-13-16-7-10-19(11-8-16)33(30,31)27-23(29)26-18-5-3-2-4-6-18/h7-12,15,18H,2-6,13-14H2,1H3,(H,25,28)(H2,26,27,29)
Instrument: Bruker maXis Impact
Instrument type: LC-ESI-QTOF
Ms type: MS2
Ion mode: POSITIVE
Ionization: ESI
Fragmentation mode: CID
Collision energy: Ramp 25.5-38.2 eV
Resolution: 35000
Column name: Acclaim RSLC C18 2.2um, 2.1x100mm, Thermo
Retention time: 10.147 min
Base peak: 494.1507
Precursor m/z: 494.1511
Precursor type: [M+H]+
m/z	relative intensity	assigned
83.0854	8	C6H11+
100.1125	20	H20O3S+
134.0957	11	CH16N3O2S+
166.03	5	C2H13ClNO3S+
167.0154	33	C6H5N3OS+
168.0194	10	C9H2N3O+
169.0043	999	C6H4ClN3O+
170.0076	80	C5[13]CH4ClN3O+
171.0014	249	C6H4[37]ClN3O+
172.0049	17	C12N2+
198.0315	26	C6H11ClO5+
200.0273	8	C6H11[37]ClO5+
210.1027	9	C13H12N3+
245.0718	10	C10H15NO4S+
245.9986	7	C9H9ClNO3S+
259.052	66	C13H10ClN3O+
260.0547	9	C12[13]CH10ClN3O+
261.0491	15	C13H10[37]ClN3O+
262.0621	9	C6H17ClN3O4S+
288.0784	78	C8H19ClN3O4S+
289.081	10	C7[13]CH19ClN3O4S+
290.0755	19	C8H19[37]ClN3O4S+
303.0666	9	C14H13N3O3S+
304.0736	299	C16H15ClNO3+
305.0766	49	C15[13]CH15ClNO3+
306.0712	70	C16H15[37]ClNO3+
307.0741	9	C20H9N3O+
352.0408	18	C22H9ClN2O+
354.0376	5	C22H9[37]ClN2O+
369.0671	684	C16H18ClN2O4S+
370.0695	135	C15[13]CH18ClN2O4S+
371.0647	258	C16H18[37]ClN2O4S+
372.0663	30	C22H13ClN2O2+
373.0613	5	C21H12ClN3O2+
394.1669	12	C23H25ClN3O+
395.0468	68	C17H16ClN2O5S+
396.05	9	C16[13]CH16ClN2O5S+
397.0438	17	C17H16[37]ClN2O5S+
