Mass spectrum: Acetamiprid; LC-ESI-QTOF; MS2; CE: Ramp 18.8-28.2 eV; R=35000; [M+H]+
Name: Acetamiprid
Name: N-[(6-chloropyridin-3-yl)methyl]-N`-cyano-N-methylethanimidamide
Formula: C10H11ClN4
Exact mass: 222.0672240
SMILES: CN(CC1=CC=C(Cl)N=C1)C(C)=NC#N
InChI: InChI=1S/C10H11ClN4/c1-8(14-7-12)15(2)6-9-3-4-10(11)13-5-9/h3-5H,6H2,1-2H3
Instrument: Bruker maXis Impact
Instrument type: LC-ESI-QTOF
Ms type: MS2
Ion mode: POSITIVE
Ionization: ESI
Fragmentation mode: CID
Collision energy: Ramp 18.8-28.2 eV
Resolution: 35000
Column name: Acclaim RSLC C18 2.2um, 2.1x100mm, Thermo
Retention time: 5.129 min
Base peak: 223.0742
Precursor m/z: 223.0745
Precursor type: [M+H]+
m/z	relative intensity	assigned
56.0489	515	C3H6N+
57.0521	14	C2[13]CH6N+
81.0326	9	C3H3N3+
90.0338	58	C6H4N+
91.041	10	C6H5N+
98.9999	20	C5H4Cl+
126.0104	999	C6H5ClN+
127.0131	72	C5[13]CH5ClN+
128.0071	290	C6H5[37]ClN+
129.0102	10	C4H4ClN3+
144.0196	21	C4H5ClN4+
146.0167	5	C4H5[37]ClN4+
181.0515	12	C10H5N4+
187.0968	20	C10H11N4+
196.0625	6	C9H11ClN3+
206.0464	6	C10H9ClN3+
223.0737	211	C10H12ClN4+
224.0767	23	C9[13]CH12ClN4+
225.0706	60	C10H12[37]ClN4+
