Mass spectrum: Climbazol; LC-ESI-QTOF; MS2; CE: 10 eV; R=35000; [M+H]+
Name: Climbazol
Name: Climbazole
Name: 1-(4-chlorophenoxy)-1-imidazol-1-yl-3,3-dimethylbutan-2-one
Formula: C15H17ClN2O2
Exact mass: 292.0978555
SMILES: CC(C)(C)C(=O)C(OC1=CC=C(Cl)C=C1)N1C=CN=C1
InChI: InChI=1S/C15H17ClN2O2/c1-15(2,3)13(19)14(18-9-8-17-10-18)20-12-6-4-11(16)5-7-12/h4-10,14H,1-3H3
Instrument: Bruker maXis Impact
Instrument type: LC-ESI-QTOF
Ms type: MS2
Ion mode: POSITIVE
Ionization: ESI
Fragmentation mode: CID
Collision energy: 10 eV
Resolution: 35000
Column name: Acclaim RSLC C18 2.2um, 2.1x100mm, Thermo
Retention time: 9.809 min
Base peak: 293.1058
Precursor m/z: 293.1051
Precursor type: [M+H]+
m/z	relative intensity	assigned
137.1062	5	C2H18ClN2O2+
166.1088	12	C9H14N2O+
197.072	86	C11H14ClO+
198.075	9	C10[13]CH14ClO+
199.0689	22	C11H14[37]ClO+
225.0671	23	C12H14ClO2+
227.0641	5	C12H14[37]ClO2+
293.1059	999	C15H18ClN2O2+
294.1084	275	C14[13]CH18ClN2O2+
295.1025	501	C15H18[37]ClN2O2+
