Mass spectrum: Flutamide; LC-ESI-QTOF; MS2; CE: Ramp 20.8-31.2 eV; R=35000; [M+H]+
Name: Flutamide
Name: 2-methyl-N-[4-nitro-3-(trifluoromethyl)phenyl]propanamide
Formula: C11H11F3N2O3
Exact mass: 276.0721769
SMILES: CC(C)C(=O)NC1=CC(=C(C=C1)[N+]([O-])=O)C(F)(F)F
InChI: InChI=1S/C11H11F3N2O3/c1-6(2)10(17)15-7-3-4-9(16(18)19)8(5-7)11(12,13)14/h3-6H,1-2H3,(H,15,17)
Instrument: Bruker maXis Impact
Instrument type: LC-ESI-QTOF
Ms type: MS2
Ion mode: POSITIVE
Ionization: ESI
Fragmentation mode: CID
Collision energy: Ramp 20.8-31.2 eV
Resolution: 35000
Column name: Acclaim RSLC C18 2.2um, 2.1x100mm, Thermo
Retention time: 11.151 min
Base peak: 277.0783
Precursor m/z: 277.0795
Precursor type: [M+H]+
m/z	relative intensity	assigned
125.0155	19	C2H3F2N2O2+
164.0612	5	C10H9FO+
165.0696	999	C10H10FO+
166.0726	121	C9[13]CH10FO+
199.0306	168	C11H4FN2O+
200.0339	20	C10[13]CH4FN2O+
201.0277	39	C8H4F3N2O+
215.085	15	C9H12FN2O3+
226.0772	13	C10H11FN2O3+
227.0845	5	C10H12FN2O3+
239.085	28	C11H12FN2O3+
249.0466	10	C9H8F3N2O3+
262.0539	11	C10H9F3N2O3+
277.0784	299	C11H12F3N2O3+
