Mass spectrum: Torasemide; LC-ESI-QTOF; MS2; CE: 40 eV; R=35000; [M+H]+
Name: Torasemide
Name: Torsemide
Name: 1-[4-(3-methylanilino)pyridin-3-yl]sulfonyl-3-propan-2-ylurea
Formula: C16H20N4O3S
Exact mass: 348.1256115
SMILES: CC(C)NC(=O)NS(=O)(=O)C1=CN=CC=C1NC1=CC=CC(C)=C1
InChI: InChI=1S/C16H20N4O3S/c1-11(2)18-16(21)20-24(22,23)15-10-17-8-7-14(15)19-13-6-4-5-12(3)9-13/h4-11H,1-3H3,(H,17,19)(H2,18,20,21)
Instrument: Bruker maXis Impact
Instrument type: LC-ESI-QTOF
Ms type: MS2
Ion mode: POSITIVE
Ionization: ESI
Fragmentation mode: CID
Collision energy: 40 eV
Resolution: 35000
Column name: Acclaim RSLC C18 2.2um, 2.1x100mm, Thermo
Retention time: 6.672 min
Base peak: 430.2593
Precursor m/z: 349.1329
Precursor type: [M+H]+
m/z	relative intensity	assigned
122.0593	18	C5H6N4+
125.0159	89	C5H5N2S+
126.0207	8	H6N4O2S+
129.0688	7	C2H13N2O2S+
137.016	14	C6H5N2S+
141.0563	5	C2H11N3O2S+
153.0105	9	C6H5N2OS+
156.0797	16	C3H14N3O2S+
167.0591	5	C3H11N4O2S+
168.0671	295	C11H8N2+
169.0707	43	C10[13]CH8N2+
181.0743	30	C9H11NO3+
182.0824	104	C4H14N4O2S+
183.0908	999	C12H11N2+
184.094	111	C11[13]CH11N2+
185.0698	14	C3H13N4O3S+
185.0973	7	C10[13]C2H11N2+
186.075	5	C6H10N4O3+
191.0622	42	C13H7N2+
192.0648	5	C12[13]CH7N2+
198.0778	73	C4H14N4O3S+
199.0852	73	C12H11N2O+
200.0888	9	C11[13]CH11N2O+
201.0473	51	C11H9N2S+
202.0526	9	C10[13]CH9N2S+
203.0613	5	C8H13NO3S+
214.0732	9	C12H10N2O2+
219.0577	133	C11H11N2OS+
220.0597	12	C10[13]CH11N2OS+
221.0539	6	C11H11N2O[34]S+
229.0426	21	C12H9N2OS+
230.05	106	C15H6N2O+
231.0526	16	C14[13]CH6N2O+
247.0531	105	C12H11N2O2S+
248.0558	13	C11[13]CH11N2O2S+
249.0479	5	C12H11N2O2[34]S+
264.0799	570	C12H14N3O2S+
265.0824	81	C11[13]CH14N3O2S+
266.0771	23	C12H14N3O2[34]S+
290.0589	64	C16H8N3O3+
291.0605	10	C15[13]CH8N3O3+
