Mass spectrum: Orlistat; LC-ESI-QTOF; MS2; CE: 20 eV; R=35000; [M+H]+
Name: Orlistat
Name: [(2S)-1-[(2S,3S)-3-hexyl-4-oxooxetan-2-yl]tridecan-2-yl] (2S)-2-formamido-4-methylpentanoate
Formula: C29H53NO5
Exact mass: 495.3923738
SMILES: CCCCCCCCCCC[C@@H](C[C@@H]1OC(=O)[C@H]1CCCCCC)OC(=O)[C@H](CC(C)C)NC=O
InChI: InChI=1S/C29H53NO5/c1-5-7-9-11-12-13-14-15-16-18-24(34-29(33)26(30-22-31)20-23(3)4)21-27-25(28(32)35-27)19-17-10-8-6-2/h22-27H,5-21H2,1-4H3,(H,30,31)/t24-,25-,26-,27-/m0/s1
Instrument: Bruker maXis Impact
Instrument type: LC-ESI-QTOF
Ms type: MS2
Ion mode: POSITIVE
Ionization: ESI
Fragmentation mode: CID
Collision energy: 20 eV
Resolution: 35000
Column name: Acclaim RSLC C18 2.2um, 2.1x100mm, Thermo
Retention time: 14.505 min
Base peak: 513.4254
Precursor m/z: 496.3997
Precursor type: [M+H]+
m/z	relative intensity	assigned
132.1016	137	C6H14NO2+
133.0847	190	C6H13O3+
137.1318	78	C10H17+
142.0849	254	C4H14O5+
151.1452	71	C11H19+
160.0952	703	C7H14NO3+
161.1017	104	C7H15NO3+
165.1638	93	C12H21+
177.1089	99	C8H17O4+
179.1399	83	C12H19O+
181.0685	97	C13H9O+
191.1818	74	C14H23+
193.1943	272	C14H25+
194.1971	89	C6H28NO5+
211.2045	144	C14H27O+
223.0639	110	C14H9NO2+
224.0623	83	C18H8+
237.079	254	C15H11NO2+
238.0783	91	C19H10+
257.2478	84	C16H33O2+
283.1759	258	C15H25NO4+
283.2659	206	C18H35O2+
285.2778	72	C18H37O2+
291.3048	194	C21H39+
292.3065	71	C20[13]CH39+
301.2864	256	C22H37+
319.3008	999	C22H39O+
320.2984	320	C21[13]CH39O+
337.3108	364	C22H41O2+
338.314	138	C21[13]CH41O2+
359.0283	193	C24H7O4+
360.0299	108	C23H6NO4+
429.0903	146	C28H15NO4+
430.0879	192	C28H14O5+
431.0856	115	C28H15O5+
432.0808	77	C27H14NO5+
437.288	71	C28H39NO3+
445.122	84	C29H19NO4+
446.1171	178	C29H18O5+
479.3986	305	C29H53NO4+
480.3999	80	C28[13]CH53NO4+
