Mass spectrum: 2-Hydroxycarbamazepine; LC-ESI-QTOF; MS2; CE: 20 eV; R=35000; [M+H]+
Name: 2-Hydroxycarbamazepine
Name: 3-hydroxybenzo[b][1]benzazepine-11-carboxamide
Formula: C15H12N2O2
Exact mass: 252.0898776
SMILES: NC(=O)N1C2=CC=CC=C2C=CC2=CC(O)=CC=C12
InChI: InChI=1S/C15H12N2O2/c16-15(19)17-13-4-2-1-3-10(13)5-6-11-9-12(18)7-8-14(11)17/h1-9,18H,(H2,16,19)
Instrument: Bruker maXis Impact
Instrument type: LC-ESI-QTOF
Ms type: MS2
Ion mode: POSITIVE
Ionization: ESI
Fragmentation mode: CID
Collision energy: 20 eV
Resolution: 35000
Column name: Acclaim RSLC C18 2.2um, 2.1x100mm, Thermo
Retention time: 6.041 min
Base peak: 253.0973
Precursor m/z: 253.0972
Precursor type: [M+H]+
m/z	relative intensity	assigned
182.0949	6	C13H12N+
192.0795	43	C14H10N+
193.0854	8	C13[13]CH10N+
194.0953	284	C14H12N+
195.0982	28	C13[13]CH12N+
208.0747	222	C14H10NO+
209.08	54	C13[13]CH10NO+
210.0903	999	C14H12NO+
211.0935	113	C13[13]CH12NO+
212.0962	7	C12[13]C2H12NO+
220.074	5	C15H10NO+
236.0695	9	C15H10NO2+
237.1013	110	C15H13N2O+
238.1042	12	C14[13]CH13N2O+
253.0963	327	C15H13N2O2+
254.0991	47	C14[13]CH13N2O2+
