Mass spectrum: Celecoxib; LC-ESI-QTOF; MS2; CE: 20 eV; R=35000; [M+H]+
Name: Celecoxib
Name: 4-[5-(4-methylphenyl)-3-(trifluoromethyl)pyrazol-1-yl]benzenesulfonamide
Formula: C17H14F3N3O2S
Exact mass: 381.0758823
SMILES: CC1=CC=C(C=C1)C1=CC(=NN1C1=CC=C(C=C1)S(N)(=O)=O)C(F)(F)F
InChI: InChI=1S/C17H14F3N3O2S/c1-11-2-4-12(5-3-11)15-10-16(17(18,19)20)22-23(15)13-6-8-14(9-7-13)26(21,24)25/h2-10H,1H3,(H2,21,24,25)
Instrument: Bruker maXis Impact
Instrument type: LC-ESI-QTOF
Ms type: MS2
Ion mode: POSITIVE
Ionization: ESI
Fragmentation mode: CID
Collision energy: 20 eV
Resolution: 35000
Column name: Acclaim RSLC C18 2.2um, 2.1x100mm, Thermo
Retention time: 10.292 min
Base peak: 382.0825
Precursor m/z: 382.0832
Precursor type: [M+H]+
m/z	relative intensity	assigned
300.0895	6	C14H15F3N2S+
302.1011	6	C17H13F3N2+
303.1093	18	C17H14F3N2+
332.0777	6	C17H11F3N2O2+
362.0775	26	C17H14F2N3O2S+
363.0779	5	C16[13]CH14F2N3O2S+
382.0832	999	C17H15F3N3O2S+
383.0857	222	C16[13]CH15F3N3O2S+
384.0823	64	C17H15F3N3O2[34]S+
