Mass spectrum: Torasemide; LC-ESI-QTOF; MS2; CE: 50 eV; R=35000; [M+H]+
Name: Torasemide
Name: Torsemide
Name: 1-[4-(3-methylanilino)pyridin-3-yl]sulfonyl-3-propan-2-ylurea
Formula: C16H20N4O3S
Exact mass: 348.1256115
SMILES: CC(C)NC(=O)NS(=O)(=O)C1=CN=CC=C1NC1=CC=CC(C)=C1
InChI: InChI=1S/C16H20N4O3S/c1-11(2)18-16(21)20-24(22,23)15-10-17-8-7-14(15)19-13-6-4-5-12(3)9-13/h4-11H,1-3H3,(H,17,19)(H2,18,20,21)
Instrument: Bruker maXis Impact
Instrument type: LC-ESI-QTOF
Ms type: MS2
Ion mode: POSITIVE
Ionization: ESI
Fragmentation mode: CID
Collision energy: 50 eV
Resolution: 35000
Column name: Acclaim RSLC C18 2.2um, 2.1x100mm, Thermo
Retention time: 6.640 min
Base peak: 430.259
Precursor m/z: 349.1329
Precursor type: [M+H]+
m/z	relative intensity	assigned
125.016	58	C5H5N2S+
126.0211	6	C8H2N2+
128.0611	10	C2H12N2O2S+
129.0687	27	C2H13N2O2S+
137.0166	18	C6H5N2S+
140.0482	19	C2H10N3O2S+
141.056	23	C2H11N3O2S+
153.011	5	C6H5N2OS+
154.0634	12	C8H10O3+
155.0592	6	C2H11N4O2S+
156.0795	26	C3H14N3O2S+
167.0594	15	C3H11N4O2S+
168.0673	855	C11H8N2+
169.0709	96	C10[13]CH8N2+
170.0747	7	C9[13]C2H8N2+
171.0906	7	C3H15N4O2S+
176.0392	8	C9H8N2S+
181.0746	94	C4H13N4O2S+
182.0827	245	C4H14N4O2S+
183.0909	999	C9H13NO3+
184.0621	8	C3H12N4O3S+
184.0939	108	C8[13]CH13NO3+
185.0697	15	C3H13N4O3S+
185.0968	6	C7[13]C2H13NO3+
186.0761	5	C6H10N4O3+
191.0627	24	C10H11N2S+
197.0696	5	C4H13N4O3S+
198.0776	61	C4H14N4O3S+
199.0853	62	C7H11N4O3+
200.0883	6	C6[13]CH11N4O3+
201.0472	37	C11H9N2S+
202.0523	10	C14H6N2+
219.0576	31	C14H7N2O+
220.0601	5	C13[13]CH7N2O+
229.0419	12	C12H9N2OS+
230.0498	52	C15H6N2O+
231.0528	6	C14[13]CH6N2O+
247.0525	35	C12H11N2O2S+
264.0798	60	C15H10N3O2+
265.082	9	C14[13]CH10N3O2+
290.0594	6	C13H12N3O3S+
