Mass spectrum: Linuron; LC-ESI-QTOF; MS2; CE: Ramp 19.8-29.6 eV; R=35000; [M+H]+
Name: Linuron
Name: 3-(3,4-dichlorophenyl)-1-methoxy-1-methylurea
Formula: C9H10Cl2N2O2
Exact mass: 248.0119329
SMILES: CON(C)C(=O)NC1=CC=C(Cl)C(Cl)=C1
InChI: InChI=1S/C9H10Cl2N2O2/c1-13(15-2)9(14)12-6-3-4-7(10)8(11)5-6/h3-5H,1-2H3,(H,12,14)
Instrument: Bruker maXis Impact
Instrument type: LC-ESI-QTOF
Ms type: MS2
Ion mode: POSITIVE
Ionization: ESI
Fragmentation mode: CID
Collision energy: Ramp 19.8-29.6 eV
Resolution: 35000
Column name: Acclaim RSLC C18 2.2um, 2.1x100mm, Thermo
Retention time: 9.381 min
Base peak: 226.0893
Precursor m/z: 249.0192
Precursor type: [M+H]+
m/z	relative intensity	assigned
59.0487	5	C3H7O+
60.0438	91	C2H6NO+
62.0595	82	C2H8NO+
88.0385	11	C3H6NO2+
106.0506	7	ClH11N2O2+
123.9941	17	Cl2H8NO2+
125.002	72	C9HO+
125.9914	8	H8Cl[37]ClNO2+
126.0069	8	C8[13]CHO+
132.96	182	C5H3Cl2+
133.9642	10	C4[13]CH3Cl2+
134.957	103	C5H3Cl[37]Cl+
142.0058	7	C3H8Cl2N2+
147.0529	5	C8H7N2O+
153.02	88	CH11Cl2N2O2+
154.0264	13	C7H7ClN2+
155.017	21	CH11Cl[37]ClN2O2+
159.9708	999	C6H4Cl2N+
160.9783	489	C9H2ClO+
161.9679	619	C6H4Cl[37]ClN+
162.9752	209	C9H2[37]ClO+
163.9792	7	C6H6Cl2O+
165.0195	8	C2H11Cl2N2O2+
174.9935	7	C7H7Cl2N+
176.9755	5	C6H5Cl2NO+
181.0152	63	C8H6ClN2O+
182.0236	909	C8H7ClN2O+
183.0134	16	C8H6[37]ClN2O+
183.0255	65	C7[13]CH7ClN2O+
184.0206	172	C8H7[37]ClN2O+
185.0248	9	C5H11Cl2N2O+
187.9656	8	C7H4Cl2NO+
191.9947	5	C7H8Cl2NO+
216.9923	75	C8H7Cl2N2O+
217.999	24	C8H8Cl2N2O+
218.9888	43	C8H7Cl[37]ClN2O+
219.9957	8	C8H8Cl[37]ClN2O+
249.0195	76	C9H11Cl2N2O2+
250.0212	10	C8[13]CH11Cl2N2O2+
251.0158	45	C9H11Cl[37]ClN2O2+
