Mass spectrum: Fluconazole; LC-ESI-QTOF; MS2; CE: Ramp 21.7-32.6 eV; R=35000; [M+H]+
Name: Fluconazole
Name: 2-(2,4-difluorophenyl)-1,3-bis(1,2,4-triazol-1-yl)propan-2-ol
Formula: C13H12F2N6O
Exact mass: 306.1040654
SMILES: OC(CN1C=NC=N1)(CN1C=NC=N1)C1=C(F)C=C(F)C=C1
InChI: InChI=1S/C13H12F2N6O/c14-10-1-2-11(12(15)3-10)13(22,4-20-8-16-6-18-20)5-21-9-17-7-19-21/h1-3,6-9,22H,4-5H2
Instrument: Bruker maXis Impact
Instrument type: LC-ESI-QTOF
Ms type: MS2
Ion mode: POSITIVE
Ionization: ESI
Fragmentation mode: CID
Collision energy: Ramp 21.7-32.6 eV
Resolution: 35000
Column name: Acclaim RSLC C18 2.2um, 2.1x100mm, Thermo
Retention time: 5.143 min
Base peak: 266.1663
Precursor m/z: 307.1113
Precursor type: [M+H]+
m/z	relative intensity	assigned
70.0398	139	C2H4N3+
121.0448	43	C8H6F+
127.0352	130	C7H5F2+
128.0385	12	C6[13]CH5F2+
139.035	139	C8H5F2+
140.0382	14	C7[13]CH5F2+
141.0138	22	C10H2F+
141.0505	107	C8H7F2+
142.0535	10	C7[13]CH7F2+
151.0351	134	C9H5F2+
152.0383	12	C8[13]CH5F2+
164.0411	5	C10H6F2+
166.0453	18	C9H6F2N+
169.0454	596	C12H6F+
170.0489	56	C11[13]CH6F+
173.0502	23	C5H5F2N5+
177.0443	11	C7H4FN5+
187.0565	47	C12H8FO+
188.0606	6	C11[13]CH8FO+
193.0579	15	C10H7F2N2+
200.0613	50	C11H7FN3+
201.0659	7	C10[13]CH7FN3+
220.068	999	C11H8F2N3+
221.0712	151	C10[13]CH8F2N3+
222.0743	8	C9[13]C2H8F2N3+
238.079	927	C11H10F2N3O+
239.0822	123	C10[13]CH10F2N3O+
240.0855	8	C9[13]C2H10F2N3O+
289.1021	28	C13H11F2N6+
307.1125	103	C13H13F2N6O+
308.1139	19	C12[13]CH13F2N6O+
