Mass spectrum: Orlistat; LC-ESI-QTOF; MS2; CE: 50 eV; R=35000; [M+H]+
Name: Orlistat
Name: [(2S)-1-[(2S,3S)-3-hexyl-4-oxooxetan-2-yl]tridecan-2-yl] (2S)-2-formamido-4-methylpentanoate
Formula: C29H53NO5
Exact mass: 495.3923738
SMILES: CCCCCCCCCCC[C@@H](C[C@@H]1OC(=O)[C@H]1CCCCCC)OC(=O)[C@H](CC(C)C)NC=O
InChI: InChI=1S/C29H53NO5/c1-5-7-9-11-12-13-14-15-16-18-24(34-29(33)26(30-22-31)20-23(3)4)21-27-25(28(32)35-27)19-17-10-8-6-2/h22-27H,5-21H2,1-4H3,(H,30,31)/t24-,25-,26-,27-/m0/s1
Instrument: Bruker maXis Impact
Instrument type: LC-ESI-QTOF
Ms type: MS2
Ion mode: POSITIVE
Ionization: ESI
Fragmentation mode: CID
Collision energy: 50 eV
Resolution: 35000
Column name: Acclaim RSLC C18 2.2um, 2.1x100mm, Thermo
Retention time: 14.520 min
Base peak: 513.4259
Precursor m/z: 496.3997
Precursor type: [M+H]+
m/z	relative intensity	assigned
149.0435	476	C5H9O5+
167.0544	525	C8H9NO3+
181.0693	458	C9H11NO3+
223.0647	294	C14H9NO2+
225.0427	999	C13H7NO3+
226.0418	292	C17H6O+
227.0233	256	C12H5NO4+
227.0388	289	C16H5NO+
237.0787	666	C15H11NO2+
238.0759	253	C19H10+
239.0756	227	C18H9N+
283.2642	315	C18H35O2+
284.2672	207	C18H36O2+
299.059	389	C19H9NO3+
342.9956	199	C22HNO4+
343.9915	256	C22H2NO4+
344.0014	192	C22H2NO4+
357.0154	358	C24H5O4+
358.0141	194	C23H4NO4+
359.0293	253	C24H7O4+
360.0303	327	C23H6NO4+
395.164	238	C27H23O3+
