Mass spectrum: Metolachlor CGA 368208; LC-ESI-QTOF; MS2; CE: 40 eV; R=35000; [M+H]+
Name: Metolachlor CGA 368208
Name: 2-(2-ethyl-6-methylanilino)-2-oxoethanesulfonic acid
Formula: C11H15NO4S
Exact mass: 257.0721790
SMILES: CCC1=CC=CC(C)=C1NC(=O)CS(O)(=O)=O
InChI: InChI=1S/C11H15NO4S/c1-3-9-6-4-5-8(2)11(9)12-10(13)7-17(14,15)16/h4-6H,3,7H2,1-2H3,(H,12,13)(H,14,15,16)
Instrument: Bruker maXis Impact
Instrument type: LC-ESI-QTOF
Ms type: MS2
Ion mode: POSITIVE
Ionization: ESI
Fragmentation mode: CID
Collision energy: 40 eV
Resolution: 35000
Column name: Acclaim RSLC C18 2.2um, 2.1x100mm, Thermo
Retention time: 5.245 min
Base peak: 258.0784
Precursor m/z: 258.0795
Precursor type: [M+H]+
m/z	relative intensity	assigned
117.07	298	C9H9+
118.0641	224	C8H8N+
119.0855	327	C9H11+
120.0793	999	C5H12O3+
133.0871	198	C6H13O3+
134.0948	499	C6H14O3+
135.1033	216	C9H13N+
136.1103	774	C6H16O3+
144.0792	441	C7H12O3+
147.066	285	C6H11O4+
148.1121	367	C10H14N+
158.0955	232	C11H12N+
162.0897	208	C7H14O4+
