Mass spectrum: Nitrofurantoin; LC-ESI-QTOF; MS2; CE: 10 eV; R=35000; [M+H]+
Name: Nitrofurantoin
Name: 1-[(E)-(5-nitrofuran-2-yl)methylideneamino]imidazolidine-2,4-dione
Formula: C8H6N4O5
Exact mass: 238.0338193
SMILES: [O-][N+](=O)C1=CC=C(O1)\C=N\N1CC(=O)NC1=O
InChI: InChI=1S/C8H6N4O5/c13-6-4-11(8(14)10-6)9-3-5-1-2-7(17-5)12(15)16/h1-3H,4H2,(H,10,13,14)/b9-3+
Instrument: Bruker maXis Impact
Instrument type: LC-ESI-QTOF
Ms type: MS2
Ion mode: POSITIVE
Ionization: ESI
Fragmentation mode: CID
Collision energy: 10 eV
Resolution: 35000
Column name: Acclaim RSLC C18 2.2um, 2.1x100mm, Thermo
Retention time: 4.139 min
Base peak: 336.1837
Precursor m/z: 239.0411
Precursor type: [M+H]+
m/z	relative intensity	assigned
239.0404	999	C8H7N4O5+
