Mass spectrum: Canrenone; LC-ESI-QTOF; MS2; CE: 50 eV; R=35000; [M+H]+
Name: Canrenone
Name: UJVLDDZCTMKXJK-AFDHUMPMSA-N
Name: (9S,14S)-10,13-dimethylspiro[2,8,9,11,12,14,15,16-octahydro-1H-cyclopenta[a]phenanthrene-17,5`-oxolane]-2`,3-dione
Formula: C22H28O3
Exact mass: 340.2038448
SMILES: CC12CC[C@H]3C(C=CC4=CC(=O)CCC34C)[C@@H]1CCC21CCC(=O)O1
InChI: InChI=1S/C22H28O3/c1-20-9-5-15(23)13-14(20)3-4-16-17(20)6-10-21(2)18(16)7-11-22(21)12-8-19(24)25-22/h3-4,13,16-18H,5-12H2,1-2H3/t16?,17-,18-,20?,21?,22?/m0/s1
Instrument: Bruker maXis Impact
Instrument type: LC-ESI-QTOF
Ms type: MS2
Ion mode: POSITIVE
Ionization: ESI
Fragmentation mode: CID
Collision energy: 50 eV
Resolution: 35000
Column name: Acclaim RSLC C18 2.2um, 2.1x100mm, Thermo
Retention time: 9.688 min
Base peak: 341.2111
Precursor m/z: 341.2111
Precursor type: [M+H]+
m/z	relative intensity	assigned
115.0534	164	C9H7+
116.0599	31	C9H8+
117.0692	214	C9H9+
118.0722	35	C8[13]CH9+
119.0846	415	C9H11+
120.0875	57	C8[13]CH11+
121.064	75	C8H9O+
121.0999	102	C9H13+
122.103	17	C8[13]CH13+
123.0797	77	C8H11O+
124.0817	10	C7[13]CH11O+
125.0592	22	C7H9O2+
127.0551	31	C10H7+
128.061	450	C10H8+
129.0683	403	C10H9+
130.0759	151	C10H10+
131.0475	42	C9H7O+
131.0844	650	C10H11+
132.0549	19	C9H8O+
132.0882	73	C9[13]CH11+
133.0641	132	C9H9O+
133.1	302	C10H13+
134.0711	26	C9H10O+
134.1042	44	C9[13]CH13+
135.079	153	C9H11O+
135.1146	29	C10H15+
136.0854	13	C8[13]CH11O+
137.095	34	C9H13O+
141.0686	365	C11H9+
142.0763	341	C11H10+
143.0841	999	C11H11+
144.0557	58	C10H8O+
144.0892	134	C10[13]CH11+
145.0633	129	C10H9O+
145.0999	936	C11H13+
146.0702	57	C10H10O+
146.104	98	C10[13]CH13+
147.0789	274	C10H11O+
147.1151	94	C11H15+
149.0944	200	C10H13O+
152.0603	31	C12H8+
153.0682	124	C12H9+
154.0761	273	C12H10+
155.0843	406	C12H11+
156.091	191	C12H12+
157.0641	28	C11H9O+
157.0999	521	C12H13+
158.0712	123	C11H10O+
158.104	72	C11[13]CH13+
159.0784	168	C11H11O+
159.1154	264	C12H15+
160.0856	63	C11H12O+
160.1192	34	C11[13]CH15+
161.0949	257	C11H13O+
161.1298	22	C12H17+
162.0992	50	C10[13]CH13O+
163.1103	121	C11H15O+
165.0688	90	C13H9+
165.0896	32	C10H13O2+
166.0761	58	C13H10+
167.0842	108	C13H11+
168.0909	136	C13H12+
169.0996	587	C13H13+
170.1064	215	C13H14+
171.0799	58	C12H11O+
171.1151	203	C13H15+
172.0847	22	C12H12O+
172.1224	30	C12[13]CH15+
173.0946	477	C12H13O+
173.1309	77	C13H17+
174.099	57	C11[13]CH13O+
175.1106	254	C12H15O+
176.1151	25	C11[13]CH15O+
177.0941	12	C11H13O2+
177.126	47	C12H17O+
178.0762	26	C14H10+
179.0846	95	C14H11+
179.1053	32	C11H15O2+
180.0908	64	C14H12+
181.0995	290	C14H13+
182.1053	66	C13[13]CH13+
183.0795	19	C13H11O+
183.1159	285	C14H15+
184.085	28	C13H12O+
184.121	56	C13[13]CH15+
185.0961	33	C13H13O+
185.131	199	C14H17+
186.0997	11	C13H14O+
186.1367	56	C14H18+
187.1102	190	C13H15O+
187.1454	18	C14H19+
188.1147	29	C12[13]CH15O+
189.1255	25	C13H17O+
191.0845	21	C15H11+
192.0912	51	C15H12+
193.0999	114	C15H13+
194.1078	75	C15H14+
195.1149	209	C15H15+
196.1208	66	C15H16+
197.0959	42	C14H13O+
197.1304	113	C15H17+
198.1014	29	C14H14O+
198.136	35	C15H18+
199.1096	53	C14H15O+
199.1467	47	C15H19+
200.1149	18	C14H16O+
201.1265	27	C14H17O+
201.1637	11	C15H21+
203.0854	12	C16H11+
204.0893	14	C16H12+
205.1006	38	C16H13+
205.1208	45	C13H17O2+
206.1071	53	C16H14+
207.1154	66	C16H15+
208.1234	60	C16H16+
209.0952	16	C15H13O+
209.1307	120	C16H17+
210.1383	43	C16H18+
211.1093	39	C15H15O+
211.146	36	C16H19+
212.1513	16	C16H20+
213.1266	46	C15H17O+
214.1319	18	C15H18O+
217.1007	22	C17H13+
217.1218	13	C14H17O2+
219.1167	34	C17H15+
220.1232	27	C17H16+
221.1311	79	C17H17+
222.1366	26	C17H18+
223.1119	18	C16H15O+
223.1476	80	C17H19+
224.1174	16	C16H16O+
224.1513	28	C17H20+
225.1281	22	C16H17O+
225.163	44	C17H21+
226.1306	17	C16H18O+
226.1661	12	C17H22+
227.1402	35	C16H19O+
228.1492	17	C16H20O+
231.1146	22	C18H15+
232.121	27	C18H16+
233.129	35	C18H17+
235.1471	54	C18H19+
236.151	17	C17[13]CH19+
237.1286	23	C17H17O+
237.1639	22	C18H21+
239.1425	40	C17H19O+
239.1771	16	C18H23+
240.1472	16	C17H20O+
241.1178	11	C16H17O2+
241.1553	12	C17H21O+
247.146	22	C19H19+
248.1536	15	C19H20+
249.1624	30	C19H21+
251.1448	11	C18H19O+
252.1483	10	C18H20O+
253.1579	55	C18H21O+
254.1613	14	C17[13]CH21O+
257.1515	12	C17H21O2+
263.1775	22	C20H23+
265.1589	25	C19H21O+
266.1687	13	C19H22O+
267.1735	32	C19H23O+
268.1804	36	C19H24O+
271.1681	11	C18H23O2+
283.1693	31	C19H23O2+
341.2089	11	C22H29O3+
