Mass spectrum: Propanil; LC-ESI-QTOF; MS2; CE: 20 eV; R=35000; [M+H]+
Name: Propanil
Name: N-(3,4-dichlorophenyl)propanamide
Formula: C9H9Cl2NO
Exact mass: 217.0061193
SMILES: CCC(=O)NC1=CC(Cl)=C(Cl)C=C1
InChI: InChI=1S/C9H9Cl2NO/c1-2-9(13)12-6-3-4-7(10)8(11)5-6/h3-5H,2H2,1H3,(H,12,13)
Instrument: Bruker maXis Impact
Instrument type: LC-ESI-QTOF
Ms type: MS2
Ion mode: POSITIVE
Ionization: ESI
Fragmentation mode: CID
Collision energy: 20 eV
Resolution: 35000
Column name: Acclaim RSLC C18 2.2um, 2.1x100mm, Thermo
Retention time: 9.413 min
Base peak: 218.013
Precursor m/z: 218.0134
Precursor type: [M+H]+
m/z	relative intensity	assigned
127.018	336	C6H6ClN+
128.0208	21	C5[13]CH6ClN+
129.0144	88	C6H6[37]ClN+
130.0177	5	C6H7ClO+
161.9865	999	C6H6Cl2N+
162.9895	58	C5[13]CH6Cl2N+
163.9836	573	C6H6Cl[37]ClN+
164.9866	18	C6H7Cl2O+
218.0131	203	C9H10Cl2NO+
219.0164	22	C8[13]CH10Cl2NO+
220.0101	135	C9H10Cl[37]ClNO+
