Mass spectrum: Glibenclamide; LC-ESI-QTOF; MS2; CE: 40 eV; R=35000; [M+H]+
Name: Glibenclamide
Name: Glyburide
Name: 5-chloro-N-[2-[4-(cyclohexylcarbamoylsulfamoyl)phenyl]ethyl]-2-methoxybenzamide
Formula: C23H28ClN3O5S
Exact mass: 493.1438197
SMILES: COC1=C(C=C(Cl)C=C1)C(=O)NCCC1=CC=C(C=C1)S(=O)(=O)NC(=O)NC1CCCCC1
InChI: InChI=1S/C23H28ClN3O5S/c1-32-21-12-9-17(24)15-20(21)22(28)25-14-13-16-7-10-19(11-8-16)33(30,31)27-23(29)26-18-5-3-2-4-6-18/h7-12,15,18H,2-6,13-14H2,1H3,(H,25,28)(H2,26,27,29)
Instrument: Bruker maXis Impact
Instrument type: LC-ESI-QTOF
Ms type: MS2
Ion mode: POSITIVE
Ionization: ESI
Fragmentation mode: CID
Collision energy: 40 eV
Resolution: 35000
Column name: Acclaim RSLC C18 2.2um, 2.1x100mm, Thermo
Retention time: 10.134 min
Base peak: 494.1501
Precursor m/z: 494.1511
Precursor type: [M+H]+
m/z	relative intensity	assigned
125.9858	5	CH4NO4S+
134.0955	10	CH16N3O2S+
167.0147	35	C6H5N3OS+
168.0192	10	C9H2N3O+
169.0041	999	C6H4ClN3O+
170.0073	70	C5[13]CH4ClN3O+
171.0013	233	C6H4[37]ClN3O+
172.0042	11	ClH11NO5S+
198.0306	25	CH13ClN3O4S+
200.028	7	CH13[37]ClN3O4S+
210.1033	10	C7H18N2O3S+
245.072	9	C7H18ClN2O3S+
259.0515	59	C13H10ClN3O+
260.0542	9	C12[13]CH10ClN3O+
261.0486	15	C13H10[37]ClN3O+
262.0618	13	C9H14N2O5S+
288.078	49	C13H17ClO5+
289.0807	7	C12[13]CH17ClO5+
290.0748	14	C13H17[37]ClO5+
304.0733	147	C16H15ClNO3+
305.0758	22	C15[13]CH15ClNO3+
306.0702	41	C16H15[37]ClNO3+
307.0732	5	C16H16ClO4+
369.0666	27	C19H14ClN2O4+
370.0677	6	C18[13]CH14ClN2O4+
371.0624	10	C19H14[37]ClN2O4+
394.165	6	C23H24NO5+
