Mass spectrum: 2-Hydroxycarbamazepine; LC-ESI-QTOF; MS2; CE: Ramp 19.9-29.9 eV; R=35000; [M+H]+
Name: 2-Hydroxycarbamazepine
Name: 3-hydroxybenzo[b][1]benzazepine-11-carboxamide
Formula: C15H12N2O2
Exact mass: 252.0898776
SMILES: NC(=O)N1C2=CC=CC=C2C=CC2=CC(O)=CC=C12
InChI: InChI=1S/C15H12N2O2/c16-15(19)17-13-4-2-1-3-10(13)5-6-11-9-12(18)7-8-14(11)17/h1-9,18H,(H2,16,19)
Instrument: Bruker maXis Impact
Instrument type: LC-ESI-QTOF
Ms type: MS2
Ion mode: POSITIVE
Ionization: ESI
Fragmentation mode: CID
Collision energy: Ramp 19.9-29.9 eV
Resolution: 35000
Column name: Acclaim RSLC C18 2.2um, 2.1x100mm, Thermo
Retention time: 6.023 min
Base peak: 253.097
Precursor m/z: 253.0972
Precursor type: [M+H]+
m/z	relative intensity	assigned
117.0574	7	C8H7N+
165.0689	11	C13H9+
167.0721	19	C12H9N+
180.08	10	C13H10N+
181.0862	5	C13H11N+
182.0957	39	C13H12N+
192.0804	64	C14H10N+
193.0869	26	C14H11N+
194.0961	375	C14H12N+
195.0674	20	C13H9NO+
195.0992	27	C13[13]CH12N+
208.0754	354	C14H10NO+
209.0814	97	C14H11NO+
210.0911	999	C14H12NO+
211.0946	143	C13[13]CH12NO+
212.0968	8	C12[13]C2H12NO+
236.0707	7	C15H10NO2+
237.1024	77	C15H13N2O+
238.1053	5	C14[13]CH13N2O+
253.0972	245	C15H13N2O2+
254.1	35	C14[13]CH13N2O2+
