Mass spectrum: Medroxyprogesterone; LC-ESI-QTOF; MS2; CE: 20 eV; R=35000; [M-H]-
Name: Medroxyprogesterone
Name: (6S,8R,9S,10R,13S,14S,17R)-17-acetyl-17-hydroxy-6,10,13-trimethyl-2,6,7,8,9,11,12,14,15,16-decahydro-1H-cyclopenta[a]phenanthren-3-one
Formula: C22H32O3
Exact mass: 344.2351449
SMILES: [H][C@@]12CC[C@](O)(C(C)=O)[C@@]1(C)CC[C@@]1([H])[C@@]2([H])C[C@H](C)C2=CC(=O)CC[C@]12C
InChI: InChI=1S/C22H32O3/c1-13-11-16-17(20(3)8-5-15(24)12-19(13)20)6-9-21(4)18(16)7-10-22(21,25)14(2)23/h12-13,16-18,25H,5-11H2,1-4H3/t13-,16+,17-,18-,20+,21-,22-/m0/s1
Instrument: Bruker maXis Impact
Instrument type: LC-ESI-QTOF
Ms type: MS2
Ion mode: NEGATIVE
Ionization: ESI
Fragmentation mode: CID
Collision energy: 20 eV
Resolution: 35000
Column name: Acclaim RSLC C18 2.2um, 2.1x100mm, Thermo
Retention time: 10.697 min
Base peak: 379.2036
Precursor m/z: 343.2279
Precursor type: [M-H]-
m/z	relative intensity	assigned
299.201	999	C20H27O2-
300.2065	279	C19[13]CH27O2-
315.2322	316	C21H31O2-
343.2248	257	C22H31O3-
