Mass spectrum: Cyproterone; LC-ESI-QTOF; MS2; CE: 50 eV; R=35000; [M+H]+
Name: Cyproterone
Name: (1S,2S,3S,5R,11R,12S,15R,16S)-15-acetyl-9-chloro-15-hydroxy-2,16-dimethylpentacyclo[9.7.0.02,8.03,5.012,16]octadeca-7,9-dien-6-one
Formula: C22H27ClO3
Exact mass: 374.1648724
SMILES: CC(=O)[C@@]1(O)CC[C@H]2[C@@H]3C=C(Cl)C4=CC(=O)[C@@H]5C[C@@H]5[C@]4(C)[C@H]3CC[C@]12C
InChI: InChI=1S/C22H27ClO3/c1-11(24)22(26)7-5-14-12-9-18(23)17-10-19(25)13-8-16(13)21(17,3)15(12)4-6-20(14,22)2/h9-10,12-16,26H,4-8H2,1-3H3/t12-,13+,14-,15-,16-,20-,21-,22-/m0/s1
Instrument: Bruker maXis Impact
Instrument type: LC-ESI-QTOF
Ms type: MS2
Ion mode: POSITIVE
Ionization: ESI
Fragmentation mode: CID
Collision energy: 50 eV
Resolution: 35000
Column name: Acclaim RSLC C18 2.2um, 2.1x100mm, Thermo
Retention time: 10.090 min
Base peak: 375.1722
Precursor m/z: 375.1721
Precursor type: [M+H]+
m/z	relative intensity	assigned
115.0537	205	C9H7+
116.0583	50	C3H13ClO2+
117.0691	159	C9H9+
118.0714	19	C8[13]CH9+
119.0845	240	C9H11+
120.0886	46	C3H17ClO2+
121.0645	136	C8H9O+
121.1011	61	C9H13+
122.0674	21	C7[13]CH9O+
123.0793	45	C2H16ClO3+
125.0157	39	C7H6Cl+
127.0292	24	C7H8Cl+
127.0523	49	C4H12ClO2+
128.061	471	C10H8+
129.0687	550	C4H14ClO2+
130.0756	150	C4H15ClO2+
131.0479	109	C3H12ClO3+
131.0845	515	C10H11+
132.0547	102	C3H13ClO3+
132.0884	93	C9[13]CH11+
133.064	128	C9H9O+
133.1002	636	C10H13+
134.0718	28	C9H10O+
134.1038	72	C9[13]CH13+
135.0797	122	C9H11O+
135.1165	68	C10H15+
137.0938	40	C3H18ClO3+
139.0298	45	C8H8Cl+
141.0688	512	C11H9+
142.0764	629	C5H15ClO2+
143.0838	527	C5H16ClO2+
144.0562	145	C10H8O+
144.091	142	C5H17ClO2+
145.0631	451	C4H14ClO3+
145.0996	418	C11H13+
146.0712	145	C4H15ClO3+
146.1047	67	C10[13]CH13+
147.0798	162	C10H11O+
147.1155	330	C11H15+
148.0866	32	C4H17ClO3+
148.1192	63	C10[13]CH15+
149.0576	20	C9H9O2+
149.0955	91	C10H13O+
150.099	20	C9[13]CH13O+
151.0292	41	C9H8Cl+
151.1105	77	C4H20ClO3+
152.0612	127	C12H8+
153.0462	48	C9H10Cl+
153.0684	282	C6H14ClO2+
154.0762	203	C6H15ClO2+
155.0241	61	C8H8ClO+
155.0593	121	C9H12Cl+
155.0843	694	C6H16ClO2+
156.0914	351	C6H17ClO2+
157.0632	208	C5H14ClO3+
157.0998	514	C6H18ClO2+
158.071	178	C5H15ClO3+
158.1048	118	C6H19ClO2+
159.079	350	C5H16ClO3+
159.1151	227	C12H15+
160.0858	86	C5H17ClO3+
160.1207	29	C11[13]CH15+
161.0945	100	C5H18ClO3+
161.1326	50	C12H17+
162.0209	28	C10H7Cl+
163.0285	90	C10H8Cl+
163.1117	37	C11H15O+
165.0275	24	C10H8[37]Cl+
165.0451	67	C10H10Cl+
165.0685	472	C7H14ClO2+
166.0756	244	C7H15ClO2+
167.0272	30	C9H8ClO+
167.0839	476	C7H16ClO2+
168.0556	39	C6H13ClO3+
168.0922	251	C7H17ClO2+
169.041	47	C9H10ClO+
169.0634	171	C6H14ClO3+
169.0996	437	C7H18ClO2+
170.0703	104	C6H15ClO3+
170.1061	122	C7H19ClO2+
171.079	363	C6H16ClO3+
171.1155	204	C7H20ClO2+
172.0859	114	C6H17ClO3+
172.119	71	C7H21ClO2+
173.0952	130	C12H13O+
173.1303	36	C7H22ClO2+
174.101	28	C11[13]CH13O+
175.0306	71	C11H8Cl+
175.1097	174	C12H15O+
176.0379	32	C11H9Cl+
176.1147	32	C11[13]CH15O+
177.0447	181	C11H10Cl+
177.0696	30	C14H9+
177.1285	45	C12H17O+
178.0158	46	C10H7ClO+
178.0487	26	C10[13]CH10Cl+
178.0764	261	C8H15ClO2+
179.0259	93	C10H8ClO+
179.0437	48	C11H10[37]Cl+
179.0604	57	C11H12Cl+
179.0839	545	C8H16ClO2+
180.0917	260	C8H17ClO2+
181.0247	34	C10H8[37]ClO+
181.0409	140	C10H10ClO+
181.0623	127	C7H14ClO3+
181.0996	615	C8H18ClO2+
182.071	90	C7H15ClO3+
182.1069	244	C8H19ClO2+
183.0394	51	C10H10[37]ClO+
183.0794	230	C13H11O+
183.1151	580	C14H15+
184.0864	315	C7H17ClO3+
184.1195	113	C13[13]CH15+
185.0948	456	C13H13O+
185.1313	118	C14H17+
186.0996	96	C12[13]CH13O+
186.1359	27	C13[13]CH17+
187.0748	37	C12H11O2+
187.11	75	C13H15O+
187.1461	19	C8H24ClO2+
188.1174	19	C12[13]CH15O+
189.0453	108	C12H10Cl+
189.0675	34	C9H14ClO2+
189.1258	33	C7H22ClO3+
190.0768	57	C15H10+
191.0235	203	C11H8ClO+
191.0613	116	C12H12Cl+
191.0842	266	C9H16ClO2+
192.0306	62	C11H9ClO+
192.0925	302	C15H12+
193.0231	52	C11H8[37]ClO+
193.0411	64	C11H10ClO+
193.0578	40	C12H12[37]Cl+
193.0741	33	C12H14Cl+
193.0996	661	C9H18ClO2+
194.0702	57	C8H15ClO3+
194.1068	308	C9H19ClO2+
195.0371	25	C11H10[37]ClO+
195.0796	257	C14H11O+
195.1153	495	C9H20ClO2+
196.0863	158	C8H17ClO3+
196.123	170	C9H21ClO2+
197.0942	166	C14H13O+
197.131	194	C15H17+
198.0998	41	C13[13]CH13O+
198.1356	49	C14[13]CH17+
199.1109	121	C14H15O+
199.1466	24	C9H24ClO2+
200.117	26	C13[13]CH15O+
201.0453	51	C13H10Cl+
201.1262	46	C8H22ClO3+
202.0781	105	C16H10+
203.0403	21	C13H10[37]Cl+
203.0603	105	C13H12Cl+
203.0838	215	C10H16ClO2+
204.0676	41	C13H13Cl+
204.0912	255	C10H17ClO2+
205.041	139	C12H10ClO+
205.0573	39	C13H12[37]Cl+
205.0761	74	C10H16[37]ClO2+
205.0998	510	C10H18ClO2+
206.0449	36	C12H11ClO+
206.1068	266	C10H19ClO2+
207.0382	33	C12H10[37]ClO+
207.0555	58	C12H12ClO+
207.0796	149	C15H11O+
207.1157	530	C10H20ClO2+
208.0867	203	C9H17ClO3+
208.1223	190	C10H21ClO2+
209.0549	25	C12H12[37]ClO+
209.0944	312	C9H18ClO3+
209.1308	376	C10H22ClO2+
210.1024	148	C9H19ClO3+
210.1394	121	C16H18+
211.1103	144	C15H15O+
211.1455	75	C10H24ClO2+
212.1181	33	C14[13]CH15O+
213.0441	28	C14H10Cl+
213.1234	39	C9H22ClO3+
214.0528	22	C14H11Cl+
214.1338	20	C9H23ClO3+
215.0428	19	C10H12ClO3+
215.0615	70	C14H12Cl+
215.0854	76	C17H11+
216.0735	28	C14H13Cl+
216.0914	114	C11H17ClO2+
217.0772	94	C14H14Cl+
217.1001	299	C11H18ClO2+
218.0719	32	C16H10O+
218.1085	255	C17H14+
219.0565	288	C13H12ClO+
219.0783	70	C10H16ClO3+
219.0914	44	C11H18[37]ClO2+
219.1155	405	C11H20ClO2+
220.0602	64	C12[13]CH12ClO+
220.0857	78	C10H17ClO3+
220.1233	279	C11H21ClO2+
221.0536	56	C13H12[37]ClO+
221.0951	343	C16H13O+
221.1317	364	C17H17+
222.1023	253	C10H19ClO3+
222.1378	139	C11H23ClO2+
223.1103	336	C10H20ClO3+
223.1466	118	C11H24ClO2+
224.1164	129	C10H21ClO3+
224.1528	55	C11H25ClO2+
225.1255	71	C10H22ClO3+
225.1604	27	C11H26ClO2+
226.1305	21	C10H23ClO3+
227.0628	48	C15H12Cl+
228.065	26	C15H13Cl+
228.0969	20	C18H12+
229.0392	19	C14H10ClO+
229.0573	22	C11H14ClO3+
229.0758	65	C15H14Cl+
229.1005	119	C12H18ClO2+
230.087	30	C15H15Cl+
230.1083	174	C18H14+
231.0548	33	C14H12ClO+
231.0773	43	C11H16ClO3+
231.0958	39	C12H18[37]ClO2+
231.1165	285	C18H15+
232.0873	35	C17H12O+
232.1232	224	C12H21ClO2+
233.0728	19	C11H16[37]ClO3+
233.0959	119	C17H13O+
233.1311	319	C12H22ClO2+
234.1036	133	C17H14O+
234.1372	157	C12H23ClO2+
235.1111	397	C17H15O+
235.1466	555	C18H19+
236.1186	259	C17H16O+
236.1525	122	C17[13]CH19+
237.1252	285	C11H22ClO3+
237.1631	94	C18H21+
238.1314	114	C11H23ClO3+
238.166	32	C17[13]CH21+
239.06	25	C16H12Cl+
239.1436	95	C17H19O+
240.066	26	C16H13Cl+
240.148	24	C16[13]CH19O+
241.0779	45	C16H14Cl+
241.0954	23	C13H18ClO2+
241.1644	23	C17H21O+
242.1044	20	C13H19ClO2+
243.0595	26	C15H12ClO+
243.0918	58	C16H16Cl+
243.1171	48	C19H15+
244.0988	30	C16H17Cl+
244.1225	65	C13H21ClO2+
245.07	41	C15H14ClO+
245.0959	42	C18H13O+
245.1074	45	C16H18Cl+
245.1327	316	C19H17+
245.1932	19	C17H25O+
246.1028	48	C18H14O+
246.1389	186	C13H23ClO2+
247.0783	21	C17H11O2+
247.1107	151	C18H15O+
247.1462	145	C19H19+
248.1178	236	C12H21ClO3+
248.1519	41	C18[13]CH19+
249.1268	394	C18H17O+
249.163	191	C19H21+
250.134	188	C12H23ClO3+
250.1718	68	C19H22+
251.1407	201	C18H19O+
251.178	69	C13H28ClO2+
252.147	49	C17[13]CH19O+
252.1799	20	C12[13]CH28ClO2+
253.0757	21	C17H14Cl+
253.1566	41	C12H26ClO3+
255.0935	32	C17H16Cl+
255.1165	44	C20H15+
256.1236	26	C20H16+
257.0741	26	C16H14ClO+
257.101	19	C19H13O+
257.1297	25	C14H22ClO2+
258.0807	25	C16H15ClO+
258.1407	32	C20H18+
259.0809	22	C18H11O2+
259.0894	22	C16H16ClO+
259.1106	59	C13H20ClO3+
259.1486	100	C20H19+
260.1179	48	C13H21ClO3+
260.1549	84	C20H20+
261.1004	19	C16H18ClO+
261.1267	76	C19H17O+
261.1633	160	C20H21+
262.1332	145	C13H23ClO3+
262.1658	66	C14H27ClO2+
263.1429	999	C19H19O+
264.1463	285	C18[13]CH19O+
265.158	129	C19H21O+
266.163	33	C18[13]CH21O+
267.0915	22	C18H16Cl+
267.1404	20	C18H19O2+
269.0707	19	C17H14ClO+
270.1388	22	C15H23ClO2+
271.0935	30	C17H16ClO+
271.1503	27	C21H19+
272.0962	22	C17H17ClO+
273.1047	23	C17H18ClO+
273.1266	86	C20H17O+
274.1108	23	C17H19ClO+
274.1304	30	C19[13]CH17O+
275.1083	19	C19H15O2+
275.1383	35	C14H24ClO3+
275.182	25	C21H23+
277.119	25	C19H17O2+
277.157	238	C14H26ClO3+
278.1279	38	C19H18O2+
278.1647	144	C14H27ClO3+
279.1324	24	C19H19O2+
279.1734	454	C20H23O+
280.1764	133	C19[13]CH23O+
281.1088	44	C19H18Cl+
285.1067	31	C18H18ClO+
287.105	20	C18H18[37]ClO+
287.1436	20	C21H19O+
288.1499	27	C21H20O+
289.1591	41	C21H21O+
291.1343	35	C20H19O2+
293.1528	175	C20H21O2+
293.191	20	C21H25O+
294.1536	30	C19[13]CH21O2+
299.1192	105	C19H20ClO+
300.1263	27	C18[13]CH20ClO+
301.1175	28	C19H20[37]ClO+
303.1731	30	C16H28ClO3+
306.1591	28	C21H22O2+
307.1701	23	C21H23O2+
313.1359	47	C20H22ClO+
314.1462	19	C19[13]CH22ClO+
321.1834	45	C22H25O2+
