Mass spectrum: Climbazol; LC-ESI-QTOF; MS2; CE: 20 eV; R=35000; [M+H]+
Name: Climbazol
Name: Climbazole
Name: 1-(4-chlorophenoxy)-1-imidazol-1-yl-3,3-dimethylbutan-2-one
Formula: C15H17ClN2O2
Exact mass: 292.0978555
SMILES: CC(C)(C)C(=O)C(OC1=CC=C(Cl)C=C1)N1C=CN=C1
InChI: InChI=1S/C15H17ClN2O2/c1-15(2,3)13(19)14(18-9-8-17-10-18)20-12-6-4-11(16)5-7-12/h4-10,14H,1-3H3
Instrument: Bruker maXis Impact
Instrument type: LC-ESI-QTOF
Ms type: MS2
Ion mode: POSITIVE
Ionization: ESI
Fragmentation mode: CID
Collision energy: 20 eV
Resolution: 35000
Column name: Acclaim RSLC C18 2.2um, 2.1x100mm, Thermo
Retention time: 9.790 min
Base peak: 293.1056
Precursor m/z: 293.1051
Precursor type: [M+H]+
m/z	relative intensity	assigned
115.0747	8	C6H11O2+
126.9935	7	C6H4ClO+
129.0092	50	C6H6ClO+
131.0063	13	C6H6[37]ClO+
137.1062	22	C2H18ClN2O2+
141.009	83	C7H6ClO+
142.0127	6	C6[13]CH6ClO+
143.006	21	C7H6[37]ClO+
155.0245	42	C8H8ClO+
157.0212	10	C8H8[37]ClO+
161.0948	7	C11H13O+
166.1089	48	C9H14N2O+
197.0719	999	C11H14ClO+
198.0753	109	C10[13]CH14ClO+
199.069	238	C11H14[37]ClO+
200.0721	15	C9H13ClN2O+
225.0669	50	C12H14ClO2+
226.0703	6	C11[13]CH14ClO2+
227.0641	13	C12H14[37]ClO2+
293.1047	258	C15H18ClN2O2+
294.1079	45	C14[13]CH18ClN2O2+
295.1018	69	C15H18[37]ClN2O2+
