Mass spectrum: Canrenone; LC-ESI-QTOF; MS2; CE: 20 eV; R=35000; [M+H]+
Name: Canrenone
Name: UJVLDDZCTMKXJK-AFDHUMPMSA-N
Name: (9S,14S)-10,13-dimethylspiro[2,8,9,11,12,14,15,16-octahydro-1H-cyclopenta[a]phenanthrene-17,5`-oxolane]-2`,3-dione
Formula: C22H28O3
Exact mass: 340.2038448
SMILES: CC12CC[C@H]3C(C=CC4=CC(=O)CCC34C)[C@@H]1CCC21CCC(=O)O1
InChI: InChI=1S/C22H28O3/c1-20-9-5-15(23)13-14(20)3-4-16-17(20)6-10-21(2)18(16)7-11-22(21)12-8-19(24)25-22/h3-4,13,16-18H,5-12H2,1-2H3/t16?,17-,18-,20?,21?,22?/m0/s1
Instrument: Bruker maXis Impact
Instrument type: LC-ESI-QTOF
Ms type: MS2
Ion mode: POSITIVE
Ionization: ESI
Fragmentation mode: CID
Collision energy: 20 eV
Resolution: 35000
Column name: Acclaim RSLC C18 2.2um, 2.1x100mm, Thermo
Retention time: 9.652 min
Base peak: 341.2114
Precursor m/z: 341.2111
Precursor type: [M+H]+
m/z	relative intensity	assigned
143.0841	5	C11H11+
169.0999	9	C13H13+
173.0951	13	C12H13O+
175.1108	6	C12H15O+
179.1054	5	C11H15O2+
187.111	45	C13H15O+
188.1143	5	C12[13]CH15O+
205.1214	30	C13H17O2+
283.1688	14	C19H23O2+
305.1901	7	C22H25O+
323.2005	15	C22H27O2+
341.2117	999	C22H29O3+
342.2148	214	C21[13]CH29O3+
343.2174	24	C20[13]C2H29O3+
