Mass spectrum: Clobetasol; LC-ESI-QTOF; MS2; CE: Ramp 23.8-35.7 eV; R=35000; [M+H]+
Name: Clobetasol
Name: (8S,9R,10S,11S,13S,14S,16S,17R)-17-(2-chloroacetyl)-9-fluoro-11,17-dihydroxy-10,13,16-trimethyl-6,7,8,11,12,14,15,16-octahydrocyclopenta[a]phenanthren-3-one
Formula: C22H28ClFO4
Exact mass: 410.1660153
SMILES: [H][C@@]12C[C@H](C)[C@](O)(C(=O)CCl)[C@@]1(C)C[C@H](O)[C@@]1(F)[C@@]2([H])CCC2=CC(=O)C=C[C@]12C
InChI: InChI=1S/C22H28ClFO4/c1-12-8-16-15-5-4-13-9-14(25)6-7-19(13,2)21(15,24)17(26)10-20(16,3)22(12,28)18(27)11-23/h6-7,9,12,15-17,26,28H,4-5,8,10-11H2,1-3H3/t12-,15-,16-,17-,19-,20-,21-,22-/m0/s1
Instrument: Bruker maXis Impact
Instrument type: LC-ESI-QTOF
Ms type: MS2
Ion mode: POSITIVE
Ionization: ESI
Fragmentation mode: CID
Collision energy: Ramp 23.8-35.7 eV
Resolution: 35000
Column name: Acclaim RSLC C18 2.2um, 2.1x100mm, Thermo
Retention time: 9.448 min
Base peak: 311.2012
Precursor m/z: 411.1733
Precursor type: [M+H]+
m/z	relative intensity	assigned
119.0238	21	C5H8ClO+
119.084	48	ClFH17O3+
121.0639	166	C8H9O+
121.1006	34	ClFH19O3+
122.0676	29	C2H15ClO3+
125.096	17	C8H13O+
128.0604	35	CH14ClFO3+
129.0678	23	C4H14ClO2+
131.0842	110	CH17ClFO3+
132.0895	24	C4H17ClO2+
133.0387	28	C6H10ClO+
133.0631	57	C3H14ClO3+
133.1006	45	CH19ClFO3+
135.0187	21	C5H8ClO2+
135.0783	139	C3H16ClO3+
137.0973	26	C6H14FO2+
141.0673	21	C5H14ClO2+
143.0229	23	C7H8ClO+
143.0612	22	C8H12Cl+
143.084	104	C2H17ClFO3+
145.0628	91	C4H14ClO3+
145.0997	54	C2H19ClFO3+
146.0688	26	C4H15ClO3+
147.0793	999	C10H11O+
148.083	93	C9[13]CH11O+
149.0948	83	CH19ClFO4+
155.0828	33	C6H16ClO2+
157.0407	27	C8H10ClO+
157.0741	18	C9H14Cl+
157.1001	67	C3H19ClFO3+
158.0723	30	C11H10O+
159.0564	18	C8H12ClO+
159.0785	270	C11H11O+
160.0821	50	C10[13]CH11O+
161.0942	217	C11H13O+
162.098	37	C10[13]CH13O+
163.0729	25	C4H16ClO4+
165.0688	23	C4H15ClFO3+
167.0618	53	C10H12Cl+
167.0839	19	C4H17ClFO3+
169.0407	42	C9H10ClO+
169.063	49	C6H14ClO3+
169.0968	28	C7H18ClO2+
171.0562	248	C9H12ClO+
171.0793	555	C12H11O+
172.0598	36	C8[13]CH12ClO+
172.0824	65	C11[13]CH11O+
173.0335	38	C8H10ClO2+
173.0518	87	C9H12[37]ClO+
173.0945	256	C12H13O+
174.0981	43	C11[13]CH13O+
175.0717	26	C5H16ClO4+
175.1098	31	C6H20ClO3+
177.0885	45	C5H18ClO4+
179.0834	18	C5H18[37]ClO4+
181.1003	33	C5H19ClFO3+
183.0551	86	C10H12ClO+
183.0774	40	C7H16ClO3+
183.1142	19	C8H20ClO2+
184.0856	20	C7H17ClO3+
185.0357	19	C9H10ClO2+
185.0708	130	C10H14ClO+
185.0944	227	C13H13O+
186.1001	38	C12[13]CH13O+
187.0504	42	C9H12ClO2+
187.0718	133	C12H11O2+
187.1103	115	C13H15O+
188.0797	19	C11[13]CH11O2+
188.1117	20	C12[13]CH15O+
189.0895	33	C6H18ClO4+
193.0993	42	C9H18ClO2+
195.0538	50	C11H12ClO+
195.1179	49	C12H16FO+
196.0883	38	C14H12O+
197.053	18	C11H12[37]ClO+
197.071	21	C11H14ClO+
197.0945	160	C14H13O+
197.1301	23	C9H22ClO2+
198.0991	28	C13[13]CH13O+
199.074	20	C7H16ClO4+
199.1098	50	C8H20ClO3+
201.1262	24	C5H23ClFO4+
203.1057	51	C7H20ClO4+
205.0978	22	C7H20[37]ClO4+
207.1156	34	C7H21ClFO3+
208.087	37	C6H18ClFO4+
208.1208	20	C10H21ClO2+
209.0763	17	C15H10F+
209.0942	78	C9H18ClO3+
209.129	37	C10H22ClO2+
210.1024	62	C6H20ClFO4+
211.0522	39	C11H12ClO2+
211.0713	21	C8H16ClO4+
211.1107	320	C6H21ClFO4+
212.1167	214	C9H21ClO3+
213.0677	76	C11H14ClO2+
213.0915	33	C14H13O2+
213.1261	154	C15H17O+
214.0713	21	C11H15ClO2+
214.1279	37	C14[13]CH17O+
215.0655	21	C11H14[37]ClO2+
215.1072	93	C8H20ClO4+
217.0978	21	C8H20[37]ClO4+
219.1165	24	C17H15+
221.0952	74	C7H19ClFO4+
221.1308	50	C11H22ClO2+
222.103	111	C7H20ClFO4+
223.0509	18	C12H12ClO2+
223.1101	240	C7H21ClFO4+
224.1168	78	C10H21ClO3+
225.1261	125	C16H17O+
226.1306	22	C15[13]CH17O+
227.0816	19	C12H16ClO2+
227.103	27	C9H20ClO4+
227.1429	67	C16H19O+
228.1462	30	C10H25ClO3+
231.1172	20	C18H15+
233.0963	22	C17H13O+
233.1292	17	C12H22ClO2+
234.1037	32	C17H14O+
235.1118	131	C17H15O+
235.1469	50	C9H25ClFO3+
236.1163	51	C11H21ClO3+
236.1548	37	C9H26ClFO3+
237.1266	489	C17H17O+
238.1301	120	C16[13]CH17O+
239.1071	17	C16H15O2+
239.1426	291	C17H19O+
240.1468	54	C16[13]CH19O+
241.1229	53	C16H17O2+
241.1553	22	C11H26ClO3+
242.1294	17	C15[13]CH17O2+
246.1018	22	C12H19ClO3+
246.1405	21	C19H18+
247.09	25	C12H17ClFO2+
248.1187	57	C9H22ClFO4+
249.1259	118	C15H18FO2+
250.1356	27	C14[13]CH18FO2+
250.1694	32	C13H27ClO2+
251.1419	68	C9H25ClFO4+
251.1743	20	C13H28ClO2+
252.1506	45	C18H20O+
253.1212	103	C17H17O2+
253.1565	90	C18H21O+
254.1591	24	C17[13]CH21O+
255.1365	55	C11H24ClO4+
257.1414	18	C15H23ClF+
259.1114	21	C19H15O+
259.1491	20	C17H20FO+
260.1188	51	C10H22ClFO4+
260.1522	28	C14H25ClO2+
261.1252	33	C13H22ClO3+
261.1633	36	C20H21+
262.1337	72	C10H24ClFO4+
263.1423	422	C19H19O+
264.1451	108	C18[13]CH19O+
265.1568	35	C13H26ClO3+
266.163	18	C13H27ClO3+
267.1377	74	C18H19O2+
267.1738	39	C10H29ClFO4+
268.14	28	C16H22ClF+
269.1474	19	C16H23ClF+
272.1175	17	C14H21ClO3+
273.1293	47	C17H18FO2+
273.1645	22	C18H22FO+
274.132	33	C14H23ClO3+
275.1424	76	C11H25ClFO4+
276.1482	69	C14H25ClO3+
277.1225	29	C19H17O2+
277.1585	219	C20H21O+
278.1653	357	C11H28ClFO4+
279.1372	22	C19H19O2+
279.1727	285	C11H29ClFO4+
280.1772	39	C10[13]CH29ClFO4+
281.1532	48	C17H23ClF+
283.1451	23	C17H23[37]ClF+
286.1357	23	C21H18O+
287.142	22	C12H25ClFO4+
288.1512	62	C21H20O+
289.1522	21	C15H26ClO3+
289.1664	21	C19H26Cl+
291.1397	18	C17H20FO3+
291.1729	153	C21H23O+
292.1772	42	C20[13]CH23O+
293.1495	17	C14H26ClO4+
295.132	20	C19H19O3+
295.1685	44	C20H23O2+
296.1748	46	C14H29ClO4+
297.1786	37	C18H27ClF+
301.1566	159	C16H26ClO3+
302.158	37	C15[13]CH26ClO3+
306.1602	85	C21H22O2+
307.1626	21	C20[13]CH22O2+
309.185	60	C21H25O2+
311.1196	20	C20H20ClO+
313.0982	44	C19H18ClO2+
313.1325	77	C20H22ClO+
314.136	24	C19[13]CH22ClO+
315.1282	37	C20H22[37]ClO+
319.1695	122	C22H23O2+
320.1726	33	C21[13]CH23O2+
327.1494	100	C21H24ClO+
328.1533	28	C20[13]CH24ClO+
329.13	116	C20H22ClO2+
330.1314	43	C19H19FO4+
331.1269	45	C20H22[37]ClO2+
337.1339	69	C22H22ClO+
337.1784	176	C19H26FO4+
338.1859	34	C18[13]CH26FO4+
339.1325	48	C22H21ClF+
345.1598	40	C18H27ClFO3+
347.1631	17	C18H27[37]ClFO3+
355.1471	244	C22H24ClO2+
355.188	40	C22H27O4+
356.1477	95	C21[13]CH24ClO2+
357.142	104	C22H24[37]ClO2+
358.1506	20	C22H24ClFO+
373.1552	431	C22H26ClO3+
374.1602	129	C21[13]CH26ClO3+
375.1541	179	C22H26[37]ClO3+
376.1549	30	C22H26ClFO2+
391.1683	39	C22H28ClO4+
393.1596	20	C22H27ClFO3+
393.1696	22	C22H27ClFO3+
