Mass spectrum: Tepraloxydim; LC-ESI-QTOF; MS2; CE: 20 eV; R=35000; [M+H]+
Name: Tepraloxydim
Name: Tepraloxydim [ISO]
Name: 2-[N-[(E)-3-chloroprop-2-enoxy]-C-ethylcarbonimidoyl]-3-hydroxy-5-(oxan-4-yl)cyclohex-2-en-1-one
Formula: C17H24ClNO4
Exact mass: 341.1393859
SMILES: [H]\C(Cl)=C(\[H])CON=C(CC)C1=C(O)CC(CC1=O)C1CCOCC1
InChI: InChI=1S/C17H24ClNO4/c1-2-14(19-23-7-3-6-18)17-15(20)10-13(11-16(17)21)12-4-8-22-9-5-12/h3,6,12-13,20H,2,4-5,7-11H2,1H3/b6-3+,19-14?
Instrument: Bruker maXis Impact
Instrument type: LC-ESI-QTOF
Ms type: MS2
Ion mode: POSITIVE
Ionization: ESI
Fragmentation mode: CID
Collision energy: 20 eV
Resolution: 35000
Column name: Acclaim RSLC C18 2.2um, 2.1x100mm, Thermo
Retention time: 7.305 min
Base peak: 342.1466
Precursor m/z: 342.1467
Precursor type: [M+H]+
m/z	relative intensity	assigned
121.0639	14	C8H9O+
131.0843	8	C4H16ClO2+
133.1004	5	C10H13+
135.0785	12	C3H16ClO3+
136.0384	8	C7H6NO2+
136.0744	15	C2H15ClNO3+
137.0579	7	C2H14ClO4+
138.0537	9	CH13ClNO4+
138.0901	32	C2H17ClNO3+
139.0619	5	C7H9NO2+
139.0748	9	C8H11O2+
140.0695	12	CH15ClNO4+
143.0849	6	C11H11+
145.0997	12	C5H18ClO2+
146.0965	5	C10H12N+
147.0794	8	C10H11O+
148.075	14	C9H10NO+
149.0583	10	C3H14ClO4+
150.0903	7	C9H12NO+
151.0311	21	C9H8Cl+
152.0699	6	C8H10NO2+
158.0954	8	C11H12N+
159.0802	5	C11H11O+
159.1152	7	C6H20ClO2+
160.0747	23	C10H10NO+
160.1112	8	C11H14N+
161.0592	9	C10H9O2+
161.0949	14	C5H18ClO3+
162.0536	6	C3H13ClNO4+
162.0907	10	C10H12NO+
163.0745	6	C10H11O2+
164.0692	76	C9H10NO2+
165.0739	7	C8[13]CH10NO2+
165.0889	6	C4H18ClO4+
166.085	468	C9H12NO2+
167.0882	37	C8[13]CH12NO2+
169.1002	5	C13H13+
173.0947	7	C6H18ClO3+
174.0901	7	C5H17ClNO3+
176.1059	17	C5H19ClNO3+
178.0854	5	C10H12NO2+
186.0905	11	C12H12NO+
187.1104	12	C7H20ClO3+
188.1052	15	C6H19ClNO3+
190.1208	15	C6H21ClNO3+
191.1045	7	C6H20ClO4+
194.1165	5	C11H16NO2+
204.1007	23	C6H19ClNO4+
204.1367	33	C7H23ClNO3+
205.1211	19	C10H20ClNO+
206.119	9	C12H16NO2+
207.1235	6	C10H20[37]ClNO+
208.1321	37	C12H18NO2+
210.1483	10	C12H20NO2+
214.1206	8	C8H21ClNO3+
215.1054	10	C8H20ClO4+
222.1119	68	C12H16NO3+
222.1481	177	C13H20NO2+
223.116	9	C11[13]CH16NO3+
223.1321	12	C13H19O3+
223.1525	31	C12[13]CH20NO2+
224.1273	5	C12H18NO3+
224.1631	17	C13H22NO2+
232.1324	28	C14H18NO2+
233.1178	7	C11H20ClNO2+
234.148	13	C14H20NO2+
235.1327	12	C14H19O3+
250.1434	999	C14H20NO3+
251.1489	241	C13[13]CH20NO3+
252.1577	130	C14H22NO3+
253.1621	20	C13[13]CH22NO3+
288.1594	9	C17H22NO3+
342.1468	37	C17H25ClNO4+
343.1499	7	C16[13]CH25ClNO4+
344.1444	10	C17H25[37]ClNO4+
