Mass spectrum: Acetamiprid; LC-ESI-QTOF; MS2; CE: 10 eV; R=35000; [M+H]+
Name: Acetamiprid
Name: N-[(6-chloropyridin-3-yl)methyl]-N`-cyano-N-methylethanimidamide
Formula: C10H11ClN4
Exact mass: 222.0672240
SMILES: CN(CC1=CC=C(Cl)N=C1)C(C)=NC#N
InChI: InChI=1S/C10H11ClN4/c1-8(14-7-12)15(2)6-9-3-4-10(11)13-5-9/h3-5H,6H2,1-2H3
Instrument: Bruker maXis Impact
Instrument type: LC-ESI-QTOF
Ms type: MS2
Ion mode: POSITIVE
Ionization: ESI
Fragmentation mode: CID
Collision energy: 10 eV
Resolution: 35000
Column name: Acclaim RSLC C18 2.2um, 2.1x100mm, Thermo
Retention time: 5.126 min
Base peak: 223.074
Precursor m/z: 223.0745
Precursor type: [M+H]+
m/z	relative intensity	assigned
126.0096	71	C6H5ClN+
128.0065	20	C6H5[37]ClN+
181.0517	5	C10H5N4+
187.0966	9	C10H11N4+
223.0744	999	C10H12ClN4+
224.0769	116	C9[13]CH12ClN4+
225.0711	335	C10H12[37]ClN4+
