Mass spectrum: Medroxyprogesterone; LC-ESI-QTOF; MS2; CE: 30 eV; R=35000; [M+H]+
Name: Medroxyprogesterone
Name: (6S,8R,9S,10R,13S,14S,17R)-17-acetyl-17-hydroxy-6,10,13-trimethyl-2,6,7,8,9,11,12,14,15,16-decahydro-1H-cyclopenta[a]phenanthren-3-one
Formula: C22H32O3
Exact mass: 344.2351449
SMILES: [H][C@@]12CC[C@](O)(C(C)=O)[C@@]1(C)CC[C@@]1([H])[C@@]2([H])C[C@H](C)C2=CC(=O)CC[C@]12C
InChI: InChI=1S/C22H32O3/c1-13-11-16-17(20(3)8-5-15(24)12-19(13)20)6-9-21(4)18(16)7-10-22(21,25)14(2)23/h12-13,16-18,25H,5-11H2,1-4H3/t13-,16+,17-,18-,20+,21-,22-/m0/s1
Instrument: Bruker maXis Impact
Instrument type: LC-ESI-QTOF
Ms type: MS2
Ion mode: POSITIVE
Ionization: ESI
Fragmentation mode: CID
Collision energy: 30 eV
Resolution: 35000
Column name: Acclaim RSLC C18 2.2um, 2.1x100mm, Thermo
Retention time: 10.697 min
Base peak: 345.2424
Precursor m/z: 345.2424
Precursor type: [M+H]+
m/z	relative intensity	assigned
119.085	16	C9H11+
121.0652	5	C8H9O+
121.1004	12	C9H13+
123.0798	999	C8H11O+
124.0831	81	C7[13]CH11O+
131.0843	18	C10H11+
133.1002	34	C10H13+
135.0797	15	C9H11O+
135.1162	14	C10H15+
137.095	103	C9H13O+
138.0981	11	C8[13]CH13O+
143.0844	14	C11H11+
145.0998	52	C11H13+
146.1032	6	C10[13]CH13+
147.0792	7	C10H11O+
147.1156	46	C11H15+
148.1201	5	C10[13]CH15+
149.0946	14	C10H13O+
149.1316	9	C11H17+
151.111	8	C10H15O+
157.0997	22	C12H13+
159.1156	44	C12H15+
160.1191	7	C11[13]CH15+
161.0948	14	C11H13O+
161.1314	42	C12H17+
163.1103	29	C11H15O+
163.1467	9	C12H19+
169.0998	13	C13H13+
171.1156	36	C13H15+
172.1182	5	C12[13]CH15+
173.1314	62	C13H17+
174.1347	11	C12[13]CH17+
175.1107	26	C12H15O+
175.1469	50	C13H19+
176.1503	5	C12[13]CH19+
177.1262	32	C12H17O+
183.1159	14	C14H15+
185.1316	27	C14H17+
186.1351	5	C13[13]CH17+
187.1109	16	C13H15O+
187.147	31	C14H19+
189.1262	34	C13H17O+
189.1629	12	C14H21+
190.1294	6	C12[13]CH17O+
191.1417	40	C13H19O+
195.1144	8	C15H15+
197.1317	28	C15H17+
198.1368	7	C14[13]CH17+
199.1117	5	C14H15O+
199.1471	39	C15H19+
200.1513	7	C14[13]CH19+
201.1263	7	C14H17O+
201.1626	16	C15H21+
203.1421	30	C14H19O+
203.1778	8	C15H23+
204.1467	5	C13[13]CH19O+
205.1575	28	C14H21O+
206.1627	5	C13[13]CH21O+
209.1321	6	C16H17+
211.1473	27	C16H19+
212.1521	5	C15[13]CH19+
213.1271	8	C15H17O+
213.1629	19	C16H21+
214.1344	22	C15H18O+
215.1421	47	C15H19O+
215.1789	5	C16H23+
216.146	6	C14[13]CH19O+
217.158	29	C15H21O+
218.1615	5	C14[13]CH21O+
223.1473	10	C17H19+
225.1636	26	C17H21+
226.1695	7	C16[13]CH21+
227.1427	6	C16H19O+
227.1789	26	C17H23+
228.1829	5	C16[13]CH23+
229.1578	15	C16H21O+
231.173	10	C16H23O+
235.1482	5	C18H19+
237.1619	5	C18H21+
239.1417	21	C17H19O+
239.178	12	C18H23+
241.1587	8	C17H21O+
241.194	8	C18H25+
243.1742	15	C17H23O+
245.19	11	C17H25O+
251.1797	15	C19H23+
253.157	8	C18H21O+
255.1741	8	C18H23O+
257.1533	66	C17H21O2+
257.189	7	C18H25O+
258.1554	13	C16[13]CH21O2+
259.2043	5	C18H27O+
265.1925	9	C20H25+
266.2024	14	C20H26+
267.1754	5	C19H23O+
267.2107	74	C20H27+
268.2147	17	C19[13]CH27+
269.1891	21	C19H25O+
270.193	5	C18[13]CH25O+
275.1634	45	C17H23O3+
276.167	7	C16[13]CH23O3+
281.2266	5	C21H29+
283.2043	19	C20H27O+
284.2122	25	C20H28O+
285.2206	68	C20H29O+
286.2244	15	C19[13]CH29O+
291.2107	14	C22H27+
303.2327	6	C20H31O2+
309.2213	57	C22H29O+
310.2233	13	C21[13]CH29O+
327.2316	64	C22H31O2+
328.2351	15	C21[13]CH31O2+
345.2426	137	C22H33O3+
346.2463	34	C21[13]CH33O3+
