Mass spectrum: 4-Hydroxycoumarin; LC-ESI-QTOF; MS2; CE: 30 eV; R=35000; [M-H]-
Name: 4-Hydroxycoumarin
Name: 4-hydroxychromen-2-one
Formula: C9H6O3
Exact mass: 162.0316941
SMILES: OC1=CC(=O)OC2=CC=CC=C12
InChI: InChI=1S/C9H6O3/c10-7-5-9(11)12-8-4-2-1-3-6(7)8/h1-5,10H
Instrument: Bruker maXis Impact
Instrument type: LC-ESI-QTOF
Ms type: MS2
Ion mode: NEGATIVE
Ionization: ESI
Fragmentation mode: CID
Collision energy: 30 eV
Resolution: 35000
Column name: Acclaim RSLC C18 2.2um, 2.1x100mm, Thermo
Retention time: 3.942 min
Base peak: 161.0245
Precursor m/z: 161.0244
Precursor type: [M-H]-
m/z	relative intensity	assigned
117.0342	999	C8H5O-
