Mass spectrum: 17alpha-Hydroxyprogesterone; LC-ESI-QTOF; MS2; CE: 50 eV; R=35000; [M+H]+
Name: 17alpha-Hydroxyprogesterone
Name: 17alpha-Hydroxypregn-4-ene-3,20-dione
Name: 17-acetyl-17-hydroxy-10,13-dimethyl-2,6,7,8,9,11,12,14,15,16-decahydro-1H-cyclopenta[a]phenanthren-3-one
Formula: C21H30O3
Exact mass: 330.2194948
SMILES: CC(=O)C1(O)CCC2C3CCC4=CC(=O)CCC4(C)C3CCC12C
InChI: InChI=1S/C21H30O3/c1-13(22)21(24)11-8-18-16-5-4-14-12-15(23)6-9-19(14,2)17(16)7-10-20(18,21)3/h12,16-18,24H,4-11H2,1-3H3
Instrument: Bruker maXis Impact
Instrument type: LC-ESI-QTOF
Ms type: MS2
Ion mode: POSITIVE
Ionization: ESI
Fragmentation mode: CID
Collision energy: 50 eV
Resolution: 35000
Column name: Acclaim RSLC C18 2.2um, 2.1x100mm, Thermo
Retention time: 9.989 min
Base peak: 331.2267
Precursor m/z: 331.2268
Precursor type: [M+H]+
m/z	relative intensity	assigned
109.0638	31	C7H9O+
115.054	116	C9H7+
116.0621	34	C9H8+
117.0687	189	C9H9+
119.0851	423	C9H11+
121.0639	137	C8H9O+
121.1007	118	C9H13+
122.0698	56	C8H10O+
123.0797	725	C8H11O+
124.0833	58	C7[13]CH11O+
127.0527	29	C10H7+
128.0607	294	C10H8+
129.0682	457	C10H9+
130.0771	166	C10H10+
131.0845	540	C10H11+
132.0882	81	C9[13]CH11+
133.064	65	C9H9O+
133.0999	366	C10H13+
135.0797	106	C9H11O+
135.116	71	C10H15+
137.0953	125	C9H13O+
141.0688	237	C11H9+
142.0765	301	C11H10+
143.084	519	C11H11+
144.0912	188	C11H12+
145.0998	999	C11H13+
146.0697	48	C10H10O+
146.1044	92	C10[13]CH13+
147.0798	137	C10H11O+
147.1158	434	C11H15+
148.0872	99	C10H12O+
148.1191	58	C10[13]CH15+
149.0952	158	C10H13O+
149.1304	58	C11H17+
151.1099	29	C10H15O+
152.0595	27	C12H8+
153.0681	95	C12H9+
154.0753	93	C12H10+
155.0844	285	C12H11+
156.0917	338	C12H12+
157.0998	427	C12H13+
158.1075	69	C11[13]CH13+
159.0805	57	C11H11O+
159.1153	474	C12H15+
160.1212	77	C11[13]CH15+
161.0946	104	C11H13O+
161.1316	169	C12H17+
162.1024	40	C11H14O+
162.1351	34	C11[13]CH17+
163.1108	247	C11H15O+
163.1474	29	C12H19+
164.1132	36	C10[13]CH15O+
165.069	68	C13H9+
166.0747	35	C13H10+
167.0837	120	C13H11+
168.0916	103	C13H12+
169.0997	316	C13H13+
170.1061	143	C13H14+
171.0805	31	C12H11O+
171.1152	321	C13H15+
172.1233	81	C13H16+
173.0955	53	C12H13O+
173.1312	224	C13H17+
174.1067	25	C12H14O+
174.137	38	C12[13]CH17+
175.1112	103	C12H15O+
175.148	123	C13H19+
177.127	72	C12H17O+
179.085	72	C14H11+
180.0937	63	C14H12+
181.101	166	C14H13+
182.1082	127	C14H14+
183.1156	319	C14H15+
184.1212	67	C13[13]CH15+
185.1312	204	C14H17+
186.1356	36	C13[13]CH17+
187.11	40	C13H15O+
187.1468	78	C14H19+
189.1256	56	C13H17O+
191.0826	27	C15H11+
192.0899	30	C15H12+
193.1007	62	C15H13+
194.1082	57	C15H14+
195.115	149	C15H15+
196.1222	70	C15H16+
197.1312	228	C15H17+
198.1377	64	C15H18+
199.1089	33	C14H15O+
199.147	134	C15H19+
200.1545	52	C15H20+
201.1263	41	C14H17O+
206.1075	27	C16H14+
207.1171	90	C16H15+
208.1237	29	C16H16+
209.1316	115	C16H17+
210.1399	47	C16H18+
211.1468	112	C16H19+
213.1249	44	C15H17O+
213.1625	146	C16H21+
215.1436	32	C15H19O+
221.132	27	C17H17+
222.1387	26	C17H18+
223.1481	70	C17H19+
224.1533	50	C17H20+
225.1633	60	C17H21+
226.1681	25	C17H22+
227.1408	29	C16H19O+
235.1463	25	C18H19+
236.1549	28	C18H20+
237.1628	106	C18H21+
238.1661	53	C18H22+
251.1772	27	C19H23+
252.1862	32	C19H24+
253.1947	49	C19H25+
255.174	44	C18H23O+
256.1785	30	C18H24O+
