Mass spectrum: Metolachlor CGA 368208; LC-ESI-QTOF; MS2; CE: 10 eV; R=35000; [M-H]-
Name: Metolachlor CGA 368208
Name: 2-(2-ethyl-6-methylanilino)-2-oxoethanesulfonic acid
Formula: C11H15NO4S
Exact mass: 257.0721790
SMILES: CCC1=CC=CC(C)=C1NC(=O)CS(O)(=O)=O
InChI: InChI=1S/C11H15NO4S/c1-3-9-6-4-5-8(2)11(9)12-10(13)7-17(14,15)16/h4-6H,3,7H2,1-2H3,(H,12,13)(H,14,15,16)
Instrument: Bruker maXis Impact
Instrument type: LC-ESI-QTOF
Ms type: MS2
Ion mode: NEGATIVE
Ionization: ESI
Fragmentation mode: CID
Collision energy: 10 eV
Resolution: 35000
Column name: Acclaim RSLC C18 2.2um, 2.1x100mm, Thermo
Retention time: 4.859 min
Base peak: 256.0646
Precursor m/z: 256.0649
Precursor type: [M-H]-
m/z	relative intensity	assigned
120.9614	18	C2HO4S-
256.0636	999	C11H14NO4S-
257.0667	143	C10[13]CH14NO4S-
258.0639	50	C11H14NO4[34]S-
