Mass spectrum: Propylparaben; LC-ESI-QTOF; MS2; CE: 10 eV; R=35000; [M-H]-
Name: Propylparaben
Name: propyl 4-hydroxybenzoate
Formula: C10H12O3
Exact mass: 180.0786442
SMILES: CCCOC(=O)C1=CC=C(O)C=C1
InChI: InChI=1S/C10H12O3/c1-2-7-13-10(12)8-3-5-9(11)6-4-8/h3-6,11H,2,7H2,1H3
Instrument: Bruker maXis Impact
Instrument type: LC-ESI-QTOF
Ms type: MS2
Ion mode: NEGATIVE
Ionization: ESI
Fragmentation mode: CID
Collision energy: 10 eV
Resolution: 35000
Column name: Acclaim RSLC C18 2.2um, 2.1x100mm, Thermo
Retention time: 8.300 min
Base peak: 179.0713
Precursor m/z: 179.0714
Precursor type: [M-H]-
m/z	relative intensity	assigned
136.0166	157	C7H4O3-
137.0244	159	C7H5O3-
138.0263	12	C6[13]CH5O3-
179.071	999	C10H11O3-
180.0738	143	C9[13]CH11O3-
