Mass spectrum: Cyproterone; LC-ESI-QTOF; MS2; CE: 40 eV; R=35000; [M+H]+
Name: Cyproterone
Name: (1S,2S,3S,5R,11R,12S,15R,16S)-15-acetyl-9-chloro-15-hydroxy-2,16-dimethylpentacyclo[9.7.0.02,8.03,5.012,16]octadeca-7,9-dien-6-one
Formula: C22H27ClO3
Exact mass: 374.1648724
SMILES: CC(=O)[C@@]1(O)CC[C@H]2[C@@H]3C=C(Cl)C4=CC(=O)[C@@H]5C[C@@H]5[C@]4(C)[C@H]3CC[C@]12C
InChI: InChI=1S/C22H27ClO3/c1-11(24)22(26)7-5-14-12-9-18(23)17-10-19(25)13-8-16(13)21(17,3)15(12)4-6-20(14,22)2/h9-10,12-16,26H,4-8H2,1-3H3/t12-,13+,14-,15-,16-,20-,21-,22-/m0/s1
Instrument: Bruker maXis Impact
Instrument type: LC-ESI-QTOF
Ms type: MS2
Ion mode: POSITIVE
Ionization: ESI
Fragmentation mode: CID
Collision energy: 40 eV
Resolution: 35000
Column name: Acclaim RSLC C18 2.2um, 2.1x100mm, Thermo
Retention time: 10.095 min
Base peak: 375.1715
Precursor m/z: 375.1721
Precursor type: [M+H]+
m/z	relative intensity	assigned
115.0531	64	C9H7+
116.0615	24	C9H8+
117.0686	91	C3H14ClO2+
119.0469	16	C2H12ClO3+
119.0846	183	C9H11+
120.0876	23	C8[13]CH11+
121.0637	120	C8H9O+
121.1001	73	C9H13+
122.0673	14	C7[13]CH9O+
123.079	62	C2H16ClO3+
123.1156	15	C3H20ClO2+
125.0134	13	C7H6Cl+
125.0954	12	C8H13O+
127.0306	18	C7H8Cl+
127.0526	18	C4H12ClO2+
128.0609	145	C4H13ClO2+
129.0686	173	C4H14ClO2+
130.0762	60	C4H15ClO2+
131.0473	58	C3H12ClO3+
131.0847	348	C10H11+
132.0545	14	C3H13ClO3+
132.0872	48	C9[13]CH11+
133.0635	102	C3H14ClO3+
133.0997	570	C10H13+
134.103	43	C9[13]CH13+
135.079	91	C3H16ClO3+
135.1158	74	C10H15+
137.0941	37	C3H18ClO3+
139.0297	36	C8H8Cl+
141.0089	17	C7H6ClO+
141.0455	28	C8H10Cl+
141.0691	121	C11H9+
142.0759	236	C5H15ClO2+
143.0838	319	C5H16ClO2+
144.0559	35	C10H8O+
144.0891	72	C5H17ClO2+
145.0632	250	C4H14ClO3+
145.0996	403	C11H13+
146.0709	74	C4H15ClO3+
146.1051	45	C10[13]CH13+
147.0789	175	C10H11O+
147.1153	515	C11H15+
148.0831	26	C9[13]CH11O+
148.1183	50	C10[13]CH15+
149.0571	12	C9H9O2+
149.094	93	C4H18ClO3+
149.1307	12	C5H22ClO2+
151.0287	31	C9H8Cl+
151.1109	74	C10H15O+
152.0618	21	C12H8+
153.0453	33	C9H10Cl+
153.0681	80	C6H14ClO2+
154.0751	50	C6H15ClO2+
155.0241	52	C8H8ClO+
155.0587	62	C9H12Cl+
155.0841	323	C6H16ClO2+
156.0911	128	C6H17ClO2+
157.0627	116	C5H14ClO3+
157.0996	395	C12H13+
158.0706	74	C5H15ClO3+
158.1048	79	C11[13]CH13+
159.0786	229	C11H11O+
159.1147	215	C12H15+
160.0856	43	C10[13]CH11O+
160.1191	31	C11[13]CH15+
161.0944	102	C5H18ClO3+
161.1313	33	C6H22ClO2+
162.0984	25	C5H19ClO3+
163.0297	64	C10H8Cl+
163.1111	81	C11H15O+
164.0331	12	C9[13]CH8Cl+
165.0451	68	C10H10Cl+
165.0691	94	C13H9+
165.1255	18	C5H22ClO3+
166.0757	51	C7H15ClO2+
167.025	54	C9H8ClO+
167.0425	17	C10H10[37]Cl+
167.0604	26	C10H12Cl+
167.0832	160	C7H16ClO2+
168.0537	16	C6H13ClO3+
168.0912	104	C7H17ClO2+
169.0403	55	C9H10ClO+
169.0635	56	C6H14ClO3+
169.0993	292	C7H18ClO2+
170.0713	48	C6H15ClO3+
170.1061	79	C7H19ClO2+
171.0384	18	C9H10[37]ClO+
171.0784	224	C6H16ClO3+
171.1151	161	C7H20ClO2+
172.0854	65	C6H17ClO3+
172.1185	46	C7H21ClO2+
173.0939	114	C12H13O+
173.1309	58	C7H22ClO2+
174.0987	27	C11[13]CH13O+
175.0292	33	C11H8Cl+
175.0738	18	C11H11O2+
175.11	311	C12H15O+
176.036	12	C11H9Cl+
176.1138	52	C11[13]CH15O+
177.0263	13	C11H8[37]Cl+
177.0451	213	C11H10Cl+
177.1253	47	C6H22ClO3+
178.0157	13	C10H7ClO+
178.048	17	C10[13]CH10Cl+
178.077	33	C14H10+
179.0246	49	C10H8ClO+
179.0424	51	C11H10[37]Cl+
179.0607	35	C11H12Cl+
179.0839	184	C8H16ClO2+
180.0907	93	C8H17ClO2+
181.0222	21	C10H8[37]ClO+
181.0403	166	C10H10ClO+
181.0613	35	C7H14ClO3+
181.0759	25	C11H14Cl+
181.1	265	C8H18ClO2+
182.042	24	C9[13]CH10ClO+
182.0692	25	C7H15ClO3+
182.1072	94	C8H19ClO2+
183.037	66	C10H10[37]ClO+
183.0544	35	C10H12ClO+
183.0781	140	C7H16ClO3+
183.1153	286	C14H15+
184.0868	156	C7H17ClO3+
184.1187	69	C13[13]CH15+
185.0937	379	C13H13O+
185.1307	126	C14H17+
186.0993	65	C12[13]CH13O+
186.1332	24	C13[13]CH17+
187.0736	34	C12H11O2+
187.1097	102	C7H20ClO3+
187.1456	21	C8H24ClO2+
188.0804	17	C12H12O2+
188.1154	27	C7H21ClO3+
189.0451	109	C12H10Cl+
189.0875	24	C12H13O2+
189.1261	55	C7H22ClO3+
190.0739	20	C9H15ClO2+
191.0247	153	C11H8ClO+
191.0419	25	C12H10[37]Cl+
191.0609	141	C12H12Cl+
191.0838	66	C9H16ClO2+
192.0632	26	C11[13]CH12Cl+
192.0911	63	C9H17ClO2+
193.024	38	C11H8[37]ClO+
193.0386	108	C11H10ClO+
193.0586	34	C12H12[37]Cl+
193.0745	27	C12H14Cl+
193.0994	286	C9H18ClO2+
193.1198	20	C12H17O2+
194.0461	21	C10[13]CH10ClO+
194.0735	32	C14H10O+
194.1064	136	C9H19ClO2+
195.0374	27	C11H10[37]ClO+
195.0556	51	C11H12ClO+
195.0781	108	C8H16ClO3+
195.1152	374	C9H20ClO2+
196.0865	62	C8H17ClO3+
196.1215	159	C9H21ClO2+
197.0948	129	C8H18ClO3+
197.1321	148	C15H17+
198.1004	41	C8H19ClO3+
198.1362	56	C9H23ClO2+
199.1107	106	C14H15O+
199.1466	36	C9H24ClO2+
200.1165	31	C8H21ClO3+
200.1495	15	C9H25ClO2+
201.0452	53	C13H10Cl+
201.1268	72	C14H17O+
202.0778	24	C16H10+
202.129	15	C13[13]CH17O+
203.0426	15	C13H10[37]Cl+
203.0611	120	C13H12Cl+
203.0845	53	C16H11+
203.1424	21	C14H19O+
204.0309	15	C12H9ClO+
204.0641	24	C12[13]CH12Cl+
204.0912	59	C10H17ClO2+
205.0397	136	C12H10ClO+
205.0766	53	C13H14Cl+
205.0992	191	C10H18ClO2+
206.0457	41	C12H11ClO+
206.1064	118	C10H19ClO2+
207.0369	55	C12H10[37]ClO+
207.056	81	C12H12ClO+
207.0773	33	C9H16ClO3+
207.1153	361	C10H20ClO2+
208.0591	16	C11[13]CH12ClO+
208.0865	87	C9H17ClO3+
208.122	158	C10H21ClO2+
209.0543	35	C12H12[37]ClO+
209.0744	12	C9H16[37]ClO3+
209.0945	224	C9H18ClO3+
209.1309	243	C10H22ClO2+
210.1015	102	C9H19ClO3+
210.138	88	C10H23ClO2+
211.11	111	C9H20ClO3+
211.1454	79	C16H19+
212.1172	33	C9H21ClO3+
212.1528	16	C15[13]CH19+
213.126	53	C9H22ClO3+
214.1294	16	C9H23ClO3+
215.0608	58	C14H12Cl+
215.0841	22	C11H16ClO2+
215.1396	19	C9H24ClO3+
216.0914	23	C11H17ClO2+
217.0419	24	C13H10ClO+
217.0604	19	C14H12[37]Cl+
217.0762	74	C14H14Cl+
217.0994	113	C11H18ClO2+
218.0456	13	C13H11ClO+
218.0804	22	C14H15Cl+
218.1072	111	C11H19ClO2+
219.0556	520	C13H12ClO+
219.0909	58	C14H16Cl+
219.1153	262	C11H20ClO2+
220.0595	76	C12[13]CH12ClO+
220.0866	37	C10H17ClO3+
220.1225	133	C11H21ClO2+
221.0532	153	C13H12[37]ClO+
221.0696	96	C13H14ClO+
221.0932	145	C10H18ClO3+
221.1302	277	C11H22ClO2+
222.1022	104	C10H19ClO3+
222.1372	114	C11H23ClO2+
223.067	27	C13H14[37]ClO+
223.1099	292	C10H20ClO3+
223.1464	144	C11H24ClO2+
224.1163	110	C10H21ClO3+
224.1525	47	C11H25ClO2+
225.1263	126	C16H17O+
225.164	42	C17H21+
226.1344	32	C15[13]CH17O+
227.0615	29	C15H12Cl+
227.1056	41	C15H15O2+
227.1413	39	C10H24ClO3+
227.1792	32	C17H23+
228.0681	13	C15H13Cl+
229.0431	16	C14H10ClO+
229.0765	65	C15H14Cl+
229.1009	41	C18H13+
229.121	15	C15H17O2+
230.0831	14	C14[13]CH14Cl+
230.0895	20	C15H15Cl+
230.1053	53	C12H19ClO2+
231.0559	30	C14H12ClO+
231.07	14	C15H14[37]Cl+
231.0909	65	C15H16Cl+
231.1143	123	C12H20ClO2+
232.0898	33	C17H12O+
232.1226	169	C12H21ClO2+
233.0725	32	C14H14ClO+
233.0952	56	C17H13O+
233.1303	289	C12H22ClO2+
234.1033	46	C17H14O+
234.1381	128	C12H23ClO2+
235.0855	28	C14H16ClO+
235.1114	192	C17H15O+
235.1467	415	C18H19+
236.1173	179	C11H21ClO3+
236.1526	121	C17[13]CH19+
237.1267	286	C17H17O+
237.162	144	C12H26ClO2+
238.1324	103	C11H23ClO3+
238.1631	31	C11[13]CH26ClO2+
239.1011	15	C16H15O2+
239.1425	100	C17H19O+
240.1488	23	C16[13]CH19O+
241.0772	41	C16H14Cl+
241.1018	13	C19H13+
241.1552	23	C11H26ClO3+
242.1591	12	C11H27ClO3+
243.0557	16	C15H12ClO+
243.0707	18	C16H14[37]Cl+
243.093	51	C16H16Cl+
243.1167	29	C19H15+
244.0992	28	C16H17Cl+
244.1225	46	C13H21ClO2+
245.0731	62	C15H14ClO+
245.1073	59	C16H18Cl+
245.1317	147	C19H17+
245.1889	94	C17H25O+
246.0753	32	C15H15ClO+
246.1004	29	C12H19ClO3+
246.1383	131	C13H23ClO2+
246.193	19	C16[13]CH25O+
247.0687	27	C15H14[37]ClO+
247.0887	28	C15H16ClO+
247.1098	67	C12H20ClO3+
247.1456	157	C13H24ClO2+
248.1162	87	C12H21ClO3+
248.1535	75	C13H25ClO2+
249.1257	234	C12H22ClO3+
249.163	187	C19H21+
250.1334	171	C12H23ClO3+
250.1685	148	C13H27ClO2+
251.1414	310	C18H19O+
251.1793	150	C19H23+
252.1484	92	C17[13]CH19O+
252.1812	40	C18[13]CH23+
253.077	13	C17H14Cl+
253.1212	22	C17H17O2+
253.1574	112	C18H21O+
254.1673	24	C17[13]CH21O+
255.0577	13	C16H12ClO+
255.091	36	C17H16Cl+
255.1149	25	C14H20ClO2+
255.1747	15	C18H23O+
256.1006	19	C17H17Cl+
257.0708	30	C16H14ClO+
257.1081	39	C17H18Cl+
257.1328	23	C20H17+
258.0842	15	C16H15ClO+
258.1378	23	C14H23ClO2+
259.0714	21	C18H11O2+
259.0881	52	C16H16ClO+
259.1093	37	C13H20ClO3+
259.1479	100	C20H19+
260.0951	15	C16H17ClO+
260.117	27	C13H21ClO3+
260.1546	143	C14H25ClO2+
261.0973	18	C18H13O2+
261.1058	21	C13H20[37]ClO3+
261.1252	59	C13H22ClO3+
261.1626	266	C20H21+
262.1325	122	C13H23ClO3+
262.1671	66	C19[13]CH21+
263.1417	998	C19H19O+
264.1111	18	C18H16O2+
264.1464	243	C18[13]CH19O+
265.1205	15	C18H17O2+
265.1566	124	C19H21O+
266.1253	13	C18H18O2+
266.1615	35	C18[13]CH21O+
267.0924	16	C18H16Cl+
267.1383	13	C18H19O2+
267.1712	18	C13H28ClO3+
269.0732	13	C17H14ClO+
269.1064	46	C18H18Cl+
269.1276	16	C15H22ClO2+
270.1388	44	C15H23ClO2+
271.0867	50	C17H16ClO+
271.1222	28	C18H20Cl+
271.1461	19	C15H24ClO2+
272.0945	42	C17H17ClO+
272.1456	15	C17H20O3+
273.1029	65	C17H18ClO+
273.1271	49	C20H17O+
273.1623	16	C15H26ClO2+
274.1113	34	C17H19ClO+
274.1343	41	C14H23ClO3+
275.1015	21	C17H18[37]ClO+
275.117	41	C17H20ClO+
275.1429	36	C20H19O+
275.1785	71	C21H23+
276.1266	17	C14H23[37]ClO3+
276.1471	21	C14H25ClO3+
276.182	19	C20[13]CH23+
277.1571	506	C14H26ClO3+
278.1284	25	C19H18O2+
278.1642	428	C14H27ClO3+
279.1732	999	C20H23O+
280.1764	176	C19[13]CH23O+
281.1085	24	C19H18Cl+
281.1535	20	C19H21O2+
281.18	23	C18[13]C2H23O+
283.0905	15	C18H16ClO+
283.1026	16	C15H20ClO3+
283.1231	14	C19H20Cl+
285.1025	39	C18H18ClO+
285.1667	39	C22H21+
286.1042	20	C20H14O2+
286.1673	18	C16H27ClO2+
287.1192	54	C18H20ClO+
288.1258	26	C18H21ClO+
288.1487	58	C15H25ClO3+
289.1161	17	C18H20[37]ClO+
289.1328	32	C18H22ClO+
289.1533	35	C15H26ClO3+
291.1357	30	C20H19O2+
292.1466	17	C20H20O2+
293.1523	305	C20H21O2+
293.1897	57	C21H25O+
294.1567	71	C19[13]CH21O2+
294.1963	30	C21H26O+
295.1199	13	C20H20Cl+
295.1667	16	C20H23O2+
295.2022	22	C21H27O+
296.1319	21	C20H21Cl+
296.173	19	C20H24O2+
297.0991	14	C19H18ClO+
297.1387	29	C20H22Cl+
297.1883	20	C20H25O2+
298.1112	14	C19H19ClO+
299.118	143	C19H20ClO+
300.1206	41	C18[13]CH20ClO+
301.1173	47	C19H20[37]ClO+
303.1368	12	C21H19O2+
303.1729	125	C22H23O+
304.1801	31	C21[13]CH23O+
306.1602	106	C21H22O2+
307.1681	42	C21H23O2+
313.1341	197	C20H22ClO+
314.1416	165	C20H23ClO+
315.1452	94	C20H24ClO+
316.1388	53	C20H23[37]ClO+
317.1501	24	C20H24[37]ClO+
321.1834	305	C22H25O2+
322.1884	94	C21[13]CH25O2+
323.1942	12	C20[13]C2H25O2+
329.1656	15	C21H26ClO+
332.1512	23	C20H25ClO2+
339.1458	23	C22H24ClO+
339.1969	19	C22H27O3+
340.2014	13	C22H28O3+
357.1602	31	C22H26ClO2+
375.1721	48	C22H28ClO3+
377.1688	24	C22H28[37]ClO3+
