Mass spectrum: Secobarbital; LC-ESI-QTOF; MS2; CE: 20 eV; R=35000; [M+H]+
Name: Secobarbital
Name: 5-pentan-2-yl-5-prop-2-enyl-1,3-diazinane-2,4,6-trione
Formula: C12H18N2O3
Exact mass: 238.1317424
SMILES: CCCC(C)C1(CC=C)C(=O)NC(=O)NC1=O
InChI: InChI=1S/C12H18N2O3/c1-4-6-8(3)12(7-5-2)9(15)13-11(17)14-10(12)16/h5,8H,2,4,6-7H2,1,3H3,(H2,13,14,15,16,17)
Instrument: Bruker maXis Impact
Instrument type: LC-ESI-QTOF
Ms type: MS2
Ion mode: POSITIVE
Ionization: ESI
Fragmentation mode: CID
Collision energy: 20 eV
Resolution: 35000
Column name: Acclaim RSLC C18 2.2um, 2.1x100mm, Thermo
Retention time: 3.522 min
Base peak: 239.148
Precursor m/z: 239.139
Precursor type: [M+H]+
m/z	relative intensity	assigned
133.0836	999	C6H13O3+
