Mass spectrum: Clothianidin; LC-ESI-QTOF; MS2; CE: Ramp 19.8-29.7 eV; R=35000; [M+H]+
Name: Clothianidin
Name: n-[(2-Chloro-5-thiazolyl)methyl]-n`-methyl-n``-nitroguanidine
Name: 1-[(2-chloro-1,3-thiazol-5-yl)methyl]-2-methyl-3-nitroguanidine
Formula: C6H8ClN5O2S
Exact mass: 249.0087232
SMILES: CN\C(NCC1=CN=C(Cl)S1)=N/[N+]([O-])=O
InChI: InChI=1S/C6H8ClN5O2S/c1-8-6(11-12(13)14)10-3-4-2-9-5(7)15-4/h2H,3H2,1H3,(H2,8,10,11)
Instrument: Bruker maXis Impact
Instrument type: LC-ESI-QTOF
Ms type: MS2
Ion mode: POSITIVE
Ionization: ESI
Fragmentation mode: CID
Collision energy: Ramp 19.8-29.7 eV
Resolution: 35000
Column name: Acclaim RSLC C18 2.2um, 2.1x100mm, Thermo
Retention time: 4.878 min
Base peak: 250.0153
Precursor m/z: 250.016
Precursor type: [M+H]+
m/z	relative intensity	assigned
57.0442	19	C2H5N2+
70.9946	11	C3H3S+
86.0058	8	C3H4NS+
110.0723	43	C5H8N3+
111.0787	14	C5H9N3+
113.0174	106	C6H6Cl+
114.0202	7	C5[13]CH6Cl+
119.9653	8	C6OS+
127.0178	9	C6H6ClN+
131.966	705	C4H3ClNS+
132.9697	42	C3[13]CH3ClNS+
133.9633	248	C4H3[37]ClNS+
134.9663	7	C4H4ClOS+
142.0421	20	C5H8N3S+
143.05	14	C5H9N3S+
146.976	46	C4H4ClN2S+
147.9846	49	C4H5ClN2S+
148.9738	13	C4H4[37]ClN2S+
148.9888	6	C2H2ClN4O2+
149.9809	11	C4H5[37]ClN2S+
153.022	20	C5H5N4S+
159.9708	5	C4H3ClN3S+
167.0375	25	C6H7N4S+
168.0452	222	C6H8N4S+
169.0531	999	C6H9N4S+
170.0553	59	C5[13]CH9N4S+
171.0493	27	C6H9N4[34]S+
172.9798	25	C5H4ClN3S+
174.9717	58	C3H2ClN5S+
176.9679	14	C3H2[37]ClN5S+
204.0225	19	C6H9ClN4S+
206.0158	24	C6H9ClN3OS+
