Mass spectrum: Sulfapyridine; LC-ESI-QTOF; MS2; CE: 40 eV; R=35000; [M+H]+
Name: Sulfapyridine
Name: 4-amino-N-pyridin-2-ylbenzenesulfonamide
Formula: C11H11N3O2S
Exact mass: 249.0571976
SMILES: NC1=CC=C(C=C1)S(=O)(=O)NC1=NC=CC=C1
InChI: InChI=1S/C11H11N3O2S/c12-9-4-6-10(7-5-9)17(15,16)14-11-3-1-2-8-13-11/h1-8H,12H2,(H,13,14)
Instrument: Bruker maXis Impact
Instrument type: LC-ESI-QTOF
Ms type: MS2
Ion mode: POSITIVE
Ionization: ESI
Fragmentation mode: CID
Collision energy: 40 eV
Resolution: 35000
Column name: Acclaim RSLC C18 2.2um, 2.1x100mm, Thermo
Retention time: 3.709 min
Base peak: 268.1541
Precursor m/z: 250.0645
Precursor type: [M+H]+
m/z	relative intensity	assigned
108.0452	25	C6H6NO+
117.0551	18	H11N3O2S+
117.0687	9	C9H9+
118.0654	8	C8H8N+
130.063	10	CH12N3O2S+
133.0505	8	C8H7NO+
134.0585	56	C8H8NO+
140.0165	16	C6H6NOS+
140.0481	38	C2H10N3O2S+
142.0639	9	C2H12N3O2S+
143.071	23	C10H9N+
144.0801	80	C10H10N+
145.063	10	C8H7N3+
145.0814	10	C9[13]CH10N+
146.0586	23	C9H8NO+
156.0102	160	C6H6NO2S+
156.0668	18	C10H8N2+
157.0065	43	C5H5N2O2S+
157.0743	67	C10H9N2+
158.0056	13	C6H6NO2[34]S+
158.0763	8	C9[13]CH9N2+
166.0508	19	C11H6N2+
167.0589	442	C11H7N2+
168.0658	205	C11H8N2+
169.0732	41	C10[13]CH8N2+
172.0737	11	C11H10NO+
182.0685	13	C11H8N3+
183.0781	211	C11H9N3+
184.0855	999	C11H10N3+
185.0706	13	C11H9N2O+
185.0895	131	C10[13]CH10N3+
