Mass spectrum: Clothianidin; LC-ESI-QTOF; MS2; CE: 30 eV; R=35000; [M+H]+
Name: Clothianidin
Name: n-[(2-Chloro-5-thiazolyl)methyl]-n`-methyl-n``-nitroguanidine
Name: 1-[(2-chloro-1,3-thiazol-5-yl)methyl]-2-methyl-3-nitroguanidine
Formula: C6H8ClN5O2S
Exact mass: 249.0087232
SMILES: CN\C(NCC1=CN=C(Cl)S1)=N/[N+]([O-])=O
InChI: InChI=1S/C6H8ClN5O2S/c1-8-6(11-12(13)14)10-3-4-2-9-5(7)15-4/h2H,3H2,1H3,(H2,8,10,11)
Instrument: Bruker maXis Impact
Instrument type: LC-ESI-QTOF
Ms type: MS2
Ion mode: POSITIVE
Ionization: ESI
Fragmentation mode: CID
Collision energy: 30 eV
Resolution: 35000
Column name: Acclaim RSLC C18 2.2um, 2.1x100mm, Thermo
Retention time: 4.864 min
Base peak: 250.0155
Precursor m/z: 250.016
Precursor type: [M+H]+
m/z	relative intensity	assigned
110.0702	20	C5H8N3+
111.0787	10	C5H9N3+
113.0162	86	C6H6Cl+
114.0187	8	C5[13]CH6Cl+
115.0111	6	CHN5O2+
118.9572	5	C3H2ClNS+
119.9656	14	C6OS+
125.0809	14	C5H9N4+
126.0117	10	C4H4N3S+
127.0191	18	C6H6ClN+
131.9659	999	C4H3ClNS+
132.9707	69	C3[13]CH3ClNS+
133.9625	307	C4H3[37]ClNS+
134.9676	20	C4H4ClOS+
135.0651	7	C6H7N4+
138.0105	9	C5H4N3S+
141.0351	5	C5H7N3S+
142.0423	47	C5H8N3S+
143.05	12	C5H9N3S+
145.9689	6	C4H3ClN2S+
146.9761	88	C4H4ClN2S+
147.9616	9	C4H3ClNOS+
147.9841	64	C4H5ClN2S+
148.9743	27	C4H4[37]ClN2S+
149.9806	28	C4H5[37]ClN2S+
152.0263	5	C6H6N3S+
153.0217	66	C5H5N4S+
154.0263	11	C2H7ClN4O2+
167.0372	48	C6H7N4S+
168.0447	118	C6H8N4S+
169.053	848	C6H9N4S+
170.0553	66	C5[13]CH9N4S+
171.0481	31	C6H9N4[34]S+
171.9708	11	ClH3N5O2S+
172.9795	36	C5H4ClN3S+
173.9844	6	ClH5N5O2S+
174.9722	72	C5H4ClN2OS+
175.9742	5	C4[13]CH4ClN2OS+
176.9684	18	C5H4[37]ClN2OS+
204.0203	6	C6H9ClN4S+
206.0194	5	C6H9ClN3OS+
