Mass spectrum: Sotalol; LC-ESI-QTOF; MS2; CE: 30 eV; R=35000; [M+H]+
Name: Sotalol
Name: N-[4-[1-hydroxy-2-(propan-2-ylamino)ethyl]phenyl]methanesulfonamide
Formula: C12H20N2O3S
Exact mass: 272.1194635
SMILES: CC(C)NCC(O)C1=CC=C(NS(C)(=O)=O)C=C1
InChI: InChI=1S/C12H20N2O3S/c1-9(2)13-8-12(15)10-4-6-11(7-5-10)14-18(3,16)17/h4-7,9,12-15H,8H2,1-3H3
Instrument: Bruker maXis Impact
Instrument type: LC-ESI-QTOF
Ms type: MS2
Ion mode: POSITIVE
Ionization: ESI
Fragmentation mode: CID
Collision energy: 30 eV
Resolution: 35000
Column name: Acclaim RSLC C18 2.2um, 2.1x100mm, Thermo
Retention time: 2.824 min
Base peak: 273.126
Precursor m/z: 273.1267
Precursor type: [M+H]+
m/z	relative intensity	assigned
116.0482	12	C8H6N+
117.0564	20	C8H7N+
118.0639	18	C8H8N+
119.0592	8	C7H7N2+
132.0669	29	C8H8N2+
133.075	999	C8H9N2+
134.0822	392	C5H12NO3+
135.0855	30	C4[13]CH12NO3+
161.1062	7	C10H13N2+
175.1213	8	C8H17NO3+
176.1295	161	C8H18NO3+
177.1325	21	C7[13]CH18NO3+
213.0683	498	C9H13N2O2S+
214.0705	53	C8[13]CH13N2O2S+
215.0648	18	C9H13N2O2[34]S+
255.1151	50	C12H19N2O2S+
256.1182	7	C11[13]CH19N2O2S+
