Mass spectrum: Efavirenz; LC-ESI-QTOF; MS2; CE: 40 eV; R=35000; [M+H]+
Name: Efavirenz
Name: 6-Chloro-4-(cyclopropylethynyl)-4-(trifluoromethyl)-1,4-dihydro-2H-3,1-benzoxazin-2-one
Name: 6-chloro-4-(2-cyclopropylethynyl)-4-(trifluoromethyl)-1H-3,1-benzoxazin-2-one
Formula: C14H9ClF3NO2
Exact mass: 315.0273909
SMILES: FC(F)(F)C1(OC(=O)NC2=C1C=C(Cl)C=C2)C#CC1CC1
InChI: InChI=1S/C14H9ClF3NO2/c15-9-3-4-11-10(7-9)13(14(16,17)18,21-12(20)19-11)6-5-8-1-2-8/h3-4,7-8H,1-2H2,(H,19,20)
Instrument: Bruker maXis Impact
Instrument type: LC-ESI-QTOF
Ms type: MS2
Ion mode: POSITIVE
Ionization: ESI
Fragmentation mode: CID
Collision energy: 40 eV
Resolution: 35000
Column name: Acclaim RSLC C18 2.2um, 2.1x100mm, Thermo
Retention time: 10.636 min
Base peak: 491.2316
Precursor m/z: 316.0347
Precursor type: [M+H]+
m/z	relative intensity	assigned
162.0101	78	C12H2O+
164.0265	169	C9H5FO2+
166.0637	232	C12H8N+
167.0716	805	C12H9N+
168.0794	999	C12H10N+
169.0822	155	C11[13]CH10N+
170.0529	88	C12H7F+
175.017	184	C13H3O+
185.045	137	C9H6F3N+
185.0633	105	C12H8FN+
188.0249	296	C14H4O+
189.0387	361	C11H5F2N+
190.0437	121	C8H10ClFNO+
191.9997	90	C13HFO+
196.0539	97	C13H7FN+
197.063	226	C13H8FN+
198.0503	85	C10H8F2O2+
200.0076	97	C9H5ClF2N+
201.0336	288	C6H10ClF2NO2+
202.0403	277	C12H9ClN+
203.0348	106	C6H10[37]ClF2NO2+
203.0468	102	C12H10ClN+
204.0386	140	C9H9ClF2N+
209.0465	206	C13H7NO2+
212.0063	237	C13H2F2O+
214.0451	87	C13H6F2N+
215.0545	216	C13H7F2N+
216.0624	283	C13H8F2N+
217.0688	131	C13H9F2N+
222.0521	251	C12H7F3N+
224.0071	953	C11H5ClF2N+
225.0081	137	C10[13]CH5ClF2N+
225.0164	78	C10[13]CH5ClF2N+
226.0042	301	C11H5[37]ClF2N+
230.0172	106	C13H4F2O2+
232.0138	325	C12H7ClNO2+
232.0299	271	C13H9ClO2+
233.0175	79	C11[13]CH7ClNO2+
234.0095	91	C12H7[37]ClNO2+
234.0261	128	C13H9[37]ClO2+
235.0597	160	C13H8F3N+
236.0688	150	C13H9F3N+
237.016	198	C12H6ClF2N+
239.0128	82	C12H6[37]ClF2N+
244.0129	301	C11H6ClF3N+
246.0099	88	C11H6[37]ClF3N+
250.0205	193	C13H8ClFO2+
