Mass spectrum: Flurtamone; LC-ESI-QTOF; MS2; CE: 20 eV; R=35000; [M+H]+
Name: Flurtamone
Name: 5-(methylamino)-2-phenyl-4-[3-(trifluoromethyl)phenyl]furan-3-one
Formula: C18H14F3NO2
Exact mass: 333.0976633
SMILES: CNC1=C(C(=O)C(O1)C1=CC=CC=C1)C1=CC=CC(=C1)C(F)(F)F
InChI: InChI=1S/C18H14F3NO2/c1-22-17-14(12-8-5-9-13(10-12)18(19,20)21)15(23)16(24-17)11-6-3-2-4-7-11/h2-10,16,22H,1H3
Instrument: Bruker maXis Impact
Instrument type: LC-ESI-QTOF
Ms type: MS2
Ion mode: POSITIVE
Ionization: ESI
Fragmentation mode: CID
Collision energy: 20 eV
Resolution: 35000
Column name: Acclaim RSLC C18 2.2um, 2.1x100mm, Thermo
Retention time: 9.155 min
Base peak: 334.1055
Precursor m/z: 334.1049
Precursor type: [M+H]+
m/z	relative intensity	assigned
120.0802	8	C8H10N+
131.0484	8	C9H7O+
171.0406	5	C9H6F3+
199.0357	10	C13H5F2+
225.015	11	C14H3F2O+
247.0727	170	C15H10F3+
248.0758	22	C14[13]CH10F3+
249.0865	6	C15H12F3+
256.0575	15	C12H9F3NO2+
257.0766	22	C16H11F2O+
275.0677	156	C16H10F3O+
276.0707	22	C15[13]CH10F3O+
277.0832	86	C16H12F3O+
278.0864	13	C15[13]CH12F3O+
288.0988	9	C17H13F3N+
303.0626	173	C17H10F3O2+
304.0659	26	C16[13]CH10F3O2+
306.11	172	C17H15F3NO+
307.113	26	C16[13]CH15F3NO+
316.0939	14	C18H13F3NO+
334.1059	999	C18H15F3NO2+
336.1109	27	C16[13]C2H15F3NO2+
