Mass spectrum: Cortisone; LC-ESI-QTOF; MS2; CE: 50 eV; R=35000; [M+H]+
Name: Cortisone
Name: (8S,9S,10R,13S,14S,17R)-17-hydroxy-17-(2-hydroxyacetyl)-10,13-dimethyl-1,2,6,7,8,9,12,14,15,16-decahydrocyclopenta[a]phenanthrene-3,11-dione
Formula: C21H28O5
Exact mass: 360.1936740
SMILES: C[C@]12CC(=O)[C@H]3[C@@H](CCC4=CC(=O)CC[C@]34C)[C@@H]1CC[C@]2(O)C(=O)CO
InChI: InChI=1S/C21H28O5/c1-19-7-5-13(23)9-12(19)3-4-14-15-6-8-21(26,17(25)11-22)20(15,2)10-16(24)18(14)19/h9,14-15,18,22,26H,3-8,10-11H2,1-2H3/t14-,15-,18+,19-,20-,21-/m0/s1
Instrument: Bruker maXis Impact
Instrument type: LC-ESI-QTOF
Ms type: MS2
Ion mode: POSITIVE
Ionization: ESI
Fragmentation mode: CID
Collision energy: 50 eV
Resolution: 35000
Column name: Acclaim RSLC C18 2.2um, 2.1x100mm, Thermo
Retention time: 7.379 min
Base peak: 361.201
Precursor m/z: 361.201
Precursor type: [M+H]+
m/z	relative intensity	assigned
115.0531	85	C9H7+
117.0695	101	C9H9+
119.0845	156	C9H11+
120.0883	23	C8[13]CH11+
121.0642	347	C8H9O+
121.0997	52	C9H13+
122.067	26	C7[13]CH9O+
123.0793	62	C8H11O+
128.0609	139	C10H8+
129.0695	153	C10H9+
130.0764	116	C10H10+
131.0842	151	C10H11+
132.0884	21	C9[13]CH11+
133.0637	128	C9H9O+
133.0997	125	C10H13+
134.07	21	C8[13]CH9O+
135.0792	90	C9H11O+
135.1158	44	C10H15+
141.0681	84	C11H9+
142.0765	88	C11H10+
143.0843	268	C11H11+
144.0897	47	C10[13]CH11+
145.0636	71	C10H9O+
145.0998	377	C11H13+
146.0698	43	C10H10O+
146.1039	50	C10[13]CH13+
147.0792	223	C10H11O+
147.1152	23	C11H15+
148.087	373	C10H12O+
149.0925	73	C10H13O+
152.0623	21	C12H8+
153.0698	63	C12H9+
154.0751	46	C12H10+
155.0838	120	C12H11+
156.0905	59	C12H12+
157.0636	36	C11H9O+
157.0995	131	C12H13+
158.0693	31	C11H10O+
158.1065	26	C12H14+
159.0784	109	C11H11O+
159.1156	117	C12H15+
160.0868	28	C11H12O+
161.0949	148	C11H13O+
162.1012	36	C11H14O+
163.1105	999	C11H15O+
164.1132	143	C10[13]CH15O+
165.0682	49	C13H9+
166.0754	36	C13H10+
167.0824	70	C13H11+
168.0915	51	C13H12+
169.0995	187	C13H13+
170.1054	54	C13H14+
171.0786	80	C12H11O+
171.1152	97	C13H15+
173.0954	97	C12H13O+
173.1317	33	C13H17+
174.1027	100	C12H14O+
175.0735	26	C11H11O2+
175.1104	56	C12H15O+
178.0742	23	C14H10+
179.0843	79	C14H11+
180.0919	76	C14H12+
181.1003	116	C14H13+
182.0754	26	C13H10O+
182.1055	52	C14H14+
183.0797	53	C13H11O+
183.1152	141	C14H15+
184.0899	22	C13H12O+
185.0938	53	C13H13O+
185.1311	89	C14H17+
186.1399	28	C14H18+
187.1114	52	C13H15O+
188.1183	25	C13H16O+
189.1248	40	C13H17O+
190.1327	28	C13H18O+
191.0878	32	C15H11+
192.091	34	C15H12+
193.1008	62	C15H13+
194.1088	36	C15H14+
195.116	119	C15H15+
196.0883	22	C14H12O+
196.1222	45	C15H16+
197.0939	48	C14H13O+
197.1322	92	C15H17+
198.1015	31	C14H14O+
198.1341	23	C14[13]CH17+
199.1097	55	C14H15O+
199.149	66	C15H19+
200.1174	32	C14H16O+
201.1251	38	C14H17O+
205.0993	25	C16H13+
206.1088	43	C16H14+
207.1165	55	C16H15+
208.0862	29	C15H12O+
208.1199	35	C16H16+
209.0938	47	C15H13O+
209.1315	39	C16H17+
210.1044	21	C15H14O+
210.1375	30	C16H18+
211.1084	36	C15H15O+
211.1493	41	C16H19+
212.1194	34	C15H16O+
213.1261	57	C15H17O+
213.1636	24	C16H21+
217.1013	23	C17H13+
218.1067	24	C17H14+
221.1294	36	C17H17+
223.1102	54	C16H15O+
223.1478	40	C17H19+
224.1148	29	C16H16O+
225.1272	92	C16H17O+
225.1639	24	C17H21+
226.1334	68	C16H18O+
227.1447	68	C16H19O+
233.1294	23	C18H17+
235.1452	24	C18H19+
237.1279	40	C17H17O+
239.1424	40	C17H19O+
239.1778	21	C18H23+
240.1497	58	C17H20O+
241.1584	104	C17H21O+
242.1624	83	C17H22O+
243.1378	142	C16H19O2+
244.1435	23	C15[13]CH19O2+
250.1323	22	C18H18O+
251.1412	51	C18H19O+
253.156	28	C18H21O+
256.1834	37	C18H24O+
258.1604	231	C17H22O2+
259.1633	49	C16[13]CH22O2+
269.1537	108	C18H21O2+
270.1551	27	C17[13]CH21O2+
284.1762	63	C19H24O2+
