Mass spectrum: Ethylparaben; LC-ESI-QTOF; MS2; CE: 30 eV; R=35000; [M-H]-
Name: Ethylparaben
Name: ethyl 4-hydroxybenzoate
Formula: C9H10O3
Exact mass: 166.0629942
SMILES: CCOC(=O)C1=CC=C(O)C=C1
InChI: InChI=1S/C9H10O3/c1-2-12-9(11)7-3-5-8(10)6-4-7/h3-6,10H,2H2,1H3
Instrument: Bruker maXis Impact
Instrument type: LC-ESI-QTOF
Ms type: MS2
Ion mode: NEGATIVE
Ionization: ESI
Fragmentation mode: CID
Collision energy: 30 eV
Resolution: 35000
Column name: Acclaim RSLC C18 2.2um, 2.1x100mm, Thermo
Retention time: 7.067 min
Base peak: 165.0555
Precursor m/z: 165.0557
Precursor type: [M-H]-
m/z	relative intensity	assigned
137.023	999	C7H5O3-
