Mass spectrum: Cortisone; LC-ESI-QTOF; MS2; CE: 40 eV; R=35000; [M+H]+
Name: Cortisone
Name: (8S,9S,10R,13S,14S,17R)-17-hydroxy-17-(2-hydroxyacetyl)-10,13-dimethyl-1,2,6,7,8,9,12,14,15,16-decahydrocyclopenta[a]phenanthrene-3,11-dione
Formula: C21H28O5
Exact mass: 360.1936740
SMILES: C[C@]12CC(=O)[C@H]3[C@@H](CCC4=CC(=O)CC[C@]34C)[C@@H]1CC[C@]2(O)C(=O)CO
InChI: InChI=1S/C21H28O5/c1-19-7-5-13(23)9-12(19)3-4-14-15-6-8-21(26,17(25)11-22)20(15,2)10-16(24)18(14)19/h9,14-15,18,22,26H,3-8,10-11H2,1-2H3/t14-,15-,18+,19-,20-,21-/m0/s1
Instrument: Bruker maXis Impact
Instrument type: LC-ESI-QTOF
Ms type: MS2
Ion mode: POSITIVE
Ionization: ESI
Fragmentation mode: CID
Collision energy: 40 eV
Resolution: 35000
Column name: Acclaim RSLC C18 2.2um, 2.1x100mm, Thermo
Retention time: 7.343 min
Base peak: 361.2001
Precursor m/z: 361.201
Precursor type: [M+H]+
m/z	relative intensity	assigned
115.053	17	C9H7+
117.0686	28	C9H9+
119.0843	60	C9H11+
121.0633	230	C8H9O+
121.0999	41	C9H13+
122.0676	18	C7[13]CH9O+
123.0792	46	C8H11O+
128.0609	30	C10H8+
129.0686	36	C10H9+
130.0769	26	C10H10+
131.0845	74	C10H11+
132.0562	7	C9H8O+
132.0884	9	C9[13]CH11+
133.0634	37	C9H9O+
133.0999	53	C10H13+
134.0737	8	C9H10O+
135.0784	92	C9H11O+
135.1154	86	C10H15+
136.1194	7	C9[13]CH15+
137.0949	9	C9H13O+
139.0729	24	C8H11O2+
141.0682	28	C11H9+
142.0764	19	C11H10+
143.0842	89	C11H11+
145.063	31	C10H9O+
145.0996	234	C11H13+
146.1035	32	C10[13]CH13+
147.0784	123	C10H11O+
147.1154	18	C11H15+
148.0863	77	C10H12O+
149.0587	7	C9H9O2+
149.0938	40	C10H13O+
151.0741	10	C9H11O2+
154.0748	7	C12H10+
155.0839	37	C12H11+
156.0903	12	C12H12+
157.0635	17	C11H9O+
157.1	68	C12H13+
158.0709	10	C11H10O+
158.1053	10	C11[13]CH13+
159.0785	92	C11H11O+
159.1151	59	C12H15+
160.0822	9	C10[13]CH11O+
161.0589	9	C10H9O2+
161.0944	104	C11H13O+
161.1315	11	C12H17+
162.0995	17	C10[13]CH13O+
163.1102	999	C11H15O+
164.1138	118	C10[13]CH15O+
165.0683	15	C13H9+
165.0894	17	C10H13O2+
165.1146	7	C7H17O4+
166.0736	10	C13H10+
167.0831	16	C13H11+
168.0915	11	C13H12+
169.0637	9	C12H9O+
169.0986	60	C13H13+
170.1041	14	C12[13]CH13+
171.0792	49	C12H11O+
171.1154	57	C13H15+
172.0853	9	C11[13]CH11O+
172.1202	9	C12[13]CH15+
173.0947	67	C12H13O+
173.1311	20	C13H17+
174.1018	25	C12H14O+
175.0742	8	C11H11O2+
175.1101	45	C12H15O+
177.0896	10	C11H13O2+
179.0852	8	C14H11+
179.1069	9	C11H15O2+
180.0906	12	C14H12+
181.0996	47	C14H13+
182.1056	22	C14H14+
183.0785	16	C13H11O+
183.1153	81	C14H15+
184.1204	21	C14H16+
185.0943	45	C13H13O+
185.1311	37	C14H17+
187.0738	8	C12H11O2+
187.1122	36	C13H15O+
187.1463	10	C14H19+
188.117	11	C13H16O+
189.0897	26	C12H13O2+
189.1265	57	C13H17O+
192.0932	15	C15H12+
193.0986	23	C15H13+
194.1077	13	C15H14+
195.0789	13	C14H11O+
195.115	58	C15H15+
196.0855	7	C14H12O+
196.1215	18	C15H16+
197.094	23	C14H13O+
197.1316	55	C15H17+
198.1375	13	C14[13]CH17+
199.1105	49	C14H15O+
199.1469	26	C15H19+
201.0903	12	C13H13O2+
201.1255	30	C14H17O+
202.1319	13	C14H18O+
203.105	13	C13H15O2+
203.1415	14	C14H19O+
205.1001	9	C16H13+
205.1189	7	C13H17O2+
206.1056	11	C16H14+
207.1137	33	C16H15+
208.086	9	C15H12O+
208.1219	12	C16H16+
209.0958	13	C15H13O+
209.131	42	C16H17+
210.1039	13	C15H14O+
210.1387	8	C15[13]CH17+
211.1119	25	C15H15O+
211.1459	26	C16H19+
213.126	26	C15H17O+
213.1624	12	C16H21+
214.1304	7	C14[13]CH17O+
215.1039	9	C14H15O2+
215.1425	15	C15H19O+
217.1189	8	C14H17O2+
218.1062	8	C17H14+
219.1179	12	C17H15+
220.1248	8	C17H16+
221.1327	37	C17H17+
222.1367	14	C17H18+
223.1115	32	C16H15O+
223.1458	36	C17H19+
224.1175	15	C16H16O+
224.1519	11	C16[13]CH19+
225.1268	46	C16H17O+
225.163	33	C17H21+
226.1323	26	C16H18O+
227.102	10	C15H15O2+
227.1413	25	C16H19O+
229.1215	10	C15H17O2+
232.124	13	C18H16+
235.1466	19	C18H19+
236.1209	9	C17H16O+
237.1264	18	C17H17O+
237.1633	19	C18H21+
238.1294	13	C17H18O+
238.1674	8	C18H22+
239.1403	57	C17H19O+
239.1788	10	C18H23+
240.1466	20	C17H20O+
240.1818	7	C18H24+
241.1209	18	C16H17O2+
241.1574	76	C17H21O+
242.1635	51	C17H22O+
243.1377	26	C16H19O2+
243.1719	24	C17H23O+
244.1409	10	C16H20O2+
247.1466	23	C19H19+
249.1226	13	C18H17O+
249.1646	10	C19H21+
250.1345	7	C18H18O+
251.142	21	C18H19O+
252.149	17	C18H20O+
253.1573	27	C18H21O+
255.1369	9	C17H19O2+
255.1712	31	C18H23O+
256.1808	30	C18H24O+
257.1508	25	C17H21O2+
257.1867	11	C18H25O+
258.1603	119	C17H22O2+
259.1628	35	C16[13]CH22O2+
261.1585	10	C20H21+
264.149	10	C19H20O+
265.1563	39	C19H21O+
266.1621	18	C19H22O+
267.1377	10	C18H19O2+
267.1731	41	C19H23O+
268.1764	10	C18[13]CH23O+
269.1527	52	C18H21O2+
270.1561	11	C17[13]CH21O2+
271.1668	13	C18H23O2+
279.1738	12	C20H23O+
281.1544	9	C19H21O2+
283.1667	28	C19H23O2+
284.1743	84	C19H24O2+
285.1472	16	C18H21O3+
285.1813	27	C18[13]CH24O2+
295.1685	8	C20H23O2+
299.1636	28	C19H23O3+
300.1699	28	C19H24O3+
301.1772	20	C19H25O3+
313.1808	12	C20H25O3+
361.1978	11	C21H29O5+
