Mass spectrum: Methiocarb-sulfoxide phenol; LC-ESI-QTOF; MS2; CE: 30 eV; R=35000; [M-H]-
Name: Methiocarb-sulfoxide phenol
Name: Phenol, 3,5-dimethyl-4-(methylsulfinyl)-
Name: 3,5-dimethyl-4-methylsulfinylphenol
Formula: C9H12O2S
Exact mass: 184.0558006
SMILES: CC1=CC(O)=CC(C)=C1S(C)=O
InChI: InChI=1S/C9H12O2S/c1-6-4-8(10)5-7(2)9(6)12(3)11/h4-5,10H,1-3H3
Instrument: Bruker maXis Impact
Instrument type: LC-ESI-QTOF
Ms type: MS2
Ion mode: NEGATIVE
Ionization: ESI
Fragmentation mode: CID
Collision energy: 30 eV
Resolution: 35000
Column name: Acclaim RSLC C18 2.2um, 2.1x100mm, Thermo
Retention time: 4.626 min
Base peak: 168.0252
Precursor m/z: 183.0485
Precursor type: [M-H]-
m/z	relative intensity	assigned
123.0278	999	C7H7S-
135.045	260	C8H7O2-
138.0147	104	C7H6OS-
149.008	160	C8H5OS-
150.0135	153	C8H6OS-
151.0225	978	C8H7OS-
167.0191	147	C8H7O2S-
168.024	492	C8H8O2S-
