Mass spectrum: Glimepiride; LC-ESI-QTOF; MS2; CE: 20 eV; R=35000; [M+H]+
Name: Glimepiride
Name: 4-ethyl-3-methyl-N-[2-[4-[(4-methylcyclohexyl)carbamoylsulfamoyl]phenyl]ethyl]-5-oxo-2H-pyrrole-1-carboxamide
Formula: C24H34N4O5S
Exact mass: 490.2249912
SMILES: CCC1=C(C)CN(C(=O)NCCC2=CC=C(C=C2)S(=O)(=O)NC(=O)NC2CCC(C)CC2)C1=O
InChI: InChI=1S/C24H34N4O5S/c1-4-21-17(3)15-28(22(21)29)24(31)25-14-13-18-7-11-20(12-8-18)34(32,33)27-23(30)26-19-9-5-16(2)6-10-19/h7-8,11-12,16,19H,4-6,9-10,13-15H2,1-3H3,(H,25,31)(H2,26,27,30)
Instrument: Bruker maXis Impact
Instrument type: LC-ESI-QTOF
Ms type: MS2
Ion mode: POSITIVE
Ionization: ESI
Fragmentation mode: CID
Collision energy: 20 eV
Resolution: 35000
Column name: Acclaim RSLC C18 2.2um, 2.1x100mm, Thermo
Retention time: 10.643 min
Base peak: 491.2313
Precursor m/z: 491.2323
Precursor type: [M+H]+
m/z	relative intensity	assigned
124.075	6	C5H8N4+
126.0905	181	C5H10N4+
127.0934	11	C4[13]CH10N4+
167.0149	8	C6H5N3OS+
181.0959	6	CH17N4O4S+
335.1055	38	C22H13N3O+
336.1088	6	C21[13]CH13N3O+
352.1326	999	C18H24O5S+
353.1354	196	C17[13]CH24O5S+
354.1308	48	C18H24O5[34]S+
355.1336	6	C24H19O3+
369.0654	13	C17H13N4O4S+
378.1111	32	C23H14N4O2+
379.1147	6	C22[13]CH14N4O2+
