Mass spectrum: Vardenafil; LC-ESI-QTOF; MS2; CE: 40 eV; R=35000; [M+H]+
Name: Vardenafil
Name: CID 110634
Name: 2-[2-ethoxy-5-(4-ethylpiperazin-1-yl)sulfonylphenyl]-5-methyl-7-propyl-1H-imidazo[5,1-f][1,2,4]triazin-4-one
Formula: C23H32N6O4S
Exact mass: 488.2205745
SMILES: CCCC1=NC(C)=C2N1NC(=NC2=O)C1=C(OCC)C=CC(=C1)S(=O)(=O)N1CCN(CC)CC1
InChI: InChI=1S/C23H32N6O4S/c1-5-8-20-24-16(4)21-23(30)25-22(26-29(20)21)18-15-17(9-10-19(18)33-7-3)34(31,32)28-13-11-27(6-2)12-14-28/h9-10,15H,5-8,11-14H2,1-4H3,(H,25,26,30)
Instrument: Bruker maXis Impact
Instrument type: LC-ESI-QTOF
Ms type: MS2
Ion mode: POSITIVE
Ionization: ESI
Fragmentation mode: CID
Collision energy: 40 eV
Resolution: 35000
Column name: Acclaim RSLC C18 2.2um, 2.1x100mm, Thermo
Retention time: 7.725 min
Base peak: 489.2268
Precursor m/z: 489.2279
Precursor type: [M+H]+
m/z	relative intensity	assigned
151.0854	241	C6H9N5+
152.0885	19	C5[13]CH9N5+
169.096	428	C6H11N5O+
170.0991	34	C5[13]CH11N5O+
283.1184	24	C7H19N6O4S+
284.1253	32	C7H20N6O4S+
285.1327	14	C7H21N6O4S+
297.1329	15	C21H17N2+
298.1407	5	C20[13]CH17N2+
299.1134	134	C15H15N4O3+
300.1167	21	C14[13]CH15N4O3+
301.1281	9	C15H17N4O3+
311.1501	8	C17H19N4O2+
312.1575	167	C22H20N2+
313.1621	49	C21[13]CH20N2+
314.167	6	C20[13]C2H20N2+
316.1151	7	C21H18NS+
329.1591	23	C17H21N4O3+
339.1471	19	C20H21NO4+
344.1471	99	C23H22NS+
345.1505	19	C22[13]CH22NS+
376.107	88	C22H12N6O+
377.1261	50	C20H17N4O4+
378.1274	12	C19[13]CH17N4O4+
489.2278	999	C23H33N6O4S+
490.23	257	C22[13]CH33N6O4S+
491.228	60	C23H33N6O4[34]S+
