Mass spectrum: Glimepiride; LC-ESI-QTOF; MS2; CE: 50 eV; R=35000; [M+H]+
Name: Glimepiride
Name: 4-ethyl-3-methyl-N-[2-[4-[(4-methylcyclohexyl)carbamoylsulfamoyl]phenyl]ethyl]-5-oxo-2H-pyrrole-1-carboxamide
Formula: C24H34N4O5S
Exact mass: 490.2249912
SMILES: CCC1=C(C)CN(C(=O)NCCC2=CC=C(C=C2)S(=O)(=O)NC(=O)NC2CCC(C)CC2)C1=O
InChI: InChI=1S/C24H34N4O5S/c1-4-21-17(3)15-28(22(21)29)24(31)25-14-13-18-7-11-20(12-8-18)34(32,33)27-23(30)26-19-9-5-16(2)6-10-19/h7-8,11-12,16,19H,4-6,9-10,13-15H2,1-3H3,(H,25,31)(H2,26,27,30)
Instrument: Bruker maXis Impact
Instrument type: LC-ESI-QTOF
Ms type: MS2
Ion mode: POSITIVE
Ionization: ESI
Fragmentation mode: CID
Collision energy: 50 eV
Resolution: 35000
Column name: Acclaim RSLC C18 2.2um, 2.1x100mm, Thermo
Retention time: 10.605 min
Base peak: 491.2311
Precursor m/z: 491.2323
Precursor type: [M+H]+
m/z	relative intensity	assigned
118.0638	19	H12N3O2S+
121.0637	9	C6H7N3+
124.0745	39	C5H8N4+
126.0905	999	C5H10N4+
127.0936	85	C4[13]CH10N4+
128.0953	5	H18NO4S+
146.0582	8	C7H6N4+
151.0199	5	C6H5N3S+
151.0851	29	H15N4O3S+
152.0693	191	C6H8N4O+
153.0726	19	C5[13]CH8N4O+
160.0733	7	C7H12O4+
167.0145	83	C6H5N3OS+
168.0187	7	C5[13]CH5N3OS+
169.0041	43	C3H7NO5S+
169.0958	5	H17N4O4S+
170.0799	301	C6H10N4O2+
171.0824	28	C5[13]CH10N4O2+
174.0653	83	C9H8N3O+
175.0679	11	C8[13]CH8N3O+
181.0959	234	C9H13N2O2+
182.099	31	C8[13]CH13N2O2+
184.0414	12	C6H8N4OS+
192.0097	9	C7H4N4OS+
210.0206	27	C7H6N4O2S+
228.0298	5	C12H6NO4+
243.1483	7	C7H23N4O3S+
246.0427	12	C15H6N2O2+
271.1422	13	C13H21NO5+
287.1397	8	C16H19N2O3+
335.1032	11	C19H15N2O4+
394.1675	10	C18H26N4O4S+
