Mass spectrum: 4-Hydroxybenzotriazole; LC-ESI-QTOF; MS2; CE: Ramp 15.7-23.5 eV; R=35000; [M+H]+
Name: 4-Hydroxybenzotriazole
Name: Hydroxybenzotriazole
Name: 2H-benzotriazol-4-ol
Formula: C6H5N3O
Exact mass: 135.04326178
SMILES: OC1=C2N=NNC2=CC=C1
InChI: InChI=1S/C6H5N3O/c10-5-3-1-2-4-6(5)8-9-7-4/h1-3,10H,(H,7,8,9)
Instrument: Bruker maXis Impact
Instrument type: LC-ESI-QTOF
Ms type: MS2
Ion mode: POSITIVE
Ionization: ESI
Fragmentation mode: CID
Collision energy: Ramp 15.7-23.5 eV
Resolution: 35000
Column name: Acclaim RSLC C18 2.2um, 2.1x100mm, Thermo
Retention time: 4.004 min
Base peak: 136.0499
Precursor m/z: 136.0505
Precursor type: [M+H]+
m/z	relative intensity	assigned
53.0382	29	C4H5+
59.0485	9	CH5N3+
80.0496	48	C5H6N+
136.05	999	C6H6N3O+
137.053	51	C5[13]CH6N3O+
