Mass spectrum: Climbazol; LC-ESI-QTOF; MS2; CE: Ramp 21.4-32.0 eV; R=35000; [M+H]+
Name: Climbazol
Name: Climbazole
Name: 1-(4-chlorophenoxy)-1-imidazol-1-yl-3,3-dimethylbutan-2-one
Formula: C15H17ClN2O2
Exact mass: 292.0978555
SMILES: CC(C)(C)C(=O)C(OC1=CC=C(Cl)C=C1)N1C=CN=C1
InChI: InChI=1S/C15H17ClN2O2/c1-15(2,3)13(19)14(18-9-8-17-10-18)20-12-6-4-11(16)5-7-12/h4-10,14H,1-3H3
Instrument: Bruker maXis Impact
Instrument type: LC-ESI-QTOF
Ms type: MS2
Ion mode: POSITIVE
Ionization: ESI
Fragmentation mode: CID
Collision energy: Ramp 21.4-32.0 eV
Resolution: 35000
Column name: Acclaim RSLC C18 2.2um, 2.1x100mm, Thermo
Retention time: 9.795 min
Base peak: 293.1062
Precursor m/z: 293.1051
Precursor type: [M+H]+
m/z	relative intensity	assigned
55.0539	7	C4H7+
57.0695	312	C4H9+
58.0728	11	C3[13]CH9+
67.0538	9	C5H7+
69.0697	999	C5H9+
70.0754	56	C4[13]CH9+
81.0443	5	C4H5N2+
82.0522	57	C4H6N2+
85.0646	6	C5H9O+
99.0001	7	C5H4Cl+
103.0314	6	C5H8Cl+
109.0407	40	C4H10ClO+
113.0163	8	C6H6Cl+
115.0769	47	C3H14ClNO+
126.9944	50	C6H4ClO+
128.991	13	C6H4[37]ClO+
129.01	83	C6H6ClO+
131.0069	22	C6H6[37]ClO+
137.1069	14	C8H13N2+
141.0097	122	C7H6ClO+
142.0128	8	C6[13]CH6ClO+
143.0064	29	C7H6[37]ClO+
155.025	54	C8H8ClO+
156.0286	5	C7[13]CH8ClO+
157.0219	16	C8H8[37]ClO+
161.0953	9	C11H13O+
166.1091	22	C9H14N2O+
197.0722	489	C11H14ClO+
198.0758	62	C10[13]CH14ClO+
199.0695	138	C11H14[37]ClO+
200.0727	9	C9H13ClN2O+
225.0673	22	C12H14ClO2+
293.1053	104	C15H18ClN2O2+
294.1084	18	C14[13]CH18ClN2O2+
295.1029	34	C15H18[37]ClN2O2+
