Mass spectrum: Torasemide; LC-ESI-QTOF; MS2; CE: 30 eV; R=35000; [M+H]+
Name: Torasemide
Name: Torsemide
Name: 1-[4-(3-methylanilino)pyridin-3-yl]sulfonyl-3-propan-2-ylurea
Formula: C16H20N4O3S
Exact mass: 348.1256115
SMILES: CC(C)NC(=O)NS(=O)(=O)C1=CN=CC=C1NC1=CC=CC(C)=C1
InChI: InChI=1S/C16H20N4O3S/c1-11(2)18-16(21)20-24(22,23)15-10-17-8-7-14(15)19-13-6-4-5-12(3)9-13/h4-11H,1-3H3,(H,17,19)(H2,18,20,21)
Instrument: Bruker maXis Impact
Instrument type: LC-ESI-QTOF
Ms type: MS2
Ion mode: POSITIVE
Ionization: ESI
Fragmentation mode: CID
Collision energy: 30 eV
Resolution: 35000
Column name: Acclaim RSLC C18 2.2um, 2.1x100mm, Thermo
Retention time: 6.679 min
Base peak: 430.2592
Precursor m/z: 349.1329
Precursor type: [M+H]+
m/z	relative intensity	assigned
125.016	19	C5H5N2S+
168.067	22	C3H12N4O2S+
182.0828	7	C4H14N4O2S+
183.0905	126	C12H11N2+
184.0942	16	C11[13]CH11N2+
198.0773	16	C4H14N4O3S+
199.0852	15	C4H15N4O3S+
201.0475	10	C11H9N2S+
219.0581	39	C11H11N2OS+
229.0425	5	C12H9N2OS+
230.0501	23	C12H10N2OS+
247.0528	47	C12H11N2O2S+
248.0562	5	C11[13]CH11N2O2S+
264.0798	999	C12H14N3O2S+
265.0823	128	C11[13]CH14N3O2S+
266.0767	38	C12H14N3O2[34]S+
290.0589	130	C13H12N3O3S+
291.0618	18	C12[13]CH12N3O3S+
292.0582	5	C13H12N3O3[34]S+
