Mass spectrum: Prednisone; LC-ESI-QTOF; MS2; CE: 50 eV; R=35000; [M+H]+
Name: Prednisone
Name: (8S,9S,10R,13S,14S,17R)-17-hydroxy-17-(2-hydroxyacetyl)-10,13-dimethyl-6,7,8,9,12,14,15,16-octahydrocyclopenta[a]phenanthrene-3,11-dione
Formula: C21H26O5
Exact mass: 358.1780239
SMILES: [H][C@@]12CC[C@](O)(C(=O)CO)[C@@]1(C)CC(=O)[C@@]1([H])[C@@]2([H])CCC2=CC(=O)C=C[C@]12C
InChI: InChI=1S/C21H26O5/c1-19-7-5-13(23)9-12(19)3-4-14-15-6-8-21(26,17(25)11-22)20(15,2)10-16(24)18(14)19/h5,7,9,14-15,18,22,26H,3-4,6,8,10-11H2,1-2H3/t14-,15-,18+,19-,20-,21-/m0/s1
Instrument: Bruker maXis Impact
Instrument type: LC-ESI-QTOF
Ms type: MS2
Ion mode: POSITIVE
Ionization: ESI
Fragmentation mode: CID
Collision energy: 50 eV
Resolution: 35000
Column name: Acclaim RSLC C18 2.2um, 2.1x100mm, Thermo
Retention time: 7.220 min
Base peak: 359.1848
Precursor m/z: 359.1853
Precursor type: [M+H]+
m/z	relative intensity	assigned
115.054	60	C9H7+
116.061	21	C9H8+
117.0685	72	C9H9+
119.0844	118	C9H11+
121.0637	254	C8H9O+
122.069	23	C7[13]CH9O+
123.0791	22	C8H11O+
128.0609	212	C10H8+
129.0682	148	C10H9+
130.0754	37	C10H10+
131.0477	101	C9H7O+
131.0843	119	C10H11+
132.0557	211	C9H8O+
133.0627	40	C9H9O+
133.1001	52	C10H13+
135.0799	128	C9H11O+
141.0687	207	C11H9+
142.0751	51	C11H10+
143.0838	94	C11H11+
144.0558	181	C10H8O+
145.0633	391	C10H9O+
145.0998	55	C11H13+
146.0712	256	C10H10O+
147.0793	999	C10H11O+
148.0829	103	C9[13]CH11O+
152.0605	65	C12H8+
153.069	117	C12H9+
154.0741	54	C12H10+
155.0829	75	C12H11+
157.0639	107	C11H9O+
157.099	49	C12H13+
158.0715	375	C11H10O+
159.0789	472	C11H11O+
160.0834	90	C10[13]CH11O+
161.0948	165	C11H13O+
162.0965	23	C10[13]CH13O+
163.0738	47	C10H11O2+
163.1081	19	C11H15O+
165.0689	134	C13H9+
166.0739	59	C13H10+
167.0843	95	C13H11+
168.0553	45	C12H8O+
168.0912	38	C13H12+
169.063	139	C12H9O+
169.101	53	C13H13+
170.0708	60	C12H10O+
171.079	969	C12H11O+
172.0838	140	C11[13]CH11O+
173.0947	320	C12H13O+
174.0974	49	C11[13]CH13O+
178.0775	124	C14H10+
179.0839	269	C14H11+
180.0904	83	C14H12+
181.0628	185	C13H9O+
181.0994	72	C14H13+
182.0714	200	C13H10O+
183.079	161	C13H11O+
183.1147	24	C14H15+
184.0877	136	C13H12O+
185.0952	145	C13H13O+
186.1016	83	C13H14O+
187.0737	61	C12H11O2+
187.1105	74	C13H15O+
188.1154	21	C12[13]CH15O+
189.0725	32	C15H9+
189.0917	32	C12H13O2+
190.0764	69	C15H10+
191.0838	95	C15H11+
192.0918	70	C15H12+
193.0995	126	C15H13+
194.0714	125	C14H10O+
194.1066	56	C15H14+
195.0791	320	C14H11O+
195.1133	57	C15H15+
196.0853	222	C14H12O+
196.1212	20	C15H16+
197.0941	228	C14H13O+
198.1008	72	C14H14O+
199.1115	90	C14H15O+
202.0765	47	C16H10+
203.0839	75	C16H11+
204.0915	68	C16H12+
205.0627	34	C15H9O+
205.0996	78	C16H13+
206.0709	34	C15H10O+
206.1053	32	C16H14+
207.0795	161	C15H11O+
207.1163	41	C16H15+
208.0863	342	C15H12O+
209.0945	306	C15H13O+
209.1305	35	C16H17+
210.1012	227	C15H14O+
211.0748	24	C14H11O2+
211.1094	135	C15H15O+
212.0826	21	C14H12O2+
212.1187	135	C15H16O+
213.0897	23	C14H13O2+
213.125	37	C15H17O+
215.0849	47	C17H11+
215.1041	19	C14H15O2+
216.0933	34	C17H12+
217.0988	43	C17H13+
218.0718	24	C16H10O+
219.0784	76	C16H11O+
219.0826	73	C16H11O+
219.1158	64	C17H15+
220.0874	85	C16H12O+
220.1231	21	C17H16+
221.0947	312	C16H13O+
221.1309	44	C17H17+
222.1023	506	C16H14O+
223.1087	219	C16H15O+
224.0821	32	C15H12O2+
224.117	111	C16H16O+
225.0926	43	C15H13O2+
225.1255	81	C16H17O+
226.1349	25	C16H18O+
227.1419	43	C16H19O+
229.0992	61	C18H13+
230.1079	41	C18H14+
231.0801	99	C17H11O+
231.1162	40	C18H15+
232.0888	69	C17H12O+
232.1217	31	C18H16+
233.0951	161	C17H13O+
233.1317	29	C18H17+
234.1034	115	C17H14O+
235.1103	167	C17H15O+
236.1168	102	C17H16O+
237.1262	216	C17H17O+
238.0969	52	C16H14O2+
238.1337	80	C17H18O+
239.105	20	C16H15O2+
239.1416	63	C17H19O+
240.1118	22	C16H16O2+
243.1166	27	C19H15+
244.1262	20	C19H16+
245.0951	78	C18H13O+
245.1299	23	C19H17+
246.1028	112	C18H14O+
247.1102	148	C18H15O+
247.1468	30	C19H19+
248.1183	111	C18H16O+
249.1259	243	C18H17O+
250.1337	64	C17[13]CH17O+
251.1024	21	C17H15O2+
251.1425	32	C18H19O+
253.1221	28	C17H17O2+
257.0969	29	C19H13O+
259.1108	31	C19H15O+
260.1163	36	C19H16O+
261.1297	37	C19H17O+
262.1366	42	C19H18O+
263.1408	79	C19H19O+
264.1481	32	C18[13]CH19O+
265.1589	44	C19H21O+
272.1189	33	C20H16O+
275.1052	22	C19H15O2+
277.1244	24	C19H17O2+
278.1244	19	C19H18O2+
292.1436	24	C20H20O2+
