Mass spectrum: Fipronil sulfide; LC-ESI-QTOF; MS2; CE: 20 eV; R=35000; [M+H]+
Name: Fipronil sulfide
Name: 5-amino-1-[2,6-dichloro-4-(trifluoromethyl)phenyl]-4-(trifluoromethylsulfanyl)pyrazole-3-carbonitrile
Formula: C12H4Cl2F6N4S
Exact mass: 419.9437918
SMILES: NC1=C(SC(F)(F)F)C(=NN1C1=C(Cl)C=C(C=C1Cl)C(F)(F)F)C#N
InChI: InChI=1S/C12H4Cl2F6N4S/c13-5-1-4(11(15,16)17)2-6(14)8(5)24-10(22)9(7(3-21)23-24)25-12(18,19)20/h1-2H,22H2
Instrument: Bruker maXis Impact
Instrument type: LC-ESI-QTOF
Ms type: MS2
Ion mode: POSITIVE
Ionization: ESI
Fragmentation mode: CID
Collision energy: 20 eV
Resolution: 35000
Column name: Acclaim RSLC C18 2.2um, 2.1x100mm, Thermo
Retention time: 10.705 min
Base peak: 223.0631
Precursor m/z: 420.9511
Precursor type: [M+H]+
m/z	relative intensity	assigned
420.9527	999	C12H5Cl2F6N4S+
421.9574	159	C11[13]CH5Cl2F6N4S+
422.9485	555	C12H5Cl[37]ClF6N4S+
