Mass spectrum: 3,4-Dichlorophenylurea; LC-ESI-QTOF; MS2; CE: Ramp 20-30 eV; R=35000; [M+H]+
Name: 3,4-Dichlorophenylurea
Name: 1-(3,4-Dichlorophenyl)urea
Name: (3,4-dichlorophenyl)urea
Formula: C7H6Cl2N2O
Exact mass: 203.9857182
SMILES: NC(=O)NC1=CC(Cl)=C(Cl)C=C1
InChI: InChI=1S/C7H6Cl2N2O/c8-5-2-1-4(3-6(5)9)11-7(10)12/h1-3H,(H3,10,11,12)
Instrument: Bruker maXis Impact
Instrument type: LC-ESI-QTOF
Ms type: MS2
Ion mode: POSITIVE
Ionization: ESI
Fragmentation mode: CID
Collision energy: Ramp 20-30 eV
Resolution: 35000
Column name: Acclaim RSLC C18 2.2um, 2.1x100mm, Thermo
Retention time: 7.942 min
Base peak: 204.9928
Precursor m/z: 204.993
Precursor type: [M+H]+
m/z	relative intensity	assigned
127.0181	999	C6H6ClN+
128.0211	72	C5[13]CH6ClN+
129.0148	171	C6H6[37]ClN+
130.0189	12	C6H7ClO+
132.9593	14	C5H3Cl2+
159.9705	153	C6H4Cl2N+
160.973	9	C5[13]CH4Cl2N+
161.9677	52	C6H4Cl[37]ClN+
161.9868	458	C6H6Cl2N+
162.9899	33	C5[13]CH6Cl2N+
163.9838	209	C6H6Cl[37]ClN+
187.9644	49	C7H4Cl2NO+
189.9623	21	C7H4Cl[37]ClNO+
204.9928	179	C7H7Cl2N2O+
205.9975	13	C6[13]CH7Cl2N2O+
206.9902	99	C7H7Cl[37]ClN2O+
