Mass spectrum: Prednisone; LC-ESI-QTOF; MS2; CE: 10 eV; R=35000; [M+H]+
Name: Prednisone
Name: (8S,9S,10R,13S,14S,17R)-17-hydroxy-17-(2-hydroxyacetyl)-10,13-dimethyl-6,7,8,9,12,14,15,16-octahydrocyclopenta[a]phenanthrene-3,11-dione
Formula: C21H26O5
Exact mass: 358.1780239
SMILES: [H][C@@]12CC[C@](O)(C(=O)CO)[C@@]1(C)CC(=O)[C@@]1([H])[C@@]2([H])CCC2=CC(=O)C=C[C@]12C
InChI: InChI=1S/C21H26O5/c1-19-7-5-13(23)9-12(19)3-4-14-15-6-8-21(26,17(25)11-22)20(15,2)10-16(24)18(14)19/h5,7,9,14-15,18,22,26H,3-4,6,8,10-11H2,1-2H3/t14-,15-,18+,19-,20-,21-/m0/s1
Instrument: Bruker maXis Impact
Instrument type: LC-ESI-QTOF
Ms type: MS2
Ion mode: POSITIVE
Ionization: ESI
Fragmentation mode: CID
Collision energy: 10 eV
Resolution: 35000
Column name: Acclaim RSLC C18 2.2um, 2.1x100mm, Thermo
Retention time: 7.179 min
Base peak: 359.1851
Precursor m/z: 359.1853
Precursor type: [M+H]+
m/z	relative intensity	assigned
147.0794	27	C10H11O+
159.0787	7	C11H11O+
161.0961	5	C11H13O+
171.0791	9	C12H11O+
173.094	6	C12H13O+
181.0853	8	C10H13O3+
183.1003	9	C10H15O3+
187.0743	5	C12H11O2+
197.0953	8	C14H13O+
213.1275	9	C15H17O+
225.127	5	C16H17O+
237.1269	21	C17H17O+
239.106	10	C16H15O2+
253.1211	8	C17H17O2+
255.1368	6	C17H19O2+
261.1272	8	C19H17O+
263.1422	13	C19H19O+
265.1577	26	C19H21O+
266.1601	6	C18[13]CH21O+
267.1365	26	C18H19O2+
268.1417	7	C17[13]CH19O2+
277.1575	11	C20H21O+
281.1538	8	C19H21O2+
283.1684	16	C19H23O2+
287.1433	5	C21H19O+
293.1531	8	C20H21O2+
295.1678	48	C20H23O2+
296.1717	14	C19[13]CH23O2+
297.1459	6	C19H21O3+
305.1534	36	C21H21O2+
306.1572	10	C20[13]CH21O2+
311.1651	10	C20H23O3+
313.1793	83	C20H25O3+
314.183	14	C19[13]CH25O3+
323.1633	84	C21H23O3+
324.1664	15	C20[13]CH23O3+
341.1742	262	C21H25O4+
342.1765	54	C20[13]CH25O4+
343.1839	9	C19[13]C2H25O4+
359.1852	999	C21H27O5+
360.1885	209	C20[13]CH27O5+
