Mass spectrum: Triamcinolone; LC-ESI-QTOF; MS2; CE: 30 eV; R=35000; [M+H]+
Name: Triamcinolone
Name: (8S,9R,10S,11S,13S,14S,16R,17S)-9-fluoro-11,16,17-trihydroxy-17-(2-hydroxyacetyl)-10,13-dimethyl-6,7,8,11,12,14,15,16-octahydrocyclopenta[a]phenanthren-3-one
Formula: C21H27FO6
Exact mass: 394.1791668
SMILES: C[C@]12C[C@H](O)[C@@]3(F)[C@@H](CCC4=CC(=O)C=C[C@]34C)[C@@H]1C[C@@H](O)[C@]2(O)C(=O)CO
InChI: InChI=1S/C21H27FO6/c1-18-6-5-12(24)7-11(18)3-4-13-14-8-15(25)21(28,17(27)10-23)19(14,2)9-16(26)20(13,18)22/h5-7,13-16,23,25-26,28H,3-4,8-10H2,1-2H3/t13-,14-,15+,16-,18-,19-,20-,21-/m0/s1
Instrument: Bruker maXis Impact
Instrument type: LC-ESI-QTOF
Ms type: MS2
Ion mode: POSITIVE
Ionization: ESI
Fragmentation mode: CID
Collision energy: 30 eV
Resolution: 35000
Column name: Acclaim RSLC C18 2.2um, 2.1x100mm, Thermo
Retention time: 6.399 min
Base peak: 395.1854
Precursor m/z: 395.1864
Precursor type: [M+H]+
m/z	relative intensity	assigned
121.0642	153	C8H9O+
125.0584	70	C7H9O2+
128.0627	47	C7H9FO+
131.084	72	C10H11+
133.0655	70	C6H10FO2+
135.079	166	C9H11O+
137.0591	65	C8H9O2+
139.0743	45	C8H11O2+
141.0531	73	C7H9O3+
143.0855	98	C11H11+
145.0629	94	C10H9O+
147.0796	748	C10H11O+
148.0814	114	C9[13]CH11O+
149.0575	59	C9H9O2+
151.0776	55	C6H12FO3+
155.0689	94	C8H11O3+
155.0847	56	C12H11+
157.0996	90	C12H13+
158.0734	46	C8H11FO2+
159.0789	212	C11H11O+
161.0586	57	C10H9O2+
161.094	134	C11H13O+
163.0736	72	C10H11O2+
165.0706	47	C10H10FO+
167.0693	43	C9H11O3+
167.0817	57	C13H11+
169.0651	51	C12H9O+
171.0798	291	C12H11O+
171.1151	87	C13H15+
172.0823	65	C11[13]CH11O+
173.0949	169	C12H13O+
179.07	64	C10H11O3+
179.083	67	C14H11+
181.0999	94	C14H13+
183.0786	73	C13H11O+
185.0951	213	C13H13O+
186.1043	55	C13H14O+
187.0737	250	C12H11O2+
187.1118	115	C13H15O+
189.0903	63	C12H13O2+
195.0807	82	C14H11O+
195.1166	85	C15H15+
196.0853	90	C14H12O+
197.0946	249	C14H13O+
197.1312	132	C15H17+
198.1015	62	C13[13]CH13O+
199.1096	199	C14H15O+
200.1129	43	C13[13]CH15O+
205.0994	49	C16H13+
206.1086	51	C16H14+
207.1156	164	C16H15+
209.0942	160	C15H13O+
209.1339	79	C13H18FO+
210.1022	82	C15H14O+
211.1115	258	C15H15O+
212.1137	44	C14[13]CH15O+
212.1211	52	C12H17FO2+
213.0899	70	C14H13O2+
213.126	437	C15H17O+
214.1306	69	C14[13]CH17O+
215.1069	53	C14H15O2+
219.1151	69	C17H15+
221.0951	88	C16H13O+
221.132	90	C17H17+
222.1052	128	C13H15FO2+
223.1098	457	C16H15O+
224.1171	337	C16H16O+
225.1263	999	C16H17O+
226.1303	218	C15[13]CH17O+
227.1074	42	C12H16FO3+
227.1417	61	C16H19O+
233.0918	68	C17H13O+
235.1108	176	C17H15O+
235.1462	67	C18H19+
237.1266	615	C14H18FO2+
238.1324	143	C13[13]CH18FO2+
239.1059	49	C16H15O2+
239.1422	437	C17H19O+
240.1475	107	C16[13]CH19O+
241.1224	160	C16H17O2+
242.1282	60	C16H18O2+
246.1001	81	C18H14O+
247.112	68	C18H15O+
247.1456	77	C19H19+
248.1185	68	C18H16O+
249.128	194	C15H18FO2+
250.1326	97	C18H18O+
251.1441	228	C15H20FO2+
252.1462	72	C18H20O+
253.1226	140	C17H17O2+
253.1588	130	C18H21O+
255.1366	113	C17H19O2+
257.132	71	C20H17+
259.1104	51	C19H15O+
260.1193	74	C19H16O+
261.124	187	C19H17O+
262.1342	190	C19H18O+
263.1083	47	C15H16FO3+
263.143	473	C19H19O+
264.1461	135	C18[13]CH19O+
265.1219	70	C18H17O2+
265.1573	140	C19H21O+
267.1357	61	C18H19O2+
268.1425	45	C18H20O2+
275.1415	271	C20H19O+
276.1469	101	C20H20O+
277.1199	109	C19H17O2+
278.128	78	C19H18O2+
279.1372	172	C19H19O2+
280.1462	169	C19H20O2+
281.1532	148	C19H21O2+
282.1563	55	C19H22O2+
285.1269	61	C21H17O+
288.1125	74	C20H16O2+
291.1387	145	C17H20FO3+
292.1407	56	C20H20O2+
293.1513	224	C20H21O2+
294.1551	58	C19[13]CH21O2+
297.1512	58	C16H22FO4+
303.1346	160	C21H19O2+
309.1498	70	C17H22FO4+
310.1477	42	C16H22O6+
311.1642	96	C20H23O3+
321.1473	202	C21H21O3+
339.1561	150	C21H23O4+
357.1696	226	C21H25O5+
358.1717	96	C21H26O5+
