Mass spectrum: Triclocarban; LC-ESI-QTOF; MS2; CE: 30 eV; R=35000; [M+H]+
Name: Triclocarban
Name: 1-(4-chlorophenyl)-3-(3,4-dichlorophenyl)urea
Formula: C13H9Cl3N2O
Exact mass: 313.9780459
SMILES: ClC1=CC=C(NC(=O)NC2=CC(Cl)=C(Cl)C=C2)C=C1
InChI: InChI=1S/C13H9Cl3N2O/c14-8-1-3-9(4-2-8)17-13(19)18-10-5-6-11(15)12(16)7-10/h1-7H,(H2,17,18,19)
Instrument: Bruker maXis Impact
Instrument type: LC-ESI-QTOF
Ms type: MS2
Ion mode: POSITIVE
Ionization: ESI
Fragmentation mode: CID
Collision energy: 30 eV
Resolution: 35000
Column name: Acclaim RSLC C18 2.2um, 2.1x100mm, Thermo
Retention time: 11.925 min
Base peak: 279.1579
Precursor m/z: 314.9853
Precursor type: [M+H]+
m/z	relative intensity	assigned
126.0093	199	C6H5ClN+
127.0174	999	C6H6ClN+
128.0082	44	C6H5[37]ClN+
128.0246	524	C6H7ClN+
129.0141	261	C6H6[37]ClN+
130.0208	93	C6H7[37]ClN+
154.0044	82	C7H5ClNO+
159.9698	143	C9HClO+
161.9681	55	C9H[37]ClO+
161.9858	744	C6H6Cl2N+
162.9889	46	C5[13]CH6Cl2N+
163.9832	368	C6H6Cl[37]ClN+
187.9668	50	C7H4Cl2NO+
189.9599	35	C7H4Cl[37]ClNO+
314.982	41	C13H10Cl3N2O+
316.9838	31	C13H10Cl2[37]ClN2O+
