Mass spectrum: Prednisone; LC-ESI-QTOF; MS2; CE: Ramp 22.8-34.2 eV; R=35000; [M+H]+
Name: Prednisone
Name: (8S,9S,10R,13S,14S,17R)-17-hydroxy-17-(2-hydroxyacetyl)-10,13-dimethyl-6,7,8,9,12,14,15,16-octahydrocyclopenta[a]phenanthrene-3,11-dione
Formula: C21H26O5
Exact mass: 358.1780239
SMILES: [H][C@@]12CC[C@](O)(C(=O)CO)[C@@]1(C)CC(=O)[C@@]1([H])[C@@]2([H])CCC2=CC(=O)C=C[C@]12C
InChI: InChI=1S/C21H26O5/c1-19-7-5-13(23)9-12(19)3-4-14-15-6-8-21(26,17(25)11-22)20(15,2)10-16(24)18(14)19/h5,7,9,14-15,18,22,26H,3-4,6,8,10-11H2,1-2H3/t14-,15-,18+,19-,20-,21-/m0/s1
Instrument: Bruker maXis Impact
Instrument type: LC-ESI-QTOF
Ms type: MS2
Ion mode: POSITIVE
Ionization: ESI
Fragmentation mode: CID
Collision energy: Ramp 22.8-34.2 eV
Resolution: 35000
Column name: Acclaim RSLC C18 2.2um, 2.1x100mm, Thermo
Retention time: 7.197 min
Base peak: 359.1859
Precursor m/z: 359.1853
Precursor type: [M+H]+
m/z	relative intensity	assigned
55.0537	12	C4H7+
57.0332	8	C3H5O+
67.0533	12	C5H7+
69.0328	8	C4H5O+
71.0492	10	C4H7O+
79.056	8	C6H7+
81.0689	26	C6H9+
85.0652	8	C5H9O+
93.0696	26	C7H9+
95.0858	22	C7H11+
97.0647	9	C6H9O+
101.0585	12	C5H9O2+
107.0864	9	C8H11+
109.0658	13	C7H9O+
111.0824	8	C7H11O+
117.0691	28	C9H9+
119.0856	36	C9H11+
121.0639	144	C8H9O+
122.0672	13	C7[13]CH9O+
123.0791	45	C8H11O+
125.0582	13	C7H9O2+
125.0951	18	C8H13O+
128.0602	9	C10H8+
129.0697	10	C10H9+
131.0838	29	C10H11+
132.0579	11	C9H8O+
133.0634	29	C9H9O+
133.1013	8	C10H13+
135.0793	213	C9H11O+
136.0831	12	C8[13]CH11O+
137.0591	20	C8H9O2+
137.095	27	C9H13O+
139.0744	44	C8H11O2+
141.0688	15	C11H9+
143.0846	19	C11H11+
144.0571	9	C10H8O+
145.0634	46	C10H9O+
145.101	10	C11H13+
146.0698	18	C10H10O+
147.0793	999	C10H11O+
148.082	78	C9[13]CH11O+
149.0939	19	C10H13O+
151.0737	16	C9H11O2+
153.0902	67	C9H13O2+
155.0848	13	C12H11+
157.063	10	C11H9O+
157.0999	18	C12H13+
158.0713	21	C11H10O+
159.0798	354	C11H11O+
160.0842	38	C10[13]CH11O+
161.0946	162	C11H13O+
162.097	15	C10[13]CH13O+
163.0736	97	C10H11O2+
164.0783	13	C9[13]CH11O2+
165.09	21	C10H13O2+
167.069	12	C9H11O3+
167.0819	13	C13H11+
169.0631	11	C12H9O+
169.1007	10	C13H13+
171.0794	466	C12H11O+
172.0827	65	C11[13]CH11O+
173.0948	335	C12H13O+
174.0983	22	C11[13]CH13O+
175.0723	11	C11H11O2+
175.1079	17	C12H15O+
177.0905	19	C11H13O2+
179.0842	37	C14H11+
181.0629	10	C13H9O+
181.085	29	C10H13O3+
181.0977	16	C14H13+
182.0703	20	C13H10O+
183.0781	42	C13H11O+
183.0998	46	C10H15O3+
183.1154	9	C14H15+
184.0861	35	C13H12O+
185.0589	19	C12H9O2+
185.0947	91	C13H13O+
186.1025	31	C13H14O+
187.0746	143	C12H11O2+
187.11	149	C13H15O+
188.0797	19	C11[13]CH11O2+
188.1144	23	C12[13]CH15O+
189.0899	49	C12H13O2+
193.1018	17	C15H13+
195.0797	49	C14H11O+
195.1018	10	C11H15O3+
195.1157	13	C15H15+
196.0843	18	C14H12O+
197.0952	355	C14H13O+
198.0986	45	C13[13]CH13O+
199.1108	208	C14H15O+
200.1145	35	C13[13]CH15O+
201.0901	8	C13H13O2+
201.1255	22	C14H17O+
203.1052	15	C13H15O2+
204.0911	10	C16H12+
205.0983	9	C16H13+
207.0803	8	C15H11O+
207.1151	10	C16H15+
208.0876	45	C15H12O+
209.0953	158	C15H13O+
209.1339	22	C16H17+
210.1034	43	C15H14O+
211.0765	9	C14H11O2+
211.111	167	C15H15O+
212.1175	65	C15H16O+
213.0901	27	C14H13O2+
213.1262	104	C15H17O+
214.0959	8	C14H14O2+
214.1307	18	C14[13]CH17O+
215.1059	64	C14H15O2+
215.1406	8	C15H19O+
216.1085	9	C13[13]CH15O2+
217.1022	10	C17H13+
219.1173	24	C17H15+
221.0949	88	C16H13O+
221.132	10	C17H17+
222.1021	111	C16H14O+
223.1101	177	C16H15O+
224.1147	43	C15[13]CH15O+
225.0914	18	C15H13O2+
225.1261	153	C16H17O+
226.1323	48	C16H18O+
227.1045	25	C15H15O2+
227.1424	101	C16H19O+
228.1464	18	C15[13]CH19O+
229.1228	8	C15H17O2+
230.1125	8	C11H18O5+
232.0865	12	C17H12O+
232.1221	10	C18H16+
233.0943	17	C17H13O+
233.1281	12	C18H17+
234.1031	29	C17H14O+
235.1104	142	C17H15O+
235.1531	12	C11H23O5+
236.1167	35	C16[13]CH15O+
237.1264	534	C17H17O+
238.0987	20	C16H14O2+
238.1323	102	C16[13]CH17O+
239.1055	99	C16H15O2+
239.1419	176	C17H19O+
240.1106	34	C16H16O2+
240.146	36	C16[13]CH19O+
241.1196	37	C16H17O2+
241.16	8	C17H21O+
243.1152	9	C19H15+
243.1379	11	C16H19O2+
245.0959	9	C18H13O+
245.1304	13	C19H17+
246.1025	22	C18H14O+
247.1096	25	C18H15O+
247.147	16	C19H19+
248.1188	61	C18H16O+
249.1266	156	C18H17O+
250.0976	14	C17H14O2+
250.1321	48	C17[13]CH17O+
251.1057	10	C17H15O2+
251.1435	67	C18H19O+
252.1482	43	C18H20O+
253.1214	194	C17H17O2+
253.1586	80	C18H21O+
254.1242	46	C16[13]CH17O2+
254.1623	16	C17[13]CH21O+
255.137	196	C17H19O2+
255.1739	16	C18H23O+
256.1402	32	C16[13]CH19O2+
259.1117	16	C19H15O+
259.1279	10	C16H19O3+
260.1211	17	C19H16O+
261.1268	92	C19H17O+
262.1351	83	C19H18O+
263.1421	241	C19H19O+
264.1114	8	C18H16O2+
264.1492	146	C19H20O+
265.119	41	C18H17O2+
265.1589	394	C19H21O+
266.1285	10	C17[13]CH17O2+
266.1612	102	C18[13]CH21O+
267.1375	217	C18H19O2+
267.1734	50	C19H23O+
268.14	42	C17[13]CH19O2+
268.1796	12	C18[13]CH23O+
269.1527	19	C18H21O2+
272.1181	32	C20H16O+
273.1214	14	C20H17O+
275.1429	49	C20H19O+
276.1188	13	C19H16O2+
276.1458	13	C19[13]CH19O+
277.1177	18	C19H17O2+
277.1583	223	C20H21O+
278.1274	9	C19H18O2+
278.1613	28	C19[13]CH21O+
279.1383	36	C19H19O2+
279.1632	8	C18[13]C2H21O+
280.144	21	C19H20O2+
281.1532	115	C19H21O2+
282.1583	33	C18[13]CH21O2+
283.1683	50	C19H23O2+
284.17	8	C18[13]CH23O2+
287.1436	56	C21H19O+
288.1475	18	C20[13]CH19O+
290.1293	10	C20H18O2+
292.1448	37	C20H20O2+
293.1529	110	C20H21O2+
294.1564	18	C19[13]CH21O2+
295.1694	281	C20H23O2+
296.1716	52	C19[13]CH23O2+
297.1493	79	C19H21O3+
297.1794	12	C20H25O2+
298.1543	16	C18[13]CH21O3+
299.1623	12	C19H23O3+
305.1535	134	C21H21O2+
306.157	36	C20[13]CH21O2+
307.1635	8	C21H23O2+
311.1653	60	C20H23O3+
312.1664	12	C19[13]CH23O3+
313.1794	167	C20H25O3+
314.182	38	C19[13]CH25O3+
315.196	30	C20H27O3+
323.1648	212	C21H23O3+
324.168	46	C20[13]CH23O3+
325.1741	15	C21H25O3+
341.1753	170	C21H25O4+
342.1782	51	C20[13]CH25O4+
343.1901	60	C21H27O4+
344.1939	12	C20[13]CH27O4+
359.1873	37	C21H27O5+
360.1895	10	C20[13]CH27O5+
