Mass spectrum: Triamcinolone; LC-ESI-QTOF; MS2; CE: 50 eV; R=35000; [M+H]+
Name: Triamcinolone
Name: (8S,9R,10S,11S,13S,14S,16R,17S)-9-fluoro-11,16,17-trihydroxy-17-(2-hydroxyacetyl)-10,13-dimethyl-6,7,8,11,12,14,15,16-octahydrocyclopenta[a]phenanthren-3-one
Formula: C21H27FO6
Exact mass: 394.1791668
SMILES: C[C@]12C[C@H](O)[C@@]3(F)[C@@H](CCC4=CC(=O)C=C[C@]34C)[C@@H]1C[C@@H](O)[C@]2(O)C(=O)CO
InChI: InChI=1S/C21H27FO6/c1-18-6-5-12(24)7-11(18)3-4-13-14-8-15(25)21(28,17(27)10-23)19(14,2)9-16(26)20(13,18)22/h5-7,13-16,23,25-26,28H,3-4,8-10H2,1-2H3/t13-,14-,15+,16-,18-,19-,20-,21-/m0/s1
Instrument: Bruker maXis Impact
Instrument type: LC-ESI-QTOF
Ms type: MS2
Ion mode: POSITIVE
Ionization: ESI
Fragmentation mode: CID
Collision energy: 50 eV
Resolution: 35000
Column name: Acclaim RSLC C18 2.2um, 2.1x100mm, Thermo
Retention time: 6.367 min
Base peak: 395.1861
Precursor m/z: 395.1864
Precursor type: [M+H]+
m/z	relative intensity	assigned
115.0547	106	C9H7+
116.0612	65	C9H8+
117.07	101	C9H9+
119.0859	99	C9H11+
121.0638	442	C8H9O+
128.0608	323	C10H8+
129.0677	187	C10H9+
131.0469	81	C9H7O+
131.0845	215	C10H11+
132.0558	191	C9H8O+
135.0795	160	C9H11O+
141.0687	138	C11H9+
142.0762	159	C11H10+
143.085	370	C11H11+
144.0572	83	C10H8O+
145.0631	414	C10H9O+
145.1009	95	C11H13+
147.0793	999	C10H11O+
148.0824	173	C9[13]CH11O+
152.0602	119	C12H8+
153.0686	98	C12H9+
155.0586	109	C4H11O6+
155.0848	314	C12H11+
156.091	70	C11[13]CH11+
157.1011	122	C12H13+
158.0713	259	C11H10O+
159.0786	516	C11H11O+
160.0838	90	C10[13]CH11O+
161.0941	160	C11H13O+
165.0691	226	C13H9+
166.0774	105	C13H10+
167.0834	139	C13H11+
169.064	90	C12H9O+
169.0997	129	C13H13+
170.0699	124	C12H10O+
171.0781	787	C12H11O+
171.1152	90	C13H15+
172.0861	152	C11[13]CH11O+
173.094	248	C12H13O+
178.0771	220	C14H10+
179.0842	366	C14H11+
180.0918	148	C14H12+
181.0657	192	C10H10FO2+
181.0993	240	C14H13+
182.0715	179	C13H10O+
182.1064	80	C14H14+
183.0785	169	C13H11O+
183.1135	104	C14H15+
184.0856	123	C13H12O+
185.0954	209	C13H13O+
187.074	90	C12H11O2+
189.0685	103	C15H9+
190.0764	224	C15H10+
191.0833	173	C15H11+
192.0923	315	C15H12+
193.0992	237	C15H13+
194.0717	150	C14H10O+
194.1064	115	C15H14+
195.0781	485	C14H11O+
195.1143	148	C15H15+
196.0873	329	C14H12O+
197.0951	456	C14H13O+
197.1319	142	C15H17+
198.0998	148	C14H14O+
199.1116	129	C14H15O+
202.0765	75	C16H10+
203.0861	87	C13H12FO+
204.0911	201	C16H12+
205.1005	189	C16H13+
206.1077	200	C16H14+
207.0782	190	C15H11O+
207.0894	77	C8H15O6+
207.115	268	C16H15+
208.0867	478	C15H12O+
208.1206	99	C16H16+
209.095	678	C15H13O+
209.1318	86	C16H17+
210.1017	423	C15H14O+
211.11	178	C15H15O+
213.1284	206	C12H18FO2+
215.0848	151	C17H11+
216.09	110	C17H12+
217.1006	112	C17H13+
218.1063	91	C17H14+
219.0813	83	C13H12FO2+
219.1188	123	C14H16FO+
220.0859	100	C16H12O+
220.1216	95	C17H16+
221.0925	299	C16H13O+
221.1285	111	C17H17+
222.1035	485	C16H14O+
223.109	370	C16H15O+
224.1183	251	C16H16O+
225.1273	249	C16H17O+
226.0978	67	C15H14O2+
229.1007	90	C18H13+
230.1101	88	C15H15FO+
231.0789	81	C17H11O+
232.0894	139	C14H13FO2+
233.0975	188	C14H14FO2+
234.1027	203	C17H14O+
235.1103	240	C17H15O+
236.1157	111	C17H16O+
237.127	309	C14H18FO2+
238.1329	71	C13[13]CH18FO2+
242.1085	123	C19H14+
245.0953	151	C18H13O+
246.1012	164	C18H14O+
247.111	228	C18H15O+
248.1194	206	C18H16O+
249.1252	141	C18H17O+
250.1337	106	C18H18O+
257.0948	66	C19H13O+
259.1119	111	C19H15O+
260.1161	104	C19H16O+
261.0937	80	C15H14FO3+
261.126	135	C19H17O+
262.1345	192	C19H18O+
263.1403	169	C19H19O+
265.1226	67	C18H17O2+
275.1392	70	C20H19O+
