Mass spectrum: Diuron; LC-ESI-QTOF; MS2; CE: 30 eV; R=35000; [M+H]+
Name: Diuron
Name: 3-(3,4-dichlorophenyl)-1,1-dimethylurea
Formula: C9H10Cl2N2O
Exact mass: 232.0170183
SMILES: CN(C)C(=O)NC1=CC=C(Cl)C(Cl)=C1
InChI: InChI=1S/C9H10Cl2N2O/c1-13(2)9(14)12-6-3-4-7(10)8(11)5-6/h3-5H,1-2H3,(H,12,14)
Instrument: Bruker maXis Impact
Instrument type: LC-ESI-QTOF
Ms type: MS2
Ion mode: POSITIVE
Ionization: ESI
Fragmentation mode: CID
Collision energy: 30 eV
Resolution: 35000
Column name: Acclaim RSLC C18 2.2um, 2.1x100mm, Thermo
Retention time: 8.563 min
Base peak: 233.0232
Precursor m/z: 233.0243
Precursor type: [M+H]+
m/z	relative intensity	assigned
123.9939	32	C9O+
125.0006	63	C6H4ClN+
126.9989	16	C6H4[37]ClN+
132.9594	127	C5H3Cl2+
134.956	65	C5H3Cl[37]Cl+
149.0153	29	C9H6Cl+
151.0315	15	C9H8Cl+
152.9962	87	C7H4ClNO+
154.9926	25	C7H4[37]ClNO+
159.9702	999	C6H4Cl2N+
160.9735	70	C5[13]CH4Cl2N+
161.967	634	C6H4Cl[37]ClN+
162.9708	32	C6H5Cl2O+
172.965	39	C9ClNO+
174.9622	19	C9[37]ClNO+
179.994	8	C6H8Cl2NO+
187.9649	140	C7H4Cl2NO+
189.9614	103	C7H4Cl[37]ClNO+
233.0238	33	C9H11Cl2N2O+
235.0184	21	C9H11Cl[37]ClN2O+
