Mass spectrum: Genistein; LC-ESI-QTOF; MS2; CE: 50 eV; R=35000; [M+H]+
Name: Genistein
Name: 5,7-dihydroxy-3-(4-hydroxyphenyl)chromen-4-one
Formula: C15H10O5
Exact mass: 270.0528234
SMILES: OC1=CC=C(C=C1)C1=COC2=CC(O)=CC(O)=C2C1=O
InChI: InChI=1S/C15H10O5/c16-9-3-1-8(2-4-9)11-7-20-13-6-10(17)5-12(18)14(13)15(11)19/h1-7,16-18H
Instrument: Bruker maXis Impact
Instrument type: LC-ESI-QTOF
Ms type: MS2
Ion mode: POSITIVE
Ionization: ESI
Fragmentation mode: CID
Collision energy: 50 eV
Resolution: 35000
Column name: Acclaim RSLC C18 2.2um, 2.1x100mm, Thermo
Retention time: 7.684 min
Base peak: 271.0593
Precursor m/z: 271.0601
Precursor type: [M+H]+
m/z	relative intensity	assigned
115.0535	322	C9H7+
121.0276	97	C7H5O2+
127.0533	102	C10H7+
128.0618	127	C10H8+
131.049	167	C9H7O+
139.0525	146	C11H7+
141.0688	491	C11H9+
144.0552	148	C10H8O+
145.0641	196	C10H9O+
153.0171	999	C7H5O4+
154.0191	140	C6[13]CH5O4+
155.0485	168	C11H7O+
168.057	128	C12H8O+
169.0633	293	C12H9O+
183.0451	96	C12H7O2+
185.0593	107	C12H9O2+
197.0586	373	C13H9O2+
200.0455	113	C12H8O3+
215.0685	124	C13H11O3+
