Mass spectrum: Warfarin; LC-ESI-QTOF; MS2; CE: 40 eV; R=35000; [M+H]+
Name: Warfarin
Name: 4-hydroxy-3-(3-oxo-1-phenylbutyl)chromen-2-one
Formula: C19H16O4
Exact mass: 308.1048590
SMILES: CC(=O)CC(C1=CC=CC=C1)C1=C(O)C2=CC=CC=C2OC1=O
InChI: InChI=1S/C19H16O4/c1-12(20)11-15(13-7-3-2-4-8-13)17-18(21)14-9-5-6-10-16(14)23-19(17)22/h2-10,15,21H,11H2,1H3
Instrument: Bruker maXis Impact
Instrument type: LC-ESI-QTOF
Ms type: MS2
Ion mode: POSITIVE
Ionization: ESI
Fragmentation mode: CID
Collision energy: 40 eV
Resolution: 35000
Column name: Acclaim RSLC C18 2.2um, 2.1x100mm, Thermo
Retention time: 9.390 min
Base peak: 309.1121
Precursor m/z: 309.1121
Precursor type: [M+H]+
m/z	relative intensity	assigned
121.0277	328	C7H5O2+
122.0307	25	C6[13]CH5O2+
128.0606	21	C10H8+
129.0326	10	C9H5O+
129.0687	58	C10H9+
130.0394	5	C9H6O+
130.0727	6	C9[13]CH9+
131.0481	93	C9H7O+
132.0507	10	C8[13]CH7O+
145.0273	12	C9H5O2+
147.0791	54	C10H11O+
148.0826	6	C9[13]CH11O+
152.0608	17	C12H8+
153.0685	19	C12H9+
154.0756	9	C12H10+
155.0844	293	C12H11+
156.0876	36	C11[13]CH11+
157.0274	35	C10H5O2+
158.0295	5	C9[13]CH5O2+
163.0379	999	C9H7O3+
164.041	78	C8[13]CH7O3+
165.0427	7	C7[13]C2H7O3+
165.0688	44	C13H9+
166.0736	10	C12[13]CH9+
167.0843	87	C13H11+
168.0871	11	C12[13]CH11+
171.079	10	C12H11O+
173.0221	146	C10H5O3+
174.0252	16	C9[13]CH5O3+
175.0375	19	C10H7O3+
177.0688	13	C14H9+
178.0766	63	C14H10+
179.0832	34	C14H11+
180.088	6	C13[13]CH11+
181.0643	7	C13H9O+
183.0795	300	C13H11O+
184.083	36	C12[13]CH11O+
189.0535	24	C11H9O3+
191.033	532	C10H7O4+
192.0363	45	C9[13]CH7O4+
193.0366	5	C10H7O3[18]O+
195.0794	27	C14H11O+
196.0826	5	C13[13]CH11O+
205.0638	60	C15H9O+
206.0681	11	C14[13]CH9O+
207.0791	8	C15H11O+
223.0745	226	C15H11O2+
224.0773	31	C14[13]CH11O2+
233.0593	70	C16H9O2+
234.0624	18	C15[13]CH9O2+
249.0531	14	C16H9O3+
250.0614	6	C16H10O3+
251.0699	730	C16H11O3+
252.0731	111	C15[13]CH11O3+
253.0756	11	C14[13]C2H11O3+
