Mass spectrum: Genistein; LC-ESI-QTOF; MS2; CE: 30 eV; R=35000; [M+H]+
Name: Genistein
Name: 5,7-dihydroxy-3-(4-hydroxyphenyl)chromen-4-one
Formula: C15H10O5
Exact mass: 270.0528234
SMILES: OC1=CC=C(C=C1)C1=COC2=CC(O)=CC(O)=C2C1=O
InChI: InChI=1S/C15H10O5/c16-9-3-1-8(2-4-9)11-7-20-13-6-10(17)5-12(18)14(13)15(11)19/h1-7,16-18H
Instrument: Bruker maXis Impact
Instrument type: LC-ESI-QTOF
Ms type: MS2
Ion mode: POSITIVE
Ionization: ESI
Fragmentation mode: CID
Collision energy: 30 eV
Resolution: 35000
Column name: Acclaim RSLC C18 2.2um, 2.1x100mm, Thermo
Retention time: 7.710 min
Base peak: 271.0586
Precursor m/z: 271.0601
Precursor type: [M+H]+
m/z	relative intensity	assigned
121.026	17	C7H5O2+
131.0491	19	C9H7O+
135.0424	19	C8H7O2+
137.0213	21	C7H5O3+
141.0673	41	C11H9+
145.0278	65	C9H5O2+
149.0216	109	C8H5O3+
153.0166	249	C7H5O4+
154.0211	21	C6[13]CH5O4+
159.0433	43	C10H7O2+
159.0778	20	C11H11O+
165.0158	29	C8H5O4+
169.0633	49	C12H9O+
183.0268	23	C8H7O5+
183.0446	18	C12H7O2+
187.0345	21	C11H7O3+
187.0732	30	C12H11O2+
197.0596	77	C13H9O2+
201.0513	20	C12H9O3+
215.0684	361	C13H11O3+
216.0705	62	C12[13]CH11O3+
225.0539	23	C14H9O3+
243.0642	248	C14H11O4+
244.0661	59	C13[13]CH11O4+
253.0491	125	C15H9O4+
254.0508	24	C14[13]CH9O4+
271.0589	999	C15H11O5+
272.0641	208	C14[13]CH11O5+
