Mass spectrum: Perfluorodecanoic acid; LC-ESI-QTOF; MS2; CE: 10 eV; R=35000; [M-H]-
Name: Perfluorodecanoic acid
Name: 2,2,3,3,4,4,5,5,6,6,7,7,8,8,9,9,10,10,10-nonadecafluorodecanoic acid
Formula: C10HF19O2
Exact mass: 513.9673155
SMILES: OC(=O)C(F)(F)C(F)(F)C(F)(F)C(F)(F)C(F)(F)C(F)(F)C(F)(F)C(F)(F)C(F)(F)F
InChI: InChI=1S/C10HF19O2/c11-2(12,1(30)31)3(13,14)4(15,16)5(17,18)6(19,20)7(21,22)8(23,24)9(25,26)10(27,28)29/h(H,30,31)
Instrument: Bruker maXis Impact
Instrument type: LC-ESI-QTOF
Ms type: MS2
Ion mode: NEGATIVE
Ionization: ESI
Fragmentation mode: CID
Collision energy: 10 eV
Resolution: 35000
Column name: Acclaim RSLC C18 2.2um, 2.1x100mm, Thermo
Retention time: 11.083 min
Base peak: 468.9705
Precursor m/z: 512.96
Precursor type: [M-H]-
m/z	relative intensity	assigned
168.9899	23	C3F7-
218.9856	78	C4F9-
268.9822	76	C5F11-
318.9772	14	C6F13-
468.9702	999	C9F19-
469.9733	67	C8[13]CF19-
512.9583	46	C10F19O2-
