Mass spectrum: 4-(Dimethylamino)pyridine; LC-ESI-QTOF; MS2; CE: Ramp 15.2-22.8 eV; R=35000; [M+H]+
Name: 4-(Dimethylamino)pyridine
Name: 4-Dimethylaminopyridine
Name: N,N-dimethylpyridin-4-amine
Formula: C7H10N2
Exact mass: 122.0843983
SMILES: CN(C)C1=CC=NC=C1
InChI: InChI=1S/C7H10N2/c1-9(2)7-3-5-8-6-4-7/h3-6H,1-2H3
Instrument: Bruker maXis Impact
Instrument type: LC-ESI-QTOF
Ms type: MS2
Ion mode: POSITIVE
Ionization: ESI
Fragmentation mode: CID
Collision energy: Ramp 15.2-22.8 eV
Resolution: 35000
Column name: Acclaim RSLC C18 2.2um, 2.1x100mm, Thermo
Retention time: 2.373 min
Base peak: 123.0911
Precursor m/z: 123.0917
Precursor type: [M+H]+
m/z	relative intensity	assigned
79.0418	11	C5H5N+
80.0493	21	C5H6N+
107.0607	38	C6H7N2+
108.0684	21	C6H8N2+
123.0912	999	C7H11N2+
124.0946	95	C6[13]CH11N2+
