Mass spectrum: Prednisone; LC-ESI-QTOF; MS2; CE: 30 eV; R=35000; [M+H]+
Name: Prednisone
Name: (8S,9S,10R,13S,14S,17R)-17-hydroxy-17-(2-hydroxyacetyl)-10,13-dimethyl-6,7,8,9,12,14,15,16-octahydrocyclopenta[a]phenanthrene-3,11-dione
Formula: C21H26O5
Exact mass: 358.1780239
SMILES: [H][C@@]12CC[C@](O)(C(=O)CO)[C@@]1(C)CC(=O)[C@@]1([H])[C@@]2([H])CCC2=CC(=O)C=C[C@]12C
InChI: InChI=1S/C21H26O5/c1-19-7-5-13(23)9-12(19)3-4-14-15-6-8-21(26,17(25)11-22)20(15,2)10-16(24)18(14)19/h5,7,9,14-15,18,22,26H,3-4,6,8,10-11H2,1-2H3/t14-,15-,18+,19-,20-,21-/m0/s1
Instrument: Bruker maXis Impact
Instrument type: LC-ESI-QTOF
Ms type: MS2
Ion mode: POSITIVE
Ionization: ESI
Fragmentation mode: CID
Collision energy: 30 eV
Resolution: 35000
Column name: Acclaim RSLC C18 2.2um, 2.1x100mm, Thermo
Retention time: 7.202 min
Base peak: 359.1852
Precursor m/z: 359.1853
Precursor type: [M+H]+
m/z	relative intensity	assigned
115.0542	24	C9H7+
117.0707	24	C9H9+
119.0844	39	C9H11+
121.0639	159	C8H9O+
122.0688	12	C7[13]CH9O+
123.0797	49	C8H11O+
125.0574	13	C7H9O2+
125.0957	22	C8H13O+
128.0618	13	C10H8+
129.0689	16	C10H9+
131.0477	17	C9H7O+
131.0844	58	C10H11+
132.055	14	C9H8O+
133.064	36	C9H9O+
133.1015	15	C10H13+
135.0792	222	C9H11O+
136.0831	29	C8[13]CH11O+
137.0582	36	C8H9O2+
137.0956	38	C9H13O+
139.074	53	C8H11O2+
141.0688	34	C11H9+
143.0855	28	C11H11+
145.0637	95	C10H9O+
145.0993	27	C11H13+
146.0707	31	C10H10O+
147.0791	999	C10H11O+
148.0822	87	C9[13]CH11O+
149.058	10	C9H9O2+
149.0959	26	C10H13O+
151.0739	33	C9H11O2+
153.0888	60	C9H13O2+
155.0839	26	C12H11+
157.0643	15	C11H9O+
157.0985	22	C12H13+
158.0711	55	C11H10O+
159.0794	439	C11H11O+
160.0844	62	C10[13]CH11O+
161.057	13	C10H9O2+
161.0951	212	C11H13O+
162.098	19	C10[13]CH13O+
163.075	112	C10H11O2+
163.1095	14	C11H15O+
164.0764	14	C9[13]CH11O2+
165.0896	17	C10H13O2+
167.0849	17	C13H11+
169.0633	15	C12H9O+
169.0999	38	C13H13+
171.0791	782	C12H11O+
172.0835	100	C11[13]CH11O+
173.0949	402	C12H13O+
174.0984	44	C11[13]CH13O+
175.074	27	C11H11O2+
175.1105	35	C12H15O+
177.0897	28	C11H13O2+
179.0842	45	C14H11+
180.0929	11	C13[13]CH11+
181.0844	23	C10H13O3+
181.1003	39	C14H13+
182.073	20	C13H10O+
183.0794	78	C13H11O+
183.1012	34	C10H15O3+
183.1149	13	C14H15+
184.0874	21	C13H12O+
185.0576	34	C12H9O2+
185.0954	138	C13H13O+
186.1013	52	C13H14O+
187.0739	196	C12H11O2+
187.1098	221	C13H15O+
188.0785	25	C11[13]CH11O2+
188.1137	30	C12[13]CH15O+
189.0911	71	C12H13O2+
190.0905	13	C11[13]CH13O2+
192.0928	12	C15H12+
193.0997	29	C15H13+
195.0792	62	C14H11O+
195.1006	10	C11H15O3+
195.1155	21	C15H15+
196.0857	57	C14H12O+
197.0949	394	C14H13O+
198.0985	68	C13[13]CH13O+
199.073	14	C13H11O2+
199.1109	268	C14H15O+
200.114	31	C13[13]CH15O+
201.0901	26	C13H13O2+
201.1259	24	C14H17O+
202.0956	11	C13H14O2+
203.1045	22	C13H15O2+
204.0944	14	C16H12+
205.1013	20	C16H13+
207.0813	14	C15H11O+
207.1133	28	C16H15+
208.0864	80	C15H12O+
209.0947	183	C15H13O+
209.1308	30	C16H17+
210.102	76	C15H14O+
210.1379	10	C16H18+
211.0743	14	C14H11O2+
211.1117	195	C15H15O+
212.1167	104	C15H16O+
213.0901	34	C14H13O2+
213.1262	128	C15H17O+
214.0984	11	C14H14O2+
214.1276	18	C14[13]CH17O+
215.1066	81	C14H15O2+
215.1399	11	C15H19O+
217.0994	17	C17H13+
219.1174	24	C17H15+
220.0906	12	C16H12O+
221.0949	141	C16H13O+
221.1322	17	C17H17+
222.1031	182	C16H14O+
223.1107	254	C16H15O+
224.1174	71	C15[13]CH15O+
225.0893	29	C15H13O2+
225.127	237	C16H17O+
226.0954	17	C15H14O2+
226.1302	54	C15[13]CH17O+
227.1066	32	C15H15O2+
227.142	217	C16H19O+
228.1457	25	C15[13]CH19O+
230.1049	10	C18H14+
233.0958	21	C17H13O+
233.1339	27	C18H17+
234.1022	44	C17H14O+
235.1108	202	C17H15O+
235.1481	17	C18H19+
236.1168	62	C17H16O+
237.1262	744	C17H17O+
238.096	18	C16H14O2+
238.131	168	C16[13]CH17O+
239.1047	92	C16H15O2+
239.1421	294	C17H19O+
240.1127	29	C16H16O2+
240.1467	74	C16[13]CH19O+
241.1211	40	C16H17O2+
241.1596	17	C17H21O+
242.1289	24	C16H18O2+
243.116	14	C19H15+
243.128	13	C12H19O5+
245.0971	20	C18H13O+
245.1337	20	C19H17+
246.1027	51	C18H14O+
247.1118	48	C18H15O+
247.1468	40	C19H19+
248.1181	95	C18H16O+
249.0901	13	C17H13O2+
249.1262	230	C18H17O+
249.1628	12	C19H21+
250.1326	59	C17[13]CH17O+
251.1415	104	C18H19O+
252.15	39	C18H20O+
253.1219	169	C17H17O2+
253.157	110	C18H21O+
254.1254	37	C16[13]CH17O2+
254.1612	32	C17[13]CH21O+
255.1367	235	C17H19O2+
256.1402	29	C16[13]CH19O2+
257.0944	14	C19H13O+
258.1043	20	C19H14O+
259.1115	17	C19H15O+
260.1203	23	C19H16O+
261.1264	114	C19H17O+
262.1337	157	C19H18O+
263.1022	21	C18H15O2+
263.1419	313	C19H19O+
264.1144	20	C18H16O2+
264.1492	214	C19H20O+
265.1236	44	C18H17O2+
265.1575	495	C19H21O+
266.1304	15	C18H18O2+
266.1615	100	C18[13]CH21O+
267.137	202	C18H19O2+
267.1746	77	C19H23O+
268.1401	44	C17[13]CH19O2+
268.1755	17	C18[13]CH23O+
269.1281	13	C21H17+
269.1526	18	C18H21O2+
271.1316	11	C17H19O3+
272.1174	59	C20H16O+
274.1323	10	C20H18O+
275.1434	75	C20H19O+
276.1177	12	C19H16O2+
276.1469	33	C20H20O+
277.1241	23	C19H17O2+
277.1578	226	C20H21O+
278.1263	12	C19H18O2+
278.163	49	C19[13]CH21O+
279.1387	38	C19H19O2+
279.1746	13	C20H23O+
280.143	28	C19H20O2+
281.1518	109	C19H21O2+
282.1576	50	C19H22O2+
283.1679	53	C19H23O2+
287.1408	56	C21H19O+
288.1456	17	C20[13]CH19O+
290.1301	29	C20H18O2+
292.1468	60	C20H20O2+
293.1534	101	C20H21O2+
294.1559	33	C19[13]CH21O2+
295.1361	11	C19H19O3+
295.1691	186	C20H23O2+
296.1717	31	C19[13]CH23O2+
297.1489	45	C19H21O3+
298.153	14	C18[13]CH21O3+
299.1641	25	C19H23O3+
305.1525	94	C21H21O2+
306.1573	24	C20[13]CH21O2+
308.1392	13	C20H20O3+
311.1637	29	C20H23O3+
313.178	76	C20H25O3+
314.1836	17	C19[13]CH25O3+
315.1955	27	C20H27O3+
323.163	91	C21H23O3+
324.1646	24	C20[13]CH23O3+
325.1774	14	C21H25O3+
341.1748	55	C21H25O4+
342.1789	18	C21H26O4+
343.1898	61	C21H27O4+
