Mass spectrum: Lauric isopropanolamide; LC-ESI-QTOF; MS2; CE: 10 eV; R=35000; [M+H]+
Name: Lauric isopropanolamide
Name: N-(2-hydroxypropyl)dodecanamide
Formula: C15H31NO2
Exact mass: 257.2354792
SMILES: CCCCCCCCCCCC(=O)NCC(C)O
InChI: InChI=1S/C15H31NO2/c1-3-4-5-6-7-8-9-10-11-12-15(18)16-13-14(2)17/h14,17H,3-13H2,1-2H3,(H,16,18)
Instrument: Bruker maXis Impact
Instrument type: LC-ESI-QTOF
Ms type: MS2
Ion mode: POSITIVE
Ionization: ESI
Fragmentation mode: CID
Collision energy: 10 eV
Resolution: 35000
Column name: Acclaim RSLC C18 2.2um, 2.1x100mm, Thermo
Retention time: 12.054 min
Base peak: 332.3317
Precursor m/z: 258.2428
Precursor type: [M+H]+
m/z	relative intensity	assigned
183.1728	5	C12H23O+
240.2316	63	C15H30NO+
241.2153	18	C15H29O2+
241.2344	8	C14[13]CH30NO+
258.2427	999	C15H32NO2+
259.2459	114	C14[13]CH32NO2+
260.2483	9	C13[13]C2H32NO2+
