Mass spectrum: 5-Methyl-1H-benzotriazole; LC-ESI-QTOF; MS2; CE: Ramp 17.3-25.9 eV; R=35000; [M-H]-
Name: 5-Methyl-1H-benzotriazole
Name: 5-methyl-2H-benzotriazole
Formula: C7H7N3
Exact mass: 133.0639972
SMILES: CC1=CC=C2NN=NC2=C1
InChI: InChI=1S/C7H7N3/c1-5-2-3-6-7(4-5)9-10-8-6/h2-4H,1H3,(H,8,9,10)
Instrument: Bruker maXis Impact
Instrument type: LC-ESI-QTOF
Ms type: MS2
Ion mode: NEGATIVE
Ionization: ESI
Fragmentation mode: CID
Collision energy: Ramp 17.3-25.9 eV
Resolution: 35000
Column name: Acclaim RSLC C18 2.2um, 2.1x100mm, Thermo
Retention time: 5.761 min
Base peak: 59.0129
Precursor m/z: 132.0567
Precursor type: [M-H]-
m/z	relative intensity	assigned
64.0181	177	C4H2N-
104.0485	52	C7H6N-
132.057	999	C7H6N3-
133.0597	63	C6[13]CH6N3-
