Mass spectrum: Tris(2-chloroethyl)phosphate; LC-ESI-QTOF; MS2; CE: 10 eV; R=35000; [M+H]+
Name: Tris(2-chloroethyl)phosphate
Name: tris(2-chloroethyl) phosphate
Formula: C6H12Cl3O4P
Exact mass: 283.9538785
SMILES: ClCCOP(=O)(OCCCl)OCCCl
InChI: InChI=1S/C6H12Cl3O4P/c7-1-4-11-14(10,12-5-2-8)13-6-3-9/h1-6H2
Instrument: Bruker maXis Impact
Instrument type: LC-ESI-QTOF
Ms type: MS2
Ion mode: POSITIVE
Ionization: ESI
Fragmentation mode: CID
Collision energy: 10 eV
Resolution: 35000
Column name: Acclaim RSLC C18 2.2um, 2.1x100mm, Thermo
Retention time: 7.022 min
Base peak: 284.9608
Precursor m/z: 284.9612
Precursor type: [M+H]+
m/z	relative intensity	assigned
124.999	56	C2H6O4P+
160.9759	100	C2H7ClO4P+
162.9718	18	C2H7[37]ClO4P+
186.9915	91	C4H9ClO4P+
188.9883	24	C4H9[37]ClO4P+
222.9681	366	C4H10Cl2O4P+
223.9715	23	C3[13]CH10Cl2O4P+
224.9656	174	C4H10Cl[37]ClO4P+
248.9828	14	C6H12Cl2O4P+
284.9609	999	C6H13Cl3O4P+
285.9635	76	C5[13]CH13Cl3O4P+
286.9582	909	C6H13Cl2[37]ClO4P+
