Mass spectrum: Triamcinolone; LC-ESI-QTOF; MS2; CE: 20 eV; R=35000; [M+H]+
Name: Triamcinolone
Name: (8S,9R,10S,11S,13S,14S,16R,17S)-9-fluoro-11,16,17-trihydroxy-17-(2-hydroxyacetyl)-10,13-dimethyl-6,7,8,11,12,14,15,16-octahydrocyclopenta[a]phenanthren-3-one
Formula: C21H27FO6
Exact mass: 394.1791668
SMILES: C[C@]12C[C@H](O)[C@@]3(F)[C@@H](CCC4=CC(=O)C=C[C@]34C)[C@@H]1C[C@@H](O)[C@]2(O)C(=O)CO
InChI: InChI=1S/C21H27FO6/c1-18-6-5-12(24)7-11(18)3-4-13-14-8-15(25)21(28,17(27)10-23)19(14,2)9-16(26)20(13,18)22/h5-7,13-16,23,25-26,28H,3-4,8-10H2,1-2H3/t13-,14-,15+,16-,18-,19-,20-,21-/m0/s1
Instrument: Bruker maXis Impact
Instrument type: LC-ESI-QTOF
Ms type: MS2
Ion mode: POSITIVE
Ionization: ESI
Fragmentation mode: CID
Collision energy: 20 eV
Resolution: 35000
Column name: Acclaim RSLC C18 2.2um, 2.1x100mm, Thermo
Retention time: 6.382 min
Base peak: 395.1854
Precursor m/z: 395.1864
Precursor type: [M+H]+
m/z	relative intensity	assigned
121.0638	38	C8H9O+
131.0833	23	C10H11+
135.0782	53	C9H11O+
137.0591	53	C8H9O2+
141.0541	32	C7H9O3+
143.0844	28	C11H11+
147.0792	251	C10H11O+
148.0841	43	C9[13]CH11O+
151.0739	45	C9H11O2+
153.0894	21	C9H13O2+
155.0677	47	C8H11O3+
159.079	42	C11H11O+
161.0605	20	C7H10FO3+
161.0948	53	C11H13O+
163.0741	25	C10H11O2+
171.0786	116	C12H11O+
171.1162	22	C13H15+
172.0824	19	C11[13]CH11O+
173.081	33	C8H13O4+
173.0942	44	C12H13O+
179.0684	35	C10H11O3+
183.0789	24	C13H11O+
185.0946	135	C13H13O+
186.1007	31	C12[13]CH13O+
187.0739	110	C12H11O2+
187.1122	20	C13H15O+
189.0902	25	C12H13O2+
197.0963	72	C14H13O+
197.1311	24	C15H17+
199.1108	64	C14H15O+
201.0894	33	C13H13O2+
203.1036	33	C13H15O2+
209.0941	50	C15H13O+
210.0992	22	C15H14O+
211.1102	73	C15H15O+
213.0912	33	C14H13O2+
213.1258	187	C15H17O+
214.1304	33	C14[13]CH17O+
215.1435	32	C15H19O+
221.0917	21	C16H13O+
221.132	24	C17H17+
223.1113	180	C16H15O+
224.1176	113	C16H16O+
225.1258	662	C16H17O+
226.1306	169	C15[13]CH17O+
227.1086	29	C12H16FO3+
227.1411	37	C16H19O+
235.1105	114	C17H15O+
236.1134	28	C16[13]CH15O+
237.127	336	C17H17O+
238.1299	74	C16[13]CH17O+
239.1036	32	C16H15O2+
239.141	131	C17H19O+
240.1472	22	C16[13]CH19O+
241.1213	77	C16H17O2+
242.1284	25	C16H18O2+
243.1382	28	C16H19O2+
247.1081	24	C18H15O+
249.1265	68	C18H17O+
250.1299	25	C18H18O+
251.1057	21	C17H15O2+
251.1412	83	C18H19O+
252.1462	26	C18H20O+
253.122	95	C17H17O2+
253.1575	49	C18H21O+
255.1363	64	C17H19O2+
260.1157	21	C19H16O+
261.1247	111	C19H17O+
262.1328	66	C19H18O+
263.142	181	C19H19O+
264.1467	29	C18[13]CH19O+
265.1203	36	C18H17O2+
265.1591	64	C19H21O+
267.1386	39	C15H20FO3+
269.1553	19	C15H22FO3+
273.1273	24	C20H17O+
275.1428	167	C20H19O+
276.1435	46	C19[13]CH19O+
277.1227	71	C19H17O2+
277.1492	20	C13H22FO5+
278.1269	23	C19H18O2+
279.1344	123	C19H19O2+
280.1429	76	C19H20O2+
281.152	151	C19H21O2+
282.1566	41	C18[13]CH21O2+
283.1315	23	C18H19O3+
283.1649	29	C19H23O2+
291.1364	61	C20H19O2+
292.1389	23	C20H20O2+
293.1522	246	C20H21O2+
294.1551	66	C19[13]CH21O2+
295.1337	56	C16H20FO4+
296.1395	38	C19H20O3+
297.1482	44	C19H21O3+
298.1499	20	C19H22O3+
303.1374	141	C21H19O2+
304.1379	35	C20[13]CH19O2+
309.1478	111	C20H21O3+
310.1525	27	C19[13]CH21O3+
311.1626	130	C20H23O3+
312.167	49	C20H24O3+
321.1478	332	C21H21O3+
322.1515	93	C20[13]CH21O3+
327.1577	50	C20H23O4+
329.1735	35	C20H25O4+
339.1583	446	C21H23O4+
340.1632	119	C20[13]CH23O4+
357.1681	999	C21H25O5+
358.172	257	C20[13]CH25O5+
359.1735	46	C21H24FO4+
375.1779	236	C21H27O6+
376.1853	47	C20[13]CH27O6+
395.1856	40	C21H28FO6+
