Mass spectrum: Allethrin; LC-ESI-QTOF; MS2; CE: 20 eV; R=35000; [M+H]+
Name: Allethrin
Name: (2-methyl-4-oxo-3-prop-2-enylcyclopent-2-en-1-yl) 2,2-dimethyl-3-(2-methylprop-1-enyl)cyclopropane-1-carboxylate
Formula: C19H26O3
Exact mass: 302.1881947
SMILES: CC(C)=CC1C(C(=O)OC2CC(=O)C(CC=C)=C2C)C1(C)C
InChI: InChI=1S/C19H26O3/c1-7-8-13-12(4)16(10-15(13)20)22-18(21)17-14(9-11(2)3)19(17,5)6/h7,9,14,16-17H,1,8,10H2,2-6H3
Instrument: Bruker maXis Impact
Instrument type: LC-ESI-QTOF
Ms type: MS2
Ion mode: POSITIVE
Ionization: ESI
Fragmentation mode: CID
Collision energy: 20 eV
Resolution: 35000
Column name: Acclaim RSLC C18 2.2um, 2.1x100mm, Thermo
Retention time: 12.379 min
Base peak: 303.1954
Precursor m/z: 303.1955
Precursor type: [M+H]+
m/z	relative intensity	assigned
115.0534	44	C9H7+
116.0593	6	C8[13]CH7+
117.0688	38	C9H9+
121.0999	23	C9H13+
123.1158	367	C9H15+
124.1191	47	C8[13]CH15+
133.0996	6	C10H13+
135.0795	999	C9H11O+
136.0829	98	C8[13]CH11O+
137.0944	10	C9H13O+
139.1112	6	C9H15O+
147.116	5	C11H15+
149.0955	24	C10H13O+
151.1104	166	C10H15O+
152.1138	17	C9[13]CH15O+
167.1047	7	C10H15O2+
169.1209	61	C10H17O2+
170.1248	7	C9[13]CH17O2+
173.1297	5	C13H17+
201.1256	7	C14H17O+
215.1412	6	C15H19O+
257.1875	8	C18H25O+
