Mass spectrum: Warfarin; LC-ESI-QTOF; MS2; CE: 50 eV; R=35000; [M+H]+
Name: Warfarin
Name: 4-hydroxy-3-(3-oxo-1-phenylbutyl)chromen-2-one
Formula: C19H16O4
Exact mass: 308.1048590
SMILES: CC(=O)CC(C1=CC=CC=C1)C1=C(O)C2=CC=CC=C2OC1=O
InChI: InChI=1S/C19H16O4/c1-12(20)11-15(13-7-3-2-4-8-13)17-18(21)14-9-5-6-10-16(14)23-19(17)22/h2-10,15,21H,11H2,1H3
Instrument: Bruker maXis Impact
Instrument type: LC-ESI-QTOF
Ms type: MS2
Ion mode: POSITIVE
Ionization: ESI
Fragmentation mode: CID
Collision energy: 50 eV
Resolution: 35000
Column name: Acclaim RSLC C18 2.2um, 2.1x100mm, Thermo
Retention time: 9.390 min
Base peak: 309.1122
Precursor m/z: 309.1121
Precursor type: [M+H]+
m/z	relative intensity	assigned
115.0541	13	C9H7+
119.048	8	C8H7O+
121.0278	999	C7H5O2+
122.0312	72	C6[13]CH5O2+
127.0532	7	C10H7+
128.0612	72	C10H8+
129.0326	43	C9H5O+
129.0688	81	C10H9+
130.0402	17	C9H6O+
130.0728	7	C9[13]CH9+
131.0483	104	C9H7O+
132.052	13	C8[13]CH7O+
139.0374	6	C7H7O3+
141.0688	11	C11H9+
145.0272	44	C9H5O2+
145.0638	11	C10H9O+
147.0795	25	C10H11O+
149.0223	5	C8H5O3+
151.0538	5	C12H7+
152.0606	103	C12H8+
153.0684	93	C12H9+
154.0756	37	C12H10+
155.0845	585	C12H11+
156.0875	79	C11[13]CH11+
157.0273	63	C10H5O2+
158.0306	6	C9[13]CH5O2+
163.0379	787	C9H7O3+
164.0412	75	C8[13]CH7O3+
165.0688	170	C13H9+
166.0746	50	C13H10+
167.0844	236	C13H11+
168.0877	30	C12[13]CH11+
169.063	11	C12H9O+
173.0223	129	C10H5O3+
174.0258	17	C9[13]CH5O3+
175.0374	32	C10H7O3+
176.0606	31	C14H8+
177.0689	57	C14H9+
178.0766	251	C14H10+
179.0819	59	C13[13]CH10+
180.0569	5	C13H8O+
181.064	18	C13H9O+
183.0794	177	C13H11O+
184.0827	28	C12[13]CH11O+
189.0532	16	C11H9O3+
191.0328	435	C10H7O4+
192.0363	45	C9[13]CH7O4+
193.039	5	C10H7O3[18]O+
194.0728	10	C14H10O+
195.0797	40	C14H11O+
196.0825	7	C13[13]CH11O+
205.0642	125	C15H9O+
206.0675	25	C14[13]CH9O+
207.0786	6	C15H11O+
221.0587	5	C15H9O2+
223.0746	216	C15H11O2+
224.0781	45	C14[13]CH11O2+
233.0588	81	C16H9O2+
234.0639	19	C15[13]CH9O2+
249.0545	26	C16H9O3+
250.0614	11	C16H10O3+
251.0696	131	C16H11O3+
252.0719	20	C15[13]CH11O3+
