Mass spectrum: Diphenylphosphine oxide; LC-ESI-QTOF; MS2; CE: 10 eV; R=35000; [M+H]+
Name: Diphenylphosphine oxide
Name: phenylphosphonoylbenzene
Formula: C12H11OP
Exact mass: 202.0547516
SMILES: O=P(C1=CC=CC=C1)C1=CC=CC=C1
InChI: InChI=1S/C12H11OP/c13-14(11-7-3-1-4-8-11)12-9-5-2-6-10-12/h1-10,14H
Instrument: Bruker maXis Impact
Instrument type: LC-ESI-QTOF
Ms type: MS2
Ion mode: POSITIVE
Ionization: ESI
Fragmentation mode: CID
Collision energy: 10 eV
Resolution: 35000
Column name: Acclaim RSLC C18 2.2um, 2.1x100mm, Thermo
Retention time: 6.521 min
Base peak: 203.0615
Precursor m/z: 203.062
Precursor type: [M+H]+
m/z	relative intensity	assigned
203.0619	999	C12H12OP+
204.0644	148	C11[13]CH12OP+
205.0682	8	C10[13]C2H12OP+
