Mass spectrum: Lauric isopropanolamide; LC-ESI-QTOF; MS2; CE: Ramp 20.1-30.1 eV; R=35000; [M+H]+
Name: Lauric isopropanolamide
Name: N-(2-hydroxypropyl)dodecanamide
Formula: C15H31NO2
Exact mass: 257.2354792
SMILES: CCCCCCCCCCCC(=O)NCC(C)O
InChI: InChI=1S/C15H31NO2/c1-3-4-5-6-7-8-9-10-11-12-15(18)16-13-14(2)17/h14,17H,3-13H2,1-2H3,(H,16,18)
Instrument: Bruker maXis Impact
Instrument type: LC-ESI-QTOF
Ms type: MS2
Ion mode: POSITIVE
Ionization: ESI
Fragmentation mode: CID
Collision energy: Ramp 20.1-30.1 eV
Resolution: 35000
Column name: Acclaim RSLC C18 2.2um, 2.1x100mm, Thermo
Retention time: 12.071 min
Base peak: 332.3322
Precursor m/z: 258.2428
Precursor type: [M+H]+
m/z	relative intensity	assigned
55.0536	9	C4H7+
57.0693	137	C4H9+
58.0647	999	C3H8N+
59.0678	27	C2[13]CH8N+
67.0537	16	C5H7+
69.0694	5	C5H9+
71.085	73	C5H11+
76.0754	629	C3H10NO+
77.0784	21	C2[13]CH10NO+
81.0697	14	C6H9+
83.0855	13	C6H11+
85.101	35	C6H13+
95.0861	20	C7H11+
109.1018	7	C8H13+
183.1733	26	C12H23O+
240.232	209	C15H30NO+
241.2155	22	C15H29O2+
241.2343	23	C14[13]CH30NO+
258.2417	18	C15H32NO2+
