Mass spectrum: Diuron; LC-ESI-QTOF; MS2; CE: Ramp 20-30 eV; R=35000; [M+H]+
Name: Diuron
Name: 3-(3,4-dichlorophenyl)-1,1-dimethylurea
Formula: C9H10Cl2N2O
Exact mass: 232.0170183
SMILES: CN(C)C(=O)NC1=CC=C(Cl)C(Cl)=C1
InChI: InChI=1S/C9H10Cl2N2O/c1-13(2)9(14)12-6-3-4-7(10)8(11)5-6/h3-5H,1-2H3,(H,12,14)
Instrument: Bruker maXis Impact
Instrument type: LC-ESI-QTOF
Ms type: MS2
Ion mode: POSITIVE
Ionization: ESI
Fragmentation mode: CID
Collision energy: Ramp 20-30 eV
Resolution: 35000
Column name: Acclaim RSLC C18 2.2um, 2.1x100mm, Thermo
Retention time: 8.594 min
Base peak: 233.0241
Precursor m/z: 233.0243
Precursor type: [M+H]+
m/z	relative intensity	assigned
46.0649	59	C2H8N+
72.044	999	C3H6NO+
73.0472	28	C2[13]CH6NO+
159.9716	42	C6H4Cl2N+
161.9683	25	C6H4Cl[37]ClN+
187.9665	15	C7H4Cl2NO+
189.9632	8	C7H4Cl[37]ClNO+
233.0257	157	C9H11Cl2N2O+
234.0281	14	C8[13]CH11Cl2N2O+
235.0229	83	C9H11Cl[37]ClN2O+
