Mass spectrum: 2,2,6,6-Tetramethyl-4 piperidone; LC-ESI-QTOF; MS2; CE: 10 eV; R=35000; [M+H]+
Name: 2,2,6,6-Tetramethyl-4 piperidone
Name: 4-Piperidinone, 2,2,6,6-tetramethyl-
Name: 2,2,6,6-tetramethylpiperidin-4-one
Formula: C9H17NO
Exact mass: 155.1310142
SMILES: CC1(C)CC(=O)CC(C)(C)N1
InChI: InChI=1S/C9H17NO/c1-8(2)5-7(11)6-9(3,4)10-8/h10H,5-6H2,1-4H3
Instrument: Bruker maXis Impact
Instrument type: LC-ESI-QTOF
Ms type: MS2
Ion mode: POSITIVE
Ionization: ESI
Fragmentation mode: CID
Collision energy: 10 eV
Resolution: 35000
Column name: Acclaim RSLC C18 2.2um, 2.1x100mm, Thermo
Retention time: 2.042 min
Base peak: 156.1372
Precursor m/z: 156.1383
Precursor type: [M+H]+
m/z	relative intensity	assigned
156.1378	999	C9H18NO+
