Mass spectrum: Warfarin; LC-ESI-QTOF; MS2; CE: 30 eV; R=35000; [M+H]+
Name: Warfarin
Name: 4-hydroxy-3-(3-oxo-1-phenylbutyl)chromen-2-one
Formula: C19H16O4
Exact mass: 308.1048590
SMILES: CC(=O)CC(C1=CC=CC=C1)C1=C(O)C2=CC=CC=C2OC1=O
InChI: InChI=1S/C19H16O4/c1-12(20)11-15(13-7-3-2-4-8-13)17-18(21)14-9-5-6-10-16(14)23-19(17)22/h2-10,15,21H,11H2,1H3
Instrument: Bruker maXis Impact
Instrument type: LC-ESI-QTOF
Ms type: MS2
Ion mode: POSITIVE
Ionization: ESI
Fragmentation mode: CID
Collision energy: 30 eV
Resolution: 35000
Column name: Acclaim RSLC C18 2.2um, 2.1x100mm, Thermo
Retention time: 9.366 min
Base peak: 309.1118
Precursor m/z: 309.1121
Precursor type: [M+H]+
m/z	relative intensity	assigned
121.0274	24	C7H5O2+
129.0683	14	C10H9+
131.048	13	C9H7O+
147.0791	42	C10H11O+
155.084	20	C12H11+
163.0377	538	C9H7O3+
164.0409	35	C8[13]CH7O3+
167.0837	5	C13H11+
171.0789	6	C12H11O+
173.0218	29	C10H5O3+
179.0839	5	C14H11+
183.0791	58	C13H11O+
184.0823	6	C12[13]CH11O+
189.0528	7	C11H9O3+
191.0326	80	C10H7O4+
192.0356	8	C9[13]CH7O4+
205.0634	6	C15H9O+
223.0738	28	C15H11O2+
224.0767	5	C14[13]CH11O2+
233.0588	10	C16H9O2+
251.0695	999	C16H11O3+
252.0727	122	C15[13]CH11O3+
253.0752	10	C14[13]C2H11O3+
