Mass spectrum: Triclocarban; LC-ESI-QTOF; MS2; CE: 10 eV; R=35000; [M+H]+
Name: Triclocarban
Name: 1-(4-chlorophenyl)-3-(3,4-dichlorophenyl)urea
Formula: C13H9Cl3N2O
Exact mass: 313.9780459
SMILES: ClC1=CC=C(NC(=O)NC2=CC(Cl)=C(Cl)C=C2)C=C1
InChI: InChI=1S/C13H9Cl3N2O/c14-8-1-3-9(4-2-8)17-13(19)18-10-5-6-11(15)12(16)7-10/h1-7H,(H2,17,18,19)
Instrument: Bruker maXis Impact
Instrument type: LC-ESI-QTOF
Ms type: MS2
Ion mode: POSITIVE
Ionization: ESI
Fragmentation mode: CID
Collision energy: 10 eV
Resolution: 35000
Column name: Acclaim RSLC C18 2.2um, 2.1x100mm, Thermo
Retention time: 11.910 min
Base peak: 279.1583
Precursor m/z: 314.9853
Precursor type: [M+H]+
m/z	relative intensity	assigned
127.0171	7	C9H3O+
128.0242	21	C6H7ClN+
130.0218	8	C6H7[37]ClN+
149.0226	12	C11H3N+
161.9857	24	C6H6Cl2N+
162.9912	8	C9H4ClO+
163.9841	13	C6H6Cl[37]ClN+
314.985	999	C13H10Cl3N2O+
315.9885	158	C12[13]CH10Cl3N2O+
316.9829	889	C13H10Cl2[37]ClN2O+
