Mass spectrum: Phenylethylmalonamide; LC-ESI-QTOF; MS2; CE: Ramp 18.3-27.4 eV; R=35000; [M+H]+
Name: Phenylethylmalonamide
Name: 2-Ethyl-2-phenylmalonamide
Name: 2-ethyl-2-phenylpropanediamide
Formula: C11H14N2O2
Exact mass: 206.1055277
SMILES: CCC(C(N)=O)(C(N)=O)C1=CC=CC=C1
InChI: InChI=1S/C11H14N2O2/c1-2-11(9(12)14,10(13)15)8-6-4-3-5-7-8/h3-7H,2H2,1H3,(H2,12,14)(H2,13,15)
Instrument: Bruker maXis Impact
Instrument type: LC-ESI-QTOF
Ms type: MS2
Ion mode: POSITIVE
Ionization: ESI
Fragmentation mode: CID
Collision energy: Ramp 18.3-27.4 eV
Resolution: 35000
Column name: Acclaim RSLC C18 2.2um, 2.1x100mm, Thermo
Retention time: 4.234 min
Base peak: 207.1123
Precursor m/z: 207.1128
Precursor type: [M+H]+
m/z	relative intensity	assigned
91.053	86	C7H7+
117.069	115	C9H9+
119.0853	169	C9H11+
134.0954	121	C9H12N+
145.0632	94	C10H9O+
162.0901	999	C10H12NO+
163.094	114	C9[13]CH12NO+
