Mass spectrum: Fluocinolone acetonide; LC-ESI-QTOF; MS2; CE: 10 eV; R=35000; [M+H]+
Name: Fluocinolone acetonide
Name: (1S,2S,4R,8S,9S,11S,12R,13S,19S)-12,19-difluoro-11-hydroxy-8-(2-hydroxyacetyl)-6,6,9,13-tetramethyl-5,7-dioxapentacyclo[10.8.0.02,9.04,8.013,18]icosa-14,17-dien-16-one
Formula: C24H30F2O6
Exact mass: 452.2010451
SMILES: CC1(C)O[C@@H]2C[C@H]3[C@@H]4C[C@H](F)C5=CC(=O)C=C[C@]5(C)[C@@]4(F)[C@@H](O)C[C@]3(C)[C@@]2(O1)C(=O)CO
InChI: InChI=1S/C24H30F2O6/c1-20(2)31-19-9-13-14-8-16(25)15-7-12(28)5-6-21(15,3)23(14,26)17(29)10-22(13,4)24(19,32-20)18(30)11-27/h5-7,13-14,16-17,19,27,29H,8-11H2,1-4H3/t13-,14-,16-,17-,19+,21-,22-,23-,24+/m0/s1
Instrument: Bruker maXis Impact
Instrument type: LC-ESI-QTOF
Ms type: MS2
Ion mode: POSITIVE
Ionization: ESI
Fragmentation mode: CID
Collision energy: 10 eV
Resolution: 35000
Column name: Acclaim RSLC C18 2.2um, 2.1x100mm, Thermo
Retention time: 8.735 min
Base peak: 435.2174
Precursor m/z: 453.2083
Precursor type: [M+H]+
m/z	relative intensity	assigned
121.0634	6	C8H9O+
223.1107	8	C16H15O+
253.1215	8	C17H17O2+
277.1225	7	C19H17O2+
279.1367	6	C19H19O2+
291.1373	8	C20H19O2+
309.1474	11	C20H21O3+
319.1326	19	C21H19O3+
329.1536	5	C23H21O2+
337.1422	53	C18H22FO5+
338.148	11	C17[13]CH22FO5+
339.1382	11	C24H19O2+
355.1528	24	C21H23O5+
356.1577	6	C20[13]CH23O5+
357.1492	26	C24H21O3+
358.1528	5	C23[13]CH21O3+
359.1471	5	C20H23O6+
375.1598	27	C24H23O4+
376.1613	7	C23[13]CH23O4+
377.1564	10	C21H23F2O4+
393.2065	63	C22H30FO5+
394.2095	17	C21[13]CH30FO5+
413.196	102	C24H29O6+
414.1978	24	C23[13]CH29O6+
415.1924	28	C21H29F2O6+
416.1974	6	C20[13]CH29F2O6+
433.2016	215	C24H30FO6+
434.2051	58	C23[13]CH30FO6+
435.2046	13	C24H29F2O5+
453.2082	999	C24H31F2O6+
454.2115	224	C23[13]CH31F2O6+
455.2136	30	C22[13]C2H31F2O6+
