Mass spectrum: Fipronil desulfinyl; LC-ESI-QTOF; MS2; CE: 10 eV; R=35000; [M-H]-
Name: Fipronil desulfinyl
Name: Desulfinylfipronil
Name: 5-amino-1-[2,6-dichloro-4-(trifluoromethyl)phenyl]-4-(trifluoromethyl)pyrazole-3-carbonitrile
Formula: C12H4Cl2F6N4
Exact mass: 387.9717208
SMILES: NC1=C(C(=NN1C1=C(Cl)C=C(C=C1Cl)C(F)(F)F)C#N)C(F)(F)F
InChI: InChI=1S/C12H4Cl2F6N4/c13-5-1-4(11(15,16)17)2-6(14)9(5)24-10(22)8(12(18,19)20)7(3-21)23-24/h1-2H,22H2
Instrument: Bruker maXis Impact
Instrument type: LC-ESI-QTOF
Ms type: MS2
Ion mode: NEGATIVE
Ionization: ESI
Fragmentation mode: CID
Collision energy: 10 eV
Resolution: 35000
Column name: Acclaim RSLC C18 2.2um, 2.1x100mm, Thermo
Retention time: 10.224 min
Base peak: 350.9875
Precursor m/z: 386.9644
Precursor type: [M-H]-
m/z	relative intensity	assigned
350.9877	999	C12H2ClF6N4-
351.9893	78	C11[13]CH2ClF6N4-
352.9843	218	C12H2[37]ClF6N4-
386.9629	19	C12H3Cl2F6N4-
388.9598	10	C12H3Cl[37]ClF6N4-
