Mass spectrum: Fluocinolone acetonide; LC-ESI-QTOF; MS2; CE: Ramp 24.7-37.0 eV; R=35000; [M+H]+
Name: Fluocinolone acetonide
Name: (1S,2S,4R,8S,9S,11S,12R,13S,19S)-12,19-difluoro-11-hydroxy-8-(2-hydroxyacetyl)-6,6,9,13-tetramethyl-5,7-dioxapentacyclo[10.8.0.02,9.04,8.013,18]icosa-14,17-dien-16-one
Formula: C24H30F2O6
Exact mass: 452.2010451
SMILES: CC1(C)O[C@@H]2C[C@H]3[C@@H]4C[C@H](F)C5=CC(=O)C=C[C@]5(C)[C@@]4(F)[C@@H](O)C[C@]3(C)[C@@]2(O1)C(=O)CO
InChI: InChI=1S/C24H30F2O6/c1-20(2)31-19-9-13-14-8-16(25)15-7-12(28)5-6-21(15,3)23(14,26)17(29)10-22(13,4)24(19,32-20)18(30)11-27/h5-7,13-14,16-17,19,27,29H,8-11H2,1-4H3/t13-,14-,16-,17-,19+,21-,22-,23-,24+/m0/s1
Instrument: Bruker maXis Impact
Instrument type: LC-ESI-QTOF
Ms type: MS2
Ion mode: POSITIVE
Ionization: ESI
Fragmentation mode: CID
Collision energy: Ramp 24.7-37.0 eV
Resolution: 35000
Column name: Acclaim RSLC C18 2.2um, 2.1x100mm, Thermo
Retention time: 8.746 min
Base peak: 435.218
Precursor m/z: 453.2083
Precursor type: [M+H]+
m/z	relative intensity	assigned
55.017	45	C3H3O+
59.0486	222	C3H7O+
67.0534	13	C5H7+
69.0333	35	C4H5O+
69.069	9	C5H9+
71.0124	11	C3H3O2+
71.0491	9	C4H7O+
79.0537	21	C6H7+
81.033	16	C5H5O+
81.0698	21	C6H9+
83.0495	11	C5H7O+
85.0291	7	CH6FO3+
87.043	19	C4H7O2+
91.0541	11	C7H7+
93.0708	32	C4H10FO+
95.0501	16	C3H8FO2+
95.086	21	C7H11+
97.0291	13	C2H6FO3+
99.0441	7	C5H7O2+
105.072	27	C2H11F2O2+
107.0859	11	C8H11+
109.0648	19	C7H9O+
111.0439	10	C6H7O2+
115.0395	11	C5H7O3+
115.0522	8	C9H7+
117.0692	12	C9H9+
119.084	13	C9H11+
121.0644	999	C8H9O+
122.0673	96	C7[13]CH9O+
123.0603	9	C8H8F+
123.0793	17	C8H11O+
125.0588	23	C7H9O2+
127.038	10	C6H7O3+
129.0692	14	C10H9+
131.0849	17	C10H11+
133.0642	81	C9H9O+
133.0987	11	C10H13+
135.042	25	C8H7O2+
135.059	11	C9H8F+
135.0795	198	C9H11O+
136.0831	16	C8[13]CH11O+
137.0587	50	C8H9O2+
137.0752	57	C9H10F+
139.0371	10	C8H5F2+
139.0543	53	C11H7+
139.075	33	C8H11O2+
141.0544	21	C7H9O3+
141.0691	20	C11H9+
142.0771	8	C11H10+
143.0838	28	C11H11+
145.0636	146	C10H9O+
145.1003	15	C11H13+
146.0673	19	C9[13]CH9O+
147.0793	173	C10H11O+
148.0823	17	C9[13]CH11O+
149.0582	28	C9H9O2+
149.0741	19	C10H10F+
149.095	9	C10H13O+
151.0393	23	C8H7O3+
151.0543	9	C12H7+
151.0742	63	C9H11O2+
152.0777	7	C8[13]CH11O2+
153.0531	19	C8H9O3+
153.0702	27	C12H9+
153.0922	8	C6H14FO3+
155.0694	58	C8H11O3+
155.0833	25	C12H11+
156.0745	7	C7[13]CH11O3+
157.0641	27	C11H9O+
157.0989	15	C12H13+
158.0719	25	C11H10O+
159.0791	210	C11H11O+
160.0835	29	C10[13]CH11O+
161.0586	100	C10H9O2+
161.0744	17	C11H10F+
161.0952	34	C11H13O+
162.0624	8	C9[13]CH9O2+
163.0541	20	C13H7+
163.0745	51	C10H11O2+
164.0766	7	C9[13]CH11O2+
165.0705	77	C10H10FO+
165.0889	7	C10H13O2+
166.0752	7	C9[13]CH10FO+
167.0685	16	C9H11O3+
167.0849	19	C13H11+
168.0549	7	C12H8O+
169.0467	9	C9H7F2O+
169.064	54	C12H9O+
169.0827	10	C10H11F2+
169.1011	9	C13H13+
170.0708	8	C11[13]CH9O+
171.0794	275	C12H11O+
172.0837	37	C11[13]CH11O+
173.0578	17	C11H9O2+
173.0753	8	C12H10F+
173.0948	66	C12H13O+
174.0967	12	C11[13]CH13O+
175.0749	46	C11H11O2+
175.0916	8	C12H12F+
175.1099	14	C12H15O+
177.0532	18	C10H9O3+
177.0699	52	C14H9+
177.0887	9	C11H13O2+
178.0566	7	C11H8F2+
178.076	12	C14H10+
179.0491	13	C13H7O+
179.0691	40	C10H11O3+
179.0858	39	C14H11+
180.072	8	C11H10F2+
180.0903	14	C14H12+
181.0646	67	C13H9O+
181.0854	10	C10H13O3+
181.0995	15	C14H13+
182.0699	17	C13H10O+
183.0615	11	C10H9F2O+
183.0794	90	C13H11O+
183.114	7	C14H15+
184.0849	18	C12[13]CH11O+
185.0588	72	C12H9O2+
185.0759	15	C13H10F+
185.0948	109	C13H13O+
186.0619	14	C11[13]CH9O2+
186.1003	24	C12[13]CH13O+
187.0743	114	C12H11O2+
187.1098	23	C13H15O+
188.0779	11	C11[13]CH11O2+
189.0694	48	C12H10FO+
189.0894	21	C12H13O2+
190.078	10	C11[13]CH10FO+
191.0669	7	C12H9F2+
191.0851	58	C15H11+
192.0931	13	C14[13]CH11+
193.0654	11	C11H10FO2+
193.0863	13	C11H13O3+
193.101	34	C15H13+
194.071	7	C14H10O+
195.0642	9	C10H11O4+
195.0798	82	C14H11O+
195.0983	7	C12H13F2+
195.1154	33	C15H15+
196.0862	30	C14H12O+
197.0584	11	C13H9O2+
197.0768	23	C11H11F2O+
197.0953	152	C14H13O+
198.0994	33	C13[13]CH13O+
199.0753	23	C13H11O2+
199.0913	10	C14H12F+
199.1092	36	C14H15O+
201.0897	23	C13H13O2+
203.0682	22	C13H9F2+
203.0844	29	C16H11+
205.0648	157	C15H9O+
205.1002	36	C16H13+
206.0675	24	C14[13]CH9O+
206.1081	9	C15[13]CH13+
207.0801	25	C15H11O+
207.1149	9	C16H15+
208.0863	40	C15H12O+
209.0947	124	C15H13O+
209.1312	18	C16H17+
210.1008	34	C15H14O+
211.0747	40	C14H11O2+
211.1109	299	C15H15O+
212.0785	11	C13[13]CH11O2+
212.118	128	C15H16O+
213.0693	8	C17H9+
213.0898	42	C14H13O2+
213.1258	116	C15H17O+
214.0939	12	C14H14O2+
214.1286	13	C14[13]CH17O+
215.0731	7	C7H13F2O5+
215.0852	26	C17H11+
215.1055	18	C14H15O2+
215.1253	10	C12H17F2O+
216.0908	21	C17H12+
217.1002	19	C17H13+
219.0785	19	C16H11O+
219.1167	30	C17H15+
220.0875	18	C16H12O+
220.1231	9	C17H16+
221.0779	20	C13H11F2O+
221.0953	92	C16H13O+
221.1319	13	C17H17+
222.1029	110	C16H14O+
223.076	87	C15H11O2+
223.111	542	C16H15O+
224.0786	19	C14[13]CH11O2+
224.1147	111	C15[13]CH15O+
225.0897	56	C15H13O2+
225.1271	104	C16H17O+
226.0976	15	C14[13]CH13O2+
226.1306	28	C15[13]CH17O+
227.0856	16	C18H11+
227.1056	37	C15H15O2+
227.1431	16	C16H19O+
228.0931	9	C18H12+
229.1007	25	C18H13+
230.1089	16	C18H14+
231.0816	25	C14H12FO2+
231.1167	66	C15H16FO+
232.0883	11	C17H12O+
232.1219	15	C14[13]CH16FO+
233.0947	51	C17H13O+
233.1328	52	C18H17+
234.1026	51	C17H14O+
234.1333	10	C17[13]CH17+
235.0734	13	C16H11O2+
235.1113	262	C17H15O+
236.0823	7	C16H12O2+
236.1157	75	C16[13]CH15O+
237.0905	37	C16H13O2+
237.1267	296	C17H17O+
238.0976	28	C16H14O2+
238.1299	54	C16[13]CH17O+
239.106	168	C16H15O2+
239.1417	48	C17H19O+
240.1112	73	C16H16O2+
240.1457	15	C16[13]CH19O+
241.086	69	C15H13O3+
241.0977	40	C19H13+
241.1222	262	C16H17O2+
242.0901	11	C14[13]CH13O3+
242.1075	18	C19H14+
242.125	58	C15[13]CH17O2+
243.0821	10	C15H12FO2+
243.1171	80	C19H15+
244.1198	15	C18[13]CH15+
245.0964	22	C18H13O+
245.1321	41	C16H18FO+
246.1037	70	C18H14O+
246.1376	7	C15[13]CH18FO+
247.1108	144	C18H15O+
248.084	9	C14H13FO3+
248.1172	73	C18H16O+
249.09	36	C17H13O2+
249.1267	228	C18H17O+
250.096	26	C17H14O2+
250.1319	68	C17[13]CH17O+
251.1058	190	C17H15O2+
251.1426	235	C18H19O+
252.1096	37	C16[13]CH15O2+
252.1448	59	C17[13]CH19O+
253.1215	380	C17H17O2+
254.1251	69	C16[13]CH17O2+
255.1162	51	C17H16FO+
255.135	39	C17H19O2+
256.1248	15	C16[13]CH16FO+
256.1448	8	C16[13]CH19O2+
257.0945	20	C19H13O+
257.1333	39	C20H17+
258.1036	52	C19H14O+
258.1355	12	C19[13]CH17+
259.1111	111	C19H15O+
260.1196	60	C19H16O+
261.1273	438	C19H17O+
262.0997	34	C15H15FO3+
262.1308	90	C18[13]CH17O+
263.105	79	C18H15O2+
263.1423	229	C19H19O+
264.1142	36	C18H16O2+
264.1458	38	C18[13]CH19O+
265.0967	10	C21H13+
265.1211	120	C18H17O2+
265.153	9	C19H21O+
266.1268	29	C17[13]CH17O2+
267.1007	21	C17H15O3+
267.1367	66	C18H19O2+
268.1414	19	C17[13]CH19O2+
269.0969	14	C17H14FO2+
269.1341	30	C18H18FO+
269.1485	16	C18H21O2+
271.1117	30	C20H15O+
271.149	33	C21H19+
272.1197	11	C19[13]CH15O+
272.1514	9	C20[13]CH19+
273.1278	286	C20H17O+
274.1011	10	C13H16F2O4+
274.1305	51	C19[13]CH17O+
275.1063	68	C19H15O2+
275.1414	38	C20H19O+
276.1134	64	C19H16O2+
276.1432	8	C19[13]CH19O+
277.122	273	C19H17O2+
277.1589	28	C20H21O+
278.1273	102	C19H18O2+
278.166	12	C20H22O+
279.1378	494	C16H20FO3+
279.1746	34	C20H23O+
280.1434	82	C15[13]CH20FO3+
281.1338	154	C22H17+
281.147	70	C19H21O2+
282.1367	38	C21[13]CH17+
282.1528	14	C18[13]CH21O2+
283.111	24	C21H15O+
283.1488	30	C19H20FO+
284.1173	9	C21H16O+
285.1088	7	C18H15F2O+
285.1298	13	C15H19F2O3+
286.0975	26	C20H14O2+
287.1069	14	C20H15O2+
287.1467	11	C15H21F2O3+
288.105	8	C13H17FO6+
288.1155	14	C17H17FO3+
289.1223	103	C20H17O2+
289.1594	11	C18H22FO2+
290.1256	23	C19[13]CH17O2+
291.1379	424	C20H19O2+
291.1717	24	C21H23O+
292.1054	11	C19H16O3+
292.116	11	C13H18F2O5+
292.1407	103	C19[13]CH19O2+
292.1825	8	C21H24O+
293.1176	86	C19H17O3+
293.1327	48	C23H17+
294.1247	43	C19H18O3+
295.133	163	C19H19O3+
296.1375	40	C18[13]CH19O3+
296.1731	8	C20H24O2+
297.1464	63	C20H19F2+
297.1875	9	C14H27F2O4+
298.1402	17	C15H22O6+
299.108	7	C18H16FO3+
299.144	120	C22H19O+
300.1454	34	C21[13]CH19O+
301.1226	143	C21H17O2+
301.1532	31	C22H21O+
302.1264	44	C20[13]CH17O2+
302.1586	7	C21[13]CH21O+
303.1273	14	C14H20FO6+
304.1094	42	C20H16O3+
305.1139	10	C19[13]CH16O3+
305.1339	10	C21H18FO+
307.1335	98	C17H20FO4+
307.1674	11	C21H23O2+
308.1371	36	C21H18F2+
309.1484	204	C20H21O3+
309.1868	14	C15H27F2O4+
310.1509	49	C19[13]CH21O3+
311.1441	67	C20H20FO2+
312.1487	16	C19[13]CH20FO2+
313.1279	14	C16H19F2O4+
313.1386	30	C23H18F+
314.1389	8	C22[13]CH18F+
315.1391	30	C22H19O2+
316.1415	7	C21[13]CH19O2+
317.1356	20	C19H19F2O2+
317.1561	16	C16H23F2O4+
319.1333	328	C21H19O3+
319.1649	31	C22H23O2+
320.1361	99	C20[13]CH19O3+
320.1601	10	C18H24O5+
321.1275	30	C24H17O+
322.1311	12	C24H18O+
325.1433	27	C20H21O4+
327.1575	60	C21H21F2O+
328.1594	15	C20[13]CH21F2O+
329.1539	75	C20H22FO3+
330.1586	25	C19[13]CH22FO3+
331.1492	32	C23H20FO+
335.1478	10	C18H23O6+
337.1434	546	C21H21O4+
337.1827	32	C16H27F2O5+
338.1466	137	C20[13]CH21O4+
338.1826	16	C23H24F2+
339.139	121	C24H19O2+
339.1729	10	C22H24FO2+
340.142	27	C23[13]CH19O2+
341.1388	13	C20H21O5+
345.1481	12	C23H21O3+
346.1612	7	C17H24F2O5+
347.1427	14	C23H20FO2+
347.1666	57	C17H25F2O5+
348.1708	9	C16[13]CH25F2O5+
349.1611	19	C20H23F2O3+
350.164	10	C23H23FO2+
355.1543	260	C21H23O5+
355.1884	34	C22H27O4+
356.1564	58	C20[13]CH23O5+
356.1944	10	C21[13]CH27O4+
357.1504	133	C21H22FO4+
357.1874	8	C19H27F2O4+
358.1542	48	C20[13]CH22FO4+
359.1445	52	C24H20FO2+
360.1476	11	C23[13]CH20FO2+
361.1437	9	C23H21O4+
365.1543	22	C23H22FO3+
375.1598	67	C18H25F2O6+
375.1948	28	C19H29F2O5+
376.165	21	C17[13]CH25F2O6+
376.2101	7	C18[13]CH29F2O5+
377.1575	52	C24H22FO3+
378.159	11	C23[13]CH22FO3+
393.2067	20	C22H30FO5+
394.2129	8	C22H31FO5+
395.1749	18	C21H25F2O5+
413.1961	154	C24H29O6+
414.1991	40	C23[13]CH29O6+
415.1922	114	C24H28FO5+
416.1954	25	C23[13]CH28FO5+
417.2027	7	C22[13]C2H28FO5+
433.2019	55	C24H30FO6+
434.2061	15	C23[13]CH30FO6+
435.1918	15	C24H29F2O5+
435.2053	9	C24H29F2O5+
453.2096	25	C24H31F2O6+
