Mass spectrum: Benzyl-2-naphthylether; LC-ESI-QTOF; MS2; CE: 10 eV; R=35000; [M+H]+
Name: Benzyl-2-naphthylether
Name: Benzyl 2-naphthyl ether
Name: 2-phenylmethoxynaphthalene
Formula: C17H14O
Exact mass: 234.1044651
SMILES: C(OC1=CC=C2C=CC=CC2=C1)C1=CC=CC=C1
InChI: InChI=1S/C17H14O/c1-2-6-14(7-3-1)13-18-17-11-10-15-8-4-5-9-16(15)12-17/h1-12H,13H2
Instrument: Bruker maXis Impact
Instrument type: LC-ESI-QTOF
Ms type: MS2
Ion mode: POSITIVE
Ionization: ESI
Fragmentation mode: CID
Collision energy: 10 eV
Resolution: 35000
Column name: Acclaim RSLC C18 2.2um, 2.1x100mm, Thermo
Retention time: 12.770 min
Base peak: 255.1742
Precursor m/z: 235.1117
Precursor type: [M+H]+
m/z	relative intensity	assigned
217.1047	999	C17H13+
235.1106	247	C17H15O+
