Mass spectrum: Fluocinolone acetonide; LC-ESI-QTOF; MS2; CE: 40 eV; R=35000; [M+H]+
Name: Fluocinolone acetonide
Name: (1S,2S,4R,8S,9S,11S,12R,13S,19S)-12,19-difluoro-11-hydroxy-8-(2-hydroxyacetyl)-6,6,9,13-tetramethyl-5,7-dioxapentacyclo[10.8.0.02,9.04,8.013,18]icosa-14,17-dien-16-one
Formula: C24H30F2O6
Exact mass: 452.2010451
SMILES: CC1(C)O[C@@H]2C[C@H]3[C@@H]4C[C@H](F)C5=CC(=O)C=C[C@]5(C)[C@@]4(F)[C@@H](O)C[C@]3(C)[C@@]2(O1)C(=O)CO
InChI: InChI=1S/C24H30F2O6/c1-20(2)31-19-9-13-14-8-16(25)15-7-12(28)5-6-21(15,3)23(14,26)17(29)10-22(13,4)24(19,32-20)18(30)11-27/h5-7,13-14,16-17,19,27,29H,8-11H2,1-4H3/t13-,14-,16-,17-,19+,21-,22-,23-,24+/m0/s1
Instrument: Bruker maXis Impact
Instrument type: LC-ESI-QTOF
Ms type: MS2
Ion mode: POSITIVE
Ionization: ESI
Fragmentation mode: CID
Collision energy: 40 eV
Resolution: 35000
Column name: Acclaim RSLC C18 2.2um, 2.1x100mm, Thermo
Retention time: 8.724 min
Base peak: 435.2174
Precursor m/z: 453.2083
Precursor type: [M+H]+
m/z	relative intensity	assigned
115.0538	31	C9H7+
117.0701	32	C9H9+
119.0488	8	C8H7O+
119.0852	23	C9H11+
121.064	999	C8H9O+
122.0667	89	C7[13]CH9O+
123.0436	16	C7H7O2+
123.0608	25	C8H8F+
123.0796	13	C8H11O+
125.0596	17	C7H9O2+
125.0744	7	C8H10F+
127.0551	17	C7H8FO+
128.0607	27	C10H8+
129.0683	50	C10H9+
131.0477	21	C9H7O+
131.0846	46	C10H11+
132.0558	9	C9H8O+
132.0883	7	C9[13]CH11+
133.0639	118	C9H9O+
133.0996	11	C10H13+
134.0673	14	C8[13]CH9O+
135.0423	30	C8H7O2+
135.0596	15	C9H8F+
135.0794	217	C9H11O+
136.0828	28	C8[13]CH11O+
137.0587	51	C8H9O2+
137.0753	100	C9H10F+
138.0781	11	C8[13]CH10F+
139.0543	109	C8H8FO+
139.0749	41	C8H11O2+
140.0591	9	C7[13]CH8FO+
141.0529	15	C7H9O3+
141.0696	40	C11H9+
142.0757	15	C11H10+
143.0495	6	C10H7O+
143.0843	67	C11H11+
144.0561	18	C10H8O+
144.0866	8	C10[13]CH11+
145.0639	227	C10H9O+
145.0995	18	C11H13+
146.0527	11	C10H7F+
146.0675	40	C9[13]CH9O+
147.0793	253	C10H11O+
148.0827	34	C9[13]CH11O+
149.0587	36	C9H9O2+
149.0745	43	C7H11F2O+
149.0941	8	C10H13O+
150.0816	5	C6[13]CH11F2O+
151.0377	15	C8H7O3+
151.0554	8	C9H8FO+
151.0746	48	C9H11O2+
151.0904	6	C10H12F+
152.0607	6	C12H8+
153.0539	19	C8H9O3+
153.0695	57	C12H9+
153.0882	9	C9H13O2+
155.0554	11	C4H11O6+
155.0688	32	C8H11O3+
155.0839	25	C12H11+
156.0899	7	C12H12+
157.0632	58	C11H9O+
157.1008	14	C12H13+
158.0706	60	C11H10O+
159.079	331	C11H11O+
160.0645	8	C11H9F+
160.0833	43	C10[13]CH11O+
161.0586	65	C10H9O2+
161.074	20	C11H10F+
161.095	58	C11H13O+
162.0496	5	C7H8F2O2+
162.0638	17	C10H10O2+
163.0534	40	C13H7+
163.0737	49	C10H11O2+
163.0893	21	C11H12F+
163.1094	12	C11H15O+
164.0584	7	C12[13]CH7+
165.0698	117	C13H9+
165.0903	9	C10H13O2+
166.0741	17	C12[13]CH9+
167.0682	14	C10H9F2+
167.0849	30	C13H11+
168.0561	11	C12H8O+
169.0637	85	C12H9O+
169.1008	17	C13H13+
170.0701	14	C11[13]CH9O+
171.0792	406	C12H11O+
172.0835	54	C11[13]CH11O+
173.0589	25	C11H9O2+
173.0744	13	C12H10F+
173.0951	79	C12H13O+
174.0648	10	C11H10O2+
174.0976	11	C11[13]CH13O+
175.0541	10	C14H7+
175.0735	57	C11H11O2+
175.0888	10	C12H12F+
175.1081	7	C12H15O+
176.0789	9	C10[13]CH11O2+
177.0533	12	C10H9O3+
177.0699	95	C14H9+
177.0892	12	C11H13O2+
178.0761	22	C13[13]CH9+
179.0499	13	C10H8FO2+
179.0692	29	C10H11O3+
179.0849	67	C14H11+
180.0916	35	C14H12+
181.0643	106	C13H9O+
181.1005	29	C14H13+
182.0696	40	C13H10O+
183.0601	9	C13H8F+
183.0791	98	C13H11O+
183.116	26	C14H15+
184.0863	30	C13H12O+
185.0583	134	C12H9O2+
185.0748	25	C13H10F+
185.0946	129	C13H13O+
186.0636	23	C11[13]CH9O2+
186.1016	29	C12[13]CH13O+
187.0557	11	C12H8FO+
187.0741	117	C12H11O2+
187.1108	23	C13H15O+
188.0796	18	C11[13]CH11O2+
189.0698	73	C15H9+
189.0868	25	C12H13O2+
190.0784	21	C12H11FO+
191.0686	9	C11H11O3+
191.085	79	C15H11+
192.0897	23	C15H12+
193.0642	12	C14H9O+
193.0831	11	C12H11F2+
193.0994	77	C15H13+
194.0717	20	C14H10O+
194.1065	22	C14[13]CH13+
195.0793	123	C14H11O+
195.1156	83	C15H15+
196.087	74	C14H12O+
197.0585	14	C13H9O2+
197.0761	13	C14H10F+
197.095	202	C11H14FO2+
198.101	39	C10[13]CH14FO2+
199.0742	48	C13H11O2+
199.1108	61	C14H15O+
200.079	7	C12[13]CH11O2+
200.1137	14	C13[13]CH15O+
201.0695	11	C16H9+
201.091	24	C13H13O2+
201.1249	7	C14H17O+
202.0761	12	C16H10+
203.0716	22	C9H12FO4+
203.0836	50	C16H11+
204.0917	15	C15[13]CH11+
205.0654	193	C15H9O+
205.1003	81	C16H13+
206.0687	29	C14[13]CH9O+
206.1054	21	C15[13]CH13+
207.0801	28	C15H11O+
207.1159	41	C16H15+
208.0873	112	C15H12O+
208.1199	8	C15[13]CH15+
209.0947	241	C15H13O+
209.1327	22	C16H17+
210.1005	71	C15H14O+
211.0732	37	C14H11O2+
211.1107	301	C15H15O+
212.0807	16	C14H12O2+
212.1175	197	C15H16O+
213.0708	15	C14H10FO+
213.0912	39	C14H13O2+
213.1258	122	C15H17O+
214.0936	11	C14H14O2+
214.1289	26	C14[13]CH17O+
215.0855	40	C17H11+
215.1042	15	C14H15O2+
215.124	7	C12H17F2O+
216.0922	30	C17H12+
217.0992	32	C17H13+
218.0711	8	C16H10O+
218.1074	31	C17H14+
219.0803	29	C16H11O+
219.1153	52	C17H15+
220.0878	30	C16H12O+
220.1224	19	C17H16+
221.0958	156	C16H13O+
221.1311	37	C17H17+
222.1027	174	C16H14O+
223.0752	36	C15H11O2+
223.1105	501	C16H15O+
224.0815	26	C15H12O2+
224.1143	118	C15[13]CH15O+
225.0894	60	C15H13O2+
225.1266	134	C16H17O+
226.0797	8	C12H12F2O2+
226.0964	29	C15H14O2+
226.1303	22	C15[13]CH17O+
227.0863	18	C15H12FO+
227.1038	43	C15H15O2+
227.1429	26	C16H19O+
228.0937	22	C18H12+
229.101	47	C18H13+
230.1087	44	C18H14+
231.0789	42	C17H11O+
231.1162	89	C15H16FO+
232.0879	47	C17H12O+
232.1224	24	C14[13]CH16FO+
233.0951	86	C17H13O+
233.1309	92	C18H17+
234.1022	82	C17H14O+
234.1359	19	C17[13]CH17+
235.111	336	C17H15O+
235.1474	17	C18H19+
236.081	14	C16H12O2+
236.0943	9	C17H13F+
236.1158	109	C17H16O+
237.0906	48	C16H13O2+
237.1259	294	C17H17O+
238.0987	49	C16H14O2+
238.1306	71	C16[13]CH17O+
239.0872	18	C16H12FO+
239.1058	121	C16H15O2+
239.142	64	C17H19O+
240.0945	19	C16H13FO+
240.112	51	C16H16O2+
240.1455	6	C16[13]CH19O+
241.1001	41	C19H13+
241.1211	149	C16H17O2+
242.1056	21	C19H14+
242.1244	32	C15[13]CH17O2+
243.0823	15	C12H13F2O3+
243.1171	97	C16H16FO+
244.0876	17	C18H12O+
244.1231	25	C15[13]CH16FO+
245.0958	39	C18H13O+
245.1323	60	C19H17+
246.1027	138	C18H14O+
246.1354	22	C19H18+
247.0767	10	C14H12FO3+
247.1102	129	C18H15O+
248.0803	16	C17H12O2+
248.1187	135	C18H16O+
249.0909	38	C17H13O2+
249.1261	254	C18H17O+
250.0992	31	C17H14O2+
250.1319	85	C18H18O+
251.1054	148	C17H15O2+
251.1425	199	C18H19O+
252.1098	32	C16[13]CH15O2+
252.1449	45	C17[13]CH19O+
253.1034	47	C14H15F2O2+
253.1216	202	C17H17O2+
253.153	12	C18H21O+
254.1249	41	C16[13]CH17O2+
255.0818	8	C16H12FO2+
255.1165	66	C17H16FO+
255.1347	27	C17H19O2+
256.088	8	C19H12O+
256.1222	18	C16[13]CH16FO+
257.0961	28	C19H13O+
257.132	32	C14H19F2O2+
258.1034	92	C19H14O+
258.1383	5	C13[13]CH19F2O2+
259.1103	146	C19H15O+
260.083	9	C18H12O2+
260.1178	89	C19H16O+
261.0913	32	C18H13O2+
261.1266	406	C19H17O+
262.0976	73	C18H14O2+
262.1306	96	C18[13]CH17O+
263.1046	81	C18H15O2+
263.1419	170	C19H19O+
264.1116	54	C18H16O2+
264.1458	54	C18[13]CH19O+
265.0872	9	C14H14FO4+
265.1212	79	C18H17O2+
265.1486	9	C9H23F2O6+
266.113	14	C15H16F2O2+
266.1247	15	C17[13]CH17O2+
267.1174	25	C18H16FO+
267.1358	71	C18H19O2+
268.1135	9	C11H18F2O5+
268.1415	17	C17[13]CH19O2+
269.0959	10	C20H13O+
269.1335	28	C21H17+
269.1606	7	C12H23F2O4+
270.1367	6	C20[13]CH17+
271.1123	30	C20H15O+
271.1481	22	C21H19+
272.1164	16	C20H16O+
273.1262	215	C20H17O+
274.0975	39	C19H14O2+
274.1307	55	C19[13]CH17O+
275.1054	56	C19H15O2+
275.1257	13	C17H17F2O+
275.1435	19	C20H19O+
276.1138	87	C19H16O2+
276.148	9	C20H20O+
277.1216	187	C19H17O2+
277.1572	23	C20H21O+
278.0928	8	C18H14O3+
278.1268	109	C19H18O2+
278.1644	11	C20H22O+
279.1373	269	C19H19O2+
279.1721	28	C20H23O+
280.1114	19	C12H18F2O5+
280.1406	46	C18[13]CH19O2+
280.171	6	C10H26F2O6+
281.0976	5	C18H14FO2+
281.1325	88	C22H17+
281.1538	27	C19H21O2+
282.1121	7	C14H18O6+
282.1355	17	C21[13]CH17+
283.1137	24	C15H17F2O3+
283.142	9	C22H19+
284.1169	12	C21H16O+
285.1147	5	C11H19F2O6+
285.1297	10	C15H19F2O3+
286.0989	34	C20H14O2+
286.1362	8	C18H19FO2+
287.1024	11	C19[13]CH14O2+
288.112	6	C20H16O2+
289.0846	8	C19H13O3+
289.0969	10	C23H13+
289.1221	64	C20H17O2+
289.1529	6	C21H21O+
290.092	5	C19H14O3+
290.1257	22	C19[13]CH17O2+
291.1057	13	C13H17F2O5+
291.1375	169	C20H19O2+
291.1735	19	C21H23O+
292.1085	15	C19H16O3+
292.1394	33	C19[13]CH19O2+
293.1196	37	C13H19F2O5+
294.1266	18	C16H19FO4+
295.1296	51	C20H17F2+
296.1377	19	C20H18F2+
297.1265	19	C22H17O+
297.1448	21	C20H19F2+
298.1393	12	C16H20F2O3+
299.1425	38	C22H19O+
300.1468	7	C21[13]CH19O+
301.1218	68	C21H17O2+
302.1263	16	C20[13]CH17O2+
303.1255	6	C14H20FO6+
304.1117	30	C20H16O3+
305.1123	6	C19[13]CH16O3+
306.1201	5	C21H16F2+
307.1329	45	C20H19O3+
307.1756	8	C15H25F2O4+
308.1365	11	C19[13]CH19O3+
309.147	49	C20H21O3+
310.1526	14	C19[13]CH21O3+
311.1435	21	C16H23O6+
312.1556	5	C15[13]CH23O6+
313.1322	6	C23H18F+
313.1427	10	C20H19F2O+
317.1363	9	C19H19F2O2+
319.1328	63	C22H17F2+
320.1346	18	C21[13]CH17F2+
321.1308	10	C18H19F2O3+
327.1601	8	C17H24FO5+
329.1543	34	C20H22FO3+
331.1502	7	C20H21F2O2+
332.1528	8	C23H21FO+
337.1443	43	C21H21O4+
338.1468	14	C20[13]CH21O4+
339.1374	20	C24H19O2+
340.1416	9	C24H20O2+
347.1625	19	C24H21F2+
348.1592	5	C23[13]CH21F2+
355.1534	17	C21H23O5+
357.1494	13	C21H22FO4+
358.1509	6	C24H22O3+
359.144	10	C24H20FO2+
415.1911	7	C24H28FO5+
