Mass spectrum: Phantolide; LC-ESI-QTOF; MS2; CE: 40 eV; R=35000; [M+H]+
Name: Phantolide
Name: Ethanone, 1-(2,3-dihydro-1,1,2,3,3,6-hexamethyl-1H-inden-5-yl)-
Name: 1-(1,1,2,3,3,6-hexamethyl-2H-inden-5-yl)ethanone
Formula: C17H24O
Exact mass: 244.1827154
SMILES: CC1C(C)(C)C2=C(C=C(C(C)=O)C(C)=C2)C1(C)C
InChI: InChI=1S/C17H24O/c1-10-8-14-15(9-13(10)11(2)18)17(6,7)12(3)16(14,4)5/h8-9,12H,1-7H3
Instrument: Bruker maXis Impact
Instrument type: LC-ESI-QTOF
Ms type: MS2
Ion mode: POSITIVE
Ionization: ESI
Fragmentation mode: CID
Collision energy: 40 eV
Resolution: 35000
Column name: Acclaim RSLC C18 2.2um, 2.1x100mm, Thermo
Retention time: 13.083 min
Base peak: 344.2242
Precursor m/z: 245.19
Precursor type: [M+H]+
m/z	relative intensity	assigned
119.0845	609	C9H11+
147.0817	705	C10H11O+
175.1116	999	C12H15O+
