Mass spectrum: Prednisone; LC-ESI-QTOF; MS2; CE: 40 eV; R=35000; [M+H]+
Name: Prednisone
Name: (8S,9S,10R,13S,14S,17R)-17-hydroxy-17-(2-hydroxyacetyl)-10,13-dimethyl-6,7,8,9,12,14,15,16-octahydrocyclopenta[a]phenanthrene-3,11-dione
Formula: C21H26O5
Exact mass: 358.1780239
SMILES: [H][C@@]12CC[C@](O)(C(=O)CO)[C@@]1(C)CC(=O)[C@@]1([H])[C@@]2([H])CCC2=CC(=O)C=C[C@]12C
InChI: InChI=1S/C21H26O5/c1-19-7-5-13(23)9-12(19)3-4-14-15-6-8-21(26,17(25)11-22)20(15,2)10-16(24)18(14)19/h5,7,9,14-15,18,22,26H,3-4,6,8,10-11H2,1-2H3/t14-,15-,18+,19-,20-,21-/m0/s1
Instrument: Bruker maXis Impact
Instrument type: LC-ESI-QTOF
Ms type: MS2
Ion mode: POSITIVE
Ionization: ESI
Fragmentation mode: CID
Collision energy: 40 eV
Resolution: 35000
Column name: Acclaim RSLC C18 2.2um, 2.1x100mm, Thermo
Retention time: 7.219 min
Base peak: 359.185
Precursor m/z: 359.1853
Precursor type: [M+H]+
m/z	relative intensity	assigned
115.0534	40	C9H7+
117.0694	39	C9H9+
119.0834	70	C9H11+
121.0637	187	C8H9O+
122.0662	20	C7[13]CH9O+
123.0795	29	C8H11O+
125.0978	13	C8H13O+
128.0606	47	C10H8+
129.0688	52	C10H9+
130.0759	16	C10H10+
131.0479	45	C9H7O+
131.0847	79	C10H11+
132.0551	47	C9H8O+
133.0636	55	C9H9O+
133.0995	43	C10H13+
135.079	141	C9H11O+
136.0832	16	C8[13]CH11O+
137.0593	22	C8H9O2+
137.0937	12	C9H13O+
139.0729	14	C8H11O2+
141.0687	98	C11H9+
142.0755	25	C11H10+
143.0846	54	C11H11+
144.055	57	C10H8O+
145.0634	226	C10H9O+
145.1001	54	C11H13+
146.0705	96	C10H10O+
147.0793	999	C10H11O+
148.0832	88	C9[13]CH11O+
149.093	17	C10H13O+
151.0745	13	C9H11O2+
152.061	14	C12H8+
153.0681	47	C12H9+
153.0885	22	C9H13O2+
154.0771	16	C12H10+
155.0834	36	C12H11+
156.0911	13	C12H12+
157.0625	25	C11H9O+
157.101	27	C12H13+
158.0713	171	C11H10O+
159.079	497	C11H11O+
160.0843	85	C10[13]CH11O+
161.0577	14	C10H9O2+
161.0941	186	C11H13O+
162.0989	35	C10[13]CH13O+
163.074	65	C10H11O2+
165.068	32	C13H9+
166.074	19	C13H10+
167.0841	55	C13H11+
168.092	16	C13H12+
169.0625	59	C12H9O+
169.0987	67	C13H13+
170.071	30	C12H10O+
171.079	775	C12H11O+
172.084	118	C11[13]CH11O+
173.0946	357	C12H13O+
174.0985	54	C11[13]CH13O+
175.0739	19	C11H11O2+
177.0905	16	C11H13O2+
178.0774	20	C14H10+
179.0844	132	C14H11+
181.0635	44	C13H9O+
181.1002	37	C14H13+
182.0722	104	C13H10O+
183.0786	126	C13H11O+
183.1147	29	C14H15+
184.0866	72	C13H12O+
185.0611	32	C12H9O2+
185.0952	171	C13H13O+
186.1015	60	C13H14O+
187.0749	88	C12H11O2+
187.1112	162	C13H15O+
188.1152	22	C12[13]CH15O+
189.0918	52	C12H13O2+
190.0763	17	C15H10+
191.0844	33	C15H11+
192.0942	26	C15H12+
193.1007	64	C15H13+
194.0705	32	C14H10O+
194.1088	36	C15H14+
195.0793	152	C14H11O+
195.1155	39	C15H15+
196.087	92	C14H12O+
197.095	301	C14H13O+
198.1002	63	C13[13]CH13O+
199.1099	134	C14H15O+
200.1141	30	C13[13]CH15O+
201.1246	17	C14H17O+
203.084	14	C16H11+
204.0918	27	C16H12+
205.1002	38	C16H13+
206.071	21	C15H10O+
206.1073	18	C16H14+
207.0786	62	C15H11O+
207.1146	35	C16H15+
208.0869	144	C15H12O+
209.0943	230	C15H13O+
209.1318	42	C16H17+
210.1021	141	C15H14O+
210.137	16	C16H18+
211.0757	16	C14H11O2+
211.1111	195	C15H15O+
212.1162	102	C15H16O+
213.0895	15	C14H13O2+
213.1248	106	C15H17O+
214.1298	19	C14[13]CH17O+
215.0875	12	C17H11+
215.1055	37	C14H15O2+
216.0924	15	C17H12+
217.1033	20	C17H13+
219.0798	32	C16H11O+
219.1158	62	C17H15+
220.0872	58	C16H12O+
221.0947	225	C16H13O+
221.1295	36	C17H17+
222.1024	388	C16H14O+
223.1094	269	C16H15O+
224.0826	33	C15H12O2+
224.1179	67	C15[13]CH15O+
225.0907	29	C15H13O2+
225.1251	163	C16H17O+
226.1039	15	C15H14O2+
226.1302	43	C15[13]CH17O+
227.1053	30	C15H15O2+
227.142	113	C16H19O+
228.1454	15	C15[13]CH19O+
229.1011	16	C18H13+
230.1099	24	C18H14+
231.0837	31	C17H11O+
231.1161	23	C18H15+
232.0856	24	C17H12O+
232.1224	17	C18H16+
233.0953	66	C17H13O+
233.1329	18	C18H17+
234.1007	83	C17H14O+
234.1357	14	C18H18+
235.1117	149	C17H15O+
235.144	14	C18H19+
236.1175	74	C17H16O+
237.0901	16	C16H13O2+
237.1262	313	C17H17O+
238.0987	44	C16H14O2+
238.1321	111	C17H18O+
239.105	44	C16H15O2+
239.1415	148	C17H19O+
240.1109	35	C16H16O2+
240.1481	36	C16[13]CH19O+
241.1256	15	C16H17O2+
243.1169	20	C19H15+
244.1214	15	C19H16+
245.095	43	C18H13O+
245.1322	15	C19H17+
246.1006	72	C18H14O+
247.1098	79	C18H15O+
247.147	22	C19H19+
248.1182	136	C18H16O+
248.1502	13	C19H20+
249.1264	255	C18H17O+
250.0968	18	C17H14O2+
250.1324	69	C17[13]CH17O+
251.1419	76	C18H19O+
252.1484	17	C17[13]CH19O+
253.1218	71	C17H17O2+
253.1586	37	C18H21O+
255.1386	33	C17H19O2+
257.0939	15	C19H13O+
259.1128	23	C19H15O+
259.1524	13	C13H23O5+
260.1192	45	C19H16O+
261.1255	47	C19H17O+
262.1328	101	C19H18O+
263.1038	14	C18H15O2+
263.1428	129	C19H19O+
264.112	15	C18H16O2+
264.1484	87	C19H20O+
265.1219	29	C18H17O2+
265.1579	198	C19H21O+
266.1256	16	C18H18O2+
266.1608	35	C18[13]CH21O+
267.1378	47	C18H19O2+
267.1684	17	C19H23O+
268.1415	13	C17[13]CH19O2+
269.1506	13	C18H21O2+
272.1175	49	C20H16O+
275.1436	18	C20H19O+
276.1484	12	C20H20O+
277.1221	27	C19H17O2+
277.1588	41	C20H21O+
278.1313	18	C19H18O2+
278.1609	13	C19[13]CH21O+
279.1368	15	C19H19O2+
280.1472	20	C19H20O2+
281.1524	25	C19H21O2+
282.1612	31	C19H22O2+
290.1277	25	C20H18O2+
292.1415	33	C20H20O2+
293.1524	26	C20H21O2+
