Mass spectrum: 4-(Dimethylamino)pyridine; LC-ESI-QTOF; MS2; CE: 20 eV; R=35000; [M+H]+
Name: 4-(Dimethylamino)pyridine
Name: 4-Dimethylaminopyridine
Name: N,N-dimethylpyridin-4-amine
Formula: C7H10N2
Exact mass: 122.0843983
SMILES: CN(C)C1=CC=NC=C1
InChI: InChI=1S/C7H10N2/c1-9(2)7-3-5-8-6-4-7/h3-6H,1-2H3
Instrument: Bruker maXis Impact
Instrument type: LC-ESI-QTOF
Ms type: MS2
Ion mode: POSITIVE
Ionization: ESI
Fragmentation mode: CID
Collision energy: 20 eV
Resolution: 35000
Column name: Acclaim RSLC C18 2.2um, 2.1x100mm, Thermo
Retention time: 2.361 min
Base peak: 123.0911
Precursor m/z: 123.0917
Precursor type: [M+H]+
m/z	relative intensity	assigned
123.0912	999	C7H11N2+
124.0948	117	C6[13]CH11N2+
