Mass spectrum: 3,4-Dichlorophenylurea; LC-ESI-QTOF; MS2; CE: 10 eV; R=35000; [M+H]+
Name: 3,4-Dichlorophenylurea
Name: 1-(3,4-Dichlorophenyl)urea
Name: (3,4-dichlorophenyl)urea
Formula: C7H6Cl2N2O
Exact mass: 203.9857182
SMILES: NC(=O)NC1=CC(Cl)=C(Cl)C=C1
InChI: InChI=1S/C7H6Cl2N2O/c8-5-2-1-4(3-6(5)9)11-7(10)12/h1-3H,(H3,10,11,12)
Instrument: Bruker maXis Impact
Instrument type: LC-ESI-QTOF
Ms type: MS2
Ion mode: POSITIVE
Ionization: ESI
Fragmentation mode: CID
Collision energy: 10 eV
Resolution: 35000
Column name: Acclaim RSLC C18 2.2um, 2.1x100mm, Thermo
Retention time: 7.946 min
Base peak: 204.9918
Precursor m/z: 204.993
Precursor type: [M+H]+
m/z	relative intensity	assigned
127.017	48	C6H6ClN+
129.0139	9	C6H6[37]ClN+
159.971	14	C6H4Cl2N+
161.9655	8	C6H4Cl[37]ClN+
161.9858	146	C6H6Cl2N+
162.9878	14	C5[13]CH6Cl2N+
163.9831	82	C6H6Cl[37]ClN+
187.9654	20	C7H4Cl2NO+
189.9616	12	C7H4Cl[37]ClNO+
204.9919	999	C7H7Cl2N2O+
205.9944	78	C6[13]CH7Cl2N2O+
206.9884	534	C7H7Cl[37]ClN2O+
