Mass spectrum: 3,4-Dichlorophenylurea; LC-ESI-QTOF; MS2; CE: 40 eV; R=35000; [M+H]+
Name: 3,4-Dichlorophenylurea
Name: 1-(3,4-Dichlorophenyl)urea
Name: (3,4-dichlorophenyl)urea
Formula: C7H6Cl2N2O
Exact mass: 203.9857182
SMILES: NC(=O)NC1=CC(Cl)=C(Cl)C=C1
InChI: InChI=1S/C7H6Cl2N2O/c8-5-2-1-4(3-6(5)9)11-7(10)12/h1-3H,(H3,10,11,12)
Instrument: Bruker maXis Impact
Instrument type: LC-ESI-QTOF
Ms type: MS2
Ion mode: POSITIVE
Ionization: ESI
Fragmentation mode: CID
Collision energy: 40 eV
Resolution: 35000
Column name: Acclaim RSLC C18 2.2um, 2.1x100mm, Thermo
Retention time: 7.935 min
Base peak: 204.9921
Precursor m/z: 204.993
Precursor type: [M+H]+
m/z	relative intensity	assigned
125.002	48	C6H4ClN+
127.0174	999	C6H6ClN+
128.0208	108	C5[13]CH6ClN+
129.0142	357	C6H6[37]ClN+
130.0159	16	C7H2N2O+
132.9595	85	C5H3Cl2+
134.9574	37	C5H3Cl[37]Cl+
144.9598	14	C6H3Cl2+
159.9707	53	C6H4Cl2N+
161.9672	37	C6H4Cl[37]ClN+
172.965	20	C6H3Cl2N2+
174.9638	19	C6H3Cl[37]ClN2+
