Mass spectrum: Celestolide; LC-ESI-QTOF; MS2; CE: 40 eV; R=35000; [M+H]+
Name: Celestolide
Name: 1-(6-tert-butyl-1,1-dimethyl-2,3-dihydroinden-4-yl)ethanone
Formula: C17H24O
Exact mass: 244.1827154
SMILES: CC(=O)C1=C2CCC(C)(C)C2=CC(=C1)C(C)(C)C
InChI: InChI=1S/C17H24O/c1-11(18)14-9-12(16(2,3)4)10-15-13(14)7-8-17(15,5)6/h9-10H,7-8H2,1-6H3
Instrument: Bruker maXis Impact
Instrument type: LC-ESI-QTOF
Ms type: MS2
Ion mode: POSITIVE
Ionization: ESI
Fragmentation mode: CID
Collision energy: 40 eV
Resolution: 35000
Column name: Acclaim RSLC C18 2.2um, 2.1x100mm, Thermo
Retention time: 13.083 min
Base peak: 344.2242
Precursor m/z: 245.19
Precursor type: [M+H]+
m/z	relative intensity	assigned
119.0845	609	C9H11+
147.0817	705	C10H11O+
175.1116	999	C12H15O+
