Mass spectrum: Diuron; LC-ESI-QTOF; MS2; CE: 20 eV; R=35000; [M+H]+
Name: Diuron
Name: 3-(3,4-dichlorophenyl)-1,1-dimethylurea
Formula: C9H10Cl2N2O
Exact mass: 232.0170183
SMILES: CN(C)C(=O)NC1=CC=C(Cl)C(Cl)=C1
InChI: InChI=1S/C9H10Cl2N2O/c1-13(2)9(14)12-6-3-4-7(10)8(11)5-6/h3-5H,1-2H3,(H,12,14)
Instrument: Bruker maXis Impact
Instrument type: LC-ESI-QTOF
Ms type: MS2
Ion mode: POSITIVE
Ionization: ESI
Fragmentation mode: CID
Collision energy: 20 eV
Resolution: 35000
Column name: Acclaim RSLC C18 2.2um, 2.1x100mm, Thermo
Retention time: 8.597 min
Base peak: 233.0242
Precursor m/z: 233.0243
Precursor type: [M+H]+
m/z	relative intensity	assigned
132.9603	9	C5H3Cl2+
149.0156	7	C9H6Cl+
151.0316	8	C9H8Cl+
152.9968	9	C7H4ClNO+
159.9706	132	C6H4Cl2N+
160.9744	10	C5[13]CH4Cl2N+
161.9674	73	C6H4Cl[37]ClN+
187.9653	134	C7H4Cl2NO+
188.9681	10	C6[13]CH4Cl2NO+
189.9627	87	C7H4Cl[37]ClNO+
233.024	999	C9H11Cl2N2O+
234.0265	94	C8[13]CH11Cl2N2O+
235.0211	592	C9H11Cl[37]ClN2O+
