Mass spectrum: Triclocarban; LC-ESI-QTOF; MS2; CE: 40 eV; R=35000; [M+H]+
Name: Triclocarban
Name: 1-(4-chlorophenyl)-3-(3,4-dichlorophenyl)urea
Formula: C13H9Cl3N2O
Exact mass: 313.9780459
SMILES: ClC1=CC=C(NC(=O)NC2=CC(Cl)=C(Cl)C=C2)C=C1
InChI: InChI=1S/C13H9Cl3N2O/c14-8-1-3-9(4-2-8)17-13(19)18-10-5-6-11(15)12(16)7-10/h1-7H,(H2,17,18,19)
Instrument: Bruker maXis Impact
Instrument type: LC-ESI-QTOF
Ms type: MS2
Ion mode: POSITIVE
Ionization: ESI
Fragmentation mode: CID
Collision energy: 40 eV
Resolution: 35000
Column name: Acclaim RSLC C18 2.2um, 2.1x100mm, Thermo
Retention time: 11.949 min
Base peak: 279.1584
Precursor m/z: 314.9853
Precursor type: [M+H]+
m/z	relative intensity	assigned
126.0094	198	C6H5ClN+
127.0172	999	C6H6ClN+
128.0063	25	C6H5[37]ClN+
128.0237	178	C6H7ClN+
129.0142	255	C6H6[37]ClN+
130.0221	48	C6H7[37]ClN+
154.0046	46	C7H5ClNO+
159.9707	113	C6H4Cl2N+
161.9663	73	C6H4Cl[37]ClN+
161.986	161	C9H3ClO+
163.9822	57	C9H3[37]ClO+
