Mass spectrum: Fluoxastrobin; LC-ESI-QTOF; MS2; CE: 50 eV; R=35000; [M+H]+
Name: Fluoxastrobin
Name: (E)-1-[2-[6-(2-chlorophenoxy)-5-fluoropyrimidin-4-yl]oxyphenyl]-1-(5,6-dihydro-1,4,2-dioxazin-3-yl)-N-methoxymethanimine
Formula: C21H16ClFN4O5
Exact mass: 458.0793255
SMILES: CO\N=C(\C1=NOCCO1)C1=C(OC2=C(F)C(OC3=C(Cl)C=CC=C3)=NC=N2)C=CC=C1
InChI: InChI=1S/C21H16ClFN4O5/c1-28-26-18(21-27-30-11-10-29-21)13-6-2-4-8-15(13)31-19-17(23)20(25-12-24-19)32-16-9-5-3-7-14(16)22/h2-9,12H,10-11H2,1H3/b26-18+
Instrument: Bruker maXis Impact
Instrument type: LC-ESI-QTOF
Ms type: MS2
Ion mode: POSITIVE
Ionization: ESI
Fragmentation mode: CID
Collision energy: 50 eV
Resolution: 35000
Column name: Acclaim RSLC C18 2.2um, 2.1x100mm, Thermo
Retention time: 9.999 min
Base peak: 459.087
Precursor m/z: 459.0866
Precursor type: [M+H]+
m/z	relative intensity	assigned
110.9989	6	C4FN2O+
119.0357	8	C5H3N4+
120.0432	18	C5H4N4+
122.0393	17	C7H5FN+
128.0013	5	C4H3ClN3+
129.0082	11	C7HN2O+
129.0438	42	C8H5N2+
130.0278	34	ClH7N4O2+
130.0488	5	C7[13]CH5N2+
132.0231	6	H7[37]ClN4O2+
132.0433	6	C6H4N4+
133.0314	15	C8H4FN+
134.039	15	C8H5FN+
138.0095	153	C4H7ClO3+
138.9933	18	C5H2ClN3+
139.0118	10	C3[13]CH7ClO3+
140.0063	40	C4H7[37]ClO3+
140.9897	10	C7H3ClF+
142.0393	5	C4H11ClO3+
144.0306	16	C2H7FNO5+
144.0542	6	C2H9FN2O4+
145.0385	81	C5H7NO4+
146.0223	22	C6H2N4O+
146.0418	6	C4[13]CH7NO4+
147.0337	10	C2H9ClFN2O2+
148.0407	6	C5H7FNO3+
149.0263	6	C11H3N+
149.0492	5	C2H11ClFN2O2+
150.0339	189	C11H4N+
151.0044	8	CH7ClFNO4+
151.0377	15	C10[13]CH4N+
154.0388	13	ClFH10N3O3+
154.9883	5	C5H2ClN3O+
157.039	7	ClFH11N2O4+
159.0344	16	C9H4FN2+
160.0254	15	C2H9ClN2O4+
160.0416	17	C3H10ClFN2O2+
161.0326	35	C2H10ClN2O4+
162.0374	22	C3H6N4O4+
163.0043	16	C2H7ClFNO4+
163.0476	12	C2H12ClN2O4+
164.033	43	C6H4N4O2+
165.0018	5	C2H7[37]ClFNO4+
165.0421	6	C2H12[37]ClN2O4+
167.9998	50	C5H6ClFO3+
169.0378	5	C4H8FNO5+
169.9964	14	C5H6[37]ClFO3+
170.0337	22	ClFH10N3O4+
174.0443	9	C8H11ClO2+
175.029	39	C12H3N2+
176.036	13	C3H10ClFN2O3+
177.0444	6	C12H5N2+
178.0288	143	C12H4NO+
178.9995	23	C2H7ClFNO5+
179.0328	12	C11[13]CH4NO+
180.9966	5	C2H7[37]ClFNO5+
182.0338	6	CH10ClFN3O4+
183.9947	7	C6H2ClFN4+
186.0447	5	C9H11ClO2+
187.0294	5	C13H3N2+
187.0514	5	C7H8FN2O3+
188.0373	999	C13H4N2+
189.0407	86	C12[13]CH4N2+
190.041	18	C9H5FN3O+
191.0239	17	C12H3N2O+
196.0505	5	C11H6N3O+
198.0287	7	CH10ClFN3O5+
200.0406	6	C10H10ClFO+
202.0401	12	C4H11ClN2O5+
203.0247	8	C10H6ClN3+
204.0306	5	C4H11[37]ClN2O5+
204.0537	8	C7H11ClN3O2+
205.0399	30	C13H5N2O+
205.0597	20	C10H9N2O3+
212.047	5	C5H10ClFN4O2+
213.0328	6	C7H11ClFO4+
214.0053	16	C12H5ClNO+
214.04	11	C14H4N3+
215.046	5	C8H8FN2O4+
216.0556	7	C14H6N3+
218.0362	7	C15H6O2+
220.0266	10	C13H4N2O2+
223.0066	6	C13H2FNO2+
223.9906	8	C13HFO3+
225.0576	15	C17H7N+
228.0434	10	C7H12ClFNO4+
229.028	13	C8H8ClN3O3+
230.0351	66	C14H4N3O+
231.0192	6	C8H8[37]ClN3O3+
231.0388	9	C13[13]CH4N3O+
232.0536	5	C10H12ClFNO2+
240.0431	13	C15H4N4+
241.0506	12	C11H10FO5+
242.0574	6	C14H10O4+
244.0504	6	C15H6N3O+
246.0303	16	C11H7ClN4O+
251.0603	13	C18H7N2+
252.0674	13	C9H14ClFN2O3+
255.0304	9	C8H11ClFNO5+
257.0466	6	C12H6FN4O2+
263.0625	6	C18H12Cl+
266.0119	12	C14H3FN2O3+
274.0624	7	C18H10O3+
277.0631	10	C19H7N3+
278.0714	20	C19H8N3+
279.0553	16	C19H7N2O+
280.0633	27	C19H8N2O+
281.0671	6	C18[13]CH8N2O+
304.0516	10	C17H7FN3O2+
306.0673	325	C20H8N3O+
307.0701	51	C19[13]CH8N3O+
313.0409	5	C19H6FN2O2+
315.0331	21	C16H9ClFN2O2+
317.0309	5	C16H9[37]ClFN2O2+
318.0672	24	C18H10N2O4+
319.0677	5	C17[13]CH10N2O4+
331.0622	32	C18H8FN4O2+
332.0664	6	C17[13]CH8FN4O2+
340.0277	23	C19H10ClFO3+
341.0325	6	C18[13]CH10ClFO3+
342.0356	7	C19H10[37]ClFO3+
367.0391	12	C18H9ClFN4O2+
383.034	5	C18H9ClFN4O3+
