Mass spectrum: Pendimethalin; LC-ESI-QTOF; MS2; CE: 20 eV; R=35000; [M+H]+
Name: Pendimethalin
Name: 3,4-dimethyl-2,6-dinitro-N-pentan-3-ylaniline
Formula: C13H19N3O4
Exact mass: 281.1375561
SMILES: CCC(CC)NC1=C(C(C)=C(C)C=C1[N+]([O-])=O)[N+]([O-])=O
InChI: InChI=1S/C13H19N3O4/c1-5-10(6-2)14-12-11(15(17)18)7-8(3)9(4)13(12)16(19)20/h7,10,14H,5-6H2,1-4H3
Instrument: Bruker maXis Impact
Instrument type: LC-ESI-QTOF
Ms type: MS2
Ion mode: POSITIVE
Ionization: ESI
Fragmentation mode: CID
Collision energy: 20 eV
Resolution: 35000
Column name: Acclaim RSLC C18 2.2um, 2.1x100mm, Thermo
Retention time: 12.818 min
Base peak: 308.0041
Precursor m/z: 282.1448
Precursor type: [M+H]+
m/z	relative intensity	assigned
118.0523	17	C7H6N2+
119.059	11	C4H9NO3+
147.054	17	C8H7N2O+
148.0622	37	C8H8N2O+
149.0223	18	C6H3N3O2+
149.058	22	C7H7N3O+
150.0265	21	C6H4N3O2+
177.0527	22	C8H7N3O2+
178.0594	19	C8H8N3O2+
194.055	316	C8H8N3O3+
195.0617	95	C8H9N3O3+
212.0659	999	C8H10N3O4+
213.0689	123	C7[13]CH10N3O4+
252.1147	82	C12H16N2O4+
