Mass spectrum: Quinoxyfen; LC-ESI-QTOF; MS2; CE: 40 eV; R=35000; [M+H]+
Name: Quinoxyfen
Name: 5,7-dichloro-4-(4-fluorophenoxy)quinoline
Formula: C15H8Cl2FNO
Exact mass: 306.9966975
SMILES: FC1=CC=C(OC2=C3C(Cl)=CC(Cl)=CC3=NC=C2)C=C1
InChI: InChI=1S/C15H8Cl2FNO/c16-9-7-12(17)15-13(8-9)19-6-5-14(15)20-11-3-1-10(18)2-4-11/h1-8H
Instrument: Bruker maXis Impact
Instrument type: LC-ESI-QTOF
Ms type: MS2
Ion mode: POSITIVE
Ionization: ESI
Fragmentation mode: CID
Collision energy: 40 eV
Resolution: 35000
Column name: Acclaim RSLC C18 2.2um, 2.1x100mm, Thermo
Retention time: 12.790 min
Base peak: 308.0038
Precursor m/z: 308.004
Precursor type: [M+H]+
m/z	relative intensity	assigned
122.9986	23	C7H4Cl+
124.9955	5	C7H4[37]Cl+
150.0094	89	C8H5ClN+
151.0142	11	C7[13]CH5ClN+
152.0062	19	C8H5[37]ClN+
162.0094	234	C9H5ClN+
163.0127	20	C8[13]CH5ClN+
164.0064	41	C9H5[37]ClN+
166.0037	5	C8H5ClNO+
168.0197	27	C8H7ClNO+
169.9678	6	C8H4Cl2+
170.0171	6	C8H7[37]ClNO+
178.0147	18	C10H7ClO+
179.0121	10	C9H6ClNO+
180.0159	7	C10H7[37]ClO+
183.0587	10	C13H8F+
183.9706	17	C11HClO+
184.978	38	C8H5Cl2N+
185.9678	8	C11H[37]ClO+
186.9755	21	C8H5Cl[37]ClN+
190.064	5	C14H8N+
195.9703	9	C12HClO+
196.9786	999	C9H5Cl2N+
197.9816	81	C8[13]CH5Cl2N+
198.9757	562	C9H5Cl[37]ClN+
199.9789	27	C9H6Cl2O+
208.0543	9	C14H7FN+
209.0626	41	C14H8FN+
210.0697	32	C14H9FN+
212.9732	19	C9H5Cl2NO+
213.9815	586	C9H6Cl2NO+
214.9845	49	C8[13]CH6Cl2NO+
215.9787	291	C9H6Cl[37]ClNO+
216.9815	17	C15H2Cl+
217.0204	14	C13H7ClF+
219.0227	13	C15H4FO+
225.033	26	C14H8ClN+
226.04	9	C14H9ClN+
227.0299	5	C14H8[37]ClN+
228.9687	208	C15ClN+
229.9719	18	C14[13]CClN+
230.9659	107	C15[37]ClN+
231.9691	6	C15HClO+
237.0578	84	C15H8FNO+
238.0633	25	C15H9FNO+
243.0242	7	C14H7ClFN+
244.0319	92	C14H8ClFN+
245.0396	166	C14H9ClFN+
246.0398	23	C13[13]CH9ClFN+
247.0367	34	C14H9[37]ClFN+
253.0281	17	C15H8ClNO+
254.035	15	C15H9ClNO+
255.0253	8	C15H8[37]ClNO+
256.032	7	C15H9[37]ClNO+
260.0028	7	C14H8Cl2N+
272.0272	396	C15H8ClFNO+
273.0307	69	C14[13]CH8ClFNO+
274.0241	84	C15H8[37]ClFNO+
280.009	30	C14H9Cl2FN+
281.0104	5	C13[13]CH9Cl2FN+
282.0059	18	C14H9Cl[37]ClFN+
287.997	19	C15H8Cl2NO+
289.9948	15	C15H8Cl[37]ClNO+
308.004	543	C15H9Cl2FNO+
309.0071	91	C14[13]CH9Cl2FNO+
310.0012	313	C15H9Cl[37]ClFNO+
