Mass spectrum: Desisopropylatrazine; LC-ESI-QTOF; MS2; CE: Ramp 17.1-25.6 eV; R=35000; [M+H]+
Name: Desisopropylatrazine
Name: Deisopropylatrazine
Name: 6-chloro-2-N-ethyl-1,3,5-triazine-2,4-diamine
Formula: C5H8ClN5
Exact mass: 173.0468229
SMILES: CCNC1=NC(Cl)=NC(N)=N1
InChI: InChI=1S/C5H8ClN5/c1-2-8-5-10-3(6)9-4(7)11-5/h2H2,1H3,(H3,7,8,9,10,11)
Instrument: Bruker maXis Impact
Instrument type: LC-ESI-QTOF
Ms type: MS2
Ion mode: POSITIVE
Ionization: ESI
Fragmentation mode: CID
Collision energy: Ramp 17.1-25.6 eV
Resolution: 35000
Column name: Acclaim RSLC C18 2.2um, 2.1x100mm, Thermo
Retention time: 4.693 min
Base peak: 198.1351
Precursor m/z: 174.0541
Precursor type: [M+H]+
m/z	relative intensity	assigned
61.9786	10	CHClN+
68.024	120	C2H2N3+
71.0599	65	C3H7N2+
79.0054	95	CH4ClN2+
81.0025	25	CH4[37]ClN2+
96.0559	65	C4H6N3+
104.0018	40	C2H3ClN3+
105.9981	10	C2H3[37]ClN3+
110.0459	5	C3H4N5+
132.0323	294	C4H7ClN3+
133.0351	11	C3[13]CH7ClN3+
134.0294	54	C4H7[37]ClN3+
138.0771	64	C5H8N5+
146.0227	142	C3H5ClN5+
148.0198	32	C3H5[37]ClN5+
174.0544	999	C5H9ClN5+
175.0565	64	C4[13]CH9ClN5+
176.0509	283	C5H9[37]ClN5+
