Mass spectrum: Pethoxamid; LC-ESI-QTOF; MS2; CE: 40 eV; R=35000; [M+H]+
Name: Pethoxamid
Name: 2-chloro-N-(2-ethoxyethyl)-N-(2-methyl-1-phenylprop-1-enyl)acetamide
Formula: C16H22ClNO2
Exact mass: 295.1339066
SMILES: CCOCCN(C(=O)CCl)C(=C(C)C)C1=CC=CC=C1
InChI: InChI=1S/C16H22ClNO2/c1-4-20-11-10-18(15(19)12-17)16(13(2)3)14-8-6-5-7-9-14/h5-9H,4,10-12H2,1-3H3
Instrument: Bruker maXis Impact
Instrument type: LC-ESI-QTOF
Ms type: MS2
Ion mode: POSITIVE
Ionization: ESI
Fragmentation mode: CID
Collision energy: 40 eV
Resolution: 35000
Column name: Acclaim RSLC C18 2.2um, 2.1x100mm, Thermo
Retention time: 10.180 min
Base peak: 296.1411
Precursor m/z: 296.1412
Precursor type: [M+H]+
m/z	relative intensity	assigned
115.0536	128	C9H7+
116.0612	115	C9H8+
117.0646	13	C8[13]CH8+
127.0526	5	C4H12ClO2+
128.0608	60	C4H13ClO2+
129.0689	276	C10H9+
130.0723	31	C9[13]CH9+
131.0846	999	C10H11+
132.0876	79	C9[13]CH11+
144.0792	5	C4H15ClNO2+
145.0631	8	C10H9O+
145.0873	7	C4H16ClNO2+
146.0946	9	C4H17ClNO2+
148.1102	9	C4H19ClNO2+
155.0589	12	C9H12Cl+
158.0945	7	C5H17ClNO2+
159.1022	6	C5H18ClNO2+
160.1108	61	C11H14N+
161.1146	6	C10[13]CH14N+
172.1104	5	C6H19ClNO2+
174.1263	20	C6H21ClNO2+
190.1214	5	C12H16NO+
220.1679	21	C14H22NO+
