Mass spectrum: Nicosulfuron; LC-ESI-QTOF; MS2; CE: 40 eV; R=35000; [M+H]+
Name: Nicosulfuron
Name: 2-[(4,6-dimethoxypyrimidin-2-yl)carbamoylsulfamoyl]-N,N-dimethylpyridine-3-carboxamide
Formula: C15H18N6O6S
Exact mass: 410.1008533
SMILES: COC1=CC(OC)=NC(NC(=O)NS(=O)(=O)C2=NC=CC=C2C(=O)N(C)C)=N1
InChI: InChI=1S/C15H18N6O6S/c1-21(2)13(22)9-6-5-7-16-12(9)28(24,25)20-15(23)19-14-17-10(26-3)8-11(18-14)27-4/h5-8H,1-4H3,(H2,17,18,19,20,23)
Instrument: Bruker maXis Impact
Instrument type: LC-ESI-QTOF
Ms type: MS2
Ion mode: POSITIVE
Ionization: ESI
Fragmentation mode: CID
Collision energy: 40 eV
Resolution: 35000
Column name: Acclaim RSLC C18 2.2um, 2.1x100mm, Thermo
Retention time: 6.718 min
Base peak: 411.1077
Precursor m/z: 411.1081
Precursor type: [M+H]+
m/z	relative intensity	assigned
139.0491	78	C6H7N2O2+
140.0518	6	C5[13]CH7N2O2+
156.075	94	C7H12N2S+
157.0593	116	C6H9N2O3+
157.0774	10	C6[13]CH12N2S+
158.0622	9	C5[13]CH9N2O3+
182.0549	999	C7H8N3O3+
183.0576	99	C6[13]CH8N3O3+
184.0589	7	C7H8N3O2[18]O+
213.0317	126	C6H7N5O2S+
214.034	13	C5[13]CH7N5O2S+
215.0287	5	C6H7N5O2[34]S+
259.0817	15	C4H15N6O5S+
