Mass spectrum: Pyraclostrobin; LC-ESI-QTOF; MS2; CE: Ramp 23.4-35.0 eV; R=35000; [M+H]+
Name: Pyraclostrobin
Name: methyl N-[2-[[1-(4-chlorophenyl)pyrazol-3-yl]oxymethyl]phenyl]-N-methoxycarbamate
Formula: C19H18ClN3O4
Exact mass: 387.0985837
SMILES: CON(C(=O)OC)C1=C(COC2=NN(C=C2)C2=CC=C(Cl)C=C2)C=CC=C1
InChI: InChI=1S/C19H18ClN3O4/c1-25-19(24)23(26-2)17-6-4-3-5-14(17)13-27-18-11-12-22(21-18)16-9-7-15(20)8-10-16/h3-12H,13H2,1-2H3
Instrument: Bruker maXis Impact
Instrument type: LC-ESI-QTOF
Ms type: MS2
Ion mode: POSITIVE
Ionization: ESI
Fragmentation mode: CID
Collision energy: Ramp 23.4-35.0 eV
Resolution: 35000
Column name: Acclaim RSLC C18 2.2um, 2.1x100mm, Thermo
Retention time: 11.239 min
Base peak: 388.1063
Precursor m/z: 388.1059
Precursor type: [M+H]+
m/z	relative intensity	assigned
75.0435	11	C3H7O2+
91.0543	10	C7H7+
104.0498	15	C7H6N+
105.0579	20	C7H7N+
106.0656	11	C7H8N+
107.0733	5	C7H9N+
109.0659	5	C4H12ClN+
117.0572	5	C8H7N+
118.0653	26	C8H8N+
119.0365	40	C7H5NO+
120.044	22	C7H6NO+
121.0645	7	C8H9O+
128.0487	6	C9H6N+
130.0282	7	C8H4NO+
132.044	90	C8H6NO+
133.0518	150	C8H7NO+
134.0594	73	C8H8NO+
135.0644	7	C7[13]CH8NO+
146.0591	11	C9H8NO+
148.0381	5	C2H11ClNO4+
149.0464	266	C8H7NO2+
150.0496	20	C7[13]CH7NO2+
151.0615	5	C2H14ClNO4+
162.0541	157	C9H8NO2+
163.0619	999	C9H9NO2+
164.069	414	C9H10NO2+
165.0725	31	C8[13]CH10NO2+
166.0849	10	C3H17ClNO4+
179.0569	12	C9H9NO3+
194.0806	208	C10H12NO3+
195.0836	22	C9[13]CH12NO3+
216.0649	6	C12H10NO3+
253.0521	10	C18H7NO+
261.0894	18	C16H11N3O+
296.0588	119	C16H11ClN3O+
297.0619	24	C15[13]CH11ClN3O+
298.056	38	C16H11[37]ClN3O+
324.0528	16	C17H11ClN3O2+
326.0504	5	C17H11[37]ClN3O2+
