Mass spectrum: Imidacloprid-guanidine; LC-ESI-QTOF; MS2; CE: 10 eV; R=35000; [M+H]+
Name: Imidacloprid-guanidine
Name: 1-(6-Chloro-pyridin-3-yl)methyl-2-iminoimidazolidine
Name: 1-[(6-chloropyridin-3-yl)methyl]-4,5-dihydroimidazol-2-amine
Formula: C9H11ClN4
Exact mass: 210.0672240
SMILES: NC1=NCCN1CC1=CN=C(Cl)C=C1
InChI: InChI=1S/C9H11ClN4/c10-8-2-1-7(5-13-8)6-14-4-3-12-9(14)11/h1-2,5H,3-4,6H2,(H2,11,12)
Instrument: Bruker maXis Impact
Instrument type: LC-ESI-QTOF
Ms type: MS2
Ion mode: POSITIVE
Ionization: ESI
Fragmentation mode: CID
Collision energy: 10 eV
Resolution: 35000
Column name: Acclaim RSLC C18 2.2um, 2.1x100mm, Thermo
Retention time: 3.320 min
Base peak: 211.0734
Precursor m/z: 211.0745
Precursor type: [M+H]+
m/z	relative intensity	assigned
126.0091	8	C7N3+
175.0959	9	C9H11N4+
211.0736	999	C9H12ClN4+
212.0761	84	C8[13]CH12ClN4+
213.0706	261	C9H12[37]ClN4+
