Mass spectrum: Picoxystrobin; LC-ESI-QTOF; MS2; CE: 50 eV; R=35000; [M+H]+
Name: Picoxystrobin
Name: methyl (E)-3-methoxy-2-[2-[[6-(trifluoromethyl)pyridin-2-yl]oxymethyl]phenyl]prop-2-enoate
Formula: C18H16F3NO4
Exact mass: 367.1031427
SMILES: CO\C=C(\C(=O)OC)C1=CC=CC=C1COC1=CC=CC(=N1)C(F)(F)F
InChI: InChI=1S/C18H16F3NO4/c1-24-11-14(17(23)25-2)13-7-4-3-6-12(13)10-26-16-9-5-8-15(22-16)18(19,20)21/h3-9,11H,10H2,1-2H3/b14-11+
Instrument: Bruker maXis Impact
Instrument type: LC-ESI-QTOF
Ms type: MS2
Ion mode: POSITIVE
Ionization: ESI
Fragmentation mode: CID
Collision energy: 50 eV
Resolution: 35000
Column name: Acclaim RSLC C18 2.2um, 2.1x100mm, Thermo
Retention time: 10.551 min
Base peak: 317.1653
Precursor m/z: 368.1104
Precursor type: [M+H]+
m/z	relative intensity	assigned
115.0539	222	C9H7+
116.0579	25	C8[13]CH7+
117.0693	144	C9H9+
118.0728	15	C8[13]CH9+
128.0611	13	C10H8+
129.0683	10	C10H9+
130.0406	129	C9H6O+
131.0477	52	C9H7O+
131.0847	6	C10H11+
132.0531	5	C8[13]CH7O+
145.064	999	C10H9O+
146.0694	126	C9[13]CH9O+
147.0772	15	C10H11O+
173.0585	11	C9H8F3+
177.09	12	C11H13O2+
