Mass spectrum: Methiocarb; LC-ESI-QTOF; MS2; CE: 30 eV; R=35000; [M+H]+
Name: Methiocarb
Name: (3,5-dimethyl-4-methylsulfanylphenyl) N-methylcarbamate
Formula: C11H15NO2S
Exact mass: 225.0823497
SMILES: CNC(=O)OC1=CC(C)=C(SC)C(C)=C1
InChI: InChI=1S/C11H15NO2S/c1-7-5-9(14-11(13)12-3)6-8(2)10(7)15-4/h5-6H,1-4H3,(H,12,13)
Instrument: Bruker maXis Impact
Instrument type: LC-ESI-QTOF
Ms type: MS2
Ion mode: POSITIVE
Ionization: ESI
Fragmentation mode: CID
Collision energy: 30 eV
Resolution: 35000
Column name: Acclaim RSLC C18 2.2um, 2.1x100mm, Thermo
Retention time: 9.380 min
Base peak: 226.0891
Precursor m/z: 226.0896
Precursor type: [M+H]+
m/z	relative intensity	assigned
121.064	999	C8H9O+
122.0714	591	C8H10O+
123.0759	68	C7[13]CH10O+
124.0797	5	C4H14NOS+
126.0487	5	C7H10S+
139.0192	5	C10H3O+
141.0718	5	C8H13S+
153.0352	29	C8H9OS+
154.0432	101	C11H6O+
155.0463	9	C10[13]CH6O+
169.0668	147	C9H13OS+
170.0698	18	C8[13]CH13OS+
