Mass spectrum: Thiamethoxam; LC-ESI-QTOF; MS2; CE: 20 eV; R=35000; [M+H]+
Name: Thiamethoxam
Name: Actara
Name: (NE)-N-[3-[(2-chloro-1,3-thiazol-5-yl)methyl]-5-methyl-1,3,5-oxadiazinan-4-ylidene]nitramide
Formula: C8H10ClN5O3S
Exact mass: 291.0192879
SMILES: CN1COCN(CC2=CN=C(Cl)S2)\C1=N\[N+]([O-])=O
InChI: InChI=1S/C8H10ClN5O3S/c1-12-4-17-5-13(8(12)11-14(15)16)3-6-2-10-7(9)18-6/h2H,3-5H2,1H3/b11-8+
Instrument: Bruker maXis Impact
Instrument type: LC-ESI-QTOF
Ms type: MS2
Ion mode: POSITIVE
Ionization: ESI
Fragmentation mode: CID
Collision energy: 20 eV
Resolution: 35000
Column name: Acclaim RSLC C18 2.2um, 2.1x100mm, Thermo
Retention time: 4.245 min
Base peak: 292.0264
Precursor m/z: 292.0266
Precursor type: [M+H]+
m/z	relative intensity	assigned
122.0703	19	C6H8N3+
131.9658	138	C4H3ClNS+
132.9687	7	C3[13]CH3ClNS+
133.9626	43	C4H3[37]ClNS+
151.0183	9	C8H6ClN+
152.0262	21	C8H7ClN+
174.9718	10	C3H2ClN5S+
180.0452	98	C7H8N4S+
181.0531	344	C4H11N3O3S+
182.0553	25	C3[13]CH11N3O3S+
183.0489	8	C4H11N3O3[34]S+
199.0637	10	C7H11N4OS+
210.056	97	C8H10N4OS+
211.064	999	C8H11N4OS+
212.0663	75	C7[13]CH11N4OS+
213.0598	20	C8H11N4O[34]S+
215.0147	5	C7H8ClN4S+
246.032	5	C8H11ClN4OS+
