Mass spectrum: Amidosulfuron; LC-ESI-QTOF; MS2; CE: 10 eV; R=35000; [M+H]+
Name: Amidosulfuron
Name: 1-(4,6-dimethoxypyrimidin-2-yl)-3-[methyl(methylsulfonyl)sulfamoyl]urea
Formula: C9H15N5O7S2
Exact mass: 369.0412898
SMILES: COC1=CC(OC)=NC(NC(=O)NS(=O)(=O)N(C)S(C)(=O)=O)=N1
InChI: InChI=1S/C9H15N5O7S2/c1-14(22(4,16)17)23(18,19)13-9(15)12-8-10-6(20-2)5-7(11-8)21-3/h5H,1-4H3,(H2,10,11,12,13,15)
Instrument: Bruker maXis Impact
Instrument type: LC-ESI-QTOF
Ms type: MS2
Ion mode: POSITIVE
Ionization: ESI
Fragmentation mode: CID
Collision energy: 10 eV
Resolution: 35000
Column name: Acclaim RSLC C18 2.2um, 2.1x100mm, Thermo
Retention time: 6.983 min
Base peak: 370.0484
Precursor m/z: 370.0486
Precursor type: [M+H]+
m/z	relative intensity	assigned
182.0552	16	C7H8N3O3+
199.0817	93	C8H13N3OS+
200.0838	10	C7[13]CH13N3OS+
236.0351	22	C8H12O6S+
261.0287	124	C9H11NO6S+
262.0344	14	C8[13]CH11NO6S+
279.0394	999	C9H13NO7S+
280.0409	102	C8[13]CH13NO7S+
281.0375	39	C9H13NO7[34]S+
370.0482	645	C9H16N5O7S2+
372.0461	59	C9H16N5O7S[34]S+
