Mass spectrum: Indoxacarb; LC-ESI-QTOF; MS2; CE: 10 eV; R=35000; [M+H]+
Name: Indoxacarb
Name: methyl (4aS)-7-chloro-2-[methoxycarbonyl-[4-(trifluoromethoxy)phenyl]carbamoyl]-3,5-dihydroindeno[1,2-e][1,3,4]oxadiazine-4a-carboxylate
Formula: C22H17ClF3N3O7
Exact mass: 527.0707122
SMILES: COC(=O)N(C(=O)N1CO[C@]2(CC3=CC(Cl)=CC=C3C2=N1)C(=O)OC)C1=CC=C(OC(F)(F)F)C=C1
InChI: InChI=1S/C22H17ClF3N3O7/c1-33-18(30)21-10-12-9-13(23)3-8-16(12)17(21)27-28(11-35-21)19(31)29(20(32)34-2)14-4-6-15(7-5-14)36-22(24,25)26/h3-9H,10-11H2,1-2H3/t21-/m0/s1
Instrument: Bruker maXis Impact
Instrument type: LC-ESI-QTOF
Ms type: MS2
Ion mode: POSITIVE
Ionization: ESI
Fragmentation mode: CID
Collision energy: 10 eV
Resolution: 35000
Column name: Acclaim RSLC C18 2.2um, 2.1x100mm, Thermo
Retention time: 11.599 min
Base peak: 528.0775
Precursor m/z: 528.078
Precursor type: [M+H]+
m/z	relative intensity	assigned
150.0092	11	C2H8ClFO4+
168.0201	7	C6H3FN3O2+
190.0048	10	C8HFN3O2+
196.0142	5	C10H2N3O2+
218.0412	24	C12H6F2NO+
223.0146	6	C9H6ClN3O2+
249.0419	70	C6H13ClFNO6+
250.0442	7	C5[13]CH13ClFNO6+
251.0389	17	C6H13[37]ClFNO6+
267.0522	20	C6H15ClFNO7+
269.0498	5	C6H15[37]ClFNO7+
291.0582	7	C16H13ClFO2+
293.0317	146	C13H10ClN2O4+
294.0347	25	C12[13]CH10ClN2O4+
295.0292	47	C13H10[37]ClN2O4+
325.0576	5	C21H7F2N2+
484.085	6	C21H18ClF3N3O5+
496.0521	22	C21H14ClF3N3O6+
498.0497	7	C21H14[37]ClF3N3O6+
528.0779	999	C22H18ClF3N3O7+
529.0812	236	C21[13]CH18ClF3N3O7+
530.0756	296	C22H18[37]ClF3N3O7+
