Mass spectrum: Quinmerac; LC-ESI-QTOF; MS2; CE: 30 eV; R=35000; [M+H]+
Name: Quinmerac
Name: 7-chloro-3-methylquinoline-8-carboxylic acid
Formula: C11H8ClNO2
Exact mass: 221.0243562
SMILES: CC1=CC2=C(N=C1)C(C(O)=O)=C(Cl)C=C2
InChI: InChI=1S/C11H8ClNO2/c1-6-4-7-2-3-8(12)9(11(14)15)10(7)13-5-6/h2-5H,1H3,(H,14,15)
Instrument: Bruker maXis Impact
Instrument type: LC-ESI-QTOF
Ms type: MS2
Ion mode: POSITIVE
Ionization: ESI
Fragmentation mode: CID
Collision energy: 30 eV
Resolution: 35000
Column name: Acclaim RSLC C18 2.2um, 2.1x100mm, Thermo
Retention time: 4.853 min
Base peak: 222.031
Precursor m/z: 222.0316
Precursor type: [M+H]+
m/z	relative intensity	assigned
140.0483	149	C10H6N+
141.0561	229	C10H7N+
142.0593	25	C9[13]CH7N+
149.0139	146	C9H6Cl+
150.0171	13	C8[13]CH6Cl+
151.0109	37	C9H6[37]Cl+
176.025	230	C10H7ClN+
177.0278	22	C9[13]CH7ClN+
178.0217	60	C10H7[37]ClN+
194.0357	85	C10H9ClNO+
195.0388	10	C9[13]CH9ClNO+
196.033	24	C10H9[37]ClNO+
204.0203	999	C11H7ClNO+
205.0231	105	C10[13]CH7ClNO+
206.0172	242	C11H7[37]ClNO+
207.0211	18	C11H8ClO2+
222.0307	124	C11H9ClNO2+
223.0332	13	C10[13]CH9ClNO2+
224.0278	35	C11H9[37]ClNO2+
