Mass spectrum: Propoxycarbazone; LC-ESI-QTOF; MS2; CE: 10 eV; R=35000; [M+H]+
Name: Propoxycarbazone
Name: methyl 2-[(4-methyl-5-oxo-3-propoxy-1,2,4-triazole-1-carbonyl)sulfamoyl]benzoate
Formula: C15H18N4O7S
Exact mass: 398.0896199
SMILES: CCCOC1=NN(C(=O)NS(=O)(=O)C2=CC=CC=C2C(=O)OC)C(=O)N1C
InChI: InChI=1S/C15H18N4O7S/c1-4-9-26-14-16-19(15(22)18(14)2)13(21)17-27(23,24)11-8-6-5-7-10(11)12(20)25-3/h5-8H,4,9H2,1-3H3,(H,17,21)
Instrument: Bruker maXis Impact
Instrument type: LC-ESI-QTOF
Ms type: MS2
Ion mode: POSITIVE
Ionization: ESI
Fragmentation mode: CID
Collision energy: 10 eV
Resolution: 35000
Column name: Acclaim RSLC C18 2.2um, 2.1x100mm, Thermo
Retention time: 5.728 min
Base peak: 212.1504
Precursor m/z: 399.0969
Precursor type: [M+H]+
m/z	relative intensity	assigned
116.0464	63	C5H8O3+
158.0913	999	C6H12N3O2+
159.0955	87	C5[13]CH12N3O2+
199.0047	882	C14HNO+
200.009	116	C13[13]CHNO+
212.146	79	C15H18N+
215.1124	87	C7H19O7+
325.0198	78	C14H5N4O6+
367.0703	977	C14H15N4O6S+
368.0736	173	C13[13]CH15N4O6S+
399.0944	349	C15H19N4O7S+
400.1074	68	C14[13]CH19N4O7S+
