Mass spectrum: Dimethachlor ESA; LC-ESI-QTOF; MS2; CE: 10 eV; R=35000; [M+H]+
Name: Dimethachlor ESA
Name: 2-[(2,6-Dimethylphenyl)(2-methoxyethyl)amino]-2-oxoethanesulfonic acid
Name: 2-[N-(2-methoxyethyl)-2,6-dimethylanilino]-2-oxoethanesulfonic acid
Formula: C13H19NO5S
Exact mass: 301.0983937
SMILES: COCCN(C(=O)CS(O)(=O)=O)C1=C(C)C=CC=C1C
InChI: InChI=1S/C13H19NO5S/c1-10-5-4-6-11(2)13(10)14(7-8-19-3)12(15)9-20(16,17)18/h4-6H,7-9H2,1-3H3,(H,16,17,18)
Instrument: Bruker maXis Impact
Instrument type: LC-ESI-QTOF
Ms type: MS2
Ion mode: POSITIVE
Ionization: ESI
Fragmentation mode: CID
Collision energy: 10 eV
Resolution: 35000
Column name: Acclaim RSLC C18 2.2um, 2.1x100mm, Thermo
Retention time: 5.728 min
Base peak: 212.1504
Precursor m/z: 302.1057
Precursor type: [M+H]+
m/z	relative intensity	assigned
261.0034	13	C12H7NO4S+
270.079	999	C12H16NO4S+
271.0818	177	C11[13]CH16NO4S+
272.0753	50	C12H16NO4[34]S+
302.105	624	C13H20NO5S+
303.1088	120	C12[13]CH20NO5S+
304.1031	33	C13H20NO5[34]S+
