Mass spectrum: Tebuconazole; LC-ESI-QTOF; MS2; CE: 50 eV; R=35000; [M+H]+
Name: Tebuconazole
Name: 1-(4-chlorophenyl)-4,4-dimethyl-3-(1,2,4-triazol-1-ylmethyl)pentan-3-ol
Formula: C16H22ClN3O
Exact mass: 307.1451400
SMILES: CC(C)(C)C(O)(CCC1=CC=C(Cl)C=C1)CN1C=NC=N1
InChI: InChI=1S/C16H22ClN3O/c1-15(2,3)16(21,10-20-12-18-11-19-20)9-8-13-4-6-14(17)7-5-13/h4-7,11-12,21H,8-10H2,1-3H3
Instrument: Bruker maXis Impact
Instrument type: LC-ESI-QTOF
Ms type: MS2
Ion mode: POSITIVE
Ionization: ESI
Fragmentation mode: CID
Collision energy: 50 eV
Resolution: 35000
Column name: Acclaim RSLC C18 2.2um, 2.1x100mm, Thermo
Retention time: 10.902 min
Base peak: 308.1524
Precursor m/z: 308.1524
Precursor type: [M+H]+
m/z	relative intensity	assigned
115.0536	222	C9H7+
116.061	144	C9H8+
117.0636	13	C8[13]CH8+
125.0144	999	C7H6Cl+
126.0177	83	C6[13]CH6Cl+
127.0114	330	C7H6[37]Cl+
128.0147	16	C5H5ClN2+
128.0612	37	C10H8+
129.0685	76	C10H9+
130.0765	82	C10H10+
131.0797	12	C9[13]CH10+
137.0136	17	C9HN2+
139.0298	42	C8H8Cl+
140.0328	5	C7[13]CH8Cl+
141.0276	12	C8H8[37]Cl+
143.0846	8	C11H11+
144.0933	14	C11H12+
149.0132	13	C10HN2+
150.0227	7	C9H7Cl+
151.0297	105	C9H8Cl+
152.0331	9	C8[13]CH8Cl+
153.0267	34	C9H8[37]Cl+
155.0599	7	C10H7N2+
165.0455	23	C10H10Cl+
167.0431	6	C10H10[37]Cl+
