Mass spectrum: Metazachlor BH479-12; LC-ESI-QTOF; MS2; CE: 10 eV; R=35000; [M+H]+
Name: Metazachlor BH479-12
Formula: C14H13N3O5
Exact mass: 303.0855205
SMILES: CC1=C(N(CN2C=CC=N2)C(=O)C(O)=O)C(=CC=C1)C(O)=O
InChI: InChI=1S/C14H13N3O5/c1-9-4-2-5-10(13(19)20)11(9)17(12(18)14(21)22)8-16-7-3-6-15-16/h2-7H,8H2,1H3,(H,19,20)(H,21,22)
Instrument: Bruker maXis Impact
Instrument type: LC-ESI-QTOF
Ms type: MS2
Ion mode: POSITIVE
Ionization: ESI
Fragmentation mode: CID
Collision energy: 10 eV
Resolution: 35000
Column name: Acclaim RSLC C18 2.2um, 2.1x100mm, Thermo
Retention time: 4.424 min
Base peak: 244.0631
Precursor m/z: 304.0928
Precursor type: [M+H]+
m/z	relative intensity	assigned
146.0586	186	C6H10O4+
164.0696	755	C9H10NO2+
165.0725	143	C4H11N3O4+
206.0438	999	C13H6N2O+
207.0499	177	C12[13]CH6N2O+
218.0446	221	C11H8NO4+
236.0544	707	C11H10NO5+
244.0623	303	C13H10NO4+
287.0915	167	C14H13N3O4+
304.0924	676	C14H14N3O5+
305.0993	115	C13[13]CH14N3O5+
