Mass spectrum: Imidacloprid-guanidine; LC-ESI-QTOF; MS2; CE: 20 eV; R=35000; [M+H]+
Name: Imidacloprid-guanidine
Name: 1-(6-Chloro-pyridin-3-yl)methyl-2-iminoimidazolidine
Name: 1-[(6-chloropyridin-3-yl)methyl]-4,5-dihydroimidazol-2-amine
Formula: C9H11ClN4
Exact mass: 210.0672240
SMILES: NC1=NCCN1CC1=CN=C(Cl)C=C1
InChI: InChI=1S/C9H11ClN4/c10-8-2-1-7(5-13-8)6-14-4-3-12-9(14)11/h1-2,5H,3-4,6H2,(H2,11,12)
Instrument: Bruker maXis Impact
Instrument type: LC-ESI-QTOF
Ms type: MS2
Ion mode: POSITIVE
Ionization: ESI
Fragmentation mode: CID
Collision energy: 20 eV
Resolution: 35000
Column name: Acclaim RSLC C18 2.2um, 2.1x100mm, Thermo
Retention time: 3.291 min
Base peak: 211.0739
Precursor m/z: 211.0745
Precursor type: [M+H]+
m/z	relative intensity	assigned
126.0096	373	C6H5ClN+
127.0128	23	C5[13]CH5ClN+
128.0065	120	C6H5[37]ClN+
133.0749	31	C8H9N2+
169.0513	11	C9H5N4+
175.0967	102	C9H11N4+
176.1003	11	C8[13]CH11N4+
194.0466	10	C9H9ClN3+
211.0737	999	C9H12ClN4+
212.0765	76	C8[13]CH12ClN4+
213.0707	258	C9H12[37]ClN4+
