Mass spectrum: Metolachlor OA; LC-ESI-QTOF; MS2; CE: 40 eV; R=35000; [M+H]+
Name: Metolachlor OA
Name: 2-[2-ethyl-N-(1-methoxypropan-2-yl)-6-methylanilino]-2-oxoacetic acid
Formula: C15H21NO4
Exact mass: 279.1470582
SMILES: CCC1=C(N(C(C)COC)C(=O)C(O)=O)C(C)=CC=C1
InChI: InChI=1S/C15H21NO4/c1-5-12-8-6-7-10(2)13(12)16(11(3)9-20-4)14(17)15(18)19/h6-8,11H,5,9H2,1-4H3,(H,18,19)
Instrument: Bruker maXis Impact
Instrument type: LC-ESI-QTOF
Ms type: MS2
Ion mode: POSITIVE
Ionization: ESI
Fragmentation mode: CID
Collision energy: 40 eV
Resolution: 35000
Column name: Acclaim RSLC C18 2.2um, 2.1x100mm, Thermo
Retention time: 7.772 min
Base peak: 280.1531
Precursor m/z: 280.1543
Precursor type: [M+H]+
m/z	relative intensity	assigned
115.0532	104	C9H7+
117.0569	90	C8H7N+
117.0694	110	C9H9+
118.0638	209	C8H8N+
119.071	122	C5H11O3+
119.084	79	C9H11+
120.0819	74	C8H10N+
128.0597	75	C10H8+
129.0683	54	C10H9+
130.0641	478	C9H8N+
131.0717	999	C9H9N+
132.0788	404	C6H12O3+
133.0865	290	C6H13O3+
134.0942	569	C6H14O3+
142.0649	71	C10H8N+
144.0789	623	C7H12O3+
145.0852	242	C7H13O3+
146.0947	768	C10H12N+
147.0986	136	C9[13]CH12N+
148.1105	507	C10H14N+
149.0216	97	C8H5O3+
149.1135	66	C9[13]CH14N+
155.0594	49	C7H9NO3+
158.0968	73	C11H12N+
159.1006	111	C8H15O3+
160.0743	68	C7H12O4+
160.1113	316	C11H14N+
161.1148	51	C10[13]CH14N+
162.0907	216	C10H12NO+
174.089	57	C8H14O4+
174.1254	79	C9H18O3+
176.1417	205	C12H18N+
177.1435	54	C11[13]CH18N+
202.1209	85	C10H18O4+
219.0555	54	C11H9NO4+
248.1257	121	C14H18NO3+
