Mass spectrum: Imidacloprid-guanidine; LC-ESI-QTOF; MS2; CE: Ramp 18.4-27.6 eV; R=35000; [M+H]+
Name: Imidacloprid-guanidine
Name: 1-(6-Chloro-pyridin-3-yl)methyl-2-iminoimidazolidine
Name: 1-[(6-chloropyridin-3-yl)methyl]-4,5-dihydroimidazol-2-amine
Formula: C9H11ClN4
Exact mass: 210.0672240
SMILES: NC1=NCCN1CC1=CN=C(Cl)C=C1
InChI: InChI=1S/C9H11ClN4/c10-8-2-1-7(5-13-8)6-14-4-3-12-9(14)11/h1-2,5H,3-4,6H2,(H2,11,12)
Instrument: Bruker maXis Impact
Instrument type: LC-ESI-QTOF
Ms type: MS2
Ion mode: POSITIVE
Ionization: ESI
Fragmentation mode: CID
Collision energy: Ramp 18.4-27.6 eV
Resolution: 35000
Column name: Acclaim RSLC C18 2.2um, 2.1x100mm, Thermo
Retention time: 3.246 min
Base peak: 211.0745
Precursor m/z: 211.0745
Precursor type: [M+H]+
m/z	relative intensity	assigned
81.0332	5	C2H8ClN+
84.0553	213	C3H6N3+
85.0605	6	C2[13]CH6N3+
90.0341	35	C6H4N+
91.0407	5	C6H5N+
98.9998	11	C5H4Cl+
126.0106	829	C6H5ClN+
127.0136	52	C5[13]CH5ClN+
128.0073	227	C6H5[37]ClN+
129.0103	6	C4H4ClN3+
133.0754	56	C8H9N2+
144.0199	12	C4H5ClN4+
168.0312	5	C7H7ClN3+
169.0516	18	C9H5N4+
175.0971	123	C9H11N4+
176.1013	10	C8[13]CH11N4+
194.0477	10	C9H9ClN3+
211.0743	999	C9H12ClN4+
212.077	105	C8[13]CH12ClN4+
213.0714	275	C9H12[37]ClN4+
