Mass spectrum: Tripropyl phosphate; LC-ESI-QTOF; MS2; CE: 20 eV; R=35000; [M+H]+
Name: Tripropyl phosphate
Formula: C9H21O4P
Exact mass: 224.1177458
SMILES: CCCOP(=O)(OCCC)OCCC
InChI: InChI=1S/C9H21O4P/c1-4-7-11-14(10,12-8-5-2)13-9-6-3/h4-9H2,1-3H3
Instrument: Bruker maXis Impact
Instrument type: LC-ESI-QTOF
Ms type: MS2
Ion mode: POSITIVE
Ionization: ESI
Fragmentation mode: CID
Collision energy: 20 eV
Resolution: 35000
Column name: Acclaim RSLC C18 2.2um, 2.1x100mm, Thermo
Retention time: 9.397 min
Base peak: 225.1246
Precursor m/z: 225.125
Precursor type: [M+H]+
m/z	relative intensity	assigned
141.03	999	C3H10O4P+
149.0218	256	C8H5O3+
183.0776	145	C6H16O4P+
