Mass spectrum: Imidacloprid-urea; LC-ESI-QTOF; MS2; CE: 20 eV; R=35000; [M+H]+
Name: Imidacloprid-urea
Name: 1-[(6-chloropyridin-3-yl)methyl]imidazolidin-2-one
Formula: C9H10ClN3O
Exact mass: 211.0512396
SMILES: ClC1=NC=C(CN2CCNC2=O)C=C1
InChI: InChI=1S/C9H10ClN3O/c10-8-2-1-7(5-12-8)6-13-4-3-11-9(13)14/h1-2,5H,3-4,6H2,(H,11,14)
Instrument: Bruker maXis Impact
Instrument type: LC-ESI-QTOF
Ms type: MS2
Ion mode: POSITIVE
Ionization: ESI
Fragmentation mode: CID
Collision energy: 20 eV
Resolution: 35000
Column name: Acclaim RSLC C18 2.2um, 2.1x100mm, Thermo
Retention time: 4.696 min
Base peak: 212.0581
Precursor m/z: 212.0585
Precursor type: [M+H]+
m/z	relative intensity	assigned
126.0096	171	C6H5ClN+
127.0158	22	C7HN3+
128.0065	49	C6H5[37]ClN+
128.0254	791	C6H7ClN+
129.0282	47	C5[13]CH7ClN+
130.0223	226	C6H7[37]ClN+
131.0252	9	C6H8ClO+
133.0747	8	C8H9N2+
169.0147	7	C7H6ClN2O+
169.0513	16	C8H10ClN2+
176.0805	56	C9H10N3O+
177.0845	5	C8[13]CH10N3O+
194.0467	14	C9H9ClN3+
195.0306	43	C9H8ClN2O+
196.0409	5	C9H9[37]ClN3+
197.0282	12	C9H8[37]ClN2O+
212.0578	999	C9H11ClN3O+
213.0604	85	C8[13]CH11ClN3O+
214.0548	275	C9H11[37]ClN3O+
