Mass spectrum: Quinmerac; LC-ESI-QTOF; MS2; CE: 40 eV; R=35000; [M+H]+
Name: Quinmerac
Name: 7-chloro-3-methylquinoline-8-carboxylic acid
Formula: C11H8ClNO2
Exact mass: 221.0243562
SMILES: CC1=CC2=C(N=C1)C(C(O)=O)=C(Cl)C=C2
InChI: InChI=1S/C11H8ClNO2/c1-6-4-7-2-3-8(12)9(11(14)15)10(7)13-5-6/h2-5H,1H3,(H,14,15)
Instrument: Bruker maXis Impact
Instrument type: LC-ESI-QTOF
Ms type: MS2
Ion mode: POSITIVE
Ionization: ESI
Fragmentation mode: CID
Collision energy: 40 eV
Resolution: 35000
Column name: Acclaim RSLC C18 2.2um, 2.1x100mm, Thermo
Retention time: 4.912 min
Base peak: 222.0309
Precursor m/z: 222.0316
Precursor type: [M+H]+
m/z	relative intensity	assigned
113.0377	16	C9H5+
114.0457	31	C9H6+
140.0485	756	C10H6N+
141.0561	999	C10H7N+
142.0593	99	C9[13]CH7N+
149.0141	658	C9H6Cl+
150.0171	58	C8[13]CH6Cl+
151.011	180	C9H6[37]Cl+
152.0143	10	C10H2NO+
174.0097	5	C10H5ClN+
175.0164	12	C10H6ClN+
176.025	241	C10H7ClN+
177.0274	23	C9[13]CH7ClN+
178.0217	67	C10H7[37]ClN+
194.0357	64	C10H9ClNO+
195.0392	7	C9[13]CH9ClNO+
196.0322	22	C10H9[37]ClNO+
204.0203	221	C11H7ClNO+
205.023	28	C10[13]CH7ClNO+
206.0168	71	C11H7[37]ClNO+
207.0199	6	C11H8ClO2+
222.0307	36	C11H9ClNO2+
224.0281	13	C11H9[37]ClNO2+
