Mass spectrum: Prothioconazole-desthio; LC-ESI-QTOF; MS2; CE: 50 eV; R=35000; [M+H]+
Name: Prothioconazole-desthio
Name: 2-(1-Chlorocyclopropyl)-1-(2-chlorophenyl)-3-(1H-1,2,4-triazol-1-yl)propan-2-ol
Name: 2-(1-chlorocyclopropyl)-1-(2-chlorophenyl)-3-(1,2,4-triazol-1-yl)propan-2-ol
Formula: C14H15Cl2N3O
Exact mass: 311.0592175
SMILES: OC(CN1C=NC=N1)(CC1=CC=CC=C1Cl)C1(Cl)CC1
InChI: InChI=1S/C14H15Cl2N3O/c15-12-4-2-1-3-11(12)7-14(20,13(16)5-6-13)8-19-10-17-9-18-19/h1-4,9-10,20H,5-8H2
Instrument: Bruker maXis Impact
Instrument type: LC-ESI-QTOF
Ms type: MS2
Ion mode: POSITIVE
Ionization: ESI
Fragmentation mode: CID
Collision energy: 50 eV
Resolution: 35000
Column name: Acclaim RSLC C18 2.2um, 2.1x100mm, Thermo
Retention time: 10.451 min
Base peak: 312.0664
Precursor m/z: 312.0665
Precursor type: [M+H]+
m/z	relative intensity	assigned
115.053	50	Cl2H15NO+
116.0607	21	Cl2H16NO+
125.0144	999	C7H6Cl+
126.0179	81	C6[13]CH6Cl+
126.0445	7	CH14Cl2NO+
127.0114	246	C7H6[37]Cl+
127.0529	13	CH15Cl2NO+
128.015	9	C4H10Cl2+
128.0612	51	CH16Cl2NO+
129.0681	42	C10H9+
130.0771	12	C10H10+
137.0147	12	Cl2H9N3O+
139.0106	5	H9Cl[37]ClN3O+
139.0301	21	C8H8Cl+
141.069	75	C11H9+
142.0762	51	C11H10+
143.0806	9	C10[13]CH10+
145.0646	7	C10H9O+
149.0139	31	C9H6Cl+
151.0114	7	C9H6[37]Cl+
151.0287	12	C10H3N2+
152.0609	56	C3H16Cl2NO+
153.0682	120	C12H9+
154.0756	78	C4H13ClN3O+
155.0592	10	CH15Cl2N3O+
155.0829	21	C4H14ClN3O+
158.9749	7	C7H5Cl2+
160.9717	5	C7H5Cl[37]Cl+
162.0218	19	C10H7Cl+
163.029	8	C11H3N2+
164.0194	5	C10H7[37]Cl+
172.0254	6	C6H7ClN3O+
177.0447	5	C12H5N2+
