Mass spectrum: Dimethachlor ESA; LC-ESI-QTOF; MS2; CE: Ramp 21.6-32.5 eV; R=35000; [M+H]+
Name: Dimethachlor ESA
Name: 2-[(2,6-Dimethylphenyl)(2-methoxyethyl)amino]-2-oxoethanesulfonic acid
Name: 2-[N-(2-methoxyethyl)-2,6-dimethylanilino]-2-oxoethanesulfonic acid
Formula: C13H19NO5S
Exact mass: 301.0983937
SMILES: COCCN(C(=O)CS(O)(=O)=O)C1=C(C)C=CC=C1C
InChI: InChI=1S/C13H19NO5S/c1-10-5-4-6-11(2)13(10)14(7-8-19-3)12(15)9-20(16,17)18/h4-6H,7-9H2,1-3H3,(H,16,17,18)
Instrument: Bruker maXis Impact
Instrument type: LC-ESI-QTOF
Ms type: MS2
Ion mode: POSITIVE
Ionization: ESI
Fragmentation mode: CID
Collision energy: Ramp 21.6-32.5 eV
Resolution: 35000
Column name: Acclaim RSLC C18 2.2um, 2.1x100mm, Thermo
Retention time: 5.721 min
Base peak: 212.1511
Precursor m/z: 302.1057
Precursor type: [M+H]+
m/z	relative intensity	assigned
132.0807	294	C9H10N+
133.0837	42	C8[13]CH10N+
146.0967	69	C10H12N+
147.1038	299	C10H13N+
148.1107	81	C7H16O3+
159.1041	14	C11H13N+
174.0911	462	C11H12NO+
175.0944	88	C10[13]CH12NO+
189.1148	76	C12H15NO+
206.1163	38	C12H16NO2+
259.0826	15	C11H17NO4S+
270.0794	999	C12H16NO4S+
271.0831	170	C11[13]CH16NO4S+
272.0775	52	C12H16NO4[34]S+
