Mass spectrum: Metazachlor BH479-12; LC-ESI-QTOF; MS2; CE: 40 eV; R=35000; [M+H]+
Name: Metazachlor BH479-12
Formula: C14H13N3O5
Exact mass: 303.0855205
SMILES: CC1=C(N(CN2C=CC=N2)C(=O)C(O)=O)C(=CC=C1)C(O)=O
InChI: InChI=1S/C14H13N3O5/c1-9-4-2-5-10(13(19)20)11(9)17(12(18)14(21)22)8-16-7-3-6-15-16/h2-7H,8H2,1H3,(H,19,20)(H,21,22)
Instrument: Bruker maXis Impact
Instrument type: LC-ESI-QTOF
Ms type: MS2
Ion mode: POSITIVE
Ionization: ESI
Fragmentation mode: CID
Collision energy: 40 eV
Resolution: 35000
Column name: Acclaim RSLC C18 2.2um, 2.1x100mm, Thermo
Retention time: 4.460 min
Base peak: 244.0628
Precursor m/z: 304.0928
Precursor type: [M+H]+
m/z	relative intensity	assigned
118.0636	67	C5H10O3+
134.0595	243	C8H8NO+
144.0424	74	C6H8O4+
146.0584	802	C6H10O4+
147.0619	93	C5[13]CH10O4+
160.0375	999	C9H6NO2+
161.0403	148	C8[13]CH6NO2+
162.0539	304	C9H8NO2+
