Mass spectrum: Amidosulfuron; LC-ESI-QTOF; MS2; CE: Ramp 23.0-34.5 eV; R=35000; [M+H]+
Name: Amidosulfuron
Name: 1-(4,6-dimethoxypyrimidin-2-yl)-3-[methyl(methylsulfonyl)sulfamoyl]urea
Formula: C9H15N5O7S2
Exact mass: 369.0412898
SMILES: COC1=CC(OC)=NC(NC(=O)NS(=O)(=O)N(C)S(C)(=O)=O)=N1
InChI: InChI=1S/C9H15N5O7S2/c1-14(22(4,16)17)23(18,19)13-9(15)12-8-10-6(20-2)5-7(11-8)21-3/h5H,1-4H3,(H2,10,11,12,13,15)
Instrument: Bruker maXis Impact
Instrument type: LC-ESI-QTOF
Ms type: MS2
Ion mode: POSITIVE
Ionization: ESI
Fragmentation mode: CID
Collision energy: Ramp 23.0-34.5 eV
Resolution: 35000
Column name: Acclaim RSLC C18 2.2um, 2.1x100mm, Thermo
Retention time: 6.976 min
Base peak: 102.1287
Precursor m/z: 370.0486
Precursor type: [M+H]+
m/z	relative intensity	assigned
124.0505	42	C5H6N3O+
126.0653	12	C5H8N3O+
127.0495	49	C3H5N5O+
139.0373	172	C5H5N3O2+
142.0613	36	C5H8N3O2+
154.061	259	C6H8N3O2+
155.0642	14	C5[13]CH8N3O2+
156.077	23	C6H10N3O2+
181.0729	38	CH15N3O5S+
182.0548	98	C4H12N3O3S+
183.0628	8	C3[13]CH12N3O3S+
199.0815	41	C6H15O7+
200.0866	14	C4H14N3O6+
218.0223	220	C6H8N3O4S+
219.0248	15	C5[13]CH8N3O4S+
220.0191	11	C6H8N3O4[34]S+
236.0336	999	C6H10N3O5S+
237.0358	78	C5[13]CH10N3O5S+
238.0303	39	C6H10N3O5[34]S+
261.0287	617	C7H9N4O5S+
262.031	62	C6[13]CH9N4O5S+
263.0244	29	C7H9N4O5[34]S+
279.0393	316	C7H11N4O6S+
280.0414	32	C6[13]CH11N4O6S+
281.0331	21	C7H11N4O6[34]S+
