Mass spectrum: Difenoconazole; LC-ESI-QTOF; MS2; CE: 30 eV; R=35000; [M+H]+
Name: Difenoconazole
Name: 1-[[2-[2-chloro-4-(4-chlorophenoxy)phenyl]-4-methyl-1,3-dioxolan-2-yl]methyl]-1,2,4-triazole
Formula: C19H17Cl2N3O3
Exact mass: 405.0646968
SMILES: CC1COC(CN2C=NC=N2)(O1)C1=C(Cl)C=C(OC2=CC=C(Cl)C=C2)C=C1
InChI: InChI=1S/C19H17Cl2N3O3/c1-13-9-25-19(27-13,10-24-12-22-11-23-24)17-7-6-16(8-18(17)21)26-15-4-2-14(20)3-5-15/h2-8,11-13H,9-10H2,1H3
Instrument: Bruker maXis Impact
Instrument type: LC-ESI-QTOF
Ms type: MS2
Ion mode: POSITIVE
Ionization: ESI
Fragmentation mode: CID
Collision energy: 30 eV
Resolution: 35000
Column name: Acclaim RSLC C18 2.2um, 2.1x100mm, Thermo
Retention time: 11.588 min
Base peak: 528.0775
Precursor m/z: 406.072
Precursor type: [M+H]+
m/z	relative intensity	assigned
116.0488	24	C8H6N+
117.0565	5	C8H7N+
118.0643	7	C8H8N+
130.0641	8	Cl2H16N2O+
131.0719	57	Cl2H17N2O+
132.0794	33	Cl2H18N2O+
145.0245	60	CH8ClN3O3+
146.0585	23	Cl2H16N2O2+
162.0893	8	C4H17ClNO3+
164.0371	8	C11H4N2+
173.0306	21	Cl2H13N3O3+
186.0513	531	C2H16Cl2N2O3+
188.0372	6	C13H4N2+
206.0797	40	C11H12NO3+
251.0019	999	C11H7Cl2N3+
252.0051	128	C10[13]CH7Cl2N3+
252.999	525	C11H7Cl[37]ClN3+
254.0021	37	C11H8Cl2N2O+
254.9958	7	C13H4ClN2O2+
264.9811	15	C13H7Cl2O2+
266.9789	6	C13H7Cl[37]ClO2+
291.0332	21	C14H11Cl2N3+
293.0306	12	C14H11Cl[37]ClN3+
323.0231	22	C14H11Cl2N3O2+
325.0203	14	C14H11Cl[37]ClN3O2+
337.0392	31	C15H13Cl2N3O2+
338.0411	6	C14[13]CH13Cl2N3O2+
339.0365	18	C15H13Cl[37]ClN3O2+
406.0715	14	C19H18Cl2N3O3+
408.0687	9	C19H18Cl[37]ClN3O3+
