Mass spectrum: Cyproconazole; LC-ESI-QTOF; MS2; CE: 30 eV; R=35000; [M+H]+
Name: Cyproconazole
Name: 2-(4-chlorophenyl)-3-cyclopropyl-1-(1,2,4-triazol-1-yl)butan-2-ol
Formula: C15H18ClN3O
Exact mass: 291.1138399
SMILES: CC(C1CC1)C(O)(CN1C=NC=N1)C1=CC=C(Cl)C=C1
InChI: InChI=1S/C15H18ClN3O/c1-11(12-2-3-12)15(20,8-19-10-17-9-18-19)13-4-6-14(16)7-5-13/h4-7,9-12,20H,2-3,8H2,1H3
Instrument: Bruker maXis Impact
Instrument type: LC-ESI-QTOF
Ms type: MS2
Ion mode: POSITIVE
Ionization: ESI
Fragmentation mode: CID
Collision energy: 30 eV
Resolution: 35000
Column name: Acclaim RSLC C18 2.2um, 2.1x100mm, Thermo
Retention time: 9.731 min
Base peak: 292.1208
Precursor m/z: 292.1211
Precursor type: [M+H]+
m/z	relative intensity	assigned
125.0142	999	C8HN2+
126.0177	134	C7[13]CHN2+
128.0139	31	C5H5ClN2+
128.0618	8	C10H8+
129.0697	8	C10H9+
130.0774	9	C10H10+
138.9929	91	C5H2ClN3+
139.0293	20	C9H3N2+
139.9971	7	C4[13]CH2ClN3+
140.9906	25	C5H2[37]ClN3+
141.0676	8	C3H12ClN3O+
142.0768	10	C11H10+
151.0092	8	C7H4ClN2+
151.0288	14	C10H3N2+
152.0099	8	C10H2NO+
163.0291	10	C11H3N2+
165.0286	13	C10H3N3+
165.0453	11	C11H5N2+
166.0211	23	C9H7ClO+
168.0905	7	C5H15ClN3O+
179.0434	7	C11H5N3+
180.0376	16	C10H9ClO+
222.0853	9	C13H15ClO+
292.121	15	C15H19ClN3O+
