Mass spectrum: Metconazole; LC-ESI-QTOF; MS2; CE: 20 eV; R=35000; [M+H]+
Name: Metconazole
Name: 5-[(4-chlorophenyl)methyl]-2,2-dimethyl-1-(1,2,4-triazol-1-ylmethyl)cyclopentan-1-ol
Formula: C17H22ClN3O
Exact mass: 319.1451400
SMILES: CC1(C)CCC(CC2=CC=C(Cl)C=C2)C1(O)CN1C=NC=N1
InChI: InChI=1S/C17H22ClN3O/c1-16(2)8-7-14(9-13-3-5-15(18)6-4-13)17(16,22)10-21-12-19-11-20-21/h3-6,11-12,14,22H,7-10H2,1-2H3
Instrument: Bruker maXis Impact
Instrument type: LC-ESI-QTOF
Ms type: MS2
Ion mode: POSITIVE
Ionization: ESI
Fragmentation mode: CID
Collision energy: 20 eV
Resolution: 35000
Column name: Acclaim RSLC C18 2.2um, 2.1x100mm, Thermo
Retention time: 11.270 min
Base peak: 388.1061
Precursor m/z: 320.1524
Precursor type: [M+H]+
m/z	relative intensity	assigned
125.0145	25	C7H6Cl+
127.0116	5	C7H6[37]Cl+
177.0455	13	C11H10Cl+
179.0442	5	C11H10[37]Cl+
233.1088	19	C15H18Cl+
235.1064	6	C15H18[37]Cl+
320.1527	999	C17H23ClN3O+
321.1557	185	C16[13]CH23ClN3O+
322.1499	287	C17H23[37]ClN3O+
