Mass spectrum: Metconazole; LC-ESI-QTOF; MS2; CE: 40 eV; R=35000; [M+H]+
Name: Metconazole
Name: 5-[(4-chlorophenyl)methyl]-2,2-dimethyl-1-(1,2,4-triazol-1-ylmethyl)cyclopentan-1-ol
Formula: C17H22ClN3O
Exact mass: 319.1451400
SMILES: CC1(C)CCC(CC2=CC=C(Cl)C=C2)C1(O)CN1C=NC=N1
InChI: InChI=1S/C17H22ClN3O/c1-16(2)8-7-14(9-13-3-5-15(18)6-4-13)17(16,22)10-21-12-19-11-20-21/h3-6,11-12,14,22H,7-10H2,1-2H3
Instrument: Bruker maXis Impact
Instrument type: LC-ESI-QTOF
Ms type: MS2
Ion mode: POSITIVE
Ionization: ESI
Fragmentation mode: CID
Collision energy: 40 eV
Resolution: 35000
Column name: Acclaim RSLC C18 2.2um, 2.1x100mm, Thermo
Retention time: 11.262 min
Base peak: 388.1061
Precursor m/z: 320.1524
Precursor type: [M+H]+
m/z	relative intensity	assigned
115.0539	12	C9H7+
116.0596	13	CH11ClN3O+
125.0147	999	C7H6Cl+
126.0174	97	C6[13]CH6Cl+
127.0114	314	C7H6[37]Cl+
128.0139	14	C5H5ClN2+
128.0626	22	C10H8+
129.068	12	C2H12ClN3O+
139.0297	69	C8H8Cl+
141.0274	27	C8H8[37]Cl+
141.0676	41	C3H12ClN3O+
142.0767	105	C11H10+
143.0804	18	C10[13]CH10+
144.094	12	C11H12+
145.0635	10	C8H7N3+
149.0143	13	C10HN2+
151.0303	76	C9H8Cl+
153.0273	28	C9H8[37]Cl+
155.0242	9	C6H6ClN3+
155.0592	17	C10H7N2+
156.0907	23	C4H15ClN3O+
163.0308	56	C10H8Cl+
165.0271	15	C10H8[37]Cl+
165.0443	17	C11H5N2+
166.0967	23	C8H12N3O+
169.0744	11	C11H9N2+
177.0453	95	C11H10Cl+
178.052	11	C10[13]CH10Cl+
179.0412	33	C11H10[37]Cl+
191.0616	34	C12H12Cl+
193.0572	18	C10H10ClN2+
210.1605	12	C11H20N3O+
211.164	14	C11H21N3O+
