Mass spectrum: Metazachlor BH479-12; LC-ESI-QTOF; MS2; CE: 20 eV; R=35000; [M+H]+
Name: Metazachlor BH479-12
Formula: C14H13N3O5
Exact mass: 303.0855205
SMILES: CC1=C(N(CN2C=CC=N2)C(=O)C(O)=O)C(=CC=C1)C(O)=O
InChI: InChI=1S/C14H13N3O5/c1-9-4-2-5-10(13(19)20)11(9)17(12(18)14(21)22)8-16-7-3-6-15-16/h2-7H,8H2,1H3,(H,19,20)(H,21,22)
Instrument: Bruker maXis Impact
Instrument type: LC-ESI-QTOF
Ms type: MS2
Ion mode: POSITIVE
Ionization: ESI
Fragmentation mode: CID
Collision energy: 20 eV
Resolution: 35000
Column name: Acclaim RSLC C18 2.2um, 2.1x100mm, Thermo
Retention time: 4.389 min
Base peak: 244.0631
Precursor m/z: 304.0928
Precursor type: [M+H]+
m/z	relative intensity	assigned
146.0583	413	C6H10O4+
147.0627	79	C4H9N3O3+
160.0375	328	C6H8O5+
162.0539	224	C9H8NO2+
164.0702	148	C9H10NO2+
206.0438	999	C10H8NO4+
207.0452	146	C9[13]CH8NO4+
218.0445	148	C11H8NO4+
244.0633	54	C13H10NO4+
