Mass spectrum: Tebuconazole; LC-ESI-QTOF; MS2; CE: 40 eV; R=35000; [M+H]+
Name: Tebuconazole
Name: 1-(4-chlorophenyl)-4,4-dimethyl-3-(1,2,4-triazol-1-ylmethyl)pentan-3-ol
Formula: C16H22ClN3O
Exact mass: 307.1451400
SMILES: CC(C)(C)C(O)(CCC1=CC=C(Cl)C=C1)CN1C=NC=N1
InChI: InChI=1S/C16H22ClN3O/c1-15(2,3)16(21,10-20-12-18-11-19-20)9-8-13-4-6-14(17)7-5-13/h4-7,11-12,21H,8-10H2,1-3H3
Instrument: Bruker maXis Impact
Instrument type: LC-ESI-QTOF
Ms type: MS2
Ion mode: POSITIVE
Ionization: ESI
Fragmentation mode: CID
Collision energy: 40 eV
Resolution: 35000
Column name: Acclaim RSLC C18 2.2um, 2.1x100mm, Thermo
Retention time: 10.911 min
Base peak: 308.1522
Precursor m/z: 308.1524
Precursor type: [M+H]+
m/z	relative intensity	assigned
115.0537	161	C9H7+
116.0608	99	C9H8+
117.0648	16	CH12ClN3O+
125.0143	999	C7H6Cl+
126.0178	90	C6[13]CH6Cl+
127.0112	308	C7H6[37]Cl+
128.0153	12	C5H5ClN2+
128.0607	19	C10H8+
129.0691	64	C10H9+
130.0765	79	C10H10+
131.0799	12	C9[13]CH10+
137.0138	16	C8H6Cl+
139.0113	5	C8H6[37]Cl+
139.0295	94	C8H8Cl+
140.034	8	C7[13]CH8Cl+
141.0277	22	C8H8[37]Cl+
142.0769	5	C11H10+
143.0841	14	C11H11+
144.0914	30	C3H15ClN3O+
149.0143	7	C10HN2+
151.0294	355	C9H8Cl+
152.0331	36	C8[13]CH8Cl+
153.0266	113	C9H8[37]Cl+
154.0299	7	C7H7ClN2+
165.0449	84	C10H10Cl+
166.049	7	C9[13]CH10Cl+
167.0419	26	C10H10[37]Cl+
179.0614	23	C11H12Cl+
180.0648	5	C12H8N2+
181.0583	8	C11H12[37]Cl+
