Mass spectrum: Metconazole; LC-ESI-QTOF; MS2; CE: 50 eV; R=35000; [M+H]+
Name: Metconazole
Name: 5-[(4-chlorophenyl)methyl]-2,2-dimethyl-1-(1,2,4-triazol-1-ylmethyl)cyclopentan-1-ol
Formula: C17H22ClN3O
Exact mass: 319.1451400
SMILES: CC1(C)CCC(CC2=CC=C(Cl)C=C2)C1(O)CN1C=NC=N1
InChI: InChI=1S/C17H22ClN3O/c1-16(2)8-7-14(9-13-3-5-15(18)6-4-13)17(16,22)10-21-12-19-11-20-21/h3-6,11-12,14,22H,7-10H2,1-2H3
Instrument: Bruker maXis Impact
Instrument type: LC-ESI-QTOF
Ms type: MS2
Ion mode: POSITIVE
Ionization: ESI
Fragmentation mode: CID
Collision energy: 50 eV
Resolution: 35000
Column name: Acclaim RSLC C18 2.2um, 2.1x100mm, Thermo
Retention time: 11.254 min
Base peak: 388.1063
Precursor m/z: 320.1524
Precursor type: [M+H]+
m/z	relative intensity	assigned
115.0543	38	C9H7+
116.0602	21	CH11ClN3O+
125.0142	999	C7H6Cl+
126.0175	124	C6[13]CH6Cl+
127.0111	361	C7H6[37]Cl+
128.0146	19	C5H5ClN2+
128.0609	47	C10H8+
129.0694	23	C10H9+
130.0758	17	C2H13ClN3O+
139.0284	37	C9H3N2+
140.0367	10	C9H4N2+
141.0679	74	C3H12ClN3O+
142.0768	153	C11H10+
143.079	21	C10[13]CH10+
144.0927	14	C11H12+
145.0627	15	C8H7N3+
149.0142	17	C10HN2+
151.0302	46	C9H8Cl+
153.0266	21	C9H8[37]Cl+
155.0591	19	C10H7N2+
155.0824	15	C4H14ClN3O+
156.0919	28	C12H12+
162.0221	19	C11H2N2+
163.029	48	C11H3N2+
165.0241	13	C8H6ClN2+
169.0759	18	C11H9N2+
177.0461	32	C11H10Cl+
179.0412	19	C9H8ClN2+
