Mass spectrum: Flusilazole; LC-ESI-QTOF; MS2; CE: 40 eV; R=35000; [M+H]+
Name: Flusilazole
Name: bis(4-fluorophenyl)-methyl-(1,2,4-triazol-1-ylmethyl)silane
Formula: C16H15F2N3Si
Exact mass: 315.1003305
SMILES: C[Si](CN1C=NC=N1)(C1=CC=C(F)C=C1)C1=CC=C(F)C=C1
InChI: InChI=1S/C16H15F2N3Si/c1-22(12-21-11-19-10-20-21,15-6-2-13(17)3-7-15)16-8-4-14(18)5-9-16/h2-11H,12H2,1H3
Instrument: Bruker maXis Impact
Instrument type: LC-ESI-QTOF
Ms type: MS2
Ion mode: POSITIVE
Ionization: ESI
Fragmentation mode: CID
Collision energy: 40 eV
Resolution: 35000
Column name: Acclaim RSLC C18 2.2um, 2.1x100mm, Thermo
Retention time: 10.510 min
Base peak: 316.1074
Precursor m/z: 316.1076
Precursor type: [M+H]+
m/z	relative intensity	assigned
115.0537	9	C4H6FN3+
122.0701	13	C6H8N3+
123.0052	9	CH3F2N3Si+
125.0185	21	C7H3F2+
127.0117	25	C4H4FN2Si+
128.0609	7	C5H7FN3+
136.0862	5	C7H10N3+
137.0934	5	C7H11N3+
138.0651	36	C5H12F2Si+
138.1019	11	C7H12N3+
139.0528	10	C6H6FN3+
139.0729	36	C5H13F2Si+
139.1219	5	C8H15N2+
141.0152	9	C4H4FN3Si+
141.0688	17	C6H8FN3+
141.1096	12	C3H16FN3Si+
143.0108	4	C6H5F2Si+
148.085	6	C8H10N3+
149.0202	8	C9H3F2+
150.1017	96	C8H12N3+
151.0362	31	C9H5F2+
151.1066	11	C7[13]CH12N3+
152.061	56	C7H7FN3+
152.0805	20	C6H14F2Si+
153.0683	51	C12H9+
154.0736	8	C11[13]CH9+
155.0845	7	C7H10FN3+
157.0269	36	C7H7F2Si+
159.0261	51	C13H3+
159.0591	8	C6H7F2N3+
160.0275	6	C12[13]CH3+
163.0533	7	C8H6FN3+
164.061	30	C8H7FN3+
164.0803	14	C7H14F2Si+
165.0691	999	C13H9+
166.0735	135	C12[13]CH9+
166.0966	409	C7H16F2Si+
167.0313	13	C11H7Si+
167.0785	10	C11[13]C2H9+
167.1023	59	C8H15N2Si+
168.0558	6	C10H6N3+
169.0469	27	C11H9Si+
169.0619	5	C10H7N3+
170.051	19	C7H6F2N3+
171.0424	31	C8H9F2Si+
175.0212	12	C10H3F2N+
178.0768	27	C9H9FN3+
179.0839	22	C9H10FN3+
181.0751	8	C12H9N2+
183.0594	79	C8H7F2N3+
184.0655	22	C8H8F2N3+
185.0421	10	C9H7N3Si+
185.0751	134	C13H10F+
186.078	18	C12[13]CH10F+
187.0575	88	C9H9N3Si+
188.0598	10	C8[13]CH9N3Si+
195.1311	6	C11H16FN2+
199.0372	14	C7H7F2N3Si+
217.0469	11	C15H9Si+
219.0429	49	C12H9F2Si+
220.0448	7	C11[13]CH9F2Si+
227.0675	17	C15H9F2+
231.0427	6	C13H9F2Si+
232.0498	5	C13H10F2Si+
235.0376	8	C15H8FSi+
235.0577	12	C13H9N3Si+
237.0537	65	C15H10FSi+
238.056	11	C14[13]CH10FSi+
245.0788	8	C12H12FN3Si+
253.048	8	C13H8FN3Si+
255.0645	10	C13H10FN3Si+
262.085	10	C14H14F2NSi+
263.0889	5	C15H13N3Si+
272.1058	7	C14H15FN3Si+
