Mass spectrum: Fluoxastrobin; LC-ESI-QTOF; MS2; CE: 10 eV; R=35000; [M+H]+
Name: Fluoxastrobin
Name: (E)-1-[2-[6-(2-chlorophenoxy)-5-fluoropyrimidin-4-yl]oxyphenyl]-1-(5,6-dihydro-1,4,2-dioxazin-3-yl)-N-methoxymethanimine
Formula: C21H16ClFN4O5
Exact mass: 458.0793255
SMILES: CO\N=C(\C1=NOCCO1)C1=C(OC2=C(F)C(OC3=C(Cl)C=CC=C3)=NC=N2)C=CC=C1
InChI: InChI=1S/C21H16ClFN4O5/c1-28-26-18(21-27-30-11-10-29-21)13-6-2-4-8-15(13)31-19-17(23)20(25-12-24-19)32-16-9-5-3-7-14(16)22/h2-9,12H,10-11H2,1H3/b26-18+
Instrument: Bruker maXis Impact
Instrument type: LC-ESI-QTOF
Ms type: MS2
Ion mode: POSITIVE
Ionization: ESI
Fragmentation mode: CID
Collision energy: 10 eV
Resolution: 35000
Column name: Acclaim RSLC C18 2.2um, 2.1x100mm, Thermo
Retention time: 9.993 min
Base peak: 459.0865
Precursor m/z: 459.0866
Precursor type: [M+H]+
m/z	relative intensity	assigned
427.0604	74	C20H13ClFN4O4+
428.0629	13	C19[13]CH13ClFN4O4+
429.0578	19	C20H13[37]ClFN4O4+
459.0871	999	C21H17ClFN4O5+
460.0897	218	C20[13]CH17ClFN4O5+
461.0843	302	C21H17[37]ClFN4O5+
