Mass spectrum: Cyproconazole; LC-ESI-QTOF; MS2; CE: Ramp 21.3-32.0 eV; R=35000; [M+H]+
Name: Cyproconazole
Name: 2-(4-chlorophenyl)-3-cyclopropyl-1-(1,2,4-triazol-1-yl)butan-2-ol
Formula: C15H18ClN3O
Exact mass: 291.1138399
SMILES: CC(C1CC1)C(O)(CN1C=NC=N1)C1=CC=C(Cl)C=C1
InChI: InChI=1S/C15H18ClN3O/c1-11(12-2-3-12)15(20,8-19-10-17-9-18-19)13-4-6-14(16)7-5-13/h4-7,9-12,20H,2-3,8H2,1H3
Instrument: Bruker maXis Impact
Instrument type: LC-ESI-QTOF
Ms type: MS2
Ion mode: POSITIVE
Ionization: ESI
Fragmentation mode: CID
Collision energy: Ramp 21.3-32.0 eV
Resolution: 35000
Column name: Acclaim RSLC C18 2.2um, 2.1x100mm, Thermo
Retention time: 9.733 min
Base peak: 292.1211
Precursor m/z: 292.1211
Precursor type: [M+H]+
m/z	relative intensity	assigned
69.0693	15	C5H9+
70.0396	999	C2H4N3+
71.0425	29	C[13]CH4N3+
125.0145	456	C7H6Cl+
126.0178	57	C6[13]CH6Cl+
127.0114	226	C7H6[37]Cl+
128.0141	14	C5H5ClN2+
138.9933	37	C5H2ClN3+
139.0292	8	C9H3N2+
140.9899	9	C5H2[37]ClN3+
151.0292	5	C10H3N2+
165.0283	5	C10H3N3+
165.0438	5	C11H5N2+
166.0219	11	C9H7ClO+
167.0281	7	C9H8ClO+
205.057	6	C11H10ClN2+
221.0889	7	C12H14ClN2+
222.0839	12	C13H15ClO+
291.1181	34	C15H18ClN3O+
292.1208	170	C15H19ClN3O+
293.1228	31	C14[13]CH19ClN3O+
294.1179	47	C15H19[37]ClN3O+
