Mass spectrum: Fenoxycarb; LC-ESI-QTOF; MS2; CE: Ramp 21.6-32.5 eV; R=35000; [M+H]+
Name: Fenoxycarb
Name: ethyl N-[2-(4-phenoxyphenoxy)ethyl]carbamate
Formula: C17H19NO4
Exact mass: 301.1314081
SMILES: CCOC(=O)NCCOC1=CC=C(OC2=CC=CC=C2)C=C1
InChI: InChI=1S/C17H19NO4/c1-2-20-17(19)18-12-13-21-14-8-10-16(11-9-14)22-15-6-4-3-5-7-15/h3-11H,2,12-13H2,1H3,(H,18,19)
Instrument: Bruker maXis Impact
Instrument type: LC-ESI-QTOF
Ms type: MS2
Ion mode: POSITIVE
Ionization: ESI
Fragmentation mode: CID
Collision energy: Ramp 21.6-32.5 eV
Resolution: 35000
Column name: Acclaim RSLC C18 2.2um, 2.1x100mm, Thermo
Retention time: 10.636 min
Base peak: 317.1643
Precursor m/z: 302.1387
Precursor type: [M+H]+
m/z	relative intensity	assigned
70.0283	31	C3H4NO+
88.0393	999	C3H6NO2+
89.0426	28	C2[13]CH6NO2+
94.0419	5	C6H6O+
116.0711	62	C5H10NO2+
120.0563	5	C8H8O+
147.1164	8	C11H15+
163.0622	19	C9H9NO2+
183.0798	9	C13H11O+
185.0595	15	C12H9O2+
186.0666	20	C12H10O2+
187.0743	8	C12H11O2+
195.08	5	C14H11O+
211.0746	20	C14H11O2+
213.0542	28	C13H9O3+
213.0903	10	C14H13O2+
214.0577	6	C12[13]CH9O3+
256.097	157	C15H14NO3+
257.1001	27	C14[13]CH14NO3+
