Mass spectrum: 2-Hydroxyatrazine; LC-ESI-QTOF; MS2; CE: 10 eV; R=35000; [M+H]+
Name: 2-Hydroxyatrazine
Name: CID 16553
Name: 2-(ethylamino)-6-(propan-2-ylamino)-1H-1,3,5-triazin-4-one
Formula: C8H15N5O
Exact mass: 197.1276601
SMILES: CCNC1=NC(O)=NC(NC(C)C)=N1
InChI: InChI=1S/C8H15N5O/c1-4-9-6-11-7(10-5(2)3)13-8(14)12-6/h5H,4H2,1-3H3,(H3,9,10,11,12,13,14)
Instrument: Bruker maXis Impact
Instrument type: LC-ESI-QTOF
Ms type: MS2
Ion mode: POSITIVE
Ionization: ESI
Fragmentation mode: CID
Collision energy: 10 eV
Resolution: 35000
Column name: Acclaim RSLC C18 2.2um, 2.1x100mm, Thermo
Retention time: 4.725 min
Base peak: 198.1346
Precursor m/z: 198.1349
Precursor type: [M+H]+
m/z	relative intensity	assigned
156.0871	60	C5H10N5O+
198.135	999	C8H16N5O+
199.1373	100	C7[13]CH16N5O+
