Mass spectrum: Desisopropylatrazine; LC-ESI-QTOF; MS2; CE: 40 eV; R=35000; [M+H]+
Name: Desisopropylatrazine
Name: Deisopropylatrazine
Name: 6-chloro-2-N-ethyl-1,3,5-triazine-2,4-diamine
Formula: C5H8ClN5
Exact mass: 173.0468229
SMILES: CCNC1=NC(Cl)=NC(N)=N1
InChI: InChI=1S/C5H8ClN5/c1-2-8-5-10-3(6)9-4(7)11-5/h2H2,1H3,(H3,7,8,9,10,11)
Instrument: Bruker maXis Impact
Instrument type: LC-ESI-QTOF
Ms type: MS2
Ion mode: POSITIVE
Ionization: ESI
Fragmentation mode: CID
Collision energy: 40 eV
Resolution: 35000
Column name: Acclaim RSLC C18 2.2um, 2.1x100mm, Thermo
Retention time: 4.711 min
Base peak: 174.0532
Precursor m/z: 174.0541
Precursor type: [M+H]+
m/z	relative intensity	assigned
132.0317	959	C4H7ClN3+
138.0762	570	C5H8N5+
146.0221	999	C3H5ClN5+
174.0537	525	C5H9ClN5+
