Mass spectrum: Pethoxamid; LC-ESI-QTOF; MS2; CE: 30 eV; R=35000; [M+H]+
Name: Pethoxamid
Name: 2-chloro-N-(2-ethoxyethyl)-N-(2-methyl-1-phenylprop-1-enyl)acetamide
Formula: C16H22ClNO2
Exact mass: 295.1339066
SMILES: CCOCCN(C(=O)CCl)C(=C(C)C)C1=CC=CC=C1
InChI: InChI=1S/C16H22ClNO2/c1-4-20-11-10-18(15(19)12-17)16(13(2)3)14-8-6-5-7-9-14/h5-9H,4,10-12H2,1-3H3
Instrument: Bruker maXis Impact
Instrument type: LC-ESI-QTOF
Ms type: MS2
Ion mode: POSITIVE
Ionization: ESI
Fragmentation mode: CID
Collision energy: 30 eV
Resolution: 35000
Column name: Acclaim RSLC C18 2.2um, 2.1x100mm, Thermo
Retention time: 10.172 min
Base peak: 296.1416
Precursor m/z: 296.1412
Precursor type: [M+H]+
m/z	relative intensity	assigned
115.0537	24	C9H7+
116.0614	28	C9H8+
128.0612	11	C10H8+
129.0691	88	C10H9+
130.0725	8	C9[13]CH9+
131.0849	999	C10H11+
132.0882	75	C9[13]CH11+
160.111	22	C11H14N+
174.1267	12	C12H16N+
220.1691	44	C14H22NO+
221.1722	6	C13[13]CH22NO+
250.0992	12	C14H17ClNO+
