Mass spectrum: Picoxystrobin; LC-ESI-QTOF; MS2; CE: 40 eV; R=35000; [M+H]+
Name: Picoxystrobin
Name: methyl (E)-3-methoxy-2-[2-[[6-(trifluoromethyl)pyridin-2-yl]oxymethyl]phenyl]prop-2-enoate
Formula: C18H16F3NO4
Exact mass: 367.1031427
SMILES: CO\C=C(\C(=O)OC)C1=CC=CC=C1COC1=CC=CC(=N1)C(F)(F)F
InChI: InChI=1S/C18H16F3NO4/c1-24-11-14(17(23)25-2)13-7-4-3-6-12(13)10-26-16-9-5-8-15(22-16)18(19,20)21/h3-9,11H,10H2,1-2H3/b14-11+
Instrument: Bruker maXis Impact
Instrument type: LC-ESI-QTOF
Ms type: MS2
Ion mode: POSITIVE
Ionization: ESI
Fragmentation mode: CID
Collision energy: 40 eV
Resolution: 35000
Column name: Acclaim RSLC C18 2.2um, 2.1x100mm, Thermo
Retention time: 10.560 min
Base peak: 317.1645
Precursor m/z: 368.1104
Precursor type: [M+H]+
m/z	relative intensity	assigned
115.0539	83	C9H7+
116.0578	9	C8[13]CH7+
117.0694	70	C9H9+
118.073	8	C8[13]CH9+
128.0611	5	C10H8+
129.0689	7	C10H9+
130.0406	35	C9H6O+
131.0478	18	C9H7O+
131.0847	7	C10H11+
145.0643	999	C10H9O+
146.0686	151	C9[13]CH9O+
147.0773	13	C10H11O+
173.0585	22	C11H9O2+
177.09	34	C11H13O2+
205.0853	26	C12H13O3+
