Mass spectrum: Difenoconazole; LC-ESI-QTOF; MS2; CE: 10 eV; R=35000; [M+H]+
Name: Difenoconazole
Name: 1-[[2-[2-chloro-4-(4-chlorophenoxy)phenyl]-4-methyl-1,3-dioxolan-2-yl]methyl]-1,2,4-triazole
Formula: C19H17Cl2N3O3
Exact mass: 405.0646968
SMILES: CC1COC(CN2C=NC=N2)(O1)C1=C(Cl)C=C(OC2=CC=C(Cl)C=C2)C=C1
InChI: InChI=1S/C19H17Cl2N3O3/c1-13-9-25-19(27-13,10-24-12-22-11-23-24)17-7-6-16(8-18(17)21)26-15-4-2-14(20)3-5-15/h2-8,11-13H,9-10H2,1H3
Instrument: Bruker maXis Impact
Instrument type: LC-ESI-QTOF
Ms type: MS2
Ion mode: POSITIVE
Ionization: ESI
Fragmentation mode: CID
Collision energy: 10 eV
Resolution: 35000
Column name: Acclaim RSLC C18 2.2um, 2.1x100mm, Thermo
Retention time: 11.599 min
Base peak: 528.0775
Precursor m/z: 406.072
Precursor type: [M+H]+
m/z	relative intensity	assigned
116.0486	31	C8H6N+
131.0716	20	Cl2H17N2O+
132.0796	24	Cl2H18N2O+
162.0897	29	C4H17ClNO3+
186.0515	999	C2H16Cl2N2O3+
206.0803	462	C11H12NO3+
337.0387	13	C17H15Cl2O3+
406.0722	589	C19H18Cl2N3O3+
407.0751	129	C18[13]CH18Cl2N3O3+
408.0692	353	C19H18Cl[37]ClN3O3+
