Mass spectrum: Lenacil; LC-ESI-QTOF; MS2; CE: 50 eV; R=35000; [M+H]+
Name: Lenacil
Name: 3-cyclohexyl-1,5,6,7-tetrahydrocyclopenta[d]pyrimidine-2,4-dione
Formula: C13H18N2O2
Exact mass: 234.1368278
SMILES: O=C1NC2=C(CCC2)C(=O)N1C1CCCCC1
InChI: InChI=1S/C13H18N2O2/c16-12-10-7-4-8-11(10)14-13(17)15(12)9-5-2-1-3-6-9/h9H,1-8H2,(H,14,17)
Instrument: Bruker maXis Impact
Instrument type: LC-ESI-QTOF
Ms type: MS2
Ion mode: POSITIVE
Ionization: ESI
Fragmentation mode: CID
Collision energy: 50 eV
Resolution: 35000
Column name: Acclaim RSLC C18 2.2um, 2.1x100mm, Thermo
Retention time: 8.320 min
Base peak: 212.083
Precursor m/z: 235.1441
Precursor type: [M+H]+
m/z	relative intensity	assigned
110.0594	11	C6H8NO+
135.054	554	C7H7N2O+
136.0382	999	C7H6NO2+
136.0572	58	C6[13]CH7N2O+
137.0411	85	C6[13]CH6NO2+
153.0646	718	C7H9N2O2+
154.0678	57	C6[13]CH9N2O2+
