Mass spectrum: Dimethachlor CGA369873; LC-ESI-QTOF; MS2; CE: 20 eV; R=35000; [M+H]+
Name: Dimethachlor CGA369873
Formula: C10H13NO4S
Exact mass: 243.0565289
SMILES: CC1=CC=CC(C)=C1NC(=O)CS(O)(=O)=O
InChI: InChI=1S/C10H13NO4S/c1-7-4-3-5-8(2)10(7)11-9(12)6-16(13,14)15/h3-5H,6H2,1-2H3,(H,11,12)(H,13,14,15)
Instrument: Bruker maXis Impact
Instrument type: LC-ESI-QTOF
Ms type: MS2
Ion mode: POSITIVE
Ionization: ESI
Fragmentation mode: CID
Collision energy: 20 eV
Resolution: 35000
Column name: Acclaim RSLC C18 2.2um, 2.1x100mm, Thermo
Retention time: 9.356 min
Base peak: 276.0818
Precursor m/z: 244.0638
Precursor type: [M+H]+
m/z	relative intensity	assigned
126.0359	59	C6H8NS+
127.0113	672	C5H5NOS+
149.0954	112	C10H13O+
167.075	71	C9H13NS+
168.0833	999	C9H14NS+
169.0865	181	C9H13O3+
170.0787	88	C8H12NO3+
186.0141	95	C10H4NO3+
