Mass spectrum: Desethylatrazine; LC-ESI-QTOF; MS2; CE: 10 eV; R=35000; [M+H]+
Name: Desethylatrazine
Name: Deethylatrazine
Name: 6-chloro-2-N-propan-2-yl-1,3,5-triazine-2,4-diamine
Formula: C6H10ClN5
Exact mass: 187.0624730
SMILES: CC(C)NC1=NC(N)=NC(Cl)=N1
InChI: InChI=1S/C6H10ClN5/c1-3(2)9-6-11-4(7)10-5(8)12-6/h3H,1-2H3,(H3,8,9,10,11,12)
Instrument: Bruker maXis Impact
Instrument type: LC-ESI-QTOF
Ms type: MS2
Ion mode: POSITIVE
Ionization: ESI
Fragmentation mode: CID
Collision energy: 10 eV
Resolution: 35000
Column name: Acclaim RSLC C18 2.2um, 2.1x100mm, Thermo
Retention time: 5.678 min
Base peak: 212.1503
Precursor m/z: 188.0697
Precursor type: [M+H]+
m/z	relative intensity	assigned
146.0215	85	C3H5ClN5+
148.0188	26	C3H5[37]ClN5+
188.069	999	C6H11ClN5+
189.0713	52	C5[13]CH11ClN5+
190.0659	255	C6H11[37]ClN5+
