Mass spectrum: 4-Nitroquinoline-1-oxide; LC-ESI-QTOF; MS2; CE: 50 eV; R=35000; [M+H]+
Name: 4-Nitroquinoline-1-oxide
Name: 4-Nitroquinoline 1-oxide
Name: 4-nitro-1-oxidoquinolin-1-ium
Formula: C9H6N2O3
Exact mass: 190.0378421
SMILES: [O-][N+](=O)C1=CC=[N+]([O-])C2=CC=CC=C12
InChI: InChI=1S/C9H6N2O3/c12-10-6-5-9(11(13)14)7-3-1-2-4-8(7)10/h1-6H
Instrument: Bruker maXis Impact
Instrument type: LC-ESI-QTOF
Ms type: MS2
Ion mode: POSITIVE
Ionization: ESI
Fragmentation mode: CID
Collision energy: 50 eV
Resolution: 35000
Column name: Acclaim RSLC C18 2.2um, 2.1x100mm, Thermo
Retention time: 5.612 min
Base peak: 191.0439
Precursor m/z: 191.0451
Precursor type: [M+H]+
m/z	relative intensity	assigned
128.0481	999	C9H6N+
129.0516	116	C8[13]CH6N+
