Mass spectrum: Cyprodinil; LC-ESI-QTOF; MS2; CE: 30 eV; R=35000; [M+H]+
Name: Cyprodinil
Name: 4-cyclopropyl-6-methyl-N-phenylpyrimidin-2-amine
Formula: C14H15N3
Exact mass: 225.1265975
SMILES: CC1=NC(NC2=CC=CC=C2)=NC(=C1)C1CC1
InChI: InChI=1S/C14H15N3/c1-10-9-13(11-7-8-11)17-14(15-10)16-12-5-3-2-4-6-12/h2-6,9,11H,7-8H2,1H3,(H,15,16,17)
Instrument: Bruker maXis Impact
Instrument type: LC-ESI-QTOF
Ms type: MS2
Ion mode: POSITIVE
Ionization: ESI
Fragmentation mode: CID
Collision energy: 30 eV
Resolution: 35000
Column name: Acclaim RSLC C18 2.2um, 2.1x100mm, Thermo
Retention time: 11.086 min
Base peak: 226.1341
Precursor m/z: 226.1339
Precursor type: [M+H]+
m/z	relative intensity	assigned
116.0485	8	C8H6N+
117.0562	6	C8H7N+
118.0515	24	C7H6N2+
118.0638	7	C8H8N+
119.0594	30	C7H7N2+
123.0905	6	C7H11N2+
131.0591	18	C8H7N2+
132.0668	21	C8H8N2+
133.0749	61	C8H9N2+
134.0783	5	C7[13]CH9N2+
142.0638	7	C10H8N+
143.0592	25	C9H7N2+
144.0795	44	C10H10N+
145.0751	15	C9H9N2+
159.0901	22	C10H11N2+
167.0712	12	C12H9N+
168.0785	15	C12H10N+
169.0748	10	C11H9N2+
182.082	7	C12H10N2+
183.0896	11	C12H11N2+
184.0857	36	C11H10N3+
185.0893	5	C10[13]CH10N3+
185.1059	30	C12H13N2+
193.0752	10	C13H9N2+
194.0826	32	C13H10N2+
195.0867	5	C12[13]CH10N2+
197.0933	7	C12H11N3+
198.1013	14	C12H12N3+
199.108	5	C12H13N3+
207.0904	11	C14H11N2+
208.0976	12	C14H12N2+
209.1062	58	C14H13N2+
210.1022	72	C13H12N3+
211.108	25	C13H13N3+
224.1174	14	C14H14N3+
226.1338	999	C14H16N3+
227.1362	247	C13[13]CH16N3+
228.1391	12	C12[13]C2H16N3+
