Mass spectrum: Cyprodinil; LC-ESI-QTOF; MS2; CE: Ramp 18.9-28.4 eV; R=35000; [M+H]+
Name: Cyprodinil
Name: 4-cyclopropyl-6-methyl-N-phenylpyrimidin-2-amine
Formula: C14H15N3
Exact mass: 225.1265975
SMILES: CC1=NC(NC2=CC=CC=C2)=NC(=C1)C1CC1
InChI: InChI=1S/C14H15N3/c1-10-9-13(11-7-8-11)17-14(15-10)16-12-5-3-2-4-6-12/h2-6,9,11H,7-8H2,1H3,(H,15,16,17)
Instrument: Bruker maXis Impact
Instrument type: LC-ESI-QTOF
Ms type: MS2
Ion mode: POSITIVE
Ionization: ESI
Fragmentation mode: CID
Collision energy: Ramp 18.9-28.4 eV
Resolution: 35000
Column name: Acclaim RSLC C18 2.2um, 2.1x100mm, Thermo
Retention time: 11.088 min
Base peak: 226.1343
Precursor m/z: 226.1339
Precursor type: [M+H]+
m/z	relative intensity	assigned
65.038	5	C5H5+
67.0537	8	C5H7+
79.0539	11	C6H7+
80.049	8	C5H6N+
81.0696	10	C6H9+
82.0648	8	C5H8N+
91.0543	34	C7H7+
92.0494	29	C6H6N+
93.0574	77	C6H7N+
94.0639	8	C6H8N+
106.0655	44	C7H8N+
108.068	12	C6H8N2+
108.0813	136	C7H10N+
109.0779	8	C6H9N2+
109.0845	9	C6[13]CH10N+
116.0495	12	C8H6N+
117.0574	8	C8H7N+
118.0524	29	C7H6N2+
118.0648	15	C8H8N+
119.0605	47	C7H7N2+
123.0914	12	C7H11N2+
131.0601	12	C8H7N2+
132.0678	14	C8H8N2+
133.076	65	C8H9N2+
134.0791	5	C7[13]CH9N2+
142.0646	5	C10H8N+
143.0603	11	C9H7N2+
144.0804	34	C10H10N+
145.0771	8	C9H9N2+
159.0911	15	C10H11N2+
167.0715	5	C12H9N+
168.0793	7	C12H10N+
169.0748	5	C11H9N2+
183.0894	6	C12H11N2+
184.0863	24	C11H10N3+
185.1065	24	C12H13N2+
194.0828	15	C13H10N2+
198.1017	8	C12H12N3+
208.0984	6	C14H12N2+
209.107	38	C14H13N2+
210.1029	36	C13H12N3+
211.1087	17	C13H13N3+
224.1178	8	C14H14N3+
226.1342	999	C14H16N3+
