Mass spectrum: Dimethachlor CGA369873; LC-ESI-QTOF; MS2; CE: 10 eV; R=35000; [M+H]+
Name: Dimethachlor CGA369873
Formula: C10H13NO4S
Exact mass: 243.0565289
SMILES: CC1=CC=CC(C)=C1NC(=O)CS(O)(=O)=O
InChI: InChI=1S/C10H13NO4S/c1-7-4-3-5-8(2)10(7)11-9(12)6-16(13,14)15/h3-5H,6H2,1-2H3,(H,11,12)(H,13,14,15)
Instrument: Bruker maXis Impact
Instrument type: LC-ESI-QTOF
Ms type: MS2
Ion mode: POSITIVE
Ionization: ESI
Fragmentation mode: CID
Collision energy: 10 eV
Resolution: 35000
Column name: Acclaim RSLC C18 2.2um, 2.1x100mm, Thermo
Retention time: 9.341 min
Base peak: 276.0821
Precursor m/z: 244.0638
Precursor type: [M+H]+
m/z	relative intensity	assigned
149.0946	999	C10H13O+
168.0846	605	C9H14NS+
