Mass spectrum: Imidacloprid-guanidine; LC-ESI-QTOF; MS2; CE: 30 eV; R=35000; [M+H]+
Name: Imidacloprid-guanidine
Name: 1-(6-Chloro-pyridin-3-yl)methyl-2-iminoimidazolidine
Name: 1-[(6-chloropyridin-3-yl)methyl]-4,5-dihydroimidazol-2-amine
Formula: C9H11ClN4
Exact mass: 210.0672240
SMILES: NC1=NCCN1CC1=CN=C(Cl)C=C1
InChI: InChI=1S/C9H11ClN4/c10-8-2-1-7(5-13-8)6-14-4-3-12-9(14)11/h1-2,5H,3-4,6H2,(H2,11,12)
Instrument: Bruker maXis Impact
Instrument type: LC-ESI-QTOF
Ms type: MS2
Ion mode: POSITIVE
Ionization: ESI
Fragmentation mode: CID
Collision energy: 30 eV
Resolution: 35000
Column name: Acclaim RSLC C18 2.2um, 2.1x100mm, Thermo
Retention time: 3.258 min
Base peak: 211.0738
Precursor m/z: 211.0745
Precursor type: [M+H]+
m/z	relative intensity	assigned
126.0096	999	C6H5ClN+
127.0128	63	C5[13]CH5ClN+
128.0066	334	C6H5[37]ClN+
129.0096	11	C4H4ClN3+
132.0543	5	C7H6N3+
133.0749	59	C8H9N2+
134.0785	5	C7[13]CH9N2+
144.0198	29	C4H5ClN4+
146.017	9	C4H5[37]ClN4+
169.0511	7	C9H5N4+
175.0965	52	C9H11N4+
176.1015	6	C8[13]CH11N4+
194.0471	7	C9H9ClN3+
211.0738	106	C9H12ClN4+
212.0767	12	C8[13]CH12ClN4+
213.0704	39	C9H12[37]ClN4+
