Mass spectrum: Propiconazole; LC-ESI-QTOF; MS2; CE: 40 eV; R=35000; [M+H]+
Name: Propiconazole
Name: 1-[[2-(2,4-dichlorophenyl)-4-propyl-1,3-dioxolan-2-yl]methyl]-1,2,4-triazole
Formula: C15H17Cl2N3O2
Exact mass: 341.0697821
SMILES: CCCC1COC(CN2C=NC=N2)(O1)C1=C(Cl)C=C(Cl)C=C1
InChI: InChI=1S/C15H17Cl2N3O2/c1-2-3-12-7-21-15(22-12,8-20-10-18-9-19-20)13-5-4-11(16)6-14(13)17/h4-6,9-10,12H,2-3,7-8H2,1H3
Instrument: Bruker maXis Impact
Instrument type: LC-ESI-QTOF
Ms type: MS2
Ion mode: POSITIVE
Ionization: ESI
Fragmentation mode: CID
Collision energy: 40 eV
Resolution: 35000
Column name: Acclaim RSLC C18 2.2um, 2.1x100mm, Thermo
Retention time: 11.112 min
Base peak: 226.1342
Precursor m/z: 342.0771
Precursor type: [M+H]+
m/z	relative intensity	assigned
122.9982	18	CH9Cl2O2+
124.007	5	C7H5Cl+
152.0604	7	C3H16Cl2NO+
153.0676	7	C6H14ClO2+
158.9752	999	C8ClN2+
159.9782	58	C7[13]CClN2+
160.9719	462	C8[37]ClN2+
161.9751	25	C5H4Cl2N2+
172.954	89	C5HCl2N3+
173.9585	7	C4[13]CHCl2N3+
174.9509	51	C5HCl[37]ClN3+
186.9698	29	C6H3Cl2N3+
188.9673	14	C6H3Cl[37]ClN3+
190.9646	28	C5H3Cl2N3O+
192.9618	21	C5H3Cl[37]ClN3O+
233.0349	7	C11H8ClN3O+
251.0465	6	C11H10ClN3O2+
