Mass spectrum: Amidosulfuron; LC-ESI-QTOF; MS2; CE: 40 eV; R=35000; [M+H]+
Name: Amidosulfuron
Name: 1-(4,6-dimethoxypyrimidin-2-yl)-3-[methyl(methylsulfonyl)sulfamoyl]urea
Formula: C9H15N5O7S2
Exact mass: 369.0412898
SMILES: COC1=CC(OC)=NC(NC(=O)NS(=O)(=O)N(C)S(C)(=O)=O)=N1
InChI: InChI=1S/C9H15N5O7S2/c1-14(22(4,16)17)23(18,19)13-9(15)12-8-10-6(20-2)5-7(11-8)21-3/h5H,1-4H3,(H2,10,11,12,13,15)
Instrument: Bruker maXis Impact
Instrument type: LC-ESI-QTOF
Ms type: MS2
Ion mode: POSITIVE
Ionization: ESI
Fragmentation mode: CID
Collision energy: 40 eV
Resolution: 35000
Column name: Acclaim RSLC C18 2.2um, 2.1x100mm, Thermo
Retention time: 6.969 min
Base peak: 370.0475
Precursor m/z: 370.0486
Precursor type: [M+H]+
m/z	relative intensity	assigned
124.0499	138	C5H6N3O+
126.0647	30	C2H10N2O4+
127.0495	200	C3H5N5O+
139.0363	979	C5H5N3O2+
140.04	60	C4[13]CH5N3O2+
142.0586	40	C2H10N2O5+
154.0596	472	C8H10O3+
155.0647	57	C7[13]CH10O3+
156.0767	22	C6H10N3O2+
157.0593	68	C4H7N5O2+
181.0703	102	C5H15N3S2+
182.0551	294	C7H8N3O3+
183.0582	31	C6[13]CH8N3O3+
218.0221	244	C9H4N3O4+
219.0226	34	C8[13]CH4N3O4+
236.0324	999	C9H8N4O2S+
237.0348	121	C8[13]CH8N4O2S+
238.0329	48	C9H8N4O2[34]S+
261.027	65	C7H9N4O5S+
