Mass spectrum: Triadimenol; LC-ESI-QTOF; MS2; CE: 20 eV; R=35000; [M+H]+
Name: Triadimenol
Name: 1-(4-chlorophenoxy)-3,3-dimethyl-1-(1,2,4-triazol-1-yl)butan-2-ol
Formula: C14H18ClN3O2
Exact mass: 295.1087545
SMILES: CC(C)(C)C(O)C(OC1=CC=C(Cl)C=C1)N1C=NC=N1
InChI: InChI=1S/C14H18ClN3O2/c1-14(2,3)12(19)13(18-9-16-8-17-18)20-11-6-4-10(15)5-7-11/h4-9,12-13,19H,1-3H3
Instrument: Bruker maXis Impact
Instrument type: LC-ESI-QTOF
Ms type: MS2
Ion mode: POSITIVE
Ionization: ESI
Fragmentation mode: CID
Collision energy: 20 eV
Resolution: 35000
Column name: Acclaim RSLC C18 2.2um, 2.1x100mm, Thermo
Retention time: 9.965 min
Base peak: 459.0857
Precursor m/z: 296.116
Precursor type: [M+H]+
m/z	relative intensity	assigned
127.0113	167	CH6ClN3O2+
144.1369	999	C8H18NO+
161.0945	108	C9H11N3+
171.0351	114	C7H8ClN2O+
209.0703	260	C10H12ClN3+
211.0674	107	C10H12[37]ClN3+
227.0826	369	C10H14ClN3O+
229.0802	135	C10H14[37]ClN3O+
