Mass spectrum: Difenoconazole; LC-ESI-QTOF; MS2; CE: 40 eV; R=35000; [M+H]+
Name: Difenoconazole
Name: 1-[[2-[2-chloro-4-(4-chlorophenoxy)phenyl]-4-methyl-1,3-dioxolan-2-yl]methyl]-1,2,4-triazole
Formula: C19H17Cl2N3O3
Exact mass: 405.0646968
SMILES: CC1COC(CN2C=NC=N2)(O1)C1=C(Cl)C=C(OC2=CC=C(Cl)C=C2)C=C1
InChI: InChI=1S/C19H17Cl2N3O3/c1-13-9-25-19(27-13,10-24-12-22-11-23-24)17-7-6-16(8-18(17)21)26-15-4-2-14(20)3-5-15/h2-8,11-13H,9-10H2,1H3
Instrument: Bruker maXis Impact
Instrument type: LC-ESI-QTOF
Ms type: MS2
Ion mode: POSITIVE
Ionization: ESI
Fragmentation mode: CID
Collision energy: 40 eV
Resolution: 35000
Column name: Acclaim RSLC C18 2.2um, 2.1x100mm, Thermo
Retention time: 11.563 min
Base peak: 306.1035
Precursor m/z: 406.072
Precursor type: [M+H]+
m/z	relative intensity	assigned
129.069	6	C10H9+
141.0088	6	C5H4ClN3+
152.061	19	C3H16Cl2NO+
153.0683	12	C3H17Cl2NO+
164.037	7	C11H4N2+
181.0638	14	C11H7N3+
186.051	8	C2H16Cl2N2O3+
187.03	19	C13H3N2+
188.0374	54	C12H9Cl+
189.0408	6	C11[13]CH9Cl+
190.0345	11	C12H9[37]Cl+
215.025	7	C11H6ClN3+
216.0316	6	C7H14Cl2O3+
223.0062	28	C12H9Cl2+
225.0035	15	C12H9Cl[37]Cl+
251.002	999	C11H7Cl2N3+
252.005	116	C10[13]CH7Cl2N3+
252.9992	505	C11H7Cl[37]ClN3+
254.0019	34	C11H8Cl2N2O+
254.9956	6	C13H4ClN2O2+
264.9812	42	C11H5Cl2N3O+
265.9845	6	C10[13]CH5Cl2N3O+
266.9783	24	C11H5Cl[37]ClN3O+
291.0328	7	C14H11Cl2N3+
293.0304	5	C14H11Cl[37]ClN3+
323.0234	6	C16H13Cl2O3+
