Mass spectrum: Pyraclostrobin; LC-ESI-QTOF; MS2; CE: 30 eV; R=35000; [M+H]+
Name: Pyraclostrobin
Name: methyl N-[2-[[1-(4-chlorophenyl)pyrazol-3-yl]oxymethyl]phenyl]-N-methoxycarbamate
Formula: C19H18ClN3O4
Exact mass: 387.0985837
SMILES: CON(C(=O)OC)C1=C(COC2=NN(C=C2)C2=CC=C(Cl)C=C2)C=CC=C1
InChI: InChI=1S/C19H18ClN3O4/c1-25-19(24)23(26-2)17-6-4-3-5-14(17)13-27-18-11-12-22(21-18)16-9-7-15(20)8-10-16/h3-12H,13H2,1-2H3
Instrument: Bruker maXis Impact
Instrument type: LC-ESI-QTOF
Ms type: MS2
Ion mode: POSITIVE
Ionization: ESI
Fragmentation mode: CID
Collision energy: 30 eV
Resolution: 35000
Column name: Acclaim RSLC C18 2.2um, 2.1x100mm, Thermo
Retention time: 11.236 min
Base peak: 388.1063
Precursor m/z: 388.1059
Precursor type: [M+H]+
m/z	relative intensity	assigned
118.064	7	C8H8N+
119.0359	18	C7H5NO+
120.0433	13	CH11ClNO3+
128.0484	6	C9H6N+
132.0435	58	C8H6NO+
133.0512	110	C8H7NO+
134.0586	55	C8H8NO+
135.0643	5	C7[13]CH8NO+
146.0591	9	C9H8NO+
149.0461	247	C8H7NO2+
150.0492	14	C7[13]CH7NO2+
162.0538	114	C3H13ClNO4+
163.0618	999	C9H9NO2+
164.0687	263	C4H10N3O4+
165.072	17	C3[13]CH10N3O4+
166.0846	9	C3H17ClNO4+
179.0566	11	C9H9NO3+
194.0801	57	C10H12NO3+
195.0833	6	C9[13]CH12NO3+
253.0517	6	C18H7NO+
261.0891	13	C12H18ClO4+
296.0584	65	C16H11ClN3O+
297.0613	11	C15[13]CH11ClN3O+
298.0559	18	C16H11[37]ClN3O+
324.0534	7	C17H11ClN3O2+
