Mass spectrum: Dimethachlor OA; LC-ESI-QTOF; MS2; CE: 30 eV; R=35000; [M+H]+
Name: Dimethachlor OA
Name: [(2,6-Dimethylphenyl)(2-methoxyethyl)amino](oxo)acetic acid
Name: 2-[N-(2-methoxyethyl)-2,6-dimethylanilino]-2-oxoacetic acid
Formula: C13H17NO4
Exact mass: 251.1157580
SMILES: COCCN(C(=O)C(O)=O)C1=C(C)C=CC=C1C
InChI: InChI=1S/C13H17NO4/c1-9-5-4-6-10(2)11(9)14(7-8-18-3)12(15)13(16)17/h4-6H,7-8H2,1-3H3,(H,16,17)
Instrument: Bruker maXis Impact
Instrument type: LC-ESI-QTOF
Ms type: MS2
Ion mode: POSITIVE
Ionization: ESI
Fragmentation mode: CID
Collision energy: 30 eV
Resolution: 35000
Column name: Acclaim RSLC C18 2.2um, 2.1x100mm, Thermo
Retention time: 5.405 min
Base peak: 222.0422
Precursor m/z: 252.123
Precursor type: [M+H]+
m/z	relative intensity	assigned
117.0557	233	C5H9O3+
118.0632	128	C5H10O3+
120.0809	84	C8H10N+
130.0641	180	C9H8N+
131.0718	639	C9H9N+
132.0799	950	C9H10N+
133.0872	415	C6H13O3+
143.0744	54	C10H9N+
146.095	431	C7H14O3+
148.0734	136	C6H12O4+
148.1107	999	C7H16O3+
149.1138	180	C7H17O3+
176.1073	191	C11H14NO+
178.121	54	C8H18O4+
220.0966	977	C12H14NO3+
221.0987	98	C11[13]CH14NO3+
