Mass spectrum: Metconazole; LC-ESI-QTOF; MS2; CE: Ramp 22.0-33.0 eV; R=35000; [M+H]+
Name: Metconazole
Name: 5-[(4-chlorophenyl)methyl]-2,2-dimethyl-1-(1,2,4-triazol-1-ylmethyl)cyclopentan-1-ol
Formula: C17H22ClN3O
Exact mass: 319.1451400
SMILES: CC1(C)CCC(CC2=CC=C(Cl)C=C2)C1(O)CN1C=NC=N1
InChI: InChI=1S/C17H22ClN3O/c1-16(2)8-7-14(9-13-3-5-15(18)6-4-13)17(16,22)10-21-12-19-11-20-21/h3-6,11-12,14,22H,7-10H2,1-2H3
Instrument: Bruker maXis Impact
Instrument type: LC-ESI-QTOF
Ms type: MS2
Ion mode: POSITIVE
Ionization: ESI
Fragmentation mode: CID
Collision energy: Ramp 22.0-33.0 eV
Resolution: 35000
Column name: Acclaim RSLC C18 2.2um, 2.1x100mm, Thermo
Retention time: 11.239 min
Base peak: 388.1063
Precursor m/z: 320.1524
Precursor type: [M+H]+
m/z	relative intensity	assigned
70.0395	999	C2H4N3+
71.0422	20	C[13]CH4N3+
125.0141	103	C7H6Cl+
126.0174	9	C6[13]CH6Cl+
127.0114	25	C7H6[37]Cl+
139.0295	11	C9H3N2+
151.03	5	C9H8Cl+
163.0303	9	C10H8Cl+
177.046	28	C11H10Cl+
179.043	9	C11H10[37]Cl+
191.0608	7	C13H7N2+
233.1074	19	C15H18Cl+
235.1059	8	C15H18[37]Cl+
320.1521	462	C17H23ClN3O+
321.155	88	C16[13]CH23ClN3O+
322.1492	128	C17H23[37]ClN3O+
