Mass spectrum: Prochloraz; LC-ESI-QTOF; MS2; CE: 20 eV; R=35000; [M+H]+
Name: Prochloraz
Name: N-propyl-N-[2-(2,4,6-trichlorophenoxy)ethyl]imidazole-1-carboxamide
Formula: C15H16Cl3N3O2
Exact mass: 375.0308098
SMILES: CCCN(CCOC1=C(Cl)C=C(Cl)C=C1Cl)C(=O)N1C=CN=C1
InChI: InChI=1S/C15H16Cl3N3O2/c1-2-4-20(15(22)21-5-3-19-10-21)6-7-23-14-12(17)8-11(16)9-13(14)18/h3,5,8-10H,2,4,6-7H2,1H3
Instrument: Bruker maXis Impact
Instrument type: LC-ESI-QTOF
Ms type: MS2
Ion mode: POSITIVE
Ionization: ESI
Fragmentation mode: CID
Collision energy: 20 eV
Resolution: 35000
Column name: Acclaim RSLC C18 2.2um, 2.1x100mm, Thermo
Retention time: 11.320 min
Base peak: 376.038
Precursor m/z: 376.0381
Precursor type: [M+H]+
m/z	relative intensity	assigned
174.9703	5	C5H3Cl2N3+
194.9162	5	C6H2Cl3O+
201.9813	13	C11H3ClO2+
203.9787	6	C11H3[37]ClO2+
222.9472	24	C6H4Cl3N3+
224.9445	18	C6H4Cl2[37]ClN3+
237.9588	7	C8H7Cl3NO+
239.9553	6	C8H7Cl2[37]ClNO+
239.9737	24	C8H9Cl3NO+
241.9712	24	C8H9Cl2[37]ClNO+
244.0286	22	C14H9ClO2+
245.0353	8	C12H8ClN3O+
246.0256	9	C14H9[37]ClO2+
265.9538	244	C9H7Cl3NO2+
266.9564	25	C8[13]CH7Cl3NO2+
267.9509	201	C9H7Cl2[37]ClNO2+
268.9533	11	C13HCl2N3+
280.0056	44	C11H13Cl3NO+
282.0031	34	C11H13Cl2[37]ClNO+
283.9639	9	C15H4Cl2NO+
285.9612	7	C15H4Cl[37]ClNO+
308.001	999	C12H13Cl3NO2+
309.0041	109	C11[13]CH13Cl3NO2+
309.9982	804	C12H13Cl2[37]ClNO2+
311.0012	51	C15H12Cl3N+
311.9949	11	C14H11Cl3N2+
