Mass spectrum: Dimethachlor ESA; LC-ESI-QTOF; MS2; CE: 40 eV; R=35000; [M+H]+
Name: Dimethachlor ESA
Name: 2-[(2,6-Dimethylphenyl)(2-methoxyethyl)amino]-2-oxoethanesulfonic acid
Name: 2-[N-(2-methoxyethyl)-2,6-dimethylanilino]-2-oxoethanesulfonic acid
Formula: C13H19NO5S
Exact mass: 301.0983937
SMILES: COCCN(C(=O)CS(O)(=O)=O)C1=C(C)C=CC=C1C
InChI: InChI=1S/C13H19NO5S/c1-10-5-4-6-11(2)13(10)14(7-8-19-3)12(15)9-20(16,17)18/h4-6H,7-9H2,1-3H3,(H,16,17,18)
Instrument: Bruker maXis Impact
Instrument type: LC-ESI-QTOF
Ms type: MS2
Ion mode: POSITIVE
Ionization: ESI
Fragmentation mode: CID
Collision energy: 40 eV
Resolution: 35000
Column name: Acclaim RSLC C18 2.2um, 2.1x100mm, Thermo
Retention time: 5.714 min
Base peak: 212.15
Precursor m/z: 302.1057
Precursor type: [M+H]+
m/z	relative intensity	assigned
117.0562	92	C8H7N+
130.0636	45	C6H10O3+
131.0713	113	C6H11O3+
132.0793	999	C9H10N+
133.0835	147	C8[13]CH10N+
144.0801	30	C10H10N+
145.087	29	C7H13O3+
146.0952	432	C10H12N+
147.1022	172	C7H15O3+
148.1103	138	C7H16O3+
158.0951	35	C8H14O3+
159.1013	36	C8H15O3+
174.0896	909	C11H12NO+
175.0924	172	C10[13]CH12NO+
206.1152	23	C9H18O5+
270.0796	44	C12H16NO4S+
