Mass spectrum: Prothioconazole-desthio; LC-ESI-QTOF; MS2; CE: 30 eV; R=35000; [M+H]+
Name: Prothioconazole-desthio
Name: 2-(1-Chlorocyclopropyl)-1-(2-chlorophenyl)-3-(1H-1,2,4-triazol-1-yl)propan-2-ol
Name: 2-(1-chlorocyclopropyl)-1-(2-chlorophenyl)-3-(1,2,4-triazol-1-yl)propan-2-ol
Formula: C14H15Cl2N3O
Exact mass: 311.0592175
SMILES: OC(CN1C=NC=N1)(CC1=CC=CC=C1Cl)C1(Cl)CC1
InChI: InChI=1S/C14H15Cl2N3O/c15-12-4-2-1-3-11(12)7-14(20,13(16)5-6-13)8-19-10-17-9-18-19/h1-4,9-10,20H,5-8H2
Instrument: Bruker maXis Impact
Instrument type: LC-ESI-QTOF
Ms type: MS2
Ion mode: POSITIVE
Ionization: ESI
Fragmentation mode: CID
Collision energy: 30 eV
Resolution: 35000
Column name: Acclaim RSLC C18 2.2um, 2.1x100mm, Thermo
Retention time: 10.483 min
Base peak: 312.0662
Precursor m/z: 312.0665
Precursor type: [M+H]+
m/z	relative intensity	assigned
115.0532	21	Cl2H15NO+
116.0602	9	Cl2H16NO+
125.0143	999	C7H6Cl+
126.0176	77	C6[13]CH6Cl+
127.011	216	C7H6[37]Cl+
128.0143	10	C5H5ClN2+
128.0614	15	C10H8+
129.0694	18	C10H9+
130.076	9	C10H10+
130.1217	11	C7H16NO+
137.0141	13	C9HN2+
139.0294	82	C8H8Cl+
140.0331	9	C7[13]CH8Cl+
141.0269	27	C8H8[37]Cl+
141.0686	25	C11H9+
142.0763	62	C11H10+
143.0829	22	C3H14ClN3O+
144.0915	29	C3H15ClN3O+
149.0138	23	C9H6Cl+
151.0109	5	C9H6[37]Cl+
151.0295	82	C9H8Cl+
152.0331	9	C8[13]CH8Cl+
152.0609	12	C3H16Cl2NO+
153.0267	18	C9H8[37]Cl+
153.0686	90	C12H9+
154.076	138	C12H10+
155.0237	16	C9H3N2O+
155.0579	5	CH15Cl2N3O+
155.0804	14	C11[13]CH10+
158.9742	24	C8ClN2+
160.9723	13	C8[37]ClN2+
162.0225	14	C10H7Cl+
163.0297	28	C10H8Cl+
165.0271	7	C10H8[37]Cl+
165.0446	16	C11H5N2+
165.0688	45	C13H9+
166.0756	12	C5H13ClN3O+
169.0737	8	C11H9N2+
171.0434	5	C9H5N3O+
176.0373	5	C12H4N2+
177.0458	43	C11H10Cl+
179.0432	11	C11H10[37]Cl+
179.0595	19	C3H15Cl2N3O+
181.0565	5	C3H15Cl[37]ClN3O+
181.0772	9	C11H14Cl+
183.0573	5	C10H12ClO+
185.0745	10	C10H14ClO+
187.0571	28	C6H15Cl2NO+
189.0451	95	C12H10Cl+
190.0504	18	C11[13]CH10Cl+
191.0427	20	C12H10[37]Cl+
225.0222	7	C13H6ClN2+
312.066	179	C14H16Cl2N3O+
313.0689	30	C13[13]CH16Cl2N3O+
314.0625	111	C14H16Cl[37]ClN3O+
