Mass spectrum: Metazachlor BH479-12; LC-ESI-QTOF; MS2; CE: 50 eV; R=35000; [M+H]+
Name: Metazachlor BH479-12
Formula: C14H13N3O5
Exact mass: 303.0855205
SMILES: CC1=C(N(CN2C=CC=N2)C(=O)C(O)=O)C(=CC=C1)C(O)=O
InChI: InChI=1S/C14H13N3O5/c1-9-4-2-5-10(13(19)20)11(9)17(12(18)14(21)22)8-16-7-3-6-15-16/h2-7H,8H2,1H3,(H,19,20)(H,21,22)
Instrument: Bruker maXis Impact
Instrument type: LC-ESI-QTOF
Ms type: MS2
Ion mode: POSITIVE
Ionization: ESI
Fragmentation mode: CID
Collision energy: 50 eV
Resolution: 35000
Column name: Acclaim RSLC C18 2.2um, 2.1x100mm, Thermo
Retention time: 4.456 min
Base peak: 244.0633
Precursor m/z: 304.0928
Precursor type: [M+H]+
m/z	relative intensity	assigned
117.057	118	C8H7N+
118.0639	124	C8H8N+
132.0447	169	C8H6NO+
134.0598	231	C8H8NO+
146.0593	686	C9H8NO+
147.0629	112	C8[13]CH8NO+
160.0377	999	C6H8O5+
161.0405	189	C13H5+
162.054	130	C9H8NO2+
