Mass spectrum: Dimethachlor CGA369873; LC-ESI-QTOF; MS2; CE: 50 eV; R=35000; [M+H]+
Name: Dimethachlor CGA369873
Formula: C10H13NO4S
Exact mass: 243.0565289
SMILES: CC1=CC=CC(C)=C1NC(=O)CS(O)(=O)=O
InChI: InChI=1S/C10H13NO4S/c1-7-4-3-5-8(2)10(7)11-9(12)6-16(13,14)15/h3-5H,6H2,1-2H3,(H,11,12)(H,13,14,15)
Instrument: Bruker maXis Impact
Instrument type: LC-ESI-QTOF
Ms type: MS2
Ion mode: POSITIVE
Ionization: ESI
Fragmentation mode: CID
Collision energy: 50 eV
Resolution: 35000
Column name: Acclaim RSLC C18 2.2um, 2.1x100mm, Thermo
Retention time: 4.456 min
Base peak: 244.0633
Precursor m/z: 244.0638
Precursor type: [M+H]+
m/z	relative intensity	assigned
118.0656	721	C2H14O3S+
120.0805	999	C8H10N+
144.079	529	C7H12O3+
