Mass spectrum: Amidosulfuron; LC-ESI-QTOF; MS2; CE: 20 eV; R=35000; [M+H]+
Name: Amidosulfuron
Name: 1-(4,6-dimethoxypyrimidin-2-yl)-3-[methyl(methylsulfonyl)sulfamoyl]urea
Formula: C9H15N5O7S2
Exact mass: 369.0412898
SMILES: COC1=CC(OC)=NC(NC(=O)NS(=O)(=O)N(C)S(C)(=O)=O)=N1
InChI: InChI=1S/C9H15N5O7S2/c1-14(22(4,16)17)23(18,19)13-9(15)12-8-10-6(20-2)5-7(11-8)21-3/h5H,1-4H3,(H2,10,11,12,13,15)
Instrument: Bruker maXis Impact
Instrument type: LC-ESI-QTOF
Ms type: MS2
Ion mode: POSITIVE
Ionization: ESI
Fragmentation mode: CID
Collision energy: 20 eV
Resolution: 35000
Column name: Acclaim RSLC C18 2.2um, 2.1x100mm, Thermo
Retention time: 6.998 min
Base peak: 215.0956
Precursor m/z: 370.0486
Precursor type: [M+H]+
m/z	relative intensity	assigned
139.0359	16	C3H11N2S2+
154.0587	48	C3H10N2O5+
182.0552	45	C7H8N3O3+
199.0816	143	C8H13N3OS+
200.0833	21	C7[13]CH13N3OS+
218.0218	231	C6H6N2O7+
219.0212	15	C5[13]CH6N2O7+
236.0332	429	C8H12O6S+
237.0363	47	C7[13]CH12O6S+
238.0306	24	C8H12O6[34]S+
261.0283	999	C9H11NO6S+
262.0295	109	C8[13]CH11NO6S+
263.0265	39	C9H11NO6[34]S+
279.0387	994	C9H13NO7S+
280.0416	113	C8[13]CH13NO7S+
281.0405	48	C9H13NO7[34]S+
370.0482	14	C9H16N5O7S2+
