Mass spectrum: Prochloraz; LC-ESI-QTOF; MS2; CE: 10 eV; R=35000; [M+H]+
Name: Prochloraz
Name: N-propyl-N-[2-(2,4,6-trichlorophenoxy)ethyl]imidazole-1-carboxamide
Formula: C15H16Cl3N3O2
Exact mass: 375.0308098
SMILES: CCCN(CCOC1=C(Cl)C=C(Cl)C=C1Cl)C(=O)N1C=CN=C1
InChI: InChI=1S/C15H16Cl3N3O2/c1-2-4-20(15(22)21-5-3-19-10-21)6-7-23-14-12(17)8-11(16)9-13(14)18/h3,5,8-10H,2,4,6-7H2,1H3
Instrument: Bruker maXis Impact
Instrument type: LC-ESI-QTOF
Ms type: MS2
Ion mode: POSITIVE
Ionization: ESI
Fragmentation mode: CID
Collision energy: 10 eV
Resolution: 35000
Column name: Acclaim RSLC C18 2.2um, 2.1x100mm, Thermo
Retention time: 11.298 min
Base peak: 388.1055
Precursor m/z: 376.0381
Precursor type: [M+H]+
m/z	relative intensity	assigned
265.953	19	C10H2Cl2N3O2+
267.9498	15	C10H2Cl[37]ClN3O2+
308.0004	999	C12H13Cl3NO2+
309.0036	109	C11[13]CH13Cl3NO2+
309.9976	822	C12H13Cl2[37]ClNO2+
311.0005	48	C10H12Cl3N3O2+
311.9944	13	C14H11Cl3N2+
376.038	140	C15H17Cl3N3O2+
377.0405	21	C14[13]CH17Cl3N3O2+
378.035	111	C15H17Cl2[37]ClN3O2+
