Mass spectrum: Prochloraz; LC-ESI-QTOF; MS2; CE: 30 eV; R=35000; [M+H]+
Name: Prochloraz
Name: N-propyl-N-[2-(2,4,6-trichlorophenoxy)ethyl]imidazole-1-carboxamide
Formula: C15H16Cl3N3O2
Exact mass: 375.0308098
SMILES: CCCN(CCOC1=C(Cl)C=C(Cl)C=C1Cl)C(=O)N1C=CN=C1
InChI: InChI=1S/C15H16Cl3N3O2/c1-2-4-20(15(22)21-5-3-19-10-21)6-7-23-14-12(17)8-11(16)9-13(14)18/h3,5,8-10H,2,4,6-7H2,1H3
Instrument: Bruker maXis Impact
Instrument type: LC-ESI-QTOF
Ms type: MS2
Ion mode: POSITIVE
Ionization: ESI
Fragmentation mode: CID
Collision energy: 30 eV
Resolution: 35000
Column name: Acclaim RSLC C18 2.2um, 2.1x100mm, Thermo
Retention time: 11.337 min
Base peak: 376.038
Precursor m/z: 376.0381
Precursor type: [M+H]+
m/z	relative intensity	assigned
138.0097	14	C10H2O+
158.9743	37	C8ClN2+
159.9824	10	CH11Cl3O2+
160.954	7	C4HCl2N3+
160.9718	14	C8[37]ClN2+
161.9613	13	C4H2Cl2N3+
161.9791	8	CH11Cl2[37]ClO2+
162.9513	5	C4HCl[37]ClN3+
163.957	6	C4H2Cl[37]ClN3+
166.0043	75	C8H5ClNO+
166.9209	15	C5H2Cl3+
167.0108	70	C8H6ClNO+
168.0004	15	C8H5[37]ClNO+
168.0156	5	C7[13]CH6ClNO+
168.918	13	C5H2Cl2[37]Cl+
169.0088	15	C8H6[37]ClNO+
173.9862	67	C8HClN3+
174.97	196	C8ClN2O+
175.983	32	C8H[37]ClN3+
176.9667	73	C8[37]ClN2O+
179.9282	14	C6H3Cl3+
180.0197	11	Cl3H15N2O2+
180.056	14	C11H6N3+
181.9255	10	C6H3Cl2[37]Cl+
185.961	10	C6H2Cl2N3+
186.9696	22	C8H5Cl2O+
187.9779	25	C9HClN2O+
188.9696	8	C8H5Cl[37]ClO+
189.9757	8	C9H[37]ClN2O+
194.9153	303	C6H2Cl3O+
194.9515	23	C7H6Cl3+
195.9181	25	C5[13]CH2Cl3O+
195.9552	5	C2H7Cl3N2O2+
196.9126	292	C6H2Cl2[37]ClO+
196.9302	55	C6H4Cl3O+
196.9488	25	C7H6Cl2[37]Cl+
197.9159	13	C4HCl3N2O+
197.936	5	C5[13]CH4Cl3O+
198.9089	9	C3Cl3N3O+
198.9277	59	C6H4Cl2[37]ClO+
201.9811	342	C11H3ClO2+
202.9862	42	C10[13]CH3ClO2+
203.978	152	C11H3[37]ClO2+
204.9357	7	C3H4Cl3N2O2+
204.9842	14	C14H2Cl+
206.9301	8	C3H4Cl2[37]ClN2O2+
208.0516	21	C14H8O2+
209.0595	59	C11H12ClNO+
210.063	9	C10[13]CH12ClNO+
211.0549	14	C11H12[37]ClNO+
215.9982	23	C10H3ClN3O+
217.991	7	C10H3[37]ClN3O+
219.9919	31	C8H8Cl2NO2+
220.9314	9	C6H2Cl3N3+
221.991	17	C8H8Cl[37]ClNO2+
222.9471	587	C6H4Cl3N3+
223.9507	54	C5[13]CH4Cl3N3+
224.9439	536	C6H4Cl2[37]ClN3+
225.9461	22	C6H5Cl3N2O+
226.9402	9	C8HCl2N2O2+
229.9781	7	C6H9Cl3N2O+
237.9578	129	C9H2Cl2N3O+
238.9595	10	C8[13]CH2Cl2N3O+
239.9552	122	C9H2Cl[37]ClN3O+
239.9734	86	C9H4Cl2N3O+
240.957	9	C6H6Cl3N3O+
240.9762	10	C8[13]CH4Cl2N3O+
241.9705	62	C9H4Cl[37]ClN3O+
242.9743	6	C15ClN2+
244.0287	252	C14H9ClO2+
245.0355	174	C12H8ClN3O+
246.0256	106	C14H9[37]ClO2+
247.0323	77	C12H8[37]ClN3O+
248.0327	6	C12H9ClN2O2+
265.9532	560	C10H2Cl2N3O2+
266.9556	58	C9[13]CH2Cl2N3O2+
267.9503	460	C10H2Cl[37]ClN3O2+
268.9535	33	C13HCl2N3+
269.9476	15	C14H2Cl2NO+
280.005	255	C14H10Cl2O2+
281.0091	38	C13[13]CH10Cl2O2+
282.0019	209	C14H10Cl[37]ClO2+
283.0058	18	C11H14Cl3O2+
283.9646	22	C15H4Cl2NO+
283.995	6	C14H11Cl3+
285.9628	18	C15H4Cl[37]ClNO+
297.0453	13	C15H15Cl2O2+
298.0476	5	C13H14Cl2N3O+
308.0002	999	C12H13Cl3NO2+
309.0039	165	C11[13]CH13Cl3NO2+
309.9973	879	C12H13Cl2[37]ClNO2+
311.0006	78	C10H12Cl3N3O2+
311.9933	15	C14H11Cl3N2+
