Mass spectrum: Clomazone; LC-ESI-QTOF; MS2; CE: 40 eV; R=35000; [M+H]+
Name: Clomazone
Name: 2-[(2-chlorophenyl)methyl]-4,4-dimethyl-1,2-oxazolidin-3-one
Formula: C12H14ClNO2
Exact mass: 239.0713064
SMILES: CC1(C)CON(CC2=CC=CC=C2Cl)C1=O
InChI: InChI=1S/C12H14ClNO2/c1-12(2)8-16-14(11(12)15)7-9-5-3-4-6-10(9)13/h3-6H,7-8H2,1-2H3
Instrument: Bruker maXis Impact
Instrument type: LC-ESI-QTOF
Ms type: MS2
Ion mode: POSITIVE
Ionization: ESI
Fragmentation mode: CID
Collision energy: 40 eV
Resolution: 35000
Column name: Acclaim RSLC C18 2.2um, 2.1x100mm, Thermo
Retention time: 8.926 min
Base peak: 240.078
Precursor m/z: 240.0786
Precursor type: [M+H]+
m/z	relative intensity	assigned
125.0143	999	C7H6Cl+
126.0175	83	C6[13]CH6Cl+
127.0113	353	C7H6[37]Cl+
128.0146	17	C8H2NO+
