Mass spectrum: Bupirimate; LC-ESI-QTOF; MS2; CE: 30 eV; R=35000; [M+H]+
Name: Bupirimate
Name: [5-butyl-2-(ethylamino)-6-methylpyrimidin-4-yl] N,N-dimethylsulfamate
Formula: C13H24N4O3S
Exact mass: 316.1569116
SMILES: CCCCC1=C(C)N=C(NCC)N=C1OS(=O)(=O)N(C)C
InChI: InChI=1S/C13H24N4O3S/c1-6-8-9-11-10(3)15-13(14-7-2)16-12(11)20-21(18,19)17(4)5/h6-9H2,1-5H3,(H,14,15,16)
Instrument: Bruker maXis Impact
Instrument type: LC-ESI-QTOF
Ms type: MS2
Ion mode: POSITIVE
Ionization: ESI
Fragmentation mode: CID
Collision energy: 30 eV
Resolution: 35000
Column name: Acclaim RSLC C18 2.2um, 2.1x100mm, Thermo
Retention time: 10.584 min
Base peak: 317.1647
Precursor m/z: 317.1642
Precursor type: [M+H]+
m/z	relative intensity	assigned
122.0704	5	C6H8N3+
138.065	21	C6H8N3O+
138.0906	7	H16N3O3S+
138.101	9	C4H14N2O3+
139.073	24	C6H9N3O+
140.1059	83	C6H12N4+
141.1094	7	C5[13]CH12N4+
148.0857	11	C8H10N3+
150.1016	171	C8H12N3+
151.036	10	C6H5N3O2+
151.1051	13	C7[13]CH12N3+
151.1214	11	CH19N4O2S+
152.0608	9	C4H12N2O2S+
152.0803	14	C7H10N3O+
153.0683	7	C4H13N2O2S+
157.0268	6	C8H3N3O+
159.0259	6	C10H7S+
165.0689	182	C5H13N2O2S+
165.0897	22	C8H11N3O+
165.101	51	CH17N4O3S+
166.0966	999	C10H14O2+
167.079	6	C8H11N2O2+
167.1025	125	C9[13]CH14O2+
168.1063	10	C6H18NO2S+
169.0469	24	C6H7N3O3+
171.0424	13	C9H5N3O+
179.0843	6	C6H15N2O2S+
180.1119	25	C9H14N3O+
180.1485	44	C10H18N3+
181.1191	11	C9H15N3O+
181.1511	6	C9[13]CH18N3+
182.1276	18	C9H16N3O+
183.0595	9	C8H11N2OS+
185.0751	35	C8H13N2OS+
186.0792	5	C7[13]CH13N2OS+
187.0576	82	C12H11S+
188.0595	10	C11[13]CH11S+
191.1171	5	C3H19N4O3S+
192.1486	24	C11H18N3+
193.1325	54	C3H21N4O3S+
194.1284	83	C10H16N3O+
195.1307	9	C9[13]CH16N3O+
208.144	379	C11H18N3O+
209.1488	55	C10[13]CH18N3O+
210.1596	720	C11H20N3O+
211.1626	64	C10[13]CH20N3O+
219.0429	9	C13H5N3O+
224.1749	39	C12H22N3O+
225.1786	5	C11[13]CH22N3O+
227.0684	6	C12H9N3O2+
237.0534	12	C13H7N3O2+
237.2073	160	C13H25N4+
238.21	23	C12[13]CH25N4+
244.0744	13	C9H14N3O3S+
245.0776	6	C12H11N3O3+
247.0742	17	C12H13N3OS+
254.0958	5	C11H16N3O2S+
262.085	21	C12H14N4OS+
272.1063	162	C11H18N3O3S+
273.1087	23	C10[13]CH18N3O3S+
274.1033	7	C11H18N3O3[34]S+
317.1645	145	C13H25N4O3S+
318.1673	21	C12[13]CH25N4O3S+
319.1618	6	C13H25N4O3[34]S+
