Mass spectrum: Epoxiconazole; LC-ESI-QTOF; MS2; CE: 20 eV; R=35000; [M+H]+
Name: Epoxiconazole
Name: 1-[[3-(2-chlorophenyl)-2-(4-fluorophenyl)oxiran-2-yl]methyl]-1,2,4-triazole
Formula: C17H13ClFN3O
Exact mass: 329.0731179
SMILES: FC1=CC=C(C=C1)C1(CN2C=NC=N2)OC1C1=C(Cl)C=CC=C1
InChI: InChI=1S/C17H13ClFN3O/c18-15-4-2-1-3-14(15)16-17(23-16,9-22-11-20-10-21-22)12-5-7-13(19)8-6-12/h1-8,10-11,16H,9H2
Instrument: Bruker maXis Impact
Instrument type: LC-ESI-QTOF
Ms type: MS2
Ion mode: POSITIVE
Ionization: ESI
Fragmentation mode: CID
Collision energy: 20 eV
Resolution: 35000
Column name: Acclaim RSLC C18 2.2um, 2.1x100mm, Thermo
Retention time: 10.316 min
Base peak: 330.0803
Precursor m/z: 330.0804
Precursor type: [M+H]+
m/z	relative intensity	assigned
121.0441	999	C8H6F+
122.0473	82	C7[13]CH6F+
123.0234	271	C5H2FN3+
124.0266	18	C4[13]CH2FN3+
138.9935	18	C5H2ClN3+
141.0089	167	C5H4ClN3+
142.012	12	C4[13]CH4ClN3+
143.006	42	C5H4[37]ClN3+
149.0585	5	C7H7N3O+
165.0532	8	C12H7N+
190.076	7	C10H9FN3+
261.047	7	C13H9ClFN3+
330.0803	301	C17H14ClFN3O+
331.0833	49	C16[13]CH14ClFN3O+
332.0773	82	C17H14[37]ClFN3O+
