Mass spectrum: Dodemorph; LC-ESI-QTOF; MS2; CE: Ramp 21.0-31.4 eV; R=35000; [M+H]+
Name: Dodemorph
Name: 4-cyclododecyl-2,6-dimethylmorpholine
Formula: C18H35NO
Exact mass: 281.2718647
SMILES: CC1CN(CC(C)O1)C1CCCCCCCCCCC1
InChI: InChI=1S/C18H35NO/c1-16-14-19(15-17(2)20-16)18-12-10-8-6-4-3-5-7-9-11-13-18/h16-18H,3-15H2,1-2H3
Instrument: Bruker maXis Impact
Instrument type: LC-ESI-QTOF
Ms type: MS2
Ion mode: POSITIVE
Ionization: ESI
Fragmentation mode: CID
Collision energy: Ramp 21.0-31.4 eV
Resolution: 35000
Column name: Acclaim RSLC C18 2.2um, 2.1x100mm, Thermo
Retention time: 8.779 min
Base peak: 282.2788
Precursor m/z: 282.2791
Precursor type: [M+H]+
m/z	relative intensity	assigned
55.0538	100	C4H7+
56.0487	8	C3H6N+
57.0694	19	C4H9+
69.0694	165	C5H9+
70.0649	11	C4H8N+
70.0724	8	C4[13]CH9+
71.085	11	C5H11+
81.0694	13	C6H9+
83.0855	120	C6H11+
84.0887	5	C5[13]CH11+
85.1008	11	C6H13+
97.1016	84	C7H13+
98.0972	382	C6H12N+
99.1005	19	C5[13]CH12N+
111.1182	16	C8H15+
116.1082	579	C6H14NO+
117.1102	37	C5[13]CH14NO+
160.111	11	C11H14N+
192.1375	13	C12H18NO+
282.2789	999	C18H36NO+
283.2823	215	C17[13]CH36NO+
284.2855	20	C16[13]C2H36NO+
