Mass spectrum: Propoxycarbazone; LC-ESI-QTOF; MS2; CE: Ramp 23.6-35.4 eV; R=35000; [M+H]+
Name: Propoxycarbazone
Name: methyl 2-[(4-methyl-5-oxo-3-propoxy-1,2,4-triazole-1-carbonyl)sulfamoyl]benzoate
Formula: C15H18N4O7S
Exact mass: 398.0896199
SMILES: CCCOC1=NN(C(=O)NS(=O)(=O)C2=CC=CC=C2C(=O)OC)C(=O)N1C
InChI: InChI=1S/C15H18N4O7S/c1-4-9-26-14-16-19(15(22)18(14)2)13(21)17-27(23,24)11-8-6-5-7-10(11)12(20)25-3/h5-8H,4,9H2,1-3H3,(H,17,21)
Instrument: Bruker maXis Impact
Instrument type: LC-ESI-QTOF
Ms type: MS2
Ion mode: POSITIVE
Ionization: ESI
Fragmentation mode: CID
Collision energy: Ramp 23.6-35.4 eV
Resolution: 35000
Column name: Acclaim RSLC C18 2.2um, 2.1x100mm, Thermo
Retention time: 5.721 min
Base peak: 212.1511
Precursor m/z: 399.0969
Precursor type: [M+H]+
m/z	relative intensity	assigned
116.0455	459	C3H6N3O2+
117.0505	98	H9N2O5+
133.0851	97	C4H11N3O2+
135.0442	354	C8H7O2+
146.0229	73	H8N3O4S+
158.0926	583	C6H12N3O2+
168.9954	110	C7H5O3S+
199.0065	999	C11H5NOS+
200.0089	154	C10[13]CH5NOS+
201.007	73	C11H5NO[34]S+
209.9852	550	C11NO4+
210.9872	113	C10[13]CNO4+
227.996	92	C8H6NO5S+
282.0188	219	C12H10O6S+
325.0188	69	C14H5N4O6+
