Mass spectrum: Dimoxystrobin; LC-ESI-QTOF; MS2; CE: 10 eV; R=35000; [M+H]+
Name: Dimoxystrobin
Name: Benzeneacetamide, 2-((2,5-dimethylphenoxy)methyl)-alpha-(methoxyimino)-N-methyl-, (alphaE)-
Name: (2E)-2-[2-[(2,5-dimethylphenoxy)methyl]phenyl]-2-methoxyimino-N-methylacetamide
Formula: C19H22N2O3
Exact mass: 326.1630426
SMILES: CNC(=O)C(=N\OC)\C1=CC=CC=C1COC1=CC(C)=CC=C1C
InChI: InChI=1S/C19H22N2O3/c1-13-9-10-14(2)17(11-13)24-12-15-7-5-6-8-16(15)18(21-23-4)19(22)20-3/h5-11H,12H2,1-4H3,(H,20,22)/b21-18+
Instrument: Bruker maXis Impact
Instrument type: LC-ESI-QTOF
Ms type: MS2
Ion mode: POSITIVE
Ionization: ESI
Fragmentation mode: CID
Collision energy: 10 eV
Resolution: 35000
Column name: Acclaim RSLC C18 2.2um, 2.1x100mm, Thermo
Retention time: 10.696 min
Base peak: 327.171
Precursor m/z: 327.1703
Precursor type: [M+H]+
m/z	relative intensity	assigned
116.0489	51	C8H6N+
205.0979	999	C11H13N2O2+
206.0998	264	C15H12N+
207.103	14	C14[13]CH12N+
210.127	6	C15H16N+
238.1223	177	C16H16NO+
239.1255	26	C15[13]CH16NO+
280.1331	33	C18H18NO2+
281.136	6	C17[13]CH18NO2+
327.1707	187	C19H23N2O3+
328.1736	35	C18[13]CH23N2O3+
