Mass spectrum: Pyraclostrobin; LC-ESI-QTOF; MS2; CE: 10 eV; R=35000; [M+H]+
Name: Pyraclostrobin
Name: methyl N-[2-[[1-(4-chlorophenyl)pyrazol-3-yl]oxymethyl]phenyl]-N-methoxycarbamate
Formula: C19H18ClN3O4
Exact mass: 387.0985837
SMILES: CON(C(=O)OC)C1=C(COC2=NN(C=C2)C2=CC=C(Cl)C=C2)C=CC=C1
InChI: InChI=1S/C19H18ClN3O4/c1-25-19(24)23(26-2)17-6-4-3-5-14(17)13-27-18-11-12-22(21-18)16-9-7-15(20)8-10-16/h3-12H,13H2,1-2H3
Instrument: Bruker maXis Impact
Instrument type: LC-ESI-QTOF
Ms type: MS2
Ion mode: POSITIVE
Ionization: ESI
Fragmentation mode: CID
Collision energy: 10 eV
Resolution: 35000
Column name: Acclaim RSLC C18 2.2um, 2.1x100mm, Thermo
Retention time: 11.248 min
Base peak: 388.1061
Precursor m/z: 388.1059
Precursor type: [M+H]+
m/z	relative intensity	assigned
149.0458	7	C2H12ClNO4+
162.0536	21	C3H13ClNO4+
163.0613	60	C3H14ClNO4+
164.0693	116	C9H10NO2+
165.0724	8	C8[13]CH10NO2+
194.0804	999	C7H15ClN2O2+
195.0834	69	C6[13]CH15ClN2O2+
296.0583	95	C16H11ClN3O+
297.0614	15	C15[13]CH11ClN3O+
298.0556	24	C16H11[37]ClN3O+
324.0531	16	C17H11ClN3O2+
356.0797	94	C18H15ClN3O3+
357.0838	24	C17[13]CH15ClN3O3+
358.0772	24	C18H15[37]ClN3O3+
388.106	526	C19H19ClN3O4+
389.1088	96	C18[13]CH19ClN3O4+
390.1033	133	C19H19[37]ClN3O4+
