Mass spectrum: Dimethachlor ESA; LC-ESI-QTOF; MS2; CE: 30 eV; R=35000; [M+H]+
Name: Dimethachlor ESA
Name: 2-[(2,6-Dimethylphenyl)(2-methoxyethyl)amino]-2-oxoethanesulfonic acid
Name: 2-[N-(2-methoxyethyl)-2,6-dimethylanilino]-2-oxoethanesulfonic acid
Formula: C13H19NO5S
Exact mass: 301.0983937
SMILES: COCCN(C(=O)CS(O)(=O)=O)C1=C(C)C=CC=C1C
InChI: InChI=1S/C13H19NO5S/c1-10-5-4-6-11(2)13(10)14(7-8-19-3)12(15)9-20(16,17)18/h4-6H,7-9H2,1-3H3,(H,16,17,18)
Instrument: Bruker maXis Impact
Instrument type: LC-ESI-QTOF
Ms type: MS2
Ion mode: POSITIVE
Ionization: ESI
Fragmentation mode: CID
Collision energy: 30 eV
Resolution: 35000
Column name: Acclaim RSLC C18 2.2um, 2.1x100mm, Thermo
Retention time: 5.706 min
Base peak: 212.1504
Precursor m/z: 302.1057
Precursor type: [M+H]+
m/z	relative intensity	assigned
117.0558	28	C5H9O3+
131.0692	28	C6H11O3+
132.0799	578	C9H10N+
133.0827	86	C8[13]CH10N+
145.0862	33	C7H13O3+
146.0954	144	C10H12N+
147.1031	579	C10H13N+
148.1094	162	C7H16O3+
149.1126	22	C6[13]CH16O3+
156.0888	25	CH18NO5S+
159.1025	41	C8H15O3+
174.0899	999	C11H12NO+
175.0933	151	C10[13]CH12NO+
189.1128	77	C9H17O4+
190.1211	27	C9H18O4+
204.1027	34	C6H20O5S+
206.1171	56	C12H16NO2+
252.0654	42	C12H14NO3S+
270.0796	698	C12H16NO4S+
271.0826	125	C11[13]CH16NO4S+
272.0789	44	C12H16NO4[34]S+
