Mass spectrum: Desethylterbutylazine; LC-ESI-QTOF; MS2; CE: 30 eV; R=35000; [M+H]+
Name: Desethylterbutylazine
Name: Desethylterbuthylazine
Name: 2-N-tert-butyl-6-chloro-1,3,5-triazine-2,4-diamine
Formula: C7H12ClN5
Exact mass: 201.0781231
SMILES: CC(C)(C)NC1=NC(Cl)=NC(N)=N1
InChI: InChI=1S/C7H12ClN5/c1-7(2,3)13-6-11-4(8)10-5(9)12-6/h1-3H3,(H3,9,10,11,12,13)
Instrument: Bruker maXis Impact
Instrument type: LC-ESI-QTOF
Ms type: MS2
Ion mode: POSITIVE
Ionization: ESI
Fragmentation mode: CID
Collision energy: 30 eV
Resolution: 35000
Column name: Acclaim RSLC C18 2.2um, 2.1x100mm, Thermo
Retention time: 7.412 min
Base peak: 202.0848
Precursor m/z: 202.0854
Precursor type: [M+H]+
m/z	relative intensity	assigned
110.0445	5	C3H4N5+
146.022	999	C3H5ClN5+
147.0232	47	C2[13]CH5ClN5+
148.0186	317	C3H5[37]ClN5+
