Mass spectrum: Fluoxastrobin; LC-ESI-QTOF; MS2; CE: Ramp 24.8-37.2 eV; R=35000; [M+H]+
Name: Fluoxastrobin
Name: (E)-1-[2-[6-(2-chlorophenoxy)-5-fluoropyrimidin-4-yl]oxyphenyl]-1-(5,6-dihydro-1,4,2-dioxazin-3-yl)-N-methoxymethanimine
Formula: C21H16ClFN4O5
Exact mass: 458.0793255
SMILES: CO\N=C(\C1=NOCCO1)C1=C(OC2=C(F)C(OC3=C(Cl)C=CC=C3)=NC=N2)C=CC=C1
InChI: InChI=1S/C21H16ClFN4O5/c1-28-26-18(21-27-30-11-10-29-21)13-6-2-4-8-15(13)31-19-17(23)20(25-12-24-19)32-16-9-5-3-7-14(16)22/h2-9,12H,10-11H2,1H3/b26-18+
Instrument: Bruker maXis Impact
Instrument type: LC-ESI-QTOF
Ms type: MS2
Ion mode: POSITIVE
Ionization: ESI
Fragmentation mode: CID
Collision energy: Ramp 24.8-37.2 eV
Resolution: 35000
Column name: Acclaim RSLC C18 2.2um, 2.1x100mm, Thermo
Retention time: 9.984 min
Base peak: 459.0868
Precursor m/z: 459.0866
Precursor type: [M+H]+
m/z	relative intensity	assigned
65.038	8	FH4N3+
73.0279	5	C3H5O2+
90.0338	25	C6H4N+
91.054	8	C2H6FN3+
93.0335	8	C6H5O+
95.0491	6	C6H7O+
104.0499	17	C7H6N+
105.045	6	C6H5N2+
106.0291	11	C3H7ClN2+
111.0444	6	C3H10ClNO+
119.0367	8	C7H5NO+
120.0446	47	C4H9ClN2+
129.0095	6	C4H2FN2O2+
130.0286	12	C3H3FN4O+
132.0443	14	C8H6NO+
134.0599	10	C3H7FN4O+
138.0103	60	C7H5ClN+
139.0117	6	C6[13]CH5ClN+
140.007	16	C7H5[37]ClN+
144.0318	7	C8H4N2O+
145.0392	61	C8H5N2O+
146.0228	12	C6H2N4O+
146.0426	5	C7[13]CH5N2O+
150.0345	24	C8H5FNO+
161.0334	14	C2H10ClN2O4+
162.0352	8	C9H5FNO+
163.0491	5	C8H7N2O2+
164.0334	25	C6H4N4O2+
168.0001	7	C11HFO+
170.0341	12	C5H11ClO4+
175.0293	11	C12H3N2+
176.037	15	C12H4N2+
178.029	29	C12H4NO+
178.9996	20	C2H7ClFNO5+
180.9972	5	C2H7[37]ClFNO5+
183.9954	8	C11HFO2+
188.0375	323	C13H4N2+
189.0408	32	C12[13]CH4N2+
190.0476	12	C4H13ClNO5+
191.0243	5	C9H6ClN3+
202.0406	6	C6H12ClFO4+
204.053	5	C10H8N2O3+
204.0762	8	C6H17ClO5+
205.0399	22	C10H8ClN3+
205.0601	22	C10H9N2O3+
211.9897	6	C12H3ClNO+
214.0059	12	C12H3FO3+
214.0405	5	C7H12ClFO4+
214.0606	11	C7H15ClO5+
218.036	6	C10H5FN3O2+
223.0056	6	C13H4ClN2+
223.9901	5	C13H3ClNO+
228.0434	6	C7H12ClFNO4+
230.0357	41	C11H7ClN4+
231.0202	19	C11H4FN2O3+
232.0514	6	C11H7FN3O2+
240.0439	8	C12H5FN4O+
241.0516	8	C12H6FN4O+
242.0573	11	C6H13ClN3O5+
244.0514	5	C6H13[37]ClN3O5+
246.031	43	C11H7ClN4O+
247.0341	5	C10[13]CH7ClN4O+
255.0312	10	C12H4FN4O2+
257.0463	10	C8H13ClFNO5+
266.0127	22	C8H8ClFN2O5+
267.0321	6	C15H8ClN2O+
268.0078	5	C8H8[37]ClFN2O5+
274.0622	15	C13H9FN3O3+
278.0715	5	C12H16ClFO4+
280.0643	6	C16H9FN2O2+
290.0572	7	C13H9FN3O4+
300.0648	6	C14H9FN4O3+
304.0513	5	C17H9ClN4+
306.0676	138	C17H11ClN4+
307.0707	19	C16[13]CH11ClN4+
313.041	6	C16H9ClFN3O+
315.0337	45	C16H9ClFN2O2+
316.0368	7	C15[13]CH9ClFN2O2+
317.0305	10	C16H9[37]ClFN2O2+
318.0673	6	C18H9FN3O2+
331.0625	9	C18H8FN4O2+
333.078	5	C18H10FN4O2+
340.0283	31	C19H10ClFO3+
341.0349	9	C18[13]CH10ClFO3+
342.0427	29	C20H9ClN3O+
343.0442	8	C19[13]CH9ClN3O+
344.0411	9	C20H9[37]ClN3O+
355.0381	5	C20H8ClN4O+
367.0397	84	C18H9ClFN4O2+
368.0422	14	C17[13]CH9ClFN4O2+
369.0378	21	C18H9[37]ClFN4O2+
383.0346	79	C20H11ClFNO4+
384.0371	16	C19[13]CH11ClFNO4+
385.0365	21	C20H11[37]ClFNO4+
385.0424	20	C20H11[37]ClFNO4+
387.0472	5	C17H12ClN4O5+
397.049	7	C19H11ClFN4O3+
427.0612	999	C20H13ClFN4O4+
428.064	272	C19[13]CH13ClFN4O4+
429.0591	337	C20H13[37]ClFN4O4+
430.0604	51	C20H14ClFN3O5+
459.0871	38	C21H17ClFN4O5+
460.0896	10	C20[13]CH17ClFN4O5+
461.0851	13	C21H17[37]ClFN4O5+
