Mass spectrum: Thiamethoxam; LC-ESI-QTOF; MS2; CE: 40 eV; R=35000; [M+H]+
Name: Thiamethoxam
Name: Actara
Name: (NE)-N-[3-[(2-chloro-1,3-thiazol-5-yl)methyl]-5-methyl-1,3,5-oxadiazinan-4-ylidene]nitramide
Formula: C8H10ClN5O3S
Exact mass: 291.0192879
SMILES: CN1COCN(CC2=CN=C(Cl)S2)\C1=N\[N+]([O-])=O
InChI: InChI=1S/C8H10ClN5O3S/c1-12-4-17-5-13(8(12)11-14(15)16)3-6-2-10-7(9)18-6/h2H,3-5H2,1H3/b11-8+
Instrument: Bruker maXis Impact
Instrument type: LC-ESI-QTOF
Ms type: MS2
Ion mode: POSITIVE
Ionization: ESI
Fragmentation mode: CID
Collision energy: 40 eV
Resolution: 35000
Column name: Acclaim RSLC C18 2.2um, 2.1x100mm, Thermo
Retention time: 4.187 min
Base peak: 292.0262
Precursor m/z: 292.0266
Precursor type: [M+H]+
m/z	relative intensity	assigned
108.0552	5	C5H6N3+
122.0703	187	C6H8N3+
123.0772	43	C3H11N2O3+
124.0073	22	C7H5Cl+
125.0156	126	C5H5N2S+
126.0195	9	C4[13]CH5N2S+
127.0118	7	C5H5N2[34]S+
131.9658	457	C4H3ClNS+
132.9695	23	C3[13]CH3ClNS+
133.9625	168	C4H3[37]ClNS+
134.9661	7	C4H4ClOS+
137.0817	5	C6H9N4+
138.0108	59	C7H5ClN+
139.0164	8	C8HN3+
139.0314	13	C8H8Cl+
140.0268	7	C7H7ClN+
145.9685	8	C7NOS+
146.9741	5	C7ClN2+
147.0651	23	C4H9N3O3+
148.0729	11	C4H10N3O3+
151.0185	155	C8H6ClN+
152.0265	999	C6H6N3S+
153.0291	70	C5[13]CH6N3S+
154.0226	27	C6H6N3[34]S+
154.0416	26	C8H9ClN+
160.9922	6	C6HN4S+
165.0215	39	C8H6ClN2+
165.0755	19	C7H9N4O+
166.0288	16	ClH11N4O2S+
171.9723	5	C8N2OS+
172.9791	7	C2H6ClN2O3S+
172.9902	6	C3H8ClNO3S+
174.9721	21	C8ClN2O+
176.9678	5	C8[37]ClN2O+
179.0374	19	C7H7N4S+
180.0454	48	C7H8N4S+
181.053	786	C7H9N4S+
182.0553	60	C6[13]CH9N4S+
183.0485	23	C7H9N4[34]S+
199.0637	32	C7H11N4OS+
211.0639	69	C8H10ClN5+
212.0664	7	C7[13]CH10ClN5+
215.0144	17	C4H10ClN3O3S+
217.011	7	C4H10[37]ClN3O3S+
