Mass spectrum: DINCH; LC-ESI-QTOF; MS2; CE: 30 eV; R=35000; [M+H]+
Name: DINCH
Name: bis(7-methyloctyl) cyclohexane-1,2-dicarboxylate
Formula: C26H48O4
Exact mass: 424.3552600
SMILES: CC(C)CCCCCCOC(=O)C1CCCCC1C(=O)OCCCCCCC(C)C
InChI: InChI=1S/C26H48O4/c1-21(2)15-9-5-7-13-19-29-25(27)23-17-11-12-18-24(23)26(28)30-20-14-8-6-10-16-22(3)4/h21-24H,5-20H2,1-4H3
Instrument: Bruker maXis Impact
Instrument type: LC-ESI-QTOF
Ms type: MS2
Ion mode: POSITIVE
Ionization: ESI
Fragmentation mode: CID
Collision energy: 30 eV
Resolution: 35000
Column name: Acclaim RSLC C18 2.2um, 2.1x100mm, Thermo
Retention time: 14.951 min
Base peak: 508.1872
Precursor m/z: 425.3625
Precursor type: [M+H]+
m/z	relative intensity	assigned
133.084	579	C6H13O3+
187.0743	424	C12H11O2+
309.2805	557	C20H37O2+
324.3263	999	C18H44O4+
325.3293	424	C18H45O4+
