Mass spectrum: Methiocarb; LC-ESI-QTOF; MS2; CE: Ramp 18.9-28.4 eV; R=35000; [M+H]+
Name: Methiocarb
Name: (3,5-dimethyl-4-methylsulfanylphenyl) N-methylcarbamate
Formula: C11H15NO2S
Exact mass: 225.0823497
SMILES: CNC(=O)OC1=CC(C)=C(SC)C(C)=C1
InChI: InChI=1S/C11H15NO2S/c1-7-5-9(14-11(13)12-3)6-8(2)10(7)15-4/h5-6H,1-4H3,(H,12,13)
Instrument: Bruker maXis Impact
Instrument type: LC-ESI-QTOF
Ms type: MS2
Ion mode: POSITIVE
Ionization: ESI
Fragmentation mode: CID
Collision energy: Ramp 18.9-28.4 eV
Resolution: 35000
Column name: Acclaim RSLC C18 2.2um, 2.1x100mm, Thermo
Retention time: 9.381 min
Base peak: 226.0893
Precursor m/z: 226.0896
Precursor type: [M+H]+
m/z	relative intensity	assigned
77.038	7	C6H5+
91.0543	64	C7H7+
93.0703	154	C7H9+
94.0733	11	C6[13]CH9+
95.0495	19	C6H7O+
95.0857	5	C7H11+
107.0495	14	C7H7O+
121.0647	999	C8H9O+
122.0716	442	C8H10O+
123.0767	42	C7[13]CH10O+
139.0748	30	C8H11O2+
141.0725	9	C8H13S+
153.0361	25	C8H9OS+
153.0894	5	C9H13O2+
154.043	45	C8H10OS+
169.0673	642	C9H13OS+
170.0702	78	C8[13]CH13OS+
171.0634	25	C9H13O[34]S+
