Mass spectrum: Difenoconazole; LC-ESI-QTOF; MS2; CE: Ramp 23.7-35.6 eV; R=35000; [M+H]+
Name: Difenoconazole
Name: 1-[[2-[2-chloro-4-(4-chlorophenoxy)phenyl]-4-methyl-1,3-dioxolan-2-yl]methyl]-1,2,4-triazole
Formula: C19H17Cl2N3O3
Exact mass: 405.0646968
SMILES: CC1COC(CN2C=NC=N2)(O1)C1=C(Cl)C=C(OC2=CC=C(Cl)C=C2)C=C1
InChI: InChI=1S/C19H17Cl2N3O3/c1-13-9-25-19(27-13,10-24-12-22-11-23-24)17-7-6-16(8-18(17)21)26-15-4-2-14(20)3-5-15/h2-8,11-13H,9-10H2,1H3
Instrument: Bruker maXis Impact
Instrument type: LC-ESI-QTOF
Ms type: MS2
Ion mode: POSITIVE
Ionization: ESI
Fragmentation mode: CID
Collision energy: Ramp 23.7-35.6 eV
Resolution: 35000
Column name: Acclaim RSLC C18 2.2um, 2.1x100mm, Thermo
Retention time: 11.590 min
Base peak: 528.0777
Precursor m/z: 406.072
Precursor type: [M+H]+
m/z	relative intensity	assigned
105.0707	9	C8H9+
116.0492	60	C8H6N+
117.0568	9	C8H7N+
118.0647	14	C8H8N+
130.0644	11	C9H8N+
131.0723	120	C9H9N+
132.0801	71	C9H10N+
134.06	30	C8H8NO+
145.025	94	CH8ClN3O3+
146.0593	34	C9H8NO+
147.0662	6	Cl2H17N2O2+
162.0903	18	C10H12NO+
164.0377	5	C11H4N2+
173.0311	38	Cl2H13N3O3+
186.0517	999	C2H16Cl2N2O3+
187.0551	22	C[13]CH16Cl2N2O3+
188.0374	8	C13H4N2+
206.0804	107	C11H12NO3+
251.0022	578	C11H7Cl2N3+
252.0054	92	C10[13]CH7Cl2N3+
252.9994	325	C11H7Cl[37]ClN3+
254.0026	29	C11H8Cl2N2O+
254.9965	11	C10H7Cl2N3O+
264.981	15	C11H5Cl2N3O+
266.9784	7	C11H5Cl[37]ClN3O+
291.034	14	C16H13Cl2O+
293.031	7	C16H13Cl[37]ClO+
323.0244	13	C16H13Cl2O3+
325.0208	6	C16H13Cl[37]ClO3+
337.0398	60	C17H15Cl2O3+
338.0432	11	C16[13]CH15Cl2O3+
339.0364	35	C17H15Cl[37]ClO3+
406.0727	61	C19H18Cl2N3O3+
407.0776	18	C18[13]CH18Cl2N3O3+
408.0698	37	C19H18Cl[37]ClN3O3+
