Mass spectrum: Thiamethoxam; LC-ESI-QTOF; MS2; CE: 30 eV; R=35000; [M+H]+
Name: Thiamethoxam
Name: Actara
Name: (NE)-N-[3-[(2-chloro-1,3-thiazol-5-yl)methyl]-5-methyl-1,3,5-oxadiazinan-4-ylidene]nitramide
Formula: C8H10ClN5O3S
Exact mass: 291.0192879
SMILES: CN1COCN(CC2=CN=C(Cl)S2)\C1=N\[N+]([O-])=O
InChI: InChI=1S/C8H10ClN5O3S/c1-12-4-17-5-13(8(12)11-14(15)16)3-6-2-10-7(9)18-6/h2H,3-5H2,1H3/b11-8+
Instrument: Bruker maXis Impact
Instrument type: LC-ESI-QTOF
Ms type: MS2
Ion mode: POSITIVE
Ionization: ESI
Fragmentation mode: CID
Collision energy: 30 eV
Resolution: 35000
Column name: Acclaim RSLC C18 2.2um, 2.1x100mm, Thermo
Retention time: 4.211 min
Base peak: 292.0257
Precursor m/z: 292.0266
Precursor type: [M+H]+
m/z	relative intensity	assigned
122.0701	86	C8H10O+
123.0762	9	C7[13]CH10O+
125.0157	25	C7H6Cl+
131.9658	234	C4H3ClNS+
132.9687	12	C3[13]CH3ClNS+
133.9624	71	C4H3[37]ClNS+
138.0107	14	C7H5ClN+
139.0305	7	C8H8Cl+
147.0652	8	C4H9N3O3+
151.0182	53	C8H6ClN+
152.0263	232	C6H6N3S+
153.0283	14	C5[13]CH6N3S+
154.0214	6	C6H6N3[34]S+
154.0417	8	C8H9ClN+
165.0212	6	C8H6ClN2+
174.9711	13	C3H2ClN5S+
176.9684	5	C3H2[37]ClN5S+
179.037	7	C4H9N3O3S+
180.0451	95	C7H8N4S+
181.053	999	C4H11N3O3S+
182.0552	62	C3[13]CH11N3O3S+
183.0485	22	C4H11N3O3[34]S+
199.0635	30	C7H11N4OS+
210.0558	20	C8H10N4OS+
211.0636	404	C8H11N4OS+
212.0658	34	C7[13]CH11N4OS+
213.06	14	C8H11N4O[34]S+
215.0138	11	C4H10ClN3O3S+
