Mass spectrum: Myclobutanil; LC-ESI-QTOF; MS2; CE: Ramp 21.2-31.8 eV; R=35000; [M+H]+
Name: Myclobutanil
Name: 2-(4-chlorophenyl)-2-(1,2,4-triazol-1-ylmethyl)hexanenitrile
Formula: C15H17ClN4
Exact mass: 288.1141742
SMILES: CCCCC(CN1C=NC=N1)(C#N)C1=CC=C(Cl)C=C1
InChI: InChI=1S/C15H17ClN4/c1-2-3-8-15(9-17,10-20-12-18-11-19-20)13-4-6-14(16)7-5-13/h4-7,11-12H,2-3,8,10H2,1H3
Instrument: Bruker maXis Impact
Instrument type: LC-ESI-QTOF
Ms type: MS2
Ion mode: POSITIVE
Ionization: ESI
Fragmentation mode: CID
Collision energy: Ramp 21.2-31.8 eV
Resolution: 35000
Column name: Acclaim RSLC C18 2.2um, 2.1x100mm, Thermo
Retention time: 9.783 min
Base peak: 289.1212
Precursor m/z: 289.1215
Precursor type: [M+H]+
m/z	relative intensity	assigned
70.0396	999	C2H4N3+
71.0426	16	C[13]CH4N3+
125.0146	255	C7H6Cl+
126.0174	17	C6[13]CH6Cl+
127.0115	63	C7H6[37]Cl+
150.0089	7	C9N3+
151.03	90	C9H8Cl+
152.0325	6	C8[13]CH8Cl+
153.027	23	C9H8[37]Cl+
164.0252	24	C9H7ClN+
165.0308	11	C10H3N3+
166.0219	7	C9H7[37]ClN+
166.0407	11	C10H4N3+
168.0919	7	C13H12+
178.0405	15	C11H4N3+
192.0558	6	C12H6N3+
193.0768	16	C13H9N2+
203.0615	11	C13H12Cl+
220.088	38	C13H15ClN+
221.0913	5	C12[13]CH15ClN+
222.0852	9	C13H15[37]ClN+
289.1216	104	C15H18ClN4+
290.124	18	C14[13]CH18ClN4+
291.1189	29	C15H18[37]ClN4+
