Mass spectrum: Metazachlor BH479-12; LC-ESI-QTOF; MS2; CE: 30 eV; R=35000; [M+H]+
Name: Metazachlor BH479-12
Formula: C14H13N3O5
Exact mass: 303.0855205
SMILES: CC1=C(N(CN2C=CC=N2)C(=O)C(O)=O)C(=CC=C1)C(O)=O
InChI: InChI=1S/C14H13N3O5/c1-9-4-2-5-10(13(19)20)11(9)17(12(18)14(21)22)8-16-7-3-6-15-16/h2-7H,8H2,1H3,(H,19,20)(H,21,22)
Instrument: Bruker maXis Impact
Instrument type: LC-ESI-QTOF
Ms type: MS2
Ion mode: POSITIVE
Ionization: ESI
Fragmentation mode: CID
Collision energy: 30 eV
Resolution: 35000
Column name: Acclaim RSLC C18 2.2um, 2.1x100mm, Thermo
Retention time: 4.401 min
Base peak: 244.063
Precursor m/z: 304.0928
Precursor type: [M+H]+
m/z	relative intensity	assigned
118.0645	40	C8H8N+
122.0966	47	C8H12N+
134.0579	202	C5H10O4+
144.0424	78	C6H8O4+
146.0588	633	C9H8NO+
147.0627	155	C4H9N3O3+
160.038	999	C6H8O5+
161.04	79	C5[13]CH8O5+
162.0533	585	C6H10O5+
163.0573	47	C5[13]CH10O5+
164.0701	52	C9H10NO2+
206.043	485	C10H8NO4+
207.0455	68	C9[13]CH8NO4+
218.0456	74	C11H8NO4+
