Mass spectrum: Quinmerac; LC-ESI-QTOF; MS2; CE: 50 eV; R=35000; [M+H]+
Name: Quinmerac
Name: 7-chloro-3-methylquinoline-8-carboxylic acid
Formula: C11H8ClNO2
Exact mass: 221.0243562
SMILES: CC1=CC2=C(N=C1)C(C(O)=O)=C(Cl)C=C2
InChI: InChI=1S/C11H8ClNO2/c1-6-4-7-2-3-8(12)9(11(14)15)10(7)13-5-6/h2-5H,1H3,(H,14,15)
Instrument: Bruker maXis Impact
Instrument type: LC-ESI-QTOF
Ms type: MS2
Ion mode: POSITIVE
Ionization: ESI
Fragmentation mode: CID
Collision energy: 50 eV
Resolution: 35000
Column name: Acclaim RSLC C18 2.2um, 2.1x100mm, Thermo
Retention time: 4.907 min
Base peak: 222.031
Precursor m/z: 222.0316
Precursor type: [M+H]+
m/z	relative intensity	assigned
113.0379	42	C9H5+
114.0456	86	C9H6+
115.0497	11	C8[13]CH6+
122.9984	14	C7H4Cl+
140.0484	999	C10H6N+
141.0559	641	C10H7N+
142.0594	74	C9[13]CH7N+
149.0141	509	C9H6Cl+
150.0163	47	C8[13]CH6Cl+
151.011	153	C9H6[37]Cl+
152.0134	8	C10H2NO+
161.0011	9	C9H4ClN+
174.0099	7	C10H5ClN+
175.0165	12	C10H6ClN+
176.0248	34	C10H7ClN+
177.0281	5	C9[13]CH7ClN+
178.0216	13	C10H7[37]ClN+
194.036	6	C10H9ClNO+
204.0201	16	C11H7ClNO+
206.0164	8	C11H7ClO2+
