Mass spectrum: Desisopropylatrazine; LC-ESI-QTOF; MS2; CE: 20 eV; R=35000; [M+H]+
Name: Desisopropylatrazine
Name: Deisopropylatrazine
Name: 6-chloro-2-N-ethyl-1,3,5-triazine-2,4-diamine
Formula: C5H8ClN5
Exact mass: 173.0468229
SMILES: CCNC1=NC(Cl)=NC(N)=N1
InChI: InChI=1S/C5H8ClN5/c1-2-8-5-10-3(6)9-4(7)11-5/h2H2,1H3,(H3,7,8,9,10,11)
Instrument: Bruker maXis Impact
Instrument type: LC-ESI-QTOF
Ms type: MS2
Ion mode: POSITIVE
Ionization: ESI
Fragmentation mode: CID
Collision energy: 20 eV
Resolution: 35000
Column name: Acclaim RSLC C18 2.2um, 2.1x100mm, Thermo
Retention time: 4.690 min
Base peak: 198.1341
Precursor m/z: 174.0541
Precursor type: [M+H]+
m/z	relative intensity	assigned
132.0312	272	C4H7ClN3+
133.0343	12	C3[13]CH7ClN3+
134.0285	71	C4H7[37]ClN3+
138.0764	83	C5H8N5+
139.0815	6	C4[13]CH8N5+
146.0216	151	C3H5ClN5+
148.0192	47	C3H5[37]ClN5+
174.0533	999	C5H9ClN5+
175.056	52	C4[13]CH9ClN5+
176.0501	281	C5H9[37]ClN5+
