Mass spectrum: Epoxiconazole; LC-ESI-QTOF; MS2; CE: 30 eV; R=35000; [M+H]+
Name: Epoxiconazole
Name: 1-[[3-(2-chlorophenyl)-2-(4-fluorophenyl)oxiran-2-yl]methyl]-1,2,4-triazole
Formula: C17H13ClFN3O
Exact mass: 329.0731179
SMILES: FC1=CC=C(C=C1)C1(CN2C=NC=N2)OC1C1=C(Cl)C=CC=C1
InChI: InChI=1S/C17H13ClFN3O/c18-15-4-2-1-3-14(15)16-17(23-16,9-22-11-20-10-21-22)12-5-7-13(19)8-6-12/h1-8,10-11,16H,9H2
Instrument: Bruker maXis Impact
Instrument type: LC-ESI-QTOF
Ms type: MS2
Ion mode: POSITIVE
Ionization: ESI
Fragmentation mode: CID
Collision energy: 30 eV
Resolution: 35000
Column name: Acclaim RSLC C18 2.2um, 2.1x100mm, Thermo
Retention time: 10.333 min
Base peak: 330.0804
Precursor m/z: 330.0804
Precursor type: [M+H]+
m/z	relative intensity	assigned
121.0441	999	C8H6F+
122.0472	92	C7[13]CH6F+
123.0231	264	C5H2FN3+
124.0266	21	C4[13]CH2FN3+
138.9935	25	C5H2ClN3+
140.9903	6	C5H2[37]ClN3+
141.0091	112	C5H4ClN3+
142.0125	9	C4[13]CH4ClN3+
143.006	29	C5H4[37]ClN3+
149.0587	5	C7H7N3O+
165.0536	7	C12H7N+
198.082	8	C6H14ClFN3O+
231.0362	7	C14H9ClF+
