Mass spectrum: Metconazole; LC-ESI-QTOF; MS2; CE: 30 eV; R=35000; [M+H]+
Name: Metconazole
Name: 5-[(4-chlorophenyl)methyl]-2,2-dimethyl-1-(1,2,4-triazol-1-ylmethyl)cyclopentan-1-ol
Formula: C17H22ClN3O
Exact mass: 319.1451400
SMILES: CC1(C)CCC(CC2=CC=C(Cl)C=C2)C1(O)CN1C=NC=N1
InChI: InChI=1S/C17H22ClN3O/c1-16(2)8-7-14(9-13-3-5-15(18)6-4-13)17(16,22)10-21-12-19-11-20-21/h3-6,11-12,14,22H,7-10H2,1-2H3
Instrument: Bruker maXis Impact
Instrument type: LC-ESI-QTOF
Ms type: MS2
Ion mode: POSITIVE
Ionization: ESI
Fragmentation mode: CID
Collision energy: 30 eV
Resolution: 35000
Column name: Acclaim RSLC C18 2.2um, 2.1x100mm, Thermo
Retention time: 11.286 min
Base peak: 388.1059
Precursor m/z: 320.1524
Precursor type: [M+H]+
m/z	relative intensity	assigned
125.0142	999	C7H6Cl+
126.0177	82	C6[13]CH6Cl+
127.0113	321	C7H6[37]Cl+
139.0293	86	C8H8Cl+
141.026	22	C8H8[37]Cl+
142.0762	51	C11H10+
151.0298	52	C10H3N2+
153.0457	27	C9H10Cl+
163.0291	99	C10H8Cl+
165.026	33	C10H8[37]Cl+
165.0464	26	C10H10Cl+
166.0967	65	C8H12N3O+
177.0459	252	C11H10Cl+
178.0476	27	C10[13]CH10Cl+
179.0416	98	C11H10[37]Cl+
179.0626	27	C11H12Cl+
191.06	96	C12H12Cl+
193.0611	27	C12H12[37]Cl+
208.142	32	C11H18N3O+
209.1462	22	C9H22ClN2O+
210.1586	43	C11H20N3O+
233.1082	100	C15H18Cl+
234.1134	25	C16H14N2+
235.1072	41	C15H18[37]Cl+
320.1519	445	C17H23ClN3O+
321.1536	103	C16[13]CH23ClN3O+
322.1479	156	C17H23[37]ClN3O+
