Mass spectrum: Metolachlor OA; LC-ESI-QTOF; MS2; CE: 20 eV; R=35000; [M+H]+
Name: Metolachlor OA
Name: 2-[2-ethyl-N-(1-methoxypropan-2-yl)-6-methylanilino]-2-oxoacetic acid
Formula: C15H21NO4
Exact mass: 279.1470582
SMILES: CCC1=C(N(C(C)COC)C(=O)C(O)=O)C(C)=CC=C1
InChI: InChI=1S/C15H21NO4/c1-5-12-8-6-7-10(2)13(12)16(11(3)9-20-4)14(17)15(18)19/h6-8,11H,5,9H2,1-4H3,(H,18,19)
Instrument: Bruker maXis Impact
Instrument type: LC-ESI-QTOF
Ms type: MS2
Ion mode: POSITIVE
Ionization: ESI
Fragmentation mode: CID
Collision energy: 20 eV
Resolution: 35000
Column name: Acclaim RSLC C18 2.2um, 2.1x100mm, Thermo
Retention time: 7.751 min
Base peak: 280.1536
Precursor m/z: 280.1543
Precursor type: [M+H]+
m/z	relative intensity	assigned
131.0711	5	C6H11O3+
132.0803	6	C9H10N+
134.0953	22	C9H12N+
144.08	11	C10H10N+
146.095	46	C10H12N+
147.0982	6	C9[13]CH12N+
148.1109	25	C10H14N+
149.022	15	C8H5O3+
160.0743	8	C7H12O4+
160.1108	10	C11H14N+
162.0893	30	C7H14O4+
174.1266	17	C12H16N+
176.1425	38	C12H18N+
177.147	6	C11[13]CH18N+
202.1221	26	C13H16NO+
204.1395	8	C13H18NO+
206.1558	7	C13H20NO+
208.0956	7	C11H14NO3+
220.1329	14	C13H18NO2+
248.1275	999	C14H18NO3+
249.1307	159	C13[13]CH18NO3+
280.152	5	C15H22NO4+
