Mass spectrum: Imidacloprid-urea; LC-ESI-QTOF; MS2; CE: 30 eV; R=35000; [M+H]+
Name: Imidacloprid-urea
Name: 1-[(6-chloropyridin-3-yl)methyl]imidazolidin-2-one
Formula: C9H10ClN3O
Exact mass: 211.0512396
SMILES: ClC1=NC=C(CN2CCNC2=O)C=C1
InChI: InChI=1S/C9H10ClN3O/c10-8-2-1-7(5-12-8)6-13-4-3-11-9(13)14/h1-2,5H,3-4,6H2,(H,11,14)
Instrument: Bruker maXis Impact
Instrument type: LC-ESI-QTOF
Ms type: MS2
Ion mode: POSITIVE
Ionization: ESI
Fragmentation mode: CID
Collision energy: 30 eV
Resolution: 35000
Column name: Acclaim RSLC C18 2.2um, 2.1x100mm, Thermo
Retention time: 4.663 min
Base peak: 212.0575
Precursor m/z: 212.0585
Precursor type: [M+H]+
m/z	relative intensity	assigned
114.0096	17	C5H5ClN+
116.0066	7	C5H5[37]ClN+
118.0515	6	C7H6N2+
120.0674	9	C7H8N2+
123.0544	9	C6H7N2O+
126.0096	486	C6H5ClN+
127.0165	121	C6H6ClN+
128.0064	157	C6H5[37]ClN+
128.0253	999	C6H7ClN+
129.0142	36	C6H6[37]ClN+
129.0281	59	C5[13]CH7ClN+
130.0223	309	C6H7[37]ClN+
131.0253	11	C6H8ClO+
131.0588	8	C8H7N2+
132.0662	7	C8H8N2+
133.0749	50	C8H9N2+
134.0794	5	C7[13]CH9N2+
141.0205	16	C6H6ClN2+
142.0044	14	C6H5ClNO+
142.028	10	C9H4NO+
143.0173	5	C6H6[37]ClN2+
144.0013	5	C6H5[37]ClNO+
144.0204	23	C6H7ClNO+
146.0169	7	C6H7[37]ClNO+
167.0352	5	C8H8ClN2+
168.0196	6	C9H2N3O+
169.0149	12	C7H6ClN2O+
169.0514	17	C8H10ClN2+
171.0486	6	C8H10[37]ClN2+
176.0805	82	C9H10N3O+
177.0846	9	C8[13]CH10N3O+
194.0463	31	C9H9ClN3+
195.0303	26	C9H8ClN2O+
196.0428	10	C9H9[37]ClN3+
197.0281	7	C9H8[37]ClN2O+
212.0574	95	C9H11ClN3O+
213.0592	12	C8[13]CH11ClN3O+
214.0545	33	C9H11[37]ClN3O+
