Mass spectrum: Prochloraz; LC-ESI-QTOF; MS2; CE: Ramp 23.1-34.7 eV; R=35000; [M+H]+
Name: Prochloraz
Name: N-propyl-N-[2-(2,4,6-trichlorophenoxy)ethyl]imidazole-1-carboxamide
Formula: C15H16Cl3N3O2
Exact mass: 375.0308098
SMILES: CCCN(CCOC1=C(Cl)C=C(Cl)C=C1Cl)C(=O)N1C=CN=C1
InChI: InChI=1S/C15H16Cl3N3O2/c1-2-4-20(15(22)21-5-3-19-10-21)6-7-23-14-12(17)8-11(16)9-13(14)18/h3,5,8-10H,2,4,6-7H2,1H3
Instrument: Bruker maXis Impact
Instrument type: LC-ESI-QTOF
Ms type: MS2
Ion mode: POSITIVE
Ionization: ESI
Fragmentation mode: CID
Collision energy: Ramp 23.1-34.7 eV
Resolution: 35000
Column name: Acclaim RSLC C18 2.2um, 2.1x100mm, Thermo
Retention time: 11.289 min
Base peak: 388.1057
Precursor m/z: 376.0381
Precursor type: [M+H]+
m/z	relative intensity	assigned
56.049	45	C3H6N+
57.0567	15	C3H7N+
60.0438	29	C2H6NO+
70.0283	999	C3H4NO+
70.0647	274	C4H8N+
71.0315	28	C2[13]CH4NO+
71.0676	10	C3[13]CH8N+
72.0437	5	C3H6NO+
85.0884	142	C5H11N+
86.0918	7	C4[13]CH11N+
88.0391	18	C3H6NO2+
98.0607	8	C2H11ClN2+
113.0848	5	C3H14ClN2+
166.0042	7	C9N3O+
167.0121	9	C9HN3O+
173.9863	11	C10H3ClO+
174.9697	24	C5H3Cl2N3+
176.9673	11	C5H3Cl[37]ClN3+
194.9156	49	C4Cl3N3+
196.9128	44	C4Cl2[37]ClN3+
196.9316	8	C4H2Cl3N3+
198.928	11	C4H2Cl2[37]ClN3+
201.9813	41	C11H3ClO2+
202.986	7	C10[13]CH3ClO2+
203.9783	24	C14HCl+
209.0586	8	C12H7N3O+
219.9916	6	C9H3ClN3O2+
222.9473	94	C6H4Cl3N3+
223.9512	8	C5[13]CH4Cl3N3+
224.9444	88	C6H4Cl2[37]ClN3+
225.9487	5	C6H5Cl3N2O+
226.9411	5	C8HCl2N2O2+
237.958	20	C9H2Cl2N3O+
239.955	15	C9H2Cl[37]ClN3O+
239.9738	99	C9H4Cl2N3O+
240.9765	8	C8[13]CH4Cl2N3O+
241.9711	83	C9H4Cl[37]ClN3O+
243.9683	5	C8H4Cl2N3O2+
244.0281	48	C12H7ClN3O+
245.0359	25	C12H8ClN3O+
246.0254	22	C12H7[37]ClN3O+
247.033	11	C12H8[37]ClN3O+
265.9533	175	C9H7Cl3NO2+
266.9563	19	C8[13]CH7Cl3NO2+
267.9506	167	C9H7Cl2[37]ClNO2+
268.9538	10	C13HCl2N3+
269.9487	9	C14H2Cl2NO+
280.0055	63	C14H10Cl2O2+
281.0086	9	C13[13]CH10Cl2O2+
282.0025	65	C14H10Cl[37]ClO2+
283.9644	29	C12H7Cl3N2+
285.9612	26	C12H7Cl2[37]ClN2+
308.0006	604	C12H13Cl3NO2+
309.0039	98	C11[13]CH13Cl3NO2+
309.9978	524	C12H13Cl2[37]ClNO2+
311.0007	48	C10H12Cl3N3O2+
311.995	41	C14H11Cl3N2+
