Mass spectrum: Trifloxystrobin CGA 321113; LC-ESI-QTOF; MS2; CE: 50 eV; R=35000; [M+H]+
Name: Trifloxystrobin CGA 321113
Name: ISZQNKFXNXQTTF-NACSPRHISA-N
Name: (2E)-2-methoxyimino-2-[2-[[(E)-1-[3-(trifluoromethyl)phenyl]ethylideneamino]oxymethyl]phenyl]acetic acid
Formula: C19H17F3N2O4
Exact mass: 394.1140417
SMILES: CO\N=C(\C(O)=O)C1=CC=CC=C1CO\N=C(/C)C1=CC=CC(=C1)C(F)(F)F
InChI: InChI=1S/C19H17F3N2O4/c1-12(13-7-5-8-15(10-13)19(20,21)22)23-28-11-14-6-3-4-9-16(14)17(18(25)26)24-27-2/h3-10H,11H2,1-2H3,(H,25,26)/b23-12+,24-17+
Instrument: Bruker maXis Impact
Instrument type: LC-ESI-QTOF
Ms type: MS2
Ion mode: POSITIVE
Ionization: ESI
Fragmentation mode: CID
Collision energy: 50 eV
Resolution: 35000
Column name: Acclaim RSLC C18 2.2um, 2.1x100mm, Thermo
Retention time: 10.350 min
Base peak: 330.0801
Precursor m/z: 395.1213
Precursor type: [M+H]+
m/z	relative intensity	assigned
116.0486	97	C2H9FO4+
117.0564	54	C2H10FO4+
118.0625	8	C5H10O3+
119.0113	5	C5H2F3+
125.0185	16	C7H3F2+
132.0433	7	C8H6NO+
133.0502	6	C5H9O4+
134.0593	10	C8H8NO+
143.0278	5	C10H4F+
145.0249	999	C7H4F3+
146.0284	85	C6[13]CH4F3+
148.0745	48	C9H10NO+
149.0783	6	C8[13]CH10NO+
159.0399	6	C5H7N2O4+
163.0358	18	C10H5F2+
166.0448	5	C3H9F3O4+
173.0308	171	C7H5F2NO2+
174.0337	20	C6[13]CH5F2NO2+
186.0516	474	C9H7F3N+
187.0549	53	C8[13]CH7F3N+
204.0625	18	C12H8F2N+
