Mass spectrum: Dimethachlor CGA369873; LC-ESI-QTOF; MS2; CE: 40 eV; R=35000; [M+H]+
Name: Dimethachlor CGA369873
Formula: C10H13NO4S
Exact mass: 243.0565289
SMILES: CC1=CC=CC(C)=C1NC(=O)CS(O)(=O)=O
InChI: InChI=1S/C10H13NO4S/c1-7-4-3-5-8(2)10(7)11-9(12)6-16(13,14)15/h3-5H,6H2,1-2H3,(H,11,12)(H,13,14,15)
Instrument: Bruker maXis Impact
Instrument type: LC-ESI-QTOF
Ms type: MS2
Ion mode: POSITIVE
Ionization: ESI
Fragmentation mode: CID
Collision energy: 40 eV
Resolution: 35000
Column name: Acclaim RSLC C18 2.2um, 2.1x100mm, Thermo
Retention time: 9.327 min
Base peak: 276.0816
Precursor m/z: 244.0638
Precursor type: [M+H]+
m/z	relative intensity	assigned
125.0405	137	C7H9S+
126.0359	631	C6H8NS+
127.0108	999	C5H5NOS+
128.0139	129	C2H8O4S+
135.103	144	C9H13N+
137.0288	180	C7H7NS+
138.0357	452	C4H10O3S+
150.0365	279	C8H8NS+
151.0432	158	C5H11O3S+
152.0148	394	C4H8O4S+
152.0513	452	C5H12O3S+
153.0223	262	C4H9O4S+
153.0583	166	C5H13O3S+
154.031	113	C7H8NOS+
168.0832	471	C9H14NS+
186.0158	161	C10H4NO3+
