Mass spectrum: Dimethachlor CGA369873; LC-ESI-QTOF; MS2; CE: 30 eV; R=35000; [M+H]+
Name: Dimethachlor CGA369873
Formula: C10H13NO4S
Exact mass: 243.0565289
SMILES: CC1=CC=CC(C)=C1NC(=O)CS(O)(=O)=O
InChI: InChI=1S/C10H13NO4S/c1-7-4-3-5-8(2)10(7)11-9(12)6-16(13,14)15/h3-5H,6H2,1-2H3,(H,11,12)(H,13,14,15)
Instrument: Bruker maXis Impact
Instrument type: LC-ESI-QTOF
Ms type: MS2
Ion mode: POSITIVE
Ionization: ESI
Fragmentation mode: CID
Collision energy: 30 eV
Resolution: 35000
Column name: Acclaim RSLC C18 2.2um, 2.1x100mm, Thermo
Retention time: 9.369 min
Base peak: 276.0819
Precursor m/z: 244.0638
Precursor type: [M+H]+
m/z	relative intensity	assigned
121.0642	107	C8H9O+
126.0356	263	C3H10O3S+
127.0118	701	C5H5NOS+
135.1029	118	C9H13N+
137.0284	109	C7H7NS+
138.0359	124	C7H8NS+
150.0352	119	C5H10O3S+
152.0517	236	C8H10NS+
153.0228	85	C4H9O4S+
167.0756	132	C9H13NS+
168.0831	999	C9H14NS+
169.084	97	C8[13]CH14NS+
203.0169	106	C10H5NO4+
227.0383	70	C10H11O4S+
