Mass spectrum: Dimethachlor OA; LC-ESI-QTOF; MS2; CE: 10 eV; R=35000; [M+H]+
Name: Dimethachlor OA
Name: [(2,6-Dimethylphenyl)(2-methoxyethyl)amino](oxo)acetic acid
Name: 2-[N-(2-methoxyethyl)-2,6-dimethylanilino]-2-oxoacetic acid
Formula: C13H17NO4
Exact mass: 251.1157580
SMILES: COCCN(C(=O)C(O)=O)C1=C(C)C=CC=C1C
InChI: InChI=1S/C13H17NO4/c1-9-5-4-6-10(2)11(9)14(7-8-18-3)12(15)13(16)17/h4-6H,7-8H2,1-3H3,(H,16,17)
Instrument: Bruker maXis Impact
Instrument type: LC-ESI-QTOF
Ms type: MS2
Ion mode: POSITIVE
Ionization: ESI
Fragmentation mode: CID
Collision energy: 10 eV
Resolution: 35000
Column name: Acclaim RSLC C18 2.2um, 2.1x100mm, Thermo
Retention time: 5.427 min
Base peak: 222.0422
Precursor m/z: 252.123
Precursor type: [M+H]+
m/z	relative intensity	assigned
148.1109	9	C10H14N+
176.1052	10	C8H16O4+
178.1209	17	C8H18O4+
206.1166	74	C12H16NO2+
207.1208	14	C11[13]CH16NO2+
220.0962	999	C12H14NO3+
221.0982	132	C11[13]CH14NO3+
222.101	10	C10[13]C2H14NO3+
252.122	207	C13H18NO4+
253.1273	46	C12[13]CH18NO4+
