Mass spectrum: Imidacloprid-urea; LC-ESI-QTOF; MS2; CE: Ramp 18.4-27.7 eV; R=35000; [M+H]+
Name: Imidacloprid-urea
Name: 1-[(6-chloropyridin-3-yl)methyl]imidazolidin-2-one
Formula: C9H10ClN3O
Exact mass: 211.0512396
SMILES: ClC1=NC=C(CN2CCNC2=O)C=C1
InChI: InChI=1S/C9H10ClN3O/c10-8-2-1-7(5-12-8)6-13-4-3-11-9(13)14/h1-2,5H,3-4,6H2,(H,11,14)
Instrument: Bruker maXis Impact
Instrument type: LC-ESI-QTOF
Ms type: MS2
Ion mode: POSITIVE
Ionization: ESI
Fragmentation mode: CID
Collision energy: Ramp 18.4-27.7 eV
Resolution: 35000
Column name: Acclaim RSLC C18 2.2um, 2.1x100mm, Thermo
Retention time: 4.677 min
Base peak: 212.0577
Precursor m/z: 212.0585
Precursor type: [M+H]+
m/z	relative intensity	assigned
56.0488	25	C3H6N+
65.0379	14	C5H5+
70.0279	20	C3H4NO+
71.0597	15	C3H7N2+
85.0393	17	C3H5N2O+
90.0339	9	C6H4N+
92.0495	28	C6H6N+
93.0572	23	C6H7N+
99.0558	457	C4H7N2O+
100.0589	14	C3[13]CH7N2O+
107.0604	9	C6H7N2+
110.0608	6	C3H11ClN2+
114.0114	30	C5H5ClN+
116.0075	7	C5H5[37]ClN+
126.01	359	C6H5ClN+
127.0164	50	C7HN3+
128.0068	95	C6H5[37]ClN+
128.0259	994	C6H7ClN+
129.0287	58	C5[13]CH7ClN+
130.0226	250	C6H7[37]ClN+
131.0258	9	C6H8ClO+
133.0752	22	C8H9N2+
142.0043	6	C7N3O+
144.0203	10	C6H7ClNO+
169.0154	8	C7H6ClN2O+
169.0516	22	C8H10ClN2+
171.0489	5	C8H10[37]ClN2+
176.0808	95	C9H10N3O+
177.0849	7	C8[13]CH10N3O+
194.047	23	C9H9ClN3+
195.0311	46	C9H8ClN2O+
196.0418	6	C9H9[37]ClN3+
197.0279	12	C9H8[37]ClN2O+
212.0579	999	C9H11ClN3O+
213.0604	107	C8[13]CH11ClN3O+
214.0549	255	C9H11[37]ClN3O+
