Mass spectrum: Bupirimate; LC-ESI-QTOF; MS2; CE: 50 eV; R=35000; [M+H]+
Name: Bupirimate
Name: [5-butyl-2-(ethylamino)-6-methylpyrimidin-4-yl] N,N-dimethylsulfamate
Formula: C13H24N4O3S
Exact mass: 316.1569116
SMILES: CCCCC1=C(C)N=C(NCC)N=C1OS(=O)(=O)N(C)C
InChI: InChI=1S/C13H24N4O3S/c1-6-8-9-11-10(3)15-13(14-7-2)16-12(11)20-21(18,19)17(4)5/h6-9H2,1-5H3,(H,14,15,16)
Instrument: Bruker maXis Impact
Instrument type: LC-ESI-QTOF
Ms type: MS2
Ion mode: POSITIVE
Ionization: ESI
Fragmentation mode: CID
Collision energy: 50 eV
Resolution: 35000
Column name: Acclaim RSLC C18 2.2um, 2.1x100mm, Thermo
Retention time: 10.551 min
Base peak: 317.1653
Precursor m/z: 317.1642
Precursor type: [M+H]+
m/z	relative intensity	assigned
115.0539	19	C9H7+
120.0808	10	C8H10N+
121.075	12	C7H9N2+
122.0706	74	C6H8N3+
122.0957	12	H16N3O2S+
123.005	32	C4HN3O2+
123.0551	26	C6H7N2O+
123.0775	19	C3H11N2O3+
123.0902	11	C4H13NO3+
124.0498	7	C5H6N3O+
124.062	20	C6H8N2O+
124.0748	23	C5H8N4+
124.0852	16	C3H12N2O3+
125.0205	24	C4H3N3O2+
127.0118	10	C4H3N2O3+
127.0521	6	C2H11N2O2S+
128.0607	10	C2H12N2O2S+
129.0674	5	C5H9N2O2+
133.0437	8	C4H9N2OS+
133.0757	6	H13N4O2S+
134.0702	5	C7H8N3+
135.0778	9	C7H9N3+
136.0861	63	C7H10N3+
137.0572	15	C6H7N3O+
137.0698	5	C7H9N2O+
137.0935	29	C7H11N3+
137.1045	7	C5H15NO3+
138.0655	219	C6H8N3O+
138.0922	17	C8H12NO+
138.1012	34	C4H14N2O3+
139.0534	30	C3H11N2O2S+
139.0727	130	C6H9N3O+
139.1078	9	C4H15N2O3+
139.1216	8	H19N4O2S+
140.1062	561	C6H12N4+
141.0159	8	C4H3N3O3+
141.0691	12	C3H13N2O2S+
141.1092	47	C5[13]CH12N4+
143.0123	6	C9H3O2+
146.0509	6	C5H10N2OS+
148.0858	13	C8H10N3+
149.0208	13	C6H3N3O2+
149.0701	26	H13N4O3S+
150.0647	11	C7H8N3O+
150.1016	231	C10H14O+
151.0369	17	C6H5N3O2+
151.0529	24	C4H11N2O2S+
151.0735	14	C7H9N3O+
151.1076	40	C9[13]CH14O+
152.061	150	C4H12N2O2S+
152.0807	91	C7H10N3O+
152.1153	7	C5H16N2O3+
153.0679	52	C12H9+
153.0852	10	C6[13]CH10N3O+
154.0733	7	C11[13]CH9+
155.0595	9	C2H11N4O2S+
157.0266	35	C8H3N3O+
159.026	44	C13H3+
159.0596	15	C6H11N2OS+
160.0277	6	C12[13]CH3+
163.0534	35	C5H11N2O2S+
164.0609	79	C5H12N2O2S+
164.0809	103	C8H10N3O+
164.1178	12	C9H14N3+
165.069	999	C13H9+
165.0888	69	C8H11N3O+
165.1011	179	CH17N4O3S+
166.0725	134	C12[13]CH9+
166.0968	698	C10H14O2+
167.0315	23	C6H5N3O3+
167.0757	8	C11[13]C2H9+
167.1024	118	C9[13]CH14O2+
168.0559	16	C10H6N3+
168.1071	10	C6H18NO2S+
169.0469	15	C6H7N3O3+
169.0636	22	C10H7N3+
170.0516	56	C7H10N2OS+
171.0436	9	C11H7O2+
171.0551	10	C10H7N2O+
175.0211	16	C10H7OS+
177.1013	14	C2H17N4O3S+
178.0768	48	C6H14N2O2S+
179.0594	13	C4H11N4O2S+
179.0821	14	C9H11N2O2+
179.1276	42	C6H17N3O3+
180.1121	55	C9H14N3O+
180.1483	16	C10H18N3+
181.076	6	C12H9N2+
181.1184	13	C9H15N3O+
182.1278	107	C9H16N3O+
183.0594	174	C8H11N2OS+
183.1319	12	C8[13]CH16N3O+
184.0652	50	C8H12N2OS+
185.0212	5	C9H3N3O2+
185.0415	16	C12H9S+
185.0751	65	C11H9N2O+
186.0784	10	C10[13]CH9N2O+
187.0578	49	C12H11S+
188.0591	6	C11[13]CH11S+
192.1484	17	C11H18N3+
193.1325	98	C3H21N4O3S+
194.1282	162	C10H16N3O+
195.1316	18	C9[13]CH16N3O+
196.0508	9	C11H6N3O+
196.1446	9	C10H18N3O+
197.0745	7	C9H13N2OS+
199.0379	14	C10H5N3O2+
203.066	6	C11H11N2S+
208.144	40	C11H18N3O+
209.1468	5	C10[13]CH18N3O+
209.1754	7	C11H21N4+
210.1595	253	C11H20N3O+
211.1627	33	C10[13]CH20N3O+
217.0281	7	C13H3N3O+
217.0468	13	C10H7N3O3+
219.0431	41	C13H5N3O+
220.0443	7	C12[13]CH5N3O+
224.1752	13	C12H22N3O+
227.0706	6	C12H9N3O2+
231.0445	8	C11H9N3OS+
235.0377	16	C13H5N3O2+
235.0568	16	C11H11N2O2S+
237.054	53	C13H7N3O2+
237.2066	24	C13H25N4+
238.0567	12	C12[13]CH7N3O2+
253.0486	18	C13H7N3O3+
255.0638	7	C13H9N3O3+
262.0858	6	C12H14N4OS+
271.0599	8	C13H11N4OS+
