Mass spectrum: Pirimiphos-methyl; LC-ESI-QTOF; MS2; CE: 50 eV; R=35000; [M+H]+
Name: Pirimiphos-methyl
Name: 4-dimethoxyphosphinothioyloxy-N,N-diethyl-6-methylpyrimidin-2-amine
Formula: C11H20N3O3PS
Exact mass: 305.0962991
SMILES: CCN(CC)C1=NC(C)=CC(OP(=S)(OC)OC)=N1
InChI: InChI=1S/C11H20N3O3PS/c1-6-14(7-2)11-12-9(3)8-10(13-11)17-18(19,15-4)16-5/h8H,6-7H2,1-5H3
Instrument: Bruker maXis Impact
Instrument type: LC-ESI-QTOF
Ms type: MS2
Ion mode: POSITIVE
Ionization: ESI
Fragmentation mode: CID
Collision energy: 50 eV
Resolution: 35000
Column name: Acclaim RSLC C18 2.2um, 2.1x100mm, Thermo
Retention time: 11.455 min
Base peak: 306.1043
Precursor m/z: 306.1036
Precursor type: [M+H]+
m/z	relative intensity	assigned
108.0548	29	C5H6N3+
109.004	15	H4N3O2P+
109.0584	7	C2H9N2O3+
115.0524	7	C2H12O3P+
117.0685	13	CH13N2O2S+
118.0038	24	C5N3O+
118.0504	7	H11N2O3P+
118.9989	36	C6HNO2+
119.0595	28	C7H7N2+
119.0842	15	CH15N2O2S+
120.0549	28	C6H6N3+
121.0613	24	C3H9N2O3+
122.0707	9	C6H8N3+
123.0546	66	C6H7N2O+
123.0908	54	C7H11N2+
124.0611	24	C6H8N2O+
124.0906	7	C3H14N3S+
124.981	999	C4HN2OS+
125.0154	55	C6H6OP+
125.9826	35	C3[13]CHN2OS+
126.0227	10	C6H7OP+
126.0376	10	C2H11N2PS+
126.9773	62	C4HN2O[34]S+
127.0142	25	H6N3O3P+
127.0313	7	C6H8OP+
132.0937	16	C6H15NP+
133.0625	8	C7H7N3+
134.0702	57	C7H8N3+
134.9655	140	C3H4O2PS+
135.0191	7	C2H6N3O2P+
135.0785	13	C7H9N3+
136.0858	353	C7H10N3+
136.9646	6	C3H4O2P[34]S+
137.0095	112	C6H3NO3+
137.071	10	C7H9N2O+
137.0889	39	C6[13]CH10N3+
137.1066	12	C8H13N2+
138.0653	45	C6H8N3O+
139.0304	15	C7H8OP+
139.0713	8	C5H16PS+
140.0274	20	C5H6N3S+
140.0807	131	C6H10N3O+
141.0342	26	C6H8NOP+
141.0844	14	C5[13]CH10N3O+
142.9914	608	C4H3N2O2S+
143.995	28	C3[13]CH3N2O2S+
144.9874	39	C4H3N2O2[34]S+
147.0304	17	C8H5NO2+
147.1156	16	C3H19N2O2S+
148.0859	15	C8H10N3+
149.0351	8	C3H8N3O2P+
149.094	6	C8H11N3+
150.0311	16	C8H6O3+
150.1024	7	C8H12N3+
151.0255	558	C3H8N2O3P+
152.0274	22	C2[13]CH8N2O3P+
152.0807	76	C7H10N3O+
152.9758	107	CH4N3O2PS+
153.0473	8	C7H9N2S+
153.0856	12	C6H18PS+
153.9715	21	C6H2O3S+
154.0422	92	C9H4N3+
154.0954	10	C6H19PS+
155.0435	9	C8[13]CH4N3+
156.0573	34	C7H11NOP+
159.0304	43	C9H5NO2+
163.0088	11	C4H8N2OPS+
164.1171	245	C9H14N3+
165.0411	101	C8H7NO3+
165.1193	27	C8[13]CH14N3+
166.0061	8	C6H4N3OS+
166.0421	72	C9H10OS+
166.0961	48	C8H12N3O+
166.9903	7	C6H3N2O2S+
167.0486	10	C8[13]CH10OS+
167.9863	20	C5H2N3O2S+
168.0579	136	C7H10N3S+
168.1119	166	C7H21PS+
169.0599	17	C6[13]CH10N3S+
169.1151	16	C6[13]CH21PS+
170.0536	8	C7H10N3[34]S+
175.9923	15	C9H4O2S+
177.0421	8	C9H7NO3+
179.0568	137	C9H9NO3+
180.06	20	C8[13]CH9NO3+
180.1132	8	C9H14N3O+
181.0666	7	C8H11N3S+
182.0737	44	C8H12N3S+
183.0786	6	C7[13]CH12N3S+
184.0891	15	C9H15NOP+
187.0658	7	C8H13NO2S+
191.0592	7	C6H12N2O3P+
194.1265	8	C10H16N3O+
196.0874	7	C6H16N2O3S+
196.145	12	C10H18N3O+
202.0386	7	C6H9N3O3P+
207.0883	10	C11H13NO3+
209.012	8	C8H6N2O3P+
214.0199	6	C7H9N3OPS+
218.015	29	C6H9N3O2PS+
236.0257	26	C6H11N3O3PS+
246.0442	14	C11H9N3O2P+
