Mass spectrum: Nicosulfuron; LC-ESI-QTOF; MS2; CE: 10 eV; R=35000; [M+H]+
Name: Nicosulfuron
Name: 2-[(4,6-dimethoxypyrimidin-2-yl)carbamoylsulfamoyl]-N,N-dimethylpyridine-3-carboxamide
Formula: C15H18N6O6S
Exact mass: 410.1008533
SMILES: COC1=CC(OC)=NC(NC(=O)NS(=O)(=O)C2=NC=CC=C2C(=O)N(C)C)=N1
InChI: InChI=1S/C15H18N6O6S/c1-21(2)13(22)9-6-5-7-16-12(9)28(24,25)20-15(23)19-14-17-10(26-3)8-11(18-14)27-4/h5-8H,1-4H3,(H2,17,18,19,20,23)
Instrument: Bruker maXis Impact
Instrument type: LC-ESI-QTOF
Ms type: MS2
Ion mode: POSITIVE
Ionization: ESI
Fragmentation mode: CID
Collision energy: 10 eV
Resolution: 35000
Column name: Acclaim RSLC C18 2.2um, 2.1x100mm, Thermo
Retention time: 6.732 min
Base peak: 411.1081
Precursor m/z: 411.1081
Precursor type: [M+H]+
m/z	relative intensity	assigned
156.076	21	C4H8N6O+
182.0551	271	C5H6N6O2+
183.0579	21	C4[13]CH6N6O2+
213.0324	172	C8H9N2O3S+
214.0357	18	C7[13]CH9N2O3S+
215.0295	10	C8H9N2O3[34]S+
230.0584	55	C6H10N6O2S+
231.0618	5	C5[13]CH10N6O2S+
256.0388	6	C9H10N3O4S+
259.0827	5	C12H11N4O3+
304.14	17	C14H18N5O3+
366.0504	81	C13H12N5O6S+
367.053	15	C12[13]CH12N5O6S+
368.0484	5	C13H12N5O6[34]S+
411.109	999	C15H19N6O6S+
412.1109	194	C14[13]CH19N6O6S+
413.1078	62	C15H19N6O6[34]S+
