Mass spectrum: Flusilazole; LC-ESI-QTOF; MS2; CE: Ramp 21.9-32.9 eV; R=35000; [M+H]+
Name: Flusilazole
Name: bis(4-fluorophenyl)-methyl-(1,2,4-triazol-1-ylmethyl)silane
Formula: C16H15F2N3Si
Exact mass: 315.1003305
SMILES: C[Si](CN1C=NC=N1)(C1=CC=C(F)C=C1)C1=CC=C(F)C=C1
InChI: InChI=1S/C16H15F2N3Si/c1-22(12-21-11-19-10-20-21,15-6-2-13(17)3-7-15)16-8-4-14(18)5-9-16/h2-11H,12H2,1H3
Instrument: Bruker maXis Impact
Instrument type: LC-ESI-QTOF
Ms type: MS2
Ion mode: POSITIVE
Ionization: ESI
Fragmentation mode: CID
Collision energy: Ramp 21.9-32.9 eV
Resolution: 35000
Column name: Acclaim RSLC C18 2.2um, 2.1x100mm, Thermo
Retention time: 10.486 min
Base peak: 316.1075
Precursor m/z: 316.1076
Precursor type: [M+H]+
m/z	relative intensity	assigned
46.0649	8	C2H8N+
53.0379	11	C4H5+
67.0537	5	FH6N3+
70.0396	665	C2H4N3+
71.0427	20	C[13]CH4N3+
77.0382	30	CH4FN3+
79.0006	10	C4H3Si+
79.0539	21	CH6FN3+
80.9998	75	C4FN+
91.0544	46	C7H7+
95.0161	59	C5H2FN+
95.0493	59	C4H5N3+
97.0441	6	CH5F2N3+
103.0552	9	C2H9N3Si+
105.0452	45	C6H5N2+
105.0709	22	C2H11N3Si+
108.0125	59	C5HFN2+
109.0449	7	C7H6F+
115.0542	6	C9H7+
125.0154	47	C8HN2+
126.0184	5	C7[13]CHN2+
127.0118	70	C5HF2N2+
128.0157	5	C4[13]CHF2N2+
128.0608	7	C5H7FN3+
138.0655	6	C5H12F2Si+
139.0737	6	C5H13F2Si+
141.0158	5	C9H5Si+
141.0689	25	C6H8FN3+
142.0741	5	C3H12F2N2Si+
150.1013	65	C8H12N3+
151.0361	29	C9H5F2+
151.1047	5	C7[13]CH12N3+
152.0608	37	C7H7FN3+
153.0685	43	C7H8FN3+
154.0758	9	C7H9FN3+
155.0844	11	C7H10FN3+
157.027	17	C7H7F2Si+
159.0256	33	C13H3+
160.0267	5	C12[13]CH3+
164.061	8	C8H7FN3+
165.0689	915	C8H8FN3+
166.075	231	C8H9FN3+
166.0966	198	C7H16F2Si+
167.0802	25	C7[13]CH9FN3+
167.1027	29	C8H15N2Si+
169.0472	164	C12H6F+
170.0493	22	C11[13]CH6F+
171.0427	66	C8H9F2Si+
172.044	8	C7[13]CH9F2Si+
175.0207	9	C10H3F2N+
178.0764	16	C9H9FN3+
179.0838	23	C14H11+
180.0905	5	C13[13]CH11+
181.0746	11	C12H9N2+
181.0999	12	C9H12FN3+
183.0593	45	C13H8F+
184.064	9	C12[13]CH8F+
185.041	9	C9H7N3Si+
185.0752	172	C13H10F+
186.0783	23	C12[13]CH10F+
187.0579	999	C9H9N3Si+
188.0596	137	C8[13]CH9N3Si+
189.0553	30	C9H9N3[30]Si+
191.0416	7	C10H5F2N2+
193.0758	6	C13H9N2+
199.036	9	C13H5F2+
201.0731	39	C10H11N3Si+
205.0681	54	C13H7N3+
206.0699	7	C12[13]CH7N3+
210.0736	22	C13H12NSi+
217.0469	10	C15H9Si+
219.0428	29	C12H9F2Si+
220.07	14	C10H11FN3Si+
227.0676	29	C15H9F2+
228.0715	6	C14[13]CH9F2+
231.0432	5	C13H9F2Si+
232.0513	13	C13H10F2Si+
235.0584	17	C13H9N3Si+
237.0533	48	C15H10FSi+
238.0563	7	C14[13]CH10FSi+
245.0594	6	C14H11F2Si+
245.078	22	C12H12FN3Si+
247.0746	132	C14H13F2Si+
248.077	26	C13[13]CH13F2Si+
249.0726	5	C14H13F2[30]Si+
255.0629	7	C13H10FN3Si+
262.0856	6	C14H14F2NSi+
263.0891	10	C15H13N3Si+
265.0847	40	C12H13F2N3Si+
266.0867	10	C12H14F2N3Si+
272.1058	89	C14H15FN3Si+
273.1092	9	C13[13]CH15FN3Si+
316.1079	525	C16H16F2N3Si+
317.1097	134	C15[13]CH16F2N3Si+
318.1066	20	C16H16F2N3[30]Si+
