Mass spectrum: Quinoxyfen; LC-ESI-QTOF; MS2; CE: 50 eV; R=35000; [M+H]+
Name: Quinoxyfen
Name: 5,7-dichloro-4-(4-fluorophenoxy)quinoline
Formula: C15H8Cl2FNO
Exact mass: 306.9966975
SMILES: FC1=CC=C(OC2=C3C(Cl)=CC(Cl)=CC3=NC=C2)C=C1
InChI: InChI=1S/C15H8Cl2FNO/c16-9-7-12(17)15-13(8-9)19-6-5-14(15)20-11-3-1-10(18)2-4-11/h1-8H
Instrument: Bruker maXis Impact
Instrument type: LC-ESI-QTOF
Ms type: MS2
Ion mode: POSITIVE
Ionization: ESI
Fragmentation mode: CID
Collision energy: 50 eV
Resolution: 35000
Column name: Acclaim RSLC C18 2.2um, 2.1x100mm, Thermo
Retention time: 12.838 min
Base peak: 308.0036
Precursor m/z: 308.004
Precursor type: [M+H]+
m/z	relative intensity	assigned
114.0332	6	C8H4N+
115.0408	9	C8H5N+
122.9986	61	C7H4Cl+
124.9958	15	C7H4[37]Cl+
126.0328	6	C9H4N+
127.0405	22	C9H5N+
150.0093	106	C8H5ClN+
151.0167	36	C8H6ClN+
152.0062	23	C8H5[37]ClN+
153.0128	8	C8H6[37]ClN+
154.0386	9	C11H6O+
156.9591	5	C7H3Cl2+
161.0013	12	C12HO+
162.0093	999	C9H5ClN+
163.0125	67	C8[13]CH5ClN+
164.0063	182	C9H5[37]ClN+
165.0086	10	C9H6ClO+
168.0197	29	C8H7ClNO+
169.9672	22	C8H4Cl2+
170.0174	6	C8H7[37]ClNO+
171.9651	15	C8H4Cl[37]Cl+
178.0148	19	C10H7ClO+
179.0124	48	C9H6ClNO+
180.0185	20	C9H7ClNO+
181.0093	9	C9H6[37]ClNO+
182.0515	6	C13H7F+
183.0593	31	C13H8F+
183.9703	13	C8H4Cl2N+
184.9781	91	C8H5Cl2N+
185.9677	7	C8H4Cl[37]ClN+
185.9823	9	C7[13]CH5Cl2N+
186.9753	52	C8H5Cl[37]ClN+
190.0637	21	C14H8N+
191.0697	5	C14H9N+
195.9704	9	C12HClO+
196.9785	657	C9H5Cl2N+
197.9818	61	C8[13]CH5Cl2N+
198.9755	344	C9H5Cl[37]ClN+
199.979	19	C9H6Cl2O+
208.0547	28	C14H7FN+
209.0622	79	C14H8FN+
210.0693	53	C14H9FN+
211.0738	6	C13[13]CH9FN+
212.9732	8	C9H5Cl2NO+
213.9814	604	C9H6Cl2NO+
214.9841	58	C8[13]CH6Cl2NO+
215.9784	334	C9H6Cl[37]ClNO+
216.9815	19	C15H2Cl+
217.0209	17	C13H7ClF+
219.0222	12	C15H4FO+
224.0251	5	C14H7ClN+
225.033	36	C14H8ClN+
226.0385	9	C14H9ClN+
227.0306	7	C14H8[37]ClN+
228.9684	156	C15ClN+
229.9716	16	C14[13]CClN+
230.9652	91	C9H4Cl2FNO+
231.9681	5	C8[13]CH4Cl2FNO+
237.0578	117	C15H8FNO+
238.0625	27	C14[13]CH8FNO+
243.0234	15	C14H7ClFN+
244.0316	59	C14H8ClFN+
245.039	85	C14H9ClFN+
246.0315	13	C14H8[37]ClFN+
247.0359	20	C14H9[37]ClFN+
253.0281	16	C15H8ClNO+
254.0346	9	C15H9ClNO+
255.0245	7	C15H8[37]ClNO+
256.0316	5	C15H9[37]ClNO+
272.0268	125	C15H8ClFNO+
273.0304	24	C14[13]CH8ClFNO+
274.0229	30	C15H8[37]ClFNO+
280.0071	5	C14H9Cl2FN+
287.9979	6	C15H8Cl2NO+
308.0034	32	C15H9Cl2FNO+
309.007	5	C14[13]CH9Cl2FNO+
310.001	20	C15H9Cl[37]ClFNO+
