Mass spectrum: Propoxycarbazone; LC-ESI-QTOF; MS2; CE: 50 eV; R=35000; [M+H]+
Name: Propoxycarbazone
Name: methyl 2-[(4-methyl-5-oxo-3-propoxy-1,2,4-triazole-1-carbonyl)sulfamoyl]benzoate
Formula: C15H18N4O7S
Exact mass: 398.0896199
SMILES: CCCOC1=NN(C(=O)NS(=O)(=O)C2=CC=CC=C2C(=O)OC)C(=O)N1C
InChI: InChI=1S/C15H18N4O7S/c1-4-9-26-14-16-19(15(22)18(14)2)13(21)17-27(23,24)11-8-6-5-7-10(11)12(20)25-3/h5-8H,4,9H2,1-3H3,(H,17,21)
Instrument: Bruker maXis Impact
Instrument type: LC-ESI-QTOF
Ms type: MS2
Ion mode: POSITIVE
Ionization: ESI
Fragmentation mode: CID
Collision energy: 50 eV
Resolution: 35000
Column name: Acclaim RSLC C18 2.2um, 2.1x100mm, Thermo
Retention time: 5.761 min
Base peak: 212.1502
Precursor m/z: 399.0969
Precursor type: [M+H]+
m/z	relative intensity	assigned
116.0445	858	C3H6N3O2+
135.0425	999	C6H5N3O+
136.0466	222	C3H8N2O4+
146.0219	438	C6H2N4O+
199.0034	630	C11H3O4+
