Mass spectrum: Dimethachlor OA; LC-ESI-QTOF; MS2; CE: Ramp 19.9-29.8 eV; R=35000; [M+H]+
Name: Dimethachlor OA
Name: [(2,6-Dimethylphenyl)(2-methoxyethyl)amino](oxo)acetic acid
Name: 2-[N-(2-methoxyethyl)-2,6-dimethylanilino]-2-oxoacetic acid
Formula: C13H17NO4
Exact mass: 251.1157580
SMILES: COCCN(C(=O)C(O)=O)C1=C(C)C=CC=C1C
InChI: InChI=1S/C13H17NO4/c1-9-5-4-6-10(2)11(9)14(7-8-18-3)12(15)13(16)17/h4-6H,7-8H2,1-3H3,(H,16,17)
Instrument: Bruker maXis Impact
Instrument type: LC-ESI-QTOF
Ms type: MS2
Ion mode: POSITIVE
Ionization: ESI
Fragmentation mode: CID
Collision energy: Ramp 19.9-29.8 eV
Resolution: 35000
Column name: Acclaim RSLC C18 2.2um, 2.1x100mm, Thermo
Retention time: 5.420 min
Base peak: 222.0429
Precursor m/z: 252.123
Precursor type: [M+H]+
m/z	relative intensity	assigned
117.0565	16	C8H7N+
118.0666	19	C8H8N+
120.0813	16	C8H10N+
130.0657	12	C9H8N+
131.0723	72	C9H9N+
132.0801	202	C9H10N+
133.0874	45	C9H11N+
146.0966	79	C10H12N+
147.1004	23	C7H15O3+
148.075	31	C9H10NO+
148.1117	281	C10H14N+
149.1163	36	C9[13]CH14N+
176.1062	80	C11H14NO+
177.1101	12	C10[13]CH14NO+
178.1235	55	C11H16NO+
192.1031	18	C11H14NO2+
206.1176	31	C12H16NO2+
220.0964	999	C12H14NO3+
221.1	129	C11[13]CH14NO3+
