Mass spectrum: Ethofumesate; LC-ESI-QTOF; MS2; CE: Ramp 21.1-31.7 eV; R=35000; [M+H]+
Name: Ethofumesate
Name: (2-ethoxy-3,3-dimethyl-2H-1-benzofuran-5-yl) methanesulfonate
Formula: C13H18O5S
Exact mass: 286.0874947
SMILES: CCOC1OC2=CC=C(OS(C)(=O)=O)C=C2C1(C)C
InChI: InChI=1S/C13H18O5S/c1-5-16-12-13(2,3)10-8-9(18-19(4,14)15)6-7-11(10)17-12/h6-8,12H,5H2,1-4H3
Instrument: Bruker maXis Impact
Instrument type: LC-ESI-QTOF
Ms type: MS2
Ion mode: POSITIVE
Ionization: ESI
Fragmentation mode: CID
Collision energy: Ramp 21.1-31.7 eV
Resolution: 35000
Column name: Acclaim RSLC C18 2.2um, 2.1x100mm, Thermo
Retention time: 9.203 min
Base peak: 334.1057
Precursor m/z: 287.0948
Precursor type: [M+H]+
m/z	relative intensity	assigned
121.0653	999	C8H9O+
122.0688	102	C7[13]CH9O+
133.0638	188	C9H9O+
134.0705	39	C9H10O+
137.0595	190	C8H9O2+
149.0955	53	C10H13O+
161.0594	749	C10H9O2+
162.0661	364	C10H10O2+
163.075	166	C10H11O2+
175.1481	41	C13H19+
179.0694	135	C10H11O3+
241.0538	89	C11H13O4S+
254.1103	38	C13H18O5+
259.0642	83	C11H15O5S+
