Mass spectrum: Propoxycarbazone; LC-ESI-QTOF; MS2; CE: 40 eV; R=35000; [M+H]+
Name: Propoxycarbazone
Name: methyl 2-[(4-methyl-5-oxo-3-propoxy-1,2,4-triazole-1-carbonyl)sulfamoyl]benzoate
Formula: C15H18N4O7S
Exact mass: 398.0896199
SMILES: CCCOC1=NN(C(=O)NS(=O)(=O)C2=CC=CC=C2C(=O)OC)C(=O)N1C
InChI: InChI=1S/C15H18N4O7S/c1-4-9-26-14-16-19(15(22)18(14)2)13(21)17-27(23,24)11-8-6-5-7-10(11)12(20)25-3/h5-8H,4,9H2,1-3H3,(H,17,21)
Instrument: Bruker maXis Impact
Instrument type: LC-ESI-QTOF
Ms type: MS2
Ion mode: POSITIVE
Ionization: ESI
Fragmentation mode: CID
Collision energy: 40 eV
Resolution: 35000
Column name: Acclaim RSLC C18 2.2um, 2.1x100mm, Thermo
Retention time: 5.765 min
Base peak: 212.1498
Precursor m/z: 399.0969
Precursor type: [M+H]+
m/z	relative intensity	assigned
116.0458	508	C3H6N3O2+
135.0428	616	C6H5N3O+
136.0472	98	C3H8N2O4+
146.0217	174	C6H2N4O+
158.0941	100	C8H14O3+
168.9936	98	C5H3N3O2S+
199.005	999	C14HNO+
200.0091	98	C13[13]CHNO+
209.9838	250	C6H2N4O3S+
