Mass spectrum: Bupirimate; LC-ESI-QTOF; MS2; CE: 40 eV; R=35000; [M+H]+
Name: Bupirimate
Name: [5-butyl-2-(ethylamino)-6-methylpyrimidin-4-yl] N,N-dimethylsulfamate
Formula: C13H24N4O3S
Exact mass: 316.1569116
SMILES: CCCCC1=C(C)N=C(NCC)N=C1OS(=O)(=O)N(C)C
InChI: InChI=1S/C13H24N4O3S/c1-6-8-9-11-10(3)15-13(14-7-2)16-12(11)20-21(18,19)17(4)5/h6-9H2,1-5H3,(H,14,15,16)
Instrument: Bruker maXis Impact
Instrument type: LC-ESI-QTOF
Ms type: MS2
Ion mode: POSITIVE
Ionization: ESI
Fragmentation mode: CID
Collision energy: 40 eV
Resolution: 35000
Column name: Acclaim RSLC C18 2.2um, 2.1x100mm, Thermo
Retention time: 10.560 min
Base peak: 317.1645
Precursor m/z: 317.1642
Precursor type: [M+H]+
m/z	relative intensity	assigned
120.0796	6	H14N3O2S+
122.0702	23	C6H8N3+
122.095	5	H16N3O2S+
123.0549	10	C6H7N2O+
123.0776	5	C3H11N2O3+
123.0906	5	C7H11N2+
124.062	9	C6H8N2O+
124.0749	5	C5H8N4+
124.0865	5	C6H10N3+
125.0209	13	C4H3N3O2+
136.0858	11	C7H10N3+
137.0577	8	C6H7N3O+
137.0935	11	C7H11N3+
138.0653	82	C6H8N3O+
138.0909	11	H16N3O3S+
138.1015	24	C7H12N3+
139.0533	5	C3H11N2O2S+
139.073	75	C6H9N3O+
139.122	9	H19N4O2S+
140.1062	332	C6H12N4+
141.0158	5	C4H3N3O3+
141.0688	10	C3H13N2O2S+
141.1091	26	C5[13]CH12N4+
148.0859	12	C8H10N3+
149.0699	6	H13N4O3S+
150.1016	203	C8H12N3+
151.0361	16	C6H5N3O2+
151.0729	7	C7H9N3O+
151.1068	25	C7[13]CH12N3+
151.1209	6	C6H17NO3+
152.0606	28	C4H12N2O2S+
152.0805	44	C9H12O2+
152.1157	5	C5H16N2O3+
153.0681	23	C4H13N2O2S+
153.0856	5	C8[13]CH12O2+
157.0268	22	C8H3N3O+
159.026	24	C10H7S+
159.0586	5	C6H11N2OS+
164.0608	16	C5H12N2O2S+
164.0807	31	C8H10N3O+
165.069	467	C13H9+
165.0891	61	C8H11N3O+
165.1007	119	CH17N4O3S+
166.0733	65	C12[13]CH9+
166.0966	999	C10H14O2+
167.0316	7	C6H5N3O3+
167.0782	7	C9H13NS+
167.1023	124	C9[13]CH14O2+
168.1071	8	C8[13]C2H14O2+
169.047	14	C6H7N3O3+
170.0507	10	C7H10N2OS+
171.0425	14	C9H5N3O+
175.0209	6	C10H7OS+
178.0763	13	C6H14N2O2S+
179.0843	11	C6H15N2O2S+
179.1277	16	C6H17N3O3+
180.1119	47	C9H14N3O+
180.1486	30	C10H18N3+
181.1177	11	C9H15N3O+
182.1277	81	C9H16N3O+
183.0593	39	C8H11N2OS+
183.1305	8	C8[13]CH16N3O+
184.0654	13	C8H12N2OS+
185.0415	5	C12H9S+
185.0748	66	C8H13N2OS+
186.0781	9	C7[13]CH13N2OS+
187.0576	40	C12H11S+
188.0598	5	C11[13]CH11S+
191.1166	8	C3H19N4O3S+
192.1488	17	C11H18N3+
193.1327	98	C3H21N4O3S+
194.1283	144	C10H16N3O+
195.1309	15	C9[13]CH16N3O+
196.1436	6	C10H18N3O+
199.0376	6	C10H5N3O2+
208.1438	161	C11H18N3O+
209.1468	19	C10[13]CH18N3O+
209.176	5	C11H21N4+
210.1596	668	C11H20N3O+
211.1625	61	C10[13]CH20N3O+
217.0477	6	C10H7N3O3+
219.0424	29	C13H5N3O+
224.1749	35	C12H22N3O+
225.1783	5	C11[13]CH22N3O+
227.067	9	C12H9N3O2+
235.0578	5	C13H7N4O+
237.0538	35	C13H7N3O2+
237.2069	74	C13H25N4+
238.0561	7	C12[13]CH7N3O2+
238.2099	10	C12[13]CH25N4+
244.0738	9	C9H14N3O3S+
245.0779	5	C12H11N3O3+
255.0644	5	C13H9N3O3+
262.0851	20	C12H14N4OS+
263.0891	5	C13H15N2O2S+
272.1055	14	C11H18N3O3S+
