Mass spectrum: Epoxiconazole; LC-ESI-QTOF; MS2; CE: 50 eV; R=35000; [M+H]+
Name: Epoxiconazole
Name: 1-[[3-(2-chlorophenyl)-2-(4-fluorophenyl)oxiran-2-yl]methyl]-1,2,4-triazole
Formula: C17H13ClFN3O
Exact mass: 329.0731179
SMILES: FC1=CC=C(C=C1)C1(CN2C=NC=N2)OC1C1=C(Cl)C=CC=C1
InChI: InChI=1S/C17H13ClFN3O/c18-15-4-2-1-3-14(15)16-17(23-16,9-22-11-20-10-21-22)12-5-7-13(19)8-6-12/h1-8,10-11,16H,9H2
Instrument: Bruker maXis Impact
Instrument type: LC-ESI-QTOF
Ms type: MS2
Ion mode: POSITIVE
Ionization: ESI
Fragmentation mode: CID
Collision energy: 50 eV
Resolution: 35000
Column name: Acclaim RSLC C18 2.2um, 2.1x100mm, Thermo
Retention time: 10.350 min
Base peak: 330.0801
Precursor m/z: 330.0804
Precursor type: [M+H]+
m/z	relative intensity	assigned
120.0358	18	C8H5F+
121.0441	999	C8H6F+
122.0471	102	C7[13]CH6F+
123.0231	242	C10H3+
124.0263	28	C9[13]CH3+
138.9932	28	C2H3ClFN3O+
140.9914	12	C2H3[37]ClFN3O+
141.0085	33	C5H4ClN3+
142.013	6	C8H2N2O+
143.0067	10	C5H4[37]ClN3+
150.0302	10	C11H4N+
176.0599	8	C6H11ClN3O+
177.0681	8	C9H8FN3+
178.0768	8	C9H9FN3+
183.0585	17	C10H12ClO+
184.0651	5	C10H13ClO+
196.0677	54	C14H9F+
197.0742	25	C11H14ClO+
198.0799	6	C6H14ClFN3O+
