Mass spectrum: Dimethachlor CGA369873; LC-ESI-QTOF; MS2; CE: Ramp 19.6-29.4 eV; R=35000; [M+H]+
Name: Dimethachlor CGA369873
Formula: C10H13NO4S
Exact mass: 243.0565289
SMILES: CC1=CC=CC(C)=C1NC(=O)CS(O)(=O)=O
InChI: InChI=1S/C10H13NO4S/c1-7-4-3-5-8(2)10(7)11-9(12)6-16(13,14)15/h3-5H,6H2,1-2H3,(H,11,12)(H,13,14,15)
Instrument: Bruker maXis Impact
Instrument type: LC-ESI-QTOF
Ms type: MS2
Ion mode: POSITIVE
Ionization: ESI
Fragmentation mode: CID
Collision energy: Ramp 19.6-29.4 eV
Resolution: 35000
Column name: Acclaim RSLC C18 2.2um, 2.1x100mm, Thermo
Retention time: 4.442 min
Base peak: 61.0391
Precursor m/z: 244.0638
Precursor type: [M+H]+
m/z	relative intensity	assigned
120.0804	96	C8H10N+
121.0882	129	C8H11N+
122.0963	999	C8H12N+
123.0999	113	C7[13]CH12N+
134.0963	372	C9H12N+
144.0802	165	C10H10N+
145.0879	58	C10H11N+
147.0683	133	C9H9NO+
148.0752	145	C9H10NO+
162.0907	192	C10H12NO+
163.0984	115	C10H13NO+
226.0524	192	C10H12NO3S+
244.0626	157	C10H14NO4S+
