Mass spectrum: Fluoxastrobin; LC-ESI-QTOF; MS2; CE: 30 eV; R=35000; [M+H]+
Name: Fluoxastrobin
Name: (E)-1-[2-[6-(2-chlorophenoxy)-5-fluoropyrimidin-4-yl]oxyphenyl]-1-(5,6-dihydro-1,4,2-dioxazin-3-yl)-N-methoxymethanimine
Formula: C21H16ClFN4O5
Exact mass: 458.0793255
SMILES: CO\N=C(\C1=NOCCO1)C1=C(OC2=C(F)C(OC3=C(Cl)C=CC=C3)=NC=N2)C=CC=C1
InChI: InChI=1S/C21H16ClFN4O5/c1-28-26-18(21-27-30-11-10-29-21)13-6-2-4-8-15(13)31-19-17(23)20(25-12-24-19)32-16-9-5-3-7-14(16)22/h2-9,12H,10-11H2,1H3/b26-18+
Instrument: Bruker maXis Impact
Instrument type: LC-ESI-QTOF
Ms type: MS2
Ion mode: POSITIVE
Ionization: ESI
Fragmentation mode: CID
Collision energy: 30 eV
Resolution: 35000
Column name: Acclaim RSLC C18 2.2um, 2.1x100mm, Thermo
Retention time: 9.982 min
Base peak: 459.0864
Precursor m/z: 459.0866
Precursor type: [M+H]+
m/z	relative intensity	assigned
120.0435	21	C5H4N4+
130.0281	6	C3H3FN4O+
132.0433	10	C6H4N4+
134.0591	7	C6H6N4+
136.0384	5	C5H4N4O+
138.0093	36	CH8ClFO4+
140.0061	8	CH8[37]ClFO4+
144.0304	6	C2H7FNO5+
145.0382	54	C8H5N2O+
146.0222	11	C6H2N4O+
146.0418	5	C7[13]CH5N2O+
150.0336	8	C6H3FN4+
161.0329	10	C2H10ClN2O4+
162.0351	5	C9H5FNO+
164.0329	20	C6H4N4O2+
170.0333	15	C3H7FN2O5+
175.0288	8	C12H3N2+
176.0367	17	C12H4N2+
178.0285	17	C7H3FN4O+
178.9995	23	C2H7ClFNO5+
180.9963	6	C2H7[37]ClFNO5+
183.011	6	C11H2FNO+
183.9946	10	C6H2ClFN4+
188.037	235	C13H4N2+
189.0402	22	C12[13]CH4N2+
190.0481	17	C8H6N4O2+
191.0241	5	C12H3N2O+
202.0402	6	C6H12ClFO4+
204.0755	9	CH16ClFN3O5+
205.0397	21	C13H5N2O+
205.0596	20	C4H14ClN2O5+
211.9898	8	C12H3ClNO+
214.0054	8	C12H5ClNO+
214.0607	12	C11H8N3O2+
218.035	8	C13H4N3O+
223.0055	7	C16HNO+
228.0434	5	C7H12ClFNO4+
230.0352	36	C7H12ClFO5+
231.019	27	C14H3N2O2+
232.0504	7	C14H6N3O+
240.0432	7	C8H12ClFNO4+
241.0507	8	C11H10FO5+
242.058	13	C6H13ClN3O5+
244.0506	5	C6H13[37]ClN3O5+
246.0301	53	C14H4N3O2+
247.0337	6	C13[13]CH4N3O2+
255.0303	8	C8H11ClFNO5+
257.0461	12	C8H13ClFNO5+
266.0116	20	C14H5ClN3O+
267.0314	8	C18H5NO2+
268.009	5	C14H5[37]ClN3O+
270.0548	5	C13H7FN4O2+
274.0613	15	C16H8N3O2+
290.0566	7	C13H11ClN4O2+
299.0568	5	C17H7N4O2+
300.0643	8	C17H8N4O2+
306.0667	82	C16H15ClO4+
307.0697	13	C15[13]CH15ClO4+
308.0227	5	C16H5FN2O4+
315.033	45	C19H8ClN2O+
316.0363	7	C18[13]CH8ClN2O+
317.0298	13	C19H8[37]ClN2O+
331.0612	5	C21H7N4O+
340.0277	26	C20H5FN2O3+
341.0328	11	C17H10ClN2O4+
342.0432	35	C17H11ClN2O4+
343.0434	9	C16[13]CH11ClN2O4+
344.0401	10	C17H11[37]ClN2O4+
355.0375	6	C20H8ClN4O+
358.0393	5	C17H10ClFN3O3+
367.0391	89	C21H8ClN4O+
368.0415	18	C20[13]CH8ClN4O+
369.0366	27	C21H8[37]ClN4O+
383.0339	90	C18H9ClFN4O3+
384.0374	17	C17[13]CH9ClFN4O3+
385.0353	26	C18H9[37]ClFN4O3+
387.0474	5	C17H12ClN4O5+
397.0485	8	C19H11ClFN4O3+
427.0605	999	C20H13ClFN4O4+
428.0633	175	C19[13]CH13ClFN4O4+
429.058	237	C20H13[37]ClFN4O4+
430.0601	32	C20H14ClFN3O5+
459.0861	5	C21H17ClFN4O5+
