Mass spectrum: Imidacloprid-urea; LC-ESI-QTOF; MS2; CE: 40 eV; R=35000; [M+H]+
Name: Imidacloprid-urea
Name: 1-[(6-chloropyridin-3-yl)methyl]imidazolidin-2-one
Formula: C9H10ClN3O
Exact mass: 211.0512396
SMILES: ClC1=NC=C(CN2CCNC2=O)C=C1
InChI: InChI=1S/C9H10ClN3O/c10-8-2-1-7(5-12-8)6-13-4-3-11-9(13)14/h1-2,5H,3-4,6H2,(H,11,14)
Instrument: Bruker maXis Impact
Instrument type: LC-ESI-QTOF
Ms type: MS2
Ion mode: POSITIVE
Ionization: ESI
Fragmentation mode: CID
Collision energy: 40 eV
Resolution: 35000
Column name: Acclaim RSLC C18 2.2um, 2.1x100mm, Thermo
Retention time: 4.689 min
Base peak: 212.0577
Precursor m/z: 212.0585
Precursor type: [M+H]+
m/z	relative intensity	assigned
114.0102	49	C8H2O+
116.0499	10	C8H6N+
117.0451	5	C7H5N2+
117.0586	5	C8H7N+
118.0509	36	C7H6N2+
119.0589	20	C7H7N2+
120.0666	19	C7H8N2+
121.0754	13	C7H9N2+
123.054	26	C6H7N2O+
126.0094	955	C6H5ClN+
127.0169	464	C6H6ClN+
128.0063	346	C6H5[37]ClN+
128.0249	999	C6H7ClN+
129.0139	143	C6H6[37]ClN+
129.0281	77	C5[13]CH7ClN+
130.022	353	C6H7[37]ClN+
131.0254	16	C6H8ClO+
131.0584	41	C8H7N2+
132.0663	34	C8H8N2+
133.075	91	C8H9N2+
134.0451	8	C7H6N2O+
134.0788	8	C7[13]CH9N2+
135.0539	5	C7H7N2O+
139.0029	7	C9HNO+
140.0244	17	C8H2N3+
141.02	123	C6H6ClN2+
142.0033	36	C6H5ClNO+
142.0268	32	C9H4NO+
143.0171	34	C6H6[37]ClN2+
144.0012	11	C6H5[37]ClNO+
144.0197	65	C6H7ClNO+
146.0168	21	C6H7[37]ClNO+
147.0535	6	C8H7N2O+
148.0833	5	C8H10N3+
149.0716	7	C8H9N2O+
151.0039	24	C7H4ClN2+
152.0121	9	C7H5ClN2+
153.0011	9	C7H4[37]ClN2+
153.0188	37	C7H6ClN2+
154.008	8	C7H5ClNO+
154.0277	18	C7H7ClN2+
155.0163	9	C7H6[37]ClN2+
155.0353	5	C7H8ClN2+
156.026	5	C7H7[37]ClN2+
158.0683	5	C9H8N3+
159.0543	13	C9H7N2O+
159.0778	5	C9H9N3+
165.0215	13	C8H6ClN2+
166.0158	5	C7H5ClN3+
166.0261	7	C8H7ClN2+
167.0362	15	C8H8ClN2+
168.0188	7	C9H2N3O+
169.0151	27	C7H6ClN2O+
169.0519	19	C8H10ClN2+
171.0115	9	C7H6[37]ClN2O+
171.0497	7	C8H10[37]ClN2+
176.0801	34	C9H10N3O+
177.0868	9	C9H11N3O+
194.0466	38	C9H9ClN3+
195.0316	10	C9H8ClN2O+
196.0437	14	C9H9[37]ClN3+
210.0429	12	C9H9ClN3O+
212.0579	15	C9H11ClN3O+
214.058	5	C9H11[37]ClN3O+
