Mass spectrum: Prosulfocarb; LC-ESI-QTOF; MS2; CE: 30 eV; R=35000; [M+H]+
Name: Prosulfocarb
Name: S-benzyl N,N-dipropylcarbamothioate
Formula: C14H21NOS
Exact mass: 251.1343853
SMILES: CCCN(CCC)C(=O)SCC1=CC=CC=C1
InChI: InChI=1S/C14H21NOS/c1-3-10-15(11-4-2)14(16)17-12-13-8-6-5-7-9-13/h5-9H,3-4,10-12H2,1-2H3
Instrument: Bruker maXis Impact
Instrument type: LC-ESI-QTOF
Ms type: MS2
Ion mode: POSITIVE
Ionization: ESI
Fragmentation mode: CID
Collision energy: 30 eV
Resolution: 35000
Column name: Acclaim RSLC C18 2.2um, 2.1x100mm, Thermo
Retention time: 11.989 min
Base peak: 252.1418
Precursor m/z: 252.1417
Precursor type: [M+H]+
m/z	relative intensity	assigned
128.1055	999	C7H14NO+
225.0399	809	C14H9OS+
252.1413	204	C14H22NOS+
