Mass spectrum: Metolachlor-NOA 413173; LC-ESI-QTOF; MS2; CE: 40 eV; R=35000; [M+H]+
Name: Metolachlor-NOA 413173
Name: (2S)-2-(2-ethyl-6-methyl-N-(2-sulfoacetyl)anilino)propanoic acid
Formula: C14H19NO6S
Exact mass: 329.0933083
SMILES: CCC1=CC=CC(C)=C1N([C@@H](C)C(O)=O)C(=O)CS(O)(=O)=O
InChI: InChI=1S/C14H19NO6S/c1-4-11-7-5-6-9(2)13(11)15(10(3)14(17)18)12(16)8-22(19,20)21/h5-7,10H,4,8H2,1-3H3,(H,17,18)(H,19,20,21)/t10-/m0/s1
Instrument: Bruker maXis Impact
Instrument type: LC-ESI-QTOF
Ms type: MS2
Ion mode: POSITIVE
Ionization: ESI
Fragmentation mode: CID
Collision energy: 40 eV
Resolution: 35000
Column name: Acclaim RSLC C18 2.2um, 2.1x100mm, Thermo
Retention time: 10.883 min
Base peak: 223.0627
Precursor m/z: 330.1006
Precursor type: [M+H]+
m/z	relative intensity	assigned
115.0525	170	C9H7+
129.0683	387	C10H9+
131.0848	999	C10H11+
132.0888	142	C9[13]CH11+
160.1107	277	C8H16O3+
