Mass spectrum: Fenpropimorph; LC-ESI-QTOF; MS2; CE: 50 eV; R=35000; [M+H]+
Name: Fenpropimorph
Name: (2S,6R)-4-[3-(4-tert-butylphenyl)-2-methylpropyl]-2,6-dimethylmorpholine
Formula: C20H33NO
Exact mass: 303.2562147
SMILES: CC(CN1C[C@H](C)O[C@H](C)C1)CC1=CC=C(C=C1)C(C)(C)C
InChI: InChI=1S/C20H33NO/c1-15(12-21-13-16(2)22-17(3)14-21)11-18-7-9-19(10-8-18)20(4,5)6/h7-10,15-17H,11-14H2,1-6H3/t15?,16-,17+
Instrument: Bruker maXis Impact
Instrument type: LC-ESI-QTOF
Ms type: MS2
Ion mode: POSITIVE
Ionization: ESI
Fragmentation mode: CID
Collision energy: 50 eV
Resolution: 35000
Column name: Acclaim RSLC C18 2.2um, 2.1x100mm, Thermo
Retention time: 10.200 min
Base peak: 304.2635
Precursor m/z: 304.2635
Precursor type: [M+H]+
m/z	relative intensity	assigned
115.0537	136	C9H7+
116.0593	22	C8[13]CH7+
116.106	5	C6H14NO+
117.0695	396	C9H9+
118.0728	54	C8[13]CH9+
119.0848	356	C9H11+
120.0881	37	C8[13]CH11+
129.0691	8	C10H9+
130.0764	6	C10H10+
130.1216	30	C7H16NO+
131.0845	102	C10H11+
132.0926	999	C10H12+
133.096	107	C9[13]CH12+
134.1	6	C8[13]C2H12+
145.0999	36	C11H13+
146.1074	27	C11H14+
147.116	790	C11H15+
148.1191	99	C10[13]CH15+
149.1236	6	C9[13]C2H15+
159.1159	22	C12H15+
161.1312	23	C12H17+
