Mass spectrum: Desisopropylatrazine; LC-ESI-QTOF; MS2; CE: 30 eV; R=35000; [M+H]+
Name: Desisopropylatrazine
Name: Deisopropylatrazine
Name: 6-chloro-2-N-ethyl-1,3,5-triazine-2,4-diamine
Formula: C5H8ClN5
Exact mass: 173.0468229
SMILES: CCNC1=NC(Cl)=NC(N)=N1
InChI: InChI=1S/C5H8ClN5/c1-2-8-5-10-3(6)9-4(7)11-5/h2H2,1H3,(H3,7,8,9,10,11)
Instrument: Bruker maXis Impact
Instrument type: LC-ESI-QTOF
Ms type: MS2
Ion mode: POSITIVE
Ionization: ESI
Fragmentation mode: CID
Collision energy: 30 eV
Resolution: 35000
Column name: Acclaim RSLC C18 2.2um, 2.1x100mm, Thermo
Retention time: 4.702 min
Base peak: 198.1342
Precursor m/z: 174.0541
Precursor type: [M+H]+
m/z	relative intensity	assigned
132.0309	999	C4H7ClN3+
134.0279	245	C4H7[37]ClN3+
138.0764	328	C5H8N5+
146.0216	771	C3H5ClN5+
148.0183	241	C3H5[37]ClN5+
174.0532	805	C5H9ClN5+
176.0501	261	C5H9[37]ClN5+
