Mass spectrum: Ethofumesate; LC-ESI-QTOF; MS2; CE: 40 eV; R=35000; [M+H]+
Name: Ethofumesate
Name: (2-ethoxy-3,3-dimethyl-2H-1-benzofuran-5-yl) methanesulfonate
Formula: C13H18O5S
Exact mass: 286.0874947
SMILES: CCOC1OC2=CC=C(OS(C)(=O)=O)C=C2C1(C)C
InChI: InChI=1S/C13H18O5S/c1-5-16-12-13(2,3)10-8-9(18-19(4,14)15)6-7-11(10)17-12/h6-8,12H,5H2,1-4H3
Instrument: Bruker maXis Impact
Instrument type: LC-ESI-QTOF
Ms type: MS2
Ion mode: POSITIVE
Ionization: ESI
Fragmentation mode: CID
Collision energy: 40 eV
Resolution: 35000
Column name: Acclaim RSLC C18 2.2um, 2.1x100mm, Thermo
Retention time: 9.177 min
Base peak: 334.1057
Precursor m/z: 287.0948
Precursor type: [M+H]+
m/z	relative intensity	assigned
115.0542	138	C9H7+
121.0634	545	C8H9O+
133.0634	999	C9H9O+
134.0703	500	C9H10O+
135.0803	251	C9H11O+
137.0588	388	C8H9O2+
145.0635	159	C10H9O+
147.0427	168	C9H7O2+
161.0593	534	C10H9O2+
162.065	331	C10H10O2+
163.0714	181	C10H11O2+
