Mass spectrum: Pethoxamid; LC-ESI-QTOF; MS2; CE: 50 eV; R=35000; [M+H]+
Name: Pethoxamid
Name: 2-chloro-N-(2-ethoxyethyl)-N-(2-methyl-1-phenylprop-1-enyl)acetamide
Formula: C16H22ClNO2
Exact mass: 295.1339066
SMILES: CCOCCN(C(=O)CCl)C(=C(C)C)C1=CC=CC=C1
InChI: InChI=1S/C16H22ClNO2/c1-4-20-11-10-18(15(19)12-17)16(13(2)3)14-8-6-5-7-9-14/h5-9H,4,10-12H2,1-3H3
Instrument: Bruker maXis Impact
Instrument type: LC-ESI-QTOF
Ms type: MS2
Ion mode: POSITIVE
Ionization: ESI
Fragmentation mode: CID
Collision energy: 50 eV
Resolution: 35000
Column name: Acclaim RSLC C18 2.2um, 2.1x100mm, Thermo
Retention time: 10.178 min
Base peak: 296.1413
Precursor m/z: 296.1412
Precursor type: [M+H]+
m/z	relative intensity	assigned
115.0536	796	C9H7+
116.0612	530	C9H8+
117.0642	63	C8[13]CH8+
119.084	6	C3H16ClO2+
126.0448	9	C4H11ClO2+
127.0533	51	C10H7+
128.0608	438	C4H13ClO2+
129.0687	828	C10H9+
130.0728	94	C9[13]CH9+
131.0845	999	C10H11+
132.0875	116	C9[13]CH11+
133.0883	10	C9H11N+
141.0689	8	C11H9+
142.0755	11	C5H15ClO2+
143.072	11	C10H9N+
144.0792	58	C4H15ClNO2+
145.0635	48	C10H9O+
145.0869	37	C4H16ClNO2+
146.0668	6	C9[13]CH9O+
146.0941	29	C4H17ClNO2+
147.1012	6	C4H18ClNO2+
148.1104	21	C4H19ClNO2+
155.0591	89	C9H12Cl+
156.063	11	C8[13]CH12Cl+
157.0868	6	C5H16ClNO2+
158.0944	41	C5H17ClNO2+
159.1027	18	C5H18ClNO2+
160.1103	84	C11H14N+
161.1135	11	C10[13]CH14N+
172.1113	18	C12H14N+
174.1256	14	C6H21ClNO2+
