Mass spectrum: Propiconazole; LC-ESI-QTOF; MS2; CE: 50 eV; R=35000; [M+H]+
Name: Propiconazole
Name: 1-[[2-(2,4-dichlorophenyl)-4-propyl-1,3-dioxolan-2-yl]methyl]-1,2,4-triazole
Formula: C15H17Cl2N3O2
Exact mass: 341.0697821
SMILES: CCCC1COC(CN2C=NC=N2)(O1)C1=C(Cl)C=C(Cl)C=C1
InChI: InChI=1S/C15H17Cl2N3O2/c1-2-3-12-7-21-15(22-12,8-20-10-18-9-19-20)13-5-4-11(16)6-14(13)17/h4-6,9-10,12H,2-3,7-8H2,1H3
Instrument: Bruker maXis Impact
Instrument type: LC-ESI-QTOF
Ms type: MS2
Ion mode: POSITIVE
Ionization: ESI
Fragmentation mode: CID
Collision energy: 50 eV
Resolution: 35000
Column name: Acclaim RSLC C18 2.2um, 2.1x100mm, Thermo
Retention time: 11.053 min
Base peak: 226.1342
Precursor m/z: 342.0771
Precursor type: [M+H]+
m/z	relative intensity	assigned
122.9986	56	CH9Cl2O2+
124.0059	17	C8N2+
124.9954	12	CH9Cl[37]ClO2+
132.9599	11	C5H3Cl2+
152.002	5	C8H5ClO+
152.0609	16	C3H16Cl2NO+
153.0675	6	C6H14ClO2+
158.9753	999	C8ClN2+
159.9786	63	C7[13]CClN2+
160.9721	461	C8[37]ClN2+
161.9752	22	C5H4Cl2N2+
162.9702	5	C4H3Cl2N3+
168.056	6	C10H6N3+
172.9543	86	C5HCl2N3+
174.9517	46	C5HCl[37]ClN3+
190.9653	9	C5H3Cl2N3O+
233.0376	5	C10H13Cl2NO+
