Mass spectrum: Myclobutanil; LC-ESI-QTOF; MS2; CE: 50 eV; R=35000; [M+H]+
Name: Myclobutanil
Name: 2-(4-chlorophenyl)-2-(1,2,4-triazol-1-ylmethyl)hexanenitrile
Formula: C15H17ClN4
Exact mass: 288.1141742
SMILES: CCCCC(CN1C=NC=N1)(C#N)C1=CC=C(Cl)C=C1
InChI: InChI=1S/C15H17ClN4/c1-2-3-8-15(9-17,10-20-12-18-11-19-20)13-4-6-14(16)7-5-13/h4-7,11-12H,2-3,8,10H2,1H3
Instrument: Bruker maXis Impact
Instrument type: LC-ESI-QTOF
Ms type: MS2
Ion mode: POSITIVE
Ionization: ESI
Fragmentation mode: CID
Collision energy: 50 eV
Resolution: 35000
Column name: Acclaim RSLC C18 2.2um, 2.1x100mm, Thermo
Retention time: 9.798 min
Base peak: 289.121
Precursor m/z: 289.1215
Precursor type: [M+H]+
m/z	relative intensity	assigned
115.0534	97	C9H7+
116.0611	66	C9H8+
117.0642	6	C8[13]CH8+
122.9992	14	C7H4Cl+
125.0142	999	C7H6Cl+
126.0171	101	C6[13]CH6Cl+
127.011	290	C7H6[37]Cl+
128.0148	17	C5H5ClN2+
128.0486	65	C9H6N+
128.0608	23	C10H8+
129.0523	7	C8[13]CH6N+
129.07	16	C10H9+
130.064	47	C9H8N+
131.0705	11	C9H9N+
137.0139	36	C8H6Cl+
138.0189	6	C9H2N2+
138.9944	5	C5H2ClN3+
139.0116	13	C8H6[37]Cl+
139.0279	6	C9H3N2+
141.0689	7	C11H9+
142.0745	6	C11H10+
143.0707	27	C10H9N+
143.0829	10	C11H11+
149.0139	23	C10HN2+
150.009	55	C8H5ClN+
151.0298	89	C9H8Cl+
152.0064	14	C8H5[37]ClN+
152.0337	7	C8[13]CH8Cl+
152.0595	16	C12H8+
153.0263	24	C9H8[37]Cl+
153.0679	23	C12H9+
156.0784	10	C11H10N+
164.0246	64	C9H7ClN+
165.0288	7	C8[13]CH7ClN+
165.0679	7	C13H9+
166.0231	15	C9H7[37]ClN+
167.0851	13	C13H11+
168.0903	5	C13H12+
170.0931	14	C12H12N+
175.0311	7	C11H8Cl+
177.0257	6	C9H6ClN2+
178.0402	13	C11H4N3+
180.0345	5	C8H7ClN3+
184.1102	9	C13H14N+
