Mass spectrum: Myclobutanil; LC-ESI-QTOF; MS2; CE: 30 eV; R=35000; [M+H]+
Name: Myclobutanil
Name: 2-(4-chlorophenyl)-2-(1,2,4-triazol-1-ylmethyl)hexanenitrile
Formula: C15H17ClN4
Exact mass: 288.1141742
SMILES: CCCCC(CN1C=NC=N1)(C#N)C1=CC=C(Cl)C=C1
InChI: InChI=1S/C15H17ClN4/c1-2-3-8-15(9-17,10-20-12-18-11-19-20)13-4-6-14(16)7-5-13/h4-7,11-12H,2-3,8,10H2,1H3
Instrument: Bruker maXis Impact
Instrument type: LC-ESI-QTOF
Ms type: MS2
Ion mode: POSITIVE
Ionization: ESI
Fragmentation mode: CID
Collision energy: 30 eV
Resolution: 35000
Column name: Acclaim RSLC C18 2.2um, 2.1x100mm, Thermo
Retention time: 9.781 min
Base peak: 289.1213
Precursor m/z: 289.1215
Precursor type: [M+H]+
m/z	relative intensity	assigned
115.0537	20	C9H7+
116.0618	10	C9H8+
125.0144	999	C7H6Cl+
126.0174	74	C6[13]CH6Cl+
127.0111	259	C7H6[37]Cl+
128.0136	16	C5H5ClN2+
128.0494	7	C9H6N+
130.064	18	C9H8N+
131.0702	7	C9H9N+
137.0142	13	C9HN2+
138.9928	12	C5H2ClN3+
139.0297	16	C9H3N2+
142.0749	12	C11H10+
143.0713	14	C10H9N+
143.0826	5	C11H11+
149.0142	14	C10HN2+
150.0086	33	C8H5ClN+
151.0297	292	C9H8Cl+
152.007	8	C8H5[37]ClN+
152.0333	37	C8[13]CH8Cl+
153.027	90	C9H8[37]Cl+
153.0688	12	C12H9+
158.1081	5	C12H14+
163.0289	8	C11H3N2+
164.0251	129	C9H7ClN+
165.0307	31	C9H8ClN+
165.0443	12	C11H5N2+
166.022	41	C9H7[37]ClN+
166.0403	45	C9H9ClN+
167.0294	7	C9H8[37]ClN+
167.0842	17	C13H11+
168.0383	8	C9H9[37]ClN+
168.091	33	C13H12+
169.095	6	C12[13]CH12+
170.0965	9	C12H12N+
175.0302	19	C11H8Cl+
177.0268	6	C11H8[37]Cl+
178.0403	62	C10H9ClN+
179.0438	8	C9[13]CH9ClN+
180.0378	20	C10H9[37]ClN+
184.1104	9	C13H14N+
185.12	12	C13H15N+
191.0506	9	C11H10ClN+
192.0565	16	C11H11ClN+
193.0772	25	C12H14Cl+
194.0528	6	C11H11[37]ClN+
195.0746	10	C12H14[37]Cl+
203.0608	27	C13H12Cl+
205.0584	11	C13H12[37]Cl+
220.0876	36	C13H15ClN+
221.0909	5	C12[13]CH15ClN+
222.0851	8	C13H15[37]ClN+
289.1198	13	C15H18ClN4+
