Mass spectrum: Myclobutanil; LC-ESI-QTOF; MS2; CE: 20 eV; R=35000; [M+H]+
Name: Myclobutanil
Name: 2-(4-chlorophenyl)-2-(1,2,4-triazol-1-ylmethyl)hexanenitrile
Formula: C15H17ClN4
Exact mass: 288.1141742
SMILES: CCCCC(CN1C=NC=N1)(C#N)C1=CC=C(Cl)C=C1
InChI: InChI=1S/C15H17ClN4/c1-2-3-8-15(9-17,10-20-12-18-11-19-20)13-4-6-14(16)7-5-13/h4-7,11-12H,2-3,8,10H2,1H3
Instrument: Bruker maXis Impact
Instrument type: LC-ESI-QTOF
Ms type: MS2
Ion mode: POSITIVE
Ionization: ESI
Fragmentation mode: CID
Collision energy: 20 eV
Resolution: 35000
Column name: Acclaim RSLC C18 2.2um, 2.1x100mm, Thermo
Retention time: 9.814 min
Base peak: 289.1211
Precursor m/z: 289.1215
Precursor type: [M+H]+
m/z	relative intensity	assigned
115.0531	6	C9H7+
125.0142	526	C7H6Cl+
126.0175	35	C6[13]CH6Cl+
127.0113	132	C7H6[37]Cl+
128.0143	8	C5H5ClN2+
139.0317	8	C8H8Cl+
149.012	8	C10HN2+
150.0081	11	C9N3+
151.0295	179	C9H8Cl+
152.0333	22	C8[13]CH8Cl+
153.0271	48	C9H8[37]Cl+
163.0284	7	C11H3N2+
164.025	61	C9H7ClN+
165.031	23	C10H3N3+
166.0213	14	C9H7[37]ClN+
166.0399	50	C9H9ClN+
167.0441	6	C8[13]CH9ClN+
167.0853	13	C13H11+
168.0387	9	C9H9[37]ClN+
168.0914	22	C13H12+
175.0296	12	C11H8Cl+
177.0272	5	C11H8[37]Cl+
177.0444	6	C12H5N2+
178.0403	61	C10H9ClN+
179.0434	8	C9[13]CH9ClN+
180.0377	15	C10H9[37]ClN+
185.1176	18	C13H15N+
192.0559	22	C12H6N3+
193.0765	88	C12H14Cl+
194.048	17	C9H9ClN3+
194.0794	10	C11[13]CH14Cl+
195.0739	30	C12H14[37]Cl+
203.0602	62	C13H12Cl+
204.0648	17	C14H8N2+
205.0587	17	C13H12[37]Cl+
220.0876	257	C13H15ClN+
221.0923	38	C12[13]CH15ClN+
222.0842	71	C13H15[37]ClN+
223.0873	8	C11H14ClN3+
289.121	999	C15H18ClN4+
290.124	186	C14[13]CH18ClN4+
291.1177	285	C15H18[37]ClN4+
