Mass spectrum: Tebuconazole; LC-ESI-QTOF; MS2; CE: 30 eV; R=35000; [M+H]+
Name: Tebuconazole
Name: 1-(4-chlorophenyl)-4,4-dimethyl-3-(1,2,4-triazol-1-ylmethyl)pentan-3-ol
Formula: C16H22ClN3O
Exact mass: 307.1451400
SMILES: CC(C)(C)C(O)(CCC1=CC=C(Cl)C=C1)CN1C=NC=N1
InChI: InChI=1S/C16H22ClN3O/c1-15(2,3)16(21,10-20-12-18-11-19-20)9-8-13-4-6-14(17)7-5-13/h4-7,11-12,21H,8-10H2,1-3H3
Instrument: Bruker maXis Impact
Instrument type: LC-ESI-QTOF
Ms type: MS2
Ion mode: POSITIVE
Ionization: ESI
Fragmentation mode: CID
Collision energy: 30 eV
Resolution: 35000
Column name: Acclaim RSLC C18 2.2um, 2.1x100mm, Thermo
Retention time: 10.935 min
Base peak: 308.152
Precursor m/z: 308.1524
Precursor type: [M+H]+
m/z	relative intensity	assigned
115.0536	95	C9H7+
116.0605	81	C9H8+
117.0631	10	C8[13]CH8+
125.0142	999	C7H6Cl+
126.0175	109	C6[13]CH6Cl+
127.0109	307	C7H6[37]Cl+
128.0136	16	C5H5ClN2+
128.0598	6	C2H11ClN3O+
129.0687	38	C10H9+
130.0767	47	C10H10+
131.0808	6	C9[13]CH10+
137.0141	10	C9HN2+
139.0291	183	C8H8Cl+
140.0322	24	C7[13]CH8Cl+
141.0262	53	C8H8[37]Cl+
143.0834	10	C3H14ClN3O+
144.0923	12	C11H12+
151.0292	853	C9H8Cl+
152.033	88	C8[13]CH8Cl+
153.0259	214	C9H8[37]Cl+
153.045	12	C10H5N2+
154.0307	12	C7H7ClN2+
155.025	20	C6H6ClN3+
155.0401	6	C7H8ClN2+
165.0447	231	C10H10Cl+
166.0485	33	C9[13]CH10Cl+
167.0414	65	C10H10[37]Cl+
168.0443	7	C11H6NO+
175.11	7	C10H13N3+
179.0603	75	C11H12Cl+
180.0615	6	C10H11ClN+
181.0575	21	C11H12[37]Cl+
181.0775	10	C11H14Cl+
221.1094	6	C14H18Cl+
308.1512	338	C16H23ClN3O+
309.1537	63	C15[13]CH23ClN3O+
310.1483	116	C16H23[37]ClN3O+
