Mass spectrum: Ethofumesate; LC-ESI-QTOF; MS2; CE: 10 eV; R=35000; [M+H]+
Name: Ethofumesate
Name: (2-ethoxy-3,3-dimethyl-2H-1-benzofuran-5-yl) methanesulfonate
Formula: C13H18O5S
Exact mass: 286.0874947
SMILES: CCOC1OC2=CC=C(OS(C)(=O)=O)C=C2C1(C)C
InChI: InChI=1S/C13H18O5S/c1-5-16-12-13(2,3)10-8-9(18-19(4,14)15)6-7-11(10)17-12/h6-8,12H,5H2,1-4H3
Instrument: Bruker maXis Impact
Instrument type: LC-ESI-QTOF
Ms type: MS2
Ion mode: POSITIVE
Ionization: ESI
Fragmentation mode: CID
Collision energy: 10 eV
Resolution: 35000
Column name: Acclaim RSLC C18 2.2um, 2.1x100mm, Thermo
Retention time: 9.191 min
Base peak: 334.1062
Precursor m/z: 287.0948
Precursor type: [M+H]+
m/z	relative intensity	assigned
121.0641	293	C8H9O+
122.0683	33	C7[13]CH9O+
149.0945	44	C10H13O+
161.0592	64	C10H9O2+
163.0745	76	C10H11O2+
179.0692	43	C10H11O3+
241.0526	156	C11H13O4S+
242.0545	23	C10[13]CH13O4S+
259.0632	999	C11H15O5S+
260.0669	143	C10[13]CH15O5S+
261.0599	37	C11H15O5[34]S+
285.0772	25	C13H17O5S+
287.0944	521	C13H19O5S+
288.0965	89	C12[13]CH19O5S+
289.0922	27	C13H19O5[34]S+
