Mass spectrum: Thiamethoxam; LC-ESI-QTOF; MS2; CE: 10 eV; R=35000; [M+H]+
Name: Thiamethoxam
Name: Actara
Name: (NE)-N-[3-[(2-chloro-1,3-thiazol-5-yl)methyl]-5-methyl-1,3,5-oxadiazinan-4-ylidene]nitramide
Formula: C8H10ClN5O3S
Exact mass: 291.0192879
SMILES: CN1COCN(CC2=CN=C(Cl)S2)\C1=N\[N+]([O-])=O
InChI: InChI=1S/C8H10ClN5O3S/c1-12-4-17-5-13(8(12)11-14(15)16)3-6-2-10-7(9)18-6/h2H,3-5H2,1H3/b11-8+
Instrument: Bruker maXis Impact
Instrument type: LC-ESI-QTOF
Ms type: MS2
Ion mode: POSITIVE
Ionization: ESI
Fragmentation mode: CID
Collision energy: 10 eV
Resolution: 35000
Column name: Acclaim RSLC C18 2.2um, 2.1x100mm, Thermo
Retention time: 4.273 min
Base peak: 292.0261
Precursor m/z: 292.0266
Precursor type: [M+H]+
m/z	relative intensity	assigned
131.9658	46	CH5ClO3S+
133.9623	14	CH5[37]ClO3S+
180.0451	13	C7H8N4S+
181.0529	21	C4H11N3O3S+
210.056	237	C8H10N4OS+
211.0639	999	C8H11N4OS+
212.0661	74	C7[13]CH11N4OS+
213.0598	23	C8H11N4O[34]S+
245.0254	6	C8H10ClN4OS+
246.0324	49	C8H11ClN4OS+
247.0338	5	C7[13]CH11ClN4OS+
248.0276	19	C8H11[37]ClN4OS+
292.0263	158	C8H11ClN5O3S+
293.0282	17	C7[13]CH11ClN5O3S+
294.023	48	C8H11[37]ClN5O3S+
