Mass spectrum: Metalaxyl; LC-ESI-QTOF; MS2; CE: 30 eV; R=35000; [M+H]+
Name: Metalaxyl
Name: methyl 2-(N-(2-methoxyacetyl)-2,6-dimethylanilino)propanoate
Formula: C15H21NO4
Exact mass: 279.1470582
SMILES: COCC(=O)N(C(C)C(=O)OC)C1=C(C)C=CC=C1C
InChI: InChI=1S/C15H21NO4/c1-10-7-6-8-11(2)14(10)16(13(17)9-19-4)12(3)15(18)20-5/h6-8,12H,9H2,1-5H3
Instrument: Bruker maXis Impact
Instrument type: LC-ESI-QTOF
Ms type: MS2
Ion mode: POSITIVE
Ionization: ESI
Fragmentation mode: CID
Collision energy: 30 eV
Resolution: 35000
Column name: Acclaim RSLC C18 2.2um, 2.1x100mm, Thermo
Retention time: 8.276 min
Base peak: 280.1549
Precursor m/z: 280.1543
Precursor type: [M+H]+
m/z	relative intensity	assigned
121.0875	5	C8H11N+
130.064	12	C9H8N+
131.0717	8	C9H9N+
132.0796	36	C9H10N+
133.0873	51	C9H11N+
134.0953	105	C9H12N+
135.0993	9	C8[13]CH12N+
144.0796	12	C10H10N+
145.0874	61	C10H11N+
146.095	60	C10H12N+
147.0995	8	C9[13]CH12N+
148.111	148	C7H16O3+
149.1138	15	C6[13]CH16O3+
150.0904	10	C9H12NO+
160.1111	999	C8H16O3+
161.1143	94	C7[13]CH16O3+
162.1264	153	C8H18O3+
163.1296	16	C7[13]CH18O3+
164.1055	6	C7H16O4+
165.1135	22	C10H15NO+
188.1057	5	C12H14NO+
192.1376	479	C9H20O4+
193.1406	59	C8[13]CH20O4+
220.1324	102	C13H18NO2+
221.1351	13	C12[13]CH18NO2+
