Mass spectrum: Thiamethoxam; LC-ESI-QTOF; MS2; CE: 50 eV; R=35000; [M+H]+
Name: Thiamethoxam
Name: Actara
Name: (NE)-N-[3-[(2-chloro-1,3-thiazol-5-yl)methyl]-5-methyl-1,3,5-oxadiazinan-4-ylidene]nitramide
Formula: C8H10ClN5O3S
Exact mass: 291.0192879
SMILES: CN1COCN(CC2=CN=C(Cl)S2)\C1=N\[N+]([O-])=O
InChI: InChI=1S/C8H10ClN5O3S/c1-12-4-17-5-13(8(12)11-14(15)16)3-6-2-10-7(9)18-6/h2H,3-5H2,1H3/b11-8+
Instrument: Bruker maXis Impact
Instrument type: LC-ESI-QTOF
Ms type: MS2
Ion mode: POSITIVE
Ionization: ESI
Fragmentation mode: CID
Collision energy: 50 eV
Resolution: 35000
Column name: Acclaim RSLC C18 2.2um, 2.1x100mm, Thermo
Retention time: 4.227 min
Base peak: 292.0262
Precursor m/z: 292.0266
Precursor type: [M+H]+
m/z	relative intensity	assigned
108.055	15	C5H6N3+
113.0153	5	C6H6Cl+
118.9574	9	ClH4O3S+
120.0564	6	C8H8O+
122.0702	205	C6H8N3+
122.9984	18	C2H5NO3S+
123.0778	64	C6H9N3+
124.0075	90	C7H5Cl+
124.0821	5	C5[13]CH9N3+
125.0156	194	C5H5N2S+
126.0054	7	C4H2N2O3+
126.0183	15	C4[13]CH5N2S+
127.0112	10	C5H5N2[34]S+
131.9656	519	C7OS+
132.9701	39	C6[13]COS+
133.9623	196	C3HClNO3+
134.968	13	C4H4ClOS+
135.0665	7	C6H7N4+
137.0817	7	C6H9N4+
138.0107	124	CH11ClO3S+
139.0173	18	C2H7N2O3S+
139.0314	12	C8H8Cl+
140.0078	6	CH11ClO3[34]S+
140.0259	13	C7H7ClN+
144.9623	5	C4H2ClN2S+
145.9666	5	CH5ClNO3S+
146.9749	9	CH6ClNO3S+
147.0649	23	C4H9N3O3+
147.9645	5	C3HClN2O3+
148.0734	7	C7H8N4+
149.0803	5	C4H11N3O3+
150.0096	6	C3H6N2O3S+
151.0181	163	C8H6ClN+
152.0262	999	C6H6N3S+
153.0281	82	C5[13]CH6N3S+
154.0231	39	C6H6N3[34]S+
154.0418	29	C8H9ClN+
155.0452	8	C6H7N2O3+
165.0216	76	C8H6ClN2+
165.0755	19	C7H9N4O+
166.0284	37	ClH11N4O2S+
171.9712	9	C2H5ClN2O3S+
172.9914	5	C7HN4S+
174.9711	16	C3H2ClN5S+
179.0368	16	C4H9N3O3S+
180.0449	16	C4H10N3O3S+
181.0526	178	C7H9N4S+
182.0545	13	C6[13]CH9N4S+
183.0495	6	C7H9N4[34]S+
185.9863	6	C3H7ClN2O3S+
199.0625	6	C7H10ClN5+
211.0618	7	C8H10ClN5+
215.0156	10	C7H8ClN4S+
217.0124	6	C6H6ClN4O3+
