Mass spectrum: Fenoxycarb; LC-ESI-QTOF; MS2; CE: 10 eV; R=35000; [M+H]+
Name: Fenoxycarb
Name: ethyl N-[2-(4-phenoxyphenoxy)ethyl]carbamate
Formula: C17H19NO4
Exact mass: 301.1314081
SMILES: CCOC(=O)NCCOC1=CC=C(OC2=CC=CC=C2)C=C1
InChI: InChI=1S/C17H19NO4/c1-2-20-17(19)18-12-13-21-14-8-10-16(11-9-14)22-15-6-4-3-5-7-15/h3-11H,2,12-13H2,1H3,(H,18,19)
Instrument: Bruker maXis Impact
Instrument type: LC-ESI-QTOF
Ms type: MS2
Ion mode: POSITIVE
Ionization: ESI
Fragmentation mode: CID
Collision energy: 10 eV
Resolution: 35000
Column name: Acclaim RSLC C18 2.2um, 2.1x100mm, Thermo
Retention time: 10.646 min
Base peak: 302.1386
Precursor m/z: 302.1387
Precursor type: [M+H]+
m/z	relative intensity	assigned
116.0698	58	C5H10NO2+
117.0723	5	C9H9+
230.1169	6	C14H16NO2+
256.0965	310	C15H14NO3+
257.0994	46	C14[13]CH14NO3+
258.1022	5	C13[13]C2H14NO3+
302.1392	999	C17H20NO4+
303.1418	158	C16[13]CH20NO4+
304.1439	15	C15[13]C2H20NO4+
