Mass spectrum: Pendimethalin; LC-ESI-QTOF; MS2; CE: Ramp 21.0-31.4 eV; R=35000; [M+H]+
Name: Pendimethalin
Name: 3,4-dimethyl-2,6-dinitro-N-pentan-3-ylaniline
Formula: C13H19N3O4
Exact mass: 281.1375561
SMILES: CCC(CC)NC1=C(C(C)=C(C)C=C1[N+]([O-])=O)[N+]([O-])=O
InChI: InChI=1S/C13H19N3O4/c1-5-10(6-2)14-12-11(15(17)18)7-8(3)9(4)13(12)16(19)20/h7,10,14H,5-6H2,1-4H3
Instrument: Bruker maXis Impact
Instrument type: LC-ESI-QTOF
Ms type: MS2
Ion mode: POSITIVE
Ionization: ESI
Fragmentation mode: CID
Collision energy: Ramp 21.0-31.4 eV
Resolution: 35000
Column name: Acclaim RSLC C18 2.2um, 2.1x100mm, Thermo
Retention time: 12.809 min
Base peak: 308.0043
Precursor m/z: 282.1448
Precursor type: [M+H]+
m/z	relative intensity	assigned
57.0692	19	C4H9+
60.0803	67	C3H10N+
71.0858	29	C5H11+
118.0526	42	C7H6N2+
119.0594	26	C7H7N2+
126.0539	18	C6H8NO2+
130.0516	25	C8H6N2+
131.0589	15	C5H9NO3+
133.0388	18	C7H5N2O+
134.0966	20	C9H12N+
135.055	16	C7H7N2O+
147.0547	43	C8H7N2O+
148.0625	79	C8H8N2O+
149.0229	17	C8H5O3+
149.0593	45	C9H9O2+
150.0274	19	C6H4N3O2+
160.0506	15	C8H6N3O+
163.0508	36	C8H7N2O2+
165.0655	13	C8H9N2O2+
166.0651	14	C12H8N+
176.1433	40	C12H18N+
177.0531	80	C8H7N3O2+
178.0606	70	C8H8N3O2+
179.0443	11	C8H7N2O3+
194.0556	395	C8H8N3O3+
195.0632	172	C8H9N3O3+
196.0648	16	C7[13]CH9N3O3+
212.0662	999	C8H10N3O4+
213.069	78	C7[13]CH10N3O4+
214.071	13	C8H10N3O3[18]O+
252.1154	68	C12H16N2O4+
