Mass spectrum: Prochloraz; LC-ESI-QTOF; MS2; CE: 50 eV; R=35000; [M+H]+
Name: Prochloraz
Name: N-propyl-N-[2-(2,4,6-trichlorophenoxy)ethyl]imidazole-1-carboxamide
Formula: C15H16Cl3N3O2
Exact mass: 375.0308098
SMILES: CCCN(CCOC1=C(Cl)C=C(Cl)C=C1Cl)C(=O)N1C=CN=C1
InChI: InChI=1S/C15H16Cl3N3O2/c1-2-4-20(15(22)21-5-3-19-10-21)6-7-23-14-12(17)8-11(16)9-13(14)18/h3,5,8-10H,2,4,6-7H2,1H3
Instrument: Bruker maXis Impact
Instrument type: LC-ESI-QTOF
Ms type: MS2
Ion mode: POSITIVE
Ionization: ESI
Fragmentation mode: CID
Collision energy: 50 eV
Resolution: 35000
Column name: Acclaim RSLC C18 2.2um, 2.1x100mm, Thermo
Retention time: 11.304 min
Base peak: 376.0383
Precursor m/z: 376.0381
Precursor type: [M+H]+
m/z	relative intensity	assigned
122.9988	64	C7H4Cl+
124.0058	18	C8N2+
124.9965	16	C7H4[37]Cl+
125.0146	78	C7H6Cl+
127.0115	20	C7H6[37]Cl+
132.9594	247	C5H3Cl2+
133.965	20	C4[13]CH3Cl2+
134.9566	124	C5H3Cl[37]Cl+
138.0094	51	CH10Cl2NO2+
139.017	21	CH11Cl2NO2+
140.0064	20	CH10Cl[37]ClNO2+
141.0114	23	CH11Cl[37]ClNO2+
142.9427	33	Cl3H6O2+
142.9849	13	C4H2ClN3O+
146.9752	23	Cl3H10O2+
148.9713	13	H10Cl2[37]ClO2+
150.9934	26	C6H2ClN3+
152.0008	54	C6H3ClN3+
153.0089	31	C6H4ClN3+
158.9749	360	C8ClN2+
159.9825	159	C8HClN2+
160.9545	188	C4HCl2N3+
160.9713	144	C8[37]ClN2+
161.9618	580	C6H4Cl2O+
161.9793	71	C8H[37]ClN2+
162.9509	96	C4HCl[37]ClN3+
162.9647	56	C5[13]CH4Cl2O+
163.9589	278	C6H4Cl[37]ClO+
164.9629	20	C3H8Cl3O+
166.0041	49	C8H5ClNO+
166.9206	812	C5H2Cl3+
167.0118	117	C8H6ClNO+
167.9238	60	C4[13]CH2Cl3+
168.0005	13	C8H5[37]ClNO+
168.0184	12	C7[13]CH6ClNO+
168.9172	643	C5H2Cl2[37]Cl+
169.0096	36	C8H6[37]ClNO+
169.9197	30	C3HCl3N2+
169.9675	35	C3H4Cl2N2O2+
170.9147	17	C2Cl3N3+
171.9627	12	C3H4Cl[37]ClN2O2+
172.965	24	Cl3H8N2O2+
173.9857	97	C2H6Cl2N3O2+
174.9699	161	C8ClN2O+
175.9819	61	C2H6Cl[37]ClN3O2+
176.9661	59	C8[37]ClN2O+
178.9196	22	CH2Cl3N2O2+
178.9639	26	C7ClN2O2+
179.9281	303	C6H3Cl3+
180.0205	37	C9H7ClNO+
180.9154	19	CH2Cl2[37]ClN2O2+
180.9323	17	C5[13]CH3Cl3+
180.9644	12	C6ClN3O2+
181.0294	37	C6H11Cl2N2+
181.9251	211	C6H3Cl2[37]Cl+
182.017	13	C9H7[37]ClNO+
185.9637	18	C5H7Cl3N+
186.9702	70	Cl3H8N3O2+
187.9779	211	C9HClN2O+
188.9637	40	H8Cl2[37]ClN3O2+
188.9814	21	C8[13]CHClN2O+
189.975	107	C9H[37]ClN2O+
192.9347	41	C2H4Cl3N2O2+
194.9157	999	C4Cl3N3+
194.951	77	C8HCl2N2+
195.92	71	C3[13]CCl3N3+
196.9126	803	C4Cl2[37]ClN3+
196.9306	406	C6H4Cl3O+
196.9494	50	C8HCl[37]ClN2+
197.9174	41	C4HCl3N2O+
197.9343	31	C5[13]CH4Cl3O+
198.9277	371	C6H4Cl2[37]ClO+
199.9291	15	C7Cl2NO2+
201.9816	37	C8H6Cl2NO+
202.988	22	C8H7Cl2NO+
203.9786	22	C8H6Cl[37]ClNO+
204.9369	35	C8H4Cl3+
204.9861	16	C8H7Cl[37]ClNO+
206.9275	76	C6H2Cl3N2+
208.923	54	C6H2Cl2[37]ClN2+
209.0588	15	C12H7N3O+
215.9972	51	C10H3ClN3O+
217.9925	16	C10H3[37]ClN3O+
222.9472	169	C9HCl2N2O+
223.9477	26	C8[13]CHCl2N2O+
224.9436	167	C9HCl[37]ClN2O+
225.0427	24	C10H10ClN2O2+
283.0289	21	C14H13Cl2O2+
285.0492	17	C14H15Cl2O2+
