Mass spectrum: Quinmerac; LC-ESI-QTOF; MS2; CE: Ramp 18.8-28.2 eV; R=35000; [M+H]+
Name: Quinmerac
Name: 7-chloro-3-methylquinoline-8-carboxylic acid
Formula: C11H8ClNO2
Exact mass: 221.0243562
SMILES: CC1=CC2=C(N=C1)C(C(O)=O)=C(Cl)C=C2
InChI: InChI=1S/C11H8ClNO2/c1-6-4-7-2-3-8(12)9(11(14)15)10(7)13-5-6/h2-5H,1H3,(H,14,15)
Instrument: Bruker maXis Impact
Instrument type: LC-ESI-QTOF
Ms type: MS2
Ion mode: POSITIVE
Ionization: ESI
Fragmentation mode: CID
Collision energy: Ramp 18.8-28.2 eV
Resolution: 35000
Column name: Acclaim RSLC C18 2.2um, 2.1x100mm, Thermo
Retention time: 4.894 min
Base peak: 222.0317
Precursor m/z: 222.0316
Precursor type: [M+H]+
m/z	relative intensity	assigned
140.0492	37	C10H6N+
141.0569	74	C10H7N+
142.0595	7	C9[13]CH7N+
149.0151	36	C9H6Cl+
151.0117	11	C9H6[37]Cl+
176.0261	81	C10H7ClN+
177.0294	8	C9[13]CH7ClN+
178.0234	20	C10H7[37]ClN+
194.0365	55	C10H9ClNO+
196.0342	18	C10H9[37]ClNO+
204.0212	999	C11H7ClNO+
205.0244	108	C10[13]CH7ClNO+
206.0184	281	C11H7[37]ClNO+
207.0211	17	C11H8ClO2+
222.0317	425	C11H9ClNO2+
223.0349	75	C10[13]CH9ClNO2+
224.0291	177	C11H9[37]ClNO2+
