Mass spectrum: Bupirimate; LC-ESI-QTOF; MS2; CE: Ramp 21.9-32.9 eV; R=35000; [M+H]+
Name: Bupirimate
Name: [5-butyl-2-(ethylamino)-6-methylpyrimidin-4-yl] N,N-dimethylsulfamate
Formula: C13H24N4O3S
Exact mass: 316.1569116
SMILES: CCCCC1=C(C)N=C(NCC)N=C1OS(=O)(=O)N(C)C
InChI: InChI=1S/C13H24N4O3S/c1-6-8-9-11-10(3)15-13(14-7-2)16-12(11)20-21(18,19)17(4)5/h6-9H2,1-5H3,(H,14,15,16)
Instrument: Bruker maXis Impact
Instrument type: LC-ESI-QTOF
Ms type: MS2
Ion mode: POSITIVE
Ionization: ESI
Fragmentation mode: CID
Collision energy: Ramp 21.9-32.9 eV
Resolution: 35000
Column name: Acclaim RSLC C18 2.2um, 2.1x100mm, Thermo
Retention time: 10.536 min
Base peak: 317.165
Precursor m/z: 317.1642
Precursor type: [M+H]+
m/z	relative intensity	assigned
46.065	35	C2H8N+
69.0077	7	C2HN2O+
70.0395	18	C2H4N3+
71.0599	7	C3H7N2+
77.0048	21	H3N3S+
77.0378	23	C6H5+
79.0536	10	C6H7+
80.9989	26	CH5O2S+
86.0704	8	C3H8N3+
91.0541	32	C7H7+
95.0158	19	C2H7O2S+
95.0489	32	C6H7O+
95.0591	6	C5H7N2+
95.0853	6	C7H11+
96.0441	20	C5H6NO+
96.0804	8	C6H10N+
97.0114	9	C5H5S+
97.0397	21	C4H5N2O+
98.06	20	C5H8NO+
105.0449	25	C6H5N2+
105.0702	17	C8H9+
108.0119	798	C2H6NO2S+
109.014	20	C[13]CH6NO2S+
109.0444	5	C2H9N2OS+
110.0074	28	C2H6NO2[34]S+
110.0967	12	C7H12N+
112.1125	6	CH20O3S+
122.071	7	C6H8N3+
137.1071	5	C8H13N2+
138.0657	25	C6H8N3O+
138.0908	8	H16N3O3S+
138.1023	9	C7H12N3+
139.0736	29	C6H9N3O+
140.1067	104	C6H12N4+
141.0692	8	C3H13N2O2S+
141.1101	9	C5[13]CH12N4+
148.0865	10	C8H10N3+
150.1021	188	C8H12N3+
151.0366	13	C6H5N3O2+
151.1059	17	C7[13]CH12N3+
151.1226	14	CH19N4O2S+
152.0616	10	C4H12N2O2S+
152.081	11	C7H10N3O+
153.0696	10	C12H9+
157.0266	7	C8H3N3O+
159.0261	7	C10H7S+
165.0691	233	C5H13N2O2S+
165.0884	18	C8H11N3O+
165.1012	36	CH17N4O3S+
166.0752	58	C8H10N2O2+
166.0968	741	C10H14O2+
167.0792	6	C7[13]CH10N2O2+
167.1028	112	C9[13]CH14O2+
168.1066	8	C6H18NO2S+
169.047	58	C6H7N3O3+
170.0489	8	C10H6N2O+
171.0426	16	C9H5N3O+
179.0839	6	C6H15N2O2S+
180.1123	18	C9H14N3O+
180.1488	39	C10H18N3+
181.1197	11	C9H15N3O+
182.1277	18	C9H16N3O+
183.06	10	C8H11N2OS+
185.0755	37	C8H13N2OS+
187.0578	206	C12H11S+
188.0594	23	C11[13]CH11S+
189.0556	6	C12H11[34]S+
192.1481	36	C8H20N2O3+
193.133	43	C3H21N4O3S+
194.1283	72	C10H16N3O+
195.1307	6	C9[13]CH16N3O+
205.0673	5	C10H11N3S+
208.144	290	C11H18N3O+
209.1504	96	C11H19N3O+
210.1596	516	C11H20N3O+
211.1625	70	C10[13]CH20N3O+
219.043	11	C13H5N3O+
224.1755	34	C12H22N3O+
225.1778	5	C11[13]CH22N3O+
227.0673	7	C12H9N3O2+
237.0536	16	C13H7N3O2+
237.2069	235	C13H25N4+
238.2096	28	C12[13]CH25N4+
244.0744	9	C9H14N3O3S+
245.0782	6	C12H11N3O3+
247.0745	55	C12H13N3OS+
248.077	10	C11[13]CH13N3OS+
254.0951	5	C11H16N3O2S+
262.0854	18	C12H14N4OS+
265.0848	8	C12H15N3O2S+
272.1062	335	C11H18N3O3S+
273.1086	42	C10[13]CH18N3O3S+
274.1034	12	C11H18N3O3[34]S+
317.1646	999	C13H25N4O3S+
318.167	223	C12[13]CH25N4O3S+
319.162	54	C13H25N4O3[34]S+
