Mass spectrum: Pethoxamid; LC-ESI-QTOF; MS2; CE: Ramp 21.5-32.2 eV; R=35000; [M+H]+
Name: Pethoxamid
Name: 2-chloro-N-(2-ethoxyethyl)-N-(2-methyl-1-phenylprop-1-enyl)acetamide
Formula: C16H22ClNO2
Exact mass: 295.1339066
SMILES: CCOCCN(C(=O)CCl)C(=C(C)C)C1=CC=CC=C1
InChI: InChI=1S/C16H22ClNO2/c1-4-20-11-10-18(15(19)12-17)16(13(2)3)14-8-6-5-7-9-14/h5-9H,4,10-12H2,1-3H3
Instrument: Bruker maXis Impact
Instrument type: LC-ESI-QTOF
Ms type: MS2
Ion mode: POSITIVE
Ionization: ESI
Fragmentation mode: CID
Collision energy: Ramp 21.5-32.2 eV
Resolution: 35000
Column name: Acclaim RSLC C18 2.2um, 2.1x100mm, Thermo
Retention time: 10.198 min
Base peak: 296.1417
Precursor m/z: 296.1412
Precursor type: [M+H]+
m/z	relative intensity	assigned
45.0337	9	C2H5O+
73.0646	91	C4H9O+
91.0543	363	C7H7+
92.0578	19	C6[13]CH7+
105.0708	16	C8H9+
115.0548	18	C9H7+
116.0626	38	C9H8+
128.062	6	C10H8+
129.0704	80	C10H9+
130.074	8	C9[13]CH9+
131.0864	999	C10H11+
132.0897	117	C9[13]CH11+
133.093	5	C8[13]C2H11+
160.1124	20	C11H14N+
174.1283	14	C12H16N+
176.1074	5	C11H14NO+
220.1706	78	C14H22NO+
221.1738	12	C13[13]CH22NO+
250.1	218	C14H17ClNO+
251.1034	37	C13[13]CH17ClNO+
252.0974	69	C14H17[37]ClNO+
253.1005	5	C14H18ClO2+
296.1419	29	C16H23ClNO2+
297.1447	5	C15[13]CH23ClNO2+
298.1395	8	C16H23[37]ClNO2+
