Mass spectrum: 2-(Piperazin-1-yl)ethanamine; LC-ESI-QTOF; MS2; CE: 20 eV; R=35000; [M+H]+
Name: 2-(Piperazin-1-yl)ethanamine
Name: 1-Piperazineethanamine
Name: 2-piperazin-1-ylethanamine
Formula: C6H15N3
Exact mass: 129.1265975
SMILES: NCCN1CCNCC1
InChI: InChI=1S/C6H15N3/c7-1-4-9-5-2-8-3-6-9/h8H,1-7H2
Instrument: Bruker maXis Impact
Instrument type: LC-ESI-QTOF
Ms type: MS2
Ion mode: POSITIVE
Ionization: ESI
Fragmentation mode: CID
Collision energy: 20 eV
Resolution: 35000
Column name: Acclaim RSLC C18 2.2um, 2.1x100mm, Thermo
Retention time: 1.269 min
Base peak: 130.1328
Precursor m/z: 130.1339
Precursor type: [M+H]+
m/z	relative intensity	assigned
113.106	999	C6H13N2+
130.1335	369	C6H16N3+
