Mass spectrum: Metazachlor BH479-12; LC-ESI-QTOF; MS2; CE: Ramp 21.7-32.5 eV; R=35000; [M+H]+
Name: Metazachlor BH479-12
Formula: C14H13N3O5
Exact mass: 303.0855205
SMILES: CC1=C(N(CN2C=CC=N2)C(=O)C(O)=O)C(=CC=C1)C(O)=O
InChI: InChI=1S/C14H13N3O5/c1-9-4-2-5-10(13(19)20)11(9)17(12(18)14(21)22)8-16-7-3-6-15-16/h2-7H,8H2,1H3,(H,19,20)(H,21,22)
Instrument: Bruker maXis Impact
Instrument type: LC-ESI-QTOF
Ms type: MS2
Ion mode: POSITIVE
Ionization: ESI
Fragmentation mode: CID
Collision energy: Ramp 21.7-32.5 eV
Resolution: 35000
Column name: Acclaim RSLC C18 2.2um, 2.1x100mm, Thermo
Retention time: 4.342 min
Base peak: 61.0393
Precursor m/z: 304.0928
Precursor type: [M+H]+
m/z	relative intensity	assigned
69.0443	390	C3H5N2+
134.0604	128	C8H8NO+
144.0462	93	C9H6NO+
146.0608	554	C9H8NO+
160.0394	802	C9H6NO2+
161.043	132	C8[13]CH6NO2+
162.0546	580	C9H8NO2+
164.0702	141	C9H10NO2+
206.0453	999	C10H8NO4+
207.0464	105	C9[13]CH8NO4+
