Mass spectrum: Fenoxycarb; LC-ESI-QTOF; MS2; CE: 50 eV; R=35000; [M+H]+
Name: Fenoxycarb
Name: ethyl N-[2-(4-phenoxyphenoxy)ethyl]carbamate
Formula: C17H19NO4
Exact mass: 301.1314081
SMILES: CCOC(=O)NCCOC1=CC=C(OC2=CC=CC=C2)C=C1
InChI: InChI=1S/C17H19NO4/c1-2-20-17(19)18-12-13-21-14-8-10-16(11-9-14)22-15-6-4-3-5-7-15/h3-11H,2,12-13H2,1H3,(H,18,19)
Instrument: Bruker maXis Impact
Instrument type: LC-ESI-QTOF
Ms type: MS2
Ion mode: POSITIVE
Ionization: ESI
Fragmentation mode: CID
Collision energy: 50 eV
Resolution: 35000
Column name: Acclaim RSLC C18 2.2um, 2.1x100mm, Thermo
Retention time: 10.601 min
Base peak: 317.1642
Precursor m/z: 302.1387
Precursor type: [M+H]+
m/z	relative intensity	assigned
115.0539	654	C9H7+
117.0687	214	C9H9+
118.0414	124	C8H6O+
119.0486	108	C8H7O+
119.086	145	C9H11+
120.0566	114	C8H8O+
127.0516	56	C10H7+
128.0614	809	C10H8+
129.0685	719	C10H9+
131.0493	93	C9H7O+
132.0926	312	C10H12+
134.0341	148	C8H6O2+
139.054	134	C11H7+
141.0683	999	C11H9+
144.0547	66	C10H8O+
145.0636	165	C10H9O+
147.1161	400	C11H15+
152.0611	365	C12H8+
153.0679	132	C12H9+
154.0764	49	C12H10+
155.0589	165	C7H9NO3+
155.0822	81	C12H11+
157.0634	618	C11H9O+
158.071	332	C11H10O+
159.0794	44	C10[13]CH10O+
165.0685	530	C13H9+
166.0739	184	C13H10+
167.0823	64	C13H11+
168.0563	202	C12H8O+
169.0633	258	C12H9O+
170.0715	102	C12H10O+
176.0615	143	C14H8+
177.0687	73	C14H9+
181.0657	139	C13H9O+
183.0791	82	C13H11O+
185.0589	295	C12H9O2+
186.0663	929	C12H10O2+
187.0693	180	C11[13]CH10O2+
194.0689	43	C14H10O+
195.0804	67	C14H11O+
197.0615	108	C13H9O2+
198.064	68	C13H10O2+
213.0537	307	C13H9O3+
214.0571	61	C12[13]CH9O3+
