Mass spectrum: 2-Hydroxyatrazine; LC-ESI-QTOF; MS2; CE: 40 eV; R=35000; [M+H]+
Name: 2-Hydroxyatrazine
Name: CID 16553
Name: 2-(ethylamino)-6-(propan-2-ylamino)-1H-1,3,5-triazin-4-one
Formula: C8H15N5O
Exact mass: 197.1276601
SMILES: CCNC1=NC(O)=NC(NC(C)C)=N1
InChI: InChI=1S/C8H15N5O/c1-4-9-6-11-7(10-5(2)3)13-8(14)12-6/h5H,4H2,1-3H3,(H3,9,10,11,12,13,14)
Instrument: Bruker maXis Impact
Instrument type: LC-ESI-QTOF
Ms type: MS2
Ion mode: POSITIVE
Ionization: ESI
Fragmentation mode: CID
Collision energy: 40 eV
Resolution: 35000
Column name: Acclaim RSLC C18 2.2um, 2.1x100mm, Thermo
Retention time: 4.761 min
Base peak: 198.1344
Precursor m/z: 198.1349
Precursor type: [M+H]+
m/z	relative intensity	assigned
113.0818	27	C4H9N4+
114.0652	415	C4H8N3O+
128.0555	301	C3H6N5O+
128.08	52	C5H10N3O+
138.0763	75	C5H8N5+
139.0596	64	C5H7N4O+
141.0648	23	C4H7N5O+
156.0865	999	C5H10N5O+
157.0888	70	C4[13]CH10N5O+
198.1337	33	C8H16N5O+
