Mass spectrum: Fenpropimorph; LC-ESI-QTOF; MS2; CE: 40 eV; R=35000; [M+H]+
Name: Fenpropimorph
Name: (2S,6R)-4-[3-(4-tert-butylphenyl)-2-methylpropyl]-2,6-dimethylmorpholine
Formula: C20H33NO
Exact mass: 303.2562147
SMILES: CC(CN1C[C@H](C)O[C@H](C)C1)CC1=CC=C(C=C1)C(C)(C)C
InChI: InChI=1S/C20H33NO/c1-15(12-21-13-16(2)22-17(3)14-21)11-18-7-9-19(10-8-18)20(4,5)6/h7-10,15-17H,11-14H2,1-6H3/t15?,16-,17+
Instrument: Bruker maXis Impact
Instrument type: LC-ESI-QTOF
Ms type: MS2
Ion mode: POSITIVE
Ionization: ESI
Fragmentation mode: CID
Collision energy: 40 eV
Resolution: 35000
Column name: Acclaim RSLC C18 2.2um, 2.1x100mm, Thermo
Retention time: 10.208 min
Base peak: 304.2633
Precursor m/z: 304.2635
Precursor type: [M+H]+
m/z	relative intensity	assigned
115.0535	23	C9H7+
116.1062	10	C6H14NO+
117.0693	62	C9H9+
118.0726	8	C8[13]CH9+
119.0847	130	C9H11+
120.0881	11	C8[13]CH11+
130.1217	100	C7H16NO+
131.0845	17	C10H11+
131.1252	7	C6[13]CH16NO+
132.0923	250	C10H12+
133.0958	25	C9[13]CH12+
145.0998	12	C11H13+
146.1066	7	C11H14+
147.1158	999	C11H15+
148.1191	115	C10[13]CH15+
161.1311	29	C12H17+
189.1625	12	C14H21+
304.263	84	C20H34NO+
305.2663	18	C19[13]CH34NO+
