Mass spectrum: Dichlorvos; LC-ESI-QTOF; MS2; CE: 10 eV; R=35000; [M+H]+
Name: Dichlorvos
Name: 2,2-dichloroethenyl dimethyl phosphate
Formula: C4H7Cl2O4P
Exact mass: 219.9459007
SMILES: COP(=O)(OC)OC=C(Cl)Cl
InChI: InChI=1S/C4H7Cl2O4P/c1-8-11(7,9-2)10-3-4(5)6/h3H,1-2H3
Instrument: Bruker maXis Impact
Instrument type: LC-ESI-QTOF
Ms type: MS2
Ion mode: POSITIVE
Ionization: ESI
Fragmentation mode: CID
Collision energy: 10 eV
Resolution: 35000
Column name: Acclaim RSLC C18 2.2um, 2.1x100mm, Thermo
Retention time: 6.938 min
Base peak: 220.9525
Precursor m/z: 220.9532
Precursor type: [M+H]+
m/z	relative intensity	assigned
109.0048	5	C2H6O3P+
127.0143	12	C2H8O4P+
144.9802	46	C2H7ClO3P+
146.978	10	C2H7[37]ClO3P+
220.9527	999	C4H8Cl2O4P+
221.955	50	C3[13]CH8Cl2O4P+
222.9494	624	C4H8Cl[37]ClO4P+
