Mass spectrum: Simetryn; LC-ESI-QTOF; MS2; CE: 30 eV; R=35000; [M+H]+
Name: Simetryn
Name: 2-N,4-N-diethyl-6-methylsulfanyl-1,3,5-triazine-2,4-diamine
Formula: C8H15N5S
Exact mass: 213.1048165
SMILES: CCNC1=NC(SC)=NC(NCC)=N1
InChI: InChI=1S/C8H15N5S/c1-4-9-6-11-7(10-5-2)13-8(12-6)14-3/h4-5H2,1-3H3,(H2,9,10,11,12,13)
Instrument: Bruker maXis Impact
Instrument type: LC-ESI-QTOF
Ms type: MS2
Ion mode: POSITIVE
Ionization: ESI
Fragmentation mode: CID
Collision energy: 30 eV
Resolution: 35000
Column name: Acclaim RSLC C18 2.2um, 2.1x100mm, Thermo
Retention time: 8.107 min
Base peak: 214.1126
Precursor m/z: 214.1121
Precursor type: [M+H]+
m/z	relative intensity	assigned
116.027	192	C6H2N3+
117.0287	10	C5[13]CH2N3+
124.0862	806	C6H10N3+
125.0889	62	C5[13]CH10N3+
138.0764	105	C5H8N5+
139.0795	6	C4[13]CH8N5+
141.1123	22	C6H13N4+
144.0579	999	C5H10N3S+
145.0605	65	C4[13]CH10N3S+
146.0534	39	C5H10N3[34]S+
158.0479	33	C4H8N5S+
166.1075	408	C7H12N5+
167.1104	38	C6[13]CH12N5+
168.1227	9	C7H14N5+
170.0493	6	C5H8N5S+
171.0562	10	C5H9N5S+
184.0644	8	C6H10N5S+
186.0797	246	C6H12N5S+
187.0821	22	C5[13]CH12N5S+
188.0747	10	C6H12N5[34]S+
198.0795	8	C7H12N5S+
199.087	7	C7H13N5S+
212.096	13	C8H14N5S+
214.1115	848	C8H16N5S+
215.1137	90	C7[13]CH16N5S+
216.1078	36	C8H16N5[34]S+
