Mass spectrum: Metobromuron; LC-ESI-QTOF; MS2; CE: Ramp 16.5-24.7 eV; R=35000; [M+H]+
Name: Metobromuron
Name: 3-(4-bromophenyl)-1-methoxy-1-methylurea
Formula: C9H11BrN2O2
Exact mass: 258.0003897
SMILES: CON(C)C(=O)NC1=CC=C(Br)C=C1
InChI: InChI=1S/C9H11BrN2O2/c1-12(14-2)9(13)11-8-5-3-7(10)4-6-8/h3-6H,1-2H3,(H,11,13)
Instrument: Bruker maXis Impact
Instrument type: LC-ESI-QTOF
Ms type: MS2
Ion mode: POSITIVE
Ionization: ESI
Fragmentation mode: CID
Collision energy: Ramp 16.5-24.7 eV
Resolution: 35000
Column name: Acclaim RSLC C18 2.2um, 2.1x100mm, Thermo
Retention time: 8.281 min
Base peak: 214.1112
Precursor m/z: 259.0077
Precursor type: [M+H]+
m/z	relative intensity	assigned
60.044	48	C2H6NO+
62.0597	112	C2H8NO+
91.0422	6	C6H5N+
106.0502	6	C6H6N2+
119.0599	38	C7H7N2+
120.0638	5	C6[13]CH7N2+
131.0607	5	C8H7N2+
142.9479	14	BrH4N2O2+
144.9453	13	H4[81]BrN2O2+
147.0542	46	C8H7N2O+
148.0622	859	C8H8N2O+
149.0665	50	C7[13]CH8N2O+
169.9592	999	C6H5BrN+
170.9664	255	C6H6BrN+
171.9573	692	C6H5[81]BrN+
172.9644	232	C6H6[81]BrN+
173.9686	9	C6H7BrO+
184.9835	6	C7H8BrN+
186.981	5	C7H8[81]BrN+
197.9536	12	C7H5BrNO+
199.9517	11	C7H5[81]BrNO+
226.9803	57	C8H8BrN2O+
227.9882	45	C8H9BrN2O+
228.9787	47	C8H8[81]BrN2O+
229.9872	29	C8H9[81]BrN2O+
259.0073	317	C9H12BrN2O2+
260.0108	27	C8[13]CH12BrN2O2+
261.0058	223	C9H12[81]BrN2O2+
