Mass spectrum: Metazachlor BH 479-9; LC-ESI-QTOF; MS2; CE: 50 eV; R=35000; [M+H]+
Name: Metazachlor BH 479-9
Formula: C16H19N3O4S
Exact mass: 349.1096271
SMILES: CC1=CC=CC(C)=C1N(CN1C=CC=N1)C(=O)CS(=O)CC(O)=O
InChI: InChI=1S/C16H19N3O4S/c1-12-5-3-6-13(2)16(12)19(11-18-8-4-7-17-18)14(20)9-24(23)10-15(21)22/h3-8H,9-11H2,1-2H3,(H,21,22)
Instrument: Bruker maXis Impact
Instrument type: LC-ESI-QTOF
Ms type: MS2
Ion mode: POSITIVE
Ionization: ESI
Fragmentation mode: CID
Collision energy: 50 eV
Resolution: 35000
Column name: Acclaim RSLC C18 2.2um, 2.1x100mm, Thermo
Retention time: 4.918 min
Base peak: 350.1162
Precursor m/z: 350.1169
Precursor type: [M+H]+
m/z	relative intensity	assigned
117.0559	6	H11N3O2S+
118.0642	6	H12N3O2S+
119.0729	8	C8H9N+
130.9785	5	C2HN3O2S+
132.0793	44	CH14N3O2S+
133.0861	15	C6H13O3+
134.0951	999	C9H12N+
135.0984	124	C8[13]CH12N+
136.1027	5	C7[13]C2H12N+
148.9892	5	C2H3N3O3S+
156.079	14	C8H12O3+
160.0739	9	C7H12O4+
175.0984	7	C3H17N3O3S+
