Mass spectrum: Bisoprolol; LC-ESI-QTOF; MS2; CE: 20 eV; R=35000; [M+H]+
Name: Bisoprolol
Name: 1-(propan-2-ylamino)-3-[4-(2-propan-2-yloxyethoxymethyl)phenoxy]propan-2-ol
Formula: C18H31NO4
Exact mass: 325.2253085
SMILES: CC(C)NCC(O)COC1=CC=C(COCCOC(C)C)C=C1
InChI: InChI=1S/C18H31NO4/c1-14(2)19-11-17(20)13-23-18-7-5-16(6-8-18)12-21-9-10-22-15(3)4/h5-8,14-15,17,19-20H,9-13H2,1-4H3
Instrument: Bruker maXis Impact
Instrument type: LC-ESI-QTOF
Ms type: MS2
Ion mode: POSITIVE
Ionization: ESI
Fragmentation mode: CID
Collision energy: 20 eV
Resolution: 35000
Column name: Acclaim RSLC C18 2.2um, 2.1x100mm, Thermo
Retention time: 5.740 min
Base peak: 326.2332
Precursor m/z: 326.2326
Precursor type: [M+H]+
m/z	relative intensity	assigned
116.1067	208	C6H14NO+
117.1097	15	C5[13]CH14NO+
145.0639	7	C10H9O+
147.0792	14	C10H11O+
162.09	11	C7H14O4+
163.0742	5	C10H11O2+
180.1008	6	C10H14NO2+
204.1375	25	C13H18NO+
222.1481	27	C13H20NO2+
308.2213	7	C18H30NO3+
326.2331	999	C18H32NO4+
327.236	207	C17[13]CH32NO4+
328.2381	19	C16[13]C2H32NO4+
