Mass spectrum: Mycophenolic acid; LC-ESI-QTOF; MS2; CE: 20 eV; R=35000; [M+H]+
Name: Mycophenolic acid
Name: (E)-6-(4-hydroxy-6-methoxy-7-methyl-3-oxo-1H-2-benzofuran-5-yl)-4-methylhex-4-enoic acid
Formula: C17H20O6
Exact mass: 320.1259884
SMILES: COC1=C(C)C2=C(C(=O)OC2)C(O)=C1C\C=C(/C)CCC(O)=O
InChI: InChI=1S/C17H20O6/c1-9(5-7-13(18)19)4-6-11-15(20)14-12(8-23-17(14)21)10(2)16(11)22-3/h4,20H,5-8H2,1-3H3,(H,18,19)/b9-4+
Instrument: Bruker maXis Impact
Instrument type: LC-ESI-QTOF
Ms type: MS2
Ion mode: POSITIVE
Ionization: ESI
Fragmentation mode: CID
Collision energy: 20 eV
Resolution: 35000
Column name: Acclaim RSLC C18 2.2um, 2.1x100mm, Thermo
Retention time: 8.779 min
Base peak: 306.0812
Precursor m/z: 321.1333
Precursor type: [M+H]+
m/z	relative intensity	assigned
159.0435	17	C10H7O2+
177.0545	20	C10H9O3+
195.0645	47	C10H11O4+
196.0687	6	C9[13]CH11O4+
207.0645	999	C11H11O4+
208.0679	132	C10[13]CH11O4+
219.0654	8	C12H11O4+
223.0572	7	C11H11O5+
259.0973	8	C15H15O4+
261.1127	7	C15H17O4+
275.1277	119	C16H19O4+
276.1302	28	C15[13]CH19O4+
285.1108	36	C17H17O4+
286.1152	9	C16[13]CH17O4+
303.1221	66	C17H19O5+
304.1252	18	C16[13]CH19O5+
321.1342	75	C17H21O6+
322.1361	17	C16[13]CH21O6+
