Mass spectrum: Methomyl; LC-ESI-QTOF; MS2; CE: Ramp 16.7-25.0 eV; R=35000; [M+H]+
Name: Methomyl
Name: Lannate
Name: methyl (1E)-N-(methylcarbamoyloxy)ethanimidothioate
Formula: C5H10N2O2S
Exact mass: 162.0462986
SMILES: CNC(=O)O\N=C(/C)SC
InChI: InChI=1S/C5H10N2O2S/c1-4(10-3)7-9-5(8)6-2/h1-3H3,(H,6,8)/b7-4+
Instrument: Bruker maXis Impact
Instrument type: LC-ESI-QTOF
Ms type: MS2
Ion mode: POSITIVE
Ionization: ESI
Fragmentation mode: CID
Collision energy: Ramp 16.7-25.0 eV
Resolution: 35000
Column name: Acclaim RSLC C18 2.2um, 2.1x100mm, Thermo
Retention time: 4.106 min
Base peak: 88.0216
Precursor m/z: 163.0536
Precursor type: [M+H]+
m/z	relative intensity	assigned
44.9797	48	CHS+
46.9947	79	CH3S+
56.049	155	C3H6N+
58.0281	326	C2H4NO+
59.032	6	C[13]CH4NO+
61.01	88	C2H5S+
65.0048	70	CH5OS+
71.9896	11	C2H2NS+
72.9977	261	C2H3NS+
74.9934	13	C2H3N[34]S+
88.0215	999	C3H6NS+
89.0244	30	C2[13]CH6NS+
90.0174	26	C3H6N[34]S+
106.0333	190	C3H8NOS+
107.0349	7	C2[13]CH8NOS+
108.0285	10	C3H8NO[34]S+
