Mass spectrum: Crotamiton; LC-ESI-QTOF; MS2; CE: 30 eV; R=35000; [M+H]+
Name: Crotamiton
Name: (E)-N-ethyl-N-(2-methylphenyl)but-2-enamide
Formula: C13H17NO
Exact mass: 203.1310142
SMILES: CCN(C(=O)\C=C\C)C1=CC=CC=C1C
InChI: InChI=1S/C13H17NO/c1-4-8-13(15)14(5-2)12-10-7-6-9-11(12)3/h4,6-10H,5H2,1-3H3/b8-4+
Instrument: Bruker maXis Impact
Instrument type: LC-ESI-QTOF
Ms type: MS2
Ion mode: POSITIVE
Ionization: ESI
Fragmentation mode: CID
Collision energy: 30 eV
Resolution: 35000
Column name: Acclaim RSLC C18 2.2um, 2.1x100mm, Thermo
Retention time: 9.271 min
Base peak: 204.1381
Precursor m/z: 204.1383
Precursor type: [M+H]+
m/z	relative intensity	assigned
106.0653	5	C7H8N+
115.0539	12	C9H7+
116.0481	30	C8H6N+
117.0561	34	C8H7N+
117.0678	15	C9H9+
118.0638	47	C8H8N+
119.036	6	C7H5NO+
119.0717	20	C8H9N+
119.0842	10	C9H11+
120.0799	29	C8H10N+
121.0875	232	C8H11N+
122.0915	20	C7[13]CH11N+
128.0483	6	C9H6N+
129.0682	11	C10H9+
130.0642	55	C9H8N+
131.0697	9	C9H9N+
131.084	9	C10H11+
132.0432	55	C8H6NO+
132.0792	37	C9H10N+
133.0504	9	C8H7NO+
133.0864	11	C9H11N+
134.0591	603	C8H8NO+
134.0953	303	C9H12N+
135.062	58	C7[13]CH8NO+
135.0988	37	C8[13]CH12N+
136.1113	999	C9H14N+
137.1143	110	C8[13]CH14N+
138.1175	7	C7[13]C2H14N+
142.0637	5	C10H8N+
143.072	84	C10H9N+
144.0778	21	C10H10N+
146.059	28	C9H8NO+
146.0953	31	C10H12N+
147.065	7	C9H9NO+
148.1109	14	C10H14N+
156.0788	20	C11H10N+
157.0861	13	C11H11N+
158.0952	278	C11H12N+
159.0984	35	C10[13]CH12N+
160.0741	42	C10H10NO+
161.0815	31	C10H11NO+
162.0897	44	C10H12NO+
162.1257	6	C11H16N+
170.0944	7	C12H12N+
171.1036	12	C12H13N+
174.0903	35	C11H12NO+
175.0967	11	C11H13NO+
176.1061	28	C11H14NO+
176.1424	15	C12H18N+
177.1093	5	C10[13]CH14NO+
186.1261	21	C13H16N+
204.1374	250	C13H18NO+
205.1411	35	C12[13]CH18NO+
