Mass spectrum: Trimethoprim; LC-ESI-QTOF; MS2; CE: 10 eV; R=35000; [M+H]+
Name: Trimethoprim
Name: 5-[(3,4,5-trimethoxyphenyl)methyl]pyrimidine-2,4-diamine
Formula: C14H18N4O3
Exact mass: 290.1378904
SMILES: COC1=CC(CC2=C(N)N=C(N)N=C2)=CC(OC)=C1OC
InChI: InChI=1S/C14H18N4O3/c1-19-10-5-8(6-11(20-2)12(10)21-3)4-9-7-17-14(16)18-13(9)15/h5-7H,4H2,1-3H3,(H4,15,16,17,18)
Instrument: Bruker maXis Impact
Instrument type: LC-ESI-QTOF
Ms type: MS2
Ion mode: POSITIVE
Ionization: ESI
Fragmentation mode: CID
Collision energy: 10 eV
Resolution: 35000
Column name: Acclaim RSLC C18 2.2um, 2.1x100mm, Thermo
Retention time: 3.927 min
Base peak: 291.1447
Precursor m/z: 291.1452
Precursor type: [M+H]+
m/z	relative intensity	assigned
291.1454	999	C14H19N4O3+
292.1479	172	C13[13]CH19N4O3+
293.1499	14	C12[13]C2H19N4O3+
