Mass spectrum: Ethyl azinphos; LC-ESI-QTOF; MS2; CE: Ramp 22.5-33.8 eV; R=35000; [M+H]+
Name: Ethyl azinphos
Name: Azinphos-ethyl
Name: 3-(diethoxyphosphinothioylsulfanylmethyl)-1,2,3-benzotriazin-4-one
Formula: C12H16N3O3PS2
Exact mass: 345.0370700
SMILES: CCOP(=S)(OCC)SCN1N=NC2=CC=CC=C2C1=O
InChI: InChI=1S/C12H16N3O3PS2/c1-3-17-19(20,18-4-2)21-9-15-12(16)10-7-5-6-8-11(10)13-14-15/h5-8H,3-4,9H2,1-2H3
Instrument: Bruker maXis Impact
Instrument type: LC-ESI-QTOF
Ms type: MS2
Ion mode: POSITIVE
Ionization: ESI
Fragmentation mode: CID
Collision energy: Ramp 22.5-33.8 eV
Resolution: 35000
Column name: Acclaim RSLC C18 2.2um, 2.1x100mm, Thermo
Retention time: 10.257 min
Base peak: 346.0439
Precursor m/z: 346.0443
Precursor type: [M+H]+
m/z	relative intensity	assigned
53.0379	33	C4H5+
77.0378	24	C6H5+
95.0493	50	C2H10NOP+
104.0498	94	C3H9N2P+
105.0342	76	C5H3N3+
105.0444	57	C6H5N2+
106.0365	5	C4[13]CH3N3+
106.0479	5	C5[13]CH5N2+
114.9605	121	H4O3PS+
116.9559	5	H4O3P[34]S+
120.0432	56	C7H6NO+
124.9813	11	H4N3OPS+
130.0382	18	H9N3O3P+
132.0435	999	H10N3O3S+
133.0463	101	CH13N2OS2+
134.0488	7	H10N3O2[18]OS+
137.0038	200	C5H3N3S+
138.0069	15	C4[13]CH3N3S+
138.9996	6	C5H3N3[34]S+
142.9367	109	CH4O2PS2+
144.933	8	CH4O2PS[34]S+
148.0196	15	CH11NO3PS+
150.0532	394	C9H10S+
151.0557	47	C8[13]CH10S+
152.9994	13	C5H3N3OS+
153.0133	8	C4H10O2PS+
160.0487	126	C7H13PS+
161.0513	9	C6[13]CH13PS+
164.0681	8	C7H16S2+
166.0311	8	H12N3O3S2+
170.9683	24	CH6N3OPS2+
171.0219	33	C6H7N2O2S+
198.0128	10	C4H10N2O3S2+
199.0016	5	C9HN3O3+
214.9377	7	C5H2N3OPS2+
216.9686	9	C8N3O3P+
232.9471	119	C9HN2O2S2+
233.9489	12	C8[13]CHN2O2S2+
234.9434	11	C9HN2O2S[34]S+
240.0614	6	C11H15NOPS+
245.9798	9	C12H6O2S2+
247.0114	6	C12H9NOS2+
259.0127	5	C9H12N2OPS2+
260.9789	14	C7H8N3O2PS2+
263.0067	5	C12H9NO2S2+
288.0256	17	C11H15NO2PS2+
299.0589	6	C12H16N2O3PS+
