Mass spectrum: Metazachlor BH 479-11; LC-ESI-QTOF; MS2; CE: 40 eV; R=35000; [M+H]+
Name: Metazachlor BH 479-11
Name: Metazachlor metabolite M11
Name: N-(2,6-dimethylphenyl)-2-methylsulfinyl-N-(pyrazol-1-ylmethyl)acetamide
Formula: C15H19N3O2S
Exact mass: 305.1197978
SMILES: CC1=CC=CC(C)=C1N(CN1C=CC=N1)C(=O)CS(C)=O
InChI: InChI=1S/C15H19N3O2S/c1-12-6-4-7-13(2)15(12)18(14(19)10-21(3)20)11-17-9-5-8-16-17/h4-9H,10-11H2,1-3H3
Instrument: Bruker maXis Impact
Instrument type: LC-ESI-QTOF
Ms type: MS2
Ion mode: POSITIVE
Ionization: ESI
Fragmentation mode: CID
Collision energy: 40 eV
Resolution: 35000
Column name: Acclaim RSLC C18 2.2um, 2.1x100mm, Thermo
Retention time: 5.546 min
Base peak: 306.1268
Precursor m/z: 306.1271
Precursor type: [M+H]+
m/z	relative intensity	assigned
132.0794	28	CH14N3O2S+
133.0866	13	CH15N3O2S+
134.0953	999	C9H12N+
135.0986	99	C8[13]CH12N+
156.0792	8	C3H14N3O2S+
160.0739	10	C10H10NO+
175.0975	18	C11H13NO+
