Mass spectrum: Thiophanate-methyl; LC-ESI-QTOF; MS2; CE: 50 eV; R=35000; [M+H]+
Name: Thiophanate-methyl
Name: CID 3085
Name: N`-methoxycarbonyl-N-[2-[(N-methoxycarbonyl-C-sulfanylcarbonimidoyl)amino]phenyl]carbamimidothioic acid
Formula: C12H14N4O4S2
Exact mass: 342.0456469
SMILES: COC(=O)NC(=S)NC1=CC=CC=C1NC(=S)NC(=O)OC
InChI: InChI=1S/C12H14N4O4S2/c1-19-11(17)15-9(21)13-7-5-3-4-6-8(7)14-10(22)16-12(18)20-2/h3-6H,1-2H3,(H2,13,15,17,21)(H2,14,16,18,22)
Instrument: Bruker maXis Impact
Instrument type: LC-ESI-QTOF
Ms type: MS2
Ion mode: POSITIVE
Ionization: ESI
Fragmentation mode: CID
Collision energy: 50 eV
Resolution: 35000
Column name: Acclaim RSLC C18 2.2um, 2.1x100mm, Thermo
Retention time: 6.912 min
Base peak: 343.0527
Precursor m/z: 343.0529
Precursor type: [M+H]+
m/z	relative intensity	assigned
118.0516	107	C7H6N2+
119.059	38	C4H9NO3+
122.0054	16	C6H4NS+
132.0547	21	C7H6N3+
133.062	5	C4H9N2O3+
134.0051	5	C7H4NS+
134.0703	11	C7H8N3+
135.0122	9	C4H7O3S+
135.0542	11	C7H7N2O+
149.0154	103	C4H7NO3S+
150.0219	18	C4H8NO3S+
151.0314	999	C7H7N2S+
152.0338	84	C6[13]CH7N2S+
153.0271	43	C7H7N2[34]S+
160.0492	153	C8H6N3O+
161.0525	17	C7[13]CH6N3O+
175.0187	12	C8H5N3S+
176.0251	5	C5H8N2O3S+
177.0107	11	H9N4O3S2+
192.987	18	C5H7NO3S2+
202.0068	5	C9H4N3OS+
