Mass spectrum: Ametryn; LC-ESI-QTOF; MS2; CE: 30 eV; R=35000; [M+H]+
Name: Ametryn
Name: 4-N-ethyl-6-methylsulfanyl-2-N-propan-2-yl-1,3,5-triazine-2,4-diamine
Formula: C9H17N5S
Exact mass: 227.1204665
SMILES: CCNC1=NC(SC)=NC(NC(C)C)=N1
InChI: InChI=1S/C9H17N5S/c1-5-10-7-12-8(11-6(2)3)14-9(13-7)15-4/h6H,5H2,1-4H3,(H2,10,11,12,13,14)
Instrument: Bruker maXis Impact
Instrument type: LC-ESI-QTOF
Ms type: MS2
Ion mode: POSITIVE
Ionization: ESI
Fragmentation mode: CID
Collision energy: 30 eV
Resolution: 35000
Column name: Acclaim RSLC C18 2.2um, 2.1x100mm, Thermo
Retention time: 9.161 min
Base peak: 228.1289
Precursor m/z: 228.1277
Precursor type: [M+H]+
m/z	relative intensity	assigned
116.0271	39	C3H6N3S+
138.0766	129	C5H8N5+
138.1019	7	C7H12N3+
139.079	6	C4[13]CH8N5+
144.0581	110	C8H6N3+
145.0601	6	C7[13]CH6N3+
158.0485	115	C7H4N5+
159.0502	5	C6[13]CH4N5+
180.1232	6	C8H14N5+
186.0802	999	C6H12N5S+
187.0822	66	C5[13]CH12N5S+
188.0758	32	C6H12N5[34]S+
228.1273	86	C9H18N5S+
229.1291	10	C8[13]CH18N5S+
