Mass spectrum: Chlorpropham; LC-ESI-QTOF; MS2; CE: 50 eV; R=35000; [M+H]+
Name: Chlorpropham
Name: propan-2-yl N-(3-chlorophenyl)carbamate
Formula: C10H12ClNO2
Exact mass: 213.0556563
SMILES: CC(C)OC(=O)NC1=CC(Cl)=CC=C1
InChI: InChI=1S/C10H12ClNO2/c1-7(2)14-10(13)12-9-5-3-4-8(11)6-9/h3-7H,1-2H3,(H,12,13)
Instrument: Bruker maXis Impact
Instrument type: LC-ESI-QTOF
Ms type: MS2
Ion mode: POSITIVE
Ionization: ESI
Fragmentation mode: CID
Collision energy: 50 eV
Resolution: 35000
Column name: Acclaim RSLC C18 2.2um, 2.1x100mm, Thermo
Retention time: 9.773 min
Base peak: 172.0148
Precursor m/z: 214.0629
Precursor type: [M+H]+
m/z	relative intensity	assigned
126.0099	999	C9H2O+
