Mass spectrum: 10,11-Dihydro-10,11-dihydroxycarbamazepine; LC-ESI-QTOF; MS2; CE: Ramp 20.6-30.8 eV; R=35000; [M+H]+
Name: 10,11-Dihydro-10,11-dihydroxycarbamazepine
Name: Carbazepine 10,11-diol
Name: 5,6-dihydroxy-5,6-dihydrobenzo[b][1]benzazepine-11-carboxamide
Formula: C15H14N2O3
Exact mass: 270.1004423
SMILES: NC(=O)N1C2=CC=CC=C2C(O)C(O)C2=CC=CC=C12
InChI: InChI=1S/C15H14N2O3/c16-15(20)17-11-7-3-1-5-9(11)13(18)14(19)10-6-2-4-8-12(10)17/h1-8,13-14,18-19H,(H2,16,20)
Instrument: Bruker maXis Impact
Instrument type: LC-ESI-QTOF
Ms type: MS2
Ion mode: POSITIVE
Ionization: ESI
Fragmentation mode: CID
Collision energy: Ramp 20.6-30.8 eV
Resolution: 35000
Column name: Acclaim RSLC C18 2.2um, 2.1x100mm, Thermo
Retention time: 5.721 min
Base peak: 326.2332
Precursor m/z: 271.1077
Precursor type: [M+H]+
m/z	relative intensity	assigned
165.0679	5	C13H9+
167.0712	12	C9H11O3+
180.0797	999	C13H10N+
181.0843	137	C12[13]CH10N+
182.0952	239	C10H14O3+
183.0981	26	C9[13]CH14O3+
193.0856	6	C11H13O3+
208.0743	31	C14H10NO+
209.08	5	C13[13]CH10NO+
210.0908	438	C14H12NO+
211.0937	58	C13[13]CH12NO+
212.0966	7	C12[13]C2H12NO+
236.0701	11	C15H10NO2+
253.0943	6	C15H13N2O2+
254.0801	126	C15H12NO3+
255.0845	19	C14[13]CH12NO3+
