Mass spectrum: Metazachlor BH 479-9; LC-ESI-QTOF; MS2; CE: 10 eV; R=35000; [M+H]+
Name: Metazachlor BH 479-9
Formula: C16H19N3O4S
Exact mass: 349.1096271
SMILES: CC1=CC=CC(C)=C1N(CN1C=CC=N1)C(=O)CS(=O)CC(O)=O
InChI: InChI=1S/C16H19N3O4S/c1-12-5-3-6-13(2)16(12)19(11-18-8-4-7-17-18)14(20)9-24(23)10-15(21)22/h3-8H,9-11H2,1-2H3,(H,21,22)
Instrument: Bruker maXis Impact
Instrument type: LC-ESI-QTOF
Ms type: MS2
Ion mode: POSITIVE
Ionization: ESI
Fragmentation mode: CID
Collision energy: 10 eV
Resolution: 35000
Column name: Acclaim RSLC C18 2.2um, 2.1x100mm, Thermo
Retention time: 4.936 min
Base peak: 350.1161
Precursor m/z: 350.1169
Precursor type: [M+H]+
m/z	relative intensity	assigned
134.0954	352	C6H14O3+
135.0985	35	C5[13]CH14O3+
238.089	6	C12H16NO2S+
264.0672	25	C13H14NO3S+
282.0793	999	C13H16NO4S+
283.0823	153	C12[13]CH16NO4S+
284.0764	50	C13H16NO4[34]S+
285.0814	5	C16H15NO2S+
300.0885	7	C16H16N2O2S+
332.1059	10	C16H18N3O3S+
350.1167	373	C16H20N3O4S+
351.1195	76	C15[13]CH20N3O4S+
352.116	21	C16H20N3O4[34]S+
