Mass spectrum: Oxazepam; LC-ESI-QTOF; MS2; CE: 40 eV; R=35000; [M+H]+
Name: Oxazepam
Name: 7-chloro-3-hydroxy-5-phenyl-1,3-dihydro-1,4-benzodiazepin-2-one
Formula: C15H11ClN2O2
Exact mass: 286.0509053
SMILES: OC1N=C(C2=CC=CC=C2)C2=C(NC1=O)C=CC(Cl)=C2
InChI: InChI=1S/C15H11ClN2O2/c16-10-6-7-12-11(8-10)13(9-4-2-1-3-5-9)18-15(20)14(19)17-12/h1-8,15,20H,(H,17,19)
Instrument: Bruker maXis Impact
Instrument type: LC-ESI-QTOF
Ms type: MS2
Ion mode: POSITIVE
Ionization: ESI
Fragmentation mode: CID
Collision energy: 40 eV
Resolution: 35000
Column name: Acclaim RSLC C18 2.2um, 2.1x100mm, Thermo
Retention time: 8.376 min
Base peak: 287.0579
Precursor m/z: 287.0582
Precursor type: [M+H]+
m/z	relative intensity	assigned
118.0518	44	C7H6N2+
126.0092	17	C9H2O+
128.0252	89	C6H7ClN+
129.0459	14	C7H10Cl+
129.0721	11	C10H9+
130.0232	33	C6H7[37]ClN+
138.0093	52	C10H2O+
141.0718	12	C11H9+
152.06	17	C7H8N2O2+
153.0205	207	C7H6ClN2+
154.0255	19	C6[13]CH6ClN2+
155.0182	41	C7H6[37]ClN2+
155.0868	33	C12H11+
163.005	224	C8H4ClN2+
164.0052	47	C9H5ClO+
165.0021	63	C8H4[37]ClN2+
165.0684	15	C13H9+
166.0031	48	C8H5ClNO+
167.0837	12	C13H11+
168.0016	12	C8H5[37]ClNO+
168.0933	16	C13H12+
178.0659	25	C13H8N+
179.0737	18	C13H9N+
180.0798	11	C13H10N+
181.0159	60	C8H6ClN2O+
182.0181	11	C15H2+
183.0126	25	C8H6[37]ClN2O+
195.092	58	C13H11N2+
199.0289	16	C14H3N2+
205.0763	32	C14H9N2+
206.0833	21	C14H10N2+
207.0668	28	C14H9NO+
214.0418	39	C13H9ClN+
216.0406	17	C13H9[37]ClN+
229.0523	70	C13H10ClN2+
230.0563	13	C12[13]CH10ClN2+
231.0679	132	C13H12ClN2+
232.0736	29	C12[13]CH12ClN2+
233.0648	33	C13H12[37]ClN2+
239.0368	12	C14H8ClN2+
241.0523	999	C14H10ClN2+
242.0563	192	C13[13]CH10ClN2+
243.0494	304	C14H10[37]ClN2+
244.0535	30	C14H11ClNO+
257.048	61	C14H10ClN2O+
258.0531	13	C13[13]CH10ClN2O+
259.0471	19	C14H10[37]ClN2O+
269.0503	20	C15H10ClN2O+
