Mass spectrum: Oxadiazone; LC-ESI-QTOF; MS2; CE: Ramp 22.5-33.8 eV; R=35000; [M+H]+
Name: Oxadiazone
Name: Oxadiazon
Name: 5-tert-butyl-3-(2,4-dichloro-5-propan-2-yloxyphenyl)-1,3,4-oxadiazol-2-one
Formula: C15H18Cl2N2O3
Exact mass: 344.0694478
SMILES: CC(C)OC1=CC(N2N=C(OC2=O)C(C)(C)C)=C(Cl)C=C1Cl
InChI: InChI=1S/C15H18Cl2N2O3/c1-8(2)21-12-7-11(9(16)6-10(12)17)19-14(20)22-13(18-19)15(3,4)5/h6-8H,1-5H3
Instrument: Bruker maXis Impact
Instrument type: LC-ESI-QTOF
Ms type: MS2
Ion mode: POSITIVE
Ionization: ESI
Fragmentation mode: CID
Collision energy: Ramp 22.5-33.8 eV
Resolution: 35000
Column name: Acclaim RSLC C18 2.2um, 2.1x100mm, Thermo
Retention time: 12.389 min
Base peak: 362.1032
Precursor m/z: 345.0767
Precursor type: [M+H]+
m/z	relative intensity	assigned
57.0696	48	C4H9+
140.9719	12	C6H2ClO2+
147.9705	19	C8HClO+
148.9554	17	C5H3Cl2O+
155.9842	26	C9O3+
173.9485	19	C6H2Cl2NO+
175.9478	19	C6H2Cl[37]ClNO+
175.9652	35	C9HClO2+
176.9498	530	C6H3Cl2O2+
177.9543	33	C5[13]CH3Cl2O2+
178.9467	268	C6H3Cl[37]ClO2+
179.952	15	C9H2Cl2+
180.9431	9	C5H3Cl2O3+
182.9943	18	C10HNO3+
183.9782	157	C7H3ClNO3+
184.0037	13	C7H5ClN2O2+
184.9868	653	C7H4ClNO3+
185.9754	25	C7H3[37]ClNO3+
185.9878	46	C6[13]CH4ClNO3+
186.9841	126	C7H4[37]ClNO3+
187.9849	10	C4H8Cl2NO3+
191.9588	9	C9HClO3+
195.0665	9	C4H17Cl2N2O2+
201.9458	50	C7H2Cl2NO2+
202.9505	15	C7H3Cl2NO2+
202.978	8	C7H5Cl2N2O+
203.9422	36	C7H2Cl[37]ClNO2+
204.9506	8	C7H3Cl[37]ClNO2+
218.9708	24	C10H2ClNO3+
219.956	999	C7H4Cl2NO3+
220.9594	76	C6[13]CH4Cl2NO3+
221.9528	496	C7H4Cl[37]ClNO3+
222.956	43	C13ClO2+
223.0625	45	C14H9NO2+
225.0424	76	C15H10Cl+
226.0431	15	C14H9ClN+
227.022	14	C9H8ClN2O3+
227.0429	14	C15H10[37]Cl+
237.0792	33	C12H14ClN2O+
238.0755	8	C13H15ClO2+
239.0759	9	C12H14[37]ClN2O+
259.0423	10	C11H13Cl2N2O+
261.0363	8	C11H13Cl[37]ClN2O+
265.0176	9	C14H11Cl2O+
267.0011	11	C13H9Cl2O2+
281.0507	55	C15H15Cl2O+
282.0559	10	C14[13]CH15Cl2O+
283.0296	63	C15H8ClN2O2+
284.0334	18	C15H9ClN2O2+
285.0283	14	C15H8[37]ClN2O2+
297.0822	35	C11H19Cl2N2O3+
298.0856	8	C10[13]CH19Cl2N2O3+
299.0614	955	C15H17Cl2O2+
300.0618	201	C14[13]CH17Cl2O2+
301.0599	108	C14H17Cl2NO2+
303.0295	303	C12H13Cl2N2O3+
304.0338	36	C11[13]CH13Cl2N2O3+
305.0281	170	C12H13Cl[37]ClN2O3+
306.0306	16	C15H12Cl2N2O+
345.0778	71	C15H19Cl2N2O3+
346.0813	14	C14[13]CH19Cl2N2O3+
347.0755	37	C15H19Cl[37]ClN2O3+
