Mass spectrum: Metolachlor CGA 357704; LC-ESI-QTOF; MS2; CE: Ramp 20.9-31.3 eV; R=35000; [M+H]+
Name: Metolachlor CGA 357704
Formula: C14H17NO5
Exact mass: 279.1106726
SMILES: CCC1=CC=CC(C)=C1N(C(C)C(O)=O)C(=O)C(O)=O
InChI: InChI=1S/C14H17NO5/c1-4-10-7-5-6-8(2)11(10)15(9(3)13(17)18)12(16)14(19)20/h5-7,9H,4H2,1-3H3,(H,17,18)(H,19,20)
Instrument: Bruker maXis Impact
Instrument type: LC-ESI-QTOF
Ms type: MS2
Ion mode: POSITIVE
Ionization: ESI
Fragmentation mode: CID
Collision energy: Ramp 20.9-31.3 eV
Resolution: 35000
Column name: Acclaim RSLC C18 2.2um, 2.1x100mm, Thermo
Retention time: 6.837 min
Base peak: 102.1286
Precursor m/z: 280.1179
Precursor type: [M+H]+
m/z	relative intensity	assigned
134.0947	999	C6H14O3+
146.0931	419	C7H14O3+
149.0214	719	C8H5O3+
160.1109	526	C11H14N+
162.1267	867	C11H16N+
188.1058	513	C12H14NO+
234.1098	476	C13H16NO3+
