Mass spectrum: Metazachlor BH 479-11; LC-ESI-QTOF; MS2; CE: Ramp 21.7-32.6 eV; R=35000; [M+H]+
Name: Metazachlor BH 479-11
Name: Metazachlor metabolite M11
Name: N-(2,6-dimethylphenyl)-2-methylsulfinyl-N-(pyrazol-1-ylmethyl)acetamide
Formula: C15H19N3O2S
Exact mass: 305.1197978
SMILES: CC1=CC=CC(C)=C1N(CN1C=CC=N1)C(=O)CS(C)=O
InChI: InChI=1S/C15H19N3O2S/c1-12-6-4-7-13(2)15(12)18(14(19)10-21(3)20)11-17-9-5-8-16-17/h4-9H,10-11H2,1-3H3
Instrument: Bruker maXis Impact
Instrument type: LC-ESI-QTOF
Ms type: MS2
Ion mode: POSITIVE
Ionization: ESI
Fragmentation mode: CID
Collision energy: Ramp 21.7-32.6 eV
Resolution: 35000
Column name: Acclaim RSLC C18 2.2um, 2.1x100mm, Thermo
Retention time: 5.540 min
Base peak: 306.1272
Precursor m/z: 306.1271
Precursor type: [M+H]+
m/z	relative intensity	assigned
61.0101	52	C2H5S+
62.9893	45	CH3OS+
77.0052	28	C2H5OS+
105.0016	467	C3H5O2S+
106.0047	12	C2[13]CH5O2S+
106.9976	10	C3H5O2[34]S+
132.0796	6	CH14N3O2S+
133.088	10	CH15N3O2S+
134.0961	999	C9H12N+
135.0991	114	C8[13]CH12N+
146.0957	5	C2H16N3O2S+
175.0983	30	C11H13NO+
238.0892	64	C12H16NO2S+
239.0925	9	C11[13]CH16NO2S+
