Mass spectrum: Bendiocarb; LC-ESI-QTOF; MS2; CE: 40 eV; R=35000; [M+H]+
Name: Bendiocarb
Name: (2,2-dimethyl-1,3-benzodioxol-4-yl) N-methylcarbamate
Formula: C11H13NO4
Exact mass: 223.0844579
SMILES: CNC(=O)OC1=CC=CC2=C1OC(C)(C)O2
InChI: InChI=1S/C11H13NO4/c1-11(2)15-8-6-4-5-7(9(8)16-11)14-10(13)12-3/h4-6H,1-3H3,(H,12,13)
Instrument: Bruker maXis Impact
Instrument type: LC-ESI-QTOF
Ms type: MS2
Ion mode: POSITIVE
Ionization: ESI
Fragmentation mode: CID
Collision energy: 40 eV
Resolution: 35000
Column name: Acclaim RSLC C18 2.2um, 2.1x100mm, Thermo
Retention time: 6.988 min
Base peak: 224.0913
Precursor m/z: 224.0917
Precursor type: [M+H]+
m/z	relative intensity	assigned
109.028	148	C6H5O2+
121.0636	185	C8H9O+
127.0379	999	C6H7O3+
128.0417	73	C5[13]CH7O3+
133.089	57	C9H11N+
139.0362	206	C7H7O3+
139.0761	112	C8H11O2+
149.059	177	C9H9O2+
167.0697	82	C9H11O3+
