Mass spectrum: Metolachlor CGA 357704; LC-ESI-QTOF; MS2; CE: 40 eV; R=35000; [M+H]+
Name: Metolachlor CGA 357704
Formula: C14H17NO5
Exact mass: 279.1106726
SMILES: CCC1=CC=CC(C)=C1N(C(C)C(O)=O)C(=O)C(O)=O
InChI: InChI=1S/C14H17NO5/c1-4-10-7-5-6-8(2)11(10)15(9(3)13(17)18)12(16)14(19)20/h5-7,9H,4H2,1-3H3,(H,17,18)(H,19,20)
Instrument: Bruker maXis Impact
Instrument type: LC-ESI-QTOF
Ms type: MS2
Ion mode: POSITIVE
Ionization: ESI
Fragmentation mode: CID
Collision energy: 40 eV
Resolution: 35000
Column name: Acclaim RSLC C18 2.2um, 2.1x100mm, Thermo
Retention time: 6.851 min
Base peak: 280.1174
Precursor m/z: 280.1179
Precursor type: [M+H]+
m/z	relative intensity	assigned
131.0687	300	C6H11O3+
133.0864	456	C6H13O3+
134.095	999	C6H14O3+
149.0214	528	C8H5O3+
