Mass spectrum: Carbetamide; LC-ESI-QTOF; MS2; CE: Ramp 19.3-29.0 eV; R=35000; [M+H]+
Name: Carbetamide
Name: [(2R)-1-(ethylamino)-1-oxopropan-2-yl] N-phenylcarbamate
Formula: C12H16N2O3
Exact mass: 236.1160924
SMILES: CCNC(=O)[C@@H](C)OC(=O)NC1=CC=CC=C1
InChI: InChI=1S/C12H16N2O3/c1-3-13-11(15)9(2)17-12(16)14-10-7-5-4-6-8-10/h4-9H,3H2,1-2H3,(H,13,15)(H,14,16)/t9-/m1/s1
Instrument: Bruker maXis Impact
Instrument type: LC-ESI-QTOF
Ms type: MS2
Ion mode: POSITIVE
Ionization: ESI
Fragmentation mode: CID
Collision energy: Ramp 19.3-29.0 eV
Resolution: 35000
Column name: Acclaim RSLC C18 2.2um, 2.1x100mm, Thermo
Retention time: 6.566 min
Base peak: 237.1231
Precursor m/z: 237.1234
Precursor type: [M+H]+
m/z	relative intensity	assigned
45.0338	37	C2H5O+
46.0651	24	C2H8N+
55.0174	18	C3H3O+
72.0441	145	C3H6NO+
72.0804	999	C4H10N+
73.0836	32	C3[13]CH10N+
92.0499	64	C6H6N+
95.0496	11	C6H7O+
100.0766	164	C5H10NO+
101.0799	8	C4[13]CH10NO+
105.0454	9	C6H5N2+
118.0871	346	C5H12NO2+
119.0895	27	C4[13]CH12NO2+
120.0444	360	C7H6NO+
121.0472	38	C6[13]CH6NO+
138.0548	11	C7H8NO2+
192.0644	70	C10H10NO3+
193.0685	5	C9[13]CH10NO3+
