Mass spectrum: Prochloraz BTS44596; LC-ESI-QTOF; MS2; CE: 10 eV; R=35000; [M+H]+
Name: Prochloraz BTS44596
Name: N-[propyl-[2-(2,4,6-trichlorophenoxy)ethyl]carbamoyl]formamide
Formula: C13H15Cl3N2O3
Exact mass: 352.0148254
SMILES: CCCN(CCOC1=C(Cl)C=C(Cl)C=C1Cl)C(=O)NC=O
InChI: InChI=1S/C13H15Cl3N2O3/c1-2-3-18(13(20)17-8-19)4-5-21-12-10(15)6-9(14)7-11(12)16/h6-8H,2-5H2,1H3,(H,17,19,20)
Instrument: Bruker maXis Impact
Instrument type: LC-ESI-QTOF
Ms type: MS2
Ion mode: POSITIVE
Ionization: ESI
Fragmentation mode: CID
Collision energy: 10 eV
Resolution: 35000
Column name: Acclaim RSLC C18 2.2um, 2.1x100mm, Thermo
Retention time: 11.158 min
Base peak: 353.0214
Precursor m/z: 353.0221
Precursor type: [M+H]+
m/z	relative intensity	assigned
157.0966	6	C7H13N2O2+
239.9744	5	C8H9Cl3NO+
241.9714	6	C8H9Cl2[37]ClNO+
265.9541	20	C9H7Cl3NO2+
267.9502	26	C9H7Cl2[37]ClNO2+
308.0002	638	C12H13Cl3NO2+
309.0034	87	C11[13]CH13Cl3NO2+
309.9971	609	C12H13Cl2[37]ClNO2+
310.9994	56	C12H14Cl3O3+
311.9941	12	C11H13Cl3NO3+
353.0213	999	C13H16Cl3N2O3+
354.0241	132	C12[13]CH16Cl3N2O3+
355.0189	882	C13H16Cl2[37]ClN2O3+
