Mass spectrum: Oxazepam; LC-ESI-QTOF; MS2; CE: Ramp 21.1-31.7 eV; R=35000; [M+H]+
Name: Oxazepam
Name: 7-chloro-3-hydroxy-5-phenyl-1,3-dihydro-1,4-benzodiazepin-2-one
Formula: C15H11ClN2O2
Exact mass: 286.0509053
SMILES: OC1N=C(C2=CC=CC=C2)C2=C(NC1=O)C=CC(Cl)=C2
InChI: InChI=1S/C15H11ClN2O2/c16-10-6-7-12-11(8-10)13(9-4-2-1-3-5-9)18-15(20)14(19)17-12/h1-8,15,20H,(H,17,19)
Instrument: Bruker maXis Impact
Instrument type: LC-ESI-QTOF
Ms type: MS2
Ion mode: POSITIVE
Ionization: ESI
Fragmentation mode: CID
Collision energy: Ramp 21.1-31.7 eV
Resolution: 35000
Column name: Acclaim RSLC C18 2.2um, 2.1x100mm, Thermo
Retention time: 8.357 min
Base peak: 102.1285
Precursor m/z: 287.0582
Precursor type: [M+H]+
m/z	relative intensity	assigned
104.0497	10	C7H6N+
128.0246	61	C6H7ClN+
130.0237	13	C6H7[37]ClN+
153.0199	46	C7H6ClN2+
155.0165	11	C7H6[37]ClN2+
155.0839	18	C12H11+
156.0205	21	C10H4O2+
163.0044	23	C8H4ClN2+
164.9995	5	C8H4[37]ClN2+
166.0041	34	C11H2O2+
181.0145	8	C11H3NO2+
195.0909	15	C13H11N2+
205.073	8	C14H9N2+
207.0658	14	C14H9NO+
214.042	6	C13H9ClN+
216.055	7	C13H11ClN+
229.0523	10	C13H10ClN2+
231.0676	297	C13H12ClN2+
232.0692	55	C12[13]CH12ClN2+
233.0651	89	C13H12[37]ClN2+
241.0521	999	C14H10ClN2+
242.0544	145	C13[13]CH10ClN2+
243.049	317	C14H10[37]ClN2+
244.0329	7	C14H9ClO2+
244.0518	27	C14H11ClNO+
257.0486	17	C14H10ClN2O+
258.0533	9	C14H11ClN2O+
259.0396	6	C14H10[37]ClN2O+
269.0473	471	C15H10ClN2O+
270.0506	80	C14[13]CH10ClN2O+
271.0439	160	C15H10[37]ClN2O+
272.0498	18	C15H11ClNO2+
287.0581	245	C15H12ClN2O2+
288.0595	45	C14[13]CH12ClN2O2+
289.055	69	C15H12[37]ClN2O2+
