Mass spectrum: Chlorpropham; LC-ESI-QTOF; MS2; CE: 10 eV; R=35000; [M+H]+
Name: Chlorpropham
Name: propan-2-yl N-(3-chlorophenyl)carbamate
Formula: C10H12ClNO2
Exact mass: 213.0556563
SMILES: CC(C)OC(=O)NC1=CC(Cl)=CC=C1
InChI: InChI=1S/C10H12ClNO2/c1-7(2)14-10(13)12-9-5-3-4-8(11)6-9/h3-7H,1-2H3,(H,12,13)
Instrument: Bruker maXis Impact
Instrument type: LC-ESI-QTOF
Ms type: MS2
Ion mode: POSITIVE
Ionization: ESI
Fragmentation mode: CID
Collision energy: 10 eV
Resolution: 35000
Column name: Acclaim RSLC C18 2.2um, 2.1x100mm, Thermo
Retention time: 9.798 min
Base peak: 172.0151
Precursor m/z: 214.0629
Precursor type: [M+H]+
m/z	relative intensity	assigned
126.0097	15	C9H2O+
154.0048	150	C7H5ClNO+
155.0072	9	C6[13]CH5ClNO+
156.0012	29	C7H5[37]ClNO+
172.0151	999	C7H7ClNO2+
173.0174	105	C6[13]CH7ClNO2+
174.0114	339	C7H7[37]ClNO2+
175.0157	16	C10H6ClN+
