Mass spectrum: Ametryn; LC-ESI-QTOF; MS2; CE: Ramp 19.0-28.5 eV; R=35000; [M+H]+
Name: Ametryn
Name: 4-N-ethyl-6-methylsulfanyl-2-N-propan-2-yl-1,3,5-triazine-2,4-diamine
Formula: C9H17N5S
Exact mass: 227.1204665
SMILES: CCNC1=NC(SC)=NC(NC(C)C)=N1
InChI: InChI=1S/C9H17N5S/c1-5-10-7-12-8(11-6(2)3)14-9(13-7)15-4/h6H,5H2,1-4H3,(H2,10,11,12,13,14)
Instrument: Bruker maXis Impact
Instrument type: LC-ESI-QTOF
Ms type: MS2
Ion mode: POSITIVE
Ionization: ESI
Fragmentation mode: CID
Collision energy: Ramp 19.0-28.5 eV
Resolution: 35000
Column name: Acclaim RSLC C18 2.2um, 2.1x100mm, Thermo
Retention time: 9.076 min
Base peak: 228.1958
Precursor m/z: 228.1277
Precursor type: [M+H]+
m/z	relative intensity	assigned
55.0537	41	C4H7+
67.0537	56	C5H7+
68.0237	20	C2H2N3+
69.0693	23	C5H9+
71.0601	27	C3H7N2+
81.0699	36	C6H9+
83.0853	30	C6H11+
85.065	6	C3H7N3+
91.0328	13	C2H7N2S+
95.0862	53	C7H11+
96.0561	26	C4H6N3+
97.1017	7	C7H13+
109.1018	15	C8H13+
113.0819	5	C4H9N4+
116.0275	29	C3H6N3S+
119.0849	7	C9H11+
123.1166	11	C9H15+
137.0945	6	C7H11N3+
138.0769	70	C5H8N5+
138.1017	32	C7H12N3+
144.0585	51	C5H10N3S+
158.0487	53	C4H8N5S+
158.0728	7	C9H8N3+
180.1245	10	C8H14N5+
186.0806	999	C6H12N5S+
187.0829	69	C5[13]CH12N5S+
188.0763	33	C6H12N5[34]S+
228.1279	751	C9H18N5S+
229.1302	97	C8[13]CH18N5S+
230.1242	32	C9H18N5[34]S+
