Mass spectrum: Kresoxim-methyl; LC-ESI-QTOF; MS2; CE: 50 eV; R=35000; [M+H]+
Name: Kresoxim-methyl
Name: Methyl E-2-methoxyimino-2-[(2-methylphenoxymethyl)phenyl]acetate
Name: methyl (2Z)-2-methoxyimino-2-[2-[(2-methylphenoxy)methyl]phenyl]acetate
Formula: C18H19NO4
Exact mass: 313.1314081
SMILES: CO\N=C(/C(=O)OC)C1=C(COC2=C(C)C=CC=C2)C=CC=C1
InChI: InChI=1S/C18H19NO4/c1-13-8-4-7-11-16(13)23-12-14-9-5-6-10-15(14)17(19-22-3)18(20)21-2/h4-11H,12H2,1-3H3/b19-17-
Instrument: Bruker maXis Impact
Instrument type: LC-ESI-QTOF
Ms type: MS2
Ion mode: POSITIVE
Ionization: ESI
Fragmentation mode: CID
Collision energy: 50 eV
Resolution: 35000
Column name: Acclaim RSLC C18 2.2um, 2.1x100mm, Thermo
Retention time: 10.790 min
Base peak: 314.1383
Precursor m/z: 314.1387
Precursor type: [M+H]+
m/z	relative intensity	assigned
115.0545	16	C9H7+
116.0485	412	C8H6N+
117.0556	233	C5H9O3+
118.0641	287	C5H10O3+
119.0481	27	C8H7O+
119.0674	27	C4[13]CH10O3+
121.0629	11	C8H9O+
127.0523	9	C10H7+
128.0482	23	C9H6N+
128.0592	8	C10H8+
129.0678	5	C10H9+
130.0639	794	C9H8N+
131.0715	999	C6H11O3+
132.0429	33	C5H8O4+
132.0775	195	C6H12O3+
133.0828	17	C5[13]CH12O3+
135.043	19	C8H7O2+
139.0531	10	C11H7+
140.0476	22	C7H8O3+
141.0679	10	C11H9+
145.0645	9	C10H9O+
146.0584	205	C9H8NO+
147.0624	23	C8[13]CH8NO+
150.0457	11	C12H6+
151.0531	21	C12H7+
152.0607	160	C12H8+
153.0673	52	C12H9+
154.0641	22	C11H8N+
155.0585	6	C7H9NO3+
155.0694	7	C8H11O3+
156.0797	5	C11H10N+
163.0541	7	C13H7+
164.0608	10	C13H8+
165.0682	258	C13H9+
167.0718	61	C12H9N+
167.0825	56	C13H11+
168.0551	7	C12H8O+
168.0784	42	C9H12O3+
169.063	38	C12H9O+
169.0801	5	C8[13]CH12O3+
169.092	5	C12H11N+
176.0604	82	C14H8+
177.0677	91	C14H9+
178.0759	426	C14H10+
179.0825	220	C14H11+
180.0793	429	C10H12O3+
181.0628	58	C13H9O+
181.0827	59	C9[13]CH12O3+
182.0681	14	C13H10O+
182.0958	9	C13H12N+
188.0511	5	C14H6N+
189.0686	40	C15H9+
190.0641	60	C14H8N+
191.0708	26	C11H11O3+
191.0841	23	C15H11+
192.056	12	C14H8O+
192.0796	49	C14H10N+
193.0866	163	C11H13O3+
194.0714	43	C14H10O+
194.0949	351	C11H14O3+
195.0792	60	C14H11O+
195.0986	62	C10[13]CH14O3+
196.08	22	C13H10NO+
202.0675	7	C15H8N+
203.0716	104	C15H9N+
204.0787	79	C12H12O3+
205.0638	8	C15H9O+
205.0848	22	C12H13O3+
206.0584	226	C11H10O4+
206.0954	45	C15H12N+
207.0667	163	C14H9NO+
207.0767	130	C15H11O+
207.0989	16	C12H15O3+
208.0844	89	C15H12O+
208.1101	9	C12H16O3+
209.0806	27	C11H13O4+
210.0662	8	C14H10O2+
210.0907	10	C14H12NO+
211.0721	12	C14H11O2+
218.0947	5	C13H14O3+
220.0753	32	C15H10NO+
221.0464	5	C14H7NO2+
221.0814	22	C12H13O4+
222.0898	124	C12H14O4+
223.0969	82	C15H13NO+
224.1032	20	C14[13]CH13NO+
235.073	23	C16H11O2+
236.071	10	C15H10NO2+
236.1067	12	C16H14NO+
