Mass spectrum: Metazachlor BH 479-9; LC-ESI-QTOF; MS2; CE: Ramp 22.6-33.9 eV; R=35000; [M+H]+
Name: Metazachlor BH 479-9
Formula: C16H19N3O4S
Exact mass: 349.1096271
SMILES: CC1=CC=CC(C)=C1N(CN1C=CC=N1)C(=O)CS(=O)CC(O)=O
InChI: InChI=1S/C16H19N3O4S/c1-12-5-3-6-13(2)16(12)19(11-18-8-4-7-17-18)14(20)9-24(23)10-15(21)22/h3-8H,9-11H2,1-2H3,(H,21,22)
Instrument: Bruker maXis Impact
Instrument type: LC-ESI-QTOF
Ms type: MS2
Ion mode: POSITIVE
Ionization: ESI
Fragmentation mode: CID
Collision energy: Ramp 22.6-33.9 eV
Resolution: 35000
Column name: Acclaim RSLC C18 2.2um, 2.1x100mm, Thermo
Retention time: 4.938 min
Base peak: 350.1173
Precursor m/z: 350.1169
Precursor type: [M+H]+
m/z	relative intensity	assigned
88.9697	5	C2HO2S+
130.9779	15	C2HN3O2S+
133.0875	11	CH15N3O2S+
134.0953	999	C3H18O3S+
135.0983	157	C4H13N3O2+
136.1015	8	C3H18O2[18]OS+
148.9886	76	C4H5O4S+
149.9935	5	C3[13]CH5O4S+
160.0741	6	C2H14N3O3S+
175.0971	21	C8H15O4+
282.0769	23	C16H12NO4+
