Mass spectrum: 10,11-Dihydro-10,11-dihydroxycarbamazepine; LC-ESI-QTOF; MS2; CE: 10 eV; R=35000; [M+H]+
Name: 10,11-Dihydro-10,11-dihydroxycarbamazepine
Name: Carbazepine 10,11-diol
Name: 5,6-dihydroxy-5,6-dihydrobenzo[b][1]benzazepine-11-carboxamide
Formula: C15H14N2O3
Exact mass: 270.1004423
SMILES: NC(=O)N1C2=CC=CC=C2C(O)C(O)C2=CC=CC=C12
InChI: InChI=1S/C15H14N2O3/c16-15(20)17-11-7-3-1-5-9(11)13(18)14(19)10-6-2-4-8-12(10)17/h1-8,13-14,18-19H,(H2,16,20)
Instrument: Bruker maXis Impact
Instrument type: LC-ESI-QTOF
Ms type: MS2
Ion mode: POSITIVE
Ionization: ESI
Fragmentation mode: CID
Collision energy: 10 eV
Resolution: 35000
Column name: Acclaim RSLC C18 2.2um, 2.1x100mm, Thermo
Retention time: 5.733 min
Base peak: 326.2322
Precursor m/z: 271.1077
Precursor type: [M+H]+
m/z	relative intensity	assigned
180.0801	72	C10H12O3+
181.0785	9	C9[13]CH12O3+
182.0942	16	C10H14O3+
208.0746	12	C14H10NO+
210.09	458	C14H12NO+
211.0939	61	C13[13]CH12NO+
236.0694	119	C15H10NO2+
237.0717	24	C14[13]CH10NO2+
253.096	999	C15H13N2O2+
254.0801	679	C15H12NO3+
255.0834	122	C14[13]CH12NO3+
256.0886	16	C14H12N2O3+
271.1068	99	C15H15N2O3+
272.1115	17	C14[13]CH15N2O3+
