Mass spectrum: Chlorfenvinphos; LC-ESI-QTOF; MS2; CE: 40 eV; R=35000; [M+H]+
Name: Chlorfenvinphos
Name: Phosphoric acid, 2-chloro-1-(2,4-dichlorophenyl)ethenyl diethyl ester
Name: [2-chloro-1-(2,4-dichlorophenyl)ethenyl] diethyl phosphate
Formula: C12H14Cl3O4P
Exact mass: 357.9695286
SMILES: CCOP(=O)(OCC)OC(=CCl)C1=C(Cl)C=C(Cl)C=C1
InChI: InChI=1S/C12H14Cl3O4P/c1-3-17-20(16,18-4-2)19-12(8-13)10-6-5-9(14)7-11(10)15/h5-8H,3-4H2,1-2H3
Instrument: Bruker maXis Impact
Instrument type: LC-ESI-QTOF
Ms type: MS2
Ion mode: POSITIVE
Ionization: ESI
Fragmentation mode: CID
Collision energy: 40 eV
Resolution: 35000
Column name: Acclaim RSLC C18 2.2um, 2.1x100mm, Thermo
Retention time: 11.002 min
Base peak: 326.1758
Precursor m/z: 358.9768
Precursor type: [M+H]+
m/z	relative intensity	assigned
127.0142	63	C2H8O4P+
132.9833	7	C7H2OP+
155.0452	32	C4H12O4P+
168.9592	34	C2H8Cl3O2+
169.967	999	C7H4ClOP+
170.9704	75	C6[13]CH4ClOP+
171.9641	384	C7H4[37]ClOP+
172.9674	21	C4H8Cl2OP+
196.9656	13	Cl3H13O3P+
198.9637	6	H13Cl2[37]ClO3P+
204.9364	312	C8H4Cl3+
205.9397	31	C7[13]CH4Cl3+
206.9332	286	C8H4Cl2[37]Cl+
207.9371	12	C4H8Cl3OP+
