Mass spectrum: Kresoxim-methyl; LC-ESI-QTOF; MS2; CE: 10 eV; R=35000; [M+H]+
Name: Kresoxim-methyl
Name: Methyl E-2-methoxyimino-2-[(2-methylphenoxymethyl)phenyl]acetate
Name: methyl (2Z)-2-methoxyimino-2-[2-[(2-methylphenoxy)methyl]phenyl]acetate
Formula: C18H19NO4
Exact mass: 313.1314081
SMILES: CO\N=C(/C(=O)OC)C1=C(COC2=C(C)C=CC=C2)C=CC=C1
InChI: InChI=1S/C18H19NO4/c1-13-8-4-7-11-16(13)23-12-14-9-5-6-10-15(14)17(19-22-3)18(20)21-2/h4-11H,12H2,1-3H3/b19-17-
Instrument: Bruker maXis Impact
Instrument type: LC-ESI-QTOF
Ms type: MS2
Ion mode: POSITIVE
Ionization: ESI
Fragmentation mode: CID
Collision energy: 10 eV
Resolution: 35000
Column name: Acclaim RSLC C18 2.2um, 2.1x100mm, Thermo
Retention time: 10.806 min
Base peak: 314.1387
Precursor m/z: 314.1387
Precursor type: [M+H]+
m/z	relative intensity	assigned
116.0486	319	C8H6N+
117.0521	33	C7[13]CH6N+
118.0637	13	C5H10O3+
119.0486	7	C8H7O+
121.0638	11	C8H9O+
130.0642	13	C9H8N+
131.0718	274	C9H9N+
132.0796	358	C6H12O3+
133.0826	36	C5[13]CH12O3+
135.0434	6	C8H7O2+
146.0586	60	C6H10O4+
147.0655	17	C6H11O4+
162.09	392	C7H14O4+
163.093	45	C6[13]CH14O4+
164.0971	5	C7H14O3[18]O+
179.0844	8	C14H11+
182.0948	6	C10H14O3+
193.1003	23	C15H13+
194.0793	7	C10H12NO3+
194.0964	8	C14H12N+
195.1036	12	C14H13N+
196.1102	14	C11H16O3+
206.0803	999	C11H12NO3+
207.0823	124	C10[13]CH12NO3+
208.0856	28	C15H12O+
209.0954	12	C15H13O+
210.1268	74	C12H18O3+
211.1295	10	C11[13]CH18O3+
220.1128	8	C16H14N+
221.095	13	C16H13O+
222.0903	660	C15H12NO+
223.0968	266	C15H13NO+
224.1022	45	C14[13]CH13NO+
225.0914	8	C15H13O2+
225.1051	5	C11H15NO4+
235.0743	202	C16H11O2+
236.078	34	C15[13]CH11O2+
238.1218	524	C13H18O4+
239.1252	92	C12[13]CH18O4+
240.1282	7	C11[13]C2H18O4+
250.0851	99	C16H12NO2+
251.089	18	C15[13]CH12NO2+
254.1166	126	C16H16NO2+
255.1192	20	C15[13]CH16NO2+
267.1009	788	C17H15O3+
268.104	141	C16[13]CH15O3+
269.1056	15	C15[13]C2H15O3+
282.1118	462	C17H16NO3+
283.1145	91	C16[13]CH16NO3+
284.1182	9	C15[13]C2H16NO3+
314.1386	38	C18H20NO4+
315.1414	9	C17[13]CH20NO4+
