Mass spectrum: Pyridaben; LC-ESI-QTOF; MS2; CE: 10 eV; R=35000; [M+H]+
Name: Pyridaben
Name: 2-tert-butyl-5-[(4-tert-butylphenyl)methylsulfanyl]-4-chloropyridazin-3-one
Formula: C19H25ClN2OS
Exact mass: 364.1376121
SMILES: CC(C)(C)N1N=CC(SCC2=CC=C(C=C2)C(C)(C)C)=C(Cl)C1=O
InChI: InChI=1S/C19H25ClN2OS/c1-18(2,3)14-9-7-13(8-10-14)12-24-15-11-21-22(19(4,5)6)17(23)16(15)20/h7-11H,12H2,1-6H3
Instrument: Bruker maXis Impact
Instrument type: LC-ESI-QTOF
Ms type: MS2
Ion mode: POSITIVE
Ionization: ESI
Fragmentation mode: CID
Collision energy: 10 eV
Resolution: 35000
Column name: Acclaim RSLC C18 2.2um, 2.1x100mm, Thermo
Retention time: 13.411 min
Base peak: 365.1454
Precursor m/z: 365.1449
Precursor type: [M+H]+
m/z	relative intensity	assigned
147.116	15	C11H15+
309.083	999	C15H18ClN2OS+
310.0858	151	C14[13]CH18ClN2OS+
311.0799	286	C15H18[37]ClN2OS+
365.1457	375	C19H26ClN2OS+
366.1488	60	C18[13]CH26ClN2OS+
367.1428	111	C19H26[37]ClN2OS+
