Mass spectrum: Oxazepam; LC-ESI-QTOF; MS2; CE: 20 eV; R=35000; [M+H]+
Name: Oxazepam
Name: 7-chloro-3-hydroxy-5-phenyl-1,3-dihydro-1,4-benzodiazepin-2-one
Formula: C15H11ClN2O2
Exact mass: 286.0509053
SMILES: OC1N=C(C2=CC=CC=C2)C2=C(NC1=O)C=CC(Cl)=C2
InChI: InChI=1S/C15H11ClN2O2/c16-10-6-7-12-11(8-10)13(9-4-2-1-3-5-9)18-15(20)14(19)17-12/h1-8,15,20H,(H,17,19)
Instrument: Bruker maXis Impact
Instrument type: LC-ESI-QTOF
Ms type: MS2
Ion mode: POSITIVE
Ionization: ESI
Fragmentation mode: CID
Collision energy: 20 eV
Resolution: 35000
Column name: Acclaim RSLC C18 2.2um, 2.1x100mm, Thermo
Retention time: 8.349 min
Base peak: 287.0576
Precursor m/z: 287.0582
Precursor type: [M+H]+
m/z	relative intensity	assigned
128.0253	17	C9H4O+
153.0208	8	C10H3NO+
155.0848	9	C12H11+
156.0191	19	C10H4O2+
163.0029	8	C11HNO+
166.0046	29	C8H5ClNO+
168.0026	11	C8H5[37]ClNO+
216.0534	7	C13H11ClN+
231.0675	228	C13H12ClN2+
232.0711	46	C12[13]CH12ClN2+
233.0645	62	C13H12[37]ClN2+
241.0521	820	C14H10ClN2+
242.0552	143	C13[13]CH10ClN2+
243.0489	233	C14H10[37]ClN2+
244.0321	6	C14H9ClO2+
244.0524	23	C14H11ClNO+
257.0479	6	C14H10ClN2O+
258.0559	10	C14H11ClN2O+
259.0627	7	C14H12ClN2O+
269.0472	999	C15H10ClN2O+
270.0497	180	C14[13]CH10ClN2O+
271.044	297	C15H10[37]ClN2O+
272.0479	30	C15H11ClNO2+
287.0577	654	C15H12ClN2O2+
288.0606	106	C14[13]CH12ClN2O2+
289.0554	158	C15H12[37]ClN2O2+
