Mass spectrum: Oxazepam; LC-ESI-QTOF; MS2; CE: 50 eV; R=35000; [M+H]+
Name: Oxazepam
Name: 7-chloro-3-hydroxy-5-phenyl-1,3-dihydro-1,4-benzodiazepin-2-one
Formula: C15H11ClN2O2
Exact mass: 286.0509053
SMILES: OC1N=C(C2=CC=CC=C2)C2=C(NC1=O)C=CC(Cl)=C2
InChI: InChI=1S/C15H11ClN2O2/c16-10-6-7-12-11(8-10)13(9-4-2-1-3-5-9)18-15(20)14(19)17-12/h1-8,15,20H,(H,17,19)
Instrument: Bruker maXis Impact
Instrument type: LC-ESI-QTOF
Ms type: MS2
Ion mode: POSITIVE
Ionization: ESI
Fragmentation mode: CID
Collision energy: 50 eV
Resolution: 35000
Column name: Acclaim RSLC C18 2.2um, 2.1x100mm, Thermo
Retention time: 8.374 min
Base peak: 287.0582
Precursor m/z: 287.0582
Precursor type: [M+H]+
m/z	relative intensity	assigned
118.0519	188	C7H6N2+
126.0089	94	C9H2O+
128.0252	111	C6H7ClN+
128.0604	58	C10H8+
129.0432	44	C2H10ClN2O2+
130.0219	47	C6H7[37]ClN+
135.9942	46	C10O+
138.0093	126	C7H5ClN+
140.0068	53	C7H5[37]ClN+
151.0056	52	C7H4ClN2+
151.054	37	C12H7+
152.0125	59	C10H2NO+
152.0611	110	C12H8+
153.0199	323	C7H6ClN2+
153.0679	34	C12H9+
154.0063	44	C7H5ClNO+
155.0169	66	C7H6[37]ClN2+
155.0841	63	C12H11+
163.0043	601	C8H4ClN2+
163.9994	260	C9H5ClO+
165.0014	143	C8H4[37]ClN2+
165.0707	46	C13H9+
166.0004	96	C9H5[37]ClO+
167.0846	32	C13H11+
168.0913	34	C8H12N2O2+
169.0626	66	C12H9O+
177.0579	71	C13H7N+
178.0642	115	C13H8N+
178.9999	34	C11HNO2+
179.0732	95	C13H9N+
180.0796	55	C13H10N+
181.0162	171	C8H6ClN2O+
183.0127	85	C8H6[37]ClN2O+
193.0732	28	C13H9N2+
194.0838	92	C13H10N2+
195.0906	357	C13H11N2+
196.0923	59	C12[13]CH11N2+
205.075	224	C14H9N2+
206.0822	69	C14H10N2+
207.0668	56	C14H9NO+
214.0404	103	C13H9ClN+
215.0416	30	C12[13]CH9ClN+
216.0375	41	C13H9[37]ClN+
229.0518	323	C13H10ClN2+
230.0557	48	C12[13]CH10ClN2+
231.0483	98	C13H10[37]ClN2+
231.0678	47	C13H12ClN2+
239.0369	51	C14H8ClN2+
241.0517	999	C14H10ClN2+
242.0557	162	C13[13]CH10ClN2+
243.0485	306	C14H10[37]ClN2+
244.055	31	C14H11ClNO+
257.0479	112	C14H10ClN2O+
258.0495	35	C15H11ClO2+
