Mass spectrum: Prochloraz BTS44596; LC-ESI-QTOF; MS2; CE: 40 eV; R=35000; [M+H]+
Name: Prochloraz BTS44596
Name: N-[propyl-[2-(2,4,6-trichlorophenoxy)ethyl]carbamoyl]formamide
Formula: C13H15Cl3N2O3
Exact mass: 352.0148254
SMILES: CCCN(CCOC1=C(Cl)C=C(Cl)C=C1Cl)C(=O)NC=O
InChI: InChI=1S/C13H15Cl3N2O3/c1-2-3-18(13(20)17-8-19)4-5-21-12-10(15)6-9(14)7-11(12)16/h6-8H,2-5H2,1H3,(H,17,19,20)
Instrument: Bruker maXis Impact
Instrument type: LC-ESI-QTOF
Ms type: MS2
Ion mode: POSITIVE
Ionization: ESI
Fragmentation mode: CID
Collision energy: 40 eV
Resolution: 35000
Column name: Acclaim RSLC C18 2.2um, 2.1x100mm, Thermo
Retention time: 11.116 min
Base peak: 353.0213
Precursor m/z: 353.0221
Precursor type: [M+H]+
m/z	relative intensity	assigned
129.1019	37	C6H13N2O+
132.9585	64	Cl2H3N2O2+
158.9747	271	C8ClN2+
159.9814	164	C8HClN2+
160.9529	105	Cl3H8O3+
160.9724	105	C8[37]ClN2+
161.9624	169	Cl3H9O3+
161.9793	53	C8H[37]ClN2+
163.9581	121	H9Cl2[37]ClO3+
166.004	94	C2H10Cl2NO3+
166.9205	239	Cl3H2N2O2+
167.0123	114	C11H3O2+
168.9169	184	H2Cl2[37]ClN2O2+
173.9852	151	C4H8Cl2O3+
174.9695	219	CH10Cl3O3+
175.9824	84	C4H8Cl[37]ClO3+
176.9671	135	CH10Cl2[37]ClO3+
179.9276	186	CH3Cl3N2O2+
180.0187	39	C3H12Cl2NO3+
181.0314	37	C5H16Cl3+
181.9244	132	CH3Cl2[37]ClN2O2+
186.9694	96	C3H5Cl2N2O3+
187.9776	167	C3H6Cl2N2O3+
188.9652	49	C3H5Cl[37]ClN2O3+
189.9728	79	C3H6Cl[37]ClN2O3+
194.9154	999	C6H2Cl3O+
194.9521	125	C2H6Cl3N2O2+
195.9187	86	C5[13]CH2Cl3O+
196.9124	777	C6H2Cl2[37]ClO+
196.9307	479	CH4Cl3N2O3+
196.9469	111	C2H6Cl2[37]ClN2O2+
198.9276	362	CH4Cl2[37]ClN2O3+
201.9806	154	C8H6Cl2NO+
202.9863	57	C2H12Cl3NO3+
203.9789	79	C8H6Cl[37]ClNO+
204.9359	64	C3H4Cl3N2O2+
206.9315	50	C3H4Cl2[37]ClN2O2+
215.9959	69	C3H13Cl3NO3+
217.9913	37	C3H13Cl2[37]ClNO3+
222.9464	547	C9HCl2N2O+
223.949	44	C8[13]CHCl2N2O+
224.9445	322	C9HCl[37]ClN2O+
237.959	47	C8H7Cl3NO+
245.035	65	C11H13Cl2NO+
247.0319	45	C11H13Cl[37]ClNO+
281.9994	37	C11H13Cl3O2+
308.0013	56	C12H13Cl3NO2+
