Mass spectrum: Benalaxyl; LC-ESI-QTOF; MS2; CE: Ramp 22.1-33.2 eV; R=35000; [M+H]+
Name: Benalaxyl
Name: L-Alanine, N-(2,6-dimethylphenyl)-N-(phenylacetyl)-, methyl ester
Name: methyl (2S)-2-(2,6-dimethyl-N-(2-phenylacetyl)anilino)propanoate
Formula: C20H23NO3
Exact mass: 325.1677936
SMILES: COC(=O)[C@H](C)N(C(=O)CC1=CC=CC=C1)C1=C(C)C=CC=C1C
InChI: InChI=1S/C20H23NO3/c1-14-9-8-10-15(2)19(14)21(16(3)20(23)24-4)18(22)13-17-11-6-5-7-12-17/h5-12,16H,13H2,1-4H3/t16-/m0/s1
Instrument: Bruker maXis Impact
Instrument type: LC-ESI-QTOF
Ms type: MS2
Ion mode: POSITIVE
Ionization: ESI
Fragmentation mode: CID
Collision energy: Ramp 22.1-33.2 eV
Resolution: 35000
Column name: Acclaim RSLC C18 2.2um, 2.1x100mm, Thermo
Retention time: 10.909 min
Base peak: 102.1287
Precursor m/z: 326.1751
Precursor type: [M+H]+
m/z	relative intensity	assigned
91.0548	36	C7H7+
115.0388	5	C5H7O3+
120.0797	9	C8H10N+
121.088	163	C8H11N+
122.094	21	C7[13]CH11N+
148.1112	999	C10H14N+
149.1142	108	C9[13]CH14N+
150.1178	5	C8[13]C2H14N+
208.1323	358	C12H18NO2+
209.1355	49	C11[13]CH18NO2+
221.1156	16	C13H17O3+
253.1416	5	C17H19NO+
266.1526	27	C18H20NO+
267.1562	7	C17[13]CH20NO+
294.1475	19	C19H20NO2+
