Mass spectrum: Pyrazophos; LC-ESI-QTOF; MS2; CE: Ramp 23.1-34.6 eV; R=35000; [M+H]+
Name: Pyrazophos
Name: ethyl 2-diethoxyphosphinothioyloxy-5-methylpyrazolo[1,5-a]pyrimidine-6-carboxylate
Formula: C14H20N3O5PS
Exact mass: 373.0861284
SMILES: CCOC(=O)C1=CN2N=C(OP(=S)(OCC)OCC)C=C2N=C1C
InChI: InChI=1S/C14H20N3O5PS/c1-5-19-14(18)11-9-17-12(15-10(11)4)8-13(16-17)22-23(24,20-6-2)21-7-3/h8-9H,5-7H2,1-4H3
Instrument: Bruker maXis Impact
Instrument type: LC-ESI-QTOF
Ms type: MS2
Ion mode: POSITIVE
Ionization: ESI
Fragmentation mode: CID
Collision energy: Ramp 23.1-34.6 eV
Resolution: 35000
Column name: Acclaim RSLC C18 2.2um, 2.1x100mm, Thermo
Retention time: 11.461 min
Base peak: 374.0933
Precursor m/z: 374.0934
Precursor type: [M+H]+
m/z	relative intensity	assigned
64.9783	10	H2O2P+
93.0103	13	C2H6O2P+
98.985	14	H4O4P+
113.9543	20	H3O3PS+
114.9625	35	H4O3PS+
127.0156	6	C2H8O4P+
141.9843	11	C8HNP+
142.992	7	C8H2NP+
148.0491	6	C2H13O5P+
155.0458	9	C2H10N3O3P+
166.06	7	C7H8N3O2+
170.0152	17	C14H2+
176.0448	86	C8H6N3O2+
177.0519	36	C10H9O3+
178.0579	5	C9[13]CH9O3+
183.0215	21	C7H7N2O2S+
192.0215	13	C3H13O5PS+
194.0556	518	C8H8N3O3+
195.0585	42	C7[13]CH8N3O3+
204.9368	8	C5H2O5PS+
205.0843	61	C12H13O3+
206.0899	12	C11[13]CH13O3+
208.0164	13	C9H7NO3P+
210.0328	70	C9H9NO3P+
211.0354	7	C8[13]CH9NO3P+
211.0532	52	C10H12O3P+
212.0553	5	C9[13]CH12O3P+
222.0872	999	C12H14O4+
223.0903	140	C11[13]CH14O4+
224.0925	13	C12H14O3[18]O+
236.0488	45	C11H11NO3P+
237.0512	6	C10[13]CH11NO3P+
238.0644	241	C10H12N3O2S+
239.0672	28	C9[13]CH12N3O2S+
240.06	8	C10H12N3O2[34]S+
250.1179	6	C12H16N3O3+
266.0962	5	C12H16N3O2S+
271.9892	11	C8H7N3O4PS+
289.9982	7	C12H6N2O5S+
300.0201	25	C14H8N2O4S+
318.0314	55	C13H9N3O5P+
319.0328	5	C12[13]CH9N3O5P+
328.0516	15	C12H15N3O4PS+
346.0627	128	C12H17N3O5PS+
347.0651	17	C11[13]CH17N3O5PS+
348.0617	5	C12H17N3O5P[34]S+
374.0942	242	C14H21N3O5PS+
375.0974	42	C13[13]CH21N3O5PS+
376.0927	13	C14H21N3O5P[34]S+
