Mass spectrum: Crotamiton; LC-ESI-QTOF; MS2; CE: Ramp 18.1-27.2 eV; R=35000; [M+H]+
Name: Crotamiton
Name: (E)-N-ethyl-N-(2-methylphenyl)but-2-enamide
Formula: C13H17NO
Exact mass: 203.1310142
SMILES: CCN(C(=O)\C=C\C)C1=CC=CC=C1C
InChI: InChI=1S/C13H17NO/c1-4-8-13(15)14(5-2)12-10-7-6-9-11(12)3/h4,6-10H,5H2,1-3H3/b8-4+
Instrument: Bruker maXis Impact
Instrument type: LC-ESI-QTOF
Ms type: MS2
Ion mode: POSITIVE
Ionization: ESI
Fragmentation mode: CID
Collision energy: Ramp 18.1-27.2 eV
Resolution: 35000
Column name: Acclaim RSLC C18 2.2um, 2.1x100mm, Thermo
Retention time: 9.243 min
Base peak: 204.1384
Precursor m/z: 204.1383
Precursor type: [M+H]+
m/z	relative intensity	assigned
68.0491	136	C4H6N+
69.0332	999	C4H5O+
70.0365	33	C3[13]CH5O+
91.0546	27	C7H7+
96.0813	84	C6H10N+
97.0646	6	C6H9O+
97.0843	5	C5[13]CH10N+
106.066	28	C7H8N+
107.0737	17	C7H9N+
108.0822	54	C7H10N+
109.0661	5	C7H9O+
121.0888	22	C8H11N+
134.0598	156	C8H8NO+
134.096	34	C9H12N+
135.0626	10	C7[13]CH8NO+
136.1117	250	C9H14N+
137.115	18	C8[13]CH14N+
158.0955	44	C11H12N+
162.0904	37	C10H12NO+
176.1058	17	C11H14NO+
186.1265	7	C13H16N+
204.138	711	C13H18NO+
205.1414	97	C12[13]CH18NO+
206.1434	6	C11[13]C2H18NO+
