Mass spectrum: Azinphos methyl; LC-ESI-QTOF; MS2; CE: 30 eV; R=35000; [M+H]+
Name: Azinphos methyl
Name: Azinphos-methyl
Name: 3-(dimethoxyphosphinothioylsulfanylmethyl)-1,2,3-benzotriazin-4-one
Formula: C10H12N3O3PS2
Exact mass: 317.0057699
SMILES: COP(=S)(OC)SCN1N=NC2=CC=CC=C2C1=O
InChI: InChI=1S/C10H12N3O3PS2/c1-15-17(18,16-2)19-7-13-10(14)8-5-3-4-6-9(8)11-12-13/h3-6H,7H2,1-2H3
Instrument: Bruker maXis Impact
Instrument type: LC-ESI-QTOF
Ms type: MS2
Ion mode: POSITIVE
Ionization: ESI
Fragmentation mode: CID
Collision energy: 30 eV
Resolution: 35000
Column name: Acclaim RSLC C18 2.2um, 2.1x100mm, Thermo
Retention time: 8.910 min
Base peak: 318.0128
Precursor m/z: 318.013
Precursor type: [M+H]+
m/z	relative intensity	assigned
124.9812	178	C4HN2OS+
125.9837	5	C3[13]CHN2OS+
126.9762	10	C4HN2O[34]S+
132.0434	999	C8H6NO+
133.0467	79	C7[13]CH6NO+
142.9912	107	C4H3N2O2S+
144.9862	7	C4H3N2O2[34]S+
150.0539	45	C8H8NO2+
151.058	6	C7[13]CH8NO2+
151.9909	5	C5H2N3OS+
160.0492	69	C7H13PS+
161.0524	6	C6[13]CH13PS+
167.0153	27	C6H5N3OS+
170.9681	16	C5H3N2OS2+
182.9921	8	C6H5N3S2+
