Mass spectrum: Flumioxazin; LC-ESI-QTOF; MS2; CE: Ramp 22.7-34.1 eV; R=35000; [M+H]+
Name: Flumioxazin
Name: 2-(7-fluoro-3-oxo-4-prop-2-ynyl-1,4-benzoxazin-6-yl)-4,5,6,7-tetrahydroisoindole-1,3-dione
Formula: C19H15FN2O4
Exact mass: 354.1015852
SMILES: FC1=CC2=C(C=C1N1C(=O)C3=C(CCCC3)C1=O)N(CC#C)C(=O)CO2
InChI: InChI=1S/C19H15FN2O4/c1-2-7-21-15-9-14(13(20)8-16(15)26-10-17(21)23)22-18(24)11-5-3-4-6-12(11)19(22)25/h1,8-9H,3-7,10H2
Instrument: Bruker maXis Impact
Instrument type: LC-ESI-QTOF
Ms type: MS2
Ion mode: POSITIVE
Ionization: ESI
Fragmentation mode: CID
Collision energy: Ramp 22.7-34.1 eV
Resolution: 35000
Column name: Acclaim RSLC C18 2.2um, 2.1x100mm, Thermo
Retention time: 8.775 min
Base peak: 420.0943
Precursor m/z: 355.1089
Precursor type: [M+H]+
m/z	relative intensity	assigned
121.0645	75	C8H9O+
164.0703	82	C9H10NO2+
176.0505	180	C10H7FNO+
204.0436	178	C14H6NO+
236.1274	304	C16H16N2+
253.0744	74	C12H12FNO4+
260.0694	77	C17H10NO2+
281.1102	91	C17H14FN2O+
285.1034	168	C16H14FN2O2+
286.0813	103	C19H12NO2+
287.0832	210	C15H12FN2O3+
299.0826	508	C19H11N2O2+
300.0841	133	C18[13]CH11N2O2+
307.1072	98	C18H15N2O3+
313.0967	127	C17H14FN2O3+
327.0786	111	C17H12FN2O4+
327.1133	560	C18H16FN2O3+
328.1168	113	C17[13]CH16FN2O3+
355.1089	999	C19H16FN2O4+
356.1144	291	C18[13]CH16FN2O4+
