Mass spectrum: Naproxen; LC-ESI-QTOF; MS2; CE: 40 eV; R=35000; [M+H]+
Name: Naproxen
Name: 2-(6-Methoxy-2-naphthyl)propionic acid
Name: 2-(6-methoxynaphthalen-2-yl)propanoic acid
Formula: C14H14O3
Exact mass: 230.0942943
SMILES: COC1=CC2=CC=C(C=C2C=C1)C(C)C(O)=O
InChI: InChI=1S/C14H14O3/c1-9(14(15)16)10-3-4-12-8-13(17-2)6-5-11(12)7-10/h3-9H,1-2H3,(H,15,16)
Instrument: Bruker maXis Impact
Instrument type: LC-ESI-QTOF
Ms type: MS2
Ion mode: POSITIVE
Ionization: ESI
Fragmentation mode: CID
Collision energy: 40 eV
Resolution: 35000
Column name: Acclaim RSLC C18 2.2um, 2.1x100mm, Thermo
Retention time: 9.128 min
Base peak: 419.2692
Precursor m/z: 231.1016
Precursor type: [M+H]+
m/z	relative intensity	assigned
115.0543	162	C9H7+
128.061	150	C10H8+
129.0682	105	C10H9+
141.0694	647	C11H9+
142.076	324	C11H10+
143.0469	55	C10H7O+
144.0561	67	C10H8O+
145.0654	121	C10H9O+
152.0609	471	C12H8+
153.069	593	C12H9+
154.0764	475	C12H10+
155.0477	107	C11H7O+
155.0845	259	C12H11+
158.0708	180	C11H10O+
169.0648	533	C12H9O+
170.0713	999	C12H10O+
171.0771	161	C11[13]CH10O+
184.0887	51	C13H12O+
185.0955	240	C13H13O+
