Mass spectrum: Metazachlor OA; LC-ESI-QTOF; MS2; CE: 10 eV; R=35000; [M+H]+
Name: Metazachlor OA
Name: [(2,6-Dimethylphenyl)(1H-pyrazol-1-ylmethyl)amino](oxo)acetic acid
Name: 2-[2,6-dimethyl-N-(pyrazol-1-ylmethyl)anilino]-2-oxoacetic acid
Formula: C14H15N3O3
Exact mass: 273.1113413
SMILES: CC1=CC=CC(C)=C1N(CN1C=CC=N1)C(=O)C(O)=O
InChI: InChI=1S/C14H15N3O3/c1-10-5-3-6-11(2)12(10)17(13(18)14(19)20)9-16-8-4-7-15-16/h3-8H,9H2,1-2H3,(H,19,20)
Instrument: Bruker maXis Impact
Instrument type: LC-ESI-QTOF
Ms type: MS2
Ion mode: POSITIVE
Ionization: ESI
Fragmentation mode: CID
Collision energy: 10 eV
Resolution: 35000
Column name: Acclaim RSLC C18 2.2um, 2.1x100mm, Thermo
Retention time: 5.086 min
Base peak: 274.1179
Precursor m/z: 274.1186
Precursor type: [M+H]+
m/z	relative intensity	assigned
134.0955	684	C9H12N+
135.0988	81	C8[13]CH12N+
162.0895	811	C10H12NO+
163.0925	109	C9[13]CH12NO+
206.0798	999	C11H12NO3+
207.0837	138	C10[13]CH12NO3+
224.0904	36	C14H12N2O+
230.1269	13	C13H16N3O+
274.1176	230	C14H16N3O3+
275.1212	28	C13[13]CH16N3O3+
