Mass spectrum: Dichlorvos; LC-ESI-QTOF; MS2; CE: 30 eV; R=35000; [M+H]+
Name: Dichlorvos
Name: 2,2-dichloroethenyl dimethyl phosphate
Formula: C4H7Cl2O4P
Exact mass: 219.9459007
SMILES: COP(=O)(OC)OC=C(Cl)Cl
InChI: InChI=1S/C4H7Cl2O4P/c1-8-11(7,9-2)10-3-4(5)6/h3H,1-2H3
Instrument: Bruker maXis Impact
Instrument type: LC-ESI-QTOF
Ms type: MS2
Ion mode: POSITIVE
Ionization: ESI
Fragmentation mode: CID
Collision energy: 30 eV
Resolution: 35000
Column name: Acclaim RSLC C18 2.2um, 2.1x100mm, Thermo
Retention time: 6.953 min
Base peak: 224.0914
Precursor m/z: 220.9532
Precursor type: [M+H]+
m/z	relative intensity	assigned
109.0044	72	C2H6O3P+
127.0147	999	C2H8O4P+
144.9807	128	C2H7ClO3P+
146.9783	38	C2H7[37]ClO3P+
170.9586	50	C3H5ClO4P+
220.9512	47	C4H8Cl2O4P+
