Mass spectrum: Azinphos methyl; LC-ESI-QTOF; MS2; CE: 10 eV; R=35000; [M+H]+
Name: Azinphos methyl
Name: Azinphos-methyl
Name: 3-(dimethoxyphosphinothioylsulfanylmethyl)-1,2,3-benzotriazin-4-one
Formula: C10H12N3O3PS2
Exact mass: 317.0057699
SMILES: COP(=S)(OC)SCN1N=NC2=CC=CC=C2C1=O
InChI: InChI=1S/C10H12N3O3PS2/c1-15-17(18,16-2)19-7-13-10(14)8-5-3-4-6-9(8)11-12-13/h3-6H,7H2,1-2H3
Instrument: Bruker maXis Impact
Instrument type: LC-ESI-QTOF
Ms type: MS2
Ion mode: POSITIVE
Ionization: ESI
Fragmentation mode: CID
Collision energy: 10 eV
Resolution: 35000
Column name: Acclaim RSLC C18 2.2um, 2.1x100mm, Thermo
Retention time: 8.895 min
Base peak: 318.0127
Precursor m/z: 318.013
Precursor type: [M+H]+
m/z	relative intensity	assigned
124.9809	58	H4N3OPS+
132.0434	999	C8H6NO+
133.0464	68	C7[13]CH6NO+
142.991	30	C4H3N2O2S+
148.0208	5	H10N3O2S2+
150.0532	29	C8H8NO2+
160.0493	963	C7H13PS+
161.052	70	C6[13]CH13PS+
167.0148	26	C6H5N3OS+
170.9684	58	CH6N3OPS2+
182.9913	7	C6H5N3S2+
260.9796	189	C7H8N3O2PS2+
261.9825	21	C6[13]CH8N3O2PS2+
262.9752	15	C7H8N3O2PS[34]S+
318.0115	8	C10H13N3O3PS2+
