Mass spectrum: Metazachlor OA; LC-ESI-QTOF; MS2; CE: 30 eV; R=35000; [M+H]+
Name: Metazachlor OA
Name: [(2,6-Dimethylphenyl)(1H-pyrazol-1-ylmethyl)amino](oxo)acetic acid
Name: 2-[2,6-dimethyl-N-(pyrazol-1-ylmethyl)anilino]-2-oxoacetic acid
Formula: C14H15N3O3
Exact mass: 273.1113413
SMILES: CC1=CC=CC(C)=C1N(CN1C=CC=N1)C(=O)C(O)=O
InChI: InChI=1S/C14H15N3O3/c1-10-5-3-6-11(2)12(10)17(13(18)14(19)20)9-16-8-4-7-15-16/h3-8H,9H2,1-2H3,(H,19,20)
Instrument: Bruker maXis Impact
Instrument type: LC-ESI-QTOF
Ms type: MS2
Ion mode: POSITIVE
Ionization: ESI
Fragmentation mode: CID
Collision energy: 30 eV
Resolution: 35000
Column name: Acclaim RSLC C18 2.2um, 2.1x100mm, Thermo
Retention time: 5.093 min
Base peak: 274.1175
Precursor m/z: 274.1186
Precursor type: [M+H]+
m/z	relative intensity	assigned
118.0637	25	C5H10O3+
119.0715	61	C5H11O3+
132.0797	37	C9H10N+
134.0948	999	C9H12N+
135.0984	133	C8[13]CH12N+
160.0728	10	C5H10N3O3+
178.0876	10	C10H12NO2+
206.0798	120	C11H12NO3+
207.0821	10	C10[13]CH12NO3+
