Mass spectrum: Triallate; LC-ESI-QTOF; MS2; CE: 30 eV; R=35000; [M+H]+
Name: Triallate
Name: S-(2,3,3-trichloroprop-2-enyl) N,N-di(propan-2-yl)carbamothioate
Formula: C10H16Cl3NOS
Exact mass: 303.0018182
SMILES: CC(C)N(C(C)C)C(=O)SCC(Cl)=C(Cl)Cl
InChI: InChI=1S/C10H16Cl3NOS/c1-6(2)14(7(3)4)10(15)16-5-8(11)9(12)13/h6-7H,5H2,1-4H3
Instrument: Bruker maXis Impact
Instrument type: LC-ESI-QTOF
Ms type: MS2
Ion mode: POSITIVE
Ionization: ESI
Fragmentation mode: CID
Collision energy: 30 eV
Resolution: 35000
Column name: Acclaim RSLC C18 2.2um, 2.1x100mm, Thermo
Retention time: 12.774 min
Base peak: 322.1438
Precursor m/z: 304.0091
Precursor type: [M+H]+
m/z	relative intensity	assigned
140.9315	151	C3H3Cl2S+
142.9203	999	C3H2Cl3+
143.9244	40	C2[13]CH2Cl3+
144.9174	851	C3H2Cl2[37]Cl+
145.9212	18	CH2Cl2NOS+
149.0225	32	CH16Cl3O+
160.0779	21	C7H14NOS+
176.907	12	C6Cl3+
178.9031	13	C6Cl2[37]Cl+
219.915	14	C7HCl3NO+
221.9059	9	C7HCl2[37]ClNO+
261.9608	18	C10H7Cl3NO+
263.9573	15	C10H7Cl2[37]ClNO+
