Mass spectrum: Phenazone; LC-ESI-QTOF; MS2; CE: 10 eV; R=35000; [M+H]+
Name: Phenazone
Name: Antipyrine
Name: 1,5-dimethyl-2-phenylpyrazol-3-one
Formula: C11H12N2O
Exact mass: 188.0949630
SMILES: CN1N(C(=O)C=C1C)C1=CC=CC=C1
InChI: InChI=1S/C11H12N2O/c1-9-8-11(14)13(12(9)2)10-6-4-3-5-7-10/h3-8H,1-2H3
Instrument: Bruker maXis Impact
Instrument type: LC-ESI-QTOF
Ms type: MS2
Ion mode: POSITIVE
Ionization: ESI
Fragmentation mode: CID
Collision energy: 10 eV
Resolution: 35000
Column name: Acclaim RSLC C18 2.2um, 2.1x100mm, Thermo
Retention time: 4.679 min
Base peak: 189.1017
Precursor m/z: 189.1022
Precursor type: [M+H]+
m/z	relative intensity	assigned
189.1029	999	C11H13N2O+
190.1047	169	C10[13]CH13N2O+
191.1069	9	C9[13]C2H13N2O+
