Mass spectrum: Metazachlor BH 479-11; LC-ESI-QTOF; MS2; CE: 20 eV; R=35000; [M+H]+
Name: Metazachlor BH 479-11
Name: Metazachlor metabolite M11
Name: N-(2,6-dimethylphenyl)-2-methylsulfinyl-N-(pyrazol-1-ylmethyl)acetamide
Formula: C15H19N3O2S
Exact mass: 305.1197978
SMILES: CC1=CC=CC(C)=C1N(CN1C=CC=N1)C(=O)CS(C)=O
InChI: InChI=1S/C15H19N3O2S/c1-12-6-4-7-13(2)15(12)18(14(19)10-21(3)20)11-17-9-5-8-16-17/h4-9H,10-11H2,1-3H3
Instrument: Bruker maXis Impact
Instrument type: LC-ESI-QTOF
Ms type: MS2
Ion mode: POSITIVE
Ionization: ESI
Fragmentation mode: CID
Collision energy: 20 eV
Resolution: 35000
Column name: Acclaim RSLC C18 2.2um, 2.1x100mm, Thermo
Retention time: 5.543 min
Base peak: 306.1272
Precursor m/z: 306.1271
Precursor type: [M+H]+
m/z	relative intensity	assigned
134.0956	999	C9H12N+
135.0989	117	C8[13]CH12N+
146.0948	6	C2H16N3O2S+
175.098	20	C11H13NO+
238.0891	162	C12H16NO2S+
239.0918	21	C11[13]CH16NO2S+
240.0854	6	C12H16NO2[34]S+
