Mass spectrum: Cyromazine; LC-ESI-QTOF; MS2; CE: 30 eV; R=35000; [M+H]+
Name: Cyromazine
Name: 2-N-cyclopropyl-1,3,5-triazine-2,4,6-triamine
Formula: C6H10N6
Exact mass: 166.0966943
SMILES: NC1=NC(NC2CC2)=NC(N)=N1
InChI: InChI=1S/C6H10N6/c7-4-10-5(8)12-6(11-4)9-3-1-2-3/h3H,1-2H2,(H5,7,8,9,10,11,12)
Instrument: Bruker maXis Impact
Instrument type: LC-ESI-QTOF
Ms type: MS2
Ion mode: POSITIVE
Ionization: ESI
Fragmentation mode: CID
Collision energy: 30 eV
Resolution: 35000
Column name: Acclaim RSLC C18 2.2um, 2.1x100mm, Thermo
Retention time: 2.587 min
Base peak: 167.103
Precursor m/z: 167.104
Precursor type: [M+H]+
m/z	relative intensity	assigned
123.0673	16	C5H7N4+
125.081	923	C5H9N4+
126.0636	43	C3H6N6+
126.0837	69	C4[13]CH9N4+
127.0715	133	C3H7N6+
139.0714	257	C4H7N6+
140.0761	20	C3[13]CH7N6+
140.0918	44	C5H10N5+
150.0758	66	C6H8N5+
151.0716	213	C5H7N6+
152.0794	13	C4[13]CH7N6+
165.0868	14	C6H9N6+
167.1027	999	C6H11N6+
168.1046	86	C5[13]CH11N6+
