Mass spectrum: Pindolol; LC-ESI-QTOF; MS2; CE: 40 eV; R=35000; [M+H]+
Name: Pindolol
Name: 1-(1H-indol-4-yloxy)-3-(propan-2-ylamino)propan-2-ol
Formula: C14H20N2O2
Exact mass: 248.1524779
SMILES: CC(C)NCC(O)COC1=CC=CC2=C1C=CN2
InChI: InChI=1S/C14H20N2O2/c1-10(2)16-8-11(17)9-18-14-5-3-4-13-12(14)6-7-15-13/h3-7,10-11,15-17H,8-9H2,1-2H3
Instrument: Bruker maXis Impact
Instrument type: LC-ESI-QTOF
Ms type: MS2
Ion mode: POSITIVE
Ionization: ESI
Fragmentation mode: CID
Collision energy: 40 eV
Resolution: 35000
Column name: Acclaim RSLC C18 2.2um, 2.1x100mm, Thermo
Retention time: 3.810 min
Base peak: 249.1602
Precursor m/z: 249.1598
Precursor type: [M+H]+
m/z	relative intensity	assigned
115.0537	109	C9H7+
116.0492	146	C8H6N+
116.1065	71	C6H14NO+
117.0567	171	C8H7N+
117.0692	130	C9H9+
118.0645	260	C8H8N+
119.0675	30	C7[13]CH8N+
127.0533	36	C10H7+
128.0495	14	C9H6N+
128.0608	18	C10H8+
129.0562	22	C9H7N+
129.0669	11	C5H9N2O2+
130.0639	92	C9H8N+
131.0476	6	C9H7O+
131.0695	10	C8[13]CH8N+
132.0435	90	C8H6NO+
132.0797	65	C9H10N+
133.0509	103	C8H7NO+
133.0827	6	C8[13]CH10N+
134.0592	832	C8H8NO+
135.0623	72	C7[13]CH8NO+
136.0652	8	C7H8N2O+
141.0567	5	C10H7N+
142.0644	38	C10H8N+
143.0719	247	C10H9N+
144.0799	999	C10H10N+
145.0637	74	C10H9O+
145.0833	122	C9[13]CH10N+
146.0591	319	C9H8NO+
147.0623	31	C8[13]CH8NO+
154.0638	55	C11H8N+
155.0595	85	C10H7N2+
156.0636	15	C9[13]CH7N2+
157.0508	39	C10H7NO+
158.0581	8	C10H8NO+
159.0655	5	C10H9NO+
160.0743	46	C10H10NO+
161.0777	6	C9[13]CH10NO+
167.0601	14	C11H7N2+
170.0587	36	C11H8NO+
171.0666	27	C11H9NO+
172.0747	171	C11H10NO+
173.0782	28	C10[13]CH10NO+
183.0786	6	C13H11O+
184.0859	25	C13H12O+
