Mass spectrum: Mycophenolic acid; LC-ESI-QTOF; MS2; CE: Ramp 22.0-33.0 eV; R=35000; [M+H]+
Name: Mycophenolic acid
Name: (E)-6-(4-hydroxy-6-methoxy-7-methyl-3-oxo-1H-2-benzofuran-5-yl)-4-methylhex-4-enoic acid
Formula: C17H20O6
Exact mass: 320.1259884
SMILES: COC1=C(C)C2=C(C(=O)OC2)C(O)=C1C\C=C(/C)CCC(O)=O
InChI: InChI=1S/C17H20O6/c1-9(5-7-13(18)19)4-6-11-15(20)14-12(8-23-17(14)21)10(2)16(11)22-3/h4,20H,5-8H2,1-3H3,(H,18,19)/b9-4+
Instrument: Bruker maXis Impact
Instrument type: LC-ESI-QTOF
Ms type: MS2
Ion mode: POSITIVE
Ionization: ESI
Fragmentation mode: CID
Collision energy: Ramp 22.0-33.0 eV
Resolution: 35000
Column name: Acclaim RSLC C18 2.2um, 2.1x100mm, Thermo
Retention time: 8.791 min
Base peak: 306.0821
Precursor m/z: 321.1333
Precursor type: [M+H]+
m/z	relative intensity	assigned
135.0786	8	C9H11O+
159.0429	89	C10H7O2+
160.0465	10	C9[13]CH7O2+
175.0754	5	C11H11O2+
177.0535	121	C10H9O3+
178.0558	14	C9[13]CH9O3+
179.0707	10	C10H11O3+
195.0646	39	C10H11O4+
207.0646	999	C11H11O4+
208.068	117	C10[13]CH11O4+
209.0699	13	C11H11O3[18]O+
215.1078	6	C14H15O2+
221.08	5	C12H13O4+
223.0602	7	C11H11O5+
261.1105	5	C15H17O4+
275.1276	45	C16H19O4+
276.1314	10	C15[13]CH19O4+
285.1107	23	C17H17O4+
303.1238	14	C17H19O5+
321.1347	31	C17H21O6+
322.1339	5	C16[13]CH21O6+
