Mass spectrum: Chloroxuron; LC-ESI-QTOF; MS2; CE: 30 eV; R=35000; [M+H]+
Name: Chloroxuron
Name: 3-[4-(4-chlorophenoxy)phenyl]-1,1-dimethylurea
Formula: C15H15ClN2O2
Exact mass: 290.0822054
SMILES: CN(C)C(=O)NC1=CC=C(OC2=CC=C(Cl)C=C2)C=C1
InChI: InChI=1S/C15H15ClN2O2/c1-18(2)15(19)17-12-5-9-14(10-6-12)20-13-7-3-11(16)4-8-13/h3-10H,1-2H3,(H,17,19)
Instrument: Bruker maXis Impact
Instrument type: LC-ESI-QTOF
Ms type: MS2
Ion mode: POSITIVE
Ionization: ESI
Fragmentation mode: CID
Collision energy: 30 eV
Resolution: 35000
Column name: Acclaim RSLC C18 2.2um, 2.1x100mm, Thermo
Retention time: 10.014 min
Base peak: 291.0898
Precursor m/z: 291.0895
Precursor type: [M+H]+
m/z	relative intensity	assigned
118.0643	145	C8H8N+
119.0689	20	C7[13]CH8N+
120.0797	20	C2H15ClNO2+
126.9936	22	C6H4ClO+
127.053	5	C4H12ClO2+
128.0608	31	C4H13ClO2+
128.9909	7	C6H4[37]ClO+
134.0225	5	C7H4NO2+
145.063	9	C10H9O+
146.059	10	C9H8NO+
147.0668	64	C9H9NO+
148.0695	6	C8[13]CH9NO+
149.0142	5	C10HN2+
149.0695	31	C8H9N2O+
154.0642	9	C11H8N+
155.0598	17	C10H7N2+
155.0713	16	C5H14ClNO2+
163.0297	135	C10H8Cl+
163.0855	95	C9H11N2O+
164.033	13	C9[13]CH8Cl+
164.0928	183	C9H12N2O+
165.0266	36	C10H8[37]Cl+
165.0957	19	C8[13]CH12N2O+
168.0547	7	C12H8O+
182.0581	5	C12H8NO+
183.0671	22	C12H9NO+
190.0399	40	C11H9ClN+
191.0274	7	C11H8ClO+
192.0364	11	C11H9[37]ClN+
211.0614	15	C13H9NO2+
218.036	999	C12H9ClNO+
219.0386	140	C11[13]CH9ClNO+
220.0329	249	C12H9[37]ClNO+
221.0367	20	C12H10ClO2+
246.0307	26	C13H9ClNO2+
248.028	8	C13H9[37]ClNO2+
291.0888	112	C15H16ClN2O2+
292.092	19	C14[13]CH16ClN2O2+
293.0871	35	C15H16[37]ClN2O2+
