Mass spectrum: Acetyl-sulfamethoxazole; LC-ESI-QTOF; MS2; CE: 50 eV; R=35000; [M+H]+
Name: Acetyl-sulfamethoxazole
Name: Acetylsulfamethoxazole
Name: N-[4-[(5-methyl-1,2-oxazol-3-yl)sulfamoyl]phenyl]acetamide
Formula: C12H13N3O4S
Exact mass: 295.0626769
SMILES: CC(=O)NC1=CC=C(C=C1)S(=O)(=O)NC1=NOC(C)=C1
InChI: InChI=1S/C12H13N3O4S/c1-8-7-12(14-19-8)15-20(17,18)11-5-3-10(4-6-11)13-9(2)16/h3-7H,1-2H3,(H,13,16)(H,14,15)
Instrument: Bruker maXis Impact
Instrument type: LC-ESI-QTOF
Ms type: MS2
Ion mode: POSITIVE
Ionization: ESI
Fragmentation mode: CID
Collision energy: 50 eV
Resolution: 35000
Column name: Acclaim RSLC C18 2.2um, 2.1x100mm, Thermo
Retention time: 5.212 min
Base peak: 296.0699
Precursor m/z: 296.07
Precursor type: [M+H]+
m/z	relative intensity	assigned
119.0607	82	CH13NO3S+
131.0596	221	C8H7N2+
132.0672	125	C8H8N2+
133.0677	71	C6H13OS+
134.0591	999	C5H10O4+
135.0619	69	C4[13]CH10O4+
140.0172	104	C6H6NOS+
143.0574	65	C6H9NO3+
145.0669	71	C5H11N3S+
146.0703	610	C8H8N3+
147.0777	377	C10H11O+
148.0853	61	C9[13]CH11O+
159.0793	59	C9H9N3+
160.085	326	C6H12N2O3+
161.001	59	C4H5N2O3S+
