Mass spectrum: Kresoxim-methyl; LC-ESI-QTOF; MS2; CE: 20 eV; R=35000; [M+H]+
Name: Kresoxim-methyl
Name: Methyl E-2-methoxyimino-2-[(2-methylphenoxymethyl)phenyl]acetate
Name: methyl (2Z)-2-methoxyimino-2-[2-[(2-methylphenoxy)methyl]phenyl]acetate
Formula: C18H19NO4
Exact mass: 313.1314081
SMILES: CO\N=C(/C(=O)OC)C1=C(COC2=C(C)C=CC=C2)C=CC=C1
InChI: InChI=1S/C18H19NO4/c1-13-8-4-7-11-16(13)23-12-14-9-5-6-10-15(14)17(19-22-3)18(20)21-2/h4-11H,12H2,1-3H3/b19-17-
Instrument: Bruker maXis Impact
Instrument type: LC-ESI-QTOF
Ms type: MS2
Ion mode: POSITIVE
Ionization: ESI
Fragmentation mode: CID
Collision energy: 20 eV
Resolution: 35000
Column name: Acclaim RSLC C18 2.2um, 2.1x100mm, Thermo
Retention time: 10.811 min
Base peak: 314.1384
Precursor m/z: 314.1387
Precursor type: [M+H]+
m/z	relative intensity	assigned
115.0528	5	C9H7+
116.0489	401	C8H6N+
117.0547	63	C5H9O3+
118.0642	93	C8H8N+
119.0478	14	C8H7O+
119.0679	10	C7[13]CH8N+
121.0637	19	C8H9O+
130.0643	68	C9H8N+
131.0719	863	C9H9N+
132.0793	616	C6H12O3+
133.0825	58	C5[13]CH12O3+
135.0431	36	C8H7O2+
146.0588	237	C9H8NO+
147.0645	39	C9H9NO+
148.0724	6	C8[13]CH9NO+
160.0748	6	C10H10NO+
162.09	248	C7H14O4+
163.0933	26	C6[13]CH14O4+
166.0769	5	C13H10+
167.0846	7	C13H11+
168.0789	11	C9H12O3+
178.0761	19	C14H10+
179.0844	50	C14H11+
180.0801	25	C13H10N+
181.0989	16	C14H13+
182.0944	9	C10H14O3+
191.0848	12	C15H11+
193.0996	41	C15H13+
194.071	21	C14H10O+
194.0952	101	C14H12N+
195.0789	18	C14H11O+
195.1026	64	C11H15O3+
196.1091	17	C11H16O3+
204.0799	18	C15H10N+
205.0851	10	C12H13O3+
206.0807	83	C11H12NO3+
207.0794	54	C15H11O+
207.1033	28	C15H13N+
208.0872	147	C15H12O+
208.1055	11	C12H16O3+
209.0922	52	C15H13O+
210.126	39	C15H16N+
211.1302	6	C14[13]CH16N+
220.1093	8	C13H16O3+
221.0932	11	C16H13O+
221.1182	8	C13H17O3+
222.0908	999	C15H12NO+
223.0974	646	C15H13NO+
224.102	104	C14[13]CH13NO+
225.0904	20	C15H13O2+
225.1023	10	C13[13]C2H13NO+
232.0797	6	C16H10NO+
235.0744	480	C16H11O2+
236.0784	101	C15[13]CH11O2+
237.0815	11	C15H11NO2+
237.1143	16	C16H15NO+
238.1217	236	C16H16NO+
239.1253	45	C15[13]CH16NO+
250.0851	81	C16H12NO2+
251.0893	25	C16H13NO2+
254.1166	172	C16H16NO2+
255.1198	32	C15[13]CH16NO2+
267.1003	66	C17H15O3+
268.1007	18	C16[13]CH15O3+
282.1117	91	C17H16NO3+
283.1147	17	C16[13]CH16NO3+
