Mass spectrum: Bisoprolol; LC-ESI-QTOF; MS2; CE: 50 eV; R=35000; [M+H]+
Name: Bisoprolol
Name: 1-(propan-2-ylamino)-3-[4-(2-propan-2-yloxyethoxymethyl)phenoxy]propan-2-ol
Formula: C18H31NO4
Exact mass: 325.2253085
SMILES: CC(C)NCC(O)COC1=CC=C(COCCOC(C)C)C=C1
InChI: InChI=1S/C18H31NO4/c1-14(2)19-11-17(20)13-23-18-7-5-16(6-8-18)12-21-9-10-22-15(3)4/h5-8,14-15,17,19-20H,9-13H2,1-4H3
Instrument: Bruker maXis Impact
Instrument type: LC-ESI-QTOF
Ms type: MS2
Ion mode: POSITIVE
Ionization: ESI
Fragmentation mode: CID
Collision energy: 50 eV
Resolution: 35000
Column name: Acclaim RSLC C18 2.2um, 2.1x100mm, Thermo
Retention time: 5.764 min
Base peak: 326.233
Precursor m/z: 326.2326
Precursor type: [M+H]+
m/z	relative intensity	assigned
107.0493	13	C7H7O+
115.0534	159	C9H7+
116.0601	35	C9H8+
116.1064	130	C6H14NO+
117.0691	75	C9H9+
119.0479	273	C8H7O+
119.0849	35	C9H11+
120.0515	24	C7[13]CH7O+
121.0638	365	C8H9O+
122.0671	39	C7[13]CH9O+
123.0438	16	C7H7O2+
127.0528	15	C10H7+
128.0613	56	C10H8+
129.0681	41	C10H9+
131.0483	34	C9H7O+
132.0556	38	C9H8O+
133.0636	999	C9H9O+
135.0439	17	C8H7O2+
135.0648	15	C5H11O4+
135.0783	22	C9H11O+
137.058	91	C8H9O2+
143.0711	24	C7H11O3+
144.0551	73	C10H8O+
144.0789	36	C7H12O3+
145.0636	452	C10H9O+
146.0697	49	C9[13]CH9O+
147.079	241	C10H11O+
148.0836	28	C9[13]CH11O+
149.0956	31	C10H13O+
150.0669	12	C9H10O2+
155.059	30	C7H9NO3+
161.0958	19	C11H13O+
162.0903	85	C10H12NO+
163.0744	77	C10H11O2+
163.0938	18	C7H15O4+
