Mass spectrum: Crotamiton; LC-ESI-QTOF; MS2; CE: 50 eV; R=35000; [M+H]+
Name: Crotamiton
Name: (E)-N-ethyl-N-(2-methylphenyl)but-2-enamide
Formula: C13H17NO
Exact mass: 203.1310142
SMILES: CCN(C(=O)\C=C\C)C1=CC=CC=C1C
InChI: InChI=1S/C13H17NO/c1-4-8-13(15)14(5-2)12-10-7-6-9-11(12)3/h4,6-10H,5H2,1-3H3/b8-4+
Instrument: Bruker maXis Impact
Instrument type: LC-ESI-QTOF
Ms type: MS2
Ion mode: POSITIVE
Ionization: ESI
Fragmentation mode: CID
Collision energy: 50 eV
Resolution: 35000
Column name: Acclaim RSLC C18 2.2um, 2.1x100mm, Thermo
Retention time: 9.286 min
Base peak: 204.1379
Precursor m/z: 204.1383
Precursor type: [M+H]+
m/z	relative intensity	assigned
106.0646	104	C7H8N+
115.0541	518	C9H7+
116.0502	167	C8H6N+
117.0571	698	C8H7N+
118.0644	933	C8H8N+
119.036	234	C7H5NO+
119.0704	335	C8H9N+
120.08	669	C8H10N+
121.0873	624	C8H11N+
128.0492	512	C9H6N+
128.0613	290	C10H8+
129.0694	219	C10H9+
130.0647	999	C9H8N+
131.0718	245	C9H9N+
132.043	489	C8H6NO+
132.0802	336	C9H10N+
134.0599	211	C8H8NO+
134.0953	961	C9H12N+
135.102	127	C8[13]CH12N+
136.1115	367	C9H14N+
140.0486	172	C10H6N+
142.0641	544	C10H8N+
143.072	696	C10H9N+
144.0779	329	C10H10N+
146.0589	530	C9H8NO+
146.0953	105	C10H12N+
154.0656	130	C11H8N+
156.0794	296	C11H10N+
158.094	122	C11H12N+
160.0742	169	C10H10NO+
170.0968	149	C12H12N+
174.0905	194	C11H12NO+
