Mass spectrum: Prosulfuron; LC-ESI-QTOF; MS2; CE: 10 eV; R=35000; [M+H]+
Name: Prosulfuron
Name: 1-(4-methoxy-6-methyl-1,3,5-triazin-2-yl)-3-[2-(3,3,3-trifluoropropyl)phenyl]sulfonylurea
Formula: C15H16F3N5O4S
Exact mass: 419.0875097
SMILES: COC1=NC(C)=NC(NC(=O)NS(=O)(=O)C2=CC=CC=C2CCC(F)(F)F)=N1
InChI: InChI=1S/C15H16F3N5O4S/c1-9-19-12(22-14(20-9)27-2)21-13(24)23-28(25,26)11-6-4-3-5-10(11)7-8-15(16,17)18/h3-6H,7-8H2,1-2H3,(H2,19,20,21,22,23,24)
Instrument: Bruker maXis Impact
Instrument type: LC-ESI-QTOF
Ms type: MS2
Ion mode: POSITIVE
Ionization: ESI
Fragmentation mode: CID
Collision energy: 10 eV
Resolution: 35000
Column name: Acclaim RSLC C18 2.2um, 2.1x100mm, Thermo
Retention time: 8.744 min
Base peak: 420.0943
Precursor m/z: 420.0948
Precursor type: [M+H]+
m/z	relative intensity	assigned
141.0761	88	C5H10F3N+
167.0551	92	C6H8F3NO+
168.0587	7	C5[13]CH8F3NO+
420.0946	999	C15H17F3N5O4S+
421.0968	199	C14[13]CH17F3N5O4S+
422.0931	58	C15H17F3N5O4[34]S+
