Mass spectrum: Naproxen; LC-ESI-QTOF; MS2; CE: 50 eV; R=35000; [M+H]+
Name: Naproxen
Name: 2-(6-Methoxy-2-naphthyl)propionic acid
Name: 2-(6-methoxynaphthalen-2-yl)propanoic acid
Formula: C14H14O3
Exact mass: 230.0942943
SMILES: COC1=CC2=CC=C(C=C2C=C1)C(C)C(O)=O
InChI: InChI=1S/C14H14O3/c1-9(14(15)16)10-3-4-12-8-13(17-2)6-5-11(12)7-10/h3-9H,1-2H3,(H,15,16)
Instrument: Bruker maXis Impact
Instrument type: LC-ESI-QTOF
Ms type: MS2
Ion mode: POSITIVE
Ionization: ESI
Fragmentation mode: CID
Collision energy: 50 eV
Resolution: 35000
Column name: Acclaim RSLC C18 2.2um, 2.1x100mm, Thermo
Retention time: 9.126 min
Base peak: 419.2687
Precursor m/z: 231.1016
Precursor type: [M+H]+
m/z	relative intensity	assigned
115.0535	300	C9H7+
127.0527	39	C10H7+
128.0605	120	C10H8+
130.0625	41	C6H10O3+
141.0686	999	C11H9+
142.0384	44	C10H6O+
142.0749	300	C11H10+
145.0644	46	C10H9O+
151.053	62	C12H7+
152.0607	531	C12H8+
153.0687	470	C12H9+
154.0755	193	C12H10+
155.0472	77	C11H7O+
158.0701	56	C11H10O+
169.0635	444	C12H9O+
170.0716	295	C12H10O+
171.0746	53	C11[13]CH10O+
