Mass spectrum: Triallate; LC-ESI-QTOF; MS2; CE: 20 eV; R=35000; [M+H]+
Name: Triallate
Name: S-(2,3,3-trichloroprop-2-enyl) N,N-di(propan-2-yl)carbamothioate
Formula: C10H16Cl3NOS
Exact mass: 303.0018182
SMILES: CC(C)N(C(C)C)C(=O)SCC(Cl)=C(Cl)Cl
InChI: InChI=1S/C10H16Cl3NOS/c1-6(2)14(7(3)4)10(15)16-5-8(11)9(12)13/h6-7H,5H2,1-4H3
Instrument: Bruker maXis Impact
Instrument type: LC-ESI-QTOF
Ms type: MS2
Ion mode: POSITIVE
Ionization: ESI
Fragmentation mode: CID
Collision energy: 20 eV
Resolution: 35000
Column name: Acclaim RSLC C18 2.2um, 2.1x100mm, Thermo
Retention time: 12.775 min
Base peak: 322.144
Precursor m/z: 304.0091
Precursor type: [M+H]+
m/z	relative intensity	assigned
128.1058	159	C7H14NO+
140.9317	332	C3H3Cl2S+
141.9354	23	C6Cl2+
142.9204	999	C3H2Cl3+
143.9227	31	C2[13]CH2Cl3+
144.9178	746	C3H2Cl2[37]Cl+
145.92	21	CH2Cl2NOS+
149.0214	40	C6H10ClS+
160.078	15	C7H14NOS+
176.9079	75	C6Cl3+
178.9048	39	C6Cl2[37]Cl+
201.9041	33	C4H3Cl3NS+
203.8985	32	C4H3Cl2[37]ClNS+
219.9146	36	C4H5Cl3NOS+
220.9504	14	C7H5Cl2NOS+
221.9123	31	C4H5Cl2[37]ClNOS+
261.0016	15	C9H16Cl3S+
261.9613	578	C7H11Cl3NOS+
262.9678	42	C6[13]CH11Cl3NOS+
263.9581	383	C7H11Cl2[37]ClNOS+
304.0087	766	C10H17Cl3NOS+
305.0112	93	C9[13]CH17Cl3NOS+
306.0059	625	C10H17Cl2[37]ClNOS+
