Mass spectrum: Clotrimazole; LC-ESI-QTOF; MS2; CE: Ramp 22.5-33.8 eV; R=35000; [M+H]+
Name: Clotrimazole
Name: 1-[(2-chlorophenyl)-diphenylmethyl]imidazole
Formula: C22H17ClN2
Exact mass: 344.1080262
SMILES: ClC1=CC=CC=C1C(N1C=CN=C1)(C1=CC=CC=C1)C1=CC=CC=C1
InChI: InChI=1S/C22H17ClN2/c23-21-14-8-7-13-20(21)22(25-16-15-24-17-25,18-9-3-1-4-10-18)19-11-5-2-6-12-19/h1-17H
Instrument: Bruker maXis Impact
Instrument type: LC-ESI-QTOF
Ms type: MS2
Ion mode: POSITIVE
Ionization: ESI
Fragmentation mode: CID
Collision energy: Ramp 22.5-33.8 eV
Resolution: 35000
Column name: Acclaim RSLC C18 2.2um, 2.1x100mm, Thermo
Retention time: 11.151 min
Base peak: 277.0783
Precursor m/z: 345.1153
Precursor type: [M+H]+
m/z	relative intensity	assigned
125.0155	6	C7H6Cl+
165.0696	652	C13H9+
166.0729	77	C12[13]CH9+
199.0309	77	C13H8Cl+
200.0343	11	C12[13]CH8Cl+
201.0273	22	C13H8[37]Cl+
241.1017	166	C19H13+
242.1092	198	C19H14+
243.1123	33	C18[13]CH14+
249.0471	6	C17H10Cl+
262.0552	5	C18H11Cl+
277.0782	999	C19H14Cl+
278.0819	221	C18[13]CH14Cl+
279.0756	337	C19H14[37]Cl+
280.0788	52	C17H13ClN2+
327.0796	7	C22H14ClN+
