Mass spectrum: Triallate; LC-ESI-QTOF; MS2; CE: Ramp 21.7-32.5 eV; R=35000; [M+H]+
Name: Triallate
Name: S-(2,3,3-trichloroprop-2-enyl) N,N-di(propan-2-yl)carbamothioate
Formula: C10H16Cl3NOS
Exact mass: 303.0018182
SMILES: CC(C)N(C(C)C)C(=O)SCC(Cl)=C(Cl)Cl
InChI: InChI=1S/C10H16Cl3NOS/c1-6(2)14(7(3)4)10(15)16-5-8(11)9(12)13/h6-7H,5H2,1-4H3
Instrument: Bruker maXis Impact
Instrument type: LC-ESI-QTOF
Ms type: MS2
Ion mode: POSITIVE
Ionization: ESI
Fragmentation mode: CID
Collision energy: Ramp 21.7-32.5 eV
Resolution: 35000
Column name: Acclaim RSLC C18 2.2um, 2.1x100mm, Thermo
Retention time: 12.841 min
Base peak: 102.1285
Precursor m/z: 304.0091
Precursor type: [M+H]+
m/z	relative intensity	assigned
69.0685	29	C5H9+
86.0604	150	C4H8NO+
128.1051	69	C7H14NO+
140.9315	149	C3H3Cl2S+
142.9208	999	C3H2Cl3+
143.9229	48	C2[13]CH2Cl3+
144.9181	721	C3H2Cl2[37]Cl+
145.9201	28	CH2Cl2NOS+
149.0224	136	CH16Cl3O+
176.9071	33	C6Cl3+
178.9032	23	C6Cl2[37]Cl+
218.9821	21	C9H9Cl2S+
221.9109	22	C10Cl2S+
261.9607	113	C10H7Cl3NO+
263.9575	101	C10H7Cl2[37]ClNO+
304.0084	125	C10H17Cl3NOS+
306.0044	115	C10H17Cl2[37]ClNOS+
