Mass spectrum: Parathion-methyl; LC-ESI-QTOF; MS2; CE: Ramp 20.3-30.5 eV; R=35000; [M+H]+
Name: Parathion-methyl
Name: Methyl parathion
Name: dimethoxy-(4-nitrophenoxy)-sulfanylidene-lambda5-phosphane
Formula: C8H10NO5PS
Exact mass: 263.0017300
SMILES: COP(=S)(OC)OC1=CC=C(C=C1)[N+]([O-])=O
InChI: InChI=1S/C8H10NO5PS/c1-12-15(16,13-2)14-8-5-3-7(4-6-8)9(10)11/h3-6H,1-2H3
Instrument: Bruker maXis Impact
Instrument type: LC-ESI-QTOF
Ms type: MS2
Ion mode: POSITIVE
Ionization: ESI
Fragmentation mode: CID
Collision energy: Ramp 20.3-30.5 eV
Resolution: 35000
Column name: Acclaim RSLC C18 2.2um, 2.1x100mm, Thermo
Retention time: 9.277 min
Base peak: 228.1274
Precursor m/z: 264.009
Precursor type: [M+H]+
m/z	relative intensity	assigned
123.0312	102	C6H5NO2+
124.9814	250	C2H6O2PS+
127.0151	161	C2H8O4P+
142.9924	999	C5H4O3P+
143.9936	41	C4[13]CH4O3P+
150.0294	100	C8H6O3+
153.9648	43	C6H3OPS+
153.9943	64	C3H6O5S+
154.9716	104	C6H4OPS+
185.9531	42	C6H3O3PS+
185.9891	195	C7H7O2PS+
199.956	82	C6H3NO3PS+
214.9786	85	C7H6NO3PS+
231.983	65	C7H7NO4PS+
235.9776	70	C6H7NO5PS+
249.9932	996	C7H9NO5PS+
251.0001	50	C6[13]CH9NO5PS+
251.9955	51	C7H9NO5P[34]S+
264.0095	240	C8H11NO5PS+
