Mass spectrum: Trimethoprim; LC-ESI-QTOF; MS2; CE: 20 eV; R=35000; [M+H]+
Name: Trimethoprim
Name: 5-[(3,4,5-trimethoxyphenyl)methyl]pyrimidine-2,4-diamine
Formula: C14H18N4O3
Exact mass: 290.1378904
SMILES: COC1=CC(CC2=C(N)N=C(N)N=C2)=CC(OC)=C1OC
InChI: InChI=1S/C14H18N4O3/c1-19-10-5-8(6-11(20-2)12(10)21-3)4-9-7-17-14(16)18-13(9)15/h5-7H,4H2,1-3H3,(H4,15,16,17,18)
Instrument: Bruker maXis Impact
Instrument type: LC-ESI-QTOF
Ms type: MS2
Ion mode: POSITIVE
Ionization: ESI
Fragmentation mode: CID
Collision energy: 20 eV
Resolution: 35000
Column name: Acclaim RSLC C18 2.2um, 2.1x100mm, Thermo
Retention time: 3.884 min
Base peak: 291.1449
Precursor m/z: 291.1452
Precursor type: [M+H]+
m/z	relative intensity	assigned
123.0657	43	C5H7N4+
181.085	5	C8H11N3O2+
230.1155	90	C12H14N4O+
231.1177	12	C11[13]CH14N4O+
245.1021	22	C12H13N4O2+
246.1091	6	C12H14N4O2+
247.1179	11	C12H15N4O2+
257.1023	5	C13H13N4O2+
258.1101	34	C13H14N4O2+
259.1135	6	C12[13]CH14N4O2+
261.0975	83	C12H13N4O3+
262.1006	11	C11[13]CH13N4O3+
275.1132	55	C13H15N4O3+
276.1201	36	C13H16N4O3+
291.1453	999	C14H19N4O3+
292.1477	238	C13[13]CH19N4O3+
293.1496	17	C12[13]C2H19N4O3+
