Mass spectrum: Crotamiton; LC-ESI-QTOF; MS2; CE: 10 eV; R=35000; [M+H]+
Name: Crotamiton
Name: (E)-N-ethyl-N-(2-methylphenyl)but-2-enamide
Formula: C13H17NO
Exact mass: 203.1310142
SMILES: CCN(C(=O)\C=C\C)C1=CC=CC=C1C
InChI: InChI=1S/C13H17NO/c1-4-8-13(15)14(5-2)12-10-7-6-9-11(12)3/h4,6-10H,5H2,1-3H3/b8-4+
Instrument: Bruker maXis Impact
Instrument type: LC-ESI-QTOF
Ms type: MS2
Ion mode: POSITIVE
Ionization: ESI
Fragmentation mode: CID
Collision energy: 10 eV
Resolution: 35000
Column name: Acclaim RSLC C18 2.2um, 2.1x100mm, Thermo
Retention time: 9.247 min
Base peak: 204.138
Precursor m/z: 204.1383
Precursor type: [M+H]+
m/z	relative intensity	assigned
134.0592	10	C8H8NO+
136.1111	15	C9H14N+
162.0901	6	C10H12NO+
204.1386	999	C13H18NO+
206.144	12	C11[13]C2H18NO+
