Mass spectrum: Daminozide; LC-ESI-QTOF; MS2; CE: 20 eV; R=35000; [M+H]+
Name: Daminozide
Name: 4-(2,2-dimethylhydrazinyl)-4-oxobutanoic acid
Formula: C6H12N2O3
Exact mass: 160.0847922
SMILES: CN(C)NC(=O)CCC(O)=O
InChI: InChI=1S/C6H12N2O3/c1-8(2)7-5(9)3-4-6(10)11/h3-4H2,1-2H3,(H,7,9)(H,10,11)
Instrument: Bruker maXis Impact
Instrument type: LC-ESI-QTOF
Ms type: MS2
Ion mode: POSITIVE
Ionization: ESI
Fragmentation mode: CID
Collision energy: 20 eV
Resolution: 35000
Column name: Acclaim RSLC C18 2.2um, 2.1x100mm, Thermo
Retention time: 2.153 min
Base peak: 161.0908
Precursor m/z: 161.0921
Precursor type: [M+H]+
m/z	relative intensity	assigned
115.0855	24	C5H11N2O+
141.064	20	C6H9N2O2+
143.08	999	C6H11N2O2+
144.0828	69	C5[13]CH11N2O2+
161.0901	30	C6H13N2O3+
