Mass spectrum: Terbutylazine-desethyl-2-hydroxy; LC-ESI-QTOF; MS2; CE: Ramp 17.4-26.1 eV; R=35000; [M+H]+
Name: Terbutylazine-desethyl-2-hydroxy
Name: CID 6455361
Name: 2-amino-6-(tert-butylamino)-1H-1,3,5-triazin-4-one
Formula: C7H13N5O
Exact mass: 183.1120100
SMILES: CC(C)(C)NC1=NC(N)=NC(O)=N1
InChI: InChI=1S/C7H13N5O/c1-7(2,3)12-5-9-4(8)10-6(13)11-5/h1-3H3,(H4,8,9,10,11,12,13)
Instrument: Bruker maXis Impact
Instrument type: LC-ESI-QTOF
Ms type: MS2
Ion mode: POSITIVE
Ionization: ESI
Fragmentation mode: CID
Collision energy: Ramp 17.4-26.1 eV
Resolution: 35000
Column name: Acclaim RSLC C18 2.2um, 2.1x100mm, Thermo
Retention time: 3.791 min
Base peak: 184.1185
Precursor m/z: 184.1193
Precursor type: [M+H]+
m/z	relative intensity	assigned
57.0692	93	C4H9+
69.008	16	C2HN2O+
85.0509	18	C2H5N4+
86.035	247	C2H4N3O+
128.056	999	C3H6N5O+
129.0586	47	C2[13]CH6N5O+
184.1187	94	C7H14N5O+
185.1207	5	C6[13]CH14N5O+
