Mass spectrum: Chlorfenvinphos; LC-ESI-QTOF; MS2; CE: 10 eV; R=35000; [M+H]+
Name: Chlorfenvinphos
Name: Phosphoric acid, 2-chloro-1-(2,4-dichlorophenyl)ethenyl diethyl ester
Name: [2-chloro-1-(2,4-dichlorophenyl)ethenyl] diethyl phosphate
Formula: C12H14Cl3O4P
Exact mass: 357.9695286
SMILES: CCOP(=O)(OCC)OC(=CCl)C1=C(Cl)C=C(Cl)C=C1
InChI: InChI=1S/C12H14Cl3O4P/c1-3-17-20(16,18-4-2)19-12(8-13)10-6-5-9(14)7-11(10)15/h5-8H,3-4H2,1-2H3
Instrument: Bruker maXis Impact
Instrument type: LC-ESI-QTOF
Ms type: MS2
Ion mode: POSITIVE
Ionization: ESI
Fragmentation mode: CID
Collision energy: 10 eV
Resolution: 35000
Column name: Acclaim RSLC C18 2.2um, 2.1x100mm, Thermo
Retention time: 11.002 min
Base peak: 326.1758
Precursor m/z: 358.9768
Precursor type: [M+H]+
m/z	relative intensity	assigned
127.0144	118	C2H8O4P+
155.0457	999	C4H12O4P+
156.0489	30	C3[13]CH12O4P+
204.9365	52	C7H4Cl2OP+
205.9384	5	C6[13]CH4Cl2OP+
206.9332	39	C7H4Cl[37]ClOP+
330.9454	49	C10H11Cl3O4P+
332.9419	41	C10H11Cl2[37]ClO4P+
358.9769	546	C12H15Cl3O4P+
359.98	59	C11[13]CH15Cl3O4P+
360.9741	470	C12H15Cl2[37]ClO4P+
