Mass spectrum: Prosulfuron; LC-ESI-QTOF; MS2; CE: 20 eV; R=35000; [M+H]+
Name: Prosulfuron
Name: 1-(4-methoxy-6-methyl-1,3,5-triazin-2-yl)-3-[2-(3,3,3-trifluoropropyl)phenyl]sulfonylurea
Formula: C15H16F3N5O4S
Exact mass: 419.0875097
SMILES: COC1=NC(C)=NC(NC(=O)NS(=O)(=O)C2=CC=CC=C2CCC(F)(F)F)=N1
InChI: InChI=1S/C15H16F3N5O4S/c1-9-19-12(22-14(20-9)27-2)21-13(24)23-28(25,26)11-6-4-3-5-10(11)7-8-15(16,17)18/h3-6H,7-8H2,1-2H3,(H2,19,20,21,22,23,24)
Instrument: Bruker maXis Impact
Instrument type: LC-ESI-QTOF
Ms type: MS2
Ion mode: POSITIVE
Ionization: ESI
Fragmentation mode: CID
Collision energy: 20 eV
Resolution: 35000
Column name: Acclaim RSLC C18 2.2um, 2.1x100mm, Thermo
Retention time: 8.760 min
Base peak: 420.0948
Precursor m/z: 420.0948
Precursor type: [M+H]+
m/z	relative intensity	assigned
141.0764	999	C5H14FOS+
142.079	59	C4[13]CH14FOS+
166.0715	26	C6H9F3N2+
167.0554	839	C6H9F2O3+
168.0579	66	C5[13]CH9F2O3+
169.0584	6	C6H9F2O2[18]O+
173.0053	31	C13HO+
174.0077	5	C12[13]CHO+
217.0134	18	C12H2F3N+
237.0195	20	C15HN4+
377.0898	28	C14H16F3N4O3S+
420.095	248	C15H17F3N5O4S+
421.0979	64	C14[13]CH17F3N5O4S+
422.0945	17	C15H17F3N5O4[34]S+
