Mass spectrum: Dimethenamid-OA; LC-ESI-QTOF; MS2; CE: 20 eV; R=35000; [M+H]+
Name: Dimethenamid-OA
Name: [(2,4-Dimethylthiophen-3-yl)(1-methoxypropan-2-yl)amino](oxo)acetic acid
Name: 2-[(2,4-dimethylthiophen-3-yl)-(1-methoxypropan-2-yl)amino]-2-oxoacetic acid
Formula: C12H17NO4S
Exact mass: 271.0878290
SMILES: COCC(C)N(C(=O)C(O)=O)C1=C(C)SC=C1C
InChI: InChI=1S/C12H17NO4S/c1-7-6-18-9(3)10(7)13(8(2)5-17-4)11(14)12(15)16/h6,8H,5H2,1-4H3,(H,15,16)
Instrument: Bruker maXis Impact
Instrument type: LC-ESI-QTOF
Ms type: MS2
Ion mode: POSITIVE
Ionization: ESI
Fragmentation mode: CID
Collision energy: 20 eV
Resolution: 35000
Column name: Acclaim RSLC C18 2.2um, 2.1x100mm, Thermo
Retention time: 6.496 min
Base peak: 272.0943
Precursor m/z: 272.0951
Precursor type: [M+H]+
m/z	relative intensity	assigned
111.0262	7	C6H7S+
126.0363	32	C6H8NS+
128.0519	8	C6H10NS+
138.0368	42	C10H4N+
139.0232	8	C7H7OS+
139.0387	7	C9[13]CH4N+
152.0528	8	C8H10NS+
154.0305	66	C4H10O4S+
166.0672	52	C9H12NS+
167.0751	8	C9H13NS+
168.0832	89	C9H14NS+
169.087	10	C8[13]CH14NS+
194.0605	15	C7H14O4S+
196.0772	59	C10H14NOS+
197.0807	8	C9[13]CH14NOS+
198.0933	18	C7H18O4S+
200.1043	10	C10H16O4+
212.0734	16	C10H14NO2S+
226.0894	10	C11H16NO2S+
240.0682	999	C11H14NO3S+
241.0706	134	C10[13]CH14NO3S+
242.0654	47	C11H14NO3[34]S+
