Mass spectrum: 4-Formyl-antipyrine; LC-ESI-QTOF; MS2; CE: 40 eV; R=35000; [M+H]+
Name: 4-Formyl-antipyrine
Name: 1,5-Dimethyl-3-oxo-2-phenyl-2,3-dihydro-1H-pyrazole-4-carbaldehyde
Name: 1,5-dimethyl-3-oxo-2-phenylpyrazole-4-carbaldehyde
Formula: C12H12N2O2
Exact mass: 216.0898776
SMILES: CN1N(C(=O)C(C=O)=C1C)C1=CC=CC=C1
InChI: InChI=1S/C12H12N2O2/c1-9-11(8-15)12(16)14(13(9)2)10-6-4-3-5-7-10/h3-8H,1-2H3
Instrument: Bruker maXis Impact
Instrument type: LC-ESI-QTOF
Ms type: MS2
Ion mode: POSITIVE
Ionization: ESI
Fragmentation mode: CID
Collision energy: 40 eV
Resolution: 35000
Column name: Acclaim RSLC C18 2.2um, 2.1x100mm, Thermo
Retention time: 4.010 min
Base peak: 217.0972
Precursor m/z: 217.0972
Precursor type: [M+H]+
m/z	relative intensity	assigned
115.0538	192	C9H7+
116.0566	34	C4H8N2O2+
117.0569	166	C8H7N+
117.0691	123	C9H9+
118.064	188	C8H8N+
119.0356	10	C7H5NO+
119.0597	93	C7H7N2+
119.0851	13	C9H11+
120.0431	34	C7H6NO+
120.0803	50	C8H10N+
121.0772	13	C7H9N2+
123.0553	21	C6H7N2O+
124.0381	8	C6H6NO2+
127.053	16	C10H7+
128.0489	168	C9H6N+
128.0602	52	C10H8+
129.0561	213	C9H7N+
130.0644	999	C9H8N+
131.0603	383	C8H7N2+
131.0709	234	C9H9N+
132.044	61	C8H6NO+
132.0673	371	C8H8N2+
133.0513	72	C8H7NO+
133.0743	78	C8H9N2+
134.046	94	C7H6N2O+
134.0785	10	C7[13]CH9N2+
134.0952	18	C9H12N+
135.0545	39	C7H7N2O+
139.0498	52	C6H7N2O2+
140.0484	69	C10H6N+
141.0649	69	C6H9N2O2+
142.064	116	C10H8N+
143.0608	67	C9H7N2+
143.071	145	C10H9N+
144.0435	48	C9H6NO+
144.0674	85	C9H8N2+
144.0794	377	C10H10N+
145.0504	29	C9H7NO+
145.075	533	C9H9N2+
146.0211	8	C8H4NO2+
146.0589	94	C9H8NO+
146.0818	160	C9H10N2+
147.0549	44	C8H7N2O+
147.0904	361	C9H11N2+
148.0644	14	C8H8N2O+
148.0744	11	C9H10NO+
148.0946	49	C8[13]CH11N2+
149.07	69	C8H9N2O+
150.0708	13	C9H10O2+
154.0636	13	C11H8N+
155.0595	82	C10H7N2+
156.044	19	C10H6NO+
156.0666	82	C10H8N2+
157.0395	39	C9H5N2O+
157.0517	82	C10H7NO+
157.0746	39	C10H9N2+
158.0588	118	C10H8NO+
158.084	11	C10H10N2+
159.0544	136	C9H7N2O+
159.0907	325	C10H11N2+
160.0386	19	C9H6NO2+
160.0561	19	C8[13]CH7N2O+
160.0751	59	C10H10NO+
161.0345	64	C8H5N2O2+
161.0745	8	C9H9N2O+
161.1057	18	C10H13N2+
162.0539	14	C9H8NO2+
168.0435	8	C11H6NO+
169.0736	42	C11H9N2+
170.0606	17	C11H8NO+
170.0816	13	C11H10N2+
171.0543	224	C10H7N2O+
171.09	28	C11H11N2+
172.0611	212	C10H8N2O+
173.0697	201	C10H9N2O+
174.0779	162	C10H10N2O+
175.049	9	C9H7N2O2+
175.0809	17	C9[13]CH10N2O+
184.0615	45	C11H8N2O+
185.0325	59	C10H5N2O2+
185.07	580	C11H9N2O+
186.0537	32	C11H8NO2+
186.0735	74	C10[13]CH9N2O+
187.0512	17	C10H7N2O2+
187.0854	107	C11H11N2O+
188.0911	25	C11H12N2O+
189.1005	63	C11H13N2O+
197.0678	9	C12H9N2O+
198.0781	10	C12H10N2O+
199.0496	23	C11H7N2O2+
199.0854	176	C12H11N2O+
200.0571	526	C11H8N2O2+
200.0906	26	C11[13]CH11N2O+
201.063	96	C10[13]CH8N2O2+
202.0725	46	C11H10N2O2+
213.0662	22	C12H9N2O2+
214.0706	13	C12H10N2O2+
215.0807	152	C12H11N2O2+
216.0856	19	C11[13]CH11N2O2+
217.0963	194	C12H13N2O2+
218.1006	29	C11[13]CH13N2O2+
