Mass spectrum: 2-(2-(Chlorophenyl)amino)benzaldehyde; LC-ESI-QTOF; MS2; CE: 20 eV; R=35000; [M+H]+
Name: 2-(2-(Chlorophenyl)amino)benzaldehyde
Name: 2-[(2-Chlorophenyl)amino]-benzaldehyde
Name: 2-(2-chloroanilino)benzaldehyde
Formula: C13H10ClNO
Exact mass: 231.0450916
SMILES: ClC1=CC=CC=C1NC1=C(C=O)C=CC=C1
InChI: InChI=1S/C13H10ClNO/c14-11-6-2-4-8-13(11)15-12-7-3-1-5-10(12)9-16/h1-9,15H
Instrument: Bruker maXis Impact
Instrument type: LC-ESI-QTOF
Ms type: MS2
Ion mode: POSITIVE
Ionization: ESI
Fragmentation mode: CID
Collision energy: 20 eV
Resolution: 35000
Column name: Acclaim RSLC C18 2.2um, 2.1x100mm, Thermo
Retention time: 11.388 min
Base peak: 277.0774
Precursor m/z: 232.0524
Precursor type: [M+H]+
m/z	relative intensity	assigned
169.0885	5	C12H11N+
178.0647	10	C13H8N+
179.07	11	C13H9N+
180.0796	106	C13H10N+
181.0836	17	C12[13]CH10N+
196.0757	17	C13H10NO+
197.0829	7	C13H11NO+
214.0413	999	C13H9ClN+
215.0443	177	C12[13]CH9ClN+
216.0391	323	C13H9[37]ClN+
217.041	33	C13H10ClO+
232.051	7	C13H11ClNO+
