Mass spectrum: 2-(2-(Chlorophenyl)amino)benzaldehyde; LC-ESI-QTOF; MS2; CE: 30 eV; R=35000; [M+H]+
Name: 2-(2-(Chlorophenyl)amino)benzaldehyde
Name: 2-[(2-Chlorophenyl)amino]-benzaldehyde
Name: 2-(2-chloroanilino)benzaldehyde
Formula: C13H10ClNO
Exact mass: 231.0450916
SMILES: ClC1=CC=CC=C1NC1=C(C=O)C=CC=C1
InChI: InChI=1S/C13H10ClNO/c14-11-6-2-4-8-13(11)15-12-7-3-1-5-10(12)9-16/h1-9,15H
Instrument: Bruker maXis Impact
Instrument type: LC-ESI-QTOF
Ms type: MS2
Ion mode: POSITIVE
Ionization: ESI
Fragmentation mode: CID
Collision energy: 30 eV
Resolution: 35000
Column name: Acclaim RSLC C18 2.2um, 2.1x100mm, Thermo
Retention time: 11.378 min
Base peak: 277.0774
Precursor m/z: 232.0524
Precursor type: [M+H]+
m/z	relative intensity	assigned
151.0532	14	C12H7+
152.0601	5	C12H8+
167.0709	11	C12H9N+
168.079	21	C12H10N+
169.0637	28	C12H9O+
169.0869	7	C12H11N+
177.0564	24	C13H7N+
178.064	134	C13H8N+
179.0708	112	C13H9N+
180.0793	200	C13H10N+
181.083	27	C12[13]CH10N+
196.0746	49	C13H10NO+
197.0811	8	C12[13]CH10NO+
214.041	999	C13H9ClN+
215.0444	187	C12[13]CH9ClN+
216.0382	304	C13H9[37]ClN+
217.0405	39	C13H10ClO+
