Mass spectrum: Metobromuron; LC-ESI-QTOF; MS2; CE: 20 eV; R=35000; [M+H]+
Name: Metobromuron
Name: 3-(4-bromophenyl)-1-methoxy-1-methylurea
Formula: C9H11BrN2O2
Exact mass: 258.0003897
SMILES: CON(C)C(=O)NC1=CC=C(Br)C=C1
InChI: InChI=1S/C9H11BrN2O2/c1-12(14-2)9(13)11-8-5-3-7(10)4-6-8/h3-6H,1-2H3,(H,11,13)
Instrument: Bruker maXis Impact
Instrument type: LC-ESI-QTOF
Ms type: MS2
Ion mode: POSITIVE
Ionization: ESI
Fragmentation mode: CID
Collision energy: 20 eV
Resolution: 35000
Column name: Acclaim RSLC C18 2.2um, 2.1x100mm, Thermo
Retention time: 8.158 min
Base peak: 214.1121
Precursor m/z: 259.0077
Precursor type: [M+H]+
m/z	relative intensity	assigned
119.0597	46	C7H7N2+
131.0596	5	C8H7N2+
142.9479	12	BrH4N2O2+
144.9455	11	H4[81]BrN2O2+
147.0542	55	C8H7N2O+
148.0622	852	C8H8N2O+
149.0651	47	C7[13]CH8N2O+
169.959	999	C6H5BrN+
170.9661	225	C6H6BrN+
171.9569	652	C6H5[81]BrN+
172.9645	175	C6H6[81]BrN+
173.9677	6	C6H7BrO+
197.9536	10	C7H5BrNO+
199.9512	8	C7H5[81]BrNO+
226.9807	56	C8H8BrN2O+
227.9883	30	C8H9BrN2O+
228.9784	45	C8H8[81]BrN2O+
229.9859	27	C8H9[81]BrN2O+
259.0074	147	C9H12BrN2O2+
260.0101	14	C8[13]CH12BrN2O2+
261.0051	130	C9H12[81]BrN2O2+
