Mass spectrum: 2-(2-(Chlorophenyl)amino)benzaldehyde; LC-ESI-QTOF; MS2; CE: 40 eV; R=35000; [M+H]+
Name: 2-(2-(Chlorophenyl)amino)benzaldehyde
Name: 2-[(2-Chlorophenyl)amino]-benzaldehyde
Name: 2-(2-chloroanilino)benzaldehyde
Formula: C13H10ClNO
Exact mass: 231.0450916
SMILES: ClC1=CC=CC=C1NC1=C(C=O)C=CC=C1
InChI: InChI=1S/C13H10ClNO/c14-11-6-2-4-8-13(11)15-12-7-3-1-5-10(12)9-16/h1-9,15H
Instrument: Bruker maXis Impact
Instrument type: LC-ESI-QTOF
Ms type: MS2
Ion mode: POSITIVE
Ionization: ESI
Fragmentation mode: CID
Collision energy: 40 eV
Resolution: 35000
Column name: Acclaim RSLC C18 2.2um, 2.1x100mm, Thermo
Retention time: 11.361 min
Base peak: 277.0775
Precursor m/z: 232.0524
Precursor type: [M+H]+
m/z	relative intensity	assigned
150.0449	50	C12H6+
151.0532	229	C12H7+
152.059	55	C12H8+
154.0638	17	C11H8N+
167.0709	77	C12H9N+
168.0788	116	C12H10N+
169.0641	354	C12H9O+
169.0848	28	C12H11N+
170.0658	45	C11[13]CH9O+
177.056	353	C13H7N+
178.064	759	C13H8N+
179.071	792	C13H9N+
180.0792	763	C13H10N+
181.083	97	C12[13]CH10N+
182.0849	9	C11[13]C2H10N+
194.0581	15	C13H8NO+
195.0671	13	C13H9NO+
196.0752	157	C13H10NO+
197.0788	21	C12[13]CH10NO+
204.0536	19	C12H11ClN+
213.0333	15	C13H8ClN+
214.0408	999	C13H9ClN+
215.0435	180	C12[13]CH9ClN+
216.0378	331	C13H9[37]ClN+
217.0412	35	C13H10ClO+
