Mass spectrum: Ethion; LC-ESI-QTOF; MS2; CE: 30 eV; R=35000; [M+H]+
Name: Ethion
Name: diethoxyphosphinothioylsulfanylmethylsulfanyl-diethoxy-sulfanylidene-lambda5-phosphane
Formula: C9H22O4P2S4
Exact mass: 383.9876164
SMILES: CCOP(=S)(OCC)SCSP(=S)(OCC)OCC
InChI: InChI=1S/C9H22O4P2S4/c1-5-10-14(16,11-6-2)18-9-19-15(17,12-7-3)13-8-4/h5-9H2,1-4H3
Instrument: Bruker maXis Impact
Instrument type: LC-ESI-QTOF
Ms type: MS2
Ion mode: POSITIVE
Ionization: ESI
Fragmentation mode: CID
Collision energy: 30 eV
Resolution: 35000
Column name: Acclaim RSLC C18 2.2um, 2.1x100mm, Thermo
Retention time: 12.473 min
Base peak: 384.9944
Precursor m/z: 384.9949
Precursor type: [M+H]+
m/z	relative intensity	assigned
114.9606	15	H4O3PS+
124.9811	62	C2H6O2PS+
126.9426	13	CH4OPS2+
142.9373	999	CH4O2PS2+
143.9383	19	CH4O2PS[33]S+
144.9328	52	CH4O2PS[34]S+
153.012	87	C4H10O2PS+
156.9527	5	C2H6O2PS2+
170.9685	249	C6H4O2PS+
171.0225	46	C4H12O3PS+
171.9707	10	C5[13]CH4O2PS+
172.964	16	C6H4O2P[34]S+
174.9093	16	CH4O2PS3+
184.9838	11	C4H10O2PS2+
198.9998	77	C5H12O2PS2+
200.9957	7	C5H12O2PS[34]S+
202.9404	12	C3H8O2PS3+
230.9724	11	C5H12O2PS3+
