Mass spectrum: Bisoprolol; LC-ESI-QTOF; MS2; CE: 40 eV; R=35000; [M+H]+
Name: Bisoprolol
Name: 1-(propan-2-ylamino)-3-[4-(2-propan-2-yloxyethoxymethyl)phenoxy]propan-2-ol
Formula: C18H31NO4
Exact mass: 325.2253085
SMILES: CC(C)NCC(O)COC1=CC=C(COCCOC(C)C)C=C1
InChI: InChI=1S/C18H31NO4/c1-14(2)19-11-17(20)13-23-18-7-5-16(6-8-18)12-21-9-10-22-15(3)4/h5-8,14-15,17,19-20H,9-13H2,1-4H3
Instrument: Bruker maXis Impact
Instrument type: LC-ESI-QTOF
Ms type: MS2
Ion mode: POSITIVE
Ionization: ESI
Fragmentation mode: CID
Collision energy: 40 eV
Resolution: 35000
Column name: Acclaim RSLC C18 2.2um, 2.1x100mm, Thermo
Retention time: 5.766 min
Base peak: 326.2336
Precursor m/z: 326.2326
Precursor type: [M+H]+
m/z	relative intensity	assigned
107.0485	9	C7H7O+
115.0535	59	C9H7+
116.1065	279	C6H14NO+
117.0697	37	C9H9+
117.1096	33	C3H17O4+
119.0485	257	C8H7O+
119.0859	31	C9H11+
120.0517	30	C7[13]CH7O+
121.0642	227	C8H9O+
122.0671	24	C7[13]CH9O+
123.0442	6	C7H7O2+
128.0613	20	C10H8+
129.069	37	C10H9+
131.0493	10	C9H7O+
131.0853	8	C10H11+
132.0542	10	C9H8O+
133.0639	999	C9H9O+
134.066	115	C8[13]CH9O+
135.0437	11	C8H7O2+
135.0703	12	C8H9NO+
135.0796	17	C9H11O+
137.059	106	C8H9O2+
138.0623	8	C7[13]CH9O2+
143.075	7	C10H9N+
144.0561	16	C10H8O+
144.0806	31	C10H10N+
145.0638	472	C10H9O+
146.0682	58	C9[13]CH9O+
147.0795	442	C10H11O+
148.0824	58	C9[13]CH11O+
149.0593	8	C9H9O2+
149.0951	30	C10H13O+
151.0743	8	C9H11O2+
155.0597	10	C7H9NO3+
161.095	27	C11H13O+
162.0904	236	C10H12NO+
163.0742	134	C10H11O2+
163.0931	35	C9[13]CH12NO+
164.0782	16	C9[13]CH11O2+
175.1112	8	C12H15O+
179.1043	12	C11H15O2+
204.1376	29	C10H20O4+
205.1407	5	C9[13]CH20O4+
326.2326	17	C18H32NO4+
327.2342	5	C17[13]CH32NO4+
