Mass spectrum: Thiophanate-methyl; LC-ESI-QTOF; MS2; CE: 30 eV; R=35000; [M+H]+
Name: Thiophanate-methyl
Name: CID 3085
Name: N`-methoxycarbonyl-N-[2-[(N-methoxycarbonyl-C-sulfanylcarbonimidoyl)amino]phenyl]carbamimidothioic acid
Formula: C12H14N4O4S2
Exact mass: 342.0456469
SMILES: COC(=O)NC(=S)NC1=CC=CC=C1NC(=S)NC(=O)OC
InChI: InChI=1S/C12H14N4O4S2/c1-19-11(17)15-9(21)13-7-5-3-4-6-8(7)14-10(22)16-12(18)20-2/h3-6H,1-2H3,(H2,13,15,17,21)(H2,14,16,18,22)
Instrument: Bruker maXis Impact
Instrument type: LC-ESI-QTOF
Ms type: MS2
Ion mode: POSITIVE
Ionization: ESI
Fragmentation mode: CID
Collision energy: 30 eV
Resolution: 35000
Column name: Acclaim RSLC C18 2.2um, 2.1x100mm, Thermo
Retention time: 6.953 min
Base peak: 224.0914
Precursor m/z: 343.0529
Precursor type: [M+H]+
m/z	relative intensity	assigned
118.0516	11	C7H6N2+
119.0581	5	C4H9NO3+
134.0705	9	C7H8N3+
135.0544	12	C7H7N2O+
149.0156	27	C7H5N2S+
151.0315	999	C7H7N2S+
152.0341	85	C6[13]CH7N2S+
153.0272	34	C7H7N2[34]S+
160.0493	61	C8H6N3O+
161.0516	6	C7[13]CH6N3O+
177.0112	9	H9N4O3S2+
190.0425	5	C9H8N3S+
192.0756	20	C9H10N3O2+
192.9884	16	C8H5N2S2+
194.0373	11	C8H8N3OS+
219.0319	14	C6H9N3O4S+
235.9941	13	C9H6N3OS2+
245.0135	6	C12H7NO3S+
