Mass spectrum: Prosulfuron; LC-ESI-QTOF; MS2; CE: 30 eV; R=35000; [M+H]+
Name: Prosulfuron
Name: 1-(4-methoxy-6-methyl-1,3,5-triazin-2-yl)-3-[2-(3,3,3-trifluoropropyl)phenyl]sulfonylurea
Formula: C15H16F3N5O4S
Exact mass: 419.0875097
SMILES: COC1=NC(C)=NC(NC(=O)NS(=O)(=O)C2=CC=CC=C2CCC(F)(F)F)=N1
InChI: InChI=1S/C15H16F3N5O4S/c1-9-19-12(22-14(20-9)27-2)21-13(24)23-28(25,26)11-6-4-3-5-10(11)7-8-15(16,17)18/h3-6H,7-8H2,1-2H3,(H2,19,20,21,22,23,24)
Instrument: Bruker maXis Impact
Instrument type: LC-ESI-QTOF
Ms type: MS2
Ion mode: POSITIVE
Ionization: ESI
Fragmentation mode: CID
Collision energy: 30 eV
Resolution: 35000
Column name: Acclaim RSLC C18 2.2um, 2.1x100mm, Thermo
Retention time: 8.759 min
Base peak: 420.094
Precursor m/z: 420.0948
Precursor type: [M+H]+
m/z	relative intensity	assigned
141.0759	999	C5H14FOS+
142.0781	71	C4[13]CH14FOS+
143.0796	7	C4H10F3N2+
166.0714	32	C6H9F3N2+
167.0551	866	C6H9F2O3+
168.0574	65	C5[13]CH9F2O3+
169.0596	5	C6H9F2O2[18]O+
173.0061	108	C10H5OS+
174.0078	14	C9[13]CH5OS+
175.0026	6	C10H5O[34]S+
215.0167	5	C15H2FN+
217.0114	22	C7H5F2N3OS+
237.0193	10	C9H8F3O2S+
377.0908	25	C14H16F3N4O3S+
