Mass spectrum: Ametryn; LC-ESI-QTOF; MS2; CE: 10 eV; R=35000; [M+H]+
Name: Ametryn
Name: 4-N-ethyl-6-methylsulfanyl-2-N-propan-2-yl-1,3,5-triazine-2,4-diamine
Formula: C9H17N5S
Exact mass: 227.1204665
SMILES: CCNC1=NC(SC)=NC(NC(C)C)=N1
InChI: InChI=1S/C9H17N5S/c1-5-10-7-12-8(11-6(2)3)14-9(13-7)15-4/h6H,5H2,1-4H3,(H2,10,11,12,13,14)
Instrument: Bruker maXis Impact
Instrument type: LC-ESI-QTOF
Ms type: MS2
Ion mode: POSITIVE
Ionization: ESI
Fragmentation mode: CID
Collision energy: 10 eV
Resolution: 35000
Column name: Acclaim RSLC C18 2.2um, 2.1x100mm, Thermo
Retention time: 9.146 min
Base peak: 228.129
Precursor m/z: 228.1277
Precursor type: [M+H]+
m/z	relative intensity	assigned
186.08	144	C9H8N5+
187.0818	7	C8[13]CH8N5+
228.1284	999	C9H18N5S+
