Mass spectrum: Cyromazine; LC-ESI-QTOF; MS2; CE: Ramp 16.8-25.2 eV; R=35000; [M+H]+
Name: Cyromazine
Name: 2-N-cyclopropyl-1,3,5-triazine-2,4,6-triamine
Formula: C6H10N6
Exact mass: 166.0966943
SMILES: NC1=NC(NC2CC2)=NC(N)=N1
InChI: InChI=1S/C6H10N6/c7-4-10-5(8)12-6(11-4)9-3-1-2-3/h3H,1-2H2,(H5,7,8,9,10,11,12)
Instrument: Bruker maXis Impact
Instrument type: LC-ESI-QTOF
Ms type: MS2
Ion mode: POSITIVE
Ionization: ESI
Fragmentation mode: CID
Collision energy: Ramp 16.8-25.2 eV
Resolution: 35000
Column name: Acclaim RSLC C18 2.2um, 2.1x100mm, Thermo
Retention time: 2.598 min
Base peak: 167.1032
Precursor m/z: 167.104
Precursor type: [M+H]+
m/z	relative intensity	assigned
56.0489	44	C3H6N+
58.0646	58	C3H8N+
60.0551	284	CH6N3+
68.024	76	C2H2N3+
70.0396	8	C2H4N3+
81.0442	11	C4H5N2+
83.0604	153	C4H7N2+
84.0631	6	C3[13]CH7N2+
85.0509	365	C2H5N4+
86.0539	8	C[13]CH5N4+
100.0874	6	C4H10N3+
108.0569	41	C5H6N3+
110.0473	9	C3H4N5+
125.0819	161	C5H9N4+
126.0848	7	C4[13]CH9N4+
127.0713	9	C3H7N6+
139.072	43	C4H7N6+
140.092	9	C5H10N5+
150.0764	12	C6H8N5+
151.0718	5	C5H7N6+
167.1032	999	C6H11N6+
168.1058	89	C5[13]CH11N6+
