Mass spectrum: Metazachlor BH 479-9; LC-ESI-QTOF; MS2; CE: 30 eV; R=35000; [M+H]+
Name: Metazachlor BH 479-9
Formula: C16H19N3O4S
Exact mass: 349.1096271
SMILES: CC1=CC=CC(C)=C1N(CN1C=CC=N1)C(=O)CS(=O)CC(O)=O
InChI: InChI=1S/C16H19N3O4S/c1-12-5-3-6-13(2)16(12)19(11-18-8-4-7-17-18)14(20)9-24(23)10-15(21)22/h3-8H,9-11H2,1-2H3,(H,21,22)
Instrument: Bruker maXis Impact
Instrument type: LC-ESI-QTOF
Ms type: MS2
Ion mode: POSITIVE
Ionization: ESI
Fragmentation mode: CID
Collision energy: 30 eV
Resolution: 35000
Column name: Acclaim RSLC C18 2.2um, 2.1x100mm, Thermo
Retention time: 4.892 min
Base peak: 350.1164
Precursor m/z: 350.1169
Precursor type: [M+H]+
m/z	relative intensity	assigned
130.9783	12	C2HN3O2S+
132.0797	7	CH14N3O2S+
133.0871	10	CH15N3O2S+
134.0952	999	C6H14O3+
135.0985	100	C5[13]CH14O3+
148.9885	47	C2H3N3O3S+
160.0738	5	C7H12O4+
175.0975	20	C8H15O4+
