Mass spectrum: Oxadiazone; LC-ESI-QTOF; MS2; CE: 30 eV; R=35000; [M+H]+
Name: Oxadiazone
Name: Oxadiazon
Name: 5-tert-butyl-3-(2,4-dichloro-5-propan-2-yloxyphenyl)-1,3,4-oxadiazol-2-one
Formula: C15H18Cl2N2O3
Exact mass: 344.0694478
SMILES: CC(C)OC1=CC(N2N=C(OC2=O)C(C)(C)C)=C(Cl)C=C1Cl
InChI: InChI=1S/C15H18Cl2N2O3/c1-8(2)21-12-7-11(9(16)6-10(12)17)19-14(20)22-13(18-19)15(3,4)5/h6-8H,1-5H3
Instrument: Bruker maXis Impact
Instrument type: LC-ESI-QTOF
Ms type: MS2
Ion mode: POSITIVE
Ionization: ESI
Fragmentation mode: CID
Collision energy: 30 eV
Resolution: 35000
Column name: Acclaim RSLC C18 2.2um, 2.1x100mm, Thermo
Retention time: 12.372 min
Base peak: 362.1029
Precursor m/z: 345.0767
Precursor type: [M+H]+
m/z	relative intensity	assigned
128.996	14	C8HO2+
139.0033	9	C3H6ClNO3+
139.9888	11	C9O2+
140.9727	19	C6H2ClO2+
147.971	22	C5H4Cl2N+
148.9548	62	C5H3Cl2O+
149.9682	14	C5H4Cl[37]ClN+
150.9512	39	C5H3Cl[37]ClO+
154.9971	8	Cl2H9N2O3+
155.9836	25	C3H6Cl2N2O+
157.9797	14	C3H6Cl[37]ClN2O+
173.9492	35	C6H2Cl2NO+
175.9461	23	C6H2Cl[37]ClNO+
175.9659	43	C9HClO2+
176.9492	786	C6H3Cl2O2+
177.9525	56	C5[13]CH3Cl2O2+
178.9464	443	C6H3Cl[37]ClO2+
179.9492	17	C4H2Cl2N2O2+
182.9943	41	C10HNO3+
183.9782	231	C7H3ClNO3+
184.002	16	C10H2NO3+
184.9862	894	C7H4ClNO3+
185.9776	61	C7H3[37]ClNO3+
185.9895	92	C6[13]CH4ClNO3+
186.9828	203	C7H4[37]ClNO3+
187.9865	11	C4H8Cl2NO3+
195.0685	8	C10H12ClN2+
201.9454	74	C7H2Cl2NO2+
202.9501	28	C10ClO3+
202.9743	15	C10H2ClNO2+
203.9412	43	C7H2Cl[37]ClNO2+
204.9481	13	C10[37]ClO3+
207.0314	8	C13H5NO2+
218.9705	16	C10H2ClNO3+
219.9554	999	C7H4Cl2NO3+
220.959	108	C6[13]CH4Cl2NO3+
221.9523	543	C7H4Cl[37]ClNO3+
222.9554	30	C13ClO2+
223.0625	44	C14H9NO2+
223.9527	9	C9H2Cl2N2O+
224.0668	13	C5H18Cl2N2O3+
225.0417	85	C13H7NO3+
226.0423	24	C14H9ClN+
233.0376	13	C10H13Cl2NO+
237.0783	60	C15H11NO2+
238.0808	14	C14[13]CH11NO2+
239.0733	9	C9H17Cl2N2O+
246.964	9	C8H5Cl2N2O3+
265.0184	9	C14H11Cl2O+
266.9993	15	C13H9Cl2O2+
281.0508	71	C15H15Cl2O+
282.0514	22	C10H16Cl2N2O3+
283.0293	74	C15H8ClN2O2+
284.0288	15	C14[13]CH8ClN2O2+
285.0229	9	C15H8[37]ClN2O2+
285.0316	8	C15H8[37]ClN2O2+
299.0608	917	C15H17Cl2O2+
300.0618	261	C15H18Cl2O2+
301.0592	103	C14H17Cl2NO2+
303.0284	88	C12H13Cl2N2O3+
304.0334	17	C11[13]CH13Cl2N2O3+
305.0263	58	C12H13Cl[37]ClN2O3+
345.0719	9	C15H19Cl2N2O3+
