Mass spectrum: 3,3-pentamethylene-4-butyrolactam; LC-ESI-QTOF; MS2; CE: 10 eV; R=35000; [M+H]+
Name: 3,3-pentamethylene-4-butyrolactam
Name: 2-azaspiro[4.5]decan-3-one
Formula: C9H15NO
Exact mass: 153.1153641
SMILES: O=C1CC2(CN1)CCCCC2
InChI: InChI=1S/C9H15NO/c11-8-6-9(7-10-8)4-2-1-3-5-9/h1-7H2,(H,10,11)
Instrument: Bruker maXis Impact
Instrument type: LC-ESI-QTOF
Ms type: MS2
Ion mode: POSITIVE
Ionization: ESI
Fragmentation mode: CID
Collision energy: 10 eV
Resolution: 35000
Column name: Acclaim RSLC C18 2.2um, 2.1x100mm, Thermo
Retention time: 6.636 min
Base peak: 154.1215
Precursor m/z: 154.1226
Precursor type: [M+H]+
m/z	relative intensity	assigned
154.1219	999	C9H16NO+
155.1249	101	C8[13]CH16NO+
156.1273	5	C7[13]C2H16NO+
