Mass spectrum: Ethyl azinphos; LC-ESI-QTOF; MS2; CE: 50 eV; R=35000; [M+H]+
Name: Ethyl azinphos
Name: Azinphos-ethyl
Name: 3-(diethoxyphosphinothioylsulfanylmethyl)-1,2,3-benzotriazin-4-one
Formula: C12H16N3O3PS2
Exact mass: 345.0370700
SMILES: CCOP(=S)(OCC)SCN1N=NC2=CC=CC=C2C1=O
InChI: InChI=1S/C12H16N3O3PS2/c1-3-17-19(20,18-4-2)21-9-15-12(16)10-7-5-6-8-11(10)13-14-15/h5-8H,3-4,9H2,1-2H3
Instrument: Bruker maXis Impact
Instrument type: LC-ESI-QTOF
Ms type: MS2
Ion mode: POSITIVE
Ionization: ESI
Fragmentation mode: CID
Collision energy: 50 eV
Resolution: 35000
Column name: Acclaim RSLC C18 2.2um, 2.1x100mm, Thermo
Retention time: 10.225 min
Base peak: 346.0441
Precursor m/z: 346.0443
Precursor type: [M+H]+
m/z	relative intensity	assigned
109.0104	9	C6H5S+
120.0436	12	C7H6NO+
124.9818	11	C2H6O2PS+
126.9426	11	CH4OPS2+
132.0435	999	C8H6NO+
133.0466	112	C7[13]CH6NO+
135.9975	33	C7H4OS+
136.0195	7	H11NO3PS+
137.0043	375	C7H5OS+
138.0078	38	C6[13]CH5OS+
139.0008	21	C7H5O[34]S+
142.9375	168	CH4O2PS2+
144.934	11	CH4O2PS[34]S+
148.0188	13	C5H8O3S+
150.0533	37	C2H17NPS2+
152.9808	25	H10O3PS2+
152.9987	58	C5H3N3OS+
154.9704	15	C2H5NO3S2+
167.9689	13	C5H2N3S2+
168.9758	10	C5H3N3S2+
170.9472	30	C6H4PS2+
170.9723	7	C4HN3O3S+
172.9817	23	C6H6O2PS+
214.9349	10	C10O2PS+
