Mass spectrum: Phenazone; LC-ESI-QTOF; MS2; CE: 40 eV; R=35000; [M+H]+
Name: Phenazone
Name: Antipyrine
Name: 1,5-dimethyl-2-phenylpyrazol-3-one
Formula: C11H12N2O
Exact mass: 188.0949630
SMILES: CN1N(C(=O)C=C1C)C1=CC=CC=C1
InChI: InChI=1S/C11H12N2O/c1-9-8-11(14)13(12(9)2)10-6-4-3-5-7-10/h3-8H,1-2H3
Instrument: Bruker maXis Impact
Instrument type: LC-ESI-QTOF
Ms type: MS2
Ion mode: POSITIVE
Ionization: ESI
Fragmentation mode: CID
Collision energy: 40 eV
Resolution: 35000
Column name: Acclaim RSLC C18 2.2um, 2.1x100mm, Thermo
Retention time: 4.713 min
Base peak: 189.1018
Precursor m/z: 189.1022
Precursor type: [M+H]+
m/z	relative intensity	assigned
115.0537	272	C9H7+
116.0573	27	C8[13]CH7+
117.0567	204	C8H7N+
117.0676	92	C9H9+
118.0638	208	C8H8N+
119.0711	31	C8H9N+
120.0798	100	C8H10N+
121.0759	8	C7H9N2+
121.0833	11	C7[13]CH10N+
127.0532	10	C10H7+
128.0484	123	C9H6N+
129.0561	212	C9H7N+
130.064	999	C9H8N+
131.0595	794	C8H7N2+
132.0428	56	C8H6NO+
132.0667	376	C8H8N2+
132.0777	119	C9H10N+
133.0503	107	C8H7NO+
133.0732	57	C8H9N2+
134.0457	59	C7H6N2O+
134.0955	35	C9H12N+
135.0524	8	C6[13]CH6N2O+
142.0633	15	C10H8N+
143.0713	107	C10H9N+
144.0795	274	C10H10N+
145.0747	567	C9H9N2+
146.0585	56	C9H8NO+
146.0822	214	C9H10N2+
147.09	410	C9H11N2+
148.0738	11	C9H10NO+
148.0935	35	C8[13]CH11N2+
149.0684	37	C8H9N2O+
155.0587	36	C10H7N2+
156.0424	22	C10H6NO+
156.0653	10	C10H8N2+
157.0514	60	C10H7NO+
158.0448	15	C9H6N2O+
158.0576	25	C10H8NO+
159.0538	49	C9H7N2O+
159.091	47	C10H11N2+
160.0573	7	C8[13]CH7N2O+
160.0981	14	C10H12N2+
161.106	33	C10H13N2+
171.0904	13	C11H11N2+
172.0751	20	C11H10NO+
172.0969	8	C11H12N2+
173.0693	91	C10H9N2O+
174.0768	138	C10H10N2O+
175.0795	12	C9[13]CH10N2O+
189.1005	104	C11H13N2O+
190.1042	19	C10[13]CH13N2O+
