Mass spectrum: Methomyl; LC-ESI-QTOF; MS2; CE: 10 eV; R=35000; [M+H]+
Name: Methomyl
Name: Lannate
Name: methyl (1E)-N-(methylcarbamoyloxy)ethanimidothioate
Formula: C5H10N2O2S
Exact mass: 162.0462986
SMILES: CNC(=O)O\N=C(/C)SC
InChI: InChI=1S/C5H10N2O2S/c1-4(10-3)7-9-5(8)6-2/h1-3H3,(H,6,8)/b7-4+
Instrument: Bruker maXis Impact
Instrument type: LC-ESI-QTOF
Ms type: MS2
Ion mode: POSITIVE
Ionization: ESI
Fragmentation mode: CID
Collision energy: 10 eV
Resolution: 35000
Column name: Acclaim RSLC C18 2.2um, 2.1x100mm, Thermo
Retention time: 4.077 min
Base peak: 163.0526
Precursor m/z: 163.0536
Precursor type: [M+H]+
m/z	relative intensity	assigned
106.0308	41	C3H8NOS+
122.0256	132	C3H8NO2S+
163.0525	999	C5H11N2O2S+
164.0547	71	C4[13]CH11N2O2S+
165.0499	65	C5H11N2O2[34]S+
