Mass spectrum: Phenazone; LC-ESI-QTOF; MS2; CE: 30 eV; R=35000; [M+H]+
Name: Phenazone
Name: Antipyrine
Name: 1,5-dimethyl-2-phenylpyrazol-3-one
Formula: C11H12N2O
Exact mass: 188.0949630
SMILES: CN1N(C(=O)C=C1C)C1=CC=CC=C1
InChI: InChI=1S/C11H12N2O/c1-9-8-11(14)13(12(9)2)10-6-4-3-5-7-10/h3-8H,1-2H3
Instrument: Bruker maXis Impact
Instrument type: LC-ESI-QTOF
Ms type: MS2
Ion mode: POSITIVE
Ionization: ESI
Fragmentation mode: CID
Collision energy: 30 eV
Resolution: 35000
Column name: Acclaim RSLC C18 2.2um, 2.1x100mm, Thermo
Retention time: 4.712 min
Base peak: 264.1963
Precursor m/z: 189.1022
Precursor type: [M+H]+
m/z	relative intensity	assigned
115.0534	94	C9H7+
116.059	15	C8[13]CH7+
117.0565	82	C8H7N+
117.0688	80	C9H9+
118.0645	127	C8H8N+
119.0698	15	C7[13]CH8N+
120.08	115	C8H10N+
121.0824	12	C7[13]CH10N+
128.0488	31	C9H6N+
129.0561	66	C9H7N+
130.0642	448	C9H8N+
131.0598	212	C8H7N2+
131.0715	301	C9H9N+
132.0435	21	C8H6NO+
132.0672	145	C8H8N2+
132.0788	142	C9H10N+
133.0511	77	C8H7NO+
133.0751	38	C8H9N2+
134.0466	21	C7H6N2O+
134.0767	5	C7[13]CH9N2+
134.0953	41	C9H12N+
135.0545	10	C7H7N2O+
142.0631	6	C10H8N+
143.0713	51	C10H9N+
144.0799	300	C10H10N+
145.0749	194	C9H9N2+
146.0825	332	C9H10N2+
147.0906	586	C9H11N2+
148.0739	16	C9H10NO+
148.0938	60	C8[13]CH11N2+
149.0697	44	C8H9N2O+
155.0595	18	C10H7N2+
156.0426	10	C10H6NO+
156.0681	9	C10H8N2+
157.0511	69	C10H7NO+
158.0579	29	C10H8NO+
159.054	37	C9H7N2O+
159.0904	36	C10H11N2+
160.0565	5	C8[13]CH7N2O+
160.0974	23	C10H12N2+
161.1061	134	C10H13N2+
162.0902	6	C10H12NO+
162.109	15	C9[13]CH13N2+
171.0904	8	C11H11N2+
172.0742	55	C11H10NO+
173.0701	57	C10H9N2O+
174.0778	279	C10H10N2O+
175.0808	27	C9[13]CH10N2O+
189.1015	999	C11H13N2O+
190.1044	132	C10[13]CH13N2O+
191.1074	8	C9[13]C2H13N2O+
