Mass spectrum: Amantadine; LC-ESI-QTOF; MS2; CE: Ramp 16.3-24.4 eV; R=35000; [M+H]+
Name: Amantadine
Name: adamantan-1-amine
Formula: C10H17N
Exact mass: 151.1360995
SMILES: NC12CC3CC(CC(C3)C1)C2
InChI: InChI=1S/C10H17N/c11-10-4-7-1-8(5-10)3-9(2-7)6-10/h7-9H,1-6,11H2
Instrument: Bruker maXis Impact
Instrument type: LC-ESI-QTOF
Ms type: MS2
Ion mode: POSITIVE
Ionization: ESI
Fragmentation mode: CID
Collision energy: Ramp 16.3-24.4 eV
Resolution: 35000
Column name: Acclaim RSLC C18 2.2um, 2.1x100mm, Thermo
Retention time: 4.717 min
Base peak: 189.1023
Precursor m/z: 152.1434
Precursor type: [M+H]+
m/z	relative intensity	assigned
67.0538	16	C5H7+
79.0542	36	C6H7+
81.0699	8	C6H9+
93.0705	33	C7H9+
107.0865	14	C8H11+
135.1164	999	C10H15+
136.1198	134	C9[13]CH15+
137.124	5	C8[13]C2H15+
152.143	227	C10H18N+
153.1457	26	C9[13]CH18N+
