Mass spectrum: Phenazone; LC-ESI-QTOF; MS2; CE: 20 eV; R=35000; [M+H]+
Name: Phenazone
Name: Antipyrine
Name: 1,5-dimethyl-2-phenylpyrazol-3-one
Formula: C11H12N2O
Exact mass: 188.0949630
SMILES: CN1N(C(=O)C=C1C)C1=CC=CC=C1
InChI: InChI=1S/C11H12N2O/c1-9-8-11(14)13(12(9)2)10-6-4-3-5-7-10/h3-8H,1-2H3
Instrument: Bruker maXis Impact
Instrument type: LC-ESI-QTOF
Ms type: MS2
Ion mode: POSITIVE
Ionization: ESI
Fragmentation mode: CID
Collision energy: 20 eV
Resolution: 35000
Column name: Acclaim RSLC C18 2.2um, 2.1x100mm, Thermo
Retention time: 4.687 min
Base peak: 189.1017
Precursor m/z: 189.1022
Precursor type: [M+H]+
m/z	relative intensity	assigned
118.0643	9	C8H8N+
120.0798	11	C8H10N+
130.0641	28	C9H8N+
131.0717	30	C9H9N+
132.0792	17	C9H10N+
144.0798	34	C10H10N+
145.0638	12	C10H9O+
146.0827	35	C9H10N2+
147.0905	62	C9H11N2+
148.0938	5	C8[13]CH11N2+
149.0696	5	C8H9N2O+
161.1062	51	C10H13N2+
172.0742	10	C11H10NO+
174.0776	41	C10H10N2O+
189.1016	999	C11H13N2O+
190.1047	120	C10[13]CH13N2O+
191.1075	6	C9[13]C2H13N2O+
