Mass spectrum: Parathion-methyl; LC-ESI-QTOF; MS2; CE: 20 eV; R=35000; [M+H]+
Name: Parathion-methyl
Name: Methyl parathion
Name: dimethoxy-(4-nitrophenoxy)-sulfanylidene-lambda5-phosphane
Formula: C8H10NO5PS
Exact mass: 263.0017300
SMILES: COP(=S)(OC)OC1=CC=C(C=C1)[N+]([O-])=O
InChI: InChI=1S/C8H10NO5PS/c1-12-15(16,13-2)14-8-5-3-7(4-6-8)9(10)11/h3-6H,1-2H3
Instrument: Bruker maXis Impact
Instrument type: LC-ESI-QTOF
Ms type: MS2
Ion mode: POSITIVE
Ionization: ESI
Fragmentation mode: CID
Collision energy: 20 eV
Resolution: 35000
Column name: Acclaim RSLC C18 2.2um, 2.1x100mm, Thermo
Retention time: 9.312 min
Base peak: 228.1276
Precursor m/z: 264.009
Precursor type: [M+H]+
m/z	relative intensity	assigned
123.0305	68	C6H5NO2+
124.9811	286	C2H6O2PS+
142.9915	129	C8H2NP+
144.9884	40	C5H6OPS+
185.9898	149	C7H7O2PS+
199.9552	61	C6H3NO3PS+
218.0174	39	C8H11O3PS+
231.9815	92	C7H7NO4PS+
249.9925	999	C7H9NO5PS+
250.997	76	C6[13]CH9NO5PS+
264.0079	288	C8H11NO5PS+
