Mass spectrum: Phenazone; LC-ESI-QTOF; MS2; CE: Ramp 17.6-26.4 eV; R=35000; [M+H]+
Name: Phenazone
Name: Antipyrine
Name: 1,5-dimethyl-2-phenylpyrazol-3-one
Formula: C11H12N2O
Exact mass: 188.0949630
SMILES: CN1N(C(=O)C=C1C)C1=CC=CC=C1
InChI: InChI=1S/C11H12N2O/c1-9-8-11(14)13(12(9)2)10-6-4-3-5-7-10/h3-8H,1-2H3
Instrument: Bruker maXis Impact
Instrument type: LC-ESI-QTOF
Ms type: MS2
Ion mode: POSITIVE
Ionization: ESI
Fragmentation mode: CID
Collision energy: Ramp 17.6-26.4 eV
Resolution: 35000
Column name: Acclaim RSLC C18 2.2um, 2.1x100mm, Thermo
Retention time: 4.717 min
Base peak: 189.1023
Precursor m/z: 189.1022
Precursor type: [M+H]+
m/z	relative intensity	assigned
56.0492	107	C3H6N+
58.0648	109	C3H8N+
65.0381	14	C5H5+
68.0489	5	C4H6N+
69.0571	5	C4H7N+
70.0646	7	C4H8N+
77.0384	7	C6H5+
81.0444	7	C4H5N2+
91.0548	23	C7H7+
92.0496	5	C6H6N+
95.0495	12	C6H7O+
95.0609	8	C5H7N2+
96.0449	8	C5H6NO+
96.0687	42	C5H8N2+
98.0607	16	C5H8NO+
103.0552	5	C8H7+
104.0504	77	C7H6N+
105.0453	7	C6H5N2+
106.0664	50	C7H8N+
115.0546	5	C9H7+
117.0575	9	C8H7N+
117.0703	17	C9H9+
118.0658	28	C8H8N+
120.081	26	C8H10N+
130.0649	50	C9H8N+
131.06	9	C8H7N2+
131.0728	52	C9H9N+
132.0675	7	C8H8N2+
132.0805	23	C9H10N+
133.0517	7	C8H7NO+
133.0758	7	C8H9N2+
134.0965	5	C9H12N+
144.0803	46	C10H10N+
145.0644	19	C10H9O+
145.0741	12	C9H9N2+
146.0835	48	C9H10N2+
147.0911	94	C9H11N2+
148.075	5	C9H10NO+
148.0944	6	C8[13]CH11N2+
149.0705	6	C8H9N2O+
157.0516	6	C10H7NO+
161.1069	56	C10H13N2+
162.1103	5	C9[13]CH13N2+
172.0753	12	C11H10NO+
174.0782	53	C10H10N2O+
189.1023	999	C11H13N2O+
190.1053	118	C10[13]CH13N2O+
191.108	6	C9[13]C2H13N2O+
