Mass spectrum: Prochloraz BTS44596; LC-ESI-QTOF; MS2; CE: Ramp 22.7-34.0 eV; R=35000; [M+H]+
Name: Prochloraz BTS44596
Name: N-[propyl-[2-(2,4,6-trichlorophenoxy)ethyl]carbamoyl]formamide
Formula: C13H15Cl3N2O3
Exact mass: 352.0148254
SMILES: CCCN(CCOC1=C(Cl)C=C(Cl)C=C1Cl)C(=O)NC=O
InChI: InChI=1S/C13H15Cl3N2O3/c1-2-3-18(13(20)17-8-19)4-5-21-12-10(15)6-9(14)7-11(12)16/h6-8H,2-5H2,1H3,(H,17,19,20)
Instrument: Bruker maXis Impact
Instrument type: LC-ESI-QTOF
Ms type: MS2
Ion mode: POSITIVE
Ionization: ESI
Fragmentation mode: CID
Collision energy: Ramp 22.7-34.0 eV
Resolution: 35000
Column name: Acclaim RSLC C18 2.2um, 2.1x100mm, Thermo
Retention time: 11.106 min
Base peak: 102.1283
Precursor m/z: 353.0221
Precursor type: [M+H]+
m/z	relative intensity	assigned
56.0487	35	C3H6N+
57.0571	15	C3H7N+
60.0439	47	C2H6NO+
70.028	410	C3H4NO+
70.0644	125	C4H8N+
71.0318	15	C2[13]CH4NO+
85.0884	56	C5H11N+
88.0392	11	C3H6NO2+
113.0831	7	C6H11NO+
129.1006	21	C6H13N2O+
138.009	5	CH10Cl2NO2+
157.0968	12	C7H13N2O2+
158.9733	14	CH10Cl3O2+
159.9797	8	C5H3ClNO3+
166.0046	9	C2H10Cl2NO3+
166.9198	6	C5H2Cl3+
167.0118	14	C2H11Cl2NO3+
168.0003	7	C2H10Cl[37]ClNO3+
173.9878	11	C7H6Cl2N+
174.97	34	C2H5Cl2N2O3+
175.9749	7	C2H6Cl2N2O3+
175.9851	9	C7H6Cl[37]ClN+
176.9657	16	C2H5Cl[37]ClN2O3+
179.9276	5	C6H3Cl3+
187.9778	10	C2H11Cl3O3+
189.9743	12	C2H11Cl2[37]ClO3+
194.9147	78	C6H2Cl3O+
194.9492	11	C5H3Cl2NO3+
195.9188	6	C5[13]CH2Cl3O+
196.9122	69	C6H2Cl2[37]ClO+
196.9302	19	C6H4Cl3O+
196.9468	7	C5H3Cl[37]ClNO3+
198.9119	5	C5H2Cl3O2+
198.9281	18	C6H4Cl2[37]ClO+
201.9802	74	C11H3ClO2+
202.9868	10	C10[13]CH3ClO2+
203.9779	30	C11H3[37]ClO2+
208.0502	6	C5H16Cl2NO3+
209.0597	11	C8H15Cl2N2+
211.0548	6	C8H15Cl[37]ClN2+
215.9951	7	C13N2O2+
219.9911	8	C5H11Cl3N2O+
221.9873	8	C5H11Cl2[37]ClN2O+
222.9466	137	C9HCl2N2O+
223.95	16	C8[13]CHCl2N2O+
224.9434	138	C9HCl[37]ClN2O+
225.9483	8	C6H5Cl3N2O+
237.9574	23	C8H7Cl3NO+
238.9601	6	C12ClN2O2+
239.9544	27	C8H7Cl2[37]ClNO+
239.973	178	C8H9Cl3NO+
240.977	13	C7[13]CH9Cl3NO+
241.9701	219	C8H9Cl2[37]ClNO+
242.976	10	C8H10Cl3O2+
243.966	7	C11HClN2O3+
244.0281	83	C11H12Cl2NO+
245.0353	39	C11H13Cl2NO+
246.025	31	C11H12Cl[37]ClNO+
247.0327	17	C11H13Cl[37]ClNO+
265.9525	219	C9H7Cl3NO2+
266.9545	20	C8[13]CH7Cl3NO2+
267.9493	205	C9H7Cl2[37]ClNO2+
268.9529	15	C9H8Cl3O3+
269.9479	12	C8H7Cl3NO3+
280.0038	94	C11H13Cl3NO+
281.0083	11	C10[13]CH13Cl3NO+
282.0027	85	C11H13Cl2[37]ClNO+
283.0083	10	C11H14Cl3O2+
283.9626	68	C9H9Cl3NO3+
283.9984	6	C13H10Cl2O3+
284.0168	12	C11H15Cl3O2+
285.9599	49	C9H9Cl2[37]ClNO3+
307.9995	999	C12H13Cl3NO2+
309.003	167	C11[13]CH13Cl3NO2+
309.9966	850	C12H13Cl2[37]ClNO2+
310.9988	92	C13H9Cl2N2O3+
311.9929	58	C11H13Cl3NO3+
353.0228	8	C13H16Cl3N2O3+
355.0191	6	C13H16Cl2[37]ClN2O3+
