Mass spectrum: Kresoxim-methyl; LC-ESI-QTOF; MS2; CE: Ramp 21.9-32.8 eV; R=35000; [M+H]+
Name: Kresoxim-methyl
Name: Methyl E-2-methoxyimino-2-[(2-methylphenoxymethyl)phenyl]acetate
Name: methyl (2Z)-2-methoxyimino-2-[2-[(2-methylphenoxy)methyl]phenyl]acetate
Formula: C18H19NO4
Exact mass: 313.1314081
SMILES: CO\N=C(/C(=O)OC)C1=C(COC2=C(C)C=CC=C2)C=CC=C1
InChI: InChI=1S/C18H19NO4/c1-13-8-4-7-11-16(13)23-12-14-9-5-6-10-15(14)17(19-22-3)18(20)21-2/h4-11H,12H2,1-3H3/b19-17-
Instrument: Bruker maXis Impact
Instrument type: LC-ESI-QTOF
Ms type: MS2
Ion mode: POSITIVE
Ionization: ESI
Fragmentation mode: CID
Collision energy: Ramp 21.9-32.8 eV
Resolution: 35000
Column name: Acclaim RSLC C18 2.2um, 2.1x100mm, Thermo
Retention time: 10.805 min
Base peak: 314.1386
Precursor m/z: 314.1387
Precursor type: [M+H]+
m/z	relative intensity	assigned
59.0123	6	C2H3O2+
79.0535	15	C6H7+
89.0382	20	C7H5+
91.0544	65	C7H7+
103.0553	6	C8H7+
105.0709	55	C8H9+
106.0742	5	C7[13]CH9+
115.0541	8	C9H7+
116.0493	389	C8H6N+
117.0561	88	C8H7N+
118.0646	154	C8H8N+
119.0487	24	C8H7O+
119.0694	19	C7[13]CH8N+
121.0637	18	C8H9O+
128.0507	6	C9H6N+
130.0643	111	C9H8N+
131.0723	999	C9H9N+
132.0797	624	C6H12O3+
133.0829	66	C5[13]CH12O3+
134.0597	353	C8H8NO+
135.0431	29	C8H7O2+
135.0627	33	C7[13]CH8NO+
146.0591	305	C9H8NO+
147.0646	40	C8[13]CH8NO+
148.0733	8	C6H12O4+
152.0617	5	C12H8+
153.0687	6	C12H9+
162.0905	151	C10H12NO+
163.0939	18	C9[13]CH12NO+
165.0685	18	C13H9+
166.0655	10	C12H8N+
166.0745	15	C13H10+
167.0841	24	C13H11+
168.0787	16	C9H12O3+
177.0696	16	C14H9+
178.0763	54	C14H10+
179.0842	79	C14H11+
180.0797	83	C13H10N+
181.0616	5	C13H9O+
181.0873	18	C12[13]CH10N+
181.1004	13	C14H13+
182.0953	7	C13H12N+
191.0851	15	C15H11+
192.0819	5	C14H10N+
193.089	25	C14H11N+
193.0995	34	C15H13+
194.0722	46	C14H10O+
194.0954	233	C14H12N+
195.079	37	C14H11O+
195.102	65	C14H13N+
196.08	7	C13[13]CH11O+
196.1085	14	C13[13]CH13N+
203.0728	10	C15H9N+
204.0798	56	C15H10N+
205.0842	19	C12H13O3+
206.0598	8	C14H8NO+
206.0799	47	C11H12NO3+
207.0679	70	C14H9NO+
207.0772	71	C15H11O+
207.1024	26	C12H15O3+
208.0866	187	C15H12O+
209.0916	49	C14[13]CH12O+
210.0947	9	C14H12NO+
210.1265	13	C15H16N+
211.0738	16	C14H11O2+
220.0747	8	C15H10NO+
220.1107	6	C16H14N+
221.0836	10	C15H11NO+
221.1156	8	C13H17O3+
222.0907	830	C15H12NO+
223.0979	669	C15H13NO+
224.1029	113	C14[13]CH13NO+
225.0904	16	C15H13O2+
225.102	9	C13[13]C2H13NO+
232.0794	10	C16H10NO+
234.0913	5	C16H12NO+
235.0745	347	C16H11O2+
236.0788	65	C15[13]CH11O2+
237.0807	6	C14[13]C2H11O2+
237.1138	21	C16H15NO+
238.1224	123	C16H16NO+
239.125	21	C15[13]CH16NO+
250.0854	44	C16H12NO2+
251.0902	10	C15[13]CH12NO2+
254.117	87	C16H16NO2+
255.1192	18	C15[13]CH16NO2+
267.1003	23	C17H15O3+
268.103	8	C16H14NO3+
282.1123	41	C17H16NO3+
283.1153	7	C16[13]CH16NO3+
