Mass spectrum: Memantine; LC-ESI-QTOF; MS2; CE: 40 eV; R=35000; [M+H]+
Name: Memantine
Name: 3,5-dimethyladamantan-1-amine
Formula: C12H21N
Exact mass: 179.1673997
SMILES: CC12CC3CC(C)(C1)CC(N)(C3)C2
InChI: InChI=1S/C12H21N/c1-10-3-9-4-11(2,6-10)8-12(13,5-9)7-10/h9H,3-8,13H2,1-2H3
Instrument: Bruker maXis Impact
Instrument type: LC-ESI-QTOF
Ms type: MS2
Ion mode: POSITIVE
Ionization: ESI
Fragmentation mode: CID
Collision energy: 40 eV
Resolution: 35000
Column name: Acclaim RSLC C18 2.2um, 2.1x100mm, Thermo
Retention time: 6.720 min
Base peak: 180.1741
Precursor m/z: 180.1747
Precursor type: [M+H]+
m/z	relative intensity	assigned
107.0869	19	C8H11+
117.0703	19	C9H9+
119.0853	98	C9H11+
121.1003	498	C9H13+
122.1039	49	C8[13]CH13+
133.0998	58	C10H13+
135.1161	229	C10H15+
161.1289	22	C12H17+
163.1471	999	C12H19+
164.1499	129	C11[13]CH19+
