Mass spectrum: Amantadine; LC-ESI-QTOF; MS2; CE: 10 eV; R=35000; [M+H]+
Name: Amantadine
Name: adamantan-1-amine
Formula: C10H17N
Exact mass: 151.1360995
SMILES: NC12CC3CC(CC(C3)C1)C2
InChI: InChI=1S/C10H17N/c11-10-4-7-1-8(5-10)3-9(2-7)6-10/h7-9H,1-6,11H2
Instrument: Bruker maXis Impact
Instrument type: LC-ESI-QTOF
Ms type: MS2
Ion mode: POSITIVE
Ionization: ESI
Fragmentation mode: CID
Collision energy: 10 eV
Resolution: 35000
Column name: Acclaim RSLC C18 2.2um, 2.1x100mm, Thermo
Retention time: 4.679 min
Base peak: 189.1017
Precursor m/z: 152.1434
Precursor type: [M+H]+
m/z	relative intensity	assigned
135.116	419	C10H15+
136.1188	46	C9[13]CH15+
152.1423	999	C10H18N+
153.1455	81	C9[13]CH18N+
154.1483	5	C8[13]C2H18N+
