Mass spectrum: Trimethoprim; LC-ESI-QTOF; MS2; CE: 50 eV; R=35000; [M+H]+
Name: Trimethoprim
Name: 5-[(3,4,5-trimethoxyphenyl)methyl]pyrimidine-2,4-diamine
Formula: C14H18N4O3
Exact mass: 290.1378904
SMILES: COC1=CC(CC2=C(N)N=C(N)N=C2)=CC(OC)=C1OC
InChI: InChI=1S/C14H18N4O3/c1-19-10-5-8(6-11(20-2)12(10)21-3)4-9-7-17-14(16)18-13(9)15/h5-7H,4H2,1-3H3,(H4,15,16,17,18)
Instrument: Bruker maXis Impact
Instrument type: LC-ESI-QTOF
Ms type: MS2
Ion mode: POSITIVE
Ionization: ESI
Fragmentation mode: CID
Collision energy: 50 eV
Resolution: 35000
Column name: Acclaim RSLC C18 2.2um, 2.1x100mm, Thermo
Retention time: 3.907 min
Base peak: 291.1455
Precursor m/z: 291.1452
Precursor type: [M+H]+
m/z	relative intensity	assigned
110.0588	17	C4H6N4+
111.0659	14	C4H7N4+
115.0538	34	C9H7+
116.05	9	C8H6N+
117.057	10	C8H7N+
118.052	6	C7H6N2+
118.064	12	C8H8N+
119.0486	16	C8H7O+
119.0594	15	C7H7N2+
120.0561	11	C6H6N3+
121.075	26	C7H9N2+
122.0591	5	C5H6N4+
123.0432	165	C5H5N3O+
123.0658	999	C7H9NO+
124.0467	15	C4[13]CH5N3O+
124.0722	122	C6[13]CH9NO+
125.0766	5	C2H11N3O3+
128.0487	49	C9H6N+
129.0443	12	C8H5N2+
130.0642	30	C9H8N+
131.0477	26	C7H5N3+
131.0599	36	C8H7N2+
132.0435	39	C6H4N4+
132.0655	7	C5H10NO3+
132.0802	14	C9H10N+
133.0509	9	C6H5N4+
133.0629	12	C7H7N3+
133.0747	13	C5H11NO3+
134.058	12	C6H6N4+
134.0676	6	C4H10N2O3+
135.0431	36	C6H5N3O+
135.0655	128	C8H9NO+
136.0505	7	C6H6N3O+
136.0711	11	C7[13]CH9NO+
137.0583	105	C8H9O2+
138.0638	10	C7[13]CH9O2+
140.0486	27	C10H6N+
141.0552	7	C7H9O3+
142.0638	71	C10H8N+
143.0607	22	C9H7N2+
144.0431	14	C7H4N4+
144.0545	26	C8H6N3+
144.0781	5	C7H12O3+
145.0522	9	C9H7NO+
145.0632	24	C8H7N3+
145.0747	68	C6H11NO3+
146.07	113	C8H8N3+
147.0428	45	C7H5N3O+
147.0652	53	C7H7N4+
148.0498	42	C7H6N3O+
148.073	78	C7H8N4+
149.0221	33	C6H3N3O2+
149.0701	195	C8H9N2O+
150.073	18	C7[13]CH9N2O+
151.0378	92	C8H7O3+
151.0599	5	C6H7N4O+
152.0411	12	C7[13]CH7O3+
154.0636	9	C8H10O3+
155.0596	17	C10H7N2+
156.0433	52	C8H4N4+
156.0652	6	C7H10NO3+
157.0486	11	C5H7N3O3+
157.0748	48	C10H9N2+
158.0594	50	C8H6N4+
159.0641	20	C5H9N3O3+
159.0792	14	C9H9N3+
159.0903	69	C7H13NO3+
160.049	5	C8H6N3O+
160.0736	42	C8H8N4+
161.0811	490	C8H9N4+
162.0883	300	C10H12NO+
163.0375	7	C7H5N3O2+
163.0605	6	C7H7N4O+
163.094	50	C9[13]CH12NO+
164.0701	9	C9H10NO2+
164.0999	5	C5H14N3O3+
165.0533	38	C9H9O3+
165.0761	18	C7H9N4O+
166.0544	5	C8[13]CH9O3+
167.0323	14	C6H5N3O3+
167.0597	16	C11H7N2+
168.0543	6	C10H6N3+
168.0648	6	C6H8N4O2+
169.0745	21	C8H11NO3+
170.0596	72	C11H8NO+
170.0674	70	C7H10N2O3+
171.0572	28	C10H7N2O+
171.0633	27	C6H9N3O3+
172.0379	38	C8H4N4O+
172.0732	42	C9H8N4+
172.0819	28	C7H12N2O3+
173.0223	7	C8H3N3O2+
173.0458	19	C8H5N4O+
173.0557	22	C9H7N3O+
173.0808	105	C9H9N4+
174.0647	266	C9H8N3O+
174.0877	36	C6H12N3O3+
175.0379	30	C10H7O3+
175.0612	118	C8H7N4O+
175.0965	83	C11H13NO+
176.0403	5	C9[13]CH7O3+
176.0679	67	C8H8N4O+
176.1013	14	C10[13]CH13NO+
177.0551	5	C10H9O3+
177.0741	12	C8H9N4O+
177.1098	6	C6H15N3O3+
180.0556	5	C11H6N3+
181.0846	19	C8H11N3O2+
182.0702	23	C11H8N3+
183.0553	9	C11H7N2O+
183.0754	12	C8H11N2O3+
184.0503	10	C10H6N3O+
184.0854	84	C8H12N2O3+
185.0807	100	C7H11N3O3+
186.0561	37	C11H8NO2+
186.0887	74	C10H10N4+
187.0966	381	C10H11N4+
188.0719	20	C11H10NO2+
188.0816	24	C10H10N3O+
188.1008	68	C9[13]CH11N4+
189.0759	102	C9H9N4O+
189.1086	7	C7H15N3O3+
190.0488	18	C8H6N4O2+
190.0837	210	C9H10N4O+
191.0907	113	C9H11N4O+
192.0642	11	C8H8N4O2+
192.0928	10	C8[13]CH11N4O+
194.0712	7	C12H8N3+
195.0539	7	C12H7N2O+
197.0579	9	C11H7N3O+
197.0809	24	C11H9N4+
198.0653	45	C11H8N3O+
198.0881	14	C8H12N3O3+
199.0505	9	C11H7N2O2+
199.0709	14	C11H9N3O+
199.097	171	C11H11N4+
200.0327	22	C9H4N4O2+
200.0796	28	C11H10N3O+
200.1027	55	C8H14N3O3+
201.076	65	C10H9N4O+
201.1125	495	C11H13N4+
202.0495	22	C11H8NO3+
202.0826	20	C10H10N4O+
202.1166	71	C10[13]CH13N4+
203.0918	176	C10H11N4O+
204.0978	44	C10H12N4O+
205.1073	32	C10H13N4O+
206.1094	5	C9[13]CH13N4O+
210.0655	5	C12H8N3O+
210.0883	5	C9H12N3O3+
211.0969	35	C12H11N4+
212.0811	37	C12H10N3O+
212.1039	19	C9H14N3O3+
213.0767	58	C11H9N4O+
213.1121	19	C9H15N3O3+
214.0602	28	C11H8N3O2+
214.0838	67	C11H10N4O+
215.0466	9	C14H5N3+
215.0695	44	C11H9N3O2+
215.0919	174	C11H11N4O+
216.0746	49	C11H10N3O2+
216.0976	55	C11H12N4O+
217.0671	43	C14H7N3+
217.1066	50	C11H13N4O+
218.0783	42	C10H10N4O2+
218.1091	7	C10[13]CH13N4O+
219.077	19	C11H11N2O3+
227.0922	45	C12H11N4O+
228.0751	10	C12H10N3O2+
228.0993	37	C12H12N4O+
229.1079	744	C14H15NO2+
230.0784	28	C11H10N4O2+
230.1129	162	C13[13]CH15NO2+
231.0871	471	C11H11N4O2+
232.0948	742	C11H12N4O2+
233.1023	728	C13H15NO3+
234.1051	94	C12[13]CH15NO3+
235.1065	6	C11[13]C2H15NO3+
239.0926	19	C13H11N4O+
240.0764	6	C13H10N3O2+
240.0988	13	C13H12N4O+
241.0706	14	C12H9N4O2+
241.1069	12	C13H13N4O+
242.0554	27	C12H8N3O3+
242.0778	15	C12H10N4O2+
243.0583	5	C11[13]CH8N3O3+
243.0873	46	C12H11N4O2+
244.0717	13	C12H10N3O3+
244.0902	15	C12H12N4O2+
245.1027	498	C12H13N4O2+
246.1053	74	C11[13]CH13N4O2+
247.0821	136	C11H11N4O3+
247.1185	33	C12H15N4O2+
248.0857	25	C10[13]CH11N4O3+
248.1209	5	C11[13]CH15N4O2+
255.087	30	C13H11N4O2+
256.0929	7	C13H12N4O2+
257.103	470	C13H13N4O2+
258.0768	9	C12H10N4O3+
258.1056	79	C12[13]CH13N4O2+
259.082	165	C12H11N4O3+
259.1181	14	C13H15N4O2+
260.0862	29	C11[13]CH11N4O3+
261.098	344	C12H13N4O3+
262.101	60	C11[13]CH13N4O3+
273.0968	22	C13H13N4O3+
275.1135	237	C13H15N4O3+
276.1171	43	C12[13]CH15N4O3+
