Mass spectrum: Crotamiton; LC-ESI-QTOF; MS2; CE: 40 eV; R=35000; [M+H]+
Name: Crotamiton
Name: (E)-N-ethyl-N-(2-methylphenyl)but-2-enamide
Formula: C13H17NO
Exact mass: 203.1310142
SMILES: CCN(C(=O)\C=C\C)C1=CC=CC=C1C
InChI: InChI=1S/C13H17NO/c1-4-8-13(15)14(5-2)12-10-7-6-9-11(12)3/h4,6-10H,5H2,1-3H3/b8-4+
Instrument: Bruker maXis Impact
Instrument type: LC-ESI-QTOF
Ms type: MS2
Ion mode: POSITIVE
Ionization: ESI
Fragmentation mode: CID
Collision energy: 40 eV
Resolution: 35000
Column name: Acclaim RSLC C18 2.2um, 2.1x100mm, Thermo
Retention time: 9.253 min
Base peak: 204.138
Precursor m/z: 204.1383
Precursor type: [M+H]+
m/z	relative intensity	assigned
106.0648	50	C7H8N+
115.0534	145	C9H7+
116.0495	161	C8H6N+
117.0565	230	C8H7N+
117.0701	57	C9H9+
118.0637	350	C8H8N+
119.0359	106	C7H5NO+
119.0718	197	C8H9N+
120.0796	188	C8H10N+
121.0874	584	C8H11N+
128.0492	100	C9H6N+
128.0611	34	C10H8+
129.0684	65	C10H9+
130.0639	366	C9H8N+
131.0708	91	C9H9N+
131.0826	27	C10H11+
132.0433	273	C8H6NO+
132.0794	178	C9H10N+
133.0503	48	C8H7NO+
133.086	69	C9H11N+
134.0589	552	C8H8NO+
134.0954	999	C9H12N+
135.0621	63	C7[13]CH8NO+
135.0995	137	C8[13]CH12N+
136.1109	995	C9H14N+
137.1143	97	C8[13]CH14N+
142.0636	144	C10H8N+
143.0716	482	C10H9N+
146.0585	242	C9H8NO+
146.0947	123	C10H12N+
147.063	28	C8[13]CH8NO+
147.1012	19	C9[13]CH12N+
148.1094	29	C10H14N+
155.071	29	C11H9N+
156.0796	132	C11H10N+
157.0866	72	C11H11N+
158.0951	332	C11H12N+
159.0673	28	C10H9NO+
159.0986	63	C10[13]CH12N+
160.0749	168	C10H10NO+
160.1116	20	C11H14N+
161.0812	114	C10H11NO+
170.0953	55	C12H12N+
171.1024	27	C12H13N+
174.0899	123	C11H12NO+
176.1039	20	C11H14NO+
204.1347	20	C13H18NO+
