Mass spectrum: Ethyl azinphos; LC-ESI-QTOF; MS2; CE: 10 eV; R=35000; [M+H]+
Name: Ethyl azinphos
Name: Azinphos-ethyl
Name: 3-(diethoxyphosphinothioylsulfanylmethyl)-1,2,3-benzotriazin-4-one
Formula: C12H16N3O3PS2
Exact mass: 345.0370700
SMILES: CCOP(=S)(OCC)SCN1N=NC2=CC=CC=C2C1=O
InChI: InChI=1S/C12H16N3O3PS2/c1-3-17-19(20,18-4-2)21-9-15-12(16)10-7-5-6-8-11(10)13-14-15/h5-8H,3-4,9H2,1-2H3
Instrument: Bruker maXis Impact
Instrument type: LC-ESI-QTOF
Ms type: MS2
Ion mode: POSITIVE
Ionization: ESI
Fragmentation mode: CID
Collision energy: 10 eV
Resolution: 35000
Column name: Acclaim RSLC C18 2.2um, 2.1x100mm, Thermo
Retention time: 10.249 min
Base peak: 346.0444
Precursor m/z: 346.0443
Precursor type: [M+H]+
m/z	relative intensity	assigned
124.9811	8	H4N3OPS+
132.0436	800	C8H6NO+
133.0465	52	C7[13]CH6NO+
137.0044	10	C5H3N3S+
142.9375	35	CH4O2PS2+
148.0203	12	H10N3O2S2+
149.059	5	C9H9O2+
150.0536	28	C2H17NPS2+
153.0123	53	C2H8N3OPS+
160.0496	999	C8H6N3O+
161.0527	68	C7[13]CH6N3O+
166.0309	22	H12N3O3S2+
170.9686	79	C5H3N2OS2+
171.0229	29	C2H10N3O2PS+
172.9644	6	C5H3N2OS[34]S+
182.0392	9	C9H10O2S+
199.0005	64	C7H7N2OS2+
200.9954	5	C7H7N2OS[34]S+
232.9489	74	C9HN2O2S2+
233.9512	5	C8[13]CHN2O2S2+
234.9449	6	C9HN2O2S[34]S+
260.9802	172	C11H5N2O2S2+
261.9795	31	C10[13]CH5N2O2S2+
262.977	16	C11H5N2O2S[34]S+
289.0115	141	C11H14O3PS2+
290.0117	24	C10[13]CH14O3PS2+
291.0071	11	C11H14O3PS[34]S+
346.0459	16	C12H17N3O3PS2+
