Mass spectrum: Pyriproxyfen; LC-ESI-QTOF; MS2; CE: 50 eV; R=35000; [M+H]+
Name: Pyriproxyfen
Name: 2-[1-(4-phenoxyphenoxy)propan-2-yloxy]pyridine
Formula: C20H19NO3
Exact mass: 321.1364935
SMILES: CC(COC1=CC=C(OC2=CC=CC=C2)C=C1)OC1=CC=CC=N1
InChI: InChI=1S/C20H19NO3/c1-16(23-20-9-5-6-14-21-20)15-22-17-10-12-19(13-11-17)24-18-7-3-2-4-8-18/h2-14,16H,15H2,1H3
Instrument: Bruker maXis Impact
Instrument type: LC-ESI-QTOF
Ms type: MS2
Ion mode: POSITIVE
Ionization: ESI
Fragmentation mode: CID
Collision energy: 50 eV
Resolution: 35000
Column name: Acclaim RSLC C18 2.2um, 2.1x100mm, Thermo
Retention time: 12.634 min
Base peak: 322.1446
Precursor m/z: 322.1438
Precursor type: [M+H]+
m/z	relative intensity	assigned
115.0538	306	C9H7+
116.0574	39	C8[13]CH7+
117.0693	12	C9H9+
119.0485	306	C8H7O+
120.0514	30	C7[13]CH7O+
126.0453	11	C10H6+
127.0533	66	C10H7+
128.0613	804	C10H8+
129.0689	999	C10H9+
130.0723	103	C9[13]CH9+
131.0482	19	C9H7O+
131.0761	6	C8[13]C2H9+
133.0637	151	C9H9O+
134.071	90	C9H10O+
135.0755	7	C8[13]CH10O+
136.0749	10	C8H10NO+
139.0529	22	C11H7+
140.0597	8	C11H8+
141.0688	501	C11H9+
142.0734	69	C10[13]CH9+
143.0837	14	C11H11+
145.0634	81	C10H9O+
146.0669	10	C9[13]CH9O+
152.0609	42	C12H8+
153.0682	51	C12H9+
154.0727	5	C11[13]CH9+
155.0593	152	C7H9NO3+
156.0615	18	C6[13]CH9NO3+
157.0635	181	C11H9O+
158.0681	30	C10[13]CH9O+
165.0682	53	C13H9+
166.0756	21	C13H10+
168.0558	40	C12H8O+
169.0633	51	C12H9O+
170.071	41	C12H10O+
171.078	17	C12H11O+
179.0846	5	C14H11+
181.0636	39	C13H9O+
182.0689	6	C12[13]CH9O+
183.0796	7	C13H11O+
184.0501	17	C12H8O2+
185.0586	290	C12H9O2+
186.0636	60	C11[13]CH9O2+
189.0688	8	C15H9+
190.076	5	C15H10+
194.0711	25	C14H10O+
195.076	5	C13[13]CH10O+
197.0585	24	C13H9O2+
198.0645	8	C13H10O2+
199.0739	16	C13H11O2+
