Mass spectrum: Metobromuron; LC-ESI-QTOF; MS2; CE: 50 eV; R=35000; [M+H]+
Name: Metobromuron
Name: 3-(4-bromophenyl)-1-methoxy-1-methylurea
Formula: C9H11BrN2O2
Exact mass: 258.0003897
SMILES: CON(C)C(=O)NC1=CC=C(Br)C=C1
InChI: InChI=1S/C9H11BrN2O2/c1-12(14-2)9(13)11-8-5-3-7(10)4-6-8/h3-6H,1-2H3,(H,11,13)
Instrument: Bruker maXis Impact
Instrument type: LC-ESI-QTOF
Ms type: MS2
Ion mode: POSITIVE
Ionization: ESI
Fragmentation mode: CID
Collision energy: 50 eV
Resolution: 35000
Column name: Acclaim RSLC C18 2.2um, 2.1x100mm, Thermo
Retention time: 8.217 min
Base peak: 214.1114
Precursor m/z: 259.0077
Precursor type: [M+H]+
m/z	relative intensity	assigned
116.9328	92	C3H2Br+
118.9304	100	C3H2[81]Br+
119.0597	740	C7H7N2+
120.0426	9	C7H6NO+
120.0625	42	C6[13]CH7N2+
129.0443	43	C8H5N2+
130.0512	7	C8H6N2+
131.0599	41	C8H7N2+
133.0389	31	C7H5N2O+
142.9478	999	C5H4Br+
143.9515	52	C4[13]CH4Br+
144.9458	823	C5H4[81]Br+
145.9508	30	C3H3BrN2+
147.0541	254	C8H7N2O+
148.0616	177	C8H8N2O+
149.0667	18	C7[13]CH8N2O+
157.9602	7	C5H5BrN+
169.9587	528	C6H5BrN+
170.9665	912	C6H6BrN+
171.9566	454	C6H5[81]BrN+
172.9643	741	C6H6[81]BrN+
173.9669	39	C6H7BrO+
182.9537	9	C6H4BrN2+
183.9743	47	C7H7BrN+
184.9513	12	C6H4[81]BrN2+
184.9699	14	C6H6BrN2+
184.9851	7	C7H8BrN+
185.9727	33	C7H7[81]BrN+
186.9684	13	C6H6[81]BrN2+
211.9566	9	C7H5BrN2O+
213.9579	8	C7H5[81]BrN2O+
226.9812	40	C8H8BrN2O+
228.9784	44	C8H8[81]BrN2O+
