Mass spectrum: Prochloraz BTS44596; LC-ESI-QTOF; MS2; CE: 50 eV; R=35000; [M+H]+
Name: Prochloraz BTS44596
Name: N-[propyl-[2-(2,4,6-trichlorophenoxy)ethyl]carbamoyl]formamide
Formula: C13H15Cl3N2O3
Exact mass: 352.0148254
SMILES: CCCN(CCOC1=C(Cl)C=C(Cl)C=C1Cl)C(=O)NC=O
InChI: InChI=1S/C13H15Cl3N2O3/c1-2-3-18(13(20)17-8-19)4-5-21-12-10(15)6-9(14)7-11(12)16/h6-8H,2-5H2,1H3,(H,17,19,20)
Instrument: Bruker maXis Impact
Instrument type: LC-ESI-QTOF
Ms type: MS2
Ion mode: POSITIVE
Ionization: ESI
Fragmentation mode: CID
Collision energy: 50 eV
Resolution: 35000
Column name: Acclaim RSLC C18 2.2um, 2.1x100mm, Thermo
Retention time: 11.141 min
Base peak: 353.0209
Precursor m/z: 353.0221
Precursor type: [M+H]+
m/z	relative intensity	assigned
122.9992	66	C7H4Cl+
125.0149	167	C7H6Cl+
132.959	312	C5H3Cl2+
134.9575	181	C5H3Cl[37]Cl+
138.0125	58	C7H5ClN+
152.0016	92	C8H5ClO+
158.9743	395	C8ClN2+
159.9816	159	C2H6Cl2N2O2+
160.9549	257	C6H3Cl2O+
160.9719	188	C8[37]ClN2+
161.9614	686	C6H4Cl2O+
161.9761	91	C2H6Cl[37]ClN2O2+
162.9519	134	C6H3Cl[37]ClO+
163.9597	295	C6H4Cl[37]ClO+
166.9199	988	C5H2Cl3+
167.0109	96	C2H11Cl2NO3+
167.9239	65	C4[13]CH2Cl3+
168.9175	746	C5H2Cl2[37]Cl+
169.9203	60	C3HCl3N2+
173.9863	104	C4H8Cl2O3+
174.9705	159	C8ClN2O+
175.9823	70	C4H8Cl[37]ClO3+
176.9663	72	C8[37]ClN2O+
179.9288	273	C4Cl2NO3+
180.017	58	C3H12Cl2NO3+
181.9249	165	C4Cl[37]ClNO3+
187.9776	144	C8H6Cl2O+
188.9693	90	CH10Cl3NO3+
189.9756	113	C8H6Cl[37]ClO+
194.9145	999	C6H2Cl3O+
195.9181	71	C5[13]CH2Cl3O+
195.9261	90	C6H3Cl3O+
196.9126	775	C6H2Cl2[37]ClO+
196.931	372	C6H4Cl3O+
196.9473	67	C5H4Cl3N2+
198.928	369	C6H4Cl2[37]ClO+
206.9253	82	C3H4Cl3NO3+
215.993	58	C13N2O2+
222.9473	150	C8H6Cl3O+
224.9483	133	C8H6Cl2[37]ClO+
