Mass spectrum: Daminozide; LC-ESI-QTOF; MS2; CE: Ramp 16.6-24.9 eV; R=35000; [M+H]+
Name: Daminozide
Name: 4-(2,2-dimethylhydrazinyl)-4-oxobutanoic acid
Formula: C6H12N2O3
Exact mass: 160.0847922
SMILES: CN(C)NC(=O)CCC(O)=O
InChI: InChI=1S/C6H12N2O3/c1-8(2)7-5(9)3-4-6(10)11/h3-4H2,1-2H3,(H,7,9)(H,10,11)
Instrument: Bruker maXis Impact
Instrument type: LC-ESI-QTOF
Ms type: MS2
Ion mode: POSITIVE
Ionization: ESI
Fragmentation mode: CID
Collision energy: Ramp 16.6-24.9 eV
Resolution: 35000
Column name: Acclaim RSLC C18 2.2um, 2.1x100mm, Thermo
Retention time: 2.119 min
Base peak: 161.0911
Precursor m/z: 161.0921
Precursor type: [M+H]+
m/z	relative intensity	assigned
55.0178	9	C3H3O+
58.0642	14	C3H8N+
59.0595	19	C2H7N2+
61.0752	81	C2H9N2+
72.0447	17	C3H6NO+
115.0864	28	C5H11N2O+
143.0806	999	C6H11N2O2+
144.0836	63	C5[13]CH11N2O2+
145.0856	6	C6H11N2O[18]O+
161.0911	56	C6H13N2O3+
