Mass spectrum: Crotamiton; LC-ESI-QTOF; MS2; CE: 20 eV; R=35000; [M+H]+
Name: Crotamiton
Name: (E)-N-ethyl-N-(2-methylphenyl)but-2-enamide
Formula: C13H17NO
Exact mass: 203.1310142
SMILES: CCN(C(=O)\C=C\C)C1=CC=CC=C1C
InChI: InChI=1S/C13H17NO/c1-4-8-13(15)14(5-2)12-10-7-6-9-11(12)3/h4,6-10H,5H2,1-3H3/b8-4+
Instrument: Bruker maXis Impact
Instrument type: LC-ESI-QTOF
Ms type: MS2
Ion mode: POSITIVE
Ionization: ESI
Fragmentation mode: CID
Collision energy: 20 eV
Resolution: 35000
Column name: Acclaim RSLC C18 2.2um, 2.1x100mm, Thermo
Retention time: 9.230 min
Base peak: 204.1383
Precursor m/z: 204.1383
Precursor type: [M+H]+
m/z	relative intensity	assigned
121.0879	9	C8H11N+
134.0593	183	C8H8NO+
134.0955	32	C9H12N+
135.0622	16	C7[13]CH8NO+
136.1112	277	C9H14N+
137.1144	24	C8[13]CH14N+
158.0954	39	C11H12N+
159.0985	5	C10[13]CH12N+
162.0903	41	C10H12NO+
176.106	19	C11H14NO+
176.1422	5	C12H18N+
186.1268	7	C13H16N+
204.1377	999	C13H18NO+
205.1408	117	C12[13]CH18NO+
206.1441	6	C11[13]C2H18NO+
