Mass spectrum: Simetryn; LC-ESI-QTOF; MS2; CE: 20 eV; R=35000; [M+H]+
Name: Simetryn
Name: 2-N,4-N-diethyl-6-methylsulfanyl-1,3,5-triazine-2,4-diamine
Formula: C8H15N5S
Exact mass: 213.1048165
SMILES: CCNC1=NC(SC)=NC(NCC)=N1
InChI: InChI=1S/C8H15N5S/c1-4-9-6-11-7(10-5-2)13-8(12-6)14-3/h4-5H2,1-3H3,(H2,9,10,11,12,13)
Instrument: Bruker maXis Impact
Instrument type: LC-ESI-QTOF
Ms type: MS2
Ion mode: POSITIVE
Ionization: ESI
Fragmentation mode: CID
Collision energy: 20 eV
Resolution: 35000
Column name: Acclaim RSLC C18 2.2um, 2.1x100mm, Thermo
Retention time: 8.158 min
Base peak: 214.1121
Precursor m/z: 214.1121
Precursor type: [M+H]+
m/z	relative intensity	assigned
116.0271	5	C3H6N3S+
124.0864	135	C6H10N3+
125.0895	7	C5[13]CH10N3+
144.0582	106	C8H6N3+
145.0605	6	C7[13]CH6N3+
166.108	70	C7H12N5+
167.1106	5	C6[13]CH12N5+
186.08	40	C6H12N5S+
214.112	999	C8H16N5S+
215.1141	91	C7[13]CH16N5S+
216.1079	32	C8H16N5[34]S+
