Mass spectrum: Oxadiazone; LC-ESI-QTOF; MS2; CE: 10 eV; R=35000; [M+H]+
Name: Oxadiazone
Name: Oxadiazon
Name: 5-tert-butyl-3-(2,4-dichloro-5-propan-2-yloxyphenyl)-1,3,4-oxadiazol-2-one
Formula: C15H18Cl2N2O3
Exact mass: 344.0694478
SMILES: CC(C)OC1=CC(N2N=C(OC2=O)C(C)(C)C)=C(Cl)C=C1Cl
InChI: InChI=1S/C15H18Cl2N2O3/c1-8(2)21-12-7-11(9(16)6-10(12)17)19-14(20)22-13(18-19)15(3,4)5/h6-8H,1-5H3
Instrument: Bruker maXis Impact
Instrument type: LC-ESI-QTOF
Ms type: MS2
Ion mode: POSITIVE
Ionization: ESI
Fragmentation mode: CID
Collision energy: 10 eV
Resolution: 35000
Column name: Acclaim RSLC C18 2.2um, 2.1x100mm, Thermo
Retention time: 12.407 min
Base peak: 362.1036
Precursor m/z: 345.0767
Precursor type: [M+H]+
m/z	relative intensity	assigned
219.9557	45	C7H4Cl2NO3+
221.9533	20	C7H4Cl[37]ClNO3+
223.0631	17	C11H12ClN2O+
237.0795	26	C12H14ClN2O+
250.9992	9	C8H9Cl2N2O3+
297.0821	732	C11H19Cl2N2O3+
298.0833	201	C15H18Cl2NO+
299.0632	76	C15H17Cl2O2+
299.0766	71	C14H17Cl2N2O+
300.0582	17	C14[13]CH17Cl2O2+
301.0602	11	C14H17Cl2NO2+
303.0294	637	C12H13Cl2N2O3+
304.0317	72	C11[13]CH13Cl2N2O3+
305.0268	390	C12H13Cl[37]ClN2O3+
306.0289	28	C15H12Cl2N2O+
323.041	10	C15H13Cl2N2O2+
345.0766	999	C15H19Cl2N2O3+
346.08	178	C14[13]CH19Cl2N2O3+
347.0739	594	C15H19Cl[37]ClN2O3+
