Mass spectrum: Kresoxim-methyl; LC-ESI-QTOF; MS2; CE: 40 eV; R=35000; [M+H]+
Name: Kresoxim-methyl
Name: Methyl E-2-methoxyimino-2-[(2-methylphenoxymethyl)phenyl]acetate
Name: methyl (2Z)-2-methoxyimino-2-[2-[(2-methylphenoxy)methyl]phenyl]acetate
Formula: C18H19NO4
Exact mass: 313.1314081
SMILES: CO\N=C(/C(=O)OC)C1=C(COC2=C(C)C=CC=C2)C=CC=C1
InChI: InChI=1S/C18H19NO4/c1-13-8-4-7-11-16(13)23-12-14-9-5-6-10-15(14)17(19-22-3)18(20)21-2/h4-11H,12H2,1-3H3/b19-17-
Instrument: Bruker maXis Impact
Instrument type: LC-ESI-QTOF
Ms type: MS2
Ion mode: POSITIVE
Ionization: ESI
Fragmentation mode: CID
Collision energy: 40 eV
Resolution: 35000
Column name: Acclaim RSLC C18 2.2um, 2.1x100mm, Thermo
Retention time: 10.815 min
Base peak: 314.1383
Precursor m/z: 314.1387
Precursor type: [M+H]+
m/z	relative intensity	assigned
115.0536	10	C9H7+
116.0487	301	C8H6N+
117.0557	154	C5H9O3+
118.0639	197	C8H8N+
119.0482	19	C8H7O+
119.0674	18	C7[13]CH8N+
121.0634	11	C8H9O+
128.0491	10	C9H6N+
128.0599	6	C10H8+
130.064	364	C9H8N+
131.0717	999	C9H9N+
132.0427	19	C5H8O4+
132.0786	309	C6H12O3+
133.049	5	C5H9O4+
133.0822	31	C5[13]CH12O3+
135.0428	25	C8H7O2+
140.0483	6	C10H6N+
141.0694	7	C11H9+
146.0585	219	C9H8NO+
147.0633	22	C8[13]CH8NO+
152.0604	42	C12H8+
153.0677	25	C12H9+
154.0641	8	C11H8N+
156.0797	5	C11H10N+
162.0905	25	C10H12NO+
165.0681	93	C13H9+
167.0833	64	C13H11+
168.0806	17	C12H10N+
169.0633	8	C12H9O+
176.0612	24	C14H8+
177.0681	46	C14H9+
178.0758	162	C14H10+
179.0835	128	C14H11+
180.0795	241	C13H10N+
181.0632	21	C13H9O+
181.0836	44	C12[13]CH10N+
182.0944	5	C10H14O3+
183.0799	5	C13H11O+
189.069	8	C15H9+
190.0646	16	C14H8N+
191.0835	18	C15H11+
192.0804	17	C14H10N+
193.0874	91	C14H11N+
194.0711	34	C14H10O+
194.095	319	C14H12N+
195.0782	60	C14H11O+
195.0996	78	C13[13]CH12N+
196.0824	13	C13[13]CH11O+
196.1063	9	C11H16O3+
203.0714	47	C12H11O3+
204.0793	86	C15H10N+
205.084	22	C14[13]CH10N+
206.0586	69	C11H10O4+
206.095	38	C12H14O3+
207.0676	168	C14H9NO+
207.0767	141	C15H11O+
207.1005	19	C12H15O3+
208.0859	147	C15H12O+
209.0882	32	C14[13]CH12O+
210.0662	8	C14H10O2+
210.0905	8	C14H12NO+
211.0749	21	C14H11O2+
220.0747	19	C15H10NO+
221.0811	24	C12H13O4+
222.0903	232	C15H12NO+
223.0976	274	C15H13NO+
224.1026	61	C14[13]CH13NO+
225.1074	7	C12H17O4+
232.0754	5	C16H10NO+
232.086	5	C17H12O+
235.0739	61	C16H11O2+
236.0764	19	C15H10NO2+
236.1055	7	C13H16O4+
237.1139	11	C16H15NO+
238.0862	6	C15H12NO2+
238.1231	5	C16H16NO+
