Mass spectrum: Ethion; LC-ESI-QTOF; MS2; CE: 50 eV; R=35000; [M+H]+
Name: Ethion
Name: diethoxyphosphinothioylsulfanylmethylsulfanyl-diethoxy-sulfanylidene-lambda5-phosphane
Formula: C9H22O4P2S4
Exact mass: 383.9876164
SMILES: CCOP(=S)(OCC)SCSP(=S)(OCC)OCC
InChI: InChI=1S/C9H22O4P2S4/c1-5-10-14(16,11-6-2)18-9-19-15(17,12-7-3)13-8-4/h5-9H2,1-4H3
Instrument: Bruker maXis Impact
Instrument type: LC-ESI-QTOF
Ms type: MS2
Ion mode: POSITIVE
Ionization: ESI
Fragmentation mode: CID
Collision energy: 50 eV
Resolution: 35000
Column name: Acclaim RSLC C18 2.2um, 2.1x100mm, Thermo
Retention time: 12.483 min
Base peak: 384.995
Precursor m/z: 384.9949
Precursor type: [M+H]+
m/z	relative intensity	assigned
114.9613	12	H4O3PS+
124.9271	5	CH2OPS2+
124.9812	38	C2H6O2PS+
126.9425	26	CH4OPS2+
128.9221	49	H2O2PS2+
130.9183	5	H2O2PS[34]S+
142.9376	999	CH4O2PS2+
143.9383	23	CH4O2PS[33]S+
144.9335	66	CH4O2PS[34]S+
153.0124	19	C4H10O2PS+
156.9528	12	C2H6O2PS2+
160.9475	6	CH6O3PS2+
170.9685	31	C3H8O2PS2+
171.0229	16	C4H12O3PS+
174.9097	21	CH4O2PS3+
