Mass spectrum: 3,3-pentamethylene-4-butyrolactam; LC-ESI-QTOF; MS2; CE: Ramp 16.3-24.5 eV; R=35000; [M+H]+
Name: 3,3-pentamethylene-4-butyrolactam
Name: 2-azaspiro[4.5]decan-3-one
Formula: C9H15NO
Exact mass: 153.1153641
SMILES: O=C1CC2(CN1)CCCCC2
InChI: InChI=1S/C9H15NO/c11-8-6-9(7-10-8)4-2-1-3-5-9/h1-7H2,(H,10,11)
Instrument: Bruker maXis Impact
Instrument type: LC-ESI-QTOF
Ms type: MS2
Ion mode: POSITIVE
Ionization: ESI
Fragmentation mode: CID
Collision energy: Ramp 16.3-24.5 eV
Resolution: 35000
Column name: Acclaim RSLC C18 2.2um, 2.1x100mm, Thermo
Retention time: 6.675 min
Base peak: 154.1225
Precursor m/z: 154.1226
Precursor type: [M+H]+
m/z	relative intensity	assigned
55.0539	10	C4H7+
60.0439	33	C2H6NO+
67.0538	96	C5H7+
69.0694	29	C5H9+
72.0439	38	C3H6NO+
81.0697	6	C6H9+
91.0545	13	C7H7+
93.0701	31	C7H9+
95.0859	393	C7H11+
96.0893	22	C6[13]CH11+
109.1024	17	C8H13+
112.1131	10	C7H14N+
119.0856	9	C9H11+
154.1221	999	C9H16NO+
155.1255	122	C8[13]CH16NO+
156.1281	6	C7[13]C2H16NO+
