Mass spectrum: 4-Formyl-antipyrine; LC-ESI-QTOF; MS2; CE: 50 eV; R=35000; [M+H]+
Name: 4-Formyl-antipyrine
Name: 1,5-Dimethyl-3-oxo-2-phenyl-2,3-dihydro-1H-pyrazole-4-carbaldehyde
Name: 1,5-dimethyl-3-oxo-2-phenylpyrazole-4-carbaldehyde
Formula: C12H12N2O2
Exact mass: 216.0898776
SMILES: CN1N(C(=O)C(C=O)=C1C)C1=CC=CC=C1
InChI: InChI=1S/C12H12N2O2/c1-9-11(8-15)12(16)14(13(9)2)10-6-4-3-5-7-10/h3-8H,1-2H3
Instrument: Bruker maXis Impact
Instrument type: LC-ESI-QTOF
Ms type: MS2
Ion mode: POSITIVE
Ionization: ESI
Fragmentation mode: CID
Collision energy: 50 eV
Resolution: 35000
Column name: Acclaim RSLC C18 2.2um, 2.1x100mm, Thermo
Retention time: 4.008 min
Base peak: 217.0971
Precursor m/z: 217.0972
Precursor type: [M+H]+
m/z	relative intensity	assigned
115.0534	273	C9H7+
116.0487	105	C8H6N+
117.0566	222	C8H7N+
117.0692	102	C9H9+
118.0644	170	C8H8N+
119.0603	88	C7H7N2+
123.0549	22	C6H7N2O+
126.0449	21	C10H6+
127.0545	27	C10H7+
128.0484	295	C9H6N+
128.0617	62	C10H8+
129.0566	209	C9H7N+
130.064	999	C9H8N+
131.0597	523	C8H7N2+
132.043	62	C8H6NO+
132.0666	304	C8H8N2+
133.0372	28	C7H5N2O+
133.051	49	C8H7NO+
133.0742	74	C8H9N2+
134.046	74	C7H6N2O+
134.0948	15	C9H12N+
135.0531	25	C7H7N2O+
139.0495	65	C6H7N2O2+
140.0488	75	C10H6N+
141.0546	18	C10H7N+
141.0659	34	C6H9N2O2+
142.0522	65	C9H6N2+
142.0654	94	C10H8N+
143.0594	159	C9H7N2+
143.0717	162	C10H9N+
144.0433	53	C9H6NO+
144.069	123	C9H8N2+
144.0793	276	C10H10N+
145.051	50	C9H7NO+
145.075	568	C9H9N2+
146.0234	15	C8H4NO2+
146.0582	113	C9H8NO+
146.0804	88	C8[13]CH9N2+
147.0908	138	C9H11N2+
148.0634	15	C8H8N2O+
149.0694	19	C8H9N2O+
152.0604	15	C12H8+
154.063	14	C11H8N+
155.0591	192	C10H7N2+
156.0445	50	C10H6NO+
156.0654	111	C10H8N2+
157.0384	69	C9H5N2O+
157.0746	66	C10H9N2+
158.0454	56	C9H6N2O+
158.059	53	C10H8NO+
159.0536	92	C9H7N2O+
159.0905	187	C10H11N2+
160.0762	15	C10H10NO+
160.0951	27	C9[13]CH11N2+
161.0341	60	C8H5N2O2+
169.0761	42	C11H9N2+
171.0539	251	C10H7N2O+
171.0899	19	C11H11N2+
172.0611	119	C10H8N2O+
173.0691	126	C10H9N2O+
174.0745	37	C10H10N2O+
184.0636	23	C11H8N2O+
185.0337	41	C10H5N2O2+
185.0697	350	C11H9N2O+
186.0726	42	C10[13]CH9N2O+
187.0863	39	C11H11N2O+
199.0521	21	C11H7N2O2+
199.0857	54	C12H11N2O+
200.0561	126	C11H8N2O2+
201.0617	47	C11H9N2O2+
215.079	14	C12H11N2O2+
217.0959	18	C12H13N2O2+
