Mass spectrum: Metazachlor BH 479-11; LC-ESI-QTOF; MS2; CE: 10 eV; R=35000; [M+H]+
Name: Metazachlor BH 479-11
Name: Metazachlor metabolite M11
Name: N-(2,6-dimethylphenyl)-2-methylsulfinyl-N-(pyrazol-1-ylmethyl)acetamide
Formula: C15H19N3O2S
Exact mass: 305.1197978
SMILES: CC1=CC=CC(C)=C1N(CN1C=CC=N1)C(=O)CS(C)=O
InChI: InChI=1S/C15H19N3O2S/c1-12-6-4-7-13(2)15(12)18(14(19)10-21(3)20)11-17-9-5-8-16-17/h4-9H,10-11H2,1-3H3
Instrument: Bruker maXis Impact
Instrument type: LC-ESI-QTOF
Ms type: MS2
Ion mode: POSITIVE
Ionization: ESI
Fragmentation mode: CID
Collision energy: 10 eV
Resolution: 35000
Column name: Acclaim RSLC C18 2.2um, 2.1x100mm, Thermo
Retention time: 5.538 min
Base peak: 306.1269
Precursor m/z: 306.1271
Precursor type: [M+H]+
m/z	relative intensity	assigned
134.0955	250	C9H12N+
135.0987	21	C8[13]CH12N+
238.0893	999	C12H16NO2S+
239.0919	134	C11[13]CH16NO2S+
240.0858	32	C12H16NO2[34]S+
306.1267	228	C15H20N3O2S+
307.1295	37	C14[13]CH20N3O2S+
308.1245	7	C15H20N3O2[34]S+
