Mass spectrum: Gemfibrozil; LC-ESI-QTOF; MS2; CE: Ramp 19.8-29.8 eV; R=35000; [M+H]+
Name: Gemfibrozil
Name: 5-(2,5-dimethylphenoxy)-2,2-dimethylpentanoic acid
Formula: C15H22O3
Exact mass: 250.1568946
SMILES: CC1=CC(OCCCC(C)(C)C(O)=O)=C(C)C=C1
InChI: InChI=1S/C15H22O3/c1-11-6-7-12(2)13(10-11)18-9-5-8-15(3,4)14(16)17/h6-7,10H,5,8-9H2,1-4H3,(H,16,17)
Instrument: Bruker maXis Impact
Instrument type: LC-ESI-QTOF
Ms type: MS2
Ion mode: POSITIVE
Ionization: ESI
Fragmentation mode: CID
Collision energy: Ramp 19.8-29.8 eV
Resolution: 35000
Column name: Acclaim RSLC C18 2.2um, 2.1x100mm, Thermo
Retention time: 11.904 min
Base peak: 102.1286
Precursor m/z: 251.1642
Precursor type: [M+H]+
m/z	relative intensity	assigned
55.0541	205	C4H7+
57.0329	21	C3H5O+
57.0697	75	C4H9+
59.0481	71	C3H7O+
73.0636	74	C4H9O+
83.0854	141	C6H11+
119.0859	31	C9H11+
123.0798	304	C8H11O+
124.083	22	C7[13]CH11O+
129.0905	999	C7H13O2+
130.0933	63	C6[13]CH13O2+
133.0989	23	C10H13+
135.0794	21	C9H11O+
161.0941	66	C11H13O+
197.1155	21	C11H17O3+
233.1535	30	C15H21O2+
