Mass spectrum: Pyrazophos; LC-ESI-QTOF; MS2; CE: 10 eV; R=35000; [M+H]+
Name: Pyrazophos
Name: ethyl 2-diethoxyphosphinothioyloxy-5-methylpyrazolo[1,5-a]pyrimidine-6-carboxylate
Formula: C14H20N3O5PS
Exact mass: 373.0861284
SMILES: CCOC(=O)C1=CN2N=C(OP(=S)(OCC)OCC)C=C2N=C1C
InChI: InChI=1S/C14H20N3O5PS/c1-5-19-14(18)11-9-17-12(15-10(11)4)8-13(16-17)22-23(24,20-6-2)21-7-3/h8-9H,5-7H2,1-4H3
Instrument: Bruker maXis Impact
Instrument type: LC-ESI-QTOF
Ms type: MS2
Ion mode: POSITIVE
Ionization: ESI
Fragmentation mode: CID
Collision energy: 10 eV
Resolution: 35000
Column name: Acclaim RSLC C18 2.2um, 2.1x100mm, Thermo
Retention time: 11.454 min
Base peak: 374.0941
Precursor m/z: 374.0934
Precursor type: [M+H]+
m/z	relative intensity	assigned
222.0869	16	C10H12N3O3+
346.0627	14	C12H17N3O5PS+
358.9773	11	C14H6N3O5PS+
374.0945	999	C14H21N3O5PS+
375.0972	157	C13[13]CH21N3O5PS+
376.0922	38	C14H21N3O5P[34]S+
