Mass spectrum: Triallate; LC-ESI-QTOF; MS2; CE: 50 eV; R=35000; [M+H]+
Name: Triallate
Name: S-(2,3,3-trichloroprop-2-enyl) N,N-di(propan-2-yl)carbamothioate
Formula: C10H16Cl3NOS
Exact mass: 303.0018182
SMILES: CC(C)N(C(C)C)C(=O)SCC(Cl)=C(Cl)Cl
InChI: InChI=1S/C10H16Cl3NOS/c1-6(2)14(7(3)4)10(15)16-5-8(11)9(12)13/h6-7H,5H2,1-4H3
Instrument: Bruker maXis Impact
Instrument type: LC-ESI-QTOF
Ms type: MS2
Ion mode: POSITIVE
Ionization: ESI
Fragmentation mode: CID
Collision energy: 50 eV
Resolution: 35000
Column name: Acclaim RSLC C18 2.2um, 2.1x100mm, Thermo
Retention time: 12.784 min
Base peak: 322.1437
Precursor m/z: 304.0091
Precursor type: [M+H]+
m/z	relative intensity	assigned
118.0332	19	C4H8NOS+
140.9317	40	C3H3Cl2S+
142.9204	999	C3H2Cl3+
143.9246	45	C2[13]CH2Cl3+
144.9172	951	C3H2Cl2[37]Cl+
149.0222	37	C6H10ClS+
