Mass spectrum: Memantine; LC-ESI-QTOF; MS2; CE: Ramp 17.3-25.9 eV; R=35000; [M+H]+
Name: Memantine
Name: 3,5-dimethyladamantan-1-amine
Formula: C12H21N
Exact mass: 179.1673997
SMILES: CC12CC3CC(C)(C1)CC(N)(C3)C2
InChI: InChI=1S/C12H21N/c1-10-3-9-4-11(2,6-10)8-12(13,5-9)7-10/h9H,3-8,13H2,1-2H3
Instrument: Bruker maXis Impact
Instrument type: LC-ESI-QTOF
Ms type: MS2
Ion mode: POSITIVE
Ionization: ESI
Fragmentation mode: CID
Collision energy: Ramp 17.3-25.9 eV
Resolution: 35000
Column name: Acclaim RSLC C18 2.2um, 2.1x100mm, Thermo
Retention time: 6.725 min
Base peak: 180.1744
Precursor m/z: 180.1747
Precursor type: [M+H]+
m/z	relative intensity	assigned
69.0695	16	C5H9+
79.0542	10	C6H7+
81.0698	34	C6H9+
83.0854	6	C6H11+
91.0547	9	C7H7+
93.0704	51	C7H9+
95.0859	25	C7H11+
105.0716	6	C8H9+
107.0871	370	C8H11+
108.0904	26	C7[13]CH11+
121.1011	37	C9H13+
135.1167	19	C10H15+
163.1475	999	C12H19+
164.151	141	C11[13]CH19+
165.1545	7	C10[13]C2H19+
180.1747	116	C12H22N+
181.1774	11	C11[13]CH22N+
