Mass spectrum: Azinphos methyl; LC-ESI-QTOF; MS2; CE: 50 eV; R=35000; [M+H]+
Name: Azinphos methyl
Name: Azinphos-methyl
Name: 3-(dimethoxyphosphinothioylsulfanylmethyl)-1,2,3-benzotriazin-4-one
Formula: C10H12N3O3PS2
Exact mass: 317.0057699
SMILES: COP(=S)(OC)SCN1N=NC2=CC=CC=C2C1=O
InChI: InChI=1S/C10H12N3O3PS2/c1-15-17(18,16-2)19-7-13-10(14)8-5-3-4-6-9(8)11-12-13/h3-6H,7H2,1-2H3
Instrument: Bruker maXis Impact
Instrument type: LC-ESI-QTOF
Ms type: MS2
Ion mode: POSITIVE
Ionization: ESI
Fragmentation mode: CID
Collision energy: 50 eV
Resolution: 35000
Column name: Acclaim RSLC C18 2.2um, 2.1x100mm, Thermo
Retention time: 8.920 min
Base peak: 318.0128
Precursor m/z: 318.013
Precursor type: [M+H]+
m/z	relative intensity	assigned
124.9809	850	C4HN2OS+
125.9828	35	C3[13]CHN2OS+
126.9766	44	C4HN2O[34]S+
132.0434	999	C8H6NO+
133.0465	107	C7[13]CH6NO+
137.0043	56	C5H3N3S+
142.9916	619	C4H3N2O2S+
143.9941	29	C3[13]CH3N2O2S+
144.9875	37	C4H3N2O2[34]S+
150.0536	46	C8H8NO2+
151.9913	117	C5H2N3OS+
153.9876	36	C6H5NPS+
167.0153	68	C6H5N3OS+
167.9683	48	C5H2N3S2+
