Mass spectrum: Azinphos methyl; LC-ESI-QTOF; MS2; CE: Ramp 22.0-32.9 eV; R=35000; [M+H]+
Name: Azinphos methyl
Name: Azinphos-methyl
Name: 3-(dimethoxyphosphinothioylsulfanylmethyl)-1,2,3-benzotriazin-4-one
Formula: C10H12N3O3PS2
Exact mass: 317.0057699
SMILES: COP(=S)(OC)SCN1N=NC2=CC=CC=C2C1=O
InChI: InChI=1S/C10H12N3O3PS2/c1-15-17(18,16-2)19-7-13-10(14)8-5-3-4-6-9(8)11-12-13/h3-6H,7H2,1-2H3
Instrument: Bruker maXis Impact
Instrument type: LC-ESI-QTOF
Ms type: MS2
Ion mode: POSITIVE
Ionization: ESI
Fragmentation mode: CID
Collision energy: Ramp 22.0-32.9 eV
Resolution: 35000
Column name: Acclaim RSLC C18 2.2um, 2.1x100mm, Thermo
Retention time: 8.926 min
Base peak: 318.0122
Precursor m/z: 318.013
Precursor type: [M+H]+
m/z	relative intensity	assigned
51.0224	6	C4H3+
53.038	50	C4H5+
77.038	39	C6H5+
78.9941	10	CH4O2P+
95.0493	103	C6H7O+
96.0526	5	C5[13]CH7O+
104.05	124	CH12O3S+
105.0346	97	C7H5O+
105.0449	70	C6H5N2+
106.0374	9	C6[13]CH5O+
106.0464	7	CH12O3[34]S+
120.0437	61	C7H6NO+
124.9814	86	C4HN2OS+
126.9763	5	C4HN2O[34]S+
130.0389	28	C7H4N3+
132.0437	999	C8H6NO+
133.0469	104	C7[13]CH6NO+
134.0488	5	C6[13]C2H6NO+
142.9918	283	C4H3N2O2S+
143.9927	6	C3[13]CH3N2O2S+
144.9876	11	C4H3N2O2[34]S+
150.0541	339	C8H8NO2+
151.057	28	C7[13]CH8NO2+
160.0493	102	C7H13PS+
161.0525	7	C6[13]CH13PS+
164.0696	9	C9H10NO2+
167.0148	50	C6H5N3OS+
168.0185	5	C5[13]CH5N3OS+
170.969	20	CH6N3OPS2+
182.9932	9	C8H7OS2+
260.98	7	C9H10O3PS2+
