Mass spectrum: Trimethoprim; LC-ESI-QTOF; MS2; CE: 40 eV; R=35000; [M+H]+
Name: Trimethoprim
Name: 5-[(3,4,5-trimethoxyphenyl)methyl]pyrimidine-2,4-diamine
Formula: C14H18N4O3
Exact mass: 290.1378904
SMILES: COC1=CC(CC2=C(N)N=C(N)N=C2)=CC(OC)=C1OC
InChI: InChI=1S/C14H18N4O3/c1-19-10-5-8(6-11(20-2)12(10)21-3)4-9-7-17-14(16)18-13(9)15/h5-7H,4H2,1-3H3,(H4,15,16,17,18)
Instrument: Bruker maXis Impact
Instrument type: LC-ESI-QTOF
Ms type: MS2
Ion mode: POSITIVE
Ionization: ESI
Fragmentation mode: CID
Collision energy: 40 eV
Resolution: 35000
Column name: Acclaim RSLC C18 2.2um, 2.1x100mm, Thermo
Retention time: 3.910 min
Base peak: 291.1456
Precursor m/z: 291.1452
Precursor type: [M+H]+
m/z	relative intensity	assigned
110.0585	11	C4H6N4+
111.0659	9	C4H7N4+
120.0561	7	C6H6N3+
123.0434	43	C5H5N3O+
123.066	433	C7H9NO+
124.072	49	C6[13]CH9NO+
135.0655	17	C6H7N4+
137.0582	34	C6H7N3O+
142.0637	7	C7H10O3+
145.075	7	C9H9N2+
146.0596	5	C9H8NO+
146.0703	14	C8H8N3+
147.0662	5	C7H7N4+
148.0504	11	C7H6N3O+
148.0731	10	C7H8N4+
149.0225	6	C6H3N3O2+
149.0703	35	C8H9N2O+
151.0378	51	C6H5N3O2+
156.0432	11	C8H4N4+
158.0586	7	C8H6N4+
159.0908	8	C10H11N2+
160.0742	6	C8H8N4+
161.0811	47	C8H9N4+
162.0885	35	C5H12N3O3+
163.095	8	C5H13N3O3+
165.0534	15	C7H7N3O2+
170.0591	11	C9H6N4+
170.0671	8	C7H10N2O3+
171.0667	7	C9H7N4+
172.0743	5	C9H8N4+
173.0808	16	C9H9N4+
174.0647	74	C9H8N3O+
174.0873	5	C6H12N3O3+
175.0381	5	C8H5N3O2+
175.0619	14	C8H7N4O+
175.0962	15	C6H13N3O3+
176.068	8	C8H8N4O+
181.0846	21	C8H11N3O2+
184.0856	12	C11H10N3+
185.0813	13	C10H9N4+
186.0545	13	C11H8NO2+
186.0889	7	C10H10N4+
187.0967	138	C10H11N4+
188.1009	23	C9[13]CH11N4+
189.0751	11	C9H9N4O+
190.0835	32	C9H10N4O+
191.0914	52	C9H11N4O+
192.0955	5	C8[13]CH11N4O+
197.0808	5	C11H9N4+
198.0651	10	C11H8N3O+
199.0971	36	C11H11N4+
200.0695	5	C10H8N4O+
200.08	6	C11H10N3O+
200.1044	32	C11H12N4+
201.0761	29	C10H9N4O+
201.1127	252	C11H13N4+
202.0491	13	C9H6N4O2+
202.0825	7	C10H10N4O+
202.1187	69	C8H16N3O3+
203.0917	33	C10H11N4O+
203.1223	7	C7[13]CH16N3O3+
204.0981	8	C10H12N4O+
205.1077	9	C10H13N4O+
211.0977	7	C12H11N4+
212.0807	11	C12H10N3O+
213.0768	9	C11H9N4O+
213.1115	9	C9H15N3O3+
214.0837	13	C11H10N4O+
215.0693	9	C11H9N3O2+
215.0915	59	C11H11N4O+
216.0754	18	C11H10N3O2+
216.0989	38	C11H12N4O+
217.0609	11	C11H9N2O3+
217.1074	39	C11H13N4O+
218.0787	8	C10H10N4O2+
218.1081	5	C10[13]CH13N4O+
219.0762	17	C11H11N2O3+
227.0919	7	C12H11N4O+
228.0745	5	C12H10N3O2+
228.0999	9	C12H12N4O+
229.1079	459	C12H13N4O+
230.1153	419	C12H14N4O+
231.0867	58	C11H11N4O2+
231.1182	54	C11[13]CH14N4O+
232.0949	238	C11H12N4O2+
233.1027	500	C11H13N4O2+
234.105	56	C10[13]CH13N4O2+
239.0922	6	C13H11N4O+
241.1082	6	C13H13N4O+
242.0547	10	C12H8N3O3+
243.0868	14	C12H11N4O2+
244.0713	16	C12H10N3O3+
244.092	6	C12H12N4O2+
245.1028	416	C12H13N4O2+
246.1073	80	C11[13]CH13N4O2+
247.0818	51	C11H11N4O3+
247.1177	93	C12H15N4O2+
248.0876	9	C10[13]CH11N4O3+
248.1203	14	C11[13]CH15N4O2+
255.0866	8	C13H11N4O2+
257.1031	673	C13H13N4O2+
258.1061	94	C12[13]CH13N4O2+
259.0822	105	C12H11N4O3+
259.1171	23	C13H15N4O2+
260.0861	16	C11[13]CH11N4O3+
261.098	999	C12H13N4O3+
262.1009	117	C11[13]CH13N4O3+
273.0975	8	C13H13N4O3+
275.1137	558	C13H15N4O3+
276.1166	89	C12[13]CH15N4O3+
277.1197	7	C11[13]C2H15N4O3+
291.1449	23	C14H19N4O3+
