Mass spectrum: Metazachlor BH 479-9; LC-ESI-QTOF; MS2; CE: 20 eV; R=35000; [M+H]+
Name: Metazachlor BH 479-9
Formula: C16H19N3O4S
Exact mass: 349.1096271
SMILES: CC1=CC=CC(C)=C1N(CN1C=CC=N1)C(=O)CS(=O)CC(O)=O
InChI: InChI=1S/C16H19N3O4S/c1-12-5-3-6-13(2)16(12)19(11-18-8-4-7-17-18)14(20)9-24(23)10-15(21)22/h3-8H,9-11H2,1-2H3,(H,21,22)
Instrument: Bruker maXis Impact
Instrument type: LC-ESI-QTOF
Ms type: MS2
Ion mode: POSITIVE
Ionization: ESI
Fragmentation mode: CID
Collision energy: 20 eV
Resolution: 35000
Column name: Acclaim RSLC C18 2.2um, 2.1x100mm, Thermo
Retention time: 4.890 min
Base peak: 350.117
Precursor m/z: 350.1169
Precursor type: [M+H]+
m/z	relative intensity	assigned
133.0879	6	CH15N3O2S+
134.0957	999	C9H12N+
135.0988	116	C8[13]CH12N+
148.989	50	C2H3N3O3S+
175.0988	13	C3H17N3O3S+
264.0667	5	C16H10NO3+
282.0784	91	C13H16NO4S+
283.083	16	C12[13]CH16NO4S+
