Mass spectrum: Carbetamide; LC-ESI-QTOF; MS2; CE: 40 eV; R=35000; [M+H]+
Name: Carbetamide
Name: [(2R)-1-(ethylamino)-1-oxopropan-2-yl] N-phenylcarbamate
Formula: C12H16N2O3
Exact mass: 236.1160924
SMILES: CCNC(=O)[C@@H](C)OC(=O)NC1=CC=CC=C1
InChI: InChI=1S/C12H16N2O3/c1-3-13-11(15)9(2)17-12(16)14-10-7-5-4-6-8-10/h4-9H,3H2,1-2H3,(H,13,15)(H,14,16)/t9-/m1/s1
Instrument: Bruker maXis Impact
Instrument type: LC-ESI-QTOF
Ms type: MS2
Ion mode: POSITIVE
Ionization: ESI
Fragmentation mode: CID
Collision energy: 40 eV
Resolution: 35000
Column name: Acclaim RSLC C18 2.2um, 2.1x100mm, Thermo
Retention time: 6.536 min
Base peak: 237.1232
Precursor m/z: 237.1234
Precursor type: [M+H]+
m/z	relative intensity	assigned
118.0853	251	C5H12NO2+
119.0885	31	C9H11+
120.0434	999	C7H6NO+
121.0465	110	C6[13]CH6NO+
122.0483	17	C6H6N2O+
138.0542	9	C7H8NO2+
