Mass spectrum: Thiophanate-methyl; LC-ESI-QTOF; MS2; CE: Ramp 22.5-33.7 eV; R=35000; [M+H]+
Name: Thiophanate-methyl
Name: CID 3085
Name: N`-methoxycarbonyl-N-[2-[(N-methoxycarbonyl-C-sulfanylcarbonimidoyl)amino]phenyl]carbamimidothioic acid
Formula: C12H14N4O4S2
Exact mass: 342.0456469
SMILES: COC(=O)NC(=S)NC1=CC=CC=C1NC(=S)NC(=O)OC
InChI: InChI=1S/C12H14N4O4S2/c1-19-11(17)15-9(21)13-7-5-3-4-6-8(7)14-10(22)16-12(18)20-2/h3-6H,1-2H3,(H2,13,15,17,21)(H2,14,16,18,22)
Instrument: Bruker maXis Impact
Instrument type: LC-ESI-QTOF
Ms type: MS2
Ion mode: POSITIVE
Ionization: ESI
Fragmentation mode: CID
Collision energy: Ramp 22.5-33.7 eV
Resolution: 35000
Column name: Acclaim RSLC C18 2.2um, 2.1x100mm, Thermo
Retention time: 6.917 min
Base peak: 343.0525
Precursor m/z: 343.0529
Precursor type: [M+H]+
m/z	relative intensity	assigned
74.0054	35	C2H4NS+
76.039	23	C2H6NO2+
85.9693	28	C2NOS+
109.076	8	C6H9N2+
117.9956	14	C3H4NO2S+
118.0515	5	C7H6N2+
134.07	7	C7H8N3+
135.0538	13	C4H9NO4+
149.0153	26	C4H7NO3S+
151.0313	999	C7H7N2S+
152.0343	98	C6[13]CH7N2S+
153.0271	49	C7H7N2[34]S+
160.0492	73	C8H6N3O+
161.0521	7	C7[13]CH6N3O+
177.0105	8	H9N4O3S2+
192.0755	47	C9H10N3O2+
192.9868	16	C5H7NO3S2+
193.0797	5	C8[13]CH10N3O2+
194.0369	35	C5H10N2O4S+
219.0326	18	C9H7N4OS+
226.0629	7	C9H12N3O2S+
235.9931	44	C9H6N3OS2+
236.9972	5	C8[13]CH6N3OS2+
245.0116	6	C10H5N4O2S+
251.0604	10	C12H13NO3S+
268.0201	20	C10H10N3O2S2+
277.038	9	C11H9N4O3S+
279.0004	8	C10H7N4O2S2+
311.0254	16	C11H11N4O3S2+
