Mass spectrum: Oxazepam; LC-ESI-QTOF; MS2; CE: 10 eV; R=35000; [M+H]+
Name: Oxazepam
Name: 7-chloro-3-hydroxy-5-phenyl-1,3-dihydro-1,4-benzodiazepin-2-one
Formula: C15H11ClN2O2
Exact mass: 286.0509053
SMILES: OC1N=C(C2=CC=CC=C2)C2=C(NC1=O)C=CC(Cl)=C2
InChI: InChI=1S/C15H11ClN2O2/c16-10-6-7-12-11(8-10)13(9-4-2-1-3-5-9)18-15(20)14(19)17-12/h1-8,15,20H,(H,17,19)
Instrument: Bruker maXis Impact
Instrument type: LC-ESI-QTOF
Ms type: MS2
Ion mode: POSITIVE
Ionization: ESI
Fragmentation mode: CID
Collision energy: 10 eV
Resolution: 35000
Column name: Acclaim RSLC C18 2.2um, 2.1x100mm, Thermo
Retention time: 8.366 min
Base peak: 287.057
Precursor m/z: 287.0582
Precursor type: [M+H]+
m/z	relative intensity	assigned
231.0669	8	C13H12ClN2+
241.0512	21	C14H10ClN2+
243.0482	8	C14H10[37]ClN2+
269.0464	105	C15H10ClN2O+
270.0487	22	C14[13]CH10ClN2O+
271.0432	32	C15H10[37]ClN2O+
287.0571	999	C15H12ClN2O2+
288.0599	173	C14[13]CH12ClN2O2+
289.0544	284	C15H12[37]ClN2O2+
