Mass spectrum: Ethion; LC-ESI-QTOF; MS2; CE: 10 eV; R=35000; [M+H]+
Name: Ethion
Name: diethoxyphosphinothioylsulfanylmethylsulfanyl-diethoxy-sulfanylidene-lambda5-phosphane
Formula: C9H22O4P2S4
Exact mass: 383.9876164
SMILES: CCOP(=S)(OCC)SCSP(=S)(OCC)OCC
InChI: InChI=1S/C9H22O4P2S4/c1-5-10-14(16,11-6-2)18-9-19-15(17,12-7-3)13-8-4/h5-9H2,1-4H3
Instrument: Bruker maXis Impact
Instrument type: LC-ESI-QTOF
Ms type: MS2
Ion mode: POSITIVE
Ionization: ESI
Fragmentation mode: CID
Collision energy: 10 eV
Resolution: 35000
Column name: Acclaim RSLC C18 2.2um, 2.1x100mm, Thermo
Retention time: 12.508 min
Base peak: 384.9955
Precursor m/z: 384.9949
Precursor type: [M+H]+
m/z	relative intensity	assigned
142.9374	40	CH4O2PS2+
153.0121	26	C4H10O2PS+
154.9735	8	C3H8OPS2+
170.9687	117	C3H8O2PS2+
171.0232	13	C4H12O3PS+
171.9713	5	C2[13]CH8O2PS2+
172.9652	8	C3H8O2PS[34]S+
199.0004	999	C8H8O2PS+
200.0029	41	C7[13]CH8O2PS+
200.9959	52	C8H8O2P[34]S+
215.0316	32	C6H16O2PS2+
230.9725	35	C5H12O2PS3+
339.007	21	C8H21O4P2S3+
384.9943	46	C9H23O4P2S4+
385.9967	6	C8[13]CH23O4P2S4+
386.9915	9	C9H23O4P2S3[34]S+
