Mass spectrum: 4-Formyl-antipyrine; LC-ESI-QTOF; MS2; CE: Ramp 18.6-27.9 eV; R=35000; [M+H]+
Name: 4-Formyl-antipyrine
Name: 1,5-Dimethyl-3-oxo-2-phenyl-2,3-dihydro-1H-pyrazole-4-carbaldehyde
Name: 1,5-dimethyl-3-oxo-2-phenylpyrazole-4-carbaldehyde
Formula: C12H12N2O2
Exact mass: 216.0898776
SMILES: CN1N(C(=O)C(C=O)=C1C)C1=CC=CC=C1
InChI: InChI=1S/C12H12N2O2/c1-9-11(8-15)12(16)14(13(9)2)10-6-4-3-5-7-10/h3-8H,1-2H3
Instrument: Bruker maXis Impact
Instrument type: LC-ESI-QTOF
Ms type: MS2
Ion mode: POSITIVE
Ionization: ESI
Fragmentation mode: CID
Collision energy: Ramp 18.6-27.9 eV
Resolution: 35000
Column name: Acclaim RSLC C18 2.2um, 2.1x100mm, Thermo
Retention time: 3.964 min
Base peak: 217.0974
Precursor m/z: 217.0972
Precursor type: [M+H]+
m/z	relative intensity	assigned
55.0539	37	C4H7+
56.0492	90	C3H6N+
58.0649	27	C3H8N+
65.0383	8	C5H5+
67.0174	5	C4H3O+
69.0332	6	C4H5O+
70.0644	5	C4H8N+
77.0384	9	C6H5+
79.054	5	C6H7+
83.049	75	C5H7O+
84.0563	14	C5H8O+
86.06	21	C4H8NO+
91.0545	9	C7H7+
92.0498	14	C6H6N+
95.0494	10	C6H7O+
96.0447	6	C5H6NO+
96.0687	8	C5H8N2+
98.0605	49	C5H8NO+
104.05	20	C7H6N+
105.0342	7	C7H5O+
105.0447	9	C6H5N2+
106.0661	169	C7H8N+
107.0621	15	C6H7N2+
111.0454	208	C6H7O2+
112.0486	10	C5[13]CH7O2+
117.0701	7	C9H9+
118.0655	21	C8H8N+
120.081	7	C8H10N+
129.0558	9	C9H7N+
130.0647	26	C9H8N+
131.072	21	C9H9N+
132.0681	12	C8H8N2+
132.0791	6	C9H10N+
142.0647	5	C10H8N+
144.0805	17	C10H10N+
145.0755	7	C9H9N2+
146.0834	10	C9H10N2+
147.0912	62	C9H11N2+
148.0944	5	C8[13]CH11N2+
149.0698	8	C8H9N2O+
158.0591	8	C10H8NO+
159.0906	24	C10H11N2+
160.0981	7	C10H12N2+
161.106	6	C10H13N2+
172.0623	5	C10H8N2O+
172.0738	5	C11H10NO+
174.0777	16	C10H10N2O+
185.07	10	C11H9N2O+
186.0537	5	C11H8NO2+
187.086	13	C11H11N2O+
188.0929	5	C11H12N2O+
189.1018	44	C11H13N2O+
199.0857	13	C12H11N2O+
200.0573	29	C11H8N2O2+
202.073	13	C11H10N2O2+
215.0811	91	C12H11N2O2+
216.0843	11	C11[13]CH11N2O2+
217.0974	999	C12H13N2O2+
218.1004	188	C11[13]CH13N2O2+
