Mass spectrum: 10,11-Dihydro-10,11-dihydroxycarbamazepine; LC-ESI-QTOF; MS2; CE: 40 eV; R=35000; [M+H]+
Name: 10,11-Dihydro-10,11-dihydroxycarbamazepine
Name: Carbazepine 10,11-diol
Name: 5,6-dihydroxy-5,6-dihydrobenzo[b][1]benzazepine-11-carboxamide
Formula: C15H14N2O3
Exact mass: 270.1004423
SMILES: NC(=O)N1C2=CC=CC=C2C(O)C(O)C2=CC=CC=C12
InChI: InChI=1S/C15H14N2O3/c16-15(20)17-11-7-3-1-5-9(11)13(18)14(19)10-6-2-4-8-12(10)17/h1-8,13-14,18-19H,(H2,16,20)
Instrument: Bruker maXis Impact
Instrument type: LC-ESI-QTOF
Ms type: MS2
Ion mode: POSITIVE
Ionization: ESI
Fragmentation mode: CID
Collision energy: 40 eV
Resolution: 35000
Column name: Acclaim RSLC C18 2.2um, 2.1x100mm, Thermo
Retention time: 5.716 min
Base peak: 326.2327
Precursor m/z: 271.1077
Precursor type: [M+H]+
m/z	relative intensity	assigned
152.0604	13	C12H8+
165.0685	16	C13H9+
167.0716	87	C12H9N+
168.0762	13	C11[13]CH9N+
178.0647	7	C13H8N+
179.0719	20	C13H9N+
180.0798	999	C13H10N+
181.0836	160	C12[13]CH10N+
182.0954	152	C10H14O3+
183.0985	22	C9[13]CH14O3+
192.0794	8	C11H12O3+
193.0868	11	C11H13O3+
208.0729	6	C14H10NO+
210.0904	30	C14H12NO+
