Mass spectrum: Acetyl-sulfamethoxazole; LC-ESI-QTOF; MS2; CE: 40 eV; R=35000; [M+H]+
Name: Acetyl-sulfamethoxazole
Name: Acetylsulfamethoxazole
Name: N-[4-[(5-methyl-1,2-oxazol-3-yl)sulfamoyl]phenyl]acetamide
Formula: C12H13N3O4S
Exact mass: 295.0626769
SMILES: CC(=O)NC1=CC=C(C=C1)S(=O)(=O)NC1=NOC(C)=C1
InChI: InChI=1S/C12H13N3O4S/c1-8-7-12(14-19-8)15-20(17,18)11-5-3-10(4-6-11)13-9(2)16/h3-7H,1-2H3,(H,13,16)(H,14,15)
Instrument: Bruker maXis Impact
Instrument type: LC-ESI-QTOF
Ms type: MS2
Ion mode: POSITIVE
Ionization: ESI
Fragmentation mode: CID
Collision energy: 40 eV
Resolution: 35000
Column name: Acclaim RSLC C18 2.2um, 2.1x100mm, Thermo
Retention time: 5.214 min
Base peak: 296.0696
Precursor m/z: 296.07
Precursor type: [M+H]+
m/z	relative intensity	assigned
119.0591	23	C7H7N2+
120.0665	16	C4H10NO3+
131.0584	54	C5H9NO3+
132.0659	59	C5H10NO3+
134.0588	999	H12N3O3S+
135.0621	153	C3H9N3O3+
136.0759	34	C8H10NO+
140.0158	17	C6H6NOS+
143.0576	22	C6H9NO3+
146.0702	282	C8H8N3+
147.0775	195	C5H11N2O3+
148.0847	53	C5H12N2O3+
150.0542	19	H12N3O4S+
156.0097	100	C6H6NO2S+
159.0561	20	C3H13NO4S+
159.0762	17	C6H11N2O3+
160.0853	357	C6H12N2O3+
161.0006	17	C4H5N2O3S+
161.089	32	C5[13]CH12N2O3+
162.0658	49	C8H8N3O+
173.0577	32	C9H7N3O+
176.0255	67	C5H8N2O3S+
188.0805	24	C10H10N3O+
198.0208	44	C8H8NO3S+
201.0643	45	C11H9N2O2+
