Mass spectrum: Chloroxuron; LC-ESI-QTOF; MS2; CE: 10 eV; R=35000; [M+H]+
Name: Chloroxuron
Name: 3-[4-(4-chlorophenoxy)phenyl]-1,1-dimethylurea
Formula: C15H15ClN2O2
Exact mass: 290.0822054
SMILES: CN(C)C(=O)NC1=CC=C(OC2=CC=C(Cl)C=C2)C=C1
InChI: InChI=1S/C15H15ClN2O2/c1-18(2)15(19)17-12-5-9-14(10-6-12)20-13-7-3-11(16)4-8-13/h3-10H,1-2H3,(H,17,19)
Instrument: Bruker maXis Impact
Instrument type: LC-ESI-QTOF
Ms type: MS2
Ion mode: POSITIVE
Ionization: ESI
Fragmentation mode: CID
Collision energy: 10 eV
Resolution: 35000
Column name: Acclaim RSLC C18 2.2um, 2.1x100mm, Thermo
Retention time: 9.999 min
Base peak: 291.0899
Precursor m/z: 291.0895
Precursor type: [M+H]+
m/z	relative intensity	assigned
164.093	5	C9H12N2O+
291.0903	999	C15H16ClN2O2+
292.0925	228	C14[13]CH16ClN2O2+
293.0869	358	C15H16[37]ClN2O2+
