Mass spectrum: Clotrimazole; LC-ESI-QTOF; MS2; CE: 40 eV; R=35000; [M+H]+
Name: Clotrimazole
Name: 1-[(2-chlorophenyl)-diphenylmethyl]imidazole
Formula: C22H17ClN2
Exact mass: 344.1080262
SMILES: ClC1=CC=CC=C1C(N1C=CN=C1)(C1=CC=CC=C1)C1=CC=CC=C1
InChI: InChI=1S/C22H17ClN2/c23-21-14-8-7-13-20(21)22(25-16-15-24-17-25,18-9-3-1-4-10-18)19-11-5-2-6-12-19/h1-17H
Instrument: Bruker maXis Impact
Instrument type: LC-ESI-QTOF
Ms type: MS2
Ion mode: POSITIVE
Ionization: ESI
Fragmentation mode: CID
Collision energy: 40 eV
Resolution: 35000
Column name: Acclaim RSLC C18 2.2um, 2.1x100mm, Thermo
Retention time: 11.160 min
Base peak: 277.078
Precursor m/z: 345.1153
Precursor type: [M+H]+
m/z	relative intensity	assigned
125.0141	8	C8HN2+
165.0688	999	C13H9+
166.0721	92	C12[13]CH9+
167.0756	5	C11[13]C2H9+
199.03	107	C13H8Cl+
200.0333	15	C12[13]CH8Cl+
201.0271	32	C13H8[37]Cl+
215.0845	8	C17H11+
226.0767	9	C18H10+
239.0847	14	C19H11+
240.0921	16	C19H12+
241.1007	244	C19H13+
242.1078	242	C19H14+
243.1115	35	C18[13]CH14+
249.0457	6	C17H10Cl+
262.0533	8	C19H6N2+
277.0772	57	C19H14Cl+
278.0805	12	C18[13]CH14Cl+
279.0746	16	C19H14[37]Cl+
