Mass spectrum: Cyromazine; LC-ESI-QTOF; MS2; CE: 20 eV; R=35000; [M+H]+
Name: Cyromazine
Name: 2-N-cyclopropyl-1,3,5-triazine-2,4,6-triamine
Formula: C6H10N6
Exact mass: 166.0966943
SMILES: NC1=NC(NC2CC2)=NC(N)=N1
InChI: InChI=1S/C6H10N6/c7-4-10-5(8)12-6(11-4)9-3-1-2-3/h3H,1-2H2,(H5,7,8,9,10,11,12)
Instrument: Bruker maXis Impact
Instrument type: LC-ESI-QTOF
Ms type: MS2
Ion mode: POSITIVE
Ionization: ESI
Fragmentation mode: CID
Collision energy: 20 eV
Resolution: 35000
Column name: Acclaim RSLC C18 2.2um, 2.1x100mm, Thermo
Retention time: 2.597 min
Base peak: 167.1032
Precursor m/z: 167.104
Precursor type: [M+H]+
m/z	relative intensity	assigned
125.0813	133	C5H9N4+
126.0843	7	C4[13]CH9N4+
127.072	9	C3H7N6+
139.0717	34	C4H7N6+
140.0915	9	C5H10N5+
150.076	11	C6H8N5+
167.1029	999	C6H11N6+
168.1054	52	C5[13]CH11N6+
