Mass spectrum: Chloroxuron; LC-ESI-QTOF; MS2; CE: Ramp 21.3-31.9 eV; R=35000; [M+H]+
Name: Chloroxuron
Name: 3-[4-(4-chlorophenoxy)phenyl]-1,1-dimethylurea
Formula: C15H15ClN2O2
Exact mass: 290.0822054
SMILES: CN(C)C(=O)NC1=CC=C(OC2=CC=C(Cl)C=C2)C=C1
InChI: InChI=1S/C15H15ClN2O2/c1-18(2)15(19)17-12-5-9-14(10-6-12)20-13-7-3-11(16)4-8-13/h3-10H,1-2H3,(H,17,19)
Instrument: Bruker maXis Impact
Instrument type: LC-ESI-QTOF
Ms type: MS2
Ion mode: POSITIVE
Ionization: ESI
Fragmentation mode: CID
Collision energy: Ramp 21.3-31.9 eV
Resolution: 35000
Column name: Acclaim RSLC C18 2.2um, 2.1x100mm, Thermo
Retention time: 10.005 min
Base peak: 291.0903
Precursor m/z: 291.0895
Precursor type: [M+H]+
m/z	relative intensity	assigned
46.0652	89	C2H8N+
56.0125	5	C2H2NO+
72.0447	999	C3H6NO+
73.0474	47	C2[13]CH6NO+
118.0649	15	C8H8N+
147.0669	10	C9H9NO+
163.0302	8	C10H8Cl+
163.0857	9	C9H11N2O+
164.0936	70	C9H12N2O+
165.0964	6	C8[13]CH12N2O+
218.0364	85	C12H9ClNO+
219.0397	11	C11[13]CH9ClNO+
220.0335	24	C12H9[37]ClNO+
246.0312	5	C13H9ClNO2+
291.0896	260	C15H16ClN2O2+
292.0927	51	C14[13]CH16ClN2O2+
293.0873	73	C15H16[37]ClN2O2+
