Mass spectrum: Prochloraz BTS40348; LC-ESI-QTOF; MS2; CE: Ramp 21.0-31.4 eV; R=35000; [M+H]+
Name: Prochloraz BTS40348
Name: N-(2-(2,4,6-Trichlorophenoxy)ethyl)propan-1-amine
Name: N-[2-(2,4,6-trichlorophenoxy)ethyl]propan-1-amine
Formula: C11H14Cl3NO
Exact mass: 281.0140971
SMILES: CCCNCCOC1=C(Cl)C=C(Cl)C=C1Cl
InChI: InChI=1S/C11H14Cl3NO/c1-2-3-15-4-5-16-11-9(13)6-8(12)7-10(11)14/h6-7,15H,2-5H2,1H3
Instrument: Bruker maXis Impact
Instrument type: LC-ESI-QTOF
Ms type: MS2
Ion mode: POSITIVE
Ionization: ESI
Fragmentation mode: CID
Collision energy: Ramp 21.0-31.4 eV
Resolution: 35000
Column name: Acclaim RSLC C18 2.2um, 2.1x100mm, Thermo
Retention time: 6.988 min
Base peak: 282.021
Precursor m/z: 282.0214
Precursor type: [M+H]+
m/z	relative intensity	assigned
58.0645	228	C3H8N+
59.072	30	C3H9N+
72.0803	141	C4H10N+
73.0835	8	C3[13]CH10N+
86.0963	414	C5H12N+
87.1004	19	C4[13]CH12N+
158.975	10	C7H5Cl2+
160.972	5	C7H5Cl[37]Cl+
187.9773	14	C8H6Cl2O+
189.9788	6	C8H6Cl[37]ClO+
194.9158	16	C6H2Cl3O+
196.9128	17	C6H2Cl2[37]ClO+
196.9315	9	C6H4Cl3O+
198.9277	9	C6H4Cl2[37]ClO+
222.9469	41	C8H6Cl3O+
224.9437	30	C8H6Cl2[37]ClO+
239.9732	28	C8H9Cl3NO+
241.9716	24	C8H9Cl2[37]ClNO+
246.0422	8	C11H14Cl2NO+
248.0393	5	C11H14Cl[37]ClNO+
282.0207	999	C11H15Cl3NO+
283.0247	117	C10[13]CH15Cl3NO+
284.0179	788	C11H15Cl2[37]ClNO+
