Mass spectrum: Benalaxyl; LC-ESI-QTOF; MS2; CE: 10 eV; R=35000; [M+H]+
Name: Benalaxyl
Name: L-Alanine, N-(2,6-dimethylphenyl)-N-(phenylacetyl)-, methyl ester
Name: methyl (2S)-2-(2,6-dimethyl-N-(2-phenylacetyl)anilino)propanoate
Formula: C20H23NO3
Exact mass: 325.1677936
SMILES: COC(=O)[C@H](C)N(C(=O)CC1=CC=CC=C1)C1=C(C)C=CC=C1C
InChI: InChI=1S/C20H23NO3/c1-14-9-8-10-15(2)19(14)21(16(3)20(23)24-4)18(22)13-17-11-6-5-7-12-17/h5-12,16H,13H2,1-4H3/t16-/m0/s1
Instrument: Bruker maXis Impact
Instrument type: LC-ESI-QTOF
Ms type: MS2
Ion mode: POSITIVE
Ionization: ESI
Fragmentation mode: CID
Collision energy: 10 eV
Resolution: 35000
Column name: Acclaim RSLC C18 2.2um, 2.1x100mm, Thermo
Retention time: 11.002 min
Base peak: 326.1758
Precursor m/z: 326.1751
Precursor type: [M+H]+
m/z	relative intensity	assigned
148.1111	100	C7H16O3+
149.1141	9	C6[13]CH16O3+
208.1327	488	C12H18NO2+
209.1357	45	C11[13]CH18NO2+
266.1538	167	C18H20NO+
267.1567	27	C17[13]CH20NO+
294.1489	886	C19H20NO2+
295.1522	170	C18[13]CH20NO2+
296.1548	14	C17[13]C2H20NO2+
326.1758	999	C20H24NO3+
327.1787	252	C19[13]CH24NO3+
328.1813	22	C18[13]C2H24NO3+
