Mass spectrum: Flumioxazin; LC-ESI-QTOF; MS2; CE: 50 eV; R=35000; [M+H]+
Name: Flumioxazin
Name: 2-(7-fluoro-3-oxo-4-prop-2-ynyl-1,4-benzoxazin-6-yl)-4,5,6,7-tetrahydroisoindole-1,3-dione
Formula: C19H15FN2O4
Exact mass: 354.1015852
SMILES: FC1=CC2=C(C=C1N1C(=O)C3=C(CCCC3)C1=O)N(CC#C)C(=O)CO2
InChI: InChI=1S/C19H15FN2O4/c1-2-7-21-15-9-14(13(20)8-16(15)26-10-17(21)23)22-18(24)11-5-3-4-6-12(11)19(22)25/h1,8-9H,3-7,10H2
Instrument: Bruker maXis Impact
Instrument type: LC-ESI-QTOF
Ms type: MS2
Ion mode: POSITIVE
Ionization: ESI
Fragmentation mode: CID
Collision energy: 50 eV
Resolution: 35000
Column name: Acclaim RSLC C18 2.2um, 2.1x100mm, Thermo
Retention time: 8.769 min
Base peak: 420.094
Precursor m/z: 355.1089
Precursor type: [M+H]+
m/z	relative intensity	assigned
138.035	330	C7H5FNO+
148.0546	999	C9H7FN+
150.0539	427	C8H8NO2+
152.0679	330	C8H10NO2+
164.0698	630	C9H10NO2+
176.0472	605	C10H8O3+
232.0383	321	C15H6NO2+
236.1283	380	C16H16N2+
259.05	986	C16H7N2O2+
271.0846	380	C15H13NO4+
299.08	816	C19H11N2O2+
