Mass spectrum: Chlorothalonil R611965; LC-ESI-QTOF; MS2; CE: 30 eV; R=35000; [M+H]+
Name: Chlorothalonil R611965
Name: 3-carbamoyl-2,4,5-trichlorobenzoic acid
Formula: C8H4Cl3NO3
Exact mass: 266.9256760
SMILES: NC(=O)C1=C(Cl)C(Cl)=CC(C(O)=O)=C1Cl
InChI: InChI=1S/C8H4Cl3NO3/c9-3-1-2(8(14)15)5(10)4(6(3)11)7(12)13/h1H,(H2,12,13)(H,14,15)
Instrument: Bruker maXis Impact
Instrument type: LC-ESI-QTOF
Ms type: MS2
Ion mode: POSITIVE
Ionization: ESI
Fragmentation mode: CID
Collision energy: 30 eV
Resolution: 35000
Column name: Acclaim RSLC C18 2.2um, 2.1x100mm, Thermo
Retention time: 3.888 min
Base peak: 184.1176
Precursor m/z: 267.933
Precursor type: [M+H]+
m/z	relative intensity	assigned
250.9028	999	C8H2Cl3O3+
252.8994	779	C8H2Cl2[37]ClO3+
