Mass spectrum: Pyrazophos; LC-ESI-QTOF; MS2; CE: 20 eV; R=35000; [M+H]+
Name: Pyrazophos
Name: ethyl 2-diethoxyphosphinothioyloxy-5-methylpyrazolo[1,5-a]pyrimidine-6-carboxylate
Formula: C14H20N3O5PS
Exact mass: 373.0861284
SMILES: CCOC(=O)C1=CN2N=C(OP(=S)(OCC)OCC)C=C2N=C1C
InChI: InChI=1S/C14H20N3O5PS/c1-5-19-14(18)11-9-17-12(15-10(11)4)8-13(16-17)22-23(24,20-6-2)21-7-3/h8-9H,5-7H2,1-4H3
Instrument: Bruker maXis Impact
Instrument type: LC-ESI-QTOF
Ms type: MS2
Ion mode: POSITIVE
Ionization: ESI
Fragmentation mode: CID
Collision energy: 20 eV
Resolution: 35000
Column name: Acclaim RSLC C18 2.2um, 2.1x100mm, Thermo
Retention time: 11.470 min
Base peak: 374.0939
Precursor m/z: 374.0934
Precursor type: [M+H]+
m/z	relative intensity	assigned
155.0457	15	C2H10N3O3P+
170.0152	15	C14H2+
176.0444	5	C8H6N3O2+
194.0553	39	C8H8N3O3+
205.0837	20	C10H11N3O2+
206.0891	5	C9H19OPS+
210.0327	13	C8H8N3O2S+
211.0529	16	C9H11N2O2S+
222.087	999	C10H12N3O3+
223.0901	85	C9[13]CH12N3O3+
224.092	6	C8[13]C2H12N3O3+
236.0484	25	C10H10N3O2S+
238.0642	169	C10H12N3O2S+
239.0668	19	C9[13]CH12N3O2S+
240.0611	7	C10H12N3O2[34]S+
250.1175	5	C12H16N3O3+
266.0942	8	C13H17NO3P+
300.0196	16	C14H8N2O4S+
318.031	60	C14H10N2O5S+
319.0342	7	C13[13]CH10N2O5S+
328.0512	14	C12H15N3O4PS+
346.0624	233	C12H17N3O5PS+
347.0652	29	C11[13]CH17N3O5PS+
348.0614	10	C12H17N3O5P[34]S+
374.0941	922	C14H21N3O5PS+
375.0966	124	C13[13]CH21N3O5PS+
376.0917	34	C14H21N3O5P[34]S+
