Mass spectrum: Thiophanate-methyl; LC-ESI-QTOF; MS2; CE: 20 eV; R=35000; [M+H]+
Name: Thiophanate-methyl
Name: CID 3085
Name: N`-methoxycarbonyl-N-[2-[(N-methoxycarbonyl-C-sulfanylcarbonimidoyl)amino]phenyl]carbamimidothioic acid
Formula: C12H14N4O4S2
Exact mass: 342.0456469
SMILES: COC(=O)NC(=S)NC1=CC=CC=C1NC(=S)NC(=O)OC
InChI: InChI=1S/C12H14N4O4S2/c1-19-11(17)15-9(21)13-7-5-3-4-6-8(7)14-10(22)16-12(18)20-2/h3-6H,1-2H3,(H2,13,15,17,21)(H2,14,16,18,22)
Instrument: Bruker maXis Impact
Instrument type: LC-ESI-QTOF
Ms type: MS2
Ion mode: POSITIVE
Ionization: ESI
Fragmentation mode: CID
Collision energy: 20 eV
Resolution: 35000
Column name: Acclaim RSLC C18 2.2um, 2.1x100mm, Thermo
Retention time: 6.904 min
Base peak: 343.0528
Precursor m/z: 343.0529
Precursor type: [M+H]+
m/z	relative intensity	assigned
134.0705	5	C7H8N3+
135.0545	5	C7H7N2O+
149.0149	5	C4H7NO3S+
151.0315	999	C4H9NO3S+
152.0344	58	C3[13]CH9NO3S+
153.0272	30	C4H9NO3[34]S+
160.0494	24	C8H6N3O+
192.0755	40	C9H10N3O2+
194.0374	42	C8H8N3OS+
195.0408	5	C7[13]CH8N3OS+
209.0372	5	CH13N4O4S2+
219.0328	17	C9H7N4OS+
226.0638	22	C9H12N3O2S+
235.9936	44	C12H2N3OS+
236.996	5	C11[13]CH2N3OS+
245.012	5	C10H5N4O2S+
251.0584	16	C10H11N4O2S+
268.0204	43	C10H10N3O2S2+
269.0231	6	C9[13]CH10N3O2S2+
277.0382	14	C11H9N4O3S+
278.9996	13	C10H7N4O2S2+
311.0263	44	C11H11N4O3S2+
312.0287	7	C10[13]CH11N4O3S2+
