Mass spectrum: Clotrimazole; LC-ESI-QTOF; MS2; CE: 10 eV; R=35000; [M+H]+
Name: Clotrimazole
Name: 1-[(2-chlorophenyl)-diphenylmethyl]imidazole
Formula: C22H17ClN2
Exact mass: 344.1080262
SMILES: ClC1=CC=CC=C1C(N1C=CN=C1)(C1=CC=CC=C1)C1=CC=CC=C1
InChI: InChI=1S/C22H17ClN2/c23-21-14-8-7-13-20(21)22(25-16-15-24-17-25,18-9-3-1-4-10-18)19-11-5-2-6-12-19/h1-17H
Instrument: Bruker maXis Impact
Instrument type: LC-ESI-QTOF
Ms type: MS2
Ion mode: POSITIVE
Ionization: ESI
Fragmentation mode: CID
Collision energy: 10 eV
Resolution: 35000
Column name: Acclaim RSLC C18 2.2um, 2.1x100mm, Thermo
Retention time: 11.153 min
Base peak: 277.078
Precursor m/z: 345.1153
Precursor type: [M+H]+
m/z	relative intensity	assigned
277.0776	999	C19H14Cl+
278.081	170	C18[13]CH14Cl+
279.075	265	C19H14[37]Cl+
280.0775	30	C17H13ClN2+
