Mass spectrum: Metazachlor BH 479-9; LC-ESI-QTOF; MS2; CE: 40 eV; R=35000; [M+H]+
Name: Metazachlor BH 479-9
Formula: C16H19N3O4S
Exact mass: 349.1096271
SMILES: CC1=CC=CC(C)=C1N(CN1C=CC=N1)C(=O)CS(=O)CC(O)=O
InChI: InChI=1S/C16H19N3O4S/c1-12-5-3-6-13(2)16(12)19(11-18-8-4-7-17-18)14(20)9-24(23)10-15(21)22/h3-8H,9-11H2,1-2H3,(H,21,22)
Instrument: Bruker maXis Impact
Instrument type: LC-ESI-QTOF
Ms type: MS2
Ion mode: POSITIVE
Ionization: ESI
Fragmentation mode: CID
Collision energy: 40 eV
Resolution: 35000
Column name: Acclaim RSLC C18 2.2um, 2.1x100mm, Thermo
Retention time: 4.944 min
Base peak: 350.1163
Precursor m/z: 350.1169
Precursor type: [M+H]+
m/z	relative intensity	assigned
130.9782	14	C2HN3O2S+
132.079	21	C6H12O3+
133.0869	13	C6H13O3+
134.0953	999	C6H14O3+
135.0982	107	C5[13]CH14O3+
136.101	5	C6H14O2[18]O+
148.989	22	C2H3N3O3S+
156.0799	5	C3H14N3O2S+
160.0752	7	C2H14N3O3S+
175.0968	21	C8H15O4+
