Mass spectrum: Ketoconazole; LC-ESI-QTOF; MS2; CE: 30 eV; R=35000; [M+H]+
Name: Ketoconazole
Name: Xolegel
Name: 1-[4-[4-[[(2R,4S)-2-(2,4-dichlorophenyl)-2-(imidazol-1-ylmethyl)-1,3-dioxolan-4-yl]methoxy]phenyl]piperazin-1-yl]ethanone
Formula: C26H28Cl2N4O4
Exact mass: 530.1487607
SMILES: CC(=O)N1CCN(CC1)C1=CC=C(OC[C@H]2CO[C@@](CN3C=CN=C3)(O2)C2=CC=C(Cl)C=C2Cl)C=C1
InChI: InChI=1S/C26H28Cl2N4O4/c1-19(33)31-10-12-32(13-11-31)21-3-5-22(6-4-21)34-15-23-16-35-26(36-23,17-30-9-8-29-18-30)24-7-2-20(27)14-25(24)28/h2-9,14,18,23H,10-13,15-17H2,1H3/t23-,26-/m0/s1
Instrument: Bruker maXis Impact
Instrument type: LC-ESI-QTOF
Ms type: MS2
Ion mode: POSITIVE
Ionization: ESI
Fragmentation mode: CID
Collision energy: 30 eV
Resolution: 35000
Column name: Acclaim RSLC C18 2.2um, 2.1x100mm, Thermo
Retention time: 9.371 min
Base peak: 531.1562
Precursor m/z: 531.156
Precursor type: [M+H]+
m/z	relative intensity	assigned
217.133	7	C6H27Cl2O3+
219.1122	10	C5H25Cl2O4+
220.1195	9	C3H24Cl2N3O3+
244.0048	9	C11H10Cl2O2+
255.0078	7	C17H3O3+
489.1459	26	C24H27Cl2N4O3+
490.1498	7	C23[13]CH27Cl2N4O3+
491.1438	16	C24H27Cl[37]ClN4O3+
531.1576	999	C26H29Cl2N4O4+
532.1603	322	C25[13]CH29Cl2N4O4+
533.1549	686	C26H29Cl[37]ClN4O4+
