Mass spectrum: Kresoxim-methyl; LC-ESI-QTOF; MS2; CE: 30 eV; R=35000; [M+H]+
Name: Kresoxim-methyl
Name: Methyl E-2-methoxyimino-2-[(2-methylphenoxymethyl)phenyl]acetate
Name: methyl (2Z)-2-methoxyimino-2-[2-[(2-methylphenoxy)methyl]phenyl]acetate
Formula: C18H19NO4
Exact mass: 313.1314081
SMILES: CO\N=C(/C(=O)OC)C1=C(COC2=C(C)C=CC=C2)C=CC=C1
InChI: InChI=1S/C18H19NO4/c1-13-8-4-7-11-16(13)23-12-14-9-5-6-10-15(14)17(19-22-3)18(20)21-2/h4-11H,12H2,1-3H3/b19-17-
Instrument: Bruker maXis Impact
Instrument type: LC-ESI-QTOF
Ms type: MS2
Ion mode: POSITIVE
Ionization: ESI
Fragmentation mode: CID
Collision energy: 30 eV
Resolution: 35000
Column name: Acclaim RSLC C18 2.2um, 2.1x100mm, Thermo
Retention time: 10.813 min
Base peak: 314.138
Precursor m/z: 314.1387
Precursor type: [M+H]+
m/z	relative intensity	assigned
116.0484	327	C8H6N+
117.0552	105	C5H9O3+
118.0641	131	C8H8N+
119.0477	18	C8H7O+
119.0675	16	C7[13]CH8N+
121.0632	18	C8H9O+
128.0487	5	C9H6N+
130.0636	166	C6H10O3+
131.0716	999	C6H11O3+
132.0786	458	C6H12O3+
133.0824	44	C5[13]CH12O3+
135.0419	30	C8H7O2+
141.0691	5	C11H9+
146.0583	236	C9H8NO+
147.063	37	C8[13]CH8NO+
148.0722	5	C6H12O4+
152.06	6	C12H8+
153.067	10	C12H9+
162.0896	100	C7H14O4+
163.0929	11	C6[13]CH14O4+
165.0687	21	C13H9+
166.0645	11	C12H8N+
166.0753	15	C13H10+
167.0836	31	C13H11+
168.0791	18	C9H12O3+
169.0621	5	C12H9O+
177.0687	17	C14H9+
178.0759	73	C14H10+
179.0832	90	C14H11+
180.0792	98	C13H10N+
181.0637	7	C13H9O+
181.0847	21	C12[13]CH10N+
181.0982	15	C14H13+
182.0937	8	C10H14O3+
183.0777	6	C13H11O+
191.084	19	C15H11+
192.0808	9	C14H10N+
193.0868	37	C11H13O3+
193.0968	25	C15H13+
194.0711	34	C14H10O+
194.0949	246	C11H14O3+
195.0779	43	C14H11O+
195.1	81	C14H13N+
196.0818	6	C13[13]CH11O+
196.1075	13	C13[13]CH13N+
203.0718	14	C15H9N+
204.0793	68	C15H10N+
205.0847	18	C14[13]CH10N+
206.0583	14	C11H10O4+
206.081	26	C11H12NO3+
206.0944	20	C12H14O3+
207.0682	99	C14H9NO+
207.0753	101	C15H11O+
207.1019	30	C12H15O3+
208.086	184	C15H12O+
209.0901	38	C14[13]CH12O+
210.0897	5	C11H14O4+
210.1249	7	C12H18O3+
211.0739	15	C14H11O2+
220.0737	13	C12H12O4+
221.0826	13	C15H11NO+
221.118	11	C13H17O3+
222.0902	554	C15H12NO+
223.0974	541	C15H13NO+
224.1018	102	C14[13]CH13NO+
225.0894	12	C15H13O2+
225.1049	10	C13[13]C2H13NO+
232.0763	10	C16H10NO+
232.0848	10	C17H12O+
234.0896	9	C13H14O4+
235.0738	216	C16H11O2+
236.077	50	C15[13]CH11O2+
237.0793	6	C15H11NO2+
237.1127	14	C13H17O4+
238.1207	39	C13H18O4+
239.1245	7	C12[13]CH18O4+
250.0851	13	C16H12NO2+
251.0905	6	C16H13NO2+
254.116	26	C16H16NO2+
255.1218	6	C15[13]CH16NO2+
