Mass spectrum: Triallate; LC-ESI-QTOF; MS2; CE: 10 eV; R=35000; [M+H]+
Name: Triallate
Name: S-(2,3,3-trichloroprop-2-enyl) N,N-di(propan-2-yl)carbamothioate
Formula: C10H16Cl3NOS
Exact mass: 303.0018182
SMILES: CC(C)N(C(C)C)C(=O)SCC(Cl)=C(Cl)Cl
InChI: InChI=1S/C10H16Cl3NOS/c1-6(2)14(7(3)4)10(15)16-5-8(11)9(12)13/h6-7H,5H2,1-4H3
Instrument: Bruker maXis Impact
Instrument type: LC-ESI-QTOF
Ms type: MS2
Ion mode: POSITIVE
Ionization: ESI
Fragmentation mode: CID
Collision energy: 10 eV
Resolution: 35000
Column name: Acclaim RSLC C18 2.2um, 2.1x100mm, Thermo
Retention time: 12.809 min
Base peak: 322.1441
Precursor m/z: 304.0091
Precursor type: [M+H]+
m/z	relative intensity	assigned
128.1054	31	C7H14NO+
140.9322	6	C3H3Cl2S+
142.9222	7	C3H2Cl3+
144.9164	6	C3H2Cl2[37]Cl+
149.0233	7	CH16Cl3O+
218.9554	5	C6H10Cl3S+
261.0045	5	C9H16Cl3S+
261.9618	66	C7H11Cl3NOS+
262.9635	12	C10H8Cl3NO+
263.9594	62	C7H11Cl2[37]ClNOS+
304.0093	999	C10H17Cl3NOS+
305.0115	126	C9[13]CH17Cl3NOS+
306.0062	841	C10H17Cl2[37]ClNOS+
