Mass spectrum: Mycophenolic acid; LC-ESI-QTOF; MS2; CE: 50 eV; R=35000; [M+H]+
Name: Mycophenolic acid
Name: (E)-6-(4-hydroxy-6-methoxy-7-methyl-3-oxo-1H-2-benzofuran-5-yl)-4-methylhex-4-enoic acid
Formula: C17H20O6
Exact mass: 320.1259884
SMILES: COC1=C(C)C2=C(C(=O)OC2)C(O)=C1C\C=C(/C)CCC(O)=O
InChI: InChI=1S/C17H20O6/c1-9(5-7-13(18)19)4-6-11-15(20)14-12(8-23-17(14)21)10(2)16(11)22-3/h4,20H,5-8H2,1-3H3,(H,18,19)/b9-4+
Instrument: Bruker maXis Impact
Instrument type: LC-ESI-QTOF
Ms type: MS2
Ion mode: POSITIVE
Ionization: ESI
Fragmentation mode: CID
Collision energy: 50 eV
Resolution: 35000
Column name: Acclaim RSLC C18 2.2um, 2.1x100mm, Thermo
Retention time: 8.784 min
Base peak: 306.081
Precursor m/z: 321.1333
Precursor type: [M+H]+
m/z	relative intensity	assigned
131.048	114	C9H7O+
132.051	17	C8[13]CH7O+
135.0796	28	C9H11O+
145.0633	31	C10H9O+
149.0589	25	C9H9O2+
159.0427	999	C10H7O2+
160.0463	122	C9[13]CH7O2+
161.0567	13	C10H9O2+
177.0534	541	C10H9O3+
178.0571	62	C9[13]CH9O3+
179.069	99	C10H11O3+
195.067	13	C10H11O4+
207.0644	169	C11H11O4+
208.0667	24	C10[13]CH11O4+
