Mass spectrum: Imazapyr; LC-ESI-QTOF; MS2; CE: 10 eV; R=35000; [M+H]+
Name: Imazapyr
Name: 2-(4-methyl-5-oxo-4-propan-2-yl-1H-imidazol-2-yl)pyridine-3-carboxylic acid
Formula: C13H15N3O3
Exact mass: 261.1113413
SMILES: CC(C)C1(C)N=C(NC1=O)C1=NC=CC=C1C(O)=O
InChI: InChI=1S/C13H15N3O3/c1-7(2)13(3)12(19)15-10(16-13)9-8(11(17)18)5-4-6-14-9/h4-7H,1-3H3,(H,17,18)(H,15,16,19)
Instrument: Bruker maXis Impact
Instrument type: LC-ESI-QTOF
Ms type: MS2
Ion mode: POSITIVE
Ionization: ESI
Fragmentation mode: CID
Collision energy: 10 eV
Resolution: 35000
Column name: Acclaim RSLC C18 2.2um, 2.1x100mm, Thermo
Retention time: 4.228 min
Base peak: 262.1184
Precursor m/z: 262.1186
Precursor type: [M+H]+
m/z	relative intensity	assigned
217.096	6	C12H13N2O2+
220.0708	10	C10H10N3O3+
234.1231	11	C12H16N3O2+
262.1189	999	C13H16N3O3+
263.1216	164	C12[13]CH16N3O3+
264.1229	12	C11[13]C2H16N3O3+
