Mass spectrum: Hexazinone; LC-ESI-QTOF; MS2; CE: Ramp 19.9-29.9 eV; R=35000; [M+H]+
Name: Hexazinone
Name: 3-cyclohexyl-6-(dimethylamino)-1-methyl-1,3,5-triazine-2,4-dione
Formula: C12H20N4O2
Exact mass: 252.1586259
SMILES: CN(C)C1=NC(=O)N(C2CCCCC2)C(=O)N1C
InChI: InChI=1S/C12H20N4O2/c1-14(2)10-13-11(17)16(12(18)15(10)3)9-7-5-4-6-8-9/h9H,4-8H2,1-3H3
Instrument: Bruker maXis Impact
Instrument type: LC-ESI-QTOF
Ms type: MS2
Ion mode: POSITIVE
Ionization: ESI
Fragmentation mode: CID
Collision energy: Ramp 19.9-29.9 eV
Resolution: 35000
Column name: Acclaim RSLC C18 2.2um, 2.1x100mm, Thermo
Retention time: 7.118 min
Base peak: 253.1664
Precursor m/z: 253.1659
Precursor type: [M+H]+
m/z	relative intensity	assigned
55.0538	14	C4H7+
71.06	384	C3H7N2+
72.0438	14	C3H6NO+
72.0632	10	C2[13]CH7N2+
83.0238	20	C3H3N2O+
83.0854	30	C6H11+
85.0759	377	C4H9N2+
86.0791	10	C3[13]CH9N2+
101.0351	27	C3H5N2O2+
114.0673	18	C6H10O2+
128.0819	5	C5H10N3O+
171.0875	999	C6H11N4O2+
172.0897	106	C5[13]CH11N4O2+
173.0911	6	C6H11N4O[18]O+
253.1662	82	C12H21N4O2+
254.1689	9	C11[13]CH21N4O2+
