Mass spectrum: Montelukast; LC-ESI-QTOF; MS2; CE: Ramp 27.4-41.1 eV; R=35000; [M+H]+
Name: Montelukast
Name: UCHDWCPVSPXUMX-UHFFFAOYSA-N
Name: 2-[1-[[1-[3-[2-(7-chloroquinolin-2-yl)ethenyl]phenyl]-3-[2-(2-hydroxypropan-2-yl)phenyl]propyl]sulfanylmethyl]cyclopropyl]acetic acid
Formula: C35H36ClNO3S
Exact mass: 585.2104427
SMILES: CC(C)(O)C1=CC=CC=C1CCC(SCC1(CC(O)=O)CC1)C1=CC=CC(C=CC2=NC3=C(C=CC(Cl)=C3)C=C2)=C1
InChI: InChI=1S/C35H36ClNO3S/c1-34(2,40)30-9-4-3-7-25(30)13-17-32(41-23-35(18-19-35)22-33(38)39)27-8-5-6-24(20-27)10-15-29-16-12-26-11-14-28(36)21-31(26)37-29/h3-12,14-16,20-21,32,40H,13,17-19,22-23H2,1-2H3,(H,38,39)
Instrument: Bruker maXis Impact
Instrument type: LC-ESI-QTOF
Ms type: MS2
Ion mode: POSITIVE
Ionization: ESI
Fragmentation mode: CID
Collision energy: Ramp 27.4-41.1 eV
Resolution: 35000
Column name: Acclaim RSLC C18 2.2um, 2.1x100mm, Thermo
Retention time: 12.958 min
Base peak: 102.1283
Precursor m/z: 586.2177
Precursor type: [M+H]+
m/z	relative intensity	assigned
131.0848	50	C10H11+
132.0887	5	C9[13]CH11+
157.0998	7	C6H18ClO2+
243.103	7	C12H18ClNO2+
245.1319	7	C19H17+
276.0573	103	C21H8O+
277.0604	25	C20[13]CH8O+
278.0727	227	C18H13ClN+
279.077	49	C17[13]CH13ClN+
280.0702	51	C18H13[37]ClN+
281.0746	9	C15H18ClOS+
292.0883	30	C19H15ClN+
293.093	8	C18[13]CH15ClN+
294.0861	9	C19H15[37]ClN+
318.1049	7	C15H23ClO3S+
380.119	10	C29H16O+
382.1343	12	C29H18O+
422.1673	999	C29H25ClN+
423.1706	327	C28[13]CH25ClN+
424.1652	328	C29H25[37]ClN+
425.1682	83	C29H26ClO+
426.1678	6	C25H29ClNOS+
440.1779	122	C29H27ClNO+
441.1813	38	C28[13]CH27ClNO+
442.1761	35	C29H27[37]ClNO+
443.1788	7	C35H23+
456.1532	7	C32H24OS+
568.207	113	C35H35ClNO2S+
569.211	42	C34[13]CH35ClNO2S+
570.2055	40	C35H35[37]ClNO2S+
571.2056	11	C35H36ClO3S+
586.2168	7	C35H37ClNO3S+
