Mass spectrum: 1-(3-carboxypropyl)-3,7-dimethylxanthine; LC-ESI-QTOF; MS2; CE: 10 eV; R=35000; [M+H]+
Name: 1-(3-carboxypropyl)-3,7-dimethylxanthine
Name: 4-(3,7-dimethyl-2,6-dioxopurin-1-yl)butanoic acid
Formula: C11H14N4O4
Exact mass: 266.1015049
SMILES: CN1C=NC2=C1C(=O)N(CCCC(O)=O)C(=O)N2C
InChI: InChI=1S/C11H14N4O4/c1-13-6-12-9-8(13)10(18)15(11(19)14(9)2)5-3-4-7(16)17/h6H,3-5H2,1-2H3,(H,16,17)
Instrument: Bruker maXis Impact
Instrument type: LC-ESI-QTOF
Ms type: MS2
Ion mode: POSITIVE
Ionization: ESI
Fragmentation mode: CID
Collision energy: 10 eV
Resolution: 35000
Column name: Acclaim RSLC C18 2.2um, 2.1x100mm, Thermo
Retention time: 4.480 min
Base peak: 267.108
Precursor m/z: 267.1088
Precursor type: [M+H]+
m/z	relative intensity	assigned
181.0693	6	C7H9N4O2+
193.0699	6	C8H9N4O2+
205.1062	8	C7H15N3O4+
209.1133	27	C10H15N3O2+
221.1024	116	C10H13N4O2+
222.1051	17	C9[13]CH13N4O2+
249.0972	999	C11H13N4O3+
250.0991	131	C10[13]CH13N4O3+
267.1079	267	C11H15N4O4+
268.1116	34	C10[13]CH15N4O4+
