Mass spectrum: N-Formyl-4-aminoantipyrine; LC-ESI-QTOF; MS2; CE: Ramp 19.2-28.7 eV; R=35000; [M+H]+
Name: N-Formyl-4-aminoantipyrine
Name: 4-Formylaminoantipyrine
Name: N-(1,5-dimethyl-3-oxo-2-phenylpyrazol-4-yl)formamide
Formula: C12H13N3O2
Exact mass: 231.1007767
SMILES: CN1N(C(=O)C(NC=O)=C1C)C1=CC=CC=C1
InChI: InChI=1S/C12H13N3O2/c1-9-11(13-8-16)12(17)15(14(9)2)10-6-4-3-5-7-10/h3-8H,1-2H3,(H,13,16)
Instrument: Bruker maXis Impact
Instrument type: LC-ESI-QTOF
Ms type: MS2
Ion mode: POSITIVE
Ionization: ESI
Fragmentation mode: CID
Collision energy: Ramp 19.2-28.7 eV
Resolution: 35000
Column name: Acclaim RSLC C18 2.2um, 2.1x100mm, Thermo
Retention time: 4.039 min
Base peak: 232.1081
Precursor m/z: 232.1081
Precursor type: [M+H]+
m/z	relative intensity	assigned
53.038	11	C4H5+
56.0491	857	C3H6N+
57.0524	23	C2[13]CH6N+
58.0648	23	C3H8N+
68.0489	10	C4H6N+
77.0384	24	C6H5+
83.0604	999	C4H7N2+
84.0636	32	C3[13]CH7N2+
85.076	97	C4H9N2+
94.0657	133	C6H8N+
95.0496	53	C6H7O+
95.0688	7	C5[13]CH8N+
104.0507	523	C7H6N+
105.052	33	C6[13]CH6N+
111.057	17	C5H7N2O+
118.0653	8	C8H8N+
128.0484	5	C9H6N+
130.0643	9	C9H8N+
132.0439	6	C8H6NO+
145.0748	24	C9H9N2+
146.0591	48	C9H8NO+
158.0587	10	C10H8NO+
159.0909	109	C10H11N2+
160.0939	10	C9[13]CH11N2+
173.07	28	C10H9N2O+
185.0709	7	C11H9N2O+
186.1016	7	C11H12N3+
187.0861	104	C11H11N2O+
188.0891	12	C10[13]CH11N2O+
189.089	30	C10H11N3O+
199.0733	14	C11H9N3O+
204.1127	348	C11H14N3O+
205.1156	38	C10[13]CH14N3O+
214.0972	506	C12H12N3O+
215.1003	64	C11[13]CH12N3O+
232.1077	274	C12H14N3O2+
233.1111	33	C11[13]CH14N3O2+
