Mass spectrum: N-Acetyl mesalazine; LC-ESI-QTOF; MS2; CE: 40 eV; R=35000; [M+H]+
Name: N-Acetyl mesalazine
Name: N-Acetyl-5-aminosalicylic acid
Name: 5-acetamido-2-hydroxybenzoic acid
Formula: C9H9NO4
Exact mass: 195.0531578
SMILES: CC(=O)NC1=CC=C(O)C(=C1)C(O)=O
InChI: InChI=1S/C9H9NO4/c1-5(11)10-6-2-3-8(12)7(4-6)9(13)14/h2-4,12H,1H3,(H,10,11)(H,13,14)
Instrument: Bruker maXis Impact
Instrument type: LC-ESI-QTOF
Ms type: MS2
Ion mode: POSITIVE
Ionization: ESI
Fragmentation mode: CID
Collision energy: 40 eV
Resolution: 35000
Column name: Acclaim RSLC C18 2.2um, 2.1x100mm, Thermo
Retention time: 3.483 min
Base peak: 196.0594
Precursor m/z: 196.0604
Precursor type: [M+H]+
m/z	relative intensity	assigned
136.0382	999	C7H6NO2+
