Mass spectrum: N-Formyl-4-aminoantipyrine; LC-ESI-QTOF; MS2; CE: 40 eV; R=35000; [M+H]+
Name: N-Formyl-4-aminoantipyrine
Name: 4-Formylaminoantipyrine
Name: N-(1,5-dimethyl-3-oxo-2-phenylpyrazol-4-yl)formamide
Formula: C12H13N3O2
Exact mass: 231.1007767
SMILES: CN1N(C(=O)C(NC=O)=C1C)C1=CC=CC=C1
InChI: InChI=1S/C12H13N3O2/c1-9-11(13-8-16)12(17)15(14(9)2)10-6-4-3-5-7-10/h3-8H,1-2H3,(H,13,16)
Instrument: Bruker maXis Impact
Instrument type: LC-ESI-QTOF
Ms type: MS2
Ion mode: POSITIVE
Ionization: ESI
Fragmentation mode: CID
Collision energy: 40 eV
Resolution: 35000
Column name: Acclaim RSLC C18 2.2um, 2.1x100mm, Thermo
Retention time: 4.086 min
Base peak: 232.1079
Precursor m/z: 232.1081
Precursor type: [M+H]+
m/z	relative intensity	assigned
115.0536	154	C9H7+
116.0479	60	C8H6N+
117.0568	291	C8H7N+
118.0638	310	C8H8N+
119.0602	208	C7H7N2+
120.0438	46	C7H6NO+
122.0586	57	C7H8NO+
128.0482	951	C9H6N+
129.0516	151	C4H7N3O2+
130.0514	83	C8H6N2+
130.0641	999	C9H8N+
131.0601	183	C8H7N2+
132.0432	256	C8H6NO+
132.0655	128	C8H8N2+
132.0798	855	C9H10N+
133.0816	99	C8[13]CH10N+
140.0486	70	C10H6N+
142.0517	50	C9H6N2+
142.064	100	C10H8N+
143.0584	195	C9H7N2+
143.0701	120	C5H9N3O2+
144.0666	249	C9H8N2+
144.0781	212	C5H10N3O2+
145.0743	634	C9H9N2+
146.0587	948	C9H8NO+
147.0553	188	C8H7N2O+
147.0912	53	C9H11N2+
148.062	72	C8H8N2O+
155.0583	134	C10H7N2+
156.042	56	C10H6NO+
156.0668	52	C10H8N2+
157.0746	123	C10H9N2+
158.0462	123	C9H6N2O+
158.0595	95	C10H8NO+
158.082	137	C10H10N2+
159.0554	127	C9H7N2O+
159.0901	985	C10H11N2+
160.0859	356	C9H10N3+
161.0907	45	C8[13]CH10N3+
169.0728	156	C11H9N2+
170.0725	150	C12H10O+
171.0541	308	C10H7N2O+
172.062	229	C10H8N2O+
173.0694	94	C10H9N2O+
174.0648	56	C9H8N3O+
184.0844	64	C11H10N3+
185.0688	147	C11H9N2O+
187.086	97	C11H11N2O+
188.0807	334	C10H10N3O+
189.0911	127	C12H13O2+
194.0446	66	C12H6N2O+
198.0636	68	C11H8N3O+
199.0713	73	C11H9N3O+
214.0963	63	C12H12N3O+
