Mass spectrum: Benzophenone-3; LC-ESI-QTOF; MS2; CE: 30 eV; R=35000; [M+H]+
Name: Benzophenone-3
Name: Oxybenzone
Name: (2-hydroxy-4-methoxyphenyl)-phenylmethanone
Formula: C14H12O3
Exact mass: 228.0786442
SMILES: COC1=CC=C(C(=O)C2=CC=CC=C2)C(O)=C1
InChI: InChI=1S/C14H12O3/c1-17-11-7-8-12(13(15)9-11)14(16)10-5-3-2-4-6-10/h2-9,15H,1H3
Instrument: Bruker maXis Impact
Instrument type: LC-ESI-QTOF
Ms type: MS2
Ion mode: POSITIVE
Ionization: ESI
Fragmentation mode: CID
Collision energy: 30 eV
Resolution: 35000
Column name: Acclaim RSLC C18 2.2um, 2.1x100mm, Thermo
Retention time: 10.808 min
Base peak: 229.0856
Precursor m/z: 229.0859
Precursor type: [M+H]+
m/z	relative intensity	assigned
123.0428	13	C7H7O2+
151.0379	999	C8H7O3+
152.0411	90	C7[13]CH7O3+
153.0437	7	C8H7O2[18]O+
168.0561	6	C12H8O+
229.0855	8	C14H13O3+
