Mass spectrum: Enalapril; LC-ESI-QTOF; MS2; CE: 30 eV; R=35000; [M+H]+
Name: Enalapril
Name: (2S)-1-[(2S)-2-[[(2S)-1-ethoxy-1-oxo-4-phenylbutan-2-yl]amino]propanoyl]pyrrolidine-2-carboxylic acid
Formula: C20H28N2O5
Exact mass: 376.1998220
SMILES: CCOC(=O)[C@H](CCC1=CC=CC=C1)N[C@@H](C)C(=O)N1CCC[C@H]1C(O)=O
InChI: InChI=1S/C20H28N2O5/c1-3-27-20(26)16(12-11-15-8-5-4-6-9-15)21-14(2)18(23)22-13-7-10-17(22)19(24)25/h4-6,8-9,14,16-17,21H,3,7,10-13H2,1-2H3,(H,24,25)/t14-,16-,17-/m0/s1
Instrument: Bruker maXis Impact
Instrument type: LC-ESI-QTOF
Ms type: MS2
Ion mode: POSITIVE
Ionization: ESI
Fragmentation mode: CID
Collision energy: 30 eV
Resolution: 35000
Column name: Acclaim RSLC C18 2.2um, 2.1x100mm, Thermo
Retention time: 6.863 min
Base peak: 377.2067
Precursor m/z: 377.2071
Precursor type: [M+H]+
m/z	relative intensity	assigned
115.0544	11	C9H7+
117.0691	67	C9H9+
118.0729	8	C8[13]CH9+
130.0853	178	C6H12NO2+
131.0881	13	C5[13]CH12NO2+
134.0954	99	C9H12N+
135.0989	15	C8[13]CH12N+
160.1109	324	C11H14N+
161.1149	46	C10[13]CH14N+
162.1254	8	C8H18O3+
188.1058	7	C12H14NO+
206.1164	25	C12H16NO2+
232.133	11	C14H18NO2+
234.1482	999	C14H20NO2+
235.1513	170	C13[13]CH20NO2+
236.1547	14	C12[13]C2H20NO2+
303.1696	190	C17H23N2O3+
304.1738	37	C16[13]CH23N2O3+
377.207	8	C20H29N2O5+
