Mass spectrum: Ondansetron; LC-ESI-QTOF; MS2; CE: 50 eV; R=35000; [M+H]+
Name: Ondansetron
Name: 9-methyl-3-[(2-methylimidazol-1-yl)methyl]-2,3-dihydro-1H-carbazol-4-one
Formula: C18H19N3O
Exact mass: 293.1528122
SMILES: CN1C2=C(C3=CC=CC=C13)C(=O)C(CN1C=CN=C1C)CC2
InChI: InChI=1S/C18H19N3O/c1-12-19-9-10-21(12)11-13-7-8-16-17(18(13)22)14-5-3-4-6-15(14)20(16)2/h3-6,9-10,13H,7-8,11H2,1-2H3
Instrument: Bruker maXis Impact
Instrument type: LC-ESI-QTOF
Ms type: MS2
Ion mode: POSITIVE
Ionization: ESI
Fragmentation mode: CID
Collision energy: 50 eV
Resolution: 35000
Column name: Acclaim RSLC C18 2.2um, 2.1x100mm, Thermo
Retention time: 4.884 min
Base peak: 294.1605
Precursor m/z: 294.1601
Precursor type: [M+H]+
m/z	relative intensity	assigned
115.0538	46	C9H7+
116.0605	16	C9H8+
117.0568	10	C8H7N+
127.0531	9	C10H7+
128.0486	42	C9H6N+
128.061	88	C10H8+
129.0527	5	C8[13]CH6N+
129.0686	54	C10H9+
130.0652	15	C9H8N+
131.0713	7	C9H9N+
141.0685	9	C11H9+
142.0642	113	C10H8N+
143.072	428	C10H9N+
144.0777	64	C9[13]CH9N+
145.0635	7	C8H7N3+
146.0592	10	C9H8NO+
152.061	5	C12H8+
153.0685	10	C12H9+
154.0641	121	C11H8N+
155.0715	111	C11H9N+
156.0435	10	C10H6NO+
156.0778	28	C11H10N+
157.0861	9	C11H11N+
166.0641	7	C12H8N+
167.072	320	C12H9N+
168.0797	503	C12H10N+
169.0872	411	C12H11N+
170.0954	999	C12H12N+
171.0669	138	C11H9NO+
171.0989	110	C11[13]CH12N+
172.0698	17	C10[13]CH9NO+
172.1019	6	C10[13]C2H12N+
180.0797	6	C13H10N+
181.0873	11	C13H11N+
182.0955	176	C13H12N+
183.1008	42	C13H13N+
184.1113	392	C13H14N+
185.1143	63	C12[13]CH14N+
