Mass spectrum: Benzophenone-3; LC-ESI-QTOF; MS2; CE: 50 eV; R=35000; [M+H]+
Name: Benzophenone-3
Name: Oxybenzone
Name: (2-hydroxy-4-methoxyphenyl)-phenylmethanone
Formula: C14H12O3
Exact mass: 228.0786442
SMILES: COC1=CC=C(C(=O)C2=CC=CC=C2)C(O)=C1
InChI: InChI=1S/C14H12O3/c1-17-11-7-8-12(13(15)9-11)14(16)10-5-3-2-4-6-10/h2-9,15H,1H3
Instrument: Bruker maXis Impact
Instrument type: LC-ESI-QTOF
Ms type: MS2
Ion mode: POSITIVE
Ionization: ESI
Fragmentation mode: CID
Collision energy: 50 eV
Resolution: 35000
Column name: Acclaim RSLC C18 2.2um, 2.1x100mm, Thermo
Retention time: 10.800 min
Base peak: 229.0853
Precursor m/z: 229.0859
Precursor type: [M+H]+
m/z	relative intensity	assigned
123.0431	57	C7H7O2+
136.0138	73	C7H4O3+
137.0236	16	C7H5O3+
139.0529	301	C11H7+
140.0594	142	C11H8+
141.065	21	C10[13]CH8+
150.0447	25	C12H6+
151.038	999	C8H7O3+
152.0412	75	C7[13]CH7O3+
152.0605	65	C12H8+
168.0552	61	C12H8O+
169.0635	29	C12H9O+
