Mass spectrum: Triglyme; LC-ESI-QTOF; MS2; CE: 10 eV; R=35000; [M+H]+
Name: Triglyme
Name: 1-methoxy-2-[2-(2-methoxyethoxy)ethoxy]ethane
Formula: C8H18O4
Exact mass: 178.1205091
SMILES: COCCOCCOCCOC
InChI: InChI=1S/C8H18O4/c1-9-3-5-11-7-8-12-6-4-10-2/h3-8H2,1-2H3
Instrument: Bruker maXis Impact
Instrument type: LC-ESI-QTOF
Ms type: MS2
Ion mode: POSITIVE
Ionization: ESI
Fragmentation mode: CID
Collision energy: 10 eV
Resolution: 35000
Column name: Acclaim RSLC C18 2.2um, 2.1x100mm, Thermo
Retention time: 4.279 min
Base peak: 179.1267
Precursor m/z: 179.1278
Precursor type: [M+H]+
m/z	relative intensity	assigned
133.0848	209	C6H13O3+
147.1005	422	C7H15O3+
179.1262	999	C8H19O4+
180.1299	123	C7[13]CH19O4+
