Mass spectrum: 5-Hydroxyindole-3-acetic acid; LC-ESI-QTOF; MS2; CE: 10 eV; R=35000; [M+H]+
Name: 5-Hydroxyindole-3-acetic acid
Name: 2-(5-hydroxy-1H-indol-3-yl)acetic acid
Formula: C10H9NO3
Exact mass: 191.0582431
SMILES: OC(=O)CC1=CNC2=C1C=C(O)C=C2
InChI: InChI=1S/C10H9NO3/c12-7-1-2-9-8(4-7)6(5-11-9)3-10(13)14/h1-2,4-5,11-12H,3H2,(H,13,14)
Instrument: Bruker maXis Impact
Instrument type: LC-ESI-QTOF
Ms type: MS2
Ion mode: POSITIVE
Ionization: ESI
Fragmentation mode: CID
Collision energy: 10 eV
Resolution: 35000
Column name: Acclaim RSLC C18 2.2um, 2.1x100mm, Thermo
Retention time: 3.926 min
Base peak: 192.0641
Precursor m/z: 192.0655
Precursor type: [M+H]+
m/z	relative intensity	assigned
146.0585	999	C9H8NO+
147.0617	141	C8[13]CH8NO+
160.0374	31	C9H6NO2+
162.0523	29	C9H8NO2+
191.0582	28	C10H9NO3+
192.0649	563	C10H10NO3+
193.0665	81	C9[13]CH10NO3+
