Mass spectrum: Terbinafine; LC-ESI-QTOF; MS2; CE: 40 eV; R=35000; [M+H]+
Name: Terbinafine
Name: (E)-N,6,6-trimethyl-N-(naphthalen-1-ylmethyl)hept-2-en-4-yn-1-amine
Formula: C21H25N
Exact mass: 291.1986998
SMILES: CN(C\C=C\C#CC(C)(C)C)CC1=CC=CC2=CC=CC=C12
InChI: InChI=1S/C21H25N/c1-21(2,3)15-8-5-9-16-22(4)17-19-13-10-12-18-11-6-7-14-20(18)19/h5-7,9-14H,16-17H2,1-4H3/b9-5+
Instrument: Bruker maXis Impact
Instrument type: LC-ESI-QTOF
Ms type: MS2
Ion mode: POSITIVE
Ionization: ESI
Fragmentation mode: CID
Collision energy: 40 eV
Resolution: 35000
Column name: Acclaim RSLC C18 2.2um, 2.1x100mm, Thermo
Retention time: 9.755 min
Base peak: 292.2061
Precursor m/z: 292.206
Precursor type: [M+H]+
m/z	relative intensity	assigned
115.0538	115	C9H7+
116.0567	12	C8[13]CH7+
139.0528	6	C11H7+
141.0694	999	C11H9+
142.0723	166	C10[13]CH9+
143.0753	6	C9[13]C2H9+
