Mass spectrum: Ziprasidone; LC-ESI-QTOF; MS2; CE: 40 eV; R=35000; [M+H]+
Name: Ziprasidone
Name: 5-[2-[4-(1,2-benzothiazol-3-yl)piperazin-1-yl]ethyl]-6-chloro-1,3-dihydroindol-2-one
Formula: C21H21ClN4OS
Exact mass: 412.1124600
SMILES: ClC1=C(CCN2CCN(CC2)C2=NSC3=CC=CC=C23)C=C2CC(=O)NC2=C1
InChI: InChI=1S/C21H21ClN4OS/c22-17-13-18-15(12-20(27)23-18)11-14(17)5-6-25-7-9-26(10-8-25)21-16-3-1-2-4-19(16)28-24-21/h1-4,11,13H,5-10,12H2,(H,23,27)
Instrument: Bruker maXis Impact
Instrument type: LC-ESI-QTOF
Ms type: MS2
Ion mode: POSITIVE
Ionization: ESI
Fragmentation mode: CID
Collision energy: 40 eV
Resolution: 35000
Column name: Acclaim RSLC C18 2.2um, 2.1x100mm, Thermo
Retention time: 7.224 min
Base peak: 413.1194
Precursor m/z: 413.1197
Precursor type: [M+H]+
m/z	relative intensity	assigned
130.0642	26	C9H8N+
131.0718	21	C9H9N+
151.0312	5	C9H8Cl+
158.0587	22	C8H6N4+
159.0667	150	C8H7N4+
160.0693	12	C7[13]CH7N4+
166.0407	114	C9H9ClN+
167.0441	11	C8[13]CH9ClN+
168.0378	23	C9H9[37]ClN+
177.0467	139	C11H10Cl+
178.0502	13	C10[13]CH10Cl+
191.1166	55	C11H15N2O+
192.1203	9	C10[13]CH15N2O+
194.036	999	C8H7ClN4+
195.0389	91	C7[13]CH7ClN4+
196.0329	217	C8H7[37]ClN4+
197.0361	15	C8H8ClN3O+
203.0626	8	C13H12Cl+
205.0784	8	C13H14Cl+
217.066	5	C13H12ClN+
220.0895	25	C13H15ClN+
232.0911	5	C14H16OS+
237.0784	5	C12H14ClN2O+
413.1184	18	C21H22ClN4OS+
414.1207	5	C20[13]CH22ClN4OS+
415.1162	6	C21H22[37]ClN4OS+
