Mass spectrum: 4`-Aminoacetanilide; LC-ESI-QTOF; MS2; CE: Ramp 16.2-24.4 eV; R=35000; [M+H]+
Name: 4`-Aminoacetanilide
Name: N-(4-aminophenyl)acetamide
Formula: C8H10N2O
Exact mass: 150.07931294
SMILES: CC(=O)NC1=CC=C(N)C=C1
InChI: InChI=1S/C8H10N2O/c1-6(11)10-8-4-2-7(9)3-5-8/h2-5H,9H2,1H3,(H,10,11)
Instrument: Bruker maXis Impact
Instrument type: LC-ESI-QTOF
Ms type: MS2
Ion mode: POSITIVE
Ionization: ESI
Fragmentation mode: CID
Collision energy: Ramp 16.2-24.4 eV
Resolution: 35000
Column name: Acclaim RSLC C18 2.2um, 2.1x100mm, Thermo
Retention time: 2.180 min
Base peak: 151.0859
Precursor m/z: 151.0866
Precursor type: [M+H]+
m/z	relative intensity	assigned
65.0377	27	C5H5+
68.0493	7	C4H6N+
80.0485	11	C5H6N+
82.0632	8	C5H8N+
92.0495	106	C6H6N+
93.0559	12	C6H7N+
108.0688	33	C6H8N2+
109.0769	232	C6H9N2+
110.0606	31	C6H8NO+
110.0795	25	C5[13]CH9N2+
133.0751	114	C8H9N2+
134.0786	7	C7[13]CH9N2+
151.0857	999	C8H11N2O+
152.0885	78	C7[13]CH11N2O+
153.0907	5	C6[13]C2H11N2O+
