Mass spectrum: Dimethylaminophenazone; LC-ESI-QTOF; MS2; CE: 30 eV; R=35000; [M+H]+
Name: Dimethylaminophenazone
Name: Aminopyrine
Name: 4-(dimethylamino)-1,5-dimethyl-2-phenylpyrazol-3-one
Formula: C13H17N3O
Exact mass: 231.1371622
SMILES: CN(C)C1=C(C)N(C)N(C1=O)C1=CC=CC=C1
InChI: InChI=1S/C13H17N3O/c1-10-12(14(2)3)13(17)16(15(10)4)11-8-6-5-7-9-11/h5-9H,1-4H3
Instrument: Bruker maXis Impact
Instrument type: LC-ESI-QTOF
Ms type: MS2
Ion mode: POSITIVE
Ionization: ESI
Fragmentation mode: CID
Collision energy: 30 eV
Resolution: 35000
Column name: Acclaim RSLC C18 2.2um, 2.1x100mm, Thermo
Retention time: 4.881 min
Base peak: 232.144
Precursor m/z: 232.1444
Precursor type: [M+H]+
m/z	relative intensity	assigned
111.0906	175	C6H11N2+
113.1061	86	C6H13N2+
115.0519	21	C9H7+
117.058	32	C8H7N+
118.0641	513	C8H8N+
119.0496	19	C8H7O+
120.043	20	C7H6NO+
123.054	251	C6H7N2O+
124.0583	32	C5[13]CH7N2O+
125.0692	21	C6H9N2O+
128.0487	174	C9H6N+
129.0546	41	C9H7N+
130.0636	183	C9H8N+
132.043	637	C8H6NO+
132.0792	251	C9H10N+
133.0475	64	C7[13]CH6NO+
133.0755	230	C8H9N2+
134.0586	199	C8H8NO+
137.0691	25	C7H9N2O+
139.0858	32	C7H11N2O+
142.0663	37	C10H8N+
144.0669	31	C9H8N2+
144.0789	63	C10H10N+
145.0741	20	C9H9N2+
145.0868	34	C10H11N+
146.0581	277	C9H8NO+
147.061	38	C8[13]CH8NO+
147.0896	105	C9H11N2+
149.1058	487	C9H13N2+
150.1087	76	C8[13]CH13N2+
155.0692	46	C11H9N+
157.0513	67	C10H7NO+
157.0736	27	C10H9N2+
158.0576	37	C10H8NO+
158.0812	43	C10H10N2+
159.0902	999	C10H11N2+
160.0739	25	C10H10NO+
160.093	132	C9[13]CH11N2+
161.0702	68	C9H9N2O+
171.0546	42	C10H7N2O+
171.0927	21	C11H11N2+
172.0605	57	C10H8N2O+
173.0681	112	C10H9N2O+
173.1071	37	C11H13N2+
174.0748	22	C10H10N2O+
174.1009	23	C10H12N3+
175.0849	123	C10H11N2O+
177.1006	573	C10H13N2O+
178.1046	60	C9[13]CH13N2O+
185.0689	266	C11H9N2O+
186.0749	49	C10[13]CH9N2O+
187.085	87	C11H11N2O+
188.0937	95	C11H12N2O+
188.117	22	C11H14N3+
198.1002	22	C12H12N3+
199.0852	170	C12H11N2O+
200.0923	40	C12H12N2O+
201.099	65	C12H13N2O+
202.0961	324	C11H12N3O+
203.0993	58	C10[13]CH12N3O+
214.1333	19	C13H16N3+
216.1114	562	C12H14N3O+
217.1184	199	C12H15N3O+
218.1196	19	C11[13]CH15N3O+
230.1279	131	C13H16N3O+
231.1311	36	C13H17N3O+
232.1435	23	C13H18N3O+
