Mass spectrum: Domperidone; LC-ESI-QTOF; MS2; CE: 20 eV; R=35000; [M+H]+
Name: Domperidone
Name: 6-chloro-3-[1-[3-(2-oxo-3H-benzimidazol-1-yl)propyl]piperidin-4-yl]-1H-benzimidazol-2-one
Formula: C22H24ClN5O2
Exact mass: 425.1618527
SMILES: ClC1=CC2=C(C=C1)N(C1CCN(CCCN3C(=O)NC4=CC=CC=C34)CC1)C(=O)N2
InChI: InChI=1S/C22H24ClN5O2/c23-15-6-7-20-18(14-15)25-22(30)28(20)16-8-12-26(13-9-16)10-3-11-27-19-5-2-1-4-17(19)24-21(27)29/h1-2,4-7,14,16H,3,8-13H2,(H,24,29)(H,25,30)
Instrument: Bruker maXis Impact
Instrument type: LC-ESI-QTOF
Ms type: MS2
Ion mode: POSITIVE
Ionization: ESI
Fragmentation mode: CID
Collision energy: 20 eV
Resolution: 35000
Column name: Acclaim RSLC C18 2.2um, 2.1x100mm, Thermo
Retention time: 5.777 min
Base peak: 411.2184
Precursor m/z: 426.1691
Precursor type: [M+H]+
m/z	relative intensity	assigned
147.054	12	C6H5N5+
175.0852	154	C8H9N5+
176.0885	15	C7[13]CH9N5+
426.1688	999	C22H25ClN5O2+
427.1715	242	C21[13]CH25ClN5O2+
428.1664	280	C22H25[37]ClN5O2+
