Mass spectrum: Duloxetine; LC-ESI-QTOF; MS2; CE: 20 eV; R=35000; [M+H]+
Name: Duloxetine
Name: N-Methyl-gamma-(1-naphthalenyloxy)-2-thiophenepropanamine
Name: N-methyl-3-naphthalen-1-yloxy-3-thiophen-2-ylpropan-1-amine
Formula: C18H19NOS
Exact mass: 297.1187352
SMILES: CNCCC(OC1=C2C=CC=CC2=CC=C1)C1=CC=CS1
InChI: InChI=1S/C18H19NOS/c1-19-12-11-17(18-10-5-13-21-18)20-16-9-4-7-14-6-2-3-8-15(14)16/h2-10,13,17,19H,11-12H2,1H3
Instrument: Bruker maXis Impact
Instrument type: LC-ESI-QTOF
Ms type: MS2
Ion mode: POSITIVE
Ionization: ESI
Fragmentation mode: CID
Collision energy: 20 eV
Resolution: 35000
Column name: Acclaim RSLC C18 2.2um, 2.1x100mm, Thermo
Retention time: 7.884 min
Base peak: 298.1257
Precursor m/z: 298.126
Precursor type: [M+H]+
m/z	relative intensity	assigned
123.0252	484	C7H7S+
124.0329	854	C10H4+
125.0367	109	C9[13]CH4+
154.0675	299	C8H12NS+
155.0739	999	C8H13NS+
156.0793	143	C7[13]CH13NS+
157.0635	450	C11H9O+
183.0791	787	C13H11O+
184.0833	132	C12[13]CH11O+
239.0497	149	C18H7O+
267.0823	501	C17H15OS+
298.1245	470	C18H20NOS+
299.1265	97	C17[13]CH20NOS+
