Mass spectrum: Finasteride; LC-ESI-QTOF; MS2; CE: 50 eV; R=35000; [M+H]+
Name: Finasteride
Name: (1S,3aS,3bS,5aR,9aR,9bS,11aS)-N-tert-butyl-9a,11a-dimethyl-7-oxo-1,2,3,3a,3b,4,5,5a,6,9b,10,11-dodecahydroindeno[5,4-f]quinoline-1-carboxamide
Formula: C23H36N2O2
Exact mass: 372.2776784
SMILES: CC(C)(C)NC(=O)[C@H]1CC[C@H]2[C@@H]3CC[C@H]4NC(=O)C=C[C@]4(C)[C@H]3CC[C@]12C
InChI: InChI=1S/C23H36N2O2/c1-21(2,3)25-20(27)17-8-7-15-14-6-9-18-23(5,13-11-19(26)24-18)16(14)10-12-22(15,17)4/h11,13-18H,6-10,12H2,1-5H3,(H,24,26)(H,25,27)/t14-,15-,16-,17+,18+,22-,23+/m0/s1
Instrument: Bruker maXis Impact
Instrument type: LC-ESI-QTOF
Ms type: MS2
Ion mode: POSITIVE
Ionization: ESI
Fragmentation mode: CID
Collision energy: 50 eV
Resolution: 35000
Column name: Acclaim RSLC C18 2.2um, 2.1x100mm, Thermo
Retention time: 9.939 min
Base peak: 373.2851
Precursor m/z: 373.285
Precursor type: [M+H]+
m/z	relative intensity	assigned
115.0535	7	C9H7+
117.0692	19	C9H9+
119.0845	70	C9H11+
120.0874	7	C8[13]CH11+
121.0638	12	C8H9O+
121.1005	42	C9H13+
122.0595	46	C7H8NO+
122.1029	5	C8[13]CH13+
123.0653	9	C7H9NO+
123.0788	6	C8H11O+
123.1162	5	C9H15+
124.075	23	C7H10NO+
126.0902	16	C7H12NO+
128.0611	12	C10H8+
129.0685	27	C10H9+
130.0766	8	C10H10+
131.0842	96	C10H11+
132.0874	11	C9[13]CH11+
133.0635	7	C9H9O+
133.1	146	C10H13+
134.0587	24	C8H8NO+
134.1026	17	C9[13]CH13+
135.0794	10	C9H11O+
135.1156	54	C10H15+
136.0745	39	C8H10NO+
136.1117	7	C9H14N+
136.1203	5	C9[13]CH15+
138.0901	35	C8H12NO+
140.1055	9	C8H14NO+
141.0689	10	C11H9+
142.0755	8	C6H10N2O2+
143.0841	63	C11H11+
144.0882	9	C10[13]CH11+
145.1	148	C11H13+
146.103	16	C10[13]CH13+
147.0792	23	C10H11O+
147.1156	176	C11H15+
148.0746	31	C9H10NO+
148.1185	19	C10[13]CH15+
149.0793	5	C8[13]CH10NO+
149.0953	10	C10H13O+
149.131	41	C11H17+
150.0903	36	C9H12NO+
150.1341	6	C10[13]CH17+
152.1058	12	C9H14NO+
155.0841	36	C12H11+
156.0907	6	C11[13]CH11+
157.0996	48	C12H13+
158.1039	9	C11[13]CH13+
159.079	23	C11H11O+
159.1154	84	C7H15N2O2+
160.0749	6	C10H10NO+
160.1179	10	C6[13]CH15N2O2+
161.0947	43	C11H13O+
161.1308	66	C12H17+
162.0917	14	C10H12NO+
162.1338	8	C11[13]CH17+
163.1102	14	C11H15O+
163.1466	14	C12H19+
164.1061	26	C10H14NO+
166.1219	7	C10H16NO+
167.0847	7	C13H11+
169.0998	25	C13H13+
170.106	7	C8H14N2O2+
171.0794	5	C12H11O+
171.1156	48	C13H15+
172.1211	9	C12[13]CH15+
173.0944	24	C12H13O+
173.131	136	C13H17+
174.0907	13	C11H12NO+
174.1343	19	C12[13]CH17+
175.1106	31	C12H15O+
175.1469	183	C13H19+
176.1059	41	C11H14NO+
176.1504	22	C12[13]CH19+
177.1109	5	C10[13]CH14NO+
177.1622	14	C13H21+
178.1207	22	C11H16NO+
178.1571	19	C12H20N+
180.1368	7	C11H18NO+
181.0998	22	C14H13+
182.1069	12	C9H14N2O2+
183.1157	28	C14H15+
184.1199	8	C9H16N2O2+
185.0937	7	C13H13O+
185.1311	101	C14H17+
186.1346	17	C13[13]CH17+
187.147	197	C14H19+
188.1052	9	C12H14NO+
188.1494	36	C13[13]CH19+
189.1267	7	C13H17O+
189.1625	112	C14H21+
190.1212	16	C12H16NO+
190.1655	21	C13[13]CH21+
191.1406	6	C13H19O+
192.1375	11	C12H18NO+
194.1516	12	C12H20NO+
195.1156	30	C15H15+
196.1205	7	C14[13]CH15+
197.1312	51	C15H17+
198.1345	12	C14[13]CH17+
199.1106	19	C14H15O+
199.1466	17	C15H19+
200.1117	7	C13H14NO+
201.1267	14	C14H17O+
201.1629	13	C15H21+
202.123	18	C13H16NO+
202.162	5	C14H20N+
203.1422	28	C14H19O+
204.1408	9	C13H18NO+
204.1742	20	C14H22N+
206.1891	5	C14H24N+
209.131	13	C16H17+
211.1465	24	C16H19+
212.1489	5	C15[13]CH19+
213.1259	12	C15H17O+
213.1625	41	C16H21+
214.1641	11	C15[13]CH21+
215.1418	92	C15H19O+
215.1778	12	C16H23+
216.1422	24	C14[13]CH19O+
218.1524	7	C14H20NO+
220.1681	46	C14H22NO+
221.171	7	C13[13]CH22NO+
222.1385	6	C17H18+
223.1458	15	C12H19N2O2+
227.1412	7	C16H19O+
227.1783	34	C17H23+
228.1812	8	C16[13]CH23+
229.1946	6	C17H25+
230.1522	7	C15H20NO+
231.1849	5	C15H23N2+
232.168	67	C15H22NO+
233.1722	11	C14[13]CH22NO+
237.1625	41	C18H21+
238.1662	8	C17[13]CH21+
239.1786	12	C18H23+
240.1356	6	C16H18NO+
241.158	8	C17H21O+
246.1845	60	C16H24NO+
247.1487	7	C19H19+
247.1879	10	C15[13]CH24NO+
249.195	70	C15H25N2O+
250.1991	14	C14[13]CH25N2O+
254.1891	29	C18H24N+
255.173	43	C18H23O+
256.1727	11	C17[13]CH23O+
256.2051	10	C18H26N+
257.1854	6	C18H25O+
258.1842	17	C17H24NO+
265.1588	11	C19H21O+
272.2	38	C18H26NO+
273.2038	8	C17[13]CH26NO+
274.2156	14	C18H28NO+
275.2164	6	C17H27N2O+
282.1845	42	C19H24NO+
283.1706	8	C19H23O2+
283.1876	11	C18[13]CH24NO+
299.2107	37	C19H27N2O+
300.1949	32	C19H26NO2+
301.1943	14	C23H25+
305.2585	999	C19H33N2O+
306.2614	224	C18[13]CH33N2O+
307.2637	21	C17[13]C2H33N2O+
317.2217	131	C19H29N2O2+
318.2243	27	C18[13]CH29N2O2+
329.2228	7	C20H29N2O2+
331.2731	21	C21H35N2O+
355.2736	47	C23H35N2O+
356.2763	13	C22[13]CH35N2O+
357.2537	49	C22H33N2O2+
358.2571	15	C21[13]CH33N2O2+
373.2846	264	C23H37N2O2+
374.288	80	C22[13]CH37N2O2+
375.2904	10	C21[13]C2H37N2O2+
