Mass spectrum: Ropinirole; LC-ESI-QTOF; MS2; CE: Ramp 20.2-30.3 eV; R=35000; [M+H]+
Name: Ropinirole
Name: 4-[2-(dipropylamino)ethyl]-1,3-dihydroindol-2-one
Formula: C16H24N2O
Exact mass: 260.1888634
SMILES: CCCN(CCC)CCC1=C2CC(=O)NC2=CC=C1
InChI: InChI=1S/C16H24N2O/c1-3-9-18(10-4-2)11-8-13-6-5-7-15-14(13)12-16(19)17-15/h5-7H,3-4,8-12H2,1-2H3,(H,17,19)
Instrument: Bruker maXis Impact
Instrument type: LC-ESI-QTOF
Ms type: MS2
Ion mode: POSITIVE
Ionization: ESI
Fragmentation mode: CID
Collision energy: Ramp 20.2-30.3 eV
Resolution: 35000
Column name: Acclaim RSLC C18 2.2um, 2.1x100mm, Thermo
Retention time: 3.938 min
Base peak: 261.197
Precursor m/z: 261.1961
Precursor type: [M+H]+
m/z	relative intensity	assigned
58.0645	7	C3H8N+
72.0805	108	C4H10N+
86.0963	393	C5H12N+
87.0995	13	C4[13]CH12N+
102.1283	15	C6H16N+
105.0706	6	C8H9+
114.1294	999	C7H16N+
117.0572	10	C8H7N+
117.0705	5	C9H9+
132.0807	201	C9H10N+
133.0837	15	C8[13]CH10N+
160.0751	412	C10H10NO+
161.0784	35	C9[13]CH10NO+
261.1965	572	C16H25N2O+
262.1995	117	C15[13]CH25N2O+
263.2014	9	C14[13]C2H25N2O+
