Mass spectrum: 1-(3-carboxypropyl)-3,7-dimethylxanthine; LC-ESI-QTOF; MS2; CE: 20 eV; R=35000; [M+H]+
Name: 1-(3-carboxypropyl)-3,7-dimethylxanthine
Name: 4-(3,7-dimethyl-2,6-dioxopurin-1-yl)butanoic acid
Formula: C11H14N4O4
Exact mass: 266.1015049
SMILES: CN1C=NC2=C1C(=O)N(CCCC(O)=O)C(=O)N2C
InChI: InChI=1S/C11H14N4O4/c1-13-6-12-9-8(13)10(18)15(11(19)14(9)2)5-3-4-7(16)17/h6H,3-5H2,1-2H3,(H,16,17)
Instrument: Bruker maXis Impact
Instrument type: LC-ESI-QTOF
Ms type: MS2
Ion mode: POSITIVE
Ionization: ESI
Fragmentation mode: CID
Collision energy: 20 eV
Resolution: 35000
Column name: Acclaim RSLC C18 2.2um, 2.1x100mm, Thermo
Retention time: 4.481 min
Base peak: 267.1079
Precursor m/z: 267.1088
Precursor type: [M+H]+
m/z	relative intensity	assigned
138.0656	11	C6H8N3O+
181.0703	104	C7H9N4O2+
182.0746	12	C6[13]CH9N4O2+
193.0706	178	C8H9N4O2+
194.0733	18	C7[13]CH9N4O2+
205.1069	22	C7H15N3O4+
206.0686	6	C10H10N2O3+
207.0861	9	C9H11N4O2+
209.0483	7	C11H5N4O+
209.1127	8	C10H15N3O2+
211.0812	100	C8H11N4O3+
212.0857	12	C7[13]CH11N4O3+
221.1026	999	C10H13N4O2+
222.105	103	C9[13]CH13N4O2+
223.1049	12	C11H15N2O3+
249.0974	274	C11H13N4O3+
250.1008	38	C10[13]CH13N4O3+
267.1078	50	C11H15N4O4+
268.1128	8	C10[13]CH15N4O4+
