Mass spectrum: 17-beta-Estradiol; LC-ESI-QTOF; MS2; CE: 50 eV; R=35000; [M+H]+
Name: 17-beta-Estradiol
Name: Estradiol
Name: (8R,9S,13S,14S,17S)-13-methyl-6,7,8,9,11,12,14,15,16,17-decahydrocyclopenta[a]phenanthrene-3,17-diol
Formula: C18H24O2
Exact mass: 272.1776300
SMILES: C[C@]12CC[C@H]3[C@@H](CCC4=CC(O)=CC=C34)[C@@H]1CC[C@@H]2O
InChI: InChI=1S/C18H24O2/c1-18-9-8-14-13-5-3-12(19)10-11(13)2-4-15(14)16(18)6-7-17(18)20/h3,5,10,14-17,19-20H,2,4,6-9H2,1H3/t14-,15-,16+,17+,18+/m1/s1
Instrument: Bruker maXis Impact
Instrument type: LC-ESI-QTOF
Ms type: MS2
Ion mode: POSITIVE
Ionization: ESI
Fragmentation mode: CID
Collision energy: 50 eV
Resolution: 35000
Column name: Acclaim RSLC C18 2.2um, 2.1x100mm, Thermo
Retention time: 11.997 min
Base peak: 370.2381
Precursor m/z: 273.1849
Precursor type: [M+H]+
m/z	relative intensity	assigned
128.062	138	C10H8+
129.068	224	C10H9+
141.069	158	C11H9+
142.0758	290	C11H10+
143.0833	89	C11H11+
153.0688	92	C12H9+
155.0855	142	C12H11+
156.092	135	C12H12+
157.0637	66	C11H9O+
157.0998	205	C12H13+
167.0855	177	C13H11+
168.0906	97	C13H12+
169.1002	158	C13H13+
170.1088	67	C13H14+
182.1084	286	C14H14+
183.1138	187	C14H15+
195.0773	69	C14H11O+
197.0925	59	C14H13O+
197.1323	999	C15H17+
198.136	157	C14[13]CH17+
210.1059	182	C15H14O+
211.1094	98	C15H15O+
212.156	161	C16H20+
225.1271	615	C16H17O+
226.043	108	C17H6O+
226.1291	161	C15[13]CH17O+
228.0211	105	C16H4O2+
240.1503	77	C17H20O+
