Mass spectrum: N-Formyl-4-aminoantipyrine; LC-ESI-QTOF; MS2; CE: 50 eV; R=35000; [M+H]+
Name: N-Formyl-4-aminoantipyrine
Name: 4-Formylaminoantipyrine
Name: N-(1,5-dimethyl-3-oxo-2-phenylpyrazol-4-yl)formamide
Formula: C12H13N3O2
Exact mass: 231.1007767
SMILES: CN1N(C(=O)C(NC=O)=C1C)C1=CC=CC=C1
InChI: InChI=1S/C12H13N3O2/c1-9-11(13-8-16)12(17)15(14(9)2)10-6-4-3-5-7-10/h3-8H,1-2H3,(H,13,16)
Instrument: Bruker maXis Impact
Instrument type: LC-ESI-QTOF
Ms type: MS2
Ion mode: POSITIVE
Ionization: ESI
Fragmentation mode: CID
Collision energy: 50 eV
Resolution: 35000
Column name: Acclaim RSLC C18 2.2um, 2.1x100mm, Thermo
Retention time: 4.017 min
Base peak: 232.1078
Precursor m/z: 232.1081
Precursor type: [M+H]+
m/z	relative intensity	assigned
115.0528	172	C9H7+
116.0515	66	C8H6N+
117.057	508	C8H7N+
118.0642	284	C8H8N+
119.0592	284	C7H7N2+
123.9946	63	C9O+
128.0487	999	C9H6N+
129.0503	137	C8[13]CH6N+
130.0642	866	C9H8N+
131.0621	226	C8H7N2+
131.0707	274	C4H9N3O2+
132.0433	190	C8H6NO+
132.0657	99	C8H8N2+
132.0801	617	C9H10N+
133.0497	80	C8H7NO+
133.0743	102	C8H9N2+
133.0824	109	C4H11N3O2+
140.0492	134	C10H6N+
142.051	69	C9H6N2+
143.0591	290	C9H7N2+
143.068	208	C5H9N3O2+
144.0648	268	C9H8N2+
144.0795	229	C10H10N+
145.0753	300	C9H9N2+
146.0592	400	C9H8NO+
147.0535	181	C8H7N2O+
155.0618	101	C10H7N2+
157.0388	80	C9H5N2O+
157.0744	207	C10H9N2+
158.045	84	C9H6N2O+
158.08	91	C10H10N2+
159.0901	276	C10H11N2+
160.0862	307	C9H10N3+
168.0658	74	C11H8N2+
169.0751	65	C11H9N2+
170.0716	197	C10H8N3+
171.053	485	C10H7N2O+
172.0598	131	C10H8N2O+
173.0669	62	C10H9N2O+
184.085	60	C11H10N3+
185.0682	122	C11H9N2O+
188.0814	139	C10H10N3O+
