Mass spectrum: Fluvoxamine; LC-ESI-QTOF; MS2; CE: 20 eV; R=35000; [M+H]+
Name: Fluvoxamine
Name: (Z) Fluvoxamine
Name: 2-[[5-methoxy-1-[4-(trifluoromethyl)phenyl]pentylidene]amino]oxyethanamine
Formula: C15H21F3N2O2
Exact mass: 318.1555126
SMILES: COCCCCC(=NOCCN)C1=CC=C(C=C1)C(F)(F)F
InChI: InChI=1S/C15H21F3N2O2/c1-21-10-3-2-4-14(20-22-11-9-19)12-5-7-13(8-6-12)15(16,17)18/h5-8H,2-4,9-11,19H2,1H3
Instrument: Bruker maXis Impact
Instrument type: LC-ESI-QTOF
Ms type: MS2
Ion mode: POSITIVE
Ionization: ESI
Fragmentation mode: CID
Collision energy: 20 eV
Resolution: 35000
Column name: Acclaim RSLC C18 2.2um, 2.1x100mm, Thermo
Retention time: 8.135 min
Base peak: 319.1627
Precursor m/z: 319.1628
Precursor type: [M+H]+
m/z	relative intensity	assigned
130.0646	8	C9H8N+
131.0712	16	C9H9N+
146.1173	5	C7H16NO2+
158.0948	7	C11H12N+
159.04	8	C8H6F3+
172.0356	65	C8H5F3N+
173.0401	6	C7[13]CH5F3N+
174.051	18	C8H7F3N+
180.061	20	C10H8F2N+
183.0418	5	C10H6F3+
184.0479	9	C10H7F3+
185.0559	22	C10H8F3+
186.0558	6	C11H8NO2+
188.0682	5	C9H9F3N+
190.0446	10	C11H6F2N+
190.1214	9	C12H16NO+
198.0513	31	C10H7F3N+
199.0591	28	C10H8F3N+
199.0708	21	C6H10F3N2O2+
200.0674	999	C10H10F2O2+
201.0702	122	C9[13]CH10F2O2+
202.0459	5	C12H6F2N+
202.0727	5	C8[13]C2H10F2O2+
209.0561	7	C12H8F3+
210.0649	8	C12H9F3+
211.0718	7	C12H10F3+
212.0767	9	C7H11F3N2O2+
214.0828	15	C11H11F3N+
224.0666	24	C12H9F3N+
226.083	446	C14H12NO2+
227.0883	109	C13[13]CH12NO2+
228.0984	414	C12H13F3N+
229.1026	63	C11[13]CH13F3N+
230.079	7	C11H11F3NO+
230.11	7	C15H15FO+
239.1108	6	C13H15F2NO+
240.0987	7	C13H13F3N+
241.0841	10	C13H12F3O+
242.0902	88	C13H13F3O+
243.0943	13	C12[13]CH13F3O+
244.0936	209	C15H12F2N+
245.097	30	C14[13]CH12F2N+
252.0985	7	C14H13F3N+
258.1092	365	C13H15F3NO+
259.1169	343	C13H16F3NO+
260.1242	217	C13H17F3NO+
261.1272	32	C12[13]CH17F3NO+
270.1092	27	C14H15F3NO+
272.1244	17	C14H17F3NO+
276.1193	17	C13H17F3NO2+
302.1354	75	C15H19F3NO2+
303.1374	14	C14[13]CH19F3NO2+
319.1621	161	C15H22F3N2O2+
320.1651	32	C14[13]CH22F3N2O2+
