Mass spectrum: Ifosfamide; LC-ESI-QTOF; MS2; CE: 10 eV; R=35000; [M+H]+
Name: Ifosfamide
Name: N,3-bis(2-chloroethyl)-2-oxo-1,3,2lambda5-oxazaphosphinan-2-amine
Formula: C7H15Cl2N2O2P
Exact mass: 260.0248197
SMILES: ClCCNP1(=O)OCCCN1CCCl
InChI: InChI=1S/C7H15Cl2N2O2P/c8-2-4-10-14(12)11(6-3-9)5-1-7-13-14/h1-7H2,(H,10,12)
Instrument: Bruker maXis Impact
Instrument type: LC-ESI-QTOF
Ms type: MS2
Ion mode: POSITIVE
Ionization: ESI
Fragmentation mode: CID
Collision energy: 10 eV
Resolution: 35000
Column name: Acclaim RSLC C18 2.2um, 2.1x100mm, Thermo
Retention time: 5.835 min
Base peak: 261.0319
Precursor m/z: 261.0321
Precursor type: [M+H]+
m/z	relative intensity	assigned
153.9808	5	C7H3ClO2+
182.0119	8	C5H10ClNO2P+
233.0002	20	C5H12Cl2N2O2P+
234.9969	11	C5H12Cl[37]ClN2O2P+
261.0322	999	C7H16Cl2N2O2P+
262.035	78	C6[13]CH16Cl2N2O2P+
263.0289	779	C7H16Cl[37]ClN2O2P+
