Mass spectrum: Labetalol; LC-ESI-QTOF; MS2; CE: 30 eV; R=35000; [M+H]+
Name: Labetalol
Name: 2-hydroxy-5-[1-hydroxy-2-(4-phenylbutan-2-ylamino)ethyl]benzamide
Formula: C19H24N2O3
Exact mass: 328.1786926
SMILES: CC(CCC1=CC=CC=C1)NCC(O)C1=CC(C(N)=O)=C(O)C=C1
InChI: InChI=1S/C19H24N2O3/c1-13(7-8-14-5-3-2-4-6-14)21-12-18(23)15-9-10-17(22)16(11-15)19(20)24/h2-6,9-11,13,18,21-23H,7-8,12H2,1H3,(H2,20,24)
Instrument: Bruker maXis Impact
Instrument type: LC-ESI-QTOF
Ms type: MS2
Ion mode: POSITIVE
Ionization: ESI
Fragmentation mode: CID
Collision energy: 30 eV
Resolution: 35000
Column name: Acclaim RSLC C18 2.2um, 2.1x100mm, Thermo
Retention time: 5.626 min
Base peak: 411.2191
Precursor m/z: 329.186
Precursor type: [M+H]+
m/z	relative intensity	assigned
134.0593	35	C8H8NO+
135.0434	6	C8H7O2+
136.0745	5	C8H10NO+
144.0432	8	C9H6NO+
147.0425	24	C9H7O2+
162.0539	999	C9H8NO2+
163.0568	82	C8[13]CH8NO2+
164.0693	68	C9H10NO2+
165.0532	46	C9H9O3+
165.0734	5	C8[13]CH10NO2+
179.0804	74	C9H11N2O2+
180.0642	33	C9H10NO3+
180.0828	8	C8[13]CH11N2O2+
190.085	91	C11H12NO2+
191.0883	12	C10[13]CH12NO2+
207.1116	47	C11H15N2O2+
208.0952	7	C11H14NO3+
208.1144	7	C10[13]CH15N2O2+
252.1008	5	C16H14NO2+
294.1486	138	C19H20NO2+
295.1505	35	C18[13]CH20NO2+
311.1754	33	C19H23N2O2+
312.1589	43	C19H22NO3+
313.1616	8	C18[13]CH22NO3+
