Mass spectrum: N-Formyl-4-aminoantipyrine; LC-ESI-QTOF; MS2; CE: 20 eV; R=35000; [M+H]+
Name: N-Formyl-4-aminoantipyrine
Name: 4-Formylaminoantipyrine
Name: N-(1,5-dimethyl-3-oxo-2-phenylpyrazol-4-yl)formamide
Formula: C12H13N3O2
Exact mass: 231.1007767
SMILES: CN1N(C(=O)C(NC=O)=C1C)C1=CC=CC=C1
InChI: InChI=1S/C12H13N3O2/c1-9-11(13-8-16)12(17)15(14(9)2)10-6-4-3-5-7-10/h3-8H,1-2H3,(H,13,16)
Instrument: Bruker maXis Impact
Instrument type: LC-ESI-QTOF
Ms type: MS2
Ion mode: POSITIVE
Ionization: ESI
Fragmentation mode: CID
Collision energy: 20 eV
Resolution: 35000
Column name: Acclaim RSLC C18 2.2um, 2.1x100mm, Thermo
Retention time: 4.012 min
Base peak: 232.1081
Precursor m/z: 232.1081
Precursor type: [M+H]+
m/z	relative intensity	assigned
118.0643	5	C8H8N+
130.0642	8	C9H8N+
132.0435	6	C8H6NO+
145.0751	32	C9H9N2+
146.0587	54	C9H8NO+
147.0581	6	C8H7N2O+
158.0587	15	C10H8NO+
159.0906	160	C10H11N2+
160.0939	17	C9[13]CH11N2+
171.0905	6	C11H11N2+
172.086	9	C10H10N3+
173.0696	49	C10H9N2O+
174.0736	5	C9[13]CH9N2O+
176.1171	6	C10H14N3+
185.0694	7	C11H9N2O+
186.1012	10	C11H12N3+
187.0856	164	C11H11N2O+
188.0889	19	C10[13]CH11N2O+
189.0883	40	C10H11N3O+
190.092	5	C9[13]CH11N3O+
199.0726	15	C11H9N3O+
204.1124	632	C11H14N3O+
205.1152	62	C10[13]CH14N3O+
206.1185	5	C9[13]C2H14N3O+
214.0968	999	C12H12N3O+
215.0998	112	C11[13]CH12N3O+
216.1024	8	C10[13]C2H12N3O+
232.1075	383	C12H14N3O2+
233.1101	50	C11[13]CH14N3O2+
