Mass spectrum: Amiodarone; LC-ESI-QTOF; MS2; CE: 50 eV; R=35000; [M+H]+
Name: Amiodarone
Name: (2-butyl-1-benzofuran-3-yl)-[4-[2-(diethylamino)ethoxy]-3,5-diiodophenyl]methanone
Formula: C25H29I2NO3
Exact mass: 645.0236898
SMILES: CCCCC1=C(C(=O)C2=CC(I)=C(OCCN(CC)CC)C(I)=C2)C2=CC=CC=C2O1
InChI: InChI=1S/C25H29I2NO3/c1-4-7-11-22-23(18-10-8-9-12-21(18)31-22)24(29)17-15-19(26)25(20(27)16-17)30-14-13-28(5-2)6-3/h8-10,12,15-16H,4-7,11,13-14H2,1-3H3
Instrument: Bruker maXis Impact
Instrument type: LC-ESI-QTOF
Ms type: MS2
Ion mode: POSITIVE
Ionization: ESI
Fragmentation mode: CID
Collision energy: 50 eV
Resolution: 35000
Column name: Acclaim RSLC C18 2.2um, 2.1x100mm, Thermo
Retention time: 11.860 min
Base peak: 646.0299
Precursor m/z: 646.031
Precursor type: [M+H]+
m/z	relative intensity	assigned
131.0477	86	C9H7O+
158.0339	16	C10H6O2+
159.0422	282	C10H7O2+
160.0465	35	C9[13]CH7O2+
171.0432	64	C11H7O2+
171.0798	35	C12H11O+
183.078	18	C13H11O+
199.0747	22	C13H11O2+
201.0898	999	C13H13O2+
202.0928	187	C12[13]CH13O2+
205.0625	20	C15H9O+
220.09	16	C3H25IO2+
221.0576	80	C15H9O2+
222.0637	29	C15H10O2+
233.0591	74	C16H9O2+
234.0662	78	C16H10O2+
235.0732	91	C16H11O2+
245.9519	21	C8H7IO+
246.0694	23	C4H23IO3+
247.0731	60	C17H11O2+
247.1125	18	C5H28IO2+
248.0818	146	C17H12O2+
249.0526	50	C16H9O3+
249.089	87	C17H13O2+
250.0608	18	C16H10O3+
259.0754	41	C18H11O2+
260.0832	30	C18H12O2+
261.0867	21	C18H13O2+
262.0622	16	C17H10O3+
262.0994	25	C18H14O2+
263.07	50	C20H9N+
263.1051	167	C18H15O2+
264.0768	17	C19[13]CH9N+
264.111	49	C17[13]CH15O2+
272.9401	62	C9H6IO2+
273.0881	22	C19H13O2+
275.0703	203	C18H11O3+
275.1001	18	C5H26INO3+
276.077	652	C18H12O3+
277.084	411	C18H13O3+
278.0907	60	C17[13]CH13O3+
289.0844	26	C19H13O3+
290.0936	167	C19H14O3+
291.0979	66	C19H15O3+
291.1401	28	C10H30IN+
319.1324	138	C21H19O3+
320.1353	48	C20[13]CH19O3+
331.9679	20	C15H9IO+
346.9556	93	C15H8IO2+
347.9623	78	C15H9IO2+
356.8271	32	C7H3I2O+
358.9563	36	C16H8IO2+
359.9626	83	C16H9IO2+
360.9662	28	C2H21I2NO3+
372.822	141	C7H3I2O2+
372.8563	37	C8H7I2O+
372.9733	24	C4H23I2O3+
373.975	26	C17H11IO2+
374.9493	75	C16H8IO3+
375.9581	73	C19H7IN+
376.9686	18	C18[13]CH7IN+
388.9675	50	C17H10IO3+
389.9666	18	C16H9INO3+
390.0041	22	C4H26I2NO3+
398.8366	116	C9H5I2O2+
401.9721	20	C18H11IO3+
402.9791	63	C21H10IN+
403.9819	24	C20[13]CH10IN+
416.9973	98	C19H14IO3+
417.9972	44	C19H15IO3+
418.0077	42	C19H15IO3+
445.0251	30	C21H18IO3+
445.9492	49	C22H7IO3+
446.9442	17	C21[13]CH7IO3+
460.8532	43	C14H7I2O2+
472.8554	28	C15H7I2O2+
474.8608	18	C14H7I2NO2+
476.0703	148	C22H23INO3+
477.072	39	C21[13]CH23INO3+
516.9151	215	C18H15I2O2+
517.9172	45	C17[13]CH15I2O2+
546.9275	18	C22H15I2N+
572.9411	57	C24H17I2N+
573.9459	22	C23[13]CH17I2N+
646.0314	546	C25H30I2NO3+
647.036	163	C24[13]CH30I2NO3+
648.0438	30	C23[13]C2H30I2NO3+
