Mass spectrum: 7-Hydroxymethotrexat; LC-ESI-QTOF; MS2; CE: 30 eV; R=35000; [M+H]+
Name: 7-Hydroxymethotrexat
Name: CID 100833
Name: (2S)-2-[[4-[(2,4-diamino-7-oxo-3H-pteridin-6-yl)methyl-methylamino]benzoyl]amino]pentanedioic acid
Formula: C20H22N8O6
Exact mass: 470.1662304
SMILES: CN(CC1=NC2=C(N=C(N)N=C2N)N=C1O)C1=CC=C(C=C1)C(=O)N[C@@H](CCC(O)=O)C(O)=O
InChI: InChI=1S/C20H22N8O6/c1-28(8-12-18(32)26-16-14(23-12)15(21)25-20(22)27-16)10-4-2-9(3-5-10)17(31)24-11(19(33)34)6-7-13(29)30/h2-5,11H,6-8H2,1H3,(H,24,31)(H,29,30)(H,33,34)(H5,21,22,25,26,27,32)/t11-/m0/s1
Instrument: Bruker maXis Impact
Instrument type: LC-ESI-QTOF
Ms type: MS2
Ion mode: POSITIVE
Ionization: ESI
Fragmentation mode: CID
Collision energy: 30 eV
Resolution: 35000
Column name: Acclaim RSLC C18 2.2um, 2.1x100mm, Thermo
Retention time: 4.722 min
Base peak: 336.1831
Precursor m/z: 471.1735
Precursor type: [M+H]+
m/z	relative intensity	assigned
134.0591	35	C6H6N4+
148.0609	38	C5H10NO4+
191.0667	999	C6H11N2O5+
192.0693	105	C5[13]CH11N2O5+
324.1203	208	C12H16N6O5+
325.1218	39	C11[13]CH16N6O5+
