Mass spectrum: Desloratadine; LC-ESI-QTOF; MS2; CE: Ramp 21.8-32.7 eV; R=35000; [M+H]+
Name: Desloratadine
Name: 13-chloro-2-piperidin-4-ylidene-4-azatricyclo[9.4.0.03,8]pentadeca-1(11),3(8),4,6,12,14-hexaene
Formula: C19H19ClN2
Exact mass: 310.1236763
SMILES: ClC1=CC2=C(C=C1)C(=C1CCNCC1)C1=C(CC2)C=CC=N1
InChI: InChI=1S/C19H19ClN2/c20-16-5-6-17-15(12-16)4-3-14-2-1-9-22-19(14)18(17)13-7-10-21-11-8-13/h1-2,5-6,9,12,21H,3-4,7-8,10-11H2
Instrument: Bruker maXis Impact
Instrument type: LC-ESI-QTOF
Ms type: MS2
Ion mode: POSITIVE
Ionization: ESI
Fragmentation mode: CID
Collision energy: Ramp 21.8-32.7 eV
Resolution: 35000
Column name: Acclaim RSLC C18 2.2um, 2.1x100mm, Thermo
Retention time: 7.302 min
Base peak: 311.132
Precursor m/z: 311.131
Precursor type: [M+H]+
m/z	relative intensity	assigned
82.065	9	C5H8N+
228.057	5	C14H11ClN+
231.1037	8	C17H13N+
232.1103	5	C17H14N+
243.1039	17	C18H13N+
244.1116	16	C18H14N+
246.1275	6	C18H16N+
247.1355	17	C18H17N+
253.0653	15	C16H12ClN+
257.1188	6	C19H15N+
258.1279	172	C19H16N+
259.1362	999	C19H17N+
260.1393	242	C18[13]CH17N+
261.1422	15	C17[13]C2H17N+
266.073	15	C17H13ClN+
267.0809	88	C17H14ClN+
268.0852	17	C16[13]CH14ClN+
269.0784	20	C17H14[37]ClN+
278.0731	6	C18H13ClN+
279.0812	97	C18H14ClN+
280.0877	50	C18H15ClN+
281.0797	22	C18H14[37]ClN+
281.0942	25	C18H16ClN+
282.105	286	C18H17ClN+
283.1079	49	C17[13]CH17ClN+
284.1021	80	C18H17[37]ClN+
292.0893	27	C19H15ClN+
293.0936	9	C18[13]CH15ClN+
294.1051	400	C19H17ClN+
295.1083	83	C18[13]CH17ClN+
296.1025	119	C19H17[37]ClN+
309.1155	5	C19H18ClN2+
311.132	259	C19H20ClN2+
312.1351	52	C18[13]CH20ClN2+
313.1292	69	C19H20[37]ClN2+
