Mass spectrum: Duloxetine; LC-ESI-QTOF; MS2; CE: 40 eV; R=35000; [M+H]+
Name: Duloxetine
Name: N-Methyl-gamma-(1-naphthalenyloxy)-2-thiophenepropanamine
Name: N-methyl-3-naphthalen-1-yloxy-3-thiophen-2-ylpropan-1-amine
Formula: C18H19NOS
Exact mass: 297.1187352
SMILES: CNCCC(OC1=C2C=CC=CC2=CC=C1)C1=CC=CS1
InChI: InChI=1S/C18H19NOS/c1-19-12-11-17(18-10-5-13-21-18)20-16-9-4-7-14-6-2-3-8-15(14)16/h2-10,13,17,19H,11-12H2,1H3
Instrument: Bruker maXis Impact
Instrument type: LC-ESI-QTOF
Ms type: MS2
Ion mode: POSITIVE
Ionization: ESI
Fragmentation mode: CID
Collision energy: 40 eV
Resolution: 35000
Column name: Acclaim RSLC C18 2.2um, 2.1x100mm, Thermo
Retention time: 7.876 min
Base peak: 298.1258
Precursor m/z: 298.126
Precursor type: [M+H]+
m/z	relative intensity	assigned
123.0253	752	C7H7S+
124.0331	999	C7H8S+
125.0365	74	C6[13]CH8S+
127.0533	59	C10H7+
128.0602	115	C10H8+
129.0683	243	C10H9+
153.0677	76	C12H9+
155.0759	301	C11H9N+
155.0836	234	C12H11+
156.0778	54	C10[13]CH9N+
157.0636	327	C11H9O+
165.0688	113	C13H9+
178.0759	138	C14H10+
179.0781	53	C10H13NS+
183.0784	89	C13H11O+
206.0694	61	C15H10O+
211.0553	92	C17H7+
221.041	109	C15H9S+
239.052	98	C15H11OS+
