Mass spectrum: Tetracaine; LC-ESI-QTOF; MS2; CE: Ramp 20.3-30.5 eV; R=35000; [M+H]+
Name: Tetracaine
Name: 2-(dimethylamino)ethyl 4-(butylamino)benzoate
Formula: C15H24N2O2
Exact mass: 264.1837780
SMILES: CCCCNC1=CC=C(C=C1)C(=O)OCCN(C)C
InChI: InChI=1S/C15H24N2O2/c1-4-5-10-16-14-8-6-13(7-9-14)15(18)19-12-11-17(2)3/h6-9,16H,4-5,10-12H2,1-3H3
Instrument: Bruker maXis Impact
Instrument type: LC-ESI-QTOF
Ms type: MS2
Ion mode: POSITIVE
Ionization: ESI
Fragmentation mode: CID
Collision energy: Ramp 20.3-30.5 eV
Resolution: 35000
Column name: Acclaim RSLC C18 2.2um, 2.1x100mm, Thermo
Retention time: 6.298 min
Base peak: 265.1918
Precursor m/z: 265.1911
Precursor type: [M+H]+
m/z	relative intensity	assigned
70.0646	11	C4H8N+
72.0805	703	C4H10N+
73.0836	23	C3[13]CH10N+
92.0497	14	C6H6N+
120.0443	20	C7H6NO+
148.1116	6	C10H14N+
176.1072	999	C11H14NO+
178.1124	11	C10H14N2O+
220.1333	146	C13H18NO2+
221.1362	19	C12[13]CH18NO2+
265.1913	6	C15H25N2O2+
