Mass spectrum: Amiodarone; LC-ESI-QTOF; MS2; CE: 30 eV; R=35000; [M+H]+
Name: Amiodarone
Name: (2-butyl-1-benzofuran-3-yl)-[4-[2-(diethylamino)ethoxy]-3,5-diiodophenyl]methanone
Formula: C25H29I2NO3
Exact mass: 645.0236898
SMILES: CCCCC1=C(C(=O)C2=CC(I)=C(OCCN(CC)CC)C(I)=C2)C2=CC=CC=C2O1
InChI: InChI=1S/C25H29I2NO3/c1-4-7-11-22-23(18-10-8-9-12-21(18)31-22)24(29)17-15-19(26)25(20(27)16-17)30-14-13-28(5-2)6-3/h8-10,12,15-16H,4-7,11,13-14H2,1-3H3
Instrument: Bruker maXis Impact
Instrument type: LC-ESI-QTOF
Ms type: MS2
Ion mode: POSITIVE
Ionization: ESI
Fragmentation mode: CID
Collision energy: 30 eV
Resolution: 35000
Column name: Acclaim RSLC C18 2.2um, 2.1x100mm, Thermo
Retention time: 11.847 min
Base peak: 646.0291
Precursor m/z: 646.031
Precursor type: [M+H]+
m/z	relative intensity	assigned
201.0895	8	C13H13O2+
572.9402	8	C21H19I2O3+
646.0311	999	C25H30I2NO3+
647.0341	293	C24[13]CH30I2NO3+
648.0362	42	C23[13]C2H30I2NO3+
