Mass spectrum: Ifosfamide; LC-ESI-QTOF; MS2; CE: 20 eV; R=35000; [M+H]+
Name: Ifosfamide
Name: N,3-bis(2-chloroethyl)-2-oxo-1,3,2lambda5-oxazaphosphinan-2-amine
Formula: C7H15Cl2N2O2P
Exact mass: 260.0248197
SMILES: ClCCNP1(=O)OCCCN1CCCl
InChI: InChI=1S/C7H15Cl2N2O2P/c8-2-4-10-14(12)11(6-3-9)5-1-7-13-14/h1-7H2,(H,10,12)
Instrument: Bruker maXis Impact
Instrument type: LC-ESI-QTOF
Ms type: MS2
Ion mode: POSITIVE
Ionization: ESI
Fragmentation mode: CID
Collision energy: 20 eV
Resolution: 35000
Column name: Acclaim RSLC C18 2.2um, 2.1x100mm, Thermo
Retention time: 5.818 min
Base peak: 261.0319
Precursor m/z: 261.0321
Precursor type: [M+H]+
m/z	relative intensity	assigned
120.0565	33	C5H11ClN+
122.0534	7	C5H11[37]ClN+
127.9651	9	C5HClO2+
141.981	11	C6H3ClO2+
146.0353	29	C5H9NO2P+
153.9808	377	C3H6ClNO2P+
154.9839	8	C2[13]CH6ClNO2P+
155.9777	70	C3H6[37]ClNO2P+
182.0121	285	C5H10ClNO2P+
183.0153	11	C4[13]CH10ClNO2P+
184.0091	57	C5H10[37]ClNO2P+
200.0228	90	C6H12Cl2NO2+
202.0195	18	C6H12Cl[37]ClNO2+
233.0002	450	C5H12Cl2N2O2P+
234.003	21	C4[13]CH12Cl2N2O2P+
234.9972	238	C5H12Cl[37]ClN2O2P+
261.0317	999	C7H16Cl2N2O2P+
262.0344	58	C6[13]CH16Cl2N2O2P+
263.0287	565	C7H16Cl[37]ClN2O2P+
