Mass spectrum: Clonidine; LC-ESI-QTOF; MS2; CE: 20 eV; R=35000; [M+H]+
Name: Clonidine
Name: N-(2,6-dichlorophenyl)-4,5-dihydro-1H-imidazol-2-amine
Formula: C9H9Cl2N3
Exact mass: 229.0173526
SMILES: ClC1=CC=CC(Cl)=C1NC1=NCCN1
InChI: InChI=1S/C9H9Cl2N3/c10-6-2-1-3-7(11)8(6)14-9-12-4-5-13-9/h1-3H,4-5H2,(H2,12,13,14)
Instrument: Bruker maXis Impact
Instrument type: LC-ESI-QTOF
Ms type: MS2
Ion mode: POSITIVE
Ionization: ESI
Fragmentation mode: CID
Collision energy: 20 eV
Resolution: 35000
Column name: Acclaim RSLC C18 2.2um, 2.1x100mm, Thermo
Retention time: 3.661 min
Base peak: 230.0242
Precursor m/z: 230.0246
Precursor type: [M+H]+
m/z	relative intensity	assigned
212.9971	13	C9H7Cl2N2+
214.9942	6	C9H7Cl[37]ClN2+
230.0251	999	C9H10Cl2N3+
231.0271	154	C8[13]CH10Cl2N3+
232.0217	946	C9H10Cl[37]ClN3+
