Mass spectrum: Benzophenone-3; LC-ESI-QTOF; MS2; CE: Ramp 19.0-28.6 eV; R=35000; [M+H]+
Name: Benzophenone-3
Name: Oxybenzone
Name: (2-hydroxy-4-methoxyphenyl)-phenylmethanone
Formula: C14H12O3
Exact mass: 228.0786442
SMILES: COC1=CC=C(C(=O)C2=CC=CC=C2)C(O)=C1
InChI: InChI=1S/C14H12O3/c1-17-11-7-8-12(13(15)9-11)14(16)10-5-3-2-4-6-10/h2-9,15H,1H3
Instrument: Bruker maXis Impact
Instrument type: LC-ESI-QTOF
Ms type: MS2
Ion mode: POSITIVE
Ionization: ESI
Fragmentation mode: CID
Collision energy: Ramp 19.0-28.6 eV
Resolution: 35000
Column name: Acclaim RSLC C18 2.2um, 2.1x100mm, Thermo
Retention time: 10.816 min
Base peak: 229.0857
Precursor m/z: 229.0859
Precursor type: [M+H]+
m/z	relative intensity	assigned
95.0497	15	C6H7O+
105.0347	66	C7H5O+
106.0383	6	C6[13]CH5O+
123.0433	10	C7H7O2+
151.0382	999	C8H7O3+
152.0415	117	C7[13]CH7O3+
153.0434	9	C8H7O2[18]O+
229.0854	304	C14H13O3+
230.0886	45	C13[13]CH13O3+
