Mass spectrum: Montelukast; LC-ESI-QTOF; MS2; CE: 20 eV; R=35000; [M+H]+
Name: Montelukast
Name: UCHDWCPVSPXUMX-UHFFFAOYSA-N
Name: 2-[1-[[1-[3-[2-(7-chloroquinolin-2-yl)ethenyl]phenyl]-3-[2-(2-hydroxypropan-2-yl)phenyl]propyl]sulfanylmethyl]cyclopropyl]acetic acid
Formula: C35H36ClNO3S
Exact mass: 585.2104427
SMILES: CC(C)(O)C1=CC=CC=C1CCC(SCC1(CC(O)=O)CC1)C1=CC=CC(C=CC2=NC3=C(C=CC(Cl)=C3)C=C2)=C1
InChI: InChI=1S/C35H36ClNO3S/c1-34(2,40)30-9-4-3-7-25(30)13-17-32(41-23-35(18-19-35)22-33(38)39)27-8-5-6-24(20-27)10-15-29-16-12-26-11-14-28(36)21-31(26)37-29/h3-12,14-16,20-21,32,40H,13,17-19,22-23H2,1-2H3,(H,38,39)
Instrument: Bruker maXis Impact
Instrument type: LC-ESI-QTOF
Ms type: MS2
Ion mode: POSITIVE
Ionization: ESI
Fragmentation mode: CID
Collision energy: 20 eV
Resolution: 35000
Column name: Acclaim RSLC C18 2.2um, 2.1x100mm, Thermo
Retention time: 13.351 min
Base peak: 586.2176
Precursor m/z: 586.2177
Precursor type: [M+H]+
m/z	relative intensity	assigned
143.0843	6	C5H16ClO2+
157.1004	9	C12H13+
278.0726	81	C18H13ClN+
279.0764	14	C17[13]CH13ClN+
280.0701	17	C18H13[37]ClN+
292.0883	30	C19H15ClN+
293.0922	5	C18[13]CH15ClN+
294.0862	7	C19H15[37]ClN+
380.122	6	C26H20OS+
422.1674	393	C23H31ClO3S+
423.1705	103	C22[13]CH31ClO3S+
424.1653	93	C23H31[37]ClO3S+
425.168	18	C29H26ClO+
440.1779	145	C29H27ClNO+
441.1809	43	C28[13]CH27ClNO+
442.1755	40	C29H27[37]ClNO+
443.1778	7	C29H28ClO2+
456.1542	16	C29H27ClNS+
458.1531	5	C29H27[37]ClNS+
524.2159	19	C34H35ClNS+
525.2204	7	C33[13]CH35ClNS+
526.2145	7	C34H35[37]ClNS+
568.2076	999	C35H35ClNO2S+
569.2109	346	C34[13]CH35ClNO2S+
570.2059	320	C35H35[37]ClNO2S+
571.2081	73	C35H36ClO3S+
572.2051	7	C34H35ClNO3S+
586.2183	499	C35H37ClNO3S+
587.2215	194	C34[13]CH37ClNO3S+
588.2167	174	C35H37[37]ClNO3S+
