Mass spectrum: Duloxetine; LC-ESI-QTOF; MS2; CE: 10 eV; R=35000; [M+H]+
Name: Duloxetine
Name: N-Methyl-gamma-(1-naphthalenyloxy)-2-thiophenepropanamine
Name: N-methyl-3-naphthalen-1-yloxy-3-thiophen-2-ylpropan-1-amine
Formula: C18H19NOS
Exact mass: 297.1187352
SMILES: CNCCC(OC1=C2C=CC=CC2=CC=C1)C1=CC=CS1
InChI: InChI=1S/C18H19NOS/c1-19-12-11-17(18-10-5-13-21-18)20-16-9-4-7-14-6-2-3-8-15(14)16/h2-10,13,17,19H,11-12H2,1H3
Instrument: Bruker maXis Impact
Instrument type: LC-ESI-QTOF
Ms type: MS2
Ion mode: POSITIVE
Ionization: ESI
Fragmentation mode: CID
Collision energy: 10 eV
Resolution: 35000
Column name: Acclaim RSLC C18 2.2um, 2.1x100mm, Thermo
Retention time: 7.852 min
Base peak: 298.1257
Precursor m/z: 298.126
Precursor type: [M+H]+
m/z	relative intensity	assigned
124.0346	7	C7H8S+
154.0671	997	C8H12NS+
155.0711	125	C7[13]CH12NS+
156.0633	45	C8H12N[34]S+
157.0682	7	C8H13OS+
183.0793	9	C13H11O+
188.1057	17	C12H14NO+
267.0819	31	C17H15OS+
268.0828	7	C16[13]CH15OS+
298.1257	999	C18H20NOS+
299.1288	202	C17[13]CH20NOS+
300.1232	47	C18H20NO[34]S+
