Mass spectrum: Enalapril; LC-ESI-QTOF; MS2; CE: Ramp 22.1-33.2 eV; R=35000; [M+H]+
Name: Enalapril
Name: (2S)-1-[(2S)-2-[[(2S)-1-ethoxy-1-oxo-4-phenylbutan-2-yl]amino]propanoyl]pyrrolidine-2-carboxylic acid
Formula: C20H28N2O5
Exact mass: 376.1998220
SMILES: CCOC(=O)[C@H](CCC1=CC=CC=C1)N[C@@H](C)C(=O)N1CCC[C@H]1C(O)=O
InChI: InChI=1S/C20H28N2O5/c1-3-27-20(26)16(12-11-15-8-5-4-6-9-15)21-14(2)18(23)22-13-7-10-17(22)19(24)25/h4-6,8-9,14,16-17,21H,3,7,10-13H2,1-2H3,(H,24,25)/t14-,16-,17-/m0/s1
Instrument: Bruker maXis Impact
Instrument type: LC-ESI-QTOF
Ms type: MS2
Ion mode: POSITIVE
Ionization: ESI
Fragmentation mode: CID
Collision energy: Ramp 22.1-33.2 eV
Resolution: 35000
Column name: Acclaim RSLC C18 2.2um, 2.1x100mm, Thermo
Retention time: 6.900 min
Base peak: 327.1374
Precursor m/z: 377.2071
Precursor type: [M+H]+
m/z	relative intensity	assigned
56.0491	7	C3H6N+
115.0537	10	C9H7+
117.0702	84	C9H9+
118.0726	6	C8[13]CH9+
130.0859	156	C3H14O5+
131.0884	8	C2[13]CH14O5+
134.0958	65	C9H12N+
135.0994	8	C8[13]CH12N+
160.1116	314	C8H16O3+
161.1144	36	C7[13]CH16O3+
162.1262	5	C8H18O3+
206.1173	17	C12H16NO2+
232.1342	7	C14H18NO2+
234.1491	999	C14H20NO2+
235.1525	198	C13[13]CH20NO2+
236.1557	12	C12[13]C2H20NO2+
303.1709	196	C17H23N2O3+
304.1731	39	C16[13]CH23N2O3+
377.2083	77	C20H29N2O5+
378.213	23	C19[13]CH29N2O5+
