Mass spectrum: Raloxifene; LC-ESI-QTOF; MS2; CE: 30 eV; R=35000; [M+H]+
Name: Raloxifene
Name: [6-hydroxy-2-(4-hydroxyphenyl)-1-benzothiophen-3-yl]-[4-(2-piperidin-1-ylethoxy)phenyl]methanone
Formula: C28H27NO4S
Exact mass: 473.1660793
SMILES: OC1=CC=C(C=C1)C1=C(C(=O)C2=CC=C(OCCN3CCCCC3)C=C2)C2=C(S1)C=C(O)C=C2
InChI: InChI=1S/C28H27NO4S/c30-21-8-4-20(5-9-21)28-26(24-13-10-22(31)18-25(24)34-28)27(32)19-6-11-23(12-7-19)33-17-16-29-14-2-1-3-15-29/h4-13,18,30-31H,1-3,14-17H2
Instrument: Bruker maXis Impact
Instrument type: LC-ESI-QTOF
Ms type: MS2
Ion mode: POSITIVE
Ionization: ESI
Fragmentation mode: CID
Collision energy: 30 eV
Resolution: 35000
Column name: Acclaim RSLC C18 2.2um, 2.1x100mm, Thermo
Retention time: 6.428 min
Base peak: 474.173
Precursor m/z: 474.1734
Precursor type: [M+H]+
m/z	relative intensity	assigned
112.1116	16	C7H14N+
147.0428	7	C9H7O2+
269.0257	27	C21H3N+
474.1734	999	C28H28NO4S+
475.1765	278	C27[13]CH28NO4S+
476.1747	58	C26[13]C2H28NO4S+
