Mass spectrum: Triglyme; LC-ESI-QTOF; MS2; CE: Ramp 17.2-25.9 eV; R=35000; [M+H]+
Name: Triglyme
Name: 1-methoxy-2-[2-(2-methoxyethoxy)ethoxy]ethane
Formula: C8H18O4
Exact mass: 178.12050906
SMILES: COCCOCCOCCOC
InChI: InChI=1S/C8H18O4/c1-9-3-5-11-7-8-12-6-4-10-2/h3-8H2,1-2H3
Instrument: Bruker maXis Impact
Instrument type: LC-ESI-QTOF
Ms type: MS2
Ion mode: POSITIVE
Ionization: ESI
Fragmentation mode: CID
Collision energy: Ramp 17.2-25.9 eV
Resolution: 35000
Column name: Acclaim RSLC C18 2.2um, 2.1x100mm, Thermo
Retention time: 4.306 min
Base peak: 179.1272
Precursor m/z: 179.1278
Precursor type: [M+H]+
m/z	relative intensity	assigned
59.0485	999	C3H7O+
60.0524	29	C2[13]CH7O+
103.0771	46	C5H11O2+
