Mass spectrum: Acetaminophen; LC-ESI-QTOF; MS2; CE: 20 eV; R=35000; [M+H]+
Name: Acetaminophen
Name: N-(4-hydroxyphenyl)acetamide
Formula: C8H9NO2
Exact mass: 151.0633285
SMILES: CC(=O)NC1=CC=C(O)C=C1
InChI: InChI=1S/C8H9NO2/c1-6(10)9-7-2-4-8(11)5-3-7/h2-5,11H,1H3,(H,9,10)
Instrument: Bruker maXis Impact
Instrument type: LC-ESI-QTOF
Ms type: MS2
Ion mode: POSITIVE
Ionization: ESI
Fragmentation mode: CID
Collision energy: 20 eV
Resolution: 35000
Column name: Acclaim RSLC C18 2.2um, 2.1x100mm, Thermo
Retention time: 3.427 min
Base peak: 152.0695
Precursor m/z: 152.0706
Precursor type: [M+H]+
m/z	relative intensity	assigned
109.0512	8	C6H7NO+
110.0593	115	C6H8NO+
134.0587	136	C8H8NO+
135.0626	12	C7[13]CH8NO+
152.0691	999	C8H10NO2+
153.0725	112	C7[13]CH10NO2+
