Mass spectrum: 17-beta-Estradiol; LC-ESI-QTOF; MS2; CE: 20 eV; R=35000; [M+H]+
Name: 17-beta-Estradiol
Name: Estradiol
Name: (8R,9S,13S,14S,17S)-13-methyl-6,7,8,9,11,12,14,15,16,17-decahydrocyclopenta[a]phenanthrene-3,17-diol
Formula: C18H24O2
Exact mass: 272.1776300
SMILES: C[C@]12CC[C@H]3[C@@H](CCC4=CC(O)=CC=C34)[C@@H]1CC[C@@H]2O
InChI: InChI=1S/C18H24O2/c1-18-9-8-14-13-5-3-12(19)10-11(13)2-4-15(14)16(18)6-7-17(18)20/h3,5,10,14-17,19-20H,2,4,6-9H2,1H3/t14-,15-,16+,17+,18+/m1/s1
Instrument: Bruker maXis Impact
Instrument type: LC-ESI-QTOF
Ms type: MS2
Ion mode: POSITIVE
Ionization: ESI
Fragmentation mode: CID
Collision energy: 20 eV
Resolution: 35000
Column name: Acclaim RSLC C18 2.2um, 2.1x100mm, Thermo
Retention time: 12.011 min
Base peak: 370.2378
Precursor m/z: 273.1849
Precursor type: [M+H]+
m/z	relative intensity	assigned
157.099	36	C12H13+
167.1408	26	C11H19O+
175.1099	37	C12H15O+
191.0846	29	C15H11+
224.0639	114	C18H8+
226.0422	95	C17H6O+
227.1784	34	C17H23+
240.1501	81	C17H20O+
255.174	987	C18H23O+
256.1765	180	C17[13]CH23O+
273.1849	999	C18H25O2+
274.1873	259	C17[13]CH25O2+
