Mass spectrum: Norethindrone; LC-ESI-QTOF; MS2; CE: 40 eV; R=35000; [M+H]+
Name: Norethindrone
Name: (8R,9S,10R,13S,14S,17R)-17-ethynyl-17-hydroxy-13-methyl-1,2,6,7,8,9,10,11,12,14,15,16-dodecahydrocyclopenta[a]phenanthren-3-one
Formula: C20H26O2
Exact mass: 298.1932801
SMILES: C[C@]12CC[C@H]3[C@@H](CCC4=CC(=O)CC[C@H]34)[C@@H]1CC[C@@]2(O)C#C
InChI: InChI=1S/C20H26O2/c1-3-20(22)11-9-18-17-6-4-13-12-14(21)5-7-15(13)16(17)8-10-19(18,20)2/h1,12,15-18,22H,4-11H2,2H3/t15-,16+,17+,18-,19-,20-/m0/s1
Instrument: Bruker maXis Impact
Instrument type: LC-ESI-QTOF
Ms type: MS2
Ion mode: POSITIVE
Ionization: ESI
Fragmentation mode: CID
Collision energy: 40 eV
Resolution: 35000
Column name: Acclaim RSLC C18 2.2um, 2.1x100mm, Thermo
Retention time: 9.392 min
Base peak: 299.2001
Precursor m/z: 299.2006
Precursor type: [M+H]+
m/z	relative intensity	assigned
109.0637	17	C7H9O+
115.0535	448	C9H7+
116.0599	106	C9H8+
117.0691	339	C9H9+
118.0721	31	C8[13]CH9+
119.0843	472	C9H11+
120.0879	74	C8[13]CH11+
121.0633	72	C8H9O+
121.1001	164	C9H13+
122.1048	20	C8[13]CH13+
123.0789	147	C8H11O+
123.1159	64	C9H15+
127.0529	61	C10H7+
128.0608	710	C10H8+
129.0683	910	C10H9+
130.0756	270	C10H10+
131.0843	843	C10H11+
132.0556	19	C9H8O+
132.0888	98	C9[13]CH11+
133.0636	132	C9H9O+
133.0996	315	C10H13+
134.1024	35	C9[13]CH13+
135.0791	716	C9H11O+
135.1153	75	C10H15+
136.0826	79	C8[13]CH11O+
136.1201	10	C9[13]CH15+
137.0942	48	C9H13O+
141.0684	479	C11H9+
142.0758	406	C11H10+
143.0839	999	C11H11+
144.0548	25	C10H8O+
144.0897	184	C10[13]CH11+
145.063	94	C10H9O+
145.0996	795	C11H13+
146.0698	37	C10H10O+
146.1037	90	C10[13]CH13+
147.0786	142	C10H11O+
147.1153	117	C11H15+
148.0856	56	C10H12O+
148.1189	15	C10[13]CH15+
149.0944	291	C10H13O+
149.1306	29	C11H17+
150.0976	35	C9[13]CH13O+
151.1101	14	C10H15O+
152.0593	55	C12H8+
153.0683	136	C12H9+
154.0757	163	C12H10+
155.084	456	C12H11+
156.091	333	C12H12+
157.0633	42	C11H9O+
157.0994	575	C12H13+
158.0704	21	C11H10O+
158.1054	95	C11[13]CH13+
159.0788	107	C11H11O+
159.1149	242	C12H15+
160.0843	44	C11H12O+
160.1203	30	C11[13]CH15+
161.0943	414	C11H13O+
161.1309	228	C12H17+
162.1009	76	C10[13]CH13O+
162.1353	37	C11[13]CH17+
163.11	183	C11H15O+
164.1126	32	C10[13]CH15O+
165.0684	154	C13H9+
166.0749	124	C13H10+
167.0836	230	C13H11+
168.0906	151	C13H12+
169.0994	450	C13H13+
170.1061	127	C13H14+
171.115	630	C13H15+
172.1193	104	C12[13]CH15+
173.0942	61	C12H13O+
173.1306	223	C13H17+
174.0996	27	C12H14O+
174.1348	32	C12[13]CH17+
175.1101	188	C12H15O+
176.1145	33	C11[13]CH15O+
177.1244	16	C12H17O+
178.0762	97	C14H10+
179.084	154	C14H11+
180.0913	112	C14H12+
181.0993	218	C14H13+
182.106	104	C14H14+
183.0792	28	C13H11O+
183.1153	185	C14H15+
184.087	20	C13H12O+
184.121	62	C14H16+
185.0952	44	C13H13O+
185.1309	226	C14H17+
186.1357	32	C13[13]CH17+
187.1103	45	C13H15O+
187.1471	72	C14H19+
188.1179	66	C13H16O+
188.1524	10	C13[13]CH19+
189.1259	49	C13H17O+
189.1624	22	C14H21+
190.0758	11	C15H10+
190.133	14	C13H18O+
191.0845	56	C15H11+
192.0904	85	C15H12+
193.0995	147	C15H13+
194.1071	76	C15H14+
195.0809	13	C14H11O+
195.1156	145	C15H15+
196.0861	15	C14H12O+
196.1227	74	C15H16+
197.0939	38	C14H13O+
197.1317	95	C15H17+
198.1011	25	C14H14O+
198.1377	40	C15H18+
199.1088	40	C14H15O+
199.1465	29	C15H19+
200.1156	19	C14H16O+
200.1523	11	C15H20+
201.1262	63	C14H17O+
202.133	38	C14H18O+
203.0853	13	C16H11+
203.1406	21	C14H19O+
204.0921	12	C16H12+
205.1002	77	C16H13+
206.1071	67	C16H14+
207.1151	81	C16H15+
208.1219	68	C16H16+
209.13	84	C16H17+
210.1367	23	C15[13]CH17+
211.1124	28	C15H15O+
211.1456	108	C16H19+
212.1497	21	C15[13]CH19+
213.1261	27	C15H17O+
213.1622	181	C16H21+
214.1311	19	C15H18O+
214.166	47	C15[13]CH21+
215.1396	14	C15H19O+
216.1474	14	C15H20O+
218.1069	15	C17H14+
219.1163	48	C17H15+
220.122	40	C17H16+
221.1311	81	C17H17+
222.1375	26	C17H18+
223.1117	16	C16H15O+
223.1459	92	C17H19+
224.1162	10	C16H16O+
224.123	14	C16H16O+
224.1536	18	C16[13]CH19+
225.1246	35	C16H17O+
225.1641	17	C17H21+
226.1326	15	C16H18O+
227.1405	17	C16H19O+
229.1557	17	C16H21O+
231.1723	196	C16H23O+
232.1761	39	C15[13]CH23O+
233.1318	40	C18H17+
234.1351	23	C18H18+
235.1476	32	C18H19+
236.1521	13	C18H20+
237.163	30	C18H21+
238.1335	10	C17H18O+
238.1658	11	C17[13]CH21+
239.1415	14	C17H19O+
239.1767	14	C18H23+
241.1592	12	C17H21O+
247.1486	12	C19H19+
248.1571	20	C19H20+
252.1458	10	C18H20O+
253.1576	16	C18H21O+
263.1809	23	C20H23+
265.1579	14	C19H21O+
266.1651	12	C19H22O+
281.1901	18	C20H25O+
299.2022	10	C20H27O2+
