Mass spectrum: 17-beta-Estradiol; LC-ESI-QTOF; MS2; CE: Ramp 20.6-31.0 eV; R=35000; [M+H]+
Name: 17-beta-Estradiol
Name: Estradiol
Name: (8R,9S,13S,14S,17S)-13-methyl-6,7,8,9,11,12,14,15,16,17-decahydrocyclopenta[a]phenanthrene-3,17-diol
Formula: C18H24O2
Exact mass: 272.1776300
SMILES: C[C@]12CC[C@H]3[C@@H](CCC4=CC(O)=CC=C34)[C@@H]1CC[C@@H]2O
InChI: InChI=1S/C18H24O2/c1-18-9-8-14-13-5-3-12(19)10-11(13)2-4-15(14)16(18)6-7-17(18)20/h3,5,10,14-17,19-20H,2,4,6-9H2,1H3/t14-,15-,16+,17+,18+/m1/s1
Instrument: Bruker maXis Impact
Instrument type: LC-ESI-QTOF
Ms type: MS2
Ion mode: POSITIVE
Ionization: ESI
Fragmentation mode: CID
Collision energy: Ramp 20.6-31.0 eV
Resolution: 35000
Column name: Acclaim RSLC C18 2.2um, 2.1x100mm, Thermo
Retention time: 11.306 min
Base peak: 315.2317
Precursor m/z: 273.1849
Precursor type: [M+H]+
m/z	relative intensity	assigned
135.1162	106	C10H15+
145.0989	205	C11H13+
147.116	225	C11H15+
159.1166	138	C12H15+
161.1318	124	C12H17+
199.1464	149	C15H19+
224.0632	483	C18H8+
226.0428	999	C17H6O+
