Mass spectrum: Fluvoxamine; LC-ESI-QTOF; MS2; CE: 50 eV; R=35000; [M+H]+
Name: Fluvoxamine
Name: (Z) Fluvoxamine
Name: 2-[[5-methoxy-1-[4-(trifluoromethyl)phenyl]pentylidene]amino]oxyethanamine
Formula: C15H21F3N2O2
Exact mass: 318.1555126
SMILES: COCCCCC(=NOCCN)C1=CC=C(C=C1)C(F)(F)F
InChI: InChI=1S/C15H21F3N2O2/c1-21-10-3-2-4-14(20-22-11-9-19)12-5-7-13(8-6-12)15(16,17)18/h5-8H,2-4,9-11,19H2,1H3
Instrument: Bruker maXis Impact
Instrument type: LC-ESI-QTOF
Ms type: MS2
Ion mode: POSITIVE
Ionization: ESI
Fragmentation mode: CID
Collision energy: 50 eV
Resolution: 35000
Column name: Acclaim RSLC C18 2.2um, 2.1x100mm, Thermo
Retention time: 8.095 min
Base peak: 319.1631
Precursor m/z: 319.1628
Precursor type: [M+H]+
m/z	relative intensity	assigned
115.0537	24	C9H7+
116.0583	7	C4H8N2O2+
117.0552	7	C8H7N+
125.0198	25	C7H3F2+
127.0336	22	C7H5F2+
128.06	11	C5H8N2O2+
129.0561	7	C9H7N+
129.0692	12	C10H9+
130.0641	999	C9H8N+
131.0709	399	C9H9N+
132.0778	57	C8[13]CH9N+
133.0434	113	C9H6F+
134.0437	9	C2H7F3NO2+
135.0465	13	C8H6FN+
140.0485	18	C10H6N+
141.0682	40	C11H9+
142.0762	37	C11H10+
143.0275	8	C10H4F+
143.0713	36	C10H9N+
144.0783	11	C10H10N+
145.0249	738	C9H5O2+
146.028	65	C8H3FN2+
147.0332	6	C7[13]C2H5O2+
148.0532	6	C9H8O2+
151.034	61	C9H5F2+
152.0305	8	C8H4F2N+
152.0371	12	C10H4N2+
153.0489	45	C4H7F2N2O2+
154.0469	9	C5H7F3NO+
155.0247	9	C6H4FN2O2+
155.0582	8	C10H7N2+
156.0795	41	C11H10N+
157.0863	30	C11H11N+
158.039	6	C10H5FN+
158.0577	6	C10H8NO+
158.0704	6	C11H10O+
158.0936	19	C6H13F3O+
159.0407	121	C8H6F3+
159.0581	15	C6H8FN2O2+
160.0538	82	C10H8O2+
161.0422	6	C7H7F2O2+
161.0584	21	C8H8F3+
163.0363	13	C7H6F3O+
164.0417	26	C10H6F2+
165.0492	55	C10H7F2+
166.0452	18	C9H6F2N+
171.0406	86	C9H6F3+
171.059	12	C12H8F+
172.0356	325	C8H5F3N+
173.0311	140	C7H4F3N2+
173.0533	23	C4H8F3N2O2+
174.0348	11	C6[13]CH4F3N2+
174.0515	56	C8H8F2O2+
175.0523	7	C7[13]CH8F2O2+
177.0505	23	C11H7F2+
178.0461	18	C10H6F2N+
178.066	5	C10H9FNO+
179.0528	97	C10H7F2N+
180.0606	520	C10H8F2N+
181.0643	60	C9[13]CH8F2N+
182.0359	17	C12H6O2+
183.0404	170	C10H6F3+
184.0432	29	C9[13]CH6F3+
185.0432	256	C9H6F3N+
186.0501	76	C9H8F2O2+
186.0708	11	C12H9FN+
187.0211	20	C11H3F2N+
187.0583	21	C9H9F2O2+
188.042	6	C12H6F2+
188.0669	25	C9H9F3N+
189.052	13	C9H8F3O+
190.0465	49	C11H7FO2+
191.0425	6	C10[13]CH7FO2+
191.0475	7	C10[13]CH7FO2+
191.0658	35	C12H9F2+
192.0623	9	C11H8F2N+
192.0691	8	C10H9FN2O+
195.0415	6	C11H6F3+
196.0489	18	C11H7F3+
198.0514	317	C10H7F3N+
199.0567	49	C9[13]CH7F3N+
199.0733	9	C11H10F3+
200.0669	582	C13H9FO+
201.0698	71	C12[13]CH9FO+
202.0435	5	C12H7FO2+
202.0733	7	C11[13]C2H9FO+
204.0605	15	C12H8F2N+
209.056	27	C12H8F3+
210.0621	8	C7H9F3N2O2+
211.0598	119	C11H8F3N+
212.065	49	C11H9F3N+
213.0704	9	C10[13]CH9F3N+
214.0817	15	C11H12F2O2+
224.0674	37	C12H9F3N+
225.076	12	C12H10F3N+
226.0825	75	C12H11F3N+
227.0864	11	C11[13]CH11F3N+
228.0997	21	C12H13F3N+
244.0936	8	C15H12F2N+
