Mass spectrum: Amitrole; LC-ESI-QTOF; MS2; CE: Ramp 14.4-21.6 eV; R=35000; [M+H]+
Name: Amitrole
Name: 1H-1,2,4-triazol-5-amine
Formula: C2H4N4
Exact mass: 84.04359613
SMILES: NC1=NC=NN1
InChI: InChI=1S/C2H4N4/c3-2-4-1-5-6-2/h1H,(H3,3,4,5,6)
Instrument: Bruker maXis Impact
Instrument type: LC-ESI-QTOF
Ms type: MS2
Ion mode: POSITIVE
Ionization: ESI
Fragmentation mode: CID
Collision energy: Ramp 14.4-21.6 eV
Resolution: 35000
Column name: Acclaim RSLC C18 2.2um, 2.1x100mm, Thermo
Retention time: 1.345 min
Base peak: 85.0507
Precursor m/z: 85.0509
Precursor type: [M+H]+
m/z	relative intensity	assigned
57.0441	389	C2H5N2+
58.0391	467	CH4N3+
85.0508	999	C2H5N4+
