Mass spectrum: Fenofibrate; LC-ESI-QTOF; MS2; CE: 50 eV; R=35000; [M+H]+
Name: Fenofibrate
Name: propan-2-yl 2-[4-(4-chlorobenzoyl)phenoxy]-2-methylpropanoate
Formula: C20H21ClO4
Exact mass: 360.1128368
SMILES: CC(C)OC(=O)C(C)(C)OC1=CC=C(C=C1)C(=O)C1=CC=C(Cl)C=C1
InChI: InChI=1S/C20H21ClO4/c1-13(2)24-19(23)20(3,4)25-17-11-7-15(8-12-17)18(22)14-5-9-16(21)10-6-14/h5-13H,1-4H3
Instrument: Bruker maXis Impact
Instrument type: LC-ESI-QTOF
Ms type: MS2
Ion mode: POSITIVE
Ionization: ESI
Fragmentation mode: CID
Collision energy: 50 eV
Resolution: 35000
Column name: Acclaim RSLC C18 2.2um, 2.1x100mm, Thermo
Retention time: 12.448 min
Base peak: 361.1204
Precursor m/z: 361.1201
Precursor type: [M+H]+
m/z	relative intensity	assigned
110.9993	25	C6H4Cl+
112.9961	12	C6H4[37]Cl+
121.0279	278	C7H5O2+
122.0312	20	C6[13]CH5O2+
138.9936	999	C7H4ClO+
139.997	62	C6[13]CH4ClO+
140.991	260	C7H4[37]ClO+
233.0355	9	C13H10ClO2+
