Mass spectrum: Bupropion; LC-ESI-QTOF; MS2; CE: 30 eV; R=35000; [M+H]+
Name: Bupropion
Name: 2-(tert-butylamino)-1-(3-chlorophenyl)propan-1-one
Formula: C13H18ClNO
Exact mass: 239.1076919
SMILES: CC(NC(C)(C)C)C(=O)C1=CC(Cl)=CC=C1
InChI: InChI=1S/C13H18ClNO/c1-9(15-13(2,3)4)12(16)10-6-5-7-11(14)8-10/h5-9,15H,1-4H3
Instrument: Bruker maXis Impact
Instrument type: LC-ESI-QTOF
Ms type: MS2
Ion mode: POSITIVE
Ionization: ESI
Fragmentation mode: CID
Collision energy: 30 eV
Resolution: 35000
Column name: Acclaim RSLC C18 2.2um, 2.1x100mm, Thermo
Retention time: 5.558 min
Base peak: 240.1152
Precursor m/z: 240.115
Precursor type: [M+H]+
m/z	relative intensity	assigned
130.0643	214	C9H8N+
131.0721	999	C9H9N+
132.0561	8	C9H8O+
132.0755	63	C8[13]CH9N+
139.0301	195	C8H8Cl+
140.033	15	C7[13]CH8Cl+
141.027	59	C8H8[37]Cl+
151.017	12	C11H3O+
166.0409	340	C9H9ClN+
167.0249	115	C9H8ClO+
167.0442	19	C8[13]CH9ClN+
168.0376	84	C9H9[37]ClN+
169.0219	31	C9H8[37]ClO+
169.0409	5	C9H10ClO+
184.0515	45	C9H11ClNO+
186.0483	13	C9H11[37]ClNO+
