Mass spectrum: Tetracaine; LC-ESI-QTOF; MS2; CE: 50 eV; R=35000; [M+H]+
Name: Tetracaine
Name: 2-(dimethylamino)ethyl 4-(butylamino)benzoate
Formula: C15H24N2O2
Exact mass: 264.1837780
SMILES: CCCCNC1=CC=C(C=C1)C(=O)OCCN(C)C
InChI: InChI=1S/C15H24N2O2/c1-4-5-10-16-14-8-6-13(7-9-14)15(18)19-12-11-17(2)3/h6-9,16H,4-5,10-12H2,1-3H3
Instrument: Bruker maXis Impact
Instrument type: LC-ESI-QTOF
Ms type: MS2
Ion mode: POSITIVE
Ionization: ESI
Fragmentation mode: CID
Collision energy: 50 eV
Resolution: 35000
Column name: Acclaim RSLC C18 2.2um, 2.1x100mm, Thermo
Retention time: 6.275 min
Base peak: 265.1917
Precursor m/z: 265.1911
Precursor type: [M+H]+
m/z	relative intensity	assigned
117.0563	8	C8H7N+
118.0643	61	C8H8N+
119.0711	14	C8H9N+
120.0436	258	C7H6NO+
121.047	17	C6[13]CH6NO+
131.0846	5	C10H11+
132.0797	26	C9H10N+
133.0872	21	C9H11N+
148.1108	33	C10H14N+
176.106	999	C11H14NO+
177.1091	103	C10[13]CH14NO+
178.1113	6	C9[13]C2H14NO+
194.0822	5	C13H10N2+
195.0896	7	C13H11N2+
