Mass spectrum: 1-(3-carboxypropyl)-3,7-dimethylxanthine; LC-ESI-QTOF; MS2; CE: 30 eV; R=35000; [M+H]+
Name: 1-(3-carboxypropyl)-3,7-dimethylxanthine
Name: 4-(3,7-dimethyl-2,6-dioxopurin-1-yl)butanoic acid
Formula: C11H14N4O4
Exact mass: 266.1015049
SMILES: CN1C=NC2=C1C(=O)N(CCCC(O)=O)C(=O)N2C
InChI: InChI=1S/C11H14N4O4/c1-13-6-12-9-8(13)10(18)15(11(19)14(9)2)5-3-4-7(16)17/h6H,3-5H2,1-2H3,(H,16,17)
Instrument: Bruker maXis Impact
Instrument type: LC-ESI-QTOF
Ms type: MS2
Ion mode: POSITIVE
Ionization: ESI
Fragmentation mode: CID
Collision energy: 30 eV
Resolution: 35000
Column name: Acclaim RSLC C18 2.2um, 2.1x100mm, Thermo
Retention time: 4.480 min
Base peak: 267.1079
Precursor m/z: 267.1088
Precursor type: [M+H]+
m/z	relative intensity	assigned
122.0693	7	C3H10N2O3+
132.0547	5	C7H6N3+
136.0488	18	C3H8N2O4+
136.0861	6	C7H10N3+
137.0816	7	C6H9N4+
138.0647	41	C3H10N2O4+
149.0815	16	C7H9N4+
150.1015	33	C8H12N3+
154.0592	17	C6H8N3O2+
163.0593	18	C4H9N3O4+
165.075	37	C4H11N3O4+
166.0774	6	C8H10N2O2+
175.0604	14	C8H7N4O+
176.0687	5	C8H8N4O+
177.1133	5	C9H13N4+
178.0948	8	C6H14N2O4+
180.0633	22	C7H8N4O2+
181.0706	156	C7H9N4O2+
182.0742	17	C6[13]CH9N4O2+
193.0708	999	C10H11NO3+
194.0734	94	C9[13]CH11NO3+
195.076	10	C10H11NO2[18]O+
205.1066	17	C7H15N3O4+
207.0857	20	C9H11N4O2+
209.0478	6	C11H5N4O+
211.0811	412	C8H11N4O3+
212.085	41	C7[13]CH11N4O3+
213.0862	7	C9H13N2O4+
221.1025	489	C10H13N4O2+
222.1049	72	C9[13]CH13N4O2+
225.0937	8	C9H13N4O3+
249.0963	9	C11H13N4O3+
267.1088	8	C11H15N4O4+
