Mass spectrum: Indomethacin; LC-ESI-QTOF; MS2; CE: 20 eV; R=35000; [M+H]+
Name: Indomethacin
Name: 2-[1-(4-chlorobenzoyl)-5-methoxy-2-methylindol-3-yl]acetic acid
Formula: C19H16ClNO4
Exact mass: 357.0767857
SMILES: COC1=CC2=C(C=C1)N(C(=O)C1=CC=C(Cl)C=C1)C(C)=C2CC(O)=O
InChI: InChI=1S/C19H16ClNO4/c1-11-15(10-18(22)23)16-9-14(25-2)7-8-17(16)21(11)19(24)12-3-5-13(20)6-4-12/h3-9H,10H2,1-2H3,(H,22,23)
Instrument: Bruker maXis Impact
Instrument type: LC-ESI-QTOF
Ms type: MS2
Ion mode: POSITIVE
Ionization: ESI
Fragmentation mode: CID
Collision energy: 20 eV
Resolution: 35000
Column name: Acclaim RSLC C18 2.2um, 2.1x100mm, Thermo
Retention time: 10.685 min
Base peak: 372.2321
Precursor m/z: 358.0841
Precursor type: [M+H]+
m/z	relative intensity	assigned
138.9933	999	C7H4ClO+
139.9971	87	C6[13]CH4ClO+
140.9902	311	C7H4[37]ClO+
141.9943	26	C8NO2+
163.0751	21	C10H11O2+
174.0901	125	C8H14O4+
175.0923	16	C7[13]CH14O4+
358.0818	37	C19H17ClNO4+
