Mass spectrum: Ziprasidone; LC-ESI-QTOF; MS2; CE: Ramp 23.9-35.8 eV; R=35000; [M+H]+
Name: Ziprasidone
Name: 5-[2-[4-(1,2-benzothiazol-3-yl)piperazin-1-yl]ethyl]-6-chloro-1,3-dihydroindol-2-one
Formula: C21H21ClN4OS
Exact mass: 412.1124600
SMILES: ClC1=C(CCN2CCN(CC2)C2=NSC3=CC=CC=C23)C=C2CC(=O)NC2=C1
InChI: InChI=1S/C21H21ClN4OS/c22-17-13-18-15(12-20(27)23-18)11-14(17)5-6-25-7-9-26(10-8-25)21-16-3-1-2-4-19(16)28-24-21/h1-4,11,13H,5-10,12H2,(H,23,27)
Instrument: Bruker maXis Impact
Instrument type: LC-ESI-QTOF
Ms type: MS2
Ion mode: POSITIVE
Ionization: ESI
Fragmentation mode: CID
Collision energy: Ramp 23.9-35.8 eV
Resolution: 35000
Column name: Acclaim RSLC C18 2.2um, 2.1x100mm, Thermo
Retention time: 7.218 min
Base peak: 413.1193
Precursor m/z: 413.1197
Precursor type: [M+H]+
m/z	relative intensity	assigned
130.0643	8	C9H8N+
131.0715	7	C9H9N+
158.0584	8	C8H6N4+
159.0667	63	C8H7N4+
160.0708	7	C7[13]CH7N4+
166.0406	49	C9H9ClN+
168.0384	11	C9H9[37]ClN+
177.0472	206	C9H9N2S+
178.0497	18	C8[13]CH9N2S+
179.0429	6	C9H9N2[34]S+
191.1172	90	C11H15N2O+
192.1202	10	C10[13]CH15N2O+
194.0359	999	C8H7ClN4+
195.0389	140	C7[13]CH7ClN4+
196.033	329	C8H7[37]ClN4+
197.0361	23	C8H8ClN3O+
203.064	7	C11H11N2S+
205.0784	13	C13H14Cl+
220.0901	46	C16H12O+
221.0915	8	C15[13]CH12O+
232.0904	10	C12H14N3S+
237.0779	26	C12H14ClN2O+
239.0756	7	C12H14[37]ClN2O+
411.1038	7	C21H20ClN4OS+
413.1199	623	C21H22ClN4OS+
414.1225	192	C20[13]CH22ClN4OS+
415.1176	278	C21H22[37]ClN4OS+
