Mass spectrum: Anastrozole; LC-ESI-QTOF; MS2; CE: 40 eV; R=35000; [M+H]+
Name: Anastrozole
Name: 2-[3-(2-cyanopropan-2-yl)-5-(1,2,4-triazol-1-ylmethyl)phenyl]-2-methylpropanenitrile
Formula: C17H19N5
Exact mass: 293.1640456
SMILES: CC(C)(C#N)C1=CC(=CC(CN2C=NC=N2)=C1)C(C)(C)C#N
InChI: InChI=1S/C17H19N5/c1-16(2,9-18)14-5-13(8-22-12-20-11-21-22)6-15(7-14)17(3,4)10-19/h5-7,11-12H,8H2,1-4H3
Instrument: Bruker maXis Impact
Instrument type: LC-ESI-QTOF
Ms type: MS2
Ion mode: POSITIVE
Ionization: ESI
Fragmentation mode: CID
Collision energy: 40 eV
Resolution: 35000
Column name: Acclaim RSLC C18 2.2um, 2.1x100mm, Thermo
Retention time: 4.915 min
Base peak: 294.1601
Precursor m/z: 294.1713
Precursor type: [M+H]+
m/z	relative intensity	assigned
115.0536	5	C9H7+
128.0487	5	C9H6N+
128.0611	14	C10H8+
129.0686	9	C10H9+
142.0637	12	C10H8N+
143.0718	66	C10H9N+
144.0783	12	C10H10N+
154.064	20	C11H8N+
155.0715	22	C11H9N+
156.0787	7	C11H10N+
167.0719	68	C12H9N+
168.0795	88	C12H10N+
169.0874	140	C12H11N+
170.0954	999	C12H12N+
171.0668	72	C9H7N4+
171.0988	112	C11[13]CH12N+
172.07	9	C8[13]CH7N4+
182.0954	103	C13H12N+
183.1003	20	C12[13]CH12N+
184.1112	579	C13H14N+
185.1145	81	C12[13]CH14N+
212.1061	13	C12H12N4+
