Mass spectrum: Acyclovir; LC-ESI-QTOF; MS2; CE: 20 eV; R=35000; [M+H]+
Name: Acyclovir
Name: CID 2022
Name: 2-amino-9-(2-hydroxyethoxymethyl)-3H-purin-6-one
Formula: C8H11N5O3
Exact mass: 225.0861892
SMILES: NC1=NC2=C(N=CN2COCCO)C(=O)N1
InChI: InChI=1S/C8H11N5O3/c9-8-11-6-5(7(15)12-8)10-3-13(6)4-16-2-1-14/h3,14H,1-2,4H2,(H3,9,11,12,15)
Instrument: Bruker maXis Impact
Instrument type: LC-ESI-QTOF
Ms type: MS2
Ion mode: POSITIVE
Ionization: ESI
Fragmentation mode: CID
Collision energy: 20 eV
Resolution: 35000
Column name: Acclaim RSLC C18 2.2um, 2.1x100mm, Thermo
Retention time: 4.732 min
Base peak: 204.1126
Precursor m/z: 226.0935
Precursor type: [M+H]+
m/z	relative intensity	assigned
165.0528	914	C7H7N3O2+
226.0971	999	C8H12N5O3+
