Mass spectrum: Propamocarb; LC-ESI-QTOF; MS2; CE: 30 eV; R=35000; [M+H]+
Name: Propamocarb
Name: propyl N-[3-(dimethylamino)propyl]carbamate
Formula: C9H20N2O2
Exact mass: 188.1524779
SMILES: CCCOC(=O)NCCCN(C)C
InChI: InChI=1S/C9H20N2O2/c1-4-8-13-9(12)10-6-5-7-11(2)3/h4-8H2,1-3H3,(H,10,12)
Instrument: Bruker maXis Impact
Instrument type: LC-ESI-QTOF
Ms type: MS2
Ion mode: POSITIVE
Ionization: ESI
Fragmentation mode: CID
Collision energy: 30 eV
Resolution: 35000
Column name: Acclaim RSLC C18 2.2um, 2.1x100mm, Thermo
Retention time: 3.326 min
Base peak: 189.159
Precursor m/z: 189.1598
Precursor type: [M+H]+
m/z	relative intensity	assigned
129.1007	999	C6H13N2O+
144.1006	532	C7H14NO2+
147.1117	163	C6H15N2O2+
189.1593	351	C9H21N2O2+
