Mass spectrum: Hydroxychloroquine; LC-ESI-QTOF; MS2; CE: 10 eV; R=35000; [M+H]+
Name: Hydroxychloroquine
Name: 2-[4-[(7-chloroquinolin-4-yl)amino]pentyl-ethylamino]ethanol
Formula: C18H26ClN3O
Exact mass: 335.1764401
SMILES: CCN(CCO)CCCC(C)NC1=C2C=CC(Cl)=CC2=NC=C1
InChI: InChI=1S/C18H26ClN3O/c1-3-22(11-12-23)10-4-5-14(2)21-17-8-9-20-18-13-15(19)6-7-16(17)18/h6-9,13-14,23H,3-5,10-12H2,1-2H3,(H,20,21)
Instrument: Bruker maXis Impact
Instrument type: LC-ESI-QTOF
Ms type: MS2
Ion mode: POSITIVE
Ionization: ESI
Fragmentation mode: CID
Collision energy: 10 eV
Resolution: 35000
Column name: Acclaim RSLC C18 2.2um, 2.1x100mm, Thermo
Retention time: 3.737 min
Base peak: 336.1835
Precursor m/z: 336.1837
Precursor type: [M+H]+
m/z	relative intensity	assigned
247.0993	23	C17H13NO+
336.184	999	C18H27ClN3O+
337.187	181	C17[13]CH27ClN3O+
338.1813	246	C18H27[37]ClN3O+
