Mass spectrum: Fenofibrate; LC-ESI-QTOF; MS2; CE: 20 eV; R=35000; [M+H]+
Name: Fenofibrate
Name: propan-2-yl 2-[4-(4-chlorobenzoyl)phenoxy]-2-methylpropanoate
Formula: C20H21ClO4
Exact mass: 360.1128368
SMILES: CC(C)OC(=O)C(C)(C)OC1=CC=C(C=C1)C(=O)C1=CC=C(Cl)C=C1
InChI: InChI=1S/C20H21ClO4/c1-13(2)24-19(23)20(3,4)25-17-11-7-15(8-12-17)18(22)14-5-9-16(21)10-6-14/h5-13H,1-4H3
Instrument: Bruker maXis Impact
Instrument type: LC-ESI-QTOF
Ms type: MS2
Ion mode: POSITIVE
Ionization: ESI
Fragmentation mode: CID
Collision energy: 20 eV
Resolution: 35000
Column name: Acclaim RSLC C18 2.2um, 2.1x100mm, Thermo
Retention time: 12.442 min
Base peak: 361.1205
Precursor m/z: 361.1201
Precursor type: [M+H]+
m/z	relative intensity	assigned
121.0278	26	C7H5O2+
138.9937	83	C7H4ClO+
139.9968	6	C6[13]CH4ClO+
140.9906	21	C7H4[37]ClO+
233.0364	999	C13H10ClO2+
234.0394	128	C12[13]CH10ClO2+
235.0335	264	C13H10[37]ClO2+
236.0363	19	C16H9Cl+
361.1205	61	C20H22ClO4+
362.1233	11	C19[13]CH22ClO4+
363.1175	16	C20H22[37]ClO4+
