Mass spectrum: 4-Aminobenzamide; LC-ESI-QTOF; MS2; CE: 10 eV; R=35000; [M+H]+
Name: 4-Aminobenzamide
Formula: C7H8N2O
Exact mass: 136.0636629
SMILES: NC(=O)C1=CC=C(N)C=C1
InChI: InChI=1S/C7H8N2O/c8-6-3-1-5(2-4-6)7(9)10/h1-4H,8H2,(H2,9,10)
Instrument: Bruker maXis Impact
Instrument type: LC-ESI-QTOF
Ms type: MS2
Ion mode: POSITIVE
Ionization: ESI
Fragmentation mode: CID
Collision energy: 10 eV
Resolution: 35000
Column name: Acclaim RSLC C18 2.2um, 2.1x100mm, Thermo
Retention time: 2.372 min
Base peak: 137.0699
Precursor m/z: 137.0709
Precursor type: [M+H]+
m/z	relative intensity	assigned
120.0436	921	C7H6NO+
121.0466	86	C6[13]CH6NO+
122.0483	5	C6H6N2O+
137.0697	999	C7H9N2O+
138.0729	87	C6[13]CH9N2O+
