Mass spectrum: Azelastine; LC-ESI-QTOF; MS2; CE: 50 eV; R=35000; [M+H]+
Name: Azelastine
Name: 4-[(4-chlorophenyl)methyl]-2-(1-methylazepan-4-yl)phthalazin-1-one
Formula: C22H24ClN3O
Exact mass: 381.1607901
SMILES: CN1CCCC(CC1)N1N=C(CC2=CC=C(Cl)C=C2)C2=CC=CC=C2C1=O
InChI: InChI=1S/C22H24ClN3O/c1-25-13-4-5-18(12-14-25)26-22(27)20-7-3-2-6-19(20)21(24-26)15-16-8-10-17(23)11-9-16/h2-3,6-11,18H,4-5,12-15H2,1H3
Instrument: Bruker maXis Impact
Instrument type: LC-ESI-QTOF
Ms type: MS2
Ion mode: POSITIVE
Ionization: ESI
Fragmentation mode: CID
Collision energy: 50 eV
Resolution: 35000
Column name: Acclaim RSLC C18 2.2um, 2.1x100mm, Thermo
Retention time: 7.493 min
Base peak: 382.1682
Precursor m/z: 382.1681
Precursor type: [M+H]+
m/z	relative intensity	assigned
112.1115	282	C7H14N+
125.014	400	C7H6Cl+
126.0178	38	C6[13]CH6Cl+
127.011	144	C7H6[37]Cl+
128.0154	7	C5H5ClN2+
131.0476	87	C7H5N3+
131.0589	55	C8H7N2+
132.0518	9	C6[13]CH5N3+
159.054	999	C9H7N2O+
160.0574	115	C8[13]CH7N2O+
161.0622	9	C7H12ClNO+
177.0641	7	C6H12ClN3O+
178.0786	12	C14H10+
183.0545	26	C11H7N2O+
184.0629	19	C11H8N2O+
185.0703	17	C11H9N2O+
191.0777	6	C7H14ClN3O+
197.0692	46	C12H9N2O+
203.07	7	C15H9N+
206.0704	7	C13H8N3+
211.0852	7	C13H11N2O+
213.045	14	C15H5N2+
219.0679	55	C15H9NO+
220.073	10	C14[13]CH9NO+
232.0761	16	C13H13ClN2+
238.0425	7	C15H9ClN+
240.0401	9	C17H6NO+
241.0419	18	C15H10ClO+
254.0348	12	C16H4N3O+
255.0666	9	C18H9NO+
256.0535	14	C15H11ClNO+
271.063	669	C15H12ClN2O+
272.0654	123	C14[13]CH12ClN2O+
273.06	215	C15H12[37]ClN2O+
274.0641	19	C21H8N+
283.0621	26	C16H12ClN2O+
284.0684	10	C16H13ClN2O+
285.0589	11	C16H12[37]ClN2O+
297.0831	6	C17H14ClN2O+
308.0728	6	C18H13ClN2O+
309.0779	94	C18H14ClN2O+
310.0816	21	C17[13]CH14ClN2O+
311.0736	28	C18H14[37]ClN2O+
323.098	14	C19H16ClN2O+
325.0953	11	C18H16ClN3O+
351.1241	9	C21H20ClN2O+
