Mass spectrum: Montelukast; LC-ESI-QTOF; MS2; CE: 30 eV; R=35000; [M+H]+
Name: Montelukast
Name: UCHDWCPVSPXUMX-UHFFFAOYSA-N
Name: 2-[1-[[1-[3-[2-(7-chloroquinolin-2-yl)ethenyl]phenyl]-3-[2-(2-hydroxypropan-2-yl)phenyl]propyl]sulfanylmethyl]cyclopropyl]acetic acid
Formula: C35H36ClNO3S
Exact mass: 585.2104427
SMILES: CC(C)(O)C1=CC=CC=C1CCC(SCC1(CC(O)=O)CC1)C1=CC=CC(C=CC2=NC3=C(C=CC(Cl)=C3)C=C2)=C1
InChI: InChI=1S/C35H36ClNO3S/c1-34(2,40)30-9-4-3-7-25(30)13-17-32(41-23-35(18-19-35)22-33(38)39)27-8-5-6-24(20-27)10-15-29-16-12-26-11-14-28(36)21-31(26)37-29/h3-12,14-16,20-21,32,40H,13,17-19,22-23H2,1-2H3,(H,38,39)
Instrument: Bruker maXis Impact
Instrument type: LC-ESI-QTOF
Ms type: MS2
Ion mode: POSITIVE
Ionization: ESI
Fragmentation mode: CID
Collision energy: 30 eV
Resolution: 35000
Column name: Acclaim RSLC C18 2.2um, 2.1x100mm, Thermo
Retention time: 13.352 min
Base peak: 586.2173
Precursor m/z: 586.2177
Precursor type: [M+H]+
m/z	relative intensity	assigned
131.0846	39	C10H11+
143.0842	29	C5H16ClO2+
157.0999	49	C12H13+
158.1039	6	C11[13]CH13+
245.1314	8	C19H17+
266.0717	8	C20H10O+
276.0569	5	C21H8O+
278.0728	395	C18H13ClN+
279.076	68	C17[13]CH13ClN+
280.0698	100	C18H13[37]ClN+
281.0731	12	C18H14ClO+
282.0839	5	C15H19ClOS+
292.0883	112	C16H17ClO3+
293.091	21	C15[13]CH17ClO3+
294.0852	29	C16H17[37]ClO3+
306.1036	9	C23H14O+
318.1036	12	C15H23ClO3S+
320.1025	5	C15H23[37]ClO3S+
380.1194	22	C29H16O+
381.1229	5	C28[13]CH16O+
382.1333	15	C23H23ClO3+
398.1298	11	C29H18O2+
422.1668	999	C29H25ClN+
423.1702	271	C28[13]CH25ClN+
424.165	230	C29H25[37]ClN+
425.1668	41	C29H26ClO+
440.1772	186	C29H27ClNO+
441.1801	53	C28[13]CH27ClNO+
442.1745	52	C29H27[37]ClNO+
443.1783	9	C35H23+
456.1537	16	C29H27ClNS+
457.1572	5	C28[13]CH27ClNS+
458.1531	5	C29H27[37]ClNS+
524.2169	18	C34H35ClNS+
525.2196	6	C33[13]CH35ClNS+
526.2149	8	C34H35[37]ClNS+
568.2066	125	C35H35ClNO2S+
569.2103	50	C34[13]CH35ClNO2S+
570.2051	48	C35H35[37]ClNO2S+
571.2071	12	C35H36ClO3S+
586.2159	5	C35H37ClNO3S+
