Mass spectrum: 4-Fluorobenzoylpropionic acid; LC-ESI-QTOF; MS2; CE: 20 eV; R=35000; [M+H]+
Name: 4-Fluorobenzoylpropionic acid
Name: 3-(4-Fluorobenzoyl)propionic acid
Name: 4-(4-fluorophenyl)-4-oxobutanoic acid
Formula: C10H9FO3
Exact mass: 196.0535724
SMILES: OC(=O)CCC(=O)C1=CC=C(F)C=C1
InChI: InChI=1S/C10H9FO3/c11-8-3-1-7(2-4-8)9(12)5-6-10(13)14/h1-4H,5-6H2,(H,13,14)
Instrument: Bruker maXis Impact
Instrument type: LC-ESI-QTOF
Ms type: MS2
Ion mode: POSITIVE
Ionization: ESI
Fragmentation mode: CID
Collision energy: 20 eV
Resolution: 35000
Column name: Acclaim RSLC C18 2.2um, 2.1x100mm, Thermo
Retention time: 6.069 min
Base peak: 197.0599
Precursor m/z: 197.0608
Precursor type: [M+H]+
m/z	relative intensity	assigned
121.045	20	C8H6F+
123.0234	999	C10H3+
124.026	89	C9[13]CH3+
133.0442	174	C9H6F+
134.0481	18	C8[13]CH6F+
135.0591	69	C9H8F+
151.0541	855	C9H8FO+
152.0571	81	C8[13]CH8FO+
161.0385	14	C10H6FO+
179.0491	833	C10H8FO2+
180.0523	110	C9[13]CH8FO2+
