Mass spectrum: Duloxetine; LC-ESI-QTOF; MS2; CE: 50 eV; R=35000; [M+H]+
Name: Duloxetine
Name: N-Methyl-gamma-(1-naphthalenyloxy)-2-thiophenepropanamine
Name: N-methyl-3-naphthalen-1-yloxy-3-thiophen-2-ylpropan-1-amine
Formula: C18H19NOS
Exact mass: 297.1187352
SMILES: CNCCC(OC1=C2C=CC=CC2=CC=C1)C1=CC=CS1
InChI: InChI=1S/C18H19NOS/c1-19-12-11-17(18-10-5-13-21-18)20-16-9-4-7-14-6-2-3-8-15(14)16/h2-10,13,17,19H,11-12H2,1H3
Instrument: Bruker maXis Impact
Instrument type: LC-ESI-QTOF
Ms type: MS2
Ion mode: POSITIVE
Ionization: ESI
Fragmentation mode: CID
Collision energy: 50 eV
Resolution: 35000
Column name: Acclaim RSLC C18 2.2um, 2.1x100mm, Thermo
Retention time: 7.895 min
Base peak: 298.1262
Precursor m/z: 298.126
Precursor type: [M+H]+
m/z	relative intensity	assigned
115.0535	56	C9H7+
123.0256	999	C7H7S+
124.0329	594	C7H8S+
125.0208	55	C7H7[34]S+
125.0373	78	C6[13]CH8S+
127.0533	52	C10H7+
128.0616	133	C10H8+
129.068	179	C10H9+
145.063	95	C10H9O+
152.0608	129	C12H8+
153.0694	121	C12H9+
154.0753	47	C12H10+
155.0827	131	C12H11+
157.0638	52	C11H9O+
165.0695	153	C13H9+
166.0754	53	C13H10+
178.0765	207	C14H10+
179.0812	58	C14H11+
194.0706	54	C14H10O+
215.0865	58	C17H11+
221.0425	99	C15H9S+
239.0555	50	C15H11OS+
