Mass spectrum: Imatinib; LC-ESI-QTOF; MS2; CE: 30 eV; R=35000; [M+H]+
Name: Imatinib
Name: 4-[(4-methylpiperazin-1-yl)methyl]-N-[4-methyl-3-[(4-pyridin-3-ylpyrimidin-2-yl)amino]phenyl]benzamide
Formula: C29H31N7O
Exact mass: 493.2590086
SMILES: CN1CCN(CC2=CC=C(C=C2)C(=O)NC2=CC(NC3=NC=CC(=N3)C3=CN=CC=C3)=C(C)C=C2)CC1
InChI: InChI=1S/C29H31N7O/c1-21-5-10-25(18-27(21)34-29-31-13-11-26(33-29)24-4-3-12-30-19-24)32-28(37)23-8-6-22(7-9-23)20-36-16-14-35(2)15-17-36/h3-13,18-19H,14-17,20H2,1-2H3,(H,32,37)(H,31,33,34)
Instrument: Bruker maXis Impact
Instrument type: LC-ESI-QTOF
Ms type: MS2
Ion mode: POSITIVE
Ionization: ESI
Fragmentation mode: CID
Collision energy: 30 eV
Resolution: 35000
Column name: Acclaim RSLC C18 2.2um, 2.1x100mm, Thermo
Retention time: 6.579 min
Base peak: 247.6358
Precursor m/z: 494.2663
Precursor type: [M+H]+
m/z	relative intensity	assigned
174.0909	6	C11H12NO+
189.137	16	C12H17N2+
217.1327	325	C11H15N5+
218.1353	46	C10[13]CH15N5+
222.0906	12	C13H10N4+
379.1445	6	C23H17N5O+
394.1663	999	C24H20N5O+
395.1685	276	C23[13]CH20N5O+
396.1739	39	C22[13]C2H20N5O+
397.1853	6	C24H23N5O+
476.2551	24	C29H30N7+
477.2562	7	C28[13]CH30N7+
494.2667	504	C29H32N7O+
495.269	204	C28[13]CH32N7O+
496.2717	29	C27[13]C2H32N7O+
