Mass spectrum: Ziprasidone; LC-ESI-QTOF; MS2; CE: 30 eV; R=35000; [M+H]+
Name: Ziprasidone
Name: 5-[2-[4-(1,2-benzothiazol-3-yl)piperazin-1-yl]ethyl]-6-chloro-1,3-dihydroindol-2-one
Formula: C21H21ClN4OS
Exact mass: 412.1124600
SMILES: ClC1=C(CCN2CCN(CC2)C2=NSC3=CC=CC=C23)C=C2CC(=O)NC2=C1
InChI: InChI=1S/C21H21ClN4OS/c22-17-13-18-15(12-20(27)23-18)11-14(17)5-6-25-7-9-26(10-8-25)21-16-3-1-2-4-19(16)28-24-21/h1-4,11,13H,5-10,12H2,(H,23,27)
Instrument: Bruker maXis Impact
Instrument type: LC-ESI-QTOF
Ms type: MS2
Ion mode: POSITIVE
Ionization: ESI
Fragmentation mode: CID
Collision energy: 30 eV
Resolution: 35000
Column name: Acclaim RSLC C18 2.2um, 2.1x100mm, Thermo
Retention time: 7.181 min
Base peak: 413.1192
Precursor m/z: 413.1197
Precursor type: [M+H]+
m/z	relative intensity	assigned
130.065	6	C9H8N+
131.0715	7	C9H9N+
159.0665	37	C8H7N4+
166.0408	31	C9H9ClN+
168.0376	7	C9H9[37]ClN+
177.0468	152	C12H5N2+
178.0494	17	C11[13]CH5N2+
191.1169	56	C11H15N2O+
192.1222	6	C10[13]CH15N2O+
194.0358	999	C8H7ClN4+
195.0389	104	C7[13]CH7ClN4+
196.0329	232	C8H7[37]ClN4+
197.0359	16	C8H8ClN3O+
203.0627	6	C13H12Cl+
205.0789	12	C11H13N2S+
220.0893	43	C16H12O+
221.0922	5	C15[13]CH12O+
232.0893	9	C14H15ClN+
237.0779	23	C12H14ClN2O+
238.0801	5	C11[13]CH14ClN2O+
239.0761	5	C12H14[37]ClN2O+
411.1048	7	C21H20ClN4OS+
413.1198	318	C21H22ClN4OS+
414.1218	88	C20[13]CH22ClN4OS+
415.117	115	C21H22[37]ClN4OS+
