Mass spectrum: Clonidine; LC-ESI-QTOF; MS2; CE: 30 eV; R=35000; [M+H]+
Name: Clonidine
Name: N-(2,6-dichlorophenyl)-4,5-dihydro-1H-imidazol-2-amine
Formula: C9H9Cl2N3
Exact mass: 229.0173526
SMILES: ClC1=CC=CC(Cl)=C1NC1=NCCN1
InChI: InChI=1S/C9H9Cl2N3/c10-6-2-1-3-7(11)8(6)14-9-12-4-5-13-9/h1-3H,4-5H2,(H2,12,13,14)
Instrument: Bruker maXis Impact
Instrument type: LC-ESI-QTOF
Ms type: MS2
Ion mode: POSITIVE
Ionization: ESI
Fragmentation mode: CID
Collision energy: 30 eV
Resolution: 35000
Column name: Acclaim RSLC C18 2.2um, 2.1x100mm, Thermo
Retention time: 3.702 min
Base peak: 230.0247
Precursor m/z: 230.0246
Precursor type: [M+H]+
m/z	relative intensity	assigned
151.0173	8	C9HN3+
153.0198	7	C7H6ClN2+
158.0708	5	C9H8N3+
159.0779	10	C9H9N3+
159.9705	18	C6H4Cl2N+
160.0856	11	C9H10N3+
161.9673	9	C6H4Cl[37]ClN+
161.9863	6	C7HClN3+
164	5	C7H3ClN3+
171.9704	26	C7H4Cl2N+
172.966	6	C6H3Cl2N2+
173.9679	14	C7H4Cl[37]ClN+
184.966	7	C7H3Cl2N2+
185.9861	11	C8H6Cl2N+
186.9816	41	C7H5Cl2N2+
187.9835	9	C8H6Cl[37]ClN+
188.9783	23	C7H5Cl[37]ClN2+
194.047	26	C9H9ClN3+
195.0537	8	C9H10ClN3+
196.0443	6	C9H9[37]ClN3+
212.9977	124	C9H7Cl2N2+
214.0011	10	C8[13]CH7Cl2N2+
214.9947	62	C9H7Cl[37]ClN2+
230.0244	999	C9H10Cl2N3+
231.0271	81	C8[13]CH10Cl2N3+
232.0215	629	C9H10Cl[37]ClN3+
