Mass spectrum: Amiodarone; LC-ESI-QTOF; MS2; CE: Ramp 28.6-43.0 eV; R=35000; [M+H]+
Name: Amiodarone
Name: (2-butyl-1-benzofuran-3-yl)-[4-[2-(diethylamino)ethoxy]-3,5-diiodophenyl]methanone
Formula: C25H29I2NO3
Exact mass: 645.0236898
SMILES: CCCCC1=C(C(=O)C2=CC(I)=C(OCCN(CC)CC)C(I)=C2)C2=CC=CC=C2O1
InChI: InChI=1S/C25H29I2NO3/c1-4-7-11-22-23(18-10-8-9-12-21(18)31-22)24(29)17-15-19(26)25(20(27)16-17)30-14-13-28(5-2)6-3/h8-10,12,15-16H,4-7,11,13-14H2,1-3H3
Instrument: Bruker maXis Impact
Instrument type: LC-ESI-QTOF
Ms type: MS2
Ion mode: POSITIVE
Ionization: ESI
Fragmentation mode: CID
Collision energy: Ramp 28.6-43.0 eV
Resolution: 35000
Column name: Acclaim RSLC C18 2.2um, 2.1x100mm, Thermo
Retention time: 11.854 min
Base peak: 646.0302
Precursor m/z: 646.031
Precursor type: [M+H]+
m/z	relative intensity	assigned
58.0648	473	C3H8N+
59.0683	16	C2[13]CH8N+
72.0805	85	C4H10N+
73.0883	49	C4H11N+
86.0965	210	C5H12N+
87.0993	9	C4[13]CH12N+
100.1128	136	C6H14N+
101.1164	8	C5[13]CH14N+
201.0899	27	C13H13O2+
276.0776	20	C18H12O3+
277.0838	13	C18H13O3+
319.1321	9	C21H19O3+
476.0714	7	C22H23INO3+
516.9165	8	C18H15I2O2+
572.942	13	C21H19I2O3+
646.0324	999	C25H30I2NO3+
647.0355	299	C24[13]CH30I2NO3+
648.0389	43	C23[13]C2H30I2NO3+
