Mass spectrum: Methotrexate; LC-ESI-QTOF; MS2; CE: 20 eV; R=35000; [M+H]+
Name: Methotrexate
Name: (2S)-2-[[4-[(2,4-diaminopteridin-6-yl)methyl-methylamino]benzoyl]amino]pentanedioic acid
Formula: C20H22N8O5
Exact mass: 454.1713158
SMILES: CN(CC1=NC2=C(N=C1)N=C(N)N=C2N)C1=CC=C(C=C1)C(=O)N[C@@H](CCC(O)=O)C(O)=O
InChI: InChI=1S/C20H22N8O5/c1-28(9-11-8-23-17-15(24-11)16(21)26-20(22)27-17)12-4-2-10(3-5-12)18(31)25-13(19(32)33)6-7-14(29)30/h2-5,8,13H,6-7,9H2,1H3,(H,25,31)(H,29,30)(H,32,33)(H4,21,22,23,26,27)/t13-/m0/s1
Instrument: Bruker maXis Impact
Instrument type: LC-ESI-QTOF
Ms type: MS2
Ion mode: POSITIVE
Ionization: ESI
Fragmentation mode: CID
Collision energy: 20 eV
Resolution: 35000
Column name: Acclaim RSLC C18 2.2um, 2.1x100mm, Thermo
Retention time: 3.920 min
Base peak: 407.2207
Precursor m/z: 455.1786
Precursor type: [M+H]+
m/z	relative intensity	assigned
134.0597	10	C8H8NO+
175.071	23	C6H11N2O4+
308.1249	999	C15H14N7O+
309.1271	182	C14[13]CH14N7O+
310.1311	18	C13[13]C2H14N7O+
326.139	6	C19H20NO4+
455.1774	200	C20H23N8O5+
456.18	54	C19[13]CH23N8O5+
457.1846	7	C18[13]C2H23N8O5+
