Mass spectrum: Fluvoxamine; LC-ESI-QTOF; MS2; CE: Ramp 22.0-33.0 eV; R=35000; [M+H]+
Name: Fluvoxamine
Name: (Z) Fluvoxamine
Name: 2-[[5-methoxy-1-[4-(trifluoromethyl)phenyl]pentylidene]amino]oxyethanamine
Formula: C15H21F3N2O2
Exact mass: 318.1555126
SMILES: COCCCCC(=NOCCN)C1=CC=C(C=C1)C(F)(F)F
InChI: InChI=1S/C15H21F3N2O2/c1-21-10-3-2-4-14(20-22-11-9-19)12-5-7-13(8-6-12)15(16,17)18/h5-8H,2-4,9-11,19H2,1H3
Instrument: Bruker maXis Impact
Instrument type: LC-ESI-QTOF
Ms type: MS2
Ion mode: POSITIVE
Ionization: ESI
Fragmentation mode: CID
Collision energy: Ramp 22.0-33.0 eV
Resolution: 35000
Column name: Acclaim RSLC C18 2.2um, 2.1x100mm, Thermo
Retention time: 8.113 min
Base peak: 319.1633
Precursor m/z: 319.1628
Precursor type: [M+H]+
m/z	relative intensity	assigned
45.0338	7	C2H5O+
55.0538	22	C4H7+
56.0254	5	C3H4O+
57.0694	6	C4H9+
62.0598	14	C2H8NO+
71.0489	999	C4H7O+
72.0523	42	C3[13]CH7O+
87.0807	28	C5H11O+
130.0643	5	C9H8N+
131.0723	11	C9H9N+
172.0364	12	C8H5F3N+
180.0616	13	C10H8F2N+
185.0565	5	C10H8F3+
198.0517	12	C10H7F3N+
200.0681	154	C10H9F3N+
201.0714	18	C9[13]CH9F3N+
226.0838	43	C12H11F3N+
227.0895	11	C12H13F2O2+
228.0996	49	C12H13F3N+
229.1032	8	C11[13]CH13F3N+
242.0908	7	C13H13F3O+
244.0947	27	C12H13F3NO+
258.1101	16	C13H15F3NO+
259.1169	19	C13H16F3NO+
260.1247	11	C13H17F3NO+
