Mass spectrum: Duloxetine; LC-ESI-QTOF; MS2; CE: Ramp 21.5-32.3 eV; R=35000; [M+H]+
Name: Duloxetine
Name: N-Methyl-gamma-(1-naphthalenyloxy)-2-thiophenepropanamine
Name: N-methyl-3-naphthalen-1-yloxy-3-thiophen-2-ylpropan-1-amine
Formula: C18H19NOS
Exact mass: 297.1187352
SMILES: CNCCC(OC1=C2C=CC=CC2=CC=C1)C1=CC=CS1
InChI: InChI=1S/C18H19NOS/c1-19-12-11-17(18-10-5-13-21-18)20-16-9-4-7-14-6-2-3-8-15(14)16/h2-10,13,17,19H,11-12H2,1H3
Instrument: Bruker maXis Impact
Instrument type: LC-ESI-QTOF
Ms type: MS2
Ion mode: POSITIVE
Ionization: ESI
Fragmentation mode: CID
Collision energy: Ramp 21.5-32.3 eV
Resolution: 35000
Column name: Acclaim RSLC C18 2.2um, 2.1x100mm, Thermo
Retention time: 7.862 min
Base peak: 298.1257
Precursor m/z: 298.126
Precursor type: [M+H]+
m/z	relative intensity	assigned
123.0258	344	C7H7S+
124.0337	999	C7H8S+
125.0365	72	C6[13]CH8S+
128.0609	57	C10H8+
129.0688	90	C10H9+
145.0634	52	C10H9O+
154.0691	90	C8H12NS+
155.0757	586	C8H13NS+
156.0798	80	C7[13]CH13NS+
157.0644	397	C11H9O+
165.0688	69	C13H9+
183.0794	441	C13H11O+
184.0824	89	C12[13]CH11O+
221.0416	57	C15H9S+
234.1021	59	C17H14O+
239.0533	213	C15H11OS+
267.0827	100	C17H15OS+
298.125	111	C18H20NOS+
