Mass spectrum: 4`-Aminoacetanilide; LC-ESI-QTOF; MS2; CE: 10 eV; R=35000; [M+H]+
Name: 4`-Aminoacetanilide
Name: N-(4-aminophenyl)acetamide
Formula: C8H10N2O
Exact mass: 150.0793129
SMILES: CC(=O)NC1=CC=C(N)C=C1
InChI: InChI=1S/C8H10N2O/c1-6(11)10-8-4-2-7(9)3-5-8/h2-5H,9H2,1H3,(H,10,11)
Instrument: Bruker maXis Impact
Instrument type: LC-ESI-QTOF
Ms type: MS2
Ion mode: POSITIVE
Ionization: ESI
Fragmentation mode: CID
Collision energy: 10 eV
Resolution: 35000
Column name: Acclaim RSLC C18 2.2um, 2.1x100mm, Thermo
Retention time: 2.272 min
Base peak: 151.0853
Precursor m/z: 151.0866
Precursor type: [M+H]+
m/z	relative intensity	assigned
133.075	17	C8H9N2+
151.0852	999	C8H11N2O+
152.0881	79	C7[13]CH11N2O+
153.0909	5	C6[13]C2H11N2O+
