Mass spectrum: Ifosfamide; LC-ESI-QTOF; MS2; CE: Ramp 20.2-30.3 eV; R=35000; [M+H]+
Name: Ifosfamide
Name: N,3-bis(2-chloroethyl)-2-oxo-1,3,2lambda5-oxazaphosphinan-2-amine
Formula: C7H15Cl2N2O2P
Exact mass: 260.0248197
SMILES: ClCCNP1(=O)OCCCN1CCCl
InChI: InChI=1S/C7H15Cl2N2O2P/c8-2-4-10-14(12)11(6-3-9)5-1-7-13-14/h1-7H2,(H,10,12)
Instrument: Bruker maXis Impact
Instrument type: LC-ESI-QTOF
Ms type: MS2
Ion mode: POSITIVE
Ionization: ESI
Fragmentation mode: CID
Collision energy: Ramp 20.2-30.3 eV
Resolution: 35000
Column name: Acclaim RSLC C18 2.2um, 2.1x100mm, Thermo
Retention time: 5.846 min
Base peak: 261.0322
Precursor m/z: 261.0321
Precursor type: [M+H]+
m/z	relative intensity	assigned
56.0492	22	C3H6N+
62.9994	68	C2H4Cl+
64.9962	13	C2H4[37]Cl+
67.0541	10	C5H7+
78.0104	261	C2H5ClN+
79.0138	6	C[13]CH5ClN+
80.0073	66	C2H5[37]ClN+
80.0261	8	C2H7ClN+
82.0651	10	C5H8N+
84.0806	8	C5H10N+
92.0267	999	C3H7ClN+
93.03	19	C2[13]CH7ClN+
94.024	138	C3H7[37]ClN+
116.9509	18	CH3Cl2O2+
118.0426	7	CH12ClN2P+
120.0579	71	C5H11ClN+
122.0546	13	C5H11[37]ClN+
125.9504	6	CH2ClNO2P+
127.9664	14	C2H4Cl2NO+
128.0257	8	C5H7NOP+
136.0156	5	C4H7ClNO2+
141.9813	17	C6H3ClO2+
146.0361	30	C5H9NO2P+
153.9814	396	C3H6ClNO2P+
154.9848	9	C2[13]CH6ClNO2P+
155.9788	84	C3H6[37]ClNO2P+
182.0128	166	C5H10ClNO2P+
183.0158	6	C4[13]CH10ClNO2P+
184.0099	33	C5H10[37]ClNO2P+
200.0237	54	C6H12Cl2NO2+
202.02	11	C6H12Cl[37]ClNO2+
233.001	221	C5H12Cl2N2O2P+
234.0038	11	C4[13]CH12Cl2N2O2P+
234.9983	134	C5H12Cl[37]ClN2O2P+
261.0324	420	C7H16Cl2N2O2P+
262.0355	35	C6[13]CH16Cl2N2O2P+
263.0296	258	C7H16Cl[37]ClN2O2P+
