Mass spectrum: Domperidone; LC-ESI-QTOF; MS2; CE: 40 eV; R=35000; [M+H]+
Name: Domperidone
Name: 6-chloro-3-[1-[3-(2-oxo-3H-benzimidazol-1-yl)propyl]piperidin-4-yl]-1H-benzimidazol-2-one
Formula: C22H24ClN5O2
Exact mass: 425.1618527
SMILES: ClC1=CC2=C(C=C1)N(C1CCN(CCCN3C(=O)NC4=CC=CC=C34)CC1)C(=O)N2
InChI: InChI=1S/C22H24ClN5O2/c23-15-6-7-20-18(14-15)25-22(30)28(20)16-8-12-26(13-9-16)10-3-11-27-19-5-2-1-4-17(19)24-21(27)29/h1-2,4-7,14,16H,3,8-13H2,(H,24,29)(H,25,30)
Instrument: Bruker maXis Impact
Instrument type: LC-ESI-QTOF
Ms type: MS2
Ion mode: POSITIVE
Ionization: ESI
Fragmentation mode: CID
Collision energy: 40 eV
Resolution: 35000
Column name: Acclaim RSLC C18 2.2um, 2.1x100mm, Thermo
Retention time: 5.819 min
Base peak: 411.2183
Precursor m/z: 426.1691
Precursor type: [M+H]+
m/z	relative intensity	assigned
119.0593	70	C7H7N2+
120.0623	5	C6[13]CH7N2+
147.0541	567	C6H5N5+
148.057	50	C5[13]CH5N5+
175.0853	999	C8H9N5+
176.0884	104	C7[13]CH9N5+
207.0303	7	C11H3N4O+
235.0619	11	C10H10ClN5+
252.0882	9	C13H10N5O+
258.162	6	C14H25ClNO+
426.1686	19	C22H25ClN5O2+
427.173	6	C21[13]CH25ClN5O2+
428.1666	7	C22H25[37]ClN5O2+
