Mass spectrum: Amiodarone; LC-ESI-QTOF; MS2; CE: 40 eV; R=35000; [M+H]+
Name: Amiodarone
Name: (2-butyl-1-benzofuran-3-yl)-[4-[2-(diethylamino)ethoxy]-3,5-diiodophenyl]methanone
Formula: C25H29I2NO3
Exact mass: 645.0236898
SMILES: CCCCC1=C(C(=O)C2=CC(I)=C(OCCN(CC)CC)C(I)=C2)C2=CC=CC=C2O1
InChI: InChI=1S/C25H29I2NO3/c1-4-7-11-22-23(18-10-8-9-12-21(18)31-22)24(29)17-15-19(26)25(20(27)16-17)30-14-13-28(5-2)6-3/h8-10,12,15-16H,4-7,11,13-14H2,1-3H3
Instrument: Bruker maXis Impact
Instrument type: LC-ESI-QTOF
Ms type: MS2
Ion mode: POSITIVE
Ionization: ESI
Fragmentation mode: CID
Collision energy: 40 eV
Resolution: 35000
Column name: Acclaim RSLC C18 2.2um, 2.1x100mm, Thermo
Retention time: 11.890 min
Base peak: 646.031
Precursor m/z: 646.031
Precursor type: [M+H]+
m/z	relative intensity	assigned
159.0431	13	C10H7O2+
201.0898	135	C13H13O2+
202.0926	19	C12[13]CH13O2+
248.0853	5	C4H25IO3+
263.1057	14	C18H15O2+
272.9401	6	C9H6IO2+
275.0679	11	C18H11O3+
276.0776	77	C18H12O3+
277.085	53	C18H13O3+
278.0888	12	C17[13]CH13O3+
290.0923	10	C19H14O3+
319.1331	54	C24H17N+
320.1395	7	C23[13]CH17N+
359.9651	5	C3H22I2O3+
372.8196	9	C7H3I2O2+
372.8573	8	C8H7I2O+
374.9507	6	C16H8IO3+
375.9582	11	C16H9IO3+
398.8364	9	C9H5I2O2+
402.9834	5	C18H12IO3+
403.9903	5	C18H13IO3+
416.9979	17	C19H14IO3+
418.0081	10	C22H13IN+
445.947	12	C12H18I2NO+
476.0727	26	C22H23INO3+
504.0994	5	C24H27INO3+
516.9151	31	C18H15I2O2+
517.908	5	C17[13]CH15I2O2+
517.921	6	C17[13]CH15I2O2+
572.9413	39	C21H19I2O3+
573.9439	10	C20[13]CH19I2O3+
646.0323	999	C25H30I2NO3+
647.0352	334	C24[13]CH30I2NO3+
648.0359	48	C23[13]C2H30I2NO3+
