Mass spectrum: Phthalamic acid; LC-ESI-QTOF; MS2; CE: 30 eV; R=35000; [M+H]+
Name: Phthalamic acid
Name: 2-carbamoylbenzoic acid
Formula: C8H7NO3
Exact mass: 165.0425931
SMILES: NC(=O)C1=CC=CC=C1C(O)=O
InChI: InChI=1S/C8H7NO3/c9-7(10)5-3-1-2-4-6(5)8(11)12/h1-4H,(H2,9,10)(H,11,12)
Instrument: Bruker maXis Impact
Instrument type: LC-ESI-QTOF
Ms type: MS2
Ion mode: POSITIVE
Ionization: ESI
Fragmentation mode: CID
Collision energy: 30 eV
Resolution: 35000
Column name: Acclaim RSLC C18 2.2um, 2.1x100mm, Thermo
Retention time: 2.831 min
Base peak: 174.0204
Precursor m/z: 166.0499
Precursor type: [M+H]+
m/z	relative intensity	assigned
130.0295	420	C8H4NO+
149.0227	999	C8H5O3+
