Mass spectrum: Bupropion; LC-ESI-QTOF; MS2; CE: Ramp 19.4-29.2 eV; R=35000; [M+H]+
Name: Bupropion
Name: 2-(tert-butylamino)-1-(3-chlorophenyl)propan-1-one
Formula: C13H18ClNO
Exact mass: 239.1076919
SMILES: CC(NC(C)(C)C)C(=O)C1=CC(Cl)=CC=C1
InChI: InChI=1S/C13H18ClNO/c1-9(15-13(2,3)4)12(16)10-6-5-7-11(14)8-10/h5-9,15H,1-4H3
Instrument: Bruker maXis Impact
Instrument type: LC-ESI-QTOF
Ms type: MS2
Ion mode: POSITIVE
Ionization: ESI
Fragmentation mode: CID
Collision energy: Ramp 19.4-29.2 eV
Resolution: 35000
Column name: Acclaim RSLC C18 2.2um, 2.1x100mm, Thermo
Retention time: 5.595 min
Base peak: 240.1153
Precursor m/z: 240.115
Precursor type: [M+H]+
m/z	relative intensity	assigned
57.0695	310	C4H9+
58.0728	11	C3[13]CH9+
103.0549	27	C8H7+
130.0648	140	C9H8N+
131.073	999	C9H9N+
132.0565	7	C9H8O+
132.0761	75	C8[13]CH9N+
139.0306	242	C8H8Cl+
140.034	17	C7[13]CH8Cl+
141.0274	65	C8H8[37]Cl+
151.0173	8	C11H3O+
166.0412	815	C9H9ClN+
167.0253	311	C9H8ClO+
167.0441	48	C8[13]CH9ClN+
168.0379	216	C9H9[37]ClN+
169.0223	85	C9H8[37]ClO+
169.0409	8	C9H10ClO+
184.0518	755	C9H11ClNO+
185.0549	69	C8[13]CH11ClNO+
186.049	201	C9H11[37]ClNO+
240.1145	18	C13H19ClNO+
242.1126	5	C13H19[37]ClNO+
