Mass spectrum: Bosentan; LC-ESI-QTOF; MS2; CE: Ramp 26.7-40.0 eV; R=35000; [M+H]+
Name: Bosentan
Name: 4-tert-butyl-N-[6-(2-hydroxyethoxy)-5-(2-methoxyphenoxy)-2-pyrimidin-2-ylpyrimidin-4-yl]benzenesulfonamide
Formula: C27H29N5O6S
Exact mass: 551.1838546
SMILES: COC1=CC=CC=C1OC1=C(NS(=O)(=O)C2=CC=C(C=C2)C(C)(C)C)N=C(N=C1OCCO)C1=NC=CC=N1
InChI: InChI=1S/C27H29N5O6S/c1-27(2,3)18-10-12-19(13-11-18)39(34,35)32-23-22(38-21-9-6-5-8-20(21)36-4)26(37-17-16-33)31-25(30-23)24-28-14-7-15-29-24/h5-15,33H,16-17H2,1-4H3,(H,30,31,32)
Instrument: Bruker maXis Impact
Instrument type: LC-ESI-QTOF
Ms type: MS2
Ion mode: POSITIVE
Ionization: ESI
Fragmentation mode: CID
Collision energy: Ramp 26.7-40.0 eV
Resolution: 35000
Column name: Acclaim RSLC C18 2.2um, 2.1x100mm, Thermo
Retention time: 9.946 min
Base peak: 293.1054
Precursor m/z: 552.1911
Precursor type: [M+H]+
m/z	relative intensity	assigned
121.0641	8	H13N2O3S+
123.0433	15	C5H5N3O+
123.0661	17	C5H7N4+
135.0436	17	H11N2O4S+
149.0452	12	C6H5N4O+
150.0524	12	C5H10O5+
150.0651	7	C7H8N3O+
161.1064	34	C2H17N4O2S+
175.0605	10	C7H11O5+
177.0403	6	C7H5N4O2+
189.064	12	C8H7N5O+
190.0714	12	C7H12NO5+
197.0627	23	C13H9O2+
198.0662	5	C12[13]CH9O2+
202.0718	999	C11H10N2O2+
203.0562	20	C9H7N4O2+
203.0756	107	C10[13]CH10N2O2+
204.0501	21	C7H10NO6+
204.0812	6	C9[13]C2H10N2O2+
205.0582	14	C7H11NO6+
241.0895	39	C18H11N+
242.0925	8	C17[13]CH11N+
246.0986	5	C11H12N5O2+
255.1122	13	C7H19N4O4S+
264.0868	9	C13H14NO5+
265.0953	10	C14H11N5O+
276.0877	12	C15H10N5O+
279.0764	6	C16H11N2O3+
280.0833	272	C16H12N2O3+
281.0853	40	C15[13]CH12N2O3+
282.0956	5	C14[13]C2H12N2O3+
283.1064	17	C14H13N5O2+
293.09	15	C14H15NO6+
294.0985	29	C15H12N5O2+
310.0923	24	C15H12N5O3+
311.1017	402	C17H17N3OS+
312.1052	90	C16[13]CH17N3OS+
313.1084	7	C15[13]C2H17N3OS+
324.1087	24	C18H16N2O4+
325.1125	6	C17[13]CH16N2O4+
338.1253	10	C11H22N4O6S+
355.1263	9	C23H19N2S+
400.145	8	C21H24N2O4S+
508.1657	224	C25H26N5O5S+
509.1689	58	C24[13]CH26N5O5S+
510.1658	20	C26H28N3O6S+
552.1921	852	C27H30N5O6S+
553.1955	296	C26[13]CH30N5O6S+
