Mass spectrum: Anastrozole; LC-ESI-QTOF; MS2; CE: Ramp 21.4-32.1 eV; R=35000; [M+H]+
Name: Anastrozole
Name: 2-[3-(2-cyanopropan-2-yl)-5-(1,2,4-triazol-1-ylmethyl)phenyl]-2-methylpropanenitrile
Formula: C17H19N5
Exact mass: 293.1640456
SMILES: CC(C)(C#N)C1=CC(=CC(CN2C=NC=N2)=C1)C(C)(C)C#N
InChI: InChI=1S/C17H19N5/c1-16(2,9-18)14-5-13(8-22-12-20-11-21-22)6-15(7-14)17(3,4)10-19/h5-7,11-12H,8H2,1-4H3
Instrument: Bruker maXis Impact
Instrument type: LC-ESI-QTOF
Ms type: MS2
Ion mode: POSITIVE
Ionization: ESI
Fragmentation mode: CID
Collision energy: Ramp 21.4-32.1 eV
Resolution: 35000
Column name: Acclaim RSLC C18 2.2um, 2.1x100mm, Thermo
Retention time: 4.909 min
Base peak: 294.1601
Precursor m/z: 294.1713
Precursor type: [M+H]+
m/z	relative intensity	assigned
83.0598	24	C4H7N2+
143.0717	8	C10H9N+
167.0713	16	C12H9N+
168.0792	20	C12H10N+
169.0874	37	C12H11N+
170.0956	999	C12H12N+
171.0667	19	C9H7N4+
171.0987	134	C11[13]CH12N+
172.1018	6	C10[13]C2H12N+
182.0952	44	C13H12N+
183.0996	6	C12[13]CH12N+
184.1111	843	C13H14N+
185.1145	101	C12[13]CH14N+
186.1173	5	C11[13]C2H14N+
212.1063	467	C12H12N4+
213.1091	65	C11[13]CH12N4+
