Mass spectrum: 17-beta-Estradiol; LC-ESI-QTOF; MS2; CE: 30 eV; R=35000; [M+H]+
Name: 17-beta-Estradiol
Name: Estradiol
Name: (8R,9S,13S,14S,17S)-13-methyl-6,7,8,9,11,12,14,15,16,17-decahydrocyclopenta[a]phenanthrene-3,17-diol
Formula: C18H24O2
Exact mass: 272.1776300
SMILES: C[C@]12CC[C@H]3[C@@H](CCC4=CC(O)=CC=C34)[C@@H]1CC[C@@H]2O
InChI: InChI=1S/C18H24O2/c1-18-9-8-14-13-5-3-12(19)10-11(13)2-4-15(14)16(18)6-7-17(18)20/h3,5,10,14-17,19-20H,2,4,6-9H2,1H3/t14-,15-,16+,17+,18+/m1/s1
Instrument: Bruker maXis Impact
Instrument type: LC-ESI-QTOF
Ms type: MS2
Ion mode: POSITIVE
Ionization: ESI
Fragmentation mode: CID
Collision energy: 30 eV
Resolution: 35000
Column name: Acclaim RSLC C18 2.2um, 2.1x100mm, Thermo
Retention time: 12.002 min
Base peak: 370.2377
Precursor m/z: 273.1849
Precursor type: [M+H]+
m/z	relative intensity	assigned
129.0698	32	C10H9+
157.1002	164	C12H13+
175.1118	52	C12H15O+
185.0951	86	C13H13O+
197.1313	51	C15H17+
198.1386	40	C15H18+
212.1556	122	C16H20+
213.1603	36	C16H21+
225.1276	230	C16H17O+
226.0425	209	C17H6O+
226.1322	100	C16H18O+
227.1776	106	C17H23+
228.1826	35	C17H24+
240.1499	389	C17H20O+
241.1529	110	C16[13]CH20O+
255.1734	999	C18H23O+
256.1772	248	C17[13]CH23O+
257.1783	30	C16[13]C2H23O+
273.1846	114	C18H25O2+
