Mass spectrum: Imatinib; LC-ESI-QTOF; MS2; CE: 50 eV; R=35000; [M+H]+
Name: Imatinib
Name: 4-[(4-methylpiperazin-1-yl)methyl]-N-[4-methyl-3-[(4-pyridin-3-ylpyrimidin-2-yl)amino]phenyl]benzamide
Formula: C29H31N7O
Exact mass: 493.2590086
SMILES: CN1CCN(CC2=CC=C(C=C2)C(=O)NC2=CC(NC3=NC=CC(=N3)C3=CN=CC=C3)=C(C)C=C2)CC1
InChI: InChI=1S/C29H31N7O/c1-21-5-10-25(18-27(21)34-29-31-13-11-26(33-29)24-4-3-12-30-19-24)32-28(37)23-8-6-22(7-9-23)20-36-16-14-35(2)15-17-36/h3-13,18-19H,14-17,20H2,1-2H3,(H,32,37)(H,31,33,34)
Instrument: Bruker maXis Impact
Instrument type: LC-ESI-QTOF
Ms type: MS2
Ion mode: POSITIVE
Ionization: ESI
Fragmentation mode: CID
Collision energy: 50 eV
Resolution: 35000
Column name: Acclaim RSLC C18 2.2um, 2.1x100mm, Thermo
Retention time: 6.590 min
Base peak: 247.636
Precursor m/z: 494.2663
Precursor type: [M+H]+
m/z	relative intensity	assigned
118.0414	6	C8H6O+
119.0482	33	C6H5N3+
121.075	24	C7H9N2+
131.0593	112	C8H7N2+
132.044	9	C8H6NO+
132.0659	26	C8H8N2+
133.0697	5	CH7N7O+
146.0691	6	C8H8N3+
146.0967	6	C10H12N+
156.0548	5	C9H6N3+
158.0581	24	C8H6N4+
160.074	10	C8H8N4+
167.0841	5	C13H11+
173.0812	35	C9H9N4+
174.0654	7	C7H6N6+
174.0886	15	C9H10N4+
179.0835	8	C14H11+
180.0895	5	C7H10N5O+
185.0836	6	C12H11NO+
189.137	22	C12H17N2+
194.0954	84	C14H12N+
195.0991	21	C7H11N6O+
204.0796	22	C15H10N+
205.0848	5	C14[13]CH10N+
206.0825	48	C14H10N2+
207.0677	10	C14H9NO+
207.0876	6	C13[13]CH10N2+
208.0747	5	C12H8N4+
209.1065	5	C14H13N2+
210.0896	6	C12H10N4+
210.1121	5	C7H12N7O+
212.1079	8	C14H14NO+
217.1322	51	C13H17N2O+
218.1372	5	C12[13]CH17N2O+
219.0913	15	C15H11N2+
220.0977	5	C15H12N2+
221.1065	117	C15H13N2+
222.0907	592	C13H10N4+
223.0966	211	C13H11N4+
224.0997	36	C12[13]CH11N4+
232.0632	6	C15H8N2O+
237.102	16	C15H13N2O+
237.1249	8	C15H15N3+
238.1091	79	C15H14N2O+
239.1157	14	C14[13]CH14N2O+
247.086	347	C14H9N5+
248.0894	76	C13[13]CH9N5+
249.0999	21	C14H11N5+
259.0959	9	C16H11N4+
260.1044	12	C16H12N4+
261.1098	14	C16H13N4+
262.1032	7	C15H12N5+
262.1142	5	C15H12N5+
263.1169	29	C15H13N5+
264.1124	285	C14H12N6+
265.096	216	C14H11N5O+
266.0999	38	C13[13]CH11N5O+
273.1019	7	C18H13N2O+
274.0972	30	C17H12N3O+
275.1037	16	C15H11N6+
276.1235	27	C18H16N2O+
277.109	5	C16H13N4O+
277.1288	6	C17[13]CH16N2O+
290.1281	178	C16H14N6+
291.1309	41	C15[13]CH14N6+
349.1438	10	C23H17N4+
350.1361	19	C22H16N5+
351.1241	43	C22H15N4O+
351.1597	62	C23H19N4+
352.1375	11	C21H16N6+
352.1621	20	C22[13]CH19N4+
353.1374	5	C20H15N7+
359.1285	6	C24H15N4+
361.1309	18	C23H15N5+
363.1224	7	C21H13N7+
364.1202	6	C22H14N5O+
364.1547	21	C23H18N5+
365.1289	5	C22H15N5O+
365.1658	10	C25H21N2O+
366.171	102	C23H20N5+
367.1579	22	C22H19N6+
367.1727	30	C22[13]CH20N5+
368.1562	5	C23H20N4O+
368.1717	5	C21[13]C2H20N5+
376.1548	95	C24H18N5+
377.1397	83	C24H17N4O+
378.1353	205	C23H16N5O+
379.142	392	C23H17N5O+
380.1439	112	C22[13]CH17N5O+
381.1507	12	C21[13]C2H17N5O+
394.1661	999	C24H20N5O+
395.169	316	C23[13]CH20N5O+
396.1718	34	C22[13]C2H20N5O+
412.1757	6	C29H22N3+
476.2514	9	C29H30N7+
