Mass spectrum: Acetaminophen; LC-ESI-QTOF; MS2; CE: Ramp 16.3-24.4 eV; R=35000; [M+H]+
Name: Acetaminophen
Name: N-(4-hydroxyphenyl)acetamide
Formula: C8H9NO2
Exact mass: 151.06332853
SMILES: CC(=O)NC1=CC=C(O)C=C1
InChI: InChI=1S/C8H9NO2/c1-6(10)9-7-2-4-8(11)5-3-7/h2-5,11H,1H3,(H,9,10)
Instrument: Bruker maXis Impact
Instrument type: LC-ESI-QTOF
Ms type: MS2
Ion mode: POSITIVE
Ionization: ESI
Fragmentation mode: CID
Collision energy: Ramp 16.3-24.4 eV
Resolution: 35000
Column name: Acclaim RSLC C18 2.2um, 2.1x100mm, Thermo
Retention time: 3.402 min
Base peak: 152.0698
Precursor m/z: 152.0706
Precursor type: [M+H]+
m/z	relative intensity	assigned
59.0487	33	C3H7O+
65.0378	167	C5H5+
66.0412	8	C4[13]CH5+
67.0412	6	C4H5N+
67.0541	9	C5H7+
80.0494	5	C5H6N+
82.0647	36	C5H8N+
92.0496	66	C6H6N+
93.0335	29	C6H5O+
93.0552	8	C6H7N+
109.0515	9	C6H7NO+
110.0613	464	C6H8NO+
111.045	100	C6H7O2+
112.0476	5	C5[13]CH7O2+
134.0588	65	C8H8NO+
135.0618	8	C7[13]CH8NO+
152.0693	999	C8H10NO2+
153.0729	116	C7[13]CH10NO2+
