Mass spectrum: Ifosfamide; LC-ESI-QTOF; MS2; CE: 40 eV; R=35000; [M+H]+
Name: Ifosfamide
Name: N,3-bis(2-chloroethyl)-2-oxo-1,3,2lambda5-oxazaphosphinan-2-amine
Formula: C7H15Cl2N2O2P
Exact mass: 260.0248197
SMILES: ClCCNP1(=O)OCCCN1CCCl
InChI: InChI=1S/C7H15Cl2N2O2P/c8-2-4-10-14(12)11(6-3-9)5-1-7-13-14/h1-7H2,(H,10,12)
Instrument: Bruker maXis Impact
Instrument type: LC-ESI-QTOF
Ms type: MS2
Ion mode: POSITIVE
Ionization: ESI
Fragmentation mode: CID
Collision energy: 40 eV
Resolution: 35000
Column name: Acclaim RSLC C18 2.2um, 2.1x100mm, Thermo
Retention time: 5.842 min
Base peak: 261.0318
Precursor m/z: 261.0321
Precursor type: [M+H]+
m/z	relative intensity	assigned
116.9493	58	CH3Cl2O2+
118.0048	28	C7H2O2+
118.0408	7	C4H9NOP+
118.9468	17	CH3Cl[37]ClO2+
120.0202	15	C7H4O2+
120.0565	63	C5H11ClN+
122.0539	23	C5H11[37]ClN+
123.9708	23	C5HO2P+
125.9495	65	CH2ClNO2P+
126.9693	11	C4ClN2O+
127.9469	19	CH2[37]ClNO2P+
127.9651	53	C5HClO2+
128.0247	51	Cl2H12NO2+
129.9618	15	C5H[37]ClO2+
135.971	6	C7HClO+
136.0151	35	C4H7ClNO2+
141.9807	82	C6H3ClO2+
143.9606	9	C2H4Cl2NO2+
143.9774	22	C6H3[37]ClO2+
146.0354	43	C5H9NO2P+
153.9808	999	C3H6ClNO2P+
154.9841	27	C2[13]CH6ClNO2P+
155.9776	239	C3H6[37]ClNO2P+
156.9804	5	C5H2ClN2O2+
171.9919	18	C4H8Cl2NO2+
173.9881	5	C4H8Cl[37]ClNO2+
182.0118	19	C5H10ClNO2P+
184.0084	5	C5H10[37]ClNO2P+
232.9985	11	C5H12Cl2N2O2P+
234.9948	5	C5H12Cl[37]ClN2O2P+
