Mass spectrum: 4-Hydroxytamoxifen; LC-ESI-QTOF; MS2; CE: 30 eV; R=35000; [M+H]+
Name: 4-Hydroxytamoxifen
Name: (Z)-4-(1-[4-(Dimethylaminoethoxy)phenyl]-2-phenyl-1-butenyl)phenol
Name: 4-[1-[4-[2-(dimethylamino)ethoxy]phenyl]-2-phenylbut-1-enyl]phenol
Formula: C26H29NO2
Exact mass: 387.2198292
SMILES: CCC(=C(C1=CC=C(O)C=C1)C1=CC=C(OCCN(C)C)C=C1)C1=CC=CC=C1
InChI: InChI=1S/C26H29NO2/c1-4-25(20-8-6-5-7-9-20)26(21-10-14-23(28)15-11-21)22-12-16-24(17-13-22)29-19-18-27(2)3/h5-17,28H,4,18-19H2,1-3H3
Instrument: Bruker maXis Impact
Instrument type: LC-ESI-QTOF
Ms type: MS2
Ion mode: POSITIVE
Ionization: ESI
Fragmentation mode: CID
Collision energy: 30 eV
Resolution: 35000
Column name: Acclaim RSLC C18 2.2um, 2.1x100mm, Thermo
Retention time: 9.120 min
Base peak: 388.2276
Precursor m/z: 388.2271
Precursor type: [M+H]+
m/z	relative intensity	assigned
121.0641	16	C8H9O+
128.0613	23	C10H8+
129.069	165	C10H9+
130.0722	18	C9[13]CH9+
133.0631	6	C9H9O+
135.0797	6	C9H11O+
145.0635	184	C10H9O+
146.0671	17	C9[13]CH9O+
165.0686	26	C13H9+
166.0766	41	C13H10+
166.1216	132	C10H16NO+
167.083	9	C12[13]CH10+
167.1244	17	C9[13]CH16NO+
171.0793	15	C12H11O+
179.0837	5	C14H11+
180.0913	5	C14H12+
183.0791	21	C13H11O+
193.1015	9	C15H13+
194.0717	50	C14H10O+
195.0789	27	C14H11O+
195.1162	12	C15H15+
199.0752	11	C13H11O2+
205.1009	5	C16H13+
207.0806	17	C15H11O+
208.0866	21	C15H12O+
209.0952	28	C15H13O+
210.0672	5	C14H10O2+
210.0983	5	C14[13]CH13O+
211.0736	5	C14H11O2+
220.0876	10	C16H12O+
221.0948	34	C16H13O+
222.1029	48	C16H14O+
223.1113	269	C16H15O+
224.0821	13	C15H12O2+
224.1145	50	C15[13]CH15O+
225.0897	31	C15H13O2+
226.0931	5	C14[13]CH13O2+
234.1039	16	C17H14O+
235.1098	9	C17H15O+
236.1187	7	C17H16O+
237.0899	15	C16H13O2+
238.0971	18	C16H14O2+
247.1118	7	C18H15O+
249.127	56	C18H17O+
250.1294	14	C17[13]CH17O+
258.1024	5	C19H14O+
259.112	11	C19H15O+
260.1197	5	C19H16O+
270.1037	11	C20H14O+
271.1105	5	C20H15O+
273.1274	6	C20H17O+
286.0989	8	C20H14O2+
287.1047	18	C20H15O2+
287.1428	7	C21H19O+
296.1205	5	C22H16O+
297.1272	5	C22H17O+
299.1083	8	C21H15O2+
299.1425	15	C22H19O+
301.1221	55	C21H17O2+
302.1259	16	C20[13]CH17O2+
314.1298	37	C22H18O2+
315.137	34	C22H19O2+
316.1455	113	C22H20O2+
317.1491	25	C21[13]CH20O2+
318.1487	5	C20[13]C2H20O2+
325.1601	7	C24H21O+
331.1309	5	C25H17N+
343.1693	56	C24H23O2+
344.1737	14	C23[13]CH23O2+
388.2275	999	C26H30NO2+
389.2308	310	C25[13]CH30NO2+
390.2342	36	C24[13]C2H30NO2+
