Mass spectrum: Montelukast; LC-ESI-QTOF; MS2; CE: 40 eV; R=35000; [M+H]+
Name: Montelukast
Name: UCHDWCPVSPXUMX-UHFFFAOYSA-N
Name: 2-[1-[[1-[3-[2-(7-chloroquinolin-2-yl)ethenyl]phenyl]-3-[2-(2-hydroxypropan-2-yl)phenyl]propyl]sulfanylmethyl]cyclopropyl]acetic acid
Formula: C35H36ClNO3S
Exact mass: 585.2104427
SMILES: CC(C)(O)C1=CC=CC=C1CCC(SCC1(CC(O)=O)CC1)C1=CC=CC(C=CC2=NC3=C(C=CC(Cl)=C3)C=C2)=C1
InChI: InChI=1S/C35H36ClNO3S/c1-34(2,40)30-9-4-3-7-25(30)13-17-32(41-23-35(18-19-35)22-33(38)39)27-8-5-6-24(20-27)10-15-29-16-12-26-11-14-28(36)21-31(26)37-29/h3-12,14-16,20-21,32,40H,13,17-19,22-23H2,1-2H3,(H,38,39)
Instrument: Bruker maXis Impact
Instrument type: LC-ESI-QTOF
Ms type: MS2
Ion mode: POSITIVE
Ionization: ESI
Fragmentation mode: CID
Collision energy: 40 eV
Resolution: 35000
Column name: Acclaim RSLC C18 2.2um, 2.1x100mm, Thermo
Retention time: 13.345 min
Base peak: 586.2177
Precursor m/z: 586.2177
Precursor type: [M+H]+
m/z	relative intensity	assigned
115.0535	5	C9H7+
117.0689	6	C9H9+
128.061	11	C10H8+
129.0689	22	C10H9+
131.0848	161	C10H11+
132.088	14	C9[13]CH11+
133.1001	16	C10H13+
142.0764	9	C5H15ClO2+
143.0846	49	C11H11+
144.0877	6	C10[13]CH11+
157.1001	102	C12H13+
158.1038	12	C11[13]CH13+
243.1031	9	C12H18ClNO2+
245.132	13	C19H17+
266.0724	16	C20H10O+
276.0575	59	C18H11ClN+
277.0633	31	C15H14ClO3+
278.0732	999	C18H13ClN+
279.0769	170	C17[13]CH13ClN+
280.0706	217	C18H13[37]ClN+
281.0741	30	C18H14ClO+
282.0847	8	C15H19ClOS+
292.0888	209	C19H15ClN+
293.092	42	C18[13]CH15ClN+
294.0857	48	C19H15[37]ClN+
295.0891	7	C19H16ClO+
306.1038	16	C23H14O+
307.1078	5	C22[13]CH14O+
318.1039	24	C21H17ClN+
319.1067	5	C20[13]CH17ClN+
320.102	7	C21H17[37]ClN+
380.1201	41	C29H16O+
381.1231	14	C28[13]CH16O+
382.1344	33	C23H23ClO3+
383.1366	6	C22[13]CH23ClO3+
384.1337	8	C23H23[37]ClO3+
398.1309	22	C26H21ClNO+
399.1334	6	C25[13]CH21ClNO+
400.1275	6	C26H21[37]ClNO+
422.1677	789	C29H25ClN+
423.1709	221	C28[13]CH25ClN+
424.1652	184	C29H25[37]ClN+
425.1674	35	C29H26ClO+
440.1779	150	C29H27ClNO+
441.1805	47	C28[13]CH27ClNO+
442.1759	40	C29H27[37]ClNO+
443.1785	9	C35H23+
456.1541	19	C29H27ClNS+
457.1581	7	C28[13]CH27ClNS+
458.1525	5	C29H27[37]ClNS+
524.217	5	C34H35ClNS+
