Mass spectrum: Labetalol; LC-ESI-QTOF; MS2; CE: 40 eV; R=35000; [M+H]+
Name: Labetalol
Name: 2-hydroxy-5-[1-hydroxy-2-(4-phenylbutan-2-ylamino)ethyl]benzamide
Formula: C19H24N2O3
Exact mass: 328.1786926
SMILES: CC(CCC1=CC=CC=C1)NCC(O)C1=CC(C(N)=O)=C(O)C=C1
InChI: InChI=1S/C19H24N2O3/c1-13(7-8-14-5-3-2-4-6-14)21-12-18(23)15-9-10-17(22)16(11-15)19(20)24/h2-6,9-11,13,18,21-23H,7-8,12H2,1H3,(H2,20,24)
Instrument: Bruker maXis Impact
Instrument type: LC-ESI-QTOF
Ms type: MS2
Ion mode: POSITIVE
Ionization: ESI
Fragmentation mode: CID
Collision energy: 40 eV
Resolution: 35000
Column name: Acclaim RSLC C18 2.2um, 2.1x100mm, Thermo
Retention time: 5.618 min
Base peak: 411.2194
Precursor m/z: 329.186
Precursor type: [M+H]+
m/z	relative intensity	assigned
116.0487	16	C8H6N+
117.0553	5	C5H9O3+
119.0478	6	C8H7O+
120.043	11	C7H6NO+
133.0513	13	C8H7NO+
134.059	145	C8H8NO+
135.0432	26	C8H7O2+
135.0624	12	C7[13]CH8NO+
136.0745	7	C8H10NO+
144.0431	40	C9H6NO+
145.0269	11	C9H5O2+
147.0431	51	C9H7O2+
162.0539	999	C9H8NO2+
163.0378	7	C9H7O3+
163.0569	90	C8[13]CH8NO2+
164.0683	31	C9H10NO2+
165.0534	89	C9H9O3+
166.0571	9	C8[13]CH9O3+
179.0803	10	C9H11N2O2+
180.0642	48	C9H10NO3+
181.067	6	C8[13]CH10NO3+
190.0853	26	C11H12NO2+
258.0131	5	C16H4NO3+
294.1483	10	C19H20NO2+
