Mass spectrum: Hydroxychloroquine; LC-ESI-QTOF; MS2; CE: Ramp 22.3-33.5 eV; R=35000; [M+H]+
Name: Hydroxychloroquine
Name: 2-[4-[(7-chloroquinolin-4-yl)amino]pentyl-ethylamino]ethanol
Formula: C18H26ClN3O
Exact mass: 335.1764401
SMILES: CCN(CCO)CCCC(C)NC1=C2C=CC(Cl)=CC2=NC=C1
InChI: InChI=1S/C18H26ClN3O/c1-3-22(11-12-23)10-4-5-14(2)21-17-8-9-20-18-13-15(19)6-7-16(17)18/h6-9,13-14,23H,3-5,10-12H2,1-2H3,(H,20,21)
Instrument: Bruker maXis Impact
Instrument type: LC-ESI-QTOF
Ms type: MS2
Ion mode: POSITIVE
Ionization: ESI
Fragmentation mode: CID
Collision energy: Ramp 22.3-33.5 eV
Resolution: 35000
Column name: Acclaim RSLC C18 2.2um, 2.1x100mm, Thermo
Retention time: 3.704 min
Base peak: 336.1839
Precursor m/z: 336.1837
Precursor type: [M+H]+
m/z	relative intensity	assigned
69.0694	33	C5H9+
72.0802	6	C4H10N+
90.0924	7	CH15ClN2+
102.0918	25	C2H15ClN2+
156.0666	8	C10H8N2+
158.1531	343	C9H20NO+
159.1559	34	C8[13]CH20NO+
164.0252	23	C9H7ClN+
166.0214	5	C9H7[37]ClN+
179.0358	109	C9H8ClN2+
180.0392	9	C8[13]CH8ClN2+
181.0331	29	C9H8[37]ClN2+
191.0362	61	C10H8ClN2+
192.0399	9	C9[13]CH8ClN2+
193.0332	16	C10H8[37]ClN2+
205.0526	10	C11H10ClN2+
247.0996	999	C14H16ClN2+
248.1026	209	C13[13]CH16ClN2+
249.0966	356	C14H16[37]ClN2+
250.0995	40	C14H17ClNO+
336.1839	398	C18H27ClN3O+
337.1869	72	C17[13]CH27ClN3O+
338.1814	116	C18H27[37]ClN3O+
