Mass spectrum: Fenofibrate; LC-ESI-QTOF; MS2; CE: 30 eV; R=35000; [M+H]+
Name: Fenofibrate
Name: propan-2-yl 2-[4-(4-chlorobenzoyl)phenoxy]-2-methylpropanoate
Formula: C20H21ClO4
Exact mass: 360.1128368
SMILES: CC(C)OC(=O)C(C)(C)OC1=CC=C(C=C1)C(=O)C1=CC=C(Cl)C=C1
InChI: InChI=1S/C20H21ClO4/c1-13(2)24-19(23)20(3,4)25-17-11-7-15(8-12-17)18(22)14-5-9-16(21)10-6-14/h5-13H,1-4H3
Instrument: Bruker maXis Impact
Instrument type: LC-ESI-QTOF
Ms type: MS2
Ion mode: POSITIVE
Ionization: ESI
Fragmentation mode: CID
Collision energy: 30 eV
Resolution: 35000
Column name: Acclaim RSLC C18 2.2um, 2.1x100mm, Thermo
Retention time: 12.432 min
Base peak: 361.1205
Precursor m/z: 361.1201
Precursor type: [M+H]+
m/z	relative intensity	assigned
121.0277	299	C7H5O2+
122.0306	19	C6[13]CH5O2+
138.9935	941	C7H4ClO+
139.9968	54	C6[13]CH4ClO+
140.9908	235	C7H4[37]ClO+
233.0359	999	C13H10ClO2+
234.0393	105	C12[13]CH10ClO2+
235.0332	199	C13H10[37]ClO2+
236.0363	16	C16H9Cl+
