Mass spectrum: Cyclophosphamide; LC-ESI-QTOF; MS2; CE: 30 eV; R=35000; [M+H]+
Name: Cyclophosphamide
Name: N,N-bis(2-chloroethyl)-2-oxo-1,3,2lambda5-oxazaphosphinan-2-amine
Formula: C7H15Cl2N2O2P
Exact mass: 260.0248197
SMILES: ClCCN(CCCl)P1(=O)NCCCO1
InChI: InChI=1S/C7H15Cl2N2O2P/c8-2-5-11(6-3-9)14(12)10-4-1-7-13-14/h1-7H2,(H,10,12)
Instrument: Bruker maXis Impact
Instrument type: LC-ESI-QTOF
Ms type: MS2
Ion mode: POSITIVE
Ionization: ESI
Fragmentation mode: CID
Collision energy: 30 eV
Resolution: 35000
Column name: Acclaim RSLC C18 2.2um, 2.1x100mm, Thermo
Retention time: 6.228 min
Base peak: 278.1907
Precursor m/z: 261.0321
Precursor type: [M+H]+
m/z	relative intensity	assigned
120.02	96	C7H4O2+
135.0311	5	C7H5NO2+
138.0303	58	C4H9ClNO2+
140.0019	999	C4H8Cl2N+
141.005	39	C3[13]CH8Cl2N+
141.9803	41	C6H3ClO2+
141.9989	537	C4H8Cl[37]ClN+
142.0174	198	C4H10Cl2N+
143.0018	16	C3H9ClO2P+
143.0211	9	C3[13]CH10Cl2N+
143.978	10	C6H3[37]ClO2+
144.0143	136	C4H10Cl[37]ClN+
154.0179	5	C7H7O2P+
155.9957	8	C7H5ClO2+
167.9965	10	C4H8ClNO2P+
171.0065	14	C7H6ClNO2+
174.0064	6	C4H10Cl2NO2+
185.0225	18	C4H11ClN2O2P+
199.0389	9	C5H13ClN2O2P+
203.9721	6	C4H9Cl2NO2P+
232.9997	83	C5H12Cl2N2O2P+
234.0015	5	C4[13]CH12Cl2N2O2P+
234.9972	49	C5H12Cl[37]ClN2O2P+
261.0312	64	C7H16Cl2N2O2P+
262.0337	8	C6[13]CH16Cl2N2O2P+
263.0282	39	C7H16Cl[37]ClN2O2P+
