Mass spectrum: Guanylurea; LC-ESI-QTOF; MS2; CE: Ramp 14.5-21.8 eV; R=35000; [M+H]+
Name: Guanylurea
Name: diaminomethylideneurea
Formula: C2H6N4O
Exact mass: 102.05416081
SMILES: NC(N)=NC(N)=O
InChI: InChI=1S/C2H6N4O/c3-1(4)6-2(5)7/h(H6,3,4,5,6,7)
Instrument: Bruker maXis Impact
Instrument type: LC-ESI-QTOF
Ms type: MS2
Ion mode: POSITIVE
Ionization: ESI
Fragmentation mode: CID
Collision energy: Ramp 14.5-21.8 eV
Resolution: 35000
Column name: Acclaim RSLC C18 2.2um, 2.1x100mm, Thermo
Retention time: 1.260 min
Base peak: 114.0678
Precursor m/z: 103.0614
Precursor type: [M+H]+
m/z	relative intensity	assigned
60.0549	999	CH6N3+
86.0348	36	C2H4N3O+
