Mass spectrum: Mebeverine; LC-ESI-QTOF; MS2; CE: Ramp 24.2-36.3 eV; R=35000; [M+H]+
Name: Mebeverine
Name: 4-[ethyl-[1-(4-methoxyphenyl)propan-2-yl]amino]butyl 3,4-dimethoxybenzoate
Formula: C25H35NO5
Exact mass: 429.2515232
SMILES: CCN(CCCCOC(=O)C1=CC(OC)=C(OC)C=C1)C(C)CC1=CC=C(OC)C=C1
InChI: InChI=1S/C25H35NO5/c1-6-26(19(2)17-20-9-12-22(28-3)13-10-20)15-7-8-16-31-25(27)21-11-14-23(29-4)24(18-21)30-5/h9-14,18-19H,6-8,15-17H2,1-5H3
Instrument: Bruker maXis Impact
Instrument type: LC-ESI-QTOF
Ms type: MS2
Ion mode: POSITIVE
Ionization: ESI
Fragmentation mode: CID
Collision energy: Ramp 24.2-36.3 eV
Resolution: 35000
Column name: Acclaim RSLC C18 2.2um, 2.1x100mm, Thermo
Retention time: 6.666 min
Base peak: 430.2592
Precursor m/z: 430.2588
Precursor type: [M+H]+
m/z	relative intensity	assigned
91.0544	16	C7H7+
93.07	8	C7H9+
100.1124	43	C6H14N+
109.0657	7	C7H9O+
121.0651	733	C8H9O+
122.0683	50	C7[13]CH9O+
149.096	999	C10H13O+
150.099	143	C9[13]CH13O+
151.1018	6	C8[13]C2H13O+
165.0537	32	C9H9O3+
248.2013	6	C16H26NO+
282.1701	5	C15H24NO4+
430.2591	356	C25H36NO5+
431.2626	128	C24[13]CH36NO5+
432.2655	17	C23[13]C2H36NO5+
