Mass spectrum: Methacrylamide; LC-ESI-QTOF; MS2; CE: Ramp 14.4-21.6 eV; R=35000; [M+H]+
Name: Methacrylamide
Name: 2-methylprop-2-enamide
Formula: C4H7NO
Exact mass: 85.05276384
SMILES: CC(=C)C(N)=O
InChI: InChI=1S/C4H7NO/c1-3(2)4(5)6/h1H2,2H3,(H2,5,6)
Instrument: Bruker maXis Impact
Instrument type: LC-ESI-QTOF
Ms type: MS2
Ion mode: POSITIVE
Ionization: ESI
Fragmentation mode: CID
Collision energy: Ramp 14.4-21.6 eV
Resolution: 35000
Column name: Acclaim RSLC C18 2.2um, 2.1x100mm, Thermo
Retention time: 2.806 min
Base peak: 86.06
Precursor m/z: 86.06
Precursor type: [M+H]+
m/z	relative intensity	assigned
58.0645	999	C3H8N+
69.0333	171	C4H5O+
