Mass spectrum: Azelastine; LC-ESI-QTOF; MS2; CE: 40 eV; R=35000; [M+H]+
Name: Azelastine
Name: 4-[(4-chlorophenyl)methyl]-2-(1-methylazepan-4-yl)phthalazin-1-one
Formula: C22H24ClN3O
Exact mass: 381.1607901
SMILES: CN1CCCC(CC1)N1N=C(CC2=CC=C(Cl)C=C2)C2=CC=CC=C2C1=O
InChI: InChI=1S/C22H24ClN3O/c1-25-13-4-5-18(12-14-25)26-22(27)20-7-3-2-6-19(20)21(24-26)15-16-8-10-17(23)11-9-16/h2-3,6-11,18H,4-5,12-15H2,1H3
Instrument: Bruker maXis Impact
Instrument type: LC-ESI-QTOF
Ms type: MS2
Ion mode: POSITIVE
Ionization: ESI
Fragmentation mode: CID
Collision energy: 40 eV
Resolution: 35000
Column name: Acclaim RSLC C18 2.2um, 2.1x100mm, Thermo
Retention time: 7.474 min
Base peak: 382.168
Precursor m/z: 382.1681
Precursor type: [M+H]+
m/z	relative intensity	assigned
112.1115	466	C7H14N+
125.0144	80	C7H6Cl+
126.0177	8	C6[13]CH6Cl+
127.0114	23	C7H6[37]Cl+
131.0477	22	C7H5N3+
131.0602	6	C8H7N2+
152.0232	11	C9H2N3+
159.0538	409	C9H7N2O+
160.0572	50	C8[13]CH7N2O+
183.0544	8	C11H7N2O+
184.0619	8	C11H8N2O+
185.0709	8	C11H9N2O+
197.0695	22	C12H9N2O+
198.0726	6	C10H13ClNO+
219.0692	14	C12H12ClN2+
232.0753	6	C16H10NO+
241.0411	5	C15H10ClO+
255.0671	9	C18H9NO+
256.05	13	C16H6N3O+
257.061	5	C15H12ClNO+
266.0904	32	C18H15Cl+
267.0889	5	C17[13]CH15Cl+
271.0627	999	C15H12ClN2O+
272.0653	166	C14[13]CH12ClN2O+
273.0598	271	C15H12[37]ClN2O+
274.0615	34	C21H8N+
283.0626	59	C16H12ClN2O+
284.0678	12	C15[13]CH12ClN2O+
285.061	18	C16H12[37]ClN2O+
297.0796	10	C17H14ClN2O+
309.078	141	C18H14ClN2O+
310.0823	30	C17[13]CH14ClN2O+
311.0759	49	C18H14[37]ClN2O+
323.0951	18	C19H16ClN2O+
323.1315	9	C20H20ClN2+
324.0954	8	C18H15ClN3O+
325.0924	6	C19H16[37]ClN2O+
351.1251	126	C21H20ClN2O+
352.1274	39	C20[13]CH20ClN2O+
353.1224	37	C21H20[37]ClN2O+
382.1667	80	C22H25ClN3O+
383.1707	25	C21[13]CH25ClN3O+
384.1659	19	C22H25[37]ClN3O+
