Mass spectrum: Fluvoxamine; LC-ESI-QTOF; MS2; CE: 40 eV; R=35000; [M+H]+
Name: Fluvoxamine
Name: (Z) Fluvoxamine
Name: 2-[[5-methoxy-1-[4-(trifluoromethyl)phenyl]pentylidene]amino]oxyethanamine
Formula: C15H21F3N2O2
Exact mass: 318.1555126
SMILES: COCCCCC(=NOCCN)C1=CC=C(C=C1)C(F)(F)F
InChI: InChI=1S/C15H21F3N2O2/c1-21-10-3-2-4-14(20-22-11-9-19)12-5-7-13(8-6-12)15(16,17)18/h5-8H,2-4,9-11,19H2,1H3
Instrument: Bruker maXis Impact
Instrument type: LC-ESI-QTOF
Ms type: MS2
Ion mode: POSITIVE
Ionization: ESI
Fragmentation mode: CID
Collision energy: 40 eV
Resolution: 35000
Column name: Acclaim RSLC C18 2.2um, 2.1x100mm, Thermo
Retention time: 8.127 min
Base peak: 319.1629
Precursor m/z: 319.1628
Precursor type: [M+H]+
m/z	relative intensity	assigned
115.0534	8	C9H7+
130.064	393	C9H8N+
131.0713	303	C9H9N+
132.078	44	C8[13]CH9N+
133.044	31	C9H6F+
135.0465	6	C8H6FN+
140.0494	6	C10H6N+
141.0682	10	C11H9+
142.077	17	C11H10+
143.0721	9	C10H9N+
144.0802	5	C10H10N+
145.0247	146	C7H4F3+
146.0278	14	C6[13]CH4F3+
151.0344	9	C9H5F2+
153.0499	20	C9H7F2+
156.0796	16	C11H10N+
157.0868	26	C11H11N+
158.095	28	C11H12N+
159.0404	77	C8H6F3+
159.0586	9	C11H8F+
160.0537	29	C10H8O2+
163.0357	7	C10H5F2+
164.042	6	C10H6F2+
165.0499	37	C10H7F2+
166.0505	5	C11H6N2+
171.04	66	C9H6F3+
172.0355	226	C8H5F3N+
173.031	50	C7H4F3N2+
173.0551	14	C4H8F3N2O2+
173.096	5	C12H13O+
174.0504	44	C8H8F2O2+
175.0548	9	C14H7+
177.0491	16	C11H7F2+
178.0445	5	C10H6F2N+
179.0567	21	C7H8F3NO+
180.0604	347	C10H9FO2+
181.063	48	C9[13]CH9FO2+
183.0399	80	C10H6F3+
184.0435	8	C9[13]CH6F3+
184.0473	10	C9[13]CH6F3+
185.0439	91	C9H6F3N+
186.0506	39	C9H7F3N+
186.0688	9	C12H10O2+
187.023	6	C11H3F2N+
187.0588	13	C9H8F3N+
188.0665	22	C9H9F3N+
190.0461	42	C11H6F2N+
191.0646	40	C12H9F2+
192.0702	6	C11[13]CH9F2+
196.0475	14	C11H7F3+
197.0566	6	C11H8F3+
198.0511	256	C10H7F3N+
199.0568	39	C9[13]CH7F3N+
199.0709	27	C6H10F3N2O2+
200.0671	999	C10H9F3N+
201.0707	129	C9[13]CH9F3N+
202.0479	7	C9H7F3NO+
204.0602	5	C12H8F2N+
206.0746	7	C12H11FO2+
209.0556	24	C12H8F3+
210.0625	17	C7H9F3N2O2+
211.0604	74	C11H8F3N+
212.0667	52	C11H9F3N+
213.0719	7	C10[13]CH9F3N+
214.0822	21	C11H11F3N+
224.0677	36	C12H9F3N+
225.0745	11	C12H10F3N+
226.0823	129	C12H11F3N+
227.0879	22	C11[13]CH11F3N+
228.098	98	C12H14F2O2+
229.101	18	C11[13]CH14F2O2+
230.077	8	C14H10F2N+
240.0987	11	C13H13F3N+
241.0848	8	C13H12F3O+
244.0931	60	C15H13FO2+
245.0939	10	C14[13]CH13FO2+
