Mass spectrum: Desloratadine; LC-ESI-QTOF; MS2; CE: 40 eV; R=35000; [M+H]+
Name: Desloratadine
Name: 13-chloro-2-piperidin-4-ylidene-4-azatricyclo[9.4.0.03,8]pentadeca-1(11),3(8),4,6,12,14-hexaene
Formula: C19H19ClN2
Exact mass: 310.1236763
SMILES: ClC1=CC2=C(C=C1)C(=C1CCNCC1)C1=C(CC2)C=CC=N1
InChI: InChI=1S/C19H19ClN2/c20-16-5-6-17-15(12-16)4-3-14-2-1-9-22-19(14)18(17)13-7-10-21-11-8-13/h1-2,5-6,9,12,21H,3-4,7-8,10-11H2
Instrument: Bruker maXis Impact
Instrument type: LC-ESI-QTOF
Ms type: MS2
Ion mode: POSITIVE
Ionization: ESI
Fragmentation mode: CID
Collision energy: 40 eV
Resolution: 35000
Column name: Acclaim RSLC C18 2.2um, 2.1x100mm, Thermo
Retention time: 7.297 min
Base peak: 311.1313
Precursor m/z: 311.131
Precursor type: [M+H]+
m/z	relative intensity	assigned
214.0404	12	C13H9ClN+
217.0871	7	C16H11N+
218.0949	11	C16H12N+
219.1021	6	C16H13N+
228.0565	9	C14H11ClN+
229.0638	8	C14H12ClN+
230.0953	18	C17H12N+
231.1031	45	C17H13N+
232.1103	29	C17H14N+
233.1165	8	C16[13]CH14N+
242.0953	9	C18H12N+
243.1035	97	C18H13N+
244.1107	92	C18H14N+
245.1165	26	C17[13]CH14N+
246.1263	22	C18H16N+
247.1342	25	C18H17N+
248.1373	5	C17[13]CH17N+
252.0567	34	C16H11ClN+
253.0641	51	C16H12ClN+
254.0654	10	C15[13]CH12ClN+
255.0617	15	C16H12[37]ClN+
256.1111	12	C19H14N+
257.1183	19	C19H15N+
258.1271	602	C19H16N+
259.1346	999	C19H17N+
260.138	155	C18[13]CH17N+
261.1413	8	C17[13]C2H17N+
264.0564	7	C17H11ClN+
265.0629	7	C17H12ClN+
266.0723	67	C17H13ClN+
267.08	190	C17H14ClN+
268.0817	30	C16[13]CH14ClN+
269.0773	47	C17H14[37]ClN+
277.0644	10	C18H12ClN+
278.0723	50	C18H13ClN+
279.0801	169	C18H14ClN+
280.0866	94	C18H15ClN+
281.0784	41	C18H14[37]ClN+
282.0837	19	C18H15[37]ClN+
282.1032	93	C18H17ClN+
283.106	18	C17[13]CH17ClN+
284.1009	25	C18H17[37]ClN+
292.0882	56	C19H15ClN+
293.0928	16	C18[13]CH15ClN+
294.1033	65	C19H17ClN+
295.1062	14	C18[13]CH17ClN+
296.1011	19	C19H17[37]ClN+
