Mass spectrum: 17-beta-Estradiol; LC-ESI-QTOF; MS2; CE: 40 eV; R=35000; [M+H]+
Name: 17-beta-Estradiol
Name: Estradiol
Name: (8R,9S,13S,14S,17S)-13-methyl-6,7,8,9,11,12,14,15,16,17-decahydrocyclopenta[a]phenanthrene-3,17-diol
Formula: C18H24O2
Exact mass: 272.1776300
SMILES: C[C@]12CC[C@H]3[C@@H](CCC4=CC(O)=CC=C34)[C@@H]1CC[C@@H]2O
InChI: InChI=1S/C18H24O2/c1-18-9-8-14-13-5-3-12(19)10-11(13)2-4-15(14)16(18)6-7-17(18)20/h3,5,10,14-17,19-20H,2,4,6-9H2,1H3/t14-,15-,16+,17+,18+/m1/s1
Instrument: Bruker maXis Impact
Instrument type: LC-ESI-QTOF
Ms type: MS2
Ion mode: POSITIVE
Ionization: ESI
Fragmentation mode: CID
Collision energy: 40 eV
Resolution: 35000
Column name: Acclaim RSLC C18 2.2um, 2.1x100mm, Thermo
Retention time: 12.051 min
Base peak: 370.2364
Precursor m/z: 273.1849
Precursor type: [M+H]+
m/z	relative intensity	assigned
129.0677	152	C10H9+
142.0762	83	C11H10+
143.0834	78	C11H11+
157.0626	90	C11H9O+
157.099	256	C12H13+
158.1035	56	C11[13]CH13+
171.1135	62	C13H15+
183.1137	75	C14H15+
185.0946	141	C13H13O+
197.1301	499	C15H17+
198.1375	158	C15H18+
211.1105	175	C15H15O+
212.1117	56	C14[13]CH15O+
212.155	444	C16H20+
213.1606	80	C15[13]CH20+
225.1259	999	C16H17O+
226.0438	281	C17H6O+
226.1304	220	C15[13]CH17O+
227.1803	103	C17H23+
228.0201	188	C16H4O2+
240.1504	322	C17H20O+
255.172	254	C18H23O+
256.1769	58	C17[13]CH23O+
