Mass spectrum: Bupropion; LC-ESI-QTOF; MS2; CE: 40 eV; R=35000; [M+H]+
Name: Bupropion
Name: 2-(tert-butylamino)-1-(3-chlorophenyl)propan-1-one
Formula: C13H18ClNO
Exact mass: 239.1076919
SMILES: CC(NC(C)(C)C)C(=O)C1=CC(Cl)=CC=C1
InChI: InChI=1S/C13H18ClNO/c1-9(15-13(2,3)4)12(16)10-6-5-7-11(14)8-10/h5-9,15H,1-4H3
Instrument: Bruker maXis Impact
Instrument type: LC-ESI-QTOF
Ms type: MS2
Ion mode: POSITIVE
Ionization: ESI
Fragmentation mode: CID
Collision energy: 40 eV
Resolution: 35000
Column name: Acclaim RSLC C18 2.2um, 2.1x100mm, Thermo
Retention time: 5.591 min
Base peak: 240.1148
Precursor m/z: 240.115
Precursor type: [M+H]+
m/z	relative intensity	assigned
130.0642	864	C9H8N+
131.0719	999	C9H9N+
132.0556	11	C9H8O+
132.0753	59	C8[13]CH9N+
138.9931	16	C7H4ClO+
139.0299	131	C8H8Cl+
140.0332	12	C7[13]CH8Cl+
140.9902	5	C7H4[37]ClO+
141.0268	39	C8H8[37]Cl+
151.017	33	C8H6ClN+
153.0142	9	C8H6[37]ClN+
166.0405	40	C9H9ClN+
167.0244	14	C9H8ClO+
168.0373	12	C9H9[37]ClN+
