Mass spectrum: Desloratadine; LC-ESI-QTOF; MS2; CE: 20 eV; R=35000; [M+H]+
Name: Desloratadine
Name: 13-chloro-2-piperidin-4-ylidene-4-azatricyclo[9.4.0.03,8]pentadeca-1(11),3(8),4,6,12,14-hexaene
Formula: C19H19ClN2
Exact mass: 310.1236763
SMILES: ClC1=CC2=C(C=C1)C(=C1CCNCC1)C1=C(CC2)C=CC=N1
InChI: InChI=1S/C19H19ClN2/c20-16-5-6-17-15(12-16)4-3-14-2-1-9-22-19(14)18(17)13-7-10-21-11-8-13/h1-2,5-6,9,12,21H,3-4,7-8,10-11H2
Instrument: Bruker maXis Impact
Instrument type: LC-ESI-QTOF
Ms type: MS2
Ion mode: POSITIVE
Ionization: ESI
Fragmentation mode: CID
Collision energy: 20 eV
Resolution: 35000
Column name: Acclaim RSLC C18 2.2um, 2.1x100mm, Thermo
Retention time: 7.273 min
Base peak: 311.1311
Precursor m/z: 311.131
Precursor type: [M+H]+
m/z	relative intensity	assigned
258.1273	63	C19H16N+
259.1355	999	C19H17N+
260.1386	212	C18[13]CH17N+
261.1417	10	C17[13]C2H17N+
267.0807	10	C17H14ClN+
268.0869	6	C17H15ClN+
279.0805	21	C18H14ClN+
280.0865	9	C18H15ClN+
281.08	5	C18H14[37]ClN+
281.0947	10	C18H16ClN+
282.1041	220	C18H17ClN+
283.1071	36	C17[13]CH17ClN+
284.1015	56	C18H17[37]ClN+
294.1043	465	C19H17ClN+
295.1075	79	C18[13]CH17ClN+
296.1017	111	C19H17[37]ClN+
309.1149	5	C19H18ClN2+
311.131	786	C19H20ClN2+
312.1342	142	C18[13]CH20ClN2+
313.1284	203	C19H20[37]ClN2+
