Mass spectrum: Isophorone diamine; LC-ESI-QTOF; MS2; CE: Ramp 17.0-25.4 eV; R=35000; [M+H]+
Name: Isophorone diamine
Name: 3-(aminomethyl)-3,5,5-trimethylcyclohexan-1-amine
Formula: C10H22N2
Exact mass: 170.17829870
SMILES: CC1(C)CC(N)CC(C)(CN)C1
InChI: InChI=1S/C10H22N2/c1-9(2)4-8(12)5-10(3,6-9)7-11/h8H,4-7,11-12H2,1-3H3
Instrument: Bruker maXis Impact
Instrument type: LC-ESI-QTOF
Ms type: MS2
Ion mode: POSITIVE
Ionization: ESI
Fragmentation mode: CID
Collision energy: Ramp 17.0-25.4 eV
Resolution: 35000
Column name: Acclaim RSLC C18 2.2um, 2.1x100mm, Thermo
Retention time: 1.795 min
Base peak: 171.1846
Precursor m/z: 171.1856
Precursor type: [M+H]+
m/z	relative intensity	assigned
81.0689	41	C6H9+
137.1315	568	C10H17+
154.1575	999	C10H20N+
155.1621	158	C9[13]CH20N+
171.1844	217	C10H23N2+
