Mass spectrum: Benzocaine; LC-ESI-QTOF; MS2; CE: 50 eV; R=35000; [M+H]+
Name: Benzocaine
Name: ethyl 4-aminobenzoate
Formula: C9H11NO2
Exact mass: 165.0789786
SMILES: CCOC(=O)C1=CC=C(N)C=C1
InChI: InChI=1S/C9H11NO2/c1-2-12-9(11)7-3-5-8(10)6-4-7/h3-6H,2,10H2,1H3
Instrument: Bruker maXis Impact
Instrument type: LC-ESI-QTOF
Ms type: MS2
Ion mode: POSITIVE
Ionization: ESI
Fragmentation mode: CID
Collision energy: 50 eV
Resolution: 35000
Column name: Acclaim RSLC C18 2.2um, 2.1x100mm, Thermo
Retention time: 6.275 min
Base peak: 265.1917
Precursor m/z: 166.0863
Precursor type: [M+H]+
m/z	relative intensity	assigned
120.0435	999	C7H6NO+
