Mass spectrum: 7-Hydroxymethotrexat; LC-ESI-QTOF; MS2; CE: 10 eV; R=35000; [M+H]+
Name: 7-Hydroxymethotrexat
Name: CID 100833
Name: (2S)-2-[[4-[(2,4-diamino-7-oxo-3H-pteridin-6-yl)methyl-methylamino]benzoyl]amino]pentanedioic acid
Formula: C20H22N8O6
Exact mass: 470.1662304
SMILES: CN(CC1=NC2=C(N=C(N)N=C2N)N=C1O)C1=CC=C(C=C1)C(=O)N[C@@H](CCC(O)=O)C(O)=O
InChI: InChI=1S/C20H22N8O6/c1-28(8-12-18(32)26-16-14(23-12)15(21)25-20(22)27-16)10-4-2-9(3-5-10)17(31)24-11(19(33)34)6-7-13(29)30/h2-5,11H,6-8H2,1H3,(H,24,31)(H,29,30)(H,33,34)(H5,21,22,25,26,27,32)/t11-/m0/s1
Instrument: Bruker maXis Impact
Instrument type: LC-ESI-QTOF
Ms type: MS2
Ion mode: POSITIVE
Ionization: ESI
Fragmentation mode: CID
Collision energy: 10 eV
Resolution: 35000
Column name: Acclaim RSLC C18 2.2um, 2.1x100mm, Thermo
Retention time: 4.690 min
Base peak: 336.1819
Precursor m/z: 471.1735
Precursor type: [M+H]+
m/z	relative intensity	assigned
191.0668	910	C6H11N2O5+
192.0687	82	C5[13]CH11N2O5+
298.1405	107	C14H16N7O+
324.1195	999	C14H18N3O6+
325.1234	161	C13[13]CH18N3O6+
471.1714	279	C20H23N8O6+
472.1764	95	C19[13]CH23N8O6+
