Mass spectrum: Methotrexate; LC-ESI-QTOF; MS2; CE: 40 eV; R=35000; [M+H]+
Name: Methotrexate
Name: (2S)-2-[[4-[(2,4-diaminopteridin-6-yl)methyl-methylamino]benzoyl]amino]pentanedioic acid
Formula: C20H22N8O5
Exact mass: 454.1713158
SMILES: CN(CC1=NC2=C(N=C1)N=C(N)N=C2N)C1=CC=C(C=C1)C(=O)N[C@@H](CCC(O)=O)C(O)=O
InChI: InChI=1S/C20H22N8O5/c1-28(9-11-8-23-17-15(24-11)16(21)26-20(22)27-17)12-4-2-10(3-5-12)18(31)25-13(19(32)33)6-7-14(29)30/h2-5,8,13H,6-7,9H2,1H3,(H,25,31)(H,29,30)(H,32,33)(H4,21,22,23,26,27)/t13-/m0/s1
Instrument: Bruker maXis Impact
Instrument type: LC-ESI-QTOF
Ms type: MS2
Ion mode: POSITIVE
Ionization: ESI
Fragmentation mode: CID
Collision energy: 40 eV
Resolution: 35000
Column name: Acclaim RSLC C18 2.2um, 2.1x100mm, Thermo
Retention time: 3.962 min
Base peak: 407.2202
Precursor m/z: 455.1786
Precursor type: [M+H]+
m/z	relative intensity	assigned
133.0495	31	C5H9O4+
134.0592	569	C8H8NO+
135.062	65	C7[13]CH8NO+
148.0619	9	C6H6N5+
160.0613	10	C7H6N5+
163.0716	6	C5H11N2O4+
175.0713	999	C9H9N3O+
176.0771	162	C8[13]CH9N3O+
177.0857	88	C6H13N2O4+
178.0904	7	C5[13]CH13N2O4+
292.0896	5	C11H12N6O4+
308.1246	494	C14H18N3O5+
309.128	110	C13[13]CH18N3O5+
310.1316	6	C12[13]C2H18N3O5+
