Mass spectrum: Ziprasidone; LC-ESI-QTOF; MS2; CE: 20 eV; R=35000; [M+H]+
Name: Ziprasidone
Name: 5-[2-[4-(1,2-benzothiazol-3-yl)piperazin-1-yl]ethyl]-6-chloro-1,3-dihydroindol-2-one
Formula: C21H21ClN4OS
Exact mass: 412.1124600
SMILES: ClC1=C(CCN2CCN(CC2)C2=NSC3=CC=CC=C23)C=C2CC(=O)NC2=C1
InChI: InChI=1S/C21H21ClN4OS/c22-17-13-18-15(12-20(27)23-18)11-14(17)5-6-25-7-9-26(10-8-25)21-16-3-1-2-4-19(16)28-24-21/h1-4,11,13H,5-10,12H2,(H,23,27)
Instrument: Bruker maXis Impact
Instrument type: LC-ESI-QTOF
Ms type: MS2
Ion mode: POSITIVE
Ionization: ESI
Fragmentation mode: CID
Collision energy: 20 eV
Resolution: 35000
Column name: Acclaim RSLC C18 2.2um, 2.1x100mm, Thermo
Retention time: 7.232 min
Base peak: 413.1191
Precursor m/z: 413.1197
Precursor type: [M+H]+
m/z	relative intensity	assigned
177.0465	24	C11H10Cl+
191.1163	13	C11H15N2O+
194.0355	118	C8H7ClN4+
195.0388	12	C7[13]CH7ClN4+
196.0326	37	C8H7[37]ClN4+
220.0898	7	C11H14N3S+
413.1196	999	C21H22ClN4OS+
414.1222	227	C20[13]CH22ClN4OS+
415.1167	299	C21H22[37]ClN4OS+
