Mass spectrum: Miconazole; LC-ESI-QTOF; MS2; CE: 50 eV; R=35000; [M+H]+
Name: Miconazole
Name: 1-[2-(2,4-dichlorophenyl)-2-[(2,4-dichlorophenyl)methoxy]ethyl]imidazole
Formula: C18H14Cl4N2O
Exact mass: 413.9860238
SMILES: ClC1=CC(Cl)=C(COC(CN2C=CN=C2)C2=C(Cl)C=C(Cl)C=C2)C=C1
InChI: InChI=1S/C18H14Cl4N2O/c19-13-2-1-12(16(21)7-13)10-25-18(9-24-6-5-23-11-24)15-4-3-14(20)8-17(15)22/h1-8,11,18H,9-10H2
Instrument: Bruker maXis Impact
Instrument type: LC-ESI-QTOF
Ms type: MS2
Ion mode: POSITIVE
Ionization: ESI
Fragmentation mode: CID
Collision energy: 50 eV
Resolution: 35000
Column name: Acclaim RSLC C18 2.2um, 2.1x100mm, Thermo
Retention time: 10.391 min
Base peak: 432.2379
Precursor m/z: 414.9933
Precursor type: [M+H]+
m/z	relative intensity	assigned
115.0513	60	Cl2H15NO+
117.0698	67	C9H9+
119.0851	999	C9H11+
120.088	147	C8[13]CH11+
133.064	62	C9H9O+
135.0805	232	C9H11O+
158.9737	55	C8ClN2+
