Mass spectrum: Raloxifene; LC-ESI-QTOF; MS2; CE: 50 eV; R=35000; [M+H]+
Name: Raloxifene
Name: [6-hydroxy-2-(4-hydroxyphenyl)-1-benzothiophen-3-yl]-[4-(2-piperidin-1-ylethoxy)phenyl]methanone
Formula: C28H27NO4S
Exact mass: 473.1660793
SMILES: OC1=CC=C(C=C1)C1=C(C(=O)C2=CC=C(OCCN3CCCCC3)C=C2)C2=C(S1)C=C(O)C=C2
InChI: InChI=1S/C28H27NO4S/c30-21-8-4-20(5-9-21)28-26(24-13-10-22(31)18-25(24)34-28)27(32)19-6-11-23(12-7-19)33-17-16-29-14-2-1-3-15-29/h4-13,18,30-31H,1-3,14-17H2
Instrument: Bruker maXis Impact
Instrument type: LC-ESI-QTOF
Ms type: MS2
Ion mode: POSITIVE
Ionization: ESI
Fragmentation mode: CID
Collision energy: 50 eV
Resolution: 35000
Column name: Acclaim RSLC C18 2.2um, 2.1x100mm, Thermo
Retention time: 6.439 min
Base peak: 474.173
Precursor m/z: 474.1734
Precursor type: [M+H]+
m/z	relative intensity	assigned
112.1118	141	C7H14N+
113.1144	23	C4H17O3+
121.0274	16	C7H5O2+
137.0044	7	C7H5OS+
147.0429	327	C9H7O2+
148.0468	28	C8[13]CH7O2+
176.0687	5	C10H10NO2+
176.9998	10	C9H5O2S+
197.0586	197	C13H9O2+
198.0623	29	C12[13]CH9O2+
213.0358	93	C16H5O+
214.0392	21	C15[13]CH5O+
215.0168	5	C12H7O2S+
224.0286	7	C14H8OS+
240.0222	10	C17H4O2+
241.0307	75	C17H5O2+
242.0332	13	C16[13]CH5O2+
251.0153	11	C15H7O2S+
252.0237	11	C15H8O2S+
253.0299	13	C18H5O2+
266.0381	7	C16H10O2S+
267.0451	6	C19H7O2+
268.0188	14	C15H8O3S+
269.0265	999	C15H9O3S+
270.0291	168	C14[13]CH9O3S+
271.0237	46	C15H9O3[34]S+
272.0303	6	C18H8OS+
277.0681	7	C18H13OS+
284.0821	6	C20H12O2+
287.0505	28	C22H7O+
288.0569	11	C22H8O+
289.0669	12	C19H13OS+
290.0389	7	C18H10O2S+
291.049	7	C18H11O2S+
295.0428	5	C17H11O3S+
299.0533	8	C20H11OS+
300.0583	10	C23H8O+
300.0768	10	C20H12O3+
301.082	6	C20H13O3+
303.0481	8	C19H11O2S+
304.0547	11	C19H12O2S+
305.063	62	C22H9O2+
306.0636	12	C21[13]CH9O2+
315.0453	9	C23H7O2+
316.0527	17	C23H8O2+
317.0591	26	C23H9O2+
318.0622	7	C22[13]CH9O2+
319.0412	26	C19H11O3S+
320.0465	6	C18[13]CH11O3S+
327.0479	9	C21H11O2S+
328.0546	10	C21H12O2S+
329.0827	8	C24H11NO+
332.0531	10	C23H10NS+
333.0582	70	C26H7N+
334.0603	18	C25[13]CH7N+
335.0626	6	C19H13NO3S+
343.0434	12	C21H11O3S+
343.0758	5	C25H11O2+
344.0517	14	C24H10NS+
345.0577	63	C27H7N+
346.0624	23	C26[13]CH7N+
360.0444	17	C27H6NO+
361.0524	93	C27H7NO+
362.0599	155	C24H10O4+
363.0609	48	C23[13]CH10O4+
364.0632	14	C20H14NO4S+
371.0683	5	C26H11O3+
374.0601	20	C22H14O4S+
375.0646	7	C21[13]CH14O4S+
376.036	13	C28H8S+
377.0463	11	C27H7NO2+
474.173	110	C28H28NO4S+
475.1762	44	C27[13]CH28NO4S+
