Mass spectrum: N-Formyl-4-aminoantipyrine; LC-ESI-QTOF; MS2; CE: 10 eV; R=35000; [M+H]+
Name: N-Formyl-4-aminoantipyrine
Name: 4-Formylaminoantipyrine
Name: N-(1,5-dimethyl-3-oxo-2-phenylpyrazol-4-yl)formamide
Formula: C12H13N3O2
Exact mass: 231.1007767
SMILES: CN1N(C(=O)C(NC=O)=C1C)C1=CC=CC=C1
InChI: InChI=1S/C12H13N3O2/c1-9-11(13-8-16)12(17)15(14(9)2)10-6-4-3-5-7-10/h3-8H,1-2H3,(H,13,16)
Instrument: Bruker maXis Impact
Instrument type: LC-ESI-QTOF
Ms type: MS2
Ion mode: POSITIVE
Ionization: ESI
Fragmentation mode: CID
Collision energy: 10 eV
Resolution: 35000
Column name: Acclaim RSLC C18 2.2um, 2.1x100mm, Thermo
Retention time: 4.029 min
Base peak: 232.1078
Precursor m/z: 232.1081
Precursor type: [M+H]+
m/z	relative intensity	assigned
159.0904	6	C10H11N2+
187.0858	9	C11H11N2O+
204.1126	157	C11H14N3O+
205.1152	16	C10[13]CH14N3O+
214.0971	209	C12H12N3O+
215.0998	22	C11[13]CH12N3O+
232.1082	999	C12H14N3O2+
233.1107	158	C11[13]CH14N3O2+
234.1129	12	C10[13]C2H14N3O2+
