Mass spectrum: Duloxetine; LC-ESI-QTOF; MS2; CE: 30 eV; R=35000; [M+H]+
Name: Duloxetine
Name: N-Methyl-gamma-(1-naphthalenyloxy)-2-thiophenepropanamine
Name: N-methyl-3-naphthalen-1-yloxy-3-thiophen-2-ylpropan-1-amine
Formula: C18H19NOS
Exact mass: 297.1187352
SMILES: CNCCC(OC1=C2C=CC=CC2=CC=C1)C1=CC=CS1
InChI: InChI=1S/C18H19NOS/c1-19-12-11-17(18-10-5-13-21-18)20-16-9-4-7-14-6-2-3-8-15(14)16/h2-10,13,17,19H,11-12H2,1H3
Instrument: Bruker maXis Impact
Instrument type: LC-ESI-QTOF
Ms type: MS2
Ion mode: POSITIVE
Ionization: ESI
Fragmentation mode: CID
Collision energy: 30 eV
Resolution: 35000
Column name: Acclaim RSLC C18 2.2um, 2.1x100mm, Thermo
Retention time: 7.883 min
Base peak: 298.1258
Precursor m/z: 298.126
Precursor type: [M+H]+
m/z	relative intensity	assigned
123.0259	641	C7H7S+
124.0333	999	C7H8S+
125.0372	111	C6[13]CH8S+
129.0675	159	C10H9+
153.0676	80	C12H9+
154.0671	103	C8H12NS+
155.0757	428	C8H13NS+
157.0636	565	C11H9O+
158.0665	69	C10[13]CH9O+
165.0682	114	C13H9+
183.0795	456	C13H11O+
184.0822	133	C9H14NOS+
221.0393	100	C18H5+
234.1027	68	C17H14O+
239.0515	229	C15H11OS+
