Mass spectrum: Cyclophosphamide; LC-ESI-QTOF; MS2; CE: 50 eV; R=35000; [M+H]+
Name: Cyclophosphamide
Name: N,N-bis(2-chloroethyl)-2-oxo-1,3,2lambda5-oxazaphosphinan-2-amine
Formula: C7H15Cl2N2O2P
Exact mass: 260.0248197
SMILES: ClCCN(CCCl)P1(=O)NCCCO1
InChI: InChI=1S/C7H15Cl2N2O2P/c8-2-5-11(6-3-9)14(12)10-4-1-7-13-14/h1-7H2,(H,10,12)
Instrument: Bruker maXis Impact
Instrument type: LC-ESI-QTOF
Ms type: MS2
Ion mode: POSITIVE
Ionization: ESI
Fragmentation mode: CID
Collision energy: 50 eV
Resolution: 35000
Column name: Acclaim RSLC C18 2.2um, 2.1x100mm, Thermo
Retention time: 6.188 min
Base peak: 278.191
Precursor m/z: 261.0321
Precursor type: [M+H]+
m/z	relative intensity	assigned
114.0082	22	C4H5NOP+
120.0209	106	C3H7NO2P+
123.9711	59	C6HClO+
127.9653	25	C5HClO2+
138.0307	63	C4H9ClNO2+
140.0016	999	C4H8Cl2N+
141.0054	62	C3[13]CH8Cl2N+
141.9804	286	C6H3ClO2+
141.999	605	C4H8Cl[37]ClN+
142.0178	197	C4H10Cl2N+
142.9999	20	C4H4N2O2P+
143.9775	61	C6H3[37]ClO2+
144.0149	119	C4H10Cl[37]ClN+
146.0391	31	C3H12Cl2N2+
147.0437	21	C5H10NO2P+
154.0383	30	C2H14Cl2NO2+
174.0337	47	C4H12Cl2N2O+
202.0268	31	C5H12Cl2N2O2+
