Mass spectrum: Fluvoxamine; LC-ESI-QTOF; MS2; CE: 10 eV; R=35000; [M+H]+
Name: Fluvoxamine
Name: (Z) Fluvoxamine
Name: 2-[[5-methoxy-1-[4-(trifluoromethyl)phenyl]pentylidene]amino]oxyethanamine
Formula: C15H21F3N2O2
Exact mass: 318.1555126
SMILES: COCCCCC(=NOCCN)C1=CC=C(C=C1)C(F)(F)F
InChI: InChI=1S/C15H21F3N2O2/c1-21-10-3-2-4-14(20-22-11-9-19)12-5-7-13(8-6-12)15(16,17)18/h5-8H,2-4,9-11,19H2,1H3
Instrument: Bruker maXis Impact
Instrument type: LC-ESI-QTOF
Ms type: MS2
Ion mode: POSITIVE
Ionization: ESI
Fragmentation mode: CID
Collision energy: 10 eV
Resolution: 35000
Column name: Acclaim RSLC C18 2.2um, 2.1x100mm, Thermo
Retention time: 8.103 min
Base peak: 319.1628
Precursor m/z: 319.1628
Precursor type: [M+H]+
m/z	relative intensity	assigned
200.0671	12	C10H9F3N+
226.0827	16	C12H11F3N+
228.0984	8	C12H13F3N+
258.1094	162	C13H15F3NO+
259.116	64	C13H16F3NO+
260.1244	54	C13H17F3NO+
261.1275	6	C12[13]CH17F3NO+
302.1349	5	C15H19F3NO2+
319.1627	999	C15H22F3N2O2+
320.1659	131	C14[13]CH22F3N2O2+
321.1682	10	C13[13]C2H22F3N2O2+
