Mass spectrum: 4-Hydroxytamoxifen; LC-ESI-QTOF; MS2; CE: 40 eV; R=35000; [M+H]+
Name: 4-Hydroxytamoxifen
Name: (Z)-4-(1-[4-(Dimethylaminoethoxy)phenyl]-2-phenyl-1-butenyl)phenol
Name: 4-[1-[4-[2-(dimethylamino)ethoxy]phenyl]-2-phenylbut-1-enyl]phenol
Formula: C26H29NO2
Exact mass: 387.2198292
SMILES: CCC(=C(C1=CC=C(O)C=C1)C1=CC=C(OCCN(C)C)C=C1)C1=CC=CC=C1
InChI: InChI=1S/C26H29NO2/c1-4-25(20-8-6-5-7-9-20)26(21-10-14-23(28)15-11-21)22-12-16-24(17-13-22)29-19-18-27(2)3/h5-17,28H,4,18-19H2,1-3H3
Instrument: Bruker maXis Impact
Instrument type: LC-ESI-QTOF
Ms type: MS2
Ion mode: POSITIVE
Ionization: ESI
Fragmentation mode: CID
Collision energy: 40 eV
Resolution: 35000
Column name: Acclaim RSLC C18 2.2um, 2.1x100mm, Thermo
Retention time: 9.103 min
Base peak: 388.2272
Precursor m/z: 388.2271
Precursor type: [M+H]+
m/z	relative intensity	assigned
115.0536	41	C9H7+
117.0693	42	C9H9+
118.072	7	C8[13]CH9+
119.0481	15	C8H7O+
121.0265	11	C7H5O2+
121.0636	93	C8H9O+
122.0668	10	C7[13]CH9O+
127.0528	67	C10H7+
128.0606	258	C10H8+
129.0687	999	C10H9+
130.0719	99	C9[13]CH9+
131.0481	51	C9H7O+
132.0541	10	C9H8O+
133.0639	32	C9H9O+
135.0801	7	C9H11O+
139.0546	8	C11H7+
141.0688	13	C11H9+
143.0841	20	C11H11+
144.0558	22	C10H8O+
145.0635	895	C10H9O+
146.0674	99	C9[13]CH9O+
147.0789	20	C10H11O+
149.0224	7	C11H3N+
152.0616	18	C12H8+
153.0684	28	C12H9+
154.0757	8	C12H10+
155.0842	21	C12H11+
157.0633	24	C11H9O+
159.0803	10	C11H11O+
164.0604	9	C13H8+
165.0685	427	C13H9+
166.0762	852	C13H10+
166.1212	185	C10H16NO+
167.0818	133	C12[13]CH10+
167.124	28	C9[13]CH16NO+
169.0626	22	C12H9O+
169.1004	7	C13H13+
170.0702	8	C12H10O+
171.0795	66	C12H11O+
172.0848	20	C12H12O+
177.0687	18	C14H9+
178.0756	71	C14H10+
179.0831	60	C14H11+
180.092	39	C14H12+
181.0634	46	C13H9O+
181.1003	37	C14H13+
182.0711	22	C13H10O+
183.0787	125	C13H11O+
184.0816	17	C12[13]CH11O+
185.0594	9	C12H9O2+
190.076	17	C15H10+
191.0848	41	C15H11+
192.0916	22	C15H12+
193.0994	87	C15H13+
194.0714	456	C14H10O+
195.0778	152	C14H11O+
195.1159	36	C15H15+
196.0812	29	C13[13]CH11O+
196.1202	14	C15H16+
197.0588	38	C13H9O2+
197.0947	21	C14H13O+
198.0665	19	C13H10O2+
199.0742	143	C13H11O2+
200.0768	18	C12[13]CH11O2+
202.0775	22	C16H10+
203.0831	36	C16H11+
204.0921	22	C16H12+
205.1001	47	C16H13+
206.0723	10	C15H10O+
206.1069	33	C16H14+
207.0795	363	C15H11O+
208.0864	256	C15H12O+
209.0941	205	C15H13O+
210.0664	86	C14H10O2+
210.0991	44	C14[13]CH13O+
211.0735	64	C14H11O2+
212.0776	11	C13[13]CH11O2+
213.0898	7	C14H13O2+
215.0845	19	C17H11+
216.0911	20	C17H12+
217.0992	12	C17H13+
219.0791	53	C16H11O+
220.0871	96	C16H12O+
221.0944	201	C16H13O+
221.1287	14	C17H17+
222.1026	337	C16H14O+
223.0741	151	C15H11O2+
223.1097	238	C16H15O+
224.0812	83	C15H12O2+
224.1133	36	C15[13]CH15O+
225.0892	128	C15H13O2+
226.0929	22	C14[13]CH13O2+
228.0934	9	C18H12+
229.0995	23	C18H13+
231.0811	44	C17H11O+
231.1153	18	C18H15+
232.0859	32	C17H12O+
232.1202	9	C18H16+
233.0924	22	C17H13O+
234.1038	79	C17H14O+
235.1082	33	C17H15O+
236.0815	7	C16H12O2+
236.1178	10	C16[13]CH15O+
237.0899	87	C16H13O2+
237.1247	8	C17H17O+
238.0971	100	C16H14O2+
239.0851	12	C19H11+
239.1028	21	C15[13]CH14O2+
240.0894	9	C19H12+
241.1007	19	C19H13+
242.1055	8	C19H14+
243.1153	10	C19H15+
244.0865	22	C18H12O+
244.1203	8	C19H16+
245.0944	43	C18H13O+
246.0993	12	C17[13]CH13O+
247.1097	24	C18H15O+
248.1171	11	C18H16O+
249.1268	38	C18H17O+
250.0962	16	C17H14O2+
250.1301	18	C18H18O+
251.0833	10	C20H11+
251.1041	7	C17H15O2+
252.092	15	C20H12+
252.1157	11	C17H16O2+
253.0997	39	C20H13+
254.1051	20	C20H14+
255.0815	12	C19H11O+
255.1166	11	C20H15+
256.0854	8	C19H12O+
257.0963	40	C19H13O+
258.1022	60	C19H14O+
259.11	60	C19H15O+
260.116	33	C19H16O+
261.1245	8	C18[13]CH16O+
265.0989	7	C21H13+
265.1203	10	C18H17O2+
267.1134	9	C21H15+
268.0845	17	C20H12O+
269.0961	105	C20H13O+
269.1302	11	C21H17+
270.1027	164	C20H14O+
271.109	84	C20H15O+
272.1169	37	C20H16O+
273.0877	24	C19H13O2+
273.1261	33	C20H17O+
274.0963	11	C19H14O2+
279.1177	8	C22H15+
281.0953	30	C21H13O+
282.1065	24	C21H14O+
283.1097	33	C21H15O+
284.1186	53	C21H16O+
285.0912	26	C20H13O2+
285.1238	28	C21H17O+
286.0978	104	C20H14O2+
286.1337	18	C21H18O+
287.1049	87	C20H15O2+
287.1428	41	C21H19O+
288.1123	23	C19[13]CH15O2+
289.1139	10	C19H15NO2+
295.1097	26	C22H15O+
296.1165	32	C22H16O+
297.1274	30	C22H17O+
298.1315	9	C21[13]CH17O+
299.1067	96	C21H15O2+
299.1414	58	C22H19O+
300.11	50	C21H16O2+
300.1464	14	C21[13]CH19O+
301.1212	427	C21H17O2+
302.1251	110	C20[13]CH17O2+
303.1297	10	C19[13]C2H17O2+
310.1346	10	C23H18O+
313.1199	26	C22H17O2+
314.1296	98	C22H18O2+
315.1364	105	C22H19O2+
316.1442	96	C22H20O2+
317.1486	22	C21[13]CH20O2+
325.1594	14	C24H21O+
328.1454	9	C23H20O2+
331.1309	11	C25H17N+
343.1684	27	C24H23O2+
388.2259	64	C26H30NO2+
389.2329	28	C25[13]CH30NO2+
