Mass spectrum: Finasteride; LC-ESI-QTOF; MS2; CE: 30 eV; R=35000; [M+H]+
Name: Finasteride
Name: (1S,3aS,3bS,5aR,9aR,9bS,11aS)-N-tert-butyl-9a,11a-dimethyl-7-oxo-1,2,3,3a,3b,4,5,5a,6,9b,10,11-dodecahydroindeno[5,4-f]quinoline-1-carboxamide
Formula: C23H36N2O2
Exact mass: 372.2776784
SMILES: CC(C)(C)NC(=O)[C@H]1CC[C@H]2[C@@H]3CC[C@H]4NC(=O)C=C[C@]4(C)[C@H]3CC[C@]12C
InChI: InChI=1S/C23H36N2O2/c1-21(2,3)25-20(27)17-8-7-15-14-6-9-18-23(5,13-11-19(26)24-18)16(14)10-12-22(15,17)4/h11,13-18H,6-10,12H2,1-5H3,(H,24,26)(H,25,27)/t14-,15-,16-,17+,18+,22-,23+/m0/s1
Instrument: Bruker maXis Impact
Instrument type: LC-ESI-QTOF
Ms type: MS2
Ion mode: POSITIVE
Ionization: ESI
Fragmentation mode: CID
Collision energy: 30 eV
Resolution: 35000
Column name: Acclaim RSLC C18 2.2um, 2.1x100mm, Thermo
Retention time: 9.923 min
Base peak: 373.2859
Precursor m/z: 373.285
Precursor type: [M+H]+
m/z	relative intensity	assigned
175.1472	6	C13H19+
255.1734	5	C18H23O+
305.2592	133	C19H33N2O+
306.2623	27	C18[13]CH33N2O+
317.2228	226	C19H29N2O2+
318.2262	40	C18[13]CH29N2O2+
373.2863	999	C23H37N2O2+
374.2888	303	C22[13]CH37N2O2+
375.2917	31	C21[13]C2H37N2O2+
