Mass spectrum: Montelukast; LC-ESI-QTOF; MS2; CE: 50 eV; R=35000; [M+H]+
Name: Montelukast
Name: UCHDWCPVSPXUMX-UHFFFAOYSA-N
Name: 2-[1-[[1-[3-[2-(7-chloroquinolin-2-yl)ethenyl]phenyl]-3-[2-(2-hydroxypropan-2-yl)phenyl]propyl]sulfanylmethyl]cyclopropyl]acetic acid
Formula: C35H36ClNO3S
Exact mass: 585.2104427
SMILES: CC(C)(O)C1=CC=CC=C1CCC(SCC1(CC(O)=O)CC1)C1=CC=CC(C=CC2=NC3=C(C=CC(Cl)=C3)C=C2)=C1
InChI: InChI=1S/C35H36ClNO3S/c1-34(2,40)30-9-4-3-7-25(30)13-17-32(41-23-35(18-19-35)22-33(38)39)27-8-5-6-24(20-27)10-15-29-16-12-26-11-14-28(36)21-31(26)37-29/h3-12,14-16,20-21,32,40H,13,17-19,22-23H2,1-2H3,(H,38,39)
Instrument: Bruker maXis Impact
Instrument type: LC-ESI-QTOF
Ms type: MS2
Ion mode: POSITIVE
Ionization: ESI
Fragmentation mode: CID
Collision energy: 50 eV
Resolution: 35000
Column name: Acclaim RSLC C18 2.2um, 2.1x100mm, Thermo
Retention time: 13.366 min
Base peak: 586.2174
Precursor m/z: 586.2177
Precursor type: [M+H]+
m/z	relative intensity	assigned
115.0536	13	C9H7+
116.0606	5	C3H13ClO2+
117.0693	10	C9H9+
128.0612	26	C10H8+
129.0689	53	C10H9+
130.0726	5	C9[13]CH9+
131.0849	271	C10H11+
132.0879	27	C9[13]CH11+
133.1003	20	C10H13+
141.0689	7	C11H9+
142.0768	26	C11H10+
143.0844	54	C11H11+
144.0877	6	C10[13]CH11+
157.1002	105	C6H18ClO2+
158.1036	10	C5[13]CH18ClO2+
164.0249	8	C12H4O+
177.0331	16	C13H5O+
230.1093	6	C18H14+
242.0956	30	C18H12N+
243.1039	54	C18H13N+
244.1072	9	C17[13]CH13N+
245.132	12	C19H17+
251.0488	5	C19H7O+
262.0413	11	C20H6O+
263.0484	9	C20H7O+
264.0559	8	C20H8O+
266.0726	18	C20H10O+
275.0493	5	C21H7O+
276.0573	214	C18H11ClN+
277.0638	118	C21H9O+
278.073	999	C18H13ClN+
279.077	179	C17[13]CH13ClN+
280.0705	220	C18H13[37]ClN+
281.075	31	C15H18ClOS+
282.0853	11	C15H19ClOS+
292.0886	190	C19H15ClN+
293.0918	41	C18[13]CH15ClN+
294.086	46	C19H15[37]ClN+
295.0888	6	C19H16ClO+
304.0889	11	C20H15ClN+
305.0955	20	C14H22ClO3S+
306.1024	18	C17H19ClO3+
307.0961	6	C14H22[37]ClO3S+
307.1059	5	C16[13]CH19ClO3+
316.0891	6	C15H21ClO3S+
318.1042	20	C21H17ClN+
319.106	5	C20[13]CH17ClN+
320.1023	6	C21H17[37]ClN+
380.1194	38	C29H16O+
381.1235	13	C28[13]CH16O+
382.1339	27	C26H21ClN+
383.138	8	C25[13]CH21ClN+
384.1326	7	C26H21[37]ClN+
398.1309	19	C26H21ClNO+
399.1343	5	C25[13]CH21ClNO+
400.1293	5	C26H21[37]ClNO+
422.1674	295	C29H25ClN+
423.1705	90	C28[13]CH25ClN+
424.1651	83	C29H25[37]ClN+
425.1678	15	C29H26ClO+
440.1775	47	C29H27ClNO+
441.1808	17	C28[13]CH27ClNO+
442.1752	15	C29H27[37]ClNO+
456.1556	12	C29H27ClNS+
