Mass spectrum: Anastrozole; LC-ESI-QTOF; MS2; CE: 30 eV; R=35000; [M+H]+
Name: Anastrozole
Name: 2-[3-(2-cyanopropan-2-yl)-5-(1,2,4-triazol-1-ylmethyl)phenyl]-2-methylpropanenitrile
Formula: C17H19N5
Exact mass: 293.1640456
SMILES: CC(C)(C#N)C1=CC(=CC(CN2C=NC=N2)=C1)C(C)(C)C#N
InChI: InChI=1S/C17H19N5/c1-16(2,9-18)14-5-13(8-22-12-20-11-21-22)6-15(7-14)17(3,4)10-19/h5-7,11-12H,8H2,1-4H3
Instrument: Bruker maXis Impact
Instrument type: LC-ESI-QTOF
Ms type: MS2
Ion mode: POSITIVE
Ionization: ESI
Fragmentation mode: CID
Collision energy: 30 eV
Resolution: 35000
Column name: Acclaim RSLC C18 2.2um, 2.1x100mm, Thermo
Retention time: 4.923 min
Base peak: 294.1602
Precursor m/z: 294.1713
Precursor type: [M+H]+
m/z	relative intensity	assigned
143.0717	7	C10H9N+
167.0712	12	C12H9N+
168.079	13	C12H10N+
169.0871	31	C12H11N+
170.0954	999	C12H12N+
171.0665	14	C9H7N4+
171.0986	126	C11[13]CH12N+
182.095	37	C13H12N+
183.0997	6	C12[13]CH12N+
184.111	714	C13H14N+
185.1143	91	C12[13]CH14N+
212.1061	196	C12H12N4+
213.1091	27	C11[13]CH12N4+
