Mass spectrum: Desloratadine; LC-ESI-QTOF; MS2; CE: 10 eV; R=35000; [M+H]+
Name: Desloratadine
Name: 13-chloro-2-piperidin-4-ylidene-4-azatricyclo[9.4.0.03,8]pentadeca-1(11),3(8),4,6,12,14-hexaene
Formula: C19H19ClN2
Exact mass: 310.1236763
SMILES: ClC1=CC2=C(C=C1)C(=C1CCNCC1)C1=C(CC2)C=CC=N1
InChI: InChI=1S/C19H19ClN2/c20-16-5-6-17-15(12-16)4-3-14-2-1-9-22-19(14)18(17)13-7-10-21-11-8-13/h1-2,5-6,9,12,21H,3-4,7-8,10-11H2
Instrument: Bruker maXis Impact
Instrument type: LC-ESI-QTOF
Ms type: MS2
Ion mode: POSITIVE
Ionization: ESI
Fragmentation mode: CID
Collision energy: 10 eV
Resolution: 35000
Column name: Acclaim RSLC C18 2.2um, 2.1x100mm, Thermo
Retention time: 7.290 min
Base peak: 311.1315
Precursor m/z: 311.131
Precursor type: [M+H]+
m/z	relative intensity	assigned
258.1273	6	C19H16N+
259.1357	66	C19H17N+
260.1389	12	C18[13]CH17N+
282.1045	10	C18H17ClN+
294.1049	24	C19H17ClN+
296.102	7	C19H17[37]ClN+
311.1326	999	C19H20ClN2+
313.129	520	C19H20[37]ClN2+
