Mass spectrum: Montelukast; LC-ESI-QTOF; MS2; CE: 10 eV; R=35000; [M+H]+
Name: Montelukast
Name: UCHDWCPVSPXUMX-UHFFFAOYSA-N
Name: 2-[1-[[1-[3-[2-(7-chloroquinolin-2-yl)ethenyl]phenyl]-3-[2-(2-hydroxypropan-2-yl)phenyl]propyl]sulfanylmethyl]cyclopropyl]acetic acid
Formula: C35H36ClNO3S
Exact mass: 585.2104427
SMILES: CC(C)(O)C1=CC=CC=C1CCC(SCC1(CC(O)=O)CC1)C1=CC=CC(C=CC2=NC3=C(C=CC(Cl)=C3)C=C2)=C1
InChI: InChI=1S/C35H36ClNO3S/c1-34(2,40)30-9-4-3-7-25(30)13-17-32(41-23-35(18-19-35)22-33(38)39)27-8-5-6-24(20-27)10-15-29-16-12-26-11-14-28(36)21-31(26)37-29/h3-12,14-16,20-21,32,40H,13,17-19,22-23H2,1-2H3,(H,38,39)
Instrument: Bruker maXis Impact
Instrument type: LC-ESI-QTOF
Ms type: MS2
Ion mode: POSITIVE
Ionization: ESI
Fragmentation mode: CID
Collision energy: 10 eV
Resolution: 35000
Column name: Acclaim RSLC C18 2.2um, 2.1x100mm, Thermo
Retention time: 13.371 min
Base peak: 586.2177
Precursor m/z: 586.2177
Precursor type: [M+H]+
m/z	relative intensity	assigned
422.1662	9	C32H22O+
440.176	5	C32H24O2+
568.2076	69	C35H35ClNO2S+
569.2123	21	C34[13]CH35ClNO2S+
570.2065	21	C35H35[37]ClNO2S+
586.2187	999	C35H37ClNO3S+
587.222	348	C34[13]CH37ClNO3S+
588.2169	323	C35H37[37]ClNO3S+
