Mass spectrum: Fluvoxamine; LC-ESI-QTOF; MS2; CE: 30 eV; R=35000; [M+H]+
Name: Fluvoxamine
Name: (Z) Fluvoxamine
Name: 2-[[5-methoxy-1-[4-(trifluoromethyl)phenyl]pentylidene]amino]oxyethanamine
Formula: C15H21F3N2O2
Exact mass: 318.1555126
SMILES: COCCCCC(=NOCCN)C1=CC=C(C=C1)C(F)(F)F
InChI: InChI=1S/C15H21F3N2O2/c1-21-10-3-2-4-14(20-22-11-9-19)12-5-7-13(8-6-12)15(16,17)18/h5-8H,2-4,9-11,19H2,1H3
Instrument: Bruker maXis Impact
Instrument type: LC-ESI-QTOF
Ms type: MS2
Ion mode: POSITIVE
Ionization: ESI
Fragmentation mode: CID
Collision energy: 30 eV
Resolution: 35000
Column name: Acclaim RSLC C18 2.2um, 2.1x100mm, Thermo
Retention time: 8.084 min
Base peak: 319.1628
Precursor m/z: 319.1628
Precursor type: [M+H]+
m/z	relative intensity	assigned
130.064	67	C9H8N+
131.0717	103	C9H9N+
132.0783	18	C9H10N+
142.0759	5	C11H10+
145.025	12	C7H4F3+
153.0508	6	C9H7F2+
157.087	11	C11H11N+
158.0952	18	C11H12N+
159.0401	25	C8H6F3+
165.0496	11	C10H7F2+
171.0409	15	C9H6F3+
172.0354	108	C8H6F2O2+
173.0365	9	C7[13]CH6F2O2+
173.095	6	C12H13O+
174.0519	21	C8H7F3N+
179.0649	10	C11H9F2+
180.0608	124	C10H8F2N+
181.0646	14	C9[13]CH8F2N+
183.0408	22	C10H6F3+
184.0467	9	C5H7F3N2O2+
185.0553	29	C10H8F3+
186.0514	20	C9H7F3N+
186.069	6	C12H10O2+
187.0583	8	C9H9F2O2+
188.067	9	C9H9F3N+
190.0471	13	C8H7F3NO+
191.0659	17	C12H9F2+
198.0517	92	C10H7F3N+
199.0579	29	C10H9F2O2+
199.0702	21	C6H10F3N2O2+
200.0673	999	C12H10NO2+
201.0701	128	C11[13]CH10NO2+
202.0467	10	C12H6F2N+
202.0744	6	C10[13]C2H10NO2+
206.0771	6	C12H10F2N+
209.0569	16	C12H8F3+
210.0636	16	C12H9F3+
211.0596	27	C11H8F3N+
212.0669	26	C13H10NO2+
213.0737	5	C12[13]CH10NO2+
214.0824	24	C11H11F3N+
224.0668	37	C14H10NO2+
225.0739	8	C13[13]CH10NO2+
226.0824	204	C12H11F3N+
227.0669	5	C15H9F2+
227.0887	44	C11[13]CH11F3N+
228.0988	246	C12H13F3N+
229.1018	35	C11[13]CH13F3N+
230.0782	11	C11H11F3NO+
240.099	18	C13H13F3N+
241.0828	5	C13H12F3O+
242.0899	24	C13H13F3O+
244.093	181	C15H12F2N+
245.0964	26	C14[13]CH12F2N+
258.1088	14	C13H15F3NO+
259.1172	10	C13H16F3NO+
260.1238	11	C13H17F3NO+
272.1258	9	C14H17F3NO+
302.1372	7	C15H19F3NO2+
