Mass spectrum: Azelastine; LC-ESI-QTOF; MS2; CE: 10 eV; R=35000; [M+H]+
Name: Azelastine
Name: 4-[(4-chlorophenyl)methyl]-2-(1-methylazepan-4-yl)phthalazin-1-one
Formula: C22H24ClN3O
Exact mass: 381.1607901
SMILES: CN1CCCC(CC1)N1N=C(CC2=CC=C(Cl)C=C2)C2=CC=CC=C2C1=O
InChI: InChI=1S/C22H24ClN3O/c1-25-13-4-5-18(12-14-25)26-22(27)20-7-3-2-6-19(20)21(24-26)15-16-8-10-17(23)11-9-16/h2-3,6-11,18H,4-5,12-15H2,1H3
Instrument: Bruker maXis Impact
Instrument type: LC-ESI-QTOF
Ms type: MS2
Ion mode: POSITIVE
Ionization: ESI
Fragmentation mode: CID
Collision energy: 10 eV
Resolution: 35000
Column name: Acclaim RSLC C18 2.2um, 2.1x100mm, Thermo
Retention time: 7.450 min
Base peak: 382.1682
Precursor m/z: 382.1681
Precursor type: [M+H]+
m/z	relative intensity	assigned
382.168	999	C22H25ClN3O+
383.1704	236	C21[13]CH25ClN3O+
384.1649	281	C22H25[37]ClN3O+
