Mass spectrum: Labetalol; LC-ESI-QTOF; MS2; CE: 10 eV; R=35000; [M+H]+
Name: Labetalol
Name: 2-hydroxy-5-[1-hydroxy-2-(4-phenylbutan-2-ylamino)ethyl]benzamide
Formula: C19H24N2O3
Exact mass: 328.1786926
SMILES: CC(CCC1=CC=CC=C1)NCC(O)C1=CC(C(N)=O)=C(O)C=C1
InChI: InChI=1S/C19H24N2O3/c1-13(7-8-14-5-3-2-4-6-14)21-12-18(23)15-9-10-17(22)16(11-15)19(20)24/h2-6,9-11,13,18,21-23H,7-8,12H2,1H3,(H2,20,24)
Instrument: Bruker maXis Impact
Instrument type: LC-ESI-QTOF
Ms type: MS2
Ion mode: POSITIVE
Ionization: ESI
Fragmentation mode: CID
Collision energy: 10 eV
Resolution: 35000
Column name: Acclaim RSLC C18 2.2um, 2.1x100mm, Thermo
Retention time: 5.594 min
Base peak: 411.2194
Precursor m/z: 329.186
Precursor type: [M+H]+
m/z	relative intensity	assigned
162.0531	6	C9H8NO2+
179.0806	7	C9H11N2O2+
207.112	18	C11H15N2O2+
294.1496	11	C19H20NO2+
311.1756	537	C19H23N2O2+
312.1783	107	C18[13]CH23N2O2+
313.1802	12	C17[13]C2H23N2O2+
329.1858	999	C19H25N2O3+
330.1892	223	C18[13]CH25N2O3+
331.1917	28	C17[13]C2H25N2O3+
