Mass spectrum: Enalapril; LC-ESI-QTOF; MS2; CE: 50 eV; R=35000; [M+H]+
Name: Enalapril
Name: (2S)-1-[(2S)-2-[[(2S)-1-ethoxy-1-oxo-4-phenylbutan-2-yl]amino]propanoyl]pyrrolidine-2-carboxylic acid
Formula: C20H28N2O5
Exact mass: 376.1998220
SMILES: CCOC(=O)[C@H](CCC1=CC=CC=C1)N[C@@H](C)C(=O)N1CCC[C@H]1C(O)=O
InChI: InChI=1S/C20H28N2O5/c1-3-27-20(26)16(12-11-15-8-5-4-6-9-15)21-14(2)18(23)22-13-7-10-17(22)19(24)25/h4-6,8-9,14,16-17,21H,3,7,10-13H2,1-2H3,(H,24,25)/t14-,16-,17-/m0/s1
Instrument: Bruker maXis Impact
Instrument type: LC-ESI-QTOF
Ms type: MS2
Ion mode: POSITIVE
Ionization: ESI
Fragmentation mode: CID
Collision energy: 50 eV
Resolution: 35000
Column name: Acclaim RSLC C18 2.2um, 2.1x100mm, Thermo
Retention time: 6.827 min
Base peak: 377.2066
Precursor m/z: 377.2071
Precursor type: [M+H]+
m/z	relative intensity	assigned
115.0535	354	C9H7+
116.0598	39	C8[13]CH7+
117.069	999	C9H9+
118.0721	121	C8[13]CH9+
128.0605	33	C10H8+
130.0854	341	C6H12NO2+
131.0877	35	C10H11+
134.0954	253	C6H14O3+
135.0986	17	C5[13]CH14O3+
142.0854	18	C7H12NO2+
143.0851	42	C11H11+
144.0803	18	C10H10N+
160.1106	767	C11H14N+
161.114	114	C10[13]CH14N+
206.1148	53	C9H18O5+
232.1333	20	C14H18NO2+
234.1476	105	C11H22O5+
235.1496	16	C10[13]CH22O5+
