Mass spectrum: Tamoxifen; LC-ESI-QTOF; MS2; CE: 40 eV; R=35000; [M+H]+
Name: Tamoxifen
Name: 2-[4-[(Z)-1,2-diphenylbut-1-enyl]phenoxy]-N,N-dimethylethanamine
Formula: C26H29NO
Exact mass: 371.2249145
SMILES: CC\C(=C(/C1=CC=CC=C1)C1=CC=C(OCCN(C)C)C=C1)C1=CC=CC=C1
InChI: InChI=1S/C26H29NO/c1-4-25(21-11-7-5-8-12-21)26(22-13-9-6-10-14-22)23-15-17-24(18-16-23)28-20-19-27(2)3/h5-18H,4,19-20H2,1-3H3/b26-25-
Instrument: Bruker maXis Impact
Instrument type: LC-ESI-QTOF
Ms type: MS2
Ion mode: POSITIVE
Ionization: ESI
Fragmentation mode: CID
Collision energy: 40 eV
Resolution: 35000
Column name: Acclaim RSLC C18 2.2um, 2.1x100mm, Thermo
Retention time: 10.708 min
Base peak: 372.2322
Precursor m/z: 372.2322
Precursor type: [M+H]+
m/z	relative intensity	assigned
115.053	37	C9H7+
117.0689	9	C9H9+
121.0654	10	C8H9O+
127.0531	28	C10H7+
128.0609	291	C10H8+
129.0685	999	C10H9+
130.0722	112	C9[13]CH9+
131.0476	20	C9H7O+
133.0625	13	C9H9O+
141.0677	33	C11H9+
142.0768	8	C11H10+
143.0845	23	C11H11+
145.0637	34	C10H9O+
147.0797	19	C10H11O+
149.0953	7	C10H13O+
152.061	23	C12H8+
153.0677	23	C12H9+
154.0779	12	C12H10+
155.084	28	C12H11+
157.0621	10	C11H9O+
165.0682	85	C13H9+
166.0754	39	C13H10+
167.0839	141	C13H11+
168.0864	14	C12[13]CH11+
169.0983	10	C13H13+
171.0795	29	C12H11O+
174.0907	20	C11H12NO+
177.068	16	C14H9+
178.0762	454	C14H10+
179.0826	196	C14H11+
181.0625	17	C13H9O+
181.0983	29	C14H13+
183.0793	76	C13H11O+
189.0686	17	C15H9+
190.0755	20	C15H10+
191.0841	162	C15H11+
192.0914	117	C15H12+
193.0996	294	C15H13+
194.0714	76	C14H10O+
194.1031	50	C14[13]CH13+
195.0786	53	C14H11O+
195.1145	11	C15H15+
196.0839	10	C13[13]CH11O+
202.0786	29	C16H10+
203.0832	71	C16H11+
204.0916	61	C16H12+
205.0995	125	C16H13+
206.1075	140	C16H14+
207.079	210	C15H11O+
207.1141	73	C16H15+
208.0852	72	C15H12O+
208.119	11	C15[13]CH15+
209.0944	145	C15H13O+
210.0972	26	C14[13]CH13O+
215.0842	59	C17H11+
216.0914	61	C17H12+
217.0996	29	C17H13+
218.1089	15	C17H14+
219.0779	18	C16H11O+
219.1158	14	C17H15+
220.0863	51	C16H12O+
221.0947	179	C16H13O+
221.1319	9	C17H17+
222.1018	94	C16H14O+
222.1381	7	C17H18+
223.108	33	C16H15O+
228.092	57	C18H12+
229.0982	54	C18H13+
230.1063	16	C18H14+
231.1121	21	C18H15+
232.1269	8	C18H16+
234.1021	70	C17H14O+
235.1079	22	C17H15O+
236.1183	19	C17H16O+
239.0847	31	C19H11+
240.0916	50	C19H12+
241.1004	58	C19H13+
242.1069	65	C19H14+
243.1156	111	C19H15+
244.1208	26	C18[13]CH15+
245.1286	13	C19H17+
246.1324	7	C18H16N+
249.1251	26	C18H17O+
250.1276	7	C17[13]CH17O+
252.0932	21	C20H12+
253.1	137	C20H13+
254.1071	228	C20H14+
255.1139	140	C20H15+
256.1234	44	C19[13]CH15+
257.0966	33	C19H13O+
257.1299	36	C20H17+
258.0991	11	C18[13]CH13O+
265.1005	32	C21H13+
266.1074	30	C21H14+
267.1153	43	C21H15+
268.1234	28	C21H16+
269.0931	22	C20H13O+
269.1321	25	C21H17+
270.1023	64	C20H14O+
270.1383	23	C21H18+
271.1089	65	C20H15O+
271.1465	29	C21H19+
272.1129	21	C19[13]CH15O+
278.1053	9	C22H14+
279.1161	32	C22H15+
280.1211	26	C22H16+
281.1305	31	C22H17+
282.1344	9	C21[13]CH17+
283.1096	100	C21H15O+
283.1449	11	C22H19+
284.1155	37	C21H16O+
284.1482	9	C21H18N+
285.1259	177	C21H17O+
286.1302	36	C20[13]CH17O+
294.1387	12	C23H18+
297.1253	25	C22H17O+
298.1335	79	C22H18O+
299.1406	52	C22H19O+
300.1485	58	C22H20O+
309.1667	16	C24H21+
317.2217	14	C24H29+
327.1708	19	C24H23O+
328.1828	8	C24H24O+
372.2324	46	C26H30NO+
373.2354	17	C25[13]CH30NO+
