Mass spectrum: Azelastine; LC-ESI-QTOF; MS2; CE: 30 eV; R=35000; [M+H]+
Name: Azelastine
Name: 4-[(4-chlorophenyl)methyl]-2-(1-methylazepan-4-yl)phthalazin-1-one
Formula: C22H24ClN3O
Exact mass: 381.1607901
SMILES: CN1CCCC(CC1)N1N=C(CC2=CC=C(Cl)C=C2)C2=CC=CC=C2C1=O
InChI: InChI=1S/C22H24ClN3O/c1-25-13-4-5-18(12-14-25)26-22(27)20-7-3-2-6-19(20)21(24-26)15-16-8-10-17(23)11-9-16/h2-3,6-11,18H,4-5,12-15H2,1H3
Instrument: Bruker maXis Impact
Instrument type: LC-ESI-QTOF
Ms type: MS2
Ion mode: POSITIVE
Ionization: ESI
Fragmentation mode: CID
Collision energy: 30 eV
Resolution: 35000
Column name: Acclaim RSLC C18 2.2um, 2.1x100mm, Thermo
Retention time: 7.482 min
Base peak: 382.1681
Precursor m/z: 382.1681
Precursor type: [M+H]+
m/z	relative intensity	assigned
112.1117	332	C7H14N+
113.1151	34	C6[13]CH14N+
152.0216	9	C9H2N3+
159.0538	17	C9H7N2O+
266.0905	70	C18H15Cl+
267.0942	8	C17[13]CH15Cl+
271.0626	239	C15H12ClN2O+
272.0661	42	C14[13]CH12ClN2O+
273.0598	77	C15H12[37]ClN2O+
274.0616	8	C21H8N+
283.0616	13	C16H12ClN2O+
309.0791	27	C18H14ClN2O+
310.0823	7	C17[13]CH14ClN2O+
311.0766	8	C18H14[37]ClN2O+
351.1255	160	C21H20ClN2O+
352.1282	38	C20[13]CH20ClN2O+
353.1237	45	C21H20[37]ClN2O+
382.1683	999	C22H25ClN3O+
383.171	221	C21[13]CH25ClN3O+
384.1659	287	C22H25[37]ClN3O+
