Mass spectrum: 4-Fluorobenzoylpropionic acid; LC-ESI-QTOF; MS2; CE: Ramp 17.9-26.8 eV; R=35000; [M+H]+
Name: 4-Fluorobenzoylpropionic acid
Name: 3-(4-Fluorobenzoyl)propionic acid
Name: 4-(4-fluorophenyl)-4-oxobutanoic acid
Formula: C10H9FO3
Exact mass: 196.0535724
SMILES: OC(=O)CCC(=O)C1=CC=C(F)C=C1
InChI: InChI=1S/C10H9FO3/c11-8-3-1-7(2-4-8)9(12)5-6-10(13)14/h1-4H,5-6H2,(H,13,14)
Instrument: Bruker maXis Impact
Instrument type: LC-ESI-QTOF
Ms type: MS2
Ion mode: POSITIVE
Ionization: ESI
Fragmentation mode: CID
Collision energy: Ramp 17.9-26.8 eV
Resolution: 35000
Column name: Acclaim RSLC C18 2.2um, 2.1x100mm, Thermo
Retention time: 6.097 min
Base peak: 197.0603
Precursor m/z: 197.0608
Precursor type: [M+H]+
m/z	relative intensity	assigned
115.0527	17	C9H7+
121.0442	29	C8H6F+
123.0235	999	C10H3+
124.0267	57	C9[13]CH3+
133.0438	169	C9H6F+
134.0466	14	C8[13]CH6F+
135.0589	37	C9H8F+
136.0182	12	C7H4O3+
151.0544	698	C9H8FO+
152.0581	55	C8[13]CH8FO+
161.0383	10	C10H6FO+
179.0493	869	C10H8FO2+
180.053	76	C9[13]CH8FO2+
