Mass spectrum: Mometasone fuorate; LC-ESI-QTOF; MS2; CE: 20 eV; R=35000; [M+H]+
Name: Mometasone fuorate
Name: Mometasone furoate
Name: [(8S,9R,10S,11S,13S,14S,16R,17R)-9-chloro-17-(2-chloroacetyl)-11-hydroxy-10,13,16-trimethyl-3-oxo-6,7,8,11,12,14,15,16-octahydrocyclopenta[a]phenanthren-17-yl] furan-2-carboxylate
Formula: C27H30Cl2O6
Exact mass: 520.1419440
SMILES: C[C@@H]1C[C@H]2[C@@H]3CCC4=CC(=O)C=C[C@]4(C)[C@@]3(Cl)[C@@H](O)C[C@]2(C)[C@@]1(OC(=O)C1=CC=CO1)C(=O)CCl
InChI: InChI=1S/C27H30Cl2O6/c1-15-11-19-18-7-6-16-12-17(30)8-9-24(16,2)26(18,29)21(31)13-25(19,3)27(15,22(32)14-28)35-23(33)20-5-4-10-34-20/h4-5,8-10,12,15,18-19,21,31H,6-7,11,13-14H2,1-3H3/t15-,18+,19+,21+,24+,25+,26+,27+/m1/s1
Instrument: Bruker maXis Impact
Instrument type: LC-ESI-QTOF
Ms type: MS2
Ion mode: POSITIVE
Ionization: ESI
Fragmentation mode: CID
Collision energy: 20 eV
Resolution: 35000
Column name: Acclaim RSLC C18 2.2um, 2.1x100mm, Thermo
Retention time: 10.647 min
Base peak: 467.1992
Precursor m/z: 521.1492
Precursor type: [M+H]+
m/z	relative intensity	assigned
119.0854	10	C9H11+
121.0642	22	C8H9O+
121.1003	5	C9H13+
133.041	45	Cl2H15O3+
133.1004	14	C10H13+
135.0364	10	H15Cl[37]ClO3+
135.0793	118	C9H11O+
136.0814	10	C8[13]CH11O+
145.0405	8	C7H10ClO+
147.079	148	C10H11O+
148.0831	17	C9[13]CH11O+
149.0932	5	C4H18ClO3+
155.0613	8	C9H12Cl+
157.0383	8	C2H15Cl2O3+
157.1001	5	C6H18ClO2+
159.0792	16	C5H16ClO3+
161.0579	9	C4H14ClO4+
161.0957	28	C11H13O+
163.0733	7	C4H16ClO4+
167.061	7	C4H17Cl2O2+
169.04	6	C3H15Cl2O3+
169.0643	6	C12H9O+
169.0764	8	C4H19Cl2O2+
171.0564	60	C9H12ClO+
171.0792	110	C12H11O+
172.0599	11	C3H18Cl2O3+
172.0835	9	C11[13]CH11O+
173.0535	15	C9H12[37]ClO+
173.0948	76	C12H13O+
174.0985	10	C11[13]CH13O+
175.1123	5	C12H15O+
177.0904	7	C11H13O2+
179.0606	5	C5H17Cl2O2+
181.0388	5	C4H15Cl2O3+
183.0558	19	C10H12ClO+
183.0799	6	C13H11O+
185.0565	7	C10H12[37]ClO+
185.0725	26	C10H14ClO+
185.0955	117	C13H13O+
186.0711	5	C12H10O2+
186.1001	10	C12[13]CH13O+
187.0498	28	C3H17Cl2O4+
187.0744	61	C12H11O2+
187.1104	17	C7H20ClO3+
188.0799	6	C11[13]CH11O2+
189.0899	6	C12H13O2+
191.0614	21	C12H12Cl+
193.0588	7	C12H12[37]Cl+
193.0762	10	C6H19Cl2O2+
195.0555	13	C5H17Cl2O3+
195.0735	5	C6H19Cl[37]ClO2+
197.0725	18	C11H14ClO+
197.0958	11	C14H13O+
199.0753	14	C13H11O2+
199.1089	6	C8H20ClO3+
203.1081	8	C13H15O2+
205.0771	7	C7H19Cl2O2+
207.0559	13	C6H17Cl2O3+
207.0752	5	C7H19Cl[37]ClO2+
209.0705	8	C6H19Cl2O3+
209.0967	9	C15H13O+
210.0998	5	C3H24Cl2O5+
211.1094	11	C9H20ClO3+
213.068	11	C11H14ClO2+
213.0914	6	C14H13O2+
213.1259	8	C9H22ClO3+
219.0575	5	C13H12ClO+
221.0723	8	C13H14ClO+
221.0946	11	C10H18ClO3+
223.1104	48	C10H20ClO3+
224.119	14	C16H16O+
225.1249	11	C10H22ClO3+
227.107	5	C15H15O2+
227.1418	5	C10H24ClO3+
229.0787	5	C15H14Cl+
231.0328	14	C11H13Cl2O+
233.028	6	C11H13Cl[37]ClO+
233.0718	9	C14H14ClO+
233.0939	5	C11H18ClO3+
235.1104	12	C11H20ClO3+
235.1479	5	C18H19+
237.1267	68	C17H17O+
238.1308	11	C16[13]CH17O+
239.1413	26	C11H24ClO3+
241.0851	15	C15H13O3+
241.1227	12	C16H17O2+
241.1573	17	C11H26ClO3+
242.1255	5	C4H28Cl2O6+
247.0528	7	C14H12ClO2+
247.0883	18	C15H16ClO+
248.1189	8	C18H16O+
249.1264	15	C18H17O+
253.1579	23	C18H21O+
254.1635	5	C17[13]CH21O+
255.1028	13	C16H15O3+
257.0713	10	C10H19Cl2O3+
259.0867	10	C10H21Cl2O3+
259.1479	5	C20H19+
260.0969	5	C16H17ClO+
260.1228	5	C12H20O6+
261.0643	6	C9H19Cl2O4+
261.0837	5	C10H21Cl[37]ClO3+
261.1254	18	C13H22ClO3+
261.1601	5	C8H31Cl2O4+
262.1324	8	C13H23ClO3+
263.1422	421	C19H19O+
264.1454	72	C18[13]CH19O+
265.0935	7	C9H23Cl2O4+
265.1492	8	C17[13]C2H19O+
267.1023	5	C17H15O3+
267.1732	17	C13H28ClO3+
271.0905	14	C10H20ClO6+
273.0913	7	C10H20[37]ClO6+
273.1015	7	C11H23Cl2O3+
273.1291	5	C20H17O+
273.1634	6	C21H21+
274.1346	5	C20H18O+
275.1416	59	C20H19O+
276.1473	22	C19[13]CH19O+
277.1583	157	C20H21O+
278.1652	190	C14H27ClO3+
279.1736	524	C20H23O+
280.1766	88	C19[13]CH23O+
281.1177	8	C18H17O3+
281.1533	112	C13H26ClO4+
281.1836	16	C18[13]C2H23O+
282.1556	12	C12[13]CH26ClO4+
283.0669	6	C15H17Cl2O+
285.0556	7	C19H9O3+
285.0665	7	C11H19Cl2O4+
285.1075	5	C11H22ClO6+
286.1329	11	C15H23ClO3+
287.1215	6	C18H20ClO+
288.1508	27	C21H20O+
289.1558	7	C20[13]CH20O+
291.1749	76	C15H28ClO3+
292.1774	11	C14[13]CH28ClO3+
295.0899	6	C19H16ClO+
295.1687	23	C20H23O2+
296.1689	5	C19[13]CH23O2+
297.1014	8	C13H23Cl2O3+
297.1821	22	C20H25O2+
298.1853	8	C19[13]CH25O2+
299.0857	5	C24H11+
299.1204	48	C19H20ClO+
300.122	10	C18[13]CH20ClO+
301.1173	16	C19H20[37]ClO+
301.1583	134	C22H21O+
302.1623	36	C21[13]CH21O+
305.1121	5	C14H22ClO5+
305.1541	6	C21H21O2+
306.1609	40	C21H22O2+
307.1653	8	C20[13]CH22O2+
309.1022	7	C14H23Cl2O3+
309.139	5	C15H27Cl2O2+
309.1859	26	C21H25O2+
311.1188	6	C20H20ClO+
313.1052	10	C18H17O5+
313.1352	35	C14H27Cl2O3+
314.1403	19	C14H28Cl2O3+
315.1264	10	C14H27Cl[37]ClO3+
315.15	30	C20H24ClO+
316.1529	9	C19[13]CH24ClO+
317.1324	11	C25H17+
317.1504	7	C20H24[37]ClO+
319.169	193	C22H23O2+
320.1729	45	C21[13]CH23O2+
321.177	9	C17H31Cl2O+
327.1499	75	C21H24ClO+
328.1555	21	C20[13]CH24ClO+
329.1251	5	C14H27Cl2O4+
329.1471	26	C21H24[37]ClO+
331.1403	7	C14H29Cl2O4+
333.1479	7	C22H21O3+
337.1357	198	C22H22ClO+
337.1802	22	C22H25O3+
338.138	45	C21[13]CH22ClO+
338.1843	8	C21[13]CH25O3+
339.1328	54	C22H22[37]ClO+
340.1367	9	C19H26Cl2O+
343.1468	5	C21H24ClO2+
345.1625	50	C21H26ClO2+
346.1634	14	C20[13]CH26ClO2+
347.1569	13	C21H26[37]ClO2+
355.1456	999	C22H24ClO2+
356.1488	264	C21[13]CH24ClO2+
357.1438	243	C22H24[37]ClO2+
358.1464	38	C19H28Cl2O2+
363.093	12	C20H21Cl2O2+
363.1348	5	C20H24ClO4+
364.095	5	C19[13]CH21Cl2O2+
365.0892	8	C20H21Cl[37]ClO2+
373.1107	26	C22H23Cl2O+
373.1564	189	C22H26ClO3+
374.1151	6	C21[13]CH23Cl2O+
374.1587	56	C21[13]CH26ClO3+
375.1099	16	C22H23Cl[37]ClO+
375.1537	54	C22H26[37]ClO3+
376.1579	7	C25H25ClO+
391.122	338	C22H25Cl2O2+
391.1895	22	C25H27O4+
392.1254	90	C21[13]CH25Cl2O2+
393.12	205	C22H25Cl[37]ClO2+
394.1259	31	C25H24Cl2+
395.1178	6	C21H25Cl2O3+
409.1299	20	C22H27Cl2O3+
410.1304	6	C21[13]CH27Cl2O3+
411.1301	11	C22H27Cl[37]ClO3+
412.1339	5	C25H26Cl2O+
415.1425	8	C21H29Cl2O4+
427.1679	6	C25H28ClO4+
449.1486	9	C21H31Cl2O6+
457.181	6	C26H30ClO5+
467.161	17	C27H28ClO5+
468.1682	5	C26[13]CH28ClO5+
469.1619	9	C24H31Cl2O5+
485.1757	15	C27H30ClO6+
486.174	6	C26[13]CH30ClO6+
503.1388	711	C27H29Cl2O5+
504.1409	232	C26[13]CH29Cl2O5+
505.1357	481	C27H29Cl[37]ClO5+
507.1313	14	C26H29Cl2O6+
521.1522	14	C27H31Cl2O6+
522.1534	6	C26[13]CH31Cl2O6+
