Mass spectrum: Betamethasone dipropionate; LC-ESI-QTOF; MS2; CE: Ramp 25.7-38.6 eV; R=35000; [M+H]+
Name: Betamethasone dipropionate
Name: CIWBQSYVNNPZIQ-UHFFFAOYSA-N
Name: [2-(9-fluoro-11-hydroxy-10,13,16-trimethyl-3-oxo-17-propanoyloxy-6,7,8,11,12,14,15,16-octahydrocyclopenta[a]phenanthren-17-yl)-2-oxoethyl] propanoate
Formula: C28H37FO7
Exact mass: 504.2523317
SMILES: CCC(=O)OCC(=O)C1(OC(=O)CC)C(C)CC2C3CCC4=CC(=O)C=CC4(C)C3(F)C(O)CC12C
InChI: InChI=1S/C28H37FO7/c1-6-23(33)35-15-22(32)28(36-24(34)7-2)16(3)12-20-19-9-8-17-13-18(30)10-11-25(17,4)27(19,29)21(31)14-26(20,28)5/h10-11,13,16,19-21,31H,6-9,12,14-15H2,1-5H3
Instrument: Bruker maXis Impact
Instrument type: LC-ESI-QTOF
Ms type: MS2
Ion mode: POSITIVE
Ionization: ESI
Fragmentation mode: CID
Collision energy: Ramp 25.7-38.6 eV
Resolution: 35000
Column name: Acclaim RSLC C18 2.2um, 2.1x100mm, Thermo
Retention time: 11.306 min
Base peak: 505.2592
Precursor m/z: 505.2596
Precursor type: [M+H]+
m/z	relative intensity	assigned
57.0329	502	C3H5O+
58.0361	17	C2[13]CH5O+
67.0532	8	C5H7+
69.0329	7	C4H5O+
69.0691	12	C5H9+
75.0438	8	C3H7O2+
79.0535	9	C6H7+
81.0695	8	C6H9+
83.0853	5	C6H11+
91.0543	6	C7H7+
93.0704	21	C7H9+
95.0494	6	C6H7O+
95.0857	44	C7H11+
97.065	7	C6H9O+
105.0707	14	C5H10FO+
107.0867	54	C5H12FO+
109.0649	7	C7H9O+
109.1024	21	C5H14FO+
111.0805	6	C7H11O+
115.0401	90	C5H7O3+
116.0423	5	C4[13]CH7O3+
119.0851	36	C9H11+
120.0881	5	C8[13]CH11+
121.0645	55	C8H9O+
121.1018	27	C6H14FO+
122.0684	5	C7[13]CH9O+
123.0803	39	C8H11O+
125.0948	7	C8H13O+
128.0625	6	C10H8+
131.0854	23	C10H11+
132.0551	5	C9H8O+
133.0641	13	C9H9O+
133.1007	65	C10H13+
134.1026	6	C9[13]CH13+
135.0796	132	C9H11O+
136.083	9	C8[13]CH11O+
137.0959	24	C9H13O+
141.0688	6	C11H9+
143.0839	13	C11H11+
145.0641	23	C10H9O+
145.0993	18	C11H13+
147.0795	287	C10H11O+
148.0833	27	C9[13]CH11O+
149.0948	84	C10H13O+
151.0739	12	C9H11O2+
151.1107	11	C10H15O+
153.0902	154	C9H13O2+
154.0934	12	C8[13]CH13O2+
155.085	5	C12H11+
157.1001	14	C12H13+
158.0718	5	C11H10O+
159.0791	145	C11H11O+
160.0838	14	C10[13]CH11O+
161.0586	16	C10H9O2+
161.0951	89	C11H13O+
162.0984	9	C10[13]CH13O+
163.0743	11	C10H11O2+
163.1114	7	C11H15O+
165.0896	16	C10H13O2+
167.1056	131	C10H15O2+
168.1091	10	C9[13]CH15O2+
169.0644	18	C12H9O+
169.1007	8	C13H13+
171.0794	184	C12H11O+
171.1165	12	C13H15+
172.0836	24	C11[13]CH11O+
173.0951	133	C12H13O+
174.0973	15	C11[13]CH13O+
175.0743	5	C11H11O2+
175.1105	14	C12H15O+
177.0902	38	C11H13O2+
178.0947	5	C10[13]CH13O2+
179.1056	9	C11H15O2+
183.0797	14	C13H11O+
183.1157	5	C14H15+
185.0953	242	C13H13O+
186.0985	38	C12[13]CH13O+
187.0745	121	C12H11O2+
187.1106	28	C13H15O+
188.0771	14	C11[13]CH11O2+
189.0907	19	C12H13O2+
191.1034	6	C12H15O2+
193.1002	7	C15H13+
195.0798	7	C14H11O+
195.1011	10	C11H15O3+
195.113	5	C15H15+
196.0874	6	C14H12O+
197.0954	55	C14H13O+
198.0995	12	C13[13]CH13O+
199.0754	16	C13H11O2+
199.1104	31	C14H15O+
201.0897	8	C13H13O2+
201.1274	6	C14H17O+
203.1062	25	C13H15O2+
208.0873	6	C15H12O+
209.0958	34	C15H13O+
209.1172	13	C12H17O3+
210.1006	9	C15H14O+
211.0756	5	C14H11O2+
211.1107	49	C12H16FO2+
212.117	7	C11[13]CH16FO2+
213.0907	13	C14H13O2+
213.1265	54	C15H17O+
214.1304	6	C14[13]CH17O+
215.1066	16	C14H15O2+
221.0952	53	C16H13O+
221.1174	5	C13H17O3+
221.1304	5	C17H17+
222.1009	18	C16H14O+
223.1112	77	C16H15O+
223.1311	16	C13H19O3+
224.116	19	C15[13]CH15O+
225.0903	7	C15H13O2+
225.1257	26	C16H17O+
227.1085	8	C12H16FO3+
227.1415	5	C16H19O+
229.0838	8	C14H13O3+
229.1231	8	C12H18FO3+
230.1072	5	C18H14+
231.115	9	C18H15+
233.0959	8	C17H13O+
233.1149	6	C14H17O3+
234.1035	9	C17H14O+
235.1108	67	C14H16FO2+
235.144	5	C18H19+
236.1171	15	C13[13]CH16FO2+
237.0907	5	C16H13O2+
237.1266	54	C17H17O+
237.1633	6	C18H21+
238.131	11	C16[13]CH17O+
239.1061	42	C16H15O2+
239.1423	30	C17H19O+
241.1224	11	C16H17O2+
241.1587	5	C17H21O+
243.1015	5	C15H15O3+
245.0974	5	C15H14FO2+
245.1326	8	C19H17+
246.1036	6	C18H14O+
247.1103	12	C18H15O+
248.119	31	C18H16O+
249.1265	82	C18H17O+
249.1613	9	C19H21+
250.1307	16	C17[13]CH17O+
251.1053	8	C17H15O2+
251.1423	34	C18H19O+
252.147	6	C17[13]CH19O+
253.0869	5	C13H14FO4+
253.1217	13	C17H17O2+
253.1586	33	C18H21O+
255.135	5	C17H19O2+
257.1312	6	C20H17+
258.1404	11	C20H18+
259.1099	18	C19H15O+
259.1472	11	C20H19+
260.119	16	C19H16O+
261.1272	81	C19H17O+
261.163	14	C20H21+
262.1335	51	C19H18O+
263.1056	15	C18H15O2+
263.1428	246	C16H20FO2+
264.148	50	C15[13]CH20FO2+
265.1575	32	C19H21O+
266.1629	10	C18[13]CH21O+
267.1369	16	C18H19O2+
267.1751	22	C16H24FO2+
271.1105	9	C20H15O+
271.1415	5	C21H19+
272.12	17	C20H16O+
273.1252	15	C20H17O+
273.1632	20	C21H21+
274.1361	14	C17H19FO2+
274.1655	5	C20[13]CH21+
275.1435	124	C20H19O+
276.1498	79	C20H20O+
277.1232	27	C16H18FO3+
277.1591	314	C20H21O+
278.1651	185	C20H22O+
279.1747	999	C20H23O+
280.1783	187	C19[13]CH23O+
281.1528	24	C16H22FO3+
281.1863	25	C18[13]C2H23O+
282.159	7	C15[13]CH22FO3+
283.1473	10	C22H19+
286.1356	49	C21H18O+
287.1386	17	C20[13]CH18O+
288.1468	5	C21H20O+
289.1241	6	C17H18FO3+
289.1589	75	C21H21O+
290.131	17	C17H19FO3+
290.162	16	C20[13]CH21O+
291.1749	539	C21H23O+
292.1783	127	C20[13]CH23O+
293.154	25	C20H21O2+
293.1801	12	C19[13]C2H23O+
294.1579	9	C19[13]CH21O2+
295.1345	7	C16H20FO4+
295.1695	77	C20H23O2+
296.1752	30	C20H24O2+
297.1844	29	C20H25O2+
298.1895	6	C19[13]CH25O2+
301.1591	378	C22H21O+
302.1628	85	C21[13]CH21O+
303.1404	8	C18H20FO3+
303.1636	10	C20[13]C2H21O+
304.1437	17	C21H20O2+
305.1529	9	C21H21O2+
306.1619	25	C21H22O2+
307.1694	52	C18H24FO3+
308.1737	10	C17[13]CH24FO3+
309.1854	116	C21H25O2+
310.1891	37	C20[13]CH25O2+
311.1628	21	C20H23O3+
312.1677	7	C19[13]CH23O3+
317.1544	5	C19H22FO3+
319.1699	618	C22H23O2+
320.1734	127	C21[13]CH23O2+
321.1517	13	C18H22FO4+
321.1732	17	C20[13]C2H23O2+
325.1802	25	C18H26FO4+
326.1849	6	C17[13]CH26FO4+
327.1954	13	C21H27O3+
335.201	7	C23H27O2+
337.1806	495	C22H25O3+
338.1838	118	C21[13]CH25O3+
339.1819	17	C20[13]C2H25O3+
340.1761	5	C25H24O+
351.1944	8	C23H27O3+
355.1913	325	C26H24F+
356.1949	69	C25[13]CH24F+
357.1876	21	C24[13]C2H24F+
358.1864	5	C25H26O2+
365.2092	11	C24H29O3+
367.1931	6	C20H28FO5+
375.1955	33	C25H27O3+
376.1979	8	C24[13]CH27O3+
393.2076	136	C25H29O4+
394.2105	36	C24[13]CH29O4+
411.2163	66	C22H32FO6+
412.2219	17	C21[13]CH32FO6+
