Mass spectrum: Desonide; LC-ESI-QTOF; MS2; CE: Ramp 23.9-35.9 eV; R=35000; [M+H]+
Name: Desonide
Name: (1S,2S,4R,8S,9S,11S,12S,13R)-11-hydroxy-8-(2-hydroxyacetyl)-6,6,9,13-tetramethyl-5,7-dioxapentacyclo[10.8.0.02,9.04,8.013,18]icosa-14,17-dien-16-one
Formula: C24H32O6
Exact mass: 416.2198887
SMILES: CC1(C)O[C@@H]2C[C@H]3[C@@H]4CCC5=CC(=O)C=C[C@]5(C)[C@H]4[C@@H](O)C[C@]3(C)[C@@]2(O1)C(=O)CO
InChI: InChI=1S/C24H32O6/c1-21(2)29-19-10-16-15-6-5-13-9-14(26)7-8-22(13,3)20(15)17(27)11-23(16,4)24(19,30-21)18(28)12-25/h7-9,15-17,19-20,25,27H,5-6,10-12H2,1-4H3/t15-,16-,17-,19+,20+,22-,23-,24+/m0/s1
Instrument: Bruker maXis Impact
Instrument type: LC-ESI-QTOF
Ms type: MS2
Ion mode: POSITIVE
Ionization: ESI
Fragmentation mode: CID
Collision energy: Ramp 23.9-35.9 eV
Resolution: 35000
Column name: Acclaim RSLC C18 2.2um, 2.1x100mm, Thermo
Retention time: 9.047 min
Base peak: 417.2274
Precursor m/z: 417.2272
Precursor type: [M+H]+
m/z	relative intensity	assigned
55.0174	12	C3H3O+
55.0537	8	C4H7+
59.0486	57	C3H7O+
67.0537	10	C5H7+
69.0328	11	C4H5O+
69.069	9	C5H9+
71.0487	14	C4H7O+
73.0281	6	C3H5O2+
79.0536	19	C6H7+
81.0328	11	C5H5O+
81.0697	66	C6H9+
83.0124	8	C4H3O2+
83.0494	20	C5H7O+
85.0287	6	C4H5O2+
85.0649	8	C5H9O+
87.0438	18	C4H7O2+
91.0544	23	C7H7+
93.0704	51	C7H9+
95.0496	19	C6H7O+
95.086	46	C7H11+
97.0288	10	C5H5O2+
97.0654	25	C6H9O+
99.0441	22	C5H7O2+
101.0239	63	C4H5O3+
101.059	5	C5H9O2+
105.0709	33	C8H9+
107.0491	8	C7H7O+
107.0868	33	C8H11+
109.0658	32	C7H9O+
109.1007	5	C8H13+
111.0449	8	C6H7O2+
111.0817	6	C7H11O+
113.0601	9	C6H9O2+
115.0398	7	C5H7O3+
115.0538	13	C9H7+
117.0702	18	C9H9+
119.086	48	C9H11+
121.0646	251	C8H9O+
122.0681	22	C7[13]CH9O+
123.0447	8	C7H7O2+
123.0807	17	C8H11O+
125.0595	8	C7H9O2+
128.0622	11	C10H8+
129.0703	13	C10H9+
131.0479	6	C9H7O+
131.0847	30	C10H11+
132.0556	16	C9H8O+
133.0642	33	C9H9O+
133.1001	13	C10H13+
135.0797	174	C9H11O+
136.0836	21	C8[13]CH11O+
137.0591	79	C8H9O2+
137.0943	5	C9H13O+
138.063	10	C7[13]CH9O2+
139.0749	40	C8H11O2+
141.0538	16	C7H9O3+
141.0692	5	C11H9+
142.0767	5	C11H10+
143.0845	25	C11H11+
145.0636	51	C10H9O+
145.1004	26	C11H13+
146.0699	8	C9[13]CH9O+
147.0797	999	C10H11O+
148.0827	108	C9[13]CH11O+
149.0584	20	C9H9O2+
149.0954	23	C10H13O+
151.0745	23	C9H11O2+
153.0699	5	C12H9+
153.0896	7	C9H13O2+
155.0688	54	C8H11O3+
155.0833	21	C12H11+
157.0643	6	C11H9O+
157.1006	33	C12H13+
158.0713	36	C11H10O+
159.0649	7	C7H11O4+
159.0791	141	C11H11O+
160.0834	22	C10[13]CH11O+
161.0953	164	C11H13O+
162.0971	18	C10[13]CH13O+
163.0742	111	C10H11O2+
164.0776	10	C9[13]CH11O2+
165.0896	12	C10H13O2+
167.0693	16	C9H11O3+
167.0863	6	C13H11+
169.0632	6	C12H9O+
169.0997	16	C13H13+
170.0715	5	C12H10O+
171.0797	400	C12H11O+
172.0835	52	C11[13]CH11O+
173.0953	778	C12H13O+
174.0984	108	C11[13]CH13O+
175.0727	10	C11H11O2+
175.1099	26	C12H15O+
177.0896	22	C11H13O2+
179.0841	13	C14H11+
179.1059	6	C11H15O2+
181.0852	39	C10H13O3+
181.0971	11	C14H13+
182.0721	7	C13H10O+
182.0909	5	C9[13]CH13O3+
183.0798	23	C13H11O+
184.0851	8	C13H12O+
185.0954	154	C13H13O+
186.0992	27	C12[13]CH13O+
187.0748	21	C12H11O2+
187.1104	96	C13H15O+
188.1149	14	C12[13]CH15O+
189.0907	27	C12H13O2+
190.0923	5	C11[13]CH13O2+
191.0844	5	C15H11+
192.0917	14	C15H12+
193.0994	13	C15H13+
195.0803	21	C14H11O+
195.1001	6	C11H15O3+
195.117	7	C15H15+
196.0872	17	C14H12O+
197.0951	125	C14H13O+
197.1309	11	C15H17+
198.1009	32	C14H14O+
199.0745	6	C13H11O2+
199.1107	110	C14H15O+
200.1147	18	C13[13]CH15O+
201.0898	22	C13H13O2+
201.1285	6	C14H17O+
202.094	6	C13H14O2+
203.1057	11	C13H15O2+
205.0992	9	C16H13+
207.1168	44	C16H15+
208.0882	15	C15H12O+
208.12	9	C15[13]CH15+
209.0954	105	C15H13O+
209.1316	10	C16H17+
210.1032	62	C15H14O+
211.1112	203	C15H15O+
212.1159	33	C14[13]CH15O+
213.0903	25	C14H13O2+
213.1263	83	C15H17O+
214.131	14	C14[13]CH17O+
215.1064	28	C14H15O2+
215.1413	8	C15H19O+
216.1087	5	C13[13]CH15O2+
219.1167	12	C17H15+
221.0948	68	C16H13O+
221.1326	9	C17H17+
222.1023	51	C16H14O+
223.1111	165	C16H15O+
224.1165	58	C16H16O+
225.1273	854	C16H17O+
226.1341	697	C16H18O+
227.1057	18	C15H15O2+
227.1416	366	C16H19O+
228.1452	58	C15[13]CH19O+
229.0881	11	C14H13O3+
229.1576	6	C16H21O+
230.1099	5	C18H14+
231.1175	6	C18H15+
233.0943	10	C17H13O+
233.1338	6	C18H17+
234.1031	22	C17H14O+
235.1115	110	C17H15O+
235.1484	11	C18H19+
236.117	38	C17H16O+
237.1272	325	C17H17O+
238.1307	58	C16[13]CH17O+
239.1062	19	C16H15O2+
239.1427	201	C17H19O+
240.1117	8	C16H16O2+
240.1464	44	C16[13]CH19O+
241.1213	7	C16H17O2+
241.1585	144	C17H21O+
242.1632	24	C16[13]CH21O+
243.1192	7	C19H15+
243.139	6	C16H19O2+
244.1248	5	C19H16+
245.096	6	C18H13O+
245.1332	12	C19H17+
246.104	13	C18H14O+
247.1105	30	C18H15O+
247.147	12	C19H19+
248.118	50	C18H16O+
249.0894	7	C17H13O2+
249.1266	120	C18H17O+
249.1643	6	C19H21+
250.1323	41	C18H18O+
251.1069	10	C17H15O2+
251.1431	103	C18H19O+
252.1463	23	C17[13]CH19O+
253.1217	30	C17H17O2+
253.1574	65	C18H21O+
254.1256	6	C16[13]CH17O2+
254.1608	14	C17[13]CH21O+
255.1372	25	C17H19O2+
255.1747	5	C18H23O+
257.0961	5	C19H13O+
259.1097	11	C19H15O+
259.1474	17	C20H19+
260.1176	12	C19H16O+
260.1499	7	C20H20+
261.1277	72	C19H17O+
262.1341	90	C19H18O+
263.1081	16	C18H15O2+
263.1428	304	C19H19O+
264.1129	8	C18H16O2+
264.1493	141	C19H20O+
265.1588	724	C19H21O+
266.162	159	C18[13]CH21O+
267.1373	41	C18H19O2+
267.173	38	C19H23O+
268.1402	10	C17[13]CH19O2+
268.1764	9	C19H24O+
269.1324	5	C21H17+
269.1532	12	C18H21O2+
272.1213	31	C20H16O+
273.1249	7	C19[13]CH16O+
274.1316	7	C20H18O+
275.143	49	C20H19O+
276.1136	5	C19H16O2+
276.1481	20	C20H20O+
277.1222	29	C19H17O2+
277.1592	360	C20H21O+
278.1273	9	C18[13]CH17O2+
278.1619	84	C19[13]CH21O+
279.1377	52	C19H19O2+
279.1675	9	C18[13]C2H21O+
280.1423	27	C19H20O2+
281.119	5	C18H17O3+
281.1535	92	C19H21O2+
282.1589	36	C19H22O2+
283.1318	6	C18H19O3+
283.1692	84	C19H23O2+
284.1718	19	C18[13]CH23O2+
285.1474	5	C18H21O3+
287.1433	122	C21H19O+
288.1471	29	C20[13]CH19O+
290.1302	17	C20H18O2+
291.1345	5	C19[13]CH18O2+
292.1433	10	C20H20O2+
293.1532	75	C20H21O2+
294.1582	26	C19[13]CH21O2+
295.1691	326	C20H23O2+
296.1727	58	C19[13]CH23O2+
297.148	15	C19H21O3+
297.1761	7	C18[13]C2H23O2+
299.1622	6	C19H23O3+
305.1537	337	C21H21O2+
306.1572	83	C20[13]CH21O2+
307.1629	8	C19[13]C2H21O2+
311.1646	18	C20H23O3+
312.1668	6	C20H24O3+
313.1801	71	C20H25O3+
314.1838	14	C19[13]CH25O3+
321.1498	6	C21H21O3+
323.1646	563	C21H23O3+
324.168	134	C20[13]CH23O3+
325.1714	15	C19[13]C2H23O3+
341.1752	228	C21H25O4+
342.1783	68	C20[13]CH25O4+
343.176	5	C19[13]C2H25O4+
363.1962	8	C24H27O3+
381.2073	7	C24H29O4+
399.218	882	C24H31O5+
400.2211	223	C23[13]CH31O5+
401.2236	30	C22[13]C2H31O5+
