Mass spectrum: Androsterone; LC-ESI-QTOF; MS2; CE: 40 eV; R=35000; [M+H]+
Name: Androsterone
Name: (3R,5S,8R,9S,10S,13S,14S)-3-hydroxy-10,13-dimethyl-1,2,3,4,5,6,7,8,9,11,12,14,15,16-tetradecahydrocyclopenta[a]phenanthren-17-one
Formula: C19H30O2
Exact mass: 290.2245802
SMILES: C[C@]12CC[C@H]3[C@@H](CC[C@H]4C[C@H](O)CC[C@]34C)[C@@H]1CCC2=O
InChI: InChI=1S/C19H30O2/c1-18-9-7-13(20)11-12(18)3-4-14-15-5-6-17(21)19(15,2)10-8-16(14)18/h12-16,20H,3-11H2,1-2H3/t12-,13+,14-,15-,16-,18-,19-/m0/s1
Instrument: Bruker maXis Impact
Instrument type: LC-ESI-QTOF
Ms type: MS2
Ion mode: POSITIVE
Ionization: ESI
Fragmentation mode: CID
Collision energy: 40 eV
Resolution: 35000
Column name: Acclaim RSLC C18 2.2um, 2.1x100mm, Thermo
Retention time: 10.747 min
Base peak: 345.2417
Precursor m/z: 291.2319
Precursor type: [M+H]+
m/z	relative intensity	assigned
117.0673	176	C9H9+
119.0861	262	C9H11+
121.1006	155	C9H13+
131.0844	324	C10H11+
133.1	541	C10H13+
135.115	186	C10H15+
137.0593	197	C8H9O2+
143.0844	334	C11H11+
145.0995	545	C11H13+
147.1152	362	C11H15+
157.0995	284	C12H13+
159.1153	530	C12H15+
161.0949	999	C11H13O+
161.1301	244	C12H17+
171.1144	261	C13H15+
173.1305	401	C13H17+
175.1102	171	C12H15O+
175.1475	127	C13H19+
179.105	442	C11H15O2+
185.1293	179	C14H17+
187.1494	125	C14H19+
200.1533	124	C15H20+
201.163	124	C15H21+
213.1662	124	C16H21+
215.1777	146	C16H23+
