Mass spectrum: Flunisolide; LC-ESI-QTOF; MS2; CE: 40 eV; R=35000; [M+H]+
Name: Flunisolide
Name: (1S,2S,4R,8S,9S,11S,12S,13R,19S)-19-fluoro-11-hydroxy-8-(2-hydroxyacetyl)-6,6,9,13-tetramethyl-5,7-dioxapentacyclo[10.8.0.02,9.04,8.013,18]icosa-14,17-dien-16-one
Formula: C24H31FO6
Exact mass: 434.2104669
SMILES: [H][C@@]12C[C@H]3OC(C)(C)O[C@@]3(C(=O)CO)[C@@]1(C)C[C@H](O)[C@@]1([H])[C@@]2([H])C[C@H](F)C2=CC(=O)C=C[C@]12C
InChI: InChI=1S/C24H31FO6/c1-21(2)30-19-9-14-13-8-16(25)15-7-12(27)5-6-22(15,3)20(13)17(28)10-23(14,4)24(19,31-21)18(29)11-26/h5-7,13-14,16-17,19-20,26,28H,8-11H2,1-4H3/t13-,14-,16-,17-,19+,20+,22-,23-,24+/m0/s1
Instrument: Bruker maXis Impact
Instrument type: LC-ESI-QTOF
Ms type: MS2
Ion mode: POSITIVE
Ionization: ESI
Fragmentation mode: CID
Collision energy: 40 eV
Resolution: 35000
Column name: Acclaim RSLC C18 2.2um, 2.1x100mm, Thermo
Retention time: 8.991 min
Base peak: 435.2171
Precursor m/z: 435.2177
Precursor type: [M+H]+
m/z	relative intensity	assigned
115.0389	14	C5H7O3+
115.0537	30	C9H7+
116.0592	5	C9H8+
117.0692	32	C9H9+
119.0842	43	C9H11+
121.0638	482	C8H9O+
122.0675	46	C7[13]CH9O+
123.043	7	C7H7O2+
123.0802	26	C8H11O+
125.0584	8	C7H9O2+
127.0381	6	C6H7O3+
127.0513	6	C10H7+
128.0613	46	C10H8+
129.0687	40	C10H9+
130.0752	7	C10H10+
131.0477	13	C9H7O+
131.0843	77	C10H11+
132.0565	23	C9H8O+
132.088	10	C9[13]CH11+
133.0639	69	C9H9O+
133.1003	15	C10H13+
134.0679	7	C8[13]CH9O+
135.044	10	C8H7O2+
135.0792	145	C9H11O+
136.0831	13	C8[13]CH11O+
137.0582	48	C8H9O2+
137.0744	15	C9H10F+
137.0939	5	C9H13O+
139.0541	65	C11H7+
139.0737	24	C8H11O2+
141.0533	17	C7H9O3+
141.0684	24	C11H9+
142.0756	22	C11H10+
143.0843	86	C11H11+
144.0567	14	C10H8O+
144.089	10	C10[13]CH11+
145.0636	227	C10H9O+
145.1001	29	C11H13+
146.0674	35	C9[13]CH9O+
147.0789	433	C10H11O+
148.0828	47	C9[13]CH11O+
149.0596	20	C9H9O2+
149.0754	5	C10H10F+
149.0939	29	C10H13O+
151.0739	35	C9H11O2+
152.0599	12	C12H8+
153.0543	7	C8H9O3+
153.0685	24	C12H9+
154.074	12	C12H10+
155.0694	35	C8H11O3+
155.084	49	C12H11+
156.0895	10	C11[13]CH11+
157.0634	36	C11H9O+
157.0995	38	C12H13+
158.0708	47	C11H10O+
158.1014	5	C11[13]CH13+
159.0787	290	C11H11O+
160.0827	38	C10[13]CH11O+
161.0589	38	C10H9O2+
161.0948	103	C11H13O+
162.0637	6	C10H10O2+
162.0984	9	C10[13]CH13O+
163.0528	6	C13H7+
163.0737	82	C10H11O2+
163.1104	8	C11H15O+
164.0775	14	C9[13]CH11O2+
165.069	173	C10H10FO+
165.0886	11	C10H13O2+
166.0747	22	C9[13]CH10FO+
167.0835	64	C10H12FO+
168.0563	5	C12H8O+
168.0918	10	C9[13]CH12FO+
169.0633	39	C12H9O+
169.0997	28	C13H13+
170.0702	22	C12H10O+
171.079	999	C12H11O+
172.0827	150	C11[13]CH11O+
173.0584	9	C11H9O2+
173.0945	152	C12H13O+
174.0975	22	C11[13]CH13O+
175.0736	35	C11H11O2+
175.1101	21	C12H15O+
176.064	5	C11H9FO+
177.0698	10	C14H9+
177.0895	22	C11H13O2+
178.0765	13	C14H10+
179.0838	90	C14H11+
180.0915	32	C14H12+
181.063	39	C13H9O+
181.1	53	C14H13+
182.0708	44	C13H10O+
182.104	12	C13[13]CH13+
183.0787	114	C13H11O+
183.1163	17	C14H15+
184.0839	32	C13H12O+
185.0573	17	C12H9O2+
185.0947	189	C13H13O+
186.098	36	C12[13]CH13O+
187.0734	36	C12H11O2+
187.1116	21	C13H15O+
189.0691	50	C15H9+
189.0887	12	C12H13O2+
190.0766	46	C15H10+
191.0848	125	C15H11+
191.1043	11	C12H15O2+
192.0905	71	C15H12+
193.0844	41	C11H13O3+
193.0998	72	C15H13+
194.0719	33	C14H10O+
194.1062	27	C15H14+
195.0788	159	C14H11O+
195.1149	111	C15H15+
196.0862	103	C14H12O+
196.1196	22	C14[13]CH15+
197.0945	492	C14H13O+
197.1298	33	C15H17+
198.0651	6	C13H10O2+
198.0993	90	C13[13]CH13O+
198.1351	8	C14[13]CH17+
199.0741	18	C13H11O2+
199.1095	72	C14H15O+
200.0799	5	C13H12O2+
200.1146	9	C13[13]CH15O+
201.0899	26	C13H13O2+
201.1238	5	C14H17O+
202.0769	10	C16H10+
202.0881	7	C6H15FO6+
203.0839	35	C16H11+
203.1048	8	C13H15O2+
204.0919	20	C16H12+
205.0999	139	C16H13+
206.0732	7	C15H10O+
206.1057	33	C15[13]CH13+
207.0796	31	C15H11O+
207.1153	117	C16H15+
208.0868	251	C15H12O+
208.1189	20	C15[13]CH15+
209.0943	438	C15H13O+
209.1307	22	C16H17+
210.1013	203	C15H14O+
211.0741	18	C14H11O2+
211.11	245	C15H15O+
212.0819	9	C14H12O2+
212.1155	49	C14[13]CH15O+
213.0887	51	C14H13O2+
213.1264	270	C15H17O+
214.0932	9	C13[13]CH13O2+
214.1303	40	C14[13]CH17O+
215.0846	25	C17H11+
215.1413	13	C15H19O+
216.0914	27	C17H12+
217.1004	59	C17H13+
218.0711	15	C16H10O+
218.1069	40	C17H14+
219.0798	36	C16H11O+
219.1152	54	C17H15+
220.0877	67	C16H12O+
220.1217	28	C17H16+
221.0946	257	C16H13O+
221.131	47	C17H17+
222.1013	185	C16H14O+
222.1365	13	C16[13]CH17+
223.1105	666	C16H15O+
224.1169	356	C16H16O+
225.09	35	C15H13O2+
225.1257	557	C16H17O+
226.0939	20	C15H14O2+
226.1296	100	C15[13]CH17O+
227.0851	12	C18H11+
227.1028	15	C15H15O2+
227.1412	34	C16H19O+
228.0925	23	C18H12+
228.1104	6	C15H16O2+
228.145	6	C15[13]CH19O+
229.1003	55	C18H13+
230.1074	39	C18H14+
231.0793	77	C17H11O+
231.1158	54	C18H15+
232.0867	52	C17H12O+
232.1225	42	C18H16+
233.094	114	C17H13O+
233.1314	59	C18H17+
234.1021	195	C17H14O+
234.1356	12	C17[13]CH17+
235.1106	444	C17H15O+
235.1463	62	C18H19+
236.0791	9	C16H12O2+
236.1153	117	C16[13]CH15O+
236.1512	13	C17[13]CH19+
237.0895	84	C16H13O2+
237.126	349	C17H17O+
238.0961	28	C16H14O2+
238.1292	68	C16[13]CH17O+
239.1048	28	C16H15O2+
239.1414	114	C17H19O+
240.0924	8	C19H12+
240.1085	11	C16H16O2+
240.1449	23	C16[13]CH19O+
241.083	5	C15H13O3+
241.101	22	C19H13+
241.12	16	C16H17O2+
241.1578	6	C17H21O+
242.1078	45	C19H14+
243.116	66	C19H15+
244.0873	11	C18H12O+
244.1236	61	C19H16+
245.0945	140	C18H13O+
245.1317	84	C19H17+
246.1027	222	C18H14O+
246.1362	24	C18[13]CH17+
247.1098	223	C18H15O+
247.1473	51	C19H19+
248.1174	245	C18H16O+
248.1494	13	C18[13]CH19+
249.0887	20	C17H13O2+
249.1254	263	C18H17O+
250.0975	24	C17H14O2+
250.1314	106	C18H18O+
251.1055	62	C17H15O2+
251.1414	151	C18H19O+
252.1122	32	C17H16O2+
252.1471	41	C17[13]CH19O+
253.1197	34	C17H17O2+
253.1564	43	C18H21O+
254.1226	8	C16[13]CH17O2+
254.1583	11	C17[13]CH21O+
255.0786	9	C19H11O+
255.1156	28	C17H16FO+
255.1354	11	C17H19O2+
256.0829	7	C19H12O+
256.1254	5	C16[13]CH16FO+
256.1347	6	C10H21FO6+
257.0988	6	C16H14FO2+
257.1323	68	C20H17+
258.1029	64	C19H14O+
258.1352	14	C19[13]CH17+
259.1096	103	C19H15O+
260.1182	257	C19H16O+
261.0897	43	C18H13O2+
261.1258	274	C19H17O+
262.097	37	C18H14O2+
262.1324	215	C19H18O+
263.1059	48	C18H15O2+
263.1416	537	C19H19O+
264.1128	40	C18H16O2+
264.1453	116	C18[13]CH19O+
265.0837	7	C17H13O3+
265.1211	81	C18H17O2+
265.1572	98	C19H21O+
266.1253	16	C17[13]CH17O2+
266.1615	21	C18[13]CH21O+
267.1153	14	C21H15+
267.1363	26	C18H19O2+
268.1225	8	C21H16+
268.14	9	C18H20O2+
269.1266	11	C21H17+
269.1526	4	C18H21O2+
270.1031	44	C20H14O+
271.1084	23	C20H15O+
272.1171	12	C20H16O+
273.091	12	C19H13O2+
273.1266	66	C20H17O+
274.0969	17	C19H14O2+
274.1313	34	C20H18O+
275.1053	42	C19H15O2+
275.1419	282	C20H19O+
276.1127	30	C19H16O2+
276.1459	55	C19[13]CH19O+
277.1202	54	C19H17O2+
277.1543	15	C20H21O+
278.1287	75	C19H18O2+
279.1012	13	C18H15O3+
279.1365	105	C19H19O2+
279.1729	20	C20H23O+
280.1104	5	C15H17FO4+
280.1438	77	C19H20O2+
281.1511	99	C19H21O2+
282.1538	16	C18[13]CH21O2+
283.1488	85	C22H19+
284.151	21	C21[13]CH19+
285.126	72	C21H17O+
286.1292	22	C20[13]CH17O+
287.1049	7	C20H15O2+
288.1133	78	C20H16O2+
289.1176	21	C19[13]CH16O2+
290.1289	14	C20H18O2+
291.1009	5	C19H15O3+
291.1365	63	C20H19O2+
292.1087	6	C19H16O3+
292.1422	23	C20H20O2+
293.1152	12	C19H17O3+
293.153	73	C20H21O2+
294.1221	5	C19H18O3+
294.1569	19	C19[13]CH21O2+
295.1344	13	C16H20FO4+
296.1439	7	C16H21FO4+
297.1131	6	C15H18FO5+
297.1454	5	C19H21O3+
299.1442	6	C19H20FO2+
301.1604	14	C22H21O+
302.1606	5	C21[13]CH21O+
303.1357	91	C21H19O2+
303.1794	5	C15H27O6+
304.1389	22	C20[13]CH19O2+
306.1238	12	C20H18O3+
309.1509	10	C17H22FO4+
311.1388	5	C23H19O+
311.1622	23	C20H23O3+
312.167	5	C19[13]CH23O3+
313.157	7	C23H21O+
321.1484	72	C21H21O3+
321.1823	5	C22H25O2+
322.1503	17	C20[13]CH21O3+
323.145	10	C21H20FO2+
339.1594	23	C21H23O4+
340.1617	6	C20[13]CH23O4+
341.1544	8	C21H22FO3+
