Mass spectrum: Terbutryn; LC-ESI-QTOF; MS2; CE: 50 eV; R=35000; [M+H]+
Name: Terbutryn
Name: 2-N-tert-butyl-4-N-ethyl-6-methylsulfanyl-1,3,5-triazine-2,4-diamine
Formula: C10H19N5S
Exact mass: 241.1361166
SMILES: CCNC1=NC(NC(C)(C)C)=NC(SC)=N1
InChI: InChI=1S/C10H19N5S/c1-6-11-7-12-8(15-10(2,3)4)14-9(13-7)16-5/h6H2,1-5H3,(H2,11,12,13,14,15)
Instrument: Bruker maXis Impact
Instrument type: LC-ESI-QTOF
Ms type: MS2
Ion mode: POSITIVE
Ionization: ESI
Fragmentation mode: CID
Collision energy: 50 eV
Resolution: 35000
Column name: Acclaim RSLC C18 2.2um, 2.1x100mm, Thermo
Retention time: 10.243 min
Base peak: 242.144
Precursor m/z: 242.1434
Precursor type: [M+H]+
m/z	relative intensity	assigned
110.0461	17	C3H4N5+
113.0815	25	C4H9N4+
116.0272	713	C3H6N3S+
117.0299	64	C6H3N3+
125.0685	28	C4H7N5+
127.0062	19	C3H3N4S+
128.0136	20	C3H4N4S+
131.0356	25	C6H3N4+
138.0765	999	C5H8N5+
139.0788	62	C4[13]CH8N5+
140.0928	36	C5H10N5+
143.0248	93	C3H5N5S+
144.0578	675	C5H10N3S+
145.0621	62	C4[13]CH10N3S+
146.054	46	C5H10N3[34]S+
156.0328	53	C4H6N5S+
158.0483	905	C7H4N5+
159.0504	66	C6[13]CH4N5+
159.0678	22	C8H7N4+
170.0496	79	C5H8N5S+
171.0557	67	C5H9N5S+
184.0648	36	C6H10N5S+
186.08	791	C9H8N5+
187.0827	89	C8[13]CH8N5+
