Mass spectrum: Trenbolone; LC-ESI-QTOF; MS2; CE: 20 eV; R=35000; [M+H]+
Name: Trenbolone
Name: Trenbolone:17-Hydroxyestra-4,9,11-trien-3-one
Name: (13S,17S)-17-hydroxy-13-methyl-2,6,7,8,14,15,16,17-octahydro-1H-cyclopenta[a]phenanthren-3-one
Formula: C18H22O2
Exact mass: 270.1619799
SMILES: C[C@]12C=CC3=C4CCC(=O)C=C4CCC3C1CC[C@@H]2O
InChI: InChI=1S/C18H22O2/c1-18-9-8-14-13-5-3-12(19)10-11(13)2-4-15(14)16(18)6-7-17(18)20/h8-10,15-17,20H,2-7H2,1H3/t15?,16?,17-,18-/m0/s1
Instrument: Bruker maXis Impact
Instrument type: LC-ESI-QTOF
Ms type: MS2
Ion mode: POSITIVE
Ionization: ESI
Fragmentation mode: CID
Collision energy: 20 eV
Resolution: 35000
Column name: Acclaim RSLC C18 2.2um, 2.1x100mm, Thermo
Retention time: 8.941 min
Base peak: 271.1692
Precursor m/z: 271.1693
Precursor type: [M+H]+
m/z	relative intensity	assigned
159.0792	8	C11H11O+
189.1261	7	C13H17O+
197.0953	12	C14H13O+
198.1019	5	C14H14O+
199.111	55	C14H15O+
200.1148	8	C13[13]CH15O+
211.1107	9	C15H15O+
214.1341	5	C15H18O+
225.1264	9	C16H17O+
227.1424	14	C16H19O+
235.1474	6	C18H19+
253.1587	111	C18H21O+
254.1617	18	C17[13]CH21O+
271.1695	999	C18H23O2+
272.1728	151	C17[13]CH23O2+
273.1757	13	C16[13]C2H23O2+
