Mass spectrum: DCOIT; LC-ESI-QTOF; MS2; CE: Ramp 20-30 eV; R=35000; [M+H]+
Name: DCOIT
Name: Kathon 930
Name: 4,5-dichloro-2-octyl-1,2-thiazol-3-one
Formula: C11H17Cl2NOS
Exact mass: 281.0407905
SMILES: CCCCCCCCN1SC(Cl)=C(Cl)C1=O
InChI: InChI=1S/C11H17Cl2NOS/c1-2-3-4-5-6-7-8-14-11(15)9(12)10(13)16-14/h2-8H2,1H3
Instrument: Bruker maXis Impact
Instrument type: LC-ESI-QTOF
Ms type: MS2
Ion mode: POSITIVE
Ionization: ESI
Fragmentation mode: CID
Collision energy: Ramp 20-30 eV
Resolution: 35000
Column name: Acclaim RSLC C18 2.2um, 2.1x100mm, Thermo
Retention time: 12.461 min
Base peak: 282.0477
Precursor m/z: 282.0481
Precursor type: [M+H]+
m/z	relative intensity	assigned
55.0536	10	C4H7+
57.0693	513	C4H9+
58.0725	21	C3[13]CH9+
69.0694	6	C5H9+
71.0852	410	C5H11+
72.0884	24	C4[13]CH11+
126.9163	7	C2HCl2S+
128.9131	5	C2HCl[37]ClS+
134.9524	15	C3H2ClNOS+
149.023	6	C11H3N+
150.0261	5	C6H11ClS+
151.9111	5	C3Cl2NS+
169.922	999	C3H2Cl2NOS+
170.9248	52	C2[13]CH2Cl2NOS+
171.9191	684	C3H2Cl[37]ClNOS+
282.048	66	C11H18Cl2NOS+
283.0508	9	C10[13]CH18Cl2NOS+
284.0453	34	C11H18Cl[37]ClNOS+
