Mass spectrum: Norgestimate; LC-ESI-QTOF; MS2; CE: 50 eV; R=35000; [M+H]+
Name: Norgestimate
Name: [(3E,8R,9S,10R,13S,14S,17R)-13-ethyl-17-ethynyl-3-hydroxyimino-1,2,6,7,8,9,10,11,12,14,15,16-dodecahydrocyclopenta[a]phenanthren-17-yl] acetate
Formula: C23H31NO3
Exact mass: 369.2303939
SMILES: CC[C@]12CC[C@H]3[C@@H](CCC4=C\C(CC[C@H]34)=N\O)[C@@H]1CC[C@@]2(OC(C)=O)C#C
InChI: InChI=1S/C23H31NO3/c1-4-22-12-10-19-18-9-7-17(24-26)14-16(18)6-8-20(19)21(22)11-13-23(22,5-2)27-15(3)25/h2,14,18-21,26H,4,6-13H2,1,3H3/b24-17+/t18-,19+,20+,21-,22-,23-/m0/s1
Instrument: Bruker maXis Impact
Instrument type: LC-ESI-QTOF
Ms type: MS2
Ion mode: POSITIVE
Ionization: ESI
Fragmentation mode: CID
Collision energy: 50 eV
Resolution: 35000
Column name: Acclaim RSLC C18 2.2um, 2.1x100mm, Thermo
Retention time: 11.947 min
Base peak: 370.238
Precursor m/z: 370.2377
Precursor type: [M+H]+
m/z	relative intensity	assigned
115.0537	204	C9H7+
116.0605	62	C9H8+
117.0559	39	C5H9O3+
117.0688	205	C9H9+
119.0845	103	C9H11+
120.0806	37	C8H10N+
121.0879	31	C8H11N+
121.0991	23	C9H13+
122.0598	42	C7H8NO+
122.0963	25	C8H12N+
123.0791	15	C8H11O+
124.0751	999	C7H10NO+
125.078	85	C6[13]CH10NO+
127.0549	19	C10H7+
128.061	372	C10H8+
129.0686	549	C10H9+
130.0752	148	C10H10+
131.0728	51	C9H9N+
131.0844	453	C10H11+
132.0813	105	C9H10N+
133.0647	16	C9H9O+
133.0867	52	C6H13O3+
133.1006	138	C10H13+
134.0953	77	C9H12N+
135.0822	21	C9H11O+
135.0994	14	C8[13]CH12N+
136.0752	43	C8H10NO+
138.0905	39	C8H12NO+
141.0692	284	C11H9+
142.0762	234	C11H10+
143.0844	395	C11H11+
144.0804	107	C10H10N+
145.0635	61	C10H9O+
145.1002	278	C11H13+
146.0952	110	C10H12N+
147.1035	48	C10H13N+
147.1157	41	C11H15+
148.0744	28	C9H10NO+
148.1114	84	C10H14N+
149.0952	61	C10H13O+
150.0905	73	C9H12NO+
151.0981	14	C8[13]CH12NO+
152.0609	41	C12H8+
153.0689	162	C12H9+
154.0759	118	C12H10+
155.0592	56	C7H9NO3+
155.0841	284	C12H11+
156.0906	124	C12H12+
157.1005	287	C12H13+
158.0955	144	C11H12N+
159.0787	23	C11H11O+
159.1069	75	C11H13N+
159.1144	139	C12H15+
160.1108	106	C11H14N+
161.0964	25	C11H13O+
161.118	70	C8H17O3+
161.132	36	C12H17+
162.091	30	C10H12NO+
162.1261	51	C8H18O3+
163.111	16	C11H15O+
164.1052	73	C10H14NO+
165.0684	118	C13H9+
165.1099	13	C9[13]CH14NO+
166.0753	63	C13H10+
167.084	148	C13H11+
168.0928	77	C13H12+
169.0998	158	C13H13+
170.1066	89	C13H14+
171.1157	158	C13H15+
172.113	67	C12H14N+
173.0955	13	C12H13O+
173.1315	74	C13H17+
174.0895	18	C11H12NO+
174.128	45	C12H16N+
175.1123	29	C12H15O+
175.1458	19	C13H19+
176.1058	60	C11H14NO+
177.1113	13	C10[13]CH14NO+
178.0772	75	C14H10+
178.1218	74	C11H16NO+
179.0844	103	C14H11+
179.1268	15	C11H17NO+
180.091	74	C14H12+
181.0999	124	C14H13+
183.1156	120	C14H15+
184.1123	58	C13H14N+
185.1314	110	C14H17+
186.1289	35	C13H16N+
187.1459	19	C14H19+
190.1217	22	C12H16NO+
191.0849	46	C15H11+
192.0923	52	C15H12+
193.1002	120	C15H13+
194.1059	56	C15H14+
195.115	85	C15H15+
196.1145	46	C14H14N+
197.129	64	C15H17+
198.1313	39	C14H16N+
199.147	47	C15H19+
200.1475	22	C14H18N+
203.0848	19	C16H11+
204.0917	20	C16H12+
205.1006	78	C16H13+
206.106	49	C16H14+
207.1164	96	C16H15+
208.1209	49	C16H16+
209.1319	59	C16H17+
210.1294	41	C15H16N+
211.1466	22	C16H19+
212.1443	33	C15H18N+
213.1265	23	C15H17O+
213.1596	14	C16H21+
214.1587	17	C15H20N+
217.1	19	C17H13+
218.107	19	C17H14+
219.1165	58	C17H15+
220.1164	32	C16H14N+
221.1312	55	C17H17+
222.1306	66	C16H16N+
223.1471	50	C17H19+
224.1448	25	C16H18N+
225.1607	19	C17H21+
226.1203	15	C15H16NO+
226.1617	19	C16H20N+
233.1313	39	C18H17+
234.1275	34	C17H16N+
235.1358	20	C17H17N+
235.1496	33	C18H19+
236.1424	49	C17H18N+
237.1506	25	C17H19N+
237.1621	28	C18H21+
238.1589	29	C17H20N+
239.1777	14	C18H23+
247.1472	39	C19H19+
248.1455	32	C18H18N+
249.1635	54	C19H21+
250.1624	49	C18H20N+
251.1764	16	C19H23+
253.1863	15	C18H23N+
260.1983	18	C17H26NO+
261.1655	23	C20H21+
262.1604	33	C19H20N+
264.1733	106	C16H24O3+
265.1763	27	C15[13]CH24O3+
266.1631	14	C19H22O+
266.1906	15	C19H24N+
278.1891	35	C20H24N+
282.185	146	C19H24NO+
283.1897	34	C18[13]CH24NO+
292.2043	22	C18H28O3+
310.2176	121	C21H28NO+
311.2199	34	C20[13]CH28NO+
370.2345	37	C23H32NO3+
