Mass spectrum: 1,2-Benzisothiazolinone; LC-ESI-QTOF; MS2; CE: 30 eV; R=35000; [M+H]+
Name: 1,2-Benzisothiazolinone
Name: 1,2-Benzisothiazol-3(2H)-one
Name: 1,2-benzothiazol-3-one
Formula: C7H5NOS
Exact mass: 151.0091848
SMILES: O=C1NSC2=CC=CC=C12
InChI: InChI=1S/C7H5NOS/c9-7-5-3-1-2-4-6(5)10-8-7/h1-4H,(H,8,9)
Instrument: Bruker maXis Impact
Instrument type: LC-ESI-QTOF
Ms type: MS2
Ion mode: POSITIVE
Ionization: ESI
Fragmentation mode: CID
Collision energy: 30 eV
Resolution: 35000
Column name: Acclaim RSLC C18 2.2um, 2.1x100mm, Thermo
Retention time: 5.151 min
Base peak: 152.0152
Precursor m/z: 152.0165
Precursor type: [M+H]+
m/z	relative intensity	assigned
109.0098	12	C6H5S+
124.0221	17	C6H6NS+
132.9966	67	C7H3NS+
134.005	923	C7H4NS+
135.0072	79	C6[13]CH4NS+
135.9981	84	C7H4OS+
151.0063	14	C7H5NOS+
152.0151	999	C7H6NOS+
153.0182	106	C6[13]CH6NOS+
154.0116	57	C7H6NO[34]S+
