Mass spectrum: Fluticasone propionate; LC-ESI-QTOF; MS2; CE: 20 eV; R=35000; [M+H]+
Name: Fluticasone propionate
Name: [(6S,8S,9R,10S,11S,13S,14S,16R,17R)-6,9-difluoro-17-(fluoromethylsulfanylcarbonyl)-11-hydroxy-10,13,16-trimethyl-3-oxo-6,7,8,11,12,14,15,16-octahydrocyclopenta[a]phenanthren-17-yl] propanoate
Formula: C25H31F3O5S
Exact mass: 500.1844298
SMILES: CCC(=O)O[C@@]1([C@H](C)C[C@H]2[C@@H]3C[C@H](F)C4=CC(=O)C=C[C@]4(C)[C@@]3(F)[C@@H](O)C[C@]12C)C(=O)SCF
InChI: InChI=1S/C25H31F3O5S/c1-5-20(31)33-25(21(32)34-12-26)13(2)8-15-16-10-18(27)17-9-14(29)6-7-22(17,3)24(16,28)19(30)11-23(15,25)4/h6-7,9,13,15-16,18-19,30H,5,8,10-12H2,1-4H3/t13-,15+,16+,18+,19+,22+,23+,24+,25+/m1/s1
Instrument: Bruker maXis Impact
Instrument type: LC-ESI-QTOF
Ms type: MS2
Ion mode: POSITIVE
Ionization: ESI
Fragmentation mode: CID
Collision energy: 20 eV
Resolution: 35000
Column name: Acclaim RSLC C18 2.2um, 2.1x100mm, Thermo
Retention time: 10.647 min
Base peak: 467.1992
Precursor m/z: 501.1917
Precursor type: [M+H]+
m/z	relative intensity	assigned
121.064	51	C8H9O+
133.0638	18	C9H9O+
135.0793	29	C9H11O+
139.0539	7	C11H7+
145.0628	11	C10H9O+
147.0795	8	C10H11O+
155.0854	56	C12H11+
159.0621	21	C8H9F2O+
159.0793	14	C11H11O+
161.0957	8	C11H13O+
163.0743	5	C10H11O2+
169.0635	11	C12H9O+
171.079	60	C12H11O+
172.0828	9	C11[13]CH11O+
173.0589	5	C11H9O2+
173.0786	23	C6H12F3O2+
173.095	6	C12H13O+
179.0854	76	C14H11+
180.0888	10	C13[13]CH11+
185.0428	12	C9H10FOS+
185.0586	61	C10H8F3+
186.0622	9	C9[13]CH8F3+
187.0735	11	C10H10F3+
189.069	6	C15H9+
191.0842	6	C15H11+
195.0786	6	C14H11O+
197.0967	8	C11H14FO2+
199.0937	4	C8H14F3O2+
201.0735	47	C10H11F2O2+
202.0765	6	C9[13]CH11F2O2+
203.0864	5	C13H12FO+
205.0651	287	C15H9O+
206.0684	38	C14[13]CH9O+
207.0792	5	C15H11O+
209.0936	5	C15H13O+
213.1075	21	C15H14F+
221.0949	17	C16H13O+
222.102	11	C16H14O+
223.1098	7	C16H15O+
225.0741	7	C12H14FOS+
235.1113	12	C17H15O+
237.1257	11	C17H17O+
245.0801	19	C12H15F2OS+
247.1475	11	C19H19+
249.126	10	C18H17O+
251.1424	65	C18H19O+
252.1466	11	C17[13]CH19O+
253.1215	7	C17H17O2+
260.1185	6	C19H16O+
261.1276	5	C19H17O+
263.1427	6	C19H19O+
265.1584	285	C19H21O+
266.1616	54	C18[13]CH21O+
267.1654	7	C17[13]C2H21O+
275.1427	242	C20H19O+
276.1473	64	C19[13]CH19O+
277.1568	16	C20H21O+
278.1607	5	C10H27FO5S+
279.1366	5	C17H18F3+
285.1272	5	C21H17O+
285.1645	37	C22H21+
286.168	10	C21[13]CH21+
287.1426	5	C21H19O+
291.1377	7	C20H19O2+
293.1537	999	C20H21O2+
294.1571	225	C19[13]CH21O2+
295.1495	231	C20H20FO+
296.1528	62	C19[13]CH20FO+
297.1603	11	C23H21+
303.1369	40	C21H19O2+
304.1409	10	C20[13]CH19O2+
305.1523	6	C19H20F3+
311.1632	33	C20H23O3+
312.1667	9	C19[13]CH23O3+
313.1601	842	C20H25OS+
314.1627	189	C19[13]CH25OS+
315.1574	55	C20H25O[34]S+
316.1601	14	C23H21F+
321.148	51	C19H20F3O+
322.1511	13	C18[13]CH20F3O+
323.1437	36	C21H23OS+
324.1495	12	C20[13]CH23OS+
325.1558	5	C24H21O+
331.1525	59	C20H21F2O2+
332.1545	17	C19[13]CH21F2O2+
333.1656	162	C23H22FO+
334.1685	36	C22[13]CH22FO+
335.178	5	C21[13]C2H22FO+
338.1141	6	C21H19FOS+
339.1414	19	C24H19O2+
340.1424	4	C23[13]CH19O2+
341.1386	52	C24H21S+
342.1397	15	C23[13]CH21S+
343.1494	14	C24H20FO+
345.1637	5	C24H22FO+
349.181	5	C20H26FO4+
351.1741	9	C23H24FO2+
359.1469	92	C21H24FO2S+
360.1522	27	C20[13]CH24FO2S+
361.1436	115	C20H25O4S+
362.1451	24	C19[13]CH25O4S+
363.1469	6	C20H25O4[34]S+
367.1905	8	C23H27O4+
369.1315	86	C25H21OS+
370.1348	22	C24[13]CH21OS+
371.1301	13	C21H23O4S+
373.1588	9	C25H22FO2+
379.155	36	C21H25F2O2S+
380.1575	8	C20[13]CH25F2O2S+
381.1491	36	C24H20F3O+
382.1509	9	C23[13]CH20F3O+
387.1425	52	C22H24FO3S+
387.1949	5	C24H29F2S+
388.147	14	C21[13]CH24FO3S+
389.1381	103	C22H23F2O2S+
390.1408	26	C21[13]CH23F2O2S+
391.1376	6	C22H23F2O2[34]S+
405.1539	28	C25H22FO4+
406.1532	9	C24[13]CH22FO4+
407.1484	44	C22H25F2O3S+
408.153	12	C21[13]CH25F2O3S+
409.1452	8	C24H22FO5+
425.1588	12	C22H27F2O4S+
435.1973	12	C24H29F2O5+
461.1805	6	C25H30FO5S+
463.1741	16	C25H26F3O5+
464.1776	5	C24[13]CH26F3O5+
481.1844	31	C25H31F2O5S+
482.1865	10	C24[13]CH31F2O5S+
483.1836	7	C25H30F3O4S+
501.1913	40	C25H32F3O5S+
502.1974	12	C24[13]CH32F3O5S+
