Mass spectrum: Flumethasone; LC-ESI-QTOF; MS2; CE: 30 eV; R=35000; [M+H]+
Name: Flumethasone
Name: (6S,8S,9R,10S,11S,13S,14S,16R,17R)-6,9-difluoro-11,17-dihydroxy-17-(2-hydroxyacetyl)-10,13,16-trimethyl-6,7,8,11,12,14,15,16-octahydrocyclopenta[a]phenanthren-3-one
Formula: C22H28F2O5
Exact mass: 410.1904804
SMILES: [H][C@@]12C[C@@H](C)[C@](O)(C(=O)CO)[C@@]1(C)C[C@H](O)[C@@]1(F)[C@@]2([H])C[C@H](F)C2=CC(=O)C=C[C@]12C
InChI: InChI=1S/C22H28F2O5/c1-11-6-13-14-8-16(23)15-7-12(26)4-5-19(15,2)21(14,24)17(27)9-20(13,3)22(11,29)18(28)10-25/h4-5,7,11,13-14,16-17,25,27,29H,6,8-10H2,1-3H3/t11-,13+,14+,16+,17+,19+,20+,21+,22+/m1/s1
Instrument: Bruker maXis Impact
Instrument type: LC-ESI-QTOF
Ms type: MS2
Ion mode: POSITIVE
Ionization: ESI
Fragmentation mode: CID
Collision energy: 30 eV
Resolution: 35000
Column name: Acclaim RSLC C18 2.2um, 2.1x100mm, Thermo
Retention time: 8.306 min
Base peak: 411.1966
Precursor m/z: 411.1978
Precursor type: [M+H]+
m/z	relative intensity	assigned
115.0553	30	C6H8FO+
119.0851	41	C9H11+
121.0641	386	C8H9O+
122.0684	45	C7[13]CH9O+
123.0806	18	C8H11O+
125.0597	55	C7H9O2+
128.0612	15	C10H8+
129.07	21	C10H9+
131.084	36	C10H11+
133.0635	70	C9H9O+
133.0998	37	C10H13+
135.041	16	C8H7O2+
135.0792	274	C9H11O+
136.0827	35	C8[13]CH11O+
137.0591	15	C8H9O2+
137.0745	34	C9H10F+
137.0963	39	C9H13O+
139.0545	87	C11H7+
139.0912	41	C9H12F+
141.0701	27	C11H9+
143.0847	27	C11H11+
145.0636	98	C10H9O+
145.099	35	C11H13+
147.0796	187	C10H11O+
148.0824	29	C9[13]CH11O+
149.0745	15	C10H10F+
149.0947	59	C10H13O+
151.0726	27	C9H11O2+
151.0915	28	C10H12F+
153.0711	16	C9H10FO+
153.0902	42	C9H13O2+
155.0853	20	C12H11+
158.0708	30	C11H10O+
159.08	165	C11H11O+
159.1155	21	C12H15+
160.082	23	C10[13]CH11O+
161.0601	22	C10H9O2+
161.0765	19	C11H10F+
161.0947	199	C11H13O+
163.0737	39	C10H11O2+
163.0898	29	C11H12F+
163.1101	15	C11H15O+
165.0708	70	C10H10FO+
165.0892	31	C10H13O2+
165.1074	27	C11H14F+
167.0848	20	C13H11+
169.0644	58	C12H9O+
169.0988	19	C13H13+
170.0685	20	C12H10O+
171.0795	229	C12H11O+
172.0829	31	C11[13]CH11O+
173.0608	16	C8H10FO3+
173.0942	87	C12H13O+
175.075	15	C11H11O2+
175.0888	27	C12H12F+
177.0882	24	C11H13O2+
179.0849	61	C14H11+
179.1062	15	C11H15O2+
181.1005	56	C14H13+
183.0794	49	C13H11O+
185.059	37	C12H9O2+
185.0961	77	C13H13O+
187.0741	82	C12H11O2+
187.1101	52	C13H15O+
188.0787	16	C11[13]CH11O2+
189.0692	44	C15H9+
189.0933	20	C6H15F2O4+
189.106	51	C13H14F+
190.0741	16	C15H10+
191.0844	69	C15H11+
191.1076	17	C9H16FO3+
193.1004	33	C15H13+
195.0795	31	C14H11O+
195.0946	16	C12H13F2+
196.085	28	C14H12O+
197.0955	72	C14H13O+
198.0991	17	C14H14O+
199.1129	26	C11H16FO2+
201.0884	27	C13H13O2+
203.0858	27	C16H11+
203.1081	16	C10H16FO3+
204.0922	15	C16H12+
205.0667	27	C9H11F2O3+
205.0999	47	C16H13+
207.1189	47	C10H17F2O2+
208.0874	21	C15H12O+
209.0955	103	C15H13O+
209.1324	23	C16H17+
210.1017	70	C15H14O+
211.1106	111	C15H15O+
213.0931	58	C8H15F2O4+
213.1264	36	C15H17O+
214.0956	16	C14H14O2+
217.1012	23	C17H13+
219.1161	46	C17H15+
221.0942	68	C16H13O+
222.1024	77	C16H14O+
223.1114	124	C16H15O+
224.1146	29	C15[13]CH15O+
225.1268	211	C16H17O+
226.132	40	C15[13]CH17O+
227.1064	25	C15H15O2+
227.1261	24	C12H19O4+
227.1407	28	C16H19O+
229.1001	22	C18H13+
230.1087	20	C18H14+
231.1186	24	C12H17F2O2+
233.0953	31	C17H13O+
233.1346	27	C12H19F2O2+
235.1109	421	C17H15O+
236.115	105	C16[13]CH15O+
237.09	21	C16H13O2+
237.1265	367	C17H17O+
238.0981	39	C16H14O2+
238.1299	87	C16[13]CH17O+
239.1074	56	C13H16FO3+
239.1424	37	C17H19O+
240.1105	18	C16H16O2+
241.1008	24	C19H13+
241.1186	20	C16H17O2+
243.1181	21	C16H16FO+
244.123	18	C19H16+
246.1034	20	C18H14O+
246.1362	18	C19H18+
247.1114	52	C18H15O+
247.1481	16	C19H19+
248.1194	38	C18H16O+
249.1267	63	C18H17O+
249.1624	24	C19H21+
250.1318	33	C18H18O+
251.1063	37	C17H15O2+
251.1427	99	C18H19O+
252.1446	21	C17[13]CH19O+
253.1215	999	C17H17O2+
254.1253	184	C16[13]CH17O2+
255.1189	59	C20H15+
255.1363	37	C17H19O2+
256.1205	17	C19[13]CH15+
257.1326	61	C20H17+
259.1106	43	C19H15O+
259.148	28	C20H19+
260.1187	59	C19H16O+
261.126	142	C19H17O+
262.1333	73	C19H18O+
263.142	76	C19H19O+
264.1132	20	C18H16O2+
264.1466	21	C18[13]CH19O+
265.1206	51	C18H17O2+
265.1582	79	C16H22FO2+
266.1639	19	C15[13]CH22FO2+
267.1155	15	C21H15+
267.1405	18	C12H21F2O4+
267.1738	23	C19H23O+
272.1213	24	C14H18F2O3+
273.1278	185	C20H17O+
274.1353	82	C20H18O+
275.1421	196	C20H19O+
276.1482	88	C20H20O+
277.1205	51	C19H17O2+
277.1585	487	C20H21O+
278.1292	21	C19H18O2+
278.1615	104	C19[13]CH21O+
279.1375	89	C19H19O2+
279.1706	40	C20H23O+
280.1423	33	C18[13]CH19O2+
281.1298	18	C22H17+
281.152	18	C19H21O2+
287.143	65	C21H19O+
289.1559	112	C21H21O+
290.1627	35	C20[13]CH21O+
291.1361	32	C20H19O2+
292.1446	26	C20H20O2+
293.1506	64	C20H21O2+
294.1564	22	C19[13]CH21O2+
295.169	113	C20H23O2+
296.1684	47	C16H24O5+
297.1668	42	C17H23F2O2+
298.1688	18	C20H23FO+
299.1413	44	C22H19O+
302.1296	19	C21H18O2+
305.1529	60	C21H21O2+
306.1555	27	C21H22O2+
307.1663	84	C18H24FO3+
308.1746	18	C17[13]CH24FO3+
309.1598	17	C21H22FO+
311.1364	14	C16H20FO5+
311.1675	15	C14H25F2O5+
313.1564	15	C20H22FO2+
315.1757	24	C20H24FO2+
317.1523	56	C22H21O2+
318.1574	17	C21[13]CH21O2+
323.1645	31	C21H23O3+
325.1755	21	C22H23F2+
335.1631	84	C22H23O3+
336.1702	28	C21[13]CH23O3+
337.159	20	C22H22FO2+
353.1771	40	C19H26FO5+
355.1706	16	C22H24FO3+
373.1787	18	C22H26FO4+
375.1676	16	C21H24FO5+
