Mass spectrum: Amcinonide; LC-ESI-QTOF; MS2; CE: 50 eV; R=35000; [M+H]+
Name: Amcinonide
Name: [2-[(1S,2S,4R,8S,9S,11S,12R,13S)-12-fluoro-11-hydroxy-9,13-dimethyl-16-oxospiro[5,7-dioxapentacyclo[10.8.0.02,9.04,8.013,18]icosa-14,17-diene-6,1`-cyclopentane]-8-yl]-2-oxoethyl] acetate
Formula: C28H35FO7
Exact mass: 502.2366817
SMILES: [H][C@@]12C[C@H]3OC4(CCCC4)O[C@@]3(C(=O)COC(C)=O)[C@@]1(C)C[C@H](O)[C@@]1(F)[C@@]2([H])CCC2=CC(=O)C=C[C@]12C
InChI: InChI=1S/C28H35FO7/c1-16(30)34-15-22(33)28-23(35-26(36-28)9-4-5-10-26)13-20-19-7-6-17-12-18(31)8-11-24(17,2)27(19,29)21(32)14-25(20,28)3/h8,11-12,19-21,23,32H,4-7,9-10,13-15H2,1-3H3/t19-,20-,21-,23+,24-,25-,27-,28+/m0/s1
Instrument: Bruker maXis Impact
Instrument type: LC-ESI-QTOF
Ms type: MS2
Ion mode: POSITIVE
Ionization: ESI
Fragmentation mode: CID
Collision energy: 50 eV
Resolution: 35000
Column name: Acclaim RSLC C18 2.2um, 2.1x100mm, Thermo
Retention time: 11.184 min
Base peak: 503.2434
Precursor m/z: 503.244
Precursor type: [M+H]+
m/z	relative intensity	assigned
115.0544	57	C9H7+
117.0687	32	C9H9+
119.0857	66	C9H11+
121.0639	399	C8H9O+
123.0419	33	C7H7O2+
123.0808	82	C8H11O+
125.0582	34	C7H9O2+
128.0606	149	C10H8+
129.069	72	C10H9+
131.0473	47	C9H7O+
131.0846	150	C10H11+
132.0562	35	C9H8O+
133.0635	181	C9H9O+
133.1002	30	C10H13+
135.0793	267	C9H11O+
136.082	35	C8[13]CH11O+
137.0589	83	C8H9O2+
139.053	29	C11H7+
139.0749	27	C8H11O2+
141.0697	74	C11H9+
142.0758	44	C11H10+
143.084	256	C11H11+
144.0564	36	C10H8O+
144.0893	37	C10[13]CH11+
145.064	294	C10H9O+
145.1016	52	C11H13+
147.0794	999	C10H11O+
148.0827	91	C9[13]CH11O+
149.0585	68	C9H9O2+
151.0746	133	C9H11O2+
153.0549	33	C8H9O3+
153.0664	40	C12H9+
153.0908	30	C9H13O2+
155.0852	127	C12H11+
157.0639	63	C11H9O+
157.0997	62	C12H13+
158.0705	170	C11H10O+
159.079	674	C11H11O+
160.0833	96	C10[13]CH11O+
161.0578	211	C10H9O2+
161.0948	299	C11H13O+
162.0613	32	C9[13]CH9O2+
162.0987	54	C10[13]CH13O+
163.0746	57	C10H11O2+
165.0695	52	C13H9+
167.0698	45	C9H11O3+
167.0833	46	C13H11+
169.0639	108	C12H9O+
169.084	30	C9H13O3+
169.0991	49	C13H13+
170.0707	41	C12H10O+
171.079	876	C12H11O+
172.0826	173	C11[13]CH11O+
173.0944	565	C12H13O+
174.0978	54	C11[13]CH13O+
175.0754	31	C11H11O2+
175.113	40	C9H16FO2+
177.0907	27	C11H13O2+
178.0765	32	C14H10+
179.0683	53	C10H11O3+
179.0832	151	C14H11+
180.0906	79	C14H12+
181.0631	47	C13H9O+
181.1001	73	C14H13+
182.0715	45	C13H10O+
183.0788	124	C13H11O+
183.1154	42	C14H15+
184.0849	41	C13H12O+
185.0594	63	C12H9O2+
185.0944	327	C13H13O+
186.0998	71	C12[13]CH13O+
187.0739	274	C12H11O2+
187.1089	106	C13H15O+
188.0781	37	C11[13]CH11O2+
189.0698	34	C15H9+
189.0897	48	C12H13O2+
190.0785	58	C12H11FO+
191.0843	77	C15H11+
192.0922	95	C15H12+
193.101	102	C15H13+
194.0726	33	C14H10O+
194.1084	39	C15H14+
195.08	151	C14H11O+
195.1153	143	C15H15+
196.0864	112	C14H12O+
196.1199	27	C14[13]CH15+
197.0949	300	C14H13O+
197.131	130	C15H17+
198.1009	116	C14H14O+
198.1358	31	C14[13]CH17+
199.0755	39	C13H11O2+
199.1106	194	C14H15O+
200.1148	31	C13[13]CH15O+
201.0875	35	C13H13O2+
201.1256	27	C14H17O+
203.0856	47	C16H11+
204.0913	45	C16H12+
205.067	46	C12H10FO2+
205.0999	121	C16H13+
206.1048	46	C16H14+
207.0792	53	C15H11O+
207.1148	196	C16H15+
208.0886	154	C15H12O+
208.1188	34	C15[13]CH15+
209.095	390	C15H13O+
209.132	49	C16H17+
210.1018	246	C15H14O+
211.0157	115	C16H3O+
211.1096	272	C15H15O+
211.1457	29	C16H19+
212.0153	38	C9H5FO5+
212.1171	123	C15H16O+
213.09	95	C14H13O2+
213.1261	998	C15H17O+
214.1298	155	C14[13]CH17O+
215.0834	31	C17H11+
215.1425	31	C15H19O+
216.0915	49	C17H12+
217.1003	57	C17H13+
218.1073	68	C17H14+
219.0789	73	C16H11O+
219.1152	101	C17H15+
220.0874	51	C16H12O+
220.1226	37	C17H16+
221.0955	217	C16H13O+
221.1322	73	C17H17+
222.1027	186	C16H14O+
223.1099	641	C16H15O+
224.1172	294	C16H16O+
225.0908	56	C15H13O2+
225.126	662	C16H17O+
226.0984	28	C15H14O2+
226.1305	145	C15[13]CH17O+
227.0852	29	C18H11+
227.1066	74	C15H15O2+
227.1407	81	C16H19O+
228.0928	26	C18H12+
228.1477	34	C16H20O+
229.0987	40	C18H13+
230.1092	47	C18H14+
231.082	37	C14H12FO2+
231.1147	79	C18H15+
232.0886	47	C17H12O+
232.1228	57	C18H16+
233.0923	91	C17H13O+
233.1315	111	C18H17+
234.1021	126	C17H14O+
234.1376	42	C18H18+
235.1111	375	C17H15O+
235.1461	103	C18H19+
236.083	26	C16H12O2+
236.115	154	C17H16O+
237.0904	51	C16H13O2+
237.1269	392	C17H17O+
238.0985	55	C16H14O2+
238.1321	138	C17H18O+
239.1039	65	C16H15O2+
239.1426	166	C17H19O+
240.1119	28	C16H16O2+
240.1468	41	C16[13]CH19O+
241.089	37	C12H14FO4+
241.1213	85	C16H17O2+
242.1079	68	C19H14+
242.1274	24	C15[13]CH17O2+
243.1156	52	C19H15+
245.0967	117	C18H13O+
245.1309	81	C19H17+
246.1028	158	C18H14O+
247.1095	157	C18H15O+
247.1477	108	C19H19+
248.1182	242	C18H16O+
248.1525	26	C18[13]CH19+
249.0884	34	C17H13O2+
249.1262	228	C18H17O+
250.0997	39	C14H15FO3+
250.1329	156	C18H18O+
251.105	91	C17H15O2+
251.1418	335	C18H19O+
252.1476	80	C17[13]CH19O+
253.1209	175	C17H17O2+
253.158	67	C18H21O+
254.1246	42	C16[13]CH17O2+
255.1348	42	C17H19O2+
257.1306	81	C20H17+
258.1009	41	C19H14O+
258.1372	45	C20H18+
259.1095	101	C19H15O+
260.1188	336	C19H16O+
261.1256	272	C19H17O+
262.0986	40	C18H14O2+
262.1321	209	C19H18O+
263.1086	49	C15H16FO3+
263.1418	470	C19H19O+
264.1133	96	C18H16O2+
264.1453	104	C18[13]CH19O+
265.1207	110	C18H17O2+
265.1585	278	C19H21O+
266.127	29	C17[13]CH17O2+
266.1612	45	C18[13]CH21O+
267.1364	86	C18H19O2+
268.1447	28	C18H20O2+
269.1547	32	C15H22FO3+
270.1009	39	C20H14O+
271.1067	29	C20H15O+
273.1259	41	C20H17O+
274.0978	33	C19H14O2+
274.1331	46	C20H18O+
275.1046	24	C19H15O2+
275.1415	478	C20H19O+
276.1142	28	C19H16O2+
276.1455	120	C19[13]CH19O+
277.1239	136	C16H18FO3+
277.1523	25	C20H21O+
278.1291	126	C19H18O2+
279.136	187	C19H19O2+
280.1421	106	C19H20O2+
281.1517	103	C19H21O2+
282.1577	26	C18[13]CH21O2+
285.128	72	C18H18FO2+
286.1355	25	C17[13]CH18FO2+
287.1065	25	C20H15O2+
288.1135	111	C20H16O2+
289.1172	31	C19[13]CH16O2+
290.1244	25	C20H18O2+
291.136	68	C20H19O2+
292.143	32	C20H20O2+
293.1537	242	C20H21O2+
294.1563	56	C19[13]CH21O2+
295.133	49	C19H19O3+
297.147	31	C19H21O3+
303.137	152	C21H19O2+
304.1414	59	C21H20O2+
306.124	34	C20H18O3+
311.1651	74	C17H24FO4+
312.165	39	C20H24O3+
321.1465	164	C21H21O3+
322.1516	38	C20[13]CH21O3+
339.1568	62	C21H23O4+
