Mass spectrum: 6-beta-Hydroxycortisol; LC-ESI-QTOF; MS2; CE: 10 eV; R=35000; [M+H]+
Name: 6-beta-Hydroxycortisol
Name: 6beta-Hydroxycortisol
Name: (6R,8S,9S,10R,11S,13S,14S,17R)-6,11,17-trihydroxy-17-(2-hydroxyacetyl)-10,13-dimethyl-2,6,7,8,9,11,12,14,15,16-decahydro-1H-cyclopenta[a]phenanthren-3-one
Formula: C21H30O6
Exact mass: 378.2042387
SMILES: C[C@]12C[C@H](O)[C@H]3[C@@H](C[C@@H](O)C4=CC(=O)CC[C@]34C)[C@@H]1CC[C@]2(O)C(=O)CO
InChI: InChI=1S/C21H30O6/c1-19-5-3-11(23)7-14(19)15(24)8-12-13-4-6-21(27,17(26)10-22)20(13,2)9-16(25)18(12)19/h7,12-13,15-16,18,22,24-25,27H,3-6,8-10H2,1-2H3/t12-,13-,15+,16-,18+,19-,20-,21-/m0/s1
Instrument: Bruker maXis Impact
Instrument type: LC-ESI-QTOF
Ms type: MS2
Ion mode: POSITIVE
Ionization: ESI
Fragmentation mode: CID
Collision energy: 10 eV
Resolution: 35000
Column name: Acclaim RSLC C18 2.2um, 2.1x100mm, Thermo
Retention time: 4.419 min
Base peak: 379.211
Precursor m/z: 379.2115
Precursor type: [M+H]+
m/z	relative intensity	assigned
173.0953	5	C12H13O+
217.1195	5	C14H17O2+
239.1406	12	C17H19O+
247.1466	6	C19H19+
265.1574	12	C19H21O+
267.175	15	C19H23O+
279.1725	7	C20H23O+
283.1695	11	C19H23O2+
284.1786	6	C19H24O2+
285.185	13	C19H25O2+
289.1603	8	C21H21O+
295.1686	6	C20H23O2+
297.187	13	C20H25O2+
301.1809	8	C19H25O3+
307.1685	17	C21H23O2+
308.1727	7	C20[13]CH23O2+
313.1772	35	C20H25O3+
314.1844	8	C19[13]CH25O3+
315.195	7	C20H27O3+
325.1807	66	C21H25O3+
326.1854	15	C20[13]CH25O3+
331.1923	10	C20H27O4+
343.1894	84	C21H27O4+
344.193	25	C20[13]CH27O4+
361.2018	32	C21H29O5+
362.2058	10	C20[13]CH29O5+
379.2115	999	C21H31O6+
380.2143	230	C20[13]CH31O6+
381.2142	39	C19[13]C2H31O6+
