Mass spectrum: 2-(4-Morpholinyl)benzothiazole; LC-ESI-QTOF; MS2; CE: Ramp 20-30 eV; R=35000; [M+H]+
Name: 2-(4-Morpholinyl)benzothiazole
Name: 4-(1,3-benzothiazol-2-yl)morpholine
Formula: C11H12N2OS
Exact mass: 220.0670340
SMILES: C1CN(CCO1)C1=NC2=CC=CC=C2S1
InChI: InChI=1S/C11H12N2OS/c1-2-4-10-9(3-1)12-11(15-10)13-5-7-14-8-6-13/h1-4H,5-8H2
Instrument: Bruker maXis Impact
Instrument type: LC-ESI-QTOF
Ms type: MS2
Ion mode: POSITIVE
Ionization: ESI
Fragmentation mode: CID
Collision energy: Ramp 20-30 eV
Resolution: 35000
Column name: Acclaim RSLC C18 2.2um, 2.1x100mm, Thermo
Retention time: 8.494 min
Base peak: 221.074
Precursor m/z: 221.0743
Precursor type: [M+H]+
m/z	relative intensity	assigned
109.0116	24	C6H5S+
117.0573	12	C8H7N+
124.0216	10	C6H6NS+
136.0212	91	C7H6NS+
137.0242	5	C6[13]CH6NS+
149.0227	28	C11H3N+
150.0367	152	C11H4N+
151.0385	9	C10[13]CH4N+
175.0313	13	C9H7N2S+
177.0474	548	C9H9N2S+
178.0505	37	C8[13]CH9N2S+
179.043	15	C9H9N2[34]S+
203.0628	11	C11H11N2S+
219.0577	7	C11H11N2OS+
221.0743	999	C11H13N2OS+
222.077	142	C10[13]CH13N2OS+
223.0709	45	C11H13N2O[34]S+
