Mass spectrum: Betamethasone-17-valerate; LC-ESI-QTOF; MS2; CE: 50 eV; R=35000; [M+H]+
Name: Betamethasone-17-valerate
Name: Betamethasone 17-valerate
Name: [9-fluoro-11-hydroxy-17-(2-hydroxyacetyl)-10,13,16-trimethyl-3-oxo-6,7,8,11,12,14,15,16-octahydrocyclopenta[a]phenanthren-17-yl] pentanoate
Formula: C27H37FO6
Exact mass: 476.2574171
SMILES: CCCCC(=O)OC1(C(C)CC2C3CCC4=CC(=O)C=CC4(C)C3(F)C(O)CC12C)C(=O)CO
InChI: InChI=1S/C27H37FO6/c1-5-6-7-23(33)34-27(22(32)15-29)16(2)12-20-19-9-8-17-13-18(30)10-11-24(17,3)26(19,28)21(31)14-25(20,27)4/h10-11,13,16,19-21,29,31H,5-9,12,14-15H2,1-4H3
Instrument: Bruker maXis Impact
Instrument type: LC-ESI-QTOF
Ms type: MS2
Ion mode: POSITIVE
Ionization: ESI
Fragmentation mode: CID
Collision energy: 50 eV
Resolution: 35000
Column name: Acclaim RSLC C18 2.2um, 2.1x100mm, Thermo
Retention time: 11.034 min
Base peak: 477.2643
Precursor m/z: 477.2647
Precursor type: [M+H]+
m/z	relative intensity	assigned
115.0539	61	C9H7+
116.0628	12	C6H9FO+
117.0697	26	C9H9+
119.0849	187	C9H11+
120.0881	29	C8[13]CH11+
121.0641	265	C8H9O+
121.1005	101	C9H13+
122.0669	14	C7[13]CH9O+
123.0794	87	C8H11O+
124.0836	7	C7[13]CH11O+
125.0598	12	C7H9O2+
125.0943	9	C8H13O+
128.061	140	C10H8+
129.068	75	C10H9+
130.0764	24	C10H10+
131.0485	36	C9H7O+
131.0845	147	C10H11+
132.0559	53	C9H8O+
132.0889	20	C9[13]CH11+
133.0632	47	C9H9O+
133.1003	91	C10H13+
134.104	8	C9[13]CH13+
135.0793	312	C9H11O+
136.0828	35	C8[13]CH11O+
137.0943	37	C9H13O+
138.0979	7	C8[13]CH13O+
139.0731	9	C8H11O2+
139.0906	10	C9H12F+
141.0688	86	C11H9+
142.0763	48	C11H10+
143.0843	171	C11H11+
144.0557	66	C10H8O+
144.088	29	C10[13]CH11+
145.0634	164	C10H9O+
145.0996	108	C11H13+
146.0698	51	C10H10O+
146.1026	16	C10[13]CH13+
147.0793	999	C10H11O+
148.0826	115	C9[13]CH11O+
149.0947	103	C10H13O+
151.0744	10	C9H11O2+
152.0616	12	C12H8+
153.0693	20	C12H9+
153.0895	31	C9H13O2+
154.0762	11	C12H10+
155.0847	71	C12H11+
156.0562	13	C11H8O+
156.0909	37	C12H12+
157.0631	41	C11H9O+
157.1003	93	C12H13+
158.0709	128	C11H10O+
158.1057	15	C11[13]CH13+
159.0793	598	C11H11O+
160.0836	84	C10[13]CH11O+
161.0582	44	C10H9O2+
161.0734	14	C11H10F+
161.0951	245	C11H13O+
162.0988	36	C10[13]CH13O+
163.0749	40	C10H11O2+
163.1097	9	C11H15O+
165.0691	38	C13H9+
165.0904	13	C10H13O2+
166.0766	21	C13H10+
167.0849	35	C13H11+
167.1054	23	C10H15O2+
168.0554	16	C12H8O+
168.0906	12	C13H12+
169.0636	48	C12H9O+
169.0995	45	C13H13+
170.0715	47	C12H10O+
170.107	9	C12[13]CH13+
171.0796	719	C12H11O+
171.1145	50	C13H15+
172.0842	117	C11[13]CH11O+
173.0947	414	C12H13O+
174.0705	8	C8H11FO3+
174.0983	47	C11[13]CH13O+
175.0738	17	C11H11O2+
175.1108	58	C12H15O+
176.1145	10	C11[13]CH15O+
177.0691	7	C14H9+
177.0906	23	C11H13O2+
177.1044	7	C12H14F+
178.076	28	C14H10+
179.0839	74	C14H11+
180.0923	45	C14H12+
181.0641	20	C13H9O+
181.0995	45	C14H13+
182.0706	40	C13H10O+
182.1047	7	C13[13]CH13+
183.0796	81	C13H11O+
183.1167	24	C14H15+
184.0868	37	C13H12O+
184.1184	7	C13[13]CH15+
185.0952	366	C13H13O+
186.0997	75	C12[13]CH13O+
187.0743	230	C12H11O2+
187.1101	78	C13H15O+
188.0783	33	C11[13]CH11O2+
188.1146	13	C12[13]CH15O+
189.07	26	C15H9+
189.0889	41	C12H13O2+
189.1281	10	C10H18FO2+
190.0759	28	C15H10+
191.0842	58	C15H11+
192.0915	26	C15H12+
193.1006	84	C15H13+
194.0729	26	C14H10O+
194.1057	18	C14[13]CH13+
195.0792	78	C14H11O+
195.1157	51	C15H15+
196.0865	89	C14H12O+
196.1187	7	C14[13]CH15+
197.0944	184	C14H13O+
198.1016	57	C14H14O+
199.0736	38	C13H11O2+
199.1107	64	C14H15O+
200.1161	13	C13[13]CH15O+
201.092	15	C10H14FO3+
201.1064	8	C14H14F+
201.1256	12	C14H17O+
202.0742	18	C16H10+
203.0844	28	C16H11+
203.1048	9	C13H15O2+
203.1206	7	C14H16F+
204.0915	18	C16H12+
205.0667	7	C12H10FO2+
205.0998	73	C16H13+
206.0708	14	C15H10O+
206.1067	32	C16H14+
207.0803	31	C15H11O+
207.1152	34	C16H15+
208.0873	117	C15H12O+
208.1213	13	C16H16+
209.095	213	C15H13O+
209.1311	19	C16H17+
210.1012	138	C15H14O+
211.0734	19	C14H11O2+
211.1105	157	C15H15O+
212.0815	7	C14H12O2+
212.1171	53	C15H16O+
213.0886	12	C14H13O2+
213.1263	121	C15H17O+
214.129	17	C14[13]CH17O+
215.0855	37	C17H11+
215.1059	26	C14H15O2+
216.0924	32	C17H12+
217.0997	45	C17H13+
218.0714	9	C16H10O+
218.1074	39	C17H14+
219.0777	33	C16H11O+
219.1159	46	C17H15+
220.0878	38	C16H12O+
220.123	31	C17H16+
221.0952	254	C16H13O+
221.1313	28	C17H17+
222.1018	152	C16H14O+
222.1394	11	C17H18+
223.1106	366	C16H15O+
224.0816	14	C15H12O2+
224.1166	97	C15[13]CH15O+
225.0907	18	C15H13O2+
225.1255	77	C16H17O+
226.0962	14	C15H14O2+
226.1298	19	C15[13]CH17O+
227.0843	13	C18H11+
227.1057	17	C15H15O2+
227.1423	13	C16H19O+
228.0909	14	C18H12+
228.1033	8	C8H17FO6+
229.1012	61	C18H13+
230.1068	55	C18H14+
231.0791	13	C17H11O+
231.1148	50	C18H15+
232.0864	27	C17H12O+
232.1229	30	C18H16+
233.0958	78	C17H13O+
233.1317	35	C18H17+
234.1029	124	C17H14O+
234.1369	19	C18H18+
235.1107	227	C17H15O+
235.1478	44	C18H19+
236.0847	7	C13H13FO3+
236.1172	101	C17H16O+
236.154	13	C17[13]CH19+
237.0912	16	C16H13O2+
237.1267	152	C17H17O+
237.1625	14	C18H21+
238.0975	11	C16H14O2+
238.132	52	C17H18O+
239.1054	50	C13H16FO3+
239.1413	47	C17H19O+
240.1156	8	C12[13]CH16FO3+
240.1458	9	C16[13]CH19O+
241.101	15	C19H13+
241.1182	9	C16H17O2+
242.1083	26	C19H14+
243.1171	54	C19H15+
244.0869	9	C18H12O+
244.1229	40	C19H16+
245.0959	50	C18H13O+
245.1311	53	C19H17+
246.1039	60	C18H14O+
246.1394	27	C19H18+
247.1109	116	C18H15O+
247.1476	24	C19H19+
248.1187	218	C18H16O+
249.0898	12	C17H13O2+
249.1264	226	C18H17O+
249.1632	22	C19H21+
250.0982	8	C17H14O2+
250.1331	96	C18H18O+
250.1702	13	C19H22+
251.106	16	C17H15O2+
251.1416	70	C18H19O+
251.1788	12	C19H23+
252.1118	7	C17H16O2+
252.1491	32	C18H20O+
252.1825	15	C19H24+
253.1025	8	C17H14FO+
253.1217	14	C17H17O2+
253.1567	53	C15H22FO2+
254.1658	12	C14[13]CH22FO2+
255.1144	7	C20H15+
256.1236	21	C20H16+
257.0977	8	C16H14FO2+
257.1312	24	C20H17+
258.1036	25	C19H14O+
258.1384	31	C20H18+
259.1106	78	C19H15O+
259.1463	29	C20H19+
260.117	82	C19H16O+
260.153	10	C19[13]CH19+
261.1269	201	C19H17O+
261.1633	62	C20H21+
262.1335	268	C19H18O+
262.167	24	C20H22+
263.1425	611	C19H19O+
264.1117	15	C18H16O2+
264.1488	285	C19H20O+
265.1182	11	C18H17O2+
265.1542	75	C18[13]CH20O+
266.1628	16	C19H22O+
267.1364	17	C18H19O2+
267.177	10	C16H24FO2+
268.1237	9	C21H16+
268.1378	7	C11H21FO6+
269.1312	8	C21H17+
271.1122	52	C20H15O+
271.1467	14	C21H19+
272.1173	63	C20H16O+
273.1256	43	C20H17O+
273.1624	12	C21H21+
274.1331	100	C20H18O+
274.1608	7	C14H23FO4+
275.1048	29	C19H15O2+
275.1412	75	C20H19O+
276.1116	15	C19H16O2+
276.1498	131	C20H20O+
277.1199	37	C19H17O2+
277.1573	158	C20H21O+
278.1303	16	C19H18O2+
278.1647	202	C20H22O+
279.1376	25	C19H19O2+
279.1739	344	C20H23O+
280.1409	8	C19H20O2+
280.1777	81	C19[13]CH23O+
281.1507	52	C19H21O2+
281.1818	10	C18[13]C2H23O+
282.1566	8	C18[13]CH21O2+
283.1474	10	C22H19+
285.1281	15	C18H18FO2+
286.1336	91	C21H18O+
287.1367	29	C20[13]CH18O+
288.149	10	C21H20O+
289.122	44	C20H17O2+
289.1591	79	C21H21O+
290.1265	27	C20H18O2+
290.1618	19	C20[13]CH21O+
291.1369	36	C20H19O2+
291.1757	57	C21H23O+
292.1396	13	C20H20O2+
292.1764	10	C20[13]CH23O+
293.1538	13	C20H21O2+
294.159	6	C20H22O2+
295.1328	8	C19H19O3+
295.1691	9	C20H23O2+
297.1835	10	C20H25O2+
301.1586	40	C19H22FO2+
302.1651	7	C18[13]CH22FO2+
304.1454	28	C21H20O2+
305.1528	9	C20[13]CH20O2+
306.16	23	C21H22O2+
307.1686	23	C21H23O2+
308.1706	7	C20[13]CH23O2+
309.1838	9	C21H25O2+
319.1684	25	C22H23O2+
337.1772	8	C22H25O3+
