Mass spectrum: Paramethasone; LC-ESI-QTOF; MS2; CE: 10 eV; R=35000; [M+H]+
Name: Paramethasone
Name: (6S,8S,9S,10R,11S,13S,14S,16R,17R)-6-fluoro-11,17-dihydroxy-17-(2-hydroxyacetyl)-10,13,16-trimethyl-7,8,9,11,12,14,15,16-octahydro-6H-cyclopenta[a]phenanthren-3-one
Formula: C22H29FO5
Exact mass: 392.1999022
SMILES: [H][C@@]12C[C@@H](C)[C@](O)(C(=O)CO)[C@@]1(C)C[C@H](O)[C@@]1([H])[C@@]2([H])C[C@H](F)C2=CC(=O)C=C[C@]12C
InChI: InChI=1S/C22H29FO5/c1-11-6-14-13-8-16(23)15-7-12(25)4-5-20(15,2)19(13)17(26)9-21(14,3)22(11,28)18(27)10-24/h4-5,7,11,13-14,16-17,19,24,26,28H,6,8-10H2,1-3H3/t11-,13+,14+,16+,17+,19-,20+,21+,22+/m1/s1
Instrument: Bruker maXis Impact
Instrument type: LC-ESI-QTOF
Ms type: MS2
Ion mode: POSITIVE
Ionization: ESI
Fragmentation mode: CID
Collision energy: 10 eV
Resolution: 35000
Column name: Acclaim RSLC C18 2.2um, 2.1x100mm, Thermo
Retention time: 8.685 min
Base peak: 435.2176
Precursor m/z: 393.2072
Precursor type: [M+H]+
m/z	relative intensity	assigned
121.0638	10	C8H9O+
135.079	13	C9H11O+
139.0746	7	C8H11O2+
147.079	19	C10H11O+
161.0942	10	C11H13O+
171.0788	32	C12H11O+
172.0831	5	C11[13]CH11O+
173.0947	5	C12H13O+
177.0892	6	C11H13O2+
179.1056	14	C11H15O2+
185.0955	8	C13H13O+
187.1099	5	C13H15O+
191.105	6	C12H15O2+
195.101	10	C11H15O3+
197.0961	18	C14H13O+
203.1048	6	C13H15O2+
209.0944	5	C15H13O+
211.1111	15	C15H15O+
215.1062	7	C14H15O2+
221.115	11	C13H17O3+
223.111	31	C16H15O+
224.115	12	C16H16O+
225.126	18	C16H17O+
226.1302	5	C15[13]CH17O+
235.1107	24	C17H15O+
237.1269	51	C17H17O+
238.129	12	C16[13]CH17O+
239.1271	31	C13H19O4+
239.1411	37	C17H19O+
240.1443	7	C16[13]CH19O+
249.1268	9	C18H17O+
251.1414	6	C18H19O+
253.1236	5	C14H18FO3+
255.1359	6	C17H19O2+
261.125	7	C19H17O+
263.1413	15	C19H19O+
265.1585	5	C19H21O+
267.1379	10	C18H19O2+
275.1416	26	C20H19O+
276.1466	7	C19[13]CH19O+
277.1171	5	C19H17O2+
277.1589	42	C20H21O+
278.163	15	C20H22O+
279.1743	67	C20H23O+
280.177	19	C19[13]CH23O+
281.1892	5	C20H25O+
289.1559	11	C21H21O+
291.1742	41	C21H23O+
292.1763	12	C20[13]CH23O+
293.1534	8	C20H21O2+
295.1683	22	C20H23O2+
296.1723	6	C19[13]CH23O2+
297.1836	27	C20H25O2+
298.1862	5	C19[13]CH25O2+
301.1568	42	C19H22FO2+
302.1646	7	C18[13]CH22FO2+
307.1689	24	C21H23O2+
309.1835	50	C21H25O2+
310.1882	10	C20[13]CH25O2+
319.1687	115	C22H23O2+
320.1721	26	C21[13]CH23O2+
321.1768	5	C18H25O5+
325.1809	24	C21H25O3+
326.1838	7	C20[13]CH25O3+
327.1943	27	C21H27O3+
337.1799	237	C22H25O3+
338.1825	62	C21[13]CH25O3+
339.1799	6	C20[13]C2H25O3+
345.1856	5	C21H26FO3+
355.1898	325	C22H27O4+
356.1932	86	C21[13]CH27O4+
357.1865	30	C22H26FO3+
358.1909	8	C21[13]CH26FO3+
373.2015	55	C22H29O5+
374.2027	16	C21[13]CH29O5+
375.1967	232	C22H28FO4+
376.1999	66	C21[13]CH28FO4+
377.2029	11	C22H30FO4+
393.2073	999	C22H30FO5+
394.2106	256	C21[13]CH30FO5+
395.2128	35	C20[13]C2H30FO5+
