Mass spectrum: Carbendazim; LC-ESI-QTOF; MS2; CE: 50 eV; R=35000; [M+H]+
Name: Carbendazim
Name: methyl N-(1H-benzimidazol-2-yl)carbamate
Formula: C9H9N3O2
Exact mass: 191.0694765
SMILES: COC(=O)NC1=NC2=CC=CC=C2N1
InChI: InChI=1S/C9H9N3O2/c1-14-9(13)12-8-10-6-4-2-3-5-7(6)11-8/h2-5H,1H3,(H2,10,11,12,13)
Instrument: Bruker maXis Impact
Instrument type: LC-ESI-QTOF
Ms type: MS2
Ion mode: POSITIVE
Ionization: ESI
Fragmentation mode: CID
Collision energy: 50 eV
Resolution: 35000
Column name: Acclaim RSLC C18 2.2um, 2.1x100mm, Thermo
Retention time: 5.275 min
Base peak: 192.0763
Precursor m/z: 192.0768
Precursor type: [M+H]+
m/z	relative intensity	assigned
105.0444	5	C6H5N2+
117.0439	67	C7H5N2+
118.0515	41	C7H6N2+
130.0372	6	C7H4N3+
131.0466	27	C7H5N3+
132.0547	942	C7H6N3+
133.0386	28	C7H5N2O+
133.0609	184	C7H7N3+
134.0669	15	C6[13]CH7N3+
135.0542	92	C7H7N2O+
136.058	11	C6[13]CH7N2O+
159.0417	42	C8H5N3O+
160.0493	999	C8H6N3O+
161.0518	95	C7[13]CH6N3O+
162.0536	8	C9H8NO2+
