Mass spectrum: Trenbolone; LC-ESI-QTOF; MS2; CE: 40 eV; R=35000; [M+H]+
Name: Trenbolone
Name: Trenbolone:17-Hydroxyestra-4,9,11-trien-3-one
Name: (13S,17S)-17-hydroxy-13-methyl-2,6,7,8,14,15,16,17-octahydro-1H-cyclopenta[a]phenanthren-3-one
Formula: C18H22O2
Exact mass: 270.1619799
SMILES: C[C@]12C=CC3=C4CCC(=O)C=C4CCC3C1CC[C@@H]2O
InChI: InChI=1S/C18H22O2/c1-18-9-8-14-13-5-3-12(19)10-11(13)2-4-15(14)16(18)6-7-17(18)20/h8-10,15-17,20H,2-7H2,1H3/t15?,16?,17-,18-/m0/s1
Instrument: Bruker maXis Impact
Instrument type: LC-ESI-QTOF
Ms type: MS2
Ion mode: POSITIVE
Ionization: ESI
Fragmentation mode: CID
Collision energy: 40 eV
Resolution: 35000
Column name: Acclaim RSLC C18 2.2um, 2.1x100mm, Thermo
Retention time: 8.925 min
Base peak: 271.1692
Precursor m/z: 271.1693
Precursor type: [M+H]+
m/z	relative intensity	assigned
115.0537	77	C9H7+
116.0604	19	C9H8+
117.0689	56	C9H9+
118.0734	8	C8[13]CH9+
119.0845	30	C9H11+
121.0635	28	C8H9O+
123.0793	6	C8H11O+
126.0455	5	C10H6+
127.0538	17	C10H7+
128.061	184	C10H8+
129.0687	221	C10H9+
130.0756	47	C10H10+
131.0481	67	C9H7O+
131.0844	160	C10H11+
132.0547	20	C9H8O+
132.088	18	C9[13]CH11+
133.0638	197	C9H9O+
133.0999	25	C10H13+
134.0682	26	C8[13]CH9O+
135.0794	75	C9H11O+
136.0828	7	C8[13]CH11O+
141.0687	304	C11H9+
142.0759	121	C11H10+
143.0843	214	C11H11+
144.056	93	C10H8O+
144.0896	27	C10[13]CH11+
145.0633	139	C10H9O+
145.0999	139	C11H13+
146.0708	35	C10H10O+
146.1048	20	C10[13]CH13+
147.0792	79	C10H11O+
148.0866	47	C10H12O+
149.0938	9	C10H13O+
152.0607	62	C12H8+
153.0684	146	C12H9+
154.0759	98	C12H10+
155.0841	308	C12H11+
156.0907	73	C12H12+
157.0635	340	C11H9O+
157.1	110	C12H13+
158.0699	83	C11H10O+
158.1031	16	C11[13]CH13+
159.0791	245	C11H11O+
159.1161	18	C12H15+
160.0838	33	C10[13]CH11O+
161.0948	61	C11H13O+
162.1009	7	C10[13]CH13O+
165.0687	271	C13H9+
166.0758	219	C13H10+
167.084	288	C13H11+
168.0906	112	C13H12+
169.0632	45	C12H9O+
169.0997	220	C13H13+
170.0713	38	C12H10O+
170.1056	43	C12[13]CH13+
171.079	145	C12H11O+
171.1156	72	C13H15+
172.085	34	C12H12O+
172.121	9	C12[13]CH15+
173.0945	59	C12H13O+
174.1009	13	C11[13]CH13O+
175.1105	10	C12H15O+
177.0686	7	C14H9+
178.0763	171	C14H10+
179.084	273	C14H11+
180.0908	122	C14H12+
181.064	36	C13H9O+
181.0998	266	C14H13+
182.0713	49	C13H10O+
182.1059	63	C13[13]CH13+
183.079	153	C13H11O+
183.1157	145	C14H15+
184.0866	137	C13H12O+
184.1204	28	C13[13]CH15+
185.0948	306	C13H13O+
185.1304	17	C14H17+
186.1016	146	C13H14O+
187.1097	70	C13H15O+
188.1171	13	C12[13]CH15O+
189.125	7	C13H17O+
190.0761	9	C15H10+
191.0844	56	C15H11+
192.0924	83	C15H12+
193.0996	119	C15H13+
194.0711	10	C14H10O+
194.1066	60	C15H14+
195.0791	53	C14H11O+
195.1155	146	C15H15+
196.0866	58	C14H12O+
196.123	46	C15H16+
197.0949	248	C14H13O+
197.1318	36	C15H17+
198.1023	227	C14H14O+
199.1108	999	C14H15O+
200.1172	336	C14H16O+
201.1222	46	C13[13]CH16O+
202.1275	5	C12[13]C2H16O+
203.0832	8	C16H11+
204.091	9	C16H12+
205.0997	86	C16H13+
206.1065	36	C16H14+
207.1157	100	C16H15+
208.0888	6	C15H12O+
208.1207	21	C15[13]CH15+
209.0952	66	C15H13O+
209.1317	73	C16H17+
210.1025	60	C15H14O+
210.1357	18	C15[13]CH17+
211.1105	137	C15H15O+
211.1467	45	C16H19+
212.118	129	C15H16O+
212.1508	7	C15[13]CH19+
213.1258	111	C15H17O+
214.1342	245	C15H18O+
215.1393	53	C14[13]CH18O+
218.1082	8	C17H14+
219.1155	28	C17H15+
220.1241	63	C17H16+
221.1297	30	C17H17+
222.1024	6	C16H14O+
222.1374	10	C17H18+
223.1106	64	C16H15O+
223.1473	16	C17H19+
224.1175	65	C16H16O+
224.1517	8	C17H20+
225.126	123	C16H17O+
225.1623	10	C17H21+
226.1307	25	C15[13]CH17O+
227.142	209	C16H19O+
228.1472	54	C15[13]CH19O+
229.1542	8	C16H21O+
233.131	7	C18H17+
235.1478	74	C18H19+
236.1172	13	C17H16O+
236.1508	15	C17[13]CH19+
237.127	67	C17H17O+
238.1341	172	C17H18O+
239.1391	38	C16[13]CH18O+
240.1479	6	C17H20O+
242.1285	10	C16H18O2+
243.1362	7	C16H19O2+
251.1421	11	C18H19O+
252.1512	7	C18H20O+
253.1581	246	C18H21O+
254.1614	47	C17[13]CH21O+
256.143	8	C17H20O2+
271.1683	108	C18H23O2+
272.1721	23	C17[13]CH23O2+
