Mass spectrum: Phenylbenzimidazole sulfonic acid; LC-ESI-QTOF; MS2; CE: 40 eV; R=35000; [M+H]+
Name: Phenylbenzimidazole sulfonic acid
Name: Ensulizole
Name: 2-phenyl-3H-benzimidazole-5-sulfonic acid
Formula: C13H10N2O3S
Exact mass: 274.0412132
SMILES: OS(=O)(=O)C1=CC=C2NC(=NC2=C1)C1=CC=CC=C1
InChI: InChI=1S/C13H10N2O3S/c16-19(17,18)10-6-7-11-12(8-10)15-13(14-11)9-4-2-1-3-5-9/h1-8H,(H,14,15)(H,16,17,18)
Instrument: Bruker maXis Impact
Instrument type: LC-ESI-QTOF
Ms type: MS2
Ion mode: POSITIVE
Ionization: ESI
Fragmentation mode: CID
Collision energy: 40 eV
Resolution: 35000
Column name: Acclaim RSLC C18 2.2um, 2.1x100mm, Thermo
Retention time: 4.674 min
Base peak: 169.0751
Precursor m/z: 275.0485
Precursor type: [M+H]+
m/z	relative intensity	assigned
166.0643	43	C12H8N+
167.0718	24	C12H9N+
168.071	20	C11H8N2+
182.0827	39	C12H10N2+
183.0874	20	C12H11N2+
193.0748	286	C13H9N2+
194.0827	999	C13H10N2+
195.0891	248	C13H11N2+
209.07	84	C13H9N2O+
210.0766	21	C13H10N2O+
211.0855	80	C13H11N2O+
212.0905	18	C12[13]CH11N2O+
226.0732	413	C13H10N2O2+
227.0768	74	C12[13]CH10N2O2+
275.0475	283	C13H11N2O3S+
276.0494	48	C12[13]CH11N2O3S+
