Mass spectrum: Imazalil; LC-ESI-QTOF; MS2; CE: 20 eV; R=35000; [M+H]+
Name: Imazalil
Name: Enilconazole
Name: 1-[2-(2,4-dichlorophenyl)-2-prop-2-enoxyethyl]imidazole
Formula: C14H14Cl2N2O
Exact mass: 296.0483184
SMILES: ClC1=CC=C(C(CN2C=CN=C2)OCC=C)C(Cl)=C1
InChI: InChI=1S/C14H14Cl2N2O/c1-2-7-19-14(9-18-6-5-17-10-18)12-4-3-11(15)8-13(12)16/h2-6,8,10,14H,1,7,9H2
Instrument: Bruker maXis Impact
Instrument type: LC-ESI-QTOF
Ms type: MS2
Ion mode: POSITIVE
Ionization: ESI
Fragmentation mode: CID
Collision energy: 20 eV
Resolution: 35000
Column name: Acclaim RSLC C18 2.2um, 2.1x100mm, Thermo
Retention time: 8.647 min
Base peak: 297.0561
Precursor m/z: 297.0556
Precursor type: [M+H]+
m/z	relative intensity	assigned
158.9753	218	C8ClN2+
159.9784	13	C7[13]CClN2+
160.9724	114	C8[37]ClN2+
172.9907	24	C9H2ClN2+
174.9881	12	C9H2[37]ClN2+
176.0378	73	C11H9Cl+
177.0406	8	C10[13]CH9Cl+
178.0351	14	C11H9[37]Cl+
184.9909	16	C10H2ClN2+
186.9877	8	C10H2[37]ClN2+
199.0069	13	C10H9Cl2+
200.9861	113	C10H2ClN2O+
201.9896	10	C9[13]CH2ClN2O+
202.983	60	C10H2[37]ClN2O+
211.0067	18	C11H9Cl2+
213.004	10	C11H9Cl[37]Cl+
229.0175	9	C11H11Cl2O+
255.0083	99	C11H9Cl2N2O+
256.0114	11	C10[13]CH9Cl2N2O+
257.0052	54	C11H9Cl[37]ClN2O+
297.0556	999	C14H15Cl2N2O+
298.0588	120	C13[13]CH15Cl2N2O+
299.0528	511	C14H15Cl[37]ClN2O+
