Mass spectrum: 4-Androstene-3,17-dione; LC-ESI-QTOF; MS2; CE: 30 eV; R=35000; [M+H]+
Name: 4-Androstene-3,17-dione
Name: Androstenedione
Name: (8R,9S,10R,13S,14S)-10,13-dimethyl-2,6,7,8,9,11,12,14,15,16-decahydro-1H-cyclopenta[a]phenanthrene-3,17-dione
Formula: C19H26O2
Exact mass: 286.1932801
SMILES: C[C@]12CC[C@H]3[C@@H](CCC4=CC(=O)CC[C@]34C)[C@@H]1CCC2=O
InChI: InChI=1S/C19H26O2/c1-18-9-7-13(20)11-12(18)3-4-14-15-5-6-17(21)19(15,2)10-8-16(14)18/h11,14-16H,3-10H2,1-2H3/t14-,15-,16-,18-,19-/m0/s1
Instrument: Bruker maXis Impact
Instrument type: LC-ESI-QTOF
Ms type: MS2
Ion mode: POSITIVE
Ionization: ESI
Fragmentation mode: CID
Collision energy: 30 eV
Resolution: 35000
Column name: Acclaim RSLC C18 2.2um, 2.1x100mm, Thermo
Retention time: 9.393 min
Base peak: 299.2009
Precursor m/z: 287.2006
Precursor type: [M+H]+
m/z	relative intensity	assigned
109.065	110	C7H9O+
115.0546	29	C9H7+
117.0694	79	C9H9+
119.0849	238	C9H11+
121.0633	61	C8H9O+
121.1004	107	C9H13+
123.0795	925	C8H11O+
124.0841	70	C7[13]CH11O+
125.0944	43	C8H13O+
128.06	72	C10H8+
129.0683	81	C10H9+
130.0774	36	C10H10+
131.084	416	C10H11+
132.0888	41	C9[13]CH11+
133.1001	552	C10H13+
134.1042	70	C9[13]CH13+
135.0798	46	C9H11O+
135.1167	100	C10H15+
137.096	82	C9H13O+
141.0677	63	C11H9+
143.0843	226	C11H11+
144.0914	48	C10[13]CH11+
145.1	665	C11H13+
146.1045	79	C10[13]CH13+
147.0808	45	C10H11O+
147.1168	243	C11H15+
149.0949	91	C10H13O+
149.1304	114	C11H17+
155.0844	132	C12H11+
157.0999	242	C12H13+
158.1073	38	C11[13]CH13+
159.08	55	C11H11O+
159.1161	462	C12H15+
160.1195	51	C11[13]CH15+
161.096	59	C11H13O+
161.1314	255	C12H17+
163.1111	84	C11H15O+
167.0862	40	C13H11+
169.1003	193	C13H13+
170.106	35	C12[13]CH13+
171.1159	334	C13H15+
172.1193	38	C12[13]CH15+
173.0942	59	C12H13O+
173.131	762	C13H17+
174.1336	126	C12[13]CH17+
175.1109	107	C12H15O+
175.146	52	C13H19+
177.1273	102	C12H17O+
179.1411	30	C12H19O+
181.0994	108	C14H13+
182.1054	50	C14H14+
183.116	272	C14H15+
184.1198	57	C13[13]CH15+
185.1318	432	C14H17+
186.1345	78	C13[13]CH17+
187.1111	43	C13H15O+
187.1477	213	C14H19+
189.1244	59	C13H17O+
191.1442	141	C13H19O+
195.1154	162	C15H15+
196.1236	75	C15H16+
197.1326	44	C15H17+
199.1111	38	C14H15O+
199.1474	174	C15H19+
200.1524	39	C14[13]CH19+
201.1271	61	C14H17O+
201.1621	36	C15H21+
203.1443	43	C14H19O+
205.1602	29	C14H21O+
209.1318	206	C16H17+
210.1375	31	C15[13]CH17+
211.1471	590	C16H19+
212.1516	122	C15[13]CH19+
213.129	59	C15H17O+
213.1636	54	C16H21+
214.1308	43	C15H18O+
217.1588	81	C15H21O+
223.1474	71	C17H19+
225.1639	137	C17H21+
226.166	34	C16[13]CH21+
227.1443	65	C16H19O+
227.179	153	C17H23+
229.158	332	C16H21O+
230.1633	66	C15[13]CH21O+
241.1953	59	C18H25+
243.1755	31	C17H23O+
245.1911	44	C17H25O+
251.1774	279	C19H23+
252.1803	52	C18[13]CH23+
269.1899	485	C19H25O+
270.1938	109	C18[13]CH25O+
287.1998	999	C19H27O2+
288.2045	190	C18[13]CH27O2+
