Mass spectrum: 1,2-Benzisothiazolinone; LC-ESI-QTOF; MS2; CE: Ramp 20-30 eV; R=35000; [M+H]+
Name: 1,2-Benzisothiazolinone
Name: 1,2-Benzisothiazol-3(2H)-one
Name: 1,2-benzothiazol-3-one
Formula: C7H5NOS
Exact mass: 151.0091848
SMILES: O=C1NSC2=CC=CC=C12
InChI: InChI=1S/C7H5NOS/c9-7-5-3-1-2-4-6(5)10-8-7/h1-4H,(H,8,9)
Instrument: Bruker maXis Impact
Instrument type: LC-ESI-QTOF
Ms type: MS2
Ion mode: POSITIVE
Ionization: ESI
Fragmentation mode: CID
Collision energy: Ramp 20-30 eV
Resolution: 35000
Column name: Acclaim RSLC C18 2.2um, 2.1x100mm, Thermo
Retention time: 5.130 min
Base peak: 152.0158
Precursor m/z: 152.0165
Precursor type: [M+H]+
m/z	relative intensity	assigned
80.0493	11	C5H6N+
105.0351	17	C7H5O+
109.0121	35	C6H5S+
124.0219	5	C6H6NS+
134.0053	137	C7H4NS+
135.0079	10	C6[13]CH4NS+
135.9983	5	C7H4OS+
151.0084	5	C7H5NOS+
152.0158	999	C7H6NOS+
153.0189	95	C6[13]CH6NOS+
154.0125	41	C7H6NO[34]S+
