Mass spectrum: Lauramidopropylbetaine; LC-ESI-QTOF; MS2; CE: Ramp 22.5-33.7 eV; R=35000; [M+H]+
Name: Lauramidopropylbetaine
Name: 3-(Dodecanoylamino)propyl(carboxymethyl)dimethylammonium
Name: carboxymethyl-[3-(dodecanoylamino)propyl]-dimethylazanium
Formula: [C19H39N2O3]+
Exact mass: 343.2960681
SMILES: CCCCCCCCCCCC(=O)NCCC[N+](C)(C)CC(O)=O
InChI: InChI=1S/C19H38N2O3/c1-4-5-6-7-8-9-10-11-12-14-18(22)20-15-13-16-21(2,3)17-19(23)24/h4-17H2,1-3H3,(H-,20,22,23,24)/p+1
Instrument: Bruker maXis Impact
Instrument type: LC-ESI-QTOF
Ms type: MS2
Ion mode: POSITIVE
Ionization: ESI
Fragmentation mode: CID
Collision energy: Ramp 22.5-33.7 eV
Resolution: 35000
Column name: Acclaim RSLC C18 2.2um, 2.1x100mm, Thermo
Retention time: 12.372 min
Base peak: 326.3787
Precursor m/z: 344.3033
Precursor type: [M+H]+
m/z	relative intensity	assigned
133.0853	13	C6H13O3+
223.0628	70	C14H9NO2+
224.0637	10	C13[13]CH9NO2+
225.0421	63	C13H7NO3+
226.0413	15	C12[13]CH7NO3+
227.0208	9	C15H3N2O+
237.0778	57	C15H11NO2+
238.0812	13	C14[13]CH11NO2+
240.232	104	C15H30NO+
241.235	19	C14[13]CH30NO+
265.024	10	C19H5O2+
267.001	10	C17HNO3+
281.0492	42	C19H7NO2+
282.0544	14	C18[13]CH7NO2+
283.0296	80	C18H5NO3+
284.0308	26	C17[13]CH5NO3+
285.0321	14	C17H5N2O3+
299.0616	999	C19H9NO3+
300.0632	180	C18[13]CH9NO3+
300.2896	27	C18H38NO2+
301.0613	42	C18H9N2O3+
