Mass spectrum: 17-alpha-Estradiol; LC-ESI-QTOF; MS2; CE: 40 eV; R=35000; [M+H]+
Name: 17-alpha-Estradiol
Name: Alfatradiol
Name: (8R,9S,13S,14S,17R)-13-methyl-6,7,8,9,11,12,14,15,16,17-decahydrocyclopenta[a]phenanthrene-3,17-diol
Formula: C18H24O2
Exact mass: 272.1776300
SMILES: C[C@]12CC[C@H]3[C@@H](CCC4=C3C=CC(O)=C4)[C@@H]1CC[C@H]2O
InChI: InChI=1S/C18H24O2/c1-18-9-8-14-13-5-3-12(19)10-11(13)2-4-15(14)16(18)6-7-17(18)20/h3,5,10,14-17,19-20H,2,4,6-9H2,1H3/t14-,15-,16+,17-,18+/m1/s1
Instrument: Bruker maXis Impact
Instrument type: LC-ESI-QTOF
Ms type: MS2
Ion mode: POSITIVE
Ionization: ESI
Fragmentation mode: CID
Collision energy: 40 eV
Resolution: 35000
Column name: Acclaim RSLC C18 2.2um, 2.1x100mm, Thermo
Retention time: 12.036 min
Base peak: 279.1582
Precursor m/z: 273.1849
Precursor type: [M+H]+
m/z	relative intensity	assigned
128.065	55	C10H8+
129.0683	199	C10H9+
141.0685	56	C11H9+
142.077	156	C11H10+
143.0833	81	C11H11+
155.0847	68	C12H11+
157.0646	74	C11H9O+
157.1001	370	C12H13+
158.104	62	C11[13]CH13+
182.107	78	C14H14+
183.117	106	C14H15+
185.0956	198	C13H13O+
191.085	62	C15H11+
197.131	484	C15H17+
198.1385	167	C15H18+
211.1098	106	C15H15O+
212.1553	378	C16H20+
213.1587	116	C15[13]CH20+
225.1268	999	C16H17O+
226.0441	280	C17H6O+
226.1305	222	C15[13]CH17O+
227.1775	140	C17H23+
228.0217	142	C16H4O2+
240.1502	291	C17H20O+
241.1525	66	C16[13]CH20O+
255.1727	239	C18H23O+
256.1776	74	C17[13]CH23O+
