Mass spectrum: Imazalil; LC-ESI-QTOF; MS2; CE: 40 eV; R=35000; [M+H]+
Name: Imazalil
Name: Enilconazole
Name: 1-[2-(2,4-dichlorophenyl)-2-prop-2-enoxyethyl]imidazole
Formula: C14H14Cl2N2O
Exact mass: 296.0483184
SMILES: ClC1=CC=C(C(CN2C=CN=C2)OCC=C)C(Cl)=C1
InChI: InChI=1S/C14H14Cl2N2O/c1-2-7-19-14(9-18-6-5-17-10-18)12-4-3-11(15)8-13(12)16/h2-6,8,10,14H,1,7,9H2
Instrument: Bruker maXis Impact
Instrument type: LC-ESI-QTOF
Ms type: MS2
Ion mode: POSITIVE
Ionization: ESI
Fragmentation mode: CID
Collision energy: 40 eV
Resolution: 35000
Column name: Acclaim RSLC C18 2.2um, 2.1x100mm, Thermo
Retention time: 8.688 min
Base peak: 169.0754
Precursor m/z: 297.0556
Precursor type: [M+H]+
m/z	relative intensity	assigned
115.0536	11	C9H7+
122.9984	42	C7H4Cl+
124.0058	11	C8N2+
124.9958	10	C7H4[37]Cl+
125.0149	6	C7H6Cl+
128.0612	11	C10H8+
129.0685	31	C10H9+
130.0742	5	C9[13]CH9+
132.96	10	C5H3Cl2+
136.0063	5	C9N2+
137.0133	23	C8H6Cl+
138.0217	23	C8H7Cl+
139.011	8	C8H6[37]Cl+
139.0531	9	C2H15Cl2NO+
140.018	6	C8H7[37]Cl+
140.0602	6	C11H8+
141.0687	119	C11H9+
142.0722	15	C10[13]CH9+
149.0141	17	C9H6Cl+
150.0214	30	C9H7Cl+
151.0115	5	C9H6[37]Cl+
152.0179	6	C9H7[37]Cl+
158.9752	999	C8ClN2+
159.9783	82	C7[13]CClN2+
160.972	534	C8[37]ClN2+
161.9761	21	C5H4Cl2N2+
163.0297	6	C11H3N2+
164.037	18	C10H9Cl+
166.0344	8	C10H9[37]Cl+
171.9843	7	C8H6Cl2+
172.9907	151	C8H7Cl2+
173.9936	13	C7[13]CH7Cl2+
174.9877	95	C8H7Cl[37]Cl+
175.0291	17	C11H8Cl+
175.992	7	C6H6Cl2N2+
176.0374	107	C11H9Cl+
177.0273	8	C11H8[37]Cl+
177.0409	18	C10[13]CH9Cl+
178.035	25	C11H9[37]Cl+
182.9759	9	C9H5Cl2+
184.9709	6	C9H5Cl[37]Cl+
186.9706	13	C8H5Cl2O+
188.9666	7	C8H5Cl[37]ClO+
195.982	6	C10H6Cl2+
197.9801	5	C10H6Cl[37]Cl+
200.9868	12	C9H7Cl2O+
202.9826	9	C9H7Cl[37]ClO+
203.0363	14	C14H5NO+
255.009	39	C11H9Cl2N2O+
256.0137	5	C10[13]CH9Cl2N2O+
257.005	22	C11H9Cl[37]ClN2O+
