Mass spectrum: Clobetasol propionate; LC-ESI-QTOF; MS2; CE: Ramp 24.9-37.4 eV; R=35000; [M+H]+
Name: Clobetasol propionate
Name: [(8S,9R,10S,11S,13S,14S,16S,17R)-17-(2-chloroacetyl)-9-fluoro-11-hydroxy-10,13,16-trimethyl-3-oxo-6,7,8,11,12,14,15,16-octahydrocyclopenta[a]phenanthren-17-yl] propanoate
Formula: C25H32ClFO5
Exact mass: 466.1922300
SMILES: CCC(=O)O[C@@]1([C@@H](C)C[C@H]2[C@@H]3CCC4=CC(=O)C=C[C@]4(C)[C@@]3(F)[C@@H](O)C[C@]12C)C(=O)CCl
InChI: InChI=1S/C25H32ClFO5/c1-5-21(31)32-25(20(30)13-26)14(2)10-18-17-7-6-15-11-16(28)8-9-22(15,3)24(17,27)19(29)12-23(18,25)4/h8-9,11,14,17-19,29H,5-7,10,12-13H2,1-4H3/t14-,17-,18-,19-,22-,23-,24-,25-/m0/s1
Instrument: Bruker maXis Impact
Instrument type: LC-ESI-QTOF
Ms type: MS2
Ion mode: POSITIVE
Ionization: ESI
Fragmentation mode: CID
Collision energy: Ramp 24.9-37.4 eV
Resolution: 35000
Column name: Acclaim RSLC C18 2.2um, 2.1x100mm, Thermo
Retention time: 10.653 min
Base peak: 501.1918
Precursor m/z: 467.1995
Precursor type: [M+H]+
m/z	relative intensity	assigned
57.0327	45	C3H5O+
67.0532	14	C5H7+
69.0336	8	C4H5O+
69.0693	24	C5H9+
75.0432	5	C3H7O2+
76.9783	35	C2H2ClO+
78.9756	10	C2H2[37]ClO+
79.0542	16	C6H7+
81.0691	17	C6H9+
83.0851	12	C6H11+
91.0547	11	C7H7+
93.0105	55	C3H6ClO+
93.0704	43	C7H9+
95.0071	10	C3H6[37]ClO+
95.0857	83	C7H11+
105.0702	14	C8H9+
107.0868	56	C5H12FO+
109.1026	32	C5H14FO+
115.0547	6	C9H7+
117.0696	10	C9H9+
119.0257	7	C5H8ClO+
119.0851	48	C9H11+
120.0884	5	C8[13]CH11+
121.0643	172	C8H9O+
121.1008	103	C9H13+
122.0684	15	C7[13]CH9O+
122.1052	9	C8[13]CH13+
123.0812	9	C5H12FO2+
128.0614	14	CH14ClFO3+
129.0687	9	CH15ClFO3+
131.0841	38	CH17ClFO3+
132.0539	7	C3H13ClO3+
133.0402	20	C6H10ClO+
133.0632	19	ClFH15O4+
133.1	60	C10H13+
134.1025	10	C9[13]CH13+
135.0384	9	C6H10[37]ClO+
135.0793	161	C9H11O+
136.0837	14	C8[13]CH11O+
137.0963	9	C9H13O+
141.044	5	C8H10Cl+
141.0695	11	C11H9+
142.0753	6	C5H15ClO2+
143.0251	10	C7H8ClO+
143.0611	23	C8H12Cl+
143.0847	35	C2H17ClFO3+
145.0404	6	C7H10ClO+
145.0633	59	C10H9O+
145.0999	30	C2H19ClFO3+
146.0694	11	C9[13]CH9O+
147.0796	601	C10H11O+
148.083	58	C9[13]CH11O+
149.0949	55	CH19ClFO4+
151.1083	5	C4H20ClO3+
153.0468	8	C9H10Cl+
155.0603	12	C9H12Cl+
155.0842	10	C3H17ClFO3+
156.0902	5	C6H17ClO2+
157.0417	11	C8H10ClO+
157.0617	8	C5H14ClO3+
157.0763	24	C9H14Cl+
157.1005	29	C12H13+
158.0719	16	C2H16ClFO4+
158.1044	5	C11[13]CH13+
159.0791	222	C11H11O+
160.0827	36	C10[13]CH11O+
161.0574	14	C4H14ClO4+
161.0953	186	C11H13O+
162.0981	22	C10[13]CH13O+
163.0741	15	CH17ClFO5+
163.1097	9	C5H20ClO3+
165.0689	12	C4H15ClFO3+
167.0611	76	C10H12Cl+
168.0634	10	C9[13]CH12Cl+
169.0404	14	C9H10ClO+
169.0586	25	C10H12[37]Cl+
169.076	22	C10H14Cl+
169.1026	5	C10H14FO+
170.0701	5	C6H15ClO3+
170.1094	7	C13H14+
171.0559	190	C9H12ClO+
171.0793	360	C12H11O+
171.1159	21	C4H21ClFO3+
172.0599	12	C8[13]CH12ClO+
172.0832	50	C11[13]CH11O+
172.1183	6	C7H21ClO2+
173.0539	39	C9H12[37]ClO+
173.0951	243	C12H13O+
174.0575	5	C9H12ClF+
174.0991	24	C11[13]CH13O+
175.0767	11	C8H12FO3+
175.0897	11	C6H17ClFO2+
175.1106	18	C3H21ClFO4+
177.0902	20	C5H18ClO4+
179.0852	5	C5H18[37]ClO4+
179.1053	6	C2H21ClFO5+
181.0785	5	C8H15ClFO+
181.1026	6	C11H14FO+
183.0558	36	C7H13ClFO2+
183.0788	14	C4H17ClFO4+
183.1169	8	C14H15+
184.0874	7	C4H18ClFO4+
185.0556	14	C7H13[37]ClFO2+
185.0718	262	C10H14ClO+
185.0949	245	C13H13O+
186.0751	23	C9[13]CH14ClO+
186.0988	36	C12[13]CH13O+
187.0739	304	C12H11O2+
187.1106	32	C4H21ClFO4+
188.0783	30	C11[13]CH11O2+
188.1159	9	C7H21ClO3+
189.072	6	C12H10FO+
189.0892	35	C6H18ClO4+
190.094	7	C10H16ClF+
191.0852	10	C6H18[37]ClO4+
193.0771	34	C12H14Cl+
193.1012	7	C15H13+
194.079	6	C11[13]CH14Cl+
195.0568	20	C11H12ClO+
195.0784	24	C8H16ClO3+
195.1157	10	C6H21ClFO3+
196.0609	7	C11H13ClO+
196.086	12	C8H17ClO3+
197.0546	7	C11H12[37]ClO+
197.0717	17	C11H14ClO+
197.0953	70	C5H19ClFO4+
198.1008	19	C8H19ClO3+
199.074	35	C4H17ClFO5+
199.1102	43	C14H15O+
200.0775	7	C11H14ClF+
200.1141	6	C13[13]CH15O+
201.0909	7	C13H13O2+
203.0696	8	C12H11O3+
203.1068	34	C7H20ClO4+
205.0765	5	C13H14Cl+
205.1005	13	C7H20[37]ClO4+
207.0799	6	C6H17ClFO4+
207.0949	5	C10H17ClFO+
207.1177	5	C13H16FO+
208.0868	20	C6H18ClFO4+
209.0709	7	C12H14ClO+
209.095	61	C6H19ClFO4+
209.1314	5	C7H23ClFO3+
210.1012	24	C9H19ClO3+
211.0524	5	C11H12ClO2+
211.0755	8	C14H11O2+
211.1114	91	C15H15O+
212.1166	22	C14[13]CH15O+
213.0668	22	C11H14ClO2+
213.0906	17	C14H13O2+
213.127	227	C15H17O+
214.1303	43	C14[13]CH17O+
215.0654	8	C11H14[37]ClO2+
215.1075	8	C11H16FO3+
217.1008	6	C17H13+
219.0568	5	C13H12ClO+
219.0794	7	C7H17ClFO4+
219.0928	5	C14H16Cl+
219.1156	5	C8H21ClFO3+
221.0727	5	C13H14ClO+
221.0948	70	C7H19ClFO4+
221.1309	14	C8H23ClFO3+
222.1033	32	C7H20ClFO4+
223.1111	188	C16H15O+
224.1166	48	C15[13]CH15O+
225.088	7	C9H18ClO4+
225.1267	35	C13H18FO2+
226.0984	6	C15H14O2+
226.1347	7	C12[13]CH18FO2+
227.1073	10	C9H20ClO4+
227.1415	23	C16H19O+
228.1473	5	C15[13]CH19O+
229.0997	5	C9H20[37]ClO4+
230.1084	11	C9H20ClFO3+
231.1169	12	C18H15+
232.1212	5	C12H21ClO2+
233.0721	6	C14H14ClO+
233.0956	13	C8H19ClFO4+
233.1316	6	C9H23ClFO3+
234.1031	32	C8H20ClFO4+
235.0513	5	C13H12ClO2+
235.1105	64	C17H15O+
235.1486	25	C18H19+
236.1182	20	C16[13]CH15O+
236.1503	6	C17[13]CH19+
237.0668	5	C13H14ClO2+
237.091	5	C16H13O2+
237.1264	64	C14H18FO2+
238.1334	13	C13[13]CH18FO2+
239.1074	11	C13H16FO3+
239.1427	63	C17H19O+
240.1464	13	C16[13]CH19O+
241.1217	32	C10H22ClO4+
241.1572	29	C17H21O+
242.1232	5	C9[13]CH22ClO4+
242.1609	8	C16[13]CH21O+
243.1175	7	C10H22[37]ClO4+
244.1258	7	C16H17FO+
245.0955	9	C9H19ClFO4+
245.1323	23	C19H17+
246.105	8	C15H15FO2+
246.1385	12	C13H23ClO2+
247.0505	9	C14H12ClO2+
247.0891	17	C12H17ClFO2+
247.1093	15	C12H20ClO3+
247.1453	9	C13H24ClO2+
248.119	78	C18H16O+
249.0867	6	C12H17[37]ClFO2+
249.1265	91	C18H17O+
249.1649	7	C16H22FO+
250.1319	27	C17[13]CH17O+
250.17	14	C13H27ClO2+
251.0827	17	C14H16ClO2+
251.1062	9	C17H15O2+
251.1418	29	C9H25ClFO4+
252.1489	15	C12H25ClO3+
253.1586	240	C18H21O+
254.1619	50	C17[13]CH21O+
255.1661	5	C16[13]C2H21O+
257.0733	9	C16H14ClO+
257.1332	7	C17H18FO+
258.1394	6	C11H24ClFO3+
259.1119	22	C19H15O+
259.1473	19	C11H25ClFO3+
260.1189	37	C10H22ClFO4+
260.1547	15	C11H26ClFO3+
261.0676	10	C15H14ClO2+
261.1274	49	C19H17O+
261.1632	52	C17H22FO+
262.1344	57	C10H24ClFO4+
262.1701	13	C16[13]CH22FO+
263.1429	866	C19H19O+
264.1467	211	C18[13]CH19O+
265.121	5	C9H23ClFO5+
265.1545	19	C17[13]C2H19O+
266.1669	5	C19H22O+
267.1367	22	C9H25ClFO5+
267.1741	30	C19H23O+
268.1223	5	C15H21ClO2+
268.1773	7	C18[13]CH23O+
271.0867	8	C17H16ClO+
271.1132	11	C17H16FO2+
272.1195	17	C20H16O+
273.1265	48	C11H23ClFO4+
273.1634	19	C21H21+
274.1337	26	C11H24ClFO4+
275.0829	14	C16H16ClO2+
275.1428	88	C20H19O+
276.1126	5	C13H21ClO4+
276.1501	75	C11H26ClFO4+
277.1213	30	C10H23ClFO5+
277.1585	302	C20H21O+
278.1666	999	C20H22O+
279.1735	707	C17H24FO2+
280.1767	117	C16[13]CH24FO2+
281.1528	52	C13H26ClO4+
281.1853	13	C15[13]C2H24FO2+
282.1598	10	C12[13]CH26ClO4+
283.1495	13	C13H26[37]ClO4+
284.1522	5	C16H25ClO2+
285.1042	6	C18H18ClO+
286.1352	60	C21H18O+
287.1196	18	C18H20ClO+
287.1403	20	C20[13]CH18O+
288.1506	124	C21H20O+
289.1167	12	C18H19ClF+
289.155	31	C20[13]CH20O+
290.1302	10	C20H18O2+
290.16	5	C15H27ClO3+
291.1381	39	C17H20FO3+
291.1742	279	C21H23O+
292.1436	8	C16[13]CH20FO3+
292.177	65	C20[13]CH23O+
293.1501	9	C14H26ClO4+
293.183	6	C19[13]C2H23O+
295.0871	8	C19H16ClO+
295.1284	6	C13H24ClO5+
295.1684	25	C11H29ClFO5+
296.1769	62	C20H24O2+
297.1006	5	C19H18ClO+
297.1819	25	C14H30ClO4+
299.0838	14	C18H16ClO2+
301.1592	286	C19H22FO2+
302.163	60	C18[13]CH22FO2+
303.1123	6	C18H20ClO2+
303.1669	5	C17[13]C2H22FO2+
304.144	12	C15H25ClO4+
305.1566	8	C18H22FO3+
306.1609	144	C18H23FO3+
307.1661	30	C17[13]CH23FO3+
309.1398	6	C21H22Cl+
309.185	68	C12H31ClFO5+
310.1873	9	C11[13]CH31ClFO5+
311.1198	13	C20H20ClO+
312.1266	7	C20H21ClO+
313.1002	24	C19H18ClO2+
313.1355	54	C20H22ClO+
314.1072	7	C18[13]CH18ClO2+
314.1401	11	C19[13]CH22ClO+
315.0937	7	C19H18[37]ClO2+
315.1329	18	C20H22[37]ClO+
319.1691	182	C22H23O2+
320.1723	44	C21[13]CH23O2+
321.173	7	C18H25O5+
322.1135	11	C18H20ClFO2+
324.1705	14	C15H29ClO5+
327.1519	156	C21H24ClO+
328.1537	33	C20[13]CH24ClO+
329.1477	60	C21H24[37]ClO+
330.1506	8	C21H24ClF+
331.1299	7	C22H19O3+
331.1404	5	C19H20FO4+
337.1361	152	C22H22ClO+
337.1784	18	C16H30ClO5+
338.137	41	C21[13]CH22ClO+
338.185	5	C15[13]CH30ClO5+
339.1331	46	C22H22[37]ClO+
339.1743	6	C16H30[37]ClO5+
340.139	10	C22H22ClF+
345.162	59	C21H26ClO2+
346.1639	14	C20[13]CH26ClO2+
347.1615	16	C21H26[37]ClO2+
355.1463	542	C22H24ClO2+
356.1496	149	C21[13]CH24ClO2+
357.1438	162	C22H24[37]ClO2+
358.1461	27	C25H23Cl+
373.156	119	C22H26ClO3+
374.1599	34	C21[13]CH26ClO3+
375.1538	45	C22H26[37]ClO3+
376.1575	8	C25H25ClO+
391.1685	7	C19H29ClFO5+
