Mass spectrum: Paramethasone; LC-ESI-QTOF; MS2; CE: 20 eV; R=35000; [M+H]+
Name: Paramethasone
Name: (6S,8S,9S,10R,11S,13S,14S,16R,17R)-6-fluoro-11,17-dihydroxy-17-(2-hydroxyacetyl)-10,13,16-trimethyl-7,8,9,11,12,14,15,16-octahydro-6H-cyclopenta[a]phenanthren-3-one
Formula: C22H29FO5
Exact mass: 392.1999022
SMILES: [H][C@@]12C[C@@H](C)[C@](O)(C(=O)CO)[C@@]1(C)C[C@H](O)[C@@]1([H])[C@@]2([H])C[C@H](F)C2=CC(=O)C=C[C@]12C
InChI: InChI=1S/C22H29FO5/c1-11-6-14-13-8-16(23)15-7-12(25)4-5-20(15,2)19(13)17(26)9-21(14,3)22(11,28)18(27)10-24/h4-5,7,11,13-14,16-17,19,24,26,28H,6,8-10H2,1-3H3/t11-,13+,14+,16+,17+,19-,20+,21+,22+/m1/s1
Instrument: Bruker maXis Impact
Instrument type: LC-ESI-QTOF
Ms type: MS2
Ion mode: POSITIVE
Ionization: ESI
Fragmentation mode: CID
Collision energy: 20 eV
Resolution: 35000
Column name: Acclaim RSLC C18 2.2um, 2.1x100mm, Thermo
Retention time: 8.690 min
Base peak: 435.2174
Precursor m/z: 393.2072
Precursor type: [M+H]+
m/z	relative intensity	assigned
119.0856	34	C9H11+
121.0641	252	C8H9O+
121.0994	42	C9H13+
122.0679	28	C7[13]CH9O+
123.08	30	C8H11O+
125.0577	26	C7H9O2+
131.0853	41	C10H11+
133.0653	19	C9H9O+
133.1007	57	C10H13+
135.0793	180	C9H11O+
135.1162	22	C10H15+
136.0824	30	C8[13]CH11O+
137.0949	44	C9H13O+
139.0543	25	C11H7+
139.0748	46	C8H11O2+
141.0912	20	C8H13O2+
143.0845	37	C11H11+
145.063	96	C10H9O+
145.0995	88	C11H13+
147.0792	449	C10H11O+
147.1157	46	C11H15+
149.0229	44	C8H5O3+
149.0948	91	C10H13O+
151.0735	57	C9H11O2+
151.1105	35	C10H15O+
153.0893	96	C9H13O2+
155.0672	18	C8H11O3+
155.0825	19	C12H11+
157.0999	76	C12H13+
159.0797	138	C11H11O+
159.1168	19	C12H15+
160.0845	35	C11H12O+
161.0611	24	C7H10FO3+
161.095	175	C11H13O+
163.0742	62	C10H11O2+
163.1102	122	C11H15O+
164.1123	20	C10[13]CH15O+
165.0704	33	C13H9+
165.0906	53	C10H13O2+
167.1057	35	C10H15O2+
169.0846	21	C9H13O3+
171.0791	999	C12H11O+
172.083	135	C11[13]CH11O+
173.0945	193	C12H13O+
174.0986	38	C11[13]CH13O+
175.0757	32	C11H11O2+
175.1095	69	C12H15O+
177.0889	121	C11H13O2+
177.1259	19	C12H17O+
179.0848	20	C14H11+
179.1054	113	C11H15O2+
180.111	18	C10[13]CH15O2+
181.0991	19	C14H13+
181.1213	28	C11H17O2+
183.0785	38	C13H11O+
183.1166	28	C14H15+
185.0951	242	C13H13O+
186.0982	30	C12[13]CH13O+
187.0745	46	C12H11O2+
187.111	95	C13H15O+
189.0889	27	C12H13O2+
189.1265	38	C13H17O+
191.0853	80	C15H11+
191.1056	90	C12H15O2+
192.1112	23	C12H16O2+
193.1005	26	C15H13+
193.1232	53	C9H18FO3+
195.0812	33	C11H12FO2+
195.1007	62	C11H15O3+
197.0946	355	C14H13O+
198.0974	65	C13[13]CH13O+
198.1092	20	C11H15FO2+
199.0749	24	C13H11O2+
199.111	136	C14H15O+
200.1148	21	C13[13]CH15O+
201.1248	45	C14H17O+
203.1048	94	C13H15O2+
205.1199	22	C13H17O2+
208.0846	26	C15H12O+
209.0949	130	C15H13O+
209.1167	19	C12H17O3+
209.1381	22	C9H21O5+
210.1024	34	C15H14O+
211.1114	318	C15H15O+
212.1151	73	C14[13]CH15O+
213.09	121	C14H13O2+
213.1254	73	C15H17O+
215.1068	180	C14H15O2+
216.1094	47	C14H16O2+
217.1006	46	C17H13+
217.1251	27	C11H18FO3+
219.1157	37	C17H15+
219.1375	22	C14H19O2+
220.1217	24	C17H16+
221.0945	105	C16H13O+
221.1172	101	C13H17O3+
222.1017	83	C16H14O+
223.1101	489	C16H15O+
224.1152	124	C15[13]CH15O+
225.0928	37	C12H14FO3+
225.1253	220	C16H17O+
226.129	53	C15[13]CH17O+
227.1055	55	C15H15O2+
227.1405	52	C16H19O+
228.109	20	C15H16O2+
229.1221	32	C15H17O2+
229.1582	25	C16H21O+
231.1158	28	C18H15+
233.1325	19	C18H17+
235.1105	504	C17H15O+
236.1158	98	C16[13]CH15O+
237.1268	953	C17H17O+
238.1305	205	C16[13]CH17O+
239.1415	702	C17H19O+
240.1454	180	C16[13]CH19O+
241.1239	30	C13H18FO3+
241.1554	21	C17H21O+
243.1014	23	C15H15O3+
245.1306	28	C19H17+
247.1117	63	C18H15O+
248.1173	41	C18H16O+
249.1274	220	C15H18FO2+
249.1609	23	C19H21+
250.1347	29	C14[13]CH18FO2+
251.1063	60	C17H15O2+
251.1422	148	C18H19O+
252.1447	20	C17[13]CH19O+
253.1232	77	C14H18FO3+
253.1574	50	C18H21O+
255.1386	58	C14H20FO3+
256.1411	23	C17H20O2+
257.1351	24	C17H18FO+
258.1404	20	C20H18+
259.1135	45	C16H16FO2+
259.1496	41	C17H20FO+
260.1199	37	C19H16O+
261.1259	173	C19H17O+
261.1619	52	C20H21+
262.1309	79	C19H18O+
263.1075	35	C15H16FO3+
263.142	330	C19H19O+
264.1447	94	C18[13]CH19O+
265.1224	37	C18H17O2+
265.1591	85	C19H21O+
266.1608	33	C19H22O+
267.1377	150	C18H19O2+
267.173	49	C19H23O+
268.1384	28	C17[13]CH19O2+
268.1756	22	C19H24O+
269.1172	22	C17H17O3+
271.1455	19	C21H19+
272.1166	32	C20H16O+
273.1266	39	C20H17O+
273.1608	44	C21H21+
275.1415	307	C20H19O+
275.1647	21	C17H23O3+
276.1476	136	C20H20O+
277.1221	94	C19H17O2+
277.1577	722	C20H21O+
278.1242	26	C18[13]CH17O2+
278.1625	247	C19[13]CH21O+
279.1381	64	C19H19O2+
279.1735	936	C20H23O+
280.1772	209	C19[13]CH23O+
281.1208	21	C15H18FO4+
281.1536	66	C19H21O2+
281.1886	49	C20H25O+
286.1357	69	C21H18O+
287.1388	22	C20[13]CH18O+
289.1602	166	C21H21O+
290.161	49	C20[13]CH21O+
291.1394	45	C17H20FO3+
291.1738	634	C21H23O+
292.1779	156	C20[13]CH23O+
293.1516	72	C20H21O2+
293.1791	20	C19[13]C2H23O+
294.1578	27	C19[13]CH21O2+
295.1333	34	C19H19O3+
295.1685	188	C20H23O2+
296.1753	113	C20H24O2+
297.1828	241	C20H25O2+
298.1664	27	C20H23FO+
298.1888	85	C20H26O2+
299.1795	90	C16H27O5+
300.1889	19	C15[13]CH27O5+
301.1588	421	C22H21O+
302.1602	116	C21[13]CH21O+
303.1665	18	C20[13]C2H21O+
304.1478	24	C18H21FO3+
307.1682	191	C21H23O2+
308.1706	40	C20[13]CH23O2+
309.1854	248	C21H25O2+
310.1886	83	C20[13]CH25O2+
311.1909	18	C17H27O5+
315.1726	27	C20H24FO2+
315.1989	30	C17H28FO4+
317.1924	29	C20H26FO2+
319.1693	740	C22H23O2+
320.1726	154	C21[13]CH23O2+
321.1758	32	C18H25O5+
325.1802	96	C21H25O3+
326.1843	27	C20[13]CH25O3+
327.1961	111	C18H28FO4+
328.2004	32	C17[13]CH28FO4+
329.154	18	C20H22FO3+
329.1911	18	C21H26FO2+
337.1794	834	C22H25O3+
338.1823	234	C21[13]CH25O3+
339.1795	44	C22H24FO2+
340.1763	26	C22H25FO2+
345.1876	35	C21H26FO3+
355.1899	656	C22H27O4+
356.1929	150	C21[13]CH27O4+
357.1896	59	C22H26FO3+
358.1858	23	C22H27FO3+
358.1956	30	C22H27FO3+
373.1988	40	C22H29O5+
375.1955	293	C22H28FO4+
376.2001	96	C21[13]CH28FO4+
393.2084	84	C22H30FO5+
