Mass spectrum: Fluticasone propionate; LC-ESI-QTOF; MS2; CE: Ramp 25.6-38.4 eV; R=35000; [M+H]+
Name: Fluticasone propionate
Name: [(6S,8S,9R,10S,11S,13S,14S,16R,17R)-6,9-difluoro-17-(fluoromethylsulfanylcarbonyl)-11-hydroxy-10,13,16-trimethyl-3-oxo-6,7,8,11,12,14,15,16-octahydrocyclopenta[a]phenanthren-17-yl] propanoate
Formula: C25H31F3O5S
Exact mass: 500.1844298
SMILES: CCC(=O)O[C@@]1([C@H](C)C[C@H]2[C@@H]3C[C@H](F)C4=CC(=O)C=C[C@]4(C)[C@@]3(F)[C@@H](O)C[C@]12C)C(=O)SCF
InChI: InChI=1S/C25H31F3O5S/c1-5-20(31)33-25(21(32)34-12-26)13(2)8-15-16-10-18(27)17-9-14(29)6-7-22(17,3)24(16,28)19(30)11-23(15,25)4/h6-7,9,13,15-16,18-19,30H,5,8,10-12H2,1-4H3/t13-,15+,16+,18+,19+,22+,23+,24+,25+/m1/s1
Instrument: Bruker maXis Impact
Instrument type: LC-ESI-QTOF
Ms type: MS2
Ion mode: POSITIVE
Ionization: ESI
Fragmentation mode: CID
Collision energy: Ramp 25.6-38.4 eV
Resolution: 35000
Column name: Acclaim RSLC C18 2.2um, 2.1x100mm, Thermo
Retention time: 10.653 min
Base peak: 501.1918
Precursor m/z: 501.1917
Precursor type: [M+H]+
m/z	relative intensity	assigned
57.0328	50	C3H5O+
67.0533	6	C5H7+
69.0328	5	C4H5O+
69.0689	13	C5H9+
75.0437	6	C3H7O2+
79.0541	9	C6H7+
91.0546	6	C7H7+
93.07	17	C7H9+
95.0856	18	C7H11+
105.0707	7	C5H10FO+
107.0867	89	C5H12FO+
108.0903	6	C4[13]CH12FO+
109.1025	47	C5H14FO+
113.0764	5	C7H10F+
115.0538	5	C9H7+
119.0849	23	C9H11+
121.0645	285	C8H9O+
122.0673	24	C7[13]CH9O+
127.0896	5	C8H12F+
129.0685	8	C10H9+
131.0852	19	C10H11+
133.0637	47	C9H9O+
133.0996	9	C10H13+
134.0658	6	C8[13]CH9O+
135.0795	111	C9H11O+
136.083	11	C8[13]CH11O+
137.0747	5	C9H10F+
139.0547	50	C11H7+
141.0691	8	C11H9+
143.0847	11	C11H11+
145.064	44	C10H9O+
145.0993	5	C11H13+
146.0681	6	C9[13]CH9O+
147.0789	39	C10H11O+
148.0812	5	C9[13]CH11O+
149.0752	7	C10H10F+
149.0959	6	C10H13O+
151.0905	48	C10H12F+
152.0954	8	C9[13]CH12F+
153.0717	9	C6H11F2O2+
155.0853	44	C12H11+
156.0876	5	C11[13]CH11+
157.0636	25	C11H9O+
157.0997	11	C12H13+
158.0719	8	C11H10O+
159.0623	35	C5H10F3O2+
159.0793	76	C11H11O+
160.084	14	C10[13]CH11O+
161.0582	12	C8H8F3+
161.0757	7	C11H10F+
161.0944	21	C11H13O+
163.0542	9	C13H7+
163.0731	6	C8H10F3+
163.09	10	C11H12F+
164.0957	6	C11H13F+
165.0696	28	C13H9+
167.0848	7	C13H11+
169.0636	24	C12H9O+
169.1015	8	C13H13+
171.0793	222	C12H11O+
172.0828	26	C11[13]CH11O+
173.0584	19	C9H8F3+
173.0788	32	C6H12F3O2+
173.0941	47	C12H13O+
174.0993	5	C11[13]CH13O+
175.0741	5	C9H10F3+
175.0915	5	C12H12F+
177.0706	21	C11H10FO+
177.089	9	C9H12F3+
177.1069	10	C12H14F+
179.0488	16	C13H7O+
179.0857	316	C14H11+
180.0888	34	C13[13]CH11+
181.1009	9	C14H13+
182.0709	5	C13H10O+
183.0798	14	C13H11O+
185.041	25	C9H7F2O2+
185.0586	107	C7H12F3S+
185.095	31	C13H13O+
186.0622	12	C6[13]CH12F3S+
186.1008	9	C13H14O+
187.0533	5	C7H12F3[34]S+
187.0748	37	C12H11O2+
187.0908	10	C13H12F+
187.1083	5	C13H15O+
188.0791	6	C11[13]CH11O2+
189.0698	28	C15H9+
190.0742	7	C15H10+
191.0859	22	C15H11+
193.1024	8	C12H14FO+
195.08	22	C14H11O+
195.0961	6	C12H13F2+
195.1192	5	C9H17F2O2+
196.0854	10	C14H12O+
197.0783	8	C8H12F3O2+
197.0947	25	C14H13O+
199.0719	11	C11H10F3+
199.0915	12	C14H12F+
199.1095	7	C14H15O+
201.0734	15	C7H12F3O3+
201.0897	7	C11H12F3+
203.069	10	C10H13F2S+
203.086	15	C16H11+
205.0652	510	C15H9O+
205.1017	43	C10H15F2O2+
206.0683	63	C14[13]CH9O+
206.1076	8	C9[13]CH15F2O2+
207.0795	13	C15H11O+
207.0958	8	C13H13F2+
208.0867	6	C15H12O+
209.095	53	C12H14FO2+
210.1019	10	C11[13]CH14FO2+
211.1112	18	C15H15O+
213.1076	27	C15H14F+
214.1108	5	C14[13]CH14F+
215.0856	8	C17H11+
217.0995	5	C17H13+
219.0799	10	C16H11O+
219.1151	5	C17H15+
221.0951	38	C16H13O+
222.1018	31	C16H14O+
223.1113	52	C13H16FO2+
224.1165	9	C12[13]CH16FO2+
225.073	14	C15H13S+
225.0912	8	C15H13O2+
225.1071	6	C16H14F+
225.1267	8	C16H17O+
226.0764	5	C18H10+
232.1238	10	C18H16+
233.0951	15	C17H13O+
233.129	10	C18H17+
234.1014	5	C17H14O+
235.111	40	C17H15O+
236.1186	17	C17H16O+
237.0897	15	C14H12F3+
237.1267	44	C17H17O+
238.0978	8	C16H14O2+
238.1297	10	C16[13]CH17O+
239.0869	13	C16H12FO+
239.1061	9	C16H15O2+
239.1416	11	C17H19O+
241.1021	6	C16H14FO+
242.1076	8	C19H14+
243.1163	6	C19H15+
245.0793	51	C15H14FS+
245.0935	22	C18H13O+
246.0835	8	C14[13]CH14FS+
246.1025	18	C18H14O+
247.1106	12	C18H15O+
247.1478	74	C19H19+
248.1505	18	C18[13]CH19+
249.127	70	C18H17O+
250.1323	29	C18H18O+
251.1058	17	C17H15O2+
251.1423	195	C18H19O+
252.1468	35	C17[13]CH19O+
253.1023	11	C17H14FO+
253.1219	19	C17H17O2+
253.1534	5	C16[13]C2H19O+
254.1244	5	C15H17F3+
255.1195	8	C14H17F2O2+
257.132	30	C20H17+
258.1372	11	C20H18+
259.1128	5	C16H16FO2+
259.146	7	C20H19+
260.1189	101	C19H16O+
261.1265	61	C16H18FO2+
262.1334	15	C15[13]CH18FO2+
263.1076	5	C13H18F3S+
263.1416	22	C19H19O+
264.1139	5	C18H16O2+
264.1461	6	C18[13]CH19O+
265.1586	524	C16H25OS+
266.1622	117	C15[13]CH25OS+
267.1385	10	C13H22F3S+
267.1579	10	C16H25O[34]S+
269.1312	9	C21H17+
271.1484	5	C21H19+
273.1262	8	C20H17O+
274.1338	7	C20H18O+
275.1428	774	C20H19O+
276.1482	242	C19[13]CH19O+
277.1242	5	C13H19F2O4+
277.1551	53	C20H21O+
278.1303	23	C19H18O2+
278.1628	10	C20H22O+
279.1348	16	C17H18F3+
280.1255	8	C19H17FO+
281.1329	25	C22H17+
282.1351	6	C21[13]CH17+
283.1708	5	C16H24FO3+
285.1258	5	C21H17O+
285.1645	41	C22H21+
286.1308	7	C21H18O+
286.1666	9	C21[13]CH21+
287.1434	10	C21H19O+
288.1124	10	C18H15F3+
289.1155	5	C18H16F3+
291.14	8	C14H21F2O4+
293.1538	999	C20H21O2+
294.157	240	C19[13]CH21O2+
295.1493	428	C20H23S+
296.1553	139	C19[13]CH23S+
297.1609	25	C23H21+
299.1447	6	C19H20FO2+
303.1375	67	C21H19O2+
304.1421	21	C20[13]CH19O2+
305.152	10	C19H20F3+
306.1416	5	C21H19FO+
307.1468	6	C24H19+
311.1646	34	C21H21F2+
312.164	7	C20[13]CH21F2+
313.16	593	C23H21O+
314.1629	116	C22[13]CH21O+
315.1567	46	C17H22F3O2+
316.1612	8	C16[13]CH22F3O2+
321.148	39	C18H22FO4+
322.1532	8	C17[13]CH22FO4+
323.1443	41	C21H20FO2+
324.1491	21	C21H24OS+
325.1571	7	C20[13]CH24OS+
331.1532	25	C23H20FO+
332.1527	7	C22[13]CH20FO+
333.1655	92	C16H29O5S+
334.1714	15	C15[13]CH29O5S+
335.1763	7	C16H29O5[34]S+
338.1128	15	C18H17F3O3+
339.1455	7	C12H26F3O5S+
341.1368	59	C24H21S+
342.1402	14	C23[13]CH21S+
343.1478	12	C24H20FO+
345.1648	5	C24H22FO+
359.1469	48	C21H24FO2S+
360.1519	11	C20[13]CH24FO2S+
361.1444	144	C24H22FS+
362.1491	32	C23[13]CH22FS+
363.1458	7	C22[13]C2H22FS+
369.1334	56	C25H21OS+
370.1351	14	C24[13]CH21OS+
379.1538	15	C20H27O5S+
379.1668	20	C21H25F2O4+
380.1753	5	C20[13]CH25F2O4+
381.148	17	C24H23F2S+
387.1421	14	C22H24FO3S+
389.1385	38	C19H24F3O3S+
390.1438	9	C18[13]CH24F3O3S+
405.1541	11	C19H27F2O5S+
407.1467	8	C22H22F3O4+
