Mass spectrum: N-Cyclohexyl-2-benzothiazol-amine; LC-ESI-QTOF; MS2; CE: 50 eV; R=35000; [M+H]+
Name: N-Cyclohexyl-2-benzothiazol-amine
Name: N-cyclohexyl-1,3-benzothiazol-2-amine
Formula: C13H16N2S
Exact mass: 232.1034195
SMILES: C1CCC(CC1)NC1=NC2=CC=CC=C2S1
InChI: InChI=1S/C13H16N2S/c1-2-6-10(7-3-1)14-13-15-11-8-4-5-9-12(11)16-13/h4-5,8-10H,1-3,6-7H2,(H,14,15)
Instrument: Bruker maXis Impact
Instrument type: LC-ESI-QTOF
Ms type: MS2
Ion mode: POSITIVE
Ionization: ESI
Fragmentation mode: CID
Collision energy: 50 eV
Resolution: 35000
Column name: Acclaim RSLC C18 2.2um, 2.1x100mm, Thermo
Retention time: 10.845 min
Base peak: 233.1111
Precursor m/z: 233.1107
Precursor type: [M+H]+
m/z	relative intensity	assigned
109.0103	15	C6H5S+
118.0519	49	C7H6N2+
119.0562	5	C6[13]CH6N2+
124.021	316	C6H6NS+
125.0235	25	C5[13]CH6NS+
126.0166	18	C6H6N[34]S+
134.0047	9	C7H4NS+
150.0236	14	C7H6N2S+
151.0316	999	C7H7N2S+
152.0343	68	C6[13]CH7N2S+
153.0273	37	C7H7N2[34]S+
