Mass spectrum: Fluticasone propionate; LC-ESI-QTOF; MS2; CE: 40 eV; R=35000; [M+H]+
Name: Fluticasone propionate
Name: [(6S,8S,9R,10S,11S,13S,14S,16R,17R)-6,9-difluoro-17-(fluoromethylsulfanylcarbonyl)-11-hydroxy-10,13,16-trimethyl-3-oxo-6,7,8,11,12,14,15,16-octahydrocyclopenta[a]phenanthren-17-yl] propanoate
Formula: C25H31F3O5S
Exact mass: 500.1844298
SMILES: CCC(=O)O[C@@]1([C@H](C)C[C@H]2[C@@H]3C[C@H](F)C4=CC(=O)C=C[C@]4(C)[C@@]3(F)[C@@H](O)C[C@]12C)C(=O)SCF
InChI: InChI=1S/C25H31F3O5S/c1-5-20(31)33-25(21(32)34-12-26)13(2)8-15-16-10-18(27)17-9-14(29)6-7-22(17,3)24(16,28)19(30)11-23(15,25)4/h6-7,9,13,15-16,18-19,30H,5,8,10-12H2,1-4H3/t13-,15+,16+,18+,19+,22+,23+,24+,25+/m1/s1
Instrument: Bruker maXis Impact
Instrument type: LC-ESI-QTOF
Ms type: MS2
Ion mode: POSITIVE
Ionization: ESI
Fragmentation mode: CID
Collision energy: 40 eV
Resolution: 35000
Column name: Acclaim RSLC C18 2.2um, 2.1x100mm, Thermo
Retention time: 10.681 min
Base peak: 313.2164
Precursor m/z: 501.1917
Precursor type: [M+H]+
m/z	relative intensity	assigned
115.0539	16	C9H7+
117.0686	18	C9H9+
119.0848	35	C9H11+
121.064	446	C8H9O+
122.0676	35	C7[13]CH9O+
123.0595	8	C8H8F+
123.0783	6	C8H11O+
125.0394	9	C7H6FO+
125.0581	6	C5H8F3+
125.0749	13	C8H10F+
127.0894	7	C8H12F+
128.0618	18	C10H8+
129.0694	19	C10H9+
130.0753	5	C10H10+
131.0489	7	C9H7O+
131.0846	53	C10H11+
132.0897	8	C9[13]CH11+
133.0467	8	C3H8F3O2+
133.0639	63	C9H9O+
133.0997	25	C10H13+
134.0671	6	C8[13]CH9O+
135.0578	14	C9H8F+
135.0793	161	C9H11O+
136.0828	19	C8[13]CH11O+
137.0755	21	C9H10F+
137.0942	7	C9H13O+
139.0545	98	C11H7+
139.0907	10	C9H12F+
140.0568	9	C10[13]CH7+
141.0692	18	C11H9+
142.076	7	C11H10+
143.0843	31	C11H11+
144.0553	9	C10H8O+
144.0893	6	C10[13]CH11+
145.0637	119	C10H9O+
145.1004	20	C11H13+
146.0687	15	C9[13]CH9O+
147.0787	83	C10H11O+
148.0824	10	C9[13]CH11O+
149.0744	12	C10H10F+
149.0943	8	C10H13O+
150.0471	7	C9H7FO+
151.0562	21	C6H9F2O2+
151.0903	126	C10H12F+
152.0611	7	C12H8+
152.0941	15	C9[13]CH12F+
153.0712	16	C9H10FO+
155.0847	21	C12H11+
157.0639	37	C11H9O+
157.0998	28	C12H13+
158.0707	28	C11H10O+
159.0621	38	C8H9F2O+
159.0794	208	C11H11O+
160.0663	9	C11H9F+
160.0841	26	C10[13]CH11O+
161.0586	23	C10H9O2+
161.0749	14	C11H10F+
161.0952	54	C11H13O+
162.0991	6	C10[13]CH13O+
163.0551	14	C10H8FO+
163.0742	11	C10H11O2+
163.0913	28	C11H12F+
164.0621	10	C13H8+
164.0965	12	C11H13F+
165.0698	40	C13H9+
166.0733	7	C12[13]CH9+
167.0512	5	C6H9F2O3+
167.0847	14	C13H11+
168.0573	5	C12H8O+
169.0638	46	C12H9O+
169.1005	12	C13H13+
171.0794	408	C12H11O+
172.083	58	C11[13]CH11O+
173.0589	30	C11H9O2+
173.0792	29	C12H10F+
173.0949	107	C12H13O+
174.0627	7	C9H9F3+
174.0822	5	C11[13]CH10F+
174.0983	13	C11[13]CH13O+
175.0542	11	C14H7+
175.0748	11	C11H11O2+
175.0918	20	C12H12F+
175.1091	5	C12H15O+
176.0624	9	C14H8+
177.0703	67	C11H10FO+
177.0901	12	C11H13O2+
177.1072	26	C12H14F+
178.0751	12	C10[13]CH10FO+
179.0498	36	C10H8FO2+
179.0855	479	C14H11+
180.0897	79	C13[13]CH11+
181.0629	8	C13H9O+
181.0803	16	C11H11F2+
181.0999	26	C14H13+
182.0716	11	C13H10O+
183.0606	10	C13H8F+
183.0798	40	C13H11O+
183.099	6	C8H14F3O+
184.0877	10	C13H12O+
185.0428	33	C12H9S+
185.059	172	C9H13O2S+
185.0942	74	C13H13O+
186.046	5	C11[13]CH9S+
186.0624	23	C8[13]CH13O2S+
186.1001	15	C12[13]CH13O+
187.0555	7	C9H13O2[34]S+
187.074	58	C12H11O2+
187.0896	23	C13H12F+
187.1089	11	C13H15O+
188.0803	9	C11[13]CH11O2+
188.0954	11	C13H13F+
189.0701	54	C12H13S+
189.1043	9	C13H14F+
190.0764	9	C11[13]CH13S+
191.0857	46	C15H11+
192.0893	10	C14[13]CH11+
193.0638	5	C14H9O+
193.1003	13	C15H13+
194.0705	6	C14H10O+
194.1048	7	C15H14+
195.0792	41	C14H11O+
195.0966	18	C12H13F2+
195.1143	13	C15H15+
196.0876	29	C14H12O+
197.0595	6	C13H9O2+
197.0783	16	C8H12F3O2+
197.0949	40	C14H13O+
198.0986	5	C13[13]CH13O+
199.0741	19	C13H11O2+
199.0931	25	C11H13F2O+
199.1111	12	C14H15O+
201.0712	9	C13H10FO+
201.0897	9	C11H12F3+
201.1065	6	C14H14F+
202.0737	5	C16H10+
203.0724	12	C6H13F2O5+
203.0859	33	C16H11+
204.0893	5	C15[13]CH11+
205.0649	505	C15H9O+
205.1016	86	C16H13+
206.068	71	C14[13]CH9O+
206.1055	22	C15[13]CH13+
207.0808	15	C15H11O+
207.0958	14	C13H13F2+
207.115	9	C16H15+
208.0859	14	C15H12O+
209.0952	117	C12H17OS+
209.1317	7	C16H17+
210.1014	34	C15H14O+
211.0755	5	C14H11O2+
211.0919	9	C12H17O[34]S+
211.1117	25	C15H15O+
212.0811	7	C12H11F3+
212.116	6	C14[13]CH15O+
213.0879	6	C12H12F3+
213.1077	22	C15H14F+
213.1274	6	C15H17O+
215.0847	16	C17H11+
216.0939	5	C17H12+
217.1	21	C17H13+
218.0776	5	C10H15FO2S+
218.1071	14	C17H14+
219.0795	22	C16H11O+
219.1146	19	C17H15+
220.0848	12	C16H12O+
220.1241	6	C16[13]CH15+
221.0956	69	C16H13O+
221.1328	8	C17H17+
222.103	70	C16H14O+
223.0739	12	C13H10F3+
223.1105	143	C16H15O+
224.0826	7	C15H12O2+
224.1146	27	C15[13]CH15O+
225.0723	9	C12H11F2O2+
225.0908	18	C15H13O2+
225.1092	13	C10H16F3O2+
225.127	18	C16H17O+
226.078	5	C18H10+
227.0708	8	C9H14F3OS+
227.0866	14	C15H12FO+
229.1023	15	C15H14FO+
230.1073	7	C18H14+
231.0799	13	C17H11O+
231.1149	17	C18H15+
232.0882	7	C17H12O+
232.1231	47	C18H16+
233.0955	51	C17H13O+
233.1293	26	C18H17+
234.1017	36	C17H14O+
234.1336	5	C17[13]CH17+
235.111	71	C17H15O+
236.1195	52	C17H16O+
237.0894	34	C14H12F3+
237.1262	89	C17H17O+
237.1626	8	C18H21+
238.0953	10	C14H13F3+
238.1309	18	C16[13]CH17O+
239.0895	23	C19H11+
239.105	17	C14H14F3+
239.1417	16	C17H19O+
240.0928	7	C18[13]CH11+
240.116	10	C13H17FO3+
241.1012	11	C19H13+
242.1073	28	C19H14+
243.1163	20	C19H15+
244.1225	8	C19H16+
245.0943	89	C18H13O+
245.1321	5	C19H17+
246.0821	7	C18H11F+
246.1018	67	C18H14O+
247.1095	45	C18H15O+
247.1476	138	C19H19+
248.1177	19	C18H16O+
248.152	29	C18[13]CH19+
249.0938	5	C11H15F2O4+
249.127	95	C18H17O+
249.1582	8	C6H27F2O5S+
250.1344	76	C18H18O+
251.106	28	C17H15O2+
251.1424	247	C18H19O+
252.1097	7	C16[13]CH15O2+
252.1472	54	C17[13]CH19O+
253.1012	24	C20H13+
253.1212	34	C17H17O2+
253.1506	7	C8H26FO5S+
254.1084	9	C20H14+
254.1254	9	C16[13]CH17O2+
255.1152	16	C20H15+
256.122	5	C19[13]CH15+
257.095	8	C19H13O+
257.1317	95	C17H18FO+
258.1062	7	C13H16F2O3+
258.1375	26	C16[13]CH18FO+
259.1104	18	C19H15O+
259.1464	18	C20H19+
260.1189	308	C19H16O+
261.1256	171	C19H17O+
262.0911	5	C11H18O5S+
262.131	52	C18[13]CH17O+
263.1095	8	C15H19O2S+
263.1428	36	C16H23OS+
264.1158	18	C15H17FO3+
264.1498	7	C15[13]CH23OS+
265.1583	509	C16H25OS+
266.1136	8	C15H19FOS+
266.1616	145	C15[13]CH25OS+
267.1222	7	C12H21F2O2S+
267.1544	18	C16H25O[34]S+
268.1595	11	C19H21F+
269.1315	12	C21H17+
270.1041	7	C20H14O+
270.1371	6	C21H18+
271.1099	8	C20H15O+
271.1477	7	C21H19+
272.1196	5	C20H16O+
273.1258	12	C20H17O+
274.1343	15	C20H18O+
275.143	999	C20H19O+
276.1476	375	C20H20O+
277.1258	9	C10H20F3O5+
277.1548	76	C19[13]CH20O+
278.128	51	C17H17F3+
278.1612	17	C20H22O+
279.1368	31	C19H19O2+
280.1259	30	C19H17FO+
281.1333	50	C19H18FO+
282.1369	10	C18[13]CH18FO+
285.1273	13	C21H17O+
285.1631	33	C22H21+
286.1347	11	C21H18O+
286.1677	10	C21[13]CH21+
287.1425	15	C21H19O+
288.1151	38	C17H17FO3+
288.1514	10	C21H20O+
289.1199	11	C16[13]CH17FO3+
291.1169	5	C23H15+
291.1363	8	C18H18F3+
292.144	6	C18H19F3+
293.1534	567	C20H21O2+
294.1575	134	C19[13]CH21O2+
295.1491	296	C20H20FO+
296.1546	190	C23H20+
297.159	34	C22[13]CH20+
298.1637	6	C21[13]C2H20+
299.1426	12	C22H19O+
303.1377	57	C21H19O2+
304.1426	20	C20[13]CH19O2+
305.1495	8	C19H20F3+
306.1331	9	C11H24F2O5S+
306.1515	9	C14H26O5S+
307.1446	6	C24H19+
308.1238	6	C17H21FO2S+
311.1648	16	C15H26F3OS+
313.1594	178	C20H22FO2+
314.1632	37	C19[13]CH22FO2+
315.1557	30	C23H20F+
316.1587	8	C22[13]CH20F+
321.1303	9	C21H21OS+
321.146	16	C19H20F3O+
323.145	21	C18H21F2O3+
324.1533	30	C24H20O+
325.1541	8	C23[13]CH20O+
333.1613	16	C23H22FO+
338.1134	16	C21H19FOS+
341.1367	30	C21H22FOS+
342.1404	14	C24H19FO+
342.1585	5	C22H21F3+
359.1479	9	C21H24FO2S+
361.1431	70	C21H20F3O2+
362.145	18	C20[13]CH20F3O2+
363.1431	5	C17H25F2O4S+
369.1338	6	C16H24F3O4S+
379.1721	13	C24H27O2S+
