Mass spectrum: Aldosterone; LC-ESI-QTOF; MS2; CE: 20 eV; R=35000; [M+H]+
Name: Aldosterone
Name: (8S,9S,10R,11S,13R,14S,17S)-11-hydroxy-17-(2-hydroxyacetyl)-10-methyl-3-oxo-1,2,6,7,8,9,11,12,14,15,16,17-dodecahydrocyclopenta[a]phenanthrene-13-carbaldehyde
Formula: C21H28O5
Exact mass: 360.1936740
SMILES: [H][C@@]12CC[C@H](C(=O)CO)[C@]1(C[C@H](O)[C@@]1([H])[C@@]2([H])CCC2=CC(=O)CC[C@]12C)C=O
InChI: InChI=1S/C21H28O5/c1-20-7-6-13(24)8-12(20)2-3-14-15-4-5-16(18(26)10-22)21(15,11-23)9-17(25)19(14)20/h8,11,14-17,19,22,25H,2-7,9-10H2,1H3/t14-,15-,16+,17-,19+,20-,21+/m0/s1
Instrument: Bruker maXis Impact
Instrument type: LC-ESI-QTOF
Ms type: MS2
Ion mode: POSITIVE
Ionization: ESI
Fragmentation mode: CID
Collision energy: 20 eV
Resolution: 35000
Column name: Acclaim RSLC C18 2.2um, 2.1x100mm, Thermo
Retention time: 7.787 min
Base peak: 361.201
Precursor m/z: 361.201
Precursor type: [M+H]+
m/z	relative intensity	assigned
119.0854	20	C9H11+
121.0639	260	C8H9O+
122.0674	15	C7[13]CH9O+
123.0799	26	C8H11O+
125.0596	24	C7H9O2+
127.0748	7	C7H11O2+
131.0839	25	C10H11+
133.0639	28	C9H9O+
133.1002	33	C10H13+
135.0794	129	C9H11O+
135.1152	13	C10H15+
136.083	13	C8[13]CH11O+
137.0594	6	C8H9O2+
137.0951	16	C9H13O+
139.0745	30	C8H11O2+
141.0668	11	C11H9+
143.084	30	C11H11+
145.0633	21	C10H9O+
145.0999	57	C11H13+
147.0792	999	C10H11O+
148.0827	94	C9[13]CH11O+
149.0947	51	C10H13O+
149.132	9	C11H17+
151.0735	26	C9H11O2+
151.1119	7	C10H15O+
153.0885	12	C9H13O2+
155.0836	16	C12H11+
157.065	14	C11H9O+
157.0868	8	C8H13O3+
157.0998	32	C12H13+
158.0704	8	C11H10O+
159.0795	63	C11H11O+
159.1165	30	C12H15+
161.0584	6	C10H9O2+
161.0943	109	C11H13O+
162.0982	10	C10[13]CH13O+
163.0744	82	C10H11O2+
163.11	37	C11H15O+
164.0783	8	C9[13]CH11O2+
165.0898	83	C10H13O2+
165.1262	7	C11H17O+
166.0922	10	C9[13]CH13O2+
167.0871	7	C13H11+
169.0994	22	C13H13+
171.079	412	C12H11O+
171.1153	24	C13H15+
172.0826	54	C11[13]CH11O+
173.0946	427	C12H13O+
174.099	52	C11[13]CH13O+
175.111	61	C12H15O+
177.0902	17	C11H13O2+
179.106	24	C11H15O2+
181.0979	9	C14H13+
183.0802	10	C13H11O+
183.1003	16	C10H15O3+
183.1153	18	C14H15+
185.0952	76	C13H13O+
185.1322	14	C14H17+
186.098	12	C12[13]CH13O+
187.074	16	C12H11O2+
187.1112	117	C13H15O+
188.115	17	C12[13]CH15O+
189.0898	17	C12H13O2+
189.1277	17	C13H17O+
191.1047	17	C12H15O2+
193.1228	10	C12H17O2+
195.0798	9	C14H11O+
195.1175	13	C15H15+
196.0874	6	C14H12O+
197.0952	58	C14H13O+
197.1345	7	C15H17+
198.1005	11	C13[13]CH13O+
199.1113	97	C14H15O+
200.1151	21	C13[13]CH15O+
201.0909	7	C13H13O2+
201.1269	46	C14H17O+
203.1063	14	C13H15O2+
205.1204	29	C13H17O2+
207.1136	10	C16H15+
207.1343	8	C13H19O2+
209.0947	39	C15H13O+
209.1297	25	C16H17+
210.1023	13	C15H14O+
211.1099	90	C15H15O+
211.1502	11	C16H19+
212.1151	17	C14[13]CH15O+
213.0902	26	C14H13O2+
213.126	81	C15H17O+
214.0947	9	C14H14O2+
214.1294	7	C14[13]CH17O+
215.1064	14	C14H15O2+
215.1452	15	C15H19O+
217.121	23	C14H17O2+
219.1177	6	C17H15+
219.1363	7	C14H19O2+
221.0962	34	C16H13O+
221.1295	13	C17H17+
222.0975	9	C15[13]CH13O+
223.1111	258	C16H15O+
223.1477	17	C17H19+
224.1146	54	C15[13]CH15O+
225.0933	9	C15H13O2+
225.1261	118	C16H17O+
225.1634	9	C17H21+
226.1314	43	C16H18O+
227.1055	10	C15H15O2+
227.1417	50	C16H19O+
228.1494	11	C15[13]CH19O+
229.1204	11	C15H17O2+
229.1605	15	C16H21O+
231.0991	11	C14H15O3+
231.1371	16	C15H19O2+
233.0954	9	C17H13O+
233.1281	7	C18H17+
234.1024	7	C17H14O+
235.111	38	C17H15O+
235.1461	8	C18H19+
237.1259	148	C17H17O+
238.1292	36	C16[13]CH17O+
239.1422	224	C17H19O+
240.1456	43	C16[13]CH19O+
241.1222	9	C16H17O2+
241.1575	104	C17H21O+
242.1604	13	C16[13]CH21O+
243.135	12	C16H19O2+
243.174	23	C17H23O+
245.1342	7	C19H17+
245.1535	10	C16H21O2+
247.1107	35	C18H15O+
247.1473	9	C19H19+
248.1156	14	C18H16O+
249.127	102	C18H17O+
249.1622	41	C19H21+
250.1306	19	C17[13]CH17O+
250.1672	8	C18[13]CH21+
251.103	12	C17H15O2+
251.1421	83	C18H19O+
251.1788	17	C19H23+
252.1459	17	C17[13]CH19O+
253.1243	10	C17H17O2+
253.1598	18	C18H21O+
255.1378	14	C17H19O2+
255.1723	8	C18H23O+
260.1197	16	C19H16O+
261.1271	42	C19H17O+
261.1634	14	C20H21+
262.1314	11	C18[13]CH17O+
263.1423	121	C19H19O+
263.178	6	C20H23+
264.1494	38	C18[13]CH19O+
265.121	14	C18H17O2+
265.1584	284	C19H21O+
266.1643	211	C19H22O+
267.1381	22	C18H19O2+
267.1729	326	C19H23O+
268.1766	82	C18[13]CH23O+
269.1184	9	C17H17O3+
269.1553	14	C18H21O2+
269.1892	98	C19H25O+
270.1936	15	C18[13]CH25O+
271.1482	12	C21H19+
271.1637	7	C18H23O2+
273.1663	9	C21H21+
274.134	33	C20H18O+
275.1425	8	C19[13]CH18O+
276.1492	15	C20H20O+
277.1584	152	C20H21O+
278.1625	30	C19[13]CH21O+
279.138	37	C19H19O2+
279.1737	300	C20H23O+
280.1415	10	C18[13]CH19O2+
280.1771	63	C19[13]CH23O+
281.153	43	C19H21O2+
281.1886	37	C20H25O+
282.1571	12	C18[13]CH21O2+
282.1887	8	C19[13]CH25O+
283.1695	44	C19H23O2+
284.1727	13	C18[13]CH23O2+
285.1836	119	C19H25O2+
286.1905	20	C18[13]CH25O2+
287.199	25	C19H27O2+
289.1583	362	C21H21O+
290.1622	97	C20[13]CH21O+
291.1741	59	C21H23O+
292.1756	8	C20[13]CH23O+
294.1597	6	C20H22O2+
295.1696	103	C20H23O2+
296.1716	20	C19[13]CH23O2+
297.1461	10	C19H21O3+
297.1844	108	C20H25O2+
298.1895	22	C19[13]CH25O2+
299.165	8	C19H23O3+
299.1967	22	C20H27O2+
301.1826	7	C19H25O3+
307.1691	445	C21H23O2+
308.1722	97	C20[13]CH23O2+
309.184	153	C21H25O2+
310.1891	22	C20[13]CH25O2+
313.1785	30	C20H25O3+
315.1968	33	C20H27O3+
325.1792	445	C21H25O3+
326.1829	121	C20[13]CH25O3+
327.1943	243	C21H27O3+
328.1985	43	C20[13]CH27O3+
343.1902	920	C21H27O4+
344.1926	207	C20[13]CH27O4+
345.2044	154	C21H29O4+
346.209	15	C20[13]CH29O4+
361.1996	19	C21H29O5+
