Mass spectrum: 2-(4-Morpholinyl)benzothiazole; LC-ESI-QTOF; MS2; CE: 40 eV; R=35000; [M+H]+
Name: 2-(4-Morpholinyl)benzothiazole
Name: 4-(1,3-benzothiazol-2-yl)morpholine
Formula: C11H12N2OS
Exact mass: 220.0670340
SMILES: C1CN(CCO1)C1=NC2=CC=CC=C2S1
InChI: InChI=1S/C11H12N2OS/c1-2-4-10-9(3-1)12-11(15-10)13-5-7-14-8-6-13/h1-4H,5-8H2
Instrument: Bruker maXis Impact
Instrument type: LC-ESI-QTOF
Ms type: MS2
Ion mode: POSITIVE
Ionization: ESI
Fragmentation mode: CID
Collision energy: 40 eV
Resolution: 35000
Column name: Acclaim RSLC C18 2.2um, 2.1x100mm, Thermo
Retention time: 8.487 min
Base peak: 221.0737
Precursor m/z: 221.0743
Precursor type: [M+H]+
m/z	relative intensity	assigned
109.0103	23	C6H5S+
116.049	9	C8H6N+
117.0565	101	C8H7N+
118.0607	10	C7[13]CH7N+
123.0122	11	C6H5NS+
124.0206	88	C9H2N+
125.023	5	C8[13]CH2N+
134.0047	43	C7H4NS+
135.0123	79	C7H5NS+
136.0206	668	C7H6NS+
137.0234	43	C6[13]CH6NS+
138.0164	19	C7H6N[34]S+
144.0668	35	C9H8N2+
145.0734	5	C8[13]CH8N2+
148.0203	33	C8H6NS+
149.0264	74	C11H3N+
150.0224	75	C10H2N2+
150.0361	999	C8H8NS+
151.0346	76	C7H7N2S+
152.0154	14	C7H6NOS+
152.0318	32	C8H8N[34]S+
160.0201	22	C9H6NS+
161.0157	13	C8H5N2S+
162.0228	5	C11H2N2+
162.0355	15	C9H8NS+
163.0312	60	C8H7N2S+
164.0353	5	C7[13]CH7N2S+
175.0313	154	C9H7N2S+
176.0362	22	C8[13]CH7N2S+
177.0471	932	C9H9N2S+
178.0498	79	C8[13]CH9N2S+
179.0266	5	C8H7N2OS+
179.0419	30	C9H9N2[34]S+
187.0313	10	C10H7N2S+
188.0383	11	C10H8N2S+
189.0468	35	C10H9N2S+
190.053	10	C10H10N2S+
191.0264	10	C9H7N2OS+
203.0624	20	C11H11N2S+
219.0584	7	C11H11N2OS+
221.0734	126	C11H13N2OS+
222.0768	19	C10[13]CH13N2OS+
223.0684	6	C11H13N2O[34]S+
