Mass spectrum: Betamethasone dipropionate; LC-ESI-QTOF; MS2; CE: 10 eV; R=35000; [M+H]+
Name: Betamethasone dipropionate
Name: CIWBQSYVNNPZIQ-UHFFFAOYSA-N
Name: [2-(9-fluoro-11-hydroxy-10,13,16-trimethyl-3-oxo-17-propanoyloxy-6,7,8,11,12,14,15,16-octahydrocyclopenta[a]phenanthren-17-yl)-2-oxoethyl] propanoate
Formula: C28H37FO7
Exact mass: 504.2523317
SMILES: CCC(=O)OCC(=O)C1(OC(=O)CC)C(C)CC2C3CCC4=CC(=O)C=CC4(C)C3(F)C(O)CC12C
InChI: InChI=1S/C28H37FO7/c1-6-23(33)35-15-22(32)28(36-24(34)7-2)16(3)12-20-19-9-8-17-13-18(30)10-11-25(17,4)27(19,29)21(31)14-26(20,28)5/h10-11,13,16,19-21,31H,6-9,12,14-15H2,1-5H3
Instrument: Bruker maXis Impact
Instrument type: LC-ESI-QTOF
Ms type: MS2
Ion mode: POSITIVE
Ionization: ESI
Fragmentation mode: CID
Collision energy: 10 eV
Resolution: 35000
Column name: Acclaim RSLC C18 2.2um, 2.1x100mm, Thermo
Retention time: 11.294 min
Base peak: 505.2586
Precursor m/z: 505.2596
Precursor type: [M+H]+
m/z	relative intensity	assigned
147.0793	6	C10H11O+
153.0897	7	C9H13O2+
185.0946	24	C13H13O+
209.1171	6	C12H17O3+
223.131	11	C13H19O3+
263.1426	6	C19H19O+
275.1421	7	C20H19O+
277.1578	15	C20H21O+
279.174	169	C20H23O+
280.177	31	C19[13]CH23O+
291.1731	47	C21H23O+
292.1771	10	C20[13]CH23O+
295.1683	6	C20H23O2+
297.1837	8	C20H25O2+
301.1582	49	C22H21O+
302.1619	11	C21[13]CH21O+
309.1839	33	C21H25O2+
310.1873	7	C20[13]CH25O2+
319.1691	193	C22H23O2+
320.1717	43	C21[13]CH23O2+
321.1742	7	C20[13]C2H23O2+
337.1797	174	C22H25O3+
338.1825	42	C21[13]CH25O3+
339.16	6	C18H24FO5+
339.1818	8	C15H28FO7+
355.1897	84	C22H27O4+
356.1935	21	C21[13]CH27O4+
357.1917	5	C18H29O7+
365.2102	6	C24H29O3+
375.195	10	C25H27O3+
383.2197	6	C24H31O4+
393.2059	119	C25H29O4+
394.2089	32	C24[13]CH29O4+
395.2113	5	C23[13]C2H29O4+
399.1795	8	C23H27O6+
411.2166	838	C25H31O5+
412.2194	218	C24[13]CH31O5+
413.2207	37	C23[13]C2H31O5+
431.2217	8	C28H31O4+
483.2391	16	C28H35O7+
484.2412	6	C27[13]CH35O7+
485.2535	564	C28H37O7+
486.2564	170	C27[13]CH37O7+
487.2579	28	C26[13]C2H37O7+
503.2422	21	C28H36FO7+
504.247	12	C28H37FO7+
505.2595	999	C28H38FO7+
506.2631	295	C27[13]CH38FO7+
507.2655	46	C26[13]C2H38FO7+
