Mass spectrum: Norgestrel; LC-ESI-QTOF; MS2; CE: 30 eV; R=35000; [M+H]+
Name: Norgestrel
Name: (8R,9S,10R,13S,14S)-13-ethyl-17-ethynyl-17-hydroxy-1,2,6,7,8,9,10,11,12,14,15,16-dodecahydrocyclopenta[a]phenanthren-3-one
Formula: C21H28O2
Exact mass: 312.2089301
SMILES: [H][C@@]12CCC(O)(C#C)[C@@]1(CC)CC[C@]1([H])[C@@]3([H])CCC(=O)C=C3CC[C@@]21[H]
InChI: InChI=1S/C21H28O2/c1-3-20-11-9-17-16-8-6-15(22)13-14(16)5-7-18(17)19(20)10-12-21(20,23)4-2/h2,13,16-19,23H,3,5-12H2,1H3/t16-,17+,18+,19-,20-,21?/m0/s1
Instrument: Bruker maXis Impact
Instrument type: LC-ESI-QTOF
Ms type: MS2
Ion mode: POSITIVE
Ionization: ESI
Fragmentation mode: CID
Collision energy: 30 eV
Resolution: 35000
Column name: Acclaim RSLC C18 2.2um, 2.1x100mm, Thermo
Retention time: 10.145 min
Base peak: 313.2163
Precursor m/z: 313.2162
Precursor type: [M+H]+
m/z	relative intensity	assigned
109.065	8	C7H9O+
115.0538	85	C9H7+
116.0613	29	C9H8+
117.0691	167	C9H9+
118.0717	23	C8[13]CH9+
119.0847	195	C9H11+
120.0881	21	C8[13]CH11+
121.0638	64	C8H9O+
121.1005	77	C9H13+
122.0676	9	C7[13]CH9O+
122.1055	7	C8[13]CH13+
123.0794	145	C8H11O+
123.1156	106	C9H15+
124.1194	12	C8[13]CH15+
125.0951	37	C8H13O+
127.0527	8	C10H7+
128.0611	126	C10H8+
129.0686	324	C10H9+
130.0749	76	C10H10+
131.0846	563	C10H11+
132.0578	5	C9H8O+
132.0882	63	C9[13]CH11+
133.0636	104	C9H9O+
133.1004	487	C10H13+
134.0691	12	C8[13]CH9O+
134.1037	56	C9[13]CH13+
135.0795	478	C9H11O+
135.1158	201	C10H15+
136.0827	50	C8[13]CH11O+
136.1187	23	C9[13]CH15+
137.095	44	C9H13O+
137.1311	60	C10H17+
138.0998	7	C8[13]CH13O+
138.134	7	C9[13]CH17+
141.0688	135	C11H9+
142.0764	90	C11H10+
143.0844	387	C11H11+
144.0549	5	C10H8O+
144.0906	80	C11H12+
145.0636	38	C10H9O+
145.1001	571	C11H13+
146.1038	75	C10[13]CH13+
147.0796	139	C10H11O+
147.1155	182	C11H15+
148.0852	30	C10H12O+
148.1189	23	C10[13]CH15+
149.0948	354	C10H13O+
149.1307	76	C11H17+
150.0984	41	C9[13]CH13O+
150.1335	12	C10[13]CH17+
151.1116	26	C10H15O+
152.0609	5	C12H8+
153.0683	26	C12H9+
154.0758	25	C12H10+
155.0843	166	C12H11+
156.0901	71	C12H12+
157.0634	25	C11H9O+
157.1	437	C12H13+
158.0709	6	C11H10O+
158.1046	78	C11[13]CH13+
159.079	130	C11H11O+
159.1157	414	C12H15+
160.0844	22	C10[13]CH11O+
160.1193	72	C11[13]CH15+
161.0948	313	C11H13O+
161.131	82	C12H17+
162.0994	50	C10[13]CH13O+
162.1348	18	C11[13]CH17+
163.1106	220	C11H15O+
163.1479	27	C12H19+
164.1134	31	C10[13]CH15O+
164.1512	5	C11[13]CH19+
165.0685	35	C13H9+
165.1266	8	C11H17O+
166.076	22	C13H10+
167.0841	96	C13H11+
168.0914	44	C13H12+
169.0997	227	C13H13+
170.1061	61	C13H14+
171.1154	373	C13H15+
172.084	5	C12H12O+
172.1195	70	C12[13]CH15+
173.0945	59	C12H13O+
173.1314	174	C13H17+
174.1008	14	C12H14O+
174.1349	33	C12[13]CH17+
175.1106	208	C12H15O+
175.1467	187	C13H19+
176.1143	36	C11[13]CH15O+
176.1497	33	C12[13]CH19+
177.1263	32	C12H17O+
178.0766	14	C14H10+
179.0842	59	C14H11+
180.0904	38	C14H12+
181.1001	129	C14H13+
182.1057	42	C14H14+
183.08	16	C13H11O+
183.1159	256	C14H15+
184.0886	7	C13H12O+
184.1201	70	C14H16+
185.0947	71	C13H13O+
185.1314	440	C14H17+
186.1003	14	C12[13]CH13O+
186.1353	97	C13[13]CH17+
187.1104	82	C13H15O+
187.1469	264	C14H19+
188.1182	45	C13H16O+
188.1504	41	C13[13]CH19+
189.1262	126	C13H17O+
189.1624	7	C14H21+
190.1294	21	C12[13]CH17O+
191.0848	13	C15H11+
191.1425	18	C13H19O+
192.0911	18	C15H12+
192.1468	5	C13H20O+
193.0997	69	C15H13+
194.1076	27	C15H14+
195.1162	138	C15H15+
196.1218	44	C15H16+
197.0951	36	C14H13O+
197.1315	164	C15H17+
198.1004	10	C14H14O+
198.1366	42	C14[13]CH17+
199.1104	51	C14H15O+
199.1466	200	C15H19+
200.1161	13	C14H16O+
200.1527	48	C14[13]CH19+
201.126	103	C14H17O+
201.162	63	C15H21+
202.1321	25	C13[13]CH17O+
202.1675	10	C14[13]CH21+
203.1423	73	C14H19O+
203.1776	23	C15H23+
204.1467	12	C13[13]CH19O+
204.181	5	C14[13]CH23+
205.1008	22	C16H13+
205.156	6	C14H21O+
206.1074	29	C16H14+
207.1155	91	C16H15+
208.1225	53	C16H16+
209.1311	95	C16H17+
210.1369	31	C16H18+
211.1107	41	C15H15O+
211.1473	69	C16H19+
212.1151	15	C15H16O+
212.153	20	C15[13]CH19+
213.1262	49	C15H17O+
213.1617	40	C16H21+
214.1313	15	C15H18O+
214.1669	7	C15[13]CH21+
215.1421	44	C15H19O+
215.1772	24	C16H23+
216.1473	18	C15H20O+
217.1576	16	C15H21O+
217.1952	9	C16H25+
219.1151	21	C17H15+
220.1241	42	C17H16+
221.1318	87	C17H17+
222.1384	29	C17H18+
223.1132	5	C16H15O+
223.1476	68	C17H19+
224.1201	6	C16H16O+
224.1516	23	C17H20+
225.1262	44	C16H17O+
225.1628	135	C17H21+
226.134	16	C16H18O+
226.1664	25	C16[13]CH21+
227.1413	28	C16H19O+
227.1785	369	C17H23+
228.1489	11	C16H20O+
228.1824	67	C16[13]CH23+
229.1582	22	C16H21O+
229.184	5	C15[13]C2H23+
230.1648	6	C15[13]CH21O+
231.1722	6	C16H23O+
233.132	28	C18H17+
233.1895	6	C16H25O+
234.1382	19	C18H18+
235.1466	86	C18H19+
236.1533	32	C18H20+
237.1284	10	C17H17O+
237.1627	132	C18H21+
238.1363	13	C17H18O+
238.1668	36	C17[13]CH21+
239.1427	41	C17H19O+
239.179	24	C18H23+
240.1455	10	C16[13]CH19O+
240.1852	7	C17[13]CH23+
241.158	39	C17H21O+
242.1639	8	C16[13]CH21O+
243.1739	31	C17H23O+
244.1771	9	C16[13]CH23O+
245.1894	999	C17H25O+
246.1929	188	C16[13]CH25O+
247.1476	17	C19H19+
247.1951	23	C15[13]C2H25O+
248.1552	54	C19H20+
249.1623	77	C19H21+
250.1669	14	C18[13]CH21+
251.1423	10	C18H19O+
251.1795	43	C19H23+
252.1494	10	C18H20O+
252.1841	14	C18[13]CH23+
253.1576	28	C18H21O+
253.1941	32	C19H25+
254.163	11	C18H22O+
254.1964	8	C18[13]CH25+
255.1723	17	C18H23O+
256.1789	6	C18H24O+
257.1908	6	C18H25O+
262.1724	9	C20H22+
265.1575	12	C19H21O+
266.1659	51	C19H22O+
267.1721	58	C19H23O+
267.2103	18	C20H27+
268.1753	12	C18[13]CH23O+
269.1891	11	C19H25O+
277.1937	82	C21H25+
278.1983	26	C20[13]CH25+
280.18	8	C20H24O+
284.1773	13	C19H24O2+
285.1823	8	C19H25O2+
295.2045	143	C21H27O+
296.2079	47	C20[13]CH27O+
313.2162	288	C21H29O2+
314.2193	70	C20[13]CH29O2+
315.2222	7	C19[13]C2H29O2+
