Mass spectrum: N-Cyclohexyl-2-benzothiazol-amine; LC-ESI-QTOF; MS2; CE: Ramp 20-30 eV; R=35000; [M+H]+
Name: N-Cyclohexyl-2-benzothiazol-amine
Name: N-cyclohexyl-1,3-benzothiazol-2-amine
Formula: C13H16N2S
Exact mass: 232.1034195
SMILES: C1CCC(CC1)NC1=NC2=CC=CC=C2S1
InChI: InChI=1S/C13H16N2S/c1-2-6-10(7-3-1)14-13-15-11-8-4-5-9-12(11)16-13/h4-5,8-10H,1-3,6-7H2,(H,14,15)
Instrument: Bruker maXis Impact
Instrument type: LC-ESI-QTOF
Ms type: MS2
Ion mode: POSITIVE
Ionization: ESI
Fragmentation mode: CID
Collision energy: Ramp 20-30 eV
Resolution: 35000
Column name: Acclaim RSLC C18 2.2um, 2.1x100mm, Thermo
Retention time: 10.854 min
Base peak: 233.1107
Precursor m/z: 233.1107
Precursor type: [M+H]+
m/z	relative intensity	assigned
55.0537	74	C4H7+
83.0851	144	C6H11+
84.0883	8	C5[13]CH11+
92.0492	5	C6H6N+
109.0108	5	C6H5S+
124.021	27	C6H6NS+
151.0326	999	C7H7N2S+
152.0345	99	C6[13]CH7N2S+
153.0276	48	C7H7N2[34]S+
233.1108	517	C13H17N2S+
234.1135	88	C12[13]CH17N2S+
235.1075	25	C13H17N2[34]S+
