Mass spectrum: Megestrol-17-acetate; LC-ESI-QTOF; MS2; CE: 10 eV; R=35000; [M+H]+
Name: Megestrol-17-acetate
Name: Megestrol acetate
Name: [(8R,9S,10R,13S,14S,17R)-17-acetyl-6,10,13-trimethyl-3-oxo-2,8,9,11,12,14,15,16-octahydro-1H-cyclopenta[a]phenanthren-17-yl] acetate
Formula: C24H32O4
Exact mass: 384.2300595
SMILES: CC(=O)O[C@@]1(CC[C@H]2[C@@H]3C=C(C)C4=CC(=O)CC[C@]4(C)[C@H]3CC[C@]12C)C(C)=O
InChI: InChI=1S/C24H32O4/c1-14-12-18-19(22(4)9-6-17(27)13-21(14)22)7-10-23(5)20(18)8-11-24(23,15(2)25)28-16(3)26/h12-13,18-20H,6-11H2,1-5H3/t18-,19+,20+,22-,23+,24+/m1/s1
Instrument: Bruker maXis Impact
Instrument type: LC-ESI-QTOF
Ms type: MS2
Ion mode: POSITIVE
Ionization: ESI
Fragmentation mode: CID
Collision energy: 10 eV
Resolution: 35000
Column name: Acclaim RSLC C18 2.2um, 2.1x100mm, Thermo
Retention time: 10.865 min
Base peak: 385.2378
Precursor m/z: 385.2373
Precursor type: [M+H]+
m/z	relative intensity	assigned
255.1737	6	C18H23O+
265.1947	10	C20H25+
267.1738	29	C19H23O+
268.1771	5	C18[13]CH23O+
283.2045	5	C20H27O+
307.2051	6	C22H27O+
325.2163	169	C22H29O2+
326.2197	35	C21[13]CH29O2+
385.2383	999	C24H33O4+
386.2412	324	C23[13]CH33O4+
387.2442	30	C22[13]C2H33O4+
