Mass spectrum: Drospirenone; LC-ESI-QTOF; MS2; CE: 20 eV; R=35000; [M+H]+
Name: Drospirenone
Name: (1R,2R,4R,10R,11S,14S,15S,16S,18S,19S)-10,14-dimethylspiro[hexacyclo[9.8.0.02,4.05,10.014,19.016,18]nonadec-5-ene-15,5`-oxolane]-2`,7-dione
Formula: C24H30O3
Exact mass: 366.2194948
SMILES: [H][C@@]12[C@@H]3C[C@@H]3[C@@]3(CCC(=O)O3)[C@@]1(C)CC[C@@]1([H])[C@@]2([H])[C@H]2C[C@H]2C2=CC(=O)CC[C@]12C
InChI: InChI=1S/C24H30O3/c1-22-6-3-12(25)9-17(22)13-10-14(13)20-16(22)4-7-23(2)21(20)15-11-18(15)24(23)8-5-19(26)27-24/h9,13-16,18,20-21H,3-8,10-11H2,1-2H3/t13-,14+,15-,16+,18+,20-,21+,22-,23+,24+/m1/s1
Instrument: Bruker maXis Impact
Instrument type: LC-ESI-QTOF
Ms type: MS2
Ion mode: POSITIVE
Ionization: ESI
Fragmentation mode: CID
Collision energy: 20 eV
Resolution: 35000
Column name: Acclaim RSLC C18 2.2um, 2.1x100mm, Thermo
Retention time: 9.552 min
Base peak: 367.2273
Precursor m/z: 367.2268
Precursor type: [M+H]+
m/z	relative intensity	assigned
123.0796	6	C8H11O+
131.0848	10	C10H11+
133.1004	6	C10H13+
135.0793	13	C9H11O+
143.0842	10	C11H11+
145.1002	10	C11H13+
147.0793	8	C10H11O+
149.095	17	C10H13O+
153.0899	20	C9H13O2+
157.1002	12	C12H13+
159.0793	9	C11H11O+
159.1158	9	C12H15+
161.095	6	C11H13O+
165.0901	6	C10H13O2+
169.1002	6	C13H13+
171.1156	14	C13H15+
173.0951	8	C12H13O+
175.1105	7	C12H15O+
177.0903	12	C11H13O2+
183.1156	7	C14H15+
185.0946	7	C13H13O+
185.131	8	C14H17+
187.1103	7	C13H15O+
189.1266	8	C13H17O+
195.1158	7	C15H15+
197.1315	17	C15H17+
199.1106	8	C14H15O+
201.1261	6	C14H17O+
209.1316	5	C16H17+
211.1474	6	C16H19+
213.1268	8	C15H17O+
215.1423	16	C15H19O+
217.1214	5	C14H17O2+
219.137	10	C14H19O2+
221.1318	8	C17H17+
227.1416	7	C16H19O+
231.1372	11	C15H19O2+
235.1474	5	C18H19+
239.1425	20	C17H19O+
253.1585	9	C18H21O+
257.1531	22	C17H21O2+
258.1574	6	C16[13]CH21O2+
289.1941	5	C22H25+
295.1691	12	C20H23O2+
307.205	14	C22H27O+
321.2207	8	C23H29O+
331.2055	17	C24H27O+
349.2164	57	C24H29O2+
350.2194	15	C23[13]CH29O2+
367.2273	999	C24H31O3+
368.2305	202	C23[13]CH31O3+
369.2331	23	C22[13]C2H31O3+
