Mass spectrum: Triethylcitrate; LC-ESI-QTOF; MS2; CE: 20 eV; R=35000; [M+H]+
Name: Triethylcitrate
Name: Triethyl citrate
Name: triethyl 2-hydroxypropane-1,2,3-tricarboxylate
Formula: C12H20O7
Exact mass: 276.1209030
SMILES: CCOC(=O)CC(O)(CC(=O)OCC)C(=O)OCC
InChI: InChI=1S/C12H20O7/c1-4-17-9(13)7-12(16,11(15)19-6-3)8-10(14)18-5-2/h16H,4-8H2,1-3H3
Instrument: Bruker maXis Impact
Instrument type: LC-ESI-QTOF
Ms type: MS2
Ion mode: POSITIVE
Ionization: ESI
Fragmentation mode: CID
Collision energy: 20 eV
Resolution: 35000
Column name: Acclaim RSLC C18 2.2um, 2.1x100mm, Thermo
Retention time: 6.991 min
Base peak: 277.1284
Precursor m/z: 277.1282
Precursor type: [M+H]+
m/z	relative intensity	assigned
129.0168	39	C5H5O4+
139.0018	56	C6H3O4+
149.0219	5	C8H5O3+
157.0488	999	C7H9O4+
158.0519	73	C6[13]CH9O4+
159.0539	7	C7H9O3[18]O+
167.0325	11	C8H7O4+
185.0437	30	C8H9O5+
203.0918	14	C9H15O5+
213.0755	10	C10H13O5+
