Mass spectrum: Budesonide; LC-ESI-QTOF; MS2; CE: 10 eV; R=35000; [M+H]+
Name: Budesonide
Name: (1S,2S,4R,6R,8S,9S,11S,12S,13R)-11-hydroxy-8-(2-hydroxyacetyl)-9,13-dimethyl-6-propyl-5,7-dioxapentacyclo[10.8.0.02,9.04,8.013,18]icosa-14,17-dien-16-one
Formula: C25H34O6
Exact mass: 430.2355388
SMILES: [H][C@@]12C[C@@]3([H])[C@]4([H])CCC5=CC(=O)C=C[C@]5(C)[C@@]4([H])[C@@H](O)C[C@]3(C)[C@@]1(O[C@H](CCC)O2)C(=O)CO
InChI: InChI=1S/C25H34O6/c1-4-5-21-30-20-11-17-16-7-6-14-10-15(27)8-9-23(14,2)22(16)18(28)12-24(17,3)25(20,31-21)19(29)13-26/h8-10,16-18,20-22,26,28H,4-7,11-13H2,1-3H3/t16-,17-,18-,20+,21+,22+,23-,24-,25+/m0/s1
Instrument: Bruker maXis Impact
Instrument type: LC-ESI-QTOF
Ms type: MS2
Ion mode: POSITIVE
Ionization: ESI
Fragmentation mode: CID
Collision energy: 10 eV
Resolution: 35000
Column name: Acclaim RSLC C18 2.2um, 2.1x100mm, Thermo
Retention time: 10.340 min
Base peak: 431.2422
Precursor m/z: 431.2428
Precursor type: [M+H]+
m/z	relative intensity	assigned
119.0845	26	C9H11+
135.0795	9	C9H11O+
147.0792	26	C10H11O+
171.0793	10	C12H11O+
173.0945	25	C12H13O+
223.1108	5	C16H15O+
225.1263	17	C16H17O+
226.1323	6	C16H18O+
227.1415	22	C16H19O+
239.1427	6	C17H19O+
241.1582	7	C17H21O+
263.142	27	C19H19O+
264.1445	6	C18[13]CH19O+
265.1571	12	C19H21O+
267.174	10	C19H23O+
277.1576	16	C20H21O+
278.1609	5	C19[13]CH21O+
279.1725	7	C20H23O+
281.1379	32	C15H21O5+
282.1414	5	C14[13]CH21O5+
283.1681	9	C19H23O2+
289.1581	11	C21H21O+
293.1524	7	C20H21O2+
295.1155	5	C15H19O6+
295.168	35	C20H23O2+
296.1723	7	C19[13]CH23O2+
305.1528	43	C21H21O2+
306.1564	10	C20[13]CH21O2+
307.1682	36	C21H23O2+
308.1721	9	C20[13]CH23O2+
313.1788	11	C20H25O3+
323.1632	177	C21H23O3+
324.1666	39	C20[13]CH23O3+
325.1789	65	C21H25O3+
326.1821	17	C20[13]CH25O3+
327.1922	7	C21H27O3+
339.1579	15	C21H23O4+
341.1743	136	C21H25O4+
342.1774	31	C20[13]CH25O4+
343.1887	20	C21H27O4+
344.1936	5	C20[13]CH27O4+
377.2099	7	C25H29O3+
395.2208	38	C25H31O4+
396.2249	13	C24[13]CH31O4+
413.232	999	C25H33O5+
414.2349	212	C24[13]CH33O5+
415.2111	336	C24H31O6+
416.2145	73	C23[13]CH31O6+
417.2167	8	C22[13]C2H31O6+
431.2426	741	C25H35O6+
432.2451	188	C24[13]CH35O6+
433.247	30	C23[13]C2H35O6+
