Mass spectrum: Dydrogesterone; LC-ESI-QTOF; MS2; CE: 20 eV; R=35000; [M+H]+
Name: Dydrogesterone
Name: (8S,9R,10S,13S,14S,17S)-17-acetyl-10,13-dimethyl-1,2,8,9,11,12,14,15,16,17-decahydrocyclopenta[a]phenanthren-3-one
Formula: C21H28O2
Exact mass: 312.2089301
SMILES: [H][C@@]12CC[C@H](C(C)=O)[C@@]1(C)CC[C@]1([H])[C@@]2([H])C=CC2=CC(=O)CC[C@@]12C
InChI: InChI=1S/C21H28O2/c1-13(22)17-6-7-18-16-5-4-14-12-15(23)8-10-20(14,2)19(16)9-11-21(17,18)3/h4-5,12,16-19H,6-11H2,1-3H3/t16-,17+,18-,19+,20+,21+/m0/s1
Instrument: Bruker maXis Impact
Instrument type: LC-ESI-QTOF
Ms type: MS2
Ion mode: POSITIVE
Ionization: ESI
Fragmentation mode: CID
Collision energy: 20 eV
Resolution: 35000
Column name: Acclaim RSLC C18 2.2um, 2.1x100mm, Thermo
Retention time: 10.697 min
Base peak: 313.2163
Precursor m/z: 313.2162
Precursor type: [M+H]+
m/z	relative intensity	assigned
119.0847	7	C9H11+
121.0643	12	C8H9O+
121.1001	8	C9H13+
123.0801	7	C8H11O+
127.0746	7	C7H11O2+
131.0841	15	C10H11+
133.0643	5	C9H9O+
133.1001	22	C10H13+
135.0789	5	C9H11O+
135.116	11	C10H15+
137.095	15	C9H13O+
143.0844	15	C11H11+
145.0999	26	C11H13+
147.0791	21	C10H11O+
147.1157	16	C11H15+
149.0953	18	C10H13O+
151.1101	10	C10H15O+
155.0841	16	C12H11+
157.1001	28	C12H13+
159.079	5	C11H11O+
159.1157	53	C12H15+
160.1197	6	C11[13]CH15+
161.095	44	C11H13O+
161.1308	7	C12H17+
163.1109	39	C11H15O+
164.1149	5	C10[13]CH15O+
169.1001	11	C13H13+
171.0792	27	C12H11O+
171.116	40	C13H15+
172.1188	6	C12[13]CH15+
173.095	73	C12H13O+
173.1312	19	C13H17+
174.0988	9	C11[13]CH13O+
175.1109	56	C12H15O+
175.1467	5	C13H19+
176.1142	7	C11[13]CH15O+
177.1264	43	C12H17O+
178.1294	5	C11[13]CH17O+
181.1003	11	C14H13+
183.1159	20	C14H15+
185.0951	8	C13H13O+
185.1313	17	C14H17+
187.1107	19	C13H15O+
187.1473	22	C14H19+
189.1267	36	C13H17O+
191.142	10	C13H19O+
195.1159	16	C15H15+
197.1317	25	C15H17+
198.1353	5	C14[13]CH17+
199.1113	41	C14H15O+
199.1475	20	C15H19+
200.114	7	C13[13]CH15O+
201.1265	21	C14H17O+
203.1419	7	C14H19O+
207.1158	9	C16H15+
209.1314	12	C16H17+
211.1109	14	C15H15O+
211.1475	54	C16H19+
212.1519	9	C15[13]CH19+
213.126	22	C15H17O+
213.163	18	C16H21+
215.1418	12	C15H19O+
215.1789	11	C16H23+
217.158	17	C15H21O+
221.132	19	C17H17+
222.1365	5	C16[13]CH17+
225.1268	30	C16H17O+
225.1635	32	C17H21+
226.1318	5	C15[13]CH17O+
226.1665	5	C16[13]CH21+
227.1417	10	C16H19O+
229.1581	80	C16H21O+
230.1613	14	C15[13]CH21O+
231.173	12	C16H23O+
235.1476	13	C18H19+
237.163	42	C18H21+
238.1665	7	C17[13]CH21+
239.1426	47	C17H19O+
240.1473	9	C16[13]CH19O+
243.1734	17	C17H23O+
249.1636	8	C19H21+
251.1784	30	C19H23+
252.1842	10	C19H24+
253.1581	14	C18H21O+
253.195	114	C19H25+
254.198	22	C18[13]CH25+
255.174	80	C18H23O+
256.1774	14	C17[13]CH23O+
267.1738	15	C19H23O+
267.2101	12	C20H27+
268.1786	5	C18[13]CH23O+
269.1899	93	C19H25O+
270.1936	21	C18[13]CH25O+
271.2051	77	C19H27O+
272.2086	14	C18[13]CH27O+
277.1947	64	C21H25+
278.198	16	C20[13]CH25+
295.2058	498	C21H27O+
296.2088	92	C20[13]CH27O+
297.2128	10	C19[13]C2H27O+
313.2166	999	C21H29O2+
314.2197	186	C20[13]CH29O2+
315.2225	23	C19[13]C2H29O2+
