Mass spectrum: N-Methyldodecylamine; LC-ESI-QTOF; MS2; CE: Ramp 18.0-27.0 eV; R=35000; [M+H]+
Name: N-Methyldodecylamine
Name: N-methyldodecan-1-amine
Formula: C13H29N
Exact mass: 199.2299999
SMILES: CCCCCCCCCCCCNC
InChI: InChI=1S/C13H29N/c1-3-4-5-6-7-8-9-10-11-12-13-14-2/h14H,3-13H2,1-2H3
Instrument: Bruker maXis Impact
Instrument type: LC-ESI-QTOF
Ms type: MS2
Ion mode: POSITIVE
Ionization: ESI
Fragmentation mode: CID
Collision energy: Ramp 18.0-27.0 eV
Resolution: 35000
Column name: Acclaim RSLC C18 2.2um, 2.1x100mm, Thermo
Retention time: 10.514 min
Base peak: 200.2367
Precursor m/z: 200.2373
Precursor type: [M+H]+
m/z	relative intensity	assigned
55.0541	7	C4H7+
57.0694	236	C4H9+
58.0726	9	C3[13]CH9+
71.0852	111	C5H11+
72.0888	5	C4[13]CH11+
85.1011	33	C6H13+
200.237	999	C13H30N+
201.2401	159	C12[13]CH30N+
202.2437	7	C11[13]C2H30N+
