Mass spectrum: Betamethasone dipropionate; LC-ESI-QTOF; MS2; CE: 20 eV; R=35000; [M+H]+
Name: Betamethasone dipropionate
Name: CIWBQSYVNNPZIQ-UHFFFAOYSA-N
Name: [2-(9-fluoro-11-hydroxy-10,13,16-trimethyl-3-oxo-17-propanoyloxy-6,7,8,11,12,14,15,16-octahydrocyclopenta[a]phenanthren-17-yl)-2-oxoethyl] propanoate
Formula: C28H37FO7
Exact mass: 504.2523317
SMILES: CCC(=O)OCC(=O)C1(OC(=O)CC)C(C)CC2C3CCC4=CC(=O)C=CC4(C)C3(F)C(O)CC12C
InChI: InChI=1S/C28H37FO7/c1-6-23(33)35-15-22(32)28(36-24(34)7-2)16(3)12-20-19-9-8-17-13-18(30)10-11-25(17,4)27(19,29)21(31)14-26(20,28)5/h10-11,13,16,19-21,31H,6-9,12,14-15H2,1-5H3
Instrument: Bruker maXis Impact
Instrument type: LC-ESI-QTOF
Ms type: MS2
Ion mode: POSITIVE
Ionization: ESI
Fragmentation mode: CID
Collision energy: 20 eV
Resolution: 35000
Column name: Acclaim RSLC C18 2.2um, 2.1x100mm, Thermo
Retention time: 11.300 min
Base peak: 505.2589
Precursor m/z: 505.2596
Precursor type: [M+H]+
m/z	relative intensity	assigned
119.0845	5	C9H11+
121.0638	9	C8H9O+
123.0801	10	C8H11O+
131.0841	5	C10H11+
133.0639	6	C9H9O+
133.1001	29	C10H13+
135.0794	50	C9H11O+
136.0823	5	C8[13]CH11O+
137.0953	15	C9H13O+
145.0642	5	C10H9O+
147.079	94	C10H11O+
148.0823	9	C9[13]CH11O+
149.0948	36	C10H13O+
151.0739	9	C9H11O2+
151.1113	19	C10H15O+
153.0898	101	C9H13O2+
154.0937	9	C8[13]CH13O2+
159.0794	36	C11H11O+
160.0832	5	C10[13]CH11O+
161.058	7	C10H9O2+
161.095	36	C11H13O+
163.0747	5	C10H11O2+
163.1109	6	C11H15O+
165.0895	7	C10H13O2+
167.1054	55	C10H15O2+
168.1088	6	C9[13]CH15O2+
169.0638	9	C12H9O+
171.0792	62	C12H11O+
172.084	6	C11[13]CH11O+
173.0951	41	C12H13O+
175.1112	8	C12H15O+
177.0899	29	C11H13O2+
179.106	5	C11H15O2+
181.1214	5	C11H17O2+
183.079	6	C13H11O+
185.095	178	C13H13O+
186.0988	21	C12[13]CH13O+
187.0743	51	C12H11O2+
187.1106	11	C13H15O+
188.0779	6	C11[13]CH11O2+
189.0903	10	C12H13O2+
195.1011	5	C11H15O3+
197.0951	17	C14H13O+
199.0745	9	C13H11O2+
199.1116	14	C14H15O+
203.1061	17	C13H15O2+
207.1368	8	C13H19O2+
209.095	10	C15H13O+
209.1159	29	C12H17O3+
210.1188	6	C11[13]CH17O3+
211.1105	17	C15H15O+
213.0885	6	C14H13O2+
213.1269	14	C15H17O+
215.1059	9	C14H15O2+
221.0947	18	C16H13O+
223.1114	23	C16H15O+
223.1322	53	C13H19O3+
224.1147	7	C16H16O+
224.1357	7	C12[13]CH19O3+
225.1265	11	C16H17O+
229.0859	5	C14H13O3+
233.1157	5	C14H17O3+
235.1111	12	C17H15O+
237.1263	14	C17H17O+
239.1056	20	C16H15O2+
239.1413	9	C17H19O+
241.1213	8	C16H17O2+
243.1014	5	C15H15O3+
249.1259	18	C18H17O+
251.129	7	C11H20FO5+
251.1419	10	C18H19O+
253.1225	5	C17H17O2+
253.1581	14	C18H21O+
259.1472	6	C20H19+
261.1272	32	C19H17O+
262.1326	9	C18[13]CH17O+
263.1068	8	C18H15O2+
263.1424	97	C19H19O+
264.1453	18	C18[13]CH19O+
265.1575	16	C19H21O+
267.1362	7	C18H19O2+
267.1732	13	C19H23O+
273.1644	11	C18H22FO+
275.1422	72	C17H20FO2+
276.1483	19	C16[13]CH20FO2+
277.1218	11	C19H17O2+
277.1583	161	C20H21O+
278.1275	5	C19H18O2+
278.1635	57	C19[13]CH21O+
279.1743	999	C20H23O+
280.1772	201	C19[13]CH23O+
281.1529	18	C19H21O2+
281.1839	27	C18[13]C2H23O+
286.1362	7	C18H19FO2+
289.1577	41	C21H21O+
290.1619	10	C20[13]CH21O+
291.1742	422	C21H23O+
292.1771	94	C20[13]CH23O+
293.1529	20	C20H21O2+
293.1802	9	C19[13]C2H23O+
294.1555	6	C19[13]CH21O2+
295.1689	57	C20H23O2+
296.173	16	C19[13]CH23O2+
297.1836	42	C20H25O2+
298.187	9	C19[13]CH25O2+
301.1586	318	C22H21O+
302.1619	79	C21[13]CH21O+
303.1394	5	C18H20FO3+
303.1647	7	C20[13]C2H21O+
305.1543	6	C18H22FO3+
306.1611	7	C21H22O2+
307.1686	36	C21H23O2+
308.1728	7	C20[13]CH23O2+
309.1847	157	C21H25O2+
310.1882	40	C20[13]CH25O2+
311.1632	11	C20H23O3+
311.189	5	C19[13]C2H25O2+
319.1692	907	C22H23O2+
320.1725	183	C21[13]CH23O2+
321.1487	14	C21H21O3+
321.1728	24	C20[13]C2H23O2+
325.1792	21	C21H25O3+
327.1954	10	C21H27O3+
335.2043	5	C16H31O7+
337.1797	703	C22H25O3+
338.1829	167	C21[13]CH25O3+
339.1608	20	C18H24FO5+
339.181	28	C20[13]C2H25O3+
340.1671	6	C17[13]CH24FO5+
351.1945	13	C23H27O3+
355.1904	548	C26H24F+
356.1937	131	C25[13]CH24F+
357.1907	28	C24[13]C2H24F+
358.1884	6	C25H26O2+
365.2113	20	C21H30FO4+
366.2167	6	C20[13]CH30FO4+
367.1899	15	C23H27O4+
375.195	46	C25H27O3+
376.1985	13	C24[13]CH27O3+
381.1693	6	C23H25O5+
383.2212	10	C24H31O4+
393.2061	320	C25H29O4+
394.2091	89	C24[13]CH29O4+
395.2098	14	C23[13]C2H29O4+
399.1819	9	C20H28FO7+
411.2168	546	C25H31O5+
412.2197	151	C24[13]CH31O5+
413.2205	26	C23[13]C2H31O5+
431.2249	5	C25H32FO5+
485.252	57	C28H37O7+
486.2547	19	C27[13]CH37O7+
505.2604	13	C28H38FO7+
