Mass spectrum: Flumethasone; LC-ESI-QTOF; MS2; CE: Ramp 23.8-35.7 eV; R=35000; [M+H]+
Name: Flumethasone
Name: (6S,8S,9R,10S,11S,13S,14S,16R,17R)-6,9-difluoro-11,17-dihydroxy-17-(2-hydroxyacetyl)-10,13,16-trimethyl-6,7,8,11,12,14,15,16-octahydrocyclopenta[a]phenanthren-3-one
Formula: C22H28F2O5
Exact mass: 410.1904804
SMILES: [H][C@@]12C[C@@H](C)[C@](O)(C(=O)CO)[C@@]1(C)C[C@H](O)[C@@]1(F)[C@@]2([H])C[C@H](F)C2=CC(=O)C=C[C@]12C
InChI: InChI=1S/C22H28F2O5/c1-11-6-13-14-8-16(23)15-7-12(26)4-5-19(15,2)21(14,24)17(27)9-20(13,3)22(11,29)18(28)10-25/h4-5,7,11,13-14,16-17,25,27,29H,6,8-10H2,1-3H3/t11-,13+,14+,16+,17+,19+,20+,21+,22+/m1/s1
Instrument: Bruker maXis Impact
Instrument type: LC-ESI-QTOF
Ms type: MS2
Ion mode: POSITIVE
Ionization: ESI
Fragmentation mode: CID
Collision energy: Ramp 23.8-35.7 eV
Resolution: 35000
Column name: Acclaim RSLC C18 2.2um, 2.1x100mm, Thermo
Retention time: 8.293 min
Base peak: 411.1974
Precursor m/z: 411.1978
Precursor type: [M+H]+
m/z	relative intensity	assigned
115.0537	13	C9H7+
117.0683	19	C9H9+
119.0855	54	C9H11+
121.0642	594	C8H9O+
122.0672	45	C7[13]CH9O+
123.0798	24	C8H11O+
125.0598	57	C7H9O2+
128.0631	15	C7H9FO+
129.0692	17	C10H9+
131.0844	51	C10H11+
133.0638	52	C9H9O+
133.1012	31	C10H13+
135.0795	303	C9H11O+
136.0823	45	C8[13]CH11O+
137.0564	17	C8H9O2+
137.0955	31	C9H13O+
139.0546	60	C11H7+
139.0745	15	C8H11O2+
139.0909	83	C9H12F+
143.0839	34	C11H11+
145.0637	85	C10H9O+
145.0999	29	C11H13+
147.0796	177	C10H11O+
148.0831	29	C9[13]CH11O+
149.0948	49	C10H13O+
151.0755	33	C9H11O2+
151.0917	22	C10H12F+
153.0903	45	C9H13O2+
155.0845	21	C12H11+
159.079	156	C11H11O+
159.1139	15	C12H15+
160.0831	13	C10[13]CH11O+
161.0584	18	C10H9O2+
161.0761	29	C11H10F+
161.0946	162	C11H13O+
162.0968	17	C10[13]CH13O+
163.09	22	C11H12F+
163.1088	14	C11H15O+
165.07	48	C13H9+
165.0891	21	C10H13O2+
167.0869	19	C10H12FO+
169.0634	59	C12H9O+
169.099	25	C13H13+
170.0717	15	C12H10O+
171.0798	177	C12H11O+
173.095	68	C12H13O+
175.0736	26	C11H11O2+
175.0892	26	C12H12F+
177.071	15	C11H10FO+
177.0896	23	C11H13O2+
179.0861	76	C14H11+
179.1064	14	C11H15O2+
181.0994	45	C14H13+
182.1069	14	C13[13]CH13+
183.0785	44	C13H11O+
184.0864	15	C13H12O+
185.0577	47	C12H9O2+
185.095	77	C13H13O+
186.1009	25	C13H14O+
187.0757	74	C12H11O2+
187.1088	37	C13H15O+
189.0707	31	C12H10FO+
189.0889	17	C12H13O2+
189.1062	28	C13H14F+
191.086	42	C15H11+
191.1043	16	C12H15O2+
192.0932	13	C14[13]CH11+
193.0894	17	C5H15F2O5+
193.1012	64	C15H13+
194.1086	18	C15H14+
195.0781	36	C14H11O+
195.0992	15	C12H13F2+
195.1149	17	C15H15+
197.0959	61	C14H13O+
199.1102	31	C14H15O+
201.0904	25	C13H13O2+
203.0851	18	C16H11+
205.0672	20	C9H11F2O3+
205.1002	31	C16H13+
205.1208	17	C13H17O2+
207.1149	44	C16H15+
208.0869	28	C15H12O+
209.0968	116	C12H14FO2+
209.1335	15	C13H18FO+
210.1015	37	C15H14O+
211.0712	14	C14H11O2+
211.1117	120	C15H15O+
212.1111	19	C14[13]CH15O+
213.0897	56	C14H13O2+
213.1078	13	C15H14F+
213.1255	33	C15H17O+
215.0846	15	C17H11+
215.1034	17	C14H15O2+
217.1007	16	C17H13+
219.0799	15	C16H11O+
219.0986	25	C14H13F2+
219.1148	28	C17H15+
220.0877	17	C16H12O+
221.0957	67	C16H13O+
222.1031	94	C16H14O+
223.1108	103	C16H15O+
224.1157	28	C15[13]CH15O+
225.127	160	C16H17O+
226.1306	42	C15[13]CH17O+
227.1061	29	C15H15O2+
227.1381	34	C16H19O+
229.0996	33	C18H13+
231.1163	18	C18H15+
233.0948	38	C17H13O+
233.1298	14	C18H17+
234.1024	13	C16[13]CH13O+
235.1118	388	C17H15O+
236.1143	84	C16[13]CH15O+
237.1275	338	C17H17O+
238.099	44	C16H14O2+
238.1307	79	C16[13]CH17O+
239.1066	80	C16H15O2+
239.1404	34	C17H19O+
240.1097	14	C15[13]CH15O2+
241.1026	15	C16H14FO+
241.1176	19	C16H17O2+
244.1217	15	C19H16+
245.0943	18	C18H13O+
246.1033	33	C18H14O+
247.1112	43	C18H15O+
248.1187	44	C18H16O+
249.1266	59	C18H17O+
249.1623	18	C19H21+
250.1315	31	C18H18O+
251.1055	37	C17H15O2+
251.1426	77	C18H19O+
253.1226	999	C17H17O2+
254.1253	239	C16[13]CH17O2+
255.119	45	C14H17F2O2+
256.1194	22	C20H16+
257.132	56	C20H17+
258.1354	17	C19[13]CH17+
259.1134	48	C16H16FO2+
259.1459	31	C20H19+
260.1195	61	C19H16O+
261.1264	108	C19H17O+
262.1329	104	C19H18O+
263.1096	19	C12H17F2O4+
263.1423	58	C19H19O+
264.116	15	C15H17FO3+
264.154	15	C13H22F2O3+
265.1196	38	C18H17O2+
265.1573	53	C19H21O+
266.1641	18	C19H22O+
267.1163	16	C21H15+
267.1739	24	C19H23O+
269.1319	22	C21H17+
271.1134	13	C17H16FO2+
271.1308	15	C18H17F2+
271.147	17	C21H19+
272.1188	23	C20H16O+
273.1282	162	C17H18FO2+
274.1315	66	C20H18O+
275.143	205	C20H19O+
276.1151	13	C16H17FO3+
276.1484	107	C20H20O+
277.1224	44	C19H17O2+
277.1585	510	C17H22FO2+
278.1284	15	C19H18O2+
278.1636	95	C16[13]CH22FO2+
279.1387	83	C16H20FO3+
279.1704	34	C20H23O+
280.1407	37	C19H20O2+
280.1772	13	C20H24O+
281.1334	20	C19H18FO+
281.1536	21	C19H21O2+
284.1199	14	C21H16O+
287.1412	44	C18H20FO2+
288.1476	14	C17[13]CH20FO2+
289.1578	122	C21H21O+
290.163	30	C20[13]CH21O+
291.1391	36	C17H20FO3+
292.1458	17	C20H20O2+
293.1529	104	C20H21O2+
294.1597	38	C20H22O2+
295.1499	31	C17H21F2O2+
295.1708	123	C17H24FO3+
296.1733	48	C20H24O2+
297.1644	44	C20H22FO+
299.1427	32	C22H19O+
302.131	23	C18H19FO3+
305.1544	67	C21H21O2+
306.154	14	C20[13]CH21O2+
307.1699	65	C18H24FO3+
308.1703	31	C21H24O2+
309.1586	24	C21H22FO+
311.1641	22	C20H23O3+
313.1595	25	C20H22FO2+
314.1669	13	C20H23FO2+
315.1771	19	C17H25F2O3+
317.1546	99	C19H22FO3+
318.1596	36	C18[13]CH22FO3+
323.1636	42	C21H23O3+
325.1634	17	C18H23F2O3+
325.181	26	C18H26FO4+
335.1653	151	C16H25F2O5+
336.1732	36	C15[13]CH25F2O5+
343.1693	19	C21H24FO3+
353.1744	76	C19H26FO5+
354.1822	21	C18[13]CH26FO5+
355.17	31	C22H24FO3+
371.1824	36	C22H27O5+
373.183	42	C19H27F2O5+
374.1839	18	C22H27FO4+
375.1744	14	C22H25F2O3+
393.1852	16	C22H27F2O4+
