Mass spectrum: Fluorometholone; LC-ESI-QTOF; MS2; CE: 30 eV; R=35000; [M+H]+
Name: Fluorometholone
Name: (6S,8S,9R,10S,11S,13S,14S,17R)-17-acetyl-9-fluoro-11,17-dihydroxy-6,10,13-trimethyl-6,7,8,11,12,14,15,16-octahydrocyclopenta[a]phenanthren-3-one
Formula: C22H29FO4
Exact mass: 376.2049876
SMILES: [H][C@@]12CC[C@](O)(C(C)=O)[C@@]1(C)C[C@H](O)[C@@]1(F)[C@@]2([H])C[C@H](C)C2=CC(=O)C=C[C@]12C
InChI: InChI=1S/C22H29FO4/c1-12-9-17-15-6-8-21(27,13(2)24)20(15,4)11-18(26)22(17,23)19(3)7-5-14(25)10-16(12)19/h5,7,10,12,15,17-18,26-27H,6,8-9,11H2,1-4H3/t12-,15-,17-,18-,19-,20-,21-,22-/m0/s1
Instrument: Bruker maXis Impact
Instrument type: LC-ESI-QTOF
Ms type: MS2
Ion mode: POSITIVE
Ionization: ESI
Fragmentation mode: CID
Collision energy: 30 eV
Resolution: 35000
Column name: Acclaim RSLC C18 2.2um, 2.1x100mm, Thermo
Retention time: 8.941 min
Base peak: 435.2177
Precursor m/z: 377.2123
Precursor type: [M+H]+
m/z	relative intensity	assigned
115.0527	20	C9H7+
117.0694	14	C9H9+
119.0849	38	C9H11+
121.0642	135	C8H9O+
121.0998	12	C9H13+
122.0669	13	C7[13]CH9O+
123.0805	43	C8H11O+
125.0597	31	C7H9O2+
128.0617	12	C10H8+
129.0679	14	C10H9+
131.0834	14	C10H11+
133.0622	15	C9H9O+
133.0993	35	C10H13+
135.0795	563	C9H11O+
136.0829	62	C8[13]CH11O+
137.0948	37	C9H13O+
139.0757	24	C8H11O2+
142.0753	15	C11H10+
143.0852	43	C11H11+
145.0638	52	C10H9O+
145.0995	90	C11H13+
146.0705	20	C10H10O+
146.1032	14	C10[13]CH13+
147.0789	132	C10H11O+
147.1152	22	C11H15+
149.0946	76	C10H13O+
149.1302	16	C11H17+
150.1006	13	C10H14O+
151.0751	12	C9H11O2+
151.1108	20	C10H15O+
156.0949	12	C9H13FO+
157.0998	42	C12H13+
158.0726	28	C11H10O+
159.0795	132	C11H11O+
160.0843	14	C10[13]CH11O+
161.0951	605	C11H13O+
161.1308	47	C12H17+
162.0981	67	C10[13]CH13O+
163.0898	15	C11H12F+
163.1089	44	C11H15O+
165.09	33	C10H13O2+
167.0876	13	C10H12FO+
169.1035	13	C10H14FO+
171.0786	35	C12H11O+
171.1165	47	C13H15+
172.0841	19	C12H12O+
172.1224	12	C12[13]CH15+
173.0945	156	C12H13O+
174.0987	26	C11[13]CH13O+
175.1104	111	C12H15O+
176.1123	18	C11[13]CH15O+
177.0897	46	C11H13O2+
181.0996	15	C14H13+
183.0823	16	C10H12FO2+
185.0951	224	C13H13O+
186.0981	27	C12[13]CH13O+
187.1103	160	C13H15O+
188.1152	25	C12[13]CH15O+
189.1262	106	C13H17O+
190.1317	22	C12[13]CH17O+
191.1212	18	C13H16F+
195.0789	17	C14H11O+
195.1151	18	C15H15+
196.0897	15	C11H13FO2+
197.0948	58	C11H14FO2+
198.1052	12	C10[13]CH14FO2+
199.1117	103	C14H15O+
200.1128	23	C13[13]CH15O+
201.0908	49	C13H13O2+
201.1276	39	C14H17O+
202.1317	12	C14H18O+
203.1044	24	C13H15O2+
203.1429	19	C14H19O+
207.12	15	C13H16FO+
208.0863	20	C15H12O+
209.0946	96	C15H13O+
209.132	40	C16H17+
210.1049	28	C12H15FO2+
211.1107	74	C15H15O+
212.1194	18	C14[13]CH15O+
213.1265	99	C12H18FO2+
214.1327	16	C11[13]CH18FO2+
215.1056	14	C14H15O2+
215.1217	12	C15H16F+
217.1205	23	C14H17O2+
219.1169	15	C17H15+
221.0959	14	C16H13O+
222.1016	37	C16H14O+
223.1107	136	C13H16FO2+
223.1501	19	C14H20FO+
224.1183	33	C12[13]CH16FO2+
225.1265	87	C16H17O+
226.1313	25	C15[13]CH17O+
227.1061	70	C15H15O2+
227.1416	29	C16H19O+
229.1211	84	C15H17O2+
231.1356	35	C15H19O2+
232.1413	15	C15H20O2+
233.0965	12	C17H13O+
233.132	23	C18H17+
235.1108	37	C17H15O+
235.1512	14	C15H20FO+
236.1188	90	C17H16O+
237.1266	369	C17H17O+
238.1299	104	C16[13]CH17O+
239.1433	109	C17H19O+
240.1457	34	C17H20O+
241.1205	17	C16H17O2+
241.1575	13	C16[13]CH20O+
247.1118	21	C18H15O+
248.1173	24	C18H16O+
249.1273	73	C18H17O+
250.1293	39	C18H18O+
251.1426	360	C18H19O+
252.1468	79	C17[13]CH19O+
253.1214	17	C17H17O2+
253.1578	111	C18H21O+
254.1605	32	C17[13]CH21O+
255.1366	23	C17H19O2+
257.1573	14	C14H22FO3+
259.1121	23	C19H15O+
260.1182	22	C19H16O+
261.1264	39	C19H17O+
261.1634	24	C20H21+
262.1337	30	C19H18O+
262.1675	12	C20H22+
263.142	129	C19H19O+
264.152	44	C18[13]CH19O+
265.1574	28	C19H21O+
266.1635	14	C19H22O+
267.1406	45	C15H20FO3+
267.1763	13	C16H24FO2+
269.1556	31	C15H22FO3+
270.1559	15	C18H22O2+
273.1248	23	C20H17O+
274.1351	44	C20H18O+
275.1404	22	C20H19O+
277.1582	92	C20H21O+
278.1647	116	C20H22O+
279.1373	55	C19H19O2+
279.1738	999	C20H23O+
280.1447	16	C18[13]CH19O2+
280.1769	236	C19[13]CH23O+
281.1545	19	C16H22FO3+
281.1838	32	C18[13]C2H23O+
285.1602	14	C22H21+
288.1503	51	C21H20O+
289.1557	18	C20[13]CH20O+
293.1885	79	C21H25O+
294.1932	15	C20[13]CH25O+
295.1688	61	C20H23O2+
296.1729	24	C20H24O2+
297.1488	19	C19H21O3+
297.1841	88	C17H26FO3+
298.1892	15	C16[13]CH26FO3+
303.1744	141	C22H23O+
304.1765	51	C21[13]CH23O+
306.1592	28	C21H22O2+
307.1646	13	C20[13]CH22O2+
321.185	179	C22H25O2+
322.1884	53	C21[13]CH25O2+
323.1848	14	C22H24FO+
339.1966	62	C22H27O3+
340.1987	20	C21[13]CH27O3+
