Mass spectrum: 2-Octyl-4-isothiazolin-3-one; LC-ESI-QTOF; MS2; CE: 20 eV; R=35000; [M+H]+
Name: 2-Octyl-4-isothiazolin-3-one
Name: Octhilinone
Name: 2-octyl-1,2-thiazol-3-one
Formula: C11H19NOS
Exact mass: 213.1187352
SMILES: CCCCCCCCN1SC=CC1=O
InChI: InChI=1S/C11H19NOS/c1-2-3-4-5-6-7-9-12-11(13)8-10-14-12/h8,10H,2-7,9H2,1H3
Instrument: Bruker maXis Impact
Instrument type: LC-ESI-QTOF
Ms type: MS2
Ion mode: POSITIVE
Ionization: ESI
Fragmentation mode: CID
Collision energy: 20 eV
Resolution: 35000
Column name: Acclaim RSLC C18 2.2um, 2.1x100mm, Thermo
Retention time: 10.303 min
Base peak: 214.1262
Precursor m/z: 214.126
Precursor type: [M+H]+
m/z	relative intensity	assigned
214.1252	999	C11H20NOS+
215.1278	142	C10[13]CH20NOS+
216.1215	45	C11H20NO[34]S+
