Mass spectrum: Daidzein; LC-ESI-QTOF; MS2; CE: 50 eV; R=35000; [M+H]+
Name: Daidzein
Name: 7-hydroxy-3-(4-hydroxyphenyl)chromen-4-one
Formula: C15H10O4
Exact mass: 254.0579088
SMILES: OC1=CC=C(C=C1)C1=COC2=C(C=CC(O)=C2)C1=O
InChI: InChI=1S/C15H10O4/c16-10-3-1-9(2-4-10)13-8-19-14-7-11(17)5-6-12(14)15(13)18/h1-8,16-17H
Instrument: Bruker maXis Impact
Instrument type: LC-ESI-QTOF
Ms type: MS2
Ion mode: POSITIVE
Ionization: ESI
Fragmentation mode: CID
Collision energy: 50 eV
Resolution: 35000
Column name: Acclaim RSLC C18 2.2um, 2.1x100mm, Thermo
Retention time: 6.881 min
Base peak: 255.0645
Precursor m/z: 255.0652
Precursor type: [M+H]+
m/z	relative intensity	assigned
115.0525	54	C9H7+
116.0592	22	C9H8+
118.0418	20	C8H6O+
121.0276	31	C7H5O2+
126.0455	24	C10H6+
127.0528	49	C10H7+
128.0609	364	C10H8+
129.0677	81	C10H9+
131.0475	96	C9H7O+
134.0343	38	C8H6O2+
137.0226	339	C7H5O3+
138.0246	25	C6[13]CH5O3+
139.0533	21	C11H7+
141.0687	88	C11H9+
143.0849	28	C11H11+
144.0546	36	C10H8O+
145.0645	69	C10H9O+
147.0431	32	C9H7O2+
150.0474	26	C12H6+
151.053	36	C12H7+
152.0606	999	C12H8+
153.0678	358	C12H9+
154.0746	63	C11[13]CH9+
155.0489	31	C11H7O+
156.0556	38	C11H8O+
157.0642	60	C11H9O+
163.0531	38	C13H7+
165.0686	40	C13H9+
168.0547	37	C12H8O+
169.0636	194	C12H9O+
170.0697	52	C12H10O+
171.0794	45	C12H11O+
181.0635	432	C13H9O+
182.0686	129	C13H10O+
184.0511	96	C12H8O2+
197.0587	206	C13H9O2+
198.0638	89	C13H10O2+
199.0744	137	C13H11O2+
209.0597	27	C14H9O2+
210.064	33	C14H10O2+
226.0612	20	C14H10O3+
227.0692	36	C14H11O3+
237.0538	33	C15H9O3+
255.066	25	C15H11O4+
