Mass spectrum: Hydrocortisonacetate; LC-ESI-QTOF; MS2; CE: Ramp 23.7-35.6 eV; R=35000; [M+H]+
Name: Hydrocortisonacetate
Name: Hydrocortisone acetate
Name: [2-[(8S,9S,10R,11S,13S,14S,17R)-11,17-dihydroxy-10,13-dimethyl-3-oxo-2,6,7,8,9,11,12,14,15,16-decahydro-1H-cyclopenta[a]phenanthren-17-yl]-2-oxoethyl] acetate
Formula: C23H32O6
Exact mass: 404.2198887
SMILES: [H][C@@]12CC[C@](O)(C(=O)COC(C)=O)[C@@]1(C)C[C@H](O)[C@@]1([H])[C@@]2([H])CCC2=CC(=O)CC[C@]12C
InChI: InChI=1S/C23H32O6/c1-13(24)29-12-19(27)23(28)9-7-17-16-5-4-14-10-15(25)6-8-21(14,2)20(16)18(26)11-22(17,23)3/h10,16-18,20,26,28H,4-9,11-12H2,1-3H3/t16-,17-,18-,20+,21-,22-,23-/m0/s1
Instrument: Bruker maXis Impact
Instrument type: LC-ESI-QTOF
Ms type: MS2
Ion mode: POSITIVE
Ionization: ESI
Fragmentation mode: CID
Collision energy: Ramp 23.7-35.6 eV
Resolution: 35000
Column name: Acclaim RSLC C18 2.2um, 2.1x100mm, Thermo
Retention time: 8.796 min
Base peak: 453.209
Precursor m/z: 405.2272
Precursor type: [M+H]+
m/z	relative intensity	assigned
119.084	133	C9H11+
121.0637	465	C8H9O+
123.0802	128	C8H11O+
129.0688	46	C10H9+
131.0835	94	C10H11+
133.0998	108	C10H13+
135.0792	169	C9H11O+
135.1161	42	C10H15+
137.0953	42	C9H13O+
141.068	38	C11H9+
143.0838	130	C11H11+
145.1007	126	C11H13+
147.0796	121	C10H11O+
147.1153	101	C11H15+
149.0949	97	C10H13O+
155.0828	77	C12H11+
157.1004	161	C12H13+
159.0791	84	C11H11O+
159.116	200	C12H15+
161.0942	134	C11H13O+
161.1323	54	C12H17+
163.1112	288	C11H15O+
169.1015	145	C13H13+
171.0782	79	C12H11O+
171.1154	128	C13H15+
173.095	138	C12H13O+
173.1305	46	C13H17+
174.0998	38	C12H14O+
175.1105	115	C12H15O+
181.1017	62	C14H13+
183.1158	105	C14H15+
185.0957	96	C13H13O+
185.1318	163	C14H17+
187.1106	235	C13H15O+
189.1265	85	C13H17O+
191.1064	45	C12H15O2+
195.1143	104	C15H15+
197.0937	41	C14H13O+
197.13	94	C15H17+
199.1105	70	C14H15O+
199.1481	77	C15H19+
201.1278	134	C14H17O+
205.1239	77	C13H17O2+
207.1166	53	C16H15+
209.1319	130	C16H17+
211.1112	96	C15H15O+
211.1505	55	C16H19+
213.1265	128	C15H17O+
213.1599	47	C16H21+
214.13	38	C14[13]CH17O+
221.131	56	C17H17+
223.1472	134	C17H19+
225.1257	202	C16H17O+
226.1315	41	C15[13]CH17O+
227.1429	84	C16H19O+
229.1564	65	C16H21O+
231.1371	55	C15H19O2+
239.1423	299	C17H19O+
240.1459	51	C16[13]CH19O+
241.1575	609	C17H21O+
242.1605	133	C16[13]CH21O+
243.1378	58	C16H19O2+
243.1724	75	C17H23O+
249.1303	52	C11H21O6+
249.1624	139	C19H21+
251.1428	130	C18H19O+
252.149	46	C18H20O+
253.1557	87	C18H21O+
263.1424	68	C19H19O+
263.178	65	C20H23+
265.1608	93	C19H21O+
266.1644	41	C18[13]CH21O+
267.1739	366	C19H23O+
268.1832	101	C18[13]CH23O+
269.155	44	C18H21O2+
269.1907	181	C19H25O+
270.1924	57	C18[13]CH25O+
273.1636	48	C21H21+
279.1706	61	C20H23O+
281.1534	91	C19H21O2+
281.1904	186	C20H25O+
282.1917	54	C19[13]CH25O+
285.1828	86	C19H25O2+
287.2027	62	C19H27O2+
291.1741	299	C21H23O+
292.1814	69	C20[13]CH23O+
297.1855	94	C20H25O2+
298.1942	45	C20H26O2+
299.2002	119	C20H27O2+
300.2027	48	C20H28O2+
309.1852	764	C21H25O2+
310.189	250	C20[13]CH25O2+
311.2002	50	C21H27O2+
327.1959	999	C21H27O3+
328.1997	218	C20[13]CH27O3+
345.2068	190	C21H29O4+
346.2109	58	C20[13]CH29O4+
369.204	128	C23H29O4+
387.2137	49	C23H31O5+
405.2287	521	C23H33O6+
