Mass spectrum: Dexamethasone-21-acetate; LC-ESI-QTOF; MS2; CE: 50 eV; R=35000; [M+H]+
Name: Dexamethasone-21-acetate
Name: Dexamethasone acetate
Name: [2-[(8S,9R,10S,11S,13S,14S,16R,17R)-9-fluoro-11,17-dihydroxy-10,13,16-trimethyl-3-oxo-6,7,8,11,12,14,15,16-octahydrocyclopenta[a]phenanthren-17-yl]-2-oxoethyl] acetate
Formula: C24H31FO6
Exact mass: 434.2104669
SMILES: C[C@@H]1C[C@H]2[C@@H]3CCC4=CC(=O)C=C[C@]4(C)[C@@]3(F)[C@@H](O)C[C@]2(C)[C@@]1(O)C(=O)COC(C)=O
InChI: InChI=1S/C24H31FO6/c1-13-9-18-17-6-5-15-10-16(27)7-8-21(15,3)23(17,25)19(28)11-22(18,4)24(13,30)20(29)12-31-14(2)26/h7-8,10,13,17-19,28,30H,5-6,9,11-12H2,1-4H3/t13-,17+,18+,19+,21+,22+,23+,24+/m1/s1
Instrument: Bruker maXis Impact
Instrument type: LC-ESI-QTOF
Ms type: MS2
Ion mode: POSITIVE
Ionization: ESI
Fragmentation mode: CID
Collision energy: 50 eV
Resolution: 35000
Column name: Acclaim RSLC C18 2.2um, 2.1x100mm, Thermo
Retention time: 8.675 min
Base peak: 435.2175
Precursor m/z: 435.2177
Precursor type: [M+H]+
m/z	relative intensity	assigned
115.0534	80	C9H7+
116.0596	11	C8[13]CH7+
117.0694	49	C9H9+
119.0484	7	C8H7O+
119.085	80	C9H11+
120.0884	9	C8[13]CH11+
121.0641	579	C8H9O+
122.068	48	C7[13]CH9O+
123.0425	27	C7H7O2+
123.0602	7	C8H8F+
123.08	25	C8H11O+
125.0586	33	C7H9O2+
127.0403	7	C3H8FO4+
127.0536	14	C10H7+
128.0612	164	C10H8+
129.0683	112	C10H9+
130.0756	26	C10H10+
131.0481	42	C9H7O+
131.0846	154	C10H11+
132.0557	70	C9H8O+
132.088	21	C9[13]CH11+
133.0634	119	C9H9O+
133.0997	31	C10H13+
134.0686	17	C8[13]CH9O+
135.0442	10	C8H7O2+
135.0797	190	C9H11O+
136.0833	17	C8[13]CH11O+
137.059	48	C8H9O2+
137.0745	20	C9H10F+
139.054	13	C11H7+
139.0738	36	C8H11O2+
141.0541	16	C7H9O3+
141.0689	117	C11H9+
142.0753	53	C11H10+
143.0847	217	C11H11+
144.0564	85	C10H8O+
144.0884	32	C10[13]CH11+
145.0634	358	C10H9O+
145.1003	84	C11H13+
146.051	6	C10H7F+
146.0706	85	C10H10O+
146.1035	13	C10[13]CH13+
147.0794	999	C10H11O+
148.0828	102	C9[13]CH11O+
149.0586	27	C9H9O2+
149.0772	9	C10H10F+
149.0964	12	C10H13O+
151.0385	22	C8H7O3+
151.0559	5	C9H8FO+
151.0747	33	C9H11O2+
152.0614	27	C12H8+
153.0548	16	C8H9O3+
153.0694	58	C12H9+
154.076	21	C12H10+
155.0844	175	C12H11+
156.0538	14	C11H8O+
156.0901	38	C11[13]CH11+
157.0636	73	C11H9O+
157.0999	56	C12H13+
158.0715	273	C11H10O+
159.0793	872	C11H11O+
160.0834	123	C10[13]CH11O+
161.0583	56	C10H9O2+
161.095	215	C11H13O+
162.0636	12	C10H10O2+
162.0999	34	C10[13]CH13O+
163.0743	37	C10H11O2+
165.069	125	C13H9+
166.0751	53	C13H10+
167.0842	99	C13H11+
168.0562	17	C12H8O+
168.0914	31	C13H12+
169.0639	95	C12H9O+
169.1003	84	C13H13+
170.0703	53	C12H10O+
171.0795	982	C12H11O+
172.0843	171	C11[13]CH11O+
173.0952	499	C12H13O+
174.098	74	C11[13]CH13O+
175.0752	17	C11H11O2+
175.091	10	C12H12F+
175.1117	16	C12H15O+
176.0607	7	C14H8+
177.069	17	C14H9+
177.0914	8	C11H13O2+
178.0766	65	C14H10+
179.0841	163	C14H11+
180.0909	87	C14H12+
181.0641	63	C13H9O+
181.0991	110	C14H13+
182.0715	99	C13H10O+
182.1064	59	C14H14+
183.0792	166	C13H11O+
183.1151	36	C14H15+
184.0868	80	C13H12O+
184.1207	6	C13[13]CH15+
185.0598	15	C12H9O2+
185.0948	266	C13H13O+
185.1312	23	C14H17+
186.1005	49	C12[13]CH13O+
187.0747	169	C12H11O2+
187.1104	55	C13H15O+
188.0777	22	C11[13]CH11O2+
188.1142	6	C12[13]CH15O+
189.0691	40	C15H9+
189.0895	19	C12H13O2+
190.0766	69	C15H10+
191.084	110	C15H11+
192.0918	210	C15H12+
193.0991	147	C15H13+
194.0718	45	C14H10O+
194.1058	54	C15H14+
195.0798	234	C14H11O+
195.1157	126	C15H15+
196.0865	187	C14H12O+
196.1212	33	C14[13]CH15+
197.0948	337	C14H13O+
197.1318	123	C15H17+
198.1022	177	C14H14O+
198.1353	20	C14[13]CH17+
199.0741	28	C13H11O2+
199.11	149	C14H15O+
200.0782	5	C13H12O2+
200.1144	22	C13[13]CH15O+
201.0895	16	C13H13O2+
201.1236	8	C14H17O+
202.0758	28	C16H10+
203.0851	70	C16H11+
203.1032	9	C13H15O2+
204.0912	68	C16H12+
205.0636	21	C15H9O+
205.0999	134	C16H13+
206.0709	14	C15H10O+
206.1066	80	C16H14+
207.0791	44	C15H11O+
207.1158	233	C16H15+
208.0876	249	C15H12O+
208.1196	51	C15[13]CH15+
209.0947	489	C15H13O+
209.1308	37	C16H17+
210.102	389	C15H14O+
211.076	16	C11H12FO3+
211.1101	269	C15H15O+
212.0824	10	C14H12O2+
212.1169	78	C15H16O+
213.1267	879	C15H17O+
214.0948	11	C14H14O2+
214.1305	163	C14[13]CH17O+
215.0856	44	C17H11+
215.1025	9	C14H15O2+
215.1385	39	C15H19O+
216.0917	57	C17H12+
217.1004	86	C17H13+
218.0722	20	C16H10O+
218.1074	57	C17H14+
219.0785	60	C16H11O+
219.1155	92	C17H15+
220.0872	102	C16H12O+
220.1227	47	C17H16+
221.095	204	C16H13O+
221.1315	88	C17H17+
222.1023	256	C16H14O+
222.136	15	C16[13]CH17+
223.1104	436	C16H15O+
224.0814	16	C15H12O2+
224.1178	236	C16H16O+
225.0889	43	C15H13O2+
225.1266	449	C16H17O+
226.0766	6	C18H10+
226.0979	27	C15H14O2+
226.1306	80	C15[13]CH17O+
227.0848	17	C18H11+
227.1063	40	C15H15O2+
227.1424	37	C16H19O+
228.0936	27	C18H12+
228.111	14	C15H16O2+
228.1473	8	C15[13]CH19O+
229.1005	65	C18H13+
230.1079	104	C18H14+
231.0806	44	C17H11O+
231.1162	60	C18H15+
232.0866	46	C17H12O+
232.123	49	C18H16+
233.0954	168	C17H13O+
233.131	61	C18H17+
234.1026	144	C17H14O+
234.1369	27	C18H18+
235.1111	375	C17H15O+
235.1471	76	C18H19+
236.0831	14	C16H12O2+
236.1171	163	C17H16O+
236.1494	17	C17[13]CH19+
237.0907	38	C16H13O2+
237.1263	251	C17H17O+
238.0978	72	C16H14O2+
238.1327	77	C16[13]CH17O+
239.1045	40	C16H15O2+
239.1417	119	C17H19O+
240.0957	15	C16H13FO+
240.1093	14	C16H16O2+
240.146	19	C16[13]CH19O+
241.1008	24	C19H13+
241.1213	31	C16H17O2+
241.1565	14	C17H21O+
242.1079	57	C19H14+
243.0807	5	C18H11O+
243.1147	58	C19H15+
244.0871	12	C18H12O+
244.1208	14	C18[13]CH15+
245.0952	148	C18H13O+
245.1314	69	C16H18FO+
246.1026	150	C18H14O+
246.1377	16	C15[13]CH18FO+
247.0729	8	C17H11O2+
247.1105	152	C18H15O+
247.1446	22	C19H19+
248.1183	270	C18H16O+
249.0899	29	C17H13O2+
249.1252	160	C18H17O+
250.0975	34	C17H14O2+
250.1323	82	C18H18O+
251.1051	57	C17H15O2+
251.1415	133	C18H19O+
252.1139	25	C17H16O2+
252.1488	65	C18H20O+
253.1214	95	C14H18FO3+
253.1587	67	C18H21O+
254.1288	17	C13[13]CH18FO3+
254.161	15	C17[13]CH21O+
255.0825	8	C16H12FO2+
255.1192	10	C17H16FO+
255.1383	15	C17H19O2+
256.1241	6	C20H16+
257.0996	5	C16H14FO2+
257.1304	38	C20H17+
258.1025	37	C19H14O+
258.1363	14	C20H18+
259.1112	76	C19H15O+
260.1188	169	C19H16O+
261.0899	23	C18H13O2+
261.1257	149	C19H17O+
262.0975	16	C18H14O2+
262.1336	97	C19H18O+
263.1059	35	C18H15O2+
263.1426	222	C19H19O+
264.1129	55	C18H16O2+
264.1464	44	C18[13]CH19O+
265.122	70	C18H17O2+
265.1581	61	C19H21O+
266.1268	18	C17[13]CH17O2+
266.1621	13	C18[13]CH21O+
267.1147	5	C21H15+
267.1369	22	C18H19O2+
268.1419	12	C18H20O2+
269.1493	5	C18H21O2+
270.1037	17	C20H14O+
271.1105	10	C20H15O+
272.1215	5	C17H17FO2+
273.0899	10	C19H13O2+
273.1253	30	C20H17O+
274.0975	14	C19H14O2+
274.1325	13	C20H18O+
275.1057	18	C19H15O2+
275.1426	107	C20H19O+
276.1123	34	C19H16O2+
276.1456	29	C19[13]CH19O+
277.1213	42	C19H17O2+
277.1535	7	C20H21O+
278.1298	30	C19H18O2+
279.1077	5	C15H16FO4+
279.1375	53	C19H19O2+
280.1102	6	C15H17FO4+
280.145	57	C19H20O2+
281.1195	7	C15H18FO4+
281.1527	40	C19H21O2+
282.1556	13	C18[13]CH21O2+
283.1506	6	C19H20FO+
283.167	7	C19H23O2+
285.1256	19	C21H17O+
287.1078	7	C17H16FO3+
288.1134	26	C20H16O2+
289.1196	11	C20H17O2+
290.1262	5	C20H18O2+
291.1386	17	C17H20FO3+
292.1456	8	C20H20O2+
293.1177	6	C19H17O3+
293.1531	43	C20H21O2+
294.1549	12	C19[13]CH21O2+
295.1316	14	C19H19O3+
296.144	8	C16H21FO4+
297.1467	8	C19H21O3+
303.139	16	C21H19O2+
304.1399	5	C20[13]CH19O2+
305.1113	5	C20H17O3+
308.134	6	C20H20O3+
311.1642	11	C20H23O3+
321.1478	13	C18H22FO4+
322.1543	5	C17[13]CH22FO4+
339.1602	9	C18H24FO5+
