Mass spectrum: N,N-Dimethyldodecylamine N-oxide; LC-ESI-QTOF; MS2; CE: Ramp 19.1-28.6 eV; R=35000; [M+H]+
Name: N,N-Dimethyldodecylamine N-oxide
Name: Dodecyldimethylamine oxide
Name: N,N-dimethyldodecan-1-amine oxide
Formula: C14H31NO
Exact mass: 229.2405646
SMILES: CCCCCCCCCCCC[N+](C)(C)[O-]
InChI: InChI=1S/C14H31NO/c1-4-5-6-7-8-9-10-11-12-13-14-15(2,3)16/h4-14H2,1-3H3
Instrument: Bruker maXis Impact
Instrument type: LC-ESI-QTOF
Ms type: MS2
Ion mode: POSITIVE
Ionization: ESI
Fragmentation mode: CID
Collision energy: Ramp 19.1-28.6 eV
Resolution: 35000
Column name: Acclaim RSLC C18 2.2um, 2.1x100mm, Thermo
Retention time: 10.514 min
Base peak: 200.2367
Precursor m/z: 230.2478
Precursor type: [M+H]+
m/z	relative intensity	assigned
57.0697	188	C4H9+
58.064	999	C3H8N+
76.0755	303	C3H10NO+
155.1402	249	C10H19O+
172.1724	149	C10H22NO+
212.199	376	C13H26NO+
213.2084	133	C13H27NO+
230.2468	315	C14H32NO+
