Mass spectrum: Norgestrel; LC-ESI-QTOF; MS2; CE: 50 eV; R=35000; [M+H]+
Name: Norgestrel
Name: (8R,9S,10R,13S,14S)-13-ethyl-17-ethynyl-17-hydroxy-1,2,6,7,8,9,10,11,12,14,15,16-dodecahydrocyclopenta[a]phenanthren-3-one
Formula: C21H28O2
Exact mass: 312.2089301
SMILES: [H][C@@]12CCC(O)(C#C)[C@@]1(CC)CC[C@]1([H])[C@@]3([H])CCC(=O)C=C3CC[C@@]21[H]
InChI: InChI=1S/C21H28O2/c1-3-20-11-9-17-16-8-6-15(22)13-14(16)5-7-18(17)19(20)10-12-21(20,23)4-2/h2,13,16-19,23H,3,5-12H2,1H3/t16-,17+,18+,19-,20-,21?/m0/s1
Instrument: Bruker maXis Impact
Instrument type: LC-ESI-QTOF
Ms type: MS2
Ion mode: POSITIVE
Ionization: ESI
Fragmentation mode: CID
Collision energy: 50 eV
Resolution: 35000
Column name: Acclaim RSLC C18 2.2um, 2.1x100mm, Thermo
Retention time: 10.140 min
Base peak: 313.2164
Precursor m/z: 313.2162
Precursor type: [M+H]+
m/z	relative intensity	assigned
115.0535	497	C9H7+
116.0599	139	C9H8+
117.069	379	C9H9+
119.0845	206	C9H11+
120.0882	27	C8[13]CH11+
121.0642	49	C8H9O+
121.1003	29	C9H13+
123.0792	77	C8H11O+
123.116	40	C9H15+
127.0535	66	C10H7+
128.061	999	C10H8+
129.0685	946	C10H9+
130.0752	245	C10H10+
131.0478	31	C9H7O+
131.0842	591	C10H11+
132.0558	41	C9H8O+
132.0886	67	C9[13]CH11+
133.0636	131	C9H9O+
133.0998	214	C10H13+
134.0694	30	C9H10O+
134.1031	29	C9[13]CH13+
135.0791	402	C9H11O+
135.1157	49	C10H15+
136.083	35	C8[13]CH11O+
137.0956	15	C9H13O+
139.0527	11	C11H7+
141.0687	559	C11H9+
142.0761	493	C11H10+
143.0838	555	C11H11+
144.0555	51	C10H8O+
144.0905	121	C11H12+
145.0636	115	C10H9O+
145.0999	351	C11H13+
146.0707	41	C10H10O+
146.1036	50	C10[13]CH13+
147.0786	175	C10H11O+
147.1153	94	C11H15+
148.0854	54	C10H12O+
148.1179	11	C10[13]CH15+
149.0945	110	C10H13O+
149.1313	11	C11H17+
150.098	13	C9[13]CH13O+
152.0609	83	C12H8+
153.0687	244	C12H9+
154.0759	192	C12H10+
155.0841	401	C12H11+
156.0907	208	C12H12+
157.0646	30	C11H9O+
157.0995	306	C12H13+
158.07	19	C11H10O+
158.1062	67	C11[13]CH13+
159.0788	87	C11H11O+
159.1154	129	C12H15+
160.0864	34	C11H12O+
160.121	25	C11[13]CH15+
161.0948	211	C11H13O+
161.1309	18	C12H17+
162.1004	60	C11H14O+
163.1094	46	C11H15O+
165.0686	234	C13H9+
166.0755	107	C13H10+
167.084	243	C13H11+
168.0909	129	C13H12+
169.065	16	C12H9O+
169.0997	233	C13H13+
170.1056	71	C13H14+
171.0781	25	C12H11O+
171.1158	170	C13H15+
172.0886	11	C12H12O+
172.1211	40	C13H16+
173.0945	24	C12H13O+
173.1313	41	C13H17+
174.1013	39	C12H14O+
175.109	75	C12H15O+
175.1479	54	C13H19+
176.1152	19	C12H16O+
176.1504	9	C12[13]CH19+
177.1262	10	C12H17O+
178.0761	100	C14H10+
179.0839	137	C14H11+
180.0909	81	C14H12+
181.063	7	C13H9O+
181.0992	142	C14H13+
182.1062	59	C14H14+
183.0792	15	C13H11O+
183.1154	85	C14H15+
184.0869	10	C13H12O+
184.1223	35	C14H16+
185.095	19	C13H13O+
185.1313	110	C14H17+
186.1011	7	C13H14O+
186.1359	22	C13[13]CH17+
187.1104	44	C13H15O+
187.146	35	C14H19+
188.1176	61	C13H16O+
189.0683	12	C15H9+
189.1263	41	C13H17O+
190.076	18	C15H10+
190.1299	8	C12[13]CH17O+
191.0837	72	C15H11+
192.0913	58	C15H12+
193.1	107	C15H13+
194.1068	44	C15H14+
195.0797	7	C14H11O+
195.116	68	C15H15+
196.0846	9	C14H12O+
196.1226	19	C15H16+
197.0952	17	C14H13O+
197.1309	47	C15H17+
198.1384	22	C15H18+
199.1117	14	C14H15O+
199.147	42	C15H19+
200.1161	8	C14H16O+
201.1265	42	C14H17O+
201.161	15	C15H21+
202.1319	21	C14H18O+
203.0849	18	C16H11+
203.1439	13	C14H19O+
204.0924	27	C16H12+
205.0996	55	C16H13+
206.1079	34	C16H14+
207.1158	61	C16H15+
208.1236	27	C16H16+
209.095	11	C15H13O+
209.1311	42	C16H17+
210.1041	7	C15H14O+
210.1359	16	C16H18+
211.1096	10	C15H15O+
211.1455	10	C16H19+
213.1264	14	C15H17O+
215.1432	8	C15H19O+
216.1483	7	C15H20O+
217.0984	16	C17H13+
217.158	11	C15H21O+
218.1083	9	C17H14+
219.115	40	C17H15+
220.1216	17	C17H16+
221.1314	21	C17H17+
222.1355	13	C17H18+
223.1104	12	C16H15O+
223.1474	19	C17H19+
225.1259	15	C16H17O+
225.1627	11	C17H21+
227.1783	19	C17H23+
233.1279	14	C18H17+
234.1348	11	C18H18+
237.1266	12	C17H17O+
237.1612	9	C18H21+
245.1878	19	C17H25O+
247.1478	9	C19H19+
248.1543	8	C19H20+
249.161	7	C19H21+
251.1406	9	C18H19O+
265.159	8	C19H21O+
