Mass spectrum: Aldosterone; LC-ESI-QTOF; MS2; CE: Ramp 22.8-34.2 eV; R=35000; [M+H]+
Name: Aldosterone
Name: (8S,9S,10R,11S,13R,14S,17S)-11-hydroxy-17-(2-hydroxyacetyl)-10-methyl-3-oxo-1,2,6,7,8,9,11,12,14,15,16,17-dodecahydrocyclopenta[a]phenanthrene-13-carbaldehyde
Formula: C21H28O5
Exact mass: 360.1936740
SMILES: [H][C@@]12CC[C@H](C(=O)CO)[C@]1(C[C@H](O)[C@@]1([H])[C@@]2([H])CCC2=CC(=O)CC[C@]12C)C=O
InChI: InChI=1S/C21H28O5/c1-20-7-6-13(24)8-12(20)2-3-14-15-4-5-16(18(26)10-22)21(15,11-23)9-17(25)19(14)20/h8,11,14-17,19,22,25H,2-7,9-10H2,1H3/t14-,15-,16+,17-,19+,20-,21+/m0/s1
Instrument: Bruker maXis Impact
Instrument type: LC-ESI-QTOF
Ms type: MS2
Ion mode: POSITIVE
Ionization: ESI
Fragmentation mode: CID
Collision energy: Ramp 22.8-34.2 eV
Resolution: 35000
Column name: Acclaim RSLC C18 2.2um, 2.1x100mm, Thermo
Retention time: 7.791 min
Base peak: 361.2014
Precursor m/z: 361.201
Precursor type: [M+H]+
m/z	relative intensity	assigned
57.0326	6	C3H5O+
67.0537	9	C5H7+
69.069	8	C5H9+
79.0542	9	C6H7+
81.0692	19	C6H9+
83.0498	7	C5H7O+
91.0544	6	C7H7+
93.0696	13	C7H9+
95.0854	10	C7H11+
97.0649	13	C6H9O+
105.0694	12	C8H9+
107.0851	23	C8H11+
109.0669	10	C7H9O+
109.1026	7	C8H13+
111.0817	6	C7H11O+
115.0527	9	C9H7+
117.0697	14	C9H9+
119.0853	55	C9H11+
120.0878	6	C8[13]CH11+
121.0643	442	C8H9O+
122.0677	28	C7[13]CH9O+
123.0793	50	C8H11O+
125.0594	16	C7H9O2+
127.0731	6	C7H11O2+
128.0608	16	C10H8+
129.0699	14	C10H9+
131.0478	7	C9H7O+
131.0841	61	C10H11+
132.054	14	C9H8O+
132.089	9	C9[13]CH11+
133.0637	53	C9H9O+
133.0997	46	C10H13+
135.0799	178	C9H11O+
135.1152	11	C10H15+
136.0843	11	C8[13]CH11O+
137.0577	8	C8H9O2+
137.0948	22	C9H13O+
139.074	30	C8H11O2+
141.0693	20	C11H9+
143.085	54	C11H11+
144.0895	9	C10[13]CH11+
145.0636	40	C10H9O+
145.0999	110	C11H13+
146.0708	10	C10H10O+
146.1042	14	C10[13]CH13+
147.0795	999	C10H11O+
147.1157	50	C11H15+
148.0822	113	C9[13]CH11O+
148.1177	7	C10[13]CH15+
149.0956	40	C10H13O+
149.1318	13	C11H17+
151.0734	26	C9H11O2+
151.1108	9	C10H15O+
153.0888	13	C9H13O2+
155.0839	29	C12H11+
157.0848	10	C8H13O3+
157.1002	62	C12H13+
158.0715	25	C11H10O+
158.1036	10	C11[13]CH13+
159.0794	129	C11H11O+
159.1167	54	C12H15+
160.0839	19	C10[13]CH11O+
160.1218	9	C11[13]CH15+
161.095	117	C11H13O+
161.1313	14	C12H17+
162.1002	14	C10[13]CH13O+
163.0744	51	C10H11O2+
163.1102	56	C11H15O+
164.1141	6	C10[13]CH15O+
165.0912	45	C10H13O2+
165.1266	8	C11H17O+
167.0853	12	C13H11+
169.0637	7	C12H9O+
169.0999	47	C13H13+
170.1046	8	C12[13]CH13+
171.0796	466	C12H11O+
171.1159	29	C13H15+
172.0831	56	C11[13]CH11O+
172.1213	9	C13H16+
173.0952	483	C12H13O+
174.0992	71	C11[13]CH13O+
175.11	63	C12H15O+
176.1194	7	C11[13]CH15O+
177.091	13	C11H13O2+
177.1256	12	C12H17O+
179.0842	6	C14H11+
179.1073	9	C11H15O2+
181.0999	20	C14H13+
182.0739	6	C13H10O+
182.1046	7	C14H14+
183.0811	14	C13H11O+
183.0993	9	C10H15O3+
183.1156	26	C14H15+
184.0863	7	C13H12O+
185.0944	94	C13H13O+
185.1314	29	C14H17+
186.101	15	C12[13]CH13O+
186.1343	6	C13[13]CH17+
187.073	8	C12H11O2+
187.1111	116	C13H15O+
188.115	13	C12[13]CH15O+
189.089	12	C12H13O2+
189.1265	26	C13H17O+
191.1051	22	C12H15O2+
193.1026	14	C15H13+
194.1046	7	C15H14+
195.0787	19	C14H11O+
195.1163	25	C15H15+
196.0875	14	C14H12O+
197.0958	87	C14H13O+
197.1326	25	C15H17+
198.1016	24	C14H14O+
199.111	95	C14H15O+
199.1461	14	C15H19+
200.1139	19	C13[13]CH15O+
201.0896	7	C13H13O2+
201.1258	29	C14H17O+
202.1374	6	C14H18O+
203.1061	7	C13H15O2+
204.0935	7	C16H12+
205.1016	12	C16H13+
205.1216	13	C13H17O2+
207.1166	22	C16H15+
208.0871	20	C15H12O+
209.0949	60	C15H13O+
209.1311	35	C16H17+
210.1013	24	C15H14O+
211.1113	118	C15H15O+
211.1458	16	C16H19+
212.1166	24	C14[13]CH15O+
213.0895	20	C14H13O2+
213.1266	93	C15H17O+
214.1289	10	C14[13]CH17O+
215.1057	10	C14H15O2+
215.1417	13	C15H19O+
217.1003	7	C17H13+
217.1217	22	C14H17O2+
218.1188	6	C10H18O5+
219.1162	14	C17H15+
219.1334	7	C14H19O2+
220.1238	7	C17H16+
221.095	41	C16H13O+
221.131	25	C17H17+
222.1015	30	C16H14O+
222.1368	8	C17H18+
223.111	270	C16H15O+
223.1456	22	C17H19+
224.1167	54	C15[13]CH15O+
225.0891	6	C15H13O2+
225.1261	128	C16H17O+
225.1644	16	C17H21+
226.1346	38	C16H18O+
227.143	48	C16H19O+
228.1483	9	C15[13]CH19O+
229.1225	7	C15H17O2+
229.1591	11	C16H21O+
231.1138	8	C18H15+
231.1393	12	C15H19O2+
232.1191	6	C18H16+
232.1267	7	C18H16+
233.1334	6	C18H17+
234.1025	15	C17H14O+
235.1116	31	C17H15O+
235.1498	13	C18H19+
236.117	9	C16[13]CH15O+
237.0905	9	C16H13O2+
237.1264	128	C17H17O+
237.1607	7	C18H21+
238.1323	29	C16[13]CH17O+
239.1429	203	C17H19O+
239.1783	12	C18H23+
240.1446	46	C16[13]CH19O+
241.1236	8	C16H17O2+
241.1581	105	C17H21O+
242.1623	21	C16[13]CH21O+
243.1344	8	C16H19O2+
243.1704	21	C17H23O+
245.0928	6	C18H13O+
245.1286	11	C19H17+
245.156	7	C16H21O2+
246.104	12	C18H14O+
247.1122	31	C18H15O+
247.1471	17	C19H19+
248.1183	28	C18H16O+
249.1261	86	C18H17O+
249.1631	51	C19H21+
250.1315	28	C17[13]CH17O+
250.169	9	C18[13]CH21+
251.106	10	C17H15O2+
251.1428	169	C18H19O+
251.1778	10	C19H23+
252.1138	7	C17H16O2+
252.1471	28	C17[13]CH19O+
253.122	11	C17H17O2+
253.1574	19	C18H21O+
255.1398	13	C17H19O2+
255.1715	9	C18H23O+
257.1522	9	C17H21O2+
259.1125	12	C19H15O+
260.1186	23	C19H16O+
261.1257	46	C19H17O+
261.1603	15	C20H21+
262.1353	17	C19H18O+
263.1429	101	C19H19O+
263.1758	10	C20H23+
264.1458	37	C19H20O+
265.1584	175	C19H21O+
266.1658	196	C19H22O+
267.139	16	C18H19O2+
267.1738	193	C19H23O+
268.1787	57	C18[13]CH23O+
269.1538	17	C18H21O2+
269.1882	66	C19H25O+
270.1933	13	C18[13]CH25O+
271.1431	7	C21H19+
271.1695	8	C18H23O2+
273.1626	9	C21H21+
274.1353	39	C20H18O+
275.1385	13	C19[13]CH18O+
276.1496	15	C20H20O+
277.1597	103	C20H21O+
278.1626	20	C19[13]CH21O+
279.1381	32	C19H19O2+
279.174	135	C20H23O+
280.1399	8	C18[13]CH19O2+
280.1765	31	C19[13]CH23O+
281.1527	26	C19H21O2+
281.1899	30	C20H25O+
282.1923	11	C20H26O+
283.1672	24	C19H23O2+
285.1842	65	C19H25O2+
286.1875	19	C18[13]CH25O2+
287.1999	12	C19H27O2+
289.1582	185	C21H21O+
290.162	59	C20[13]CH21O+
291.1737	40	C21H23O+
292.1796	8	C20[13]CH23O+
294.1599	17	C20H22O2+
295.17	60	C20H23O2+
296.1748	19	C19[13]CH23O2+
297.1485	16	C19H21O3+
297.1847	75	C20H25O2+
298.1887	13	C19[13]CH25O2+
299.1996	11	C20H27O2+
307.1694	178	C21H23O2+
308.1714	43	C20[13]CH23O2+
309.1848	92	C21H25O2+
310.1875	16	C20[13]CH25O2+
313.1854	7	C20H25O3+
315.1948	14	C20H27O3+
325.1798	118	C21H25O3+
326.1836	45	C20[13]CH25O3+
327.1952	125	C21H27O3+
328.2006	14	C20[13]CH27O3+
343.1909	237	C21H27O4+
344.1959	56	C20[13]CH27O4+
345.2026	64	C21H29O4+
346.2092	8	C20[13]CH29O4+
