Mass spectrum: Drospirenone; LC-ESI-QTOF; MS2; CE: 30 eV; R=35000; [M+H]+
Name: Drospirenone
Name: (1R,2R,4R,10R,11S,14S,15S,16S,18S,19S)-10,14-dimethylspiro[hexacyclo[9.8.0.02,4.05,10.014,19.016,18]nonadec-5-ene-15,5`-oxolane]-2`,7-dione
Formula: C24H30O3
Exact mass: 366.2194948
SMILES: [H][C@@]12[C@@H]3C[C@@H]3[C@@]3(CCC(=O)O3)[C@@]1(C)CC[C@@]1([H])[C@@]2([H])[C@H]2C[C@H]2C2=CC(=O)CC[C@]12C
InChI: InChI=1S/C24H30O3/c1-22-6-3-12(25)9-17(22)13-10-14(13)20-16(22)4-7-23(2)21(20)15-11-18(15)24(23)8-5-19(26)27-24/h9,13-16,18,20-21H,3-8,10-11H2,1-2H3/t13-,14+,15-,16+,18+,20-,21+,22-,23+,24+/m1/s1
Instrument: Bruker maXis Impact
Instrument type: LC-ESI-QTOF
Ms type: MS2
Ion mode: POSITIVE
Ionization: ESI
Fragmentation mode: CID
Collision energy: 30 eV
Resolution: 35000
Column name: Acclaim RSLC C18 2.2um, 2.1x100mm, Thermo
Retention time: 9.543 min
Base peak: 367.2273
Precursor m/z: 367.2268
Precursor type: [M+H]+
m/z	relative intensity	assigned
115.0537	38	C9H7+
116.0605	12	C9H8+
117.0694	97	C9H9+
118.0726	11	C8[13]CH9+
119.0849	203	C9H11+
120.0883	25	C8[13]CH11+
121.064	113	C8H9O+
121.1007	42	C9H13+
122.0669	15	C7[13]CH9O+
122.1037	6	C8[13]CH13+
123.0794	240	C8H11O+
124.0832	20	C7[13]CH11O+
125.0587	44	C7H9O2+
125.097	5	C8H13O+
127.0537	5	C10H7+
127.0741	11	C7H11O2+
128.0614	78	C10H8+
129.0688	172	C10H9+
131.0848	485	C10H11+
132.0885	47	C9[13]CH11+
133.0634	56	C9H9O+
133.1003	237	C10H13+
134.0681	8	C8[13]CH9O+
134.1034	21	C9[13]CH13+
135.0795	434	C9H11O+
135.1155	58	C10H15+
136.084	44	C8[13]CH11O+
136.1197	7	C9[13]CH15+
137.0582	12	C8H9O2+
137.0951	65	C9H13O+
139.0736	14	C8H11O2+
141.0688	95	C11H9+
141.0904	5	C8H13O2+
142.0759	43	C11H10+
143.0846	517	C11H11+
144.0892	67	C10[13]CH11+
145.0632	44	C10H9O+
145.1002	453	C11H13+
146.0716	5	C9[13]CH9O+
146.1033	48	C10[13]CH13+
147.0792	343	C10H11O+
147.1156	106	C11H15+
148.0832	38	C9[13]CH11O+
148.1186	13	C10[13]CH15+
149.0951	534	C10H13O+
150.0979	61	C9[13]CH13O+
151.0743	82	C9H11O2+
151.1095	31	C10H15O+
152.0767	11	C8[13]CH11O2+
153.0699	15	C12H9+
153.0899	129	C9H13O2+
154.0762	16	C12H10+
154.0929	12	C8[13]CH13O2+
155.0845	227	C12H11+
156.0911	67	C12H12+
157.1001	530	C12H13+
158.0702	9	C11H10O+
158.1039	78	C11[13]CH13+
159.0795	418	C11H11O+
159.1157	412	C12H15+
160.0838	54	C10[13]CH11O+
160.1193	57	C11[13]CH15+
161.095	186	C11H13O+
161.1314	66	C12H17+
162.0985	28	C10[13]CH13O+
162.134	8	C11[13]CH17+
163.0744	30	C10H11O2+
163.1105	79	C11H15O+
164.1138	12	C10[13]CH15O+
165.0693	17	C13H9+
165.0895	125	C10H13O2+
166.0759	8	C13H10+
166.0945	17	C9[13]CH13O2+
167.0845	54	C13H11+
167.105	20	C10H15O2+
168.0911	26	C13H12+
169.1003	332	C13H13+
170.1042	49	C12[13]CH13+
171.0795	59	C12H11O+
171.1157	812	C13H15+
172.1192	114	C12[13]CH15+
173.0951	236	C12H13O+
173.1314	153	C13H17+
174.0989	27	C11[13]CH13O+
174.1354	22	C12[13]CH17+
175.0752	15	C11H11O2+
175.1105	166	C12H15O+
175.1467	11	C13H19+
176.1142	22	C11[13]CH15O+
177.0899	529	C11H13O2+
177.1269	56	C12H17O+
178.0764	9	C14H10+
178.0935	60	C10[13]CH13O2+
178.1294	8	C11[13]CH17O+
179.0848	39	C14H11+
179.1056	72	C11H15O2+
180.0906	24	C14H12+
180.1108	8	C10[13]CH15O2+
181.0997	162	C14H13+
182.1068	37	C13[13]CH13+
183.0787	25	C13H11O+
183.1158	321	C14H15+
184.0874	8	C13H12O+
184.1202	58	C13[13]CH15+
185.0947	179	C13H13O+
185.1314	286	C14H17+
186.099	26	C12[13]CH13O+
186.1345	45	C13[13]CH17+
187.1104	171	C13H15O+
187.1463	38	C14H19+
188.1144	28	C12[13]CH15O+
188.15	6	C13[13]CH19+
189.0895	28	C12H13O2+
189.1263	132	C13H17O+
190.0955	13	C12H14O2+
190.1315	20	C12[13]CH17O+
191.0851	9	C15H11+
191.1057	109	C12H15O2+
191.1411	10	C13H19O+
192.0917	10	C15H12+
192.1086	14	C11[13]CH15O2+
193.1005	85	C15H13+
193.1206	19	C12H17O2+
194.1065	18	C14[13]CH13+
195.1158	283	C15H15+
196.0879	5	C14H12O+
196.1206	59	C14[13]CH15+
197.0944	73	C14H13O+
197.1316	525	C15H17+
198.1021	21	C14H14O+
198.1356	90	C14[13]CH17+
199.1105	192	C14H15O+
199.1469	81	C15H19+
200.115	27	C13[13]CH15O+
200.1518	15	C14[13]CH19+
201.0899	25	C13H13O2+
201.1265	181	C14H17O+
201.1646	15	C15H21+
202.1305	30	C13[13]CH17O+
203.1051	78	C13H15O2+
203.1426	34	C14H19O+
204.1109	15	C12[13]CH15O2+
204.1454	5	C13[13]CH19O+
205.0988	24	C16H13+
205.1214	64	C13H17O2+
206.1088	25	C16H14+
207.1155	86	C16H15+
208.1207	24	C15[13]CH15+
209.0947	26	C15H13O+
209.1312	154	C16H17+
210.1358	35	C15[13]CH17+
211.1104	121	C15H15O+
211.1474	170	C16H19+
212.1147	18	C14[13]CH15O+
212.1525	40	C15[13]CH19+
213.1263	202	C15H17O+
213.162	25	C16H21+
214.1309	45	C14[13]CH17O+
214.1685	5	C15[13]CH21+
215.106	53	C14H15O2+
215.1418	128	C15H19O+
216.1108	16	C14H16O2+
216.1467	22	C14[13]CH19O+
217.0978	5	C17H13+
217.1212	85	C14H17O2+
218.1249	19	C13[13]CH17O2+
219.1159	50	C17H15+
219.1371	217	C14H19O2+
220.1212	27	C17H16+
220.1404	34	C13[13]CH19O2+
221.1317	198	C17H17+
222.1368	51	C16[13]CH17+
223.1118	37	C16H15O+
223.1473	112	C17H19+
224.1153	10	C15[13]CH15O+
224.1513	24	C16[13]CH19+
225.1272	108	C16H17O+
225.1629	74	C17H21+
226.1319	15	C15[13]CH17O+
226.1677	18	C16[13]CH21+
227.1055	19	C15H15O2+
227.142	110	C16H19O+
227.1778	13	C17H23+
228.1101	6	C15H16O2+
228.147	18	C15[13]CH19O+
229.1213	65	C15H17O2+
229.1572	27	C16H21O+
230.1278	19	C15H18O2+
230.1605	7	C15[13]CH21O+
231.1146	17	C18H15+
231.1371	291	C15H19O2+
232.124	10	C18H16+
232.1416	64	C14[13]CH19O2+
233.1335	65	C18H17+
233.1504	19	C15H21O2+
234.1366	25	C18H18+
235.1111	20	C17H15O+
235.1472	112	C18H19+
236.1188	5	C16[13]CH15O+
236.1526	33	C17[13]CH19+
237.127	64	C17H17O+
237.1623	49	C18H21+
238.1318	13	C16[13]CH17O+
238.1691	18	C18H22+
239.1426	281	C17H19O+
239.1792	18	C18H23+
240.1477	63	C16[13]CH19O+
241.1222	31	C16H17O2+
241.158	55	C17H21O+
241.1898	5	C18H25+
242.1626	10	C16[13]CH21O+
243.1367	48	C16H19O2+
243.1728	25	C17H23O+
244.1433	14	C16H20O2+
244.1784	5	C16[13]CH23O+
245.1323	21	C19H17+
245.1537	47	C16H21O2+
246.1378	11	C19H18+
246.1551	9	C15[13]CH21O2+
247.1113	7	C18H15O+
247.1479	70	C19H19+
248.1224	6	C18H16O+
248.1511	25	C18[13]CH19+
249.1278	25	C18H17O+
249.1627	72	C19H21+
250.1314	9	C18H18O+
250.1692	20	C18[13]CH21+
251.1425	92	C18H19O+
251.179	44	C19H23+
252.1483	23	C17[13]CH19O+
252.1829	18	C19H24+
253.122	16	C17H17O2+
253.158	134	C18H21O+
254.1277	7	C17H18O2+
254.1618	26	C17[13]CH21O+
255.1375	56	C17H19O2+
255.1715	23	C18H23O+
256.1233	5	C20H16+
256.1423	13	C16[13]CH19O2+
256.1773	6	C17[13]CH23O+
257.1315	15	C20H17+
257.1532	274	C17H21O2+
258.1581	74	C16[13]CH21O2+
259.1473	16	C20H19+
259.1636	15	C17H23O2+
259.1674	17	C17H23O2+
260.1558	14	C20H20+
261.1281	11	C19H17O+
261.1631	55	C20H21+
262.1711	17	C19[13]CH21+
263.1431	34	C19H19O+
263.1798	27	C20H23+
264.1492	12	C19H20O+
264.1841	5	C19[13]CH23+
265.123	5	C18H17O2+
265.1584	75	C19H21O+
265.1936	20	C20H25+
266.1628	25	C19H22O+
266.1979	8	C20H26+
267.1371	28	C18H19O2+
267.174	52	C19H23O+
268.1412	12	C18H20O2+
268.1771	11	C18[13]CH23O+
269.1532	50	C18H21O2+
269.1888	18	C19H25O+
270.155	9	C17[13]CH21O2+
270.1905	6	C18[13]CH25O+
271.1322	5	C17H19O3+
271.1486	13	C21H19+
271.1684	41	C18H23O2+
272.1396	11	C17H20O3+
272.1678	8	C17[13]CH23O2+
273.1605	20	C21H21+
274.1695	11	C21H22+
275.1433	33	C20H19O+
275.1774	26	C21H23+
276.1485	9	C19[13]CH19O+
276.1883	20	C21H24+
277.1579	30	C20H21O+
277.195	21	C21H25+
278.1647	8	C19[13]CH21O+
278.1974	5	C20[13]CH25+
279.1355	19	C19H19O2+
279.1743	58	C20H23O+
279.2092	12	C21H27+
280.1774	15	C19[13]CH23O+
280.2116	8	C21H28+
281.1533	58	C19H21O2+
281.1875	6	C20H25O+
282.1561	17	C18[13]CH21O2+
283.1692	63	C19H23O2+
284.1711	12	C18[13]CH23O2+
285.1604	12	C22H21+
285.1845	28	C19H25O2+
286.1548	6	C18H22O3+
286.1861	8	C18[13]CH25O2+
287.1794	34	C22H23+
288.1848	11	C21[13]CH23+
289.1582	26	C21H21O+
289.1946	94	C22H25+
290.1634	12	C21H22O+
290.1966	25	C21[13]CH25+
291.1738	22	C21H23O+
292.1772	9	C21H24O+
293.152	33	C20H21O2+
293.1898	26	C21H25O+
293.223	5	C22H29+
294.1605	13	C20H22O2+
294.1944	17	C21H26O+
295.1687	154	C20H23O2+
295.2012	9	C21H27O+
296.1726	33	C19[13]CH23O2+
297.1486	7	C19H21O3+
297.1856	16	C20H25O2+
298.1745	10	C23H22+
298.1907	5	C19[13]CH25O2+
299.1657	13	C19H23O3+
300.1713	8	C19H24O3+
301.1785	5	C19H25O3+
302.1653	5	C22H22O+
303.1762	19	C22H23O+
303.2101	28	C23H27+
304.1752	6	C21[13]CH23O+
304.2175	8	C22[13]CH27+
305.1897	50	C22H25O+
306.1952	13	C21[13]CH25O+
307.1692	30	C21H23O2+
307.2055	175	C22H27O+
308.1752	14	C21H24O2+
308.2089	36	C21[13]CH27O+
309.1833	42	C21H25O2+
309.2146	8	C22H29O+
310.1922	10	C20[13]CH25O2+
311.1634	13	C20H23O3+
311.2008	20	C21H27O2+
312.1726	16	C20H24O3+
313.1956	33	C24H25+
314.1991	10	C23[13]CH25+
316.1842	7	C23H24O+
320.1753	6	C22H24O2+
321.1846	26	C22H25O2+
321.2211	68	C23H29O+
322.1874	6	C21[13]CH25O2+
322.2236	27	C22[13]CH29O+
323.2002	29	C22H27O2+
323.2378	5	C23H31O+
324.2054	8	C21[13]CH27O2+
325.1807	13	C21H25O3+
325.2158	49	C22H29O2+
326.1845	10	C21H26O3+
326.2185	13	C21[13]CH29O2+
327.1921	5	C21H27O3+
331.2054	105	C24H27O+
332.2096	24	C23[13]CH27O+
334.1919	8	C23H26O2+
339.1926	9	C22H27O3+
339.2313	16	C23H31O2+
349.2163	300	C24H29O2+
350.2195	81	C23[13]CH29O2+
351.2225	8	C22[13]C2H29O2+
352.201	8	C23H28O3+
367.2266	999	C24H31O3+
368.2301	243	C23[13]CH31O3+
369.2329	40	C22[13]C2H31O3+
