Mass spectrum: DCOIT; LC-ESI-QTOF; MS2; CE: 30 eV; R=35000; [M+H]+
Name: DCOIT
Name: Kathon 930
Name: 4,5-dichloro-2-octyl-1,2-thiazol-3-one
Formula: C11H17Cl2NOS
Exact mass: 281.0407905
SMILES: CCCCCCCCN1SC(Cl)=C(Cl)C1=O
InChI: InChI=1S/C11H17Cl2NOS/c1-2-3-4-5-6-7-8-14-11(15)9(12)10(13)16-14/h2-8H2,1H3
Instrument: Bruker maXis Impact
Instrument type: LC-ESI-QTOF
Ms type: MS2
Ion mode: POSITIVE
Ionization: ESI
Fragmentation mode: CID
Collision energy: 30 eV
Resolution: 35000
Column name: Acclaim RSLC C18 2.2um, 2.1x100mm, Thermo
Retention time: 12.477 min
Base peak: 282.0478
Precursor m/z: 282.0481
Precursor type: [M+H]+
m/z	relative intensity	assigned
126.9157	13	C2HCl2S+
128.9126	8	C2HCl[37]ClS+
134.9527	37	C3H2ClNOS+
136.9496	8	C3H2[37]ClNOS+
149.0217	8	C6H10ClS+
150.026	7	C6H11ClS+
151.9108	10	C3Cl2NS+
153.9077	7	C3Cl[37]ClNS+
169.9217	999	C3H2Cl2NOS+
170.9238	37	C2[13]CH2Cl2NOS+
171.9187	580	C3H2Cl[37]ClNOS+
