Mass spectrum: N,N-Dimethyldodecylamine N-oxide; LC-ESI-QTOF; MS2; CE: 20 eV; R=35000; [M+H]+
Name: N,N-Dimethyldodecylamine N-oxide
Name: Dodecyldimethylamine oxide
Name: N,N-dimethyldodecan-1-amine oxide
Formula: C14H31NO
Exact mass: 229.2405646
SMILES: CCCCCCCCCCCC[N+](C)(C)[O-]
InChI: InChI=1S/C14H31NO/c1-4-5-6-7-8-9-10-11-12-13-14-15(2,3)16/h4-14H2,1-3H3
Instrument: Bruker maXis Impact
Instrument type: LC-ESI-QTOF
Ms type: MS2
Ion mode: POSITIVE
Ionization: ESI
Fragmentation mode: CID
Collision energy: 20 eV
Resolution: 35000
Column name: Acclaim RSLC C18 2.2um, 2.1x100mm, Thermo
Retention time: 11.092 min
Base peak: 230.2474
Precursor m/z: 230.2478
Precursor type: [M+H]+
m/z	relative intensity	assigned
212.2363	79	C14H30N+
213.24	12	C13[13]CH30N+
230.2471	999	C14H32NO+
231.2504	96	C13[13]CH32NO+
232.2532	8	C12[13]C2H32NO+
