Mass spectrum: Testosterone; LC-ESI-QTOF; MS2; CE: Ramp 21.2-31.8 eV; R=35000; [M+H]+
Name: Testosterone
Name: (8R,9S,10R,13S,14S,17S)-17-hydroxy-10,13-dimethyl-1,2,6,7,8,9,11,12,14,15,16,17-dodecahydrocyclopenta[a]phenanthren-3-one
Formula: C19H28O2
Exact mass: 288.2089301
SMILES: C[C@]12CC[C@H]3[C@@H](CCC4=CC(=O)CC[C@]34C)[C@@H]1CC[C@@H]2O
InChI: InChI=1S/C19H28O2/c1-18-9-7-13(20)11-12(18)3-4-14-15-5-6-17(21)19(15,2)10-8-16(14)18/h11,14-17,21H,3-10H2,1-2H3/t14-,15-,16-,17-,18-,19-/m0/s1
Instrument: Bruker maXis Impact
Instrument type: LC-ESI-QTOF
Ms type: MS2
Ion mode: POSITIVE
Ionization: ESI
Fragmentation mode: CID
Collision energy: Ramp 21.2-31.8 eV
Resolution: 35000
Column name: Acclaim RSLC C18 2.2um, 2.1x100mm, Thermo
Retention time: 9.850 min
Base peak: 289.216
Precursor m/z: 289.2162
Precursor type: [M+H]+
m/z	relative intensity	assigned
67.0539	12	C5H7+
69.0694	18	C5H9+
79.0537	39	C6H7+
81.0694	61	C6H9+
83.0487	74	C5H7O+
91.0542	7	C7H7+
93.0701	30	C7H9+
95.0858	30	C7H11+
97.0653	999	C6H9O+
98.0685	57	C5[13]CH9O+
105.0704	12	C8H9+
107.0861	18	C8H11+
109.0662	477	C7H9O+
110.0688	33	C6[13]CH9O+
119.0849	17	C9H11+
121.0643	11	C8H9O+
121.1008	17	C9H13+
123.0799	72	C8H11O+
124.0833	5	C7[13]CH11O+
131.0845	13	C10H11+
133.1002	24	C10H13+
135.1161	12	C10H15+
137.0941	7	C9H13O+
143.0849	11	C11H11+
145.1002	27	C11H13+
147.1159	45	C11H15+
149.0947	7	C10H13O+
149.1307	9	C11H17+
157.1	23	C12H13+
159.116	44	C12H15+
160.1193	5	C11[13]CH15+
161.0939	8	C11H13O+
161.1313	36	C12H17+
163.1103	16	C11H15O+
163.1463	15	C12H19+
169.1006	6	C13H13+
171.1155	25	C13H15+
173.1314	17	C13H17+
175.1105	12	C12H15O+
175.1469	43	C13H19+
176.1498	5	C12[13]CH19+
177.1266	27	C12H17O+
183.1161	13	C14H15+
185.1317	13	C14H17+
187.1473	38	C14H19+
188.1506	6	C13[13]CH19+
189.1267	11	C13H17O+
189.1628	24	C14H21+
197.1307	27	C15H17+
199.1468	24	C15H19+
201.1628	22	C15H21+
203.142	5	C14H19O+
211.1476	17	C16H19+
213.1628	40	C16H21+
214.1654	7	C15[13]CH21+
215.142	9	C15H19O+
217.1584	9	C15H21O+
219.1735	6	C15H23O+
225.1634	9	C17H21+
227.1785	13	C17H23+
243.2088	5	C18H27+
245.1894	6	C17H25O+
253.1951	121	C19H25+
254.1981	25	C18[13]CH25+
271.2055	130	C19H27O+
272.2085	27	C18[13]CH27O+
289.2162	776	C19H29O2+
290.2196	177	C18[13]CH29O2+
291.2218	18	C17[13]C2H29O2+
