Mass spectrum: Medroxyprogesteroneacetate; LC-ESI-QTOF; MS2; CE: 20 eV; R=35000; [M+H]+
Name: Medroxyprogesteroneacetate
Name: Medroxyprogesterone acetate
Name: [(6S,8R,9S,10R,13S,14S,17R)-17-acetyl-6,10,13-trimethyl-3-oxo-2,6,7,8,9,11,12,14,15,16-decahydro-1H-cyclopenta[a]phenanthren-17-yl] acetate
Formula: C24H34O4
Exact mass: 386.2457096
SMILES: C[C@H]1C[C@H]2[C@@H]3CC[C@](OC(C)=O)(C(C)=O)[C@@]3(C)CC[C@@H]2[C@@]2(C)CCC(=O)C=C12
InChI: InChI=1S/C24H34O4/c1-14-12-18-19(22(4)9-6-17(27)13-21(14)22)7-10-23(5)20(18)8-11-24(23,15(2)25)28-16(3)26/h13-14,18-20H,6-12H2,1-5H3/t14-,18+,19-,20-,22+,23-,24-/m0/s1
Instrument: Bruker maXis Impact
Instrument type: LC-ESI-QTOF
Ms type: MS2
Ion mode: POSITIVE
Ionization: ESI
Fragmentation mode: CID
Collision energy: 20 eV
Resolution: 35000
Column name: Acclaim RSLC C18 2.2um, 2.1x100mm, Thermo
Retention time: 10.957 min
Base peak: 387.2534
Precursor m/z: 387.253
Precursor type: [M+H]+
m/z	relative intensity	assigned
123.0798	128	C8H11O+
124.0832	12	C7[13]CH11O+
133.0999	7	C10H13+
135.079	5	C9H11O+
137.0954	27	C9H13O+
145.1001	16	C11H13+
147.1159	13	C11H15+
151.1108	6	C10H15O+
157.1001	6	C12H13+
159.1158	9	C12H15+
161.0943	6	C11H13O+
161.1314	7	C12H17+
163.1109	8	C11H15O+
169.0999	8	C13H13+
171.1157	20	C13H15+
173.1315	27	C13H17+
175.1107	20	C12H15O+
175.1472	34	C13H19+
177.126	12	C12H17O+
183.116	7	C14H15+
185.1317	8	C14H17+
187.111	18	C13H15O+
187.1476	16	C14H19+
189.1263	13	C13H17O+
191.1422	9	C13H19O+
197.1319	11	C15H17+
199.1473	14	C15H19+
201.1625	5	C15H21+
203.1425	13	C14H19O+
205.158	60	C14H21O+
206.1612	9	C13[13]CH21O+
209.1312	5	C16H17+
211.1468	10	C16H19+
213.1263	5	C15H17O+
213.1628	9	C16H21+
214.1343	11	C15H18O+
215.1421	21	C15H19O+
217.1579	19	C15H21O+
223.1478	12	C17H19+
224.1552	35	C17H20+
225.1623	36	C17H21+
226.1667	6	C16[13]CH21+
227.1424	5	C16H19O+
227.1788	12	C17H23+
229.1583	5	C16H21O+
231.1739	8	C16H23O+
239.1429	8	C17H19O+
241.158	13	C17H21O+
243.174	10	C17H23O+
245.1894	15	C17H25O+
249.1627	10	C19H21+
251.1782	7	C19H23+
253.1586	5	C18H21O+
255.174	23	C18H23O+
256.1779	6	C17[13]CH23O+
257.1536	48	C17H21O2+
258.1566	10	C16[13]CH21O2+
263.1793	5	C20H23+
265.1948	44	C20H25+
266.2006	21	C20H26+
267.1744	141	C19H23O+
267.2105	79	C20H27+
268.1773	38	C18[13]CH23O+
268.2136	17	C19[13]CH27+
269.1884	15	C19H25O+
281.1893	17	C20H25O+
282.1971	39	C20H26O+
283.2052	89	C20H27O+
284.2112	33	C20H28O+
285.2215	468	C20H29O+
286.2247	84	C19[13]CH29O+
287.2274	8	C18[13]C2H29O+
291.2106	15	C22H27+
303.232	7	C20H31O2+
307.2056	20	C22H27O+
308.2089	6	C21[13]CH27O+
309.2214	115	C22H29O+
310.2243	28	C21[13]CH29O+
325.2164	170	C22H29O2+
326.2197	50	C21[13]CH29O2+
327.2325	999	C22H31O2+
328.2357	192	C21[13]CH31O2+
329.238	20	C20[13]C2H31O2+
345.2423	14	C22H33O3+
385.2379	69	C24H33O4+
386.2403	28	C23[13]CH33O4+
387.2537	604	C24H35O4+
388.2568	138	C23[13]CH35O4+
389.2596	16	C22[13]C2H35O4+
