Mass spectrum: Icaridin; LC-ESI-QTOF; MS2; CE: 10 eV; R=35000; [M+H]+
Name: Icaridin
Name: butan-2-yl 2-(2-hydroxyethyl)piperidine-1-carboxylate
Formula: C12H23NO3
Exact mass: 229.1677936
SMILES: CCC(C)OC(=O)N1CCCCC1CCO
InChI: InChI=1S/C12H23NO3/c1-3-10(2)16-12(15)13-8-5-4-6-11(13)7-9-14/h10-11,14H,3-9H2,1-2H3
Instrument: Bruker maXis Impact
Instrument type: LC-ESI-QTOF
Ms type: MS2
Ion mode: POSITIVE
Ionization: ESI
Fragmentation mode: CID
Collision energy: 10 eV
Resolution: 35000
Column name: Acclaim RSLC C18 2.2um, 2.1x100mm, Thermo
Retention time: 8.799 min
Base peak: 230.1746
Precursor m/z: 230.1751
Precursor type: [M+H]+
m/z	relative intensity	assigned
130.1217	999	C7H16NO+
131.1249	57	C6[13]CH16NO+
156.1007	94	C8H14NO2+
157.104	8	C7[13]CH14NO2+
174.1114	224	C8H16NO3+
175.1144	17	C7[13]CH16NO3+
186.1841	12	C11H24NO+
230.1744	353	C12H24NO3+
231.1775	41	C11[13]CH24NO3+
