Mass spectrum: 11-Ketotestosterone; LC-ESI-QTOF; MS2; CE: 40 eV; R=35000; [M+H]+
Name: 11-Ketotestosterone
Name: (8S,9S,10R,13S,14S,17S)-17-hydroxy-10,13-dimethyl-2,6,7,8,9,12,14,15,16,17-decahydro-1H-cyclopenta[a]phenanthrene-3,11-dione
Formula: C19H26O3
Exact mass: 302.1881947
SMILES: C[C@]12CC(=O)[C@H]3[C@@H](CCC4=CC(=O)CC[C@]34C)[C@@H]1CC[C@@H]2O
InChI: InChI=1S/C19H26O3/c1-18-8-7-12(20)9-11(18)3-4-13-14-5-6-16(22)19(14,2)10-15(21)17(13)18/h9,13-14,16-17,22H,3-8,10H2,1-2H3/t13-,14-,16-,17+,18-,19-/m0/s1
Instrument: Bruker maXis Impact
Instrument type: LC-ESI-QTOF
Ms type: MS2
Ion mode: POSITIVE
Ionization: ESI
Fragmentation mode: CID
Collision energy: 40 eV
Resolution: 35000
Column name: Acclaim RSLC C18 2.2um, 2.1x100mm, Thermo
Retention time: 7.887 min
Base peak: 303.1946
Precursor m/z: 303.1955
Precursor type: [M+H]+
m/z	relative intensity	assigned
115.0538	75	C9H7+
116.0609	33	C9H8+
117.0693	102	C9H9+
118.0739	10	C8[13]CH9+
119.0845	220	C9H11+
120.0871	31	C8[13]CH11+
121.0639	999	C8H9O+
121.1007	64	C9H13+
122.0674	78	C7[13]CH9O+
123.0798	213	C8H11O+
124.0827	26	C7[13]CH11O+
127.0511	16	C10H7+
128.0608	117	C10H8+
129.0685	186	C10H9+
130.0752	76	C10H10+
131.0842	429	C10H11+
132.0554	41	C9H8O+
132.0877	70	C9[13]CH11+
133.0631	54	C9H9O+
133.0998	272	C10H13+
134.0696	12	C9H10O+
134.1031	43	C9[13]CH13+
135.0797	129	C9H11O+
135.1153	60	C10H15+
136.0828	16	C8[13]CH11O+
137.0571	13	C8H9O2+
137.0947	81	C9H13O+
139.0745	9	C8H11O2+
141.0686	89	C11H9+
142.0755	136	C11H10+
143.0837	394	C11H11+
144.0556	19	C10H8O+
144.0912	94	C11H12+
145.0636	72	C10H9O+
145.0998	535	C11H13+
146.0704	40	C10H10O+
146.1035	79	C10[13]CH13+
147.0789	363	C10H11O+
147.1157	134	C11H15+
148.085	75	C10H12O+
148.1202	17	C10[13]CH15+
149.095	148	C10H13O+
149.13	13	C11H17+
151.1096	21	C10H15O+
152.0606	11	C12H8+
153.0681	49	C12H9+
154.0756	43	C12H10+
155.0844	225	C12H11+
156.0908	99	C12H12+
157.0629	24	C11H9O+
157.0996	313	C12H13+
158.0712	42	C11H10O+
158.1047	67	C11[13]CH13+
159.0788	130	C11H11O+
159.1158	254	C12H15+
160.1202	41	C11[13]CH15+
161.0949	311	C11H13O+
161.1308	89	C12H17+
162.1014	107	C11H14O+
162.1338	18	C11[13]CH17+
163.1101	340	C11H15O+
164.113	47	C10[13]CH15O+
165.0684	41	C13H9+
165.0929	12	C10H13O2+
166.0748	27	C13H10+
167.0837	69	C13H11+
167.1047	19	C10H15O2+
168.0916	79	C13H12+
169.0999	212	C13H13+
170.0717	8	C12H10O+
170.1055	67	C13H14+
171.0794	113	C12H11O+
171.115	248	C13H15+
172.0854	30	C12H12O+
172.1197	52	C12[13]CH15+
173.0946	225	C12H13O+
173.1314	68	C13H17+
174.1023	258	C12H14O+
174.1366	21	C13H18+
175.1091	143	C12H15O+
175.1455	22	C13H19+
177.0874	9	C11H13O2+
177.1261	80	C12H17O+
178.0762	24	C14H10+
178.1295	16	C11[13]CH17O+
179.0848	49	C14H11+
179.1044	16	C11H15O2+
180.0912	41	C14H12+
181.1002	141	C14H13+
182.106	70	C14H14+
183.0793	16	C13H11O+
183.1155	299	C14H15+
184.0862	22	C13H12O+
184.1201	75	C13[13]CH15+
185.0946	95	C13H13O+
185.131	182	C14H17+
186.1014	37	C13H14O+
186.136	52	C14H18+
187.1103	93	C13H15O+
187.1456	28	C14H19+
188.1163	85	C13H16O+
189.1257	331	C13H17O+
190.1301	49	C12[13]CH17O+
192.0917	25	C15H12+
193.0991	75	C15H13+
194.1055	50	C15H14+
195.0792	11	C14H11O+
195.1155	86	C15H15+
196.0866	19	C14H12O+
196.1204	57	C15H16+
197.094	51	C14H13O+
197.1312	183	C15H17+
198.1026	35	C14H14O+
198.1362	37	C14[13]CH17+
199.1094	110	C14H15O+
199.1466	207	C15H19+
200.1148	30	C14H16O+
200.1497	34	C14[13]CH19+
201.1262	229	C14H17O+
201.1621	21	C15H21+
202.1314	66	C14H18O+
203.1064	11	C13H15O2+
203.1412	105	C14H19O+
204.1454	21	C13[13]CH19O+
205.0994	14	C16H13+
206.1081	11	C16H14+
207.1143	37	C16H15+
208.1229	59	C16H16+
209.0946	11	C15H13O+
209.1315	73	C16H17+
210.1028	22	C15H14O+
210.1362	26	C16H18+
211.1095	55	C15H15O+
211.1459	22	C16H19+
212.1165	37	C15H16O+
213.1256	95	C15H17O+
213.1621	62	C16H21+
214.1312	34	C15H18O+
214.1673	13	C15[13]CH21+
215.1416	36	C15H19O+
216.1459	14	C15H20O+
217.12	17	C14H17O2+
217.1568	40	C15H21O+
218.1619	15	C15H22O+
219.1137	25	C17H15+
220.1247	19	C17H16+
221.1316	25	C17H17+
221.1526	20	C14H21O2+
223.1085	17	C16H15O+
223.1462	130	C17H19+
224.1186	25	C16H16O+
224.1515	49	C17H20+
225.1277	43	C16H17O+
225.1628	68	C17H21+
226.134	96	C16H18O+
226.1658	16	C16[13]CH21+
227.1414	175	C16H19O+
228.1467	46	C15[13]CH19O+
229.1209	120	C15H17O2+
229.1572	26	C16H21O+
230.1233	22	C14[13]CH17O2+
233.1312	8	C18H17+
233.1543	12	C15H21O2+
234.1372	11	C18H18+
237.1248	11	C17H17O+
239.1422	38	C17H19O+
239.1782	32	C18H23+
240.1827	17	C18H24+
241.1573	324	C17H21O+
242.1624	136	C17H22O+
243.1409	12	C16H19O2+
243.1723	48	C17H23O+
244.1448	300	C16H20O2+
245.1504	148	C16H21O2+
246.1551	19	C15[13]CH21O2+
249.164	23	C19H21+
252.1512	15	C18H20O+
253.1547	10	C18H21O+
255.1383	14	C17H19O2+
257.1859	12	C18H25O+
259.168	677	C17H23O2+
260.1715	131	C16[13]CH23O2+
267.1728	48	C19H23O+
268.1755	9	C18[13]CH23O+
270.1582	14	C18H22O2+
285.1841	61	C19H25O2+
286.1848	9	C18[13]CH25O2+
303.1934	31	C19H27O3+
