Mass spectrum: 17alpha-Methyltestosterone; LC-ESI-QTOF; MS2; CE: 50 eV; R=35000; [M+H]+
Name: 17alpha-Methyltestosterone
Name: Methyltestosterone
Name: (8R,9S,10R,13S,14S,17S)-17-hydroxy-10,13,17-trimethyl-2,6,7,8,9,11,12,14,15,16-decahydro-1H-cyclopenta[a]phenanthren-3-one
Formula: C20H30O2
Exact mass: 302.2245802
SMILES: C[C@]1(O)CC[C@H]2[C@@H]3CCC4=CC(=O)CC[C@]4(C)[C@H]3CC[C@]12C
InChI: InChI=1S/C20H30O2/c1-18-9-6-14(21)12-13(18)4-5-15-16(18)7-10-19(2)17(15)8-11-20(19,3)22/h12,15-17,22H,4-11H2,1-3H3/t15-,16+,17+,18+,19+,20+/m1/s1
Instrument: Bruker maXis Impact
Instrument type: LC-ESI-QTOF
Ms type: MS2
Ion mode: POSITIVE
Ionization: ESI
Fragmentation mode: CID
Collision energy: 50 eV
Resolution: 35000
Column name: Acclaim RSLC C18 2.2um, 2.1x100mm, Thermo
Retention time: 10.341 min
Base peak: 303.2318
Precursor m/z: 303.2319
Precursor type: [M+H]+
m/z	relative intensity	assigned
109.0648	42	C7H9O+
115.0531	139	C9H7+
116.0605	47	C9H8+
117.0688	267	C9H9+
118.0739	28	C8[13]CH9+
119.0846	507	C9H11+
121.0637	340	C8H9O+
121.1002	261	C9H13+
122.0678	45	C7[13]CH9O+
122.1042	35	C8[13]CH13+
123.0796	999	C8H11O+
124.0827	85	C7[13]CH11O+
127.0551	20	C10H7+
128.0605	310	C10H8+
129.0684	378	C10H9+
130.0761	134	C10H10+
131.0841	555	C10H11+
132.0891	92	C9[13]CH11+
133.0639	58	C9H9O+
133.0998	577	C10H13+
134.1038	71	C9[13]CH13+
135.0796	65	C9H11O+
135.1157	127	C10H15+
136.1183	25	C9[13]CH15+
137.0949	85	C9H13O+
141.0691	206	C11H9+
142.0762	258	C11H10+
143.084	467	C11H11+
144.091	200	C11H12+
145.0646	37	C10H9O+
145.0996	481	C11H13+
146.0709	20	C10H10O+
147.0789	71	C10H11O+
147.1154	242	C11H15+
148.0859	97	C10H12O+
148.1189	46	C10[13]CH15+
149.0942	165	C10H13O+
149.1304	57	C11H17+
152.0595	15	C12H8+
153.0679	59	C12H9+
154.0759	83	C12H10+
155.0839	256	C12H11+
156.0917	213	C12H12+
157.0997	345	C12H13+
158.1054	112	C12H14+
159.0791	25	C11H11O+
159.1158	345	C12H15+
160.0886	17	C11H12O+
161.095	91	C11H13O+
161.1314	131	C12H17+
162.1029	37	C11H14O+
163.1104	74	C11H15O+
165.0686	23	C13H9+
167.0847	73	C13H11+
168.0919	69	C13H12+
169.0988	198	C13H13+
170.1073	81	C13H14+
171.1149	235	C13H15+
172.1217	82	C13H16+
173.0955	29	C12H13O+
173.1306	125	C13H17+
174.1016	31	C12H14O+
174.137	27	C12[13]CH17+
175.1098	44	C12H15O+
175.1463	59	C13H19+
177.1263	53	C12H17O+
177.1622	18	C13H21+
180.0904	15	C14H12+
181.1006	79	C14H13+
182.1069	61	C14H14+
183.1153	125	C14H15+
184.1211	41	C14H16+
185.1315	188	C14H17+
186.138	44	C13[13]CH17+
187.1106	33	C13H15O+
187.1464	97	C14H19+
189.125	35	C13H17O+
189.162	22	C14H21+
195.1159	46	C15H15+
196.1221	44	C15H16+
197.1313	105	C15H17+
198.1386	25	C15H18+
199.1115	16	C14H15O+
199.1475	44	C15H19+
200.1213	34	C14H16O+
200.1517	21	C15H20+
201.1261	30	C14H17O+
201.1613	36	C15H21+
202.134	22	C14H18O+
209.1336	17	C16H17+
211.1462	48	C16H19+
212.1545	64	C16H20+
213.1251	56	C15H17O+
213.1646	20	C16H21+
214.1332	27	C15H18O+
215.141	54	C15H19O+
215.1785	15	C16H23+
216.144	16	C14[13]CH19O+
223.1444	22	C17H19+
225.1615	34	C17H21+
227.1793	47	C17H23+
228.1838	23	C17H24+
237.1636	48	C18H21+
252.1843	27	C19H24+
267.2111	19	C20H27+
