Mass spectrum: Harmine; LC-ESI-QTOF; MS2; CE: Ramp 20-30 eV; R=35000; [M+H]+
Name: Harmine
Name: 7-methoxy-1-methyl-9H-pyrido[3,4-b]indole
Formula: C13H12N2O
Exact mass: 212.0949630
SMILES: COC1=CC2=C(C=C1)C1=C(N2)C(C)=NC=C1
InChI: InChI=1S/C13H12N2O/c1-8-13-11(5-6-14-8)10-4-3-9(16-2)7-12(10)15-13/h3-7,15H,1-2H3
Instrument: Bruker maXis Impact
Instrument type: LC-ESI-QTOF
Ms type: MS2
Ion mode: POSITIVE
Ionization: ESI
Fragmentation mode: CID
Collision energy: Ramp 20-30 eV
Resolution: 35000
Column name: Acclaim RSLC C18 2.2um, 2.1x100mm, Thermo
Retention time: 5.230 min
Base peak: 213.1018
Precursor m/z: 213.1022
Precursor type: [M+H]+
m/z	relative intensity	assigned
169.0754	20	C11H9N2+
170.0833	291	C11H10N2+
171.0863	34	C10[13]CH10N2+
198.0786	716	C12H10N2O+
199.0817	63	C11[13]CH10N2O+
213.1024	999	C13H13N2O+
214.1055	172	C12[13]CH13N2O+
215.1077	9	C11[13]C2H13N2O+
