Mass spectrum: Flunisolide; LC-ESI-QTOF; MS2; CE: 50 eV; R=35000; [M+H]+
Name: Flunisolide
Name: (1S,2S,4R,8S,9S,11S,12S,13R,19S)-19-fluoro-11-hydroxy-8-(2-hydroxyacetyl)-6,6,9,13-tetramethyl-5,7-dioxapentacyclo[10.8.0.02,9.04,8.013,18]icosa-14,17-dien-16-one
Formula: C24H31FO6
Exact mass: 434.2104669
SMILES: [H][C@@]12C[C@H]3OC(C)(C)O[C@@]3(C(=O)CO)[C@@]1(C)C[C@H](O)[C@@]1([H])[C@@]2([H])C[C@H](F)C2=CC(=O)C=C[C@]12C
InChI: InChI=1S/C24H31FO6/c1-21(2)30-19-9-14-13-8-16(25)15-7-12(27)5-6-22(15,3)20(13)17(28)10-23(14,4)24(19,31-21)18(29)11-26/h5-7,13-14,16-17,19-20,26,28H,8-11H2,1-4H3/t13-,14-,16-,17-,19+,20+,22-,23-,24+/m0/s1
Instrument: Bruker maXis Impact
Instrument type: LC-ESI-QTOF
Ms type: MS2
Ion mode: POSITIVE
Ionization: ESI
Fragmentation mode: CID
Collision energy: 50 eV
Resolution: 35000
Column name: Acclaim RSLC C18 2.2um, 2.1x100mm, Thermo
Retention time: 8.985 min
Base peak: 435.2176
Precursor m/z: 435.2177
Precursor type: [M+H]+
m/z	relative intensity	assigned
115.038	9	C5H7O3+
115.0533	63	C9H7+
116.0598	15	C9H8+
117.069	55	C9H9+
118.0731	8	C8[13]CH9+
119.0474	5	C8H7O+
119.0849	52	C9H11+
120.0883	7	C8[13]CH11+
121.0639	532	C8H9O+
122.0675	45	C7[13]CH9O+
123.0442	9	C7H7O2+
123.0796	21	C8H11O+
125.0594	7	C7H9O2+
127.0529	15	C10H7+
128.061	126	C10H8+
129.0685	80	C10H9+
130.0752	17	C10H10+
131.0487	22	C9H7O+
131.0843	87	C10H11+
132.0556	37	C9H8O+
132.0883	11	C9[13]CH11+
133.0632	65	C9H9O+
133.1	19	C10H13+
134.0678	7	C8[13]CH9O+
135.0432	16	C8H7O2+
135.0794	105	C9H11O+
137.0582	33	C8H9O2+
137.0754	22	C9H10F+
137.095	7	C9H13O+
139.0542	84	C11H7+
139.0739	14	C8H11O2+
140.057	5	C10[13]CH7+
141.0529	9	C7H9O3+
141.0689	84	C11H9+
142.0763	44	C11H10+
143.0843	108	C11H11+
144.0555	42	C10H8O+
144.0877	18	C10[13]CH11+
145.0634	326	C10H9O+
145.1002	49	C11H13+
146.0687	54	C9[13]CH9O+
146.1032	8	C10[13]CH13+
147.079	399	C10H11O+
148.083	42	C9[13]CH11O+
149.0582	12	C9H9O2+
149.0747	11	C10H10F+
149.095	17	C10H13O+
151.0746	17	C9H11O2+
152.0609	31	C12H8+
153.0686	56	C12H9+
154.0757	20	C12H10+
155.0839	82	C12H11+
156.0565	7	C11H8O+
156.0893	16	C11[13]CH11+
157.0639	51	C11H9O+
157.0998	42	C12H13+
158.0713	100	C11H10O+
158.1034	6	C11[13]CH13+
159.0788	288	C11H11O+
160.0835	34	C10[13]CH11O+
161.0584	31	C10H9O2+
161.0742	7	C11H10F+
161.0943	81	C11H13O+
162.0639	6	C10H10O2+
162.0985	10	C10[13]CH13O+
163.0529	8	C13H7+
163.0733	35	C10H11O2+
163.1104	6	C11H15O+
165.069	248	C13H9+
166.0751	70	C13H10+
167.0843	107	C13H11+
168.0556	17	C12H8O+
168.0899	33	C13H12+
169.063	74	C12H9O+
169.1003	51	C13H13+
170.0704	60	C12H10O+
170.1044	11	C12[13]CH13+
171.0794	999	C12H11O+
172.0833	151	C11[13]CH11O+
173.0606	8	C8H10FO3+
173.0948	131	C12H13O+
174.0994	18	C11[13]CH13O+
175.075	17	C11H11O2+
175.0943	5	C8H15O4+
175.1103	16	C12H15O+
176.0604	14	C14H8+
177.0688	15	C14H9+
177.0895	11	C11H13O2+
178.0758	67	C14H10+
179.0841	184	C14H11+
180.0914	103	C14H12+
181.0636	99	C13H9O+
181.0998	120	C14H13+
182.0713	96	C13H10O+
182.1048	24	C13[13]CH13+
183.0788	124	C13H11O+
183.1148	30	C14H15+
184.086	43	C13H12O+
185.0587	11	C12H9O2+
185.0951	174	C13H13O+
186.0989	24	C12[13]CH13O+
187.0745	25	C12H11O2+
187.1083	12	C13H15O+
189.0696	66	C15H9+
189.0888	10	C12H13O2+
190.0762	115	C15H10+
191.0847	185	C15H11+
192.0915	142	C15H12+
193.0998	143	C15H13+
194.072	82	C14H10O+
194.1061	44	C15H14+
195.0796	255	C14H11O+
195.116	129	C15H15+
196.0869	220	C14H12O+
196.1202	23	C14[13]CH15+
197.0947	351	C14H13O+
197.1301	34	C15H17+
198.0657	5	C13H10O2+
198.1002	91	C14H14O+
198.1364	6	C14[13]CH17+
199.0739	15	C13H11O2+
199.1101	62	C14H15O+
200.1144	13	C13[13]CH15O+
201.0892	16	C13H13O2+
202.0773	36	C16H10+
203.0841	75	C16H11+
204.0913	60	C16H12+
205.0654	16	C15H9O+
205.0999	215	C16H13+
206.0716	26	C15H10O+
206.1066	66	C16H14+
207.0799	62	C15H11O+
207.1154	133	C16H15+
208.0871	463	C15H12O+
208.1206	33	C15[13]CH15+
209.0944	656	C15H13O+
210.1013	312	C15H14O+
211.0739	20	C14H11O2+
211.1097	192	C15H15O+
212.0802	5	C14H12O2+
212.1151	33	C14[13]CH15O+
213.0894	20	C14H13O2+
213.1263	117	C15H17O+
214.0765	6	C17H10+
214.1303	15	C14[13]CH17O+
215.0849	63	C17H11+
216.0917	58	C17H12+
217.1	93	C17H13+
218.0712	26	C16H10O+
218.1079	51	C17H14+
219.0796	82	C16H11O+
219.1158	85	C17H15+
220.0872	112	C16H12O+
220.1222	41	C17H16+
221.095	327	C16H13O+
221.1302	37	C17H17+
222.102	283	C16H14O+
223.1107	396	C16H15O+
224.081	17	C15H12O2+
224.1173	204	C16H16O+
225.0897	32	C15H13O2+
225.1256	217	C16H17O+
226.0773	10	C18H10+
226.095	13	C15H14O2+
226.1295	47	C15[13]CH17O+
227.0842	32	C18H11+
227.1434	13	C16H19O+
228.0917	38	C18H12+
229.1007	89	C18H13+
230.108	77	C18H14+
231.0798	122	C17H11O+
231.1158	60	C18H15+
232.0863	120	C17H12O+
232.1229	44	C18H16+
233.0951	201	C17H13O+
233.1312	46	C18H17+
234.1027	253	C17H14O+
234.1366	15	C17[13]CH17+
235.1105	395	C17H15O+
235.1475	37	C18H19+
236.0802	16	C16H12O2+
236.1163	131	C17H16O+
236.1501	8	C17[13]CH19+
237.0899	76	C16H13O2+
237.1261	177	C17H17O+
238.0958	31	C16H14O2+
238.1313	52	C16[13]CH17O+
239.1056	22	C16H15O2+
239.1426	44	C17H19O+
240.0926	13	C19H12+
240.1446	5	C16[13]CH19O+
241.1009	37	C19H13+
242.108	56	C19H14+
243.0853	7	C11H15O6+
243.1151	70	C19H15+
244.0876	23	C18H12O+
244.1237	41	C19H16+
245.095	271	C18H13O+
245.1317	58	C19H17+
246.1024	259	C18H14O+
246.1356	18	C18[13]CH17+
247.0734	22	C17H11O2+
247.1103	247	C18H15O+
247.1477	19	C19H19+
248.0804	21	C17H12O2+
248.118	295	C18H16O+
249.0905	26	C17H13O2+
249.1253	148	C18H17O+
250.0973	30	C17H14O2+
250.1331	49	C18H18O+
251.1053	46	C17H15O2+
251.1416	56	C18H19O+
252.1128	22	C17H16O2+
252.1483	16	C17[13]CH19O+
253.0985	13	C20H13+
253.1226	11	C17H17O2+
253.156	15	C18H21O+
254.1074	11	C20H14+
254.1263	6	C17H18O2+
255.0809	18	C19H11O+
255.1177	20	C17H16FO+
256.0852	6	C18[13]CH11O+
256.1258	6	C16[13]CH16FO+
257.093	11	C19H13O+
257.1057	7	C12H17O6+
257.131	35	C20H17+
258.102	70	C19H14O+
258.1366	9	C19[13]CH17+
259.111	123	C19H15O+
260.1185	226	C19H16O+
261.0909	38	C18H13O2+
261.1254	160	C19H17O+
262.0973	38	C18H14O2+
262.1333	116	C19H18O+
263.1052	58	C18H15O2+
263.1421	171	C19H19O+
264.1132	43	C18H16O2+
264.146	39	C18[13]CH19O+
265.0809	5	C17H13O3+
265.122	36	C18H17O2+
265.1577	25	C19H21O+
266.0956	5	C14H15FO4+
266.1612	6	C18[13]CH21O+
267.1173	10	C21H15+
267.1368	9	C18H19O2+
268.1235	8	C21H16+
269.0951	17	C20H13O+
269.1311	7	C21H17+
270.103	41	C20H14O+
271.1093	21	C20H15O+
272.115	9	C20H16O+
273.091	24	C19H13O2+
273.1269	30	C20H17O+
274.0959	19	C19H14O2+
274.1312	15	C20H18O+
275.1057	28	C19H15O2+
275.1423	91	C20H19O+
276.1128	26	C19H16O2+
276.1458	18	C19[13]CH19O+
277.1205	24	C19H17O2+
278.1266	33	C19H18O2+
279.1021	6	C18H15O3+
279.1376	31	C19H19O2+
280.1139	5	C15H17FO4+
280.1448	22	C19H20O2+
281.1519	20	C19H21O2+
282.1404	8	C12H23FO6+
282.1542	6	C18[13]CH21O2+
283.149	26	C19H20FO+
285.1268	27	C21H17O+
286.1302	11	C20[13]CH17O+
287.1072	11	C17H16FO3+
288.1141	45	C20H16O2+
289.1186	9	C19[13]CH16O2+
290.1288	9	C20H18O2+
291.1337	11	C20H19O2+
292.1414	5	C20H20O2+
293.1534	13	C20H21O2+
303.1351	17	C21H19O2+
307.1324	5	C20H19O3+
321.1444	6	C21H21O3+
