Mass spectrum: 2-Morpholinothiobenzothiazole; LC-ESI-QTOF; MS2; CE: 20 eV; R=35000; [M+H]+
Name: 2-Morpholinothiobenzothiazole
Name: 2-(Morpholinothio)benzothiazole
Name: 4-(1,3-benzothiazol-2-ylsulfanyl)morpholine
Formula: C11H12N2OS2
Exact mass: 252.0391050
SMILES: C1CN(CCO1)SC1=NC2=CC=CC=C2S1
InChI: InChI=1S/C11H12N2OS2/c1-2-4-10-9(3-1)12-11(15-10)16-13-5-7-14-8-6-13/h1-4H,5-8H2
Instrument: Bruker maXis Impact
Instrument type: LC-ESI-QTOF
Ms type: MS2
Ion mode: POSITIVE
Ionization: ESI
Fragmentation mode: CID
Collision energy: 20 eV
Resolution: 35000
Column name: Acclaim RSLC C18 2.2um, 2.1x100mm, Thermo
Retention time: 9.851 min
Base peak: 253.0464
Precursor m/z: 253.0464
Precursor type: [M+H]+
m/z	relative intensity	assigned
118.032	8	C4H8NOS+
136.0206	75	C7H6NS+
137.0247	6	C6[13]CH6NS+
148.0208	12	C8H6NS+
163.0317	7	C8H7N2S+
163.044	6	C9H9NS+
165.9768	134	C7H4NS2+
166.983	46	C10HNS+
167.9728	11	C7H4NS[34]S+
167.9922	156	C7H6NS2+
168.9958	15	C6[13]CH6NS2+
169.9881	16	C7H6NS[34]S+
182.0071	5	C11H4NS+
190.0565	6	C10H10N2S+
205.0433	7	C10H9N2OS+
220.0662	163	C11H12N2OS+
221.0685	22	C10[13]CH12N2OS+
222.0608	10	C11H12N2O[34]S+
253.0463	999	C11H13N2OS2+
254.0493	120	C10[13]CH13N2OS2+
255.0418	72	C11H13N2OS[34]S+
