Mass spectrum: Fluorometholone; LC-ESI-QTOF; MS2; CE: Ramp 23.1-34.7 eV; R=35000; [M+H]+
Name: Fluorometholone
Name: (6S,8S,9R,10S,11S,13S,14S,17R)-17-acetyl-9-fluoro-11,17-dihydroxy-6,10,13-trimethyl-6,7,8,11,12,14,15,16-octahydrocyclopenta[a]phenanthren-3-one
Formula: C22H29FO4
Exact mass: 376.2049876
SMILES: [H][C@@]12CC[C@](O)(C(C)=O)[C@@]1(C)C[C@H](O)[C@@]1(F)[C@@]2([H])C[C@H](C)C2=CC(=O)C=C[C@]12C
InChI: InChI=1S/C22H29FO4/c1-12-9-17-15-6-8-21(27,13(2)24)20(15,4)11-18(26)22(17,23)19(3)7-5-14(25)10-16(12)19/h5,7,10,12,15,17-18,26-27H,6,8-9,11H2,1-4H3/t12-,15-,17-,18-,19-,20-,21-,22-/m0/s1
Instrument: Bruker maXis Impact
Instrument type: LC-ESI-QTOF
Ms type: MS2
Ion mode: POSITIVE
Ionization: ESI
Fragmentation mode: CID
Collision energy: Ramp 23.1-34.7 eV
Resolution: 35000
Column name: Acclaim RSLC C18 2.2um, 2.1x100mm, Thermo
Retention time: 8.896 min
Base peak: 377.2129
Precursor m/z: 377.2123
Precursor type: [M+H]+
m/z	relative intensity	assigned
55.0533	8	C4H7+
61.0274	7	C2H5O2+
81.0691	8	C6H9+
85.0641	7	C5H9O+
93.0697	11	C7H9+
95.0853	20	C7H11+
107.0859	8	C8H11+
115.0523	12	C9H7+
117.0697	9	C9H9+
119.0848	34	C9H11+
120.0872	7	C8[13]CH11+
121.0639	94	C8H9O+
122.0671	13	C7[13]CH9O+
123.0801	55	C8H11O+
125.0578	29	C7H9O2+
128.0611	6	C10H8+
129.0689	13	C10H9+
131.0849	19	C10H11+
133.0631	8	C9H9O+
133.1005	37	C10H13+
135.0795	550	C9H11O+
136.0826	69	C8[13]CH11O+
137.0571	7	C8H9O2+
137.0759	9	C9H10F+
137.095	47	C9H13O+
139.0742	20	C8H11O2+
143.0843	23	C11H11+
145.0634	27	C10H9O+
145.0998	68	C11H13+
146.0703	11	C10H10O+
146.1028	8	C10[13]CH13+
147.0788	93	C10H11O+
147.1157	8	C11H15+
148.0838	11	C9[13]CH11O+
149.0945	94	C10H13O+
149.1299	8	C11H17+
151.1094	10	C10H15O+
157.0997	27	C12H13+
158.0693	16	C11H10O+
159.0792	83	C11H11O+
159.1158	15	C12H15+
160.0846	9	C10[13]CH11O+
161.0948	536	C11H13O+
162.0985	55	C10[13]CH13O+
163.0742	11	C10H11O2+
163.0896	9	C11H12F+
163.1102	32	C11H15O+
165.0896	71	C10H13O2+
167.0842	13	C13H11+
169.0998	11	C13H13+
171.0786	17	C12H11O+
171.1156	37	C13H15+
172.0858	18	C12H12O+
173.0946	122	C12H13O+
174.0986	18	C11[13]CH13O+
175.11	82	C12H15O+
176.1155	6	C11[13]CH15O+
177.0903	29	C11H13O2+
179.0824	7	C14H11+
180.092	9	C14H12+
181.1003	7	C14H13+
183.078	19	C13H11O+
183.1155	9	C14H15+
184.0855	13	C13H12O+
185.095	208	C13H13O+
186.0992	29	C12[13]CH13O+
187.1107	95	C13H15O+
188.1139	17	C12[13]CH15O+
189.0894	15	C12H13O2+
189.1066	9	C13H14F+
189.1267	80	C13H17O+
190.1278	16	C12[13]CH17O+
191.0833	11	C15H11+
191.1193	7	C13H16F+
193.1002	16	C15H13+
195.0784	8	C14H11O+
195.1157	9	C15H15+
196.086	9	C14H12O+
196.1247	10	C15H16+
197.0925	31	C14H13O+
198.1006	16	C14H14O+
199.1108	62	C14H15O+
200.1127	6	C13[13]CH15O+
201.0907	39	C13H13O2+
201.126	22	C14H17O+
203.1064	18	C13H15O2+
203.1398	9	C14H19O+
205.1007	17	C16H13+
207.1156	10	C16H15+
207.1363	8	C13H19O2+
208.0879	11	C15H12O+
209.0945	72	C15H13O+
209.1338	34	C13H18FO+
210.0994	25	C15H14O+
211.1121	58	C15H15O+
212.1174	12	C14[13]CH15O+
213.0901	10	C14H13O2+
213.1254	69	C15H17O+
214.1318	10	C14[13]CH17O+
215.1415	9	C15H19O+
217.12	19	C14H17O2+
219.1171	14	C17H15+
221.096	13	C16H13O+
221.1329	9	C17H17+
222.1029	33	C16H14O+
223.1104	117	C16H15O+
223.1476	12	C17H19+
224.1155	43	C16H16O+
225.1261	72	C16H17O+
226.1295	15	C15[13]CH17O+
227.1065	36	C15H15O2+
227.1426	13	C16H19O+
228.1129	8	C14[13]CH15O2+
229.1203	55	C15H17O2+
230.1258	16	C15H18O2+
231.1375	28	C15H19O2+
232.1417	8	C15H20O2+
233.1315	32	C18H17+
234.102	8	C17H14O+
235.1112	36	C17H15O+
236.1176	48	C17H16O+
237.1265	295	C17H17O+
238.1307	64	C16[13]CH17O+
239.1068	7	C16H15O2+
239.142	75	C17H19O+
240.148	28	C17H20O+
241.1576	12	C17H21O+
247.1479	11	C19H19+
248.1189	14	C18H16O+
249.1259	59	C18H17O+
250.1317	49	C18H18O+
251.1424	279	C18H19O+
252.1464	54	C17[13]CH19O+
253.1206	13	C17H17O2+
253.1572	92	C18H21O+
254.1606	23	C17[13]CH21O+
255.1388	13	C14H20FO3+
257.1553	6	C14H22FO3+
259.1101	22	C19H15O+
259.152	9	C17H20FO+
260.1194	8	C19H16O+
261.126	23	C19H17O+
261.1662	13	C17H22FO+
262.1327	16	C19H18O+
263.1427	72	C19H19O+
264.1479	38	C19H20O+
265.1197	12	C18H17O2+
265.1556	26	C19H21O+
267.1357	47	C18H19O2+
267.171	12	C19H23O+
268.1413	12	C17[13]CH19O2+
269.1516	41	C18H21O2+
269.1883	8	C19H25O+
270.1551	12	C17[13]CH21O2+
273.1263	18	C20H17O+
274.1338	30	C20H18O+
275.1373	7	C19[13]CH18O+
277.1585	70	C20H21O+
278.1653	99	C20H22O+
279.1738	999	C20H23O+
280.1425	15	C19H20O2+
280.1775	225	C19[13]CH23O+
281.1514	19	C19H21O2+
281.1811	24	C18[13]C2H23O+
285.1624	6	C22H21+
288.1502	38	C21H20O+
289.1543	9	C20[13]CH20O+
293.1506	6	C20H21O2+
293.1899	61	C21H25O+
294.1898	15	C20[13]CH25O+
295.1691	74	C17H24FO3+
296.1763	22	C16[13]CH24FO3+
297.1488	9	C19H21O3+
297.1608	10	C20H22FO+
297.183	112	C20H25O2+
298.1885	24	C19[13]CH25O2+
299.1758	10	C20H24FO+
303.1742	135	C22H23O+
304.1765	38	C21[13]CH23O+
306.1591	15	C21H22O2+
309.1843	9	C21H25O2+
311.1995	22	C21H27O2+
312.2035	7	C21H28O2+
317.196	8	C20H26FO2+
321.1845	265	C22H25O2+
322.1873	86	C21[13]CH25O2+
323.1867	12	C22H24FO+
339.1952	186	C22H27O3+
340.1983	44	C21[13]CH27O3+
341.1929	15	C22H26FO2+
341.2041	9	C22H29O3+
357.2065	25	C22H29O4+
358.2149	7	C21[13]CH29O4+
359.1962	7	C22H28FO3+
359.2089	7	C22H28FO3+
