Mass spectrum: Flumethasone; LC-ESI-QTOF; MS2; CE: 40 eV; R=35000; [M+H]+
Name: Flumethasone
Name: (6S,8S,9R,10S,11S,13S,14S,16R,17R)-6,9-difluoro-11,17-dihydroxy-17-(2-hydroxyacetyl)-10,13,16-trimethyl-6,7,8,11,12,14,15,16-octahydrocyclopenta[a]phenanthren-3-one
Formula: C22H28F2O5
Exact mass: 410.1904804
SMILES: [H][C@@]12C[C@@H](C)[C@](O)(C(=O)CO)[C@@]1(C)C[C@H](O)[C@@]1(F)[C@@]2([H])C[C@H](F)C2=CC(=O)C=C[C@]12C
InChI: InChI=1S/C22H28F2O5/c1-11-6-13-14-8-16(23)15-7-12(26)4-5-19(15,2)21(14,24)17(27)9-20(13,3)22(11,29)18(28)10-25/h4-5,7,11,13-14,16-17,25,27,29H,6,8-10H2,1-3H3/t11-,13+,14+,16+,17+,19+,20+,21+,22+/m1/s1
Instrument: Bruker maXis Impact
Instrument type: LC-ESI-QTOF
Ms type: MS2
Ion mode: POSITIVE
Ionization: ESI
Fragmentation mode: CID
Collision energy: 40 eV
Resolution: 35000
Column name: Acclaim RSLC C18 2.2um, 2.1x100mm, Thermo
Retention time: 8.323 min
Base peak: 411.1971
Precursor m/z: 411.1978
Precursor type: [M+H]+
m/z	relative intensity	assigned
115.0529	65	C9H7+
117.0683	46	C9H9+
119.0853	141	C9H11+
121.0637	999	C8H9O+
123.0794	53	C8H11O+
125.0577	47	C7H9O2+
128.0613	77	C10H8+
129.0694	120	C10H9+
131.0839	193	C10H11+
133.0639	173	C9H9O+
133.1	155	C10H13+
135.0793	467	C9H11O+
137.0948	55	C9H13O+
139.0542	285	C11H7+
139.0909	131	C9H12F+
141.0695	95	C11H9+
142.0756	49	C11H10+
143.0849	161	C11H11+
144.0577	70	C7H9FO2+
144.09	44	C11H12+
145.0644	391	C10H9O+
145.1005	186	C11H13+
147.0785	375	C10H11O+
148.0841	39	C9[13]CH11O+
149.0752	81	C10H10F+
149.0965	57	C10H13O+
151.0543	51	C12H7+
151.0719	41	C9H11O2+
151.0907	77	C10H12F+
155.086	87	C12H11+
157.0631	40	C11H9O+
157.1012	65	C12H13+
158.0716	129	C11H10O+
159.0793	326	C11H11O+
159.1162	54	C12H15+
160.0831	50	C10[13]CH11O+
161.0574	80	C10H9O2+
161.0754	58	C11H10F+
161.0952	371	C11H13O+
163.0902	89	C11H12F+
165.0693	119	C13H9+
166.0773	53	C13H10+
167.0839	47	C13H11+
169.0625	155	C12H9O+
169.1018	65	C10H14FO+
170.0723	48	C12H10O+
171.079	381	C12H11O+
172.0842	116	C12H12O+
173.095	235	C12H13O+
174.0993	43	C11[13]CH13O+
175.076	51	C8H12FO3+
175.0909	62	C12H12F+
175.1123	47	C12H15O+
177.0697	61	C14H9+
179.0851	175	C14H11+
180.0909	50	C14H12+
181.0636	62	C13H9O+
181.101	123	C14H13+
182.0714	61	C13H10O+
183.0796	100	C13H11O+
185.0569	83	C12H9O2+
185.0934	204	C13H13O+
187.0744	106	C12H11O2+
187.1111	95	C13H15O+
189.0695	75	C15H9+
189.1073	64	C13H14F+
190.0765	59	C15H10+
191.086	125	C15H11+
192.0918	79	C15H12+
193.0997	155	C15H13+
194.1091	72	C15H14+
195.0795	176	C14H11O+
195.1003	44	C11H15O3+
195.1155	84	C15H15+
196.0855	151	C14H12O+
197.0947	256	C14H13O+
197.1328	44	C15H17+
198.0994	43	C13[13]CH13O+
199.1119	62	C14H15O+
203.0839	103	C16H11+
204.0917	40	C16H12+
205.0644	46	C15H9O+
205.0994	105	C16H13+
206.1076	54	C16H14+
207.1142	180	C16H15+
208.0857	131	C15H12O+
208.1211	49	C16H16+
209.0952	278	C15H13O+
209.1326	53	C16H17+
210.102	287	C15H14O+
211.1097	196	C15H15O+
212.1166	101	C15H16O+
213.0907	57	C14H13O2+
213.1093	40	C12H15F2O+
213.1282	60	C12H18FO2+
215.0828	43	C17H11+
218.1055	43	C17H14+
219.0778	88	C16H11O+
219.1151	138	C17H15+
220.0881	128	C16H12O+
220.1193	44	C17H16+
221.096	171	C16H13O+
222.1022	368	C16H14O+
223.1096	311	C16H15O+
224.1163	101	C16H16O+
225.0941	66	C9H15F2O4+
225.126	438	C16H17O+
226.1298	122	C15[13]CH17O+
227.1025	51	C15H15O2+
227.1446	40	C13H20FO2+
229.1014	84	C18H13+
230.1044	43	C18H14+
231.0788	41	C17H11O+
231.1158	66	C18H15+
232.0846	48	C17H12O+
232.1198	52	C18H16+
233.0949	90	C17H13O+
233.1337	69	C15H18FO+
234.1017	59	C17H14O+
235.1106	867	C17H15O+
236.1156	238	C16[13]CH15O+
237.0878	43	C16H13O2+
237.1263	408	C17H17O+
238.0983	227	C16H14O2+
238.1309	123	C16[13]CH17O+
239.1044	137	C16H15O2+
239.1437	58	C14H20FO2+
240.0932	52	C19H12+
240.1104	55	C16H16O2+
241.1005	53	C19H13+
242.1053	58	C19H14+
243.1159	74	C19H15+
244.1227	84	C19H16+
245.0943	133	C18H13O+
245.1336	46	C16H18FO+
246.1031	174	C18H14O+
247.1107	200	C18H15O+
247.149	42	C16H20FO+
248.1179	142	C18H16O+
249.1239	117	C18H17O+
249.1655	45	C13H23F2O2+
250.0982	39	C17H14O2+
250.1298	89	C18H18O+
251.1065	51	C17H15O2+
251.1422	139	C18H19O+
252.147	70	C18H20O+
253.1214	991	C17H17O2+
253.1577	51	C18H21O+
254.1249	248	C16[13]CH17O2+
255.118	59	C17H16FO+
255.1334	50	C17H19O2+
256.1253	58	C17H17FO+
257.1337	79	C17H18FO+
258.1017	63	C19H14O+
259.1118	122	C19H15O+
259.1479	78	C20H19+
260.1175	232	C19H16O+
261.1273	282	C19H17O+
262.1337	367	C19H18O+
263.1433	144	C19H19O+
264.1118	70	C18H16O2+
264.1474	43	C18[13]CH19O+
265.1218	47	C18H17O2+
265.1566	64	C19H21O+
271.15	55	C15H21F2O2+
272.12	62	C20H16O+
273.1236	90	C20H17O+
274.132	148	C20H18O+
275.1038	39	C19H15O2+
275.1422	198	C20H19O+
276.1493	102	C20H20O+
277.1215	68	C19H17O2+
277.1572	380	C20H21O+
278.1302	54	C19H18O2+
278.1617	110	C19[13]CH21O+
279.1396	47	C16H20FO3+
279.1746	51	C20H23O+
280.1416	55	C19H20O2+
281.1331	49	C19H18FO+
284.1157	58	C21H16O+
287.1393	49	C21H19O+
288.119	40	C14H18F2O4+
289.1599	117	C18H22FO2+
290.1273	48	C20H18O2+
291.1389	43	C17H20FO3+
293.1551	42	C17H22FO3+
295.1648	42	C20H23O2+
302.1241	39	C21H18O2+
