Mass spectrum: Norharmane; LC-ESI-QTOF; MS2; CE: 50 eV; R=35000; [M+H]+
Name: Norharmane
Name: 9H-pyrido[3,4-b]indole
Formula: C11H8N2
Exact mass: 168.0687483
SMILES: N1C2=C(C=CC=C2)C2=C1C=NC=C2
InChI: InChI=1S/C11H8N2/c1-2-4-10-8(3-1)9-5-6-12-7-11(9)13-10/h1-7,13H
Instrument: Bruker maXis Impact
Instrument type: LC-ESI-QTOF
Ms type: MS2
Ion mode: POSITIVE
Ionization: ESI
Fragmentation mode: CID
Collision energy: 50 eV
Resolution: 35000
Column name: Acclaim RSLC C18 2.2um, 2.1x100mm, Thermo
Retention time: 8.688 min
Base peak: 169.0755
Precursor m/z: 169.076
Precursor type: [M+H]+
m/z	relative intensity	assigned
113.0381	40	C9H5+
114.0338	11	C8H4N+
114.0459	80	C9H6+
115.0538	268	C9H7+
116.0507	33	C8H6N+
117.0568	42	C8H7N+
125.0376	6	C10H5+
128.0486	29	C9H6N+
129.0444	12	C8H5N2+
129.0562	9	C9H7N+
139.0412	9	C10H5N+
140.0488	907	C10H6N+
141.0561	527	C10H7N+
142.0533	82	C9H6N2+
142.0595	73	C9[13]CH7N+
143.0582	11	C8[13]CH6N2+
152.0484	8	C11H6N+
153.0436	6	C10H5N2+
165.043	5	C11H5N2+
166.0518	49	C11H6N2+
167.0593	167	C11H7N2+
168.0674	999	C11H8N2+
169.0731	205	C11H9N2+
170.0768	24	C10[13]CH9N2+
