Mass spectrum: Thiabendazole; LC-ESI-QTOF; MS2; CE: 50 eV; R=35000; [M+H]+
Name: Thiabendazole
Name: 4-(1H-benzimidazol-2-yl)-1,3-thiazole
Formula: C10H7N3S
Exact mass: 201.0360682
SMILES: N1C2=CC=CC=C2N=C1C1=CSC=N1
InChI: InChI=1S/C10H7N3S/c1-2-4-8-7(3-1)12-10(13-8)9-5-14-6-11-9/h1-6H,(H,12,13)
Instrument: Bruker maXis Impact
Instrument type: LC-ESI-QTOF
Ms type: MS2
Ion mode: POSITIVE
Ionization: ESI
Fragmentation mode: CID
Collision energy: 50 eV
Resolution: 35000
Column name: Acclaim RSLC C18 2.2um, 2.1x100mm, Thermo
Retention time: 6.078 min
Base peak: 202.043
Precursor m/z: 202.0433
Precursor type: [M+H]+
m/z	relative intensity	assigned
118.0517	27	C7H6N2+
129.0437	17	C8H5N2+
130.0512	5	C8H6N2+
131.0597	999	C8H7N2+
132.0626	94	C7[13]CH7N2+
134.0048	58	C7H4NS+
135.0084	6	C6[13]CH4NS+
142.0513	37	C9H6N2+
143.0593	177	C9H7N2+
144.0622	17	C8[13]CH7N2+
148.021	5	C8H6NS+
156.0545	13	C9H6N3+
157.0622	23	C9H7N3+
158.0694	14	C9H8N3+
168.0543	16	C10H6N3+
170.0698	20	C10H8N3+
174.0234	23	C9H6N2S+
175.0314	413	C9H7N2S+
176.0339	46	C8[13]CH7N2S+
177.0278	19	C9H7N2[34]S+
202.0421	40	C10H8N3S+
203.0451	6	C9[13]CH8N3S+
