Mass spectrum: N-Methyldodecylamine; LC-ESI-QTOF; MS2; CE: 10 eV; R=35000; [M+H]+
Name: N-Methyldodecylamine
Name: N-methyldodecan-1-amine
Formula: C13H29N
Exact mass: 199.2299999
SMILES: CCCCCCCCCCCCNC
InChI: InChI=1S/C13H29N/c1-3-4-5-6-7-8-9-10-11-12-13-14-2/h14H,3-13H2,1-2H3
Instrument: Bruker maXis Impact
Instrument type: LC-ESI-QTOF
Ms type: MS2
Ion mode: POSITIVE
Ionization: ESI
Fragmentation mode: CID
Collision energy: 10 eV
Resolution: 35000
Column name: Acclaim RSLC C18 2.2um, 2.1x100mm, Thermo
Retention time: 10.498 min
Base peak: 200.2365
Precursor m/z: 200.2373
Precursor type: [M+H]+
m/z	relative intensity	assigned
200.2366	999	C13H30N+
201.2397	136	C12[13]CH30N+
202.243	8	C11[13]C2H30N+
