Mass spectrum: 17-alpha-Estradiol; LC-ESI-QTOF; MS2; CE: 50 eV; R=35000; [M+H]+
Name: 17-alpha-Estradiol
Name: Alfatradiol
Name: (8R,9S,13S,14S,17R)-13-methyl-6,7,8,9,11,12,14,15,16,17-decahydrocyclopenta[a]phenanthrene-3,17-diol
Formula: C18H24O2
Exact mass: 272.1776300
SMILES: C[C@]12CC[C@H]3[C@@H](CCC4=C3C=CC(O)=C4)[C@@H]1CC[C@H]2O
InChI: InChI=1S/C18H24O2/c1-18-9-8-14-13-5-3-12(19)10-11(13)2-4-15(14)16(18)6-7-17(18)20/h3,5,10,14-17,19-20H,2,4,6-9H2,1H3/t14-,15-,16+,17-,18+/m1/s1
Instrument: Bruker maXis Impact
Instrument type: LC-ESI-QTOF
Ms type: MS2
Ion mode: POSITIVE
Ionization: ESI
Fragmentation mode: CID
Collision energy: 50 eV
Resolution: 35000
Column name: Acclaim RSLC C18 2.2um, 2.1x100mm, Thermo
Retention time: 12.038 min
Base peak: 279.1588
Precursor m/z: 273.1849
Precursor type: [M+H]+
m/z	relative intensity	assigned
128.0607	197	C10H8+
129.0686	286	C10H9+
141.0688	148	C11H9+
142.0785	184	C11H10+
143.083	113	C11H11+
153.0689	90	C12H9+
155.0835	232	C12H11+
156.0906	121	C12H12+
157.0994	351	C12H13+
167.0832	220	C13H11+
168.0927	170	C13H12+
169.0979	156	C13H13+
170.1056	96	C13H14+
182.1081	351	C14H14+
183.1155	216	C14H15+
195.0807	76	C14H11O+
197.132	999	C15H17+
198.1344	199	C14[13]CH17+
210.0089	95	C16H2O+
210.1028	201	C15H14O+
211.1106	166	C15H15O+
212.1537	157	C16H20+
225.1262	796	C16H17O+
226.0431	110	C17H6O+
226.1314	166	C15[13]CH17O+
228.0214	220	C16H4O2+
240.1503	110	C17H20O+
