Mass spectrum: Norgestimate; LC-ESI-QTOF; MS2; CE: 40 eV; R=35000; [M+H]+
Name: Norgestimate
Name: [(3E,8R,9S,10R,13S,14S,17R)-13-ethyl-17-ethynyl-3-hydroxyimino-1,2,6,7,8,9,10,11,12,14,15,16-dodecahydrocyclopenta[a]phenanthren-17-yl] acetate
Formula: C23H31NO3
Exact mass: 369.2303939
SMILES: CC[C@]12CC[C@H]3[C@@H](CCC4=C\C(CC[C@H]34)=N\O)[C@@H]1CC[C@@]2(OC(C)=O)C#C
InChI: InChI=1S/C23H31NO3/c1-4-22-12-10-19-18-9-7-17(24-26)14-16(18)6-8-20(19)21(22)11-13-23(22,5-2)27-15(3)25/h2,14,18-21,26H,4,6-13H2,1,3H3/b24-17+/t18-,19+,20+,21-,22-,23-/m0/s1
Instrument: Bruker maXis Impact
Instrument type: LC-ESI-QTOF
Ms type: MS2
Ion mode: POSITIVE
Ionization: ESI
Fragmentation mode: CID
Collision energy: 40 eV
Resolution: 35000
Column name: Acclaim RSLC C18 2.2um, 2.1x100mm, Thermo
Retention time: 11.951 min
Base peak: 370.237
Precursor m/z: 370.2377
Precursor type: [M+H]+
m/z	relative intensity	assigned
115.0535	114	C9H7+
116.0607	33	C9H8+
117.0688	158	C9H9+
118.065	37	C8H8N+
118.0724	25	C8[13]CH9+
119.0845	132	C9H11+
120.0809	27	C8H10N+
120.0895	18	C8[13]CH11+
121.0858	19	C5H13O3+
121.0993	21	C9H13+
122.0589	51	C7H8NO+
122.0955	40	C8H12N+
124.0747	999	C7H10NO+
125.0777	100	C6[13]CH10NO+
127.0534	16	C10H7+
128.0614	147	C10H8+
129.0686	296	C10H9+
130.0645	50	C9H8N+
130.075	82	C10H10+
131.0724	35	C9H9N+
131.0842	444	C10H11+
132.0798	88	C9H10N+
133.063	12	C9H9O+
133.0859	30	C6H13O3+
133.1003	234	C10H13+
134.0952	58	C9H12N+
135.0784	19	C9H11O+
135.1013	12	C6H15O3+
135.1151	38	C10H15+
136.0746	40	C8H10NO+
136.1125	11	C9H14N+
137.0974	17	C9H13O+
137.1296	10	C10H17+
138.091	38	C8H12NO+
141.0685	125	C11H9+
142.0762	120	C11H10+
143.0843	330	C11H11+
144.0901	87	C11H12+
145.0618	18	C10H9O+
145.0875	60	C10H11N+
145.1	356	C11H13+
146.0952	93	C10H12N+
147.0807	18	C10H11O+
147.1011	27	C7H15O3+
147.1153	111	C11H15+
148.0736	34	C9H10NO+
148.1104	45	C7H16O3+
149.0206	10	C8H5O3+
149.0944	67	C10H13O+
149.1152	16	C7H17O3+
149.1295	23	C11H17+
150.0893	106	C9H12NO+
152.0611	17	C12H8+
152.1058	25	C9H14NO+
153.0678	36	C12H9+
154.076	41	C12H10+
155.0594	32	C7H9NO3+
155.0843	184	C12H11+
156.0907	90	C12H12+
157.0997	270	C12H13+
158.0973	99	C11H12N+
159.0807	16	C11H11O+
159.115	249	C12H15+
160.111	102	C11H14N+
161.0967	22	C11H13O+
161.1174	54	C8H17O3+
161.1297	60	C12H17+
162.0896	41	C10H12NO+
162.1267	46	C11H16N+
163.097	19	C10H13NO+
164.1057	89	C10H14NO+
165.0691	52	C13H9+
166.0772	28	C13H10+
166.1224	11	C10H16NO+
167.0835	110	C13H11+
168.0908	64	C13H12+
169.0999	194	C13H13+
170.0977	51	C12H12N+
170.1055	50	C13H14+
171.1154	224	C13H15+
172.1161	62	C12H14N+
173.0939	15	C12H13O+
173.131	95	C13H17+
174.0885	38	C11H12NO+
174.1267	44	C12H16N+
175.1098	38	C12H15O+
175.1338	12	C9H19O3+
175.146	14	C13H19+
176.1059	158	C11H14NO+
176.1433	14	C12H18N+
177.1119	25	C10[13]CH14NO+
178.0765	10	C14H10+
178.1215	125	C11H16NO+
179.0837	57	C14H11+
179.1232	13	C10[13]CH16NO+
180.0906	34	C14H12+
181.0991	130	C14H13+
182.1052	44	C14H14+
183.1151	164	C14H15+
184.1127	59	C13H14N+
185.095	10	C13H13O+
185.1312	182	C14H17+
186.0889	10	C12H12NO+
186.1344	41	C13[13]CH17+
187.1105	15	C13H15O+
187.1286	10	C10H19O3+
187.1466	34	C14H19+
188.1056	28	C12H14NO+
188.1456	17	C13H18N+
190.0768	11	C15H10+
190.121	43	C12H16NO+
191.0838	22	C15H11+
191.1077	15	C12H15O2+
191.1286	11	C12H17NO+
192.0922	34	C15H12+
192.1363	15	C12H18NO+
193.1002	64	C15H13+
194.1059	55	C15H14+
195.1147	100	C15H15+
196.1207	54	C15H16+
197.1309	94	C15H17+
198.1322	48	C14H16N+
199.1471	57	C15H19+
200.1092	14	C13H14NO+
200.1435	31	C14H18N+
201.1126	10	C13H15NO+
201.1484	10	C11H21O3+
201.1633	20	C15H21+
202.1221	20	C13H16NO+
203.085	12	C16H11+
203.1447	13	C14H19O+
204.0901	14	C16H12+
204.1369	15	C13H18NO+
205.0992	45	C16H13+
207.1164	78	C16H15+
208.1207	47	C16H16+
209.1308	75	C16H17+
210.1325	48	C15H16N+
211.1338	26	C12H19O3+
211.1462	46	C16H19+
212.1435	29	C15H18N+
213.1254	15	C15H17O+
213.1468	15	C12H21O3+
213.1606	28	C16H21+
214.122	12	C14H16NO+
214.1559	29	C12H22O3+
216.1382	21	C14H18NO+
218.1083	15	C17H14+
219.1154	32	C17H15+
220.1223	23	C17H16+
221.1299	71	C17H17+
222.1295	51	C16H16N+
223.1453	79	C17H19+
224.1458	30	C16H18N+
225.1625	56	C17H21+
226.163	23	C16H20N+
227.175	14	C17H23+
228.1742	14	C16H22N+
232.1206	12	C18H16+
233.1303	25	C18H17+
234.1305	19	C17H16N+
234.1383	26	C18H18+
235.1463	56	C18H19+
236.1422	67	C17H18N+
237.163	55	C18H21+
238.1596	39	C17H20N+
239.1634	16	C14H23O3+
239.1753	12	C18H23+
240.1707	14	C14H24O3+
241.1571	14	C17H21O+
243.1749	9	C17H23O+
243.1971	10	C17H25N+
244.2075	14	C17H26N+
247.1466	48	C19H19+
248.1431	29	C18H18N+
249.1619	59	C19H21+
250.1587	40	C18H20N+
251.1775	38	C19H23+
252.1739	24	C18H22N+
253.1827	10	C18H23N+
254.1522	12	C17H20NO+
255.1934	9	C15H27O3+
260.1997	62	C17H26NO+
261.1601	24	C20H21+
261.202	12	C16[13]CH26NO+
262.159	18	C19H20N+
263.1727	19	C19H21N+
264.173	139	C19H22N+
265.1605	14	C19H21O+
265.1793	34	C18[13]CH22N+
266.1649	10	C19H22O+
266.1916	16	C19H24N+
268.1676	10	C18H22NO+
268.2041	13	C16H28O3+
275.1789	13	C21H23+
276.1837	18	C21H24+
277.1917	14	C21H25+
278.1905	51	C20H24N+
279.1939	17	C17H27O3+
281.1753	13	C19H23NO+
282.1844	136	C19H24NO+
282.2216	15	C20H28N+
283.1903	32	C18[13]CH24NO+
284.2032	10	C19H26NO+
292.2055	47	C21H26N+
293.2116	30	C18H29O3+
294.2153	11	C18H30O3+
296.1957	13	C20H26NO+
310.2155	698	C21H28NO+
311.2198	174	C20[13]CH28NO+
312.2237	25	C19[13]C2H28NO+
324.1925	30	C21H26NO2+
326.2145	10	C21H28NO2+
328.2271	60	C21H30NO2+
329.2302	19	C20[13]CH30NO2+
370.2368	718	C23H32NO3+
371.2401	205	C22[13]CH32NO3+
372.2422	37	C21[13]C2H32NO3+
