Mass spectrum: Triethylcitrate; LC-ESI-QTOF; MS2; CE: 30 eV; R=35000; [M+H]+
Name: Triethylcitrate
Name: Triethyl citrate
Name: triethyl 2-hydroxypropane-1,2,3-tricarboxylate
Formula: C12H20O7
Exact mass: 276.1209030
SMILES: CCOC(=O)CC(O)(CC(=O)OCC)C(=O)OCC
InChI: InChI=1S/C12H20O7/c1-4-17-9(13)7-12(16,11(15)19-6-3)8-10(14)18-5-2/h16H,4-8H2,1-3H3
Instrument: Bruker maXis Impact
Instrument type: LC-ESI-QTOF
Ms type: MS2
Ion mode: POSITIVE
Ionization: ESI
Fragmentation mode: CID
Collision energy: 30 eV
Resolution: 35000
Column name: Acclaim RSLC C18 2.2um, 2.1x100mm, Thermo
Retention time: 6.958 min
Base peak: 277.1275
Precursor m/z: 277.1282
Precursor type: [M+H]+
m/z	relative intensity	assigned
115.0377	20	C5H7O3+
129.0174	137	C5H5O4+
130.0216	13	C4[13]CH5O4+
133.0506	12	C5H9O4+
139.0011	409	C6H3O4+
140.0049	33	C5[13]CH3O4+
152.1428	7	C7H20O3+
157.0113	61	C6H5O5+
157.0482	999	C7H9O4+
158.0518	87	C6[13]CH9O4+
159.0524	11	C7H9O3[18]O+
167.0316	26	C8H7O4+
185.0424	18	C8H9O5+
