Mass spectrum: Betamethasone-17-valerate; LC-ESI-QTOF; MS2; CE: 10 eV; R=35000; [M+H]+
Name: Betamethasone-17-valerate
Name: Betamethasone 17-valerate
Name: [9-fluoro-11-hydroxy-17-(2-hydroxyacetyl)-10,13,16-trimethyl-3-oxo-6,7,8,11,12,14,15,16-octahydrocyclopenta[a]phenanthren-17-yl] pentanoate
Formula: C27H37FO6
Exact mass: 476.2574171
SMILES: CCCCC(=O)OC1(C(C)CC2C3CCC4=CC(=O)C=CC4(C)C3(F)C(O)CC12C)C(=O)CO
InChI: InChI=1S/C27H37FO6/c1-5-6-7-23(33)34-27(22(32)15-29)16(2)12-20-19-9-8-17-13-18(30)10-11-24(17,3)26(19,28)21(31)14-25(20,27)4/h10-11,13,16,19-21,29,31H,5-9,12,14-15H2,1-4H3
Instrument: Bruker maXis Impact
Instrument type: LC-ESI-QTOF
Ms type: MS2
Ion mode: POSITIVE
Ionization: ESI
Fragmentation mode: CID
Collision energy: 10 eV
Resolution: 35000
Column name: Acclaim RSLC C18 2.2um, 2.1x100mm, Thermo
Retention time: 11.043 min
Base peak: 477.2638
Precursor m/z: 477.2647
Precursor type: [M+H]+
m/z	relative intensity	assigned
135.08	5	C9H11O+
147.0794	13	C10H11O+
153.0895	23	C9H13O2+
161.0943	6	C11H13O+
167.1051	12	C10H15O2+
171.0799	10	C12H11O+
173.0948	6	C12H13O+
177.0906	7	C11H13O2+
185.0943	23	C13H13O+
187.0744	14	C12H11O2+
203.1058	6	C13H15O2+
263.142	10	C19H19O+
275.1423	9	C20H19O+
277.1572	20	C20H21O+
278.1645	7	C19[13]CH21O+
279.1735	192	C20H23O+
280.1768	39	C19[13]CH23O+
281.1838	7	C18[13]C2H23O+
289.1586	7	C21H21O+
291.1731	22	C21H23O+
292.1777	8	C20[13]CH23O+
295.1689	26	C20H23O2+
297.1845	34	C20H25O2+
298.1876	7	C19[13]CH25O2+
299.1803	6	C20H24FO+
301.158	13	C22H21O+
307.1689	20	C21H23O2+
309.1833	43	C21H25O2+
310.1873	10	C20[13]CH25O2+
319.1682	82	C22H23O2+
320.1717	20	C21[13]CH23O2+
325.1777	34	C21H25O3+
326.1837	9	C20[13]CH25O3+
327.1945	18	C21H27O3+
337.1792	286	C22H25O3+
338.1824	68	C21[13]CH25O3+
339.183	12	C20[13]C2H25O3+
355.1904	991	C26H24F+
356.1933	225	C25[13]CH24F+
357.1909	59	C24[13]C2H24F+
358.1897	10	C25H26O2+
373.199	7	C22H29O5+
375.1971	8	C22H28FO4+
439.2479	9	C27H35O5+
457.2578	559	C27H37O6+
458.2616	181	C26[13]CH37O6+
459.2623	28	C25[13]C2H37O6+
477.2646	999	C27H38FO6+
478.2673	272	C26[13]CH38FO6+
479.2707	42	C25[13]C2H38FO6+
