Mass spectrum: Flunisolide; LC-ESI-QTOF; MS2; CE: 30 eV; R=35000; [M+H]+
Name: Flunisolide
Name: (1S,2S,4R,8S,9S,11S,12S,13R,19S)-19-fluoro-11-hydroxy-8-(2-hydroxyacetyl)-6,6,9,13-tetramethyl-5,7-dioxapentacyclo[10.8.0.02,9.04,8.013,18]icosa-14,17-dien-16-one
Formula: C24H31FO6
Exact mass: 434.2104669
SMILES: [H][C@@]12C[C@H]3OC(C)(C)O[C@@]3(C(=O)CO)[C@@]1(C)C[C@H](O)[C@@]1([H])[C@@]2([H])C[C@H](F)C2=CC(=O)C=C[C@]12C
InChI: InChI=1S/C24H31FO6/c1-21(2)30-19-9-14-13-8-16(25)15-7-12(27)5-6-22(15,3)20(13)17(28)10-23(14,4)24(19,31-21)18(29)11-26/h5-7,13-14,16-17,19-20,26,28H,8-11H2,1-4H3/t13-,14-,16-,17-,19+,20+,22-,23-,24+/m0/s1
Instrument: Bruker maXis Impact
Instrument type: LC-ESI-QTOF
Ms type: MS2
Ion mode: POSITIVE
Ionization: ESI
Fragmentation mode: CID
Collision energy: 30 eV
Resolution: 35000
Column name: Acclaim RSLC C18 2.2um, 2.1x100mm, Thermo
Retention time: 8.991 min
Base peak: 435.2174
Precursor m/z: 435.2177
Precursor type: [M+H]+
m/z	relative intensity	assigned
115.0394	13	C5H7O3+
115.0539	11	C9H7+
117.068	11	C9H9+
119.0853	25	C9H11+
121.0639	373	C8H9O+
122.067	35	C7[13]CH9O+
123.0423	9	C7H7O2+
123.0797	23	C8H11O+
125.0584	17	C7H9O2+
127.0391	8	C6H7O3+
127.0749	6	C7H11O2+
128.0606	14	C10H8+
129.0673	11	C10H9+
131.0491	7	C9H7O+
131.0847	50	C10H11+
132.0561	8	C9H8O+
132.0887	5	C9[13]CH11+
133.0635	54	C9H9O+
133.1002	16	C10H13+
135.0438	9	C8H7O2+
135.0795	151	C9H11O+
136.0829	13	C8[13]CH11O+
137.0591	56	C8H9O2+
137.0742	8	C9H10F+
138.0617	6	C7[13]CH9O2+
139.0378	5	C7H7O3+
139.0544	40	C11H7+
139.0742	28	C8H11O2+
141.053	24	C7H9O3+
141.0699	8	C11H9+
141.0893	5	C8H13O2+
142.0754	6	C11H10+
143.0842	36	C11H11+
144.0556	5	C10H8O+
145.0633	151	C10H9O+
145.1003	22	C11H13+
146.0673	25	C9[13]CH9O+
147.0794	382	C10H11O+
148.0824	51	C9[13]CH11O+
149.0583	36	C9H9O2+
149.0949	34	C10H13O+
151.0739	44	C9H11O2+
152.0775	6	C8[13]CH11O2+
153.0532	6	C8H9O3+
153.0685	9	C12H9+
153.09	9	C9H13O2+
155.0687	122	C8H11O3+
155.0826	25	C12H11+
156.0732	10	C7[13]CH11O3+
157.064	12	C11H9O+
157.1014	22	C12H13+
158.0707	13	C11H10O+
159.079	265	C11H11O+
160.0824	34	C10[13]CH11O+
161.0582	29	C10H9O2+
161.0952	95	C11H13O+
162.0986	12	C10[13]CH13O+
163.074	150	C10H11O2+
163.1106	9	C11H15O+
164.0766	22	C9[13]CH11O2+
165.0698	110	C13H9+
165.0888	23	C10H13O2+
166.074	10	C12[13]CH9+
167.07	13	C9H11O3+
167.0843	29	C13H11+
167.1049	5	C10H15O2+
168.0896	7	C13H12+
169.0644	24	C12H9O+
169.1007	12	C13H13+
170.0727	7	C12H10O+
171.0793	826	C12H11O+
172.0827	100	C11[13]CH11O+
173.0576	12	C11H9O2+
173.0946	168	C12H13O+
174.0976	23	C11[13]CH13O+
175.0748	33	C11H11O2+
175.1104	21	C12H15O+
176.0785	5	C10[13]CH11O2+
177.0893	32	C11H13O2+
178.0789	6	C11H11FO+
179.0689	24	C10H11O3+
179.0842	27	C14H11+
180.0924	12	C14H12+
181.0631	9	C13H9O+
181.0849	36	C10H13O3+
181.0995	18	C14H13+
182.0706	11	C13H10O+
182.1054	5	C14H14+
183.0799	70	C13H11O+
183.1162	6	C14H15+
184.0842	13	C12[13]CH11O+
185.0588	19	C12H9O2+
185.0951	162	C13H13O+
186.099	30	C12[13]CH13O+
187.0743	57	C12H11O2+
187.1109	26	C13H15O+
189.0705	21	C12H10FO+
189.0899	23	C12H13O2+
190.0762	8	C15H10+
191.0853	75	C15H11+
191.1063	11	C12H15O2+
192.0895	24	C15H12+
193.0852	41	C11H13O3+
193.0968	26	C15H13+
194.0716	8	C14H10O+
194.0887	6	C10[13]CH13O3+
194.1063	8	C15H14+
195.0793	63	C14H11O+
195.1159	53	C15H15+
196.0869	46	C14H12O+
196.1199	6	C14[13]CH15+
197.0951	514	C14H13O+
198.0985	81	C13[13]CH13O+
199.0735	20	C13H11O2+
199.1097	69	C14H15O+
200.079	6	C13H12O2+
200.1134	11	C13[13]CH15O+
201.0912	30	C13H13O2+
203.0684	9	C12H11O3+
203.0844	15	C16H11+
203.1048	15	C13H15O2+
204.0938	6	C16H12+
205.0651	6	C15H9O+
205.0994	46	C16H13+
206.1055	17	C16H14+
207.0796	16	C15H11O+
207.1157	56	C16H15+
208.0874	65	C15H12O+
208.1204	10	C15[13]CH15+
209.0948	267	C15H13O+
209.1331	15	C13H18FO+
210.1011	80	C15H14O+
211.0744	15	C14H11O2+
211.1107	272	C15H15O+
212.1149	47	C14[13]CH15O+
213.0898	79	C11H14FO3+
213.1268	357	C15H17O+
214.0962	9	C10[13]CH14FO3+
214.1294	63	C14[13]CH17O+
215.0889	7	C14H12FO+
215.1055	8	C14H15O2+
215.1421	38	C15H19O+
216.0932	9	C17H12+
217.1003	26	C17H13+
218.1084	8	C16[13]CH13+
219.0807	17	C16H11O+
219.1161	28	C17H15+
220.0864	13	C16H12O+
220.1224	6	C16[13]CH15+
221.095	155	C16H13O+
221.1321	23	C17H17+
222.1015	82	C16H14O+
222.1345	5	C16[13]CH17+
223.1109	999	C16H15O+
224.1174	414	C16H16O+
225.0905	53	C15H13O2+
225.1265	856	C16H17O+
226.0956	9	C14[13]CH13O2+
226.1295	171	C15[13]CH17O+
227.0687	7	C14H11O3+
227.089	7	C15H12FO+
227.1054	23	C15H15O2+
227.1414	49	C16H19O+
228.0928	5	C18H12+
228.1459	12	C15[13]CH19O+
229.099	22	C18H13+
229.1213	5	C15H17O2+
230.1101	12	C15H15FO+
231.0798	18	C17H11O+
231.1029	11	C11H16FO4+
231.1163	32	C18H15+
232.0877	20	C17H12O+
232.1218	13	C18H16+
233.0956	58	C17H13O+
233.132	45	C18H17+
234.1027	65	C17H14O+
234.1343	11	C17[13]CH17+
235.111	415	C17H15O+
235.1491	39	C18H19+
236.0789	5	C16H12O2+
236.1152	109	C16[13]CH15O+
236.1489	6	C17[13]CH19+
237.0897	77	C16H13O2+
237.1264	411	C17H17O+
238.0956	26	C16H14O2+
238.1301	96	C16[13]CH17O+
239.1066	42	C16H15O2+
239.1422	231	C17H19O+
240.1113	9	C15[13]CH15O2+
240.1456	44	C16[13]CH19O+
241.0905	11	C12H14FO4+
241.1219	33	C16H17O2+
241.1567	16	C17H21O+
242.1083	11	C19H14+
243.1158	41	C19H15+
244.1246	65	C19H16+
245.0952	49	C18H13O+
245.1322	80	C19H17+
246.103	119	C18H14O+
246.1368	17	C18[13]CH17+
247.1105	160	C18H15O+
247.1465	38	C19H19+
248.082	13	C17H12O2+
248.1179	112	C18H16O+
248.154	19	C19H20+
249.1261	381	C18H17O+
250.098	15	C17H14O2+
250.1309	128	C18H18O+
251.1057	101	C17H15O2+
251.1422	207	C18H19O+
252.1094	24	C16[13]CH15O2+
252.1459	53	C17[13]CH19O+
253.0822	5	C13H14FO4+
253.0926	6	C13H14FO4+
253.1213	49	C14H18FO3+
253.1573	66	C18H21O+
254.127	10	C13[13]CH18FO3+
254.1629	14	C17[13]CH21O+
255.0773	5	C19H11O+
255.1167	25	C17H16FO+
255.1346	19	C17H19O2+
256.1237	6	C16[13]CH16FO+
257.1318	69	C20H17+
258.1034	25	C19H14O+
258.1357	22	C19[13]CH17+
259.1115	87	C19H15O+
259.146	6	C20H19+
260.1186	172	C19H16O+
261.0917	28	C15H14FO3+
261.1267	504	C19H17O+
262.0996	21	C15H15FO3+
262.1332	236	C19H18O+
263.1063	51	C18H15O2+
263.1427	853	C19H19O+
264.1119	27	C18H16O2+
264.1465	189	C18[13]CH19O+
265.0861	11	C17H13O3+
265.1214	116	C18H17O2+
265.1582	215	C19H21O+
266.1259	25	C17[13]CH17O2+
266.1618	54	C18[13]CH21O+
267.105	10	C14H16FO4+
267.1191	20	C18H16FO+
267.1381	58	C18H19O2+
267.1643	7	C12H24FO5+
268.1425	11	C17[13]CH19O2+
269.1135	9	C17H17O3+
269.1341	15	C21H17+
269.1518	19	C18H21O2+
270.1019	18	C20H14O+
270.1316	5	C20[13]CH17+
271.1084	11	C20H15O+
271.1471	8	C21H19+
272.1187	12	C20H16O+
273.1266	131	C20H17O+
274.0975	8	C19H14O2+
274.1313	28	C19[13]CH17O+
275.1063	40	C19H15O2+
275.1427	603	C20H19O+
276.114	20	C19H16O2+
276.1455	149	C19[13]CH19O+
277.1214	109	C19H17O2+
277.1546	37	C20H21O+
278.1283	98	C19H18O2+
278.1619	9	C20H22O+
279.1009	29	C18H15O3+
279.1375	331	C19H19O2+
279.1751	30	C20H23O+
280.1079	9	C18H16O3+
280.1428	129	C19H20O2+
280.1766	6	C19[13]CH23O+
281.1522	284	C19H21O2+
282.1552	56	C18[13]CH21O2+
283.1482	178	C19H20FO+
284.1528	29	C18[13]CH20FO+
284.1722	5	C19H24O2+
285.1271	118	C21H17O+
286.1313	32	C20[13]CH17O+
287.1395	8	C21H19O+
288.1139	65	C17H17FO3+
289.1203	20	C16[13]CH17FO3+
290.128	13	C20H18O2+
291.1373	157	C20H19O2+
292.1077	5	C19H16O3+
292.1424	42	C19[13]CH19O2+
293.1165	24	C19H17O3+
293.1536	324	C20H21O2+
294.1208	6	C18[13]CH17O3+
294.1568	72	C19[13]CH21O2+
295.1337	36	C19H19O3+
296.1364	10	C18[13]CH19O3+
297.1126	10	C18H17O4+
297.147	25	C19H21O3+
298.1495	5	C18[13]CH21O3+
299.1451	11	C19H20FO2+
299.1591	6	C19H23O3+
300.1502	7	C22H20O+
301.1215	5	C21H17O2+
301.1593	74	C22H21O+
302.1627	24	C21[13]CH21O+
303.1377	387	C21H19O2+
304.1403	92	C20[13]CH19O2+
305.1413	17	C14H22FO6+
306.1247	16	C20H18O3+
307.127	6	C19[13]CH18O3+
308.1165	5	C23H16O+
309.1485	55	C20H21O3+
310.1526	19	C19[13]CH21O3+
311.1277	5	C19H19O4+
311.1634	104	C20H23O3+
312.1667	28	C19[13]CH23O3+
313.1585	29	C20H22FO2+
314.1637	8	C19[13]CH22FO2+
319.1295	5	C21H19O3+
321.1482	534	C21H21O3+
322.1517	122	C20[13]CH21O3+
323.1508	27	C21H20FO2+
324.1477	6	C20[13]CH20FO2+
327.1571	7	C20H23O4+
329.1722	6	C24H22F+
331.1701	20	C23H23O2+
332.1731	7	C22[13]CH23O2+
339.158	284	C21H23O4+
340.1612	82	C20[13]CH23O4+
341.1572	42	C21H22FO3+
342.16	11	C20[13]CH22FO3+
357.1723	6	C18H26FO6+
359.1667	10	C21H24FO4+
379.1914	7	C21H28FO5+
397.2006	30	C24H29O5+
398.2053	7	C23[13]CH29O5+
417.2071	38	C24H30FO5+
418.2108	15	C23[13]CH30FO5+
