Mass spectrum: Hydrocortisone; LC-ESI-QTOF; MS2; CE: 40 eV; R=35000; [M+H]+
Name: Hydrocortisone
Name: (8S,9S,10R,11S,13S,14S,17R)-11,17-dihydroxy-17-(2-hydroxyacetyl)-10,13-dimethyl-2,6,7,8,9,11,12,14,15,16-decahydro-1H-cyclopenta[a]phenanthren-3-one
Formula: C21H30O5
Exact mass: 362.2093241
SMILES: [H][C@@]12CC[C@](O)(C(=O)CO)[C@@]1(C)C[C@H](O)[C@@]1([H])[C@@]2([H])CCC2=CC(=O)CC[C@]12C
InChI: InChI=1S/C21H30O5/c1-19-7-5-13(23)9-12(19)3-4-14-15-6-8-21(26,17(25)11-22)20(15,2)10-16(24)18(14)19/h9,14-16,18,22,24,26H,3-8,10-11H2,1-2H3/t14-,15-,16-,18+,19-,20-,21-/m0/s1
Instrument: Bruker maXis Impact
Instrument type: LC-ESI-QTOF
Ms type: MS2
Ion mode: POSITIVE
Ionization: ESI
Fragmentation mode: CID
Collision energy: 40 eV
Resolution: 35000
Column name: Acclaim RSLC C18 2.2um, 2.1x100mm, Thermo
Retention time: 7.786 min
Base peak: 363.2156
Precursor m/z: 363.2166
Precursor type: [M+H]+
m/z	relative intensity	assigned
115.0533	74	C9H7+
117.0695	81	C9H9+
119.0846	248	C9H11+
121.0638	999	C8H9O+
121.1012	56	C9H13+
122.0674	102	C7[13]CH9O+
123.0793	415	C8H11O+
128.061	173	C10H8+
129.069	250	C10H9+
130.0773	63	C10H10+
131.0841	332	C10H11+
132.0874	39	C9[13]CH11+
133.0639	62	C9H9O+
133.0993	222	C10H13+
135.0794	181	C9H11O+
135.1152	116	C10H15+
136.0854	42	C9H12O+
137.0947	67	C9H13O+
141.0688	139	C11H9+
142.0757	137	C11H10+
143.0842	412	C11H11+
144.0916	91	C11H12+
145.0635	90	C10H9O+
145.0997	608	C11H13+
147.0792	205	C10H11O+
147.116	515	C11H15+
148.0867	30	C9[13]CH11O+
148.1185	90	C10[13]CH15+
149.0948	139	C10H13O+
149.1302	46	C11H17+
151.1109	33	C10H15O+
153.0682	50	C12H9+
154.0742	82	C12H10+
155.0841	225	C12H11+
156.0898	61	C12H12+
157.0646	35	C11H9O+
157.0996	416	C12H13+
158.0734	32	C11H10O+
158.1039	79	C11[13]CH13+
159.0798	204	C11H11O+
159.1149	447	C12H15+
160.0856	44	C11H12O+
160.1211	61	C11[13]CH15+
161.0938	253	C11H13O+
161.1318	91	C12H17+
163.1106	449	C11H15O+
164.1138	74	C10[13]CH15O+
165.0672	41	C13H9+
166.0772	46	C13H10+
167.0838	110	C13H11+
168.0901	41	C13H12+
169.099	360	C13H13+
170.1035	72	C12[13]CH13+
171.0793	161	C12H11O+
171.1151	264	C13H15+
172.0841	35	C12H12O+
172.1208	109	C13H16+
173.095	298	C12H13O+
173.1318	160	C13H17+
174.1007	83	C12H14O+
174.134	32	C12[13]CH17+
175.1102	168	C12H15O+
176.1156	52	C12H16O+
177.1267	69	C12H17O+
179.083	50	C14H11+
181.0997	128	C14H13+
182.1067	53	C14H14+
183.1153	254	C14H15+
184.119	67	C13[13]CH15+
185.0937	131	C13H13O+
185.1305	241	C14H17+
186.1363	55	C13[13]CH17+
187.1098	169	C13H15O+
187.1471	48	C14H19+
189.1263	115	C13H17O+
191.085	30	C15H11+
192.092	48	C15H12+
193.0994	84	C15H13+
194.1092	82	C15H14+
195.1152	165	C15H15+
196.1213	42	C14[13]CH15+
197.0951	68	C14H13O+
197.13	212	C15H17+
198.1021	31	C14H14O+
198.1353	32	C14[13]CH17+
199.1103	127	C14H15O+
199.1472	91	C15H19+
201.1272	77	C14H17O+
202.1307	32	C14H18O+
205.1206	58	C13H17O2+
207.1146	138	C16H15+
208.1219	81	C16H16+
209.0925	38	C15H13O+
209.1309	173	C16H17+
210.1382	65	C16H18+
211.1102	95	C15H15O+
211.1459	132	C16H19+
212.1509	47	C16H20+
213.1251	150	C15H17O+
213.16	52	C16H21+
214.1306	39	C15H18O+
215.1438	103	C15H19O+
217.1218	38	C14H17O2+
219.116	46	C17H15+
220.1231	30	C17H16+
221.1316	84	C17H17+
222.1385	61	C17H18+
223.1106	62	C16H15O+
223.1461	139	C17H19+
224.1173	42	C16H16O+
224.1548	31	C16[13]CH19+
225.128	150	C16H17O+
225.1634	113	C17H21+
226.1348	57	C16H18O+
226.1683	30	C16[13]CH21+
227.1421	67	C16H19O+
228.1454	61	C16H20O+
229.1565	40	C16H21O+
233.1295	36	C18H17+
235.1464	44	C18H19+
237.1261	42	C17H17O+
238.1346	35	C17H18O+
239.1394	124	C17H19O+
239.1768	30	C18H23+
240.1448	33	C16[13]CH19O+
241.1574	205	C17H21O+
242.1632	78	C17H22O+
243.1726	62	C17H23O+
248.1549	48	C19H20+
249.1629	83	C19H21+
251.1411	77	C18H19O+
251.1789	78	C19H23+
252.1484	41	C18H20O+
253.1567	150	C18H21O+
254.1657	61	C18H22O+
263.1434	33	C19H19O+
265.1571	40	C19H21O+
266.1666	31	C19H22O+
267.1748	159	C19H23O+
268.1807	153	C19H24O+
269.1517	47	C18H21O2+
269.1879	129	C19H25O+
270.1899	31	C18[13]CH25O+
271.1661	32	C18H23O2+
279.1736	33	C20H23O+
281.1864	69	C20H25O+
286.1921	32	C19H26O2+
287.1952	42	C19H27O2+
291.1754	32	C21H23O+
294.1566	32	C20H22O2+
297.1827	64	C20H25O2+
298.1858	31	C20H26O2+
309.1831	71	C21H25O2+
312.1721	33	C20H24O3+
327.194	48	C21H27O3+
