Mass spectrum: Daidzein; LC-ESI-QTOF; MS2; CE: 40 eV; R=35000; [M+H]+
Name: Daidzein
Name: 7-hydroxy-3-(4-hydroxyphenyl)chromen-4-one
Formula: C15H10O4
Exact mass: 254.0579088
SMILES: OC1=CC=C(C=C1)C1=COC2=C(C=CC(O)=C2)C1=O
InChI: InChI=1S/C15H10O4/c16-10-3-1-9(2-4-10)13-8-19-14-7-11(17)5-6-12(14)15(13)18/h1-8,16-17H
Instrument: Bruker maXis Impact
Instrument type: LC-ESI-QTOF
Ms type: MS2
Ion mode: POSITIVE
Ionization: ESI
Fragmentation mode: CID
Collision energy: 40 eV
Resolution: 35000
Column name: Acclaim RSLC C18 2.2um, 2.1x100mm, Thermo
Retention time: 6.881 min
Base peak: 255.0642
Precursor m/z: 255.0652
Precursor type: [M+H]+
m/z	relative intensity	assigned
115.0537	29	C9H7+
119.0477	48	C8H7O+
121.0291	60	C7H5O2+
127.0532	21	C10H7+
128.0613	345	C10H8+
129.0687	126	C10H9+
130.0746	21	C9[13]CH9+
131.0486	118	C9H7O+
133.028	50	C8H5O2+
134.034	51	C8H6O2+
137.0223	781	C7H5O3+
138.0259	62	C6[13]CH5O3+
141.068	90	C11H9+
143.0847	77	C11H11+
145.0263	123	C9H5O2+
145.0627	49	C10H9O+
147.0415	33	C9H7O2+
149.0211	47	C8H5O3+
151.0525	29	C12H7+
152.0604	660	C12H8+
153.0682	579	C12H9+
154.072	93	C11[13]CH9+
156.0555	31	C11H8O+
157.0631	137	C11H9O+
165.0681	51	C13H9+
168.0533	28	C12H8O+
169.0629	98	C12H9O+
171.0786	218	C12H11O+
172.0827	26	C11[13]CH11O+
181.0634	999	C13H9O+
182.0675	209	C12[13]CH9O+
184.0504	189	C12H8O2+
185.0565	43	C11[13]CH8O2+
187.0405	21	C11H7O3+
193.0461	25	C10H9O4+
197.0591	173	C13H9O2+
198.0656	188	C13H10O2+
199.074	906	C13H11O2+
200.0772	153	C12[13]CH11O2+
210.0689	51	C14H10O2+
211.0708	26	C14H11O2+
212.0476	34	C13H8O3+
226.0599	35	C14H10O3+
227.0694	390	C14H11O3+
228.0731	50	C13[13]CH11O3+
237.0544	217	C15H9O3+
238.0561	51	C14[13]CH9O3+
255.0646	301	C15H11O4+
256.0684	74	C14[13]CH11O4+
