Mass spectrum: Thiabendazole; LC-ESI-QTOF; MS2; CE: 20 eV; R=35000; [M+H]+
Name: Thiabendazole
Name: 4-(1H-benzimidazol-2-yl)-1,3-thiazole
Formula: C10H7N3S
Exact mass: 201.0360682
SMILES: N1C2=CC=CC=C2N=C1C1=CSC=N1
InChI: InChI=1S/C10H7N3S/c1-2-4-8-7(3-1)12-10(13-8)9-5-14-6-11-9/h1-6H,(H,12,13)
Instrument: Bruker maXis Impact
Instrument type: LC-ESI-QTOF
Ms type: MS2
Ion mode: POSITIVE
Ionization: ESI
Fragmentation mode: CID
Collision energy: 20 eV
Resolution: 35000
Column name: Acclaim RSLC C18 2.2um, 2.1x100mm, Thermo
Retention time: 6.088 min
Base peak: 202.043
Precursor m/z: 202.0433
Precursor type: [M+H]+
m/z	relative intensity	assigned
131.0596	11	C8H7N2+
175.0319	170	C9H7N2S+
176.0346	12	C8[13]CH7N2S+
202.0434	999	C10H8N3S+
203.0459	147	C9[13]CH8N3S+
204.039	41	C10H8N3[34]S+
