Mass spectrum: Budesonide; LC-ESI-QTOF; MS2; CE: 30 eV; R=35000; [M+H]+
Name: Budesonide
Name: (1S,2S,4R,6R,8S,9S,11S,12S,13R)-11-hydroxy-8-(2-hydroxyacetyl)-9,13-dimethyl-6-propyl-5,7-dioxapentacyclo[10.8.0.02,9.04,8.013,18]icosa-14,17-dien-16-one
Formula: C25H34O6
Exact mass: 430.2355388
SMILES: [H][C@@]12C[C@@]3([H])[C@]4([H])CCC5=CC(=O)C=C[C@]5(C)[C@@]4([H])[C@@H](O)C[C@]3(C)[C@@]1(O[C@H](CCC)O2)C(=O)CO
InChI: InChI=1S/C25H34O6/c1-4-5-21-30-20-11-17-16-7-6-14-10-15(27)8-9-23(14,2)22(16)18(28)12-24(17,3)25(20,31-21)19(29)13-26/h8-10,16-18,20-22,26,28H,4-7,11-13H2,1-3H3/t16-,17-,18-,20+,21+,22+,23-,24-,25+/m0/s1
Instrument: Bruker maXis Impact
Instrument type: LC-ESI-QTOF
Ms type: MS2
Ion mode: POSITIVE
Ionization: ESI
Fragmentation mode: CID
Collision energy: 30 eV
Resolution: 35000
Column name: Acclaim RSLC C18 2.2um, 2.1x100mm, Thermo
Retention time: 10.313 min
Base peak: 431.2426
Precursor m/z: 431.2428
Precursor type: [M+H]+
m/z	relative intensity	assigned
115.0542	6	C9H7+
117.0695	10	C9H9+
119.0849	44	C9H11+
120.088	7	C8[13]CH11+
121.0641	163	C8H9O+
122.0675	12	C7[13]CH9O+
123.0803	12	C8H11O+
125.0595	9	C7H9O2+
128.0621	9	C10H8+
129.0686	13	C10H9+
131.048	6	C9H7O+
131.0845	26	C10H11+
132.0558	18	C9H8O+
133.0634	28	C9H9O+
133.1005	16	C10H13+
135.0793	147	C9H11O+
136.0831	14	C8[13]CH11O+
137.0585	53	C8H9O2+
137.0945	5	C9H13O+
139.0745	34	C8H11O2+
141.0536	5	C7H9O3+
143.0846	27	C11H11+
144.0884	5	C10[13]CH11+
145.0639	44	C10H9O+
145.1002	27	C11H13+
147.0795	999	C10H11O+
148.0827	91	C9[13]CH11O+
149.0587	23	C9H9O2+
149.0948	21	C10H13O+
151.0741	25	C9H11O2+
153.09	7	C9H13O2+
155.0691	49	C8H11O3+
155.084	13	C12H11+
157.0638	8	C11H9O+
157.1001	29	C12H13+
158.0716	32	C11H10O+
159.0792	151	C11H11O+
159.1156	10	C12H15+
160.0837	20	C10[13]CH11O+
161.0949	120	C11H13O+
162.0989	13	C10[13]CH13O+
163.0745	83	C10H11O2+
164.077	9	C9[13]CH11O2+
165.0904	16	C10H13O2+
167.0685	11	C9H11O3+
167.083	5	C13H11+
169.0858	6	C9H13O3+
169.1002	10	C13H13+
171.0795	454	C12H11O+
172.0828	59	C11[13]CH11O+
173.0952	837	C12H13O+
174.0981	95	C11[13]CH13O+
175.074	9	C11H11O2+
175.1103	26	C12H15O+
177.0898	19	C11H13O2+
179.0843	6	C14H11+
179.1065	7	C11H15O2+
181.0854	22	C10H13O3+
181.098	8	C14H13+
183.0793	21	C13H11O+
184.0867	5	C13H12O+
185.0951	130	C13H13O+
186.0991	21	C12[13]CH13O+
187.0745	21	C12H11O2+
187.111	77	C13H15O+
188.1133	11	C12[13]CH15O+
189.0897	18	C12H13O2+
191.1052	7	C12H15O2+
193.1002	10	C15H13+
195.0793	20	C14H11O+
195.1166	7	C15H15+
196.0853	9	C14H12O+
197.0952	93	C14H13O+
197.1317	5	C15H17+
198.1004	27	C14H14O+
199.074	8	C13H11O2+
199.1108	95	C14H15O+
200.1149	14	C13[13]CH15O+
201.0903	26	C13H13O2+
201.126	9	C14H17O+
203.1058	11	C13H15O2+
205.1	6	C16H13+
205.1213	6	C13H17O2+
207.1164	21	C16H15+
208.0875	12	C15H12O+
208.1201	6	C15[13]CH15+
209.0953	68	C15H13O+
209.1318	9	C16H17+
210.1021	35	C15H14O+
211.0734	8	C14H11O2+
211.1108	109	C15H15O+
212.1158	24	C14[13]CH15O+
213.0912	22	C14H13O2+
213.1269	73	C15H17O+
214.0948	5	C13[13]CH13O2+
214.1305	13	C14[13]CH17O+
215.1059	18	C14H15O2+
215.1424	8	C15H19O+
219.1016	6	C13H15O3+
219.1147	8	C17H15+
221.0953	57	C16H13O+
221.1307	10	C17H17+
222.1018	31	C16H14O+
223.1107	141	C16H15O+
224.1169	43	C16H16O+
225.1268	500	C16H17O+
226.1339	362	C16H18O+
227.1068	20	C15H15O2+
227.1417	314	C16H19O+
228.1451	50	C15[13]CH19O+
229.0839	6	C14H13O3+
229.1206	5	C15H17O2+
229.1527	5	C14[13]C2H19O+
231.1163	5	C18H15+
233.0949	9	C17H13O+
233.1311	6	C18H17+
234.1033	12	C17H14O+
235.1109	88	C17H15O+
235.1467	9	C18H19+
236.1166	26	C16[13]CH15O+
237.1267	211	C17H17O+
238.1304	42	C16[13]CH17O+
239.1051	21	C16H15O2+
239.1422	186	C17H19O+
240.1457	38	C16[13]CH19O+
241.1204	8	C16H17O2+
241.1578	75	C17H21O+
242.1613	14	C16[13]CH21O+
243.1375	12	C16H19O2+
244.1226	5	C19H16+
245.096	8	C18H13O+
245.1297	7	C19H17+
246.1032	11	C18H14O+
247.1106	28	C18H15O+
247.1471	9	C19H19+
248.1179	39	C18H16O+
249.0928	6	C17H13O2+
249.1266	106	C18H17O+
249.1625	8	C19H21+
250.1319	28	C17[13]CH17O+
251.1064	10	C17H15O2+
251.142	108	C18H19O+
252.146	28	C17[13]CH19O+
253.1199	21	C17H17O2+
253.1577	49	C18H21O+
254.1246	5	C16[13]CH17O2+
254.162	12	C17[13]CH21O+
255.1367	26	C17H19O2+
255.1732	6	C18H23O+
256.1414	5	C16[13]CH19O2+
258.1004	7	C19H14O+
259.1108	12	C19H15O+
259.1482	16	C20H19+
260.1181	14	C19H16O+
261.1264	64	C19H17O+
262.1337	57	C19H18O+
263.1059	21	C18H15O2+
263.1422	239	C19H19O+
264.111	9	C18H16O2+
264.1486	91	C19H20O+
265.121	21	C18H17O2+
265.1586	331	C19H21O+
266.1621	76	C18[13]CH21O+
267.0996	8	C17H15O3+
267.1373	36	C18H19O2+
267.1729	46	C19H23O+
268.1408	7	C17[13]CH19O2+
268.1766	9	C18[13]CH23O+
269.1501	11	C18H21O2+
272.1195	23	C20H16O+
273.1242	7	C19[13]CH16O+
274.1323	13	C20H18O+
275.1422	59	C20H19O+
276.1136	7	C19H16O2+
276.1468	15	C19[13]CH19O+
277.1213	23	C19H17O2+
277.1581	269	C20H21O+
278.1244	8	C19H18O2+
278.1613	71	C19[13]CH21O+
279.1368	54	C19H19O2+
279.1717	23	C20H23O+
280.1433	20	C19H20O2+
280.18	6	C20H24O+
281.1172	5	C18H17O3+
281.1526	91	C19H21O2+
281.1908	7	C20H25O+
282.157	23	C18[13]CH21O2+
283.168	86	C19H23O2+
284.171	18	C18[13]CH23O2+
287.1424	90	C21H19O+
288.1453	22	C20[13]CH19O+
289.1571	26	C21H21O+
290.1297	13	C20H18O2+
290.1614	8	C20[13]CH21O+
291.1357	6	C20H19O2+
292.1428	11	C20H20O2+
293.1531	56	C20H21O2+
293.1889	9	C21H25O+
294.1563	19	C19[13]CH21O2+
295.1336	8	C19H19O3+
295.1686	138	C20H23O2+
296.1719	37	C19[13]CH23O2+
297.1484	11	C19H21O3+
297.1799	5	C20H25O2+
299.1627	7	C19H23O3+
303.1384	5	C21H19O2+
305.1531	203	C21H21O2+
306.1573	41	C20[13]CH21O2+
307.1681	33	C21H23O2+
308.1723	7	C20[13]CH23O2+
311.1655	10	C20H23O3+
313.1793	18	C20H25O3+
314.1814	7	C20H26O3+
321.1468	5	C21H21O3+
323.1639	260	C21H23O3+
324.1669	60	C20[13]CH23O3+
325.1779	25	C21H25O3+
326.1838	5	C20[13]CH25O3+
341.1738	47	C21H25O4+
342.1776	12	C20[13]CH25O4+
377.2161	5	C25H29O3+
413.2319	208	C25H33O5+
414.235	67	C24[13]CH33O5+
415.2382	8	C23[13]C2H33O5+
