Mass spectrum: 3-Iodopropynyl butylcarbamate; LC-ESI-QTOF; MS2; CE: 10 eV; R=35000; [M+H]+
Name: 3-Iodopropynyl butylcarbamate
Name: 3-Iodo-2-propynyl butylcarbamate
Name: 3-iodoprop-2-ynyl N-butylcarbamate
Formula: C8H12INO2
Exact mass: 280.9912766
SMILES: CCCCNC(=O)OCC#CI
InChI: InChI=1S/C8H12INO2/c1-2-3-6-10-8(11)12-7-4-5-9/h2-3,6-7H2,1H3,(H,10,11)
Instrument: Bruker maXis Impact
Instrument type: LC-ESI-QTOF
Ms type: MS2
Ion mode: POSITIVE
Ionization: ESI
Fragmentation mode: CID
Collision energy: 10 eV
Resolution: 35000
Column name: Acclaim RSLC C18 2.2um, 2.1x100mm, Thermo
Retention time: 8.047 min
Base peak: 281.9978
Precursor m/z: 281.9986
Precursor type: [M+H]+
m/z	relative intensity	assigned
155.0934	26	C8H13NO2+
164.9182	999	C3H2I+
165.9213	30	C2[13]CH2I+
181.9453	8	C3H5IN+
182.9288	17	C3H4IO+
195.9582	8	C4H7IN+
220.9311	5	C5H4INO+
238.0087	22	C7H13IN+
281.9979	392	C8H13INO2+
282.9996	38	C7[13]CH13INO2+
