Mass spectrum: 6a_Methylprednisolone; LC-ESI-QTOF; MS2; CE: 20 eV; R=35000; [M+H]+
Name: 6a_Methylprednisolone
Name: Methylprednisolone
Name: (6S,8S,9S,10R,11S,13S,14S,17R)-11,17-dihydroxy-17-(2-hydroxyacetyl)-6,10,13-trimethyl-7,8,9,11,12,14,15,16-octahydro-6H-cyclopenta[a]phenanthren-3-one
Formula: C22H30O5
Exact mass: 374.2093241
SMILES: [H][C@@]12CC[C@](O)(C(=O)CO)[C@@]1(C)C[C@H](O)[C@@]1([H])[C@@]2([H])C[C@H](C)C2=CC(=O)C=C[C@]12C
InChI: InChI=1S/C22H30O5/c1-12-8-14-15-5-7-22(27,18(26)11-23)21(15,3)10-17(25)19(14)20(2)6-4-13(24)9-16(12)20/h4,6,9,12,14-15,17,19,23,25,27H,5,7-8,10-11H2,1-3H3/t12-,14-,15-,17-,19+,20-,21-,22-/m0/s1
Instrument: Bruker maXis Impact
Instrument type: LC-ESI-QTOF
Ms type: MS2
Ion mode: POSITIVE
Ionization: ESI
Fragmentation mode: CID
Collision energy: 20 eV
Resolution: 35000
Column name: Acclaim RSLC C18 2.2um, 2.1x100mm, Thermo
Retention time: 8.699 min
Base peak: 375.2161
Precursor m/z: 375.2166
Precursor type: [M+H]+
m/z	relative intensity	assigned
119.0857	12	C9H11+
121.0639	70	C8H9O+
121.103	9	C9H13+
123.0787	9	C8H11O+
125.06	17	C7H9O2+
129.0712	10	C10H9+
131.0832	36	C10H11+
133.0636	11	C9H9O+
133.1006	26	C10H13+
135.0795	405	C9H11O+
136.0831	54	C8[13]CH11O+
137.0587	11	C8H9O2+
137.0962	14	C9H13O+
139.0742	18	C8H11O2+
143.0856	14	C11H11+
145.0637	19	C10H9O+
145.101	30	C11H13+
147.0794	110	C10H11O+
147.1152	26	C11H15+
149.0953	104	C10H13O+
150.0976	9	C9[13]CH13O+
151.0737	15	C9H11O2+
153.0895	12	C9H13O2+
155.0707	21	C8H11O3+
157.0841	11	C8H13O3+
157.1015	12	C12H13+
159.0792	114	C11H11O+
159.1139	15	C12H15+
160.0823	10	C10[13]CH11O+
161.095	985	C11H13O+
162.0988	98	C10[13]CH13O+
163.111	24	C11H15O+
165.0901	110	C10H13O2+
166.0933	12	C9[13]CH13O2+
167.1061	20	C10H15O2+
169.0989	22	C13H13+
171.0801	19	C12H11O+
171.1162	25	C13H15+
173.0954	106	C12H13O+
173.1323	21	C13H17+
174.098	17	C11[13]CH13O+
175.0755	13	C11H11O2+
175.1103	85	C12H15O+
176.1147	11	C11[13]CH15O+
177.09	69	C11H13O2+
177.1252	9	C12H17O+
179.1058	20	C11H15O2+
183.1002	41	C10H15O3+
185.0949	471	C13H13O+
186.0992	72	C12[13]CH13O+
187.1109	393	C13H15O+
188.1136	67	C12[13]CH15O+
189.0892	73	C12H13O2+
189.1269	18	C13H17O+
190.0948	15	C11[13]CH13O2+
191.1064	25	C12H15O2+
191.1448	10	C13H19O+
193.1196	14	C12H17O2+
195.117	9	C15H15+
197.0963	34	C14H13O+
199.1114	70	C14H15O+
200.1169	9	C13[13]CH15O+
201.0903	16	C13H13O2+
201.1267	57	C14H17O+
202.1328	11	C13[13]CH17O+
203.1043	11	C13H15O2+
203.1412	15	C14H19O+
205.1207	16	C13H17O2+
209.0955	17	C15H13O+
210.1004	9	C15H14O+
211.111	206	C15H15O+
212.1151	27	C14[13]CH15O+
213.0921	9	C14H13O2+
213.1269	120	C15H17O+
214.1298	27	C14[13]CH17O+
215.1041	14	C14H15O2+
215.1437	23	C15H19O+
219.1384	10	C14H19O2+
223.1108	41	C16H15O+
223.1337	11	C13H19O3+
224.1144	14	C16H16O+
225.1259	103	C16H17O+
226.1302	25	C15[13]CH17O+
227.1057	17	C15H15O2+
227.1413	52	C16H19O+
228.1473	14	C15[13]CH19O+
229.1215	18	C15H17O2+
231.1378	124	C15H19O2+
232.1396	19	C14[13]CH19O2+
235.1111	50	C17H15O+
235.1473	9	C18H19+
236.117	14	C16[13]CH15O+
237.1266	168	C17H17O+
238.1288	43	C16[13]CH17O+
239.1068	10	C16H15O2+
239.1413	109	C17H19O+
240.1478	27	C16[13]CH19O+
241.1201	9	C16H17O2+
241.1571	39	C17H21O+
242.164	9	C16[13]CH21O+
243.1361	12	C16H19O2+
248.1147	9	C18H16O+
249.1272	70	C18H17O+
250.1305	17	C17[13]CH17O+
251.1418	261	C18H19O+
252.1459	64	C17[13]CH19O+
253.1582	735	C18H21O+
254.1623	140	C17[13]CH21O+
255.1344	14	C17H19O2+
255.1735	87	C18H23O+
256.1763	18	C17[13]CH23O+
257.1808	9	C14H25O4+
261.1267	57	C19H17O+
262.132	31	C19H18O+
263.1413	86	C19H19O+
263.1797	13	C20H23+
264.1492	24	C18[13]CH19O+
265.1268	14	C18H17O2+
265.1574	87	C19H21O+
266.1631	18	C18[13]CH21O+
267.1371	93	C18H19O2+
267.1736	9	C19H23O+
268.1449	15	C17[13]CH19O2+
269.1535	38	C18H21O2+
270.158	9	C17[13]CH21O2+
274.1335	23	C20H18O+
275.143	30	C20H19O+
275.1784	12	C21H23+
277.1591	149	C20H21O+
278.1645	53	C19[13]CH21O+
279.1376	127	C19H19O2+
279.1737	368	C20H23O+
280.1437	23	C18[13]CH19O2+
280.1805	276	C20H24O+
281.1533	16	C19H21O2+
281.1879	222	C20H25O+
282.192	54	C19[13]CH25O+
285.1491	16	C18H21O3+
288.1506	29	C21H20O+
289.1563	11	C21H21O+
290.1677	11	C21H22O+
291.1728	97	C21H23O+
292.1768	28	C20[13]CH23O+
293.1526	61	C20H21O2+
293.1903	234	C21H25O+
294.1571	14	C19[13]CH21O2+
294.193	53	C20[13]CH25O+
295.1694	42	C20H23O2+
296.1767	10	C19[13]CH23O2+
297.148	133	C19H21O3+
297.1829	71	C20H25O2+
298.155	27	C18[13]CH21O3+
298.1861	16	C19[13]CH25O2+
299.2011	33	C20H27O2+
303.1736	338	C22H23O+
304.1769	77	C21[13]CH23O+
305.18	10	C20[13]C2H23O+
306.1635	10	C21H22O2+
308.1757	11	C21H24O2+
309.1842	131	C21H25O2+
310.1863	35	C20[13]CH25O2+
311.1641	17	C20H23O3+
311.2016	55	C21H27O2+
312.203	12	C20[13]CH27O2+
313.174	10	C20H25O3+
315.1613	58	C19H23O4+
316.1617	20	C19H24O4+
321.185	538	C22H25O2+
322.1878	142	C21[13]CH25O2+
323.1919	18	C20[13]C2H25O2+
327.1962	39	C21H27O3+
339.1958	572	C22H27O3+
340.1983	134	C21[13]CH27O3+
341.2026	22	C20[13]C2H27O3+
357.2064	999	C22H29O4+
358.2099	251	C21[13]CH29O4+
359.2126	37	C20[13]C2H29O4+
375.2178	23	C22H31O5+
