Mass spectrum: Benzophenone-4; LC-ESI-QTOF; MS2; CE: 10 eV; R=35000; [M+H]+
Name: Benzophenone-4
Name: Sulisobenzone
Name: 5-benzoyl-4-hydroxy-2-methoxybenzenesulfonic acid
Formula: C14H12O6S
Exact mass: 308.0354591
SMILES: COC1=CC(O)=C(C=C1S(O)(=O)=O)C(=O)C1=CC=CC=C1
InChI: InChI=1S/C14H12O6S/c1-20-12-8-11(15)10(7-13(12)21(17,18)19)14(16)9-5-3-2-4-6-9/h2-8,15H,1H3,(H,17,18,19)
Instrument: Bruker maXis Impact
Instrument type: LC-ESI-QTOF
Ms type: MS2
Ion mode: POSITIVE
Ionization: ESI
Fragmentation mode: CID
Collision energy: 10 eV
Resolution: 35000
Column name: Acclaim RSLC C18 2.2um, 2.1x100mm, Thermo
Retention time: 6.190 min
Base peak: 325.227
Precursor m/z: 309.0427
Precursor type: [M+H]+
m/z	relative intensity	assigned
230.9938	93	C11H3O6+
309.0418	999	C14H13O6S+
310.0446	191	C13[13]CH13O6S+
