Mass spectrum: 4-Androstene-3,17-dione; LC-ESI-QTOF; MS2; CE: 50 eV; R=35000; [M+H]+
Name: 4-Androstene-3,17-dione
Name: Androstenedione
Name: (8R,9S,10R,13S,14S)-10,13-dimethyl-2,6,7,8,9,11,12,14,15,16-decahydro-1H-cyclopenta[a]phenanthrene-3,17-dione
Formula: C19H26O2
Exact mass: 286.1932801
SMILES: C[C@]12CC[C@H]3[C@@H](CCC4=CC(=O)CC[C@]34C)[C@@H]1CCC2=O
InChI: InChI=1S/C19H26O2/c1-18-9-7-13(20)11-12(18)3-4-14-15-5-6-17(21)19(15,2)10-8-16(14)18/h11,14-16H,3-10H2,1-2H3/t14-,15-,16-,18-,19-/m0/s1
Instrument: Bruker maXis Impact
Instrument type: LC-ESI-QTOF
Ms type: MS2
Ion mode: POSITIVE
Ionization: ESI
Fragmentation mode: CID
Collision energy: 50 eV
Resolution: 35000
Column name: Acclaim RSLC C18 2.2um, 2.1x100mm, Thermo
Retention time: 9.387 min
Base peak: 299.2005
Precursor m/z: 287.2006
Precursor type: [M+H]+
m/z	relative intensity	assigned
115.0531	252	C9H7+
116.0596	121	C9H8+
117.0695	336	C9H9+
119.0842	462	C9H11+
121.0652	79	C8H9O+
123.0795	999	C8H11O+
124.0833	120	C7[13]CH11O+
128.0613	828	C10H8+
129.0694	645	C10H9+
130.0757	387	C10H10+
131.0842	675	C10H11+
132.0873	112	C9[13]CH11+
133.0997	301	C10H13+
135.08	83	C9H11O+
141.0685	365	C11H9+
142.0766	400	C11H10+
143.0842	721	C11H11+
144.0922	299	C11H12+
145.0638	133	C10H9O+
145.1001	575	C11H13+
146.1053	89	C10[13]CH13+
147.1161	115	C11H15+
149.0952	105	C10H13O+
152.0614	78	C12H8+
153.069	230	C12H9+
154.0753	192	C12H10+
155.0842	420	C12H11+
156.0911	249	C12H12+
157.0996	359	C12H13+
159.1161	349	C12H15+
165.068	219	C13H9+
166.0763	119	C13H10+
167.0844	278	C13H11+
168.0907	145	C13H12+
169.1006	335	C13H13+
170.107	124	C13H14+
171.1161	167	C13H15+
173.1323	172	C13H17+
179.0872	98	C14H11+
180.0912	127	C14H12+
181.0986	291	C14H13+
183.1166	171	C14H15+
185.1317	174	C14H17+
194.1088	105	C15H14+
196.1229	110	C15H16+
199.1473	114	C15H19+
214.1341	85	C15H18O+
