Mass spectrum: Androsterone; LC-ESI-QTOF; MS2; CE: 50 eV; R=35000; [M+H]+
Name: Androsterone
Name: (3R,5S,8R,9S,10S,13S,14S)-3-hydroxy-10,13-dimethyl-1,2,3,4,5,6,7,8,9,11,12,14,15,16-tetradecahydrocyclopenta[a]phenanthren-17-one
Formula: C19H30O2
Exact mass: 290.2245802
SMILES: C[C@]12CC[C@H]3[C@@H](CC[C@H]4C[C@H](O)CC[C@]34C)[C@@H]1CCC2=O
InChI: InChI=1S/C19H30O2/c1-18-9-7-13(20)11-12(18)3-4-14-15-5-6-17(21)19(15,2)10-8-16(14)18/h12-16,20H,3-11H2,1-2H3/t12-,13+,14-,15-,16-,18-,19-/m0/s1
Instrument: Bruker maXis Impact
Instrument type: LC-ESI-QTOF
Ms type: MS2
Ion mode: POSITIVE
Ionization: ESI
Fragmentation mode: CID
Collision energy: 50 eV
Resolution: 35000
Column name: Acclaim RSLC C18 2.2um, 2.1x100mm, Thermo
Retention time: 10.742 min
Base peak: 345.2424
Precursor m/z: 291.2319
Precursor type: [M+H]+
m/z	relative intensity	assigned
117.0697	511	C9H9+
119.0853	815	C9H11+
128.0607	620	C10H8+
129.0692	528	C10H9+
131.0848	782	C10H11+
133.0994	840	C10H13+
137.0595	362	C8H9O2+
141.0673	462	C11H9+
142.0763	428	C11H10+
143.0851	932	C11H11+
145.0995	990	C11H13+
146.0719	428	C10H10O+
159.1155	378	C12H15+
161.0939	999	C11H13O+
171.1168	345	C13H15+
173.1324	320	C13H17+
