Mass spectrum: Trenbolone; LC-ESI-QTOF; MS2; CE: 30 eV; R=35000; [M+H]+
Name: Trenbolone
Name: Trenbolone:17-Hydroxyestra-4,9,11-trien-3-one
Name: (13S,17S)-17-hydroxy-13-methyl-2,6,7,8,14,15,16,17-octahydro-1H-cyclopenta[a]phenanthren-3-one
Formula: C18H22O2
Exact mass: 270.1619799
SMILES: C[C@]12C=CC3=C4CCC(=O)C=C4CCC3C1CC[C@@H]2O
InChI: InChI=1S/C18H22O2/c1-18-9-8-14-13-5-3-12(19)10-11(13)2-4-15(14)16(18)6-7-17(18)20/h8-10,15-17,20H,2-7H2,1H3/t15?,16?,17-,18-/m0/s1
Instrument: Bruker maXis Impact
Instrument type: LC-ESI-QTOF
Ms type: MS2
Ion mode: POSITIVE
Ionization: ESI
Fragmentation mode: CID
Collision energy: 30 eV
Resolution: 35000
Column name: Acclaim RSLC C18 2.2um, 2.1x100mm, Thermo
Retention time: 8.958 min
Base peak: 271.1692
Precursor m/z: 271.1693
Precursor type: [M+H]+
m/z	relative intensity	assigned
115.0536	8	C9H7+
117.0691	10	C9H9+
119.0848	12	C9H11+
121.0639	16	C8H9O+
128.061	22	C10H8+
129.0689	38	C10H9+
130.0746	6	C9[13]CH9+
131.0481	13	C9H7O+
131.0845	39	C10H11+
133.0637	79	C9H9O+
133.1006	18	C10H13+
134.067	9	C8[13]CH9O+
135.0794	26	C9H11O+
141.0688	45	C11H9+
142.0759	13	C11H10+
143.0844	58	C11H11+
144.056	12	C10H8O+
144.0884	7	C10[13]CH11+
145.0637	33	C10H9O+
145.1004	64	C11H13+
146.0698	5	C9[13]CH9O+
146.1046	11	C10[13]CH13+
147.0792	41	C10H11O+
148.0868	23	C10H12O+
149.0942	10	C10H13O+
152.0609	7	C12H8+
153.0691	14	C12H9+
154.0767	12	C12H10+
155.0844	53	C12H11+
156.0896	12	C12H12+
157.0636	81	C11H9O+
157.0998	30	C12H13+
159.0794	130	C11H11O+
159.1157	15	C12H15+
160.0828	16	C10[13]CH11O+
161.0949	27	C11H13O+
162.1002	5	C10[13]CH13O+
165.0686	28	C13H9+
166.0763	28	C13H10+
167.0837	47	C13H11+
168.0905	14	C13H12+
169.1	66	C13H13+
170.0706	5	C12H10O+
170.1049	13	C12[13]CH13+
171.0792	40	C12H11O+
171.1156	40	C13H15+
172.0851	9	C12H12O+
172.119	8	C12[13]CH15+
173.0947	32	C12H13O+
174.101	5	C11[13]CH13O+
175.1097	7	C12H15O+
178.0767	21	C14H10+
179.0843	60	C14H11+
180.0904	22	C14H12+
181.0627	5	C13H9O+
181.1001	55	C14H13+
182.1057	15	C14H14+
183.0796	39	C13H11O+
183.116	70	C14H15+
184.087	37	C13H12O+
184.1194	7	C13[13]CH15+
185.0948	76	C13H13O+
185.1312	9	C14H17+
186.1024	35	C13H14O+
187.1106	53	C13H15O+
188.1161	11	C12[13]CH15O+
189.1267	17	C13H17O+
191.0847	6	C15H11+
192.0917	11	C15H12+
193.1005	50	C15H13+
194.1063	16	C15H14+
195.0796	6	C14H11O+
195.1161	62	C15H15+
196.0872	14	C14H12O+
196.1217	15	C14[13]CH15+
197.095	119	C14H13O+
197.1313	26	C15H17+
198.1025	95	C14H14O+
198.1367	5	C14[13]CH17+
199.1111	636	C14H15O+
200.1165	129	C13[13]CH15O+
201.1236	17	C14H17O+
205.0998	16	C16H13+
206.1077	13	C16H14+
207.1159	39	C16H15+
208.1197	8	C15[13]CH15+
209.0946	9	C15H13O+
209.132	44	C16H17+
210.1029	19	C15H14O+
210.1354	11	C15[13]CH17+
211.1105	98	C15H15O+
211.1472	37	C16H19+
212.1177	70	C15H16O+
212.1506	7	C15[13]CH19+
213.1258	40	C15H17O+
214.1346	153	C15H18O+
215.1397	39	C14[13]CH18O+
219.1162	5	C17H15+
220.1239	33	C17H16+
221.1287	7	C16[13]CH16+
223.1112	9	C16H15O+
223.1472	12	C17H19+
224.1183	46	C16H16O+
224.1535	5	C17H20+
225.1267	108	C16H17O+
225.1628	15	C17H21+
226.1305	16	C15[13]CH17O+
227.1426	228	C16H19O+
228.1471	57	C15[13]CH19O+
229.1545	10	C16H21O+
233.1317	7	C18H17+
235.1477	72	C18H19+
236.1513	14	C17[13]CH19+
237.1268	8	C17H17O+
238.1344	81	C17H18O+
239.1384	17	C16[13]CH18O+
242.1293	12	C16H18O2+
243.135	7	C16H19O2+
243.174	9	C17H23O+
251.1428	7	C18H19O+
253.1584	622	C18H21O+
254.1618	102	C17[13]CH21O+
255.1637	8	C16[13]C2H21O+
271.1691	999	C18H23O2+
272.1721	160	C17[13]CH23O2+
273.1748	14	C16[13]C2H23O2+
