Mass spectrum: 11-Ketotestosterone; LC-ESI-QTOF; MS2; CE: 20 eV; R=35000; [M+H]+
Name: 11-Ketotestosterone
Name: (8S,9S,10R,13S,14S,17S)-17-hydroxy-10,13-dimethyl-2,6,7,8,9,12,14,15,16,17-decahydro-1H-cyclopenta[a]phenanthrene-3,11-dione
Formula: C19H26O3
Exact mass: 302.1881947
SMILES: C[C@]12CC(=O)[C@H]3[C@@H](CCC4=CC(=O)CC[C@]34C)[C@@H]1CC[C@@H]2O
InChI: InChI=1S/C19H26O3/c1-18-8-7-12(20)9-11(18)3-4-13-14-5-6-16(22)19(14,2)10-15(21)17(13)18/h9,13-14,16-17,22H,3-8,10H2,1-2H3/t13-,14-,16-,17+,18-,19-/m0/s1
Instrument: Bruker maXis Impact
Instrument type: LC-ESI-QTOF
Ms type: MS2
Ion mode: POSITIVE
Ionization: ESI
Fragmentation mode: CID
Collision energy: 20 eV
Resolution: 35000
Column name: Acclaim RSLC C18 2.2um, 2.1x100mm, Thermo
Retention time: 7.896 min
Base peak: 303.1955
Precursor m/z: 303.1955
Precursor type: [M+H]+
m/z	relative intensity	assigned
121.064	51	C8H9O+
131.0846	11	C10H11+
133.1	11	C10H13+
135.0791	6	C9H11O+
137.0948	5	C9H13O+
145.0997	10	C11H13+
147.0792	23	C10H11O+
147.1159	6	C11H15+
149.0952	6	C10H13O+
151.1108	6	C10H15O+
159.079	6	C11H11O+
159.1156	11	C12H15+
161.095	8	C11H13O+
163.1107	7	C11H15O+
167.1048	5	C10H15O2+
171.0789	8	C12H11O+
171.1148	6	C13H15+
173.0948	17	C12H13O+
177.1269	5	C12H17O+
187.1108	5	C13H15O+
189.126	7	C13H17O+
201.1261	7	C14H17O+
211.1101	5	C15H15O+
213.1264	12	C15H17O+
223.1469	8	C17H19+
225.1262	5	C16H17O+
225.1627	9	C17H21+
227.1421	22	C16H19O+
239.1419	5	C17H19O+
239.1781	7	C18H23+
241.1577	31	C17H21O+
242.1615	6	C16[13]CH21O+
243.1731	17	C17H23O+
245.1527	11	C16H21O2+
249.1624	10	C19H21+
257.1886	11	C18H25O+
259.1686	68	C17H23O2+
260.1714	12	C16[13]CH23O2+
267.1735	75	C19H23O+
268.1771	16	C18[13]CH23O+
285.1846	55	C19H25O2+
286.188	14	C18[13]CH25O2+
303.1953	999	C19H27O3+
304.1984	199	C18[13]CH27O3+
305.2013	21	C17[13]C2H27O3+
