Mass spectrum: Mometasone fuorate; LC-ESI-QTOF; MS2; CE: 10 eV; R=35000; [M+H]+
Name: Mometasone fuorate
Name: Mometasone furoate
Name: [(8S,9R,10S,11S,13S,14S,16R,17R)-9-chloro-17-(2-chloroacetyl)-11-hydroxy-10,13,16-trimethyl-3-oxo-6,7,8,11,12,14,15,16-octahydrocyclopenta[a]phenanthren-17-yl] furan-2-carboxylate
Formula: C27H30Cl2O6
Exact mass: 520.1419440
SMILES: C[C@@H]1C[C@H]2[C@@H]3CCC4=CC(=O)C=C[C@]4(C)[C@@]3(Cl)[C@@H](O)C[C@]2(C)[C@@]1(OC(=O)C1=CC=CO1)C(=O)CCl
InChI: InChI=1S/C27H30Cl2O6/c1-15-11-19-18-7-6-16-12-17(30)8-9-24(16,2)26(18,29)21(31)13-25(19,3)27(15,22(32)14-28)35-23(33)20-5-4-10-34-20/h4-5,8-10,12,15,18-19,21,31H,6-7,11,13-14H2,1-3H3/t15-,18+,19+,21+,24+,25+,26+,27+/m1/s1
Instrument: Bruker maXis Impact
Instrument type: LC-ESI-QTOF
Ms type: MS2
Ion mode: POSITIVE
Ionization: ESI
Fragmentation mode: CID
Collision energy: 10 eV
Resolution: 35000
Column name: Acclaim RSLC C18 2.2um, 2.1x100mm, Thermo
Retention time: 10.641 min
Base peak: 467.1992
Precursor m/z: 521.1492
Precursor type: [M+H]+
m/z	relative intensity	assigned
133.0409	6	C6H10ClO+
135.0796	16	C9H11O+
147.0792	41	C4H16ClO3+
171.0783	17	C6H16ClO3+
173.0942	13	C6H18ClO3+
185.0946	12	C7H18ClO3+
187.0497	6	C3H17Cl2O4+
187.073	16	C6H16ClO4+
237.1267	9	C17H17O+
263.1418	69	C19H19O+
264.1469	10	C18[13]CH19O+
275.144	12	C20H19O+
277.1572	31	C20H21O+
278.1669	10	C19[13]CH21O+
279.1739	216	C20H23O+
280.1775	40	C19[13]CH23O+
281.1535	38	C19H21O2+
282.1569	7	C18[13]CH21O2+
291.1759	11	C21H23O+
297.1865	14	C20H25O2+
299.1181	8	C13H25Cl2O3+
301.1595	16	C22H21O+
309.1842	10	C21H25O2+
315.1429	5	C22H19O2+
319.1691	68	C22H23O2+
320.173	14	C21[13]CH23O2+
327.1501	17	C21H24ClO+
337.1342	37	C22H22ClO+
337.1778	12	C16H30ClO5+
338.1384	11	C21[13]CH22ClO+
339.1314	6	C22H22[37]ClO+
345.1627	22	C15H31Cl2O4+
347.1569	5	C15H31Cl[37]ClO4+
355.1453	360	C22H24ClO2+
356.1484	70	C21[13]CH24ClO2+
357.1429	81	C22H24[37]ClO2+
358.1447	11	C19H28Cl2O2+
373.1551	250	C22H26ClO3+
374.1584	59	C21[13]CH26ClO3+
375.1537	66	C22H26[37]ClO3+
376.1555	11	C19H30Cl2O3+
391.1227	112	C22H25Cl2O2+
391.1882	14	C25H27O4+
392.1263	26	C21[13]CH25Cl2O2+
393.1186	68	C22H25Cl[37]ClO2+
394.1211	9	C26H18O4+
403.1935	5	C26H27O4+
409.13	23	C22H27Cl2O3+
410.1469	6	C21[13]CH27Cl2O3+
411.1306	14	C22H27Cl[37]ClO3+
427.1667	8	C25H28ClO4+
467.1617	23	C27H28ClO5+
468.1658	9	C26[13]CH28ClO5+
469.1533	5	C27H28[37]ClO5+
485.1732	177	C27H30ClO6+
486.1763	53	C26[13]CH30ClO6+
487.1708	50	C27H30[37]ClO6+
503.1384	999	C27H29Cl2O5+
504.1415	288	C26[13]CH29Cl2O5+
505.1352	602	C27H29Cl[37]ClO5+
507.1348	19	C26H29Cl2O6+
521.1483	838	C27H31Cl2O6+
522.1515	297	C26[13]CH31Cl2O6+
523.1464	565	C27H31Cl[37]ClO6+
