Mass spectrum: Terbutryn; LC-ESI-QTOF; MS2; CE: 40 eV; R=35000; [M+H]+
Name: Terbutryn
Name: 2-N-tert-butyl-4-N-ethyl-6-methylsulfanyl-1,3,5-triazine-2,4-diamine
Formula: C10H19N5S
Exact mass: 241.1361166
SMILES: CCNC1=NC(NC(C)(C)C)=NC(SC)=N1
InChI: InChI=1S/C10H19N5S/c1-6-11-7-12-8(15-10(2,3)4)14-9(13-7)16-5/h6H2,1-5H3,(H2,11,12,13,14,15)
Instrument: Bruker maXis Impact
Instrument type: LC-ESI-QTOF
Ms type: MS2
Ion mode: POSITIVE
Ionization: ESI
Fragmentation mode: CID
Collision energy: 40 eV
Resolution: 35000
Column name: Acclaim RSLC C18 2.2um, 2.1x100mm, Thermo
Retention time: 10.293 min
Base peak: 242.1433
Precursor m/z: 242.1434
Precursor type: [M+H]+
m/z	relative intensity	assigned
113.0819	6	C4H9N4+
116.0269	103	C3H6N3S+
118.0225	5	C3H6N3[34]S+
138.0762	344	C5H8N5+
139.0787	17	C4[13]CH8N5+
140.0909	8	C5H10N5+
143.0248	10	C3H5N5S+
144.0578	251	C5H10N3S+
145.0601	17	C4[13]CH10N3S+
146.0541	9	C5H10N3[34]S+
158.0481	275	C4H8N5S+
159.0503	16	C3[13]CH8N5S+
160.0439	14	C4H8N5[34]S+
169.0538	8	C6H9N4S+
170.0483	6	C5H8N5S+
171.0559	12	C5H9N5S+
184.0647	10	C6H10N5S+
186.0797	999	C6H12N5S+
187.0813	69	C5[13]CH12N5S+
188.0753	37	C6H12N5[34]S+
