Mass spectrum: Androsterone; LC-ESI-QTOF; MS2; CE: Ramp 21.3-31.9 eV; R=35000; [M+H]+
Name: Androsterone
Name: (3R,5S,8R,9S,10S,13S,14S)-3-hydroxy-10,13-dimethyl-1,2,3,4,5,6,7,8,9,11,12,14,15,16-tetradecahydrocyclopenta[a]phenanthren-17-one
Formula: C19H30O2
Exact mass: 290.2245802
SMILES: C[C@]12CC[C@H]3[C@@H](CC[C@H]4C[C@H](O)CC[C@]34C)[C@@H]1CCC2=O
InChI: InChI=1S/C19H30O2/c1-18-9-7-13(20)11-12(18)3-4-14-15-5-6-17(21)19(15,2)10-8-16(14)18/h12-16,20H,3-11H2,1-2H3/t12-,13+,14-,15-,16-,18-,19-/m0/s1
Instrument: Bruker maXis Impact
Instrument type: LC-ESI-QTOF
Ms type: MS2
Ion mode: POSITIVE
Ionization: ESI
Fragmentation mode: CID
Collision energy: Ramp 21.3-31.9 eV
Resolution: 35000
Column name: Acclaim RSLC C18 2.2um, 2.1x100mm, Thermo
Retention time: 10.754 min
Base peak: 345.2424
Precursor m/z: 291.2319
Precursor type: [M+H]+
m/z	relative intensity	assigned
57.0693	143	C4H9+
119.0853	146	C9H11+
121.1002	92	C9H13+
131.0846	140	C10H11+
133.1001	179	C10H13+
135.1161	169	C10H15+
143.0841	105	C11H11+
145.0992	351	C11H13+
147.1159	365	C11H15+
159.1148	647	C12H15+
161.0945	986	C11H13O+
161.1303	299	C12H17+
171.1157	106	C13H15+
173.1318	261	C13H17+
175.11	170	C12H15O+
175.146	95	C13H19+
177.1245	114	C12H17O+
179.1075	244	C11H15O2+
185.1298	284	C14H17+
189.1616	96	C14H21+
199.1459	327	C15H19+
200.1522	85	C14[13]CH19+
201.1637	271	C15H21+
203.1059	604	C13H15O2+
203.1802	96	C15H23+
213.1636	155	C16H21+
215.1779	451	C16H23+
229.1911	108	C17H25+
255.2097	999	C19H27+
256.2116	233	C18[13]CH27+
271.1683	94	C18H23O2+
273.2221	303	C19H29O+
291.2317	334	C19H31O2+
292.233	92	C18[13]CH31O2+
