Mass spectrum: Fluorometholone; LC-ESI-QTOF; MS2; CE: 40 eV; R=35000; [M+H]+
Name: Fluorometholone
Name: (6S,8S,9R,10S,11S,13S,14S,17R)-17-acetyl-9-fluoro-11,17-dihydroxy-6,10,13-trimethyl-6,7,8,11,12,14,15,16-octahydrocyclopenta[a]phenanthren-3-one
Formula: C22H29FO4
Exact mass: 376.2049876
SMILES: [H][C@@]12CC[C@](O)(C(C)=O)[C@@]1(C)C[C@H](O)[C@@]1(F)[C@@]2([H])C[C@H](C)C2=CC(=O)C=C[C@]12C
InChI: InChI=1S/C22H29FO4/c1-12-9-17-15-6-8-21(27,13(2)24)20(15,4)11-18(26)22(17,23)19(3)7-5-14(25)10-16(12)19/h5,7,10,12,15,17-18,26-27H,6,8-9,11H2,1-4H3/t12-,15-,17-,18-,19-,20-,21-,22-/m0/s1
Instrument: Bruker maXis Impact
Instrument type: LC-ESI-QTOF
Ms type: MS2
Ion mode: POSITIVE
Ionization: ESI
Fragmentation mode: CID
Collision energy: 40 eV
Resolution: 35000
Column name: Acclaim RSLC C18 2.2um, 2.1x100mm, Thermo
Retention time: 8.940 min
Base peak: 435.2169
Precursor m/z: 377.2123
Precursor type: [M+H]+
m/z	relative intensity	assigned
115.0544	72	C9H7+
117.069	68	C9H9+
119.0848	81	C9H11+
121.0635	293	C8H9O+
122.0668	37	C7[13]CH9O+
123.0788	51	C8H11O+
125.0578	31	C7H9O2+
128.0623	47	C10H8+
129.0689	51	C10H9+
131.0492	27	C9H7O+
131.0846	99	C10H11+
133.0636	63	C9H9O+
133.1006	130	C10H13+
135.079	847	C9H11O+
136.0835	101	C8[13]CH11O+
137.0946	42	C9H13O+
139.0731	30	C8H11O2+
141.0689	39	C11H9+
142.0763	57	C11H10+
143.0838	121	C11H11+
144.0561	25	C10H8O+
144.0902	35	C11H12+
145.0641	158	C10H9O+
145.0993	194	C11H13+
146.0705	105	C10H10O+
147.0796	242	C10H11O+
147.114	43	C11H15+
148.0827	43	C9[13]CH11O+
149.0957	85	C10H13O+
151.1084	26	C10H15O+
153.0674	28	C12H9+
155.0845	58	C12H11+
156.0907	36	C12H12+
157.0998	109	C12H13+
158.0717	71	C11H10O+
159.0789	319	C11H11O+
159.1153	56	C12H15+
160.0822	50	C10[13]CH11O+
161.0943	999	C11H13O+
162.0986	174	C10[13]CH13O+
163.0916	24	C11H12F+
163.1098	46	C11H15O+
165.0672	27	C13H9+
165.0896	40	C10H13O2+
166.0751	43	C13H10+
167.0852	39	C13H11+
169.1002	32	C13H13+
171.0773	83	C12H11O+
171.1157	62	C13H15+
172.0868	45	C12H12O+
173.094	250	C12H13O+
174.0988	27	C11[13]CH13O+
175.1098	147	C12H15O+
176.1138	25	C11[13]CH15O+
177.0869	24	C11H13O2+
179.0843	47	C14H11+
180.0901	27	C14H12+
181.0992	54	C14H13+
182.0704	27	C13H10O+
183.0795	78	C13H11O+
184.0861	33	C13H12O+
185.0947	389	C13H13O+
186.0979	64	C12[13]CH13O+
187.11	143	C10H16FO2+
188.1181	23	C9[13]CH16FO2+
189.1273	93	C13H17O+
191.085	35	C15H11+
192.0944	31	C12H13FO+
193.0989	68	C15H13+
194.1057	39	C15H14+
195.0786	131	C14H11O+
195.1135	72	C15H15+
196.0856	72	C14H12O+
197.095	80	C14H13O+
197.1291	23	C15H17+
198.1021	47	C14H14O+
199.1115	121	C14H15O+
200.1175	30	C13[13]CH15O+
201.0901	49	C13H13O2+
201.1271	23	C14H17O+
203.0826	32	C16H11+
204.0911	40	C16H12+
205.0968	38	C16H13+
206.1045	26	C16H14+
207.1172	36	C16H15+
208.0864	68	C15H12O+
209.0938	293	C15H13O+
209.1325	66	C16H17+
210.1027	166	C15H14O+
211.1104	157	C15H15O+
212.1152	55	C15H16O+
213.0923	22	C11H14FO3+
213.1261	82	C15H17O+
214.1303	37	C15H18O+
217.0993	25	C17H13+
218.1067	46	C17H14+
219.1138	61	C17H15+
220.1211	27	C17H16+
221.0945	88	C16H13O+
222.1022	274	C16H14O+
223.1101	287	C16H15O+
224.1163	149	C16H16O+
225.1253	164	C16H17O+
226.13	38	C15[13]CH17O+
227.1045	60	C15H15O2+
227.1409	47	C16H19O+
228.1093	27	C15H16O2+
229.1205	45	C15H17O2+
233.0918	21	C17H13O+
233.1321	42	C18H17+
234.1001	43	C17H14O+
234.1367	21	C18H18+
235.1108	123	C17H15O+
235.1461	25	C18H19+
236.1176	282	C17H16O+
237.1256	404	C17H17O+
238.1313	138	C17H18O+
239.1393	101	C17H19O+
245.0933	29	C18H13O+
245.1318	22	C19H17+
246.1013	35	C18H14O+
246.1376	35	C19H18+
247.1132	43	C15H16FO2+
247.1448	51	C19H19+
248.1165	91	C18H16O+
249.126	231	C18H17O+
250.1316	83	C18H18O+
251.1427	331	C18H19O+
252.1452	97	C17[13]CH19O+
253.1228	22	C17H17O2+
253.1578	72	C18H21O+
257.1324	30	C20H17+
259.1108	97	C19H15O+
260.114	30	C18[13]CH15O+
261.1255	45	C19H17O+
261.1615	27	C20H21+
262.1335	60	C19H18O+
263.1431	229	C19H19O+
264.1473	116	C19H20O+
265.1587	53	C19H21O+
270.1426	27	C18H19FO+
273.1252	93	C20H17O+
274.1314	68	C20H18O+
275.1414	26	C20H19O+
277.1216	22	C19H17O2+
277.157	75	C20H21O+
278.1657	121	C20H22O+
279.1733	662	C20H23O+
280.1769	143	C19[13]CH23O+
281.1517	34	C19H21O2+
288.1511	74	C21H20O+
292.1417	22	C20H20O2+
293.1906	28	C18H26FO2+
295.1658	23	C20H23O2+
303.1726	55	C22H23O+
304.1771	29	C22H24O+
306.1591	30	C21H22O2+
321.1822	35	C22H25O2+
