Mass spectrum: Desonide; LC-ESI-QTOF; MS2; CE: 50 eV; R=35000; [M+H]+
Name: Desonide
Name: (1S,2S,4R,8S,9S,11S,12S,13R)-11-hydroxy-8-(2-hydroxyacetyl)-6,6,9,13-tetramethyl-5,7-dioxapentacyclo[10.8.0.02,9.04,8.013,18]icosa-14,17-dien-16-one
Formula: C24H32O6
Exact mass: 416.2198887
SMILES: CC1(C)O[C@@H]2C[C@H]3[C@@H]4CCC5=CC(=O)C=C[C@]5(C)[C@H]4[C@@H](O)C[C@]3(C)[C@@]2(O1)C(=O)CO
InChI: InChI=1S/C24H32O6/c1-21(2)29-19-10-16-15-6-5-13-9-14(26)7-8-22(13,3)20(15)17(27)11-23(16,4)24(19,30-21)18(28)12-25/h7-9,15-17,19-20,25,27H,5-6,10-12H2,1-4H3/t15-,16-,17-,19+,20+,22-,23-,24+/m0/s1
Instrument: Bruker maXis Impact
Instrument type: LC-ESI-QTOF
Ms type: MS2
Ion mode: POSITIVE
Ionization: ESI
Fragmentation mode: CID
Collision energy: 50 eV
Resolution: 35000
Column name: Acclaim RSLC C18 2.2um, 2.1x100mm, Thermo
Retention time: 9.026 min
Base peak: 417.2273
Precursor m/z: 417.2272
Precursor type: [M+H]+
m/z	relative intensity	assigned
115.0536	45	C9H7+
116.0602	11	C9H8+
117.0692	29	C9H9+
119.0848	88	C9H11+
120.0879	10	C8[13]CH11+
121.0641	262	C8H9O+
122.0673	24	C7[13]CH9O+
123.0789	10	C8H11O+
125.0591	5	C7H9O2+
127.0528	7	C10H7+
128.0612	79	C10H8+
129.0686	66	C10H9+
130.0756	25	C10H10+
131.0483	32	C9H7O+
131.0845	50	C10H11+
132.0559	79	C9H8O+
133.0628	29	C9H9O+
133.1007	20	C10H13+
135.0794	127	C9H11O+
136.0827	11	C8[13]CH11O+
137.0584	29	C8H9O2+
139.0742	16	C8H11O2+
141.0689	43	C11H9+
142.0762	28	C11H10+
143.0842	71	C11H11+
144.056	28	C10H8O+
144.0895	11	C10[13]CH11+
145.0636	141	C10H9O+
145.1001	71	C11H13+
146.0707	42	C10H10O+
146.1033	9	C10[13]CH13+
147.0795	999	C10H11O+
148.0826	108	C9[13]CH11O+
149.0587	12	C9H9O2+
149.0945	14	C10H13O+
151.0733	9	C9H11O2+
152.0612	14	C12H8+
153.0688	26	C12H9+
154.0754	16	C12H10+
155.0841	71	C12H11+
156.0896	18	C12H12+
157.0638	28	C11H9O+
157.1	37	C12H13+
158.0716	192	C11H10O+
159.0791	221	C11H11O+
160.0833	35	C10[13]CH11O+
161.095	114	C11H13O+
162.0989	16	C10[13]CH13O+
163.0743	26	C10H11O2+
165.0691	36	C13H9+
166.0754	22	C13H10+
167.0841	35	C13H11+
168.0892	11	C13H12+
169.0635	24	C12H9O+
169.0997	29	C13H13+
170.0711	28	C12H10O+
170.105	5	C12[13]CH13+
171.0794	480	C12H11O+
172.0834	70	C11[13]CH11O+
173.095	444	C12H13O+
174.0987	57	C11[13]CH13O+
175.0745	6	C11H11O2+
175.11	13	C12H15O+
177.0911	6	C11H13O2+
178.0765	42	C14H10+
179.0842	63	C14H11+
180.0909	24	C14H12+
181.0636	43	C13H9O+
181.0993	36	C14H13+
182.0712	30	C13H10O+
182.1059	13	C14H14+
183.0789	54	C13H11O+
183.1148	18	C14H15+
184.0865	34	C13H12O+
185.0948	118	C13H13O+
186.1002	22	C12[13]CH13O+
187.0744	10	C12H11O2+
187.1101	32	C13H15O+
189.0685	10	C15H9+
190.0761	13	C15H10+
191.0844	47	C15H11+
192.0922	115	C15H12+
193.0993	86	C15H13+
194.0711	29	C14H10O+
194.106	20	C14[13]CH13+
195.0794	116	C14H11O+
195.1151	27	C15H15+
196.0863	111	C14H12O+
197.0945	170	C14H13O+
197.1316	21	C15H17+
198.101	65	C14H14O+
199.0737	6	C13H11O2+
199.1102	64	C14H15O+
200.1135	11	C13[13]CH15O+
201.0894	7	C13H13O2+
202.0775	10	C16H10+
202.0969	7	C13H14O2+
203.0848	20	C16H11+
204.0924	17	C16H12+
205.0997	36	C16H13+
206.0716	7	C15H10O+
206.1068	20	C16H14+
207.0803	19	C15H11O+
207.1158	131	C16H15+
208.0871	84	C15H12O+
208.1197	27	C15[13]CH15+
209.0947	165	C15H13O+
209.1318	21	C16H17+
210.1025	206	C15H14O+
211.1108	465	C15H15O+
212.1147	95	C14[13]CH15O+
213.0914	6	C14H13O2+
213.1263	31	C15H17O+
214.1296	6	C14[13]CH17O+
215.0851	13	C17H11+
215.1055	10	C14H15O2+
216.0928	15	C17H12+
217.1004	18	C17H13+
218.0713	6	C16H10O+
218.1086	10	C17H14+
219.0792	25	C16H11O+
219.1162	27	C17H15+
220.0871	29	C16H12O+
220.1224	9	C17H16+
221.0951	94	C16H13O+
221.1316	12	C17H17+
222.1023	118	C16H14O+
223.1101	139	C16H15O+
224.0832	5	C15H12O2+
224.1175	56	C16H16O+
225.1262	236	C16H17O+
226.1336	167	C16H18O+
227.1398	55	C16H19O+
228.1453	10	C15[13]CH19O+
229.0997	17	C18H13+
230.1069	15	C18H14+
231.0797	13	C17H11O+
231.116	18	C18H15+
232.0869	20	C17H12O+
232.1214	8	C18H16+
233.0956	50	C17H13O+
233.1306	11	C18H17+
234.1029	58	C17H14O+
234.1363	6	C18H18+
235.1106	111	C17H15O+
235.1471	6	C18H19+
236.1174	63	C17H16O+
237.0916	6	C16H13O2+
237.1262	111	C17H17O+
238.1317	30	C16[13]CH17O+
239.1056	10	C16H15O2+
239.1424	43	C17H19O+
240.1456	10	C16[13]CH19O+
241.1573	13	C17H21O+
242.1073	5	C19H14+
243.1153	12	C19H15+
244.1232	10	C19H16+
245.0956	20	C18H13O+
245.1296	14	C19H17+
246.1023	30	C18H14O+
247.1101	56	C18H15O+
247.1479	9	C19H19+
248.1184	75	C18H16O+
249.089	9	C17H13O2+
249.1259	91	C18H17O+
250.0963	7	C17H14O2+
250.133	47	C18H18O+
251.1058	7	C17H15O2+
251.1405	30	C18H19O+
252.1485	8	C17[13]CH19O+
253.1221	9	C17H17O2+
253.1585	8	C18H21O+
257.0945	14	C19H13O+
258.1022	9	C19H14O+
259.1107	14	C19H15O+
259.1465	6	C20H19+
260.1175	16	C19H16O+
261.0905	5	C18H13O2+
261.1257	32	C19H17O+
262.0979	6	C18H14O2+
262.1347	57	C19H18O+
263.1067	12	C18H15O2+
263.1417	44	C19H19O+
264.1151	7	C18H16O2+
264.1498	41	C19H20O+
265.1227	7	C18H17O2+
265.1574	79	C19H21O+
266.1616	16	C18[13]CH21O+
267.1377	13	C18H19O2+
271.1119	7	C20H15O+
272.1186	22	C20H16O+
273.1253	8	C20H17O+
274.1349	5	C20H18O+
275.1072	8	C19H15O2+
275.1422	10	C20H19O+
276.1105	5	C19H16O2+
277.1215	11	C19H17O2+
277.1576	23	C20H21O+
278.1298	7	C19H18O2+
278.1606	6	C19[13]CH21O+
279.1373	8	C19H19O2+
280.1432	5	C19H20O2+
281.1524	7	C19H21O2+
282.1597	5	C19H22O2+
287.1435	11	C21H19O+
289.1175	5	C20H17O2+
290.1272	9	C20H18O2+
295.169	6	C20H23O2+
305.1535	6	C21H21O2+
