Mass spectrum: Desonide; LC-ESI-QTOF; MS2; CE: 30 eV; R=35000; [M+H]+
Name: Desonide
Name: (1S,2S,4R,8S,9S,11S,12S,13R)-11-hydroxy-8-(2-hydroxyacetyl)-6,6,9,13-tetramethyl-5,7-dioxapentacyclo[10.8.0.02,9.04,8.013,18]icosa-14,17-dien-16-one
Formula: C24H32O6
Exact mass: 416.2198887
SMILES: CC1(C)O[C@@H]2C[C@H]3[C@@H]4CCC5=CC(=O)C=C[C@]5(C)[C@H]4[C@@H](O)C[C@]3(C)[C@@]2(O1)C(=O)CO
InChI: InChI=1S/C24H32O6/c1-21(2)29-19-10-16-15-6-5-13-9-14(26)7-8-22(13,3)20(15)17(27)11-23(16,4)24(19,30-21)18(28)12-25/h7-9,15-17,19-20,25,27H,5-6,10-12H2,1-4H3/t15-,16-,17-,19+,20+,22-,23-,24+/m0/s1
Instrument: Bruker maXis Impact
Instrument type: LC-ESI-QTOF
Ms type: MS2
Ion mode: POSITIVE
Ionization: ESI
Fragmentation mode: CID
Collision energy: 30 eV
Resolution: 35000
Column name: Acclaim RSLC C18 2.2um, 2.1x100mm, Thermo
Retention time: 9.059 min
Base peak: 417.2271
Precursor m/z: 417.2272
Precursor type: [M+H]+
m/z	relative intensity	assigned
115.0541	8	C9H7+
117.0694	10	C9H9+
119.0849	36	C9H11+
121.064	152	C8H9O+
122.0675	18	C7[13]CH9O+
123.0438	6	C7H7O2+
123.0797	10	C8H11O+
125.0587	7	C7H9O2+
128.0618	9	C10H8+
129.0692	11	C10H9+
131.0472	7	C9H7O+
131.0845	26	C10H11+
132.0566	12	C9H8O+
133.0636	30	C9H9O+
133.1004	10	C10H13+
134.0669	5	C8[13]CH9O+
135.0793	158	C9H11O+
136.083	18	C8[13]CH11O+
137.0587	60	C8H9O2+
137.095	6	C9H13O+
138.0618	6	C7[13]CH9O2+
139.0745	31	C8H11O2+
141.0542	18	C7H9O3+
141.0683	5	C11H9+
143.0843	20	C11H11+
145.0639	45	C10H9O+
145.0999	23	C11H13+
147.0795	999	C10H11O+
148.0827	88	C9[13]CH11O+
149.0584	19	C9H9O2+
149.0949	22	C10H13O+
151.0738	25	C9H11O2+
153.0898	9	C9H13O2+
155.0689	52	C8H11O3+
155.0844	18	C12H11+
156.0728	6	C7[13]CH11O3+
157.0999	34	C12H13+
158.0711	22	C11H10O+
159.0797	128	C11H11O+
160.0836	19	C10[13]CH11O+
161.0949	135	C11H13O+
162.0989	14	C10[13]CH13O+
163.0742	88	C10H11O2+
164.0779	9	C9[13]CH11O2+
165.0886	7	C10H13O2+
167.0687	12	C9H11O3+
167.0838	5	C13H11+
169.1002	15	C13H13+
171.0793	367	C12H11O+
172.0832	56	C11[13]CH11O+
173.095	724	C12H13O+
174.0982	94	C11[13]CH13O+
175.0742	8	C11H11O2+
175.1107	26	C12H15O+
177.0903	17	C11H13O2+
179.0853	6	C14H11+
179.1044	7	C11H15O2+
181.0844	29	C10H13O3+
183.0797	20	C13H11O+
183.1158	5	C14H15+
184.0855	6	C13H12O+
185.095	123	C13H13O+
186.0995	20	C12[13]CH13O+
187.074	19	C12H11O2+
187.1108	81	C13H15O+
188.1146	11	C12[13]CH15O+
189.0898	21	C12H13O2+
192.0922	8	C15H12+
193.0999	10	C15H13+
195.0791	24	C14H11O+
195.099	6	C11H15O3+
195.1153	6	C15H15+
196.0872	13	C14H12O+
197.0951	105	C14H13O+
197.1309	11	C15H17+
198.1	21	C13[13]CH13O+
199.0737	7	C13H11O2+
199.1107	83	C14H15O+
200.1142	13	C13[13]CH15O+
201.09	25	C13H13O2+
201.1266	11	C14H17O+
202.0945	5	C12[13]CH13O2+
203.1049	7	C13H15O2+
205.1	6	C16H13+
207.1159	34	C16H15+
208.0874	11	C15H12O+
208.12	8	C15[13]CH15+
209.0947	83	C15H13O+
209.1314	12	C16H17+
210.1011	46	C15H14O+
211.1105	186	C15H15O+
212.1155	31	C14[13]CH15O+
213.0904	19	C14H13O2+
213.1264	79	C15H17O+
214.1298	17	C14[13]CH17O+
215.106	25	C14H15O2+
215.1432	6	C15H19O+
219.1145	7	C17H15+
221.0951	59	C16H13O+
221.1315	11	C17H17+
222.102	36	C16H14O+
223.1107	129	C16H15O+
224.1164	39	C16H16O+
225.1268	737	C16H17O+
226.1337	507	C16H18O+
227.1054	16	C15H15O2+
227.1412	289	C16H19O+
228.1451	55	C15[13]CH19O+
229.0865	6	C14H13O3+
229.1537	5	C14[13]C2H19O+
231.1153	5	C18H15+
233.0945	6	C17H13O+
233.1319	8	C18H17+
234.1029	14	C17H14O+
235.1105	97	C17H15O+
235.1474	10	C18H19+
236.1158	26	C16[13]CH15O+
237.1269	243	C17H17O+
238.1303	52	C16[13]CH17O+
239.1061	20	C16H15O2+
239.1423	161	C17H19O+
240.1459	37	C16[13]CH19O+
241.1204	12	C16H17O2+
241.1578	125	C17H21O+
242.1614	23	C16[13]CH21O+
243.1144	5	C19H15+
243.1355	6	C16H19O2+
245.093	5	C18H13O+
245.1313	5	C19H17+
246.1019	14	C18H14O+
247.1108	18	C18H15O+
247.1479	12	C19H19+
248.1188	38	C18H16O+
249.0897	6	C17H13O2+
249.1264	103	C18H17O+
250.1318	30	C17[13]CH17O+
251.1062	10	C17H15O2+
251.1424	92	C18H19O+
252.1474	26	C17[13]CH19O+
253.1204	29	C17H17O2+
253.1581	61	C18H21O+
254.123	5	C16[13]CH17O2+
254.1624	14	C17[13]CH21O+
255.1371	20	C17H19O2+
255.1702	5	C18H23O+
258.1027	5	C19H14O+
259.1108	6	C19H15O+
259.1472	17	C20H19+
260.1174	10	C19H16O+
261.1265	60	C19H17O+
262.1331	53	C19H18O+
263.1062	20	C18H15O2+
263.1422	226	C19H19O+
264.1126	9	C18H16O2+
264.148	115	C19H20O+
265.1581	618	C19H21O+
266.1611	145	C18[13]CH21O+
267.1005	6	C17H15O3+
267.1376	40	C18H19O2+
267.1719	38	C19H23O+
268.1409	11	C17[13]CH19O2+
269.1526	11	C18H21O2+
271.1306	5	C17H19O3+
272.1189	29	C20H16O+
273.1234	8	C19[13]CH16O+
275.1419	49	C20H19O+
276.1115	6	C19H16O2+
276.1457	17	C19[13]CH19O+
277.122	21	C19H17O2+
277.1581	305	C20H21O+
278.1257	9	C19H18O2+
278.1616	76	C19[13]CH21O+
279.1365	39	C19H19O2+
279.1666	10	C18[13]C2H21O+
280.143	17	C19H20O2+
281.1176	7	C18H17O3+
281.1527	77	C19H21O2+
282.1581	31	C19H22O2+
283.1689	66	C19H23O2+
284.172	15	C18[13]CH23O2+
287.1425	107	C21H19O+
288.1453	24	C20[13]CH19O+
290.1296	17	C20H18O2+
291.1346	6	C20H19O2+
292.1451	7	C20H20O2+
293.1529	60	C20H21O2+
294.1579	15	C19[13]CH21O2+
295.1321	10	C19H19O3+
295.1685	170	C20H23O2+
296.1715	42	C19[13]CH23O2+
297.1465	11	C19H21O3+
297.1734	5	C18[13]C2H23O2+
305.153	217	C21H21O2+
306.1556	52	C20[13]CH21O2+
307.1559	5	C19[13]C2H21O2+
311.1649	15	C20H23O3+
313.1795	31	C20H25O3+
314.1821	10	C19[13]CH25O3+
323.1637	304	C21H23O3+
324.1668	70	C20[13]CH23O3+
325.17	7	C19[13]C2H23O3+
341.1744	93	C21H25O4+
342.1774	24	C20[13]CH25O4+
399.2164	249	C24H31O5+
400.2195	80	C23[13]CH31O5+
401.2232	11	C22[13]C2H31O5+
