Mass spectrum: Budesonide; LC-ESI-QTOF; MS2; CE: 50 eV; R=35000; [M+H]+
Name: Budesonide
Name: (1S,2S,4R,6R,8S,9S,11S,12S,13R)-11-hydroxy-8-(2-hydroxyacetyl)-9,13-dimethyl-6-propyl-5,7-dioxapentacyclo[10.8.0.02,9.04,8.013,18]icosa-14,17-dien-16-one
Formula: C25H34O6
Exact mass: 430.2355388
SMILES: [H][C@@]12C[C@@]3([H])[C@]4([H])CCC5=CC(=O)C=C[C@]5(C)[C@@]4([H])[C@@H](O)C[C@]3(C)[C@@]1(O[C@H](CCC)O2)C(=O)CO
InChI: InChI=1S/C25H34O6/c1-4-5-21-30-20-11-17-16-7-6-14-10-15(27)8-9-23(14,2)22(16)18(28)12-24(17,3)25(20,31-21)19(29)13-26/h8-10,16-18,20-22,26,28H,4-7,11-13H2,1-3H3/t16-,17-,18-,20+,21+,22+,23-,24-,25+/m0/s1
Instrument: Bruker maXis Impact
Instrument type: LC-ESI-QTOF
Ms type: MS2
Ion mode: POSITIVE
Ionization: ESI
Fragmentation mode: CID
Collision energy: 50 eV
Resolution: 35000
Column name: Acclaim RSLC C18 2.2um, 2.1x100mm, Thermo
Retention time: 10.331 min
Base peak: 431.2424
Precursor m/z: 431.2428
Precursor type: [M+H]+
m/z	relative intensity	assigned
115.0539	48	C9H7+
116.0592	11	C9H8+
117.069	37	C9H9+
118.0729	5	C8[13]CH9+
119.0849	193	C9H11+
120.0881	16	C8[13]CH11+
121.064	280	C8H9O+
122.0676	24	C7[13]CH9O+
123.0796	11	C8H11O+
125.0586	5	C7H9O2+
127.0529	6	C10H7+
128.0609	83	C10H8+
129.0684	69	C10H9+
130.0758	27	C10H10+
131.048	31	C9H7O+
131.0846	69	C10H11+
132.0559	89	C9H8O+
132.0883	5	C9[13]CH11+
133.0635	37	C9H9O+
133.1001	25	C10H13+
134.069	5	C8[13]CH9O+
135.0794	202	C9H11O+
136.0834	16	C8[13]CH11O+
137.0583	32	C8H9O2+
139.0743	18	C8H11O2+
141.0689	43	C11H9+
142.0758	27	C11H10+
143.084	71	C11H11+
144.0558	24	C10H8O+
144.0889	11	C10[13]CH11+
145.0633	149	C10H9O+
145.0998	98	C11H13+
146.0703	42	C10H10O+
146.1035	12	C10[13]CH13+
147.0794	999	C10H11O+
148.0828	103	C9[13]CH11O+
149.0584	13	C9H9O2+
149.0934	11	C10H13O+
151.0739	7	C9H11O2+
152.0613	14	C12H8+
153.0689	26	C12H9+
154.0758	14	C12H10+
155.0584	16	C4H11O6+
155.084	76	C12H11+
156.0911	10	C11[13]CH11+
157.0634	23	C11H9O+
157.0996	35	C12H13+
158.0712	210	C11H10O+
159.0788	221	C11H11O+
160.0835	30	C10[13]CH11O+
161.0593	10	C10H9O2+
161.0951	104	C11H13O+
162.0975	15	C10[13]CH13O+
163.074	30	C10H11O2+
165.0683	30	C13H9+
166.0755	19	C13H10+
167.0838	34	C13H11+
168.0897	13	C13H12+
169.0628	31	C12H9O+
169.0998	28	C13H13+
170.0704	33	C12H10O+
170.1033	6	C12[13]CH13+
171.0793	528	C12H11O+
172.0838	79	C11[13]CH11O+
173.095	572	C12H13O+
174.0979	73	C11[13]CH13O+
175.1103	16	C12H15O+
177.0895	7	C11H13O2+
178.0761	29	C14H10+
179.0842	60	C14H11+
180.0906	19	C14H12+
181.0634	29	C13H9O+
181.099	31	C14H13+
182.0708	35	C13H10O+
182.1063	8	C14H14+
183.0791	47	C13H11O+
183.1146	18	C14H15+
184.0867	41	C13H12O+
185.0946	122	C13H13O+
186.0999	27	C12[13]CH13O+
187.0743	13	C12H11O2+
187.1103	39	C13H15O+
188.1142	6	C12[13]CH15O+
189.0689	7	C15H9+
189.0896	7	C12H13O2+
190.0766	14	C15H10+
191.084	38	C15H11+
192.0922	75	C15H12+
193.0994	67	C15H13+
194.0717	16	C14H10O+
194.1055	20	C15H14+
195.0791	104	C14H11O+
195.116	18	C15H15+
196.0867	97	C14H12O+
197.0946	155	C14H13O+
197.1321	16	C15H17+
198.1017	57	C14H14O+
199.0738	5	C13H11O2+
199.1101	70	C14H15O+
200.1146	11	C13[13]CH15O+
201.0903	11	C13H13O2+
202.0771	8	C16H10+
202.0972	6	C13H14O2+
203.0846	16	C16H11+
204.0924	17	C16H12+
205.0999	34	C16H13+
206.07	7	C15H10O+
206.1061	19	C16H14+
207.0797	23	C15H11O+
207.1154	92	C16H15+
208.0866	93	C15H12O+
208.1209	25	C15[13]CH15+
209.0945	138	C15H13O+
209.131	21	C16H17+
210.1021	167	C15H14O+
211.1105	325	C15H15O+
212.1149	64	C14[13]CH15O+
213.0896	7	C14H13O2+
213.126	47	C15H17O+
214.1289	8	C14[13]CH17O+
215.0838	14	C17H11+
215.1057	5	C14H15O2+
216.0917	13	C17H12+
217.1009	21	C17H13+
218.0708	6	C16H10O+
218.1065	17	C17H14+
219.0793	19	C16H11O+
219.1158	24	C17H15+
220.0863	29	C16H12O+
220.1205	12	C17H16+
221.0951	120	C16H13O+
221.1311	21	C17H17+
222.1026	130	C16H14O+
223.1102	134	C16H15O+
224.1166	71	C16H16O+
225.0902	11	C15H13O2+
225.126	173	C16H17O+
226.1333	185	C16H18O+
227.1041	8	C15H15O2+
227.1406	71	C16H19O+
228.0924	6	C18H12+
228.1443	9	C15[13]CH19O+
229.0995	15	C18H13+
230.1062	19	C18H14+
231.0796	14	C17H11O+
231.1156	20	C18H15+
232.0863	17	C17H12O+
232.1243	8	C18H16+
233.0946	54	C17H13O+
233.1297	14	C18H17+
234.1025	71	C17H14O+
234.1378	6	C18H18+
235.1106	125	C17H15O+
235.1464	9	C18H19+
236.1169	47	C17H16O+
237.0895	8	C16H13O2+
237.1258	117	C17H17O+
238.096	8	C16H14O2+
238.1317	34	C16[13]CH17O+
239.1043	14	C16H15O2+
239.1419	46	C17H19O+
240.1134	5	C16H16O2+
240.1477	14	C16[13]CH19O+
241.157	13	C17H21O+
243.1152	11	C19H15+
244.1233	14	C19H16+
245.0958	24	C18H13O+
245.1298	13	C19H17+
246.1029	29	C18H14O+
246.135	5	C19H18+
247.1106	85	C18H15O+
247.1475	9	C19H19+
248.1177	87	C18H16O+
248.1522	5	C19H20+
249.0877	9	C17H13O2+
249.1257	89	C18H17O+
250.0968	5	C17H14O2+
250.1327	40	C18H18O+
251.105	7	C17H15O2+
251.142	32	C18H19O+
252.1468	11	C18H20O+
253.1212	7	C17H17O2+
253.1571	10	C18H21O+
257.0958	15	C19H13O+
258.1028	10	C19H14O+
259.1099	22	C19H15O+
259.1487	6	C20H19+
260.1182	21	C19H16O+
261.1263	41	C19H17O+
262.0982	7	C18H14O2+
262.1336	57	C19H18O+
263.106	11	C18H15O2+
263.1413	56	C19H19O+
264.1158	9	C18H16O2+
264.1488	44	C19H20O+
265.1192	11	C18H17O2+
265.1576	53	C19H21O+
266.1622	12	C18[13]CH21O+
267.1389	10	C18H19O2+
271.1112	10	C20H15O+
272.1183	27	C20H16O+
273.1253	11	C20H17O+
274.1342	8	C20H18O+
275.105	11	C19H15O2+
275.1408	16	C20H19O+
276.1473	6	C20H20O+
277.1219	14	C19H17O2+
277.1577	25	C20H21O+
278.1266	6	C19H18O2+
278.1627	7	C19[13]CH21O+
279.1361	10	C19H19O2+
280.1441	7	C19H20O2+
281.1537	9	C19H21O2+
282.1557	5	C19H22O2+
287.1421	12	C21H19O+
289.1251	5	C20H17O2+
290.1293	12	C20H18O2+
295.1693	8	C20H23O2+
305.1538	11	C21H21O2+
323.1646	6	C21H23O3+
