Mass spectrum: Trimethyloctylammonium; LC-ESI-QTOF; MS2; CE: 20 eV; R=35000; [M+H]+
Name: Trimethyloctylammonium
Name: Octyltrimethylammonium
Name: trimethyl(octyl)azanium
Formula: [C11H26N]+
Exact mass: 172.2065248
SMILES: CCCCCCCC[N+](C)(C)C
InChI: InChI=1S/C11H26N/c1-5-6-7-8-9-10-11-12(2,3)4/h5-11H2,1-4H3/q+1
Instrument: Bruker maXis Impact
Instrument type: LC-ESI-QTOF
Ms type: MS2
Ion mode: POSITIVE
Ionization: ESI
Fragmentation mode: CID
Collision energy: 20 eV
Resolution: 35000
Column name: Acclaim RSLC C18 2.2um, 2.1x100mm, Thermo
Retention time: 6.074 min
Base peak: 172.2048
Precursor m/z: 173.2138
Precursor type: [M+H]+
m/z	relative intensity	assigned
172.2052	999	C11H26N+
173.2081	145	C10[13]CH26N+
174.2106	7	C9[13]C2H26N+
