Mass spectrum: Dydrogesterone; LC-ESI-QTOF; MS2; CE: 40 eV; R=35000; [M+H]+
Name: Dydrogesterone
Name: (8S,9R,10S,13S,14S,17S)-17-acetyl-10,13-dimethyl-1,2,8,9,11,12,14,15,16,17-decahydrocyclopenta[a]phenanthren-3-one
Formula: C21H28O2
Exact mass: 312.2089301
SMILES: [H][C@@]12CC[C@H](C(C)=O)[C@@]1(C)CC[C@]1([H])[C@@]2([H])C=CC2=CC(=O)CC[C@@]12C
InChI: InChI=1S/C21H28O2/c1-13(22)17-6-7-18-16-5-4-14-12-15(23)8-10-20(14,2)19(16)9-11-21(17,18)3/h4-5,12,16-19H,6-11H2,1-3H3/t16-,17+,18-,19+,20+,21+/m0/s1
Instrument: Bruker maXis Impact
Instrument type: LC-ESI-QTOF
Ms type: MS2
Ion mode: POSITIVE
Ionization: ESI
Fragmentation mode: CID
Collision energy: 40 eV
Resolution: 35000
Column name: Acclaim RSLC C18 2.2um, 2.1x100mm, Thermo
Retention time: 10.681 min
Base peak: 313.2164
Precursor m/z: 313.2162
Precursor type: [M+H]+
m/z	relative intensity	assigned
115.0537	162	C9H7+
116.0613	55	C9H8+
117.069	173	C9H9+
118.0738	28	C8[13]CH9+
119.0848	437	C9H11+
120.0881	50	C8[13]CH11+
121.0639	266	C8H9O+
121.0997	124	C9H13+
122.0673	24	C7[13]CH9O+
122.1041	19	C8[13]CH13+
123.0797	210	C8H11O+
123.1167	18	C9H15+
124.0832	20	C7[13]CH11O+
127.0529	42	C10H7+
127.0743	24	C7H11O2+
128.061	419	C10H8+
129.0688	553	C10H9+
130.0755	180	C10H10+
131.0845	861	C10H11+
132.0559	54	C9H8O+
132.0879	105	C9[13]CH11+
133.0639	266	C9H9O+
133.0999	542	C10H13+
134.0696	49	C9H10O+
134.1034	73	C9[13]CH13+
135.079	135	C9H11O+
135.116	144	C10H15+
136.0839	15	C8[13]CH11O+
136.119	14	C9[13]CH15+
137.0951	90	C9H13O+
141.0688	349	C11H9+
142.0762	477	C11H10+
143.0842	898	C11H11+
144.057	26	C10H8O+
144.0906	179	C10[13]CH11+
145.0637	135	C10H9O+
145.0999	981	C11H13+
146.0708	96	C10H10O+
146.1033	117	C10[13]CH13+
147.0792	473	C10H11O+
147.1157	348	C11H15+
148.0853	126	C10H12O+
148.12	35	C10[13]CH15+
149.0948	440	C10H13O+
149.131	46	C11H17+
150.0973	55	C9[13]CH13O+
150.134	9	C10[13]CH17+
151.1112	38	C10H15O+
152.0602	32	C12H8+
153.0688	112	C12H9+
154.0762	156	C12H10+
155.0845	891	C12H11+
156.091	301	C12H12+
157.1002	999	C12H13+
158.0713	174	C11H10O+
158.1039	153	C11[13]CH13+
159.0795	179	C11H11O+
159.1155	744	C12H15+
160.0872	139	C11H12O+
160.1195	90	C11[13]CH15+
161.0945	634	C11H13O+
161.1314	104	C12H17+
162.1004	146	C11H14O+
162.135	14	C11[13]CH17+
163.1108	721	C11H15O+
164.1136	79	C10[13]CH15O+
165.0687	145	C13H9+
165.126	19	C11H17O+
166.0757	100	C13H10+
167.0845	259	C13H11+
168.0913	191	C13H12+
169.1001	803	C13H13+
170.1055	208	C13H14+
171.0789	177	C12H11O+
171.1158	719	C13H15+
172.087	33	C11[13]CH11O+
172.1204	128	C12[13]CH15+
173.0947	707	C12H13O+
173.1315	246	C13H17+
174.099	138	C11[13]CH13O+
174.1347	40	C12[13]CH17+
175.1105	707	C12H15O+
175.1466	48	C13H19+
176.1146	113	C11[13]CH15O+
177.126	96	C12H17O+
178.0764	35	C14H10+
178.1289	15	C11[13]CH17O+
179.0842	153	C14H11+
180.0913	131	C14H12+
181.0998	464	C14H13+
182.0683	12	C13H10O+
182.1068	210	C14H14+
183.1153	683	C14H15+
184.0872	24	C13H12O+
184.1212	168	C13[13]CH15+
185.0944	99	C13H13O+
185.1312	355	C14H17+
186.1017	43	C13H14O+
186.1369	61	C13[13]CH17+
187.1109	152	C13H15O+
187.147	219	C14H19+
188.1181	28	C12[13]CH15O+
188.1515	37	C13[13]CH19+
189.1264	98	C13H17O+
189.162	9	C14H21+
190.1321	18	C12[13]CH17O+
191.0845	39	C15H11+
192.0926	91	C15H12+
193.1001	163	C15H13+
194.1074	93	C15H14+
195.1158	522	C15H15+
196.0876	24	C14H12O+
196.122	272	C15H16+
197.0948	58	C14H13O+
197.1312	495	C15H17+
198.1017	42	C14H14O+
198.1367	138	C14[13]CH17+
199.1099	168	C14H15O+
199.1466	156	C15H19+
200.118	88	C14H16O+
200.1525	25	C14[13]CH19+
201.1265	150	C14H17O+
201.1615	38	C15H21+
202.1329	40	C14H18O+
203.1396	22	C14H19O+
204.0904	11	C16H12+
205.1005	37	C16H13+
206.1079	83	C16H14+
207.1156	161	C16H15+
208.1231	99	C16H16+
209.0963	16	C15H13O+
209.1315	305	C16H17+
210.1016	37	C15H14O+
210.1379	138	C16H18+
211.111	106	C15H15O+
211.1472	546	C16H19+
212.1178	79	C15H16O+
212.1512	121	C15[13]CH19+
213.1262	240	C15H17O+
213.1622	124	C16H21+
214.1336	108	C15H18O+
214.1633	31	C15[13]CH21+
215.1405	92	C15H19O+
215.1777	21	C16H23+
216.1464	21	C14[13]CH19O+
217.1572	17	C15H21O+
219.117	21	C17H15+
220.1236	45	C17H16+
221.1313	156	C17H17+
222.1388	122	C17H18+
223.1109	18	C16H15O+
223.1471	103	C17H19+
224.1197	36	C16H16O+
224.1549	78	C17H20+
225.1263	154	C16H17O+
225.1627	294	C17H21+
226.133	61	C16H18O+
226.1689	91	C16[13]CH21+
227.1416	127	C16H19O+
227.1787	111	C17H23+
228.1498	169	C16H20O+
228.181	15	C16[13]CH23+
229.1575	148	C16H21O+
230.1592	36	C15[13]CH21O+
233.131	35	C18H17+
234.1369	35	C18H18+
235.1483	73	C18H19+
236.1545	42	C18H20+
237.1264	21	C17H17O+
237.1629	247	C18H21+
238.1332	18	C17H18O+
238.1691	92	C18H22+
239.1413	120	C17H19O+
239.1756	27	C17[13]CH22+
240.1488	73	C17H20O+
241.1568	43	C17H21O+
242.162	15	C17H22O+
243.1734	58	C17H23O+
247.1474	35	C19H19+
248.1532	28	C19H20+
249.1619	32	C19H21+
251.1413	55	C18H19O+
251.178	127	C19H23+
252.1469	18	C17[13]CH19O+
252.1857	77	C19H24+
253.1569	111	C18H21O+
253.1938	193	C19H25+
254.1642	84	C18H22O+
254.1982	43	C18[13]CH25+
255.173	147	C18H23O+
256.1776	29	C17[13]CH23O+
257.1497	10	C17H21O2+
257.1862	10	C18H25O+
262.1699	29	C20H22+
265.1587	47	C19H21O+
266.1651	40	C19H22O+
267.1714	31	C19H23O+
267.2087	10	C20H27+
268.1806	44	C19H24O+
269.1887	95	C19H25O+
270.1938	28	C18[13]CH25O+
271.2057	37	C19H27O+
272.2107	12	C18[13]CH27O+
277.196	31	C21H25+
280.1826	42	C20H24O+
281.1863	20	C20H25O+
283.1695	17	C19H23O2+
295.2062	73	C21H27O+
296.2092	20	C20[13]CH27O+
298.1923	33	C20H26O2+
299.1934	15	C20H27O2+
313.2166	61	C21H29O2+
314.2186	23	C20[13]CH29O2+
