Mass spectrum: Testosterone; LC-ESI-QTOF; MS2; CE: 20 eV; R=35000; [M+H]+
Name: Testosterone
Name: (8R,9S,10R,13S,14S,17S)-17-hydroxy-10,13-dimethyl-1,2,6,7,8,9,11,12,14,15,16,17-dodecahydrocyclopenta[a]phenanthren-3-one
Formula: C19H28O2
Exact mass: 288.2089301
SMILES: C[C@]12CC[C@H]3[C@@H](CCC4=CC(=O)CC[C@]34C)[C@@H]1CC[C@@H]2O
InChI: InChI=1S/C19H28O2/c1-18-9-7-13(20)11-12(18)3-4-14-15-5-6-17(21)19(15,2)10-8-16(14)18/h11,14-17,21H,3-10H2,1-2H3/t14-,15-,16-,17-,18-,19-/m0/s1
Instrument: Bruker maXis Impact
Instrument type: LC-ESI-QTOF
Ms type: MS2
Ion mode: POSITIVE
Ionization: ESI
Fragmentation mode: CID
Collision energy: 20 eV
Resolution: 35000
Column name: Acclaim RSLC C18 2.2um, 2.1x100mm, Thermo
Retention time: 9.853 min
Base peak: 289.216
Precursor m/z: 289.2162
Precursor type: [M+H]+
m/z	relative intensity	assigned
121.1008	5	C9H13+
123.0798	19	C8H11O+
133.1009	5	C10H13+
135.1159	5	C10H15+
145.0996	11	C11H13+
147.1155	13	C11H15+
157.0994	8	C12H13+
159.1156	12	C12H15+
161.1315	13	C12H17+
163.1104	8	C11H15O+
163.1467	5	C12H19+
171.1156	10	C13H15+
173.1308	8	C13H17+
175.1464	17	C13H19+
177.1262	11	C12H17O+
185.1312	5	C14H17+
187.147	16	C14H19+
189.1268	6	C13H17O+
189.1625	13	C14H21+
197.1313	8	C15H17+
199.1471	11	C15H19+
201.163	9	C15H21+
211.1481	7	C16H19+
213.163	16	C16H21+
217.1571	5	C15H21O+
227.1788	6	C17H23+
253.1946	77	C19H25+
254.198	15	C18[13]CH25+
271.2054	85	C19H27O+
272.2088	20	C18[13]CH27O+
289.2162	999	C19H29O2+
290.2195	180	C18[13]CH29O2+
291.2226	16	C17[13]C2H29O2+
