Mass spectrum: Budesonide; LC-ESI-QTOF; MS2; CE: Ramp 24.2-36.3 eV; R=35000; [M+H]+
Name: Budesonide
Name: (1S,2S,4R,6R,8S,9S,11S,12S,13R)-11-hydroxy-8-(2-hydroxyacetyl)-9,13-dimethyl-6-propyl-5,7-dioxapentacyclo[10.8.0.02,9.04,8.013,18]icosa-14,17-dien-16-one
Formula: C25H34O6
Exact mass: 430.2355388
SMILES: [H][C@@]12C[C@@]3([H])[C@]4([H])CCC5=CC(=O)C=C[C@]5(C)[C@@]4([H])[C@@H](O)C[C@]3(C)[C@@]1(O[C@H](CCC)O2)C(=O)CO
InChI: InChI=1S/C25H34O6/c1-4-5-21-30-20-11-17-16-7-6-14-10-15(27)8-9-23(14,2)22(16)18(28)12-24(17,3)25(20,31-21)19(29)13-26/h8-10,16-18,20-22,26,28H,4-7,11-13H2,1-3H3/t16-,17-,18-,20+,21+,22+,23-,24-,25+/m0/s1
Instrument: Bruker maXis Impact
Instrument type: LC-ESI-QTOF
Ms type: MS2
Ion mode: POSITIVE
Ionization: ESI
Fragmentation mode: CID
Collision energy: Ramp 24.2-36.3 eV
Resolution: 35000
Column name: Acclaim RSLC C18 2.2um, 2.1x100mm, Thermo
Retention time: 10.302 min
Base peak: 431.2423
Precursor m/z: 431.2428
Precursor type: [M+H]+
m/z	relative intensity	assigned
55.0172	15	C3H3O+
55.0535	16	C4H7+
57.0687	7	C4H9+
67.0532	16	C5H7+
69.0327	24	C4H5O+
69.0693	15	C5H9+
71.0485	78	C4H7O+
73.0276	5	C3H5O2+
79.0534	23	C6H7+
81.0328	9	C5H5O+
81.0693	58	C6H9+
83.0487	14	C5H7O+
85.0643	13	C5H9O+
87.044	21	C4H7O2+
91.0549	20	C7H7+
93.0699	46	C7H9+
95.0492	22	C6H7O+
95.0857	37	C7H11+
97.0284	15	C5H5O2+
97.0651	17	C6H9O+
99.0448	15	C5H7O2+
101.0236	38	C4H5O3+
101.0603	5	C5H9O2+
105.0712	32	C8H9+
107.0503	10	C7H7O+
107.0863	44	C8H11+
109.066	29	C7H9O+
109.1022	9	C8H13+
111.0445	13	C6H7O2+
111.083	8	C7H11O+
115.0382	5	C5H7O3+
115.0538	8	C9H7+
117.0697	16	C9H9+
119.0851	53	C9H11+
120.0887	5	C8[13]CH11+
121.0645	233	C8H9O+
122.0679	22	C7[13]CH9O+
123.0437	5	C7H7O2+
123.0804	25	C8H11O+
125.0587	12	C7H9O2+
127.075	5	C7H11O2+
128.0611	11	C10H8+
129.069	13	C10H9+
131.0845	38	C10H11+
132.0561	11	C9H8O+
133.0637	31	C9H9O+
133.1001	16	C10H13+
135.0797	135	C9H11O+
136.0838	17	C8[13]CH11O+
137.0583	52	C8H9O2+
137.0946	7	C9H13O+
138.0617	7	C7[13]CH9O2+
139.0744	32	C8H11O2+
141.0531	6	C7H9O3+
141.0674	6	C11H9+
143.0845	20	C11H11+
144.0546	5	C10H8O+
145.0637	55	C10H9O+
145.1002	31	C11H13+
146.0683	6	C9[13]CH9O+
147.0793	999	C10H11O+
148.0825	114	C9[13]CH11O+
149.0581	17	C9H9O2+
149.094	15	C10H13O+
151.0742	24	C9H11O2+
153.0898	7	C9H13O2+
155.069	49	C8H11O3+
155.0847	11	C12H11+
156.0715	5	C7[13]CH11O3+
157.0633	6	C11H9O+
157.0998	24	C12H13+
158.071	35	C11H10O+
159.0788	123	C11H11O+
159.1152	9	C12H15+
160.0835	18	C10[13]CH11O+
161.0945	116	C11H13O+
162.0984	12	C10[13]CH13O+
163.074	86	C10H11O2+
163.1115	5	C11H15O+
164.0768	7	C9[13]CH11O2+
165.0885	18	C10H13O2+
167.0694	7	C9H11O3+
167.083	5	C13H11+
169.0833	5	C9H13O3+
169.1002	13	C13H13+
171.0791	432	C12H11O+
172.0833	52	C11[13]CH11O+
173.095	732	C12H13O+
174.0986	97	C11[13]CH13O+
175.0738	11	C11H11O2+
175.1093	25	C12H15O+
177.0905	23	C11H13O2+
179.084	9	C14H11+
179.1042	6	C11H15O2+
181.0849	20	C10H13O3+
181.0995	7	C14H13+
183.0786	21	C13H11O+
183.1136	6	C14H15+
184.0867	9	C13H12O+
185.0947	127	C13H13O+
186.099	23	C12[13]CH13O+
187.0741	21	C12H11O2+
187.1108	90	C13H15O+
188.1138	10	C12[13]CH15O+
189.0903	16	C12H13O2+
191.0852	5	C15H11+
191.1085	6	C12H15O2+
192.0928	6	C15H12+
193.0985	8	C15H13+
195.0794	23	C14H11O+
195.1165	6	C15H15+
196.0871	24	C14H12O+
197.095	121	C14H13O+
197.1298	7	C15H17+
198.1004	20	C13[13]CH13O+
199.0747	6	C13H11O2+
199.111	92	C14H15O+
200.1133	13	C13[13]CH15O+
201.0898	20	C13H13O2+
201.1254	11	C14H17O+
202.0955	7	C13H14O2+
203.1058	12	C13H15O2+
205.0984	8	C16H13+
205.1204	5	C13H17O2+
207.1145	32	C16H15+
208.088	17	C15H12O+
208.1215	9	C16H16+
209.0948	80	C15H13O+
209.1323	8	C16H17+
210.1015	38	C15H14O+
211.1109	167	C15H15O+
212.115	27	C14[13]CH15O+
213.0887	22	C14H13O2+
213.1262	74	C15H17O+
214.131	14	C14[13]CH17O+
215.1055	18	C14H15O2+
215.1443	6	C15H19O+
219.1152	11	C17H15+
220.0878	7	C16H12O+
221.0952	59	C16H13O+
221.1318	11	C17H17+
222.1013	38	C16H14O+
223.111	138	C16H15O+
224.117	58	C16H16O+
225.1268	607	C16H17O+
226.1338	394	C16H18O+
227.1064	19	C15H15O2+
227.1415	295	C16H19O+
228.1461	50	C15[13]CH19O+
229.0851	7	C14H13O3+
229.1577	7	C16H21O+
233.0961	9	C17H13O+
233.1317	8	C18H17+
234.1021	17	C17H14O+
234.1385	5	C18H18+
235.1114	111	C17H15O+
235.1477	7	C18H19+
236.1165	26	C16[13]CH15O+
237.1263	234	C17H17O+
238.1309	43	C16[13]CH17O+
239.1059	16	C16H15O2+
239.1426	184	C17H19O+
240.1098	5	C15[13]CH15O2+
240.1467	33	C16[13]CH19O+
241.1217	9	C16H17O2+
241.1578	88	C17H21O+
242.1602	17	C16[13]CH21O+
243.1387	15	C16H19O2+
245.0958	11	C18H13O+
245.131	8	C19H17+
246.1023	12	C18H14O+
247.1107	26	C18H15O+
247.1481	7	C19H19+
248.1193	44	C18H16O+
249.1268	127	C18H17O+
250.0969	6	C17H14O2+
250.1315	36	C17[13]CH17O+
251.1059	12	C17H15O2+
251.1423	100	C18H19O+
252.1471	32	C17[13]CH19O+
253.1221	22	C17H17O2+
253.1582	62	C18H21O+
254.125	5	C16[13]CH17O2+
254.1604	9	C17[13]CH21O+
255.1387	20	C17H19O2+
256.1412	5	C16[13]CH19O2+
257.1336	5	C20H17+
259.1112	11	C19H15O+
259.1482	14	C20H19+
260.1173	15	C19H16O+
261.1264	66	C19H17O+
262.1344	65	C19H18O+
263.1066	18	C18H15O2+
263.1425	251	C19H19O+
264.1123	8	C18H16O2+
264.1479	106	C19H20O+
265.1579	364	C19H21O+
266.1618	89	C18[13]CH21O+
267.1373	33	C18H19O2+
267.173	52	C19H23O+
268.1397	9	C17[13]CH19O2+
268.1779	15	C18[13]CH23O+
269.1514	11	C18H21O2+
272.119	27	C20H16O+
273.1242	9	C19[13]CH16O+
274.134	12	C20H18O+
275.1429	64	C20H19O+
276.1106	5	C19H16O2+
276.1462	18	C19[13]CH19O+
277.1217	20	C19H17O2+
277.1582	325	C20H21O+
278.1256	10	C19H18O2+
278.1618	68	C19[13]CH21O+
279.1378	59	C19H19O2+
279.1732	25	C20H23O+
280.1436	26	C19H20O2+
280.1799	13	C20H24O+
281.1166	7	C18H17O3+
281.1527	112	C19H21O2+
281.1916	9	C20H25O+
282.157	32	C18[13]CH21O2+
283.1683	87	C19H23O2+
284.1725	17	C18[13]CH23O2+
287.1427	94	C21H19O+
288.1467	22	C20[13]CH19O+
289.1582	39	C21H21O+
290.1303	13	C20H18O2+
290.1608	7	C20[13]CH21O+
291.1347	9	C20H19O2+
292.1481	7	C20H20O2+
293.1536	65	C20H21O2+
293.189	6	C21H25O+
294.1593	16	C19[13]CH21O2+
295.169	208	C20H23O2+
296.1715	42	C19[13]CH23O2+
297.1481	15	C19H21O3+
297.1798	7	C18[13]C2H23O2+
299.1618	9	C19H23O3+
303.1385	6	C21H19O2+
305.1534	269	C21H21O2+
306.1557	59	C20[13]CH21O2+
307.1673	48	C21H23O2+
308.1715	13	C20[13]CH23O2+
311.1654	13	C20H23O3+
313.1791	30	C20H25O3+
314.1831	6	C19[13]CH25O3+
321.1481	7	C21H21O3+
323.1635	433	C21H23O3+
324.1673	110	C20[13]CH23O3+
325.1784	50	C21H25O3+
326.1813	15	C20[13]CH25O3+
341.1743	101	C21H25O4+
342.177	22	C20[13]CH25O4+
343.1896	11	C21H27O4+
377.2104	10	C25H29O3+
395.2205	14	C25H31O4+
413.2321	569	C25H33O5+
414.2354	158	C24[13]CH33O5+
415.2377	23	C23[13]C2H33O5+
