Mass spectrum: Budesonide; LC-ESI-QTOF; MS2; CE: 20 eV; R=35000; [M+H]+
Name: Budesonide
Name: (1S,2S,4R,6R,8S,9S,11S,12S,13R)-11-hydroxy-8-(2-hydroxyacetyl)-9,13-dimethyl-6-propyl-5,7-dioxapentacyclo[10.8.0.02,9.04,8.013,18]icosa-14,17-dien-16-one
Formula: C25H34O6
Exact mass: 430.2355388
SMILES: [H][C@@]12C[C@@]3([H])[C@]4([H])CCC5=CC(=O)C=C[C@]5(C)[C@@]4([H])[C@@H](O)C[C@]3(C)[C@@]1(O[C@H](CCC)O2)C(=O)CO
InChI: InChI=1S/C25H34O6/c1-4-5-21-30-20-11-17-16-7-6-14-10-15(27)8-9-23(14,2)22(16)18(28)12-24(17,3)25(20,31-21)19(29)13-26/h8-10,16-18,20-22,26,28H,4-7,11-13H2,1-3H3/t16-,17-,18-,20+,21+,22+,23-,24-,25+/m0/s1
Instrument: Bruker maXis Impact
Instrument type: LC-ESI-QTOF
Ms type: MS2
Ion mode: POSITIVE
Ionization: ESI
Fragmentation mode: CID
Collision energy: 20 eV
Resolution: 35000
Column name: Acclaim RSLC C18 2.2um, 2.1x100mm, Thermo
Retention time: 10.296 min
Base peak: 431.2421
Precursor m/z: 431.2428
Precursor type: [M+H]+
m/z	relative intensity	assigned
119.0854	6	C9H11+
121.0639	37	C8H9O+
123.0793	6	C8H11O+
131.0848	6	C10H11+
133.0641	5	C9H9O+
135.0794	36	C9H11O+
137.0589	13	C8H9O2+
139.0745	10	C8H11O2+
143.0847	5	C11H11+
145.0637	8	C10H9O+
145.0999	5	C11H13+
147.0794	309	C10H11O+
148.0826	28	C9[13]CH11O+
149.0581	6	C9H9O2+
149.094	5	C10H13O+
151.0749	9	C9H11O2+
155.0689	26	C8H11O3+
157.0992	5	C12H13+
159.0797	26	C11H11O+
161.0952	30	C11H13O+
162.0981	5	C10[13]CH13O+
163.0743	33	C10H11O2+
164.0776	5	C9[13]CH11O2+
165.0896	16	C10H13O2+
169.0845	5	C9H13O3+
171.0792	118	C12H11O+
172.0825	13	C11[13]CH11O+
173.0949	291	C12H13O+
174.0979	34	C11[13]CH13O+
175.1097	8	C12H15O+
177.0897	10	C11H13O2+
179.1044	6	C11H15O2+
181.0843	11	C10H13O3+
185.0949	27	C13H13O+
186.0982	5	C12[13]CH13O+
187.0741	8	C12H11O2+
187.1104	33	C13H15O+
188.1144	5	C12[13]CH15O+
189.0904	6	C12H13O2+
197.0954	27	C14H13O+
199.1106	29	C14H15O+
201.0896	11	C13H13O2+
201.1255	5	C14H17O+
203.106	5	C13H15O2+
209.0952	16	C15H13O+
211.1114	32	C15H15O+
212.1153	5	C14[13]CH15O+
213.0906	8	C14H13O2+
213.1264	22	C15H17O+
215.1049	6	C14H15O2+
221.095	14	C16H13O+
223.111	53	C16H15O+
224.1161	11	C15[13]CH15O+
225.1265	184	C16H17O+
226.1333	97	C16H18O+
227.1059	10	C15H15O2+
227.1418	135	C16H19O+
228.1461	21	C15[13]CH19O+
235.1105	21	C17H15O+
237.1266	70	C17H17O+
238.1299	14	C16[13]CH17O+
239.1059	6	C16H15O2+
239.142	65	C17H19O+
240.1448	13	C16[13]CH19O+
241.1579	40	C17H21O+
242.1605	8	C16[13]CH21O+
243.1377	12	C16H19O2+
247.1101	9	C18H15O+
248.118	5	C18H16O+
249.1266	33	C18H17O+
250.1303	7	C17[13]CH17O+
251.1421	37	C18H19O+
252.1464	7	C17[13]CH19O+
253.1212	8	C17H17O2+
253.1582	23	C18H21O+
255.1375	15	C17H19O2+
261.1267	31	C19H17O+
262.1319	11	C19H18O+
263.1065	7	C18H15O2+
263.1427	126	C19H19O+
264.1471	31	C18[13]CH19O+
265.1218	8	C18H17O2+
265.1577	141	C19H21O+
266.1613	31	C18[13]CH21O+
267.1377	18	C18H19O2+
267.1738	46	C19H23O+
268.1769	9	C18[13]CH23O+
269.1531	10	C18H21O2+
275.1423	29	C20H19O+
276.1457	6	C19[13]CH19O+
277.1223	9	C19H17O2+
277.1582	159	C20H21O+
278.1614	32	C19[13]CH21O+
279.137	34	C19H19O2+
279.1732	24	C20H23O+
280.1421	9	C18[13]CH19O2+
280.1792	6	C19[13]CH23O+
281.1529	54	C19H21O2+
281.1885	10	C20H25O+
282.1562	15	C18[13]CH21O2+
283.1683	65	C19H23O2+
284.172	10	C18[13]CH23O2+
287.1422	53	C21H19O+
288.146	11	C20[13]CH19O+
289.1583	35	C21H21O+
290.1603	8	C20[13]CH21O+
293.1528	47	C20H21O2+
293.1892	6	C21H25O+
294.1566	11	C19[13]CH21O2+
295.1689	162	C20H23O2+
296.1722	35	C19[13]CH23O2+
297.1477	11	C19H21O3+
297.1811	6	C20H25O2+
303.1383	5	C21H19O2+
305.1531	206	C21H21O2+
306.1563	51	C20[13]CH21O2+
307.1688	65	C21H23O2+
308.1724	17	C20[13]CH23O2+
309.1854	5	C21H25O2+
311.1639	19	C20H23O3+
312.1673	5	C19[13]CH23O3+
313.1792	28	C20H25O3+
314.182	6	C19[13]CH25O3+
321.1483	9	C21H21O3+
323.1641	520	C21H23O3+
324.1675	113	C20[13]CH23O3+
325.1787	89	C21H25O3+
326.1821	21	C20[13]CH25O3+
327.1912	7	C21H27O3+
339.1586	10	C21H23O4+
341.1746	162	C21H25O4+
342.1776	38	C20[13]CH25O4+
343.1894	25	C21H27O4+
344.1932	6	C20[13]CH27O4+
377.2113	11	C25H29O3+
395.221	35	C25H31O4+
396.2242	8	C24[13]CH31O4+
413.2325	999	C25H33O5+
414.2355	253	C24[13]CH33O5+
415.2387	36	C23[13]C2H33O5+
431.2418	13	C25H35O6+
