Mass spectrum: Betamethasone-17-valerate; LC-ESI-QTOF; MS2; CE: 40 eV; R=35000; [M+H]+
Name: Betamethasone-17-valerate
Name: Betamethasone 17-valerate
Name: [9-fluoro-11-hydroxy-17-(2-hydroxyacetyl)-10,13,16-trimethyl-3-oxo-6,7,8,11,12,14,15,16-octahydrocyclopenta[a]phenanthren-17-yl] pentanoate
Formula: C27H37FO6
Exact mass: 476.2574171
SMILES: CCCCC(=O)OC1(C(C)CC2C3CCC4=CC(=O)C=CC4(C)C3(F)C(O)CC12C)C(=O)CO
InChI: InChI=1S/C27H37FO6/c1-5-6-7-23(33)34-27(22(32)15-29)16(2)12-20-19-9-8-17-13-18(30)10-11-24(17,3)26(19,28)21(31)14-25(20,27)4/h10-11,13,16,19-21,29,31H,5-9,12,14-15H2,1-4H3
Instrument: Bruker maXis Impact
Instrument type: LC-ESI-QTOF
Ms type: MS2
Ion mode: POSITIVE
Ionization: ESI
Fragmentation mode: CID
Collision energy: 40 eV
Resolution: 35000
Column name: Acclaim RSLC C18 2.2um, 2.1x100mm, Thermo
Retention time: 11.033 min
Base peak: 477.2645
Precursor m/z: 477.2647
Precursor type: [M+H]+
m/z	relative intensity	assigned
115.0531	25	C9H7+
117.0703	16	C9H9+
119.0848	119	C9H11+
120.088	12	C8[13]CH11+
121.0639	164	C8H9O+
121.1003	86	C9H13+
122.0682	16	C7[13]CH9O+
123.0797	97	C8H11O+
123.1151	9	C9H15+
125.0587	20	C7H9O2+
125.0955	25	C8H13O+
128.061	45	C10H8+
129.0676	28	C10H9+
131.0473	8	C9H7O+
131.0841	80	C10H11+
132.0559	24	C9H8O+
132.0865	9	C9[13]CH11+
133.0639	29	C9H9O+
133.0999	84	C10H13+
134.1039	9	C9[13]CH13+
135.0795	353	C9H11O+
136.0828	34	C8[13]CH11O+
137.0953	75	C9H13O+
138.097	6	C8[13]CH13O+
139.1094	8	C9H15O+
141.0684	27	C11H9+
142.0752	22	C11H10+
143.0849	111	C11H11+
144.0548	19	C10H8O+
144.0883	17	C10[13]CH11+
145.0642	77	C10H9O+
145.0999	73	C11H13+
146.104	8	C10[13]CH13+
147.0792	859	C10H11O+
148.0822	88	C9[13]CH11O+
149.0946	125	C10H13O+
150.0984	15	C9[13]CH13O+
151.0733	18	C9H11O2+
151.11	15	C10H15O+
153.0688	8	C12H9+
153.0894	69	C9H13O2+
154.0928	6	C8[13]CH13O2+
155.0586	8	C4H11O6+
155.0841	34	C12H11+
156.0574	5	C11H8O+
156.0924	15	C12H12+
157.0641	16	C11H9O+
157.1	46	C12H13+
158.0718	47	C11H10O+
158.103	9	C11[13]CH13+
159.0792	397	C11H11O+
160.083	61	C10[13]CH11O+
161.059	24	C10H9O2+
161.095	201	C11H13O+
162.0985	29	C10[13]CH13O+
163.074	29	C10H11O2+
163.0955	7	C7H15O4+
163.1107	13	C11H15O+
165.0688	19	C13H9+
165.0892	20	C10H13O2+
167.0849	16	C13H11+
167.1056	73	C10H15O2+
168.0938	6	C13H12+
168.1088	9	C9[13]CH15O2+
169.0645	34	C12H9O+
169.1006	20	C13H13+
170.0701	11	C12H10O+
171.0792	563	C12H11O+
171.1165	54	C13H15+
172.083	74	C11[13]CH11O+
173.0949	356	C12H13O+
174.0994	46	C11[13]CH13O+
175.0747	9	C11H11O2+
175.1105	56	C12H15O+
176.113	10	C11[13]CH15O+
177.0699	5	C14H9+
177.0899	48	C11H13O2+
177.1042	10	C12H14F+
178.0755	9	C14H10+
178.0966	8	C10[13]CH13O2+
179.0836	26	C14H11+
179.1063	5	C11H15O2+
180.0928	9	C14H12+
181.0635	7	C13H9O+
181.101	21	C14H13+
182.0709	11	C13H10O+
182.106	6	C14H14+
183.0793	44	C13H11O+
183.1157	23	C14H15+
184.0863	20	C13H12O+
185.095	339	C13H13O+
186.0991	63	C12[13]CH13O+
187.0744	288	C12H11O2+
187.1104	74	C13H15O+
188.0776	38	C11[13]CH11O2+
188.1163	13	C12[13]CH15O+
189.0694	20	C15H9+
189.0906	36	C12H13O2+
189.1278	12	C13H17O+
190.0934	7	C11[13]CH13O2+
191.0849	19	C15H11+
191.1061	6	C12H15O2+
191.1213	5	C13H16F+
192.0925	7	C15H12+
193.1008	34	C15H13+
194.0723	8	C14H10O+
194.1051	8	C14[13]CH13+
195.079	40	C14H11O+
195.1169	23	C15H15+
196.0875	37	C14H12O+
197.0953	131	C14H13O+
198.1001	36	C14H14O+
199.0753	32	C13H11O2+
199.1103	92	C14H15O+
201.0902	24	C13H13O2+
201.125	15	C14H17O+
202.0744	9	C16H10+
203.0699	11	C12H11O3+
203.1051	26	C13H15O2+
204.0953	6	C13H13FO+
205.0651	5	C15H9O+
205.0991	23	C16H13+
206.1056	10	C16H14+
207.0802	11	C15H11O+
207.1164	25	C16H15+
208.087	43	C15H12O+
209.0952	147	C15H13O+
209.1311	14	C16H17+
210.1008	62	C15H14O+
211.0758	18	C14H11O2+
211.1105	146	C15H15O+
212.084	5	C13[13]CH11O2+
212.1172	49	C15H16O+
213.088	32	C14H13O2+
213.1263	128	C15H17O+
214.0933	6	C13[13]CH13O2+
214.1312	29	C14[13]CH17O+
215.0869	10	C14H12FO+
215.1058	36	C14H15O2+
216.0916	13	C17H12+
216.11	9	C14H16O2+
217.0833	6	C13H13O3+
217.1015	13	C17H13+
218.0716	6	C16H10O+
218.1074	9	C17H14+
219.0786	13	C16H11O+
219.1152	20	C17H15+
220.0866	10	C16H12O+
220.12	6	C17H16+
221.0952	180	C16H13O+
221.1309	15	C17H17+
222.1021	80	C16H14O+
222.1348	5	C16[13]CH17+
223.1106	341	C16H15O+
224.1154	77	C15[13]CH15O+
225.0907	18	C15H13O2+
225.1261	74	C13H18FO2+
226.0966	9	C15H14O2+
226.132	13	C12[13]CH18FO2+
227.1072	29	C15H15O2+
227.1425	15	C16H19O+
228.106	9	C14[13]CH15O2+
229.1006	17	C18H13+
229.1227	8	C15H17O2+
230.1071	22	C18H14+
231.0816	5	C14H12FO2+
231.1163	33	C18H15+
232.0863	7	C17H12O+
232.1216	10	C17[13]CH15+
233.0949	26	C17H13O+
233.1324	17	C18H17+
234.1021	51	C17H14O+
234.1394	11	C18H18+
235.1114	132	C17H15O+
235.1477	18	C18H19+
236.1176	64	C17H16O+
236.1528	7	C18H20+
237.0888	10	C16H13O2+
237.127	130	C17H17O+
237.1632	14	C18H21+
238.0967	7	C16H14O2+
238.1313	45	C17H18O+
239.1054	64	C16H15O2+
239.1419	85	C14H20FO2+
240.1103	18	C16H16O2+
240.1495	13	C13[13]CH20FO2+
241.0999	6	C19H13+
241.1197	21	C16H17O2+
241.1575	11	C17H21O+
242.1164	8	C9H19FO6+
243.1166	17	C19H15+
244.1232	20	C19H16+
245.0954	22	C18H13O+
245.1303	29	C19H17+
246.1028	37	C18H14O+
246.1367	19	C19H18+
247.11	56	C18H15O+
247.1478	17	C19H19+
248.1189	108	C18H16O+
249.0906	9	C17H13O2+
249.126	193	C18H17O+
249.1641	19	C19H21+
250.1	9	C14H15FO3+
250.1327	56	C17[13]CH17O+
250.1687	6	C19H22+
251.1031	19	C17H15O2+
251.1418	93	C18H19O+
251.1777	16	C19H23+
252.1476	28	C17[13]CH19O+
253.0966	5	C20H13+
253.1194	13	C17H17O2+
253.1572	80	C18H21O+
254.1609	21	C17[13]CH21O+
254.176	5	C11H26O6+
255.1174	6	C17H16FO+
256.1246	12	C20H16+
257.0975	5	C16H14FO2+
257.1311	26	C20H17+
258.1009	12	C19H14O+
258.1381	28	C20H18+
259.1103	45	C19H15O+
259.1455	34	C17H20FO+
260.1192	63	C19H16O+
260.1531	10	C16[13]CH20FO+
261.1263	133	C19H17O+
261.1616	53	C17H22FO+
262.1334	182	C19H18O+
262.1692	14	C16[13]CH22FO+
263.1423	494	C19H19O+
264.1124	15	C18H16O2+
264.1485	209	C19H20O+
265.1226	11	C18H17O2+
265.1554	72	C18[13]CH20O+
266.1642	18	C19H22O+
267.0998	8	C17H15O3+
267.1354	18	C18H19O2+
267.1744	25	C19H23O+
268.1426	8	C18H20O2+
268.1756	7	C18[13]CH23O+
269.13	5	C21H17+
271.1109	17	C20H15O+
271.1455	16	C21H19+
272.1192	39	C20H16O+
272.1498	5	C20[13]CH19+
273.127	36	C20H17O+
273.1627	23	C18H22FO+
274.134	74	C20H18O+
274.1729	7	C17[13]CH22FO+
275.1058	14	C19H15O2+
275.1417	86	C20H19O+
276.1143	8	C19H16O2+
276.1502	157	C20H20O+
277.1226	34	C19H17O2+
277.158	309	C20H21O+
278.1266	24	C19H18O2+
278.1653	391	C20H22O+
279.1379	51	C19H19O2+
279.1737	999	C20H23O+
280.1417	19	C19H20O2+
280.1767	222	C19[13]CH23O+
281.1526	56	C16H22FO3+
281.1835	44	C20H25O+
282.1586	12	C15[13]CH22FO3+
282.1881	7	C13H27FO5+
283.151	12	C19H20FO+
285.1293	8	C18H18FO2+
286.1346	78	C18H19FO2+
287.1405	20	C17[13]CH19FO2+
288.1468	11	C21H20O+
289.1225	25	C20H17O2+
289.1578	119	C21H21O+
290.1291	36	C20H18O2+
290.1626	44	C20[13]CH21O+
291.1372	35	C17H20FO3+
291.1742	183	C21H23O+
292.1462	10	C16[13]CH20FO3+
292.1765	60	C20[13]CH23O+
293.152	15	C20H21O2+
293.1817	9	C14H26FO5+
294.1618	14	C20H22O2+
295.1336	24	C16H20FO4+
295.17	40	C17H24FO3+
296.1765	34	C20H24O2+
297.1833	34	C20H25O2+
298.1863	8	C19[13]CH25O2+
301.1586	88	C22H21O+
302.1601	20	C21[13]CH21O+
303.1652	5	C15H24FO5+
304.1456	31	C21H20O2+
305.1479	14	C21H21O2+
306.1607	30	C21H22O2+
307.169	81	C21H23O2+
308.1688	21	C20[13]CH23O2+
309.1858	44	C21H25O2+
310.1881	13	C20[13]CH25O2+
311.1609	10	C20H23O3+
319.1695	100	C22H23O2+
320.1714	28	C21[13]CH23O2+
321.1815	6	C22H25O2+
324.1735	6	C18H25FO4+
325.1774	11	C21H25O3+
337.1785	53	C22H25O3+
338.1858	18	C21[13]CH25O3+
355.1887	8	C22H27O4+
