Mass spectrum: Harman; LC-ESI-QTOF; MS2; CE: 40 eV; R=35000; [M+H]+
Name: Harman
Name: 1-methyl-9H-pyrido[3,4-b]indole
Formula: C12H10N2
Exact mass: 182.0843983
SMILES: CC1=NC=CC2=C1NC1=C2C=CC=C1
InChI: InChI=1S/C12H10N2/c1-8-12-10(6-7-13-8)9-4-2-3-5-11(9)14-12/h2-7,14H,1H3
Instrument: Bruker maXis Impact
Instrument type: LC-ESI-QTOF
Ms type: MS2
Ion mode: POSITIVE
Ionization: ESI
Fragmentation mode: CID
Collision energy: 40 eV
Resolution: 35000
Column name: Acclaim RSLC C18 2.2um, 2.1x100mm, Thermo
Retention time: 4.774 min
Base peak: 183.0912
Precursor m/z: 183.0917
Precursor type: [M+H]+
m/z	relative intensity	assigned
113.038	7	C9H5+
114.0455	15	C9H6+
115.0538	999	C9H7+
116.0567	110	C8[13]CH7+
117.0566	14	C8H7N+
127.0534	12	C10H7+
128.0489	14	C9H6N+
128.0609	64	C10H8+
129.0686	45	C10H9+
130.0644	9	C9H8N+
139.053	15	C11H7+
140.0483	193	C10H6N+
141.0559	197	C10H7N+
142.0638	184	C10H8N+
143.0675	22	C9[13]CH8N+
154.0639	154	C11H8N+
155.0703	60	C11H9N+
156.079	36	C11H10N+
166.0634	21	C12H8N+
167.0591	68	C11H7N2+
168.0671	511	C11H8N2+
169.0701	49	C10[13]CH8N2+
181.0749	173	C12H9N2+
182.0827	388	C12H10N2+
183.0906	870	C12H11N2+
184.0936	101	C11[13]CH11N2+
