Mass spectrum: Dydrogesterone; LC-ESI-QTOF; MS2; CE: Ramp 21.9-32.8 eV; R=35000; [M+H]+
Name: Dydrogesterone
Name: (8S,9R,10S,13S,14S,17S)-17-acetyl-10,13-dimethyl-1,2,8,9,11,12,14,15,16,17-decahydrocyclopenta[a]phenanthren-3-one
Formula: C21H28O2
Exact mass: 312.2089301
SMILES: [H][C@@]12CC[C@H](C(C)=O)[C@@]1(C)CC[C@]1([H])[C@@]2([H])C=CC2=CC(=O)CC[C@@]12C
InChI: InChI=1S/C21H28O2/c1-13(22)17-6-7-18-16-5-4-14-12-15(23)8-10-20(14,2)19(16)9-11-21(17,18)3/h4-5,12,16-19H,6-11H2,1-3H3/t16-,17+,18-,19+,20+,21+/m0/s1
Instrument: Bruker maXis Impact
Instrument type: LC-ESI-QTOF
Ms type: MS2
Ion mode: POSITIVE
Ionization: ESI
Fragmentation mode: CID
Collision energy: Ramp 21.9-32.8 eV
Resolution: 35000
Column name: Acclaim RSLC C18 2.2um, 2.1x100mm, Thermo
Retention time: 10.151 min
Base peak: 313.2165
Precursor m/z: 313.2162
Precursor type: [M+H]+
m/z	relative intensity	assigned
55.0172	12	C3H3O+
55.0536	11	C4H7+
57.0328	9	C3H5O+
67.054	36	C5H7+
69.0698	12	C5H9+
79.0538	37	C6H7+
81.0698	44	C6H9+
83.0492	66	C5H7O+
91.0543	35	C7H7+
93.0701	27	C7H9+
95.0492	7	C6H7O+
95.0868	19	C7H11+
105.0713	21	C8H9+
107.0494	33	C7H7O+
107.087	9	C8H11+
109.0653	87	C7H9O+
115.0539	20	C9H7+
116.0598	9	C9H8+
117.069	80	C9H9+
118.0734	9	C8[13]CH9+
119.0849	79	C9H11+
121.064	27	C8H9O+
121.1006	34	C9H13+
123.0802	59	C8H11O+
123.1164	42	C9H15+
125.0948	35	C8H13O+
128.0619	15	C10H8+
129.0693	87	C10H9+
131.0849	203	C10H11+
132.0891	15	C9[13]CH11+
133.0644	32	C9H9O+
133.1003	195	C10H13+
134.1035	15	C9[13]CH13+
135.0797	174	C9H11O+
135.1168	76	C10H15+
136.0844	13	C8[13]CH11O+
136.1199	9	C9[13]CH15+
137.0943	26	C9H13O+
137.1309	30	C10H17+
141.0684	30	C11H9+
142.0763	23	C11H10+
143.0846	127	C11H11+
144.0907	30	C11H12+
145.0624	10	C10H9O+
145.1002	172	C11H13+
146.104	18	C10[13]CH13+
147.0795	55	C10H11O+
147.1159	71	C11H15+
148.0848	10	C9[13]CH11O+
148.1179	8	C10[13]CH15+
149.0954	127	C10H13O+
149.1314	35	C11H17+
150.1009	13	C9[13]CH13O+
151.1111	24	C10H15O+
153.0674	13	C12H9+
155.0843	54	C12H11+
156.0922	23	C12H12+
157.0619	12	C11H9O+
157.1002	166	C12H13+
158.1059	20	C11[13]CH13+
159.0792	53	C11H11O+
159.1159	206	C12H15+
160.1198	22	C11[13]CH15+
161.0954	94	C11H13O+
161.1315	40	C12H17+
162.0987	17	C10[13]CH13O+
163.111	94	C11H15O+
163.1482	14	C12H19+
164.1143	12	C10[13]CH15O+
165.0675	16	C13H9+
167.0843	25	C13H11+
168.0907	12	C13H12+
169.1011	53	C13H13+
170.1061	17	C13H14+
171.0807	8	C12H11O+
171.1159	144	C13H15+
172.0853	7	C12H12O+
172.1194	29	C12[13]CH15+
173.0953	30	C12H13O+
173.1313	86	C13H17+
174.1357	10	C12[13]CH17+
175.1115	64	C12H15O+
175.1477	51	C13H19+
176.1155	9	C11[13]CH15O+
176.1507	9	C12[13]CH19+
177.1264	14	C12H17O+
179.0855	15	C14H11+
181.1005	48	C14H13+
182.1075	13	C14H14+
183.116	105	C14H15+
184.0877	8	C13H12O+
184.1195	21	C13[13]CH15+
185.0954	30	C13H13O+
185.1319	204	C14H17+
186.1	10	C13H14O+
186.1357	32	C13[13]CH17+
187.1109	52	C13H15O+
187.147	115	C14H19+
188.1167	20	C13H16O+
188.1525	15	C13[13]CH19+
189.1269	67	C13H17O+
189.1607	7	C14H21+
190.1304	10	C12[13]CH17O+
191.1421	13	C13H19O+
193.0997	20	C15H13+
194.1047	9	C15H14+
195.1158	51	C15H15+
196.1221	17	C15H16+
197.0953	16	C14H13O+
197.1324	76	C15H17+
198.1369	16	C14[13]CH17+
199.1111	21	C14H15O+
199.1471	84	C15H19+
200.1185	7	C14H16O+
200.1539	20	C14[13]CH19+
201.1267	40	C14H17O+
201.1637	28	C15H21+
202.1303	13	C14H18O+
202.1635	7	C14[13]CH21+
203.1417	25	C14H19O+
203.1809	9	C15H23+
204.1439	7	C13[13]CH19O+
205.1025	8	C16H13+
206.1085	12	C16H14+
207.1167	46	C16H15+
208.1219	24	C16H16+
209.1312	48	C16H17+
210.1375	16	C16H18+
211.11	22	C15H15O+
211.1496	30	C16H19+
212.1191	7	C14[13]CH15O+
213.1264	34	C15H17O+
213.1635	30	C16H21+
215.1416	23	C15H19O+
215.1786	11	C16H23+
217.1541	9	C15H21O+
219.1152	8	C17H15+
221.1327	39	C17H17+
222.1367	15	C17H18+
223.1481	31	C17H19+
225.1269	35	C16H17O+
225.1622	66	C17H21+
226.1297	11	C15[13]CH17O+
226.1688	11	C16[13]CH21+
227.1417	21	C16H19O+
227.1796	142	C17H23+
228.1821	19	C16[13]CH23+
229.1572	10	C16H21O+
233.131	8	C18H17+
234.1394	8	C18H18+
235.148	38	C18H19+
236.155	18	C18H20+
237.1646	72	C18H21+
238.1679	17	C17[13]CH21+
239.1419	29	C17H19O+
239.1787	17	C18H23+
240.1475	9	C17H20O+
241.1592	14	C17H21O+
243.1745	18	C17H23O+
245.19	612	C17H25O+
246.1937	110	C16[13]CH25O+
247.198	14	C15[13]C2H25O+
248.1537	24	C19H20+
249.1641	29	C19H21+
251.1779	16	C19H23+
253.1579	20	C18H21O+
253.194	21	C19H25+
254.1655	11	C18H22O+
255.1742	13	C18H23O+
257.1872	7	C18H25O+
266.1657	25	C19H22O+
267.1744	35	C19H23O+
267.2092	14	C20H27+
270.1921	8	C19H26O+
277.1946	61	C21H25+
278.1952	15	C20[13]CH25+
284.1763	7	C19H24O2+
285.183	7	C19H25O2+
295.2048	197	C21H27O+
296.2111	33	C20[13]CH27O+
311.1973	6	C21H27O2+
313.2169	999	C21H29O2+
314.2201	240	C20[13]CH29O2+
315.2227	24	C19[13]C2H29O2+
