Mass spectrum: Drospirenone; LC-ESI-QTOF; MS2; CE: Ramp 22.9-34.4 eV; R=35000; [M+H]+
Name: Drospirenone
Name: (1R,2R,4R,10R,11S,14S,15S,16S,18S,19S)-10,14-dimethylspiro[hexacyclo[9.8.0.02,4.05,10.014,19.016,18]nonadec-5-ene-15,5`-oxolane]-2`,7-dione
Formula: C24H30O3
Exact mass: 366.2194948
SMILES: [H][C@@]12[C@@H]3C[C@@H]3[C@@]3(CCC(=O)O3)[C@@]1(C)CC[C@@]1([H])[C@@]2([H])[C@H]2C[C@H]2C2=CC(=O)CC[C@]12C
InChI: InChI=1S/C24H30O3/c1-22-6-3-12(25)9-17(22)13-10-14(13)20-16(22)4-7-23(2)21(20)15-11-18(15)24(23)8-5-19(26)27-24/h9,13-16,18,20-21H,3-8,10-11H2,1-2H3/t13-,14+,15-,16+,18+,20-,21+,22-,23+,24+/m1/s1
Instrument: Bruker maXis Impact
Instrument type: LC-ESI-QTOF
Ms type: MS2
Ion mode: POSITIVE
Ionization: ESI
Fragmentation mode: CID
Collision energy: Ramp 22.9-34.4 eV
Resolution: 35000
Column name: Acclaim RSLC C18 2.2um, 2.1x100mm, Thermo
Retention time: 9.549 min
Base peak: 367.2266
Precursor m/z: 367.2268
Precursor type: [M+H]+
m/z	relative intensity	assigned
55.0173	13	C3H3O+
55.0536	17	C4H7+
67.0536	86	C5H7+
68.0567	5	C4[13]CH7+
69.0327	10	C4H5O+
69.069	17	C5H9+
71.0482	8	C4H7O+
79.0537	70	C6H7+
80.0567	6	C5[13]CH7+
81.0693	94	C6H9+
82.0732	8	C5[13]CH9+
83.0487	167	C5H7O+
84.052	9	C4[13]CH7O+
85.0276	24	C4H5O2+
85.0649	8	C5H9O+
91.0544	54	C7H7+
92.0578	6	C6[13]CH7+
93.0702	159	C7H9+
94.073	13	C6[13]CH9+
95.0495	11	C6H7O+
95.0857	39	C7H11+
97.0654	705	C6H9O+
98.0685	43	C5[13]CH9O+
99.0446	14	C5H7O2+
105.0708	87	C8H9+
106.0738	8	C7[13]CH9+
107.0868	70	C8H11+
108.0898	8	C7[13]CH11+
109.0655	35	C7H9O+
109.102	8	C8H13+
111.0454	66	C6H7O2+
111.0814	13	C7H11O+
115.0533	9	C9H7+
117.0697	34	C9H9+
119.0852	73	C9H11+
120.0888	7	C8[13]CH11+
121.0642	36	C8H9O+
121.1009	14	C9H13+
123.0803	63	C8H11O+
124.084	5	C7[13]CH11O+
125.0595	14	C7H9O2+
128.0608	13	C10H8+
129.069	39	C10H9+
130.0742	5	C9[13]CH9+
131.0848	103	C10H11+
132.0883	13	C9[13]CH11+
133.0636	11	C9H9O+
133.1004	47	C10H13+
134.1034	6	C9[13]CH13+
135.0798	79	C9H11O+
135.1157	15	C10H15+
136.0839	9	C8[13]CH11O+
137.0947	11	C9H13O+
141.0686	17	C11H9+
142.0754	10	C11H10+
143.0846	97	C11H11+
144.0888	15	C10[13]CH11+
145.0641	7	C10H9O+
145.1	95	C11H13+
146.1044	11	C10[13]CH13+
147.0795	81	C10H11O+
147.1158	19	C11H15+
148.0832	8	C9[13]CH11O+
149.0953	110	C10H13O+
150.0987	12	C9[13]CH13O+
151.0738	22	C9H11O2+
151.1111	5	C10H15O+
153.0903	50	C9H13O2+
155.0842	47	C12H11+
156.0904	14	C12H12+
157.0998	114	C12H13+
158.1037	14	C11[13]CH13+
159.0795	83	C11H11O+
159.1157	96	C12H15+
160.0833	10	C10[13]CH11O+
160.1193	12	C11[13]CH15+
161.095	34	C11H13O+
161.1321	10	C12H17+
162.0998	5	C10[13]CH13O+
163.0739	7	C10H11O2+
163.1105	15	C11H15O+
165.0899	25	C10H13O2+
167.0848	11	C13H11+
167.1049	8	C10H15O2+
168.0926	6	C13H12+
169.1	64	C13H13+
170.1049	9	C12[13]CH13+
171.0791	13	C12H11O+
171.1155	160	C13H15+
172.1198	22	C12[13]CH15+
173.0953	55	C12H13O+
173.1312	28	C13H17+
174.0992	6	C11[13]CH13O+
175.1102	31	C12H15O+
176.1153	5	C11[13]CH15O+
177.09	105	C11H13O2+
177.1265	10	C12H17O+
178.0932	11	C10[13]CH13O2+
179.0841	9	C14H11+
179.1049	11	C11H15O2+
181.1003	28	C14H13+
182.1064	8	C14H14+
183.0788	5	C13H11O+
183.1158	61	C14H15+
184.1199	13	C13[13]CH15+
185.095	39	C13H13O+
185.1314	57	C14H17+
186.0991	6	C12[13]CH13O+
186.136	8	C13[13]CH17+
187.1105	37	C13H15O+
187.1461	9	C14H19+
188.1151	5	C12[13]CH15O+
189.1261	35	C13H17O+
190.1281	6	C12[13]CH17O+
191.1058	23	C12H15O2+
193.0997	17	C15H13+
194.1064	5	C15H14+
195.1157	68	C15H15+
196.1212	12	C14[13]CH15+
197.0948	15	C14H13O+
197.132	119	C15H17+
198.1359	25	C14[13]CH17+
199.1107	35	C14H15O+
199.1477	16	C15H19+
200.114	7	C13[13]CH15O+
201.1259	42	C14H17O+
202.13	7	C13[13]CH17O+
203.1057	16	C13H15O2+
203.1425	7	C14H19O+
205.1001	5	C16H13+
205.1211	11	C13H17O2+
207.1156	20	C16H15+
209.0953	5	C15H13O+
209.131	38	C16H17+
210.1366	7	C15[13]CH17+
211.111	23	C15H15O+
211.1474	40	C16H19+
212.1162	5	C14[13]CH15O+
212.1515	8	C15[13]CH19+
213.1264	40	C15H17O+
213.1622	5	C16H21+
214.1302	9	C14[13]CH17O+
215.1063	10	C14H15O2+
215.1417	49	C15H19O+
216.1453	5	C14[13]CH19O+
217.1221	23	C14H17O2+
218.1243	5	C13[13]CH17O2+
219.1167	8	C17H15+
219.1372	47	C14H19O2+
220.14	6	C13[13]CH19O2+
221.132	50	C17H17+
222.1365	11	C16[13]CH17+
223.1104	6	C16H15O+
223.147	25	C17H19+
224.1523	5	C16[13]CH19+
225.1267	24	C16H17O+
225.1625	13	C17H21+
227.1066	5	C15H15O2+
227.1421	25	C16H19O+
228.147	7	C16H20O+
229.1218	13	C15H17O2+
229.1576	8	C16H21O+
231.1374	70	C15H19O2+
232.1421	14	C14[13]CH19O2+
233.1322	13	C18H17+
234.1368	5	C18H18+
235.1475	30	C18H19+
236.1514	7	C17[13]CH19+
237.1256	14	C17H17O+
237.1622	10	C18H21+
238.1319	5	C17H18O+
239.1423	73	C17H19O+
240.1465	15	C16[13]CH19O+
241.1224	6	C16H17O2+
241.1572	14	C17H21O+
243.1388	11	C16H19O2+
243.1734	6	C17H23O+
245.1536	10	C16H21O2+
247.1471	17	C19H19+
249.1263	6	C18H17O+
249.163	15	C19H21+
250.1681	5	C19H22+
251.1432	18	C18H19O+
251.1785	8	C19H23+
253.1578	35	C18H21O+
254.1616	7	C17[13]CH21O+
255.1372	13	C17H19O2+
255.1747	6	C18H23O+
257.1529	78	C17H21O2+
258.1576	22	C16[13]CH21O2+
259.1645	6	C17H23O2+
261.1627	11	C20H21+
263.1403	5	C19H19O+
263.1779	7	C20H23+
265.1582	13	C19H21O+
265.193	6	C20H25+
267.1379	7	C18H19O2+
267.1739	16	C19H23O+
268.1775	5	C18[13]CH23O+
269.1531	12	C18H21O2+
269.1894	6	C19H25O+
271.1689	9	C18H23O2+
275.1417	5	C20H19O+
275.1788	7	C21H23+
276.1839	5	C21H24+
277.1568	6	C20H21O+
279.1731	17	C20H23O+
281.1536	14	C19H21O2+
283.1684	15	C19H23O2+
285.1822	9	C19H25O2+
287.1782	7	C22H23+
289.1591	8	C21H21O+
289.1944	27	C22H25+
290.1975	6	C21[13]CH25+
291.1744	7	C21H23O+
293.1528	11	C20H21O2+
293.1874	5	C21H25O+
295.1695	45	C20H23O2+
296.1726	11	C19[13]CH23O2+
303.1718	6	C22H23O+
303.2101	7	C23H27+
305.1898	14	C22H25O+
307.1698	7	C21H23O2+
307.2056	53	C22H27O+
308.2076	12	C21[13]CH27O+
309.1845	10	C21H25O2+
311.2	21	C21H27O2+
313.1938	10	C24H25+
321.185	6	C22H25O2+
321.2201	24	C23H29O+
323.2007	6	C22H27O2+
325.2165	12	C22H29O2+
331.2054	41	C24H27O+
332.2085	9	C23[13]CH27O+
349.2168	119	C24H29O2+
350.2194	36	C23[13]CH29O2+
367.2272	999	C24H31O3+
368.2306	317	C23[13]CH31O3+
369.2334	33	C22[13]C2H31O3+
