Mass spectrum: Carboline; LC-ESI-QTOF; MS2; CE: Ramp 20-30 eV; R=35000; [M+H]+
Name: Carboline
Name: 9H-pyrido[2,3-b]indole
Formula: C11H8N2
Exact mass: 168.0687483
SMILES: N1C2=C(C=CC=C2)C2=C1N=CC=C2
InChI: InChI=1S/C11H8N2/c1-2-6-10-8(4-1)9-5-3-7-12-11(9)13-10/h1-7H,(H,12,13)
Instrument: Bruker maXis Impact
Instrument type: LC-ESI-QTOF
Ms type: MS2
Ion mode: POSITIVE
Ionization: ESI
Fragmentation mode: CID
Collision energy: Ramp 20-30 eV
Resolution: 35000
Column name: Acclaim RSLC C18 2.2um, 2.1x100mm, Thermo
Retention time: 8.695 min
Base peak: 169.076
Precursor m/z: 169.076
Precursor type: [M+H]+
m/z	relative intensity	assigned
115.0546	15	C9H7+
140.0489	6	C10H6N+
142.0645	15	C10H8N+
168.0676	103	C11H8N2+
169.0759	999	C11H9N2+
170.0785	150	C10[13]CH9N2+
171.0815	5	C9[13]C2H9N2+
