Mass spectrum: Betamethasone dipropionate; LC-ESI-QTOF; MS2; CE: 30 eV; R=35000; [M+H]+
Name: Betamethasone dipropionate
Name: CIWBQSYVNNPZIQ-UHFFFAOYSA-N
Name: [2-(9-fluoro-11-hydroxy-10,13,16-trimethyl-3-oxo-17-propanoyloxy-6,7,8,11,12,14,15,16-octahydrocyclopenta[a]phenanthren-17-yl)-2-oxoethyl] propanoate
Formula: C28H37FO7
Exact mass: 504.2523317
SMILES: CCC(=O)OCC(=O)C1(OC(=O)CC)C(C)CC2C3CCC4=CC(=O)C=CC4(C)C3(F)C(O)CC12C
InChI: InChI=1S/C28H37FO7/c1-6-23(33)35-15-22(32)28(36-24(34)7-2)16(3)12-20-19-9-8-17-13-18(30)10-11-25(17,4)27(19,29)21(31)14-26(20,28)5/h10-11,13,16,19-21,31H,6-9,12,14-15H2,1-5H3
Instrument: Bruker maXis Impact
Instrument type: LC-ESI-QTOF
Ms type: MS2
Ion mode: POSITIVE
Ionization: ESI
Fragmentation mode: CID
Collision energy: 30 eV
Resolution: 35000
Column name: Acclaim RSLC C18 2.2um, 2.1x100mm, Thermo
Retention time: 11.317 min
Base peak: 505.2597
Precursor m/z: 505.2596
Precursor type: [M+H]+
m/z	relative intensity	assigned
115.0542	5	C9H7+
119.0848	25	C9H11+
121.0637	30	C8H9O+
121.1004	18	C9H13+
123.0796	32	C8H11O+
128.0622	5	C10H8+
131.0845	17	C10H11+
133.0635	11	C9H9O+
133.1003	62	C10H13+
134.104	9	C9[13]CH13+
135.0795	136	C9H11O+
136.0824	14	C8[13]CH11O+
137.096	25	C9H13O+
143.0845	12	C11H11+
145.0638	19	C10H9O+
145.1009	15	C11H13+
147.0794	275	C10H11O+
148.0827	24	C9[13]CH11O+
149.0949	74	C10H13O+
150.0978	9	C9[13]CH13O+
151.0737	17	C9H11O2+
151.1103	22	C10H15O+
153.09	145	C9H13O2+
154.0933	16	C8[13]CH13O2+
155.0839	7	C12H11+
157.0997	14	C12H13+
158.071	7	C11H10O+
159.0794	120	C11H11O+
159.1162	6	C12H15+
160.0827	15	C10[13]CH11O+
161.059	13	C10H9O2+
161.0949	68	C11H13O+
162.0978	10	C10[13]CH13O+
163.075	12	C10H11O2+
163.1106	7	C11H15O+
165.09	17	C10H13O2+
167.1055	121	C10H15O2+
168.1089	13	C9[13]CH15O2+
169.0643	16	C12H9O+
169.1009	5	C13H13+
171.0793	210	C12H11O+
171.1148	13	C13H15+
172.083	24	C11[13]CH11O+
173.0948	120	C12H13O+
174.0977	21	C11[13]CH13O+
175.0745	6	C11H11O2+
175.1106	12	C12H15O+
177.09	51	C11H13O2+
178.0944	6	C10[13]CH13O2+
179.1054	8	C11H15O2+
183.0792	16	C13H11O+
183.1163	5	C14H15+
185.0584	14	C12H9O2+
185.0951	233	C13H13O+
186.0984	40	C12[13]CH13O+
187.0745	119	C12H11O2+
187.1099	30	C13H15O+
188.0774	20	C11[13]CH11O2+
189.0903	21	C12H13O2+
191.1061	6	C12H15O2+
195.0791	7	C14H11O+
195.1012	10	C11H15O3+
197.0957	50	C14H13O+
198.1002	10	C13[13]CH13O+
199.0739	18	C13H11O2+
199.1104	31	C14H15O+
201.0892	9	C13H13O2+
201.1278	7	C14H17O+
203.1062	36	C13H15O2+
208.088	6	C15H12O+
209.0949	30	C15H13O+
209.1165	12	C12H17O3+
210.102	8	C15H14O+
211.0746	10	C14H11O2+
211.111	37	C15H15O+
212.116	10	C15H16O+
213.0912	15	C14H13O2+
213.1271	45	C15H17O+
214.1289	6	C14[13]CH17O+
215.1053	14	C14H15O2+
221.096	47	C16H13O+
221.116	7	C13H17O3+
222.0997	12	C15[13]CH13O+
223.1105	70	C16H15O+
223.1315	18	C13H19O3+
224.1161	21	C16H16O+
225.0912	7	C15H13O2+
225.127	26	C16H17O+
226.1305	7	C15[13]CH17O+
227.1061	11	C15H15O2+
227.1418	6	C16H19O+
229.122	8	C15H17O2+
231.1161	9	C18H15+
233.117	7	C14H17O3+
233.1345	6	C15H18FO+
234.1029	5	C17H14O+
235.1106	43	C17H15O+
236.1154	12	C16[13]CH15O+
237.0896	8	C16H13O2+
237.1269	46	C17H17O+
237.1631	10	C18H21+
238.1312	11	C16[13]CH17O+
239.1067	37	C16H15O2+
239.1424	26	C17H19O+
240.1095	10	C15[13]CH15O2+
240.1459	5	C16[13]CH19O+
241.1214	15	C16H17O2+
241.1582	5	C17H21O+
243.1023	8	C12H16FO4+
243.1153	5	C19H15+
245.1313	7	C19H17+
246.1022	6	C18H14O+
247.1106	11	C18H15O+
248.1178	16	C18H16O+
249.1262	70	C18H17O+
249.1634	9	C19H21+
250.1316	17	C17[13]CH17O+
251.1064	7	C17H15O2+
251.1417	32	C18H19O+
252.1472	11	C18H20O+
253.1218	11	C17H17O2+
253.1589	38	C18H21O+
254.1619	7	C17[13]CH21O+
255.1361	7	C17H19O2+
258.1402	5	C20H18+
259.1098	16	C19H15O+
259.1467	12	C20H19+
260.1169	12	C19H16O+
261.1267	72	C19H17O+
261.1638	9	C20H21+
262.1331	33	C19H18O+
262.1679	6	C20H22+
263.1064	13	C18H15O2+
263.1421	199	C19H19O+
264.1112	6	C18H16O2+
264.1475	45	C18[13]CH19O+
265.1573	32	C16H22FO2+
266.1638	7	C15[13]CH22FO2+
267.1385	14	C15H20FO3+
267.1734	21	C19H23O+
268.178	5	C18[13]CH23O+
272.1197	17	C20H16O+
273.1263	17	C20H17O+
273.1633	21	C21H21+
274.1324	8	C20H18O+
275.1425	113	C20H19O+
276.1485	66	C20H20O+
277.122	27	C19H17O2+
277.1578	297	C20H21O+
278.1646	173	C20H22O+
279.1741	999	C20H23O+
280.1423	10	C19H20O2+
280.1774	199	C19[13]CH23O+
281.1534	22	C19H21O2+
281.1858	29	C18[13]C2H23O+
282.1567	6	C18[13]CH21O2+
283.1478	10	C22H19+
286.1347	32	C21H18O+
287.1394	14	C21H19O+
289.1578	72	C21H21O+
290.1292	14	C20H18O2+
290.1611	17	C20[13]CH21O+
291.1742	565	C21H23O+
292.1777	127	C20[13]CH23O+
293.1537	30	C20H21O2+
293.1802	13	C19[13]C2H23O+
294.1573	9	C19[13]CH21O2+
295.1341	11	C16H20FO4+
295.169	89	C20H23O2+
296.1742	37	C20H24O2+
297.1834	32	C20H25O2+
298.1866	10	C19[13]CH25O2+
301.1581	357	C22H21O+
302.1619	78	C21[13]CH21O+
303.1365	5	C21H19O2+
303.1637	12	C20[13]C2H21O+
304.1453	18	C21H20O2+
305.1516	10	C21H21O2+
306.1594	23	C21H22O2+
307.1683	58	C21H23O2+
308.1724	14	C20[13]CH23O2+
309.1851	135	C21H25O2+
310.1869	24	C20[13]CH25O2+
311.1637	20	C20H23O3+
312.1678	6	C19[13]CH23O3+
317.1561	5	C19H22FO3+
319.1693	589	C22H23O2+
320.1722	127	C21[13]CH23O2+
321.1724	19	C20[13]C2H23O2+
325.18	26	C21H25O3+
326.1838	5	C20[13]CH25O3+
327.1971	14	C18H28FO4+
335.1647	5	C22H23O3+
335.2022	6	C20H28FO3+
337.1799	472	C22H25O3+
338.1831	118	C21[13]CH25O3+
339.1819	19	C20[13]C2H25O3+
340.1675	6	C18H25FO5+
351.195	10	C23H27O3+
355.1903	237	C22H27O4+
356.1938	56	C21[13]CH27O4+
357.1903	22	C18H29O7+
358.1889	6	C25H26O2+
365.2131	8	C21H30FO4+
367.1926	6	C20H28FO5+
375.1953	30	C25H27O3+
376.197	7	C24[13]CH27O3+
393.2053	93	C25H29O4+
394.2093	27	C24[13]CH29O4+
411.2164	25	C25H31O5+
412.2185	6	C24[13]CH31O5+
