Mass spectrum: Amidosulfobetaine-14; LC-ESI-QTOF; MS2; CE: 10 eV; R=35000; [M+H]+
Name: Amidosulfobetaine-14
Name: dimethyl-(3-sulfopropyl)-[3-(tetradecanoylamino)propyl]azanium
Formula: [C22H47N2O4S]+
Exact mass: 435.3256540
SMILES: CCCCCCCCCCCCCC(=O)NCCC[N+](C)(C)CCCS(O)(=O)=O
InChI: InChI=1S/C22H46N2O4S/c1-4-5-6-7-8-9-10-11-12-13-14-17-22(25)23-18-15-19-24(2,3)20-16-21-29(26,27)28/h4-21H2,1-3H3,(H-,23,25,26,27,28)/p+1
Instrument: Bruker maXis Impact
Instrument type: LC-ESI-QTOF
Ms type: MS2
Ion mode: POSITIVE
Ionization: ESI
Fragmentation mode: CID
Collision energy: 10 eV
Resolution: 35000
Column name: Acclaim RSLC C18 2.2um, 2.1x100mm, Thermo
Retention time: 15.014 min
Base peak: 716.2282
Precursor m/z: 436.3329
Precursor type: [M+H]+
m/z	relative intensity	assigned
181.0694	31	C10H13OS+
237.0783	999	C15H11NO2+
238.0787	364	C19H10+
239.0772	199	C18H9N+
239.1474	22	C14H23OS+
240.0759	33	C17[13]CH9N+
385.1153	213	C20H21N2O4S+
399.3294	26	C19H47N2O4S+
436.3332	33	C22H48N2O4S+
