Mass spectrum: Betamethasone dipropionate; LC-ESI-QTOF; MS2; CE: 40 eV; R=35000; [M+H]+
Name: Betamethasone dipropionate
Name: CIWBQSYVNNPZIQ-UHFFFAOYSA-N
Name: [2-(9-fluoro-11-hydroxy-10,13,16-trimethyl-3-oxo-17-propanoyloxy-6,7,8,11,12,14,15,16-octahydrocyclopenta[a]phenanthren-17-yl)-2-oxoethyl] propanoate
Formula: C28H37FO7
Exact mass: 504.2523317
SMILES: CCC(=O)OCC(=O)C1(OC(=O)CC)C(C)CC2C3CCC4=CC(=O)C=CC4(C)C3(F)C(O)CC12C
InChI: InChI=1S/C28H37FO7/c1-6-23(33)35-15-22(32)28(36-24(34)7-2)16(3)12-20-19-9-8-17-13-18(30)10-11-25(17,4)27(19,29)21(31)14-26(20,28)5/h10-11,13,16,19-21,31H,6-9,12,14-15H2,1-5H3
Instrument: Bruker maXis Impact
Instrument type: LC-ESI-QTOF
Ms type: MS2
Ion mode: POSITIVE
Ionization: ESI
Fragmentation mode: CID
Collision energy: 40 eV
Resolution: 35000
Column name: Acclaim RSLC C18 2.2um, 2.1x100mm, Thermo
Retention time: 11.334 min
Base peak: 505.2594
Precursor m/z: 505.2596
Precursor type: [M+H]+
m/z	relative intensity	assigned
115.0535	18	C9H7+
117.0701	12	C9H9+
119.0846	71	C9H11+
120.0885	6	C8[13]CH11+
121.064	123	C8H9O+
121.1006	45	C9H13+
122.0677	10	C7[13]CH9O+
123.0794	72	C8H11O+
123.1157	7	C9H15+
124.0825	8	C7[13]CH11O+
125.0587	9	C7H9O2+
125.0957	7	C8H13O+
128.0615	29	C10H8+
129.0678	15	C10H9+
131.0477	6	C9H7O+
131.0848	57	C10H11+
132.0561	11	C9H8O+
133.0634	34	C9H9O+
133.1005	130	C10H13+
134.1034	20	C9[13]CH13+
135.0797	327	C9H11O+
136.0831	39	C8[13]CH11O+
137.0947	46	C9H13O+
138.0985	7	C8[13]CH13O+
139.1128	6	C6H16FO2+
141.0692	24	C11H9+
142.0766	15	C11H10+
143.0841	69	C11H11+
144.0564	11	C10H8O+
144.0881	11	C10[13]CH11+
145.0636	69	C10H9O+
145.1007	66	C11H13+
146.1042	6	C10[13]CH13+
147.0796	713	C10H11O+
148.0827	79	C9[13]CH11O+
149.095	153	C10H13O+
150.0988	22	C9[13]CH13O+
151.074	27	C9H11O2+
151.1104	22	C10H15O+
153.09	180	C9H13O2+
154.0933	19	C8[13]CH13O2+
155.0592	5	CH12FO7+
155.0843	25	C12H11+
156.0566	5	C11H8O+
156.0912	6	C12H12+
157.0659	11	C8H10FO2+
157.1	52	C12H13+
158.072	30	C11H10O+
158.104	8	C11[13]CH13+
159.0793	332	C11H11O+
159.1154	23	C12H15+
160.0829	48	C10[13]CH11O+
161.0584	39	C10H9O2+
161.0951	174	C11H13O+
162.0989	21	C10[13]CH13O+
163.0743	25	C10H11O2+
163.1104	13	C11H15O+
164.0794	5	C10H12O2+
165.0696	9	C13H9+
165.0895	43	C10H13O2+
166.0926	6	C9[13]CH13O2+
167.086	12	C13H11+
167.1053	195	C10H15O2+
168.109	33	C9[13]CH15O2+
169.0635	45	C12H9O+
169.1004	24	C13H13+
170.0707	15	C12H10O+
170.11	6	C10H15FO+
171.0795	539	C12H11O+
171.116	29	C13H15+
172.0829	85	C11[13]CH11O+
173.0949	287	C12H13O+
174.0985	44	C11[13]CH13O+
175.0758	15	C11H11O2+
175.0893	6	C12H12F+
175.1097	45	C12H15O+
176.1155	9	C12H16O+
177.0903	66	C11H13O2+
177.1264	7	C12H17O+
178.0764	11	C14H10+
179.085	19	C14H11+
179.1068	11	C11H15O2+
180.0908	6	C14H12+
181.0627	9	C13H9O+
181.1005	14	C14H13+
182.0715	9	C13H10O+
182.1073	7	C14H14+
183.0796	40	C13H11O+
183.1156	16	C14H15+
184.0843	11	C13H12O+
185.0953	396	C13H13O+
186.064	6	C12H10O2+
186.0991	59	C12[13]CH13O+
187.0744	288	C12H11O2+
187.1111	56	C13H15O+
188.0777	41	C11[13]CH11O2+
188.1151	11	C12[13]CH15O+
189.0744	5	C8H13O5+
189.0896	39	C12H13O2+
189.1278	7	C13H17O+
190.0744	9	C15H10+
191.0856	16	C15H11+
191.1044	13	C12H15O2+
192.0911	5	C15H12+
193.1005	23	C15H13+
194.0707	6	C14H10O+
194.104	5	C14[13]CH13+
195.0793	32	C14H11O+
195.1013	13	C11H15O3+
195.1157	20	C15H15+
196.0857	16	C14H12O+
197.0944	137	C14H13O+
198.1004	34	C13[13]CH13O+
199.0738	36	C13H11O2+
199.1105	71	C14H15O+
200.077	6	C12[13]CH11O2+
200.116	14	C13[13]CH15O+
201.0906	21	C13H13O2+
201.126	17	C14H17O+
203.0747	6	C9H12FO4+
203.0853	9	C16H11+
203.1058	51	C13H15O2+
204.093	10	C16H12+
204.1081	9	C12[13]CH15O2+
205.1	20	C16H13+
206.0715	5	C15H10O+
206.1064	7	C16H14+
207.0785	12	C15H11O+
207.1159	18	C16H15+
208.0874	28	C15H12O+
208.1197	9	C16H16+
209.0956	130	C15H13O+
209.1286	9	C16H17+
210.103	34	C14[13]CH13O+
211.0748	18	C14H11O2+
211.1107	132	C15H15O+
212.1158	30	C14[13]CH15O+
213.0896	30	C14H13O2+
213.1261	111	C15H17O+
214.0945	5	C13[13]CH13O2+
214.1296	25	C14[13]CH17O+
215.0826	7	C17H11+
215.1047	25	C14H15O2+
216.0946	13	C14H13FO+
216.1096	6	C13[13]CH15O2+
217.0995	15	C17H13+
217.1185	5	C14H17O2+
218.1078	9	C17H14+
219.0809	13	C16H11O+
219.115	19	C17H15+
220.087	12	C16H12O+
220.122	8	C17H16+
221.0955	155	C16H13O+
221.1309	15	C17H17+
222.1008	59	C16H14O+
223.1108	237	C16H15O+
224.1159	54	C15[13]CH15O+
225.091	21	C15H13O2+
225.126	57	C13H18FO2+
226.0955	7	C15H14O2+
226.1331	14	C12[13]CH18FO2+
227.1056	22	C15H15O2+
227.1412	16	C16H19O+
228.0932	5	C18H12+
229.0841	6	C14H13O3+
229.0994	14	C18H13+
229.1204	15	C15H17O2+
230.108	23	C18H14+
231.0795	5	C17H11O+
231.0853	5	C14H12FO2+
231.1155	40	C18H15+
232.0862	9	C17H12O+
232.1232	13	C18H16+
233.0945	25	C17H13O+
233.1324	16	C18H17+
234.1032	47	C17H14O+
234.1376	5	C18H18+
235.1106	153	C17H15O+
235.1465	19	C18H19+
236.1162	57	C17H16O+
236.1523	13	C18H20+
237.0884	12	C16H13O2+
237.1267	126	C17H17O+
237.1634	17	C18H21+
238.0945	5	C16H14O2+
238.1313	28	C16[13]CH17O+
239.1063	72	C16H15O2+
239.1414	52	C17H19O+
240.1094	12	C15[13]CH15O2+
240.1473	11	C16[13]CH19O+
241.0976	6	C19H13+
241.1213	42	C16H17O2+
241.1571	11	C17H21O+
242.1064	10	C19H14+
242.1245	11	C15[13]CH17O2+
243.1167	21	C19H15+
244.1235	21	C19H16+
245.0959	18	C18H13O+
245.1323	31	C19H17+
246.1021	32	C18H14O+
246.1367	16	C19H18+
247.1103	39	C18H15O+
247.1491	22	C16H20FO+
248.1186	97	C18H16O+
248.1536	8	C19H20+
249.1269	198	C15H18FO2+
249.1629	24	C19H21+
250.0995	7	C14H15FO3+
250.133	47	C14[13]CH18FO2+
250.1692	8	C18[13]CH21+
251.1064	19	C17H15O2+
251.1425	80	C18H19O+
251.1776	9	C19H23+
252.1084	5	C16[13]CH15O2+
252.1456	23	C17[13]CH19O+
253.0998	5	C20H13+
253.1207	22	C17H17O2+
253.1586	88	C18H21O+
254.1251	5	C16[13]CH17O2+
254.1612	13	C17[13]CH21O+
255.1171	5	C20H15+
255.1374	9	C17H19O2+
257.0963	6	C19H13O+
257.1325	21	C20H17+
258.1039	12	C19H14O+
258.1399	28	C20H18+
259.1112	50	C19H15O+
259.1465	37	C20H19+
260.1188	59	C19H16O+
260.1527	12	C19[13]CH19+
261.1265	178	C19H17O+
261.1618	39	C20H21+
262.0999	10	C15H15FO3+
262.1338	172	C19H18O+
262.1683	15	C20H22+
263.106	35	C18H15O2+
263.1425	429	C19H19O+
264.1126	13	C18H16O2+
264.1477	177	C19H20O+
265.1214	10	C18H17O2+
265.1566	58	C18[13]CH20O+
266.164	21	C19H22O+
267.102	9	C17H15O3+
267.1367	26	C18H19O2+
267.1732	32	C19H23O+
268.1216	8	C21H16+
268.1418	10	C18H20O2+
268.1786	9	C18[13]CH23O+
269.1317	11	C21H17+
271.1102	38	C20H15O+
271.1448	9	C21H19+
272.1191	65	C20H16O+
273.1254	44	C20H17O+
273.1628	50	C21H21+
274.1345	41	C20H18O+
274.1668	16	C20[13]CH21+
275.1069	11	C19H15O2+
275.1424	164	C20H19O+
276.1126	14	C19H16O2+
276.1502	207	C20H20O+
277.1217	55	C19H17O2+
277.1579	428	C20H21O+
278.1263	23	C19H18O2+
278.1651	357	C20H22O+
279.1738	999	C20H23O+
280.1775	214	C19[13]CH23O+
281.1535	53	C19H21O2+
281.1851	28	C18[13]C2H23O+
282.1582	11	C18[13]CH21O2+
283.1473	17	C19H20FO+
283.1688	5	C19H23O2+
284.1541	6	C18[13]CH20FO+
285.1261	11	C21H17O+
286.1342	151	C21H18O+
287.1393	41	C20[13]CH18O+
288.1196	5	C13H20O7+
288.1488	12	C21H20O+
289.1214	28	C20H17O2+
289.1584	114	C21H21O+
290.1299	51	C20H18O2+
290.163	32	C20[13]CH21O+
291.1364	46	C20H19O2+
291.1738	617	C21H23O+
292.14	12	C19[13]CH19O2+
292.1772	143	C20[13]CH23O+
293.1526	36	C20H21O2+
293.1799	23	C19[13]C2H23O+
294.1565	17	C20H22O2+
295.1349	13	C16H20FO4+
295.1687	111	C20H23O2+
296.1367	5	C19H20O3+
296.1744	60	C20H24O2+
297.1819	31	C17H26FO3+
298.1914	8	C16[13]CH26FO3+
301.1586	344	C22H21O+
302.1618	94	C21[13]CH21O+
303.137	10	C21H19O2+
303.1647	14	C20[13]C2H21O+
304.1464	51	C18H21FO3+
305.1512	24	C21H21O2+
306.1616	57	C21H22O2+
307.1684	79	C21H23O2+
308.1726	35	C21H24O2+
309.1456	5	C20H21O3+
309.1845	82	C21H25O2+
310.1876	21	C20[13]CH25O2+
311.164	31	C20H23O3+
312.1688	10	C19[13]CH23O3+
313.169	5	C13H26FO7+
317.1552	7	C19H22FO3+
319.1693	332	C22H23O2+
320.1721	93	C21[13]CH23O2+
321.1516	10	C18H22FO4+
321.1755	12	C20[13]C2H23O2+
325.1797	25	C21H25O3+
327.1931	10	C21H27O3+
328.2033	5	C21H28O3+
337.1799	219	C22H25O3+
338.1822	85	C21[13]CH25O3+
339.1799	11	C18H27O6+
345.1926	5	C17H29O7+
351.1616	6	C19H24FO5+
355.1885	54	C22H27O4+
356.193	13	C21[13]CH27O4+
357.1873	11	C22H26FO3+
375.1978	14	C25H27O3+
376.2011	6	C24[13]CH27O3+
393.2098	15	C22H30FO5+
394.2139	5	C21[13]CH30FO5+
