Mass spectrum: Testosterone; LC-ESI-QTOF; MS2; CE: 30 eV; R=35000; [M+H]+
Name: Testosterone
Name: (8R,9S,10R,13S,14S,17S)-17-hydroxy-10,13-dimethyl-1,2,6,7,8,9,11,12,14,15,16,17-dodecahydrocyclopenta[a]phenanthren-3-one
Formula: C19H28O2
Exact mass: 288.2089301
SMILES: C[C@]12CC[C@H]3[C@@H](CCC4=CC(=O)CC[C@]34C)[C@@H]1CC[C@@H]2O
InChI: InChI=1S/C19H28O2/c1-18-9-7-13(20)11-12(18)3-4-14-15-5-6-17(21)19(15,2)10-8-16(14)18/h11,14-17,21H,3-10H2,1-2H3/t14-,15-,16-,17-,18-,19-/m0/s1
Instrument: Bruker maXis Impact
Instrument type: LC-ESI-QTOF
Ms type: MS2
Ion mode: POSITIVE
Ionization: ESI
Fragmentation mode: CID
Collision energy: 30 eV
Resolution: 35000
Column name: Acclaim RSLC C18 2.2um, 2.1x100mm, Thermo
Retention time: 9.844 min
Base peak: 289.2168
Precursor m/z: 289.2162
Precursor type: [M+H]+
m/z	relative intensity	assigned
109.0647	85	C7H9O+
115.0533	28	C9H7+
117.0693	49	C9H9+
119.0845	235	C9H11+
120.0873	24	C8[13]CH11+
121.0643	129	C8H9O+
121.1005	165	C9H13+
122.0677	19	C7[13]CH9O+
122.1041	20	C8[13]CH13+
123.0796	892	C8H11O+
124.0832	73	C7[13]CH11O+
125.0956	13	C8H13O+
128.0622	41	C10H8+
129.0696	73	C10H9+
130.0765	28	C10H10+
131.0842	270	C10H11+
132.0889	29	C9[13]CH11+
133.0662	28	C9H9O+
133.1001	341	C10H13+
134.1051	39	C9[13]CH13+
135.0792	52	C9H11O+
135.1157	191	C10H15+
136.1196	29	C9[13]CH15+
137.0944	69	C9H13O+
137.1319	17	C10H17+
141.0693	45	C11H9+
142.0762	35	C11H10+
143.0846	182	C11H11+
144.0905	31	C10[13]CH11+
145.1002	513	C11H13+
146.1044	56	C10[13]CH13+
147.0788	49	C10H11O+
147.1157	567	C11H15+
148.1191	51	C10[13]CH15+
149.095	140	C10H13O+
149.1314	135	C11H17+
150.1001	14	C9[13]CH13O+
150.1339	20	C10[13]CH17+
151.111	39	C10H15O+
155.0841	79	C12H11+
157.1005	299	C12H13+
158.1026	48	C11[13]CH13+
159.1155	562	C12H15+
160.1186	74	C11[13]CH15+
161.0951	108	C11H13O+
161.1313	410	C12H17+
162.1005	20	C11H14O+
162.1345	51	C11[13]CH17+
163.1107	234	C11H15O+
163.1474	143	C12H19+
164.115	31	C10[13]CH15O+
164.1493	20	C11[13]CH19+
165.1259	41	C11H17O+
168.0912	14	C13H12+
169.1006	121	C13H13+
170.1054	18	C12[13]CH13+
171.1156	270	C13H15+
172.1194	59	C12[13]CH15+
173.0951	12	C12H13O+
173.1312	231	C13H17+
174.1348	41	C12[13]CH17+
175.1107	101	C12H15O+
175.1468	479	C13H19+
176.1142	19	C11[13]CH15O+
176.1505	60	C12[13]CH19+
177.1264	332	C12H17O+
178.1296	48	C11[13]CH17O+
179.1392	25	C12H19O+
181.1019	15	C14H13+
183.1153	129	C14H15+
184.1222	39	C14H16+
185.1321	209	C14H17+
186.1352	34	C13[13]CH17+
187.147	404	C14H19+
188.1517	95	C13[13]CH19+
189.1262	101	C13H17O+
189.1623	147	C14H21+
190.13	18	C12[13]CH17O+
190.1652	29	C13[13]CH21+
191.142	61	C13H19O+
192.1465	16	C13H20O+
193.1577	33	C13H21O+
196.1219	11	C15H16+
197.1317	287	C15H17+
198.1362	75	C14[13]CH17+
199.1475	281	C15H19+
200.1516	51	C14[13]CH19+
201.1276	44	C14H17O+
201.163	206	C15H21+
202.1652	42	C14[13]CH21+
203.1408	48	C14H19O+
205.1591	24	C14H21O+
211.1475	208	C16H19+
212.1512	52	C15[13]CH19+
213.1627	399	C16H21+
214.1658	80	C15[13]CH21+
215.1427	122	C15H19O+
215.1763	23	C16H23+
216.147	20	C14[13]CH19O+
217.1585	85	C15H21O+
218.1601	14	C14[13]CH21O+
219.1734	38	C15H23O+
220.1785	11	C14[13]CH23O+
223.1508	13	C17H19+
224.1544	22	C17H20+
225.164	105	C17H21+
226.1666	23	C16[13]CH21+
227.1787	128	C17H23+
228.1826	27	C16[13]CH23+
229.1593	38	C16H21O+
229.1951	46	C17H25+
230.1611	13	C16H22O+
231.1743	38	C16H23O+
238.1701	27	C18H22+
243.1756	30	C17H23O+
243.2118	38	C18H27+
245.1894	80	C17H25O+
246.1952	16	C16[13]CH25O+
253.1944	788	C19H25+
254.1979	149	C18[13]CH25+
255.203	22	C17[13]C2H25+
256.1864	14	C18H24O+
271.2054	483	C19H27O+
272.2093	143	C18[13]CH27O+
287.1941	12	C19H27O2+
289.2159	999	C19H29O2+
290.2189	279	C18[13]CH29O2+
291.222	28	C17[13]C2H29O2+
