Mass spectrum: 4-Androsten-11beta-ol-3,17-dione; LC-ESI-QTOF; MS2; CE: 20 eV; R=35000; [M+H]+
Name: 4-Androsten-11beta-ol-3,17-dione
Name: 11beta-Hydroxyandrostenedione
Name: (8S,9S,10R,11S,13S,14S)-11-hydroxy-10,13-dimethyl-2,6,7,8,9,11,12,14,15,16-decahydro-1H-cyclopenta[a]phenanthrene-3,17-dione
Formula: C19H26O3
Exact mass: 302.1881947
SMILES: C[C@]12C[C@H](O)[C@H]3[C@@H](CCC4=CC(=O)CC[C@]34C)[C@@H]1CCC2=O
InChI: InChI=1S/C19H26O3/c1-18-8-7-12(20)9-11(18)3-4-13-14-5-6-16(22)19(14,2)10-15(21)17(13)18/h9,13-15,17,21H,3-8,10H2,1-2H3/t13-,14-,15-,17+,18-,19-/m0/s1
Instrument: Bruker maXis Impact
Instrument type: LC-ESI-QTOF
Ms type: MS2
Ion mode: POSITIVE
Ionization: ESI
Fragmentation mode: CID
Collision energy: 20 eV
Resolution: 35000
Column name: Acclaim RSLC C18 2.2um, 2.1x100mm, Thermo
Retention time: 8.188 min
Base peak: 303.1955
Precursor m/z: 303.1955
Precursor type: [M+H]+
m/z	relative intensity	assigned
119.0847	18	C9H11+
121.0639	106	C8H9O+
121.0994	5	C9H13+
122.0669	13	C7[13]CH9O+
123.0794	114	C8H11O+
124.0824	12	C7[13]CH11O+
129.0691	7	C10H9+
131.0842	19	C10H11+
133.0639	6	C9H9O+
133.1001	33	C10H13+
135.0795	26	C9H11O+
135.1157	10	C10H15+
137.0953	12	C9H13O+
143.0838	35	C11H11+
145.0999	122	C11H13+
146.104	15	C10[13]CH13+
147.0789	22	C10H11O+
147.1152	16	C11H15+
149.095	22	C10H13O+
151.1106	45	C10H15O+
152.1147	6	C9[13]CH15O+
155.085	10	C12H11+
157.0644	5	C11H9O+
157.1003	28	C12H13+
159.0789	18	C11H11O+
159.1154	27	C12H15+
161.0942	28	C11H13O+
161.1311	7	C12H17+
163.1103	112	C11H15O+
164.1142	11	C10[13]CH15O+
169.1007	11	C13H13+
171.0792	13	C12H11O+
171.1154	37	C13H15+
172.1187	5	C12[13]CH15+
173.0953	29	C12H13O+
175.1103	82	C12H15O+
176.1142	11	C11[13]CH15O+
177.1264	14	C12H17O+
181.1008	6	C14H13+
183.1156	20	C14H15+
185.0945	11	C13H13O+
185.1312	43	C14H17+
186.1352	6	C13[13]CH17+
187.1107	16	C13H15O+
189.1259	64	C13H17O+
190.1296	9	C12[13]CH17O+
193.1002	5	C15H13+
195.1154	27	C15H15+
197.0947	28	C14H13O+
197.1316	22	C15H17+
198.099	5	C13[13]CH13O+
199.1107	11	C14H15O+
199.1482	13	C15H19+
201.1268	19	C14H17O+
203.1417	20	C14H19O+
207.1161	13	C16H15+
209.1309	48	C16H17+
210.1356	9	C15[13]CH17+
211.111	15	C15H15O+
211.1478	11	C16H19+
213.1257	14	C15H17O+
215.1427	13	C15H19O+
221.1312	6	C17H17+
223.1473	19	C17H19+
224.1524	5	C16[13]CH19+
225.1265	35	C16H17O+
225.1626	33	C17H21+
226.1295	6	C15[13]CH17O+
226.1665	8	C16[13]CH21+
227.1419	72	C16H19O+
228.1454	15	C15[13]CH19O+
229.1574	5	C16H21O+
239.1425	119	C17H19O+
239.1781	34	C18H23+
240.1454	19	C16[13]CH19O+
240.1823	6	C17[13]CH23+
241.158	35	C17H21O+
242.1627	8	C16[13]CH21O+
243.1737	79	C17H23O+
244.1771	15	C16[13]CH23O+
245.1533	9	C16H21O2+
249.1624	67	C19H21+
250.1664	14	C18[13]CH21+
252.1513	8	C18H20O+
257.1533	34	C17H21O2+
257.1885	21	C18H25O+
258.1554	10	C16[13]CH21O2+
259.1696	15	C17H23O2+
267.1737	403	C19H23O+
268.1766	92	C18[13]CH23O+
269.1773	11	C17[13]C2H23O+
285.1847	574	C19H25O2+
286.1875	122	C18[13]CH25O2+
287.1898	15	C17[13]C2H25O2+
303.1953	999	C19H27O3+
304.1982	214	C18[13]CH27O3+
305.2026	22	C17[13]C2H27O3+
