Mass spectrum: Betamethasone-17-valerate; LC-ESI-QTOF; MS2; CE: 30 eV; R=35000; [M+H]+
Name: Betamethasone-17-valerate
Name: Betamethasone 17-valerate
Name: [9-fluoro-11-hydroxy-17-(2-hydroxyacetyl)-10,13,16-trimethyl-3-oxo-6,7,8,11,12,14,15,16-octahydrocyclopenta[a]phenanthren-17-yl] pentanoate
Formula: C27H37FO6
Exact mass: 476.2574171
SMILES: CCCCC(=O)OC1(C(C)CC2C3CCC4=CC(=O)C=CC4(C)C3(F)C(O)CC12C)C(=O)CO
InChI: InChI=1S/C27H37FO6/c1-5-6-7-23(33)34-27(22(32)15-29)16(2)12-20-19-9-8-17-13-18(30)10-11-24(17,3)26(19,28)21(31)14-25(20,27)4/h10-11,13,16,19-21,29,31H,5-9,12,14-15H2,1-4H3
Instrument: Bruker maXis Impact
Instrument type: LC-ESI-QTOF
Ms type: MS2
Ion mode: POSITIVE
Ionization: ESI
Fragmentation mode: CID
Collision energy: 30 eV
Resolution: 35000
Column name: Acclaim RSLC C18 2.2um, 2.1x100mm, Thermo
Retention time: 11.066 min
Base peak: 477.2646
Precursor m/z: 477.2647
Precursor type: [M+H]+
m/z	relative intensity	assigned
119.0847	40	C9H11+
120.0886	6	C8[13]CH11+
121.0641	46	C8H9O+
121.1008	25	C9H13+
123.0795	61	C8H11O+
124.0824	6	C7[13]CH11O+
125.059	5	C7H9O2+
125.0953	14	C8H13O+
128.0609	6	C10H8+
129.07	6	C10H9+
131.0838	18	C10H11+
133.0643	7	C9H9O+
133.1004	30	C10H13+
135.0791	142	C9H11O+
136.0828	16	C8[13]CH11O+
137.095	46	C9H13O+
138.0983	5	C8[13]CH13O+
139.112	7	C9H15O+
143.0845	16	C11H11+
145.0642	21	C10H9O+
145.1	23	C11H13+
147.0792	289	C10H11O+
148.0837	34	C9[13]CH11O+
149.0948	69	C10H13O+
150.0992	7	C9[13]CH13O+
151.0743	11	C9H11O2+
151.1102	14	C10H15O+
153.0898	80	C9H13O2+
154.0927	7	C8[13]CH13O2+
155.0834	5	C12H11+
157.1006	13	C12H13+
158.0703	7	C11H10O+
159.079	121	C11H11O+
159.115	7	C12H15+
160.0827	16	C10[13]CH11O+
161.0586	10	C10H9O2+
161.0945	75	C11H13O+
162.0986	13	C10[13]CH13O+
163.0734	11	C10H11O2+
163.1106	11	C11H15O+
165.0897	20	C10H13O2+
167.1052	80	C10H15O2+
168.1093	11	C9[13]CH15O2+
169.063	23	C12H9O+
169.1006	5	C13H13+
170.0702	5	C12H10O+
171.0793	198	C12H11O+
171.1153	21	C13H15+
172.0822	32	C11[13]CH11O+
173.0949	138	C12H13O+
174.0983	20	C11[13]CH13O+
175.0737	10	C11H11O2+
175.1113	16	C12H15O+
177.0902	30	C11H13O2+
183.0797	12	C13H11O+
183.1163	5	C14H15+
185.0953	158	C13H13O+
186.0987	31	C12[13]CH13O+
187.0738	161	C12H11O2+
187.1104	36	C13H15O+
188.0781	24	C11[13]CH11O2+
188.1151	7	C12[13]CH15O+
189.0707	5	C12H10FO+
189.0906	18	C12H13O2+
189.1236	5	C13H17O+
191.0867	6	C12H12FO+
191.1065	6	C12H15O2+
193.1006	5	C15H13+
195.0792	9	C14H11O+
195.1011	8	C11H15O3+
195.1151	5	C15H15+
197.0947	45	C14H13O+
198.0999	12	C14H14O+
199.074	14	C13H11O2+
199.111	38	C14H15O+
200.1159	7	C13[13]CH15O+
201.0905	9	C13H13O2+
201.1281	9	C11H18FO2+
203.0686	9	C12H11O3+
203.1055	25	C13H15O2+
204.1085	5	C12[13]CH15O2+
205.1006	5	C16H13+
208.0857	9	C15H12O+
209.0951	40	C15H13O+
210.0997	10	C14[13]CH13O+
211.0753	6	C14H11O2+
211.1106	51	C15H15O+
212.1158	12	C14[13]CH15O+
213.0907	12	C14H13O2+
213.1263	68	C15H17O+
214.1316	9	C14[13]CH17O+
215.1057	14	C14H15O2+
217.1009	7	C17H13+
221.0947	57	C16H13O+
222.1004	20	C16H14O+
223.1109	103	C16H15O+
224.1155	21	C15[13]CH15O+
225.0896	11	C15H13O2+
225.1262	31	C13H18FO2+
226.1338	7	C12[13]CH18FO2+
227.1052	18	C15H15O2+
227.1409	7	C16H19O+
229.1214	5	C15H17O2+
231.1155	9	C18H15+
233.0972	5	C14H14FO2+
234.1043	9	C17H14O+
235.111	34	C17H15O+
236.1164	15	C17H16O+
237.0884	5	C16H13O2+
237.1271	50	C17H17O+
237.1621	8	C18H21+
238.1308	10	C16[13]CH17O+
239.1059	47	C16H15O2+
239.1419	40	C17H19O+
240.1089	5	C15[13]CH15O2+
240.1464	8	C16[13]CH19O+
241.1194	15	C16H17O2+
241.1579	13	C17H21O+
243.1019	6	C15H15O3+
245.0982	6	C15H14FO2+
245.1313	8	C19H17+
247.1097	12	C18H15O+
247.1478	5	C19H19+
248.1182	18	C18H16O+
249.1269	60	C18H17O+
249.1614	6	C19H21+
250.1312	16	C17[13]CH17O+
251.1063	8	C17H15O2+
251.1422	33	C18H19O+
252.1478	11	C17[13]CH19O+
253.1225	13	C17H17O2+
253.1575	41	C18H21O+
254.1601	8	C17[13]CH21O+
257.1328	6	C20H17+
258.1369	6	C20H18+
259.1122	11	C19H15O+
259.1473	11	C20H19+
260.118	11	C19H16O+
261.126	48	C19H17O+
261.1617	14	C20H21+
262.1346	40	C19H18O+
263.1052	10	C18H15O2+
263.1424	163	C19H19O+
264.147	56	C18[13]CH19O+
265.121	9	C18H17O2+
265.1568	31	C19H21O+
266.1611	11	C18[13]CH21O+
267.1365	14	C18H19O2+
267.1737	29	C19H23O+
271.1479	5	C21H19+
272.1198	10	C20H16O+
273.1268	19	C20H17O+
273.1631	13	C21H21+
274.1365	11	C17H19FO2+
275.1423	58	C20H19O+
276.149	37	C20H20O+
277.1199	17	C19H17O2+
277.1583	197	C20H21O+
278.1652	222	C20H22O+
279.1739	999	C20H23O+
280.1769	219	C19[13]CH23O+
281.1532	18	C19H21O2+
281.1872	34	C18[13]C2H23O+
282.1583	5	C18[13]CH21O2+
282.1894	6	C13H27FO5+
283.1458	6	C22H19+
283.1499	5	C19H20FO+
286.1351	21	C21H18O+
287.1395	5	C20[13]CH18O+
289.1222	7	C20H17O2+
289.1573	105	C21H21O+
290.1298	13	C20H18O2+
290.1622	27	C20[13]CH21O+
291.1375	23	C20H19O2+
291.1737	236	C21H23O+
292.1777	54	C20[13]CH23O+
293.1522	15	C20H21O2+
293.1823	8	C19[13]C2H23O+
294.159	6	C20H22O2+
295.1336	11	C16H20FO4+
295.1689	60	C20H23O2+
296.1761	33	C20H24O2+
297.1832	35	C20H25O2+
298.1846	9	C19[13]CH25O2+
299.1804	7	C20H24FO+
301.1574	95	C22H21O+
302.1622	23	C21[13]CH21O+
304.1462	14	C21H20O2+
306.1602	16	C21H22O2+
307.1681	88	C21H23O2+
308.173	20	C20[13]CH23O2+
309.1852	87	C21H25O2+
310.1887	19	C20[13]CH25O2+
311.1629	16	C20H23O3+
319.1689	215	C22H23O2+
320.1708	45	C21[13]CH23O2+
321.174	8	C20[13]C2H23O2+
325.1793	26	C21H25O3+
326.182	9	C20[13]CH25O3+
327.1921	13	C21H27O3+
337.1794	192	C22H25O3+
338.1812	43	C21[13]CH25O3+
339.1822	9	C18H27O6+
345.1858	7	C21H26FO3+
355.1893	50	C22H27O4+
356.1945	16	C21[13]CH27O4+
357.1854	6	C25H25O2+
