Mass spectrum: Carbendazim; LC-ESI-QTOF; MS2; CE: 30 eV; R=35000; [M+H]+
Name: Carbendazim
Name: methyl N-(1H-benzimidazol-2-yl)carbamate
Formula: C9H9N3O2
Exact mass: 191.0694765
SMILES: COC(=O)NC1=NC2=CC=CC=C2N1
InChI: InChI=1S/C9H9N3O2/c1-14-9(13)12-8-10-6-4-2-3-5-7(6)11-8/h2-5H,1H3,(H2,10,11,12,13)
Instrument: Bruker maXis Impact
Instrument type: LC-ESI-QTOF
Ms type: MS2
Ion mode: POSITIVE
Ionization: ESI
Fragmentation mode: CID
Collision energy: 30 eV
Resolution: 35000
Column name: Acclaim RSLC C18 2.2um, 2.1x100mm, Thermo
Retention time: 5.302 min
Base peak: 192.0759
Precursor m/z: 192.0768
Precursor type: [M+H]+
m/z	relative intensity	assigned
117.0438	5	C7H5N2+
132.0547	145	C7H6N3+
133.0611	24	C7H7N3+
135.0539	8	C7H7N2O+
160.0498	999	C8H6N3O+
161.0521	79	C7[13]CH6N3O+
