Mass spectrum: Icaridin; LC-ESI-QTOF; MS2; CE: 50 eV; R=35000; [M+H]+
Name: Icaridin
Name: butan-2-yl 2-(2-hydroxyethyl)piperidine-1-carboxylate
Formula: C12H23NO3
Exact mass: 229.1677936
SMILES: CCC(C)OC(=O)N1CCCCC1CCO
InChI: InChI=1S/C12H23NO3/c1-3-10(2)16-12(15)13-8-5-4-6-11(13)7-9-14/h10-11,14H,3-9H2,1-2H3
Instrument: Bruker maXis Impact
Instrument type: LC-ESI-QTOF
Ms type: MS2
Ion mode: POSITIVE
Ionization: ESI
Fragmentation mode: CID
Collision energy: 50 eV
Resolution: 35000
Column name: Acclaim RSLC C18 2.2um, 2.1x100mm, Thermo
Retention time: 8.788 min
Base peak: 230.175
Precursor m/z: 230.1751
Precursor type: [M+H]+
m/z	relative intensity	assigned
112.1132	54	C7H14N+
115.054	68	C9H7+
128.0698	675	C6H10NO2+
129.0722	83	C10H9+
130.1218	999	C7H16NO+
140.0482	45	C10H6N+
168.0676	242	C8H10NO3+
169.0743	509	C8H11NO3+
170.0773	46	C7[13]CH11NO3+
