Mass spectrum: Megestrol-17-acetate; LC-ESI-QTOF; MS2; CE: Ramp 23.3-35.0 eV; R=35000; [M+H]+
Name: Megestrol-17-acetate
Name: Megestrol acetate
Name: [(8R,9S,10R,13S,14S,17R)-17-acetyl-6,10,13-trimethyl-3-oxo-2,8,9,11,12,14,15,16-octahydro-1H-cyclopenta[a]phenanthren-17-yl] acetate
Formula: C24H32O4
Exact mass: 384.2300595
SMILES: CC(=O)O[C@@]1(CC[C@H]2[C@@H]3C=C(C)C4=CC(=O)CC[C@]4(C)[C@H]3CC[C@]12C)C(C)=O
InChI: InChI=1S/C24H32O4/c1-14-12-18-19(22(4)9-6-17(27)13-21(14)22)7-10-23(5)20(18)8-11-24(23,15(2)25)28-16(3)26/h12-13,18-20H,6-11H2,1-5H3/t18-,19+,20+,22-,23+,24+/m1/s1
Instrument: Bruker maXis Impact
Instrument type: LC-ESI-QTOF
Ms type: MS2
Ion mode: POSITIVE
Ionization: ESI
Fragmentation mode: CID
Collision energy: Ramp 23.3-35.0 eV
Resolution: 35000
Column name: Acclaim RSLC C18 2.2um, 2.1x100mm, Thermo
Retention time: 10.854 min
Base peak: 385.2382
Precursor m/z: 385.2373
Precursor type: [M+H]+
m/z	relative intensity	assigned
59.0485	5	C3H7O+
67.0538	7	C5H7+
79.0538	7	C6H7+
81.0694	17	C6H9+
83.0486	40	C5H7O+
85.0642	13	C5H9O+
91.0542	9	C7H7+
93.0699	26	C7H9+
95.0855	19	C7H11+
97.065	73	C6H9O+
99.0804	21	C6H11O+
105.07	15	C8H9+
107.0858	29	C8H11+
109.0658	5	C7H9O+
109.1021	24	C8H13+
111.0809	11	C7H11O+
119.0855	26	C9H11+
121.065	33	C8H9O+
121.1011	25	C9H13+
123.0801	12	C8H11O+
123.1172	5	C9H15+
129.0691	5	C10H9+
131.0852	15	C10H11+
133.1009	60	C10H13+
134.1045	8	C9[13]CH13+
135.0801	10	C9H11O+
135.1164	10	C10H15+
137.0956	12	C9H13O+
143.0847	12	C11H11+
145.1005	36	C11H13+
147.0797	9	C10H11O+
147.1161	20	C11H15+
149.0956	20	C10H13O+
151.1109	14	C10H15O+
155.0843	11	C12H11+
157.1002	35	C12H13+
158.1042	5	C11[13]CH13+
159.0794	6	C11H11O+
159.1157	28	C12H15+
161.0951	53	C11H13O+
161.1316	7	C12H17+
162.0997	7	C10[13]CH13O+
163.1103	11	C11H15O+
169.1003	52	C13H13+
170.1047	7	C12[13]CH13+
171.0792	6	C12H11O+
171.1157	36	C13H15+
172.1193	5	C12[13]CH15+
173.0949	30	C12H13O+
173.1314	18	C13H17+
175.111	144	C12H15O+
176.114	15	C11[13]CH15O+
177.126	10	C12H17O+
181.0999	9	C14H13+
183.116	94	C14H15+
184.1198	12	C13[13]CH15+
185.0951	17	C13H13O+
185.1317	18	C14H17+
187.1108	121	C13H15O+
188.1148	20	C12[13]CH15O+
189.1266	36	C13H17O+
190.1309	5	C12[13]CH17O+
193.0995	7	C15H13+
194.1078	6	C15H14+
195.1159	23	C15H15+
196.1234	9	C15H16+
197.1319	46	C15H17+
198.1392	48	C15H18+
199.1118	6	C14H15O+
199.1467	36	C15H19+
200.1534	11	C15H20+
201.1263	15	C14H17O+
201.1612	6	C15H21+
207.116	12	C16H15+
208.124	11	C16H16+
209.1321	116	C16H17+
210.1373	31	C15[13]CH17+
211.1106	8	C15H15O+
211.1476	124	C16H19+
212.1524	26	C15[13]CH19+
213.1261	16	C15H17O+
213.1619	17	C16H21+
215.1418	23	C15H19O+
216.1456	5	C14[13]CH19O+
219.116	5	C17H15+
221.1321	12	C17H17+
222.1395	14	C17H18+
223.1479	131	C17H19+
224.1556	799	C17H20+
225.1619	321	C17H21+
226.1663	43	C16[13]CH21+
227.1419	10	C16H19O+
229.1577	8	C16H21O+
231.1372	5	C15H19O2+
233.1306	5	C18H17+
234.1394	21	C18H18+
235.1469	18	C18H19+
236.1542	5	C17[13]CH19+
237.1272	8	C17H17O+
237.1632	54	C18H21+
238.1677	10	C17[13]CH21+
239.1425	22	C17H19O+
239.1792	9	C18H23+
240.1481	5	C16[13]CH19O+
241.1583	87	C17H21O+
242.1618	15	C16[13]CH21O+
243.1735	19	C17H23O+
247.1475	13	C19H19+
248.154	6	C19H20+
249.1637	100	C19H21+
250.1683	28	C18[13]CH21+
251.143	11	C18H19O+
252.1497	8	C18H20O+
253.1579	18	C18H21O+
254.1622	5	C17[13]CH21O+
255.1744	107	C18H23O+
256.1776	20	C17[13]CH23O+
263.1796	30	C20H23+
264.1865	29	C20H24+
265.1582	25	C19H21O+
265.1953	241	C20H25+
266.1654	15	C19H22O+
266.199	51	C19[13]CH25+
267.1746	999	C19H23O+
268.1778	215	C18[13]CH23O+
269.1808	16	C17[13]C2H23O+
279.1745	5	C20H23O+
281.1903	151	C20H25O+
282.1979	523	C20H26O+
283.2041	249	C20H27O+
284.2083	37	C19[13]CH27O+
289.1956	24	C22H25+
290.1983	5	C21[13]CH25+
292.1828	5	C21H24O+
307.2061	121	C22H27O+
308.2097	30	C21[13]CH27O+
310.1935	12	C21H26O2+
325.2169	563	C22H29O2+
326.2204	148	C21[13]CH29O2+
327.2239	13	C20[13]C2H29O2+
385.2387	131	C24H33O4+
386.2412	40	C23[13]CH33O4+
