Mass spectrum: Didecyldimethylammonium; LC-ESI-QTOF; MS2; CE: 10 eV; R=35000; [M+H]+
Name: Didecyldimethylammonium
Name: didecyl(dimethyl)azanium
Formula: [C22H48N]+
Exact mass: 326.3786755
SMILES: CCCCCCCCCC[N+](C)(C)CCCCCCCCCC
InChI: InChI=1S/C22H48N/c1-5-7-9-11-13-15-17-19-21-23(3,4)22-20-18-16-14-12-10-8-6-2/h5-22H2,1-4H3/q+1
Instrument: Bruker maXis Impact
Instrument type: LC-ESI-QTOF
Ms type: MS2
Ion mode: POSITIVE
Ionization: ESI
Fragmentation mode: CID
Collision energy: 10 eV
Resolution: 35000
Column name: Acclaim RSLC C18 2.2um, 2.1x100mm, Thermo
Retention time: 11.100 min
Base peak: 230.2473
Precursor m/z: 327.386
Precursor type: [M+H]+
m/z	relative intensity	assigned
165.0536	447	C12H7N+
221.1168	753	C16H15N+
235.1313	999	C17H17N+
291.1926	433	C21H25N+
