Mass spectrum: Norgestimate; LC-ESI-QTOF; MS2; CE: 30 eV; R=35000; [M+H]+
Name: Norgestimate
Name: [(3E,8R,9S,10R,13S,14S,17R)-13-ethyl-17-ethynyl-3-hydroxyimino-1,2,6,7,8,9,10,11,12,14,15,16-dodecahydrocyclopenta[a]phenanthren-17-yl] acetate
Formula: C23H31NO3
Exact mass: 369.2303939
SMILES: CC[C@]12CC[C@H]3[C@@H](CCC4=C\C(CC[C@H]34)=N\O)[C@@H]1CC[C@@]2(OC(C)=O)C#C
InChI: InChI=1S/C23H31NO3/c1-4-22-12-10-19-18-9-7-17(24-26)14-16(18)6-8-20(19)21(22)11-13-23(22,5-2)27-15(3)25/h2,14,18-21,26H,4,6-13H2,1,3H3/b24-17+/t18-,19+,20+,21-,22-,23-/m0/s1
Instrument: Bruker maXis Impact
Instrument type: LC-ESI-QTOF
Ms type: MS2
Ion mode: POSITIVE
Ionization: ESI
Fragmentation mode: CID
Collision energy: 30 eV
Resolution: 35000
Column name: Acclaim RSLC C18 2.2um, 2.1x100mm, Thermo
Retention time: 11.952 min
Base peak: 370.2374
Precursor m/z: 370.2377
Precursor type: [M+H]+
m/z	relative intensity	assigned
117.0692	8	C9H9+
119.0849	9	C9H11+
124.0748	63	C7H10NO+
125.0781	6	C6[13]CH10NO+
129.0691	15	C10H9+
131.0845	28	C10H11+
132.0791	5	C6H12O3+
133.0997	22	C10H13+
136.0735	6	C8H10NO+
141.0685	7	C11H9+
143.0842	25	C11H11+
145.1002	23	C11H13+
146.0969	6	C10H12N+
147.1155	10	C11H15+
148.1105	5	C7H16O3+
150.0909	6	C9H12NO+
155.0838	12	C12H11+
157.0998	25	C12H13+
158.0949	6	C8H14O3+
159.1153	23	C12H15+
160.1111	7	C11H14N+
161.1314	8	C12H17+
164.1055	6	C10H14NO+
167.0846	7	C13H11+
169.1	12	C13H13+
171.1153	11	C13H15+
173.131	10	C13H17+
176.1061	17	C11H14NO+
178.1213	11	C11H16NO+
181.1004	7	C14H13+
183.1156	19	C14H15+
185.1306	19	C14H17+
187.1464	8	C14H19+
190.1214	5	C12H16NO+
193.0986	5	C15H13+
195.1155	8	C15H15+
197.1308	10	C15H17+
199.147	8	C15H19+
207.1151	8	C16H15+
209.1305	11	C16H17+
211.1452	5	C16H19+
221.1311	7	C17H17+
223.147	8	C17H19+
224.1488	5	C16H18N+
225.1615	7	C17H21+
235.1456	5	C18H19+
236.1427	6	C17H18N+
237.1616	10	C18H21+
238.1613	5	C17H20N+
249.165	5	C19H21+
260.1993	9	C17H26NO+
264.1744	13	C19H22N+
277.1935	7	C21H25+
278.192	6	C20H24N+
282.1844	12	C19H24NO+
292.2059	6	C21H26N+
293.211	5	C18H29O3+
310.2161	168	C21H28NO+
311.2202	43	C20[13]CH28NO+
312.2236	5	C19[13]C2H28NO+
328.227	19	C21H30NO2+
370.2377	999	C23H32NO3+
371.2407	221	C22[13]CH32NO3+
372.244	35	C21[13]C2H32NO3+
