Mass spectrum: Harmine; LC-ESI-QTOF; MS2; CE: 50 eV; R=35000; [M+H]+
Name: Harmine
Name: 7-methoxy-1-methyl-9H-pyrido[3,4-b]indole
Formula: C13H12N2O
Exact mass: 212.0949630
SMILES: COC1=CC2=C(C=C1)C1=C(N2)C(C)=NC=C1
InChI: InChI=1S/C13H12N2O/c1-8-13-11(5-6-14-8)10-4-3-9(16-2)7-12(10)15-13/h3-7,15H,1-2H3
Instrument: Bruker maXis Impact
Instrument type: LC-ESI-QTOF
Ms type: MS2
Ion mode: POSITIVE
Ionization: ESI
Fragmentation mode: CID
Collision energy: 50 eV
Resolution: 35000
Column name: Acclaim RSLC C18 2.2um, 2.1x100mm, Thermo
Retention time: 5.225 min
Base peak: 213.102
Precursor m/z: 213.1022
Precursor type: [M+H]+
m/z	relative intensity	assigned
115.0535	15	C9H7+
118.0643	9	C8H8N+
128.0484	18	C9H6N+
129.0549	5	C9H7N+
140.0486	7	C10H6N+
141.0556	8	C10H7N+
142.0638	32	C10H8N+
143.0594	14	C9H7N2+
143.0708	13	C10H9N+
144.0668	34	C9H8N2+
144.0794	90	C10H10N+
145.0826	10	C9[13]CH10N+
153.0434	6	C10H5N2+
155.0591	96	C10H7N2+
156.0623	8	C9[13]CH7N2+
168.0668	32	C11H8N2+
169.075	999	C11H9N2+
170.0822	702	C11H10N2+
171.0542	5	C10H7N2O+
171.0855	56	C10[13]CH10N2+
198.0776	16	C12H10N2O+
