Mass spectrum: Betamethasone dipropionate; LC-ESI-QTOF; MS2; CE: 50 eV; R=35000; [M+H]+
Name: Betamethasone dipropionate
Name: CIWBQSYVNNPZIQ-UHFFFAOYSA-N
Name: [2-(9-fluoro-11-hydroxy-10,13,16-trimethyl-3-oxo-17-propanoyloxy-6,7,8,11,12,14,15,16-octahydrocyclopenta[a]phenanthren-17-yl)-2-oxoethyl] propanoate
Formula: C28H37FO7
Exact mass: 504.2523317
SMILES: CCC(=O)OCC(=O)C1(OC(=O)CC)C(C)CC2C3CCC4=CC(=O)C=CC4(C)C3(F)C(O)CC12C
InChI: InChI=1S/C28H37FO7/c1-6-23(33)35-15-22(32)28(36-24(34)7-2)16(3)12-20-19-9-8-17-13-18(30)10-11-25(17,4)27(19,29)21(31)14-26(20,28)5/h10-11,13,16,19-21,31H,6-9,12,14-15H2,1-5H3
Instrument: Bruker maXis Impact
Instrument type: LC-ESI-QTOF
Ms type: MS2
Ion mode: POSITIVE
Ionization: ESI
Fragmentation mode: CID
Collision energy: 50 eV
Resolution: 35000
Column name: Acclaim RSLC C18 2.2um, 2.1x100mm, Thermo
Retention time: 11.285 min
Base peak: 505.2598
Precursor m/z: 505.2596
Precursor type: [M+H]+
m/z	relative intensity	assigned
115.0539	39	C9H7+
116.0609	15	C9H8+
117.0693	44	C9H9+
119.085	147	C9H11+
120.0878	17	C8[13]CH11+
121.0639	254	C8H9O+
121.1004	62	C9H13+
122.0677	27	C7[13]CH9O+
122.1033	8	C8[13]CH13+
123.0797	96	C8H11O+
123.1155	8	C9H15+
124.0829	11	C7[13]CH11O+
125.0585	15	C7H9O2+
125.0956	9	C8H13O+
127.0525	8	C10H7+
128.0611	91	C10H8+
129.0688	52	C10H9+
130.0765	18	C10H10+
131.0488	22	C9H7O+
131.0846	148	C10H11+
132.0561	60	C9H8O+
132.088	16	C9[13]CH11+
133.0638	44	C9H9O+
133.1003	154	C10H13+
134.0694	13	C9H10O+
134.1036	24	C9[13]CH13+
135.0797	408	C9H11O+
136.0831	36	C8[13]CH11O+
137.0612	13	C5H10FO3+
137.0953	48	C9H13O+
139.0747	5	C8H11O2+
141.0692	67	C11H9+
142.0764	49	C11H10+
143.0847	183	C11H11+
144.0558	44	C10H8O+
144.089	20	C10[13]CH11+
145.0636	155	C10H9O+
145.0999	119	C11H13+
146.07	42	C10H10O+
146.103	13	C10[13]CH13+
147.0794	999	C10H11O+
148.0828	152	C9[13]CH11O+
149.0949	178	C10H13O+
150.0966	21	C9[13]CH13O+
151.074	23	C9H11O2+
151.1112	13	C10H15O+
152.0618	11	C12H8+
153.0692	17	C12H9+
153.0894	127	C9H13O2+
154.0757	13	C12H10+
154.0938	12	C8[13]CH13O2+
155.059	16	CH12FO7+
155.0845	80	C12H11+
156.0559	12	C11H8O+
156.0903	25	C12H12+
157.0629	23	C11H9O+
157.1003	81	C12H13+
158.0711	99	C11H10O+
158.1032	14	C11[13]CH13+
159.0791	607	C11H11O+
160.0834	86	C10[13]CH11O+
161.058	44	C10H9O2+
161.0948	247	C11H13O+
162.0603	7	C9[13]CH9O2+
162.0649	6	C9[13]CH9O2+
162.099	27	C10[13]CH13O+
163.0739	26	C10H11O2+
163.1115	18	C11H15O+
165.0694	29	C13H9+
165.0901	29	C10H13O2+
166.0764	21	C13H10+
166.0943	5	C9[13]CH13O2+
167.0847	47	C13H11+
167.1054	134	C10H15O2+
168.0564	9	C12H8O+
168.0925	10	C12[13]CH11+
168.1089	20	C9[13]CH15O2+
169.0635	66	C12H9O+
169.1002	54	C13H13+
170.0706	33	C12H10O+
170.1066	23	C13H14+
171.0795	673	C12H11O+
171.1155	47	C13H15+
172.0833	101	C11[13]CH11O+
173.0948	397	C12H13O+
174.0987	64	C11[13]CH13O+
175.074	21	C11H11O2+
175.0947	10	C8H15O4+
175.1107	56	C12H15O+
176.1143	10	C11[13]CH15O+
177.0901	42	C11H13O2+
178.0766	25	C14H10+
179.0844	68	C14H11+
179.1066	5	C11H15O2+
180.0916	23	C14H12+
181.0633	15	C13H9O+
181.0985	32	C14H13+
182.0714	35	C13H10O+
182.1057	9	C14H14+
183.0791	65	C13H11O+
183.1159	25	C14H15+
184.0857	27	C13H12O+
184.1201	8	C14H16+
185.0594	24	C12H9O2+
185.095	461	C13H13O+
186.0645	9	C12H10O2+
186.0993	77	C12[13]CH13O+
187.0745	278	C12H11O2+
187.1111	77	C13H15O+
188.0777	34	C11[13]CH11O2+
188.114	15	C12[13]CH15O+
189.071	17	C12H10FO+
189.0906	36	C12H13O2+
189.1263	14	C13H17O+
190.0753	22	C15H10+
191.0843	34	C15H11+
191.1048	9	C12H15O2+
192.0924	23	C15H12+
193.1006	71	C15H13+
194.0723	22	C14H10O+
194.1054	19	C14[13]CH13+
195.0793	86	C14H11O+
195.1158	37	C15H15+
196.0873	65	C14H12O+
196.1218	10	C14[13]CH15+
197.0947	202	C14H13O+
198.1019	69	C14H14O+
199.0735	33	C13H11O2+
199.1105	107	C14H15O+
200.0823	6	C12[13]CH11O2+
200.1148	25	C13[13]CH15O+
201.0902	16	C13H13O2+
201.1259	18	C14H17O+
202.0786	17	C13H11FO+
202.0955	6	C13H14O2+
203.0842	17	C16H11+
203.1067	25	C13H15O2+
204.0928	18	C16H12+
205.0636	6	C15H9O+
205.1005	71	C16H13+
206.0713	7	C15H10O+
206.1079	28	C16H14+
207.0808	22	C15H11O+
207.1155	52	C16H15+
208.0872	91	C15H12O+
208.1205	13	C15[13]CH15+
209.0954	235	C15H13O+
209.1299	15	C16H17+
210.1022	98	C15H14O+
211.0751	15	C14H11O2+
211.1106	159	C15H15O+
212.1168	58	C15H16O+
213.09	31	C14H13O2+
213.1264	119	C15H17O+
214.0949	5	C13[13]CH13O2+
214.1313	24	C14[13]CH17O+
215.0851	21	C17H11+
215.106	38	C14H15O2+
216.0918	31	C17H12+
217.0995	41	C17H13+
217.1262	6	C7H21O7+
218.0697	8	C16H10O+
218.1085	29	C17H14+
219.0802	42	C16H11O+
219.116	45	C17H15+
220.0859	36	C16H12O+
220.1239	31	C17H16+
221.0953	296	C16H13O+
221.1319	42	C17H17+
222.1016	132	C16H14O+
222.1367	11	C16[13]CH17+
223.1105	366	C16H15O+
224.0817	13	C15H12O2+
224.1156	117	C16H16O+
225.0902	22	C15H13O2+
225.1261	92	C16H17O+
226.0984	14	C15H14O2+
226.1309	25	C15[13]CH17O+
227.0834	9	C18H11+
227.105	24	C15H15O2+
227.1407	14	C16H19O+
228.0944	18	C15H13FO+
229.1001	45	C18H13+
230.1078	52	C18H14+
231.0799	19	C17H11O+
231.116	76	C18H15+
232.0877	29	C17H12O+
232.1224	29	C18H16+
233.0951	100	C17H13O+
233.1313	42	C18H17+
234.1028	111	C17H14O+
234.1388	19	C18H18+
235.1107	285	C17H15O+
235.1474	34	C18H19+
236.0823	7	C16H12O2+
236.1171	98	C17H16O+
236.153	26	C18H20+
237.0911	19	C16H13O2+
237.1264	164	C17H17O+
237.1617	21	C18H21+
238.0964	6	C16H14O2+
238.1311	38	C16[13]CH17O+
238.1617	5	C11H23FO4+
239.1051	67	C16H15O2+
239.1423	60	C17H19O+
240.0968	7	C16H13FO+
240.1111	15	C15[13]CH15O2+
240.1454	11	C16[13]CH19O+
241.0996	11	C19H13+
241.1202	23	C16H17O2+
241.1571	8	C17H21O+
242.1081	26	C19H14+
243.078	5	C18H11O+
243.1162	84	C19H15+
244.0866	13	C18H12O+
244.1232	58	C19H16+
245.095	75	C18H13O+
245.1307	70	C19H17+
246.1024	84	C18H14O+
246.1378	30	C19H18+
247.1101	152	C18H15O+
247.1458	41	C19H19+
248.1186	220	C18H16O+
248.153	19	C19H20+
249.0897	26	C17H13O2+
249.1263	306	C18H17O+
249.1625	35	C19H21+
250.0981	7	C16[13]CH13O2+
250.1327	85	C17[13]CH17O+
250.1688	14	C19H22+
251.1066	20	C17H15O2+
251.1417	98	C18H19O+
251.1783	10	C19H23+
252.1121	13	C17H16O2+
252.1468	37	C18H20O+
253.102	12	C17H14FO+
253.1217	19	C17H17O2+
253.1569	58	C18H21O+
254.1005	7	C13H15FO4+
254.1262	5	C16[13]CH17O2+
254.1602	12	C17[13]CH21O+
255.1152	12	C20H15+
255.1363	8	C17H19O2+
256.1237	10	C20H16+
257.0947	13	C19H13O+
257.131	38	C20H17+
258.1024	24	C19H14O+
258.1391	57	C20H18+
259.1113	78	C19H15O+
259.1469	55	C20H19+
260.1184	115	C19H16O+
260.1522	25	C20H20+
261.126	304	C19H17O+
261.1614	59	C20H21+
262.1344	355	C19H18O+
263.1058	36	C18H15O2+
263.142	649	C19H19O+
264.1115	29	C18H16O2+
264.148	254	C16H21FO2+
265.1195	18	C18H17O2+
265.1568	66	C15[13]CH21FO2+
266.1247	5	C17[13]CH17O2+
266.1633	18	C19H22O+
267.1138	7	C21H15+
267.1394	19	C15H20FO3+
267.1742	34	C19H23O+
268.1234	20	C21H16+
268.177	7	C18[13]CH23O+
269.1292	21	C21H17+
270.1338	5	C20[13]CH17+
271.1118	88	C20H15O+
271.1473	15	C21H19+
272.118	111	C20H16O+
272.1534	5	C21H20+
273.1257	68	C20H17O+
273.1633	36	C21H21+
274.0985	10	C19H14O2+
274.1342	85	C20H18O+
274.1676	21	C21H22+
275.1062	36	C19H15O2+
275.1424	134	C20H19O+
276.1139	27	C19H16O2+
276.1503	269	C20H20O+
277.1217	60	C19H17O2+
277.1574	350	C20H21O+
278.1285	23	C19H18O2+
278.1649	321	C20H22O+
279.137	48	C19H19O2+
279.1733	526	C20H23O+
280.1441	18	C19H20O2+
280.177	118	C19[13]CH23O+
281.1535	66	C19H21O2+
281.1839	14	C18[13]C2H23O+
282.1543	15	C18[13]CH21O2+
283.149	19	C19H20FO+
284.1181	6	C21H16O+
284.1488	9	C15H21FO4+
285.1261	32	C21H17O+
286.1354	193	C21H18O+
287.139	61	C20[13]CH18O+
288.1111	8	C20H16O2+
288.1486	12	C21H20O+
289.1233	59	C17H18FO3+
289.1583	76	C21H21O+
290.1293	58	C20H18O2+
290.1629	23	C20[13]CH21O+
291.1362	65	C17H20FO3+
291.1733	308	C21H23O+
292.1461	15	C16[13]CH20FO3+
292.1777	73	C20[13]CH23O+
293.1534	18	C20H21O2+
293.1787	6	C19[13]C2H23O+
294.1585	10	C20H22O2+
295.1342	12	C16H20FO4+
295.1689	45	C20H23O2+
296.1724	17	C20H24O2+
297.1855	14	C17H26FO3+
299.1445	11	C19H20FO2+
300.1519	6	C19H21FO2+
301.1576	210	C22H21O+
302.1291	5	C21H18O2+
302.1619	72	C21[13]CH21O+
303.1363	17	C21H19O2+
303.1653	13	C15H24FO5+
304.146	58	C21H20O2+
305.1531	22	C21H21O2+
306.1613	56	C21H22O2+
307.1674	48	C18H24FO3+
308.1743	12	C17[13]CH24FO3+
309.186	25	C21H25O2+
310.189	7	C20[13]CH25O2+
311.1667	12	C20H23O3+
312.1698	5	C19[13]CH23O3+
317.1511	9	C22H21O2+
319.1686	102	C22H23O2+
320.172	33	C21[13]CH23O2+
321.1496	7	C18H22FO4+
321.1657	5	C15H26FO6+
321.1777	5	C15H26FO6+
324.165	6	C21H24O3+
337.18	40	C22H25O3+
338.1835	11	C21[13]CH25O3+
357.1935	6	C18H29O7+
