Mass spectrum: 4-Androsten-11beta-ol-3,17-dione; LC-ESI-QTOF; MS2; CE: 40 eV; R=35000; [M+H]+
Name: 4-Androsten-11beta-ol-3,17-dione
Name: 11beta-Hydroxyandrostenedione
Name: (8S,9S,10R,11S,13S,14S)-11-hydroxy-10,13-dimethyl-2,6,7,8,9,11,12,14,15,16-decahydro-1H-cyclopenta[a]phenanthrene-3,17-dione
Formula: C19H26O3
Exact mass: 302.1881947
SMILES: C[C@]12C[C@H](O)[C@H]3[C@@H](CCC4=CC(=O)CC[C@]34C)[C@@H]1CCC2=O
InChI: InChI=1S/C19H26O3/c1-18-8-7-12(20)9-11(18)3-4-13-14-5-6-16(22)19(14,2)10-15(21)17(13)18/h9,13-15,17,21H,3-8,10H2,1-2H3/t13-,14-,15-,17+,18-,19-/m0/s1
Instrument: Bruker maXis Impact
Instrument type: LC-ESI-QTOF
Ms type: MS2
Ion mode: POSITIVE
Ionization: ESI
Fragmentation mode: CID
Collision energy: 40 eV
Resolution: 35000
Column name: Acclaim RSLC C18 2.2um, 2.1x100mm, Thermo
Retention time: 8.222 min
Base peak: 303.1951
Precursor m/z: 303.1955
Precursor type: [M+H]+
m/z	relative intensity	assigned
115.0531	177	C9H7+
117.0688	224	C9H9+
118.0731	21	C8[13]CH9+
119.085	327	C9H11+
120.0876	43	C8[13]CH11+
121.0637	742	C8H9O+
121.1001	71	C9H13+
122.0677	84	C7[13]CH9O+
123.0794	535	C8H11O+
128.0606	270	C10H8+
129.0684	313	C10H9+
130.0765	153	C10H10+
131.0846	431	C10H11+
132.0548	25	C9H8O+
132.0887	43	C9[13]CH11+
133.0629	83	C9H9O+
133.1001	345	C10H13+
134.1034	51	C9[13]CH13+
135.0794	204	C9H11O+
135.1159	102	C10H15+
136.0831	35	C8[13]CH11O+
137.095	52	C9H13O+
141.0683	166	C11H9+
142.0761	173	C11H10+
143.0841	557	C11H11+
144.0891	104	C10[13]CH11+
145.064	70	C10H9O+
145.0997	999	C11H13+
146.0704	31	C10H10O+
146.1036	125	C10[13]CH13+
147.0788	264	C10H11O+
147.1154	195	C11H15+
148.0857	81	C10H12O+
148.1197	25	C10[13]CH15+
149.0944	157	C10H13O+
150.1005	27	C10H14O+
151.1105	67	C10H15O+
152.0607	29	C12H8+
153.0682	84	C12H9+
154.0767	72	C12H10+
155.084	284	C12H11+
156.091	96	C12H12+
157.0638	39	C11H9O+
157.1	374	C12H13+
158.0707	39	C11H10O+
159.0794	179	C11H11O+
159.1154	291	C12H15+
160.0857	46	C11H12O+
160.1206	40	C11[13]CH15+
161.0941	219	C11H13O+
161.1306	64	C12H17+
162.1332	16	C11[13]CH17+
163.1103	391	C11H15O+
164.1132	63	C10[13]CH15O+
165.0694	54	C13H9+
166.0757	47	C13H10+
167.0833	118	C13H11+
168.0919	99	C13H12+
169.0995	297	C13H13+
170.1054	73	C13H14+
171.0794	69	C12H11O+
171.1153	272	C13H15+
172.0863	27	C12H12O+
172.1191	58	C12[13]CH15+
173.0945	172	C12H13O+
173.1313	103	C13H17+
174.1007	92	C12H14O+
175.1101	201	C12H15O+
176.1163	46	C12H16O+
177.1268	32	C12H17O+
178.0781	32	C14H10+
179.0843	82	C14H11+
180.0909	57	C14H12+
181.1005	172	C14H13+
182.1065	88	C14H14+
183.0795	40	C13H11O+
183.1146	310	C14H15+
184.1203	80	C14H16+
185.094	87	C13H13O+
185.1313	226	C14H17+
186.1004	24	C13H14O+
186.1361	50	C13[13]CH17+
187.1106	84	C13H15O+
187.1461	34	C14H19+
188.1168	30	C13H16O+
189.1263	158	C13H17O+
190.1311	18	C12[13]CH17O+
191.0849	16	C15H11+
192.0921	47	C15H12+
193.1001	94	C15H13+
194.1074	76	C15H14+
195.0775	22	C14H11O+
195.1157	153	C15H15+
196.1241	55	C15H16+
197.0948	178	C14H13O+
197.1304	197	C15H17+
198.0998	58	C14H14O+
198.1361	34	C14[13]CH17+
199.111	108	C14H15O+
199.1475	136	C15H19+
200.1165	28	C14H16O+
200.1521	28	C14[13]CH19+
201.1265	101	C14H17O+
201.1627	38	C15H21+
202.1339	35	C14H18O+
203.1432	25	C14H19O+
205.1007	20	C16H13+
206.1069	20	C16H14+
207.1169	93	C16H15+
208.1222	51	C16H16+
209.0921	27	C15H13O+
209.1304	150	C16H17+
210.1019	19	C15H14O+
210.1369	34	C15[13]CH17+
211.1124	65	C15H15O+
211.1459	55	C16H19+
212.1165	49	C15H16O+
213.126	93	C15H17O+
213.1627	26	C16H21+
214.1321	53	C15H18O+
215.1422	40	C15H19O+
217.1589	23	C15H21O+
219.1161	34	C17H15+
220.1216	16	C17H16+
221.1313	39	C17H17+
223.1141	16	C16H15O+
223.1474	78	C17H19+
224.1167	31	C16H16O+
224.1527	28	C17H20+
225.1272	71	C16H17O+
225.1638	95	C17H21+
226.1328	45	C16H18O+
227.1427	151	C16H19O+
228.1481	57	C16H20O+
229.154	15	C15[13]CH20O+
234.1419	31	C18H18+
237.1265	95	C17H17O+
238.1304	39	C17H18O+
239.1422	62	C17H19O+
239.1801	40	C18H23+
240.1468	35	C17H20O+
241.1568	80	C17H21O+
242.1649	35	C17H22O+
243.1737	67	C17H23O+
249.1651	30	C19H21+
252.1501	165	C18H20O+
253.1532	34	C17[13]CH20O+
255.1372	17	C17H19O2+
257.1552	22	C17H21O2+
258.1613	36	C17H22O2+
259.1699	20	C17H23O2+
267.1751	73	C19H23O+
268.1772	21	C18[13]CH23O+
270.162	67	C18H22O2+
271.1635	15	C17[13]CH22O2+
285.1841	71	C19H25O2+
