Mass spectrum: Terbutryn; LC-ESI-QTOF; MS2; CE: Ramp 20-30 eV; R=35000; [M+H]+
Name: Terbutryn
Name: 2-N-tert-butyl-4-N-ethyl-6-methylsulfanyl-1,3,5-triazine-2,4-diamine
Formula: C10H19N5S
Exact mass: 241.1361166
SMILES: CCNC1=NC(NC(C)(C)C)=NC(SC)=N1
InChI: InChI=1S/C10H19N5S/c1-6-11-7-12-8(15-10(2,3)4)14-9(13-7)16-5/h6H2,1-5H3,(H2,11,12,13,14,15)
Instrument: Bruker maXis Impact
Instrument type: LC-ESI-QTOF
Ms type: MS2
Ion mode: POSITIVE
Ionization: ESI
Fragmentation mode: CID
Collision energy: Ramp 20-30 eV
Resolution: 35000
Column name: Acclaim RSLC C18 2.2um, 2.1x100mm, Thermo
Retention time: 10.252 min
Base peak: 242.1442
Precursor m/z: 242.1434
Precursor type: [M+H]+
m/z	relative intensity	assigned
57.0694	10	C4H9+
68.0238	30	C2H2N3+
71.0598	138	C3H7N2+
74.0053	16	C2H4NS+
85.0505	20	C2H5N4+
91.0325	241	C2H7N2S+
92.0346	5	C[13]CH7N2S+
93.0285	8	C2H7N2[34]S+
96.0558	147	C4H6N3+
102.0372	10	C4H8NS+
110.047	8	C3H4N5+
113.0832	25	C4H9N4+
116.0285	51	C3H6N3S+
138.0772	74	C5H8N5+
144.0585	49	C5H10N3S+
158.0488	65	C4H8N5S+
186.0808	999	C6H12N5S+
187.0828	124	C9H9N5+
188.0763	67	C6H12N5[34]S+
242.1441	417	C10H20N5S+
243.1465	44	C9[13]CH20N5S+
244.1403	14	C10H20N5[34]S+
