Mass spectrum: N,N-Dimethyldecylamine; LC-ESI-QTOF; MS2; CE: Ramp 17.5-26.3 eV; R=35000; [M+H]+
Name: N,N-Dimethyldecylamine
Name: N,N-dimethyldecan-1-amine
Formula: C12H27N
Exact mass: 185.2143499
SMILES: CCCCCCCCCCN(C)C
InChI: InChI=1S/C12H27N/c1-4-5-6-7-8-9-10-11-12-13(2)3/h4-12H2,1-3H3
Instrument: Bruker maXis Impact
Instrument type: LC-ESI-QTOF
Ms type: MS2
Ion mode: POSITIVE
Ionization: ESI
Fragmentation mode: CID
Collision energy: Ramp 17.5-26.3 eV
Resolution: 35000
Column name: Acclaim RSLC C18 2.2um, 2.1x100mm, Thermo
Retention time: 8.581 min
Base peak: 186.2209
Precursor m/z: 186.2216
Precursor type: [M+H]+
m/z	relative intensity	assigned
46.0648	24	C2H8N+
57.0692	42	C4H9+
71.085	7	C5H11+
85.0994	5	C6H13+
186.2209	999	C12H28N+
187.2244	107	C11[13]CH28N+
188.2277	10	C10[13]C2H28N+
