Mass spectrum: Fluticasone propionate; LC-ESI-QTOF; MS2; CE: 10 eV; R=35000; [M+H]+
Name: Fluticasone propionate
Name: [(6S,8S,9R,10S,11S,13S,14S,16R,17R)-6,9-difluoro-17-(fluoromethylsulfanylcarbonyl)-11-hydroxy-10,13,16-trimethyl-3-oxo-6,7,8,11,12,14,15,16-octahydrocyclopenta[a]phenanthren-17-yl] propanoate
Formula: C25H31F3O5S
Exact mass: 500.1844298
SMILES: CCC(=O)O[C@@]1([C@H](C)C[C@H]2[C@@H]3C[C@H](F)C4=CC(=O)C=C[C@]4(C)[C@@]3(F)[C@@H](O)C[C@]12C)C(=O)SCF
InChI: InChI=1S/C25H31F3O5S/c1-5-20(31)33-25(21(32)34-12-26)13(2)8-15-16-10-18(27)17-9-14(29)6-7-22(17,3)24(16,28)19(30)11-23(15,25)4/h6-7,9,13,15-16,18-19,30H,5,8,10-12H2,1-4H3/t13-,15+,16+,18+,19+,22+,23+,24+,25+/m1/s1
Instrument: Bruker maXis Impact
Instrument type: LC-ESI-QTOF
Ms type: MS2
Ion mode: POSITIVE
Ionization: ESI
Fragmentation mode: CID
Collision energy: 10 eV
Resolution: 35000
Column name: Acclaim RSLC C18 2.2um, 2.1x100mm, Thermo
Retention time: 10.691 min
Base peak: 313.2161
Precursor m/z: 501.1917
Precursor type: [M+H]+
m/z	relative intensity	assigned
155.0859	8	C12H11+
179.0853	6	C14H11+
185.0588	10	C12H9O2+
201.0728	17	C13H13S+
205.0644	31	C15H9O+
206.068	6	C14[13]CH9O+
251.1421	9	C18H19O+
265.1577	28	C19H21O+
266.1626	5	C18[13]CH21O+
275.1431	27	C17H20FO2+
276.1479	7	C16[13]CH20FO2+
285.1637	5	C22H21+
293.1532	213	C20H21O2+
294.1564	46	C19[13]CH21O2+
295.1489	28	C20H20FO+
296.1527	5	C19[13]CH20FO+
303.1383	9	C21H19O2+
311.1623	5	C18H22F3O+
313.1593	334	C20H25OS+
314.1627	62	C19[13]CH25OS+
315.1593	14	C20H25O[34]S+
321.1484	14	C19H23F2S+
323.1453	7	C18H21F2O3+
331.1539	26	C20H24FOS+
332.1563	7	C19[13]CH24FOS+
333.1655	60	C23H22FO+
334.1678	14	C22[13]CH22FO+
339.1397	13	C18H21F2O4+
341.1524	14	C22H20F3+
359.1479	51	C21H24FO2S+
360.1509	12	C20[13]CH24FO2S+
361.1429	26	C21H23F2OS+
369.1315	25	C22H22FO2S+
370.1355	6	C21[13]CH22FO2S+
379.155	18	C24H21F2O2+
380.1542	5	C23[13]CH21F2O2+
381.1494	17	C21H24F3OS+
387.1426	41	C25H23O2S+
388.1458	10	C24[13]CH23O2S+
389.1367	43	C22H20F3O3+
390.1399	8	C21[13]CH20F3O3+
405.1551	7	C19H27F2O5S+
407.1486	69	C25H24FO2S+
408.1521	18	C24[13]CH24FO2S+
409.1425	12	C25H23F2OS+
425.1593	6	C22H27F2O4S+
435.1975	18	C24H29F2O5+
461.1792	8	C25H30FO5S+
463.175	28	C25H26F3O5+
464.1773	9	C24[13]CH26F3O5+
481.1853	201	C25H31F2O5S+
482.1877	58	C24[13]CH31F2O5S+
483.1879	19	C25H30F3O4S+
485.1716	6	C24H28F3O5S+
501.1917	999	C25H32F3O5S+
502.1944	262	C24[13]CH32F3O5S+
503.1931	67	C25H32F3O5[34]S+
