Mass spectrum: Trenbolone; LC-ESI-QTOF; MS2; CE: Ramp 20.6-30.8 eV; R=35000; [M+H]+
Name: Trenbolone
Name: Trenbolone:17-Hydroxyestra-4,9,11-trien-3-one
Name: (13S,17S)-17-hydroxy-13-methyl-2,6,7,8,14,15,16,17-octahydro-1H-cyclopenta[a]phenanthren-3-one
Formula: C18H22O2
Exact mass: 270.1619799
SMILES: C[C@]12C=CC3=C4CCC(=O)C=C4CCC3C1CC[C@@H]2O
InChI: InChI=1S/C18H22O2/c1-18-9-8-14-13-5-3-12(19)10-11(13)2-4-15(14)16(18)6-7-17(18)20/h8-10,15-17,20H,2-7H2,1H3/t15?,16?,17-,18-/m0/s1
Instrument: Bruker maXis Impact
Instrument type: LC-ESI-QTOF
Ms type: MS2
Ion mode: POSITIVE
Ionization: ESI
Fragmentation mode: CID
Collision energy: Ramp 20.6-30.8 eV
Resolution: 35000
Column name: Acclaim RSLC C18 2.2um, 2.1x100mm, Thermo
Retention time: 8.946 min
Base peak: 271.1694
Precursor m/z: 271.1693
Precursor type: [M+H]+
m/z	relative intensity	assigned
67.0535	6	C5H7+
79.0536	8	C6H7+
81.0694	10	C6H9+
83.0488	43	C5H7O+
91.0541	7	C7H7+
93.07	11	C7H9+
95.0857	7	C7H11+
105.0709	9	C8H9+
107.0502	18	C7H7O+
107.0862	9	C8H11+
119.0856	5	C9H11+
121.0647	7	C8H9O+
129.0691	8	C10H9+
131.0848	11	C10H11+
133.0642	22	C9H9O+
133.1007	6	C10H13+
135.08	9	C9H11O+
141.0688	8	C11H9+
143.0849	14	C11H11+
145.0634	8	C10H9O+
145.1004	18	C11H13+
147.0794	10	C10H11O+
148.0873	5	C10H12O+
155.0842	11	C12H11+
157.0636	21	C11H9O+
157.1	8	C12H13+
159.0797	39	C11H11O+
161.0949	8	C11H13O+
165.0688	5	C13H9+
166.0767	5	C13H10+
167.0846	11	C13H11+
169.1001	16	C13H13+
171.0792	13	C12H11O+
171.1159	11	C13H15+
173.0951	8	C12H13O+
179.0845	19	C14H11+
180.0914	5	C14H12+
181.1001	15	C14H13+
183.0794	12	C13H11O+
183.1158	17	C14H15+
184.0872	9	C13H12O+
185.095	21	C13H13O+
186.1025	8	C13H14O+
187.1107	14	C13H15O+
189.1265	13	C13H17O+
193.1002	11	C15H13+
195.1157	14	C15H15+
197.0952	44	C14H13O+
197.1318	6	C15H17+
198.1028	26	C14H14O+
199.111	205	C14H15O+
200.1161	41	C13[13]CH15O+
201.1231	5	C14H17O+
207.116	11	C16H15+
209.1318	13	C16H17+
211.1112	38	C15H15O+
211.1473	12	C16H19+
212.118	23	C15H16O+
213.1256	11	C15H17O+
214.1349	45	C15H18O+
215.1405	10	C14[13]CH18O+
220.1244	7	C17H16+
224.1189	11	C16H16O+
225.1267	35	C16H17O+
227.1428	73	C16H19O+
228.1477	15	C15[13]CH19O+
235.1477	21	C18H19+
238.1348	23	C17H18O+
253.1588	250	C18H21O+
254.162	46	C17[13]CH21O+
271.1697	999	C18H23O2+
272.1731	192	C17[13]CH23O2+
273.1763	16	C16[13]C2H23O2+
