Mass spectrum: 2-Morpholinothiobenzothiazole; LC-ESI-QTOF; MS2; CE: Ramp 20-30 eV; R=35000; [M+H]+
Name: 2-Morpholinothiobenzothiazole
Name: 2-(Morpholinothio)benzothiazole
Name: 4-(1,3-benzothiazol-2-ylsulfanyl)morpholine
Formula: C11H12N2OS2
Exact mass: 252.0391050
SMILES: C1CN(CCO1)SC1=NC2=CC=CC=C2S1
InChI: InChI=1S/C11H12N2OS2/c1-2-4-10-9(3-1)12-11(15-10)16-13-5-7-14-8-6-13/h1-4H,5-8H2
Instrument: Bruker maXis Impact
Instrument type: LC-ESI-QTOF
Ms type: MS2
Ion mode: POSITIVE
Ionization: ESI
Fragmentation mode: CID
Collision energy: Ramp 20-30 eV
Resolution: 35000
Column name: Acclaim RSLC C18 2.2um, 2.1x100mm, Thermo
Retention time: 9.867 min
Base peak: 253.046
Precursor m/z: 253.0464
Precursor type: [M+H]+
m/z	relative intensity	assigned
56.0489	419	C3H6N+
57.0566	200	C3H7N+
58.0646	49	C3H8N+
72.0441	5	C3H6NO+
86.0601	596	C4H8NO+
87.0678	286	C4H9NO+
88.0707	10	C3[13]CH9NO+
118.0334	11	C4H8NOS+
122.0048	8	C6H4NS+
136.0211	107	C7H6NS+
137.024	12	C6[13]CH6NS+
138.0159	7	C7H6N[34]S+
148.0205	19	C8H6NS+
162.0361	10	C9H8NS+
163.0324	22	C8H7N2S+
163.0421	17	C9H9NS+
165.9775	336	C7H4NS2+
166.9839	86	C10HNS+
167.972	28	C7H4NS[34]S+
167.9927	299	C10H2NS+
168.9956	21	C9[13]CH2NS+
169.988	17	C10H2N[34]S+
175.0316	6	C9H7N2S+
176.0402	9	C9H8N2S+
182.008	6	C8H8NS2+
183.9857	6	C10H2NOS+
190.0546	8	C10H10N2S+
198.0034	15	C8H8NOS2+
205.0418	6	C10H9N2OS+
207.008	6	C9H7N2S2+
219.0587	8	C11H11N2OS+
220.0663	176	C11H12N2OS+
221.0703	20	C10[13]CH12N2OS+
222.0643	11	C11H12N2O[34]S+
253.0464	999	C11H13N2OS2+
254.0488	123	C10[13]CH13N2OS2+
255.0418	70	C11H13N2OS[34]S+
