Mass spectrum: Fluticasone propionate; LC-ESI-QTOF; MS2; CE: 50 eV; R=35000; [M+H]+
Name: Fluticasone propionate
Name: [(6S,8S,9R,10S,11S,13S,14S,16R,17R)-6,9-difluoro-17-(fluoromethylsulfanylcarbonyl)-11-hydroxy-10,13,16-trimethyl-3-oxo-6,7,8,11,12,14,15,16-octahydrocyclopenta[a]phenanthren-17-yl] propanoate
Formula: C25H31F3O5S
Exact mass: 500.1844298
SMILES: CCC(=O)O[C@@]1([C@H](C)C[C@H]2[C@@H]3C[C@H](F)C4=CC(=O)C=C[C@]4(C)[C@@]3(F)[C@@H](O)C[C@]12C)C(=O)SCF
InChI: InChI=1S/C25H31F3O5S/c1-5-20(31)33-25(21(32)34-12-26)13(2)8-15-16-10-18(27)17-9-14(29)6-7-22(17,3)24(16,28)19(30)11-23(15,25)4/h6-7,9,13,15-16,18-19,30H,5,8,10-12H2,1-4H3/t13-,15+,16+,18+,19+,22+,23+,24+,25+/m1/s1
Instrument: Bruker maXis Impact
Instrument type: LC-ESI-QTOF
Ms type: MS2
Ion mode: POSITIVE
Ionization: ESI
Fragmentation mode: CID
Collision energy: 50 eV
Resolution: 35000
Column name: Acclaim RSLC C18 2.2um, 2.1x100mm, Thermo
Retention time: 10.683 min
Base peak: 313.2161
Precursor m/z: 501.1917
Precursor type: [M+H]+
m/z	relative intensity	assigned
115.0538	70	C9H7+
116.0598	16	C9H8+
117.0685	51	C9H9+
119.0848	71	C9H11+
121.064	999	C8H9O+
122.0676	82	C7[13]CH9O+
123.0601	51	C8H8F+
125.0385	41	C10H5+
125.0754	20	C8H10F+
127.0541	15	C10H7+
127.0898	11	C8H12F+
128.061	101	C10H8+
129.0689	119	C10H9+
130.0731	20	C9[13]CH9+
131.0482	24	C9H7O+
131.0846	187	C10H11+
132.055	17	C9H8O+
133.0448	22	C9H6F+
133.0634	113	C9H9O+
133.0997	48	C10H13+
134.0697	14	C8[13]CH9O+
134.1039	9	C9[13]CH13+
135.0434	19	C8H7O2+
135.0588	28	C9H8F+
135.0795	299	C9H11O+
136.0825	34	C8[13]CH11O+
137.0402	14	C8H6FO+
137.0749	65	C9H10F+
137.0946	11	C9H13O+
138.0825	25	C9H11F+
139.0545	295	C11H7+
139.0906	26	C9H12F+
140.0572	33	C10[13]CH7+
141.0686	84	C11H9+
142.0766	52	C11H10+
143.0844	125	C11H11+
144.0556	38	C10H8O+
144.09	36	C11H12+
145.0637	259	C10H9O+
145.1011	54	C11H13+
146.0518	29	C10H7F+
147.0585	27	C10H8F+
147.0792	155	C10H11O+
147.1139	12	C11H15+
148.0835	18	C9[13]CH11O+
149.0385	12	C12H5+
149.0736	62	C10H10F+
149.0942	17	C10H13O+
150.0454	17	C12H6+
151.0545	69	C12H7+
151.0909	262	C10H12F+
152.0602	16	C12H8+
152.0956	29	C9[13]CH12F+
153.0488	9	C9H7F2+
153.0706	54	C9H10FO+
154.0748	14	C12H10+
155.084	59	C12H11+
156.0907	14	C11[13]CH11+
157.0473	10	C5H8F3O2+
157.0637	111	C11H9O+
157.1003	121	C12H13+
158.071	91	C11H10O+
159.0623	61	C5H10F3O2+
159.0794	462	C11H11O+
160.0652	21	C11H9F+
160.0838	87	C10[13]CH11O+
161.0584	67	C8H8F3+
161.0751	61	C11H10F+
161.0949	93	C11H13O+
162.0463	29	C13H6+
162.0615	13	C8H9F3+
162.0819	13	C11H11F+
162.0986	12	C10[13]CH13O+
163.0554	57	C10H8FO+
163.0744	15	C10H11O2+
163.0908	48	C11H12F+
164.0629	60	C10H9FO+
164.0983	22	C11H13F+
165.035	9	C9H6FO2+
165.0699	104	C10H10FO+
166.0758	19	C9[13]CH10FO+
167.0841	67	C13H11+
168.0569	13	C12H8O+
168.089	11	C12[13]CH11+
169.0628	151	C12H9O+
169.0999	30	C13H13+
170.0706	36	C12H10O+
171.0794	808	C12H11O+
172.0672	24	C12H9F+
172.0834	139	C11[13]CH11O+
173.0592	53	C11H9O2+
173.0787	34	C6H12F3O2+
173.0947	252	C12H13O+
174.064	20	C9H9F3+
174.0817	11	C12H11F+
174.0989	40	C11[13]CH13O+
175.0538	20	C14H7+
175.0724	13	C9H10F3+
175.091	54	C12H12F+
175.1092	13	C12H15O+
176.0623	21	C14H8+
177.0703	211	C14H9+
177.09	23	C11H13O2+
177.1062	45	C12H14F+
178.0759	52	C14H10+
178.0937	9	C9H13F3+
178.1105	10	C11[13]CH14F+
179.0491	72	C13H7O+
179.0854	975	C11H15S+
180.0898	134	C10[13]CH15S+
181.0638	24	C13H9O+
181.0819	33	C11H15[34]S+
181.0997	63	C14H13+
182.0704	37	C13H10O+
182.0863	10	C11H12F2+
182.1063	13	C13[13]CH13+
183.06	13	C13H8F+
183.0791	77	C13H11O+
183.1008	11	C8H17F2S+
183.1137	10	C14H15+
184.0695	11	C10H10F2O+
184.0815	19	C12[13]CH11O+
184.0872	21	C13H12O+
185.0422	44	C6H8F3O3+
185.059	362	C10H8F3+
185.0949	156	C13H13O+
186.0614	53	C9[13]CH8F3+
187.0564	29	C9H9F2O2+
187.0739	78	C12H11O2+
187.0886	45	C13H12F+
187.1082	13	C13H15O+
188.0787	11	C11[13]CH11O2+
189.0705	81	C12H10FO+
189.0904	13	C12H13O2+
189.1064	12	C13H14F+
190.0762	32	C15H10+
191.0852	101	C15H11+
192.0918	38	C15H12+
193.0632	9	C14H9O+
193.0826	12	C12H11F2+
193.0992	62	C15H13+
194.0702	31	C14H10O+
194.1073	29	C15H14+
195.0794	126	C14H11O+
195.0969	45	C12H13F2+
195.1158	49	C15H15+
196.0872	92	C14H12O+
196.1204	13	C14[13]CH15+
197.0942	101	C14H13O+
198.0889	9	C10H14O4+
198.1006	30	C14H14O+
199.0747	44	C13H11O2+
199.0904	32	C14H12F+
199.11	24	C14H15O+
201.0701	16	C16H9+
201.0905	17	C10H17O2S+
201.0988	9	C7H18FO3S+
202.0772	33	C16H10+
203.0523	11	C12H11OS+
203.0854	74	C16H11+
204.0886	25	C16H12+
205.0649	553	C12H13OS+
205.1009	158	C16H13+
206.0684	112	C11[13]CH13OS+
206.1068	43	C15[13]CH13+
207.0639	14	C12H13O[34]S+
207.0792	40	C15H11O+
207.0958	24	C13H13F2+
207.1163	34	C16H15+
208.0876	92	C15H12O+
208.1204	16	C16H16+
209.0944	326	C12H17OS+
209.131	17	C16H17+
210.0736	9	C5H16F2O4S+
210.1012	107	C15H14O+
211.0769	16	C11H12FO3+
211.0923	20	C12H17O[34]S+
211.1095	63	C15H15O+
212.1156	22	C15H16O+
213.0699	12	C17H9+
213.1093	22	C9H16F3O2+
213.1236	11	C15H17O+
215.0847	37	C17H11+
216.0915	40	C17H12+
217.101	113	C17H13+
218.0719	19	C16H10O+
218.1065	70	C17H14+
219.0789	79	C16H11O+
219.1158	67	C17H15+
220.0865	43	C16H12O+
220.1153	17	C16[13]CH15+
220.1222	14	C16[13]CH15+
221.0955	143	C16H13O+
221.1312	20	C17H17+
222.1024	199	C16H14O+
222.1424	10	C11H20F2O2+
223.0737	18	C13H10F3+
223.1108	294	C16H15O+
223.147	20	C17H19+
224.0813	14	C13H11F3+
224.1151	64	C15[13]CH15O+
225.0715	12	C15H10FO+
225.0896	31	C13H12F3+
225.1044	18	C16H14F+
225.1244	40	C16H17O+
226.0789	10	C15H11FO+
226.1091	13	C3H21F3O5S+
226.1289	14	C6H23FO5S+
227.0857	35	C18H11+
228.0937	21	C18H12+
229.0994	53	C18H13+
230.1079	26	C18H14+
231.0797	43	C17H11O+
231.1165	46	C18H15+
232.0857	33	C17H12O+
232.1239	177	C18H16+
233.0956	145	C17H13O+
233.1304	108	C18H17+
234.1021	110	C17H14O+
234.134	24	C17[13]CH17+
235.1106	239	C17H15O+
236.1182	200	C17H16O+
237.0888	76	C14H12F3+
237.1263	167	C17H17O+
237.1637	18	C18H21+
238.0956	29	C14H13F3+
238.1301	35	C16[13]CH17O+
239.0862	49	C16H12FO+
239.1058	36	C16H15O2+
239.1402	18	C17H19O+
240.0907	31	C19H12+
241.101	46	C19H13+
242.108	119	C19H14+
243.1158	93	C19H15+
244.0849	14	C18H12O+
244.1196	47	C6H22F2O5S+
245.0953	402	C18H13O+
246.1021	232	C18H14O+
247.1095	132	C18H15O+
247.1469	289	C19H19+
248.1167	59	C18H16O+
248.1517	88	C18[13]CH19+
249.09	26	C17H13O2+
249.1254	203	C18H17O+
249.162	19	C19H21+
250.0981	14	C17H14O2+
250.1347	204	C18H18O+
251.086	15	C20H11+
251.1053	65	C17H15O2+
251.1417	255	C18H19O+
252.0919	9	C20H12+
252.1101	18	C16[13]CH15O2+
252.1469	68	C17[13]CH19O+
253.1025	42	C17H14FO+
253.1233	35	C14H18FO3+
253.1385	24	C18H18F+
253.1519	10	C8H26FO5S+
254.1089	41	C20H14+
255.1166	28	C20H15+
256.1217	12	C20H16+
257.0988	16	C13H15F2O3+
257.1314	242	C20H17+
258.101	11	C19H14O+
258.1365	66	C19[13]CH17+
259.1106	77	C19H15O+
259.1468	55	C20H19+
260.1188	863	C19H16O+
261.1258	681	C19H17O+
262.1305	152	C18[13]CH17O+
263.1054	82	C16H14F3+
263.141	54	C19H19O+
264.1135	60	C18H16O2+
264.146	19	C18[13]CH19O+
265.1065	28	C12H19F2O2S+
265.1204	26	C16H16F3+
265.1577	478	C16H25OS+
266.1079	20	C21H14+
266.1626	103	C15[13]CH25OS+
267.0819	13	C17H12FO2+
267.1157	21	C21H15+
267.1554	19	C16H25O[34]S+
267.16	19	C16H25O[34]S+
268.1452	10	C18H20O2+
268.1596	22	C19H21F+
269.1307	14	C21H17+
270.0983	16	C20H14O+
270.108	18	C20H14O+
270.1423	11	C15H20F2O2+
271.1119	23	C20H15O+
272.1172	13	C20H16O+
273.1265	43	C20H17O+
274.1348	29	C20H18O+
275.1424	938	C20H19O+
276.1486	443	C20H20O+
277.1266	16	C13H22FO3S+
277.1532	117	C19[13]CH20O+
278.1296	128	C19H18O2+
278.1595	15	C18[13]C2H20O+
279.137	48	C19H19O2+
279.1703	9	C20H23O+
280.1258	100	C19H17FO+
281.0956	13	C21H13O+
281.1337	162	C19H18FO+
282.1372	32	C18[13]CH18FO+
285.1254	26	C21H17O+
285.1623	18	C22H21+
286.1329	22	C21H18O+
287.1422	13	C21H19O+
288.115	54	C15H19F3S+
288.1463	13	C21H20O+
289.1172	30	C18H16F3+
291.1154	12	C23H15+
291.1369	13	C20H19O2+
293.1525	273	C20H21O2+
294.1576	82	C19[13]CH21O2+
295.1483	196	C23H19+
296.1552	163	C20H21FO+
297.1618	42	C19[13]CH21FO+
299.1442	14	C19H20FO2+
303.1385	29	C16H22F3S+
304.1427	20	C19H19F3+
305.1384	15	C17H21O5+
306.1271	9	C14H20F2O5+
306.1442	17	C15H21F3O3+
307.1284	10	C21H17F2+
309.1256	16	C23H17O+
313.1593	49	C23H21O+
314.1642	17	C22[13]CH21O+
316.1643	10	C17H23F3O2+
323.1441	20	C21H20FO2+
324.1463	12	C24H20O+
333.1449	13	C23H19F2+
338.1147	12	C18H20F2O2S+
341.139	16	C15H24F3O3S+
361.1448	19	C23H21O4+
362.149	9	C22[13]CH21O4+
