Mass spectrum: Gestoden; LC-ESI-QTOF; MS2; CE: 40 eV; R=35000; [M+H]+
Name: Gestoden
Name: Gestodene
Name: (8R,9S,10R,13S,14S,17R)-13-ethyl-17-ethynyl-17-hydroxy-1,2,6,7,8,9,10,11,12,14-decahydrocyclopenta[a]phenanthren-3-one
Formula: C21H26O2
Exact mass: 310.1932801
SMILES: [H][C@@]12C=C[C@@](O)(C#C)[C@@]1(CC)CC[C@]1([H])[C@@]3([H])CCC(=O)C=C3CC[C@@]21[H]
InChI: InChI=1S/C21H26O2/c1-3-20-11-9-17-16-8-6-15(22)13-14(16)5-7-18(17)19(20)10-12-21(20,23)4-2/h2,10,12-13,16-19,23H,3,5-9,11H2,1H3/t16-,17+,18+,19-,20-,21-/m0/s1
Instrument: Bruker maXis Impact
Instrument type: LC-ESI-QTOF
Ms type: MS2
Ion mode: POSITIVE
Ionization: ESI
Fragmentation mode: CID
Collision energy: 40 eV
Resolution: 35000
Column name: Acclaim RSLC C18 2.2um, 2.1x100mm, Thermo
Retention time: 9.442 min
Base peak: 311.1999
Precursor m/z: 311.2006
Precursor type: [M+H]+
m/z	relative intensity	assigned
109.0635	18	C7H9O+
115.0535	450	C9H7+
116.0598	107	C9H8+
117.0692	449	C9H9+
118.0731	61	C8[13]CH9+
119.0484	66	C8H7O+
119.0845	358	C9H11+
120.0876	41	C8[13]CH11+
121.0632	120	C8H9O+
121.0993	84	C9H13+
123.0795	78	C8H11O+
123.1159	24	C9H15+
127.0531	61	C10H7+
128.0607	895	C10H8+
129.0685	999	C10H9+
130.0752	238	C10H10+
131.0482	134	C9H7O+
131.0842	871	C10H11+
132.0547	58	C9H8O+
132.0879	106	C9[13]CH11+
133.0635	440	C9H9O+
133.0997	328	C10H13+
134.0691	59	C8[13]CH9O+
134.1034	39	C9[13]CH13+
135.0792	446	C9H11O+
135.1152	61	C10H15+
136.0834	48	C8[13]CH11O+
137.0942	52	C9H13O+
139.0523	17	C11H7+
141.0686	857	C11H9+
142.0753	439	C11H10+
143.0839	850	C11H11+
144.0556	121	C10H8O+
144.089	142	C10[13]CH11+
145.0633	375	C10H9O+
145.0999	546	C11H13+
146.07	131	C10H10O+
146.1042	83	C10[13]CH13+
147.0792	417	C10H11O+
147.1159	192	C11H15+
148.1185	22	C10[13]CH15+
149.0944	295	C10H13O+
149.1308	39	C11H17+
150.0979	55	C9[13]CH13O+
152.0602	161	C12H8+
153.0683	542	C12H9+
154.0755	311	C12H10+
155.0837	670	C12H11+
156.0901	209	C12H12+
157.0632	176	C11H9O+
157.0996	425	C12H13+
158.0705	123	C11H10O+
158.1047	79	C11[13]CH13+
159.0785	393	C11H11O+
159.1154	254	C12H15+
161.0592	17	C10H9O2+
161.0946	269	C11H13O+
161.1306	172	C12H17+
162.1013	67	C11H14O+
162.1331	20	C11[13]CH17+
163.1102	115	C11H15O+
165.0681	371	C13H9+
166.0758	228	C13H10+
167.0838	445	C13H11+
168.0907	346	C13H12+
169.0617	46	C12H9O+
169.0995	391	C13H13+
170.0715	51	C12H10O+
170.1055	97	C13H14+
171.0782	216	C12H11O+
171.115	305	C13H15+
172.0861	133	C12H12O+
172.1207	39	C12[13]CH15+
173.0945	210	C12H13O+
173.1306	174	C13H17+
174.1007	76	C12H14O+
175.0732	18	C11H11O2+
175.1094	130	C12H15O+
175.1474	37	C13H19+
176.1151	25	C11[13]CH15O+
178.0764	154	C14H10+
179.0834	252	C14H11+
180.0906	157	C14H12+
181.063	57	C13H9O+
181.0993	311	C14H13+
182.0727	43	C13H10O+
182.1062	115	C14H14+
183.0789	84	C13H11O+
183.1147	333	C14H15+
184.0853	56	C13H12O+
184.1204	79	C13[13]CH15+
185.094	119	C13H13O+
185.1307	109	C14H17+
186.1009	64	C13H14O+
186.1353	25	C13[13]CH17+
187.1105	123	C13H15O+
187.147	31	C14H19+
188.1167	67	C13H16O+
189.0689	36	C15H9+
189.0877	16	C12H13O2+
189.1264	26	C13H17O+
189.1628	13	C14H21+
190.0764	49	C15H10+
191.0833	133	C15H11+
192.0904	104	C15H12+
193.0992	179	C15H13+
194.0704	38	C14H10O+
194.1059	104	C15H14+
195.0791	63	C14H11O+
195.1152	153	C15H15+
196.086	38	C14H12O+
196.1213	70	C15H16+
197.0941	78	C14H13O+
197.1309	110	C15H17+
198.1008	33	C14H14O+
198.1377	23	C14[13]CH17+
199.1108	106	C14H15O+
199.1467	87	C15H19+
200.1161	36	C14H16O+
200.1507	18	C14[13]CH19+
201.126	525	C14H17O+
201.1606	46	C15H21+
202.0755	39	C16H10+
202.1297	81	C13[13]CH17O+
203.0839	106	C16H11+
203.1411	16	C14H19O+
204.0913	68	C16H12+
205.0988	155	C16H13+
206.1058	79	C16H14+
207.0804	22	C15H11O+
207.115	132	C16H15+
208.0854	27	C15H12O+
208.1218	49	C16H16+
209.0948	82	C15H13O+
209.1309	100	C16H17+
210.1006	25	C15H14O+
210.1346	25	C15[13]CH17+
211.1116	53	C15H15O+
211.146	37	C16H19+
212.1162	26	C15H16O+
212.1516	11	C15[13]CH19+
213.1257	60	C15H17O+
213.1626	58	C16H21+
214.1327	52	C15H18O+
214.1663	16	C15[13]CH21+
215.0855	14	C17H11+
215.141	57	C15H19O+
216.0912	26	C17H12+
216.1496	14	C14[13]CH19O+
217.0997	65	C17H13+
217.1574	17	C15H21O+
218.1079	44	C17H14+
219.1157	73	C17H15+
219.1767	12	C15H23O+
220.1222	35	C17H16+
221.0937	35	C16H13O+
221.1302	67	C17H17+
222.1027	35	C16H14O+
222.1363	18	C16[13]CH17+
223.1086	48	C16H15O+
223.1463	72	C17H19+
224.1168	39	C16H16O+
224.1505	16	C16[13]CH19+
225.1268	26	C16H17O+
225.1639	56	C17H21+
226.1322	16	C16H18O+
226.168	12	C16[13]CH21+
227.1431	15	C16H19O+
228.1514	18	C16H20O+
229.1569	18	C16H21O+
230.1646	26	C16H22O+
231.1152	55	C18H15+
231.1729	29	C16H23O+
232.1218	26	C18H16+
233.1308	30	C18H17+
234.1042	16	C17H14O+
234.137	13	C18H18+
235.1099	28	C17H15O+
235.1464	23	C18H19+
236.1164	41	C17H16O+
236.154	16	C18H20+
237.1262	18	C17H17O+
239.1425	24	C17H19O+
241.1581	13	C17H21O+
243.1734	48	C17H23O+
245.1318	24	C19H17+
247.1425	15	C19H19+
249.1242	22	C18H17O+
249.1639	18	C19H21+
250.131	17	C18H18O+
253.157	20	C18H21O+
263.1417	16	C19H19O+
264.1479	21	C19H20O+
311.1965	12	C21H27O2+
