Mass spectrum: Betamethasone-17-valerate; LC-ESI-QTOF; MS2; CE: Ramp 25.1-37.7 eV; R=35000; [M+H]+
Name: Betamethasone-17-valerate
Name: Betamethasone 17-valerate
Name: [9-fluoro-11-hydroxy-17-(2-hydroxyacetyl)-10,13,16-trimethyl-3-oxo-6,7,8,11,12,14,15,16-octahydrocyclopenta[a]phenanthren-17-yl] pentanoate
Formula: C27H37FO6
Exact mass: 476.2574171
SMILES: CCCCC(=O)OC1(C(C)CC2C3CCC4=CC(=O)C=CC4(C)C3(F)C(O)CC12C)C(=O)CO
InChI: InChI=1S/C27H37FO6/c1-5-6-7-23(33)34-27(22(32)15-29)16(2)12-20-19-9-8-17-13-18(30)10-11-24(17,3)26(19,28)21(31)14-25(20,27)4/h10-11,13,16,19-21,29,31H,5-9,12,14-15H2,1-4H3
Instrument: Bruker maXis Impact
Instrument type: LC-ESI-QTOF
Ms type: MS2
Ion mode: POSITIVE
Ionization: ESI
Fragmentation mode: CID
Collision energy: Ramp 25.1-37.7 eV
Resolution: 35000
Column name: Acclaim RSLC C18 2.2um, 2.1x100mm, Thermo
Retention time: 11.055 min
Base peak: 477.2649
Precursor m/z: 477.2647
Precursor type: [M+H]+
m/z	relative intensity	assigned
57.0691	34	C4H9+
67.0535	8	C5H7+
69.0697	10	C5H9+
75.0434	4	C3H7O2+
79.0541	5	C6H7+
81.069	6	C6H9+
83.0848	9	C6H11+
85.0648	23	C5H9O+
93.0703	10	C7H9+
95.0864	18	C4H12FO+
97.0657	6	C3H10FO2+
103.0759	7	C2H12FO3+
105.0695	8	C8H9+
107.0868	21	C5H12FO+
109.1023	14	C5H14FO+
117.0684	6	C9H9+
119.0849	41	C9H11+
120.0881	5	C8[13]CH11+
121.0644	75	C8H9O+
121.1009	30	C9H13+
123.0803	64	C8H11O+
123.117	5	C9H15+
124.0827	7	C7[13]CH11O+
125.0592	7	C7H9O2+
125.0955	18	C8H13O+
131.0846	18	C10H11+
133.0642	10	C9H9O+
133.1005	35	C10H13+
135.0798	141	C9H11O+
136.0835	11	C8[13]CH11O+
137.0956	46	C9H13O+
138.1003	6	C8[13]CH13O+
141.0692	5	C11H9+
143.0848	15	C11H11+
145.0641	19	C10H9O+
145.1005	25	C11H13+
147.0797	365	C10H11O+
148.0828	32	C9[13]CH11O+
149.0947	58	C10H13O+
150.0975	7	C9[13]CH13O+
151.0746	12	C9H11O2+
151.1103	12	C10H15O+
153.0904	98	C9H13O2+
154.0936	8	C8[13]CH13O2+
155.0849	8	C12H11+
157.1007	12	C12H13+
158.0718	9	C11H10O+
159.0797	141	C11H11O+
160.0828	12	C10[13]CH11O+
161.0589	9	C10H9O2+
161.0953	89	C11H13O+
162.0984	10	C10[13]CH13O+
163.0752	14	C10H11O2+
163.1107	8	C11H15O+
165.09	23	C10H13O2+
167.1061	82	C10H15O2+
168.1089	7	C9[13]CH15O2+
169.064	17	C12H9O+
171.0795	195	C12H11O+
171.1167	14	C13H15+
172.0836	22	C11[13]CH11O+
173.0952	125	C12H13O+
174.0992	17	C11[13]CH13O+
175.0755	9	C11H11O2+
175.1098	18	C12H15O+
177.0905	31	C11H13O2+
177.11	8	C8H17O4+
178.093	5	C10[13]CH13O2+
179.0862	6	C11H12FO+
183.0795	21	C13H11O+
185.0955	180	C13H13O+
186.0996	19	C12[13]CH13O+
187.0749	154	C12H11O2+
187.1109	28	C13H15O+
188.0786	21	C11[13]CH11O2+
188.115	5	C12[13]CH15O+
189.0895	17	C12H13O2+
191.0855	5	C15H11+
191.1039	10	C12H15O2+
193.1016	8	C15H13+
195.0794	10	C14H11O+
195.1021	9	C11H15O3+
196.0836	6	C14H12O+
197.0956	52	C14H13O+
198.0993	9	C13[13]CH13O+
199.0749	12	C13H11O2+
199.1109	37	C14H15O+
200.1138	6	C13[13]CH15O+
201.0912	9	C13H13O2+
201.1263	8	C14H17O+
203.0713	5	C9H12FO4+
203.1066	22	C13H15O2+
205.1027	10	C13H14FO+
208.0876	10	C15H12O+
209.0956	42	C15H13O+
210.101	13	C15H14O+
211.0768	8	C11H12FO3+
211.1115	49	C15H15O+
212.1156	13	C14[13]CH15O+
213.0883	13	C14H13O2+
213.1267	60	C15H17O+
215.1064	19	C14H15O2+
221.0961	52	C16H13O+
222.1014	18	C16H14O+
223.1112	122	C16H15O+
224.1153	26	C15[13]CH15O+
225.0924	5	C12H14FO3+
225.1267	34	C16H17O+
226.1323	9	C15[13]CH17O+
227.105	18	C15H15O2+
227.1414	7	C16H19O+
229.1253	5	C12H18FO3+
231.1157	11	C18H15+
233.096	8	C17H13O+
233.1316	5	C18H17+
234.103	11	C17H14O+
234.1398	5	C18H18+
235.1116	40	C17H15O+
235.1474	6	C18H19+
236.1169	16	C17H16O+
237.0948	6	C13H14FO3+
237.1267	42	C17H17O+
237.164	6	C18H21+
238.1323	10	C16[13]CH17O+
239.1059	36	C16H15O2+
239.1424	39	C17H19O+
240.1088	9	C15[13]CH15O2+
240.1467	6	C16[13]CH19O+
241.121	15	C16H17O2+
241.1587	8	C17H21O+
243.1016	6	C15H15O3+
244.1247	5	C19H16+
245.1347	5	C16H18FO+
246.1033	5	C18H14O+
247.1123	13	C18H15O+
248.1194	30	C18H16O+
249.1273	54	C18H17O+
249.1631	8	C19H21+
250.1333	17	C17[13]CH17O+
251.1057	5	C17H15O2+
251.1427	33	C18H19O+
251.1776	5	C19H23+
252.1471	7	C17[13]CH19O+
253.1228	8	C17H17O2+
253.1585	36	C18H21O+
254.1617	8	C17[13]CH21O+
257.133	6	C20H17+
258.1377	6	C20H18+
259.113	12	C16H16FO2+
259.1485	9	C20H19+
260.1193	11	C19H16O+
261.1269	45	C19H17O+
261.165	18	C17H22FO+
262.1342	55	C19H18O+
263.1429	196	C19H19O+
264.1488	59	C18[13]CH19O+
265.1242	6	C15H18FO3+
265.1571	31	C19H21O+
266.1616	8	C18[13]CH21O+
267.1377	11	C18H19O2+
267.1738	20	C19H23O+
268.1786	8	C19H24O+
272.1188	16	C20H16O+
273.1256	13	C20H17O+
273.1631	12	C21H21+
274.1344	23	C20H18O+
275.1427	58	C20H19O+
276.1491	47	C20H20O+
277.1224	17	C19H17O2+
277.1587	206	C20H21O+
278.166	257	C20H22O+
279.1748	999	C20H23O+
280.1777	223	C19[13]CH23O+
281.1535	24	C19H21O2+
281.1873	30	C18[13]C2H23O+
283.1465	7	C22H19+
286.1351	19	C18H19FO2+
287.1419	5	C17[13]CH19FO2+
289.1186	7	C20H17O2+
289.1588	95	C21H21O+
290.131	9	C17H19FO3+
290.1614	19	C20[13]CH21O+
291.136	17	C17H20FO3+
291.1751	196	C21H23O+
292.1439	5	C16[13]CH20FO3+
292.1775	48	C20[13]CH23O+
293.1539	12	C20H21O2+
293.181	5	C19[13]C2H23O+
295.1331	10	C19H19O3+
295.1694	76	C20H23O2+
296.1746	27	C19[13]CH23O2+
297.1846	45	C17H26FO3+
298.1739	4	C20H23FO+
298.1897	9	C16[13]CH26FO3+
301.1598	83	C19H22FO2+
302.1637	19	C18[13]CH22FO2+
304.1474	9	C18H21FO3+
306.1615	14	C21H22O2+
307.1692	91	C21H23O2+
308.1727	22	C20[13]CH23O2+
309.1855	83	C21H25O2+
310.1893	19	C20[13]CH25O2+
311.1645	9	C20H23O3+
312.172	6	C20H24O3+
319.1701	231	C22H23O2+
320.1737	52	C21[13]CH23O2+
321.1721	5	C20[13]C2H23O2+
325.1806	34	C21H25O3+
326.1813	6	C20[13]CH25O3+
327.1964	23	C18H28FO4+
337.1807	281	C22H25O3+
338.1833	58	C21[13]CH25O3+
339.1866	9	C20[13]C2H25O3+
345.1865	7	C21H26FO3+
355.1914	112	C22H27O4+
356.1947	32	C21[13]CH27O4+
357.1892	10	C22H26FO3+
373.1998	5	C22H29O5+
