Mass spectrum: N,N-Dimethyltetradecylamine; LC-ESI-QTOF; MS2; CE: 30 eV; R=35000; [M+H]+
Name: N,N-Dimethyltetradecylamine
Name: N,N-dimethyltetradecan-1-amine
Formula: C16H35N
Exact mass: 241.2769501
SMILES: CCCCCCCCCCCCCCN(C)C
InChI: InChI=1S/C16H35N/c1-4-5-6-7-8-9-10-11-12-13-14-15-16-17(2)3/h4-16H2,1-3H3
Instrument: Bruker maXis Impact
Instrument type: LC-ESI-QTOF
Ms type: MS2
Ion mode: POSITIVE
Ionization: ESI
Fragmentation mode: CID
Collision energy: 30 eV
Resolution: 35000
Column name: Acclaim RSLC C18 2.2um, 2.1x100mm, Thermo
Retention time: 11.794 min
Base peak: 242.2835
Precursor m/z: 242.2842
Precursor type: [M+H]+
m/z	relative intensity	assigned
242.284	999	C16H36N+
243.2867	191	C15[13]CH36N+
244.2902	15	C14[13]C2H36N+
