Mass spectrum: Imazalil; LC-ESI-QTOF; MS2; CE: 30 eV; R=35000; [M+H]+
Name: Imazalil
Name: Enilconazole
Name: 1-[2-(2,4-dichlorophenyl)-2-prop-2-enoxyethyl]imidazole
Formula: C14H14Cl2N2O
Exact mass: 296.0483184
SMILES: ClC1=CC=C(C(CN2C=CN=C2)OCC=C)C(Cl)=C1
InChI: InChI=1S/C14H14Cl2N2O/c1-2-7-19-14(9-18-6-5-17-10-18)12-4-3-11(15)8-13(12)16/h2-6,8,10,14H,1,7,9H2
Instrument: Bruker maXis Impact
Instrument type: LC-ESI-QTOF
Ms type: MS2
Ion mode: POSITIVE
Ionization: ESI
Fragmentation mode: CID
Collision energy: 30 eV
Resolution: 35000
Column name: Acclaim RSLC C18 2.2um, 2.1x100mm, Thermo
Retention time: 8.664 min
Base peak: 169.075
Precursor m/z: 297.0556
Precursor type: [M+H]+
m/z	relative intensity	assigned
122.9984	12	C7H4Cl+
128.0608	5	C10H8+
129.0687	10	C10H9+
137.0135	6	C9HN2+
138.0218	5	C9H2N2+
141.0685	45	C11H9+
149.0145	10	C9H6Cl+
150.0222	20	C9H7Cl+
158.975	999	C8ClN2+
159.9783	65	C7[13]CClN2+
160.9719	523	C8[37]ClN2+
161.975	24	C5H4Cl2N2+
163.0291	8	C11H3N2+
164.0372	29	C10H9Cl+
166.0329	8	C10H9[37]Cl+
172.9905	184	C8H7Cl2+
173.9941	17	C7[13]CH7Cl2+
174.9876	102	C8H7Cl[37]Cl+
175.0289	18	C12H3N2+
176.0374	220	C11H9Cl+
177.0402	26	C10[13]CH9Cl+
178.0344	50	C11H9[37]Cl+
182.9758	7	C9H5Cl2+
184.9902	22	C9H7Cl2+
186.9695	23	C8H5Cl2O+
186.987	13	C9H7Cl[37]Cl+
188.9667	13	C8H5Cl[37]ClO+
195.9823	6	C11HClN2+
199.006	20	C11H4ClN2+
200.9854	118	C9H7Cl2O+
201.9888	11	C8[13]CH7Cl2O+
202.9825	70	C9H7Cl[37]ClO+
203.0357	15	C14H5NO+
211.0065	14	C11H9Cl2+
213.0037	8	C11H9Cl[37]Cl+
239.0134	5	C14H6ClNO+
255.0078	180	C11H9Cl2N2O+
256.0102	29	C10[13]CH9Cl2N2O+
257.0052	114	C11H9Cl[37]ClN2O+
297.0547	75	C14H15Cl2N2O+
298.0577	14	C13[13]CH15Cl2N2O+
299.0516	48	C14H15Cl[37]ClN2O+
