Mass spectrum: Norgestrel; LC-ESI-QTOF; MS2; CE: 20 eV; R=35000; [M+H]+
Name: Norgestrel
Name: (8R,9S,10R,13S,14S)-13-ethyl-17-ethynyl-17-hydroxy-1,2,6,7,8,9,10,11,12,14,15,16-dodecahydrocyclopenta[a]phenanthren-3-one
Formula: C21H28O2
Exact mass: 312.2089301
SMILES: [H][C@@]12CCC(O)(C#C)[C@@]1(CC)CC[C@]1([H])[C@@]3([H])CCC(=O)C=C3CC[C@@]21[H]
InChI: InChI=1S/C21H28O2/c1-3-20-11-9-17-16-8-6-15(22)13-14(16)5-7-18(17)19(20)10-12-21(20,23)4-2/h2,13,16-19,23H,3,5-12H2,1H3/t16-,17+,18+,19-,20-,21?/m0/s1
Instrument: Bruker maXis Impact
Instrument type: LC-ESI-QTOF
Ms type: MS2
Ion mode: POSITIVE
Ionization: ESI
Fragmentation mode: CID
Collision energy: 20 eV
Resolution: 35000
Column name: Acclaim RSLC C18 2.2um, 2.1x100mm, Thermo
Retention time: 10.154 min
Base peak: 313.2164
Precursor m/z: 313.2162
Precursor type: [M+H]+
m/z	relative intensity	assigned
117.0692	8	C9H9+
119.0846	11	C9H11+
121.1008	6	C9H13+
123.0795	15	C8H11O+
123.1163	6	C9H15+
125.0953	8	C8H13O+
129.0687	12	C10H9+
131.0847	32	C10H11+
133.0635	5	C9H9O+
133.1003	40	C10H13+
134.1037	5	C9[13]CH13+
135.0794	26	C9H11O+
135.1158	11	C10H15+
137.0953	5	C9H13O+
143.0843	19	C11H11+
145.1004	33	C11H13+
147.0794	10	C10H11O+
147.1156	18	C11H15+
149.095	31	C10H13O+
149.1314	7	C11H17+
151.1108	5	C10H15O+
155.0842	9	C12H11+
157.1002	27	C12H13+
159.0791	11	C11H11O+
159.1157	43	C12H15+
160.1193	5	C11[13]CH15+
161.0948	20	C11H13O+
161.1314	10	C12H17+
163.1105	20	C11H15O+
167.0838	5	C13H11+
169.0996	13	C13H13+
171.1157	29	C13H15+
173.095	7	C12H13O+
173.1313	19	C13H17+
175.1109	20	C12H15O+
175.1471	11	C13H19+
177.1265	7	C12H17O+
181.1	10	C14H13+
183.1159	28	C14H15+
185.0948	10	C13H13O+
185.1316	49	C14H17+
186.1353	8	C13[13]CH17+
187.1105	12	C13H15O+
187.1473	29	C14H19+
189.1265	15	C13H17O+
193.1005	5	C15H13+
195.1156	13	C15H15+
197.1315	20	C15H17+
199.1109	7	C14H15O+
199.1476	25	C15H19+
200.152	5	C14[13]CH19+
201.1264	14	C14H17O+
203.1426	11	C14H19O+
207.1156	9	C16H15+
209.1315	10	C16H17+
211.1113	6	C15H15O+
211.1474	9	C16H19+
213.1267	7	C15H17O+
213.1626	10	C16H21+
215.142	5	C15H19O+
221.1311	13	C17H17+
223.1469	8	C17H19+
225.1272	10	C16H17O+
225.1631	20	C17H21+
227.1421	5	C16H19O+
227.1787	40	C17H23+
228.1822	7	C16[13]CH23+
235.147	16	C18H19+
236.1524	5	C17[13]CH19+
237.163	28	C18H21+
238.1668	7	C17[13]CH21+
239.1429	9	C17H19O+
239.178	5	C18H23+
241.1574	9	C17H21O+
243.1739	10	C17H23O+
245.1899	256	C17H25O+
246.1929	45	C16[13]CH25O+
248.1559	6	C19H20+
249.1627	13	C19H21+
251.1789	9	C19H23+
253.1584	6	C18H21O+
253.1949	7	C19H25+
255.1739	6	C18H23O+
266.1658	6	C19H22O+
267.1735	13	C19H23O+
267.2104	6	C20H27+
269.1881	5	C19H25O+
277.1943	36	C21H25+
278.1991	9	C20[13]CH25+
295.2055	108	C21H27O+
296.2087	27	C20[13]CH27O+
313.2165	999	C21H29O2+
314.2197	188	C20[13]CH29O2+
315.2225	19	C19[13]C2H29O2+
