Mass spectrum: Trenbolone; LC-ESI-QTOF; MS2; CE: 50 eV; R=35000; [M+H]+
Name: Trenbolone
Name: Trenbolone:17-Hydroxyestra-4,9,11-trien-3-one
Name: (13S,17S)-17-hydroxy-13-methyl-2,6,7,8,14,15,16,17-octahydro-1H-cyclopenta[a]phenanthren-3-one
Formula: C18H22O2
Exact mass: 270.1619799
SMILES: C[C@]12C=CC3=C4CCC(=O)C=C4CCC3C1CC[C@@H]2O
InChI: InChI=1S/C18H22O2/c1-18-9-8-14-13-5-3-12(19)10-11(13)2-4-15(14)16(18)6-7-17(18)20/h8-10,15-17,20H,2-7H2,1H3/t15?,16?,17-,18-/m0/s1
Instrument: Bruker maXis Impact
Instrument type: LC-ESI-QTOF
Ms type: MS2
Ion mode: POSITIVE
Ionization: ESI
Fragmentation mode: CID
Collision energy: 50 eV
Resolution: 35000
Column name: Acclaim RSLC C18 2.2um, 2.1x100mm, Thermo
Retention time: 8.926 min
Base peak: 271.1692
Precursor m/z: 271.1693
Precursor type: [M+H]+
m/z	relative intensity	assigned
115.0536	299	C9H7+
116.0599	62	C9H8+
117.069	127	C9H9+
118.074	17	C8[13]CH9+
119.0495	5	C8H7O+
119.0854	39	C9H11+
120.0556	5	C8H8O+
121.0632	22	C8H9O+
126.0454	20	C10H6+
127.0532	69	C10H7+
128.0612	643	C10H8+
129.0689	499	C10H9+
130.0749	110	C10H10+
131.048	144	C9H7O+
131.0845	167	C10H11+
132.0551	44	C9H8O+
132.0888	16	C9[13]CH11+
133.0636	196	C9H9O+
133.1004	21	C10H13+
134.0678	27	C8[13]CH9O+
135.079	60	C9H11O+
136.0821	5	C8[13]CH11O+
139.0532	18	C11H7+
140.0599	9	C11H8+
141.0689	866	C11H9+
142.0756	340	C11H10+
143.0843	306	C11H11+
144.0557	249	C10H8O+
144.0886	51	C10[13]CH11+
145.0633	261	C10H9O+
145.0997	94	C11H13+
146.0702	63	C10H10O+
146.1039	13	C10[13]CH13+
147.079	75	C10H11O+
148.0864	37	C10H12O+
149.0931	6	C9[13]CH12O+
151.054	14	C12H7+
152.0608	343	C12H8+
153.0686	505	C12H9+
154.0758	323	C12H10+
155.0843	611	C12H11+
156.0902	156	C12H12+
157.0636	493	C11H9O+
157.0994	155	C12H13+
158.0699	128	C11H10O+
158.1048	22	C11[13]CH13+
159.079	194	C11H11O+
159.1149	12	C12H15+
161.0946	47	C11H13O+
162.0998	8	C10[13]CH13O+
163.0558	5	C13H7+
164.0602	16	C13H8+
165.0689	999	C13H9+
166.0758	631	C13H10+
167.084	715	C13H11+
168.0563	17	C12H8O+
168.0902	220	C13H12+
169.0638	132	C12H9O+
169.0998	285	C13H13+
170.0714	100	C12H10O+
170.1056	48	C12[13]CH13+
171.0791	215	C12H11O+
171.1153	59	C13H15+
172.0855	54	C12H12O+
172.1206	9	C12[13]CH15+
173.0942	40	C12H13O+
174.1016	10	C12H14O+
176.0601	17	C14H8+
177.0684	37	C14H9+
178.0764	467	C14H10+
179.0842	541	C14H11+
180.0908	175	C14H12+
181.0638	105	C13H9O+
181.0995	439	C14H13+
182.0711	106	C13H10O+
182.1052	100	C13[13]CH13+
183.0787	273	C13H11O+
183.1151	106	C14H15+
184.0861	178	C13H12O+
184.119	23	C13[13]CH15+
185.0944	373	C13H13O+
186.1012	134	C13H14O+
187.1094	48	C13H15O+
188.1154	7	C12[13]CH15O+
189.0685	23	C15H9+
190.0763	54	C15H10+
191.0843	174	C15H11+
192.0919	158	C15H12+
193.0995	162	C15H13+
194.071	46	C14H10O+
194.1066	64	C15H14+
195.0795	107	C14H11O+
195.1158	119	C15H15+
196.0868	72	C14H12O+
196.1204	30	C14[13]CH15+
197.0949	259	C14H13O+
197.1325	25	C15H17+
198.1023	150	C14H14O+
199.1108	894	C14H15O+
200.1168	242	C14H16O+
201.0874	5	C13H13O2+
201.1214	34	C13[13]CH16O+
202.076	15	C16H10+
203.084	43	C16H11+
204.0919	44	C16H12+
205.1001	139	C16H13+
206.105	40	C15[13]CH13+
207.0812	12	C15H11O+
207.1156	74	C16H15+
208.087	28	C15H12O+
208.1202	20	C15[13]CH15+
209.0949	100	C15H13O+
209.131	35	C16H17+
210.1019	52	C15H14O+
210.1364	15	C16H18+
211.11	93	C15H15O+
211.1473	14	C16H19+
212.1182	59	C15H16O+
213.1265	94	C15H17O+
214.133	81	C15H18O+
215.1393	16	C14[13]CH18O+
217.0992	16	C17H13+
218.1067	15	C17H14+
219.1161	56	C17H15+
220.122	37	C17H16+
221.0941	8	C16H13O+
221.1312	34	C17H17+
222.1005	10	C16H14O+
222.1369	5	C16[13]CH17+
223.1105	74	C16H15O+
223.1472	9	C17H19+
224.116	25	C16H16O+
225.1264	41	C16H17O+
226.1302	11	C15[13]CH17O+
227.107	9	C15H15O2+
227.1422	43	C16H19O+
228.1472	15	C16H20O+
235.1082	10	C17H15O+
235.1456	19	C18H19+
236.1171	7	C17H16O+
236.1521	5	C17[13]CH19+
237.126	88	C17H17O+
238.1329	60	C17H18O+
239.1398	21	C17H19O+
253.1584	25	C18H21O+
254.1621	6	C17[13]CH21O+
255.134	7	C17H19O2+
