Mass spectrum: 2-Isopropyl-6-methyl-pyrimidin-4-ol; LC-ESI-QTOF; MS2; CE: 30 eV; R=35000; [M+H]+
Name: 2-Isopropyl-6-methyl-pyrimidin-4-ol
Name: CID 17777
Name: 6-methyl-2-propan-2-yl-1H-pyrimidin-4-one
Formula: C8H12N2O
Exact mass: 152.0949630
SMILES: CC(C)C1=NC(C)=CC(=O)N1
InChI: InChI=1S/C8H12N2O/c1-5(2)8-9-6(3)4-7(11)10-8/h4-5H,1-3H3,(H,9,10,11)
Instrument: Bruker maXis Impact
Instrument type: LC-ESI-QTOF
Ms type: MS2
Ion mode: POSITIVE
Ionization: ESI
Fragmentation mode: CID
Collision energy: 30 eV
Resolution: 35000
Column name: Acclaim RSLC C18 2.2um, 2.1x100mm, Thermo
Retention time: 4.449 min
Base peak: 153.1011
Precursor m/z: 153.1022
Precursor type: [M+H]+
m/z	relative intensity	assigned
119.0599	12	C7H7N2+
135.0908	57	C8H11N2+
136.0743	28	C8H10NO+
137.0696	999	C7H9N2O+
138.0764	308	C7H10N2O+
139.0818	28	C6[13]CH10N2O+
153.101	960	C8H13N2O+
154.104	115	C7[13]CH13N2O+
