Mass spectrum: Fluticasone propionate; LC-ESI-QTOF; MS2; CE: 30 eV; R=35000; [M+H]+
Name: Fluticasone propionate
Name: [(6S,8S,9R,10S,11S,13S,14S,16R,17R)-6,9-difluoro-17-(fluoromethylsulfanylcarbonyl)-11-hydroxy-10,13,16-trimethyl-3-oxo-6,7,8,11,12,14,15,16-octahydrocyclopenta[a]phenanthren-17-yl] propanoate
Formula: C25H31F3O5S
Exact mass: 500.1844298
SMILES: CCC(=O)O[C@@]1([C@H](C)C[C@H]2[C@@H]3C[C@H](F)C4=CC(=O)C=C[C@]4(C)[C@@]3(F)[C@@H](O)C[C@]12C)C(=O)SCF
InChI: InChI=1S/C25H31F3O5S/c1-5-20(31)33-25(21(32)34-12-26)13(2)8-15-16-10-18(27)17-9-14(29)6-7-22(17,3)24(16,28)19(30)11-23(15,25)4/h6-7,9,13,15-16,18-19,30H,5,8,10-12H2,1-4H3/t13-,15+,16+,18+,19+,22+,23+,24+,25+/m1/s1
Instrument: Bruker maXis Impact
Instrument type: LC-ESI-QTOF
Ms type: MS2
Ion mode: POSITIVE
Ionization: ESI
Fragmentation mode: CID
Collision energy: 30 eV
Resolution: 35000
Column name: Acclaim RSLC C18 2.2um, 2.1x100mm, Thermo
Retention time: 10.664 min
Base peak: 313.216
Precursor m/z: 501.1917
Precursor type: [M+H]+
m/z	relative intensity	assigned
119.0844	14	C9H11+
121.0639	228	C8H9O+
122.0676	22	C7[13]CH9O+
125.0769	5	C5H11F2O+
127.0896	7	C8H12F+
128.0613	6	C10H8+
129.0686	6	C10H9+
131.0854	13	C10H11+
133.0636	39	C9H9O+
133.0991	9	C10H13+
135.0794	100	C9H11O+
136.0829	11	C8[13]CH11O+
137.0754	5	C9H10F+
139.0548	42	C8H8FO+
141.071	5	C8H10FO+
143.0857	8	C11H11+
145.0642	47	C10H9O+
147.0797	34	C10H11O+
148.0847	7	C10H12O+
149.0953	8	C10H13O+
151.0562	5	C6H9F2O2+
151.0909	45	C10H12F+
153.0718	13	C6H11F2O2+
155.0859	52	C12H11+
156.0898	5	C11[13]CH11+
157.0638	22	C11H9O+
157.1007	11	C12H13+
158.0695	7	C11H10O+
159.0625	43	C5H10F3O2+
159.079	84	C11H11O+
160.084	11	C10[13]CH11O+
161.0602	15	C5H12F3S+
161.0756	5	C11H10F+
161.0948	21	C11H13O+
163.0746	6	C10H11O2+
163.0913	10	C11H12F+
165.0703	21	C13H9+
167.0859	6	C13H11+
169.0641	31	C12H9O+
169.102	11	C10H14FO+
171.0793	211	C12H11O+
172.0829	31	C11[13]CH11O+
173.0588	25	C11H9O2+
173.0789	49	C9H14FS+
173.0944	35	C12H13O+
174.0824	8	C8[13]CH14FS+
175.0732	7	C9H10F3+
175.091	5	C12H12F+
177.0705	20	C11H10FO+
177.0898	6	C11H13O2+
177.1063	7	C12H14F+
178.0738	5	C14H10+
179.0857	301	C11H15S+
180.0893	33	C10[13]CH15S+
181.0645	5	C13H9O+
181.0812	6	C11H15[34]S+
181.1008	9	C14H13+
183.0799	15	C13H11O+
185.0418	25	C12H9S+
185.0588	118	C7H12F3S+
185.0951	32	C13H13O+
186.0618	12	C6[13]CH12F3S+
186.1008	5	C12[13]CH13O+
187.0543	6	C7H12F3[34]S+
187.0742	38	C9H12FO3+
187.0911	14	C13H12F+
187.1097	11	C13H15O+
188.0806	5	C8[13]CH12FO3+
189.0711	25	C12H10FO+
191.0853	21	C15H11+
193.1005	9	C15H13+
195.0795	25	C14H11O+
195.0968	5	C12H13F2+
196.0861	8	C14H12O+
197.0796	11	C11H14FS+
197.0952	30	C14H13O+
198.0984	6	C13[13]CH13O+
199.0748	13	C13H11O2+
199.0907	20	C14H12F+
199.1096	7	C14H15O+
201.0732	14	C13H13S+
201.0887	7	C11H12F3+
203.0702	8	C12H11O3+
203.086	18	C16H11+
205.0652	504	C15H9O+
205.1015	58	C10H15F2O2+
206.0686	65	C14[13]CH9O+
206.1069	8	C9[13]CH15F2O2+
207.0796	16	C15H11O+
207.0982	7	C13H13F2+
209.0949	37	C12H17OS+
210.1028	8	C11[13]CH17OS+
211.0735	5	C12H10F3+
211.0922	6	C15H12F+
211.1104	9	C15H15O+
213.0913	6	C14H13O2+
213.107	33	C15H14F+
215.0856	6	C17H11+
217.0994	5	C17H13+
219.0815	11	C13H12FO2+
221.0952	35	C16H13O+
222.102	23	C16H14O+
223.1104	44	C16H15O+
224.1135	10	C15[13]CH15O+
225.0736	16	C9H12F3O3+
225.0893	13	C13H12F3+
225.1103	6	C13H18FS+
225.1269	10	C16H17O+
227.0855	5	C18H11+
229.1017	5	C18H13+
232.1219	6	C18H16+
233.0963	12	C17H13O+
233.1303	9	C18H17+
234.1013	6	C17H14O+
235.1105	44	C17H15O+
236.1174	15	C17H16O+
237.0906	17	C16H13O2+
237.1267	44	C17H17O+
238.1291	5	C16[13]CH17O+
239.0862	6	C16H12FO+
239.1058	11	C16H15O2+
239.1423	7	C17H19O+
242.1082	7	C19H14+
243.1156	9	C19H15+
245.0801	61	C12H12F3O2+
246.0821	10	C11[13]CH12F3O2+
246.1017	12	C18H14O+
247.1095	10	C18H15O+
247.1476	66	C19H19+
248.1503	13	C18[13]CH19+
249.1266	65	C18H17O+
250.1334	27	C18H18O+
251.1069	12	C17H15O2+
251.1423	172	C18H19O+
252.1453	33	C17[13]CH19O+
253.1018	10	C17H14FO+
253.1229	22	C17H17O2+
253.1471	5	C16[13]C2H19O+
254.1227	6	C16[13]CH17O2+
255.1155	8	C20H15+
257.1329	27	C20H17+
258.1369	6	C19[13]CH17+
259.1116	5	C19H15O+
259.1473	7	C20H19+
260.1188	65	C19H16O+
261.1269	32	C19H17O+
262.1322	15	C19H18O+
263.1412	18	C19H19O+
264.1439	8	C9H25FO5S+
265.1584	575	C19H21O+
266.1618	124	C18[13]CH21O+
267.1364	13	C16H18F3+
267.1681	13	C17[13]C2H21O+
269.1311	9	C21H17+
271.1091	7	C20H15O+
271.1474	6	C21H19+
273.1267	5	C20H17O+
274.1367	6	C17H19FO2+
275.1428	783	C20H19O+
276.1478	251	C19[13]CH19O+
277.1248	7	C13H19F2O4+
277.1553	62	C20H21O+
278.129	12	C19H18O2+
278.1613	12	C20H22O+
279.1342	17	C17H18F3+
280.1254	5	C19H20S+
280.1346	5	C16[13]CH18F3+
281.1324	9	C22H17+
283.1697	7	C19H23O2+
285.1286	7	C18H18FO2+
285.1643	56	C22H21+
286.13	7	C21H18O+
286.1673	10	C21[13]CH21+
287.1451	8	C15H21F2O3+
288.1151	14	C15H19F3S+
288.1502	5	C21H20O+
291.1364	9	C18H18F3+
293.1535	999	C20H21O2+
294.1574	237	C19[13]CH21O2+
295.1494	417	C23H19+
296.1547	155	C22[13]CH19+
297.1602	32	C23H21+
303.1376	83	C21H19O2+
304.1418	20	C20[13]CH19O2+
305.1528	11	C21H21O2+
306.1429	8	C18H20F2O2+
311.164	36	C18H22F3O+
312.1663	7	C17[13]CH22F3O+
313.1596	492	C20H22FO2+
314.1636	127	C19[13]CH22FO2+
315.1225	6	C16H21F2O2S+
315.157	55	C23H20F+
316.1588	19	C22[13]CH20F+
319.0976	6	C17H16FO5+
321.1472	42	C18H22FO4+
322.1535	13	C17[13]CH22FO4+
323.1435	39	C24H19O+
324.1527	29	C21H21FO2+
325.1562	8	C20[13]CH21FO2+
331.1516	32	C16H27O5S+
332.169	5	C15[13]CH27O5S+
333.1655	71	C20H26FOS+
334.1685	16	C19[13]CH26FOS+
335.1723	5	C20H26FO[34]S+
338.1125	12	C18H17F3O3+
339.1408	12	C18H21F2O4+
341.1391	80	C20H21O5+
342.1425	16	C19[13]CH21O5+
343.1485	17	C24H20FO+
355.1475	7	C25H20FO+
359.1474	53	C21H24FO2S+
360.1512	12	C20[13]CH24FO2S+
361.1436	132	C21H23F2OS+
362.1475	31	C20[13]CH23F2OS+
363.1404	9	C21H23F2O[34]S+
367.1383	5	C16H25F2O5S+
369.1316	52	C25H18FO2+
370.1324	13	C24[13]CH18FO2+
371.1321	5	C18H24FO5S+
379.1694	18	C22H26F3S+
381.1486	9	C24H23F2S+
387.1423	9	C22H24FO3S+
389.1384	35	C24H21O5+
390.1426	7	C23[13]CH21O5+
405.1512	11	C22H23F2O5+
407.1501	6	C19H26F3O4S+
