Mass spectrum: Lauramidopropylbetaine; LC-ESI-QTOF; MS2; CE: 20 eV; R=35000; [M+H]+
Name: Lauramidopropylbetaine
Name: 3-(Dodecanoylamino)propyl(carboxymethyl)dimethylammonium
Name: carboxymethyl-[3-(dodecanoylamino)propyl]-dimethylazanium
Formula: [C19H39N2O3]+
Exact mass: 343.2960681
SMILES: CCCCCCCCCCCC(=O)NCCC[N+](C)(C)CC(O)=O
InChI: InChI=1S/C19H38N2O3/c1-4-5-6-7-8-9-10-11-12-14-18(22)20-15-13-16-21(2,3)17-19(23)24/h4-17H2,1-3H3,(H-,20,22,23,24)/p+1
Instrument: Bruker maXis Impact
Instrument type: LC-ESI-QTOF
Ms type: MS2
Ion mode: POSITIVE
Ionization: ESI
Fragmentation mode: CID
Collision energy: 20 eV
Resolution: 35000
Column name: Acclaim RSLC C18 2.2um, 2.1x100mm, Thermo
Retention time: 13.099 min
Base peak: 360.3619
Precursor m/z: 344.3033
Precursor type: [M+H]+
m/z	relative intensity	assigned
133.0846	62	C6H13O3+
156.1358	56	C9H18NO+
158.0138	33	C13H2+
223.0636	107	C14H9NO2+
224.0617	38	C18H8+
237.0769	76	C15H11NO2+
240.231	350	C15H30NO+
241.2349	62	C14[13]CH30NO+
250.999	44	C17HNO2+
281.0505	82	C19H7NO2+
283.2633	53	C18H35O2+
285.2765	44	C18H37O2+
299.0601	999	C19H9NO3+
300.0611	205	C18[13]CH9NO3+
