Mass spectrum: Amcinonide; LC-ESI-QTOF; MS2; CE: 20 eV; R=35000; [M+H]+
Name: Amcinonide
Name: [2-[(1S,2S,4R,8S,9S,11S,12R,13S)-12-fluoro-11-hydroxy-9,13-dimethyl-16-oxospiro[5,7-dioxapentacyclo[10.8.0.02,9.04,8.013,18]icosa-14,17-diene-6,1`-cyclopentane]-8-yl]-2-oxoethyl] acetate
Formula: C28H35FO7
Exact mass: 502.2366817
SMILES: [H][C@@]12C[C@H]3OC4(CCCC4)O[C@@]3(C(=O)COC(C)=O)[C@@]1(C)C[C@H](O)[C@@]1(F)[C@@]2([H])CCC2=CC(=O)C=C[C@]12C
InChI: InChI=1S/C28H35FO7/c1-16(30)34-15-22(33)28-23(35-26(36-28)9-4-5-10-26)13-20-19-7-6-17-12-18(31)8-11-24(17,2)27(19,29)21(32)14-25(20,28)3/h8,11-12,19-21,23,32H,4-7,9-10,13-15H2,1-3H3/t19-,20-,21-,23+,24-,25-,27-,28+/m0/s1
Instrument: Bruker maXis Impact
Instrument type: LC-ESI-QTOF
Ms type: MS2
Ion mode: POSITIVE
Ionization: ESI
Fragmentation mode: CID
Collision energy: 20 eV
Resolution: 35000
Column name: Acclaim RSLC C18 2.2um, 2.1x100mm, Thermo
Retention time: 11.149 min
Base peak: 503.2429
Precursor m/z: 503.244
Precursor type: [M+H]+
m/z	relative intensity	assigned
121.0637	14	C8H9O+
123.0802	6	C8H11O+
133.0645	7	C9H9O+
135.0799	24	C9H11O+
137.0583	9	C8H9O2+
145.0641	7	C10H9O+
147.079	85	C10H11O+
148.0816	7	C9[13]CH11O+
151.074	35	C9H11O2+
153.0898	25	C9H13O2+
155.0688	11	C8H11O3+
157.0479	7	C7H9O4+
159.0779	28	C11H11O+
161.0586	23	C10H9O2+
161.0949	25	C11H13O+
163.073	10	C10H11O2+
167.07	8	C9H11O3+
169.0617	6	C12H9O+
170.9843	10	C10FO2+
171.0786	48	C12H11O+
172.0837	9	C11[13]CH11O+
173.0949	31	C12H13O+
174.0992	5	C11[13]CH13O+
177.0918	6	C8H14FO3+
179.0691	16	C10H11O3+
181.0853	7	C10H13O3+
183.0792	8	C13H11O+
185.0581	6	C12H9O2+
185.0952	36	C13H13O+
187.0737	75	C12H11O2+
187.1112	9	C13H15O+
188.0779	15	C11[13]CH11O2+
189.0897	14	C12H13O2+
193.0844	8	C11H13O3+
195.1018	15	C11H15O3+
197.0787	8	C10H13O4+
197.0952	20	C14H13O+
197.1322	8	C15H17+
199.0738	7	C13H11O2+
199.1103	12	C14H15O+
201.0917	9	C10H14FO3+
203.1052	7	C13H15O2+
205.0643	9	C15H9O+
207.1182	5	C13H16FO+
209.0968	18	C12H14FO2+
211.0161	20	C16H3O+
211.1125	31	C15H15O+
212.018	5	C15[13]CH3O+
212.1152	7	C14[13]CH15O+
213.0917	11	C11H14FO3+
213.1262	122	C15H17O+
214.1302	22	C14[13]CH17O+
215.107	10	C14H15O2+
215.1392	7	C15H19O+
221.0816	8	C9H14FO5+
221.0953	16	C16H13O+
223.1107	113	C16H15O+
224.1145	30	C15[13]CH15O+
225.0289	17	C17H5O+
225.1266	100	C16H17O+
226.1313	20	C15[13]CH17O+
227.1075	10	C12H16FO3+
227.1433	23	C16H19O+
235.111	28	C17H15O+
236.1151	10	C17H16O+
237.1263	57	C17H17O+
238.1297	15	C16[13]CH17O+
239.0931	16	C9H16FO6+
239.1052	17	C16H15O2+
239.142	33	C14H20FO2+
240.1501	9	C13[13]CH20FO2+
241.1221	36	C16H17O2+
242.1249	8	C15[13]CH17O2+
243.1375	14	C16H19O2+
249.1276	28	C18H17O+
250.1326	8	C17[13]CH17O+
251.1057	9	C17H15O2+
251.1422	45	C15H20FO2+
252.1481	12	C14[13]CH20FO2+
253.1215	36	C17H17O2+
253.1584	80	C18H21O+
254.1254	7	C16[13]CH17O2+
254.161	15	C17[13]CH21O+
255.1362	29	C17H19O2+
259.1132	9	C16H16FO2+
261.1268	53	C16H18FO2+
262.1357	16	C15[13]CH18FO2+
263.1428	86	C19H19O+
264.1455	18	C18[13]CH19O+
265.1201	10	C18H17O2+
265.158	85	C19H21O+
266.1619	20	C18[13]CH21O+
267.1368	37	C18H19O2+
268.14	8	C17[13]CH19O2+
269.1179	13	C14H18FO4+
269.1526	19	C18H21O2+
275.1423	120	C20H19O+
276.1454	32	C19[13]CH19O+
277.1224	31	C19H17O2+
277.1586	14	C20H21O+
278.1266	20	C19H18O2+
279.1369	113	C19H19O2+
280.1394	21	C18[13]CH19O2+
281.1527	125	C19H21O2+
282.1565	26	C18[13]CH21O2+
283.1364	14	C15H20FO4+
283.1684	73	C19H23O2+
284.1724	17	C18[13]CH23O2+
285.1277	15	C21H17O+
288.1476	6	C21H20O+
291.1395	15	C17H20FO3+
293.1533	327	C20H21O2+
294.1572	77	C19[13]CH21O2+
295.1346	41	C19H19O3+
295.1536	18	C16H23O5+
296.1356	7	C18[13]CH19O3+
297.1477	36	C19H21O3+
298.1517	7	C18[13]CH21O3+
299.162	8	C19H23O3+
301.154	6	C22H21O+
301.1693	7	C12H26FO7+
303.1377	143	C21H19O2+
304.1406	35	C20[13]CH19O2+
305.152	14	C21H21O2+
309.1483	20	C20H21O3+
311.1642	322	C20H23O3+
312.1668	82	C19[13]CH23O3+
313.1586	32	C23H21O+
314.1642	13	C23H22O+
319.1391	7	C18H20FO4+
321.1482	602	C21H21O3+
322.1513	155	C20[13]CH21O3+
323.1527	28	C14H24FO7+
324.1478	8	C24H20O+
325.1813	7	C18H26FO4+
327.1627	7	C17H24FO5+
329.1719	11	C24H22F+
331.1684	9	C23H23O2+
335.1647	9	C22H23O3+
337.1418	8	C21H21O4+
339.1592	999	C25H20F+
340.1622	251	C24[13]CH20F+
341.1603	52	C23[13]C2H20F+
342.1622	17	C21H23FO3+
343.1525	10	C20H23O5+
343.1952	7	C18H28FO5+
353.1751	106	C22H25O4+
354.1781	30	C21[13]CH25O4+
357.1692	216	C21H25O5+
358.173	52	C20[13]CH25O5+
359.1631	36	C21H24FO4+
359.2013	9	C22H28FO3+
360.1708	9	C20[13]CH24FO4+
361.179	8	C24H25O3+
363.1585	80	C20H24FO5+
364.1646	18	C19[13]CH24FO5+
369.1294	7	C25H18FO2+
371.1857	28	C22H27O5+
377.1758	7	C21H26FO5+
377.2135	12	C22H30FO4+
378.2143	6	C25H30O3+
381.1695	311	C23H25O5+
382.1717	96	C22[13]CH25O5+
383.1693	24	C23H24FO4+
384.1779	6	C23H25FO4+
387.2002	9	C23H28FO4+
395.2183	13	C25H31O4+
399.1799	469	C23H27O6+
400.1833	136	C22[13]CH27O6+
401.1798	45	C23H26FO5+
402.1807	7	C26H26O4+
405.2058	23	C26H29O4+
406.209	6	C25[13]CH29O4+
419.1843	17	C26H27O5+
420.1896	8	C25[13]CH27O5+
423.2166	54	C26H31O5+
424.217	18	C25[13]CH31O5+
425.2158	6	C26H30FO4+
431.1511	5	C23H24FO7+
441.2288	31	C26H33O6+
442.2308	10	C25[13]CH33O6+
443.2248	10	C26H32FO5+
449.1505	44	C26H25O7+
450.1541	15	C25[13]CH25O7+
451.1528	11	C26H24FO6+
465.2274	285	C28H33O6+
466.2303	78	C27[13]CH33O6+
467.2365	22	C28H35O6+
469.164	5	C26H26FO7+
483.2377	172	C28H35O7+
484.2394	66	C27[13]CH35O7+
485.2428	15	C28H34FO6+
487.1227	32	C28H20FO7+
488.1313	6	C27[13]CH20FO7+
503.2449	35	C28H36FO7+
504.2471	11	C27[13]CH36FO7+
