Mass spectrum: Harman; LC-ESI-QTOF; MS2; CE: 50 eV; R=35000; [M+H]+
Name: Harman
Name: 1-methyl-9H-pyrido[3,4-b]indole
Formula: C12H10N2
Exact mass: 182.0843983
SMILES: CC1=NC=CC2=C1NC1=C2C=CC=C1
InChI: InChI=1S/C12H10N2/c1-8-12-10(6-7-13-8)9-4-2-3-5-11(9)14-12/h2-7,14H,1H3
Instrument: Bruker maXis Impact
Instrument type: LC-ESI-QTOF
Ms type: MS2
Ion mode: POSITIVE
Ionization: ESI
Fragmentation mode: CID
Collision energy: 50 eV
Resolution: 35000
Column name: Acclaim RSLC C18 2.2um, 2.1x100mm, Thermo
Retention time: 4.723 min
Base peak: 183.0911
Precursor m/z: 183.0917
Precursor type: [M+H]+
m/z	relative intensity	assigned
113.0382	26	C9H5+
114.0332	9	C8H4N+
114.0457	45	C9H6+
115.0537	999	C9H7+
116.0565	121	C8[13]CH7+
117.057	26	C8H7N+
126.0455	15	C10H6+
127.0529	48	C10H7+
128.0487	62	C9H6N+
128.0607	127	C10H8+
129.0566	17	C9H7N+
129.067	28	C10H9+
130.0643	25	C9H8N+
139.0406	7	C10H5N+
139.0532	24	C11H7+
140.0485	526	C10H6N+
141.0558	425	C10H7N+
142.0619	75	C9[13]CH7N+
143.0694	11	C10H9N+
153.0559	15	C11H7N+
154.0638	422	C11H8N+
156.0645	13	C10H8N2+
156.0782	19	C11H10N+
166.0514	26	C11H6N2+
166.0612	16	C12H8N+
167.059	77	C11H7N2+
168.067	332	C11H8N2+
169.0705	40	C10[13]CH8N2+
179.0591	15	C12H7N2+
180.0664	10	C12H8N2+
181.0748	293	C12H9N2+
182.0822	181	C12H10N2+
183.0898	123	C12H11N2+
184.0934	17	C11[13]CH11N2+
