Mass spectrum: N,N-Dimethyldodecylamine N-oxide; LC-ESI-QTOF; MS2; CE: 40 eV; R=35000; [M+H]+
Name: N,N-Dimethyldodecylamine N-oxide
Name: Dodecyldimethylamine oxide
Name: N,N-dimethyldodecan-1-amine oxide
Formula: C14H31NO
Exact mass: 229.2405646
SMILES: CCCCCCCCCCCC[N+](C)(C)[O-]
InChI: InChI=1S/C14H31NO/c1-4-5-6-7-8-9-10-11-12-13-14-15(2,3)16/h4-14H2,1-3H3
Instrument: Bruker maXis Impact
Instrument type: LC-ESI-QTOF
Ms type: MS2
Ion mode: POSITIVE
Ionization: ESI
Fragmentation mode: CID
Collision energy: 40 eV
Resolution: 35000
Column name: Acclaim RSLC C18 2.2um, 2.1x100mm, Thermo
Retention time: 11.126 min
Base peak: 230.2478
Precursor m/z: 230.2478
Precursor type: [M+H]+
m/z	relative intensity	assigned
128.1426	68	C8H18N+
142.1576	87	C9H20N+
156.1727	79	C10H22N+
184.2051	88	C12H26N+
198.2198	197	C13H28N+
212.2369	999	C14H30N+
213.2401	192	C13[13]CH30N+
