Mass spectrum: Benzethonium; LC-ESI-QTOF; MS2; CE: 40 eV; R=35000; [M+H]+
Name: Benzethonium
Name: benzyl-dimethyl-[2-[2-[4-(2,4,4-trimethylpentan-2-yl)phenoxy]ethoxy]ethyl]azanium
Formula: [C27H42NO2]+
Exact mass: 412.3215546
SMILES: CC(C)(C)CC(C)(C)C1=CC=C(OCCOCC[N+](C)(C)CC2=CC=CC=C2)C=C1
InChI: InChI=1S/C27H42NO2/c1-26(2,3)22-27(4,5)24-13-15-25(16-14-24)30-20-19-29-18-17-28(6,7)21-23-11-9-8-10-12-23/h8-16H,17-22H2,1-7H3/q+1
Instrument: Bruker maXis Impact
Instrument type: LC-ESI-QTOF
Ms type: MS2
Ion mode: POSITIVE
Ionization: ESI
Fragmentation mode: CID
Collision energy: 40 eV
Resolution: 35000
Column name: Acclaim RSLC C18 2.2um, 2.1x100mm, Thermo
Retention time: 11.427 min
Base peak: 412.3203
Precursor m/z: 413.3288
Precursor type: [M+H]+
m/z	relative intensity	assigned
116.1066	9	C6H14NO+
121.0638	9	C8H9O+
134.0962	14	C9H12N+
135.0789	17	C9H11O+
135.1032	6	C9H13N+
135.1155	6	C10H15+
136.1088	5	C9H14N+
149.0949	12	C10H13O+
159.1158	7	C12H15+
161.0952	5	C11H13O+
177.1262	7	C12H17O+
204.1371	11	C13H18NO+
208.1318	44	C12H18NO2+
209.1355	7	C11[13]CH18NO2+
233.1889	49	C16H25O+
234.1913	9	C15[13]CH25O+
277.2143	6	C18H29O2+
300.1953	77	C19H26NO2+
301.1971	15	C18[13]CH26NO2+
320.2576	999	C20H34NO2+
321.2608	243	C19[13]CH34NO2+
322.2647	33	C18[13]C2H34NO2+
412.3199	171	C27H42NO2+
413.3227	62	C26[13]CH42NO2+
414.3286	11	C25[13]C2H42NO2+
