Mass spectrum: 11-Ketotestosterone; LC-ESI-QTOF; MS2; CE: 30 eV; R=35000; [M+H]+
Name: 11-Ketotestosterone
Name: (8S,9S,10R,13S,14S,17S)-17-hydroxy-10,13-dimethyl-2,6,7,8,9,12,14,15,16,17-decahydro-1H-cyclopenta[a]phenanthrene-3,11-dione
Formula: C19H26O3
Exact mass: 302.1881947
SMILES: C[C@]12CC(=O)[C@H]3[C@@H](CCC4=CC(=O)CC[C@]34C)[C@@H]1CC[C@@H]2O
InChI: InChI=1S/C19H26O3/c1-18-8-7-12(20)9-11(18)3-4-13-14-5-6-16(22)19(14,2)10-15(21)17(13)18/h9,13-14,16-17,22H,3-8,10H2,1-2H3/t13-,14-,16-,17+,18-,19-/m0/s1
Instrument: Bruker maXis Impact
Instrument type: LC-ESI-QTOF
Ms type: MS2
Ion mode: POSITIVE
Ionization: ESI
Fragmentation mode: CID
Collision energy: 30 eV
Resolution: 35000
Column name: Acclaim RSLC C18 2.2um, 2.1x100mm, Thermo
Retention time: 7.888 min
Base peak: 303.1957
Precursor m/z: 303.1955
Precursor type: [M+H]+
m/z	relative intensity	assigned
115.0535	11	C9H7+
117.0698	22	C9H9+
119.0846	64	C9H11+
120.0891	9	C8[13]CH11+
121.0643	643	C8H9O+
122.0676	59	C7[13]CH9O+
123.0801	94	C8H11O+
123.115	5	C9H15+
124.083	11	C7[13]CH11O+
125.0974	7	C8H13O+
128.0617	21	C10H8+
129.0691	39	C10H9+
130.0771	10	C10H10+
131.0846	144	C10H11+
132.0563	7	C9H8O+
132.0879	19	C9[13]CH11+
133.0636	26	C9H9O+
133.1005	149	C10H13+
134.1044	17	C9[13]CH13+
135.0799	85	C9H11O+
135.116	40	C10H15+
136.0838	10	C8[13]CH11O+
137.0591	6	C8H9O2+
137.0953	49	C9H13O+
138.0986	7	C8[13]CH13O+
139.0747	10	C8H11O2+
141.0693	19	C11H9+
142.0766	15	C11H10+
143.0848	99	C11H11+
144.0891	17	C10[13]CH11+
145.0646	23	C10H9O+
145.0999	252	C11H13+
146.07	7	C10H10O+
146.1035	32	C10[13]CH13+
147.0795	258	C10H11O+
147.116	86	C11H15+
148.0838	29	C9[13]CH11O+
148.1201	15	C10[13]CH15+
149.095	112	C10H13O+
149.131	11	C11H17+
150.1003	13	C9[13]CH13O+
151.0725	6	C9H11O2+
151.1113	30	C10H15O+
153.067	7	C12H9+
153.092	6	C9H13O2+
154.0763	6	C12H10+
155.0845	80	C12H11+
156.09	15	C11[13]CH11+
157.0655	17	C11H9O+
157.1003	112	C12H13+
158.0718	8	C11H10O+
158.1037	16	C11[13]CH13+
159.0799	83	C11H11O+
159.1158	137	C12H15+
160.0837	11	C10[13]CH11O+
160.1192	18	C11[13]CH15+
161.0953	150	C11H13O+
161.131	37	C12H17+
162.1001	25	C10[13]CH13O+
162.1339	5	C11[13]CH17+
163.074	10	C10H11O2+
163.1111	185	C11H15O+
164.1148	27	C10[13]CH15O+
165.0686	5	C13H9+
165.1244	8	C11H17O+
167.0841	16	C13H11+
167.1057	41	C10H15O2+
168.0921	10	C13H12+
169.0999	78	C13H13+
170.1071	15	C12[13]CH13+
171.0792	88	C12H11O+
171.1157	122	C13H15+
172.0837	12	C11[13]CH11O+
172.1193	22	C12[13]CH15+
173.0953	156	C12H13O+
173.1309	25	C13H17+
174.1009	35	C12H14O+
175.1114	73	C12H15O+
175.1487	9	C13H19+
176.1141	11	C11[13]CH15O+
177.0908	7	C11H13O2+
177.1271	56	C12H17O+
178.1304	8	C11[13]CH17O+
179.0844	9	C14H11+
179.1052	11	C11H15O2+
180.0917	7	C14H12+
181.1004	36	C14H13+
181.1196	6	C11H17O2+
182.108	13	C14H14+
183.1163	139	C14H15+
184.1204	30	C13[13]CH15+
185.095	61	C13H13O+
185.1315	112	C14H17+
186.1004	15	C12[13]CH13O+
186.136	19	C13[13]CH17+
187.1104	60	C13H15O+
187.1476	16	C14H19+
188.1178	37	C13H16O+
189.0908	10	C12H13O2+
189.1268	153	C13H17O+
190.1299	24	C12[13]CH17O+
191.1061	16	C12H15O2+
192.0915	5	C15H12+
193.1	20	C15H13+
193.1202	16	C12H17O2+
194.1062	12	C15H14+
195.1162	40	C15H15+
196.12	11	C14[13]CH15+
197.0958	36	C14H13O+
197.1319	99	C15H17+
198.102	11	C14H14O+
198.1365	25	C14[13]CH17+
199.1113	63	C14H15O+
199.1477	78	C15H19+
200.1151	10	C13[13]CH15O+
200.1513	20	C14[13]CH19+
201.1264	121	C14H17O+
201.1621	12	C15H21+
202.1296	20	C13[13]CH17O+
203.1056	6	C13H15O2+
203.1423	53	C14H19O+
204.1457	11	C13[13]CH19O+
205.1002	7	C16H13+
205.1213	8	C13H17O2+
207.1172	37	C16H15+
207.1381	19	C13H19O2+
208.1216	17	C16H16+
209.1315	67	C16H17+
210.1381	14	C15[13]CH17+
211.1117	42	C15H15O+
211.1473	28	C16H19+
212.1177	24	C15H16O+
212.1531	10	C16H20+
213.1272	104	C15H17O+
213.1633	43	C16H21+
214.1334	17	C14[13]CH17O+
214.1697	6	C15[13]CH21+
215.1062	5	C14H15O2+
215.1426	36	C15H19O+
215.1783	7	C16H23+
216.1488	5	C14[13]CH19O+
217.1223	11	C14H17O2+
217.1584	18	C15H21O+
219.117	6	C17H15+
220.1254	6	C17H16+
221.1312	21	C17H17+
221.1521	53	C14H21O2+
222.1374	7	C17H18+
222.1573	6	C13[13]CH21O2+
223.1476	96	C17H19+
224.1515	26	C16[13]CH19+
225.1269	54	C16H17O+
225.1632	88	C17H21+
226.1331	22	C16H18O+
226.1659	19	C16[13]CH21+
227.1421	175	C16H19O+
228.1464	31	C15[13]CH19O+
229.1225	16	C15H17O2+
229.1585	21	C16H21O+
230.1653	7	C16H22O+
231.1377	6	C15H19O2+
231.1732	10	C16H23O+
233.1541	27	C15H21O2+
234.1406	12	C18H18+
239.1431	43	C17H19O+
239.1801	61	C18H23+
240.1463	11	C16[13]CH19O+
240.1819	16	C17[13]CH23+
241.1587	341	C17H21O+
242.1638	86	C16[13]CH21O+
243.1404	8	C16H19O2+
243.1736	107	C17H23O+
244.1459	48	C16H20O2+
244.1769	23	C16[13]CH23O+
245.1532	97	C16H21O2+
246.1573	15	C15[13]CH21O2+
247.1316	5	C15H19O3+
247.1684	7	C16H23O2+
249.1631	55	C19H21+
250.168	14	C18[13]CH21+
252.1501	10	C18H20O+
257.153	13	C17H21O2+
257.19	51	C18H25O+
258.1948	10	C17[13]CH25O+
259.1693	999	C17H23O2+
260.1728	186	C16[13]CH23O2+
261.1813	21	C15[13]C2H23O2+
262.1875	5	C17H26O2+
267.1739	239	C19H23O+
268.1774	58	C18[13]CH23O+
269.1812	6	C17[13]C2H23O+
270.1619	10	C18H22O2+
285.1853	196	C19H25O2+
286.1872	61	C18[13]CH25O2+
287.191	6	C17[13]C2H25O2+
288.1693	5	C18H24O3+
303.196	582	C19H27O3+
304.1994	152	C18[13]CH27O3+
305.2023	11	C17[13]C2H27O3+
