Mass spectrum: 2-Benzothiazolesulfonic acid; LC-ESI-QTOF; MS2; CE: 20 eV; R=35000; [M+H]+
Name: 2-Benzothiazolesulfonic acid
Name: Benzothiazole-2-sulfonic acid
Name: 1,3-benzothiazole-2-sulfonic acid
Formula: C7H5NO3S2
Exact mass: 214.9710850
SMILES: OS(=O)(=O)C1=NC2=CC=CC=C2S1
InChI: InChI=1S/C7H5NO3S2/c9-13(10,11)7-8-5-3-1-2-4-6(5)12-7/h1-4H,(H,9,10,11)
Instrument: Bruker maXis Impact
Instrument type: LC-ESI-QTOF
Ms type: MS2
Ion mode: POSITIVE
Ionization: ESI
Fragmentation mode: CID
Collision energy: 20 eV
Resolution: 35000
Column name: Acclaim RSLC C18 2.2um, 2.1x100mm, Thermo
Retention time: 4.483 min
Base peak: 153.1018
Precursor m/z: 215.9784
Precursor type: [M+H]+
m/z	relative intensity	assigned
134.0056	999	C7H4NS+
140.0163	319	C6H6NOS+
152.0148	307	C7H6NOS+
169.9718	476	C6H4NOS2+
215.978	488	C7H6NO3S2+
