Mass spectrum: DCOIT; LC-ESI-QTOF; MS2; CE: 20 eV; R=35000; [M+H]+
Name: DCOIT
Name: Kathon 930
Name: 4,5-dichloro-2-octyl-1,2-thiazol-3-one
Formula: C11H17Cl2NOS
Exact mass: 281.0407905
SMILES: CCCCCCCCN1SC(Cl)=C(Cl)C1=O
InChI: InChI=1S/C11H17Cl2NOS/c1-2-3-4-5-6-7-8-14-11(15)9(12)10(13)16-14/h2-8H2,1H3
Instrument: Bruker maXis Impact
Instrument type: LC-ESI-QTOF
Ms type: MS2
Ion mode: POSITIVE
Ionization: ESI
Fragmentation mode: CID
Collision energy: 20 eV
Resolution: 35000
Column name: Acclaim RSLC C18 2.2um, 2.1x100mm, Thermo
Retention time: 12.461 min
Base peak: 282.0481
Precursor m/z: 282.0481
Precursor type: [M+H]+
m/z	relative intensity	assigned
134.9531	5	C3H2ClNOS+
169.922	999	C3H2Cl2NOS+
170.924	33	C2[13]CH2Cl2NOS+
171.9192	541	C3H2Cl[37]ClNOS+
282.048	80	C11H18Cl2NOS+
283.0505	11	C10[13]CH18Cl2NOS+
284.0447	49	C11H18Cl[37]ClNOS+
