Mass spectrum: Medroxyprogesteroneacetate; LC-ESI-QTOF; MS2; CE: 30 eV; R=35000; [M+H]+
Name: Medroxyprogesteroneacetate
Name: Medroxyprogesterone acetate
Name: [(6S,8R,9S,10R,13S,14S,17R)-17-acetyl-6,10,13-trimethyl-3-oxo-2,6,7,8,9,11,12,14,15,16-decahydro-1H-cyclopenta[a]phenanthren-17-yl] acetate
Formula: C24H34O4
Exact mass: 386.2457096
SMILES: C[C@H]1C[C@H]2[C@@H]3CC[C@](OC(C)=O)(C(C)=O)[C@@]3(C)CC[C@@H]2[C@@]2(C)CCC(=O)C=C12
InChI: InChI=1S/C24H34O4/c1-14-12-18-19(22(4)9-6-17(27)13-21(14)22)7-10-23(5)20(18)8-11-24(23,15(2)25)28-16(3)26/h13-14,18-20H,6-12H2,1-5H3/t14-,18+,19-,20-,22+,23-,24-/m0/s1
Instrument: Bruker maXis Impact
Instrument type: LC-ESI-QTOF
Ms type: MS2
Ion mode: POSITIVE
Ionization: ESI
Fragmentation mode: CID
Collision energy: 30 eV
Resolution: 35000
Column name: Acclaim RSLC C18 2.2um, 2.1x100mm, Thermo
Retention time: 10.948 min
Base peak: 387.2534
Precursor m/z: 387.253
Precursor type: [M+H]+
m/z	relative intensity	assigned
117.0695	7	C9H9+
119.0847	39	C9H11+
121.064	17	C8H9O+
121.1005	29	C9H13+
123.0798	999	C8H11O+
124.0832	81	C7[13]CH11O+
128.0612	5	C10H8+
129.0696	8	C10H9+
131.0845	41	C10H11+
133.1003	100	C10H13+
134.1041	12	C9[13]CH13+
135.0798	32	C9H11O+
135.1159	38	C10H15+
137.0953	226	C9H13O+
138.0982	21	C8[13]CH13O+
139.1103	5	C9H15O+
141.0684	5	C11H9+
142.0766	7	C11H10+
143.0844	37	C11H11+
145.1002	171	C11H13+
146.1039	18	C10[13]CH13+
147.0796	15	C10H11O+
147.1158	132	C11H15+
148.1188	13	C10[13]CH15+
149.095	27	C10H13O+
149.1312	20	C11H17+
151.1106	28	C10H15O+
155.0842	19	C12H11+
156.0911	5	C12H12+
157.0998	76	C12H13+
158.1041	14	C11[13]CH13+
159.0793	7	C11H11O+
159.1157	123	C12H15+
160.1195	16	C11[13]CH15+
161.0948	54	C11H13O+
161.1314	103	C12H17+
162.1354	13	C11[13]CH17+
163.1107	51	C11H15O+
163.1472	31	C12H19+
164.1146	7	C10[13]CH15O+
164.1502	5	C11[13]CH19+
165.1272	8	C11H17O+
167.0833	5	C13H11+
169.1002	65	C13H13+
170.1041	14	C12[13]CH13+
171.1156	152	C13H15+
172.1192	25	C12[13]CH15+
173.0946	27	C12H13O+
173.1315	235	C13H17+
174.1357	37	C12[13]CH17+
175.1106	149	C12H15O+
175.1471	319	C13H19+
176.1147	25	C11[13]CH15O+
176.1508	45	C12[13]CH19+
177.1264	74	C12H17O+
177.1623	9	C13H21+
178.1291	9	C11[13]CH17O+
181.1002	13	C14H13+
182.1084	5	C14H14+
183.1159	87	C14H15+
184.1204	17	C13[13]CH15+
185.0948	13	C13H13O+
185.1314	78	C14H17+
186.1356	13	C13[13]CH17+
187.1107	115	C13H15O+
187.1473	106	C14H19+
188.1145	19	C12[13]CH15O+
188.1512	16	C13[13]CH19+
189.1268	102	C13H17O+
189.1625	31	C14H21+
190.1299	14	C12[13]CH17O+
190.1656	6	C13[13]CH21+
191.1418	55	C13H19O+
192.1449	10	C12[13]CH19O+
193.1008	5	C15H13+
194.1084	6	C15H14+
195.1165	23	C15H15+
196.1213	10	C15H16+
197.1317	93	C15H17+
198.1381	41	C15H18+
199.1106	7	C14H15O+
199.1472	127	C15H19+
200.1523	30	C14[13]CH19+
201.1267	26	C14H17O+
201.1625	45	C15H21+
202.1672	10	C14[13]CH21+
203.142	88	C14H19O+
203.1783	26	C15H23+
204.1458	9	C13[13]CH19O+
204.1809	5	C14[13]CH23+
205.1582	108	C14H21O+
206.1617	15	C13[13]CH21O+
207.1149	10	C16H15+
208.1233	6	C16H16+
209.1314	78	C16H17+
210.1365	21	C15[13]CH17+
211.1472	129	C16H19+
212.1525	28	C15[13]CH19+
213.1267	29	C15H17O+
213.1628	53	C16H21+
214.1346	238	C15H18O+
215.1418	161	C15H19O+
215.1788	10	C16H23+
216.1463	27	C14[13]CH19O+
217.1579	69	C15H21O+
218.1621	13	C14[13]CH21O+
221.1318	20	C17H17+
222.1382	6	C17H18+
223.1472	91	C17H19+
224.1555	422	C17H20+
225.1618	247	C17H21+
226.1664	52	C16[13]CH21+
227.1426	25	C16H19O+
227.1787	99	C17H23+
228.147	5	C15[13]CH19O+
228.1812	15	C16[13]CH23+
229.1588	20	C16H21O+
230.1618	5	C15[13]CH21O+
231.1739	17	C16H23O+
233.1523	9	C15H21O2+
234.1393	11	C18H18+
235.1464	22	C18H19+
236.154	8	C18H20+
237.163	38	C18H21+
238.1679	16	C18H22+
239.1427	33	C17H19O+
239.1784	27	C18H23+
240.1473	9	C16[13]CH19O+
240.1832	7	C17[13]CH23+
241.1576	58	C17H21O+
241.1944	11	C18H25+
242.1622	16	C16[13]CH21O+
243.1733	41	C17H23O+
244.1769	10	C16[13]CH23O+
245.1887	24	C17H25O+
246.1934	6	C16[13]CH25O+
247.1475	7	C19H19+
249.1634	60	C19H21+
250.1666	21	C19H22+
251.1431	7	C18H19O+
251.1792	50	C19H23+
252.1476	5	C18H20O+
252.1842	12	C18[13]CH23+
253.1572	28	C18H21O+
254.1627	5	C17[13]CH21O+
255.1737	48	C18H23O+
256.1774	14	C17[13]CH23O+
257.1534	138	C17H21O2+
257.1895	8	C18H25O+
258.1574	26	C16[13]CH21O2+
263.1789	17	C20H23+
264.1859	23	C20H24+
265.1586	12	C19H21O+
265.1948	114	C20H25+
266.1649	11	C19H22O+
266.202	106	C20H26+
267.1741	322	C19H23O+
267.2104	393	C20H27+
268.1773	82	C18[13]CH23O+
268.2136	77	C19[13]CH27+
269.189	60	C19H25O+
269.215	6	C18[13]C2H27+
270.1931	15	C18[13]CH25O+
281.1893	64	C20H25O+
281.2256	6	C21H29+
282.1973	240	C20H26O+
283.2047	271	C20H27O+
284.2121	173	C20H28O+
285.2214	899	C20H29O+
286.2244	167	C19[13]CH29O+
287.2281	18	C18[13]C2H29O+
289.195	9	C22H25+
291.2105	43	C22H27+
292.1805	5	C21H24O+
292.2132	10	C21[13]CH27+
301.2162	6	C20H29O2+
303.2318	47	C20H31O2+
304.2344	11	C19[13]CH31O2+
307.2056	38	C22H27O+
308.2079	12	C21[13]CH27O+
309.2212	187	C22H29O+
310.2244	50	C21[13]CH29O+
311.2277	5	C20[13]C2H29O+
325.2161	98	C22H29O2+
326.2198	37	C21[13]CH29O2+
327.2322	331	C22H31O2+
328.2349	81	C21[13]CH31O2+
329.2373	11	C20[13]C2H31O2+
345.2425	14	C22H33O3+
387.2531	44	C24H35O4+
388.2557	14	C23[13]CH35O4+
