Mass spectrum: Paramethasone; LC-ESI-QTOF; MS2; CE: 40 eV; R=35000; [M+H]+
Name: Paramethasone
Name: (6S,8S,9S,10R,11S,13S,14S,16R,17R)-6-fluoro-11,17-dihydroxy-17-(2-hydroxyacetyl)-10,13,16-trimethyl-7,8,9,11,12,14,15,16-octahydro-6H-cyclopenta[a]phenanthren-3-one
Formula: C22H29FO5
Exact mass: 392.1999022
SMILES: [H][C@@]12C[C@@H](C)[C@](O)(C(=O)CO)[C@@]1(C)C[C@H](O)[C@@]1([H])[C@@]2([H])C[C@H](F)C2=CC(=O)C=C[C@]12C
InChI: InChI=1S/C22H29FO5/c1-11-6-14-13-8-16(23)15-7-12(25)4-5-20(15,2)19(13)17(26)9-21(14,3)22(11,28)18(27)10-24/h4-5,7,11,13-14,16-17,19,24,26,28H,6,8-10H2,1-3H3/t11-,13+,14+,16+,17+,19-,20+,21+,22+/m1/s1
Instrument: Bruker maXis Impact
Instrument type: LC-ESI-QTOF
Ms type: MS2
Ion mode: POSITIVE
Ionization: ESI
Fragmentation mode: CID
Collision energy: 40 eV
Resolution: 35000
Column name: Acclaim RSLC C18 2.2um, 2.1x100mm, Thermo
Retention time: 8.524 min
Base peak: 393.2062
Precursor m/z: 393.2072
Precursor type: [M+H]+
m/z	relative intensity	assigned
115.0531	28	C9H7+
116.0597	11	C9H8+
117.068	35	C9H9+
119.085	115	C9H11+
120.0896	16	C8[13]CH11+
121.0639	260	C8H9O+
121.1005	50	C9H13+
122.0679	35	C7[13]CH9O+
123.0793	33	C8H11O+
125.0588	23	C7H9O2+
125.0941	17	C8H13O+
128.0614	92	C10H8+
129.0687	52	C10H9+
130.0762	20	C10H10+
131.0474	22	C9H7O+
131.0843	125	C10H11+
132.055	43	C9H8O+
132.0886	20	C9[13]CH11+
133.063	56	C9H9O+
133.1002	61	C10H13+
134.0727	18	C9H10O+
135.0791	192	C9H11O+
137.0586	12	C8H9O2+
137.0751	11	C9H10F+
137.0946	69	C9H13O+
141.0685	51	C11H9+
142.0758	36	C11H10+
143.0842	157	C11H11+
144.0554	19	C10H8O+
144.0882	27	C10[13]CH11+
145.0634	170	C10H9O+
145.1	69	C11H13+
147.079	999	C10H11O+
148.0823	119	C9[13]CH11O+
149.0219	48	C8H5O3+
149.0948	64	C10H13O+
151.0734	31	C9H11O2+
151.1108	18	C10H15O+
153.0686	26	C12H9+
153.089	29	C9H13O2+
155.0838	70	C12H11+
156.09	31	C12H12+
157.0639	21	C11H9O+
157.0995	94	C9H14FO+
158.0709	90	C11H10O+
158.1067	11	C8[13]CH14FO+
159.0788	378	C11H11O+
160.083	62	C10[13]CH11O+
161.0573	21	C10H9O2+
161.095	175	C11H13O+
162.0977	27	C10[13]CH13O+
163.0752	19	C10H11O2+
163.1104	17	C11H15O+
165.0696	46	C13H9+
165.0897	16	C10H13O2+
166.0771	13	C13H10+
167.0843	48	C13H11+
167.1039	15	C10H15O2+
168.055	12	C12H8O+
169.0624	41	C12H9O+
169.0995	55	C13H13+
170.0705	29	C12H10O+
171.079	529	C12H11O+
171.1152	42	C13H15+
172.0831	85	C11[13]CH11O+
173.095	342	C12H13O+
174.0976	48	C11[13]CH13O+
175.0738	15	C11H11O2+
175.1104	39	C12H15O+
177.0892	32	C11H13O2+
178.0765	26	C14H10+
179.085	70	C14H11+
180.0896	23	C14H12+
181.0628	24	C13H9O+
181.1001	50	C14H13+
182.0725	27	C13H10O+
182.1079	14	C14H14+
183.0783	79	C13H11O+
183.1147	29	C14H15+
184.086	38	C13H12O+
185.0567	13	C12H9O2+
185.0945	244	C13H13O+
186.0981	35	C12[13]CH13O+
187.0739	96	C12H11O2+
187.111	90	C13H15O+
188.0775	13	C11[13]CH11O2+
189.0681	21	C15H9+
189.0909	32	C12H13O2+
189.1266	11	C13H17O+
190.0747	15	C15H10+
191.087	34	C12H12FO+
192.0912	38	C15H12+
193.1	95	C15H13+
194.0712	17	C14H10O+
194.106	37	C15H14+
195.0792	66	C14H11O+
195.1142	53	C15H15+
196.0857	72	C14H12O+
196.1204	11	C14[13]CH15+
197.0941	204	C14H13O+
197.1309	25	C15H17+
198.0993	56	C14H14O+
199.0732	12	C13H11O2+
199.1098	71	C14H15O+
201.0879	17	C13H13O2+
201.1266	14	C14H17O+
203.0842	23	C16H11+
204.0918	66	C16H12+
205.0995	44	C16H13+
206.108	33	C16H14+
207.078	21	C15H11O+
207.1158	64	C16H15+
208.0873	92	C15H12O+
208.1205	21	C16H16+
209.0945	190	C15H13O+
209.1312	56	C16H17+
210.102	118	C15H14O+
210.1324	11	C15[13]CH17+
211.1102	218	C15H15O+
211.1491	14	C13H20FO+
212.1161	107	C15H16O+
213.0917	14	C11H14FO3+
213.1266	100	C15H17O+
214.1294	24	C14[13]CH17O+
215.0849	12	C17H11+
215.1052	81	C14H15O2+
216.0931	18	C17H12+
216.1096	14	C13[13]CH15O2+
217.1016	24	C17H13+
218.108	24	C17H14+
219.0767	11	C16H11O+
219.1148	102	C17H15+
220.0871	32	C16H12O+
220.1227	36	C17H16+
221.0953	127	C16H13O+
221.1306	40	C17H17+
222.1024	264	C16H14O+
222.1366	15	C17H18+
223.1102	329	C16H15O+
224.1172	117	C16H16O+
225.0909	16	C15H13O2+
225.1255	101	C16H17O+
226.0967	16	C15H14O2+
226.1306	37	C16H18O+
227.1053	13	C15H15O2+
227.1417	50	C16H19O+
228.1447	13	C15[13]CH19O+
229.0994	14	C18H13+
230.1079	29	C18H14+
231.1155	27	C18H15+
232.0847	20	C17H12O+
232.1223	20	C18H16+
233.0953	50	C17H13O+
233.1318	26	C18H17+
234.1029	47	C17H14O+
234.1372	13	C18H18+
235.1106	164	C17H15O+
235.1477	24	C18H19+
236.1148	78	C17H16O+
236.1592	21	C15H21FO+
237.126	332	C17H17O+
237.1611	28	C18H21+
238.0959	15	C16H14O2+
238.1305	74	C16[13]CH17O+
239.1047	46	C16H15O2+
239.1424	158	C17H19O+
240.1098	10	C15[13]CH15O2+
241.1219	19	C16H17O2+
242.1192	11	C12H18O5+
243.1141	29	C19H15+
244.1217	24	C19H16+
245.0944	48	C18H13O+
245.1291	28	C19H17+
246.1009	34	C18H14O+
246.1376	26	C19H18+
247.1107	77	C18H15O+
247.1469	21	C19H19+
248.1179	108	C18H16O+
249.1262	128	C18H17O+
249.1614	17	C19H21+
250.1309	57	C18H18O+
250.172	15	C19H22+
251.1026	10	C17H15O2+
251.1418	64	C18H19O+
251.1802	12	C16H24FO+
252.1098	11	C17H16O2+
252.1489	57	C18H20O+
253.1209	49	C17H17O2+
253.1556	56	C18H21O+
254.1253	13	C16[13]CH17O2+
254.1616	12	C17[13]CH21O+
255.1367	31	C17H19O2+
257.1317	24	C20H17+
258.1031	18	C19H14O+
258.1414	11	C17H19FO+
259.1119	52	C19H15O+
259.1467	25	C20H19+
260.1164	52	C19H16O+
261.1264	94	C19H17O+
261.1638	30	C20H21+
262.1338	154	C19H18O+
263.1033	14	C18H15O2+
263.1415	270	C19H19O+
264.1115	18	C18H16O2+
264.1484	118	C19H20O+
265.1565	39	C18[13]CH20O+
266.1606	27	C19H22O+
267.137	38	C18H19O2+
267.174	11	C18[13]CH22O+
271.1122	30	C20H15O+
271.1464	18	C21H19+
272.1164	29	C20H16O+
273.1261	26	C20H17O+
273.1628	11	C21H21+
274.1359	53	C17H19FO2+
275.1412	53	C20H19O+
276.1493	85	C20H20O+
277.1212	11	C19H17O2+
277.1563	144	C20H21O+
278.1267	14	C19H18O2+
278.164	124	C20H22O+
279.1399	15	C16H20FO3+
279.1724	231	C20H23O+
280.1771	51	C19[13]CH23O+
281.1535	20	C19H21O2+
281.186	11	C20H25O+
282.1585	13	C19H22O2+
286.1339	44	C21H18O+
287.1353	13	C20[13]CH18O+
289.157	40	C21H21O+
290.1304	11	C20H18O2+
290.1585	11	C20[13]CH21O+
291.1361	23	C20H19O2+
291.1732	38	C21H23O+
292.1407	14	C20H20O2+
292.1779	13	C21H24O+
293.1554	15	C17H22FO3+
295.1691	22	C20H23O2+
296.1763	21	C20H24O2+
297.1835	14	C20H25O2+
301.157	35	C22H21O+
304.1439	14	C21H20O2+
306.1615	22	C21H22O2+
307.1677	31	C21H23O2+
308.1758	13	C21H24O2+
309.1882	10	C18H26FO3+
319.1702	33	C22H23O2+
320.1706	11	C21[13]CH23O2+
325.1796	13	C21H25O3+
