Mass spectrum: Lauramidopropylbetaine; LC-ESI-QTOF; MS2; CE: 30 eV; R=35000; [M+H]+
Name: Lauramidopropylbetaine
Name: 3-(Dodecanoylamino)propyl(carboxymethyl)dimethylammonium
Name: carboxymethyl-[3-(dodecanoylamino)propyl]-dimethylazanium
Formula: [C19H39N2O3]+
Exact mass: 343.2960681
SMILES: CCCCCCCCCCCC(=O)NCCC[N+](C)(C)CC(O)=O
InChI: InChI=1S/C19H38N2O3/c1-4-5-6-7-8-9-10-11-12-14-18(22)20-15-13-16-21(2,3)17-19(23)24/h4-17H2,1-3H3,(H-,20,22,23,24)/p+1
Instrument: Bruker maXis Impact
Instrument type: LC-ESI-QTOF
Ms type: MS2
Ion mode: POSITIVE
Ionization: ESI
Fragmentation mode: CID
Collision energy: 30 eV
Resolution: 35000
Column name: Acclaim RSLC C18 2.2um, 2.1x100mm, Thermo
Retention time: 13.099 min
Base peak: 360.3618
Precursor m/z: 344.3033
Precursor type: [M+H]+
m/z	relative intensity	assigned
223.0619	73	C14H9NO2+
225.0425	115	C13H7NO3+
226.0423	31	C17H6O+
237.0769	55	C15H11NO2+
240.2317	193	C15H30NO+
241.2378	41	C14[13]CH30NO+
281.0489	79	C19H7NO2+
283.031	103	C18H5NO3+
283.2665	28	C18H35O2+
299.061	999	C19H9NO3+
300.0624	247	C18[13]CH9NO3+
