Mass spectrum: 6a_Methylprednisolone; LC-ESI-QTOF; MS2; CE: Ramp 23.1-34.7 eV; R=35000; [M+H]+
Name: 6a_Methylprednisolone
Name: Methylprednisolone
Name: (6S,8S,9S,10R,11S,13S,14S,17R)-11,17-dihydroxy-17-(2-hydroxyacetyl)-6,10,13-trimethyl-7,8,9,11,12,14,15,16-octahydro-6H-cyclopenta[a]phenanthren-3-one
Formula: C22H30O5
Exact mass: 374.2093241
SMILES: [H][C@@]12CC[C@](O)(C(=O)CO)[C@@]1(C)C[C@H](O)[C@@]1([H])[C@@]2([H])C[C@H](C)C2=CC(=O)C=C[C@]12C
InChI: InChI=1S/C22H30O5/c1-12-8-14-15-5-7-22(27,18(26)11-23)21(15,3)10-17(25)19(14)20(2)6-4-13(24)9-16(12)20/h4,6,9,12,14-15,17,19,23,25,27H,5,7-8,10-11H2,1-3H3/t12-,14-,15-,17-,19+,20-,21-,22-/m0/s1
Instrument: Bruker maXis Impact
Instrument type: LC-ESI-QTOF
Ms type: MS2
Ion mode: POSITIVE
Ionization: ESI
Fragmentation mode: CID
Collision energy: Ramp 23.1-34.7 eV
Resolution: 35000
Column name: Acclaim RSLC C18 2.2um, 2.1x100mm, Thermo
Retention time: 8.704 min
Base peak: 375.2168
Precursor m/z: 375.2166
Precursor type: [M+H]+
m/z	relative intensity	assigned
67.0544	8	C5H7+
69.0333	8	C4H5O+
71.0492	12	C4H7O+
81.0705	8	C6H9+
93.0701	8	C7H9+
105.0687	10	C8H9+
107.0861	11	C8H11+
109.1027	8	C8H13+
115.0525	13	C9H7+
117.0685	12	C9H9+
119.0857	26	C9H11+
121.0638	162	C8H9O+
121.1002	10	C9H13+
122.0658	8	C7[13]CH9O+
123.0796	18	C8H11O+
125.0587	21	C7H9O2+
128.0623	13	C10H8+
129.0678	16	C10H9+
130.0757	8	C10H10+
131.0841	48	C10H11+
133.0997	39	C10H13+
135.0792	585	C9H11O+
136.0825	53	C8[13]CH11O+
137.0573	28	C8H9O2+
137.0947	35	C9H13O+
139.0742	15	C8H11O2+
142.076	9	C11H10+
143.0846	31	C11H11+
144.092	12	C11H12+
145.0631	48	C10H9O+
145.0998	51	C11H13+
146.07	20	C10H10O+
146.1032	7	C10[13]CH13+
147.0796	99	C10H11O+
147.1145	26	C11H15+
148.0833	10	C9[13]CH11O+
149.0945	83	C10H13O+
150.1007	10	C9[13]CH13O+
151.072	21	C9H11O2+
153.0897	9	C9H13O2+
155.0689	12	C8H11O3+
157.0999	23	C12H13+
158.0718	18	C11H10O+
159.0792	143	C11H11O+
159.1158	15	C12H15+
161.0949	999	C11H13O+
162.098	93	C10[13]CH13O+
163.076	9	C10H11O2+
163.1097	10	C11H15O+
165.0892	78	C10H13O2+
166.093	8	C9[13]CH13O2+
169.1012	16	C13H13+
171.0783	47	C12H11O+
171.117	35	C13H15+
172.0865	22	C12H12O+
172.1185	8	C12[13]CH15+
173.0939	133	C12H13O+
173.1312	25	C13H17+
174.0985	19	C11[13]CH13O+
175.072	8	C11H11O2+
175.1103	75	C12H15O+
176.114	11	C11[13]CH15O+
177.0896	40	C11H13O2+
179.1083	12	C11H15O2+
183.078	9	C13H11O+
183.1006	21	C10H15O3+
183.1167	11	C14H15+
185.0949	595	C13H13O+
186.0986	93	C12[13]CH13O+
187.1102	376	C13H15O+
188.1139	59	C12[13]CH15O+
189.0899	78	C12H13O2+
189.1245	18	C13H17O+
190.0935	11	C11[13]CH13O2+
191.1064	11	C12H15O2+
191.141	10	C13H19O+
192.1146	8	C12H16O2+
193.0991	14	C15H13+
193.1204	11	C12H17O2+
195.0805	17	C14H11O+
195.1147	11	C15H15+
196.0905	13	C14H12O+
197.0955	40	C14H13O+
198.1011	8	C13[13]CH13O+
199.1102	93	C14H15O+
200.1169	14	C13[13]CH15O+
201.0899	12	C13H13O2+
201.1261	49	C14H17O+
202.1284	8	C13[13]CH17O+
203.1381	8	C14H19O+
205.1213	15	C13H17O2+
208.0866	11	C15H12O+
209.0948	59	C15H13O+
209.1315	11	C16H17+
210.1011	36	C15H14O+
211.1103	325	C15H15O+
212.1156	54	C14[13]CH15O+
213.1261	121	C15H17O+
214.1299	14	C14[13]CH17O+
215.1055	9	C14H15O2+
215.1409	22	C15H19O+
219.136	10	C14H19O2+
220.1224	8	C17H16+
221.0986	13	C16H13O+
222.1021	23	C16H14O+
223.1094	84	C16H15O+
224.1177	39	C16H16O+
225.1265	99	C16H17O+
226.1313	27	C15[13]CH17O+
227.1063	15	C15H15O2+
227.1419	54	C16H19O+
228.1459	8	C15[13]CH19O+
229.1247	13	C15H17O2+
231.1371	52	C15H19O2+
232.1406	16	C15H20O2+
233.0956	9	C17H13O+
233.1307	13	C18H17+
235.1109	77	C17H15O+
235.1468	14	C18H19+
236.1173	42	C17H16O+
237.1264	241	C17H17O+
238.1327	84	C17H18O+
239.1414	112	C17H19O+
240.1462	40	C17H20O+
241.1578	25	C17H21O+
245.1295	10	C19H17+
246.1022	11	C18H14O+
247.1099	15	C18H15O+
248.1175	24	C18H16O+
249.1258	57	C18H17O+
250.1298	32	C18H18O+
251.1043	14	C17H15O2+
251.1424	222	C18H19O+
252.1463	51	C17[13]CH19O+
253.1581	585	C18H21O+
254.1612	104	C17[13]CH21O+
255.1351	13	C17H19O2+
255.1726	71	C18H23O+
256.1785	13	C17[13]CH23O+
259.11	15	C19H15O+
260.1191	10	C19H16O+
261.127	47	C19H17O+
262.1312	20	C19H18O+
263.1415	69	C19H19O+
263.1764	18	C20H23+
264.1526	23	C19H20O+
265.1208	11	C18H17O2+
265.1578	113	C19H21O+
266.1246	8	C18H18O2+
266.1627	25	C18[13]CH21O+
267.1375	38	C18H19O2+
267.1723	9	C19H23O+
268.1407	10	C17[13]CH19O2+
269.1533	21	C18H21O2+
273.127	14	C20H17O+
274.1333	18	C20H18O+
275.1423	38	C20H19O+
275.178	8	C21H23+
276.1488	8	C19[13]CH19O+
277.1581	75	C20H21O+
278.1637	41	C20H22O+
279.1374	75	C19H19O2+
279.1735	227	C20H23O+
280.1424	18	C18[13]CH19O2+
280.1803	301	C20H24O+
281.1874	122	C20H25O+
282.1917	24	C19[13]CH25O+
283.1303	8	C18H19O3+
285.1485	9	C18H21O3+
288.1513	35	C21H20O+
289.1534	8	C20[13]CH20O+
290.1693	13	C21H22O+
291.1736	54	C21H23O+
292.1764	24	C21H24O+
293.1509	30	C20H21O2+
293.1898	94	C21H25O+
294.1921	22	C20[13]CH25O+
295.1665	21	C20H23O2+
295.1918	8	C17H27O4+
297.1474	62	C19H21O3+
297.1842	16	C20H25O2+
298.1518	12	C18[13]CH21O3+
299.1982	17	C20H27O2+
303.1738	135	C22H23O+
304.1771	26	C21[13]CH23O+
306.1613	14	C21H22O2+
308.1754	9	C21H24O2+
309.1838	62	C21H25O2+
310.1861	16	C20[13]CH25O2+
311.1633	14	C20H23O3+
311.2021	22	C21H27O2+
315.1586	26	C19H23O4+
321.1842	168	C22H25O2+
322.1879	51	C21[13]CH25O2+
329.2098	8	C21H29O3+
339.1949	184	C22H27O3+
340.2005	51	C21[13]CH27O3+
357.2048	225	C22H29O4+
358.2085	61	C21[13]CH29O4+
