Mass spectrum: Fluorometholone; LC-ESI-QTOF; MS2; CE: 50 eV; R=35000; [M+H]+
Name: Fluorometholone
Name: (6S,8S,9R,10S,11S,13S,14S,17R)-17-acetyl-9-fluoro-11,17-dihydroxy-6,10,13-trimethyl-6,7,8,11,12,14,15,16-octahydrocyclopenta[a]phenanthren-3-one
Formula: C22H29FO4
Exact mass: 376.2049876
SMILES: [H][C@@]12CC[C@](O)(C(C)=O)[C@@]1(C)C[C@H](O)[C@@]1(F)[C@@]2([H])C[C@H](C)C2=CC(=O)C=C[C@]12C
InChI: InChI=1S/C22H29FO4/c1-12-9-17-15-6-8-21(27,13(2)24)20(15,4)11-18(26)22(17,23)19(3)7-5-14(25)10-16(12)19/h5,7,10,12,15,17-18,26-27H,6,8-9,11H2,1-4H3/t12-,15-,17-,18-,19-,20-,21-,22-/m0/s1
Instrument: Bruker maXis Impact
Instrument type: LC-ESI-QTOF
Ms type: MS2
Ion mode: POSITIVE
Ionization: ESI
Fragmentation mode: CID
Collision energy: 50 eV
Resolution: 35000
Column name: Acclaim RSLC C18 2.2um, 2.1x100mm, Thermo
Retention time: 8.935 min
Base peak: 435.2178
Precursor m/z: 377.2123
Precursor type: [M+H]+
m/z	relative intensity	assigned
115.0531	237	C9H7+
116.0593	46	C9H8+
117.0694	108	C9H9+
119.0511	38	C5H8FO2+
119.0848	100	C9H11+
121.0642	520	C8H9O+
121.099	34	C9H13+
122.0679	60	C7[13]CH9O+
123.0578	31	C8H8F+
123.0803	63	C8H11O+
128.0609	177	C10H8+
129.0689	150	C10H9+
130.0768	49	C10H10+
131.0472	62	C9H7O+
131.084	165	C10H11+
132.056	60	C9H8O+
133.062	90	C9H9O+
133.0999	197	C10H13+
135.0793	999	C9H11O+
136.0822	100	C8[13]CH11O+
137.0964	32	C9H13O+
139.0551	36	C8H8FO+
141.0681	116	C11H9+
142.076	190	C11H10+
143.0837	159	C11H11+
144.0561	91	C10H8O+
144.0915	44	C11H12+
145.0638	360	C10H9O+
145.1007	150	C11H13+
146.0709	306	C10H10O+
147.0793	234	C10H11O+
147.1163	46	C11H15+
149.0951	70	C10H13O+
150.1009	30	C10H14O+
152.0612	42	C12H8+
153.0683	46	C12H9+
155.0837	84	C12H11+
156.0918	88	C12H12+
157.0633	72	C11H9O+
157.0987	191	C12H13+
158.0715	234	C11H10O+
158.1062	49	C12H14+
159.079	420	C11H11O+
159.1148	49	C12H15+
161.0951	815	C11H13O+
162.0986	93	C10[13]CH13O+
163.0886	32	C11H12F+
165.0686	98	C13H9+
166.0756	64	C13H10+
167.0836	67	C13H11+
169.0651	56	C12H9O+
169.1003	71	C13H13+
170.0688	74	C12H10O+
171.079	192	C12H11O+
171.1131	37	C13H15+
172.087	158	C12H12O+
173.0947	190	C12H13O+
175.1116	135	C12H15O+
178.0766	78	C14H10+
179.0848	104	C14H11+
180.09	61	C14H12+
181.0639	58	C13H9O+
181.0998	98	C14H13+
182.0715	53	C13H10O+
183.0796	129	C13H11O+
183.117	37	C14H15+
184.0868	44	C13H12O+
185.0946	451	C10H14FO2+
186.101	65	C9[13]CH14FO2+
187.1093	131	C13H15O+
189.0698	31	C15H9+
189.126	56	C13H17O+
190.0768	40	C15H10+
191.0847	45	C15H11+
192.092	58	C15H12+
193.0992	161	C15H13+
194.0717	52	C14H10O+
194.1089	60	C15H14+
195.0791	205	C14H11O+
195.114	62	C15H15+
196.0856	155	C14H12O+
197.094	168	C14H13O+
198.1005	60	C14H14O+
199.0737	54	C13H11O2+
199.1106	132	C14H15O+
203.0829	80	C16H11+
204.0927	85	C16H12+
205.1019	95	C13H14FO+
206.1055	62	C16H14+
207.0786	58	C15H11O+
207.1136	50	C16H15+
208.0869	200	C15H12O+
208.1209	57	C16H16+
209.094	450	C15H13O+
210.1015	243	C15H14O+
211.1097	196	C15H15O+
212.1165	54	C15H16O+
213.127	45	C15H17O+
215.0814	57	C17H11+
216.0899	65	C17H12+
217.1014	54	C17H13+
218.0724	31	C16H10O+
218.1068	73	C17H14+
219.0775	54	C16H11O+
219.1178	40	C14H16FO+
220.087	74	C16H12O+
220.1219	43	C17H16+
221.0957	277	C16H13O+
221.1317	46	C17H17+
222.1028	425	C16H14O+
223.1091	305	C16H15O+
224.1159	119	C16H16O+
225.0902	43	C15H13O2+
225.1241	101	C16H17O+
228.1091	45	C15H16O2+
229.0995	32	C18H13+
230.1052	57	C18H14+
231.0828	40	C14H12FO2+
231.1135	61	C18H15+
232.0879	35	C17H12O+
232.1233	36	C18H16+
233.0945	91	C17H13O+
233.1357	44	C15H18FO+
234.102	114	C17H14O+
235.1114	238	C17H15O+
235.1471	31	C18H19+
236.1183	313	C17H16O+
237.1259	291	C14H18FO2+
238.1342	56	C13[13]CH18FO2+
239.1444	60	C14H20FO2+
245.0942	40	C18H13O+
245.1324	62	C19H17+
246.1021	67	C18H14O+
247.1097	88	C18H15O+
247.1493	67	C16H20FO+
248.1197	141	C18H16O+
249.1256	371	C18H17O+
250.1308	137	C18H18O+
251.1422	198	C15H20FO2+
252.1499	39	C14[13]CH20FO2+
255.1138	57	C20H15+
258.1051	35	C16H15FO2+
259.1123	150	C19H15O+
260.1148	33	C18[13]CH15O+
261.1263	32	C19H17O+
262.1354	43	C19H18O+
263.1435	233	C19H19O+
264.1474	92	C16H21FO2+
265.1529	30	C15[13]CH21FO2+
265.1613	33	C15[13]CH21FO2+
272.122	30	C17H17FO2+
273.125	85	C20H17O+
277.1587	39	C20H21O+
279.1743	142	C20H23O+
