Mass spectrum: Testosterone; LC-ESI-QTOF; MS2; CE: 40 eV; R=35000; [M+H]+
Name: Testosterone
Name: (8R,9S,10R,13S,14S,17S)-17-hydroxy-10,13-dimethyl-1,2,6,7,8,9,11,12,14,15,16,17-dodecahydrocyclopenta[a]phenanthren-3-one
Formula: C19H28O2
Exact mass: 288.2089301
SMILES: C[C@]12CC[C@H]3[C@@H](CCC4=CC(=O)CC[C@]34C)[C@@H]1CC[C@@H]2O
InChI: InChI=1S/C19H28O2/c1-18-9-7-13(20)11-12(18)3-4-14-15-5-6-17(21)19(15,2)10-8-16(14)18/h11,14-17,21H,3-10H2,1-2H3/t14-,15-,16-,17-,18-,19-/m0/s1
Instrument: Bruker maXis Impact
Instrument type: LC-ESI-QTOF
Ms type: MS2
Ion mode: POSITIVE
Ionization: ESI
Fragmentation mode: CID
Collision energy: 40 eV
Resolution: 35000
Column name: Acclaim RSLC C18 2.2um, 2.1x100mm, Thermo
Retention time: 9.844 min
Base peak: 289.2156
Precursor m/z: 289.2162
Precursor type: [M+H]+
m/z	relative intensity	assigned
109.0645	79	C7H9O+
115.0533	58	C9H7+
116.0609	20	C9H8+
117.0698	96	C9H9+
119.0845	344	C9H11+
120.0882	44	C8[13]CH11+
121.0639	129	C8H9O+
121.1	134	C9H13+
123.0795	999	C8H11O+
124.0824	108	C7[13]CH11O+
128.0611	110	C10H8+
129.0684	232	C10H9+
130.0753	81	C10H10+
131.0844	380	C10H11+
132.0876	40	C9[13]CH11+
133.0627	36	C9H9O+
133.0999	437	C10H13+
134.1032	46	C9[13]CH13+
135.0794	32	C9H11O+
135.1159	120	C10H15+
137.0946	70	C9H13O+
137.1302	19	C10H17+
141.0679	88	C11H9+
142.0758	92	C11H10+
143.084	291	C11H11+
144.0906	84	C11H12+
145.0996	561	C11H13+
146.1036	82	C10[13]CH13+
147.0788	50	C10H11O+
147.1158	349	C11H15+
148.0859	25	C10H12O+
148.1191	64	C10[13]CH15+
149.0949	106	C10H13O+
149.1306	67	C11H17+
151.1095	18	C10H15O+
154.0759	24	C12H10+
155.0831	149	C12H11+
156.0899	76	C12H12+
157.0997	353	C12H13+
158.104	70	C11[13]CH13+
159.1151	474	C12H15+
160.1193	66	C11[13]CH15+
161.0946	69	C11H13O+
161.1307	196	C12H17+
162.1025	22	C11H14O+
162.1349	33	C11[13]CH17+
163.111	110	C11H15O+
163.1459	41	C12H19+
167.0844	33	C13H11+
168.0895	38	C13H12+
169.1006	145	C13H13+
170.1063	51	C13H14+
171.1151	214	C13H15+
172.119	49	C12[13]CH15+
173.0957	23	C12H13O+
173.1314	130	C13H17+
175.1102	64	C12H15O+
175.1469	169	C13H19+
177.1256	126	C12H17O+
181.0989	27	C14H13+
182.1069	53	C14H14+
183.1144	233	C14H15+
184.1237	58	C13[13]CH15+
185.1308	135	C14H17+
186.1355	23	C13[13]CH17+
187.147	179	C14H19+
188.1156	18	C13H16O+
188.1513	36	C13[13]CH19+
189.1245	48	C13H17O+
189.1626	35	C14H21+
195.1158	23	C15H15+
196.1242	25	C15H16+
197.1301	176	C15H17+
198.1373	52	C15H18+
199.146	158	C15H19+
200.1507	35	C14[13]CH19+
201.1265	15	C14H17O+
201.1623	80	C15H21+
202.1333	15	C14H18O+
209.1299	23	C16H17+
211.148	75	C16H19+
212.153	41	C16H20+
213.1622	148	C16H21+
214.1649	22	C15[13]CH21+
215.1404	46	C15H19O+
215.1771	17	C16H23+
223.1458	19	C17H19+
225.1629	40	C17H21+
227.1782	91	C17H23+
229.1926	16	C17H25+
238.1687	28	C18H22+
253.1927	113	C19H25+
254.1983	24	C18[13]CH25+
271.2077	38	C19H27O+
289.2139	30	C19H29O2+
