Mass spectrum: Desonide; LC-ESI-QTOF; MS2; CE: 10 eV; R=35000; [M+H]+
Name: Desonide
Name: (1S,2S,4R,8S,9S,11S,12S,13R)-11-hydroxy-8-(2-hydroxyacetyl)-6,6,9,13-tetramethyl-5,7-dioxapentacyclo[10.8.0.02,9.04,8.013,18]icosa-14,17-dien-16-one
Formula: C24H32O6
Exact mass: 416.2198887
SMILES: CC1(C)O[C@@H]2C[C@H]3[C@@H]4CCC5=CC(=O)C=C[C@]5(C)[C@H]4[C@@H](O)C[C@]3(C)[C@@]2(O1)C(=O)CO
InChI: InChI=1S/C24H32O6/c1-21(2)29-19-10-16-15-6-5-13-9-14(26)7-8-22(13,3)20(15)17(27)11-23(16,4)24(19,30-21)18(28)12-25/h7-9,15-17,19-20,25,27H,5-6,10-12H2,1-4H3/t15-,16-,17-,19+,20+,22-,23-,24+/m0/s1
Instrument: Bruker maXis Impact
Instrument type: LC-ESI-QTOF
Ms type: MS2
Ion mode: POSITIVE
Ionization: ESI
Fragmentation mode: CID
Collision energy: 10 eV
Resolution: 35000
Column name: Acclaim RSLC C18 2.2um, 2.1x100mm, Thermo
Retention time: 9.036 min
Base peak: 417.2272
Precursor m/z: 417.2272
Precursor type: [M+H]+
m/z	relative intensity	assigned
147.0789	17	C10H11O+
171.0789	5	C12H11O+
173.0949	19	C12H13O+
223.1108	7	C16H15O+
225.1266	21	C16H17O+
226.133	14	C16H18O+
227.1415	12	C16H19O+
237.1268	5	C17H17O+
239.1431	6	C17H19O+
241.1587	7	C17H21O+
263.143	13	C19H19O+
265.158	19	C19H21O+
277.158	20	C20H21O+
278.1611	5	C19[13]CH21O+
281.1534	10	C19H21O2+
283.1685	9	C19H23O2+
287.1421	6	C21H19O+
293.1527	10	C20H21O2+
295.1693	62	C20H23O2+
296.172	12	C19[13]CH23O2+
305.1531	62	C21H21O2+
306.1564	14	C20[13]CH21O2+
311.1643	7	C20H23O3+
313.1793	21	C20H25O3+
314.1822	6	C19[13]CH25O3+
323.1645	259	C21H23O3+
324.1678	57	C20[13]CH23O3+
325.1696	6	C19[13]C2H23O3+
341.1749	241	C21H25O4+
342.178	60	C20[13]CH25O4+
343.1809	7	C19[13]C2H25O4+
363.1948	6	C24H27O3+
381.2061	29	C24H29O4+
382.2094	11	C23[13]CH29O4+
399.2171	999	C24H31O5+
400.2201	235	C23[13]CH31O5+
401.223	29	C22[13]C2H31O5+
417.2276	936	C24H33O6+
418.2311	254	C23[13]CH33O6+
419.234	33	C22[13]C2H33O6+
