Mass spectrum: 6a_Methylprednisolone; LC-ESI-QTOF; MS2; CE: 40 eV; R=35000; [M+H]+
Name: 6a_Methylprednisolone
Name: Methylprednisolone
Name: (6S,8S,9S,10R,11S,13S,14S,17R)-11,17-dihydroxy-17-(2-hydroxyacetyl)-6,10,13-trimethyl-7,8,9,11,12,14,15,16-octahydro-6H-cyclopenta[a]phenanthren-3-one
Formula: C22H30O5
Exact mass: 374.2093241
SMILES: [H][C@@]12CC[C@](O)(C(=O)CO)[C@@]1(C)C[C@H](O)[C@@]1([H])[C@@]2([H])C[C@H](C)C2=CC(=O)C=C[C@]12C
InChI: InChI=1S/C22H30O5/c1-12-8-14-15-5-7-22(27,18(26)11-23)21(15,3)10-17(25)19(14)20(2)6-4-13(24)9-16(12)20/h4,6,9,12,14-15,17,19,23,25,27H,5,7-8,10-11H2,1-3H3/t12-,14-,15-,17-,19+,20-,21-,22-/m0/s1
Instrument: Bruker maXis Impact
Instrument type: LC-ESI-QTOF
Ms type: MS2
Ion mode: POSITIVE
Ionization: ESI
Fragmentation mode: CID
Collision energy: 40 eV
Resolution: 35000
Column name: Acclaim RSLC C18 2.2um, 2.1x100mm, Thermo
Retention time: 8.690 min
Base peak: 375.2157
Precursor m/z: 375.2166
Precursor type: [M+H]+
m/z	relative intensity	assigned
115.0533	66	C9H7+
116.0574	10	C8[13]CH7+
117.0691	36	C9H9+
119.0845	52	C9H11+
121.064	252	C8H9O+
121.1003	29	C9H13+
122.0668	33	C7[13]CH9O+
123.0811	17	C8H11O+
125.0606	15	C7H9O2+
128.0613	42	C10H8+
129.0686	44	C10H9+
130.0751	35	C10H10+
131.0478	28	C9H7O+
131.0842	99	C10H11+
132.0554	12	C9H8O+
132.0878	18	C9[13]CH11+
133.0641	34	C9H9O+
133.1	129	C10H13+
135.079	756	C9H11O+
136.0825	88	C8[13]CH11O+
137.0589	43	C8H9O2+
137.094	20	C9H13O+
141.068	71	C11H9+
142.0762	60	C11H10+
143.084	97	C11H11+
144.0554	43	C10H8O+
144.0905	29	C11H12+
145.0634	159	C10H9O+
145.0996	108	C11H13+
146.0713	94	C10H10O+
147.079	157	C10H11O+
147.1161	37	C11H15+
148.0827	21	C9[13]CH11O+
149.0946	70	C10H13O+
151.073	13	C9H11O2+
153.0662	17	C12H9+
155.0833	48	C12H11+
156.0902	19	C12H12+
157.0636	26	C11H9O+
157.1003	74	C12H13+
158.071	101	C11H10O+
158.1029	14	C11[13]CH13+
159.0794	385	C11H11O+
159.1155	53	C12H15+
160.0854	55	C10[13]CH11O+
161.0947	999	C11H13O+
162.0979	124	C10[13]CH13O+
163.1102	17	C11H15O+
165.0688	27	C13H9+
165.0881	34	C10H13O2+
166.0765	15	C13H10+
167.0843	22	C13H11+
168.0922	18	C13H12+
169.0617	14	C12H9O+
169.0997	39	C13H13+
170.0725	25	C12H10O+
171.0791	123	C12H11O+
171.114	38	C13H15+
172.0874	115	C12H12O+
172.122	12	C13H16+
173.0946	258	C12H13O+
173.1313	28	C13H17+
174.0971	52	C11[13]CH13O+
175.1098	93	C12H15O+
176.1173	12	C11[13]CH15O+
177.0886	36	C11H13O2+
177.1264	18	C12H17O+
178.0741	36	C14H10+
179.0832	29	C14H11+
180.0911	24	C14H12+
181.0632	32	C13H9O+
181.0992	37	C14H13+
182.0694	15	C13H10O+
182.1063	15	C14H14+
183.0795	43	C13H11O+
183.1155	38	C14H15+
184.0884	33	C13H12O+
185.0947	748	C13H13O+
186.0987	128	C12[13]CH13O+
187.11	376	C13H15O+
188.1145	62	C12[13]CH15O+
189.0896	96	C12H13O2+
189.1232	21	C13H17O+
190.0786	15	C15H10+
190.0954	25	C12H14O2+
190.1321	14	C13H18O+
191.0837	33	C15H11+
192.0929	28	C15H12+
193.0999	90	C15H13+
194.1088	28	C15H14+
195.0791	84	C14H11O+
195.1156	33	C15H15+
196.0874	119	C14H12O+
197.0939	138	C14H13O+
197.1306	18	C15H17+
198.1008	53	C14H14O+
199.1103	131	C14H15O+
200.1153	27	C13[13]CH15O+
201.0897	15	C13H13O2+
201.1267	39	C14H17O+
203.083	14	C16H11+
205.1018	35	C16H13+
206.1074	20	C16H14+
207.1148	60	C16H15+
208.0882	60	C15H12O+
208.1219	14	C15[13]CH15+
209.0951	207	C15H13O+
209.1308	44	C16H17+
210.1014	146	C15H14O+
211.1103	581	C15H15O+
212.1143	113	C14[13]CH15O+
213.0901	10	C14H13O2+
213.1253	129	C15H17O+
214.1315	30	C14[13]CH17O+
217.0988	18	C17H13+
218.1069	19	C17H14+
219.114	26	C17H15+
220.0881	20	C16H12O+
220.1222	52	C17H16+
221.0968	45	C16H13O+
221.1316	28	C17H17+
222.1029	117	C16H14O+
223.1103	233	C16H15O+
223.1479	12	C17H19+
224.1167	176	C16H16O+
225.0907	11	C15H13O2+
225.1258	141	C16H17O+
225.1633	11	C17H21+
226.1309	36	C15[13]CH17O+
227.1421	48	C16H19O+
231.1133	13	C18H15+
231.1367	21	C15H19O2+
233.095	38	C17H13O+
233.1327	25	C18H17+
234.1028	40	C17H14O+
234.1354	11	C18H18+
235.1099	109	C17H15O+
235.1445	40	C18H19+
236.1186	97	C17H16O+
237.1255	278	C17H17O+
238.0935	11	C16H14O2+
238.1327	153	C17H18O+
239.1402	140	C17H19O+
240.147	37	C16[13]CH19O+
241.1572	24	C17H21O+
243.1194	16	C19H15+
245.0944	26	C18H13O+
246.1027	31	C18H14O+
247.1103	36	C18H15O+
247.1464	18	C19H19+
248.1188	48	C18H16O+
249.1264	102	C18H17O+
250.1327	62	C18H18O+
251.1048	14	C17H15O2+
251.1417	228	C18H19O+
252.1471	41	C17[13]CH19O+
253.1219	15	C17H17O2+
253.1576	236	C18H21O+
254.1614	61	C17[13]CH21O+
255.1359	12	C17H19O2+
255.1715	22	C18H23O+
259.1122	35	C19H15O+
260.1171	24	C19H16O+
261.1265	73	C19H17O+
262.1354	41	C19H18O+
263.1423	70	C19H19O+
263.1772	44	C20H23+
264.115	24	C18H16O2+
264.1485	45	C19H20O+
264.1854	11	C19[13]CH23+
265.1227	14	C18H17O2+
265.1573	287	C19H21O+
266.1325	14	C18H18O2+
266.159	61	C18[13]CH21O+
267.1353	30	C18H19O2+
267.1656	11	C17[13]C2H21O+
269.1526	24	C18H21O2+
273.1257	50	C20H17O+
274.1322	41	C20H18O+
275.1385	45	C20H19O+
276.1471	13	C19[13]CH19O+
277.1565	39	C20H21O+
278.1295	13	C19H18O2+
278.1639	28	C20H22O+
279.1353	37	C19H19O2+
279.1731	97	C20H23O+
280.1809	179	C20H24O+
281.1858	44	C19[13]CH24O+
288.1511	29	C21H20O+
291.1702	25	C21H23O+
292.1759	12	C20[13]CH23O+
293.1567	15	C20H21O2+
293.1917	27	C21H25O+
295.1663	15	C20H23O2+
297.1494	12	C19H21O3+
303.1748	39	C22H23O+
304.1792	11	C21[13]CH23O+
306.1621	17	C21H22O2+
308.1783	19	C21H24O2+
309.1836	11	C21H25O2+
311.1639	11	C20H23O3+
321.1825	24	C22H25O2+
