Mass spectrum: Betamethasone-17-valerate; LC-ESI-QTOF; MS2; CE: 20 eV; R=35000; [M+H]+
Name: Betamethasone-17-valerate
Name: Betamethasone 17-valerate
Name: [9-fluoro-11-hydroxy-17-(2-hydroxyacetyl)-10,13,16-trimethyl-3-oxo-6,7,8,11,12,14,15,16-octahydrocyclopenta[a]phenanthren-17-yl] pentanoate
Formula: C27H37FO6
Exact mass: 476.2574171
SMILES: CCCCC(=O)OC1(C(C)CC2C3CCC4=CC(=O)C=CC4(C)C3(F)C(O)CC12C)C(=O)CO
InChI: InChI=1S/C27H37FO6/c1-5-6-7-23(33)34-27(22(32)15-29)16(2)12-20-19-9-8-17-13-18(30)10-11-24(17,3)26(19,28)21(31)14-25(20,27)4/h10-11,13,16,19-21,29,31H,5-9,12,14-15H2,1-4H3
Instrument: Bruker maXis Impact
Instrument type: LC-ESI-QTOF
Ms type: MS2
Ion mode: POSITIVE
Ionization: ESI
Fragmentation mode: CID
Collision energy: 20 eV
Resolution: 35000
Column name: Acclaim RSLC C18 2.2um, 2.1x100mm, Thermo
Retention time: 11.049 min
Base peak: 477.2647
Precursor m/z: 477.2647
Precursor type: [M+H]+
m/z	relative intensity	assigned
119.0855	13	C9H11+
121.0638	14	C8H9O+
121.1004	11	C9H13+
123.0796	40	C8H11O+
125.0959	9	C8H13O+
133.1001	19	C10H13+
135.0791	58	C9H11O+
137.0951	31	C9H13O+
145.1001	7	C11H13+
147.0793	133	C10H11O+
148.0825	15	C9[13]CH11O+
149.0945	42	C10H13O+
151.0748	8	C9H11O2+
151.1105	15	C10H15O+
153.0901	119	C9H13O2+
154.093	14	C8[13]CH13O2+
157.1003	5	C12H13+
159.0793	33	C11H11O+
161.0591	7	C10H9O2+
161.0946	44	C11H13O+
162.0986	6	C10[13]CH13O+
163.0747	8	C10H11O2+
163.1104	5	C11H15O+
165.0895	12	C10H13O2+
167.1053	93	C10H15O2+
168.1099	9	C9[13]CH15O2+
169.0642	10	C12H9O+
171.0792	93	C12H11O+
171.115	5	C13H15+
172.0831	12	C11[13]CH11O+
173.0947	63	C12H13O+
174.0975	6	C11[13]CH13O+
175.1101	9	C12H15O+
177.0896	25	C11H13O2+
179.1055	7	C11H15O2+
183.0792	7	C13H11O+
185.0952	126	C13H13O+
186.0982	15	C12[13]CH13O+
187.0742	102	C12H11O2+
187.1105	13	C13H15O+
188.0779	16	C11[13]CH11O2+
189.0887	9	C12H13O2+
195.1009	14	C11H15O3+
197.0951	22	C14H13O+
198.1002	5	C14H14O+
199.0742	8	C13H11O2+
199.1102	18	C14H15O+
201.0915	7	C13H13O2+
203.1058	26	C13H15O2+
209.0942	14	C15H13O+
211.112	21	C15H15O+
213.0908	8	C14H13O2+
213.1262	26	C15H17O+
214.1283	7	C14[13]CH17O+
215.1058	13	C14H15O2+
221.0949	16	C16H13O+
223.1105	25	C16H15O+
224.1156	6	C15[13]CH15O+
225.1267	12	C16H17O+
227.1058	9	C15H15O2+
227.1439	6	C13H20FO2+
235.1096	10	C17H15O+
237.127	20	C17H17O+
239.1064	20	C16H15O2+
239.1419	19	C17H19O+
241.1216	12	C16H17O2+
241.1577	15	C17H21O+
243.1013	5	C15H15O3+
249.127	19	C18H17O+
251.1426	14	C18H19O+
253.1246	6	C14H18FO3+
253.1584	22	C18H21O+
254.1619	5	C17[13]CH21O+
261.1268	23	C19H17O+
261.163	6	C20H21+
262.1314	10	C19H18O+
263.1422	80	C19H19O+
264.1464	19	C18[13]CH19O+
265.1203	5	C18H17O2+
265.1576	16	C19H21O+
267.1371	11	C18H19O2+
267.1732	17	C19H23O+
275.1428	52	C17H20FO2+
276.1482	15	C16[13]CH20FO2+
277.1224	11	C19H17O2+
277.1579	136	C20H21O+
278.1647	93	C20H22O+
279.1742	999	C20H23O+
280.1778	206	C19[13]CH23O+
281.1518	14	C19H21O2+
281.1859	36	C18[13]C2H23O+
289.1579	72	C21H21O+
290.1291	5	C20H18O2+
290.1605	16	C20[13]CH21O+
291.1741	189	C21H23O+
292.1769	49	C20[13]CH23O+
293.1541	8	C20H21O2+
293.1821	6	C19[13]C2H23O+
295.1324	9	C19H19O3+
295.1688	80	C20H23O2+
296.1732	25	C19[13]CH23O2+
297.184	61	C20H25O2+
298.1867	13	C19[13]CH25O2+
299.1796	13	C20H24FO+
300.1842	5	C19[13]CH24FO+
301.1584	94	C22H21O+
302.1607	22	C21[13]CH21O+
304.1482	5	C18H21FO3+
306.1593	7	C21H22O2+
307.1691	110	C21H23O2+
308.1727	29	C20[13]CH23O2+
309.1846	148	C21H25O2+
310.1881	38	C20[13]CH25O2+
311.1634	19	C20H23O3+
319.1693	353	C22H23O2+
320.1716	85	C21[13]CH23O2+
321.176	14	C20[13]C2H23O2+
325.1795	75	C21H25O3+
326.1817	13	C20[13]CH25O3+
327.1949	44	C21H27O3+
328.1975	10	C20[13]CH27O3+
337.1799	624	C22H25O3+
338.1828	154	C21[13]CH25O3+
339.1818	25	C20[13]C2H25O3+
355.1906	705	C26H24F+
356.193	174	C25[13]CH24F+
357.191	39	C24[13]C2H24F+
358.1918	10	C25H26O2+
373.1999	18	C22H29O5+
375.1955	8	C25H27O3+
439.2536	5	C24H36FO6+
457.2585	42	C27H37O6+
458.2622	14	C26[13]CH37O6+
477.2661	11	C27H38FO6+
