Mass spectrum: Aldosterone; LC-ESI-QTOF; MS2; CE: 40 eV; R=35000; [M+H]+
Name: Aldosterone
Name: (8S,9S,10R,11S,13R,14S,17S)-11-hydroxy-17-(2-hydroxyacetyl)-10-methyl-3-oxo-1,2,6,7,8,9,11,12,14,15,16,17-dodecahydrocyclopenta[a]phenanthrene-13-carbaldehyde
Formula: C21H28O5
Exact mass: 360.1936740
SMILES: [H][C@@]12CC[C@H](C(=O)CO)[C@]1(C[C@H](O)[C@@]1([H])[C@@]2([H])CCC2=CC(=O)CC[C@]12C)C=O
InChI: InChI=1S/C21H28O5/c1-20-7-6-13(24)8-12(20)2-3-14-15-4-5-16(18(26)10-22)21(15,11-23)9-17(25)19(14)20/h8,11,14-17,19,22,25H,2-7,9-10H2,1H3/t14-,15-,16+,17-,19+,20-,21+/m0/s1
Instrument: Bruker maXis Impact
Instrument type: LC-ESI-QTOF
Ms type: MS2
Ion mode: POSITIVE
Ionization: ESI
Fragmentation mode: CID
Collision energy: 40 eV
Resolution: 35000
Column name: Acclaim RSLC C18 2.2um, 2.1x100mm, Thermo
Retention time: 7.771 min
Base peak: 361.2007
Precursor m/z: 361.201
Precursor type: [M+H]+
m/z	relative intensity	assigned
115.054	35	C9H7+
117.0694	44	C9H9+
119.0849	117	C9H11+
120.0894	14	C8[13]CH11+
121.0642	482	C8H9O+
122.0674	56	C7[13]CH9O+
123.0789	56	C8H11O+
125.0571	17	C7H9O2+
128.0615	80	C10H8+
129.068	76	C10H9+
130.0764	31	C10H10+
131.049	17	C9H7O+
131.0845	90	C10H11+
132.0558	70	C9H8O+
132.0889	11	C9[13]CH11+
133.0632	64	C9H9O+
133.0998	81	C10H13+
135.0793	177	C9H11O+
135.1147	16	C10H15+
136.0816	19	C8[13]CH11O+
137.0578	18	C8H9O2+
137.0942	19	C9H13O+
139.0753	12	C8H11O2+
141.0691	54	C11H9+
142.076	33	C11H10+
143.0844	92	C11H11+
144.056	18	C10H8O+
144.091	17	C10[13]CH11+
145.0635	138	C10H9O+
145.0998	199	C11H13+
146.0701	28	C10H10O+
146.1027	28	C10[13]CH13+
147.0793	999	C10H11O+
147.1153	81	C11H15+
148.0827	107	C9[13]CH11O+
149.0949	42	C10H13O+
151.0728	12	C9H11O2+
153.0688	28	C12H9+
154.0766	20	C12H10+
155.0839	93	C12H11+
156.0904	19	C12H12+
157.0649	22	C11H9O+
157.1003	85	C12H13+
158.071	159	C11H10O+
158.1049	14	C11[13]CH13+
159.079	205	C11H11O+
159.116	64	C12H15+
160.0844	32	C10[13]CH11O+
160.1201	10	C11[13]CH15+
161.0946	122	C11H13O+
161.1334	8	C12H17+
162.099	15	C10[13]CH13O+
163.0738	40	C10H11O2+
163.1102	49	C11H15O+
165.0689	31	C13H9+
165.0907	24	C10H13O2+
166.0775	20	C13H10+
167.0834	33	C13H11+
168.0918	19	C13H12+
169.0634	28	C12H9O+
169.0999	66	C13H13+
170.0701	26	C12H10O+
171.0792	692	C12H11O+
171.1161	51	C13H15+
172.0839	99	C11[13]CH11O+
172.1211	15	C13H16+
173.0949	623	C12H13O+
174.0981	72	C11[13]CH13O+
175.111	51	C12H15O+
176.12	11	C12H16O+
177.0905	15	C11H13O2+
177.126	14	C12H17O+
178.0784	16	C14H10+
179.0837	52	C14H11+
180.0906	27	C14H12+
181.0633	20	C13H9O+
181.1007	54	C14H13+
182.0718	26	C13H10O+
182.1039	13	C13[13]CH13+
182.1111	13	C14H14+
183.078	39	C13H11O+
183.1155	47	C14H15+
184.0866	29	C13H12O+
185.0943	104	C13H13O+
185.133	26	C14H17+
186.1015	25	C13H14O+
187.0735	12	C12H11O2+
187.1111	76	C13H15O+
188.1135	12	C12[13]CH15O+
189.0894	10	C12H13O2+
189.1269	19	C13H17O+
190.0759	24	C15H10+
191.0844	20	C15H11+
192.0908	25	C15H12+
193.1005	47	C15H13+
194.0719	17	C14H10O+
194.1053	21	C15H14+
195.0787	85	C14H11O+
195.1159	47	C15H15+
196.0871	62	C14H12O+
196.1227	10	C14[13]CH15+
197.095	142	C14H13O+
197.131	27	C15H17+
198.1005	44	C14H14O+
198.1373	8	C14[13]CH17+
199.1106	72	C14H15O+
199.1468	15	C15H19+
200.1135	14	C13[13]CH15O+
201.1269	17	C14H17O+
203.0828	10	C16H11+
205.0995	64	C16H13+
205.1226	8	C13H17O2+
206.1065	26	C16H14+
207.0797	11	C15H11O+
207.1164	49	C16H15+
208.0867	116	C15H12O+
208.1212	16	C16H16+
209.0947	156	C15H13O+
209.1304	28	C16H17+
210.1027	71	C15H14O+
211.1097	139	C15H15O+
211.1461	21	C16H19+
212.1162	58	C15H16O+
213.0877	9	C14H13O2+
213.126	66	C15H17O+
214.1306	15	C14[13]CH17O+
215.1428	11	C15H19O+
217.0997	15	C17H13+
218.1098	16	C17H14+
219.0786	20	C16H11O+
219.1156	21	C17H15+
220.0885	17	C16H12O+
220.1219	12	C17H16+
221.0957	78	C16H13O+
221.1307	37	C17H17+
222.102	84	C16H14O+
223.1102	273	C16H15O+
223.151	18	C17H19+
224.1156	133	C16H16O+
225.1259	95	C16H17O+
225.161	13	C17H21+
226.1349	56	C16H18O+
227.1401	33	C16H19O+
228.1493	9	C15[13]CH19O+
229.0967	10	C18H13+
230.1067	11	C18H14+
231.0793	13	C17H11O+
231.119	14	C18H15+
232.0883	10	C17H12O+
232.1248	9	C18H16+
233.0965	28	C17H13O+
233.1292	15	C18H17+
234.1044	55	C17H14O+
234.1388	10	C18H18+
235.1096	46	C17H15O+
235.1464	14	C18H19+
236.1187	38	C17H16O+
236.1502	8	C18H20+
237.091	10	C16H13O2+
237.1264	137	C17H17O+
238.1319	40	C16[13]CH17O+
239.1431	111	C17H19O+
239.1757	9	C18H23+
240.1468	22	C16[13]CH19O+
241.0996	10	C19H13+
241.1577	30	C17H21O+
242.1648	9	C17H22O+
243.1732	12	C17H23O+
244.1217	8	C19H16+
245.0942	20	C18H13O+
245.1306	11	C19H17+
246.1016	26	C18H14O+
246.1367	11	C19H18+
247.1101	46	C18H15O+
247.1469	10	C19H19+
248.1192	52	C18H16O+
248.1534	9	C19H20+
249.1258	81	C18H17O+
249.1622	55	C19H21+
250.1324	32	C18H18O+
250.1632	11	C18[13]CH21+
251.1414	237	C18H19O+
251.1762	14	C19H23+
252.1463	62	C17[13]CH19O+
253.1582	36	C18H21O+
256.1293	9	C13H20O5+
259.1118	47	C19H15O+
260.1169	45	C19H16O+
261.1286	34	C19H17O+
262.1331	29	C19H18O+
263.1418	47	C19H19O+
264.1483	53	C19H20O+
265.1585	79	C19H21O+
266.1664	147	C19H22O+
267.1718	55	C19H23O+
268.1792	22	C19H24O+
269.1887	13	C19H25O+
273.1254	14	C20H17O+
274.1341	55	C20H18O+
275.1363	18	C20H19O+
276.1497	18	C20H20O+
277.1581	17	C20H21O+
278.1635	12	C20H22O+
279.137	14	C19H19O2+
279.1758	38	C20H23O+
280.1737	8	C19[13]CH23O+
281.1549	11	C19H21O2+
281.1915	10	C20H25O+
289.158	33	C21H21O+
291.1684	15	C21H23O+
294.1621	14	C20H22O2+
295.1668	18	C20H23O2+
297.1828	9	C20H25O2+
307.1668	10	C21H23O2+
309.1869	8	C21H25O2+
