Mass spectrum: Amcinonide; LC-ESI-QTOF; MS2; CE: 10 eV; R=35000; [M+H]+
Name: Amcinonide
Name: [2-[(1S,2S,4R,8S,9S,11S,12R,13S)-12-fluoro-11-hydroxy-9,13-dimethyl-16-oxospiro[5,7-dioxapentacyclo[10.8.0.02,9.04,8.013,18]icosa-14,17-diene-6,1`-cyclopentane]-8-yl]-2-oxoethyl] acetate
Formula: C28H35FO7
Exact mass: 502.2366817
SMILES: [H][C@@]12C[C@H]3OC4(CCCC4)O[C@@]3(C(=O)COC(C)=O)[C@@]1(C)C[C@H](O)[C@@]1(F)[C@@]2([H])CCC2=CC(=O)C=C[C@]12C
InChI: InChI=1S/C28H35FO7/c1-16(30)34-15-22(33)28-23(35-26(36-28)9-4-5-10-26)13-20-19-7-6-17-12-18(31)8-11-24(17,2)27(19,29)21(32)14-25(20,28)3/h8,11-12,19-21,23,32H,4-7,9-10,13-15H2,1-3H3/t19-,20-,21-,23+,24-,25-,27-,28+/m0/s1
Instrument: Bruker maXis Impact
Instrument type: LC-ESI-QTOF
Ms type: MS2
Ion mode: POSITIVE
Ionization: ESI
Fragmentation mode: CID
Collision energy: 10 eV
Resolution: 35000
Column name: Acclaim RSLC C18 2.2um, 2.1x100mm, Thermo
Retention time: 11.193 min
Base peak: 503.2429
Precursor m/z: 503.244
Precursor type: [M+H]+
m/z	relative intensity	assigned
135.0814	5	C6H12FO2+
147.079	7	C10H11O+
151.0725	5	C9H11O2+
187.0761	8	C9H12FO3+
211.1073	6	C15H15O+
213.1279	9	C15H17O+
223.1114	12	C16H15O+
225.1269	6	C16H17O+
237.1254	6	C17H17O+
239.0901	5	C12H15O5+
251.144	5	C15H20FO2+
253.1575	10	C18H21O+
261.1275	7	C19H17O+
263.1409	8	C19H19O+
265.1581	7	C19H21O+
275.1418	12	C20H19O+
277.1188	6	C19H17O2+
279.1372	14	C19H19O2+
281.1555	10	C16H22FO3+
283.1682	9	C19H23O2+
293.1525	48	C17H22FO3+
294.1591	7	C16[13]CH22FO3+
297.1477	6	C19H21O3+
303.1368	26	C21H19O2+
304.1424	5	C20[13]CH19O2+
311.1639	53	C20H23O3+
312.1676	8	C19[13]CH23O3+
313.1624	13	C16H25O6+
314.1683	7	C20H23FO2+
321.1478	85	C21H21O3+
322.1511	17	C20[13]CH21O3+
323.1527	8	C14H24FO7+
339.1589	258	C25H20F+
340.1619	60	C24[13]CH20F+
341.1597	14	C23[13]C2H20F+
353.1722	22	C26H22F+
357.1708	29	C21H25O5+
358.1712	6	C20[13]CH25O5+
359.1648	10	C21H24FO4+
360.1665	6	C24H24O3+
363.1578	15	C23H23O4+
371.1857	10	C22H27O5+
381.1684	90	C20H26FO6+
382.1773	20	C19[13]CH26FO6+
383.1749	6	C27H24FO+
399.1801	334	C23H27O6+
400.1836	98	C22[13]CH27O6+
401.1822	26	C23H26FO5+
402.1808	5	C26H26O4+
405.2018	6	C26H29O4+
407.1464	5	C28H20FO2+
419.1864	18	C26H27O5+
420.1875	5	C25[13]CH27O5+
423.2175	36	C26H31O5+
424.2201	11	C25[13]CH31O5+
441.2289	9	C23H34FO7+
449.1537	5	C26H25O7+
465.2281	88	C28H33O6+
466.2293	31	C27[13]CH33O6+
467.1589	16	C26H24FO7+
467.2362	9	C28H35O6+
469.1567	5	C26H26FO7+
483.2377	683	C28H35O7+
484.2409	268	C27[13]CH35O7+
485.2424	44	C26[13]C2H35O7+
487.1257	8	C28H20FO7+
503.2438	999	C28H36FO7+
504.2476	338	C27[13]CH36FO7+
505.2484	73	C26[13]C2H36FO7+
