Mass spectrum: 2-Isopropyl-6-methyl-pyrimidin-4-ol; LC-ESI-QTOF; MS2; CE: 10 eV; R=35000; [M+H]+
Name: 2-Isopropyl-6-methyl-pyrimidin-4-ol
Name: CID 17777
Name: 6-methyl-2-propan-2-yl-1H-pyrimidin-4-one
Formula: C8H12N2O
Exact mass: 152.0949630
SMILES: CC(C)C1=NC(C)=CC(=O)N1
InChI: InChI=1S/C8H12N2O/c1-5(2)8-9-6(3)4-7(11)10-8/h4-5H,1-3H3,(H,9,10,11)
Instrument: Bruker maXis Impact
Instrument type: LC-ESI-QTOF
Ms type: MS2
Ion mode: POSITIVE
Ionization: ESI
Fragmentation mode: CID
Collision energy: 10 eV
Resolution: 35000
Column name: Acclaim RSLC C18 2.2um, 2.1x100mm, Thermo
Retention time: 4.434 min
Base peak: 153.1014
Precursor m/z: 153.1022
Precursor type: [M+H]+
m/z	relative intensity	assigned
153.1017	999	C8H13N2O+
154.1042	95	C7[13]CH13N2O+
