Mass spectrum: 6-beta-Hydroxycortisol; LC-ESI-QTOF; MS2; CE: 30 eV; R=35000; [M+H]+
Name: 6-beta-Hydroxycortisol
Name: 6beta-Hydroxycortisol
Name: (6R,8S,9S,10R,11S,13S,14S,17R)-6,11,17-trihydroxy-17-(2-hydroxyacetyl)-10,13-dimethyl-2,6,7,8,9,11,12,14,15,16-decahydro-1H-cyclopenta[a]phenanthren-3-one
Formula: C21H30O6
Exact mass: 378.2042387
SMILES: C[C@]12C[C@H](O)[C@H]3[C@@H](C[C@@H](O)C4=CC(=O)CC[C@]34C)[C@@H]1CC[C@]2(O)C(=O)CO
InChI: InChI=1S/C21H30O6/c1-19-5-3-11(23)7-14(19)15(24)8-12-13-4-6-21(27,17(26)10-22)20(13,2)9-16(25)18(12)19/h7,12-13,15-16,18,22,24-25,27H,3-6,8-10H2,1-2H3/t12-,13-,15+,16-,18+,19-,20-,21-/m0/s1
Instrument: Bruker maXis Impact
Instrument type: LC-ESI-QTOF
Ms type: MS2
Ion mode: POSITIVE
Ionization: ESI
Fragmentation mode: CID
Collision energy: 30 eV
Resolution: 35000
Column name: Acclaim RSLC C18 2.2um, 2.1x100mm, Thermo
Retention time: 4.442 min
Base peak: 379.2105
Precursor m/z: 379.2115
Precursor type: [M+H]+
m/z	relative intensity	assigned
119.0851	120	C9H11+
121.0636	196	C8H9O+
123.0818	79	C8H11O+
131.0836	263	C10H11+
133.1008	235	C10H13+
135.0806	144	C9H11O+
137.0584	141	C8H9O2+
139.0733	311	C8H11O2+
141.0687	118	C11H9+
143.0835	288	C11H11+
145.0617	86	C10H9O+
145.0991	392	C11H13+
147.0785	253	C10H11O+
147.1147	182	C11H15+
149.0938	219	C10H13O+
151.0762	86	C9H11O2+
153.0676	87	C12H9+
153.089	110	C9H13O2+
155.0833	278	C12H11+
157.0995	354	C12H13+
159.0785	233	C11H11O+
159.1155	207	C12H15+
161.0948	322	C11H13O+
163.0749	129	C10H11O2+
163.1098	142	C11H15O+
169.0998	405	C13H13+
171.0793	139	C12H11O+
171.115	236	C13H15+
173.0951	505	C12H13O+
174.0982	92	C11[13]CH13O+
175.1108	386	C12H15O+
177.0888	80	C11H13O2+
179.0831	89	C14H11+
179.1062	184	C11H15O2+
181.0992	242	C14H13+
182.1055	90	C14H14+
183.0815	81	C13H11O+
183.1167	463	C14H15+
184.12	85	C13[13]CH15+
185.0944	292	C13H13O+
185.1324	224	C14H17+
187.1099	395	C13H15O+
189.0912	114	C12H13O2+
191.1041	132	C12H15O2+
193.1011	132	C15H13+
195.1149	300	C15H15+
197.0938	254	C14H13O+
197.1312	298	C15H17+
198.1001	78	C13[13]CH13O+
199.1113	262	C14H15O+
199.1474	109	C15H19+
201.1252	188	C14H17O+
205.1013	127	C16H13+
205.1227	103	C13H17O2+
207.1152	279	C16H15+
208.1218	84	C15[13]CH15+
209.1321	394	C16H17+
210.1337	86	C15[13]CH17+
211.1108	280	C15H15O+
211.148	204	C16H19+
212.1179	95	C15H16O+
213.1261	259	C15H17O+
215.106	86	C14H15O2+
215.1425	160	C15H19O+
217.1229	151	C14H17O2+
219.1156	134	C17H15+
221.1306	486	C17H17+
222.1338	83	C16[13]CH17+
223.111	300	C16H15O+
223.1475	308	C17H19+
224.1161	101	C16H16O+
224.1518	84	C16[13]CH19+
225.1271	361	C16H17O+
225.1655	140	C17H21+
226.1314	98	C16H18O+
227.1416	273	C16H19O+
229.123	164	C15H17O2+
231.1381	75	C15H19O2+
233.1308	90	C18H17+
235.1479	221	C18H19+
237.1275	339	C17H17O+
237.1618	188	C18H21+
238.1694	142	C18H22+
239.1416	999	C17H19O+
239.177	136	C18H23+
240.1463	220	C16[13]CH19O+
241.1224	154	C16H17O2+
241.1599	380	C17H21O+
243.137	101	C16H19O2+
245.1319	78	C19H17+
247.1475	360	C19H19+
248.1509	122	C18[13]CH19+
249.1262	173	C18H17O+
249.1615	169	C19H21+
251.1421	182	C18H19O+
251.1735	82	C19H23+
252.148	126	C18H20O+
253.1584	170	C18H21O+
255.1363	209	C17H19O2+
255.1729	163	C18H23O+
257.1523	254	C17H21O2+
261.1638	209	C20H21+
263.1424	184	C19H19O+
264.1487	98	C19H20O+
265.1241	76	C18H17O2+
265.1571	605	C19H21O+
266.1665	495	C19H22O+
267.1374	195	C18H19O2+
267.1723	814	C19H23O+
268.143	97	C18H20O2+
268.1782	166	C18[13]CH23O+
269.1526	146	C18H21O2+
269.1903	77	C19H25O+
271.1297	114	C17H19O3+
277.1584	108	C20H21O+
279.1731	458	C20H23O+
280.1795	87	C19[13]CH23O+
281.1549	156	C19H21O2+
283.1693	479	C19H23O2+
284.1755	665	C19H24O2+
285.147	147	C18H21O3+
285.1853	430	C19H25O2+
286.1886	90	C18[13]CH25O2+
289.1566	218	C21H21O+
295.17	317	C20H23O2+
296.1776	101	C19[13]CH23O2+
297.1512	75	C19H21O3+
297.1848	241	C20H25O2+
298.1897	91	C20H26O2+
299.1629	151	C19H23O3+
301.1763	75	C19H25O3+
307.1676	544	C21H23O2+
308.1714	98	C20[13]CH23O2+
313.1809	458	C20H25O3+
314.1769	75	C19[13]CH25O3+
317.1755	84	C19H25O4+
325.1789	468	C21H25O3+
326.1849	116	C20[13]CH25O3+
331.1884	129	C20H27O4+
343.1891	302	C21H27O4+
361.2034	110	C21H29O5+
