Mass spectrum: Budesonide; LC-ESI-QTOF; MS2; CE: 40 eV; R=35000; [M+H]+
Name: Budesonide
Name: (1S,2S,4R,6R,8S,9S,11S,12S,13R)-11-hydroxy-8-(2-hydroxyacetyl)-9,13-dimethyl-6-propyl-5,7-dioxapentacyclo[10.8.0.02,9.04,8.013,18]icosa-14,17-dien-16-one
Formula: C25H34O6
Exact mass: 430.2355388
SMILES: [H][C@@]12C[C@@]3([H])[C@]4([H])CCC5=CC(=O)C=C[C@]5(C)[C@@]4([H])[C@@H](O)C[C@]3(C)[C@@]1(O[C@H](CCC)O2)C(=O)CO
InChI: InChI=1S/C25H34O6/c1-4-5-21-30-20-11-17-16-7-6-14-10-15(27)8-9-23(14,2)22(16)18(28)12-24(17,3)25(20,31-21)19(29)13-26/h8-10,16-18,20-22,26,28H,4-7,11-13H2,1-3H3/t16-,17-,18-,20+,21+,22+,23-,24-,25+/m0/s1
Instrument: Bruker maXis Impact
Instrument type: LC-ESI-QTOF
Ms type: MS2
Ion mode: POSITIVE
Ionization: ESI
Fragmentation mode: CID
Collision energy: 40 eV
Resolution: 35000
Column name: Acclaim RSLC C18 2.2um, 2.1x100mm, Thermo
Retention time: 10.330 min
Base peak: 431.2429
Precursor m/z: 431.2428
Precursor type: [M+H]+
m/z	relative intensity	assigned
115.0535	21	C9H7+
117.0693	19	C9H9+
119.0848	119	C9H11+
120.0876	14	C8[13]CH11+
121.0639	237	C8H9O+
122.0677	17	C7[13]CH9O+
123.0793	14	C8H11O+
128.061	22	C10H8+
129.0689	31	C10H9+
130.0757	10	C10H10+
131.0482	15	C9H7O+
131.0844	47	C10H11+
132.0557	29	C9H8O+
132.0876	5	C9[13]CH11+
133.0635	34	C9H9O+
133.1004	18	C10H13+
134.0669	5	C8[13]CH9O+
135.0796	228	C9H11O+
136.0825	21	C8[13]CH11O+
137.0585	40	C8H9O2+
139.0743	22	C8H11O2+
141.0539	6	C7H9O3+
141.0694	16	C11H9+
142.0758	14	C11H10+
143.085	46	C11H11+
144.0558	9	C10H8O+
144.0883	6	C10[13]CH11+
145.0638	92	C10H9O+
145.1002	61	C11H13+
146.0698	16	C9[13]CH9O+
146.1044	9	C10[13]CH13+
147.0795	999	C10H11O+
148.0827	104	C9[13]CH11O+
149.0589	19	C9H9O2+
149.0941	19	C10H13O+
151.0739	19	C9H11O2+
153.0684	11	C12H9+
154.0761	6	C12H10+
155.0693	18	C8H11O3+
155.0842	41	C12H11+
156.0908	6	C11[13]CH11+
157.0637	18	C11H9O+
157.0999	36	C12H13+
158.0712	92	C11H10O+
158.1046	5	C11[13]CH13+
159.0793	194	C11H11O+
159.1157	13	C12H15+
160.0842	22	C10[13]CH11O+
161.0949	117	C11H13O+
162.0982	18	C10[13]CH13O+
163.0744	62	C10H11O2+
164.0774	8	C9[13]CH11O2+
165.0692	7	C13H9+
165.0904	5	C10H13O2+
166.0757	7	C13H10+
167.069	5	C9H11O3+
167.0842	10	C13H11+
169.0641	10	C12H9O+
169.0997	17	C13H13+
170.0715	11	C12H10O+
171.0794	492	C12H11O+
172.0835	68	C11[13]CH11O+
173.0952	775	C12H13O+
174.0985	90	C11[13]CH13O+
175.074	8	C11H11O2+
175.1099	23	C12H15O+
177.089	9	C11H13O2+
178.0779	6	C14H10+
179.0837	23	C14H11+
180.0931	6	C14H12+
181.0654	9	C13H9O+
181.0999	19	C14H13+
182.0711	13	C13H10O+
183.0792	31	C13H11O+
183.1161	6	C14H15+
184.0864	16	C13H12O+
185.0949	141	C13H13O+
186.0993	26	C12[13]CH13O+
187.0742	17	C12H11O2+
187.1105	64	C13H15O+
188.114	10	C12[13]CH15O+
189.0908	13	C12H13O2+
191.0844	11	C15H11+
192.0926	21	C15H12+
193.0995	27	C15H13+
194.073	6	C14H10O+
194.106	8	C15H14+
195.0796	48	C14H11O+
195.1159	13	C15H15+
196.0868	40	C14H12O+
197.095	128	C14H13O+
197.1321	13	C15H17+
198.1009	34	C14H14O+
199.0737	5	C13H11O2+
199.1102	97	C14H15O+
200.1145	13	C13[13]CH15O+
201.09	14	C13H13O2+
201.1265	8	C14H17O+
203.1063	6	C13H15O2+
204.0918	5	C16H12+
205.0992	15	C16H13+
206.1075	9	C16H14+
207.0802	7	C15H11O+
207.1161	67	C16H15+
208.0871	38	C15H12O+
208.119	16	C15[13]CH15+
209.0952	124	C15H13O+
209.1317	14	C16H17+
210.1026	86	C15H14O+
211.1108	209	C15H15O+
212.1158	52	C14[13]CH15O+
213.0892	16	C14H13O2+
213.1261	68	C15H17O+
214.1289	10	C14[13]CH17O+
215.1062	13	C14H15O2+
217.1006	8	C17H13+
218.1056	7	C17H14+
219.08	9	C16H11O+
219.1168	14	C17H15+
220.0871	15	C16H12O+
221.0952	76	C16H13O+
221.1306	15	C17H17+
222.1029	77	C16H14O+
223.1108	150	C16H15O+
224.1171	58	C16H16O+
225.1267	377	C16H17O+
226.1338	335	C16H18O+
227.1045	10	C15H15O2+
227.1412	172	C16H19O+
228.1453	25	C15[13]CH19O+
229.0989	8	C18H13+
230.1079	8	C18H14+
231.1156	11	C18H15+
232.0863	5	C17H12O+
232.1226	5	C18H16+
233.0949	23	C17H13O+
233.132	12	C18H17+
234.103	43	C17H14O+
235.111	121	C17H15O+
235.1464	10	C18H19+
236.1168	39	C17H16O+
237.0898	9	C16H13O2+
237.1265	179	C17H17O+
238.1303	41	C16[13]CH17O+
239.1059	17	C16H15O2+
239.1419	117	C17H19O+
240.1114	5	C16H16O2+
240.146	24	C16[13]CH19O+
241.1577	36	C17H21O+
242.1632	7	C16[13]CH21O+
243.1166	8	C19H15+
243.1384	5	C16H19O2+
244.1239	10	C19H16+
245.0951	16	C18H13O+
245.1316	11	C19H17+
246.1038	26	C18H14O+
246.1359	6	C19H18+
247.1104	44	C18H15O+
247.1478	12	C19H19+
248.1182	77	C18H16O+
249.0897	6	C17H13O2+
249.1264	106	C18H17O+
249.1627	9	C19H21+
250.1323	42	C18H18O+
251.1056	11	C17H15O2+
251.1423	72	C18H19O+
252.1148	5	C17H16O2+
252.1472	19	C17[13]CH19O+
253.121	14	C17H17O2+
253.158	28	C18H21O+
254.1599	6	C17[13]CH21O+
255.1398	8	C17H19O2+
257.095	8	C19H13O+
258.1011	8	C19H14O+
259.1105	11	C19H15O+
259.147	14	C20H19+
260.118	20	C19H16O+
261.1266	42	C19H17O+
262.0971	5	C18H14O2+
262.135	69	C19H18O+
263.1067	17	C18H15O2+
263.1416	118	C19H19O+
264.1131	10	C18H16O2+
264.1498	84	C19H20O+
265.122	10	C18H17O2+
265.1577	170	C19H21O+
266.1258	5	C18H18O2+
266.162	39	C18[13]CH21O+
267.1382	17	C18H19O2+
267.1731	12	C19H23O+
272.1194	32	C20H16O+
273.1242	10	C19[13]CH16O+
274.1345	11	C20H18O+
275.1046	5	C19H15O2+
275.1418	27	C20H19O+
276.1124	5	C19H16O2+
276.1492	10	C20H20O+
277.1217	17	C19H17O2+
277.1582	105	C20H21O+
278.1284	6	C19H18O2+
278.1617	20	C19[13]CH21O+
279.1372	22	C19H19O2+
279.1726	9	C20H23O+
280.1418	13	C19H20O2+
281.1523	32	C19H21O2+
282.1581	12	C19H22O2+
283.1689	22	C19H23O2+
284.172	5	C18[13]CH23O2+
287.1427	38	C21H19O+
288.1453	10	C20[13]CH19O+
289.1558	7	C21H21O+
290.1288	16	C20H18O2+
291.1341	7	C20H19O2+
292.145	8	C20H20O2+
293.153	14	C20H21O2+
294.1593	9	C20H22O2+
295.1331	5	C19H19O3+
295.1681	33	C20H23O2+
296.1706	8	C19[13]CH23O2+
305.1537	45	C21H21O2+
306.1571	10	C20[13]CH21O2+
323.1638	43	C21H23O3+
324.1675	10	C20[13]CH23O3+
413.2325	7	C25H33O5+
