Mass spectrum: Lauramidopropylbetaine; LC-ESI-QTOF; MS2; CE: 40 eV; R=35000; [M+H]+
Name: Lauramidopropylbetaine
Name: 3-(Dodecanoylamino)propyl(carboxymethyl)dimethylammonium
Name: carboxymethyl-[3-(dodecanoylamino)propyl]-dimethylazanium
Formula: [C19H39N2O3]+
Exact mass: 343.2960681
SMILES: CCCCCCCCCCCC(=O)NCCC[N+](C)(C)CC(O)=O
InChI: InChI=1S/C19H38N2O3/c1-4-5-6-7-8-9-10-11-12-14-18(22)20-15-13-16-21(2,3)17-19(23)24/h4-17H2,1-3H3,(H-,20,22,23,24)/p+1
Instrument: Bruker maXis Impact
Instrument type: LC-ESI-QTOF
Ms type: MS2
Ion mode: POSITIVE
Ionization: ESI
Fragmentation mode: CID
Collision energy: 40 eV
Resolution: 35000
Column name: Acclaim RSLC C18 2.2um, 2.1x100mm, Thermo
Retention time: 13.083 min
Base peak: 360.3629
Precursor m/z: 344.3033
Precursor type: [M+H]+
m/z	relative intensity	assigned
207.0328	73	C13H5NO2+
223.061	117	C14H9NO2+
225.0419	511	C13H7NO3+
226.0413	142	C17H6O+
227.0221	112	C15H3N2O+
237.0808	73	C15H11NO2+
240.2325	116	C15H30NO+
251.0492	84	C19H7O+
265.0218	76	C18H3NO2+
267.0011	256	C17HNO3+
268.0005	71	C16[13]CHNO3+
281.051	206	C19H7NO2+
283.0307	794	C18H5NO3+
284.0316	182	C17[13]CH5NO3+
299.0609	999	C19H9NO3+
300.0612	162	C18[13]CH9NO3+
