Mass spectrum: Norgestrel; LC-ESI-QTOF; MS2; CE: 40 eV; R=35000; [M+H]+
Name: Norgestrel
Name: (8R,9S,10R,13S,14S)-13-ethyl-17-ethynyl-17-hydroxy-1,2,6,7,8,9,10,11,12,14,15,16-dodecahydrocyclopenta[a]phenanthren-3-one
Formula: C21H28O2
Exact mass: 312.2089301
SMILES: [H][C@@]12CCC(O)(C#C)[C@@]1(CC)CC[C@]1([H])[C@@]3([H])CCC(=O)C=C3CC[C@@]21[H]
InChI: InChI=1S/C21H28O2/c1-3-20-11-9-17-16-8-6-15(22)13-14(16)5-7-18(17)19(20)10-12-21(20,23)4-2/h2,13,16-19,23H,3,5-12H2,1H3/t16-,17+,18+,19-,20-,21?/m0/s1
Instrument: Bruker maXis Impact
Instrument type: LC-ESI-QTOF
Ms type: MS2
Ion mode: POSITIVE
Ionization: ESI
Fragmentation mode: CID
Collision energy: 40 eV
Resolution: 35000
Column name: Acclaim RSLC C18 2.2um, 2.1x100mm, Thermo
Retention time: 10.145 min
Base peak: 313.2159
Precursor m/z: 313.2162
Precursor type: [M+H]+
m/z	relative intensity	assigned
109.0644	14	C7H9O+
115.0537	365	C9H7+
116.0603	99	C9H8+
117.0692	412	C9H9+
118.0721	58	C8[13]CH9+
119.0845	345	C9H11+
120.0876	41	C8[13]CH11+
121.0635	110	C8H9O+
121.1001	93	C9H13+
122.0697	11	C7[13]CH9O+
122.1041	11	C8[13]CH13+
123.0796	155	C8H11O+
123.1163	125	C9H15+
124.1188	9	C8[13]CH15+
125.0952	30	C8H13O+
127.053	43	C10H7+
128.0609	653	C10H8+
129.0686	957	C10H9+
130.0748	251	C10H10+
131.0845	999	C10H11+
132.0559	24	C9H8O+
132.0887	106	C9[13]CH11+
133.0636	184	C9H9O+
133.1001	599	C10H13+
134.0694	32	C9H10O+
134.1036	67	C9[13]CH13+
135.0794	806	C9H11O+
135.116	207	C10H15+
136.0829	96	C8[13]CH11O+
136.1187	25	C9[13]CH15+
137.0944	43	C9H13O+
137.1316	29	C10H17+
141.0689	416	C11H9+
142.076	399	C11H10+
143.0841	963	C11H11+
144.0558	30	C10H8O+
144.0905	191	C10[13]CH11+
145.0635	102	C10H9O+
145.1	817	C11H13+
146.0698	46	C10H10O+
146.1046	97	C10[13]CH13+
147.0795	214	C10H11O+
147.1155	182	C11H15+
148.0855	67	C10H12O+
148.119	33	C10[13]CH15+
149.0946	332	C10H13O+
149.1308	65	C11H17+
150.0985	42	C9[13]CH13O+
151.111	18	C10H15O+
152.0618	46	C12H8+
153.0685	135	C12H9+
154.076	138	C12H10+
155.0844	426	C12H11+
156.0914	235	C12H12+
157.0632	35	C11H9O+
157.0999	610	C12H13+
158.0714	12	C11H10O+
158.1055	110	C11[13]CH13+
159.0788	155	C11H11O+
159.1154	397	C12H15+
160.1203	46	C11[13]CH15+
161.0947	416	C11H13O+
161.1311	86	C12H17+
162.1353	9	C11[13]CH17+
163.1102	179	C11H15O+
163.1474	22	C12H19+
164.1127	23	C10[13]CH15O+
165.0686	151	C13H9+
166.075	105	C13H10+
167.0845	220	C13H11+
168.0911	136	C13H12+
169.0995	327	C13H13+
170.0722	8	C12H10O+
170.106	130	C13H14+
171.0781	25	C12H11O+
171.1153	449	C13H15+
172.0859	15	C12H12O+
172.1195	94	C12[13]CH15+
173.0946	84	C12H13O+
173.1313	158	C13H17+
174.1014	20	C12H14O+
174.1358	27	C12[13]CH17+
175.1109	209	C12H15O+
175.147	193	C13H19+
176.1146	35	C11[13]CH15O+
176.1502	31	C12[13]CH19+
177.1236	23	C12H17O+
178.0769	72	C14H10+
179.0842	143	C14H11+
180.0911	89	C14H12+
181.0606	11	C13H9O+
181.0997	213	C14H13+
182.1061	107	C14H14+
183.0789	24	C13H11O+
183.1156	284	C14H15+
184.0863	24	C13H12O+
184.1202	79	C14H16+
185.0959	44	C13H13O+
185.1313	361	C14H17+
186.101	25	C13H14O+
186.1356	70	C13[13]CH17+
187.1098	81	C13H15O+
187.1463	163	C14H19+
188.118	96	C13H16O+
188.1502	23	C13[13]CH19+
189.1254	143	C13H17O+
189.1625	9	C14H21+
191.0848	66	C15H11+
191.1397	11	C13H19O+
192.0911	66	C15H12+
193.1	136	C15H13+
194.1067	84	C15H14+
195.1153	157	C15H15+
196.0884	9	C14H12O+
196.1224	68	C15H16+
197.0943	46	C14H13O+
197.1312	175	C15H17+
198.1045	12	C13[13]CH13O+
198.1375	41	C14[13]CH17+
199.1103	37	C14H15O+
199.1463	120	C15H19+
200.117	16	C14H16O+
201.126	94	C14H17O+
201.1629	61	C15H21+
202.1332	23	C14H18O+
202.1649	14	C14[13]CH21+
203.0862	8	C16H11+
203.1406	35	C14H19O+
203.1773	16	C15H23+
204.0931	13	C16H12+
204.1471	10	C14H20O+
205.1005	69	C16H13+
206.1076	74	C16H14+
207.115	121	C16H15+
208.1211	57	C16H16+
209.1306	106	C16H17+
210.1366	33	C16H18+
211.1119	49	C15H15O+
211.1476	50	C16H19+
212.1171	18	C15H16O+
212.1536	20	C16H20+
213.1254	43	C15H17O+
213.1615	13	C16H21+
214.1333	12	C14[13]CH17O+
215.1393	16	C15H19O+
215.1767	8	C16H23+
216.1472	26	C15H20O+
217.1561	17	C15H21O+
218.1074	16	C17H14+
219.1153	49	C17H15+
220.1234	41	C17H16+
221.1317	65	C17H17+
222.1393	38	C17H18+
223.1108	7	C16H15O+
223.1469	54	C17H19+
224.116	12	C16H16O+
224.1512	17	C16[13]CH19+
225.127	27	C16H17O+
225.1618	81	C17H21+
226.1328	26	C16H18O+
226.1677	16	C16[13]CH21+
227.1408	26	C16H19O+
227.1784	162	C17H23+
228.15	14	C16H20O+
228.1802	32	C16[13]CH23+
229.1575	15	C16H21O+
230.1649	8	C16H22O+
233.1322	53	C18H17+
234.1401	20	C18H18+
235.146	23	C18H19+
236.1561	21	C18H20+
237.1243	25	C17H17O+
237.162	47	C18H21+
238.1341	26	C17H18O+
239.14	19	C17H19O+
239.1764	11	C18H23+
241.1597	11	C17H21O+
242.1652	9	C17H22O+
243.1729	16	C17H23O+
245.1888	211	C17H25O+
246.1924	39	C16[13]CH25O+
247.1463	22	C19H19+
248.1534	21	C19H20+
249.1623	24	C19H21+
251.1436	18	C18H19O+
251.1785	27	C19H23+
252.1497	9	C18H20O+
253.1575	9	C18H21O+
253.1948	9	C19H25+
254.161	8	C18H22O+
262.1694	9	C20H22+
265.1586	17	C19H21O+
266.1669	22	C19H22O+
267.1715	17	C19H23O+
277.1948	12	C21H25+
295.2025	18	C21H27O+
313.2147	17	C21H29O2+
