Mass spectrum: 1,2-Benzisothiazolinone; LC-ESI-QTOF; MS2; CE: 10 eV; R=35000; [M+H]+
Name: 1,2-Benzisothiazolinone
Name: 1,2-Benzisothiazol-3(2H)-one
Name: 1,2-benzothiazol-3-one
Formula: C7H5NOS
Exact mass: 151.0091848
SMILES: O=C1NSC2=CC=CC=C12
InChI: InChI=1S/C7H5NOS/c9-7-5-3-1-2-4-6(5)10-8-7/h1-4H,(H,8,9)
Instrument: Bruker maXis Impact
Instrument type: LC-ESI-QTOF
Ms type: MS2
Ion mode: POSITIVE
Ionization: ESI
Fragmentation mode: CID
Collision energy: 10 eV
Resolution: 35000
Column name: Acclaim RSLC C18 2.2um, 2.1x100mm, Thermo
Retention time: 5.137 min
Base peak: 152.0155
Precursor m/z: 152.0165
Precursor type: [M+H]+
m/z	relative intensity	assigned
134.0047	7	C7H4NS+
152.0154	999	C7H6NOS+
153.0182	62	C6[13]CH6NOS+
154.0116	37	C7H6NO[34]S+
