Mass spectrum: Daidzein; LC-ESI-QTOF; MS2; CE: Ramp 20-30 eV; R=35000; [M+H]+
Name: Daidzein
Name: 7-hydroxy-3-(4-hydroxyphenyl)chromen-4-one
Formula: C15H10O4
Exact mass: 254.0579088
SMILES: OC1=CC=C(C=C1)C1=COC2=C(C=CC(O)=C2)C1=O
InChI: InChI=1S/C15H10O4/c16-10-3-1-9(2-4-10)13-8-19-14-7-11(17)5-6-12(14)15(13)18/h1-8,16-17H
Instrument: Bruker maXis Impact
Instrument type: LC-ESI-QTOF
Ms type: MS2
Ion mode: POSITIVE
Ionization: ESI
Fragmentation mode: CID
Collision energy: Ramp 20-30 eV
Resolution: 35000
Column name: Acclaim RSLC C18 2.2um, 2.1x100mm, Thermo
Retention time: 6.887 min
Base peak: 255.0651
Precursor m/z: 255.0652
Precursor type: [M+H]+
m/z	relative intensity	assigned
129.0684	5	C10H9+
133.0265	5	C8H5O2+
137.0222	45	C7H5O3+
143.0835	6	C11H11+
145.0267	13	C9H5O2+
153.0687	11	C12H9+
157.0638	8	C11H9O+
171.0793	14	C12H11O+
181.0633	29	C13H9O+
182.0684	5	C12[13]CH9O+
199.0741	137	C13H11O2+
200.0783	17	C12[13]CH11O2+
227.0688	69	C14H11O3+
228.0727	7	C13[13]CH11O3+
237.0532	24	C15H9O3+
255.0648	999	C15H11O4+
256.068	128	C14[13]CH11O4+
257.0696	15	C13[13]C2H11O4+
