Mass spectrum: Mometasone fuorate; LC-ESI-QTOF; MS2; CE: Ramp 26.0-39.1 eV; R=35000; [M+H]+
Name: Mometasone fuorate
Name: Mometasone furoate
Name: [(8S,9R,10S,11S,13S,14S,16R,17R)-9-chloro-17-(2-chloroacetyl)-11-hydroxy-10,13,16-trimethyl-3-oxo-6,7,8,11,12,14,15,16-octahydrocyclopenta[a]phenanthren-17-yl] furan-2-carboxylate
Formula: C27H30Cl2O6
Exact mass: 520.1419440
SMILES: C[C@@H]1C[C@H]2[C@@H]3CCC4=CC(=O)C=C[C@]4(C)[C@@]3(Cl)[C@@H](O)C[C@]2(C)[C@@]1(OC(=O)C1=CC=CO1)C(=O)CCl
InChI: InChI=1S/C27H30Cl2O6/c1-15-11-19-18-7-6-16-12-17(30)8-9-24(16,2)26(18,29)21(31)13-25(19,3)27(15,22(32)14-28)35-23(33)20-5-4-10-34-20/h4-5,8-10,12,15,18-19,21,31H,6-7,11,13-14H2,1-3H3/t15-,18+,19+,21+,24+,25+,26+,27+/m1/s1
Instrument: Bruker maXis Impact
Instrument type: LC-ESI-QTOF
Ms type: MS2
Ion mode: POSITIVE
Ionization: ESI
Fragmentation mode: CID
Collision energy: Ramp 26.0-39.1 eV
Resolution: 35000
Column name: Acclaim RSLC C18 2.2um, 2.1x100mm, Thermo
Retention time: 10.754 min
Base peak: 313.2165
Precursor m/z: 521.1492
Precursor type: [M+H]+
m/z	relative intensity	assigned
95.0131	52	C5H3O2+
119.0848	47	C9H11+
121.0638	143	C8H9O+
121.1008	39	C9H13+
133.0414	66	C6H10ClO+
133.0992	43	C4H18ClO2+
135.0385	35	C6H10[37]ClO+
135.0796	378	C9H11O+
136.0822	40	C8[13]CH11O+
145.0635	55	C4H14ClO3+
147.0792	464	C10H11O+
148.0829	39	C9[13]CH11O+
159.079	96	C5H16ClO3+
161.0943	107	C5H18ClO3+
167.0591	36	C4H17Cl2O2+
169.0629	51	C6H14ClO3+
171.056	149	C9H12ClO+
171.0788	306	C12H11O+
171.1147	41	C7H20ClO2+
172.086	54	C11[13]CH11O+
173.0532	35	C9H12[37]ClO+
173.095	256	C6H18ClO3+
183.0558	90	C4H17Cl2O3+
185.07	105	C4H19Cl2O3+
185.0956	230	C13H13O+
187.0743	88	C12H11O2+
187.1125	42	C13H15O+
191.0599	68	C6H17Cl2O2+
195.0566	34	C11H12ClO+
197.0735	40	C11H14ClO+
197.0945	119	C8H18ClO3+
198.1055	36	C14H14O+
199.0735	34	C7H16ClO4+
199.1107	34	C14H15O+
207.0535	34	C6H17Cl2O3+
207.0936	32	C13H16Cl+
209.0957	81	C15H13O+
211.113	84	C15H15O+
221.0967	67	C16H13O+
222.1034	36	C16H14O+
223.1105	194	C10H20ClO3+
224.1165	99	C10H21ClO3+
225.1267	55	C16H17O+
233.0933	43	C11H18ClO3+
234.1055	51	C17H14O+
235.111	123	C17H15O+
236.116	44	C5H26Cl2O5+
237.1256	111	C11H22ClO3+
238.133	43	C11H23ClO3+
239.1408	86	C11H24ClO3+
241.1604	33	C17H21O+
247.0866	40	C9H21Cl2O3+
247.1123	39	C18H15O+
248.1188	117	C18H16O+
249.1261	81	C12H22ClO3+
250.1285	37	C6H28Cl2O5+
257.0717	44	C16H14ClO+
259.0871	35	C10H21Cl2O3+
260.1192	53	C19H16O+
261.1266	78	C19H17O+
262.134	66	C13H23ClO3+
263.1428	999	C13H24ClO3+
264.1454	201	C12[13]CH24ClO3+
265.1547	63	C7H31Cl2O5+
271.0873	41	C11H21Cl2O3+
271.105	41	C8H25Cl2O5+
273.1256	67	C14H22ClO3+
273.1664	46	C21H21+
274.1341	43	C14H23ClO3+
275.1415	136	C14H24ClO3+
276.1496	61	C14H25ClO3+
277.1202	39	C13H22ClO4+
277.1583	366	C20H21O+
278.1662	731	C20H22O+
279.1733	743	C20H23O+
280.1779	141	C19[13]CH23O+
281.1516	78	C13H26ClO4+
283.0934	34	C11H20ClO6+
287.1434	36	C21H19O+
288.1504	148	C21H20O+
289.1538	46	C20[13]CH20O+
291.1729	122	C21H23O+
292.1777	39	C20[13]CH23O+
297.1848	37	C20H25O2+
299.1194	54	C19H20ClO+
301.1581	350	C22H21O+
302.1631	97	C21[13]CH21O+
303.1744	38	C22H23O+
306.1597	141	C15H27ClO4+
307.1638	86	C15H28ClO4+
309.1052	32	C20H18ClO+
313.0996	33	C19H18ClO2+
313.1319	62	C14H27Cl2O3+
314.1439	70	C20H23ClO+
315.146	63	C14H29Cl2O3+
319.1698	243	C22H23O2+
320.1751	71	C21[13]CH23O2+
327.1502	86	C21H24ClO+
337.1369	255	C22H22ClO+
338.1406	60	C21[13]CH22ClO+
339.1308	59	C22H22[37]ClO+
355.1461	567	C22H24ClO2+
356.1495	134	C21[13]CH24ClO2+
357.1447	176	C22H24[37]ClO2+
358.1471	49	C19H28Cl2O2+
373.1598	53	C22H26ClO3+
373.1772	49	C19H30ClO5+
391.1218	126	C22H25Cl2O2+
392.129	50	C21[13]CH25Cl2O2+
393.1226	103	C22H25Cl[37]ClO2+
503.138	130	C27H29Cl2O5+
505.1352	79	C27H29Cl[37]ClO5+
