Mass spectrum: Daidzein; LC-ESI-QTOF; MS2; CE: 20 eV; R=35000; [M+H]+
Name: Daidzein
Name: 7-hydroxy-3-(4-hydroxyphenyl)chromen-4-one
Formula: C15H10O4
Exact mass: 254.0579088
SMILES: OC1=CC=C(C=C1)C1=COC2=C(C=CC(O)=C2)C1=O
InChI: InChI=1S/C15H10O4/c16-10-3-1-9(2-4-10)13-8-19-14-7-11(17)5-6-12(14)15(13)18/h1-8,16-17H
Instrument: Bruker maXis Impact
Instrument type: LC-ESI-QTOF
Ms type: MS2
Ion mode: POSITIVE
Ionization: ESI
Fragmentation mode: CID
Collision energy: 20 eV
Resolution: 35000
Column name: Acclaim RSLC C18 2.2um, 2.1x100mm, Thermo
Retention time: 6.891 min
Base peak: 255.0647
Precursor m/z: 255.0652
Precursor type: [M+H]+
m/z	relative intensity	assigned
137.0224	15	C7H5O3+
181.0635	6	C13H9O+
199.0745	38	C13H11O2+
227.0695	19	C14H11O3+
255.0651	999	C15H11O4+
256.0683	166	C14[13]CH11O4+
257.0707	18	C13[13]C2H11O4+
