Mass spectrum: Clobetasol propionate; LC-ESI-QTOF; MS2; CE: 10 eV; R=35000; [M+H]+
Name: Clobetasol propionate
Name: [(8S,9R,10S,11S,13S,14S,16S,17R)-17-(2-chloroacetyl)-9-fluoro-11-hydroxy-10,13,16-trimethyl-3-oxo-6,7,8,11,12,14,15,16-octahydrocyclopenta[a]phenanthren-17-yl] propanoate
Formula: C25H32ClFO5
Exact mass: 466.1922300
SMILES: CCC(=O)O[C@@]1([C@@H](C)C[C@H]2[C@@H]3CCC4=CC(=O)C=C[C@]4(C)[C@@]3(F)[C@@H](O)C[C@]12C)C(=O)CCl
InChI: InChI=1S/C25H32ClFO5/c1-5-21(31)32-25(20(30)13-26)14(2)10-18-17-7-6-15-11-16(28)8-9-22(15,3)24(17,27)19(29)12-23(18,25)4/h8-9,11,14,17-19,29H,5-7,10,12-13H2,1-4H3/t14-,17-,18-,19-,22-,23-,24-,25-/m0/s1
Instrument: Bruker maXis Impact
Instrument type: LC-ESI-QTOF
Ms type: MS2
Ion mode: POSITIVE
Ionization: ESI
Fragmentation mode: CID
Collision energy: 10 eV
Resolution: 35000
Column name: Acclaim RSLC C18 2.2um, 2.1x100mm, Thermo
Retention time: 10.641 min
Base peak: 467.1992
Precursor m/z: 467.1995
Precursor type: [M+H]+
m/z	relative intensity	assigned
133.0992	5	C4H18ClO2+
147.0792	23	CH17ClFO4+
159.0795	5	C2H17ClFO4+
161.0948	9	C2H19ClFO4+
169.0762	5	C10H14Cl+
171.0559	8	C9H12ClO+
171.0783	16	C6H16ClO3+
173.0948	11	C3H19ClFO4+
185.0715	21	C10H14ClO+
185.095	18	C4H19ClFO4+
187.0732	29	C6H16ClO4+
203.1059	7	C4H21ClFO5+
213.0663	8	C11H14ClO2+
213.1275	13	C15H17O+
241.1592	5	C17H21O+
253.1568	22	C12H26ClO3+
263.1425	62	C13H24ClO3+
264.1455	10	C12[13]CH24ClO3+
275.1429	9	C20H19O+
277.1581	18	C11H27ClFO4+
278.1648	31	C14H27ClO3+
279.1735	133	C14H28ClO3+
280.1764	23	C13[13]CH28ClO3+
281.1533	9	C19H21O2+
291.174	24	C15H28ClO3+
292.1767	6	C14[13]CH28ClO3+
295.168	7	C11H29ClFO5+
297.1827	6	C14H30ClO4+
301.1573	22	C13H27ClFO4+
309.185	32	C21H25O2+
310.1879	7	C20[13]CH25O2+
313.1337	5	C20H22ClO+
319.1691	71	C16H28ClO4+
320.1716	13	C15[13]CH28ClO4+
327.1506	46	C21H24ClO+
328.1527	8	C20[13]CH24ClO+
329.147	14	C21H24[37]ClO+
337.135	29	C22H22ClO+
337.1798	20	C22H25O3+
338.1402	7	C21[13]CH22ClO+
339.1328	8	C22H22[37]ClO+
345.1616	57	C21H26ClO2+
346.1646	10	C20[13]CH26ClO2+
347.1593	17	C21H26[37]ClO2+
355.146	372	C22H24ClO2+
356.1488	81	C21[13]CH24ClO2+
357.143	109	C22H24[37]ClO2+
358.1458	15	C25H23Cl+
373.1567	704	C22H26ClO3+
374.1597	162	C21[13]CH26ClO3+
375.154	223	C22H26[37]ClO3+
376.1564	39	C25H25ClO+
377.1498	10	C21H26ClO4+
391.1671	5	C22H28ClO4+
429.182	13	C25H30ClO4+
447.1932	491	C25H32ClO5+
448.1961	131	C24[13]CH32ClO5+
449.1908	146	C25H32[37]ClO5+
450.1951	25	C25H32ClFO4+
467.1997	999	C25H33ClFO5+
468.203	245	C24[13]CH33ClFO5+
469.1973	287	C25H33[37]ClFO5+
