Mass spectrum: Hydrocortisonacetate; LC-ESI-QTOF; MS2; CE: 30 eV; R=35000; [M+H]+
Name: Hydrocortisonacetate
Name: Hydrocortisone acetate
Name: [2-[(8S,9S,10R,11S,13S,14S,17R)-11,17-dihydroxy-10,13-dimethyl-3-oxo-2,6,7,8,9,11,12,14,15,16-decahydro-1H-cyclopenta[a]phenanthren-17-yl]-2-oxoethyl] acetate
Formula: C23H32O6
Exact mass: 404.2198887
SMILES: [H][C@@]12CC[C@](O)(C(=O)COC(C)=O)[C@@]1(C)C[C@H](O)[C@@]1([H])[C@@]2([H])CCC2=CC(=O)CC[C@]12C
InChI: InChI=1S/C23H32O6/c1-13(24)29-12-19(27)23(28)9-7-17-16-5-4-14-10-15(25)6-8-21(14,2)20(16)18(26)11-22(17,23)3/h10,16-18,20,26,28H,4-9,11-12H2,1-3H3/t16-,17-,18-,20+,21-,22-,23-/m0/s1
Instrument: Bruker maXis Impact
Instrument type: LC-ESI-QTOF
Ms type: MS2
Ion mode: POSITIVE
Ionization: ESI
Fragmentation mode: CID
Collision energy: 30 eV
Resolution: 35000
Column name: Acclaim RSLC C18 2.2um, 2.1x100mm, Thermo
Retention time: 8.758 min
Base peak: 453.2076
Precursor m/z: 405.2272
Precursor type: [M+H]+
m/z	relative intensity	assigned
119.0847	183	C9H11+
121.0638	527	C8H9O+
121.1005	45	C9H13+
122.0665	69	C7[13]CH9O+
123.0795	206	C8H11O+
129.069	43	C10H9+
131.085	127	C10H11+
133.064	37	C9H9O+
133.1003	90	C10H13+
135.0796	172	C9H11O+
137.0963	66	C9H13O+
141.0698	51	C11H9+
143.085	159	C11H11+
145.1008	254	C11H13+
147.0793	145	C10H11O+
147.1152	133	C11H15+
149.0954	82	C10H13O+
151.076	63	C9H11O2+
155.084	81	C12H11+
157.1005	238	C12H13+
159.0785	96	C11H11O+
159.1164	282	C12H15+
160.1201	39	C11[13]CH15+
161.0953	159	C11H13O+
161.136	45	C5H21O5+
163.11	267	C11H15O+
165.09	49	C10H13O2+
167.0835	51	C13H11+
169.0987	256	C13H13+
171.08	119	C12H11O+
171.115	196	C13H15+
172.1204	39	C12[13]CH15+
173.0943	206	C12H13O+
173.1301	90	C13H17+
175.1104	214	C12H15O+
176.1157	40	C11[13]CH15O+
177.1251	59	C12H17O+
179.1031	42	C11H15O2+
181.0995	96	C14H13+
183.1166	180	C14H15+
184.1203	52	C14H16+
185.0958	151	C13H13O+
185.1311	210	C14H17+
187.1104	347	C13H15O+
187.1471	43	C14H19+
188.1161	54	C12[13]CH15O+
189.1275	94	C13H17O+
191.1054	81	C12H15O2+
194.1064	39	C15H14+
195.1142	103	C15H15+
197.0935	59	C14H13O+
197.1304	86	C15H17+
198.1364	45	C15H18+
199.1101	213	C14H15O+
199.1477	65	C15H19+
200.1166	51	C13[13]CH15O+
201.1267	173	C14H17O+
203.1078	51	C13H15O2+
205.1242	45	C13H17O2+
207.1161	113	C16H15+
209.0964	51	C15H13O+
209.1309	142	C16H17+
211.1114	134	C15H15O+
211.1477	61	C16H19+
212.1173	42	C15H16O+
213.1269	263	C15H17O+
215.1455	68	C15H19O+
217.1202	55	C14H17O2+
221.1325	67	C17H17+
223.1119	57	C16H15O+
223.1468	233	C17H19+
225.1261	263	C16H17O+
225.1641	43	C17H21+
226.1322	89	C16H18O+
227.1427	157	C16H19O+
228.1518	41	C15[13]CH19O+
229.1572	100	C16H21O+
231.1372	117	C15H19O2+
233.1311	43	C18H17+
237.1226	62	C17H17O+
239.1422	342	C17H19O+
240.1468	83	C16[13]CH19O+
241.158	999	C17H21O+
242.1617	204	C16[13]CH21O+
243.1342	51	C16H19O2+
243.1731	69	C17H23O+
247.147	59	C19H19+
249.128	71	C18H17O+
249.1629	197	C19H21+
250.1686	59	C18[13]CH21+
251.142	280	C18H19O+
251.1773	87	C19H23+
252.1476	50	C17[13]CH19O+
253.1207	44	C17H17O2+
253.1589	103	C18H21O+
254.162	54	C18H22O+
263.1435	95	C19H19O+
263.1778	87	C20H23+
265.1593	76	C19H21O+
266.1663	72	C19H22O+
267.1351	53	C18H19O2+
267.1739	528	C19H23O+
268.1782	207	C19H24O+
269.1524	85	C18H21O2+
269.1901	232	C19H25O+
270.1951	54	C18[13]CH25O+
273.1654	61	C21H21+
279.1702	98	C20H23O+
281.1539	166	C19H21O2+
281.1888	374	C20H25O+
282.1568	55	C18[13]CH21O2+
282.1939	102	C19[13]CH25O+
285.148	37	C18H21O3+
285.1841	94	C19H25O2+
286.1904	56	C19H26O2+
287.1975	92	C19H27O2+
291.174	344	C21H23O+
292.1795	147	C21H24O+
297.1848	185	C20H25O2+
299.2015	121	C20H27O2+
300.2023	43	C20H28O2+
301.1763	46	C19H25O3+
309.184	914	C21H25O2+
310.1872	262	C20[13]CH25O2+
327.1954	957	C21H27O3+
328.1963	328	C20[13]CH27O3+
345.2069	210	C21H29O4+
346.212	68	C20[13]CH29O4+
369.2078	90	C23H29O4+
387.218	39	C23H31O5+
405.2273	188	C23H33O6+
