Mass spectrum: Desonide; LC-ESI-QTOF; MS2; CE: 20 eV; R=35000; [M+H]+
Name: Desonide
Name: (1S,2S,4R,8S,9S,11S,12S,13R)-11-hydroxy-8-(2-hydroxyacetyl)-6,6,9,13-tetramethyl-5,7-dioxapentacyclo[10.8.0.02,9.04,8.013,18]icosa-14,17-dien-16-one
Formula: C24H32O6
Exact mass: 416.2198887
SMILES: CC1(C)O[C@@H]2C[C@H]3[C@@H]4CCC5=CC(=O)C=C[C@]5(C)[C@H]4[C@@H](O)C[C@]3(C)[C@@]2(O1)C(=O)CO
InChI: InChI=1S/C24H32O6/c1-21(2)29-19-10-16-15-6-5-13-9-14(26)7-8-22(13,3)20(15)17(27)11-23(16,4)24(19,30-21)18(28)12-25/h7-9,15-17,19-20,25,27H,5-6,10-12H2,1-4H3/t15-,16-,17-,19+,20+,22-,23-,24+/m0/s1
Instrument: Bruker maXis Impact
Instrument type: LC-ESI-QTOF
Ms type: MS2
Ion mode: POSITIVE
Ionization: ESI
Fragmentation mode: CID
Collision energy: 20 eV
Resolution: 35000
Column name: Acclaim RSLC C18 2.2um, 2.1x100mm, Thermo
Retention time: 9.041 min
Base peak: 417.2274
Precursor m/z: 417.2272
Precursor type: [M+H]+
m/z	relative intensity	assigned
121.0639	22	C8H9O+
135.0793	32	C9H11O+
137.0584	16	C8H9O2+
139.0739	8	C8H11O2+
141.0537	5	C7H9O3+
147.0797	200	C10H11O+
148.083	24	C9[13]CH11O+
149.095	6	C10H13O+
151.0739	6	C9H11O2+
155.0692	27	C8H11O3+
159.0791	16	C11H11O+
161.0949	33	C11H13O+
163.0741	27	C10H11O2+
171.0793	65	C12H11O+
172.0829	11	C11[13]CH11O+
173.0951	185	C12H13O+
174.0987	20	C11[13]CH13O+
175.1103	6	C12H15O+
177.0897	8	C11H13O2+
181.0854	20	C10H13O3+
185.0955	23	C13H13O+
187.0751	6	C12H11O2+
187.1109	22	C13H15O+
189.0901	5	C12H13O2+
197.0953	17	C14H13O+
199.1106	19	C14H15O+
201.0908	6	C13H13O2+
209.0957	10	C15H13O+
211.1108	24	C15H15O+
213.1272	20	C15H17O+
215.1059	7	C14H15O2+
221.0956	8	C16H13O+
223.1106	36	C16H15O+
224.1159	8	C15[13]CH15O+
225.1268	223	C16H17O+
226.1338	148	C16H18O+
227.1418	90	C16H19O+
228.146	17	C15[13]CH19O+
235.1109	19	C17H15O+
237.1265	61	C17H17O+
238.1306	12	C16[13]CH17O+
239.1056	5	C16H15O2+
239.1423	47	C17H19O+
240.1455	9	C16[13]CH19O+
241.1586	45	C17H21O+
242.1611	10	C16[13]CH21O+
247.1102	5	C18H15O+
249.1268	22	C18H17O+
250.1314	5	C17[13]CH17O+
251.1429	27	C18H19O+
252.1467	5	C17[13]CH19O+
253.1212	10	C17H17O2+
253.1586	21	C18H21O+
254.1609	5	C17[13]CH21O+
255.1375	11	C17H19O2+
261.1267	18	C19H17O+
262.1333	9	C19H18O+
263.1427	78	C19H19O+
264.1474	24	C18[13]CH19O+
265.1585	200	C19H21O+
266.1615	39	C18[13]CH21O+
267.1371	15	C18H19O2+
267.1742	21	C19H23O+
269.1534	5	C18H21O2+
275.1428	19	C20H19O+
276.148	5	C19[13]CH19O+
277.1222	8	C19H17O2+
277.1588	142	C20H21O+
278.1616	33	C19[13]CH21O+
279.1375	22	C19H19O2+
279.1692	5	C18[13]C2H21O+
280.1421	6	C18[13]CH19O2+
281.1532	47	C19H21O2+
282.1571	11	C18[13]CH21O2+
283.1689	46	C19H23O2+
284.1718	9	C18[13]CH23O2+
287.1426	40	C21H19O+
288.1454	11	C20[13]CH19O+
293.1534	38	C20H21O2+
294.1575	10	C19[13]CH21O2+
295.1695	207	C20H23O2+
296.1724	44	C19[13]CH23O2+
297.1477	8	C19H21O3+
305.1535	202	C21H21O2+
306.1567	49	C20[13]CH21O2+
307.1609	5	C19[13]C2H21O2+
311.1639	17	C20H23O3+
313.1797	43	C20H25O3+
314.1831	10	C19[13]CH25O3+
323.1645	497	C21H23O3+
324.168	120	C20[13]CH23O3+
325.1703	10	C19[13]C2H23O3+
341.175	253	C21H25O4+
342.1781	66	C20[13]CH25O4+
343.1819	6	C19[13]C2H25O4+
363.1939	6	C24H27O3+
381.2064	17	C24H29O4+
399.2172	999	C24H31O5+
400.2201	244	C23[13]CH31O5+
401.223	29	C22[13]C2H31O5+
417.2274	18	C24H33O6+
418.229	6	C23[13]CH33O6+
