Mass spectrum: 17-alpha-Estradiol; LC-ESI-QTOF; MS2; CE: 20 eV; R=35000; [M+H]+
Name: 17-alpha-Estradiol
Name: Alfatradiol
Name: (8R,9S,13S,14S,17R)-13-methyl-6,7,8,9,11,12,14,15,16,17-decahydrocyclopenta[a]phenanthrene-3,17-diol
Formula: C18H24O2
Exact mass: 272.1776300
SMILES: C[C@]12CC[C@H]3[C@@H](CCC4=C3C=CC(O)=C4)[C@@H]1CC[C@H]2O
InChI: InChI=1S/C18H24O2/c1-18-9-8-14-13-5-3-12(19)10-11(13)2-4-15(14)16(18)6-7-17(18)20/h3,5,10,14-17,19-20H,2,4,6-9H2,1H3/t14-,15-,16+,17-,18+/m1/s1
Instrument: Bruker maXis Impact
Instrument type: LC-ESI-QTOF
Ms type: MS2
Ion mode: POSITIVE
Ionization: ESI
Fragmentation mode: CID
Collision energy: 20 eV
Resolution: 35000
Column name: Acclaim RSLC C18 2.2um, 2.1x100mm, Thermo
Retention time: 12.002 min
Base peak: 279.1586
Precursor m/z: 273.1849
Precursor type: [M+H]+
m/z	relative intensity	assigned
175.1101	32	C12H15O+
191.085	24	C15H11+
224.0635	107	C18H8+
225.1256	29	C16H17O+
226.0419	65	C17H6O+
227.18	24	C17H23+
240.1489	66	C17H20O+
255.1733	853	C18H23O+
256.178	229	C17[13]CH23O+
273.1843	999	C18H25O2+
274.1859	219	C17[13]CH25O2+
