Mass spectrum: Epiandrosterone; LC-ESI-QTOF; MS2; CE: 20 eV; R=35000; [M+H]+
Name: Epiandrosterone
Name: (3S,5S,8R,9S,10S,13S,14S)-3-hydroxy-10,13-dimethyl-1,2,3,4,5,6,7,8,9,11,12,14,15,16-tetradecahydrocyclopenta[a]phenanthren-17-one
Formula: C19H30O2
Exact mass: 290.2245802
SMILES: C[C@]12CC[C@H]3[C@@H](CC[C@H]4C[C@@H](O)CC[C@]34C)[C@@H]1CCC2=O
InChI: InChI=1S/C19H30O2/c1-18-9-7-13(20)11-12(18)3-4-14-15-5-6-17(21)19(15,2)10-8-16(14)18/h12-16,20H,3-11H2,1-2H3/t12-,13-,14-,15-,16-,18-,19-/m0/s1
Instrument: Bruker maXis Impact
Instrument type: LC-ESI-QTOF
Ms type: MS2
Ion mode: POSITIVE
Ionization: ESI
Fragmentation mode: CID
Collision energy: 20 eV
Resolution: 35000
Column name: Acclaim RSLC C18 2.2um, 2.1x100mm, Thermo
Retention time: 10.547 min
Base peak: 223.063
Precursor m/z: 291.2319
Precursor type: [M+H]+
m/z	relative intensity	assigned
135.1169	243	C10H15+
147.1152	271	C11H15+
161.1332	332	C12H17+
173.1317	181	C13H17+
199.1483	218	C15H19+
255.2109	999	C19H27+
256.2146	341	C18[13]CH27+
273.2229	406	C19H29O+
