Mass spectrum: Norgestrel; LC-ESI-QTOF; MS2; CE: Ramp 21.9-32.8 eV; R=35000; [M+H]+
Name: Norgestrel
Name: (8R,9S,10R,13S,14S)-13-ethyl-17-ethynyl-17-hydroxy-1,2,6,7,8,9,10,11,12,14,15,16-dodecahydrocyclopenta[a]phenanthren-3-one
Formula: C21H28O2
Exact mass: 312.2089301
SMILES: [H][C@@]12CCC(O)(C#C)[C@@]1(CC)CC[C@]1([H])[C@@]3([H])CCC(=O)C=C3CC[C@@]21[H]
InChI: InChI=1S/C21H28O2/c1-3-20-11-9-17-16-8-6-15(22)13-14(16)5-7-18(17)19(20)10-12-21(20,23)4-2/h2,13,16-19,23H,3,5-12H2,1H3/t16-,17+,18+,19-,20-,21?/m0/s1
Instrument: Bruker maXis Impact
Instrument type: LC-ESI-QTOF
Ms type: MS2
Ion mode: POSITIVE
Ionization: ESI
Fragmentation mode: CID
Collision energy: Ramp 21.9-32.8 eV
Resolution: 35000
Column name: Acclaim RSLC C18 2.2um, 2.1x100mm, Thermo
Retention time: 10.151 min
Base peak: 313.216
Precursor m/z: 313.2162
Precursor type: [M+H]+
m/z	relative intensity	assigned
53.0383	5	C4H5+
55.0171	12	C3H3O+
55.0535	40	C4H7+
57.0327	18	C3H5O+
57.0689	5	C4H9+
65.0384	5	C5H5+
67.0536	109	C5H7+
68.0572	9	C4[13]CH7+
69.0692	30	C5H9+
71.0486	5	C4H7O+
79.0537	174	C6H7+
80.0571	10	C5[13]CH7+
81.033	19	C5H5O+
81.0694	176	C6H9+
82.0727	13	C5[13]CH9+
83.0487	302	C5H7O+
84.0523	15	C4[13]CH7O+
91.0544	173	C7H7+
92.0579	12	C6[13]CH7+
93.0701	165	C7H9+
94.0735	13	C6[13]CH9+
95.0492	23	C6H7O+
95.0857	109	C7H11+
96.0893	8	C6[13]CH11+
97.0645	26	C6H9O+
97.1013	5	C7H13+
103.0545	6	C8H7+
105.0706	110	C8H9+
106.0735	10	C7[13]CH9+
107.0502	83	C7H7O+
107.0862	79	C8H11+
108.0536	5	C6[13]CH7O+
108.0892	7	C7[13]CH11+
109.0659	330	C7H9O+
109.1023	41	C8H13+
110.0685	28	C6[13]CH9O+
110.1056	5	C7[13]CH13+
111.0816	8	C7H11O+
115.0538	24	C9H7+
116.0606	9	C9H8+
117.0696	85	C9H9+
118.0734	11	C8[13]CH9+
119.0853	98	C9H11+
120.0885	12	C8[13]CH11+
121.0643	33	C8H9O+
121.1011	48	C9H13+
122.1043	7	C8[13]CH13+
123.0802	64	C8H11O+
123.1168	40	C9H15+
124.0843	7	C7[13]CH11O+
125.0954	24	C8H13O+
128.0611	25	C10H8+
129.0689	88	C10H9+
130.0748	19	C10H10+
131.0847	160	C10H11+
132.0886	20	C9[13]CH11+
133.0641	26	C9H9O+
133.1005	152	C10H13+
134.1039	24	C9[13]CH13+
135.0796	128	C9H11O+
135.1159	58	C10H15+
136.0827	15	C8[13]CH11O+
136.1183	8	C9[13]CH15+
137.0954	21	C9H13O+
137.1321	18	C10H17+
141.0687	26	C11H9+
142.076	21	C11H10+
143.0844	112	C11H11+
144.0901	19	C10[13]CH11+
145.0629	13	C10H9O+
145.1	183	C11H13+
146.1038	19	C10[13]CH13+
147.0793	41	C10H11O+
147.1155	72	C11H15+
148.0836	5	C9[13]CH11O+
148.1188	7	C10[13]CH15+
149.0948	129	C10H13O+
149.1309	31	C11H17+
150.0977	13	C9[13]CH13O+
151.1103	15	C10H15O+
153.0691	8	C12H9+
154.0751	7	C12H10+
155.0839	42	C12H11+
156.0903	20	C12H12+
157.0634	16	C11H9O+
157.0998	135	C12H13+
158.1045	20	C11[13]CH13+
159.0792	40	C11H11O+
159.1154	147	C12H15+
160.0841	7	C10[13]CH11O+
160.119	22	C11[13]CH15+
161.0948	88	C11H13O+
161.1309	35	C12H17+
162.1001	20	C11H14O+
163.1104	74	C11H15O+
163.1477	9	C12H19+
164.1143	10	C10[13]CH15O+
165.0674	7	C13H9+
166.077	5	C13H10+
167.0841	21	C13H11+
168.0919	12	C13H12+
169.0995	65	C13H13+
170.1058	22	C13H14+
171.1154	124	C13H15+
172.1196	20	C12[13]CH15+
173.0953	20	C12H13O+
173.131	68	C13H17+
174.1004	5	C12H14O+
174.1349	10	C12[13]CH17+
175.1101	75	C12H15O+
175.147	57	C13H19+
176.1144	11	C11[13]CH15O+
176.1507	8	C12[13]CH19+
177.1269	17	C12H17O+
179.0838	13	C14H11+
180.091	7	C14H12+
181.0999	41	C14H13+
182.1058	11	C14H14+
183.1158	96	C14H15+
184.1208	15	C13[13]CH15+
185.0947	27	C13H13O+
185.1314	185	C14H17+
186.1001	7	C13H14O+
186.1348	37	C13[13]CH17+
187.1103	40	C13H15O+
187.1472	103	C14H19+
188.117	18	C13H16O+
188.1514	13	C13[13]CH19+
189.126	56	C13H17O+
190.1297	9	C12[13]CH17O+
191.1417	11	C13H19O+
192.0922	5	C15H12+
193.101	21	C15H13+
194.1072	7	C15H14+
195.1153	44	C15H15+
196.1221	14	C15H16+
197.0941	13	C14H13O+
197.1313	52	C15H17+
198.136	11	C14[13]CH17+
199.11	21	C14H15O+
199.1474	82	C15H19+
200.1159	5	C13[13]CH15O+
200.1522	15	C14[13]CH19+
201.1267	40	C14H17O+
201.1614	21	C15H21+
202.1319	8	C13[13]CH17O+
203.142	27	C14H19O+
203.1783	5	C15H23+
204.1465	5	C13[13]CH19O+
205.1009	5	C16H13+
206.1053	9	C16H14+
207.1164	36	C16H15+
208.1221	15	C16H16+
209.1313	37	C16H17+
210.1369	11	C16H18+
211.111	19	C15H15O+
211.1476	30	C16H19+
212.1501	5	C15[13]CH19+
213.1261	22	C15H17O+
213.1627	22	C16H21+
214.1327	7	C15H18O+
214.1665	5	C15[13]CH21+
215.1429	21	C15H19O+
215.1784	9	C16H23+
216.1461	5	C14[13]CH19O+
217.1557	9	C15H21O+
219.1145	5	C17H15+
220.1252	6	C17H16+
221.1317	40	C17H17+
222.1369	16	C17H18+
223.1474	32	C17H19+
224.1529	8	C16[13]CH19+
225.1268	25	C16H17O+
225.1633	62	C17H21+
226.1324	7	C15[13]CH17O+
226.167	13	C16[13]CH21+
227.1407	14	C16H19O+
227.1788	147	C17H23+
228.1816	22	C16[13]CH23+
229.1589	10	C16H21O+
230.1639	5	C16H22O+
231.1723	6	C16H23O+
233.1323	8	C18H17+
234.1381	7	C18H18+
235.147	34	C18H19+
236.1517	11	C18H20+
237.1627	73	C18H21+
238.1678	18	C17[13]CH21+
239.1414	26	C17H19O+
239.1774	14	C18H23+
240.1473	7	C16[13]CH19O+
241.1583	17	C17H21O+
243.1733	27	C17H23O+
245.1897	594	C17H25O+
246.193	133	C16[13]CH25O+
247.1967	9	C15[13]C2H25O+
248.1549	23	C19H20+
249.1618	33	C19H21+
250.1671	6	C18[13]CH21+
251.1424	5	C18H19O+
251.1791	18	C19H23+
253.1587	14	C18H21O+
253.1954	18	C19H25+
255.1742	14	C18H23O+
257.1873	5	C18H25O+
266.1664	23	C19H22O+
267.1723	34	C19H23O+
267.2092	9	C20H27+
268.1788	6	C18[13]CH23O+
269.1904	6	C19H25O+
277.1947	77	C21H25+
278.1982	17	C20[13]CH25+
284.1772	10	C19H24O2+
295.2051	217	C21H27O+
296.2087	53	C20[13]CH27O+
313.2164	999	C21H29O2+
314.2194	292	C20[13]CH29O2+
315.2221	26	C19[13]C2H29O2+
