Mass spectrum: Lauramidopropylbetaine; LC-ESI-QTOF; MS2; CE: 10 eV; R=35000; [M+H]+
Name: Lauramidopropylbetaine
Name: 3-(Dodecanoylamino)propyl(carboxymethyl)dimethylammonium
Name: carboxymethyl-[3-(dodecanoylamino)propyl]-dimethylazanium
Formula: [C19H39N2O3]+
Exact mass: 343.2960681
SMILES: CCCCCCCCCCCC(=O)NCCC[N+](C)(C)CC(O)=O
InChI: InChI=1S/C19H38N2O3/c1-4-5-6-7-8-9-10-11-12-14-18(22)20-15-13-16-21(2,3)17-19(23)24/h4-17H2,1-3H3,(H-,20,22,23,24)/p+1
Instrument: Bruker maXis Impact
Instrument type: LC-ESI-QTOF
Ms type: MS2
Ion mode: POSITIVE
Ionization: ESI
Fragmentation mode: CID
Collision energy: 10 eV
Resolution: 35000
Column name: Acclaim RSLC C18 2.2um, 2.1x100mm, Thermo
Retention time: 13.057 min
Base peak: 360.3623
Precursor m/z: 344.3033
Precursor type: [M+H]+
m/z	relative intensity	assigned
156.1368	788	C9H18NO+
223.0615	191	C14H9NO2+
237.0776	253	C15H11NO2+
240.2309	820	C15H30NO+
241.2332	215	C14H29N2O+
250.9989	256	C17HNO2+
285.2439	208	C17H33O3+
285.2762	251	C18H37O2+
299.0586	999	C19H9NO3+
343.296	568	C19H39N2O3+
344.2956	273	C19H40N2O3+
