Mass spectrum: Triamcinolone acetonide; LC-ESI-QTOF; MS2; CE: 20 eV; R=35000; [M+H]+
Name: Triamcinolone acetonide
Name: (1S,2S,4R,8S,9S,11S,12R,13S)-12-fluoro-11-hydroxy-8-(2-hydroxyacetyl)-6,6,9,13-tetramethyl-5,7-dioxapentacyclo[10.8.0.02,9.04,8.013,18]icosa-14,17-dien-16-one
Formula: C24H31FO6
Exact mass: 434.2104669
SMILES: [H][C@@]12C[C@H]3OC(C)(C)O[C@@]3(C(=O)CO)[C@@]1(C)C[C@H](O)[C@@]1(F)[C@@]2([H])CCC2=CC(=O)C=C[C@]12C
InChI: InChI=1S/C24H31FO6/c1-20(2)30-19-10-16-15-6-5-13-9-14(27)7-8-21(13,3)23(15,25)17(28)11-22(16,4)24(19,31-20)18(29)12-26/h7-9,15-17,19,26,28H,5-6,10-12H2,1-4H3/t15-,16-,17-,19+,21-,22-,23-,24+/m0/s1
Instrument: Bruker maXis Impact
Instrument type: LC-ESI-QTOF
Ms type: MS2
Ion mode: POSITIVE
Ionization: ESI
Fragmentation mode: CID
Collision energy: 20 eV
Resolution: 35000
Column name: Acclaim RSLC C18 2.2um, 2.1x100mm, Thermo
Retention time: 8.690 min
Base peak: 435.2174
Precursor m/z: 435.2177
Precursor type: [M+H]+
m/z	relative intensity	assigned
121.0639	24	C8H9O+
123.0795	9	C8H11O+
125.0587	12	C7H9O2+
131.0836	5	C10H11+
133.0637	21	C9H9O+
135.0794	34	C9H11O+
137.0582	17	C8H9O2+
139.0743	15	C8H11O2+
141.0537	10	C7H9O3+
143.084	5	C11H11+
145.0637	9	C10H9O+
147.0795	173	C10H11O+
148.0835	14	C9[13]CH11O+
151.0385	8	C8H7O3+
151.0741	62	C9H11O2+
152.0769	5	C8[13]CH11O2+
153.0534	20	C8H9O3+
153.0897	13	C9H13O2+
155.0688	29	C8H11O3+
159.0647	10	C7H11O4+
159.0796	53	C11H11O+
160.0827	7	C10[13]CH11O+
161.0588	20	C10H9O2+
161.0951	82	C11H13O+
162.0977	9	C10[13]CH13O+
163.0739	18	C10H11O2+
169.0628	10	C12H9O+
169.0835	8	C9H13O3+
171.0793	68	C12H11O+
172.0828	10	C11[13]CH11O+
173.0946	64	C12H13O+
174.0986	9	C11[13]CH13O+
175.0755	7	C11H11O2+
175.1101	5	C12H15O+
177.0899	5	C11H13O2+
179.0693	27	C10H11O3+
181.0855	8	C10H13O3+
183.0788	7	C13H11O+
185.0595	7	C12H9O2+
185.0949	62	C13H13O+
186.0981	10	C12[13]CH13O+
187.0742	97	C12H11O2+
187.1111	15	C13H15O+
188.0775	15	C11[13]CH11O2+
189.0889	8	C12H13O2+
195.0801	5	C14H11O+
197.0956	38	C14H13O+
197.1316	21	C15H17+
198.0984	6	C13[13]CH13O+
199.1105	44	C14H15O+
200.115	6	C13[13]CH15O+
201.0903	10	C13H13O2+
203.1046	12	C13H15O2+
207.114	8	C16H15+
209.0949	25	C15H13O+
210.1014	6	C14[13]CH13O+
211.1105	57	C15H15O+
212.1151	12	C14[13]CH15O+
213.0895	17	C14H13O2+
213.1268	341	C15H17O+
214.1301	50	C14[13]CH17O+
215.1054	12	C14H15O2+
215.1424	39	C15H19O+
216.146	5	C14[13]CH19O+
219.1153	5	C17H15+
221.095	11	C16H13O+
221.1309	12	C17H17+
223.1112	136	C16H15O+
224.1162	36	C15[13]CH15O+
225.1267	275	C16H17O+
226.1299	43	C15[13]CH17O+
227.106	13	C15H15O2+
227.1418	30	C16H19O+
229.1206	5	C15H17O2+
231.1009	7	C14H15O3+
233.0948	6	C17H13O+
235.1112	55	C14H16FO2+
235.1473	11	C18H19+
236.1166	11	C13[13]CH16FO2+
237.0905	8	C16H13O2+
237.1272	98	C17H17O+
238.1293	23	C16[13]CH17O+
239.1071	13	C16H15O2+
239.1423	86	C17H19O+
240.1476	17	C16[13]CH19O+
241.1217	86	C16H17O2+
241.1587	7	C17H21O+
242.1265	17	C15[13]CH17O2+
243.1024	5	C12H16FO4+
243.1368	42	C16H19O2+
244.1411	7	C15[13]CH19O2+
245.1325	9	C19H17+
247.111	12	C18H15O+
247.1475	9	C19H19+
249.1269	43	C18H17O+
250.1314	13	C17[13]CH17O+
251.106	19	C17H15O2+
251.1426	72	C18H19O+
252.1463	20	C17[13]CH19O+
253.1218	104	C17H17O2+
253.1583	150	C18H21O+
254.1256	16	C16[13]CH17O2+
254.1618	31	C17[13]CH21O+
255.138	26	C14H20FO3+
255.1723	6	C18H23O+
256.1438	5	C13[13]CH20FO3+
257.1177	6	C16H17O3+
257.1308	7	C20H17+
257.1518	7	C17H21O2+
259.111	12	C19H15O+
260.1174	8	C19H16O+
261.1267	69	C19H17O+
262.1314	26	C19H18O+
263.1424	206	C19H19O+
264.146	40	C18[13]CH19O+
265.1213	19	C18H17O2+
265.1583	93	C19H21O+
266.1621	16	C18[13]CH21O+
267.1375	34	C18H19O2+
268.1423	8	C17[13]CH19O2+
269.1169	18	C17H17O3+
269.1518	33	C18H21O2+
270.1559	5	C17[13]CH21O2+
271.1318	5	C17H19O3+
273.127	14	C20H17O+
274.1311	5	C19[13]CH17O+
275.1426	169	C20H19O+
276.1454	34	C19[13]CH19O+
277.1221	27	C19H17O2+
277.1576	12	C20H21O+
278.128	16	C19H18O2+
279.1378	171	C19H19O2+
280.1425	47	C18[13]CH19O2+
281.1533	198	C19H21O2+
282.157	40	C18[13]CH21O2+
283.1334	15	C18H19O3+
283.1682	90	C19H23O2+
284.1502	5	C22H20+
284.1713	19	C18[13]CH23O2+
285.1268	12	C21H17O+
291.1374	59	C20H19O2+
292.1419	12	C19[13]CH19O2+
293.1535	364	C20H21O2+
294.1561	84	C19[13]CH21O2+
295.1327	39	C16H20FO4+
296.1378	11	C15[13]CH20FO4+
297.1481	111	C19H21O3+
298.1519	23	C18[13]CH21O3+
299.1455	9	C19H20FO2+
299.1618	18	C19H23O3+
301.1587	12	C22H21O+
301.18	8	C19H25O3+
303.1378	128	C21H19O2+
304.1414	31	C20[13]CH19O2+
309.1479	64	C20H21O3+
310.1511	17	C19[13]CH21O3+
311.1642	469	C20H23O3+
312.1671	103	C19[13]CH23O3+
313.1622	20	C23H21O+
314.1632	5	C22[13]CH21O+
315.1551	7	C19H23O4+
315.1642	6	C16H24FO5+
321.1483	510	C21H21O3+
322.1509	101	C20[13]CH21O3+
323.1502	17	C19[13]C2H21O3+
325.1421	7	C20H21O4+
327.1588	30	C20H23O4+
328.1612	8	C19[13]CH23O4+
329.1741	76	C20H25O4+
330.177	19	C19[13]CH25O4+
331.1735	9	C20H24FO3+
337.1432	5	C21H21O4+
339.1591	988	C21H23O4+
340.162	207	C20[13]CH23O4+
341.1578	47	C21H22FO3+
342.1582	9	C20[13]CH22FO3+
343.1532	28	C20H23O5+
344.1572	5	C19[13]CH23O5+
351.1958	7	C23H27O3+
355.152	10	C21H23O5+
357.1697	459	C21H25O5+
358.1725	112	C20[13]CH25O5+
359.1686	28	C24H23O3+
360.1686	7	C23[13]CH23O3+
361.1799	8	C24H25O3+
369.2102	6	C20H30FO5+
379.1899	19	C24H27O4+
380.1942	5	C23[13]CH27O4+
397.2012	999	C24H29O5+
398.2044	269	C23[13]CH29O5+
399.2062	37	C22[13]C2H29O5+
415.2117	436	C24H31O6+
416.2146	120	C23[13]CH31O6+
417.2156	24	C22[13]C2H31O6+
435.2174	48	C24H32FO6+
436.2217	12	C23[13]CH32FO6+
