Mass spectrum: 6-beta-Hydroxycortisol; LC-ESI-QTOF; MS2; CE: 40 eV; R=35000; [M+H]+
Name: 6-beta-Hydroxycortisol
Name: 6beta-Hydroxycortisol
Name: (6R,8S,9S,10R,11S,13S,14S,17R)-6,11,17-trihydroxy-17-(2-hydroxyacetyl)-10,13-dimethyl-2,6,7,8,9,11,12,14,15,16-decahydro-1H-cyclopenta[a]phenanthren-3-one
Formula: C21H30O6
Exact mass: 378.2042387
SMILES: C[C@]12C[C@H](O)[C@H]3[C@@H](C[C@@H](O)C4=CC(=O)CC[C@]34C)[C@@H]1CC[C@]2(O)C(=O)CO
InChI: InChI=1S/C21H30O6/c1-19-5-3-11(23)7-14(19)15(24)8-12-13-4-6-21(27,17(26)10-22)20(13,2)9-16(25)18(12)19/h7,12-13,15-16,18,22,24-25,27H,3-6,8-10H2,1-2H3/t12-,13-,15+,16-,18+,19-,20-,21-/m0/s1
Instrument: Bruker maXis Impact
Instrument type: LC-ESI-QTOF
Ms type: MS2
Ion mode: POSITIVE
Ionization: ESI
Fragmentation mode: CID
Collision energy: 40 eV
Resolution: 35000
Column name: Acclaim RSLC C18 2.2um, 2.1x100mm, Thermo
Retention time: 4.409 min
Base peak: 379.2104
Precursor m/z: 379.2115
Precursor type: [M+H]+
m/z	relative intensity	assigned
115.0561	118	C9H7+
117.0681	262	C9H9+
119.0855	285	C9H11+
121.0636	345	C8H9O+
123.08	116	C8H11O+
128.0607	446	C10H8+
129.0695	263	C10H9+
131.0842	762	C10H11+
133.0621	105	C9H9O+
133.0997	399	C10H13+
135.0804	362	C9H11O+
137.0584	179	C8H9O2+
139.0737	308	C8H11O2+
141.069	170	C11H9+
142.0764	142	C11H10+
143.0839	947	C11H11+
144.0905	239	C11H12+
145.0627	211	C10H9O+
145.0997	999	C11H13+
147.0795	377	C10H11O+
147.1158	425	C11H15+
149.0943	312	C10H13O+
151.0734	117	C9H11O2+
154.0754	151	C12H10+
155.0844	635	C12H11+
156.0905	165	C12H12+
157.0998	604	C12H13+
158.1062	150	C12H14+
159.0787	408	C11H11O+
159.1151	325	C12H15+
161.0948	460	C11H13O+
163.075	165	C10H11O2+
165.0699	192	C13H9+
165.089	114	C10H13O2+
167.0853	445	C13H11+
168.0919	196	C13H12+
169.0996	839	C13H13+
170.1073	154	C12[13]CH13+
171.0783	434	C12H11O+
171.115	642	C13H15+
172.0846	136	C12H12O+
172.1184	129	C12[13]CH15+
173.0937	813	C12H13O+
173.1329	189	C13H17+
174.1004	139	C11[13]CH13O+
175.111	281	C12H15O+
179.0849	254	C14H11+
180.091	163	C14H12+
181.0995	725	C14H13+
182.1046	299	C14H14+
183.0798	106	C13H11O+
183.1158	888	C14H15+
184.0853	102	C13H12O+
184.1207	200	C13[13]CH15+
185.0954	299	C13H13O+
185.1316	336	C14H17+
186.1015	125	C13H14O+
187.1103	556	C13H15O+
189.0888	247	C12H13O2+
189.128	138	C13H17O+
191.1046	135	C12H15O2+
192.0912	170	C15H12+
193.0999	438	C15H13+
194.1056	191	C15H14+
195.1151	863	C15H15+
196.0863	110	C14H12O+
196.1216	195	C14[13]CH15+
197.0929	338	C14H13O+
197.1317	595	C15H17+
198.0976	105	C13[13]CH13O+
198.135	162	C14[13]CH17+
199.1099	256	C14H15O+
199.1459	209	C15H19+
200.1211	148	C14H16O+
201.1259	173	C14H17O+
205.0986	228	C16H13+
206.1091	431	C16H14+
207.1146	605	C16H15+
208.1222	239	C16H16+
209.0946	185	C15H13O+
209.1323	653	C16H17+
210.1009	106	C15H14O+
211.1104	444	C15H15O+
211.1461	429	C16H19+
212.1165	128	C15H16O+
212.1528	159	C16H20+
213.1258	526	C15H17O+
213.162	132	C16H21+
214.1296	109	C14[13]CH17O+
214.1368	102	C15H18O+
215.1068	147	C14H15O2+
215.144	121	C15H19O+
219.1137	274	C17H15+
220.1211	117	C17H16+
221.0991	131	C9H17O6+
221.1299	411	C17H17+
222.1006	107	C16H14O+
222.136	122	C17H18+
223.1107	393	C16H15O+
223.1467	532	C17H19+
224.1156	168	C16H16O+
224.1544	184	C17H20+
225.1259	392	C16H17O+
225.1632	356	C17H21+
226.1341	122	C16H18O+
227.1425	240	C16H19O+
230.1089	103	C18H14+
231.1166	116	C18H15+
232.1262	202	C18H16+
233.1304	183	C18H17+
235.1095	143	C17H15O+
235.1455	237	C18H19+
236.1162	107	C17H16O+
236.1523	116	C18H20+
237.1258	355	C17H17O+
237.1624	278	C18H21+
238.1326	174	C17H18O+
238.1696	265	C18H22+
239.1434	642	C17H19O+
239.1773	189	C18H23+
240.1503	232	C17H20O+
241.1209	129	C16H17O2+
241.1586	258	C17H21O+
246.1368	106	C19H18+
247.1446	286	C19H19+
249.1225	203	C18H17O+
249.1605	296	C19H21+
251.1418	426	C18H19O+
252.1486	153	C18H20O+
253.158	170	C18H21O+
255.1398	127	C17H19O2+
255.174	136	C18H23O+
265.1575	355	C19H21O+
266.1658	409	C19H22O+
267.1397	173	C18H19O2+
267.1715	440	C19H23O+
268.1744	127	C18[13]CH23O+
269.1516	326	C18H21O2+
270.156	124	C18H22O2+
279.1711	120	C20H23O+
283.168	174	C19H23O2+
284.176	362	C19H24O2+
285.1838	217	C19H25O2+
295.1694	129	C20H23O2+
307.1682	128	C21H23O2+
