Mass spectrum: Hydrocortisone; LC-ESI-QTOF; MS2; CE: 30 eV; R=35000; [M+H]+
Name: Hydrocortisone
Name: (8S,9S,10R,11S,13S,14S,17R)-11,17-dihydroxy-17-(2-hydroxyacetyl)-10,13-dimethyl-2,6,7,8,9,11,12,14,15,16-decahydro-1H-cyclopenta[a]phenanthren-3-one
Formula: C21H30O5
Exact mass: 362.2093241
SMILES: [H][C@@]12CC[C@](O)(C(=O)CO)[C@@]1(C)C[C@H](O)[C@@]1([H])[C@@]2([H])CCC2=CC(=O)CC[C@]12C
InChI: InChI=1S/C21H30O5/c1-19-7-5-13(23)9-12(19)3-4-14-15-6-8-21(26,17(25)11-22)20(15,2)10-16(24)18(14)19/h9,14-16,18,22,24,26H,3-8,10-11H2,1-2H3/t14-,15-,16-,18+,19-,20-,21-/m0/s1
Instrument: Bruker maXis Impact
Instrument type: LC-ESI-QTOF
Ms type: MS2
Ion mode: POSITIVE
Ionization: ESI
Fragmentation mode: CID
Collision energy: 30 eV
Resolution: 35000
Column name: Acclaim RSLC C18 2.2um, 2.1x100mm, Thermo
Retention time: 7.787 min
Base peak: 363.2163
Precursor m/z: 363.2166
Precursor type: [M+H]+
m/z	relative intensity	assigned
117.0688	30	C9H9+
119.0846	80	C9H11+
121.064	999	C8H9O+
122.0667	110	C7[13]CH9O+
123.0798	228	C8H11O+
124.0832	20	C7[13]CH11O+
128.0612	33	C10H8+
129.0691	70	C10H9+
131.0851	162	C10H11+
133.0649	54	C9H9O+
133.1006	122	C10H13+
135.079	227	C9H11O+
135.1166	76	C10H15+
136.0843	29	C8[13]CH11O+
137.0593	25	C8H9O2+
137.0943	61	C9H13O+
139.075	28	C8H11O2+
141.0691	77	C11H9+
142.0769	24	C11H10+
143.0848	257	C11H11+
144.0879	34	C10[13]CH11+
145.0648	41	C10H9O+
145.1	316	C11H13+
146.1029	27	C10[13]CH13+
147.0796	154	C10H11O+
147.116	332	C11H15+
148.1193	47	C10[13]CH15+
149.0952	102	C10H13O+
149.1315	44	C11H17+
150.0971	21	C9[13]CH13O+
151.0741	35	C9H11O2+
153.0904	26	C9H13O2+
155.0839	121	C12H11+
156.09	23	C12H12+
157.0638	31	C11H9O+
157.0996	244	C12H13+
158.1041	29	C11[13]CH13+
159.0788	142	C11H11O+
159.1162	199	C12H15+
160.118	35	C11[13]CH15+
161.095	181	C11H13O+
161.1327	62	C12H17+
162.0967	27	C10[13]CH13O+
163.111	321	C11H15O+
164.1142	41	C10[13]CH15O+
167.0843	44	C13H11+
168.0915	24	C13H12+
169.0998	204	C13H13+
170.1043	45	C12[13]CH13+
171.079	100	C12H11O+
171.1157	185	C13H15+
172.1224	82	C13H16+
173.0948	214	C12H13O+
173.132	133	C13H17+
174.098	32	C11[13]CH13O+
175.0746	22	C11H11O2+
175.11	235	C12H15O+
176.1144	35	C11[13]CH15O+
177.0894	28	C11H13O2+
177.1251	69	C12H17O+
179.0839	30	C14H11+
181.1001	86	C14H13+
182.1064	31	C14H14+
183.1162	178	C14H15+
184.1198	32	C13[13]CH15+
185.0955	127	C13H13O+
185.1313	145	C14H17+
186.0984	23	C12[13]CH13O+
186.1363	33	C13[13]CH17+
187.1107	271	C13H15O+
187.1497	46	C14H19+
188.1147	44	C12[13]CH15O+
189.1266	125	C13H17O+
191.104	32	C12H15O2+
193.0996	58	C15H13+
193.1206	22	C12H17O2+
194.1087	24	C15H14+
195.115	105	C15H15+
197.0942	70	C14H13O+
197.1311	102	C15H17+
199.1114	89	C14H15O+
199.1473	92	C15H19+
201.1261	93	C14H17O+
203.1062	53	C13H15O2+
203.1399	60	C14H19O+
205.1207	70	C13H17O2+
207.116	94	C16H15+
208.1196	31	C16H16+
209.0963	37	C15H13O+
209.1326	182	C16H17+
210.1376	44	C15[13]CH17+
211.1096	60	C15H15O+
211.1482	85	C16H19+
212.1194	22	C15H16O+
213.1262	155	C15H17O+
213.163	31	C16H21+
214.1318	56	C15H18O+
215.1423	82	C15H19O+
216.1446	23	C14[13]CH19O+
217.123	25	C14H17O2+
219.1139	26	C17H15+
219.1377	35	C14H19O2+
220.1229	28	C17H16+
221.1318	81	C17H17+
222.137	37	C17H18+
223.1089	71	C16H15O+
223.1479	125	C17H19+
225.127	237	C16H17O+
225.1616	73	C17H21+
226.1285	45	C15[13]CH17O+
227.1418	130	C16H19O+
227.1758	37	C17H23+
228.1473	28	C15[13]CH19O+
229.1563	63	C16H21O+
231.138	62	C15H19O2+
233.1311	25	C18H17+
234.138	25	C18H18+
235.1115	35	C17H15O+
235.1475	49	C18H19+
237.1273	39	C17H17O+
237.1649	38	C18H21+
239.143	181	C17H19O+
239.1794	39	C18H23+
240.1462	50	C16[13]CH19O+
241.158	349	C17H21O+
241.1958	22	C18H25+
242.1608	78	C16[13]CH21O+
243.1376	54	C16H19O2+
243.1742	130	C17H23O+
244.1787	22	C16[13]CH23O+
245.1532	34	C16H21O2+
247.147	45	C19H19+
249.1257	33	C18H17O+
249.1637	131	C19H21+
250.1696	50	C19H22+
251.1422	124	C18H19O+
251.181	101	C19H23+
252.148	57	C18H20O+
252.1879	25	C18[13]CH23+
253.1226	23	C17H17O2+
253.1548	66	C18H21O+
254.1645	23	C18H22O+
255.1735	45	C18H23O+
257.1539	26	C17H21O2+
259.1701	22	C17H23O2+
261.1482	25	C16H21O3+
261.1636	48	C20H21+
263.1418	37	C19H19O+
263.1807	38	C20H23+
265.1569	70	C19H21O+
266.1655	47	C19H22O+
267.1368	36	C18H19O2+
267.1738	343	C19H23O+
268.1809	221	C19H24O+
269.1536	71	C18H21O2+
269.1897	369	C19H25O+
270.1592	21	C17[13]CH21O2+
270.1944	58	C18[13]CH25O+
271.1697	37	C18H23O2+
273.1622	43	C21H21+
279.1731	77	C20H23O+
281.155	40	C19H21O2+
281.1899	144	C20H25O+
282.1936	35	C19[13]CH25O+
283.1688	44	C19H23O2+
284.1763	21	C19H24O2+
285.1843	50	C19H25O2+
286.1888	50	C19H26O2+
287.1991	56	C19H27O2+
291.1733	146	C21H23O+
292.1792	46	C20[13]CH23O+
297.1849	191	C20H25O2+
298.1889	54	C19[13]CH25O2+
299.1608	24	C19H23O3+
299.1984	40	C20H27O2+
303.1949	108	C19H27O3+
309.1845	336	C21H25O2+
310.1897	76	C20[13]CH25O2+
315.1919	53	C20H27O3+
327.1948	339	C21H27O3+
328.1989	97	C20[13]CH27O3+
345.2039	65	C21H29O4+
363.2163	189	C21H31O5+
364.2226	51	C20[13]CH31O5+
