Mass spectrum: Lauramidopropylbetaine; LC-ESI-QTOF; MS2; CE: 50 eV; R=35000; [M+H]+
Name: Lauramidopropylbetaine
Name: 3-(Dodecanoylamino)propyl(carboxymethyl)dimethylammonium
Name: carboxymethyl-[3-(dodecanoylamino)propyl]-dimethylazanium
Formula: [C19H39N2O3]+
Exact mass: 343.2960681
SMILES: CCCCCCCCCCCC(=O)NCCC[N+](C)(C)CC(O)=O
InChI: InChI=1S/C19H38N2O3/c1-4-5-6-7-8-9-10-11-12-14-18(22)20-15-13-16-21(2,3)17-19(23)24/h4-17H2,1-3H3,(H-,20,22,23,24)/p+1
Instrument: Bruker maXis Impact
Instrument type: LC-ESI-QTOF
Ms type: MS2
Ion mode: POSITIVE
Ionization: ESI
Fragmentation mode: CID
Collision energy: 50 eV
Resolution: 35000
Column name: Acclaim RSLC C18 2.2um, 2.1x100mm, Thermo
Retention time: 12.317 min
Base peak: 326.3782
Precursor m/z: 344.3033
Precursor type: [M+H]+
m/z	relative intensity	assigned
152.0617	32	C12H8+
191.0002	42	C12HNO2+
207.0318	55	C13H5NO2+
209.0109	117	C12H3NO3+
223.0286	49	C16H3N2+
223.0622	118	C14H9NO2+
225.0422	988	C13H7NO3+
226.0433	88	C12[13]CH7NO3+
227.0213	273	C15H3N2O+
228.0203	47	C16H4O2+
229.0005	74	C14HN2O2+
237.0782	33	C15H11NO2+
247.0109	35	C14H3N2O3+
265.0205	115	C18H3NO2+
266.999	999	C17HNO3+
267.9976	201	C16[13]CHNO3+
283.0302	675	C18H5NO3+
284.0293	165	C17[13]CH5NO3+
299.0616	188	C19H9NO3+
300.0595	35	C18[13]CH9NO3+
