Mass spectrum: Omethoate; LC-ESI-QTOF; MS2; CE: 10 eV; R=35000; [M+Na]+
Name: Omethoate
Name: 2-dimethoxyphosphorylsulfanyl-N-methylacetamide
Formula: C5H12NO4PS
Exact mass: 213.0224655
SMILES: CNC(=O)CSP(=O)(OC)OC
InChI: InChI=1S/C5H12NO4PS/c1-6-5(7)4-12-11(8,9-2)10-3/h4H2,1-3H3,(H,6,7)
Instrument: Bruker maXis Impact
Instrument type: LC-ESI-QTOF
Ms type: MS2
Ion mode: POSITIVE
Ionization: ESI
Fragmentation mode: CID
Collision energy: 10 eV
Resolution: 35000
Column name: Acclaim RSLC C18 2.2um, 2.1x100mm, Thermo
Retention time: 3.222 min
Base peak: 214.0313
Precursor m/z: 236.0117
Precursor type: [M+Na]+
m/z	relative intensity	assigned
236.0122	999	C5H12NNaO4PS+
237.0153	63	C4[13]CH12NNaO4PS+
238.0096	63	C5H12NNaO4P[34]S+
