Mass spectrum: Imidacloprid; LC-ESI-QTOF; MS2; CE: Ramp 20.0-30.0 eV; R=35000; [M+H]+
Name: Imidacloprid
Name: N-[1-[(6-Chloro-3-pyridyl)methyl]-4,5-dihydroimidazol-2-yl]nitramide
Name: N-[1-[(6-chloropyridin-3-yl)methyl]-4,5-dihydroimidazol-2-yl]nitramide
Formula: C9H10ClN5O2
Exact mass: 255.0523022
SMILES: [O-][N+](=O)\N=C1/NCCN1CC1=CN=C(Cl)C=C1
InChI: InChI=1S/C9H10ClN5O2/c10-8-2-1-7(5-12-8)6-14-4-3-11-9(14)13-15(16)17/h1-2,5H,3-4,6H2,(H,11,13)
Instrument: Bruker maXis Impact
Instrument type: LC-ESI-QTOF
Ms type: MS2
Ion mode: POSITIVE
Ionization: ESI
Fragmentation mode: CID
Collision energy: Ramp 20.0-30.0 eV
Resolution: 35000
Column name: Acclaim RSLC C18 2.2um, 2.1x100mm, Thermo
Retention time: 4.728 min
Base peak: 271.041
Precursor m/z: 256.0596
Precursor type: [M+H]+
m/z	relative intensity	assigned
56.0489	27	C3H6N+
72.0682	5	C3H8N2+
84.0554	87	C3H6N3+
97.0633	5	C4H7N3+
99.0561	7	CH10ClN3+
126.0097	64	C6H5ClN+
127.0136	6	C5[13]CH5ClN+
128.0063	21	C6H5[37]ClN+
128.0253	67	C6H7ClN+
130.0219	19	C6H7[37]ClN+
133.0744	8	C8H9N2+
141.0198	8	C7HN4+
146.0573	7	CH11ClN4O2+
146.0698	25	C8H8N3+
147.0645	21	C7H7N4+
148.0853	10	C8H10N3+
151.0171	9	C9HN3+
158.0691	10	C4H8N5O2+
159.0768	13	C4H9N5O2+
167.0239	8	C7H6ClN3+
167.035	11	C9H3N4+
173.0807	40	C9H9N4+
174.0886	135	C9H10N4+
175.0966	999	C9H11N4+
176.0994	93	C8[13]CH11N4+
181.027	12	C7H6ClN4+
193.0384	7	C9H8ClN3+
194.0453	10	C4H9ClN5O2+
209.058	757	C9H10ClN4+
210.0635	122	C8[13]CH10ClN4+
211.0548	248	C9H10[37]ClN4+
212.0583	102	C9H11ClN3O+
213.062	5	C8[13]CH11ClN3O+
214.0543	13	C9H11[37]ClN3O+
256.0587	11	C9H11ClN5O2+
