Mass spectrum: Omethoate; LC-ESI-QTOF; MS2; HILIC; CE: 10 eV; R=35000; [M+H]+
Name: Omethoate
Name: 2-dimethoxyphosphorylsulfanyl-N-methylacetamide
Formula: C5H12NO4PS
Exact mass: 213.0224655
SMILES: CNC(=O)CSP(=O)(OC)OC
InChI: InChI=1S/C5H12NO4PS/c1-6-5(7)4-12-11(8,9-2)10-3/h4H2,1-3H3,(H,6,7)
Instrument: Bruker maXis Impact
Instrument type: LC-ESI-QTOF
Ms type: MS2
Ion mode: POSITIVE
Ionization: ESI
Fragmentation mode: CID
Collision energy: 10 eV
Resolution: 35000
Column name: ACQUITY  UPLC BEH Amide 1.7 um 2.1x100mm, Waters
Retention time: 2.117 min
Base peak: 195.1222
Precursor m/z: 214.0297
Precursor type: [M+H]+
m/z	relative intensity	assigned
142.992	130	C2H8O3PS+
154.9911	143	C3H8O3PS+
182.9864	999	C4H8O4PS+
196.0181	217	C5H11NO3PS+
214.0292	803	C5H13NO4PS+
