Mass spectrum: Dimethoate; LC-ESI-QTOF; MS2; HILIC; CE: 40 eV; R=35000; [M+H]+
Name: Dimethoate
Name: 2-dimethoxyphosphinothioylsulfanyl-N-methylacetamide
Formula: C5H12NO3PS2
Exact mass: 228.9996219
SMILES: P(SCC(NC)=O)(OC)(OC)=S
InChI: InChI=1S/C5H12NO3PS2/c1-6-5(7)4-12-10(11,8-2)9-3/h4H2,1-3H3,(H,6,7)
Instrument: Bruker maXis Impact
Instrument type: LC-ESI-QTOF
Ms type: MS2
Ion mode: POSITIVE
Ionization: ESI
Fragmentation mode: CID
Collision energy: 40 eV
Resolution: 35000
Column name: ACQUITY UPLC BEH Amide 1.7 um 2.1x100mm, Waters
Retention time: 1.465 min
Base peak: 230.008
Precursor m/z: 230.0069
Precursor type: [M+H]+
m/z	relative intensity	assigned
110.9662	5	CH4O2PS+
123.9985	48	C2H7NOPS+
124.9826	999	C2H6O2PS+
125.9846	32	C[13]CH6O2PS+
126.9445	5	CH4OPS2+
126.9779	48	C2H6O2P[34]S+
140.9622	6	C4NO3P+
142.9928	405	C2H8O3PS+
144.9895	26	C5H6NP[34]S+
155.9718	8	C2H7NOPS2+
156.9541	65	C2H6O2PS2+
158.9502	6	C5H4PS2+
