Mass spectrum: Omethoate; LC-ESI-QTOF; MS2; HILIC; CE: 40 eV; R=35000; [M+H]+
Name: Omethoate
Name: 2-dimethoxyphosphorylsulfanyl-N-methylacetamide
Formula: C5H12NO4PS
Exact mass: 213.0224655
SMILES: CNC(=O)CSP(=O)(OC)OC
InChI: InChI=1S/C5H12NO4PS/c1-6-5(7)4-12-11(8,9-2)10-3/h4H2,1-3H3,(H,6,7)
Instrument: Bruker maXis Impact
Instrument type: LC-ESI-QTOF
Ms type: MS2
Ion mode: POSITIVE
Ionization: ESI
Fragmentation mode: CID
Collision energy: 40 eV
Resolution: 35000
Column name: ACQUITY UPLC BEH Amide 1.7 um 2.1x100mm, Waters
Retention time: 1.766 min
Base peak: 214.0292
Precursor m/z: 214.0297
Precursor type: [M+H]+
m/z	relative intensity	assigned
109.004	43	C2H6O3P+
124.9809	999	C2H6O2PS+
126.9766	45	C2H6O2P[34]S+
127.0141	59	C2H8O4P+
142.991	390	C2H8O3PS+
144.9871	24	C2H8O3P[34]S+
154.9908	15	C3H8O3PS+
