Mass spectrum: Dimethoate; LC-ESI-QTOF; MS2; HILIC; CE: 30 eV; R=35000; [M+H]+
Name: Dimethoate
Name: 2-dimethoxyphosphinothioylsulfanyl-N-methylacetamide
Formula: C5H12NO3PS2
Exact mass: 228.9996219
SMILES: P(SCC(NC)=O)(OC)(OC)=S
InChI: InChI=1S/C5H12NO3PS2/c1-6-5(7)4-12-10(11,8-2)9-3/h4H2,1-3H3,(H,6,7)
Instrument: Bruker maXis Impact
Instrument type: LC-ESI-QTOF
Ms type: MS2
Ion mode: POSITIVE
Ionization: ESI
Fragmentation mode: CID
Collision energy: 30 eV
Resolution: 35000
Column name: ACQUITY UPLC BEH Amide 1.7 um 2.1x100 mm, Waters
Retention time: 1.465 min
Base peak: 230.0084
Precursor m/z: 230.0069
Precursor type: [M+H]+
m/z	relative intensity	assigned
119.9938	5	C3H6NS2+
123.9984	37	C2H7NOPS+
124.9826	999	C2H6O2PS+
125.9851	25	C[13]CH6O2PS+
126.978	41	C2H6O2P[34]S+
142.9931	382	C2H8O3PS+
143.9953	16	C5H6NS2+
144.9894	22	C2H8O3P[34]S+
155.9707	20	C2H7NOPS2+
156.9544	150	C2H6O2PS2+
158.9505	12	C2H6O2PS[34]S+
170.9702	74	C3H8O2PS2+
172.9669	5	C3H8O2PS[34]S+
