Mass spectrum: Dimethoate; LC-ESI-QTOF; MS2; HILIC; CE: 20 eV; R=35000; [M+H]+
Name: Dimethoate
Name: 2-dimethoxyphosphinothioylsulfanyl-N-methylacetamide
Formula: C5H12NO3PS2
Exact mass: 228.9996219
SMILES: P(SCC(NC)=O)(OC)(OC)=S
InChI: InChI=1S/C5H12NO3PS2/c1-6-5(7)4-12-10(11,8-2)9-3/h4H2,1-3H3,(H,6,7)
Instrument: Bruker maXis Impact
Instrument type: LC-ESI-QTOF
Ms type: MS2
Ion mode: POSITIVE
Ionization: ESI
Fragmentation mode: CID
Collision energy: 20 eV
Resolution: 35000
Column name: ACQUITY UPLC BEH Amide 1.7 um 2.1x100 mm, Waters
Retention time: 1.465 min
Base peak: 230.0084
Precursor m/z: 230.0069
Precursor type: [M+H]+
m/z	relative intensity	assigned
119.9943	12	C3H6NS2+
123.9988	24	C2H7NOPS+
124.9826	999	C2H6O2PS+
125.985	24	C[13]CH6O2PS+
126.9782	40	C2H6O2P[34]S+
140.9598	7	C2H6OPS2+
142.9933	379	C2H8O3PS+
144.989	17	C5H6NP[34]S+
155.9708	28	C2H7NOPS2+
156.9546	168	C2H6O2PS2+
157.9589	6	C5H3O2PS+
158.951	15	C2H6O2PS[34]S+
170.9705	642	C3H8O2PS2+
171.9729	28	C2[13]CH8O2PS2+
172.966	57	C3H8O2PS[34]S+
188.9812	5	C3H10O3PS2+
197.9818	34	C4H9NO2PS2+
198.9655	237	C4H8O3PS2+
199.9686	12	C3[13]CH8O3PS2+
200.9608	19	C4H8O3PS[34]S+
