Mass spectrum: Thiacloprid; LC-ESI-QTOF; MS2; CE: Ramp 19.9-29.9 eV; R=35000; [M+H]+
Name: Thiacloprid
Name: CID 6011129
Name: (E)-[3-[(6-chloropyridin-3-yl)methyl]-1,3-thiazolidin-2-ylidene]cyanamide
Formula: C10H9ClN4S
Exact mass: 252.0236450
SMILES: ClC1=CC=C(CN2CCS\C2=N\C#N)C=N1
InChI: InChI=1S/C10H9ClN4S/c11-9-2-1-8(5-13-9)6-15-3-4-16-10(15)14-7-12/h1-2,5H,3-4,6H2/b14-10+
Instrument: Bruker maXis Impact
Instrument type: LC-ESI-QTOF
Ms type: MS2
Ion mode: POSITIVE
Ionization: ESI
Fragmentation mode: CID
Collision energy: Ramp 19.9-29.9 eV
Resolution: 35000
Column name: Acclaim RSLC C18 2.2um, 2.1x100mm, Thermo
Retention time: 5.581 min
Base peak: 253.0305
Precursor m/z: 253.0309
Precursor type: [M+H]+
m/z	relative intensity	assigned
90.0339	35	C6H4N+
99.0001	11	C5H4Cl+
126.0104	999	C6H5ClN+
127.0133	63	C5[13]CH5ClN+
128.0072	259	C6H5[37]ClN+
129.0104	10	C4H4ClN3+
144.0201	14	C4H5ClN4+
151.0043	5	C7H4ClN2+
186.0128	44	C8H9ClNS+
188.0096	14	C8H9[37]ClNS+
211.0085	6	C9H8ClN2S+
217.0539	8	C10H9N4S+
226.0193	7	C9H9ClN3S+
253.0304	192	C10H10ClN4S+
254.0332	26	C9[13]CH10ClN4S+
255.0275	60	C10H10[37]ClN4S+
