Mass spectrum: Dimethoate; LC-ESI-QTOF; MS2; HILIC; CE: 10 eV; R=35000; [M+H]+
Name: Dimethoate
Name: 2-dimethoxyphosphinothioylsulfanyl-N-methylacetamide
Formula: C5H12NO3PS2
Exact mass: 228.9996219
SMILES: P(SCC(NC)=O)(OC)(OC)=S
InChI: InChI=1S/C5H12NO3PS2/c1-6-5(7)4-12-10(11,8-2)9-3/h4H2,1-3H3,(H,6,7)
Instrument: Bruker maXis Impact
Instrument type: LC-ESI-QTOF
Ms type: MS2
Ion mode: POSITIVE
Ionization: ESI
Fragmentation mode: CID
Collision energy: 10 eV
Resolution: 35000
Column name: ACQUITY  UPLC BEH Amide 1.7 um 2.1x100mm, Waters
Retention time: 1.479 min
Base peak: 230.0084
Precursor m/z: 230.0069
Precursor type: [M+H]+
m/z	relative intensity	assigned
124.9824	62	C2H6O2PS+
142.9929	39	C2H8O3PS+
156.9542	10	C2H6O2PS2+
170.9703	142	C3H8O2PS2+
171.9727	6	C2[13]CH8O2PS2+
172.9665	11	C3H8O2PS[34]S+
197.9814	34	C4H9NO2PS2+
198.9658	999	C4H8O3PS2+
199.9681	44	C3[13]CH8O3PS2+
200.9616	61	C4H8O3PS[34]S+
230.0083	155	C5H13NO3PS2+
231.0105	9	C4[13]CH13NO3PS2+
232.0044	11	C5H13NO3PS[34]S+
