Mass spectrum: Dimethoate; LC-ESI-QTOF; MS2; HILIC; CE: 50 eV; R=35000; [M+H]+
Name: Dimethoate
Name: 2-dimethoxyphosphinothioylsulfanyl-N-methylacetamide
Formula: C5H12NO3PS2
Exact mass: 228.9996219
SMILES: P(SCC(NC)=O)(OC)(OC)=S
InChI: InChI=1S/C5H12NO3PS2/c1-6-5(7)4-12-10(11,8-2)9-3/h4H2,1-3H3,(H,6,7)
Instrument: Bruker maXis Impact
Instrument type: LC-ESI-QTOF
Ms type: MS2
Ion mode: POSITIVE
Ionization: ESI
Fragmentation mode: CID
Collision energy: 50 eV
Resolution: 35000
Column name: ACQUITY UPLC BEH Amide 1.7 um 2.1x100mm, Water
Retention time: 1.466 min
Base peak: 230.0076
Precursor m/z: 230.0069
Precursor type: [M+H]+
m/z	relative intensity	assigned
123.9997	70	C3H8OS2+
124.9824	999	C2H6O2PS+
125.9879	34	C5H3O2P+
126.9782	55	C5H4PS+
142.9932	495	C2H8O3PS+
156.9538	37	C2H6O2PS2+
