Mass spectrum: Cyromazine; LC-ESI-QTOF; MS2; HILIC; CE: 20 eV; R=35000; [M+H]+
Name: Cyromazine
Name: 2-N-cyclopropyl-1,3,5-triazine-2,4,6-triamine
Formula: C6H10N6
Exact mass: 166.0966943
SMILES: C1CC1Nc2nc(nc(n2)N)N
InChI: InChI=1S/C6H10N6/c7-4-10-5(8)12-6(11-4)9-3-1-2-3/h3H,1-2H2,(H5,7,8,9,10,11,12)
Instrument: Bruker maXis Impact
Instrument type: LC-ESI-QTOF
Ms type: MS2
Ion mode: POSITIVE
Ionization: ESI
Fragmentation mode: CID
Collision energy: 20 eV
Resolution: 35000
Column name: ACQUITY UPLC BEH Amide 1.7 um 2.1x100 mm, Waters
Retention time: 6.030 min
Base peak: 285.2927
Precursor m/z: 167.104
Precursor type: [M+H]+
m/z	relative intensity	assigned
125.0828	160	C5H9N4+
126.0855	5	C4[13]CH9N4+
127.0736	7	C3H7N6+
139.0731	34	C4H7N6+
140.0936	8	C5H10N5+
150.0778	11	C6H8N5+
167.1049	999	C6H11N6+
168.1069	53	C5[13]CH11N6+
