Mass spectrum: Omethoate; LC-ESI-QTOF; MS2; HILIC; CE: 20 eV; R=35000; [M+H]+
Name: Omethoate
Name: 2-dimethoxyphosphorylsulfanyl-N-methylacetamide
Formula: C5H12NO4PS
Exact mass: 213.0224655
SMILES: CNC(=O)CSP(=O)(OC)OC
InChI: InChI=1S/C5H12NO4PS/c1-6-5(7)4-12-11(8,9-2)10-3/h4H2,1-3H3,(H,6,7)
Instrument: Bruker maXis Impact
Instrument type: LC-ESI-QTOF
Ms type: MS2
Ion mode: POSITIVE
Ionization: ESI
Fragmentation mode: CID
Collision energy: 20 eV
Resolution: 35000
Column name: ACQUITY UPLC BEH Amide 1.7 um 2.1x100 mm, Waters
Retention time: 2.066 min
Base peak: 214.0287
Precursor m/z: 214.0297
Precursor type: [M+H]+
m/z	relative intensity	assigned
124.981	999	C2H6O2PS+
125.9864	36	C5H3O2P+
126.9801	32	C4H2NO2P+
127.0136	35	C2H8O4P+
142.9911	908	C2H8O3PS+
144.9891	37	C5H6OPS+
154.9912	794	C3H8O3PS+
172.9999	56	C3H10O4PS+
182.0011	54	C4H9NO3PS+
182.9864	381	C4H8O4PS+
196.0192	145	C5H11NO3PS+
214.0285	38	C5H13NO4PS+
