Mass spectrum: Dimethoate; LC-ESI-QTOF; MS2; CE: Ramp 19.1-28.6 eV; R=35000; [M+H]+
Name: Dimethoate
Name: 2-dimethoxyphosphinothioylsulfanyl-N-methylacetamide
Formula: C5H12NO3PS2
Exact mass: 228.9996219
SMILES: CNC(=O)CSP(=S)(OC)OC
InChI: InChI=1S/C5H12NO3PS2/c1-6-5(7)4-12-10(11,8-2)9-3/h4H2,1-3H3,(H,6,7)
Instrument: Bruker maXis Impact
Instrument type: LC-ESI-QTOF
Ms type: MS2
Ion mode: POSITIVE
Ionization: ESI
Fragmentation mode: CID
Collision energy: Ramp 19.1-28.6 eV
Resolution: 35000
Column name: Acclaim RSLC C18 2.2um, 2.1x100mm, Thermo
Retention time: 5.179 min
Base peak: 230.0063
Precursor m/z: 230.0069
Precursor type: [M+H]+
m/z	relative intensity	assigned
44.9796	10	CHS+
46.9945	18	CH3S+
58.9943	10	C2H3S+
61.0101	30	C2H5S+
62.0178	21	C2H6S+
76.021	8	C2H6NS+
78.9939	196	CH4O2P+
88.0214	483	C3H6NS+
89.0243	14	C2[13]CH6NS+
90.0174	19	C3H6N[34]S+
92.0264	5	C2H7NOP+
93.0101	63	C2H6O2P+
104.0166	15	C3H6NOS+
110.967	8	CH4O2PS+
119.9938	18	C3H6NS2+
123.9977	41	C2H7NOPS+
124.9813	999	C2H6O2PS+
125.9829	21	C[13]CH6O2PS+
126.9774	33	C2H6O2P[34]S+
127.0159	10	C5H6NOP+
128.9769	22	CH6O3PS+
140.9586	5	C2H6OPS2+
142.9923	688	C2H8O3PS+
143.995	23	C[13]CH8O3PS+
144.988	39	C2H8O3P[34]S+
155.969	30	C2H7NOPS2+
156.953	196	C2H6O2PS2+
157.9547	5	C[13]CH6O2PS2+
158.9495	14	C2H6O2PS[34]S+
170.9688	474	C3H8O2PS2+
171.9709	24	C2[13]CH8O2PS2+
172.965	44	C3H8O2PS[34]S+
188.9797	5	C3H10O3PS2+
197.98	39	C4H9NO2PS2+
198.964	245	C4H8O3PS2+
199.9673	12	C3[13]CH8O3PS2+
200.9598	18	C4H8O3PS[34]S+
