Mass spectrum: Simazine; LC-ESI-QTOF; MS2; CE: 40 eV; R=35000; [M+H]+
Name: Simazine
Name: 6-chloro-2-N,4-N-diethyl-1,3,5-triazine-2,4-diamine
Formula: C7H12ClN5
Exact mass: 201.0781231
SMILES: CCNC1=NC(NCC)=NC(Cl)=N1
InChI: InChI=1S/C7H12ClN5/c1-3-9-6-11-5(8)12-7(13-6)10-4-2/h3-4H2,1-2H3,(H2,9,10,11,12,13)
Instrument: Bruker maXis Impact
Instrument type: LC-ESI-QTOF
Ms type: MS2
Ion mode: POSITIVE
Ionization: ESI
Fragmentation mode: CID
Collision energy: 40 eV
Resolution: 35000
Column name: Acclaim RSLC C18 2.2um, 2.1x100mm, Thermo
Retention time: 7.439 min
Base peak: 202.0853
Precursor m/z: 202.0854
Precursor type: [M+H]+
m/z	relative intensity	assigned
131.048	7	C7H5N3+
144.0552	76	C7H11ClN+
145.0635	999	C7H12ClN+
146.0664	109	C6[13]CH12ClN+
147.0705	7	C6H12ClN2+
