Mass spectrum: Simazine; LC-ESI-QTOF; MS2; CE: Ramp 18.1-27.1 eV; R=35000; [M+H]+
Name: Simazine
Name: 6-chloro-2-N,4-N-diethyl-1,3,5-triazine-2,4-diamine
Formula: C7H12ClN5
Exact mass: 201.0781231
SMILES: CCNC1=NC(NCC)=NC(Cl)=N1
InChI: InChI=1S/C7H12ClN5/c1-3-9-6-11-5(8)12-7(13-6)10-4-2/h3-4H2,1-2H3,(H2,9,10,11,12,13)
Instrument: Bruker maXis Impact
Instrument type: LC-ESI-QTOF
Ms type: MS2
Ion mode: POSITIVE
Ionization: ESI
Fragmentation mode: CID
Collision energy: Ramp 18.1-27.1 eV
Resolution: 35000
Column name: Acclaim RSLC C18 2.2um, 2.1x100mm, Thermo
Retention time: 7.068 min
Base peak: 253.1661
Precursor m/z: 202.0854
Precursor type: [M+H]+
m/z	relative intensity	assigned
61.9786	14	CHClN+
67.0534	6	C5H7+
68.0241	156	C2H2N3+
71.06	264	C3H7N2+
72.0632	7	C2[13]CH7N2+
79.0053	18	CH4ClN2+
81.0025	6	CH4[37]ClN2+
81.0694	9	C6H9+
90.0105	14	C3H5ClN+
95.0861	7	C7H11+
96.0563	194	C4H6N3+
97.059	8	C3[13]CH6N3+
104.0021	108	C2H3ClN3+
105.9993	26	C2H3[37]ClN3+
124.0868	265	C6H10N3+
125.0895	14	C5[13]CH10N3+
132.0318	317	C4H7ClN3+
133.0347	14	C3[13]CH7ClN3+
134.0289	79	C4H7[37]ClN3+
138.0765	20	C5H8N5+
146.0224	14	C3H5ClN5+
166.1081	103	C7H12N5+
167.1098	6	C6[13]CH12N5+
174.0534	134	C5H9ClN5+
175.0555	5	C4[13]CH9ClN5+
176.0506	28	C5H9[37]ClN5+
202.085	999	C7H13ClN5+
203.0879	77	C6[13]CH13ClN5+
204.0821	261	C7H13[37]ClN5+
