Mass spectrum: Monocrotophos; LC-ESI-QTOF; MS2; HILIC; CE: 50 eV; R=35000; [M+H]+
Name: Monocrotophos
Name: dimethyl [(E)-4-(methylamino)-4-oxobut-2-en-2-yl] phosphate
Formula: C7H14NO5P
Exact mass: 223.0609592
SMILES: C/C(=C\C(=N\C)\O)/OP(=O)(OC)OC
InChI: InChI=1S/C7H14NO5P/c1-6(5-7(9)8-2)13-14(10,11-3)12-4/h5H,1-4H3,(H,8,9)/b6-5+
Instrument: Bruker maXis Impact
Instrument type: LC-ESI-QTOF
Ms type: MS2
Ion mode: POSITIVE
Ionization: ESI
Fragmentation mode: CID
Collision energy: 50 eV
Resolution: 35000
Column name: ACQUITY UPLC BEH Amide 1.7 um 2.1x100mm, Water
Retention time: 1.616 min
Base peak: 224.0695
Precursor m/z: 224.0682
Precursor type: [M+H]+
m/z	relative intensity	assigned
109.005	84	C2H6O3P+
127.0155	999	C2H8O4P+
129.0193	13	CH8NO4P+
