Mass spectrum: Acephate; LC-ESI-QTOF; MS2; CE: 40 eV; R=35000; [M+H]+
Name: Acephate
Name: N-[methoxy(methylsulfanyl)phosphoryl]acetamide
Formula: C4H10NO3PS
Exact mass: 183.0119008
SMILES: CC(=O)NP(=O)(OC)SC
InChI: InChI=1S/C4H10NO3PS/c1-4(6)5-9(7,8-2)10-3/h1-3H3,(H,5,6,7)
Instrument: Bruker maXis Impact
Instrument type: LC-ESI-QTOF
Ms type: MS2
Ion mode: POSITIVE
Ionization: ESI
Fragmentation mode: CID
Collision energy: 40 eV
Resolution: 35000
Column name: Acclaim RSLC C18 2.2um, 2.1x100mm, Thermo
Retention time: 2.931 min
Base peak: 142.9928
Precursor m/z: 184.0192
Precursor type: [M+H]+
m/z	relative intensity	assigned
110.9665	79	CH4O2PS+
124.9822	999	C2H6O2PS+
142.9921	724	C2H8O3PS+
