Mass spectrum: Acephate; LC-ESI-QTOF; MS2; CE: 10 eV; R=35000; [M+H]+
Name: Acephate
Name: N-[methoxy(methylsulfanyl)phosphoryl]acetamide
Formula: C4H10NO3PS
Exact mass: 183.0119008
SMILES: CC(=O)NP(=O)(OC)SC
InChI: InChI=1S/C4H10NO3PS/c1-4(6)5-9(7,8-2)10-3/h1-3H3,(H,5,6,7)
Instrument: Bruker maXis Impact
Instrument type: LC-ESI-QTOF
Ms type: MS2
Ion mode: POSITIVE
Ionization: ESI
Fragmentation mode: CID
Collision energy: 10 eV
Resolution: 35000
Column name: Acclaim RSLC C18 2.2um, 2.1x100mm, Thermo
Retention time: 2.955 min
Base peak: 142.9929
Precursor m/z: 184.0192
Precursor type: [M+H]+
m/z	relative intensity	assigned
124.9821	19	C2H6O2PS+
136.0158	8	C3H7NO3P+
142.9929	999	C2H8O3PS+
143.995	21	C[13]CH8O3PS+
144.9887	31	C2H8O3P[34]S+
184.0195	5	C4H11NO3PS+
