Mass spectrum: Acephate; LC-ESI-QTOF; MS2; HILIC; CE: 30 eV; R=35000; [M+H]+
Name: Acephate
Name: N-[methoxy(methylsulfanyl)phosphoryl]acetamide
Formula: C4H10NO3PS
Exact mass: 183.0119008
SMILES: CC(=O)NP(=O)(OC)SC
InChI: InChI=1S/C4H10NO3PS/c1-4(6)5-9(7,8-2)10-3/h1-3H3,(H,5,6,7)
Instrument: Bruker maXis Impact
Instrument type: LC-ESI-QTOF
Ms type: MS2
Ion mode: POSITIVE
Ionization: ESI
Fragmentation mode: CID
Collision energy: 30 eV
Resolution: 35000
Column name: ACQUITY UPLC BEH Amide 1.7 um 2.1x100 mm, Waters
Retention time: 1.766 min
Base peak: 206.0024
Precursor m/z: 184.0192
Precursor type: [M+H]+
m/z	relative intensity	assigned
110.9673	46	CH4O2PS+
124.9822	770	C2H6O2PS+
126.9787	38	C2H6O2P[34]S+
127.9688	20	CH5O3PS+
128.977	18	CH6O3PS+
142.0094	129	C2H9NO2PS+
142.9932	999	C2H8O3PS+
144.9892	61	C2H8O3P[34]S+
