Mass spectrum: Atrazine; LC-ESI-QTOF; MS2; CE: 20 eV; R=35000; [M+H]+
Name: Atrazine
Name: 6-chloro-4-N-ethyl-2-N-propan-2-yl-1,3,5-triazine-2,4-diamine
Formula: C8H14ClN5
Exact mass: 215.0937731
SMILES: CCNC1=NC(NC(C)C)=NC(Cl)=N1
InChI: InChI=1S/C8H14ClN5/c1-4-10-7-12-6(9)13-8(14-7)11-5(2)3/h5H,4H2,1-3H3,(H2,10,11,12,13,14)
Instrument: Bruker maXis Impact
Instrument type: LC-ESI-QTOF
Ms type: MS2
Ion mode: POSITIVE
Ionization: ESI
Fragmentation mode: CID
Collision energy: 20 eV
Resolution: 35000
Column name: Acclaim RSLC C18 2.2um, 2.1x100mm, Thermo
Retention time: 8.0 min
Base peak: 216.1009
Precursor m/z: 216.101
Precursor type: [M+H]+
m/z	relative intensity	assigned
132.0316	57	C4H7ClN3+
133.0331	3	C3[13]CH7ClN3+
134.0285	17	C4H7[37]ClN3+
138.0766	21	C5H8N5+
138.1017	16	C7H12N3+
146.022	45	C3H5ClN5+
147.0253	2	C2[13]CH5ClN5+
148.0188	12	C3H5[37]ClN5+
174.0531	999	C5H9ClN5+
175.0557	45	C4[13]CH9ClN5+
176.0501	249	C5H9[37]ClN5+
177.0536	6	C4[13]H9[37]ClN5+
180.1233	7	C8H14N5+
216.1005	628	
217.1033	51	C7[13]CH15ClN5+
218.0976	159	C8H15[37]ClN5+
219.1003	8	C7[13]CH15[37]ClN5+
