Mass spectrum: Metribuzin; LC-ESI-QTOF; MS2; CE: 10 eV; R=35000; [M+H]+
Name: Metribuzin
Name: 4-amino-6-tert-butyl-3-methylsulfanyl-1,2,4-triazin-5-one
Formula: C8H14N4OS
Exact mass: 214.0888321
SMILES: CSC1=NN=C(C(=O)N1N)C(C)(C)C
InChI: InChI=1S/C8H14N4OS/c1-8(2,3)5-6(13)12(9)7(14-4)11-10-5/h9H2,1-4H3
Instrument: Bruker maXis Impact
Instrument type: LC-ESI-QTOF
Ms type: MS2
Ion mode: POSITIVE
Ionization: ESI
Fragmentation mode: CID
Collision energy: 10 eV
Resolution: 35000
Column name: Acclaim RSLC C18 2.2um, 2.1x100mm, Thermo
Retention time: 6.9 min
Base peak: 215.0957
Precursor m/z: 215.0961
Precursor type: [M+H]+
m/z	relative intensity	assigned
187.1002	14	C7H15N4S+
215.0956	999	C8H15N4OS+
216.0983	79	C7[13]CH15N4OS+
217.0919	25	C6[13]C2H15N4OS+
