Mass spectrum: Acephate; LC-ESI-QTOF; MS2; HILIC; CE: 20 eV; R=35000; [M+H]+
Name: Acephate
Name: N-[methoxy(methylsulfanyl)phosphoryl]acetamide
Formula: C4H10NO3PS
Exact mass: 183.0119008
SMILES: CC(=O)NP(=O)(OC)SC
InChI: InChI=1S/C4H10NO3PS/c1-4(6)5-9(7,8-2)10-3/h1-3H3,(H,5,6,7)
Instrument: Bruker maXis Impact
Instrument type: LC-ESI-QTOF
Ms type: MS2
Ion mode: POSITIVE
Ionization: ESI
Fragmentation mode: CID
Collision energy: 20 eV
Resolution: 35000
Column name: ACQUITY UPLC BEH Amide 1.7 um 2.1x100 mm, Waters
Retention time: 1.766 min
Base peak: 206.0029
Precursor m/z: 184.0192
Precursor type: [M+H]+
m/z	relative intensity	assigned
110.9675	5	CH4O2PS+
124.9827	161	C2H6O2PS+
126.9784	9	C2H6O2P[34]S+
136.0164	6	C3H7NO3P+
142.0087	45	C2H9NO2PS+
142.9934	999	C2H8O3PS+
143.996	24	C[13]CH8O3PS+
144.9896	34	C2H8O3P[34]S+
