Mass spectrum: Acetochlor; LC-ESI-QTOF; MS2; CE: Ramp 20.5-30.8 eV; R=35000; [M+H]+
Name: Acetochlor
Name: 2-chloro-N-(ethoxymethyl)-N-(2-ethyl-6-methylphenyl)acetamide
Formula: C14H20ClNO2
Exact mass: 269.1182566
SMILES: CCOCN(C(=O)CCl)C1=C(C)C=CC=C1CC
InChI: InChI=1S/C14H20ClNO2/c1-4-12-8-6-7-11(3)14(12)16(10-18-5-2)13(17)9-15/h6-8H,4-5,9-10H2,1-3H3
Instrument: Bruker maXis Impact
Instrument type: LC-ESI-QTOF
Ms type: MS2
Ion mode: POSITIVE
Ionization: ESI
Fragmentation mode: CID
Collision energy: Ramp 20.5-30.8 eV
Resolution: 35000
Column name: Acclaim RSLC C18 2.2um, 2.1x100mm, Thermo
Retention time: 10.307 min
Base peak: 224.083
Precursor m/z: 270.1255
Precursor type: [M+H]+
m/z	relative intensity	assigned
59.0486	42	C3H7O+
76.9787	10	C2H2ClO+
90.0109	16	C3H5ClN+
120.0802	9	C8H10N+
131.0724	5	C9H9N+
131.0839	8	C4H16ClO2+
132.0794	45	C3H15ClNO2+
133.0877	237	C9H11N+
134.091	19	C8[13]CH11N+
146.0948	14	C4H17ClNO2+
147.1034	15	C10H13N+
148.1115	999	C10H14N+
149.0948	16	C10H13O+
149.1144	147	C9[13]CH14N+
150.1181	5	C8[13]C2H14N+
160.1104	6	C5H19ClNO2+
173.0813	7	C11H11NO+
188.1067	13	C12H14NO+
206.072	10	C12H13ClN+
224.0835	358	C12H15ClNO+
225.0865	40	C11[13]CH15ClNO+
226.0799	116	C12H15[37]ClNO+
227.0832	9	C12H16ClO2+
