Mass spectrum: DEET; LC-ESI-QTOF; MS2; CE: 20 eV; R=35000; [M+H]+
Name: DEET
Name: N,N-diethyl-3-methylbenzamide
Formula: C12H17NO
Exact mass: 191.1310142
SMILES: CCN(CC)C(=O)C1=CC(C)=CC=C1
InChI: InChI=1S/C12H17NO/c1-4-13(5-2)12(14)11-8-6-7-10(3)9-11/h6-9H,4-5H2,1-3H3
Instrument: Bruker maXis Impact
Instrument type: LC-ESI-QTOF
Ms type: MS2
Ion mode: POSITIVE
Ionization: ESI
Fragmentation mode: CID
Collision energy: 20 eV
Resolution: 35000
Column name: Acclaim RSLC C18 2.2um, 2.1x100mm, Thermo
Retention time: 8.0 min
Base peak: 192.1377
Precursor m/z: 192.1383
Precursor type: [M+H]+
m/z	relative intensity	assigned
119.0486	999	C8H7O+
164.106	3	C10H14NO+
192.1379	674	C12H18NO+
193.1411	62	C11[13]CH18NO+
194.1438	5	C10[13]C2H18NO+
