Mass spectrum: DEET; LC-ESI-QTOF; MS2; CE: 30 eV; R=35000; [M+H]+
Name: DEET
Name: N,N-diethyl-3-methylbenzamide
Formula: C12H17NO
Exact mass: 191.1310142
SMILES: CCN(CC)C(=O)C1=CC=CC(C)=C1
InChI: InChI=1S/C12H17NO/c1-4-13(5-2)12(14)11-8-6-7-10(3)9-11/h6-9H,4-5H2,1-3H3
Instrument: Bruker maXis Impact
Instrument type: LC-ESI-QTOF
Ms type: MS2
Ion mode: POSITIVE
Ionization: ESI
Fragmentation mode: CID
Collision energy: 30 eV
Resolution: 35000
Column name: Acclaim RSLC C18 2.2um, 2.1x100mm, Thermo
Retention time: 8.243 min
Base peak: 192.1377
Precursor m/z: 192.1383
Precursor type: [M+H]+
m/z	relative intensity	assigned
65.0379	11	C5H5+
67.0537	6	C5H7+
72.0439	146	C3H6NO+
72.0801	8	C4H10N+
91.0548	122	C7H7+
92.0576	9	C6[13]CH7+
100.0765	94	C5H10NO+
109.0666	73	C7H9O+
118.0648	7	C8H8N+
119.0499	999	C8H7O+
120.053	72	C7[13]CH7O+
192.1377	486	C12H18NO+
193.141	46	C11[13]CH18NO+
