Mass spectrum: 2,6-Dichlorobenzamide; LC-ESI-QTOF; MS2; CE: Ramp 17.6-26.5 eV; R=35000; [M+H]+
Name: 2,6-Dichlorobenzamide
Formula: C7H5Cl2NO
Exact mass: 188.9748191
SMILES: NC(=O)C1=C(Cl)C=CC=C1Cl
InChI: InChI=1S/C7H5Cl2NO/c8-4-2-1-3-5(9)6(4)7(10)11/h1-3H,(H2,10,11)
Instrument: Bruker maXis Impact
Instrument type: LC-ESI-QTOF
Ms type: MS2
Ion mode: POSITIVE
Ionization: ESI
Fragmentation mode: CID
Collision energy: Ramp 17.6-26.5 eV
Resolution: 35000
Column name: Acclaim RSLC C18 2.2um, 2.1x100mm, Thermo
Retention time: 4.407 min
Base peak: 189.9813
Precursor m/z: 189.9821
Precursor type: [M+H]+
m/z	relative intensity	assigned
144.959	15	C6H3Cl2+
146.9564	7	C6H3Cl[37]Cl+
146.9745	8	C6H5Cl2+
162.9695	10	C6H5Cl2O+
164.9675	5	C6H5Cl[37]ClO+
171.9706	56	C7H4Cl2N+
172.9548	999	C7H3Cl2O+
173.9589	82	C6[13]CH3Cl2O+
174.9518	462	C7H3Cl[37]ClO+
189.9812	328	C7H6Cl2NO+
190.9845	21	C6[13]CH6Cl2NO+
191.9781	166	C7H6Cl[37]ClNO+
