Mass spectrum: Metolachlor; LC-ESI-QTOF; MS2; CE: 10 eV; R=35000; [M+H]+
Name: Metolachlor
Name: 2-chloro-N-(2-ethyl-6-methylphenyl)-N-(1-methoxypropan-2-yl)acetamide
Formula: C15H22ClNO2
Exact mass: 283.1339066
SMILES: CCC1=C(N(C(C)COC)C(=O)CCl)C(C)=CC=C1
InChI: InChI=1S/C15H22ClNO2/c1-5-13-8-6-7-11(2)15(13)17(14(18)9-16)12(3)10-19-4/h6-8,12H,5,9-10H2,1-4H3
Instrument: Bruker maXis Impact
Instrument type: LC-ESI-QTOF
Ms type: MS2
Ion mode: POSITIVE
Ionization: ESI
Fragmentation mode: CID
Collision energy: 10 eV
Resolution: 35000
Column name: Acclaim RSLC C18 2.2um, 2.1x100mm, Thermo
Retention time: 10.2 min
Base peak: 284.1414
Precursor m/z: 284.1412
Precursor type: [M+H]+
m/z	relative intensity	assigned
176.1426	5	C12H18N+
212.0826	4	C11H15ClNO+
252.1151	926	C14H19ClNO+
253.1181	114	C13[13]CH19ClNO+
254.1122	204	C14H19[37]ClNO+
284.1415	999	C15H23ClNO2+
286.1392	170	C14[13]CH23ClNO2+
287.1419	16	C15H23[37]ClNO2+
