Mass spectrum: Isoproturon; LC-ESI-QTOF; MS2; CE: Ramp 18.3-27.4 eV; R=35000; [M+H]+
Name: Isoproturon
Name: 1,1-dimethyl-3-(4-propan-2-ylphenyl)urea
Formula: C12H18N2O
Exact mass: 206.1419132
SMILES: CC(C)C1=CC=C(NC(=O)N(C)C)C=C1
InChI: InChI=1S/C12H18N2O/c1-9(2)10-5-7-11(8-6-10)13-12(15)14(3)4/h5-9H,1-4H3,(H,13,15)
Instrument: Bruker maXis Impact
Instrument type: LC-ESI-QTOF
Ms type: MS2
Ion mode: POSITIVE
Ionization: ESI
Fragmentation mode: CID
Collision energy: Ramp 18.3-27.4 eV
Resolution: 35000
Column name: Acclaim RSLC C18 2.2um, 2.1x100mm, Thermo
Retention time: 8.377 min
Base peak: 207.1488
Precursor m/z: 207.1492
Precursor type: [M+H]+
m/z	relative intensity	assigned
46.0651	62	C2H8N+
72.0442	999	C3H6NO+
73.0473	29	C2[13]CH6NO+
134.0956	52	C9H12N+
162.09	17	C10H12NO+
165.1013	140	C9H13N2O+
166.1038	16	C8[13]CH13N2O+
207.1487	244	C12H19N2O+
208.1516	29	C11[13]CH19N2O+
