Mass spectrum: Trifloxystrobin; LC-ESI-QTOF; MS2; CE: Ramp 23.8-35.7 eV; R=35000; [M+H]+
Name: Trifloxystrobin
Name: ONCZDRURRATYFI-TVJDWZFNSA-N
Name: methyl (2E)-2-methoxyimino-2-[2-[[(E)-1-[3-(trifluoromethyl)phenyl]ethylideneamino]oxymethyl]phenyl]acetate
Formula: C20H19F3N2O4
Exact mass: 408.1296917
SMILES: CO\N=C(\C(=O)OC)C1=C(CO\N=C(/C)C2=CC=CC(=C2)C(F)(F)F)C=CC=C1
InChI: InChI=1S/C20H19F3N2O4/c1-13(14-8-6-9-16(11-14)20(21,22)23)24-29-12-15-7-4-5-10-17(15)18(25-28-3)19(26)27-2/h4-11H,12H2,1-3H3/b24-13+,25-18+
Instrument: Bruker maXis Impact
Instrument type: LC-ESI-QTOF
Ms type: MS2
Ion mode: POSITIVE
Ionization: ESI
Fragmentation mode: CID
Collision energy: Ramp 23.8-35.7 eV
Resolution: 35000
Column name: Acclaim RSLC C18 2.2um, 2.1x100mm, Thermo
Retention time: 11.641 min
Base peak: 409.1372
Precursor m/z: 409.137
Precursor type: [M+H]+
m/z	relative intensity	assigned
89.0384	7	C7H5+
91.0541	21	C7H7+
105.0705	42	C5H10FO+
116.0502	372	C8H6N+
117.0553	47	C7[13]CH6N+
118.065	45	C8H8N+
119.049	15	C8H7O+
119.0721	9	C2H12FO4+
130.0645	26	C9H8N+
131.0731	329	C9H9N+
132.0806	185	C9H10N+
133.0838	18	C8[13]CH10N+
134.0611	49	C5H9FNO2+
145.0252	221	C4H5N2O4+
146.0285	13	C3[13]CH5N2O4+
146.0596	65	C9H8NO+
147.0661	14	C6H11O4+
148.0746	10	C9H10NO+
162.0906	27	C10H12NO+
163.0353	6	C10H5F2+
173.0311	80	C4H6F3NO3+
174.0338	5	C3[13]CH6F3NO3+
175.0617	6	C10H9NO2+
186.0525	999	C11H8NO2+
187.0552	187	C10[13]CH8NO2+
188.0584	5	C9[13]C2H8NO2+
206.0808	181	C11H12NO3+
207.084	26	C10[13]CH12NO3+
251.0022	9	C11H3F2NO4+
252.0056	16	C15HF3N+
252.9993	87	C11H2F3NO3+
254.0028	10	C10[13]CH2F3NO3+
254.9966	13	C13H2FNO4+
339.0365	7	C18H6F3N2O2+
