Mass spectrum: Dichlormid; LC-ESI-QTOF; MS2; CE: 10 eV; R=35000; [M+Na]+
Name: Dichlormid
Name: 2,2-dichloro-N,N-bis(prop-2-enyl)acetamide
Formula: C8H11Cl2NO
Exact mass: 207.0217693
SMILES: C=CCN(CC=C)C(=O)C(Cl)Cl
InChI: InChI=1S/C8H11Cl2NO/c1-3-5-11(6-4-2)8(12)7(9)10/h3-4,7H,1-2,5-6H2
Instrument: Bruker maXis Impact
Instrument type: LC-ESI-QTOF
Ms type: MS2
Ion mode: POSITIVE
Ionization: ESI
Fragmentation mode: CID
Collision energy: 10 eV
Resolution: 35000
Column name: Acclaim RSLC C18 2.2um, 2.1x100mm, Thermo
Retention time: 1.374 min
Base peak: 127.0729
Precursor m/z: 230.011
Precursor type: [M+Na]+
m/z	relative intensity	assigned
170.9718	184	C6H6Cl2Na+
198.9659	999	C7H6Cl2NaO+
200.9635	193	C7H6Cl[37]ClNaO+
230.0078	290	C8H11Cl2NNaO+
