Mass spectrum: Melamine; LC-ESI-QTOF; MS2; CE: Ramp 15.4-23.1 eV; R=35000; [M+H]+
Name: Melamine
Name: 1,3,5-triazine-2,4,6-triamine
Formula: C3H6N6
Exact mass: 126.06539419
SMILES: NC1=NC(N)=NC(N)=N1
InChI: InChI=1S/C3H6N6/c4-1-7-2(5)9-3(6)8-1/h(H6,4,5,6,7,8,9)
Instrument: Bruker maXis Impact
Instrument type: LC-ESI-QTOF
Ms type: MS2
Ion mode: POSITIVE
Ionization: ESI
Fragmentation mode: CID
Collision energy: Ramp 15.4-23.1 eV
Resolution: 35000
Column name: Acclaim RSLC C18 2.2um, 2.1x100mm, Thermo
Retention time: 1.295 min
Base peak: 127.072
Precursor m/z: 127.0727
Precursor type: [M+H]+
m/z	relative intensity	assigned
60.0553	26	CH6N3+
68.0239	25	C2H2N3+
85.0507	83	C2H5N4+
127.0725	999	C3H7N6+
128.0738	38	C2[13]CH7N6+
