Mass spectrum: Melamine; LC-ESI-QTOF; MS2; CE: 30 eV; R=35000; [M+Na]+
Name: Melamine
Name: 1,3,5-triazine-2,4,6-triamine
Formula: C3H6N6
Exact mass: 126.0653942
SMILES: c1(nc(nc(n1)N)N)N
InChI: InChI=1S/C3H6N6/c4-1-7-2(5)9-3(6)8-1/h(H6,4,5,6,7,8,9)
Instrument: Bruker maXis Impact
Instrument type: LC-ESI-QTOF
Ms type: MS2
Ionization: ESI
Ion mode: POSITIVE
Fragmentation mode: CID
Collision energy: 30 eV
Resolution: 35000
Column name: Acclaim RSLC C18 2.2um, 2.1x100mm, Thermo
Retention time: 11.677 min
Base peak: 279.1607
Precursor m/z: 149.0546
Precursor type: [M+Na]+
m/z	relative intensity	assigned
121.0279	999	C3HN6+
