Mass spectrum: Thiocyclam; LC-ESI-QTOF; MS2; HILIC; CE: 20 eV; R=35000; [M+H]+
Name: Thiocyclam
Name: N,N-dimethyltrithian-5-amine
Formula: C5H11NS3
Exact mass: 181.0053624
SMILES: CN(C)C1CSSSC1
InChI: InChI=1S/C5H11NS3/c1-6(2)5-3-7-9-8-4-5/h5H,3-4H2,1-2H3
Instrument: Bruker maXis Impact
Instrument type: LC-ESI-QTOF
Ms type: MS2
Ion mode: POSITIVE
Ionization: ESI
Fragmentation mode: CID
Collision energy: 20 eV
Resolution: 35000
Column name: ACQUITY UPLC BEH Amide 1.7 um 2.1x100 mm, Waters
Retention time: 3.923 min
Base peak: 182.0132
Precursor m/z: 182.0126
Precursor type: [M+H]+
m/z	relative intensity	assigned
136.9549	999	C3H5S3+
137.9573	43	C2[13]CH5S3+
138.9503	120	C3H5S2[34]S+
182.0124	102	C5H12NS3+
184.0078	12	C5H12NS2[34]S+
