Mass spectrum: Dichlormid; LC-ESI-QTOF; MS2; CE: 20 eV; R=35000; [M+Na]+
Name: Dichlormid
Name: 2,2-dichloro-N,N-bis(prop-2-enyl)acetamide
Formula: C8H11Cl2NO
Exact mass: 207.0217693
SMILES: C=CCN(CC=C)C(=O)C(Cl)Cl
InChI: InChI=1S/C8H11Cl2NO/c1-3-5-11(6-4-2)8(12)7(9)10/h3-4,7H,1-2,5-6H2
Instrument: Bruker maXis Impact
Instrument type: LC-ESI-QTOF
Ms type: MS2
Ionization: ESI
Ion mode: POSITIVE
Fragmentation mode: CID
Collision energy: 20 eV
Resolution: 35000
Column name: Acclaim RSLC C18 2.2um, 2.1x100mm, Thermo
Retention time: 1.633 min
Base peak: 127.0727
Precursor m/z: 230.011
Precursor type: [M+Na]+
m/z	relative intensity	assigned
124.9811	999	C3H5Cl2N+
170.9699	585	C6H6Cl2Na+
