Mass spectrum: Melamine; LC-ESI-QTOF; MS2; HILIC; CE: 20 eV; R=35000; [M+H]+
Name: Melamine
Name: 1,3,5-triazine-2,4,6-triamine
Formula: C3H6N6
Exact mass: 126.0653942
SMILES: c1(nc(nc(n1)N)N)N
InChI: InChI=1S/C3H6N6/c4-1-7-2(5)9-3(6)8-1/h(H6,4,5,6,7,8,9)
Instrument: Bruker maXis Impact
Instrument type: LC-ESI-QTOF
Ms type: MS2
Ion mode: POSITIVE
Ionization: ESI
Fragmentation mode: CID
Collision energy: 20 eV
Resolution: 35000
Column name: ACQUITY UPLC BEH Amide 1.7 um 2.1x100mm, Waters
Retention time: 6.631 min
Base peak: 127.0729
Precursor m/z: 127.0727
Precursor type: [M+H]+
m/z	relative intensity	assigned
127.0724	999	C3H7N6+
