Mass spectrum: 3,6,9,12-Tetraoxatetracosan-1-ol; LC-ESI-QTOF; MS2; CE: RAMP 20-30 eV; R=35000; [M+H]+
Name: 3,6,9,12-Tetraoxatetracosan-1-ol
Name: Tetraethylene glycol monododecyl ether
Name: 2-[2-[2-(2-dodecoxyethoxy)ethoxy]ethoxy]ethanol
Formula: C20H42O5
Exact mass: 362.3032244
SMILES: CCCCCCCCCCCCOCCOCCOCCOCCO
InChI: InChI=1S/C20H42O5/c1-2-3-4-5-6-7-8-9-10-11-13-22-15-17-24-19-20-25-18-16-23-14-12-21/h21H,2-20H2,1H3
Instrument: Bruker maXis Impact
Instrument type: LC-ESI-QTOF
Ms type: MS2
Ionization: ESI
Ion mode: POSITIVE
Fragmentation mode: CID
Collision energy: RAMP 20-30 eV
Resolution: 35000
Column name: Acclaim RSLC C18 2.2um, 2.1x100mm, Thermo
Retention time: 13.4 min
Base peak: 380.3381
Precursor m/z: 363.3105
Precursor type: [M+H]+
m/z	relative intensity	assigned
45.034	433	C2H5O+
55.0544	35	C4H7+
57.0696	999	C4H9+
69.0699	48	C5H9+
71.0852	725	C5H11+
73.0645	73	C4H9O+
83.0849	31	C6H11+
85.1013	257	C6H13+
87.0438	34	C4H7O2+
89.06	732	C4H9O2+
97.1017	14	C7H13+
99.1173	22	C7H15+
107.0703	93	C4H11O3+
111.1162	15	C8H15+
113.1349	18	C8H17+
117.0929	15	C6H13O2+
133.0858	950	C6H13O3+
149.0224	30	C8H5O3+
151.0957	170	C6H15O4+
165.0888	15	C10H13O2+
169.1947	49	C12H25+
177.1122	135	C8H17O4+
195.1225	389	C8H19O5+
196.1251	48	C15H16+
257.2485	16	C16H33O2+
301.1414	33	C18H21O4+
363.3119	28	C20H43O5+
