Mass spectrum: 5-Methyl-1H-benzotriazole; LC-ESI-QTOF; MS2; HILIC; CE: 50 eV; R=35000; [M+H]+
Name: 5-Methyl-1H-benzotriazole
Name: 5-methyl-2H-benzotriazole
Formula: C7H7N3
Exact mass: 133.0639972
SMILES: c12c(cc(C)cc2)nn[nH]1
InChI: InChI=1S/C7H7N3/c1-5-2-3-6-7(4-5)9-10-8-6/h2-4H,1H3,(H,8,9,10)
Instrument: Bruker maXis Impact
Instrument type: LC-ESI-QTOF
Ms type: MS2
Ion mode: POSITIVE
Ionization: ESI
Fragmentation mode: CID
Collision energy: 50 eV
Resolution: 35000
Column name: ACQUITY UPLC BEH Amide 1.7 um 2.1x100mm, Waters
Retention time: 1.566 min
Base peak: 134.0719
Precursor m/z: 134.0713
Precursor type: [M+H]+
m/z	relative intensity	assigned
134.0697	999	C7H8N3+
