Mass spectrum: 3-Nitrobenzenesulfonic acid; LC-ESI-QTOF; MS2; CE: RAMP 10-30 eV; R=35000; [M-H]-
Name: 3-Nitrobenzenesulfonic acid
Formula: C6H5NO5S
Exact mass: 202.9888433
SMILES: c1cc(cc(c1)S(=O)(=O)O)[N+](=O)[O-]
InChI: InChI=1S/C6H5NO5S/c8-7(9)5-2-1-3-6(4-5)13(10,11)12/h1-4H,(H,10,11,12)
Instrument: Bruker maXis Impact
Instrument type: LC-ESI-QTOF
Ms type: MS2
Ionization: ESI
Ion mode: NEGATIVE
Fragmentation mode: CID
Collision energy: RAMP 10-30 eV
Resolution: 35000
Column name: Acclaim RSLC C18 2.2um, 2.1x100mm, Thermo
Retention time: 2.99 min
Base peak: 201.9821
Precursor m/z: 201.9816
Precursor type: [M-H]-
m/z	relative intensity	assigned
63.9625	303	O2S-
79.9577	999	O3S-
80.0268	101	C5H4O-
108.0215	127	C6H4O2-
138.0188	485	C6H4NO3-
143.9877	407	C5H4O3S-
155.9882	241	C6H4O3S-
158.9781	101	C5H3O4S-
171.9825	431	C6H4O4S-
201.9808	957	C6H4NO5S-
