Mass spectrum: lauryl sulfate; LC-ESI-QTOF; MS2; CE: 10 eV; R=35000; [M-H]-
Name: lauryl sulfate
Name: dodecyl sulfate;hydron
Formula: C12H26O4S
Exact mass: 266.1551803
SMILES: CCCCCCCCCCCCOS(=O)(=O)O
InChI: InChI=1S/C12H26O4S/c1-2-3-4-5-6-7-8-9-10-11-12-16-17(13,14)15/h2-12H2,1H3,(H,13,14,15)
Instrument: Bruker maXis Impact
Instrument type: LC-ESI-QTOF
Ms type: MS2
Ionization: ESI
Ion mode: NEGATIVE
Fragmentation mode: CID
Collision energy: 10 eV
Resolution: 35000
Column name: Acclaim RSLC C18 2.2um, 2.1x100mm, Thermo
Retention time: 11.2 min
Base peak: 265.1468
Precursor m/z: 265.1479
Precursor type: [M-H]-
m/z	relative intensity	assigned
265.1466	999	C12H25O4S-
