Mass spectrum: 2-Aminobenzothiazole; LC-ESI-QTOF; MS2; HILIC; CE: 30 eV; R=35000; [M+H]+
Name: 2-Aminobenzothiazole
Name: 1,3-benzothiazol-2-amine
Formula: C7H6N2S
Exact mass: 150.0251692
SMILES: c1ccc2c(c1)nc(s2)N
InChI: InChI=1S/C7H6N2S/c8-7-9-5-3-1-2-4-6(5)10-7/h1-4H,(H2,8,9)
Instrument: Bruker maXis Impact
Instrument type: LC-ESI-QTOF
Ms type: MS2
Ion mode: POSITIVE
Ionization: ESI
Fragmentation mode: CID
Collision energy: 30 eV
Resolution: 35000
Column name: ACQUITY UPLC BEH Amide 1.7 um 2.1x100 mm, Waters
Retention time: 1.615 min
Base peak: 151.0337
Precursor m/z: 151.0324
Precursor type: [M+H]+
m/z	relative intensity	assigned
109.0114	28	C6H5S+
118.053	80	C7H6N2+
119.0575	6	C6[13]CH6N2+
124.0222	359	C6H6NS+
125.025	24	C5[13]CH6NS+
126.0176	18	C6H6N[34]S+
134.0063	16	C7H4NS+
150.025	15	C7H6N2S+
151.0331	999	C7H7N2S+
152.0358	71	C6[13]CH7N2S+
153.0287	41	C7H7N2[34]S+
