Mass spectrum: Diuron-desdimethyl; LC-ESI-QTOF; MS2; CE: 50 eV; R=35000; [M+H]+
Name: Diuron-desdimethyl
Name: 1-(3,4-Dichlorophenyl)urea
Name: (3,4-dichlorophenyl)urea
Formula: C7H6Cl2N2O
Exact mass: 203.9857182
SMILES: NC(=O)NC1=CC(Cl)=C(Cl)C=C1
InChI: InChI=1S/C7H6Cl2N2O/c8-5-2-1-4(3-6(5)9)11-7(10)12/h1-3H,(H3,10,11,12)
Instrument: Bruker maXis Impact
Instrument type: LC-ESI-QTOF
Ms type: MS2
Ion mode: POSITIVE
Ionization: ESI
Fragmentation mode: CID
Collision energy: 50 eV
Resolution: 35000
Column name: Acclaim RSLC C18 2.2um, 2.1x100mm, Thermo
Retention time: 7.8 min
Base peak: 204.9927
Precursor m/z: 204.993
Precursor type: [M+H]+
m/z	relative intensity	assigned
125.002	58	C6H4ClN+
127.0175	999	C6H6ClN+
128.0206	73	C5[13]CH6ClN+
129.0146	293	C6H6[37]ClN+
132.9599	101	C5H3Cl2+
134.9567	101	C5H3[37]Cl[35]Cl+
