Mass spectrum: 2-Aminobenzothiazole; LC-ESI-QTOF; MS2; HILIC; CE: 50 eV; R=35000; [M+H]+
Name: 2-Aminobenzothiazole
Name: 1,3-benzothiazol-2-amine
Formula: C7H6N2S
Exact mass: 150.0251692
SMILES: c1ccc2c(c1)nc(s2)N
InChI: InChI=1S/C7H6N2S/c8-7-9-5-3-1-2-4-6(5)10-7/h1-4H,(H2,8,9)
Instrument: Bruker maXis Impact
Instrument type: LC-ESI-QTOF
Ms type: MS2
Ion mode: POSITIVE
Ionization: ESI
Fragmentation mode: CID
Collision energy: 50 eV
Resolution: 35000
Column name: ACQUITY UPLC BEH Amide 1.7 um 2.1x100mm, Water
Retention time: 1.615 min
Base peak: 151.0337
Precursor m/z: 151.0324
Precursor type: [M+H]+
m/z	relative intensity	assigned
108.0031	58	C6H4S+
109.0109	175	C6H5S+
118.0531	762	C7H6N2+
119.0566	87	C6[13]CH6N2+
122.0067	192	C6H4NS+
123.0139	173	C6H5NS+
124.0218	999	C6H6NS+
125.0237	82	C5[13]CH6NS+
126.0179	73	C6H6N[34]S+
132.9985	244	C7H3NS+
134.0068	275	C7H4NS+
135.0119	71	C7H5NS+
150.0255	203	C7H6N2S+
151.0326	506	C7H7N2S+
