Mass spectrum: 3,4-dichloroaniline; LC-ESI-QTOF; MS2; HILIC; CE: 50 eV; R=35000; [M+H]+
Name: 3,4-dichloroaniline
Formula: C6H5Cl2N
Exact mass: 160.9799045
SMILES: c1cc(c(cc1N)Cl)Cl
InChI: InChI=1S/C6H5Cl2N/c7-5-2-1-4(9)3-6(5)8/h1-3H,9H2
Instrument: Bruker maXis Impact
Instrument type: LC-ESI-QTOF
Ms type: MS2
Ion mode: POSITIVE
Ionization: ESI
Fragmentation mode: CID
Collision energy: 50 eV
Resolution: 35000
Column name: ACQUITY UPLC BEH Amide 1.7 um 2.1x100mm, Water
Retention time: 1.415 min
Base peak: 313.1527
Precursor m/z: 161.9872
Precursor type: [M+H]+
m/z	relative intensity	assigned
127.0166	999	C6H6ClN+
