Mass spectrum: 3,6,9,12-Tetraoxatetracosan-1-ol; LC-ESI-QTOF; MS2; CE: 20 eV; R=35000; [M+H]+
Name: 3,6,9,12-Tetraoxatetracosan-1-ol
Name: Tetraethylene glycol monododecyl ether
Name: 2-[2-[2-(2-dodecoxyethoxy)ethoxy]ethoxy]ethanol
Formula: C20H42O5
Exact mass: 362.3032244
SMILES: CCCCCCCCCCCCOCCOCCOCCOCCO
InChI: InChI=1S/C20H42O5/c1-2-3-4-5-6-7-8-9-10-11-13-22-15-17-24-19-20-25-18-16-23-14-12-21/h21H,2-20H2,1H3
Instrument: Bruker maXis Impact
Instrument type: LC-ESI-QTOF
Ms type: MS2
Ionization: ESI
Ion mode: POSITIVE
Fragmentation mode: CID
Collision energy: 20 eV
Resolution: 35000
Column name: Acclaim RSLC C18 2.2um, 2.1x100mm, Thermo
Retention time: 13.5 min
Base peak: 380.3388
Precursor m/z: 363.3105
Precursor type: [M+H]+
m/z	relative intensity	assigned
133.0853	925	C6H13O3+
135.101	9	C6H15O3+
149.0238	10	C8H5O3+
151.0956	191	C6H15O4+
169.1944	137	C12H25+
177.1113	299	C8H17O4+
195.1219	999	C8H19O5+
196.1254	79	C7[13]CH19O5+
197.1268	7	C7H19NO5+
201.1507	6	C11H21O3+
213.2211	58	C14H29O+
214.2261	8	C14H30O+
257.2477	54	C16H33O2+
258.2497	11	C16H34O2+
275.2561	9	C16H35O3+
301.1407	17	C18H21O4+
301.272	8	C18H37O3+
319.2858	22	C18H39O4+
320.2887	7	C18H40O4+
363.3107	207	C20H43O5+
365.3175	10	C19H43NO5+
