Mass spectrum: 1-Chlorobenzotriazole; LC-ESI-QTOF; MS2; HILIC; CE: 10 eV; R=35000; [M+H]+
Name: 1-Chlorobenzotriazole
Formula: C6H4ClN3
Exact mass: 153.0093748
SMILES: C1=CC=C2C(=C1)N=NN2Cl
InChI: InChI=1S/C6H4ClN3/c7-10-6-4-2-1-3-5(6)8-9-10/h1-4H
Instrument: Bruker maXis Impact
Instrument type: LC-ESI-QTOF
Ms type: MS2
Ion mode: POSITIVE
Ionization: ESI
Fragmentation mode: CID
Collision energy: 10 eV
Resolution: 35000
Column name: ACQUITY  UPLC BEH Amide 1.7 um 2.1x100mm, Waters
Retention time: 1.529 min
Base peak: 230.0081
Precursor m/z: 154.0167
Precursor type: [M+H]+
m/z	relative intensity	assigned
126.0109	10	C6H5ClN+
154.0172	999	C6H5ClN3+
155.0201	57	C5[13]CH5ClN3+
156.0142	258	C6H5[37]ClN3+
