Mass spectrum: Irgarol; LC-ESI-QTOF; MS2; CE: 20 eV; R=35000; [M+H]+
Name: Irgarol
Name: Cybutryne
Name: 2-N-tert-butyl-4-N-cyclopropyl-6-methylsulfanyl-1,3,5-triazine-2,4-diamine
Formula: C11H19N5S
Exact mass: 253.1361166
SMILES: CSC1=NC(NC(C)(C)C)=NC(NC2CC2)=N1
InChI: InChI=1S/C11H19N5S/c1-11(2,3)16-9-13-8(12-7-5-6-7)14-10(15-9)17-4/h7H,5-6H2,1-4H3,(H2,12,13,14,15,16)
Instrument: Bruker maXis Impact
Instrument type: LC-ESI-QTOF
Ms type: MS2
Ion mode: POSITIVE
Ionization: ESI
Fragmentation mode: CID
Collision energy: 20 eV
Resolution: 35000
Column name: Acclaim RSLC C18 2.2um, 2.1x100mm, Thermo
Retention time: 10.2 min
Base peak: 254.1435
Precursor m/z: 254.1434
Precursor type: [M+H]+
m/z	relative intensity	assigned
125.0812	6	C5H9N4+
198.0807	999	C7H12N5S+
199.826	80	
200.0763	38	C7H12N5[34]S+
254.1437	504	C11H20N5S+
255.1457	39	C10[13]SH20N5S+
256.1396	10	C11H20N5[34]S+
