Mass spectrum: 3,4-dichloroaniline; LC-ESI-QTOF; MS2; HILIC; CE: 20 eV; R=35000; [M+H]+
Name: 3,4-dichloroaniline
Formula: C6H5Cl2N
Exact mass: 160.9799045
SMILES: c1cc(c(cc1N)Cl)Cl
InChI: InChI=1S/C6H5Cl2N/c7-5-2-1-4(9)3-6(5)8/h1-3H,9H2
Instrument: Bruker maXis Impact
Instrument type: LC-ESI-QTOF
Ms type: MS2
Ion mode: POSITIVE
Ionization: ESI
Fragmentation mode: CID
Collision energy: 20 eV
Resolution: 35000
Column name: ACQUITY UPLC BEH Amide 1.7 um 2.1x100 mm, Waters
Retention time: 1.414 min
Base peak: 313.1542
Precursor m/z: 161.9872
Precursor type: [M+H]+
m/z	relative intensity	assigned
126.0101	11	C6H5ClN+
127.0173	999	C6H6ClN+
128.0203	79	C5[13]CH6ClN+
129.0143	251	C6H6[37]ClN+
144.9587	17	C6H3Cl2+
160.9775	10	C6H5Cl2N+
161.9861	466	C6H6Cl2N+
162.9889	38	C5[13]CH6Cl2N+
163.9826	300	C6H6Cl[37]ClN+
