Mass spectrum: 2-Aminobenzothiazole; LC-ESI-QTOF; MS2; HILIC; CE: 20 eV; R=35000; [M+H]+
Name: 2-Aminobenzothiazole
Name: 1,3-benzothiazol-2-amine
Formula: C7H6N2S
Exact mass: 150.0251692
SMILES: c1ccc2c(c1)nc(s2)N
InChI: InChI=1S/C7H6N2S/c8-7-9-5-3-1-2-4-6(5)10-7/h1-4H,(H2,8,9)
Instrument: Bruker maXis Impact
Instrument type: LC-ESI-QTOF
Ms type: MS2
Ion mode: POSITIVE
Ionization: ESI
Fragmentation mode: CID
Collision energy: 20 eV
Resolution: 35000
Column name: ACQUITY UPLC BEH Amide 1.7 um 2.1x100 mm, Waters
Retention time: 1.615 min
Base peak: 151.0339
Precursor m/z: 151.0324
Precursor type: [M+H]+
m/z	relative intensity	assigned
109.0116	9	C6H5S+
118.0531	18	C7H6N2+
124.0224	200	C6H6NS+
125.0251	13	C5[13]CH6NS+
126.018	8	C6H6N[34]S+
151.0344	999	C7H7N2S+
