Mass spectrum: 3,6,9,12-Tetraoxatetracosan-1-ol; LC-ESI-QTOF; MS2; CE: 10 eV; R=35000; [M+H]+
Name: 3,6,9,12-Tetraoxatetracosan-1-ol
Name: Tetraethylene glycol monododecyl ether
Name: 2-[2-[2-(2-dodecoxyethoxy)ethoxy]ethoxy]ethanol
Formula: C20H42O5
Exact mass: 362.3032244
SMILES: CCCCCCCCCCCCOCCOCCOCCOCCO
InChI: InChI=1S/C20H42O5/c1-2-3-4-5-6-7-8-9-10-11-13-22-15-17-24-19-20-25-18-16-23-14-12-21/h21H,2-20H2,1H3
Instrument: Bruker maXis Impact
Instrument type: LC-ESI-QTOF
Ms type: MS2
Ionization: ESI
Ion mode: POSITIVE
Fragmentation mode: CID
Collision energy: 10 eV
Resolution: 35000
Column name: Acclaim RSLC C18 2.2um, 2.1x100mm, Thermo
Retention time: 13.5 min
Base peak: 380.3392
Precursor m/z: 363.3105
Precursor type: [M+H]+
m/z	relative intensity	assigned
133.0851	46	C6H13O3+
151.0961	6	C6H15O4+
169.1956	9	C12H25+
177.1117	35	C8H17O4+
195.1223	148	C8H19O5+
196.1253	15	C7[13]CH19O5+
213.2218	7	C14H29O+
257.2479	29	C16H33O2+
258.2528	5	C15[13]CH33O2+
301.2751	7	C18H37O3+
347.3151	6	C20H43O4+
363.3116	999	C20H43O5+
365.3168	28	C19H43NO5+
