Mass spectrum: 3,4-dichloroaniline; LC-ESI-QTOF; MS2; HILIC; CE: 40 eV; R=35000; [M+H]+
Name: 3,4-dichloroaniline
Formula: C6H5Cl2N
Exact mass: 160.9799045
SMILES: c1cc(c(cc1N)Cl)Cl
InChI: InChI=1S/C6H5Cl2N/c7-5-2-1-4(9)3-6(5)8/h1-3H,9H2
Instrument: Bruker maXis Impact
Instrument type: LC-ESI-QTOF
Ms type: MS2
Ion mode: POSITIVE
Ionization: ESI
Fragmentation mode: CID
Collision energy: 40 eV
Resolution: 35000
Column name: ACQUITY UPLC BEH Amide 1.7 um 2.1x100mm, Waters
Retention time: 1.414 min
Base peak: 313.1534
Precursor m/z: 161.9872
Precursor type: [M+H]+
m/z	relative intensity	assigned
126.0088	39	C6H5ClN+
127.0171	999	C6H6ClN+
129.0138	342	C6H6[37]ClN+
144.959	49	C6H3Cl2+
160.9779	44	C6H5Cl2N+
