Mass spectrum: 2-Aminobenzothiazole; LC-ESI-QTOF; MS2; HILIC; CE: 40 eV; R=35000; [M+H]+
Name: 2-Aminobenzothiazole
Name: 1,3-benzothiazol-2-amine
Formula: C7H6N2S
Exact mass: 150.0251692
SMILES: c1ccc2c(c1)nc(s2)N
InChI: InChI=1S/C7H6N2S/c8-7-9-5-3-1-2-4-6(5)10-7/h1-4H,(H2,8,9)
Instrument: Bruker maXis Impact
Instrument type: LC-ESI-QTOF
Ms type: MS2
Ion mode: POSITIVE
Ionization: ESI
Fragmentation mode: CID
Collision energy: 40 eV
Resolution: 35000
Column name: ACQUITY UPLC BEH Amide 1.7 um 2.1x100mm, Waters
Retention time: 1.616 min
Base peak: 151.0341
Precursor m/z: 151.0324
Precursor type: [M+H]+
m/z	relative intensity	assigned
108.0041	13	C6H4S+
109.0113	128	C6H5S+
118.0531	457	C7H6N2+
119.0578	50	C6[13]CH6N2+
122.0065	18	C6H4NS+
123.0144	50	C6H5NS+
124.0223	955	C6H6NS+
125.0253	73	C5[13]CH6NS+
126.0174	49	C6H6N[34]S+
132.999	45	C7H3NS+
134.0062	120	C7H4NS+
135.0132	27	C7H5NS+
150.0252	105	C7H6N2S+
151.0332	999	C7H7N2S+
152.0357	87	C6[13]CH7N2S+
153.0291	57	C7H7N2[34]S+
