Mass spectrum: 2-Hydroxybenzothiazole; LC-ESI-QTOF; MS2; CE: Ramp 16.3-24.4 eV; R=35000; [M+H]+
Name: 2-Hydroxybenzothiazole
Name: 2(3H)-Benzothiazolone
Name: 3H-1,3-benzothiazol-2-one
Formula: C7H5NOS
Exact mass: 151.00918478
SMILES: O=C1NC2=CC=CC=C2S1
InChI: InChI=1S/C7H5NOS/c9-7-8-5-3-1-2-4-6(5)10-7/h1-4H,(H,8,9)
Instrument: Bruker maXis Impact
Instrument type: LC-ESI-QTOF
Ms type: MS2
Ion mode: POSITIVE
Ionization: ESI
Fragmentation mode: CID
Collision energy: Ramp 16.3-24.4 eV
Resolution: 35000
Column name: Acclaim RSLC C18 2.2um, 2.1x100mm, Thermo
Retention time: 6.497 min
Base peak: 152.0154
Precursor m/z: 152.0165
Precursor type: [M+H]+
m/z	relative intensity	assigned
65.0382	5	C5H5+
80.0495	6	C5H6N+
92.0493	9	C6H6N+
109.0109	8	C6H5S+
119.0362	42	C7H5NO+
124.0205	99	C6H6NS+
125.0239	9	C5[13]CH6NS+
126.0162	5	C6H6N[34]S+
134.0048	13	C7H4NS+
152.0153	999	C7H6NOS+
153.0181	70	C6[13]CH6NOS+
154.0107	22	C7H6NO[34]S+
