Mass spectrum: N,N,N`,N`-Tetrakis(2-hydroxyethyl)hexanediamide; LC-ESI-QTOF; MS2; CE: 10 eV; R=35000; [M+H]+
Name: N,N,N`,N`-Tetrakis(2-hydroxyethyl)hexanediamide
Name: 6334-25-4
Formula: C14H28N2O6
Exact mass: 320.1947366
SMILES: C(CCC(=O)N(CCO)CCO)CC(=O)N(CCO)CCO
InChI: InChI=1S/C14H28N2O6/c17-9-5-15(6-10-18)13(21)3-1-2-4-14(22)16(7-11-19)8-12-20/h17-20H,1-12H2
Instrument: Bruker maXis Impact
Instrument type: LC-ESI-QTOF
Ms type: MS2
Ionization: ESI
Ion mode: POSITIVE
Fragmentation mode: CID
Collision energy: 10 eV
Resolution: 35000
Column name: Acclaim RSLC C18 2.2um, 2.1x100mm, Thermo
Retention time: 2.6 min
Base peak: 321.202
Precursor m/z: 321.202
Precursor type: [M+H]+
m/z	relative intensity	assigned
216.1224	86	C10H18NO4+
217.1249	11	C9[13]CH18NO4+
303.1915	384	C14H27N2O5+
304.1941	62	C13[13]CH27N2O5+
305.1985	9	C13H27N3O5+
321.2021	999	C14H29N2O6+
323.2081	22	C13H29N3O6+
