Mass spectrum: Methyl n-octanoate; GC-APCI-QTOF; MS2; CE: 20 eV; R=35000; [M]+
Name: Methyl n-octanoate
Formula: C9H18O2
Exact mass: 158.1307
SMILES: CCCCCCCC(=O)OC
InChI: InChI=1S/C9H18O2/c1-3-4-5-6-7-8-9(10)11-2/h3-8H2,1-2H3
Instrument: Bruker 450 GC coupled to maXis Impact
Instrument type: GC-APCI-QTOF
Base peak: 158.1563
Precursor m/z: 158.1301
Precursor type: [M]+
m/z	relative intensity	assigned
57.07	999	C4H9+
