Mass spectrum: 2-n-Octyl-4-isothiazolin-3-one; GC-APCI-QTOF; MS2; CE: 20 eV; R=35000; [M+H]+
Name: 2-n-Octyl-4-isothiazolin-3-one
Formula: C11H19NOS
Exact mass: 213.1187
SMILES: CCCCCCCCN1C(=O)C=CS1
InChI: InChI=1S/C11H19NOS/c1-2-3-4-5-6-7-9-12-11(13)8-10-14-12/h8,10H,2-7,9H2,1H3
Instrument: Bruker 450 GC coupled to maXis Impact
Instrument type: GC-APCI-QTOF
Base peak: 214.1437
Precursor m/z: 214.126
Precursor type: [M+H]+
m/z	relative intensity	assigned
55.0185	999	C3H3O+
