Mass spectrum: Benzhydrol; GC-APCI-QTOF; MS2; CE: 10 eV; R=35000; [M]+
Name: Benzhydrol
Formula: C13H12O
Exact mass: 184.0888
SMILES: C1=CC=C(C=C1)C(C2=CC=CC=C2)O
InChI: InChI=1S/C13H12O/c14-13(11-7-3-1-4-8-11)12-9-5-2-6-10-12/h1-10,13-14H
Instrument: Bruker 450 GC coupled to maXis Impact
Instrument type: GC-APCI-QTOF
Base peak: 167.0866
Precursor m/z: 184.0883
Precursor type: [M]+
m/z	relative intensity	assigned
105.0332	103	C7H5O+
166.0805	56	C13H10+
183.0809	999	C13H11O+
184.0888	750	C13H12O+
