Mass spectrum: Tetramethylene glycol dimethacrylate; GC-APCI-QTOF; MS2; CE: 40 eV; R=35000; [M+H]+
Name: Tetramethylene glycol dimethacrylate
Formula: C12H18O4
Exact mass: 226.1205
SMILES: CC(=C)C(=O)OCCCCOC(=O)C(=C)C
InChI: InChI=1S/C12H18O4/c1-9(2)11(13)15-7-5-6-8-16-12(14)10(3)4/h1,3,5-8H2,2,4H3
Instrument: Bruker 450 GC coupled to maXis Impact
Instrument type: GC-APCI-QTOF
Base peak: 181.0817
Precursor m/z: 227.1278
Precursor type: [M+H]+
m/z	relative intensity	assigned
152.0455	60	C8H8O3+
152.0646	9	C12H8+
153.0513	999	C8H9O3+
171.0618	23	C8H11O4+
