Mass spectrum: Dodecyl acrylate; GC-APCI-QTOF; MS2; CE: 50 eV; R=35000; [M]+
Name: Dodecyl acrylate
Formula: C15H28O2
Exact mass: 240.2089
SMILES: CCCCCCCCCCCCOC(=O)C=C
InChI: InChI=1S/C15H28O2/c1-3-5-6-7-8-9-10-11-12-13-14-17-15(16)4-2/h4H,2-3,5-14H2,1H3
Instrument: Bruker 450 GC coupled to maXis Impact
Instrument type: GC-APCI-QTOF
Base peak: 270.2054
Precursor m/z: 240.2084
Precursor type: [M]+
m/z	relative intensity	assigned
55.0545	999	C4H7+
57.0704	925	C4H9+
79.0553	499	C6H7+
