Mass spectrum: 4-Methoxyphenol; GC-APCI-QTOF; MS2; CE: 50 eV; R=35000; [M+H]+
Name: 4-Methoxyphenol
Formula: C7H8O2
Exact mass: 124.0524
SMILES: COC1=CC=C(C=C1)O
InChI: InChI=1S/C7H8O2/c1-9-7-4-2-6(8)3-5-7/h2-5,8H,1H3
Instrument: Bruker 450 GC coupled to maXis Impact
Instrument type: GC-APCI-QTOF
Ms type: MS2
Ion mode: POSITIVE
Ionization: APCI
Fragmentation mode: CID
Collision energy: 50 eV
Resolution: 35000
Column name: Rxi-5Sil MS column, 30m, 0.25mm i.d., 0.25 µm film thickness, Restek
Retention time: 9.922 min
Base peak: 124.0517
Precursor m/z: 125.0597
Precursor type: [M+H]+
m/z	relative intensity	assigned
51.0227	770	C4H3+
53.0382	999	C4H5+
