Mass spectrum: Vinyltriethoxysilane; GC-APCI-QTOF; MS2; CE: 10 eV; R=35000; [M]+
Name: Vinyltriethoxysilane
Formula: C8H18O3Si
Exact mass: 190.1025
SMILES: CCO[Si](C=C)(OCC)OCC
InChI: InChI=1S/C8H18O3Si/c1-5-9-12(8-4,10-6-2)11-7-3/h8H,4-7H2,1-3H3
Instrument: Bruker 450 GC coupled to maXis Impact
Instrument type: GC-APCI-QTOF
Ms type: MS2
Ion mode: POSITIVE
Ionization: APCI
Fragmentation mode: CID
Collision energy: 10 eV
Resolution: 35000
Column name: Rxi-5Sil MS column, 30m, 0.25mm i.d., 0.25 µm film thickness, Restek
Retention time: 8.113 min
Base peak: 263.9856
Precursor m/z: 190.102
Precursor type: [M]+
m/z	relative intensity	assigned
133.0493	999	C8H9Si+
