Mass spectrum: Dodecanoic acid; GC-APCI-QTOF; MS2; CE: 50 eV; R=35000; [M+H]+
Name: Dodecanoic acid
Formula: C12H24O2
Exact mass: 200.1776
SMILES: CCCCCCCCCCCC(=O)O
InChI: InChI=1S/C12H24O2/c1-2-3-4-5-6-7-8-9-10-11-12(13)14/h2-11H2,1H3,(H,13,14)
Instrument: Bruker 450 GC coupled to maXis Impact
Instrument type: GC-APCI-QTOF
Ms type: MS2
Ion mode: POSITIVE
Ionization: APCI
Fragmentation mode: CID
Collision energy: 50 eV
Resolution: 35000
Column name: Rxi-5Sil MS column, 30m, 0.25mm i.d., 0.25 µm film thickness, Restek
Retention time: 11.245 min
Base peak: 201.1851
Precursor m/z: 201.1849
Precursor type: [M+H]+
m/z	relative intensity	assigned
53.0396	483	C4H5+
55.055	999	C4H7+
