Mass spectrum: Tripropilamine; LC-ESI-QTOF; MS2; HILIC; CE: 10 eV; R=35000; [M+H]+
Name: Tripropilamine
Name: TRIPROPYLAMINE
Name: N,N-dipropylpropan-1-amine
Formula: C9H21N
Exact mass: 143.1673997
SMILES: CCCN(CCC)CCC
InChI: InChI=1S/C9H21N/c1-4-7-10(8-5-2)9-6-3/h4-9H2,1-3H3
Instrument: Bruker maXis Impact
Instrument type: LC-ESI-QTOF
Ms type: MS2
Ion mode: POSITIVE
Ionization: ESI
Fragmentation mode: CID
Collision energy: 10 eV
Resolution: 35000
Column name: ACQUITY UPLC BEH Amide 1.7 um 2.1x100mm, Waters
Retention time: 5.829 min
Base peak: 144.1732
Precursor m/z: 144.1747
Precursor type: [M+H]+
m/z	relative intensity	assigned
144.1731	999	C9H22N+
145.1761	85	C8[13]CH22N+
