Mass spectrum: Agmatine; LC-ESI-QTOF; MS2; HILIC; CE: 10 eV; R=35000; [M+H]+
Name: Agmatine
Name: 2-(4-aminobutyl)guanidine
Formula: C5H14N4
Exact mass: 130.1218464
SMILES: C(CCNC(=N)N)CN
InChI: InChI=1S/C5H14N4/c6-3-1-2-4-9-5(7)8/h1-4,6H2,(H4,7,8,9)
Instrument: Bruker maXis Impact
Instrument type: LC-ESI-QTOF
Ms type: MS2
Ion mode: POSITIVE
Ionization: ESI
Fragmentation mode: CID
Collision energy: 10 eV
Resolution: 35000
Column name: ACQUITY  UPLC BEH Amide 1.7 um 2.1x100mm, Waters
Retention time: 16.610 min
Base peak: 131.1271
Precursor m/z: 131.1291
Precursor type: [M+H]+
m/z	relative intensity	assigned
114.1003	179	C5H12N3+
131.1273	999	C5H15N4+
