Mass spectrum: Tyramine; LC-ESI-QTOF; MS2; HILIC; CE: 10 eV; R=35000; [M+H]+
Name: Tyramine
Name: 4-(2-aminoethyl)phenol
Formula: C8H11NO
Exact mass: 137.0840640
SMILES: NCCc(c1)ccc(O)c1
InChI: InChI=1S/C8H11NO/c9-6-5-7-1-3-8(10)4-2-7/h1-4,10H,5-6,9H2
Instrument: Bruker maXis Impact
Instrument type: LC-ESI-QTOF
Ms type: MS2
Ion mode: POSITIVE
Ionization: ESI
Fragmentation mode: CID
Collision energy: 10 eV
Resolution: 35000
Column name: ACQUITY  UPLC BEH Amide 1.7 um 2.1x100mm, Waters
Retention time: 6.531 min
Base peak: 121.0631
Precursor m/z: 138.0913
Precursor type: [M+H]+
m/z	relative intensity	assigned
121.0633	999	C8H9O+
122.0666	86	C7[13]CH9O+
123.0685	5	C7H9NO+
138.0889	28	C8H12NO+
