Mass spectrum: Isoleucine; LC-ESI-QTOF; MS2; HILIC; CE: 10 eV; R=35000; [M+H]+
Name: Isoleucine
Name: DL-ISOLEUCINE
Name: 2-azaniumyl-3-methylpentanoate
Formula: C6H13NO2
Exact mass: 131.0946287
SMILES: CCC(C)C(C(=O)O)N
InChI: InChI=1S/C6H13NO2/c1-3-4(2)5(7)6(8)9/h4-5H,3,7H2,1-2H3,(H,8,9)
Instrument: Bruker maXis Impact
Instrument type: LC-ESI-QTOF
Ms type: MS2
Ion mode: POSITIVE
Ionization: ESI
Fragmentation mode: CID
Collision energy: 10 eV
Resolution: 35000
Column name: ACQUITY  UPLC BEH Amide 1.7 um 2.1x100mm, Waters
Retention time: 7.082 min
Base peak: 132.0999
Precursor m/z: 132.1019
Precursor type: [M+H]+
m/z	relative intensity	assigned
130.0846	78	C6H12NO2+
132.1004	999	C6H14NO2+
