Mass spectrum: Histamine; LC-ESI-QTOF; MS2; HILIC; CE: 10 eV; R=35000; [M+H]+
Name: Histamine
Name: 2-(1H-imidazol-5-yl)ethanamine
Formula: C5H9N3
Exact mass: 111.0796473
SMILES: c1c([nH]cn1)CCN
InChI: InChI=1S/C5H9N3/c6-2-1-5-3-7-4-8-5/h3-4H,1-2,6H2,(H,7,8)
Instrument: Bruker maXis Impact
Instrument type: LC-ESI-QTOF
Ms type: MS2
Ion mode: POSITIVE
Ionization: ESI
Fragmentation mode: CID
Collision energy: 10 eV
Resolution: 35000
Column name: ACQUITY  UPLC BEH Amide 1.7 um 2.1x100mm, Waters
Retention time: 12.147 min
Base peak: 178.1066
Precursor m/z: 112.0869
Precursor type: [M+H]+
m/z	relative intensity	assigned
112.0878	999	C5H10N3+
