Mass spectrum: Sudan IV; LC-ESI-QTOF; MS2; HILIC; CE: 10 eV; R=35000; [M+H]+
Name: Sudan IV
Formula: C24H20N4O
Exact mass: 380.1637113
SMILES: Cc1ccccc1/N=N/c2ccc(c(c2)C)/N=N/c3c4ccccc4ccc3O
InChI: InChI=1S/C24H20N4O/c1-16-7-3-6-10-21(16)26-25-19-12-13-22(17(2)15-19)27-28-24-20-9-5-4-8-18(20)11-14-23(24)29/h3-15,29H,1-2H3/b26-25+,28-27+
Instrument: Bruker maXis Impact
Instrument type: LC-ESI-QTOF
Ms type: MS2
Ion mode: POSITIVE
Ionization: ESI
Fragmentation mode: CID
Collision energy: 10 eV
Resolution: 35000
Column name: ACQUITY  UPLC BEH Amide 1.7 um 2.1x100mm, Waters
Retention time: 1.314 min
Base peak: 680.4833
Precursor m/z: 381.171
Precursor type: [M+H]+
m/z	relative intensity	assigned
195.1218	5	C9H15N4O+
224.1171	6	C14H14N3+
225.1272	13	C16H17O+
381.1726	999	C24H21N4O+
382.1745	283	C23[13]CH21N4O+
383.1796	32	C22[13]C2H21N4O+
