Mass spectrum: Sudan IV; LC-ESI-QTOF; MS2; HILIC; CE: 30 eV; R=35000; [M+H]+
Name: Sudan IV
Formula: C24H20N4O
Exact mass: 380.1637113
SMILES: Cc1ccccc1/N=N/c2ccc(c(c2)C)/N=N/c3c4ccccc4ccc3O
InChI: InChI=1S/C24H20N4O/c1-16-7-3-6-10-21(16)26-25-19-12-13-22(17(2)15-19)27-28-24-20-9-5-4-8-18(20)11-14-23(24)29/h3-15,29H,1-2H3/b26-25+,28-27+
Instrument: Bruker maXis Impact
Instrument type: LC-ESI-QTOF
Ms type: MS2
Ion mode: POSITIVE
Ionization: ESI
Fragmentation mode: CID
Collision energy: 30 eV
Resolution: 35000
Column name: ACQUITY UPLC BEH Amide 1.7 um 2.1x100 mm, Waters
Retention time: 1.314 min
Base peak: 313.1535
Precursor m/z: 381.171
Precursor type: [M+H]+
m/z	relative intensity	assigned
115.0531	104	C9H7+
119.0584	20	C7H7N2+
121.0753	31	C7H9N2+
128.0487	82	C9H6N+
133.0621	17	C7H7N3+
133.0856	17	C9H11N+
134.0698	87	C7H8N3+
141.0689	24	C11H9+
143.0473	359	C8H5N3+
147.0807	30	C10H11O+
154.0762	17	C12H10+
156.0428	336	C8H4N4+
158.0595	18	C10H8NO+
165.0699	19	C13H9+
170.0591	64	C9H6N4+
171.0544	67	C10H7N2O+
174.0552	20	C8H6N4O+
178.076	31	C14H10+
179.0847	61	C14H11+
180.0803	68	C13H10N+
181.0872	156	C13H11N+
182.093	69	C13H12N+
183.0922	26	C12H11N2+
185.1546	16	C9H19N3O+
194.095	55	C14H12N+
195.0923	41	C13H11N2+
195.1	46	C14H13N+
196.1097	66	C14H14N+
197.1055	69	C13H13N2+
198.1084	34	C14H14O+
203.0831	16	C16H11+
207.0912	170	C14H11N2+
208.098	173	C14H12N2+
209.1043	181	C14H13N2+
210.1019	122	C13H12N3+
211.1061	25	C13H13N3+
211.1207	33	C14H15N2+
217.0879	33	C16H11N+
218.0732	21	C16H10O+
218.0954	21	C16H12N+
219.0867	25	C15H11N2+
220.094	16	C15H12N2+
220.1134	19	C16H14N+
221.0952	42	C14H11N3+
222.1018	24	C14H12N3+
223.1099	50	C14H13N3+
224.1171	999	C14H14N3+
225.124	997	C14H15N3+
226.1301	235	C13[13]CH15N3+
230.097	22	C17H12N+
231.081	22	C17H11O+
232.0751	25	C16H10NO+
232.0969	30	C16H12N2+
233.0823	84	C14H9N4+
233.1064	83	C16H13N2+
234.0904	34	C14H10N4+
234.1108	31	C16H14N2+
244.0977	33	C17H12N2+
245.106	24	C17H13N2+
246.0886	19	C15H10N4+
247.0881	17	C16H11N2O+
247.1031	17	C17H13NO+
248.1019	17	C15H12N4+
251.0477	29	C17H5N3+
259.0831	23	C17H11N2O+
259.1155	23	C19H15O+
260.0954	22	C17H12N2O+
261.1007	145	C17H13N2O+
262.1082	43	C17H14N2O+
274.0964	20	C17H12N3O+
275.1164	72	C18H15N2O+
276.1123	493	C17H14N3O+
277.115	87	C16[13]CH14N3O+
288.1126	23	C18H14N3O+
293.0896	26	C20H11N3+
381.171	590	C24H21N4O+
382.1723	183	C23[13]CH21N4O+
