Mass spectrum: Sudan IV; LC-ESI-QTOF; MS2; HILIC; CE: 20 eV; R=35000; [M+H]+
Name: Sudan IV
Formula: C24H20N4O
Exact mass: 380.1637113
SMILES: Cc1ccccc1/N=N/c2ccc(c(c2)C)/N=N/c3c4ccccc4ccc3O
InChI: InChI=1S/C24H20N4O/c1-16-7-3-6-10-21(16)26-25-19-12-13-22(17(2)15-19)27-28-24-20-9-5-4-8-18(20)11-14-23(24)29/h3-15,29H,1-2H3/b26-25+,28-27+
Instrument: Bruker maXis Impact
Instrument type: LC-ESI-QTOF
Ms type: MS2
Ion mode: POSITIVE
Ionization: ESI
Fragmentation mode: CID
Collision energy: 20 eV
Resolution: 35000
Column name: ACQUITY UPLC BEH Amide 1.7 um 2.1x100 mm, Waters
Retention time: 1.314 min
Base peak: 313.1537
Precursor m/z: 381.171
Precursor type: [M+H]+
m/z	relative intensity	assigned
134.0709	11	C7H8N3+
143.0469	15	C8H5N3+
151.0955	5	C7H11N4+
156.0442	32	C10H6NO+
171.0561	6	C10H7N2O+
181.086	7	C13H11N+
195.1228	10	C9H15N4O+
207.0922	5	C14H11N2+
209.1065	10	C14H13N2+
210.1035	5	C15H14O+
224.117	133	C14H14N3+
225.1243	136	C14H15N3+
226.1309	44	C14H16N3+
227.1366	5	C13[13]CH16N3+
251.0469	5	C17H5N3+
261.1012	16	C17H13N2O+
262.1074	10	C17H14N2O+
275.1145	12	C18H15N2O+
276.1118	49	C17H14N3O+
277.1147	14	C16[13]CH14N3O+
381.171	999	C24H21N4O+
382.1738	311	C23[13]CH21N4O+
383.1756	31	C22[13]C2H21N4O+
