Mass spectrum: Bisphenol A (3-chloro-2-hydroxypropyl) glycidyl ether; LC-ESI-QTOF; MS2; CE: 10 eV; R=35000; [M+NH4]+
Name: Bisphenol A (3-chloro-2-hydroxypropyl) glycidyl ether
Name: Bisphenol A (3-chloro-2-hydroxypropyl)glycidyl ether
Name: 1-chloro-3-[4-[2-[4-(oxiran-2-ylmethoxy)phenyl]propan-2-yl]phenoxy]propan-2-ol
Formula: C21H25ClO4
Exact mass: 376.1441
SMILES: CC(C)(C1=CC=C(C=C1)OCC2CO2)C3=CC=C(C=C3)OCC(CCl)O
InChI: InChI=1S/C21H25ClO4/c1-21(2,15-3-7-18(8-4-15)24-12-17(23)11-22)16-5-9-19(10-6-16)25-13-20-14-26-20/h3-10,17,20,23H,11-14H2,1-2H3
Instrument: Bruker maXis Impact
Instrument type: LC-ESI-QTOF
Ms type: MS2
Ion mode: POSITIVE
Ionization: ESI
Fragmentation mode: CID
Collision energy: 10 eV
Resolution: 35000
Column name: Acclaim RSLC C18 2.2um, 2.1x100mm, Thermo
Retention time: 11.131 min
Base peak: 394.1783
Precursor m/z: 394.1791
Precursor type: [M+NH4]+
m/z	relative intensity	assigned
161.0946	17	C5H18ClO3+
173.0945	6	C6H18ClO3+
191.1054	80	C6H20ClO4+
192.1094	8	C6H21ClO4+
227.0828	281	C12H16ClO2+
228.0858	32	C17H10N+
229.08	73	C15H14Cl+
347.1399	9	C20H24ClO3+
349.1388	5	C19H24ClNO3+
394.1788	999	C21H29ClNO4+
