Mass spectrum: Bisphenol A diglycidyl ether; LC-ESI-QTOF; MS2; CE: 20 eV; R=35000; [M+NH4]+
Name: Bisphenol A diglycidyl ether
Name: 2-[[4-[2-[4-(oxiran-2-ylmethoxy)phenyl]propan-2-yl]phenoxy]methyl]oxirane
Formula: C21H24O4
Exact mass: 340.1675
SMILES: CC(C)(C1=CC=C(C=C1)OCC2CO2)C3=CC=C(C=C3)OCC4CO4
InChI: InChI=1S/C21H24O4/c1-21(2,15-3-7-17(8-4-15)22-11-19-13-24-19)16-5-9-18(10-6-16)23-12-20-14-25-20/h3-10,19-20H,11-14H2,1-2H3
Instrument: Bruker maXis Impact
Instrument type: LC-ESI-QTOF
Ms type: MS2
Ion mode: POSITIVE
Ionization: ESI
Fragmentation mode: CID
Collision energy: 20 eV
Resolution: 35000
Column name: Acclaim RSLC C18 2.2um, 2.1x100mm, Thermo
Retention time: 10.822 min
Base peak: 358.2013
Precursor m/z: 358.2024
Precursor type: [M+NH4]+
m/z	relative intensity	assigned
135.079	43	C9H11O+
161.0947	167	C11H13O+
173.0947	9	C12H13O+
191.1056	999	C12H15O2+
193.1114	9	C11H15NO2+
281.1525	21	C19H21O2+
282.1562	5	C19H22O2+
358.2008	18	C21H28NO4+
