Mass spectrum: 1H,1H,2H,2H-perfluorodecan sulfonate (8:2) (8:2 Fluorotelomer sulfonic acid); LC-ESI-QTOF; MS2; CE: 10 eV; R=35000; [M-H]-
Name: 1H,1H,2H,2H-perfluorodecan sulfonate (8:2) (8:2 Fluorotelomer sulfonic acid)
Name: 3,3,4,4,5,5,6,6,7,7,8,8,9,9,10,10,10-Heptadecafluorodecanesulphonic acid
Name: 3,3,4,4,5,5,6,6,7,7,8,8,9,9,10,10,10-heptadecafluorodecane-1-sulfonic acid
Formula: C10H5F17O3S
Exact mass: 527.9688
SMILES: C(CS(=O)(=O)O)C(C(C(C(C(C(C(C(F)(F)F)(F)F)(F)F)(F)F)(F)F)(F)F)(F)F)(F)F
InChI: InChI=1S/C10H5F17O3S/c11-3(12,1-2-31(28,29)30)4(13,14)5(15,16)6(17,18)7(19,20)8(21,22)9(23,24)10(25,26)27/h1-2H2,(H,28,29,30)
Instrument: Bruker maXis Impact
Instrument type: LC-ESI-QTOF
Ms type: MS2
Ion mode: NEGATIVE
Ionization: ESI
Fragmentation mode: CID
Collision energy: 10 eV
Resolution: 35000
Column name: Acclaim RSLC C18 2.2um, 2.1x100mm, Thermo
Retention time: 11.116 min
Base peak: 526.9596
Precursor m/z: 526.9615
Precursor type: [M-H]-
m/z	relative intensity
526.9614	999
