Mass spectrum: Perfluorooctanesulfonamide (PFOSA or FOSA); LC-ESI-QTOF; MS2; CE: 20 eV; R=35000; [M-H]-
Name: Perfluorooctanesulfonamide (PFOSA or FOSA)
Name: Perfluorooctanesulfonamide
Name: 1,1,2,2,3,3,4,4,5,5,6,6,7,7,8,8,8-heptadecafluorooctane-1-sulfonamide
Formula: C8H2F17NO2S
Exact mass: 498.9535
SMILES: C(C(C(C(C(F)(F)S(=O)(=O)N)(F)F)(F)F)(F)F)(C(C(C(F)(F)F)(F)F)(F)F)(F)F
InChI: InChI=1S/C8H2F17NO2S/c9-1(10,3(13,14)5(17,18)7(21,22)23)2(11,12)4(15,16)6(19,20)8(24,25)29(26,27)28/h(H2,26,27,28)
Instrument: Bruker maXis Impact
Instrument type: LC-ESI-QTOF
Ms type: MS2
Ion mode: NEGATIVE
Ionization: ESI
Fragmentation mode: CID
Collision energy: 20 eV
Resolution: 35000
Column name: Acclaim RSLC C18 2.2um, 2.1x100mm, Thermo
Retention time: 11.481 min
Base peak: 497.946
Precursor m/z: 497.9462
Precursor type: [M-H]-
m/z	relative intensity
497.9454	999
