Mass spectrum: Pyrene; GC-APCI-QTOF; MS2; CE: 30 eV; R=35000; [M]+
Name: Pyrene
Formula: C16H10
Exact mass: 202.0783
SMILES: C1=CC2=C3C(C=CC4=CC=CC(C=C2)=C34)=C1
InChI: InChI=1S/C16H10/c1-3-11-7-9-13-5-2-6-14-10-8-12(4-1)15(11)16(13)14/h1-10H
Instrument: Bruker 450 GC coupled to maXis Impact
Instrument type: GC-APCI-QTOF
Ms type: MS2
Ion mode: POSITIVE
Ionization: APCI
Fragmentation mode: CID
Collision energy: 30 eV
Resolution: 35000
Column name: Rxi-5Sil MS column, 30m, 0.25mm i.d., 0.25 um film thickness (Restek)
Retention time: 19.614 min
Base peak: 202.0743
Precursor m/z: 202.0777
Precursor type: [M]+
m/z	relative intensity	assigned
200.0574	8	C16H8+
201.0668	12	C16H9+
202.0746	999	C16H10+
