Mass spectrum: PCB 28; GC-APCI-QTOF; MS2; CE: 30 eV; R=35000; [M]+
Name: PCB 28
Name: 2,4,4`-Trichlorobiphenyl
Name: 2,4-dichloro-1-(4-chlorophenyl)benzene
Formula: C12H7Cl3
Exact mass: 255.9613
SMILES: ClC1=CC=C(C=C1)C1=C(Cl)C=C(Cl)C=C1
InChI: InChI=1S/C12H7Cl3/c13-9-3-1-8(2-4-9)11-6-5-10(14)7-12(11)15/h1-7H
Instrument: Bruker 450 GC coupled to maXis Impact
Instrument type: GC-APCI-QTOF
Ms type: MS2
Ion mode: POSITIVE
Ionization: APCI
Fragmentation mode: CID
Collision energy: 30 eV
Resolution: 35000
Column name: Rxi-5Sil MS column, 30m, 0.25mm i.d., 0.25 um film thickness (Restek)
Retention time: 16.432 min
Base peak: 255.9597
Precursor m/z: 255.9608
Precursor type: [M]+
m/z	relative intensity	assigned
186.019	999	C12H7Cl+
219.9798	38	C12H6Cl2+
220.9882	93	C12H7Cl2+
255.9585	836	C12H7Cl3+
