Mass spectrum: PCB 28; GC-APCI-QTOF; MS2; CE: 40 eV; R=35000; [M]+
Name: PCB 28
Name: 2,4,4`-Trichlorobiphenyl
Name: 2,4-dichloro-1-(4-chlorophenyl)benzene
Formula: C12H7Cl3
Exact mass: 255.9613
SMILES: ClC1=CC=C(C=C1)C1=C(Cl)C=C(Cl)C=C1
InChI: InChI=1S/C12H7Cl3/c13-9-3-1-8(2-4-9)11-6-5-10(14)7-12(11)15/h1-7H
Instrument: Bruker maXis Impact
Instrument type: GC-APCI-QTOF
Ms type: MS2
Ionization: APCI
Ion mode: POSITIVE
Fragmentation mode: CID
Collision energy: 40 eV
Resolution: 35000
Column name: Rxi-5Sil MS (30 m; 0.25 mm i.d.; 0.25 um film thickness) Restek
Retention time: 16.441 min
Base peak: 255.959
Precursor m/z: 255.9608
Precursor type: [M]+
m/z	relative intensity	assigned
150.0434	14	C12H6+
186.0192	999	C12H7Cl+
219.9811	36	C12H6Cl2+
220.9881	24	C12H7Cl2+
255.9592	60	C12H7Cl3+
