Mass spectrum: Perfluoroheptane sulfonic acid (PFHpS); LC-ESI-QTOF; MS2; CE: 20 eV; R=35000; [M-H]-
Name: Perfluoroheptane sulfonic acid (PFHpS)
Name: Perfluoroheptanesulfonic acid
Name: 1,1,2,2,3,3,4,4,5,5,6,6,7,7,7-pentadecafluoroheptane-1-sulfonic acid
Formula: C7HF15O3S
Exact mass: 449.9407
SMILES: C(C(C(C(F)(F)F)(F)F)(F)F)(C(C(C(F)(F)S(=O)(=O)O)(F)F)(F)F)(F)F
InChI: InChI=1S/C7HF15O3S/c8-1(9,2(10,11)4(14,15)6(18,19)20)3(12,13)5(16,17)7(21,22)26(23,24)25/h(H,23,24,25)
Instrument: Bruker maXis Impact
Instrument type: LC-ESI-QTOF
Ms type: MS2
Ion mode: NEGATIVE
Ionization: ESI
Fragmentation mode: CID
Collision energy: 20 eV
Resolution: 35000
Column name: Acclaim RSLC C18 2.2um, 2.1x100mm, Thermo
Retention time: 9.686 min
Base peak: 448.9332
Precursor m/z: 448.9334
Precursor type: [M-H]-
m/z	relative intensity
448.9323	999
