Mass spectrum: Perfluorohexane sulfonic acid (PFHxS); LC-ESI-QTOF; MS2; CE: 40 eV; R=35000; [M-H]-
Name: Perfluorohexane sulfonic acid (PFHxS)
Name: Perfluorohexanesulfonic acid
Name: 1,1,2,2,3,3,4,4,5,5,6,6,6-tridecafluorohexane-1-sulfonic acid
Formula: C6HF13O3S
Exact mass: 399.9439
SMILES: C(C(C(C(F)(F)S(=O)(=O)O)(F)F)(F)F)(C(C(F)(F)F)(F)F)(F)F
InChI: InChI=1S/C6HF13O3S/c7-1(8,3(11,12)5(15,16)17)2(9,10)4(13,14)6(18,19)23(20,21)22/h(H,20,21,22)
Instrument: Bruker maXis Impact
Instrument type: LC-ESI-QTOF
Ms type: MS2
Ion mode: NEGATIVE
Ionization: ESI
Fragmentation mode: CID
Collision energy: 40 eV
Resolution: 35000
Column name: Acclaim RSLC C18 2.2um, 2.1x100mm, Thermo
Retention time: 8.838 min
Base peak: 398.9346
Precursor m/z: 398.9366
Precursor type: [M-H]-
m/z	relative intensity
398.9354	999
