Mass spectrum: Perfluoroheptanoic acid (PFHpA); LC-ESI-QTOF; MS2; CE: 30 eV; R=35000; [M-H]-
Name: Perfluoroheptanoic acid (PFHpA)
Name: Perfluoroheptanoic acid
Name: 2,2,3,3,4,4,5,5,6,6,7,7,7-tridecafluoroheptanoic acid
Formula: C7HF13O2
Exact mass: 363.9769
SMILES: C(=O)(C(C(C(C(C(C(F)(F)F)(F)F)(F)F)(F)F)(F)F)(F)F)O
InChI: InChI=1S/C7HF13O2/c8-2(9,1(21)22)3(10,11)4(12,13)5(14,15)6(16,17)7(18,19)20/h(H,21,22)
Instrument: Bruker maXis Impact
Instrument type: LC-ESI-QTOF
Ms type: MS2
Ion mode: NEGATIVE
Ionization: ESI
Fragmentation mode: CID
Collision energy: 30 eV
Resolution: 35000
Column name: Acclaim RSLC C18 2.2um, 2.1x100mm, Thermo
Retention time: 8.822 min
Base peak: 362.9683
Precursor m/z: 362.9696
Precursor type: [M-H]-
m/z	relative intensity
168.9886	999
