Mass spectrum: Aflatoxin B1; LC-ESI-QTOF; MS2; CE: 20 eV; R=35000; [M+H]+
Name: Aflatoxin B1
Name: 4-(Methyloxy)-2,3,6a,9a-tetrahydrocyclopenta[c]furo[3`,2`:4,5]furo[2,3-h]chromene-1,11-dione
Name: 11-methoxy-6,8,19-trioxapentacyclo[10.7.0.02,9.03,7.013,17]nonadeca-1,4,9,11,13(17)-pentaene-16,18-dione
Class: Natural Product; Fungal metabolite
Formula: C17H12O6
Exact mass: 312.0634
SMILES: COC1=C2C3=C(C(=O)CC3)C(=O)OC2=C4C5C=COC5OC4=C1
InChI: InChI=1S/C17H12O6/c1-20-10-6-11-14(8-4-5-21-17(8)22-11)15-13(10)7-2-3-9(18)12(7)16(19)23-15/h4-6,8,17H,2-3H2,1H3
Instrument: Bruker maXis Impact
Instrument type: LC-ESI-QTOF
Ms type: MS2
Ion mode: POSITIVE
Ionization: ESI
Fragmentation mode: CID
Collision energy: 20 eV
Resolution: 35000
Column name: Acclaim RSLC C18 2.2um, 2.1x100mm, Thermo
Retention time: 6.784 min
Base peak: 313.0699
Precursor m/z: 313.0707
Precursor type: [M+H]+
m/z	relative intensity	assigned
257.0797	5	C15H13O4+
270.0502	5	C15H10O5+
284.0666	12	C16H12O5+
285.0744	41	C16H13O5+
298.046	7	C16H10O6+
313.0698	999	C17H13O6+
