Mass spectrum: Perfluorododecanoic acid (PFDoDA); LC-ESI-QTOF; MS2; CE: 50 eV; R=35000; [M-H]-
Name: Perfluorododecanoic acid (PFDoDA)
Name: Perfluorododecanoic acid
Name: 2,2,3,3,4,4,5,5,6,6,7,7,8,8,9,9,10,10,11,11,12,12,12-tricosafluorododecanoic acid
Formula: C12HF23O2
Exact mass: 613.9609
SMILES: C(=O)(C(C(C(C(C(C(C(C(C(C(C(F)(F)F)(F)F)(F)F)(F)F)(F)F)(F)F)(F)F)(F)F)(F)F)(F)F)(F)F)O
InChI: InChI=1S/C12HF23O2/c13-2(14,1(36)37)3(15,16)4(17,18)5(19,20)6(21,22)7(23,24)8(25,26)9(27,28)10(29,30)11(31,32)12(33,34)35/h(H,36,37)
Instrument: Bruker maXis Impact
Instrument type: LC-ESI-QTOF
Ms type: MS2
Ion mode: NEGATIVE
Ionization: ESI
Fragmentation mode: CID
Collision energy: 50 eV
Resolution: 35000
Column name: Acclaim RSLC C18 2.2um, 2.1x100mm, Thermo
Retention time: 12.098 min
Base peak: 612.9523
Precursor m/z: 612.9537
Precursor type: [M-H]-
m/z	relative intensity
168.9897	999
