Mass spectrum: 1H,1H,2H,2H-perfluorooctane sulfonate (6:2) (6:2 Fluorotelomer sulfonic acid); LC-ESI-QTOF; MS2; CE: 10 eV; R=35000; [M-H]-
Name: 1H,1H,2H,2H-perfluorooctane sulfonate (6:2) (6:2 Fluorotelomer sulfonic acid)
Name: 1-Octanesulfonic acid, 3,3,4,4,5,5,6,6,7,7,8,8,8-tridecafluoro-
Name: 3,3,4,4,5,5,6,6,7,7,8,8,8-tridecafluorooctane-1-sulfonic acid
Formula: C8H5F13O3S
Exact mass: 427.9752
SMILES: C(CS(=O)(=O)O)C(C(C(C(C(C(F)(F)F)(F)F)(F)F)(F)F)(F)F)(F)F
InChI: InChI=1S/C8H5F13O3S/c9-3(10,1-2-25(22,23)24)4(11,12)5(13,14)6(15,16)7(17,18)8(19,20)21/h1-2H2,(H,22,23,24)
Instrument: Bruker maXis Impact
Instrument type: LC-ESI-QTOF
Ms type: MS2
Ion mode: NEGATIVE
Ionization: ESI
Fragmentation mode: CID
Collision energy: 10 eV
Resolution: 35000
Column name: Acclaim RSLC C18 2.2um, 2.1x100mm, Thermo
Retention time: 9.651 min
Base peak: 426.9678
Precursor m/z: 426.9679
Precursor type: [M-H]-
m/z	relative intensity
426.9677	999
