Mass spectrum: Hexachlorobenzene; GC-APCI-QTOF; MS2; CE: 20 eV; R=35000; [M]+
Name: Hexachlorobenzene
Name: 1,2,3,4,5,6-hexachlorobenzene
Formula: C6Cl6
Exact mass: 281.8131
SMILES: ClC1=C(Cl)C(Cl)=C(Cl)C(Cl)=C1Cl
InChI: InChI=1S/C6Cl6/c7-1-2(8)4(10)6(12)5(11)3(1)9
Instrument: Bruker maXis Impact
Instrument type: GC-APCI-QTOF
Ms type: MS2
Ionization: APCI
Ion mode: POSITIVE
Fragmentation mode: CID
Collision energy: 20 eV
Resolution: 35000
Column name: Rxi-5Sil MS (30 m; 0.25 mm i.d.; 0.25 um film thickness) Restek
Retention time: 14.486 min
Base peak: 281.8114
Precursor m/z: 281.8126
Precursor type: [M]+
m/z	relative intensity	assigned
281.8123	999	C6Cl6+
