Mass spectrum: Benz[a]anthracene; GC-APCI-QTOF; MS2; CE: 40 eV; R=35000; [M+H]+
Name: Benz[a]anthracene
Name: benzo[a]anthracene
Formula: C18H12
Exact mass: 228.0939
SMILES: C1=CC2=C(C=C1)C=C1C(C=CC3=C1C=CC=C3)=C2
InChI: InChI=1S/C18H12/c1-2-7-15-12-18-16(11-14(15)6-1)10-9-13-5-3-4-8-17(13)18/h1-12H
Instrument: Bruker 450 GC coupled to maXis Impact
Instrument type: GC-APCI-QTOF
Ms type: MS2
Ion mode: POSITIVE
Ionization: APCI
Fragmentation mode: CID
Collision energy: 40 eV
Resolution: 35000
Column name: Rxi-5Sil MS column, 30m, 0.25mm i.d., 0.25 um film thickness (Restek)
Retention time: 23.813 min
Base peak: 229.0976
Precursor m/z: 229.1012
Precursor type: [M+H]+
m/z	relative intensity	assigned
202.073	156	C16H10+
226.0752	325	C18H10+
227.0828	352	C18H11+
228.0906	999	C18H12+
