Mass spectrum: 9Cl-PF3ONS (9-chlorohexadecafluoro-3-oxanonane-1-sulfonate) (major component of F-53B); LC-ESI-QTOF; MS2; CE: 40 eV; R=35000; [M-H]-
Name: 9Cl-PF3ONS (9-chlorohexadecafluoro-3-oxanonane-1-sulfonate) (major component of F-53B)
Name: 2-(6-chloro-1,1,2,2,3,3,4,4,5,5,6,6-dodecafluorohexoxy)-1,1,2,2-tetrafluoroethanesulfonic acid
Formula: C8HClF16O4S
Exact mass: 531.9029
SMILES: OS(=O)(=O)C(F)(F)C(F)(F)OC(F)(F)C(F)(F)C(F)(F)C(F)(F)C(F)(F)C(F)(F)Cl
InChI: InChI=1S/C8HClF16O4S/c9-5(18,19)3(14,15)1(10,11)2(12,13)4(16,17)6(20,21)29-7(22,23)8(24,25)30(26,27)28/h(H,26,27,28)
Instrument: Bruker maXis Impact
Instrument type: LC-ESI-QTOF
Ms type: MS2
Ion mode: NEGATIVE
Ionization: ESI
Fragmentation mode: CID
Collision energy: 40 eV
Resolution: 35000
Column name: Acclaim RSLC C18 2.2um, 2.1x100mm, Thermo
Retention time: 10.770 min
Base peak: 530.8947
Precursor m/z: 530.8956
Precursor type: [M-H]-
m/z	relative intensity
350.944	999
352.9405	122
