Mass spectrum: Perfluorodecane sulfonic acid (PFDS); LC-ESI-QTOF; MS2; CE: 50 eV; R=35000; [M-H]-
Name: Perfluorodecane sulfonic acid (PFDS)
Name: Perfluorodecane sulfonic acid
Name: 1,1,2,2,3,3,4,4,5,5,6,6,7,7,8,8,9,9,10,10,10-henicosafluorodecane-1-sulfonic acid
Formula: C10HF21O3S
Exact mass: 599.9311
SMILES: C(C(C(C(C(C(F)(F)S(=O)(=O)O)(F)F)(F)F)(F)F)(F)F)(C(C(C(C(F)(F)F)(F)F)(F)F)(F)F)(F)F
InChI: InChI=1S/C10HF21O3S/c11-1(12,3(15,16)5(19,20)7(23,24)9(27,28)29)2(13,14)4(17,18)6(21,22)8(25,26)10(30,31)35(32,33)34/h(H,32,33,34)
Instrument: Bruker maXis Impact
Instrument type: LC-ESI-QTOF
Ms type: MS2
Ion mode: NEGATIVE
Ionization: ESI
Fragmentation mode: CID
Collision energy: 50 eV
Resolution: 35000
Column name: Acclaim RSLC C18 2.2um, 2.1x100mm, Thermo
Retention time: 11.575 min
Base peak: 598.9241
Precursor m/z: 598.9238
Precursor type: [M-H]-
m/z	relative intensity
168.9881	33
598.9237	999
