Mass spectrum: Chrysene; GC-APCI-QTOF; MS2; CE: 10 eV; R=35000; [M]+
Name: Chrysene
Formula: C18H12
Exact mass: 228.0939
SMILES: C1=CC2=C(C=C1)C1=C(C=C2)C2=C(C=CC=C2)C=C1
InChI: InChI=1S/C18H12/c1-3-7-15-13(5-1)9-11-18-16-8-4-2-6-14(16)10-12-17(15)18/h1-12H
Instrument: Bruker maXis Impact
Instrument type: GC-APCI-QTOF
Ms type: MS2
Ionization: APCI
Ion mode: POSITIVE
Fragmentation mode: CID
Collision energy: 10 eV
Resolution: 35000
Column name: Rxi-5Sil MS (30 m; 0.25 mm i.d.; 0.25 um film thickness) Restek
Retention time: 23.683 min
Base peak: 228.0907
Precursor m/z: 228.0934
Precursor type: [M]+
m/z	relative intensity	assigned
228.0906	999	C18H12+
