Mass spectrum: Benzo(b)fluoranthene; GC-APCI-QTOF; MS2; CE: 30 eV; R=35000; [M]+
Name: Benzo(b)fluoranthene
Name: Benzo[b]fluoranthene
Name: pentacyclo[10.7.1.02,7.08,20.013,18]icosa-1(19),2(7),3,5,8(20),9,11,13,15,17-decaene
Formula: C20H12
Exact mass: 252.0939
SMILES: C1=CC=C2C(=C1)C1=CC=CC3=C4C=CC=CC4=CC2=C13
InChI: InChI=1S/C20H12/c1-2-7-14-13(6-1)12-19-16-9-4-3-8-15(16)18-11-5-10-17(14)20(18)19/h1-12H
Instrument: Bruker maXis Impact
Instrument type: GC-APCI-QTOF
Ms type: MS2
Ionization: APCI
Ion mode: POSITIVE
Fragmentation mode: CID
Collision energy: 30 eV
Resolution: 35000
Column name: Rxi-5Sil MS (30 m; 0.25 mm i.d.; 0.25 um film thickness) Restek
Retention time: 27.242 min
Base peak: 252.0907
Precursor m/z: 252.0934
Precursor type: [M]+
m/z	relative intensity	assigned
55.0538	19	C4H7+
252.0929	999	C20H12+
