Mass spectrum: Aflatoxin B2; LC-ESI-QTOF; MS2; CE: 20 eV; R=35000; [M+Na]+
Name: Aflatoxin B2
Name: Dihydroaflatoxin B1
Name: 11-methoxy-6,8,19-trioxapentacyclo[10.7.0.02,9.03,7.013,17]nonadeca-1,9,11,13(17)-tetraene-16,18-dione
Class: Natural Product; Fungal metabolite
Formula: C17H14O6
Exact mass: 314.079
SMILES: COC1=C2C3=C(C(=O)CC3)C(=O)OC2=C4C5CCOC5OC4=C1
InChI: InChI=1S/C17H14O6/c1-20-10-6-11-14(8-4-5-21-17(8)22-11)15-13(10)7-2-3-9(18)12(7)16(19)23-15/h6,8,17H,2-5H2,1H3
Instrument: Bruker maXis Impact
Instrument type: LC-ESI-QTOF
Ms type: MS2
Ion mode: POSITIVE
Ionization: ESI
Fragmentation mode: CID
Collision energy: 20 eV
Resolution: 35000
Column name: Acclaim RSLC C18 2.2um, 2.1x100mm, Thermo
Retention time: 6.483 min
Base peak: 337.0668
Precursor m/z: 337.0683
Precursor type: [M+Na]+
m/z	relative intensity	assigned
337.0672	999	C17H14NaO6+
