Mass spectrum: Metoclopramide; LC-ESI-QTOF; MS2; CE: 50 eV; R=35000; [M+H]+
Name: Metoclopramide
Name: 4-amino-5-chloro-N-[2-(diethylamino)ethyl]-2-methoxybenzamide
Formula: C14H22ClN3O2
Exact mass: 299.1400546
SMILES: CCN(CC)CCNC(=O)c1cc(c(cc1OC)N)Cl
InChI: InChI=1S/C14H22ClN3O2/c1-4-18(5-2)7-6-17-14(19)10-8-11(15)12(16)9-13(10)20-3/h8-9H,4-7,16H2,1-3H3,(H,17,19)
Instrument: Bruker maXis Impact
Instrument type: LC-ESI-QTOF
Ms type: MS2
Ion mode: POSITIVE
Ionization: ESI
Fragmentation mode: CID
Collision energy: 50 eV
Resolution: 35000
Column name: Acclaim RSLC C18 2.2um, 2.1x100mm, Thermo
Retention time: 4.260 min
Base peak: 300.1474
Precursor m/z: 300.1473
Precursor type: [M+H]+
m/z	relative intensity	assigned
113.0023	8	C8HO+
120.0436	11	C7H6NO+
126.0096	42	C6H5ClN+
128.0066	11	C6H5[37]ClN+
128.0251	24	C6H7ClN+
129.0092	13	C4H4ClN3+
130.0224	8	C6H7[37]ClN+
140.0124	8	C9H2NO+
140.9967	253	C6H4ClNO+
141.9998	17	C5[13]CH4ClNO+
142.9935	62	C6H4[37]ClNO+
144.0198	13	C6H7ClNO+
146.0169	5	C6H7[37]ClNO+
147.0546	6	C8H7N2O+
148.062	49	C8H8N2O+
154.004	36	C10H2O2+
155.0097	6	C9[13]CH2O2+
156.0013	10	C13+
156.02	85	C7H7ClNO+
157.0234	6	C6[13]CH7ClNO+
158.0169	20	C7H7[37]ClNO+
168.0075	262	C7H5ClN2O+
168.9914	79	C7H4ClNO2+
169.0105	17	C6[13]CH5ClN2O+
170.0027	90	C7H5[37]ClN2O+
170.9883	19	C7H4[37]ClNO2+
171.9963	10	C10H3ClN+
181.015	8	C11H3NO2+
182.0228	23	C11H4NO2+
183.0309	133	C11H5NO2+
184.0151	999	C8H7ClNO2+
185.0194	62	C7[13]CH7ClNO2+
186.0121	257	C8H7[37]ClNO2+
187.002	60	C10H4ClN2+
188.0049	6	C11H5ClO+
188.9989	18	C10H4[37]ClN2+
211.0261	17	C9H8ClN2O2+
212.0339	210	C9H9ClN2O2+
213.0366	18	C8[13]CH9ClN2O2+
214.031	57	C9H9[37]ClN2O2+
227.0573	45	C10H12ClN2O2+
228.0606	5	C9[13]CH12ClN2O2+
229.0542	15	C10H12[37]ClN2O2+
