Mass spectrum: Diazepam; LC-ESI-QTOF; MS2; CE: 50 eV; R=35000; [M+H]+
Name: Diazepam
Name: 7-chloro-1-methyl-5-phenyl-3H-1,4-benzodiazepin-2-one
Formula: C16H13ClN2O
Exact mass: 284.0716407
SMILES: CN1C2=C(C=C(Cl)C=C2)C(=NCC1=O)C1=CC=CC=C1
InChI: InChI=1S/C16H13ClN2O/c1-19-14-8-7-12(17)9-13(14)16(18-10-15(19)20)11-5-3-2-4-6-11/h2-9H,10H2,1H3
Instrument: Bruker maXis Impact
Instrument type: LC-ESI-QTOF
Ms type: MS2
Ion mode: POSITIVE
Ionization: ESI
Fragmentation mode: CID
Collision energy: 50 eV
Resolution: 35000
Column name: Acclaim RSLC C18 2.2um, 2.1x100mm, Thermo
Retention time: 9.3 min
Base peak: 285.0791
Precursor m/z: 285.0789
Precursor type: [M+H]+
m/z	relative intensity	assigned
116.0488	27	C8H6N+
117.0568	77	C8H7N+
118.0644	76	C8H8N+
119.0719	37	C8H9N+
122.9986	13	C7H4Cl+
124.0061	5	C8N2+
125.0146	110	C7H6Cl+
126.0203	14	C8H2N2+
127.0118	29	CH6ClN3O2+
131.0596	9	C8H7N2+
137.0016	6	C10HO+
138.0097	44	C10H2O+
139.0171	24	C10H3O+
140.0248	25	C10H4O+
141.0143	7	CH6ClN4O2+
141.0329	8	C10H5O+
142.0221	5	CH7ClN4O2+
142.0516	6	C9H6N2+
143.0595	158	C9H7N2+
144.0665	47	C9H8N2+
145.0741	12	C9H9N2+
146.0589	6	C9H8NO+
147.0669	21	C9H9NO+
150.0093	41	C11H2O+
151.0164	15	C11H3O+
151.0535	5	C12H7+
152.0067	11	C2H5ClN4O2+
152.0249	17	C11H4O+
152.0608	21	C12H8+
153.0148	5	C2H6ClN4O2+
153.0327	13	C11H5O+
153.0686	10	C12H9+
154.0409	279	C11H6O+
155.044	21	C3H10ClN3O2+
156.0378	64	C2H9ClN4O2+
157.0397	10	C9H5N2O+
162.0097	7	C12H2O+
163.0048	47	C11HNO+
163.0532	6	C13H7+
164.0022	10	C9H5ClO+
164.0606	15	C13H8+
165.0204	18	C11H3NO+
165.0689	188	C13H9+
166.075	43	C13H10+
167.0132	17	C8H6ClNO+
167.0749	9	C12H9N+
168.0198	7	C8H7ClNO+
169.0636	5	C12H9O+
172.0622	32	C10H8N2O+
177.0206	39	C12H3NO+
177.0572	6	C13H7N+
177.0684	9	C14H9+
178.0245	5	C4H7ClN4O2+
178.065	12	C13H8N+
178.0754	11	C14H10+
179.0171	9	C9H6ClNO+
179.0364	50	C12H5NO+
179.0716	25	C13H9N+
180.0201	15	C9H7ClNO+
180.0418	5	C12H6NO+
180.0798	99	C13H10N+
181.0161	7	C8H6ClN2O+
181.0852	19	C13H11N+
182.0174	5	C15H2+
190.0638	24	C14H8N+
191.072	47	C14H9N+
192.0799	157	C14H10N+
193.0881	999	C14H11N+
194.093	167	C14H12N+
195.0983	16	C9H13N3O2+
199.0301	15	C13H8Cl+
201.0297	6	C15H5O+
203.0721	5	C15H9N+
204.08	106	C15H10N+
205.0769	43	C14H9N2+
206.0836	253	C14H10N2+
207.0906	156	C14H11N2+
208.0952	22	C14H12N2+
213.0331	8	C16H5O+
214.0404	21	C16H6O+
216.0392	5	C7H9ClN4O2+
216.0565	14	C16H8O+
218.0542	5	C13H11ClO+
219.0915	11	C15H11N2+
220.0989	15	C15H12N2+
221.0829	17	C15H11NO+
221.1068	93	C15H13N2+
222.1147	159	C15H14N2+
226.0413	12	C14H9ClN+
227.049	60	C14H10ClN+
228.0556	44	C14H11ClN+
229.0457	15	C14H10ClO+
230.0537	11	C14H11ClO+
234.0782	8	C15H10N2O+
239.0367	20	C14H8ClN2+
240.0438	22	C14H9ClN2+
241.0525	278	C14H10ClN2+
242.0565	52	C14H11ClN2+
243.0491	66	C14H10ClNO+
244.0543	9	C14H11ClNO+
255.0676	29	C15H12ClN2+
256.0729	6	C15H13ClN2+
257.0654	9	C15H12ClNO+
257.0806	6	C15H14ClN2+
269.0472	10	C15H10ClN2O+
