Mass spectrum: Flutamide; LC-ESI-QTOF; MS2; CE: 50 eV; R=35000; [M+H]+
Name: Flutamide
Name: 2-methyl-N-[4-nitro-3-(trifluoromethyl)phenyl]propanamide
Formula: C11H11F3N2O3
Exact mass: 276.0721769
SMILES: CC(C)C(=O)NC1=CC(=C(C=C1)[N+]([O-])=O)C(F)(F)F
InChI: InChI=1S/C11H11F3N2O3/c1-6(2)10(17)15-7-3-4-9(16(18)19)8(5-7)11(12,13)14/h3-6H,1-2H3,(H,15,17)
Instrument: Bruker maXis Impact
Instrument type: LC-ESI-QTOF
Ms type: MS2
Ion mode: POSITIVE
Ionization: ESI
Fragmentation mode: CID
Collision energy: 50 eV
Resolution: 35000
Column name: Acclaim RSLC C18 2.2um, 2.1x100mm, Thermo
Retention time: 11.194 min
Base peak: 277.0781
Precursor m/z: 277.0795
Precursor type: [M+H]+
m/z	relative intensity	assigned
115.0539	9	C9H7+
125.0145	5	C5H2FN2O+
139.0532	28	C11H7+
163.0531	70	C5H8FN2O3+
164.0608	143	C5H9FN2O3+
165.0689	999	C8H9N2O2+
166.0723	96	C7[13]CH9N2O2+
168.0559	19	C9H9FO2+
196.0508	10	C11H7F3+
199.0302	140	C11H4FN2O+
200.0334	18	C10[13]CH4FN2O+
201.0274	39	C8H4F3N2O+
202.0768	13	C8H11FN2O3+
213.0691	6	C9H10FN2O3+
215.0848	59	C9H12FN2O3+
216.088	10	C10H11F3N2+
226.0773	100	C10H11FN2O3+
227.0819	21	C10H12FN2O3+
239.0852	461	C11H12FN2O3+
