Mass spectrum: Fipronil; LC-ESI-QTOF; MS2; CE: 50 eV; R=35000; [M-H]-
Name: Fipronil
Name: 5-amino-1-[2,6-dichloro-4-(trifluoromethyl)phenyl]-4-(trifluoromethylsulfinyl)pyrazole-3-carbonitrile
Formula: C12H4Cl2F6N4OS
Exact mass: 435.9387064
SMILES: c1c(cc(c(c1Cl)n2c(c(c(n2)C#N)S(=O)C(F)(F)F)N)Cl)C(F)(F)F
InChI: InChI=1S/C12H4Cl2F6N4OS/c13-5-1-4(11(15,16)17)2-6(14)8(5)24-10(22)9(7(3-21)23-24)26(25)12(18,19)20/h1-2H,22H2
Instrument: Bruker maXis Impact
Instrument type: LC-ESI-QTOF
Ms type: MS2
Ion mode: NEGATIVE
Ionization: ESI
Fragmentation mode: CID
Collision energy: 50 eV
Resolution: 35000
Column name: Acclaim RSLC C18 2.2um, 2.1x100mm, Thermo
Retention time: 10.413 min
Base peak: 434.9315
Precursor m/z: 434.9314
Precursor type: [M-H]-
m/z	relative intensity	assigned
163.0117	186	C8HF2N2-
170.0087	147	C7HF3N2-
182.0109	227	C5H2F4N2O-
183.0177	999	C8H2F3N2-
184.0211	104	C7[13]CH2F3N2-
217.9874	108	C5H3ClF4N2O-
243.9886	144	C9H2ClF3N3-
249.9585	285	C8H2ClF3N2S-
251.9557	167	C8H2[37]ClF3N2S-
267.9884	152	C11H2ClF3N3-
277.9547	213	C9H2ClF3N2OS-
281.9892	161	C9H3F5N2OS-
