Mass spectrum: Fenthion; LC-ESI-QTOF; MS2; CE: 40 eV; R=35000; [M+H]+
Name: Fenthion
Name: dimethoxy-(3-methyl-4-methylsulfanylphenoxy)-sulfanylidene-$l^{5}-phosphane
Formula: C10H15O3PS2
Exact mass: 278.0200230
SMILES: COP(=S)(OC)OC1=CC(C)=C(SC)C=C1
InChI: InChI=1S/C10H15O3PS2/c1-8-7-9(5-6-10(8)16-4)13-14(15,11-2)12-3/h5-7H,1-4H3
Instrument: Bruker maXis Impact
Instrument type: LC-ESI-QTOF
Ms type: MS2
Ion mode: POSITIVE
Ionization: ESI
Fragmentation mode: CID
Collision energy: 40 eV
Resolution: 35000
Column name: Acclaim RSLC C18 2.2um, 2.1x100mm, Thermo
Retention time: 10.9 min
Base peak: 279.0273
Precursor m/z: 279.0273
Precursor type: [M+H]+
m/z	relative intensity	assigned
121.0099	453	C7H5S+
121.0276	53	CH14PS2+
122.0176	251	C7H6S+
123.0256	302	C7H7S+
124.03	26	C10H4+
124.9813	528	C2H6O2PS+
125.0415	322	C7H9S+
125.9839	22	C5H3O2P+
126.0454	35	C10H6+
126.9766	19	C5H4PS+
127.0362	19	H16OPS2+
135.0253	108	C8H7S+
136.0328	72	CH13O3PS+
137.0406	77	CH14O3PS+
138.0127	27	C7H6OS+
138.0491	245	C8H10S+
139.0526	33	C4H12O3P+
142.9916	262	C2H8O3PS+
149.0224	235	C2H14OPS2+
150.0258	19	C5H11OPS+
152.9818	260	C7H5S2+
153.0362	904	C8H9OS+
153.9896	475	C7H6S2+
154.0404	117	C3H10N2O3S+
154.976	21	C3H8OPS2+
154.9968	72	H12O3PS2+
155.0317	49	CH16O2PS2+
155.985	29	C9O3+
166.9981	31	C8H7S2+
168.0039	28	CH13O3PS2+
168.9862	999	C7H6OPS+
169.0131	662	C8H9S2+
169.9903	97	C6[13]CH6OPS+
170.0183	138	CH15O3PS2+
170.9835	33	C6H4O4P+
171.01	62	C8H9S[34]S+
172.0171	22	C10H4O3+
185.9895	53	C7H7O2PS+
199.9503	91	C7H5OPS2+
200.0055	81	C8H9O2PS+
200.9563	23	C10H2OPS+
202.9927	40	C7H8O3PS+
214.975	132	C8H8OPS2+
231.9774	80	C8H9O2PS2+
