Mass spectrum: Oseltamivir-carboxylate; LC-ESI-QTOF; MS2; CE: 10 eV; R=35000; [M+H]+
Name: Oseltamivir-carboxylate
Name: Oseltamivir acid
Name: (3R,4R,5S)-4-acetamido-5-azaniumyl-3-pentan-3-yloxycyclohexene-1-carboxylate
Formula: C14H24N2O4
Exact mass: 284.1736072
SMILES: CCC(CC)O[C@@H]1C=C(C[C@H](N)[C@H]1NC(C)=O)C(O)=O
InChI: InChI=1S/C14H24N2O4/c1-4-10(5-2)20-12-7-9(14(18)19)6-11(15)13(12)16-8(3)17/h7,10-13H,4-6,15H2,1-3H3,(H,16,17)(H,18,19)/t11-,12+,13+/m0/s1
Instrument: Bruker maXis Impact
Instrument type: LC-ESI-QTOF
Ms type: MS2
Ion mode: POSITIVE
Ionization: ESI
Fragmentation mode: CID
Collision energy: 10 eV
Resolution: 35000
Column name: Acclaim RSLC C18 2.2um, 2.1x100mm, Thermo
Retention time: 4.6 min
Base peak: 150.1114
Precursor m/z: 285.1809
Precursor type: [M+H]+
m/z	relative intensity	assigned
137.07	26	C7H9N2O+
138.0535	221	C7H8NO2+
139.0573	25	C6[13]CH8NO2+
179.0822	30	C9H11N2O2+
180.0641	332	C9H10NO3+
197.0909	999	C9H13N2O3+
198.0762	139	C9H12NO4+
198.0935	119	C8[13]CH13N2O3+
215.1015	510	C9H15N2O4+
216.1042	75	C13H14NO2+
268.1523	167	C14H22NO4+
269.1424	29	C14H21O5+
269.1575	35	C14H23NO4+
285.18	752	C14H25N2O4+
286.1836	187	C13[13]CH25N2O4+
