Mass spectrum: Pheniramine-N-oxide; LC-ESI-QTOF; MS2; CE: 20 eV; R=35000; [M+H]+
Name: Pheniramine-N-oxide
Name: AC1L5BY1
Name: N,N-dimethyl-3-phenyl-3-pyridin-2-ylpropan-1-amine oxide
Formula: C16H20N2O
Exact mass: 256.1575633
SMILES: C[N+](C)(CCC(c1ccccc1)c2ccccn2)[O-]
InChI: InChI=1S/C16H20N2O/c1-18(2,19)13-11-15(14-8-4-3-5-9-14)16-10-6-7-12-17-16/h3-10,12,15H,11,13H2,1-2H3
Instrument: Bruker maXis Impact
Instrument type: LC-ESI-QTOF
Ms type: MS2
Ion mode: POSITIVE
Ionization: ESI
Fragmentation mode: CID
Collision energy: 20 eV
Resolution: 35000
Column name: Acclaim RSLC C18 2.2um, 2.1x100mm, Thermo
Retention time: 5.4 min
Base peak: 257.1648
Precursor m/z: 257.1648
Precursor type: [M+H]+
m/z	relative intensity	assigned
118.0636	1	C8H8N+
167.0716	6	C11H10N+
168.079	12	C12H10N+
169.0826	2	C11[13]CH10N+
196.1115	999	C14H14N+
197.1146	131	C13[13]CH14N+
198.1179	8	C12[13]C2H14N+
