Mass spectrum: Diphenylphosphate; LC-ESI-QTOF; MS2; CE: Ramp 19.8-29.8 eV; R=35000; [M+H]+
Name: Diphenylphosphate
Name: Diphenyl phosphate
Name: diphenyl hydrogen phosphate
Formula: C12H11O4P
Exact mass: 250.0394955
SMILES: OP(=O)(OC1=CC=CC=C1)OC1=CC=CC=C1
InChI: InChI=1S/C12H11O4P/c13-17(14,15-11-7-3-1-4-8-11)16-12-9-5-2-6-10-12/h1-10H,(H,13,14)
Instrument: Bruker maXis Impact
Instrument type: LC-ESI-QTOF
Ms type: MS2
Ion mode: POSITIVE
Ionization: ESI
Fragmentation mode: CID
Collision energy: Ramp 19.8-29.8 eV
Resolution: 35000
Column name: Acclaim RSLC C18 2.2um, 2.1x100mm, Thermo
Retention time: 6.816 min
Base peak: 251.0458
Precursor m/z: 251.0468
Precursor type: [M+H]+
m/z	relative intensity	assigned
153.0686	330	C12H9+
175.0141	222	C6H8O4P+
233.035	267	C12H10O3P+
251.0452	999	C12H12O4P+
