Mass spectrum: Desonide; LC-ESI-QTOF; MS2; CE: 40 eV; R=35000; [M+H]+
Name: Desonide
Name: (1S,2S,4R,8S,9S,11S,12S,13R)-11-hydroxy-8-(2-hydroxyacetyl)-6,6,9,13-tetramethyl-5,7-dioxapentacyclo[10.8.0.02,9.04,8.013,18]icosa-14,17-dien-16-one
Formula: C24H32O6
Exact mass: 416.2198887
SMILES: CC1(C)O[C@@H]2C[C@H]3[C@@H]4CCC5=CC(=O)C=C[C@]5(C)[C@H]4[C@@H](O)C[C@]3(C)[C@@]2(O1)C(=O)CO
InChI: InChI=1S/C24H32O6/c1-21(2)29-19-10-16-15-6-5-13-9-14(26)7-8-22(13,3)20(15)17(27)11-23(16,4)24(19,30-21)18(28)12-25/h7-9,15-17,19-20,25,27H,5-6,10-12H2,1-4H3/t15-,16-,17-,19+,20+,22-,23-,24+/m0/s1
Instrument: Bruker maXis Impact
Instrument type: LC-ESI-QTOF
Ms type: MS2
Ion mode: POSITIVE
Ionization: ESI
Fragmentation mode: CID
Collision energy: 40 eV
Resolution: 35000
Column name: Acclaim RSLC C18 2.2um, 2.1x100mm, Thermo
Retention time: 9.025 min
Base peak: 417.2272
Precursor m/z: 417.2272
Precursor type: [M+H]+
m/z	relative intensity	assigned
115.0538	23	C9H7+
117.0689	22	C9H9+
119.0847	56	C9H11+
120.0877	6	C8[13]CH11+
121.0639	195	C8H9O+
122.0673	22	C7[13]CH9O+
123.043	6	C7H7O2+
123.0801	13	C8H11O+
125.0592	6	C7H9O2+
128.0611	28	C10H8+
129.0687	26	C10H9+
130.0753	8	C10H10+
131.0479	15	C9H7O+
131.0845	37	C10H11+
132.0562	28	C9H8O+
133.0635	29	C9H9O+
133.1004	15	C10H13+
135.0796	145	C9H11O+
136.0832	15	C8[13]CH11O+
137.0585	43	C8H9O2+
139.0742	23	C8H11O2+
141.0534	13	C7H9O3+
141.0687	17	C11H9+
142.0765	13	C11H10+
143.0845	45	C11H11+
144.0558	9	C10H8O+
145.0636	87	C10H9O+
145.0998	49	C11H13+
146.0696	20	C10H10O+
147.0795	999	C10H11O+
148.0825	106	C9[13]CH11O+
149.0581	17	C9H9O2+
149.0947	17	C10H13O+
151.0742	12	C9H11O2+
153.0688	8	C12H9+
154.0768	6	C12H10+
155.0686	15	C8H11O3+
155.0841	37	C12H11+
156.0886	7	C11[13]CH11+
157.0635	12	C11H9O+
157.1002	42	C12H13+
158.0713	87	C11H10O+
158.1044	7	C11[13]CH13+
159.079	177	C11H11O+
160.0836	29	C10[13]CH11O+
161.0949	125	C11H13O+
162.0983	16	C10[13]CH13O+
163.0746	56	C10H11O2+
163.1113	5	C11H15O+
164.0766	7	C9[13]CH11O2+
165.0687	9	C13H9+
165.09	5	C10H13O2+
166.0753	5	C13H10+
167.0841	17	C13H11+
169.0635	12	C12H9O+
169.0997	22	C13H13+
170.0711	13	C12H10O+
171.0793	453	C12H11O+
172.0833	64	C11[13]CH11O+
173.0953	627	C12H13O+
174.0983	81	C11[13]CH13O+
175.0743	8	C11H11O2+
175.1101	20	C12H15O+
177.0894	12	C11H13O2+
178.0769	12	C14H10+
179.0838	22	C14H11+
180.0924	8	C14H12+
181.064	12	C13H9O+
181.0856	9	C10H13O3+
181.1006	21	C14H13+
182.071	12	C13H10O+
182.1062	6	C14H14+
183.0791	34	C13H11O+
183.1163	6	C14H15+
184.087	19	C13H12O+
185.0952	139	C13H13O+
186.0991	31	C12[13]CH13O+
187.0745	17	C12H11O2+
187.1105	54	C13H15O+
188.1137	10	C12[13]CH15O+
189.0902	12	C12H13O2+
191.0838	15	C15H11+
192.0921	36	C15H12+
193.0995	34	C15H13+
194.0716	7	C14H10O+
194.105	9	C15H14+
195.0792	48	C14H11O+
195.1165	15	C15H15+
196.0869	53	C14H12O+
197.095	148	C14H13O+
197.1314	18	C15H17+
198.1011	45	C14H14O+
199.0738	7	C13H11O2+
199.1107	94	C14H15O+
200.1144	17	C13[13]CH15O+
201.0905	16	C13H13O2+
201.1257	5	C14H17O+
202.0961	6	C13H14O2+
203.1054	5	C13H15O2+
204.0916	8	C16H12+
205.1	22	C16H13+
206.1078	10	C16H14+
207.0793	8	C15H11O+
207.1164	96	C16H15+
208.0872	41	C15H12O+
208.1207	20	C15[13]CH15+
209.095	118	C15H13O+
209.1307	18	C16H17+
210.1024	126	C15H14O+
211.1109	333	C15H15O+
212.115	68	C14[13]CH15O+
213.09	13	C14H13O2+
213.1257	66	C15H17O+
214.1303	9	C14[13]CH17O+
215.1064	12	C14H15O2+
217.1011	7	C17H13+
218.1078	5	C17H14+
219.0803	5	C16H11O+
219.116	20	C17H15+
220.0864	11	C16H12O+
220.1206	7	C17H16+
221.0956	76	C16H13O+
221.1317	15	C17H17+
222.1024	79	C16H14O+
223.1107	152	C16H15O+
224.117	56	C16H16O+
225.1266	484	C16H17O+
226.1338	390	C16H18O+
227.1054	11	C15H15O2+
227.1406	142	C16H19O+
228.1448	23	C15[13]CH19O+
229.0993	7	C18H13+
230.1067	9	C18H14+
231.1152	11	C18H15+
232.0868	7	C17H12O+
232.1228	6	C18H16+
233.095	20	C17H13O+
233.1297	12	C18H17+
234.1029	42	C17H14O+
235.1109	113	C17H15O+
235.1475	9	C18H19+
236.1175	50	C17H16O+
237.1265	181	C17H17O+
238.1308	42	C16[13]CH17O+
239.1061	12	C16H15O2+
239.1423	95	C17H19O+
240.1458	21	C16[13]CH19O+
241.1575	51	C17H21O+
242.1614	9	C16[13]CH21O+
243.1149	9	C19H15+
244.1244	8	C19H16+
245.0949	13	C18H13O+
245.1306	14	C19H17+
246.1017	20	C18H14O+
247.1107	40	C18H15O+
247.1471	12	C19H19+
248.119	72	C18H16O+
249.0901	8	C17H13O2+
249.1262	94	C18H17O+
249.1624	6	C19H21+
250.0982	6	C17H14O2+
250.1332	50	C18H18O+
251.1062	10	C17H15O2+
251.1416	56	C18H19O+
252.1464	19	C18H20O+
253.1219	14	C17H17O2+
253.1587	22	C18H21O+
254.1274	7	C17H18O2+
254.1628	6	C17[13]CH21O+
255.1369	7	C17H19O2+
257.0949	7	C19H13O+
258.1001	6	C19H14O+
259.1115	11	C19H15O+
259.1475	13	C20H19+
260.1176	20	C19H16O+
261.0892	5	C18H13O2+
261.1263	42	C19H17O+
262.1338	73	C19H18O+
263.1058	11	C18H15O2+
263.1418	118	C19H19O+
264.1124	8	C18H16O2+
264.1495	79	C19H20O+
265.158	303	C19H21O+
266.1284	6	C18H18O2+
266.1617	69	C18[13]CH21O+
267.1379	20	C18H19O2+
267.173	12	C19H23O+
268.1397	5	C17[13]CH19O2+
271.1102	6	C20H15O+
272.1184	32	C20H16O+
273.1224	13	C20H17O+
274.1376	5	C20H18O+
275.1073	5	C19H15O2+
275.1431	28	C20H19O+
276.114	5	C19H16O2+
276.1471	11	C20H20O+
277.1214	14	C19H17O2+
277.1581	101	C20H21O+
278.1263	7	C19H18O2+
278.1617	25	C19[13]CH21O+
279.1383	18	C19H19O2+
280.1448	11	C19H20O2+
281.1527	26	C19H21O2+
282.1608	16	C19H22O2+
283.1676	19	C19H23O2+
287.1419	32	C21H19O+
288.1456	8	C20[13]CH19O+
290.1305	15	C20H18O2+
292.1429	6	C20H20O2+
293.1523	18	C20H21O2+
294.159	8	C20H22O2+
295.169	34	C20H23O2+
296.1717	7	C19[13]CH23O2+
305.1534	37	C21H21O2+
306.1558	11	C20[13]CH21O2+
313.1793	6	C20H25O3+
323.1636	35	C21H23O3+
324.1679	10	C20[13]CH23O3+
399.2159	8	C24H31O5+
