Mass spectrum: Iminostilbene; LC-ESI-QTOF; MS2; CE: 20 eV; R=35000; [M+H]+
Name: Iminostilbene
Name: 11H-benzo[b][1]benzazepine
Formula: C14H11N
Exact mass: 193.0891494
SMILES: N1C2=C(C=CC=C2)C=CC2=C1C=CC=C2
InChI: InChI=1S/C14H11N/c1-3-7-13-11(5-1)9-10-12-6-2-4-8-14(12)15-13/h1-10,15H
Instrument: Bruker maXis Impact
Instrument type: LC-ESI-QTOF
Ms type: MS2
Ion mode: POSITIVE
Ionization: ESI
Fragmentation mode: CID
Collision energy: 20 eV
Resolution: 35000
Column name: Acclaim RSLC C18 2.2um, 2.1x100mm, Thermo
Retention time: 10.0 min
Base peak: 194.0955
Precursor m/z: 194.0964
Precursor type: [M+H]+
m/z	relative intensity	assigned
135.0428	6	C6H5N3O+
165.069	7	C13H9+
167.0732	8	C12H9N+
177.0694	5	C14H9+
179.0723	28	C13H9N+
192.0797	24	C14H10N+
194.0957	999	C14H12N+
195.0991	145	C13[13]CH12N+
196.1008	8	C12[13]C2H12N+
