Mass spectrum: Norgestimate; LC-ESI-QTOF; MS2; CE: Ramp 23.0-34.5 eV; R=35000; [M+H]+
Name: Norgestimate
Name: [(3E,8R,9S,10R,13S,14S,17R)-13-ethyl-17-ethynyl-3-hydroxyimino-1,2,6,7,8,9,10,11,12,14,15,16-dodecahydrocyclopenta[a]phenanthren-17-yl] acetate
Formula: C23H31NO3
Exact mass: 369.2303939
SMILES: CC[C@]12CC[C@H]3[C@@H](CCC4=C\C(CC[C@H]34)=N\O)[C@@H]1CC[C@@]2(OC(C)=O)C#C
InChI: InChI=1S/C23H31NO3/c1-4-22-12-10-19-18-9-7-17(24-26)14-16(18)6-8-20(19)21(22)11-13-23(22,5-2)27-15(3)25/h2,14,18-21,26H,4,6-13H2,1,3H3/b24-17+/t18-,19+,20+,21-,22-,23-/m0/s1
Instrument: Bruker maXis Impact
Instrument type: LC-ESI-QTOF
Ms type: MS2
Ion mode: POSITIVE
Ionization: ESI
Fragmentation mode: CID
Collision energy: Ramp 23.0-34.5 eV
Resolution: 35000
Column name: Acclaim RSLC C18 2.2um, 2.1x100mm, Thermo
Retention time: 11.807 min
Base peak: 102.1284
Precursor m/z: 370.2377
Precursor type: [M+H]+
m/z	relative intensity	assigned
98.0604	6	C5H8NO+
117.0692	7	C9H9+
119.085	8	C9H11+
124.075	58	C7H10NO+
129.0688	11	C10H9+
131.0846	20	C10H11+
133.1	17	C10H13+
143.0838	20	C11H11+
145.0998	19	C11H13+
147.1144	5	C11H15+
155.0834	5	C12H11+
157.1003	19	C12H13+
159.1159	19	C12H15+
164.1061	6	C10H14NO+
167.0852	6	C13H11+
169.0993	6	C13H13+
171.1151	12	C13H15+
173.1314	7	C13H17+
176.1067	10	C11H14NO+
178.1192	5	C11H16NO+
181.0997	7	C14H13+
183.1155	12	C14H15+
185.1312	13	C14H17+
195.1151	9	C15H15+
197.1302	8	C15H17+
199.1473	5	C15H19+
209.1322	6	C16H17+
221.1306	5	C17H17+
225.1631	6	C17H21+
237.1628	5	C18H21+
260.1991	6	C17H26NO+
264.1743	13	C19H22N+
282.1855	7	C19H24NO+
310.2163	96	C21H28NO+
311.2209	28	C20[13]CH28NO+
328.2276	9	C21H30NO2+
370.2381	999	C23H32NO3+
371.2409	277	C22[13]CH32NO3+
372.2434	34	C21[13]C2H32NO3+
