Mass spectrum: Fipronil; LC-ESI-QTOF; MS2; CE: 20 eV; R=35000; [M-H]-
Name: Fipronil
Name: 5-amino-1-[2,6-dichloro-4-(trifluoromethyl)phenyl]-4-(trifluoromethylsulfinyl)pyrazole-3-carbonitrile
Formula: C12H4Cl2F6N4OS
Exact mass: 435.9387064
SMILES: c1c(cc(c(c1Cl)n2c(c(c(n2)C#N)S(=O)C(F)(F)F)N)Cl)C(F)(F)F
InChI: InChI=1S/C12H4Cl2F6N4OS/c13-5-1-4(11(15,16)17)2-6(14)8(5)24-10(22)9(7(3-21)23-24)26(25)12(18,19)20/h1-2H,22H2
Instrument: Bruker maXis Impact
Instrument type: LC-ESI-QTOF
Ms type: MS2
Ion mode: NEGATIVE
Ionization: ESI
Fragmentation mode: CID
Collision energy: 20 eV
Resolution: 35000
Column name: Acclaim RSLC C18 2.2um, 2.1x100mm, Thermo
Retention time: 10.419 min
Base peak: 434.9321
Precursor m/z: 434.9314
Precursor type: [M-H]-
m/z	relative intensity	assigned
249.9573	79	C10H3Cl2F3-
277.9537	66	C9H2ClF3N2OS-
317.9691	116	C12F6N2S-
329.9604	999	C11H2ClF3N4OS-
331.9578	223	C11H2[37]ClF3N4OS-
365.9363	145	C11H3Cl2F3N4OS-
398.9503	43	C12H2ClF6N4OS-
