Mass spectrum: Tyramine; LC-ESI-QTOF; MS2; CE: 30 eV; R=35000; [M+H]+
Name: Tyramine
Name: 4-(2-aminoethyl)phenol
Formula: C8H11NO
Exact mass: 137.0840640
SMILES: NCCc(c1)ccc(O)c1
InChI: InChI=1S/C8H11NO/c9-6-5-7-1-3-8(10)4-2-7/h1-4,10H,5-6,9H2
Instrument: Bruker maXis Impact
Instrument type: LC-ESI-QTOF
Ms type: MS2
Ion mode: POSITIVE
Ionization: ESI
Fragmentation mode: CID
Collision energy: 30 eV
Resolution: 35000
Column name: Acclaim RSLC C18 2.2um, 2.1x100mm, Thermo
Retention time: 2.578 min
Base peak: 121.0653
Precursor m/z: 138.0913
Precursor type: [M+H]+
m/z	relative intensity	assigned
121.0647	999	C8H9O+
