Mass spectrum: Melperon; LC-ESI-QTOF; MS2; CE: Ramp 20.3-30.5 eV; R=35000; [M+H]+
Name: Melperon
Name: Melperone
Name: 1-(4-fluorophenyl)-4-(4-methylpiperidin-1-yl)butan-1-one
Formula: C16H22FNO
Exact mass: 263.1685425
SMILES: CC1CCN(CCCC(=O)C2=CC=C(F)C=C2)CC1
InChI: InChI=1S/C16H22FNO/c1-13-8-11-18(12-9-13)10-2-3-16(19)14-4-6-15(17)7-5-14/h4-7,13H,2-3,8-12H2,1H3
Instrument: Bruker maXis Impact
Instrument type: LC-ESI-QTOF
Ms type: MS2
Ion mode: POSITIVE
Ionization: ESI
Fragmentation mode: CID
Collision energy: Ramp 20.3-30.5 eV
Resolution: 35000
Column name: Acclaim RSLC C18 2.2um, 2.1x100mm, Thermo
Retention time: 5.113 min
Base peak: 264.1772
Precursor m/z: 264.1758
Precursor type: [M+H]+
m/z	relative intensity	assigned
100.1124	55	C6H14N+
123.0245	941	C7H4FO+
124.0275	83	C6[13]CH4FO+
165.0721	999	C13H9+
166.0737	156	C12[13]CH9+
167.0765	8	C11[13]C2H9+
246.1647	6	C16H21FN+
264.1764	439	C16H23FNO+
265.1792	92	C15[13]CH23FNO+
266.1818	6	C14[13]C2H23FNO+
