Mass spectrum: Imidocarb; LC-ESI-QTOF; MS2; CE: Ramp 22.6-33.9 eV; R=35000; [M+H]+
Name: Imidocarb
Name: 1,3-bis[3-(4,5-dihydro-1H-imidazol-2-yl)phenyl]urea
Formula: C19H20N6O
Exact mass: 348.1699
SMILES: c1cc(cc(c1)NC(=O)Nc2cccc(c2)C3=NCCN3)C4=NCCN4
InChI: InChI=1S/C19H20N6O/c26-19(24-15-5-1-3-13(11-15)17-20-7-8-21-17)25-16-6-2-4-14(12-16)18-22-9-10-23-18/h1-6,11-12H,7-10H2,(H,20,21)(H,22,23)(H2,24,25,26)
Instrument: Bruker maXis Impact
Instrument type: LC-ESI-QTOF
Ms type: MS2
Ion mode: POSITIVE
Ionization: ESI
Fragmentation mode: CID
Collision energy: Ramp 22.6-33.9 eV
Resolution: 35000
Column name: Acclaim RSLC C18 2.2um, 2.1x100mm, Thermo
Retention time: 4.0 min
Base peak: 79.0217
Precursor m/z: 349.1771
Precursor type: [M+H]+
m/z	relative intensity	assigned
162.1034	571	C11H14O+
163.1066	70	C9H13N3+
188.0827	999	C10H10N3O+
189.086	168	C8H9N6+
190.0875	9	C9H10N4O+
306.1379	78	C17H16N5O+
307.1406	11	C17H17N5O+
349.1806	747	C19H21N6O+
350.1844	192	C18H20N7O+
351.1862	20	C18H21N7O+
