Mass spectrum: 4-Hydroxy-1-(2-hydroxyethyl)-2,2,6,6-tetramethylpiperidine; LC-ESI-QTOF; MS2; CE: 40 eV; R=35000; [M+H]+
Name: 4-Hydroxy-1-(2-hydroxyethyl)-2,2,6,6-tetramethylpiperidine
Name: 1-Piperidineethanol, 4-hydroxy-2,2,6,6-tetramethyl-
Name: 1-(2-hydroxyethyl)-2,2,6,6-tetramethylpiperidin-4-ol
Formula: C11H23NO2
Exact mass: 201.1728790
SMILES: CC1(C)CC(O)CC(C)(C)N1CCO
InChI: InChI=1S/C11H23NO2/c1-10(2)7-9(14)8-11(3,4)12(10)5-6-13/h9,13-14H,5-8H2,1-4H3
Instrument: Bruker maXis Impact
Instrument type: LC-ESI-QTOF
Ms type: MS2
Ion mode: POSITIVE
Ionization: ESI
Fragmentation mode: CID
Collision energy: 40 eV
Resolution: 35000
Column name: Acclaim RSLC C18 2.2um, 2.1x100mm, Thermo
Retention time: 1.325 min
Base peak: 202.1798
Precursor m/z: 202.1802
Precursor type: [M+H]+
m/z	relative intensity	assigned
121.0989	307	C9H13+
123.1159	999	C9H15+
128.1064	558	C7H14NO+
202.1779	492	C11H24NO2+
