Mass spectrum: Tri(butoxyethyl)phosphate; LC-ESI-QTOF; MS2; CE: 30 eV; R=35000; [M+H]+
Name: Tri(butoxyethyl)phosphate
Name: tris(2-butoxyethyl) phosphate
Formula: C18H39O7P
Exact mass: 398.2433402
SMILES: CCCCOCCOP(=O)(OCCOCCCC)OCCOCCCC
InChI: InChI=1S/C18H39O7P/c1-4-7-10-20-13-16-23-26(19,24-17-14-21-11-8-5-2)25-18-15-22-12-9-6-3/h4-18H2,1-3H3
Instrument: Bruker maXis Impact
Instrument type: LC-ESI-QTOF
Ms type: MS2
Ion mode: POSITIVE
Ionization: ESI
Fragmentation mode: CID
Collision energy: 30 eV
Resolution: 35000
Column name: Acclaim RSLC C18 2.2um, 2.1x100mm, Thermo
Retention time: 12.023 min
Base peak: 399.2503
Precursor m/z: 399.2506
Precursor type: [M+H]+
m/z	relative intensity	assigned
124.9991	224	C2H6O4P+
143.0096	426	C2H8O5P+
144.0122	23	C9H5P+
169.0234	19	C4H10O5P+
199.072	999	C6H16O5P+
200.0752	92	C5[13]CH16O5P+
225.0873	33	C8H18O5P+
243.1	68	C8H20O6P+
299.1602	92	C12H28O6P+
300.1651	20	C12H29O6P+
