Mass spectrum: 4,4`-Thiodianiline; LC-ESI-QTOF; MS2; CE: 30 eV; R=35000; [M+H]+
Name: 4,4`-Thiodianiline
Formula: C12H12N2S
Exact mass: 216.0721194
SMILES: NC1=CC=C(SC2=CC=C(N)C=C2)C=C1
InChI: InChI=1S/C12H12N2S/c13-9-1-5-11(6-2-9)15-12-7-3-10(14)4-8-12/h1-8H,13-14H2
Instrument: Bruker maXis Impact
Instrument type: LC-ESI-QTOF
Ms type: MS2
Ion mode: POSITIVE
Ionization: ESI
Fragmentation mode: CID
Collision energy: 30 eV
Resolution: 35000
Column name: Acclaim RSLC C18 2.2um, 2.1x100mm, Thermo
Retention time: 6.223 min
Base peak: 217.0786
Precursor m/z: 217.0794
Precursor type: [M+H]+
m/z	relative intensity	assigned
123.0123	28	C6H5NS+
124.0206	999	C6H6NS+
125.0235	76	C5[13]CH6NS+
126.016	45	C6H6N[34]S+
128.0612	8	C10H8+
129.069	22	C10H9+
130.0659	8	C9H8N+
134.0167	11	C11H2+
139.0527	199	C11H7+
140.0567	22	C10[13]CH7+
143.0711	5	C10H9N+
154.0627	10	C11H8N+
156.0791	91	C11H10N+
157.083	12	C10[13]CH10N+
159.0252	6	C10H7S+
166.0633	26	C12H8N+
167.0716	235	C12H9N+
168.0749	34	C11[13]CH9N+
171.0245	43	C11H7S+
171.0904	8	C11H11N2+
172.0317	28	C11H8S+
173.0389	15	C11H9S+
181.0746	5	C12H9N2+
182.0829	23	C12H10N2+
183.0246	207	C12H7S+
183.0899	80	C12H11N2+
184.0323	237	C12H8S+
184.0979	346	C12H12N2+
185.0352	33	C11[13]CH8S+
185.1012	47	C11[13]CH12N2+
186.0288	11	C12H8[34]S+
188.0512	6	C11H10NS+
198.0363	34	C12H8NS+
199.0438	597	C12H9NS+
200.0505	236	C12H10NS+
202.0443	11	C12H10N[34]S+
211.0313	86	C12H7N2S+
212.0344	17	C11[13]CH7N2S+
213.0315	5	C12H7N2[34]S+
214.0545	14	C12H10N2S+
215.0624	106	C12H11N2S+
216.0703	136	C12H12N2S+
217.0773	94	C12H13N2S+
218.0801	15	C11[13]CH13N2S+
219.0769	5	C12H13N2[34]S+
