Mass spectrum: Vardenafil; LC-ESI-QTOF; MS2; CE: Ramp 25.4-38.1 eV; R=35000; [M+H]+
Name: Vardenafil
Name: CID 110634
Name: 2-[2-ethoxy-5-(4-ethylpiperazin-1-yl)sulfonylphenyl]-5-methyl-7-propyl-1H-imidazo[5,1-f][1,2,4]triazin-4-one
Formula: C23H32N6O4S
Exact mass: 488.2205745
SMILES: CCCC1=NC(C)=C2N1NC(=NC2=O)C1=C(OCC)C=CC(=C1)S(=O)(=O)N1CCN(CC)CC1
InChI: InChI=1S/C23H32N6O4S/c1-5-8-20-24-16(4)21-23(30)25-22(26-29(20)21)18-15-17(9-10-19(18)33-7-3)34(31,32)28-13-11-27(6-2)12-14-28/h9-10,15H,5-8,11-14H2,1-4H3,(H,25,26,30)
Instrument: Bruker maXis Impact
Instrument type: LC-ESI-QTOF
Ms type: MS2
Ion mode: POSITIVE
Ionization: ESI
Fragmentation mode: CID
Collision energy: Ramp 25.4-38.1 eV
Resolution: 35000
Column name: Acclaim RSLC C18 2.2um, 2.1x100mm, Thermo
Retention time: 7.762 min
Base peak: 489.2275
Precursor m/z: 489.2279
Precursor type: [M+H]+
m/z	relative intensity	assigned
58.0645	8	C3H8N+
72.0799	14	C4H10N+
151.0857	44	H15N4O3S+
169.096	146	C6H11N5O+
170.0995	9	C5[13]CH11N5O+
283.1188	6	C15H15N4O2+
284.1251	9	C7H20N6O4S+
299.1129	39	C18H19O2S+
300.1157	5	C17[13]CH19O2S+
312.1579	37	C19H22NO3+
313.1629	11	C18[13]CH22NO3+
329.1598	8	C17H21N4O3+
339.1476	6	C21H17N5+
344.1472	39	C23H22NS+
345.1503	6	C22[13]CH22NS+
376.1068	29	C22H12N6O+
377.1269	18	C23H15N5O+
489.2283	999	C23H33N6O4S+
490.2307	335	C22[13]CH33N6O4S+
