Mass spectrum: 4,4`-Thiodianiline; LC-ESI-QTOF; MS2; CE: 10 eV; R=35000; [M+H]+
Name: 4,4`-Thiodianiline
Name: 4-(4-aminophenyl)sulfanylaniline
Formula: C12H12N2S
Exact mass: 216.0721194
SMILES: NC1=CC=C(SC2=CC=C(N)C=C2)C=C1
InChI: InChI=1S/C12H12N2S/c13-9-1-5-11(6-2-9)15-12-7-3-10(14)4-8-12/h1-8H,13-14H2
Instrument: Bruker maXis Impact
Instrument type: LC-ESI-QTOF
Ms type: MS2
Ion mode: POSITIVE
Ionization: ESI
Fragmentation mode: CID
Collision energy: 10 eV
Resolution: 35000
Column name: Acclaim RSLC C18 2.2um, 2.1x100mm, Thermo
Retention time: 6.233 min
Base peak: 217.0788
Precursor m/z: 217.0794
Precursor type: [M+H]+
m/z	relative intensity	assigned
124.0204	39	C6H6NS+
200.0512	7	C12H10NS+
216.0705	130	C12H12N2S+
217.0788	999	C12H13N2S+
218.0816	115	C11[13]CH13N2S+
219.0748	35	C12H13N2[34]S+
