Mass spectrum: Tripropyl phosphate; LC-ESI-QTOF; MS2; CE: 10 eV; R=35000; [M+H]+
Name: Tripropyl phosphate
Formula: C9H21O4P
Exact mass: 224.1177458
SMILES: CCCOP(=O)(OCCC)OCCC
InChI: InChI=1S/C9H21O4P/c1-4-7-11-14(10,12-8-5-2)13-9-6-3/h4-9H2,1-3H3
Instrument: Bruker maXis Impact
Instrument type: LC-ESI-QTOF
Ms type: MS2
Ion mode: POSITIVE
Ionization: ESI
Fragmentation mode: CID
Collision energy: 10 eV
Resolution: 35000
Column name: Acclaim RSLC C18 2.2um, 2.1x100mm, Thermo
Retention time: 9.378 min
Base peak: 225.1251
Precursor m/z: 225.125
Precursor type: [M+H]+
m/z	relative intensity	assigned
141.0303	838	C3H10O4P+
142.0336	32	C2[13]CH10O4P+
143.0341	9	C3H10O3[18]OP+
149.0223	11	C8H5O3+
183.0775	999	C6H16O4P+
184.082	68	C5[13]CH16O4P+
185.0827	11	C6H16O3[18]OP+
225.1248	386	C9H22O4P+
226.1276	47	C8[13]CH22O4P+
