Mass spectrum: Aflatoxin G1; LC-ESI-QTOF; MS2; CE: 50 eV; R=35000; [M+H]+
Name: Aflatoxin G1
Name: 11-methoxy-6,8,16,20-tetraoxapentacyclo[10.8.0.02,9.03,7.013,18]icosa-1,4,9,11,13(18)-pentaene-17,19-dione
Class: Natural Product; Fungal metabolite
Formula: C17H12O7
Exact mass: 328.0583
SMILES: COC1=C2C3=C(C(=O)OCC3)C(=O)OC2=C4C5C=COC5OC4=C1
InChI: InChI=1S/C17H12O7/c1-20-9-6-10-12(8-3-5-22-17(8)23-10)14-11(9)7-2-4-21-15(18)13(7)16(19)24-14/h3,5-6,8,17H,2,4H2,1H3
Instrument: Bruker maXis Impact
Instrument type: LC-ESI-QTOF
Ms type: MS2
Ion mode: POSITIVE
Ionization: ESI
Fragmentation mode: CID
Collision energy: 50 eV
Resolution: 35000
Column name: Acclaim RSLC C18 2.2um, 2.1x100mm, Thermo
Retention time: 6.082 min
Base peak: 329.0654
Precursor m/z: 329.0656
Precursor type: [M+H]+
m/z	relative intensity	assigned
115.054	37	C9H7+
127.0537	13	C10H7+
128.0614	117	C10H8+
129.0687	38	C10H9+
131.0488	9	C9H7O+
131.0851	5	C10H11+
135.0432	7	C8H7O2+
139.0537	28	C11H7+
140.0609	13	C11H8+
141.0695	77	C11H9+
143.0488	13	C10H7O+
143.085	11	C11H11+
144.0567	41	C10H8O+
145.0279	7	C9H5O2+
145.0642	22	C10H9O+
146.0696	5	C10H10O+
147.0434	9	C9H7O2+
152.0616	53	C12H8+
153.0692	34	C12H9+
154.0753	9	C12H10+
155.0489	42	C11H7O+
155.0846	7	C12H11+
156.0563	45	C11H8O+
157.064	37	C11H9O+
158.0358	6	C10H6O2+
158.0714	20	C11H10O+
159.0435	10	C10H7O2+
159.0801	15	C11H11O+
160.0505	6	C10H8O2+
161.059	9	C10H9O2+
162.0668	6	C10H10O2+
163.0752	6	C10H11O2+
165.0688	8	C13H9+
167.0486	8	C12H7O+
168.0564	52	C12H8O+
169.0642	102	C12H9O+
170.0361	8	C11H6O2+
170.0695	18	C12H10O+
171.0436	114	C11H7O2+
171.0798	21	C12H11O+
172.0506	41	C11H8O2+
173.0229	7	C10H5O3+
173.0586	17	C11H9O2+
174.0664	6	C11H10O2+
175.0383	9	C10H7O3+
175.0749	7	C11H11O2+
177.0909	16	C11H13O2+
181.0643	27	C13H9O+
182.0702	7	C13H10O+
183.0434	49	C12H7O2+
183.0793	5	C13H11O+
184.0515	136	C12H8O2+
185.0587	102	C12H9O2+
186.0315	5	C11H6O3+
186.0656	29	C12H10O2+
187.0384	11	C11H7O3+
187.0746	15	C12H11O2+
188.0453	7	C11H8O3+
189.0545	29	C11H9O3+
190.0611	14	C11H10O3+
191.0334	13	C10H7O4+
195.0438	20	C13H7O2+
196.0508	31	C13H8O2+
197.0593	91	C13H9O2+
198.031	6	C12H6O3+
198.0664	33	C13H10O2+
199.0388	379	C12H7O3+
199.0747	39	C13H11O2+
200.0466	999	C12H8O3+
201.0506	121	C12H9O3+
201.0906	7	C13H13O2+
203.0705	5	C12H11O3+
205.0856	15	C12H13O3+
209.0593	15	C14H9O2+
210.0312	13	C13H6O3+
210.0658	5	C14H10O2+
211.0386	73	C13H7O3+
211.0752	13	C14H11O2+
212.0464	116	C13H8O3+
213.0542	170	C13H9O3+
214.0623	477	C13H10O3+
215.0697	456	C13H11O3+
216.0407	6	C12H8O4+
216.0727	59	C13H12O3+
217.0842	10	C13H13O3+
218.0562	6	C12H10O4+
223.0382	13	C14H7O3+
224.0459	23	C14H8O3+
225.0543	66	C14H9O3+
226.0602	31	C14H10O3+
227.0332	25	C13H7O4+
227.0699	98	C14H11O3+
228.0413	113	C13H8O4+
228.0729	14	C14H12O3+
229.0465	24	C13H9O4+
230.056	8	C13H10O4+
233.0809	7	C13H13O4+
237.0541	9	C15H9O3+
239.0333	57	C14H7O4+
239.0703	11	C15H11O3+
240.0412	83	C14H8O4+
241.0481	76	C14H9O4+
242.0559	39	C14H10O4+
243.0648	185	C14H11O4+
244.0679	28	C14H12O4+
245.0791	9	C14H13O4+
251.0331	10	C15H7O4+
252.0403	7	C15H8O4+
253.0492	15	C15H9O4+
254.0552	8	C15H10O4+
255.0647	53	C15H11O4+
256.0678	9	C15H12O4+
257.0425	10	C14H9O5+
267.0285	94	C15H7O5+
268.0351	80	C15H8O5+
269.0422	23	C15H9O5+
270.0496	8	C15H10O5+
282.0507	5	C16H10O5+
283.0592	35	C16H11O5+
284.0639	7	C16H12O5+
285.0389	24	C15H9O6+
286.043	5	C15H10O6+
295.0231	33	C16H7O6+
296.028	12	C16H8O6+
311.0546	10	C17H11O6+
313.0343	18	C16H9O7+
