Mass spectrum: Azoxystrobin acid; LC-ESI-QTOF; MS2; CE: 50 eV; R=35000; [M+H]+
Name: Azoxystrobin acid
Name: SCHEMBL435486
Name: (E)-2-[2-[6-(2-cyanophenoxy)pyrimidin-4-yl]oxyphenyl]-3-methoxyprop-2-enoic acid
Formula: C21H15N3O5
Exact mass: 389.1011706
SMILES: CO\C=C(\C(O)=O)c1ccccc1Oc1cc(Oc2ccccc2C#N)ncn1
InChI: InChI=1S/C21H15N3O5/c1-27-12-16(21(25)26)15-7-3-5-9-18(15)29-20-10-19(23-13-24-20)28-17-8-4-2-6-14(17)11-22/h2-10,12-13H,1H3,(H,25,26)/b16-12+
Instrument: Bruker maXis Impact
Instrument type: LC-ESI-QTOF
Ms type: MS2
Ion mode: POSITIVE
Ionization: ESI
Fragmentation mode: CID
Collision energy: 50 eV
Resolution: 35000
Column name: Acclaim RSLC C18 2.2um, 2.1x100mm, Thermo
Retention time: 8.0 min
Base peak: 390.1083
Precursor m/z: 390.1084
Precursor type: [M+H]+
m/z	relative intensity	assigned
114.0319	27	C5H6O3+
115.0398	12	C5H7O3+
116.0488	33	C8H6N+
117.055	11	C5H9O3+
118.0413	23	C8H6O+
119.0362	18	C7H5NO+
120.0433	55	C7H6NO+
121.0654	9	C8H9O+
127.0404	32	C9H5N+
128.0483	28	C9H6N+
129.0336	29	C9H5O+
129.0434	114	C8H5N2+
130.028	34	C8H4NO+
130.0467	17	H8N3O5+
130.0644	9	C9H8N+
131.0341	8	C5H7O4+
131.047	16	C7H5N3+
131.0577	10	C5H9NO3+
132.0439	32	C8H6NO+
133.0275	18	C6H3N3O+
133.0507	166	C5H9O4+
134.0346	16	C6H4N3O+
134.0589	181	C8H8NO+
135.0617	17	C3H9N3O3+
140.0485	13	C10H6N+
141.0435	62	C9H5N2+
142.0469	14	CH8N3O5+
143.0356	45	C9H5NO+
143.0587	96	C6H9NO3+
144.0428	85	C6H8O4+
144.0638	14	C6H10NO3+
145.0272	41	C7H3N3O+
145.0508	146	C6H9O4+
146.0223	41	C8H4NO2+
146.0556	21	C4H8N3O3+
147.0418	10	C7H5N3O+
147.0579	9	C8H7N2O+
148.0511	13	C7H6N3O+
149.0222	64	C6H3N3O2+
154.0274	12	C10H4NO+
154.0511	15	C7H8NO3+
155.0344	24	C7H7O4+
155.0595	76	C10H7N2+
156.0431	727	C10H6NO+
157.0268	24	C8H3N3O+
157.0469	78	C9[13]CH6NO+
158.0345	8	C8H4N3O+
158.049	12	C9H6N2O+
159.0318	11	C9H5NO2+
159.0546	25	C9H7N2O+
160.0386	9	C9H6NO2+
161.0442	8	C6H9O5+
161.0698	13	C9H9N2O+
162.0301	27	C7H4N3O2+
168.043	16	C8H8O4+
169.0382	114	C7H7NO4+
170.0236	10	C10H4NO2+
170.0459	61	C7H8NO4+
171.0307	34	C10H5NO2+
171.0541	141	C10H7N2O+
172.0381	999	C10H6NO2+
173.0427	138	C9[13]CH6NO2+
174.0471	13	C14H6+
175.0369	18	C8H5N3O2+
177.0527	39	C8H7N3O2+
181.0394	12	C11H5N2O+
182.0466	81	C11H6N2O+
182.0709	32	C11H8N3+
183.0542	856	C11H7N2O+
184.0391	24	C11H6NO2+
184.0576	115	C10[13]CH7N2O+
185.022	8	C9H3N3O2+
185.0329	16	C7H7NO5+
185.044	17	C8H9O5+
186.0557	25	C11H8NO2+
187.0495	34	C10H7N2O2+
190.0494	10	C10H8NO3+
195.0426	7	C11H5N3O+
195.0523	9	C9H9NO4+
197.0338	21	C11H5N2O2+
197.0691	9	C9H11NO4+
198.0399	21	C8H8NO5+
198.0786	11	C12H10N2O+
201.0403	260	C11H7NO3+
201.0658	34	C11H9N2O2+
202.043	38	C10[13]CH7NO3+
204.0805	11	C15H10N+
205.0736	8	C11H11NO3+
206.0799	7	C11H12NO3+
207.0528	12	C10H9NO4+
210.0656	25	C12H8N3O+
211.0487	105	C9H9NO5+
212.0534	21	C9H10NO5+
216.0642	61	C12H10NO3+
217.0646	8	C16H9O+
218.0832	22	C15H10N2+
219.0889	9	C12H13NO3+
225.0668	8	C13H9N2O2+
227.044	28	C12H7N2O3+
229.0772	17	C16H9N2+
230.0638	9	C16H8NO+
231.0906	9	C16H11N2+
232.0804	13	C12H12N2O3+
233.0693	19	C12H11NO4+
234.071	8	C16H10O2+
234.0919	9	C16H12NO+
242.0313	60	C12H6N2O4+
243.0344	17	C16H5NO2+
244.0864	58	C16H10N3+
245.0702	42	C16H9N2O+
245.0893	27	C13H13N2O3+
246.0768	45	C13H12NO4+
247.0825	21	C13H13NO4+
256.0869	12	C17H10N3+
257.0714	17	C17H9N2O+
258.0764	19	C14H12NO4+
259.0838	20	C14H13NO4+
260.0748	9	C17H10NO2+
260.0895	7	C14H14NO4+
261.0769	18	C14H13O5+
262.0818	11	C12H12N3O4+
271.085	15	C15H13NO4+
273.0875	142	C14H13N2O4+
274.0717	110	C14H12NO5+
275.0806	67	C17H11N2O2+
276.085	20	C14H14NO5+
284.0788	22	C15H12N2O4+
285.0645	10	C15H11NO5+
285.0865	8	C15H13N2O4+
286.0966	9	C18H12N3O+
287.0799	25	C15H13NO5+
288.0651	17	C18H10NO3+
288.0868	13	C15H14NO5+
288.1157	9	C20H16O2+
289.0927	12	C15H15NO5+
299.0798	10	C16H13NO5+
301.0833	421	C18H11N3O2+
302.087	72	C17[13]CH11N3O2+
303.074	9	C18H11N2O3+
303.0915	10	C19H13NO3+
312.0787	22	C21H12O3+
313.085	7	C19H11N3O2+
314.0923	9	C19H12N3O2+
315.0976	8	C16H15N2O5+
316.1107	9	C21H16O3+
329.0782	898	C19H11N3O3+
330.0817	184	C18[13]CH11N3O3+
344.1046	37	C20H14N3O3+
345.1074	12	C19[13]CH14N3O3+
