Mass spectrum: Norsertraline; LC-ESI-QTOF; MS2; CE: 50 eV; R=35000; [M+H]+
Name: Norsertraline
Name: Desmethylsertraline
Name: (1S,4S)-4-(3,4-dichlorophenyl)-1,2,3,4-tetrahydronaphthalen-1-amine
Formula: C16H15Cl2N
Exact mass: 291.0581548
SMILES: N[C@H]1CC[C@@H](C2=CC(Cl)=C(Cl)C=C2)C2=CC=CC=C12
InChI: InChI=1S/C16H15Cl2N/c17-14-7-5-10(9-15(14)18)11-6-8-16(19)13-4-2-1-3-12(11)13/h1-5,7,9,11,16H,6,8,19H2/t11-,16-/m0/s1
Instrument: Bruker maXis Impact
Instrument type: LC-ESI-QTOF
Ms type: MS2
Ion mode: POSITIVE
Ionization: ESI
Fragmentation mode: CID
Collision energy: 50 eV
Resolution: 35000
Column name: Acclaim RSLC C18 2.2um, 2.1x100mm, Thermo
Retention time: 9.4 min
Base peak: 150.1112
Precursor m/z: 292.0654
Precursor type: [M+H]+
m/z	relative intensity	assigned
122.9989	184	C7H4Cl+
124.005	59	C7H5Cl+
125.0127	19	C7H6Cl+
127.0538	22	C10H7+
128.0609	171	C10H8+
129.0686	126	C10H9+
132.9597	39	C5H3Cl2+
145.0634	34	C7H12ClN+
155.0591	28	C9H12Cl+
158.9753	999	C7H5Cl2+
159.9786	83	C6[13]CH5Cl2+
160.9724	530	C7H5[37]Cl[35]Cl+
161.9764	43	C6[13]CH5[37]Cl[35]Cl+
162.0232	27	C10H7Cl+
189.0672	17	C15H9+
190.0772	16	C15H10+
205.0993	28	C16H13+
225.0445	33	C15H10Cl+
227.042	19	C12H13Cl2+
