Mass spectrum: 4-Androsten-11beta-ol-3,17-dione; LC-ESI-QTOF; MS2; CE: Ramp 21.7-32.5 eV; R=35000; [M+H]+
Name: 4-Androsten-11beta-ol-3,17-dione
Name: 11beta-Hydroxyandrostenedione
Name: (8S,9S,10R,11S,13S,14S)-11-hydroxy-10,13-dimethyl-2,6,7,8,9,11,12,14,15,16-decahydro-1H-cyclopenta[a]phenanthrene-3,17-dione
Formula: C19H26O3
Exact mass: 302.1881947
SMILES: C[C@]12C[C@H](O)[C@H]3[C@@H](CCC4=CC(=O)CC[C@]34C)[C@@H]1CCC2=O
InChI: InChI=1S/C19H26O3/c1-18-8-7-12(20)9-11(18)3-4-13-14-5-6-16(22)19(14,2)10-15(21)17(13)18/h9,13-15,17,21H,3-8,10H2,1-2H3/t13-,14-,15-,17+,18-,19-/m0/s1
Instrument: Bruker maXis Impact
Instrument type: LC-ESI-QTOF
Ms type: MS2
Ion mode: POSITIVE
Ionization: ESI
Fragmentation mode: CID
Collision energy: Ramp 21.7-32.5 eV
Resolution: 35000
Column name: Acclaim RSLC C18 2.2um, 2.1x100mm, Thermo
Retention time: 8.193 min
Base peak: 303.1954
Precursor m/z: 303.1955
Precursor type: [M+H]+
m/z	relative intensity	assigned
55.0174	15	C3H3O+
55.0537	11	C4H7+
67.0535	19	C5H7+
69.0332	16	C4H5O+
69.0691	22	C5H9+
71.0483	9	C4H7O+
79.0539	26	C6H7+
81.0695	50	C6H9+
83.0493	32	C5H7O+
91.0542	15	C7H7+
93.0698	35	C7H9+
95.0485	12	C6H7O+
95.0857	25	C7H11+
97.0648	100	C6H9O+
98.0686	7	C5[13]CH9O+
99.0447	6	C5H7O2+
105.0714	35	C8H9+
107.0488	6	C7H7O+
107.086	24	C8H11+
109.0657	36	C7H9O+
109.1011	7	C8H13+
111.0831	7	C7H11O+
115.0544	12	C9H7+
117.0691	34	C9H9+
119.085	86	C9H11+
120.0887	9	C8[13]CH11+
121.0644	396	C8H9O+
121.1005	45	C9H13+
122.0674	35	C7[13]CH9O+
122.103	5	C8[13]CH13+
123.0798	379	C8H11O+
124.0829	31	C7[13]CH11O+
128.0618	14	C10H8+
129.0683	32	C10H9+
130.0759	15	C10H10+
131.0848	97	C10H11+
132.0888	11	C9[13]CH11+
133.0648	15	C9H9O+
133.1005	118	C10H13+
134.1041	13	C9[13]CH13+
135.0798	85	C9H11O+
135.1156	49	C10H15+
136.0836	12	C8[13]CH11O+
136.12	7	C9[13]CH15+
137.0954	26	C9H13O+
141.0691	26	C11H9+
142.0759	10	C11H10+
143.0846	136	C11H11+
144.0885	14	C10[13]CH11+
145.1004	471	C11H13+
146.0711	5	C10H10O+
146.1039	58	C10[13]CH13+
147.0791	89	C10H11O+
147.116	100	C11H15+
148.0833	9	C9[13]CH11O+
148.1195	12	C10[13]CH15+
149.0952	67	C10H13O+
149.1327	5	C11H17+
150.0987	9	C9[13]CH13O+
151.1108	86	C10H15O+
152.1124	11	C9[13]CH15O+
153.091	5	C9H13O2+
155.0844	38	C12H11+
156.0893	6	C11[13]CH11+
157.0641	12	C11H9O+
157.1004	76	C12H13+
158.1048	13	C11[13]CH13+
159.079	39	C11H11O+
159.1158	101	C12H15+
160.0843	10	C11H12O+
160.1191	14	C11[13]CH15+
161.095	92	C11H13O+
161.1306	23	C12H17+
162.0994	16	C10[13]CH13O+
163.111	275	C11H15O+
164.1148	32	C10[13]CH15O+
165.1265	6	C11H17O+
167.0841	16	C13H11+
168.0907	10	C13H12+
169.1006	57	C13H13+
171.0793	33	C12H11O+
171.1163	135	C13H15+
172.1194	15	C12[13]CH15+
173.0955	75	C12H13O+
173.1316	27	C13H17+
174.1385	5	C12[13]CH17+
175.1112	158	C12H15O+
176.1154	32	C11[13]CH15O+
177.125	28	C12H17O+
179.0845	8	C14H11+
181.0995	30	C14H13+
182.1087	9	C14H14+
183.0787	5	C13H11O+
183.116	90	C14H15+
184.1197	16	C13[13]CH15+
185.0962	37	C13H13O+
185.1315	108	C14H17+
186.0969	7	C12[13]CH13O+
186.1338	16	C13[13]CH17+
187.1104	49	C13H15O+
187.1457	10	C14H19+
188.1142	7	C12[13]CH15O+
189.1268	155	C13H17O+
190.1302	25	C12[13]CH17O+
191.1042	8	C12H15O2+
191.1415	5	C13H19O+
192.0943	6	C15H12+
193.1012	19	C15H13+
194.1064	13	C15H14+
195.1171	44	C15H15+
196.1215	11	C14[13]CH15+
197.0957	83	C14H13O+
197.1318	53	C15H17+
198.098	11	C13[13]CH13O+
198.1355	11	C14[13]CH17+
199.1101	39	C14H15O+
199.1474	42	C15H19+
200.1162	7	C13[13]CH15O+
200.153	11	C14[13]CH19+
201.1283	42	C14H17O+
201.1627	14	C15H21+
202.1288	7	C13[13]CH17O+
203.1064	9	C13H15O2+
203.1437	38	C14H19O+
204.147	7	C13[13]CH19O+
205.1007	5	C16H13+
207.1158	33	C16H15+
208.12	11	C16H16+
209.1315	95	C16H17+
210.1368	29	C16H18+
211.1107	36	C15H15O+
211.1479	24	C16H19+
212.1167	10	C15H16O+
212.1527	7	C16H20+
213.1262	39	C15H17O+
213.1632	10	C16H21+
214.1315	7	C14[13]CH17O+
215.1419	27	C15H19O+
215.1797	11	C16H23+
216.1462	7	C15H20O+
217.1228	5	C14H17O2+
217.1621	6	C15H21O+
220.1212	5	C17H16+
221.133	13	C17H17+
223.1482	51	C17H19+
224.1534	12	C16[13]CH19+
225.1269	57	C16H17O+
225.1631	84	C17H21+
226.1303	18	C16H18O+
226.1659	20	C16[13]CH21+
227.143	157	C16H19O+
228.147	28	C15[13]CH19O+
229.1211	5	C15H17O2+
229.1574	15	C16H21O+
234.1406	10	C18H18+
237.1268	11	C17H17O+
239.1429	170	C17H19O+
239.1794	53	C18H23+
240.146	36	C16[13]CH19O+
240.1835	10	C17[13]CH23+
241.1585	89	C17H21O+
242.1615	18	C16[13]CH21O+
243.1368	11	C16H19O2+
243.1747	136	C17H23O+
244.1757	22	C16[13]CH23O+
245.1531	16	C16H21O2+
249.1629	80	C19H21+
250.1669	27	C18[13]CH21+
252.1499	56	C18H20O+
253.1532	12	C17[13]CH20O+
257.1537	50	C17H21O2+
257.1906	30	C18H25O+
258.1587	16	C17H22O2+
258.1948	9	C17[13]CH25O+
259.1698	44	C17H23O2+
260.1741	7	C16[13]CH23O2+
261.1839	7	C17H25O2+
267.1747	657	C19H23O+
268.1776	114	C18[13]CH23O+
269.1793	13	C17[13]C2H23O+
270.1616	15	C18H22O2+
285.1852	840	C19H25O2+
286.1884	184	C18[13]CH25O2+
287.192	15	C17[13]C2H25O2+
303.1963	999	C19H27O3+
304.1993	200	C18[13]CH27O3+
305.2015	17	C17[13]C2H27O3+
