Mass spectrum: Norsertraline; LC-ESI-QTOF; MS2; CE: 10 eV; R=35000; [M+H]+
Name: Norsertraline
Name: Desmethylsertraline
Name: (1S,4S)-4-(3,4-dichlorophenyl)-1,2,3,4-tetrahydronaphthalen-1-amine
Formula: C16H15Cl2N
Exact mass: 291.0581548
SMILES: N[C@H]1CC[C@@H](C2=CC(Cl)=C(Cl)C=C2)C2=CC=CC=C12
InChI: InChI=1S/C16H15Cl2N/c17-14-7-5-10(9-15(14)18)11-6-8-16(19)13-4-2-1-3-12(11)13/h1-5,7,9,11,16H,6,8,19H2/t11-,16-/m0/s1
Instrument: Bruker maXis Impact
Instrument type: LC-ESI-QTOF
Ms type: MS2
Ion mode: POSITIVE
Ionization: ESI
Fragmentation mode: CID
Collision energy: 10 eV
Resolution: 35000
Column name: Acclaim RSLC C18 2.2um, 2.1x100mm, Thermo
Retention time: 9.4 min
Base peak: 150.1115
Precursor m/z: 292.0654
Precursor type: [M+H]+
m/z	relative intensity	assigned
129.0691	48	C10H9+
158.9755	41	C7H5Cl2+
275.0381	999	C16H13Cl2+
276.0417	148	C15[13]CH13Cl2+
277.0349	495	C16H13[37]Cl[35]Cl+
278.0385	45	C15[13]CH13[37]Cl[35]Cl+
