Mass spectrum: Ethyl benzoate; GC-APCI-QTOF; MS2; CE: 20 eV; R=35000; [M]+
Name: Ethyl benzoate
Formula: C9H10O2
Exact mass: 150.0681
SMILES: CCOC(=O)C1=CC=CC=C1
InChI: InChI=1S/C9H10O2/c1-2-11-9(10)8-6-4-3-5-7-8/h3-7H,2H2,1H3
Instrument: Bruker 450 GC coupled to maXis Impact
Instrument type: GC-APCI-QTOF
Ms type: MS2
Ion mode: POSITIVE
Ionization: APCI
Fragmentation mode: CID
Collision energy: 20 eV
Resolution: 35000
Column name: Rxi-5Sil MS column, 30m, 0.25mm i.d., 0.25Âµm film thickness, Restek
Retention time: 9.302 min
Base peak: 151.0772
Precursor m/z: 150.0675
Precursor type: [M]+
m/z	relative intensity	assigned
79.0524	198	C6H7+
105.0316	132	C7H5O+
122.039	214	C7H6O2+
123.0435	999	C7H7O2+
131.0504	973	C9H7O+
149.0618	351	C9H9O2+
