Mass spectrum: Fluvastatin; LC-ESI-QTOF; MS2; CE: 30 eV; R=35000; [M+H]+
Name: Fluvastatin
Name: (E,3R,5S)-7-[3-(4-fluorophenyl)-1-propan-2-ylindol-2-yl]-3,5-dihydroxyhept-6-enoic acid
Formula: C24H26FNO4
Exact mass: 411.1845865
SMILES: CC(C)n1c2ccccc2c(c1/C=C/[C@H](C[C@H](CC(=O)O)O)O)c3ccc(cc3)F
InChI: InChI=1S/C24H26FNO4/c1-15(2)26-21-6-4-3-5-20(21)24(16-7-9-17(25)10-8-16)22(26)12-11-18(27)13-19(28)14-23(29)30/h3-12,15,18-19,27-28H,13-14H2,1-2H3,(H,29,30)/b12-11+/t18-,19-/m1/s1
Instrument: Bruker maXis Impact
Instrument type: LC-ESI-QTOF
Ms type: MS2
Ion mode: POSITIVE
Ionization: ESI
Fragmentation mode: CID
Collision energy: 30 eV
Resolution: 35000
Column name: Acclaim RSLC C18 2.2um, 2.1x100mm, Thermo
Retention time: 10.824 min
Base peak: 150.1127
Precursor m/z: 412.1919
Precursor type: [M+H]+
m/z	relative intensity	assigned
123.045	25	C4H8FO3+
141.0551	17	C7H9O3+
197.0769	25	C14H10F+
211.0805	10	C14H10FN+
212.0871	26	C14H11FN+
213.0885	11	C14H13O2+
223.0797	51	C15H10FN+
224.0878	999	C15H11FN+
225.0915	187	C14[13]CH11FN+
226.0945	16	C15H14O2+
238.1037	48	C16H13FN+
239.1068	9	C16H15O2+
253.1256	10	C17H16FN+
254.1333	19	C17H17FN+
264.1201	21	C18H15FN+
265.1226	11	C18H17O2+
266.1352	737	C18H17FN+
267.1395	156	C17[13]CH17FN+
268.1441	15	C18H20O2+
274.1075	9	C15H16NO4+
280.152	42	C19H19FN+
281.1559	18	C16H22FO3+
290.1343	13	C20H17FN+
306.1692	23	C17H24NO4+
352.1371	10	C21H19FNO3+
369.1378	20	C21H20FNO4+
376.172	17	C24H23FNO2+
394.1858	15	C24H25FNO3+
