Mass spectrum: Tetraglyme; LC-ESI-QTOF; MS2; CE: 10 eV; R=35000; [M+H]+
Name: Tetraglyme
Name: 1-methoxy-2-[2-[2-(2-methoxyethoxy)ethoxy]ethoxy]ethane
Formula: C10H22O5
Exact mass: 222.1467238
SMILES: COCCOCCOCCOCCOC
InChI: InChI=1S/C10H22O5/c1-11-3-5-13-7-9-15-10-8-14-6-4-12-2/h3-10H2,1-2H3
Instrument: Bruker maXis Impact
Instrument type: LC-ESI-QTOF
Ms type: MS2
Ion mode: POSITIVE
Ionization: ESI
Fragmentation mode: CID
Collision energy: 10 eV
Resolution: 35000
Column name: Acclaim RSLC C18 2.2um, 2.1x100mm, Thermo
Retention time: 4.616 min
Base peak: 240.1806
Precursor m/z: 223.154
Precursor type: [M+H]+
m/z	relative intensity	assigned
147.0995	999	C7H15O3+
177.0537	590	C10H9O3+
223.1537	536	C10H23O5+
