Mass spectrum: Memantine; LC-ESI-QTOF; MS2; CE: 30 eV; R=35000; [M+H]+
Name: Memantine
Name: 3,5-dimethyladamantan-1-amine
Formula: C12H21N
Exact mass: 179.1673997
SMILES: CC12CC3CC(C)(C1)CC(N)(C3)C2
InChI: InChI=1S/C12H21N/c1-10-3-9-4-11(2,6-10)8-12(13,5-9)7-10/h9H,3-8,13H2,1-2H3
Instrument: Bruker maXis Impact
Instrument type: LC-ESI-QTOF
Ms type: MS2
Ion mode: POSITIVE
Ionization: ESI
Fragmentation mode: CID
Collision energy: 30 eV
Resolution: 35000
Column name: Acclaim RSLC C18 2.2um, 2.1x100mm, Thermo
Retention time: 6.719 min
Base peak: 180.174
Precursor m/z: 180.1747
Precursor type: [M+H]+
m/z	relative intensity	assigned
107.085	5	C8H11+
119.0849	9	C9H11+
121.1005	89	C9H13+
122.1036	13	C8[13]CH13+
135.1158	69	C10H15+
136.1189	7	C9[13]CH15+
163.1472	999	C12H19+
164.1505	107	C11[13]CH19+
165.1536	6	C10[13]C2H19+
