Mass spectrum: Cetirizine N-Oxide; LC-ESI-QTOF; MS2; CE: 10 eV; R=35000; [M+H]+
Name: Cetirizine N-Oxide
Name: (R)-Cetirizine N-Oxide
Name: 2-[2-[4-[(4-chlorophenyl)-phenylmethyl]-1-oxidopiperazin-1-ium-1-yl]ethoxy]acetic acid
Formula: C21H25ClN2O4
Exact mass: 404.1502850
SMILES: OC(=O)COCC[N+]1([O-])CCN(CC1)C(C1=CC=CC=C1)C1=CC=C(Cl)C=C1
InChI: InChI=1S/C21H25ClN2O4/c22-19-8-6-18(7-9-19)21(17-4-2-1-3-5-17)23-10-12-24(27,13-11-23)14-15-28-16-20(25)26/h1-9,21H,10-16H2,(H,25,26)
Instrument: Bruker maXis Impact
Instrument type: LC-ESI-QTOF
Ms type: MS2
Ion mode: POSITIVE
Ionization: ESI
Fragmentation mode: CID
Collision energy: 10 eV
Resolution: 35000
Column name: Acclaim RSLC C18 2.2um, 2.1x100mm, Thermo
Retention time: 9.0 min
Base peak: 150.1119
Precursor m/z: 405.1576
Precursor type: [M+H]+
m/z	relative intensity	assigned
201.0438	7	C14H5N2+
387.1791	30	C20H25N3O5+
388.1831	6	C19[13]CH25N3O5+
405.1579	999	C21H26ClN2O4+
406.1609	249	C20[13]CH26ClN2O4+
407.1558	248	C21H26[37]ClN2O4+
408.1585	40	C20[13]CH26[37]ClN2O4+
