Mass spectrum: Metribuzin-desamino; LC-ESI-QTOF; MS2; CE: 30 eV; R=35000; [M+H]+
Name: Metribuzin-desamino
Name: Deaminated sencor
Name: 6-tert-butyl-3-methylsulfanyl-2H-1,2,4-triazin-5-one
Formula: C8H13N3OS
Exact mass: 199.077933
SMILES: CSC1=NC(=O)C(=NN1)C(C)(C)C
InChI: InChI=1S/C8H13N3OS/c1-8(2,3)5-6(12)9-7(13-4)11-10-5/h1-4H3,(H,9,11,12)
Instrument: Bruker maXis Impact
Instrument type: LC-ESI-QTOF
Ms type: MS2
Ion mode: POSITIVE
Ionization: ESI
Fragmentation mode: CID
Collision energy: 30 eV
Resolution: 35000
Column name: Acclaim RSLC C18 2.2um, 2.1x100mm, Thermo
Retention time: 7.2 min
Base peak: 200.0846
Precursor m/z: 200.0852
Precursor type: [M+H]+
m/z	relative intensity	assigned
116.0271	254	C3H6N3S+
117.0291	10	C2[13]CH6N3S+
124.0859	10	C6H10N3+
126.1013	11	C6H12N3+
127.0856	6	C6H11N2O+
130.0426	57	C4H8N3S+
131.044	5	C2H5N5O2+
132.0372	5	C4H8N2OS+
138.0647	7	C6H8N3O+
139.0733	6	C6H9N3O+
140.0401	5	C6H8N2S+
141.0339	15	C5H7N3S+
142.0423	425	C5H8N3S+
143.0446	27	C4[13]CH8N3S+
144.0212	16	C4H6N3OS+
144.038	16	C5H8N2OS+
155.0625	5	C7H11N2S+
156.0576	467	C6H10N3S+
157.0655	875	C6H11N3S+
158.0566	17	C8H6N4+
158.0686	70	C5[13]CH11N3S+
159.0609	35	C6H11N3[34]S+
170.0371	40	C6H8N3OS+
172.0893	999	C7H14N3S+
173.0916	104	C6[13]CH14N3S+
174.085	40	C7H14N3[34]S+
185.0614	29	C7H11N3OS+
200.0842	170	C8H14N3OS+
