Mass spectrum: Indoxacarb; LC-ESI-QTOF; MS2; CE: 20 eV; R=35000; [M+H]+
Name: Indoxacarb
Name: methyl (4aS)-7-chloro-2-[methoxycarbonyl-[4-(trifluoromethoxy)phenyl]carbamoyl]-3,5-dihydroindeno[1,2-e][1,3,4]oxadiazine-4a-carboxylate
Formula: C22H17ClF3N3O7
Exact mass: 527.0707122
SMILES: COC(=O)N(C(=O)N1CO[C@]2(CC3=CC(Cl)=CC=C3C2=N1)C(=O)OC)C1=CC=C(OC(F)(F)F)C=C1
InChI: InChI=1S/C22H17ClF3N3O7/c1-33-18(30)21-10-12-9-13(23)3-8-16(12)17(21)27-28(11-35-21)19(31)29(20(32)34-2)14-4-6-15(7-5-14)36-22(24,25)26/h3-9H,10-11H2,1-2H3/t21-/m0/s1
Instrument: Bruker maXis Impact
Instrument type: LC-ESI-QTOF
Ms type: MS2
Ion mode: POSITIVE
Ionization: ESI
Fragmentation mode: CID
Collision energy: 20 eV
Resolution: 35000
Column name: Acclaim RSLC C18 2.2um, 2.1x100mm, Thermo
Retention time: 11.570 min
Base peak: 306.1033
Precursor m/z: 528.078
Precursor type: [M+H]+
m/z	relative intensity	assigned
150.0093	267	C8H5ClN+
151.0127	26	C7[13]CH5ClN+
152.0064	75	C8H5[37]ClN+
160.0491	6	C2H9FN2O5+
162.01	11	C12H2O+
163.0292	5	C11H3N2+
168.0197	148	C5H9ClO4+
169.0229	13	C4[13]CH9ClO4+
170.0169	45	C5H9[37]ClO4+
178.0046	60	C9H5ClNO+
179.0059	7	C8[13]CH5ClNO+
180.002	16	C9H5[37]ClNO+
189.0201	42	C4H9ClFNO4+
190.004	203	C7H7ClO4+
191.0081	25	C6[13]CH7ClO4+
192.0012	56	C7H7[37]ClO4+
193.0055	5	C5H3F2N2O4+
194.035	5	C11H4N3O+
195.0194	11	C8H6ClN3O+
196.0147	98	C7H6ClF3N+
197.0177	10	C6[13]CH6ClF3N+
198.0121	30	C7H6[37]ClF3N+
203.0176	93	C7H7O7+
204.0223	8	C6[13]CH7O7+
206.0352	16	C8H11ClO4+
207.029	11	CH12ClF2NO6+
208.0152	16	C4H10ClFO6+
208.0321	6	C8H11[37]ClO4+
209.0287	5	CH12[37]ClF2NO6+
210.0121	5	C4H10[37]ClFO6+
214.0236	7	C10H5F3O2+
214.073	20	C9H14ClF3+
215.0396	7	C6H10ClF2N2O2+
216.0257	5	C12H4F2NO+
217.0153	124	C8H8ClNO4+
218.0416	999	C9H8F2O4+
219.0114	36	C8H8[37]ClNO4+
219.0448	87	C8[13]CH8F2O4+
220.0447	5	C7[13]C2H8F2O4+
221.0282	7	C11H5F2NO2+
221.0469	9	C5H11F2O7+
222.0314	10	C2H13ClF2O7+
223.0145	156	C9H6ClN3O2+
223.0388	11	C9H6FN3O3+
224.0179	22	C8[13]CH6ClN3O2+
225.0119	40	C9H6[37]ClN3O2+
230.9942	13	C5H7ClFNO6+
232.9927	7	C8H2F3NO4+
235.0263	23	C11H8ClN2O2+
237.0247	8	C11H8[37]ClN2O2+
249.042	877	C10H9ClF3N2+
250.0447	114	C9[13]CH9ClF3N2+
251.0391	228	C10H9[37]ClF3N2+
252.0412	24	C10H7FN3O4+
262.0322	19	C10H7F3NO4+
263.0214	115	C10H7ClF3N2O+
264.0235	15	C9[13]CH7ClF3N2O+
265.0187	37	C10H7[37]ClF3N2O+
265.0362	71	C10H9ClF3N2O+
266.0395	9	C9[13]CH9ClF3N2O+
267.0515	62	C10H11ClF3N2O+
268.0544	9	C9[13]CH11ClF3N2O+
269.0497	15	C10H11[37]ClF3N2O+
280.0433	9	C7H12ClF3N2O4+
281.0671	10	C7H17ClFNO7+
291.0584	38	C16H13ClFO2+
293.0319	633	C11H9ClF3N2O2+
294.0341	102	C10[13]CH9ClF3N2O2+
295.0288	171	C11H9[37]ClF3N2O2+
296.0327	19	C13H9FO7+
311.0404	5	C11H11ClF3N2O3+
325.0584	27	C14H14ClN2O5+
326.062	5	C13[13]CH14ClN2O5+
327.0543	10	C14H14[37]ClN2O5+
422.0496	6	C22H11ClF2N3O2+
452.0632	21	C19H16ClFN3O7+
454.0638	8	C19H16[37]ClFN3O7+
484.0855	31	C21H18ClF3N3O5+
485.0875	7	C20[13]CH18ClF3N3O5+
486.0852	8	C21H18[37]ClF3N3O5+
496.052	82	C21H14ClF3N3O6+
497.0549	25	C20[13]CH14ClF3N3O6+
498.0491	31	C21H14[37]ClF3N3O6+
499.0559	5	C21H15ClF3N2O7+
528.0773	187	C22H18ClF3N3O7+
529.08	55	C21[13]CH18ClF3N3O7+
530.0752	65	C22H18[37]ClF3N3O7+
