Mass spectrum: 2-Aminobenzimidazole; LC-ESI-QTOF; MS2; CE: 40 eV; R=35000; [M+H]+
Name: 2-Aminobenzimidazole
Formula: C7H7N3
Exact mass: 133.0639972
SMILES: NC1=NC2=C(N1)C=CC=C2
InChI: InChI=1S/C7H7N3/c8-7-9-5-3-1-2-4-6(5)10-7/h1-4H,(H3,8,9,10)
Instrument: Bruker maXis Impact
Instrument type: LC-ESI-QTOF
Ms type: MS2
Ion mode: POSITIVE
Ionization: ESI
Fragmentation mode: CID
Collision energy: 40 eV
Resolution: 35000
Column name: Acclaim RSLC C18 2.2um, 2.1x100mm, Thermo
Retention time: 3.6 min
Base peak: 134.0705
Precursor m/z: 134.0713
Precursor type: [M+H]+
m/z	relative intensity	assigned
117.0439	76	C7H5N2+
133.0625	432	C7H7N3+
134.0702	999	C7H8N3+
