Mass spectrum: 3-Perfluoropentyl propanoic acid (5:3) (FPePA); LC-ESI-QTOF; MS2; CE: 22.4-36.6 eV; R=35000; [M-H]-
Name: 3-Perfluoropentyl propanoic acid (5:3) (FPePA)
Formula: C8H5F11O2
Exact mass: 342.0114
SMILES: C(CC(C(C(C(C(F)(F)F)(F)F)(F)F)(F)F)(F)F)C(=O)O
InChI: InChI=1S/C8H5F11O2/c9-4(10,2-1-3(20)21)5(11,12)6(13,14)7(15,16)8(17,18)19/h1-2H2,(H,20,21)
Instrument: Bruker maXis Impact
Instrument type: LC-ESI-QTOF
Ms type: MS2
Ionization: ESI
Fragmentation mode: CID
Collision energy: 22.4-36.6 eV
Resolution: 35000
Column name: Acclaim RSLC C18 2.2um, 2.1x100mm, Thermo
Retention time: 8.980 min
Base peak: 59.0128
Precursor m/z: 341.0041
Precursor type: [M-H]-
m/z	relative intensity	assigned
62.9882	52	CFO2-
216.9893	999	C7F7-
236.9946	169	C7HF8-
280.985	36	C8HF8O2-
