Mass spectrum: Prometon; LC-ESI-QTOF; MS2; CE: 50 eV; R=35000; [M+H]+
Name: Prometon
Name: 6-methoxy-2-N,4-N-di(propan-2-yl)-1,3,5-triazine-2,4-diamine
Formula: C10H19N5O
Exact mass: 225.1589602
SMILES: COC1=NC(NC(C)C)=NC(NC(C)C)=N1
InChI: InChI=1S/C10H19N5O/c1-6(2)11-8-13-9(12-7(3)4)15-10(14-8)16-5/h6-7H,1-5H3,(H2,11,12,13,14,15)
Instrument: Bruker maXis Impact
Instrument type: LC-ESI-QTOF
Ms type: MS2
Ion mode: POSITIVE
Ionization: ESI
Fragmentation mode: CID
Collision energy: 50 eV
Resolution: 35000
Column name: Acclaim RSLC C18 2.2um, 2.1x100mm, Thermo
Retention time: 8.7 min
Base peak: 226.1661
Precursor m/z: 226.1662
Precursor type: [M+H]+
m/z	relative intensity	assigned
125.0454	34	C4H5N4O+
142.0714	999	C4H8N5O+
143.0745	59	C13[13]CH8N5O+
184.1178	31	C7H14N5O+
