Mass spectrum: Fenthion; LC-ESI-QTOF; MS2; CE: 20 eV; R=35000; [M+H]+
Name: Fenthion
Name: dimethoxy-(3-methyl-4-methylsulfanylphenoxy)-sulfanylidene-$l^{5}-phosphane
Formula: C10H15O3PS2
Exact mass: 278.0200230
SMILES: COP(=S)(OC)OC1=CC(C)=C(SC)C=C1
InChI: InChI=1S/C10H15O3PS2/c1-8-7-9(5-6-10(8)16-4)13-14(15,11-2)12-3/h5-7H,1-4H3
Instrument: Bruker maXis Impact
Instrument type: LC-ESI-QTOF
Ms type: MS2
Ion mode: POSITIVE
Ionization: ESI
Fragmentation mode: CID
Collision energy: 20 eV
Resolution: 35000
Column name: Acclaim RSLC C18 2.2um, 2.1x100mm, Thermo
Retention time: 10.9 min
Base peak: 279.0273
Precursor m/z: 279.0273
Precursor type: [M+H]+
m/z	relative intensity	assigned
121.0097	6	C7H5S+
122.0194	5	C7H6S+
123.0254	15	C7H7S+
124.981	188	C2H6O2PS+
126.9776	5	C5H4PS+
127.0136	7	C4H3N2O3+
137.0408	62	C8H9S+
138.0488	232	C8H10S+
139.0514	21	C7[13]CH10S+
140.0445	7	C7H8O3+
142.9919	64	C2H8O3PS+
149.0223	62	C2H14OPS2+
150.0266	7	C5H11OPS+
153.0358	167	C8H9OS+
153.9894	20	C7H6S2+
154.0397	18	C4H11O4P+
155.0323	7	CH16O2PS2+
168.9864	62	C7H6OPS+
169.0132	999	C8H9S2+
170.0165	96	C7[13]CH9S2+
171.0088	66	C8H9S[34]S+
185.0448	49	C9H13S2+
200.0049	42	C8H9O2PS+
201.0117	7	C8H10O2PS+
214.974	46	C8H8OPS2+
215.9749	5	C10H2NO3S+
231.0222	6	C9H12O3PS+
231.9764	56	C8H9O2PS2+
232.0306	20	C9H13O3PS+
232.9802	7	C8H10O2PS2+
233.9745	5	C9H2N2O4S+
247.0005	621	C9H12O2PS2+
248.004	64	C8[13]CH12O2PS2+
248.9971	37	C10H5N2O4S+
264.0007	8	C9H13O3PS2+
265.0109	19	C9H14O3PS2+
279.0266	180	C10H16O3PS2+
