Mass spectrum: Valsartan; LC-ESI-QTOF; MS2; CE: Ramp 24.3-36.5 eV; R=35000; [M+H]+
Name: Valsartan
Name: (2S)-3-methyl-2-[pentanoyl-[[4-[2-(2H-tetrazol-5-yl)phenyl]phenyl]methyl]amino]butanoic acid
Formula: C24H29N5O3
Exact mass: 435.2270
SMILES: CCCCC(=O)N(Cc1ccc(cc1)c2ccccc2c3n[nH]nn3)[C@@H](C(C)C)C(=O)O
InChI: InChI=1S/C24H29N5O3/c1-4-5-10-21(30)29(22(16(2)3)24(31)32)15-17-11-13-18(14-12-17)19-8-6-7-9-20(19)23-25-27-28-26-23/h6-9,11-14,16,22H,4-5,10,15H2,1-3H3,(H,31,32)(H,25,26,27,28)/t22-/m0/s1
Instrument: Bruker maXis Impact
Instrument type: LC-ESI-QTOF
Ms type: MS2
Ion mode: POSITIVE
Ionization: ESI
Fragmentation mode: CID
Collision energy: Ramp 24.3-36.5 eV
Resolution: 35000
Column name: Acclaim RSLC C18 2.2um, 2.1x100mm, Thermo
Retention time: 9.2 min
Base peak: 748.493
Precursor m/z: 436.2343
Precursor type: [M+H]+
m/z	relative intensity	assigned
60.0551	12	CH6N3+
152.0633	5	C12H8+
153.07	20	C12H9+
163.0537	5	C13H7+
165.0698	9	C13H9+
167.073	6	C12H9N+
178.0777	33	C14H10+
179.0837	23	C14H11+
180.0814	138	C13H10N+
181.0842	22	C8H11N3O2+
190.0659	120	C14H8N+
191.0716	21	C14H9N+
192.0684	28	C13H8N2+
192.08	12	C14H10N+
193.0867	7	C11H13O3+
194.0964	37	C14H12N+
195.0956	7	C13H11N2+
196.075	7	C11H8N4+
205.0767	12	C14H9N2+
206.0839	59	C14H10N2+
207.0926	999	C14H11N2+
208.0764	40	C14H10NO+
208.0957	131	C9H12N4O2+
209.079	5	C9H11N3O3+
209.1063	26	C14H13N2+
210.0918	56	C14H12NO+
211.094	8	C9H13N3O3+
235.0985	600	C16H13NO+
236.1019	115	C11H14N3O3+
253.1098	21	C16H15NO2+
273.1385	5	C19H17N2+
291.1507	521	C19H19N2O+
292.1542	107	C14H20N4O3+
293.1575	6	C14H21N4O3+
306.1735	139	C20H22N2O+
307.1755	31	C15H23N4O3+
352.178	42	C21H24N2O3+
353.1836	10	C19H23N5O2+
362.2249	19	C23H28N3O+
363.2268	13	C18H29N5O3+
418.2282	6	C24H28N5O2+
