Mass spectrum: Clopidol; LC-ESI-QTOF; MS2; CE: 40 eV; R=35000; [M+H]+
Name: Clopidol
Name: 3,5-dichloro-2,6-dimethyl-1H-pyridin-4-one
Formula: C7H7Cl2NO
Exact mass: 190.9904692
SMILES: Cc1c(c(c(c(n1)C)Cl)O)Cl
InChI: InChI=1S/C7H7Cl2NO/c1-3-5(8)7(11)6(9)4(2)10-3/h1-2H3,(H,10,11)
Instrument: Bruker maXis Impact
Instrument type: LC-ESI-QTOF
Ms type: MS2
Ion mode: POSITIVE
Ionization: ESI
Fragmentation mode: CID
Collision energy: 40 eV
Resolution: 35000
Column name: Acclaim RSLC C18 2.2um, 2.1x100mm, Thermo
Retention time: 4.1 min
Base peak: 191.9974
Precursor m/z: 191.9977
Precursor type: [M+H]+
m/z	relative intensity	assigned
120.9602	200	C4H3Cl2+
121.0504	60	C7H7NO+
122.0593	130	C7H8NO+
122.957	154	C4H3Cl[37]Cl+
127.0167	47	C6H6ClN+
128.0256	351	C6H7ClN+
129.0101	41	C6H6ClO+
129.0326	105	C6H8ClN+
138.0102	41	C7H5ClN+
156.021	505	C7H7ClNO+
157.0281	799	C7H8ClNO+
158.0188	103	C7H7[37]ClNO+
159.0253	123	C7H8[37]ClNO+
176.9731	41	C6H5Cl2NO+
190.9899	307	C7H7Cl2NO+
191.9975	999	C7H8Cl2NO+
192.9869	190	C7H7Cl[37]ClNO+
193.995	548	C7H8Cl[37]ClNO+
