Mass spectrum: Moclobemide; LC-ESI-QTOF; MS2; CE: 50 eV; R=35000; [M+H]+
Name: Moclobemide
Name: 4-chloro-N-(2-morpholin-4-ylethyl)benzamide
Formula: C13H17ClN2O2
Exact mass: 268.0978555
SMILES: c1cc(ccc1C(=O)NCCN2CCOCC2)Cl
InChI: InChI=1S/C13H17ClN2O2/c14-12-3-1-11(2-4-12)13(17)15-5-6-16-7-9-18-10-8-16/h1-4H,5-10H2,(H,15,17)
Instrument: Bruker maXis Impact
Instrument type: LC-ESI-QTOF
Ms type: MS2
Ion mode: POSITIVE
Ionization: ESI
Fragmentation mode: CID
Collision energy: 50 eV
Resolution: 35000
Column name: Acclaim RSLC C18 2.2um, 2.1x100mm, Thermo
Retention time: 4.712 min
Base peak: 189.1019
Precursor m/z: 269.1051
Precursor type: [M+H]+
m/z	relative intensity	assigned
110.9991	34	C6H4Cl+
112.9964	18	C6H4[37]Cl+
129.0089	8	C7HN2O+
138.9935	999	C7H4ClO+
139.9969	57	C6[13]CH4ClO+
140.9905	263	C7H4[37]ClO+
141.9939	8	C5H3ClN2O+
182.0355	74	C9H9ClNO+
183.0387	7	C8[13]CH9ClNO+
184.0323	22	C9H9[37]ClNO+
