Mass spectrum: Norfludiazepam; LC-ESI-QTOF; MS2; CE: 50 eV; R=35000; [M+H]+
Name: Norfludiazepam
Name: Norflurazepam
Name: 7-chloro-5-(2-fluorophenyl)-1,3-dihydro-1,4-benzodiazepin-2-one
Formula: C15H10ClFN2O
Exact mass: 288.0465688
SMILES: c1ccc(c(c1)C2=NCC(=O)Nc3c2cc(cc3)Cl)F
InChI: InChI=1S/C15H10ClFN2O/c16-9-5-6-13-11(7-9)15(18-8-14(20)19-13)10-3-1-2-4-12(10)17/h1-7H,8H2,(H,19,20)
Instrument: Bruker maXis Impact
Instrument type: LC-ESI-QTOF
Ms type: MS2
Ion mode: POSITIVE
Ionization: ESI
Fragmentation mode: CID
Collision energy: 50 eV
Resolution: 35000
Column name: Acclaim RSLC C18 2.2um, 2.1x100mm, Thermo
Retention time: 8.576 min
Base peak: 342.0801
Precursor m/z: 289.0538
Precursor type: [M+H]+
m/z	relative intensity	assigned
109.0446	7	C7H6F+
113.0142	7	C4H2FN2O+
122.0387	30	C7H5FN+
122.9991	19	C7H4Cl+
123.0244	8	C4H7ClFN+
123.9947	9	C6H3ClN+
124.9962	7	C7H4[37]Cl+
127.017	5	C9H3O+
129.0439	48	C8H5N2+
130.0521	48	C8H6N2+
131.0592	27	C8H7N2+
133.0522	16	C8H7NO+
134.0389	51	C8H5FN+
135.0457	13	C5H10ClNO+
136.0541	7	C8H7FN+
137.0017	5	C10HO+
138.0094	146	C10H2O+
139.0138	18	C9[13]CH2O+
140.0252	999	C7H7ClN+
141.0283	88	C6[13]CH7ClN+
142.0221	280	C7H7[37]ClN+
143.0259	14	C7H8ClO+
150.0092	32	C8H5ClN+
150.0453	9	C12H6+
151.053	16	C12H7+
152.0071	8	C8H5[37]ClN+
152.0609	48	C12H8+
153.0595	7	C5H11ClFN2+
158.0466	41	C9H6N2O+
159.0488	5	C10H6FN+
163.0048	24	C11HNO+
163.053	6	C13H7+
164.0012	9	C10N2O+
164.0112	10	C11H2NO+
164.0607	11	C13H8+
165.0203	264	C8H6ClN2+
166.004	51	C8H5ClNO+
166.0252	32	C7[13]CH6ClN2+
166.0648	11	C12H8N+
167.017	71	C8H6[37]ClN2+
168.0004	18	C8H5[37]ClNO+
168.0203	11	C8H7ClNO+
168.0553	5	C12H8O+
169.0637	24	C12H9O+
170.0512	48	C12H7F+
171.0581	21	C12H8F+
172.0549	7	C11H7FN+
174.0692	12	C11H9FN+
177.0561	76	C13H7N+
177.9918	7	C8H3ClN2O+
178.0638	80	C13H8N+
179.0717	449	C13H9N+
180.0762	60	C12[13]CH9N+
181.0156	6	C8H6ClN2O+
181.0447	8	C13H6F+
182.0535	21	C13H7F+
183.0596	103	C13H8F+
184.0639	21	C12[13]CH8F+
185.0621	7	C12H8FN+
186.045	7	C15H6+
187.0543	10	C15H7+
189.0563	6	C14H7N+
190.0642	21	C14H8N+
191.0689	5	C14H9N+
192.0689	7	C10H9FN2O+
193.0169	6	C9H6ClN2O+
193.0757	12	C13H9N2+
194.0588	10	C13H8NO+
195.0463	13	C13H6FN+
196.0541	41	C13H7FN+
196.0745	15	C13H10NO+
197.0625	67	C13H8FN+
198.0702	247	C13H9FN+
199.0747	41	C12[13]CH9FN+
200.0763	6	C12H9FN2+
204.0576	6	C12H11ClN+
205.0752	261	C14H9N2+
206.0825	376	C14H10N2+
207.0667	12	C14H9NO+
207.0865	68	C13[13]CH10N2+
208.0544	64	C14H7FN+
209.0622	67	C14H8FN+
210.0695	45	C14H9FN+
211.0626	40	C13H8FN2+
211.0771	100	C14H10FN+
212.081	21	C13[13]CH10FN+
213.032	18	C13H8ClN+
214.0408	361	C13H9ClN+
215.045	63	C12[13]CH9ClN+
216.0373	100	C13H9[37]ClN+
216.0706	6	C12H9FN2O+
217.0204	43	C13H7ClF+
217.039	12	C14H5N2O+
218.0247	6	C12[13]CH7ClF+
219.019	14	C13H7[37]ClF+
223.0652	9	C14H8FN2+
224.0261	10	C14H7ClN+
224.0487	24	C14H7FNO+
224.0739	64	C14H9FN2+
225.0579	39	C14H8FNO+
225.0812	202	C14H10FN2+
226.089	636	C14H11FN2+
227.092	92	C13[13]CH11FN2+
228.0429	23	C13H9ClN2+
229.0492	8	C13H10ClN2+
230.0396	10	C13H9[37]ClN2+
232.0318	32	C13H8ClFN+
233.036	7	C13H9ClFN+
234.0294	10	C13H8[37]ClFN+
234.0459	17	C13H10ClFN+
234.0765	7	C15H10N2O+
235.0657	6	C15H8FN2+
236.0453	5	C15H7FNO+
236.0731	19	C15H9FN2+
237.0563	17	C15H8FNO+
237.077	5	C15H10FN2+
239.0366	22	C14H8ClN2+
240.0439	29	C14H9ClN2+
241.0504	22	C14H10ClN2+
242.0411	10	C14H9[37]ClN2+
243.0482	5	C14H10[37]ClN2+
244.0301	13	C14H8ClFN+
245.0393	42	C14H9ClFN+
246.0393	7	C13[13]CH9ClFN+
247.0363	10	C14H9[37]ClFN+
253.0751	7	C15H10FN2O+
259.0431	65	C14H9ClFN2+
260.0271	7	C14H8ClFNO+
260.0477	24	C14H10ClFN2+
261.0378	18	C14H9[37]ClFN2+
262.0485	7	C14H10[37]ClFN2+
270.035	5	C15H8ClFN2+
289.0534	10	C15H11ClFN2O+
