Mass spectrum: Quinoline N-oxide; LC-ESI-QTOF; MS2; CE: 10 eV; R=35000; [M+H]+
Name: Quinoline N-oxide
Name: Quinoline 1-oxide
Name: 1-oxidoquinolin-1-ium
Formula: C9H7NO
Exact mass: 145.0527638
SMILES: [O-][N+]1=CC=CC2=CC=CC=C12
InChI: InChI=1S/C9H7NO/c11-10-7-3-5-8-4-1-2-6-9(8)10/h1-7H
Instrument: Bruker maXis Impact
Instrument type: LC-ESI-QTOF
Ms type: MS2
Ion mode: POSITIVE
Ionization: ESI
Fragmentation mode: CID
Collision energy: 10 eV
Resolution: 35000
Column name: Acclaim RSLC C18 2.2um, 2.1x100mm, Thermo
Retention time: 4.283 min
Base peak: 146.0591
Precursor m/z: 146.06
Precursor type: [M+H]+
m/z	relative intensity	assigned
128.0485	28	C9H6N+
129.0562	59	C9H7N+
130.0598	5	C8[13]CH7N+
146.0593	999	C9H8NO+
147.0621	87	C8[13]CH8NO+
148.0645	5	C7[13]C2H8NO+
