Mass spectrum: Candesartan; LC-ESI-QTOF; MS2; CE: 40 eV; R=35000; [M+H]+
Name: Candesartan
Name: 2-ethoxy-3-[[4-[2-(2H-tetrazol-5-yl)phenyl]phenyl]methyl]benzimidazole-4-carboxylic acid
Formula: C24H20N6O3
Exact mass: 440.1596885
SMILES: CCOC1=NC2=CC=CC(C(O)=O)=C2N1CC1=CC=C(C=C1)C1=CC=CC=C1C1=NNN=N1
InChI: InChI=1S/C24H20N6O3/c1-2-33-24-25-20-9-5-8-19(23(31)32)21(20)30(24)14-15-10-12-16(13-11-15)17-6-3-4-7-18(17)22-26-28-29-27-22/h3-13H,2,14H2,1H3,(H,31,32)(H,26,27,28,29)
Instrument: Bruker maXis Impact
Instrument type: LC-ESI-QTOF
Ms type: MS2
Ion mode: POSITIVE
Ionization: ESI
Fragmentation mode: CID
Collision energy: 40 eV
Resolution: 35000
Column name: Acclaim RSLC C18 2.2um, 2.1x100mm, Thermo
Retention time: 7.7 min
Base peak: 251.1539
Precursor m/z: 441.167
Precursor type: [M+H]+
m/z	relative intensity	assigned
140.0489	31	C10H6N+
152.0619	74	C12H8+
153.0689	103	C12H9+
154.0702	22	C5H8N5O+
161.0344	56	C8H5N2O2+
163.053	24	C13H7+
165.069	205	C13H9+
166.0735	49	C8H10N2O2+
167.0716	24	C12H9N+
167.0832	31	C8H11N2O2+
173.0347	52	C9H5N2O2+
177.0557	37	C10H9O3+
178.0773	209	C14H10+
179.0447	55	C8H7N2O3+
179.0818	90	C9H11N2O2+
180.0798	442	C13H10N+
181.0836	50	C6H9N6O+
189.0636	68	C8H7N5O+
190.0639	414	C14H8N+
191.0707	167	C11H11O3+
192.069	143	C13H8N2+
192.0796	298	C14H10N+
193.0861	189	C11H13O3+
194.0955	296	C14H12N+
195.096	58	C7H11N6O+
205.075	92	C14H9N2+
206.0826	334	C14H10N2+
207.0909	999	C14H11N2+
208.0766	37	C14H10NO+
208.0939	153	C13[13]CH11N2+
209.0999	29	C9H13N4O2+
209.1134	23	C8H13N6O+
210.0906	408	C12H10N4+
211.0942	71	C7H11N6O2+
217.0864	28	C13H13O3+
218.0955	62	C16H12N+
219.0906	67	C15H11N2+
220.0993	91	C15H12N2+
233.1103	41	C16H13N2+
234.1145	107	C16H14N2+
235.097	83	C14H11N4+
235.1229	259	C16H15N2+
236.1233	49	C11H16N4O2+
263.131	42	C18H17NO+
308.1207	34	C23H16O+
309.1037	89	C21H13N2O+
310.1076	41	C21H14N2O+
310.1161	37	C21H14N2O+
322.0997	22	C23H14O2+
324.1166	24	C23H16O2+
337.0976	55	C22H13N2O2+
338.1112	45	C16H14N6O3+
349.1075	61	C22H13N4O+
350.0912	66	C20H10N6O+
351.0984	47	C20H11N6O+
352.1066	245	C20H12N6O+
353.1113	71	C20H13N6O+
