Mass spectrum: Dimethachlor-ESA; LC-ESI-QTOF; MS2; CE: 20 eV; R=35000; [M+H]+
Name: Dimethachlor-ESA
Name: 2-[N-(2-methoxyethyl)-2,6-dimethylanilino]-2-oxoethanesulfonic acid
Formula: C13H19NO5S
Exact mass: 301.0983937
SMILES: COCCN(C(=O)CS(O)(=O)=O)c1c(C)cccc1C
InChI: InChI=1S/C13H19NO5S/c1-10-5-4-6-11(2)13(10)14(7-8-19-3)12(15)9-20(16,17)18/h4-6H,7-9H2,1-3H3,(H,16,17,18)
Instrument: Bruker maXis Impact
Instrument type: LC-ESI-QTOF
Ms type: MS2
Ion mode: POSITIVE
Ionization: ESI
Fragmentation mode: CID
Collision energy: 20 eV
Resolution: 35000
Column name: Acclaim RSLC C18 2.2um, 2.1x100mm, Thermo
Retention time: 5.3 min
Base peak: 302.1052
Precursor m/z: 302.1057
Precursor type: [M+H]+
m/z	relative intensity	assigned
132.08	17	C9H10N+
133.0854	8	C6H13O3+
146.0957	6	C10H12N+
147.1032	57	C10H13N+
148.1088	23	C7H16O3+
174.0907	66	C11H12NO+
175.0938	9	C10[13]CH12NO+
189.114	33	C12H15NO+
190.1186	8	C9H18O4+
206.1162	14	C12H16NO2+
270.079	999	C12H16NO4S+
271.0815	135	C11[13]CH16NO4S+
272.0744	41	C12H16NO4[34]S+
302.1061	11	C13H20NO5S+
