Mass spectrum: Mabuterol; LC-ESI-QTOF; MS2; CE: Ramp 21.8-32.7 eV; R=35000; [M+H]+
Name: Mabuterol
Name: 1-[4-amino-3-chloro-5-(trifluoromethyl)phenyl]-2-(tert-butylamino)ethanol
Formula: C13H18ClF3N2O
Exact mass: 310.1060
SMILES: CC(C)(C)NCC(c1cc(c(c(c1)Cl)N)C(F)(F)F)O
InChI: InChI=1S/C13H18ClF3N2O/c1-12(2,3)19-6-10(20)7-4-8(13(15,16)17)11(18)9(14)5-7/h4-5,10,19-20H,6,18H2,1-3H3
Instrument: Bruker maXis Impact
Instrument type: LC-ESI-QTOF
Ms type: MS2
Ion mode: POSITIVE
Ionization: ESI
Fragmentation mode: CID
Collision energy: Ramp 21.8-32.7 eV
Resolution: 35000
Column name: Acclaim RSLC C18 2.2um, 2.1x100mm, Thermo
Retention time: 5.4 min
Base peak: 311.1152
Precursor m/z: 311.1133
Precursor type: [M+H]+
m/z	relative intensity	assigned
57.0695	91	C4H9+
132.0683	20	C8H8N2+
168.0447	5	C8H9ClN2+
181.0575	101	C9H7F2N2+
182.0638	18	C9H8F2N2+
190.0234	28	C8H7ClF2N+
192.0204	6	C10H7ClNO+
197.0283	33	C6H8ClF2N2O+
199.0258	7	C6H7ClF3N2+
201.0641	82	C9H8F3N2+
202.0719	215	C9H9F3N2+
203.0746	20	C9H13ClFN2+
217.0347	415	C6H9ClF3N2O+
218.0377	37	C12H9ClNO+
219.0318	103	C11H8ClN2O+
235.0456	5	C9H10ClF2N2O+
237.0415	999	C9H9ClF3N2+
238.0445	109	C12H10ClFNO+
239.0386	266	C11H9ClFN2O+
240.0411	13	C9H10ClF3NO+
293.1046	44	C13H17ClF3N2+
294.1072	5	C13H18ClF3N2+
295.1017	13	C13H17ClF3NO+
311.1146	8	C13H19ClF3N2O+
