Mass spectrum: Dimethenamid-OXA; LC-ESI-QTOF; MS2; CE: 40 eV; R=35000; [M+H]+
Name: Dimethenamid-OXA
Name: 2-[(2,4-dimethylthiophen-3-yl)-(1-methoxypropan-2-yl)amino]-2-oxoacetic acid
Formula: C12H17NO4S
Exact mass: 271.0878290
SMILES: COCC(C)N(C(=O)C(O)=O)c1c(C)csc1C
InChI: InChI=1S/C12H17NO4S/c1-7-6-18-9(3)10(7)13(8(2)5-17-4)11(14)12(15)16/h6,8H,5H2,1-4H3,(H,15,16)
Instrument: Bruker maXis Impact
Instrument type: LC-ESI-QTOF
Ms type: MS2
Ion mode: POSITIVE
Ionization: ESI
Fragmentation mode: CID
Collision energy: 40 eV
Resolution: 35000
Column name: Acclaim RSLC C18 2.2um, 2.1x100mm, Thermo
Retention time: 6.0 min
Base peak: 150.1115
Precursor m/z: 272.0951
Precursor type: [M+H]+
m/z	relative intensity	assigned
111.0264	72	C6H7S+
120.0807	136	C8H10N+
123.0135	126	C6H5NS+
125.0412	78	C7H9S+
126.0365	999	C6H8NS+
127.0412	122	C9H5N+
128.0505	64	C3H12O3S+
133.0871	90	C6H13O3+
134.0947	80	C6H14O3+
135.1042	131	C9H13N+
136.02	102	C4H8O3S+
138.0359	553	C7H8NS+
140.0506	68	C4H12O3S+
151.0444	68	C8H9NS+
152.0146	134	C4H8O4S+
152.0518	259	C8H10NS+
153.0583	142	C5H13O3S+
154.0307	412	C4H10O4S+
166.0663	128	C6H14O3S+
167.0753	101	C9H13NS+
168.0831	303	C9H14NS+
240.0673	94	C11H14NO3S+
