Mass spectrum: Phenmedipham; LC-ESI-QTOF; MS2; CE: 30 eV; R=35000; [M+H]+
Name: Phenmedipham
Name: [3-(methoxycarbonylamino)phenyl] N-(3-methylphenyl)carbamate
Formula: C16H16N2O4
Exact mass: 300.1110070
SMILES: COC(=O)NC1=CC=CC(OC(=O)NC2=CC(C)=CC=C2)=C1
InChI: InChI=1S/C16H16N2O4/c1-11-5-3-6-12(9-11)18-16(20)22-14-8-4-7-13(10-14)17-15(19)21-2/h3-10H,1-2H3,(H,17,19)(H,18,20)
Instrument: Bruker maXis Impact
Instrument type: LC-ESI-QTOF
Ms type: MS2
Ion mode: POSITIVE
Ionization: ESI
Fragmentation mode: CID
Collision energy: 30 eV
Resolution: 35000
Column name: Acclaim RSLC C18 2.2um, 2.1x100mm, Thermo
Retention time: 8.7 min
Base peak: 318.1449
Precursor m/z: 301.1183
Precursor type: [M+H]+
m/z	relative intensity	assigned
136.0383	999	C7H6NO2+
137.0416	96	C6[13]CH6NO2+
138.0426	9	C5[13]CH6NO2+
168.0647	165	C8H10NO3+
169.0681	15	C7[13]CH10NO3+
