Mass spectrum: Vardenafil; LC-ESI-QTOF; MS2; CE: 30 eV; R=35000; [M-H]-
Name: Vardenafil
Name: CID 110634
Name: 2-[2-ethoxy-5-(4-ethylpiperazin-1-yl)sulfonylphenyl]-5-methyl-7-propyl-1H-imidazo[5,1-f][1,2,4]triazin-4-one
Formula: C23H32N6O4S
Exact mass: 488.2205745
SMILES: CCCC1=NC(C)=C2N1NC(=NC2=O)C1=C(OCC)C=CC(=C1)S(=O)(=O)N1CCN(CC)CC1
InChI: InChI=1S/C23H32N6O4S/c1-5-8-20-24-16(4)21-23(30)25-22(26-29(20)21)18-15-17(9-10-19(18)33-7-3)34(31,32)28-13-11-27(6-2)12-14-28/h9-10,15H,5-8,11-14H2,1-4H3,(H,25,26,30)
Instrument: Bruker maXis Impact
Instrument type: LC-ESI-QTOF
Ms type: MS2
Ion mode: NEGATIVE
Ionization: ESI
Fragmentation mode: CID
Collision energy: 30 eV
Resolution: 35000
Column name: Acclaim RSLC C18 2.2um, 2.1x100mm, Thermo
Retention time: 9.858 min
Base peak: 487.2105
Precursor m/z: 487.2133
Precursor type: [M-H]-
m/z	relative intensity	assigned
225.0314	301	C12H5N2O3-
282.1121	130	C15H14N4O2-
285.0967	151	C17H17O2S-
286.0988	37	C16[13]CH17O2S-
314.0979	39	C18H18O3S-
364.127	142	C18H16N6O3-
365.1304	35	C17[13]CH16N6O3-
459.1798	999	C21H27N6O4S-
460.1854	222	C20[13]CH27N6O4S-
461.1845	67	C21H27N6O4[34]S-
487.2144	327	C23H31N6O4S-
488.2164	70	C22[13]CH31N6O4S-
