Mass spectrum: Clarithromycin; LC-ESI-QTOF; MS2; CE: 20 eV; R=35000; [M+H]+
Name: Clarithromycin
Name: (3R,4S,5S,6R,7R,9R,11R,12R,13S,14R)-6-[(2S,3R,4S,6R)-4-(dimethylamino)-3-hydroxy-6-methyloxan-2-yl]oxy-14-ethyl-12,13-dihydroxy-4-[(2R,4R,5S,6S)-5-hydroxy-4-methoxy-4,6-dimethyloxan-2-yl]oxy-7-methoxy-3,5,7,9,11,13-hexamethyl-oxacyclotetradecane-2,10-dione
Formula: C38H69NO13
Exact mass: 747.4768913
SMILES: CC[C@H]1OC(=O)[C@H](C)[C@@H](O[C@H]2C[C@@](C)(OC)[C@@H](O)[C@H](C)O2)[C@H](C)[C@@H](O[C@@H]2O[C@H](C)C[C@@H]([C@H]2O)N(C)C)[C@@](C)(C[C@@H](C)C(=O)[C@H](C)[C@@H](O)[C@]1(C)O)OC
InChI: InChI=1S/C38H69NO13/c1-15-26-38(10,45)31(42)21(4)28(40)19(2)17-37(9,47-14)33(52-35-29(41)25(39(11)12)16-20(3)48-35)22(5)30(23(6)34(44)50-26)51-27-18-36(8,46-13)32(43)24(7)49-27/h19-27,29-33,35,41-43,45H,15-18H2,1-14H3/t19-,20-,21+,22+,23-,24+,25+,26-,27+,29-,30+,31-,32+,33-,35+,36-,37-,38-/m1/s1
Instrument: Bruker maXis Impact
Instrument type: LC-ESI-QTOF
Ms type: MS2
Ion mode: POSITIVE
Ionization: ESI
Fragmentation mode: CID
Collision energy: 20 eV
Resolution: 35000
Column name: Acclaim RSLC C18 2.2um, 2.1x100mm, Thermo
Retention time: 9.1 min
Base peak: 748.4832
Precursor m/z: 748.4842
Precursor type: [M+H]+
m/z	relative intensity	assigned
116.1061	13	C6H14NO+
127.0743	11	C7H11O2+
158.1164	616	C8H16NO2+
284.1858	6	C15H26NO4+
316.2108	58	C16H30NO5+
397.2571	5	C22H37O6+
558.3626	77	C29H52NO9+
559.365	22	C36H49NO4+
560.3691	5	C35[13]CH49NO4+
590.3896	739	C30H56NO10+
591.3922	198	C37H53NO5+
748.4852	999	C38H70NO13+
749.4883	424	C37H69N2O13+
750.4912	80	C37H70N2O13+
751.4911	11	C36H69N3O13+
