Mass spectrum: 7-amino-flunitrazepam; LC-ESI-QTOF; MS2; CE: 30 eV; R=35000; [M+H]+
Name: 7-amino-flunitrazepam
Name: 7-Aminoflunitrazepam
Name: 7-amino-5-(2-fluorophenyl)-1-methyl-3H-1,4-benzodiazepin-2-one
Formula: C16H14FN3O
Exact mass: 283.1120903
SMILES: CN1C2=CC=C(N)C=C2C(=NCC1=O)C1=CC=CC=C1F
InChI: InChI=1S/C16H14FN3O/c1-20-14-7-6-10(18)8-12(14)16(19-9-15(20)21)11-4-2-3-5-13(11)17/h2-8H,9,18H2,1H3
Instrument: Bruker maXis Impact
Instrument type: LC-ESI-QTOF
Ms type: MS2
Ion mode: POSITIVE
Ionization: ESI
Fragmentation mode: CID
Collision energy: 30 eV
Resolution: 35000
Column name: Acclaim RSLC C18 2.2um, 2.1x100mm, Thermo
Retention time: 5.3 min
Base peak: 284.119
Precursor m/z: 284.1194
Precursor type: [M+H]+
m/z	relative intensity	assigned
120.0671	5	C7H8N2+
121.0751	5	C7H9N2+
122.0389	5	C7H5FN+
132.0668	5	C8H8N2+
133.0749	9	C8H9N2+
135.0908	489	C8H11N2+
136.0938	33	C7[13]CH11N2+
146.0698	8	C8H8N3+
147.0775	7	C8H9N3+
148.0621	82	C8H8N2O+
149.0657	6	C7[13]CH8N2O+
160.0854	8	C9H10N3+
161.0934	7	C9H11N3+
163.0854	63	C9H11N2O+
164.0878	5	C8[13]CH11N2O+
180.0796	7	C13H10N+
183.0597	5	C13H8F+
198.0701	6	C13H9FN+
200.0863	6	C13H11FN+
206.0823	6	C14H10N2+
227.097	356	C14H12FN2+
228.1002	41	C12H12N4O+
236.1176	94	C15H14N3+
241.0997	47	C14H12FN3+
256.1239	204	C15H15FN3+
257.1268	29	C14[13]CH15FN3+
264.1125	54	C16H14N3O+
284.1198	999	C16H15FN3O+
285.1225	125	C15[13]CH15FNO3+
286.1252	8	C14[13]C2H15FNO3+
