Mass spectrum: Glimepiride; LC-ESI-QTOF; MS2; CE: 40 eV; R=35000; [M-H]-
Name: Glimepiride
Name: 4-ethyl-3-methyl-N-[2-[4-[(4-methylcyclohexyl)carbamoylsulfamoyl]phenyl]ethyl]-5-oxo-2H-pyrrole-1-carboxamide
Formula: C24H34N4O5S
Exact mass: 490.2249912
SMILES: CCC1=C(C)CN(C(=O)NCCC2=CC=C(C=C2)S(=O)(=O)NC(=O)NC2CCC(C)CC2)C1=O
InChI: InChI=1S/C24H34N4O5S/c1-4-21-17(3)15-28(22(21)29)24(31)25-14-13-18-7-11-20(12-8-18)34(32,33)27-23(30)26-19-9-5-16(2)6-10-19/h7-8,11-12,16,19H,4-6,9-10,13-15H2,1-3H3,(H,25,31)(H2,26,27,30)
Instrument: Bruker maXis Impact
Instrument type: LC-ESI-QTOF
Ms type: MS2
Ion mode: NEGATIVE
Ionization: ESI
Fragmentation mode: CID
Collision energy: 40 eV
Resolution: 35000
Column name: Acclaim RSLC C18 2.2um, 2.1x100mm, Thermo
Retention time: 9.756 min
Base peak: 489.2151
Precursor m/z: 489.2177
Precursor type: [M-H]-
m/z	relative intensity	assigned
124.076	19	C5H8N4-
225.0331	999	C9H9N2O3S-
226.0356	121	C8[13]CH9N2O3S-
227.0306	37	C9H9N2O3[34]S-
364.1321	49	C22H20O5-
