Mass spectrum: 7-Amino-4-methylcoumarin; LC-ESI-QTOF; MS2; CE: Ramp 17.1-25.7 eV; R=35000; [M+H]+
Name: 7-Amino-4-methylcoumarin
Name: 7-amino-4-methylchromen-2-one
Formula: C10H9NO2
Exact mass: 175.0633285
SMILES: CC1=CC(=O)OC2=CC(N)=CC=C12
InChI: InChI=1S/C10H9NO2/c1-6-4-10(12)13-9-5-7(11)2-3-8(6)9/h2-5H,11H2,1H3
Instrument: Bruker maXis Impact
Instrument type: LC-ESI-QTOF
Ms type: MS2
Ion mode: POSITIVE
Ionization: ESI
Fragmentation mode: CID
Collision energy: Ramp 17.1-25.7 eV
Resolution: 35000
Column name: Acclaim RSLC C18 2.2um, 2.1x100mm, Thermo
Retention time: 5.240 min
Base peak: 307.1244
Precursor m/z: 176.0706
Precursor type: [M+H]+
m/z	relative intensity	assigned
117.0564	71	C8H7N+
120.08	168	C8H10N+
132.0808	69	C9H10N+
176.0695	999	C10H10NO2+
177.0747	102	C9[13]CH10NO2+
