Mass spectrum: Habanolide; LC-ESI-QTOF; MS2; CE: Ramp 19.4-29.1 eV; R=35000; [M+H]+
Name: Habanolide
Name: (3E)-1-Oxacyclohexadec-3-en-2-one
Name: (3E)-1-oxacyclohexadec-3-en-2-one
Formula: C15H26O2
Exact mass: 238.1932801
SMILES: C1CCCCCCOC(=O)/C=C/CCCCC1
InChI: InChI=1S/C15H26O2/c16-15-13-11-9-7-5-3-1-2-4-6-8-10-12-14-17-15/h11,13H,1-10,12,14H2/b13-11+
Instrument: Bruker maXis Impact
Instrument type: LC-ESI-QTOF
Ms type: MS2
Ion mode: POSITIVE
Ionization: ESI
Fragmentation mode: CID
Collision energy: Ramp 19.4-29.1 eV
Resolution: 35000
Column name: Acclaim RSLC C18 2.2um, 2.1x100mm, Thermo
Retention time: 11.478 min
Base peak: 102.1285
Precursor m/z: 239.2006
Precursor type: [M+H]+
m/z	relative intensity	assigned
119.085	999	C9H11+
