Mass spectrum: Prometon; LC-ESI-QTOF; MS2; CE: 30 eV; R=35000; [M+H]+
Name: Prometon
Name: 6-methoxy-2-N,4-N-di(propan-2-yl)-1,3,5-triazine-2,4-diamine
Formula: C10H19N5O
Exact mass: 225.1589602
SMILES: COC1=NC(NC(C)C)=NC(NC(C)C)=N1
InChI: InChI=1S/C10H19N5O/c1-6(2)11-8-13-9(12-7(3)4)15-10(14-8)16-5/h6-7H,1-5H3,(H2,11,12,13,14,15)
Instrument: Bruker maXis Impact
Instrument type: LC-ESI-QTOF
Ms type: MS2
Ion mode: POSITIVE
Ionization: ESI
Fragmentation mode: CID
Collision energy: 30 eV
Resolution: 35000
Column name: Acclaim RSLC C18 2.2um, 2.1x100mm, Thermo
Retention time: 8.7 min
Base peak: 226.1658
Precursor m/z: 226.1662
Precursor type: [M+H]+
m/z	relative intensity	assigned
142.0714	999	C4H8N5O+
184.1182	313	C7H14N5O+
226.1658	60	C10H20N5O+
