Mass spectrum: Perfluorotetradecanoic acid; LC-ESI-QTOF; MS2; CE: Ramp 37.1-55.7 eV; R=35000; [M-H]-
Name: Perfluorotetradecanoic acid
Name: Perfluoromyristic acid
Name: 2,2,3,3,4,4,5,5,6,6,7,7,8,8,9,9,10,10,11,11,12,12,13,13,14,14,14-heptacosafluorotetradecanoic acid
Formula: C14HF27O2
Exact mass: 713.9545412
SMILES: OC(=O)C(F)(F)C(F)(F)C(F)(F)C(F)(F)C(F)(F)C(F)(F)C(F)(F)C(F)(F)C(F)(F)C(F)(F)C(F)(F)C(F)(F)C(F)(F)F
InChI: InChI=1S/C14HF27O2/c15-2(16,1(42)43)3(17,18)4(19,20)5(21,22)6(23,24)7(25,26)8(27,28)9(29,30)10(31,32)11(33,34)12(35,36)13(37,38)14(39,40)41/h(H,42,43)
Instrument: Bruker maXis Impact
Instrument type: LC-ESI-QTOF
Ms type: MS2
Ion mode: NEGATIVE
Ionization: ESI
Fragmentation mode: CID
Collision energy: Ramp 37.1-55.7 eV
Resolution: 35000
Column name: Acclaim RSLC C18 2.2um, 2.1x100mm, Thermo
Retention time: 12.842 min
Base peak: 59.0133
Precursor m/z: 712.9473
Precursor type: [M-H]-
m/z	relative intensity	assigned
62.9881	15	CFO2-
118.9924	82	C2F5-
168.9897	999	C3F7-
169.9916	28	C2[13]CF7-
196.9859	76	C9F3O2-
218.9858	311	C4F9-
268.9815	183	C5F11-
269.9839	13	C4[13]CF11-
318.9818	90	C11F9O-
368.9749	58	C7F15-
418.9699	27	C8F17-
