Mass spectrum: Pyrazophos; LC-ESI-QTOF; MS2; CE: 40 eV; R=35000; [M+H]+
Name: Pyrazophos
Name: ethyl 2-diethoxyphosphinothioyloxy-5-methylpyrazolo[1,5-a]pyrimidine-6-carboxylate
Formula: C14H20N3O5PS
Exact mass: 373.0861284
SMILES: CCOC(=O)C1=CN2N=C(OP(=S)(OCC)OCC)C=C2N=C1C
InChI: InChI=1S/C14H20N3O5PS/c1-5-19-14(18)11-9-17-12(15-10(11)4)8-13(16-17)22-23(24,20-6-2)21-7-3/h8-9H,5-7H2,1-4H3
Instrument: Bruker maXis Impact
Instrument type: LC-ESI-QTOF
Ms type: MS2
Ion mode: POSITIVE
Ionization: ESI
Fragmentation mode: CID
Collision energy: 40 eV
Resolution: 35000
Column name: Acclaim RSLC C18 2.2um, 2.1x100mm, Thermo
Retention time: 11.454 min
Base peak: 374.0931
Precursor m/z: 374.0934
Precursor type: [M+H]+
m/z	relative intensity	assigned
113.9528	5	H3O3PS+
148.0492	17	C2H13O5P+
159.041	6	CH10N3O4P+
166.0597	25	H13N3O5P+
169.9675	5	C2H5NO4PS+
176.0443	167	CH11N3O5P+
177.0283	8	C8H5N2O3+
177.0513	70	C8H7N3O2+
178.0573	9	C7[13]CH7N3O2+
181.0055	9	C8H6O3P+
183.0211	40	C8H8O3P+
192.021	10	C9H7NO2P+
194.0551	999	C10H10O4+
195.0579	59	C9[13]CH10O4+
196.0601	5	C8[13]C2H10O4+
205.0836	30	C10H11N3O2+
206.0902	9	C3H17N3O5P+
208.0163	14	C9H7NO3P+
210.0323	50	C9H9NO3P+
211.0526	22	C10H12O3P+
222.0867	316	C9H19O2PS+
223.0893	26	C8[13]CH19O2PS+
236.0474	9	C11H11NO3P+
238.0638	35	C10H12N3O2S+
253.9772	5	C13H3O4P+
271.9881	11	C12H4N2O4S+
300.0192	6	C14H8N2O4S+
