Mass spectrum: 2-Ethylhexyl acrylate; GC-APCI-QTOF; MS2; CE: 40 eV; R=35000; [M+H]+
Name: 2-Ethylhexyl acrylate
Formula: C11H20O2
Exact mass: 184.1463
SMILES: CCCCC(CC)COC(=O)C=C
InChI: InChI=1S/C11H20O2/c1-4-7-8-10(5-2)9-13-11(12)6-3/h6,10H,3-5,7-9H2,1-2H3
Instrument: Bruker 450 GC coupled to maXis Impact
Instrument type: GC-APCI-QTOF
Ms type: MS2
Ion mode: POSITIVE
Ionization: APCI
Fragmentation mode: CID
Collision energy: 40 eV
Resolution: 35000
Column name: Rxi-5Sil MS column, 30m, 0.25mm i.d., 0.25Âµm film thickness, Restek
Retention time: 10.288 min
Base peak: 147.0827
Precursor m/z: 185.1536
Precursor type: [M+H]+
m/z	relative intensity	assigned
55.0538	999	C4H7+
