Mass spectrum: Dimethylaminophenazone; LC-ESI-QTOF; MS2; CE: 50 eV; R=35000; [M+H]+
Name: Dimethylaminophenazone
Name: Aminopyrine
Name: 4-(dimethylamino)-1,5-dimethyl-2-phenylpyrazol-3-one
Formula: C13H17N3O
Exact mass: 231.1371622
SMILES: CN(C)C1=C(C)N(C)N(C1=O)C1=CC=CC=C1
InChI: InChI=1S/C13H17N3O/c1-10-12(14(2)3)13(17)16(15(10)4)11-8-6-5-7-9-11/h5-9H,1-4H3
Instrument: Bruker maXis Impact
Instrument type: LC-ESI-QTOF
Ms type: MS2
Ion mode: POSITIVE
Ionization: ESI
Fragmentation mode: CID
Collision energy: 50 eV
Resolution: 35000
Column name: Acclaim RSLC C18 2.2um, 2.1x100mm, Thermo
Retention time: 4.888 min
Base peak: 232.1446
Precursor m/z: 232.1444
Precursor type: [M+H]+
m/z	relative intensity	assigned
111.0915	168	C6H11N2+
115.0535	114	C9H7+
117.0569	336	C8H7N+
118.0517	199	C7H6N2+
118.0631	522	C8H8N+
123.054	999	C6H7N2O+
128.0492	431	C9H6N+
129.0542	251	C9H7N+
130.0641	684	C9H8N+
131.0701	198	C9H9N+
132.0424	492	C8H6NO+
132.0655	135	C8H8N2+
132.0795	533	C9H10N+
133.0779	162	C8H9N2+
134.06	135	C8H8NO+
142.0687	151	C10H8N+
143.0579	131	C9H7N2+
144.0447	120	C9H6NO+
144.0796	226	C10H10N+
145.0768	137	C9H9N2+
146.0596	258	C9H8NO+
147.0886	217	C9H11N2+
155.0593	172	C10H7N2+
156.0678	144	C10H8N2+
157.0747	193	C10H9N2+
158.0803	117	C10H10N2+
159.0907	164	C10H11N2+
161.0683	111	C9H9N2O+
171.0528	195	C10H7N2O+
171.0916	117	C11H11N2+
185.0695	157	C11H9N2O+
187.0725	182	C10H9N3O+
199.0849	325	C12H11N2O+
200.0867	151	C11H10N3O+
216.1128	157	C12H14N3O+
