Mass spectrum: Chrysene; GC-APCI-QTOF; MS2; CE: 30 eV; R=35000; [M+H]+
Name: Chrysene
Formula: C18H12
Exact mass: 228.0939
SMILES: C1=CC2=C(C=C1)C1=C(C=C2)C2=C(C=CC=C2)C=C1
InChI: InChI=1S/C18H12/c1-3-7-15-13(5-1)9-11-18-16-8-4-2-6-14(16)10-12-17(15)18/h1-12H
Instrument: Bruker 450 GC coupled to maXis Impact
Instrument type: GC-APCI-QTOF
Ms type: MS2
Ion mode: POSITIVE
Ionization: APCI
Fragmentation mode: CID
Collision energy: 30 eV
Resolution: 35000
Column name: Rxi-5Sil MS column, 30m, 0.25mm i.d., 0.25Âµm film thickness (Restek)
Retention time: 23.772 min
Base peak: 229.0963
Precursor m/z: 229.1012
Precursor type: [M+H]+
m/z	relative intensity	assigned
202.0739	27	C16H10+
226.0791	31	C18H10+
227.0841	69	C18H11+
228.0903	999	C18H12+
229.0957	316	C18H13+
