Mass spectrum: PCB 138; GC-APCI-QTOF; MS2; CE: 10 eV; R=35000; [M]+
Name: PCB 138
Name: 2,2`,3,4,4`,5`-Hexachlorobiphenyl
Name: 1,2,3-trichloro-4-(2,4,5-trichlorophenyl)benzene
Formula: C12H4Cl6
Exact mass: 357.8444
SMILES: ClC1=CC(Cl)=C(C=C1Cl)C1=C(Cl)C(Cl)=C(Cl)C=C1
InChI: InChI=1S/C12H4Cl6/c13-7-2-1-5(11(17)12(7)18)6-3-9(15)10(16)4-8(6)14/h1-4H
Instrument: Bruker 450 GC coupled to maXis Impact
Instrument type: GC-APCI-QTOF
Ms type: MS2
Ion mode: POSITIVE
Ionization: APCI
Fragmentation mode: CID
Collision energy: 10 eV
Resolution: 35000
Column name: Rxi-5Sil MS column, 30m, 0.25mm i.d., 0.25Âµm film thickness (Restek)
Retention time: 21.657 min
Base peak: 357.8425
Precursor m/z: 357.8439
Precursor type: [M]+
m/z	relative intensity	assigned
357.8439	999	C12H4Cl6+
