Mass spectrum: Metolachlor OA; LC-ESI-QTOF; MS2; CE: Ramp 20.9-31.3 eV; R=35000; [M+H]+
Name: Metolachlor OA
Name: 2-[2-ethyl-N-(1-methoxypropan-2-yl)-6-methylanilino]-2-oxoacetic acid
Formula: C15H21NO4
Exact mass: 279.1470582
SMILES: CCC1=C(N(C(C)COC)C(=O)C(O)=O)C(C)=CC=C1
InChI: InChI=1S/C15H21NO4/c1-5-12-8-6-7-10(2)13(12)16(11(3)9-20-4)14(17)15(18)19/h6-8,11H,5,9H2,1-4H3,(H,18,19)
Instrument: Bruker maXis Impact
Instrument type: LC-ESI-QTOF
Ms type: MS2
Ion mode: POSITIVE
Ionization: ESI
Fragmentation mode: CID
Collision energy: Ramp 20.9-31.3 eV
Resolution: 35000
Column name: Acclaim RSLC C18 2.2um, 2.1x100mm, Thermo
Retention time: 7.445 min
Base peak: 202.0857
Precursor m/z: 280.1543
Precursor type: [M+H]+
m/z	relative intensity	assigned
134.0955	289	C9H12N+
144.0802	57	C10H10N+
146.0951	168	C7H14O3+
148.1101	128	C7H16O3+
149.0233	82	C8H5O3+
162.0929	66	C10H12NO+
174.1258	62	C9H18O3+
176.1425	110	C12H18N+
202.125	55	C13H16NO+
248.1289	999	C14H18NO3+
249.1311	114	C13[13]CH18NO3+
