Mass spectrum: Chloramphenicol; LC-ESI-QTOF; MS2; CE: 10 eV; R=35000; [M-H]-
Name: Chloramphenicol
Name: 2,2-Dichloro-N-[1,3-dihydroxy-1-(4-nitrophenyl)propan-2-yl]acetamide
Name: 2,2-dichloro-N-[1,3-dihydroxy-1-(4-nitrophenyl)propan-2-yl]acetamide
Formula: C11H12Cl2N2O5
Exact mass: 322.0123268
SMILES: OCC(NC(=O)C(Cl)Cl)C(O)C1=CC=C(C=C1)[N+]([O-])=O
InChI: InChI=1S/C11H12Cl2N2O5/c12-10(13)11(18)14-8(5-16)9(17)6-1-3-7(4-2-6)15(19)20/h1-4,8-10,16-17H,5H2,(H,14,18)
Instrument: Bruker maXis Impact
Instrument type: LC-ESI-QTOF
Ms type: MS2
Ion mode: NEGATIVE
Ionization: ESI
Fragmentation mode: CID
Collision energy: 10 eV
Resolution: 35000
Column name: Acclaim RSLC C18 2.2um, 2.1x100mm, Thermo
Retention time: 5.690 min
Base peak: 321.0047
Precursor m/z: 321.0051
Precursor type: [M-H]-
m/z	relative intensity	assigned
121.0297	101	C7H5O2-
148.0382	36	C2H11ClNO4-
151.0272	391	C7H5NO3-
152.0351	999	C7H6NO3-
153.0383	76	C6[13]CH6NO3-
176.0344	238	C9H6NO3-
177.04	50	C9H7NO3-
194.0453	534	C9H8NO4-
195.0493	77	C8[13]CH8NO4-
219.0387	51	C10H7N2O4-
221.0544	39	C10H9N2O4-
237.0554	87	C10H9N2O5-
249.0495	188	C11H9N2O5-
257.0332	737	C10H10ClN2O4-
258.0374	105	C9[13]CH10ClN2O4-
259.0279	230	C10H10[37]ClN2O4-
321.0037	970	C11H11Cl2N2O5-
322.0078	170	C10[13]CH11Cl2N2O5-
323.0028	641	C11H11Cl[37]ClN2O5-
