Mass spectrum: Carbadox; LC-ESI-QTOF; MS2; CE: 30 eV; R=35000; [M+H]+
Name: Carbadox
Name: methyl N-[(1-hydroxy-4-oxidoquinoxalin-4-ium-2-ylidene)methylimino]carbamate
Formula: C11H10N4O4
Exact mass: 262.0702048
SMILES: COC(=O)NN=CC1=[N+](C2=CC=CC=C2[N+](=C1)[O-])[O-]
InChI: InChI=1S/C11H10N4O4/c1-19-11(16)13-12-6-8-7-14(17)9-4-2-3-5-10(9)15(8)18/h2-7H,1H3,(H,13,16)
Instrument: Bruker maXis Impact
Instrument type: LC-ESI-QTOF
Ms type: MS2
Ion mode: POSITIVE
Ionization: ESI
Fragmentation mode: CID
Collision energy: 30 eV
Resolution: 35000
Column name: Acclaim RSLC C18 2.2um, 2.1x100mm, Thermo
Retention time: 4.7 min
Base peak: 221.1026
Precursor m/z: 263.0775
Precursor type: [M+H]+
m/z	relative intensity	assigned
129.0389	945	C3H5N4O2+
130.0468	955	C3H6N4O2+
131.0546	636	C3H7N4O2+
143.0436	209	C5H7N2O3+
145.0339	389	C3H5N4O3+
147.0492	637	C3H7N4O3+
159.0495	492	C4H7N4O3+
163.0434	999	C3H7N4O4+
170.0508	133	C10H6N2O+
171.0371	748	C6H7N2O4+
172.045	290	C6H8N2O4+
173.065	119	C5H9N4O3+
175.0443	216	C4H7N4O4+
185.0735	155	C11H9N2O+
187.0534	112	C10H7N2O2+
188.0378	256	C10H6NO3+
197.0377	483	C11H5N2O2+
198.0418	120	C11H6N2O2+
229.0678	591	C11H9N4O2+
231.0426	217	C11H7N2O4+
