Mass spectrum: PCB 209; GC-APCI-QTOF; MS2; CE: 40 eV; R=35000; [M]+
Name: PCB 209
Name: Decachlorobiphenyl
Name: 1,2,3,4,5-pentachloro-6-(2,3,4,5,6-pentachlorophenyl)benzene
Formula: C12Cl10
Exact mass: 493.6885
SMILES: ClC1=C(Cl)C(Cl)=C(C(Cl)=C1Cl)C1=C(Cl)C(Cl)=C(Cl)C(Cl)=C1Cl
InChI: InChI=1S/C12Cl10/c13-3-1(4(14)8(18)11(21)7(3)17)2-5(15)9(19)12(22)10(20)6(2)16
Instrument: Bruker 450 GC coupled to maXis Impact
Instrument type: GC-APCI-QTOF
Ms type: MS2
Ion mode: POSITIVE
Ionization: APCI
Fragmentation mode: CID
Collision energy: 40 eV
Resolution: 35000
Column name: Rxi-5Sil MS column, 30m, 0.25mm i.d., 0.25Âµm film thickness (Restek)
Retention time: 28.277 min
Base peak: 493.6826
Precursor m/z: 493.688
Precursor type: [M]+
m/z	relative intensity	assigned
423.7491	999	C12Cl8+
493.6843	200	C12Cl10+
