Mass spectrum: Aniline Yellow; LC-ESI-QTOF; MS2; CE: Ramp 17.9-26.9 eV; R=35000; [M+H]+
Name: Aniline Yellow
Formula: C12H11N3
Exact mass: 197.09529735
SMILES: NC1=CC=C(C=C1)\N=N\C1=CC=CC=C1
InChI: InChI=1S/C12H11N3/c13-10-6-8-12(9-7-10)15-14-11-4-2-1-3-5-11/h1-9H,13H2/b15-14+
Instrument: Bruker maXis Impact
Instrument type: LC-ESI-QTOF
Ms type: MS2
Ion mode: POSITIVE
Ionization: ESI
Fragmentation mode: CID
Collision energy: Ramp 17.9-26.9 eV
Resolution: 35000
Column name: Acclaim RSLC C18 2.2um, 2.1x100mm, Thermo
Retention time: 9.270 min
Base peak: 198.1019
Precursor m/z: 198.1026
Precursor type: [M+H]+
m/z	relative intensity	assigned
50.0147	14	C4H2+
51.0225	55	C4H3+
53.0381	348	C4H5+
54.0413	11	C3[13]CH5+
55.0175	13	CHN3+
65.0381	37	C5H5+
68.0486	18	C4H6N+
77.0381	218	C6H5+
78.0412	13	C5[13]CH5+
81.0331	42	C3H3N3+
92.0497	43	C6H6N+
93.0576	50	C6H7N+
95.0497	999	C4H5N3+
96.0532	55	C3[13]CH5N3+
105.0461	792	C6H5N2+
106.0497	42	C5[13]CH5N2+
120.056	5	C6H6N3+
128.0624	8	C10H8+
152.0607	27	C12H8+
153.0673	16	C12H9+
169.0877	17	C12H11N+
170.0937	9	C12H12N+
181.0722	18	C12H9N2+
182.0809	5	C12H10N2+
196.0855	5	C12H10N3+
198.102	932	C12H12N3+
199.104	138	C11[13]CH12N3+
200.1071	8	C10[13]C2H12N3+
