Mass spectrum: Lamotrigine; LC-ESI-QTOF; MS2; CE: RAMP 20.0-30.0 eV; R=35000; [M+H]+
Name: Lamotrigine
Name: 6-(2,3-dichlorophenyl)-1,2,4-triazine-3,5-diamine
Formula: C9H7Cl2N5
Exact mass: 255.0078506
SMILES: c1cc(c(c(c1)Cl)Cl)c2c([nH]c(=N)nn2)N
InChI: InChI=1S/C9H7Cl2N5/c10-5-3-1-2-4(6(5)11)7-8(12)14-9(13)16-15-7/h1-3H,(H4,12,13,14,16)
Instrument: Bruker maXis Impact
Instrument type: LC-ESI-QTOF
Ms type: MS2
Ion mode: POSITIVE
Ionization: ESI
Fragmentation mode: CID
Collision energy: RAMP 20.0-30.0 eV
Resolution: 35000
Column name: Acclaim RSLC C18 2.2um, 2.1x100mm, Thermo
Retention time: 5.476 min
Base peak: 256.0154
Precursor m/z: 256.0151
Precursor type: [M+H]+
m/z	relative intensity	assigned
58.0392	19	CH4N3+
151.0178	8	C8H6ClN+
156.9598	6	C7H3Cl2+
158.9755	15	C7H5Cl2+
160.9728	9	C7H5Cl[37]Cl+
165.0209	16	C8H6ClN2+
166.0287	26	C8H7ClN2+
168.0252	5	C8H7[37]ClN2+
171.971	17	C7H4Cl2N+
173.968	11	C7H4Cl[37]ClN+
173.9866	5	C7H6Cl2N+
183.9712	10	C8H4Cl2N+
185.9682	5	C8H4Cl[37]ClN+
185.9866	11	C8H6Cl2N+
186.9824	21	C7H5Cl2N2+
187.9838	7	C8H6Cl[37]ClN+
188.9788	13	C7H5Cl[37]ClN2+
210.9827	43	C9H5Cl2N2+
211.9798	8	C8H4Cl2N3+
212.9793	25	C9H5Cl[37]ClN2+
213.9755	5	C8H4Cl[37]ClN3+
220.0384	15	C9H7ClN5+
229.0039	10	C8H7Cl2N4+
256.0157	999	C9H8Cl2N5+
257.0182	93	C8[13]CH8Cl2N5+
258.0126	573	C9H8Cl[37]ClN5+
