Mass spectrum: LSD; LC-ESI-QTOF; MS2; CE: 40 eV; R=35000; [M+H]+
Name: LSD
Name: D-Lysergic acid N,N-diethylamide
Name: N,N-diethyl-7-methyl-6,6a,8,9-tetrahydro-4H-indolo[4,3-fg]quinoline-9-carboxamide
Formula: C20H25N3O
Exact mass: 323.1997624
SMILES: CCN(CC)C(=O)C1CN(C2CC3=CNC4=CC=CC(=C34)C2=C1)C
InChI: InChI=1S/C20H25N3O/c1-4-23(5-2)20(24)14-9-16-15-7-6-8-17-19(15)13(11-21-17)10-18(16)22(3)12-14/h6-9,11,14,18,21H,4-5,10,12H2,1-3H3
Instrument: Bruker maXis Impact
Instrument type: LC-ESI-QTOF
Ms type: MS2
Ion mode: POSITIVE
Ionization: ESI
Fragmentation mode: CID
Collision energy: 40 eV
Resolution: 35000
Column name: Acclaim RSLC C18 2.2um, 2.1x100mm, Thermo
Retention time: 5.681 min
Base peak: 324.21
Precursor m/z: 324.207
Precursor type: [M+H]+
m/z	relative intensity	assigned
128.1075	21	C7H14NO+
152.0625	5	C12H8+
153.0702	13	C12H9+
154.066	20	C11H8N+
156.0817	10	C11H10N+
165.0704	10	C13H9+
167.0737	43	C12H9N+
168.0811	26	C12H10N+
180.0822	206	C13H10N+
181.0668	6	C13H9O+
181.088	53	C13H11N+
182.0966	86	C13H12N+
183.0996	11	C12[13]CH12N+
190.0663	8	C14H8N+
191.0743	35	C14H9N+
192.0821	126	C14H10N+
194.0974	54	C14H12N+
195.1043	29	C14H13N+
196.1126	31	C14H14N+
197.109	129	C13H13N2+
198.1118	16	C12[13]CH13N2+
206.096	8	C15H12N+
207.0692	40	C14H9NO+
207.0934	330	C14H11N2+
208.0773	253	C14H10NO+
208.1009	559	C14H12N2+
209.0804	30	C14H11NO+
209.1047	68	C13[13]CH12N2+
210.0912	6	C13[13]CH11NO+
220.1007	11	C15H12N2+
221.109	85	C15H13N2+
222.1154	39	C15H14N2+
223.1248	999	C15H15N2+
224.128	127	C15H16N2+
225.1317	7	C14[13]CH16N2+
236.0965	5	C15H12N2O+
251.1193	10	C16H15N2O+
281.1668	17	C18H21N2O+
324.2094	5	C20H26N3O+
