Mass spectrum: Tris(2-ethylhexl)phosphate; LC-ESI-QTOF; MS2; CE: Ramp 24.3-36.5 eV; R=35000; [M+H]+
Name: Tris(2-ethylhexl)phosphate
Name: tris(2-ethylhexyl) phosphate
Formula: C24H51O4P
Exact mass: 434.3524967
SMILES: CCCCC(CC)COP(=O)(OCC(CC)CCCC)OCC(CC)CCCC
InChI: InChI=1S/C24H51O4P/c1-7-13-16-22(10-4)19-26-29(25,27-20-23(11-5)17-14-8-2)28-21-24(12-6)18-15-9-3/h22-24H,7-21H2,1-6H3
Instrument: Bruker maXis Impact
Instrument type: LC-ESI-QTOF
Ms type: MS2
Ion mode: POSITIVE
Ionization: ESI
Fragmentation mode: CID
Collision energy: Ramp 24.3-36.5 eV
Resolution: 35000
Column name: Acclaim RSLC C18 2.2um, 2.1x100mm, Thermo
Retention time: 15.454 min
Base peak: 435.3593
Precursor m/z: 435.3598
Precursor type: [M+H]+
m/z	relative intensity	assigned
57.0695	601	C4H9+
58.0735	28	C3[13]CH9+
71.085	693	C5H11+
72.088	41	C4[13]CH11+
85.1003	64	C6H13+
98.9842	551	H4O4P+
113.1306	23	CH22O3P+
131.0101	29	C8H3O2+
140.0098	79	C6H4O4+
149.0222	999	C8H5O3+
150.026	113	C7[13]CH5O3+
167.0332	44	C8H7O4+
181.0692	72	C13H9O+
223.0619	28	C15H12P+
237.0784	472	C16H14P+
238.0794	152	C19H10+
239.0761	53	C15H11O3+
299.0632	39	C20H12OP+
