Mass spectrum: Ractopamine; LC-ESI-QTOF; MS2; CE: Ramp 21.6-32.5 eV; R=35000; [M+H]+
Name: Ractopamine
Name: 4-[3-[[2-hydroxy-2-(4-hydroxyphenyl)ethyl]amino]butyl]phenol
Formula: C18H23NO3
Exact mass: 301.1678
SMILES: CC(CCc1ccc(cc1)O)NCC(c2ccc(cc2)O)O
InChI: InChI=1S/C18H23NO3/c1-13(2-3-14-4-8-16(20)9-5-14)19-12-18(22)15-6-10-17(21)11-7-15/h4-11,13,18-22H,2-3,12H2,1H3
Instrument: Bruker maXis Impact
Instrument type: LC-ESI-QTOF
Ms type: MS2
Ion mode: POSITIVE
Ionization: ESI
Fragmentation mode: CID
Collision energy: Ramp 21.6-32.5 eV
Resolution: 35000
Column name: Acclaim RSLC C18 2.2um, 2.1x100mm, Thermo
Retention time: 4.5 min
Base peak: 302.1768
Precursor m/z: 302.1751
Precursor type: [M+H]+
m/z	relative intensity	assigned
60.0553	7	C3H8O+
91.0544	156	C7H7+
92.0578	10	C2H8N2O2+
93.0703	13	C7H9+
107.051	769	C7H7O+
108.0543	68	C7H8O+
118.0652	10	C8H8N+
119.0494	129	C8H7O+
120.0525	13	C8H8O+
121.0653	697	C8H9O+
122.0683	87	C8H10O+
123.0728	6	C7H9NO+
136.0759	678	C8H10NO+
137.0793	79	C8H11NO+
138.0813	5	C7H10N2O+
147.08	5	C10H11O+
149.0963	17	C10H13O+
164.1076	999	C10H14NO+
165.1105	148	C10H15NO+
166.113	7	C9H14N2O+
284.1664	540	C18H22NO2+
285.1696	118	C18H23NO2+
286.1719	12	C18H24NO2+
302.1775	18	C18H24NO3+
303.1796	5	C17H23N2O3+
