Mass spectrum: Betamethasone 21-Acetate; LC-ESI-QTOF; MS2; CE: 40 eV; R=35000; [M+H]+
Name: Betamethasone 21-Acetate
Name: [2-[(8S,9R,10S,11S,13S,14S,16S,17R)-9-fluoro-11,17-dihydroxy-10,13,16-trimethyl-3-oxo-6,7,8,11,12,14,15,16-octahydrocyclopenta[a]phenanthren-17-yl]-2-oxoethyl] acetate
Formula: C24H31FO6
Exact mass: 434.2104669
SMILES: C[C@H]1C[C@H]2[C@@H]3CCC4=CC(=O)C=C[C@]4(C)[C@@]3(F)[C@@H](O)C[C@]2(C)[C@@]1(O)C(=O)COC(C)=O
InChI: InChI=1S/C24H31FO6/c1-13-9-18-17-6-5-15-10-16(27)7-8-21(15,3)23(17,25)19(28)11-22(18,4)24(13,30)20(29)12-31-14(2)26/h7-8,10,13,17-19,28,30H,5-6,9,11-12H2,1-4H3/t13-,17-,18-,19-,21-,22-,23-,24-/m0/s1
Instrument: Bruker maXis Impact
Instrument type: LC-ESI-QTOF
Ms type: MS2
Ion mode: POSITIVE
Ionization: ESI
Fragmentation mode: CID
Collision energy: 40 eV
Resolution: 35000
Column name: Acclaim RSLC C18 2.2um, 2.1x100mm, Thermo
Retention time: 9.1 min
Base peak: 404.2062
Precursor m/z: 435.2177
Precursor type: [M+H]+
m/z	relative intensity	assigned
119.0853	130	C9H11+
121.0643	262	C8H9O+
123.0809	83	C8H11O+
125.0965	63	C8H13O+
128.0605	60	C10H8+
129.0676	63	C10H9+
131.0854	131	C10H11+
133.0642	95	C9H9O+
133.1008	138	C10H13+
135.0796	274	C9H11O+
141.0686	69	C11H9+
143.0849	126	C11H11+
145.0628	127	C10H9O+
145.099	70	C11H13+
147.0791	999	C10H11O+
148.0833	108	C5H12N2O3+
149.0957	153	C10H13O+
153.0902	98	C9H13O2+
157.1005	63	C12H13+
158.0697	77	C11H10O+
159.0793	362	C11H11O+
161.0945	202	C11H13O+
163.072	63	C2H12FN2O5+
167.104	115	C10H15O2+
169.0631	79	C12H9O+
171.0791	511	C12H11O+
172.0822	109	C4H14NO6+
173.0953	380	C12H13O+
174.0997	68	C7H14N2O3+
183.1148	60	C14H15+
185.0942	310	C13H13O+
186.0972	66	C5H16NO6+
187.0749	196	C12H11O2+
187.1094	88	C13H15O+
193.0992	126	C15H13+
196.0871	80	C14H12O+
197.0946	179	C14H13O+
198.0998	106	C9H14N2O3+
199.1094	79	C14H15O+
201.1267	66	C14H17O+
204.0937	55	C16H12+
205.1001	55	C16H13+
208.0873	55	C15H12O+
209.0954	169	C15H13O+
209.1316	70	C16H17+
210.104	83	C15H14O+
211.1104	303	C15H15O+
212.1169	118	C15H16O+
213.1253	226	C15H17O+
215.1059	86	C14H15O2+
220.1197	57	C12H16N2O2+
221.0949	124	C16H13O+
222.1018	200	C16H14O+
223.1087	173	C16H15O+
224.1161	109	C16H16O+
225.1275	170	C16H17O+
226.1288	61	C8H20NO6+
227.1412	186	C16H19O+
235.1103	210	C17H15O+
236.114	91	C9H18NO6+
237.1258	459	C17H17O+
238.1294	86	C9H20NO6+
239.1031	56	C16H15O2+
239.1429	176	C17H19O+
240.1438	55	C9H22NO6+
248.118	92	C18H16O+
249.1257	189	C18H17O+
250.1313	91	C18H18O+
251.1428	69	C18H19O+
252.1474	68	C18H20O+
253.1642	103	C11H25O6+
255.1352	58	C17H19O2+
261.1269	94	C19H17O+
262.1347	169	C19H18O+
263.1413	218	C19H19O+
264.1472	102	C19H20O+
265.1568	122	C19H21O+
275.1417	110	C20H19O+
276.1524	142	C17H21FO2+
277.1587	188	C20H21O+
278.166	173	C20H22O+
279.1716	282	C20H23O+
280.1803	57	C20H24O+
286.1347	83	C21H18O+
291.1747	265	C21H23O+
292.1797	94	C21H24O+
301.1607	122	C19H22FO2+
319.1702	134	C19H24FO3+
