Mass spectrum: Imidacloprid-urea; LC-ESI-QTOF; MS2; CE: 10 eV; R=35000; [M+H]+
Name: Imidacloprid-urea
Name: 1-[(6-chloropyridin-3-yl)methyl]imidazolidin-2-one
Formula: C9H10ClN3O
Exact mass: 211.0512396
SMILES: c1cc(ncc1CN2CCN=C2O)Cl
InChI: InChI=1S/C9H10ClN3O/c10-8-2-1-7(5-12-8)6-13-4-3-11-9(13)14/h1-2,5H,3-4,6H2,(H,11,14)
Instrument: Bruker maXis Impact
Instrument type: LC-ESI-QTOF
Ms type: MS2
Ion mode: POSITIVE
Ionization: ESI
Fragmentation mode: CID
Collision energy: 10 eV
Resolution: 35000
Column name: Acclaim RSLC C18 2.2um, 2.1x100mm, Thermo
Retention time: 4.6 min
Base peak: 212.0577
Precursor m/z: 212.0585
Precursor type: [M+H]+
m/z	relative intensity	assigned
126.0093	2	C6H5ClN+
128.025	28	C6H7ClN+
129.0282	2	C5[13]CH7ClN+
130.022	9	C6H7[37]ClN+
176.0814	1	C9H10N3O+
195.0313	2	C9H8ClN2O+
212.0575	999	C9H11ClN3O+
213.0604	66	C8[13]CH11ClN3O+
214.0548	201	C9H11[37]ClN3O+
215.0574	8	C8[13]CH11[37]ClN3O+
