Mass spectrum: Metolachlor-Morpholinone; LC-ESI-QTOF; MS2; CE: 50 eV; R=35000; [M+H]+
Name: Metolachlor-Morpholinone
Name: 4-(2-ethyl-6-methylphenyl)-5-methylmorpholin-3-one
Formula: C14H19NO2
Exact mass: 233.1415788
SMILES: CCC1=CC=CC(C)=C1N1C(C)COCC1=O
InChI: InChI=1S/C14H19NO2/c1-4-12-7-5-6-10(2)14(12)15-11(3)8-17-9-13(15)16/h5-7,11H,4,8-9H2,1-3H3
Instrument: Bruker maXis Impact
Instrument type: LC-ESI-QTOF
Ms type: MS2
Ion mode: POSITIVE
Ionization: ESI
Fragmentation mode: CID
Collision energy: 50 eV
Resolution: 35000
Column name: Acclaim RSLC C18 2.2um, 2.1x100mm, Thermo
Retention time: 7.6 min
Base peak: 234.1487
Precursor m/z: 234.1489
Precursor type: [M+H]+
m/z	relative intensity	assigned
116.0497	38	C8H6N+
116.059	43	C4H8N2O2+
117.0686	105	C9H9+
119.0487	39	C8H7O+
119.0836	92	C9H11+
120.08	999	C8H10N+
121.0642	25	C8H9O+
121.0832	99	C3H11N3O2+
127.0536	12	C10H7+
128.0487	37	C9H6N+
128.0611	66	C10H8+
129.056	14	C9H7N+
129.0688	51	C10H9+
132.0437	101	C8H6NO+
133.0514	664	C8H7NO+
134.056	82	C3H8N3O3+
135.1016	44	C9H13N+
141.0558	10	C10H7N+
141.0691	8	C11H9+
142.064	45	C10H8N+
143.0718	125	C10H9N+
146.0951	353	C10H12N+
147.0996	46	C5H13N3O2+
148.0741	89	C9H10NO+
148.1111	198	C10H14N+
149.0778	8	C4H11N3O3+
149.1142	23	C5H15N3O2+
155.0585	13	C7H9NO3+
156.0792	27	C11H10N+
157.0877	33	C11H11N+
158.0953	116	C11H12N+
159.1015	29	C11H13N+
160.0747	56	C10H10NO+
160.1108	202	C11H14N+
161.081	15	C10H11NO+
161.1159	22	C6H15N3O2+
162.0903	54	C10H12NO+
162.1258	10	C11H16N+
163.0949	8	C5H13N3O3+
170.096	12	C12H12N+
172.1103	33	C12H14N+
174.1272	12	C12H16N+
176.1064	9	C11H14NO+
206.1182	8	C12H16NO2+
