Mass spectrum: Fipronil; LC-ESI-QTOF; MS2; CE: 40 eV; R=35000; [M-H]-
Name: Fipronil
Name: 5-amino-1-[2,6-dichloro-4-(trifluoromethyl)phenyl]-4-(trifluoromethylsulfinyl)pyrazole-3-carbonitrile
Formula: C12H4Cl2F6N4OS
Exact mass: 435.9387064
SMILES: NC1=C(C(=NN1C1=C(Cl)C=C(C=C1Cl)C(F)(F)F)C#N)S(=O)C(F)(F)F
InChI: InChI=1S/C12H4Cl2F6N4OS/c13-5-1-4(11(15,16)17)2-6(14)8(5)24-10(22)9(7(3-21)23-24)26(25)12(18,19)20/h1-2H,22H2
Instrument: Bruker maXis Impact
Instrument type: LC-ESI-QTOF
Ms type: MS2
Ion mode: NEGATIVE
Ionization: ESI
Fragmentation mode: CID
Collision energy: 40 eV
Resolution: 35000
Column name: Acclaim RSLC C18 2.2um, 2.1x100mm, Thermo
Retention time: 10.484 min
Base peak: 434.931
Precursor m/z: 434.9314
Precursor type: [M-H]-
m/z	relative intensity	assigned
143.004	20	C3H3N4OS-
148.9915	7	C7H2ClN2-
150.0024	9	C2H3FN4OS-
163.0111	68	C8HF2N2-
164.0145	5	C7[13]CHF2N2-
170.0095	147	C7HF3N2-
171.0128	7	C6[13]CHF3N2-
182.0092	162	C8HF3N2-
183.0177	999	C8H2F3N2-
184.0193	48	C7[13]CH2F3N2-
201.9979	13	C10F2N2O-
208.9579	6	ClF5H3N2OS-
212.948	34	C2HCl2F4N3-
214.9451	17	C2HCl[37]ClF4N3-
216.9767	13	C6H3ClFN4S-
217.9857	173	C8H2ClF3N2-
218.988	14	C7[13]CH2ClF3N2-
219.9824	39	C8H2[37]ClF3N2-
233.9794	34	C9H3ClN4S-
235.9747	9	C9H3[37]ClN4S-
242.9829	13	C11H3ClF3O-
243.9887	208	C9H2ClF3N3-
244.9215	8	C7H2Cl2F3S-
244.9903	16	C8[13]CH2ClF3N3-
245.9862	42	C9H2[37]ClF3N3-
246.0138	8	C11HF3N4-
249.9584	819	C8H2ClF3N2S-
250.9608	56	C7[13]CH2ClF3N2S-
251.9549	211	C8H2[37]ClF3N2S-
252.957	13	C11H2ClF2NS-
253.9851	84	C8H3ClF4N2O-
254.9902	11	C7[13]CH3ClF4N2O-
255.9853	25	C8H3[37]ClF4N2O-
262.9479	9	C5HCl2F4N4-
264.9469	6	C5HCl[37]ClF4N4-
267.9889	136	C11H2ClF3N3-
268.9914	14	C10[13]CH2ClF3N3-
269.9849	25	C11H2[37]ClF3N3-
271.9826	10	C10H3ClF6-
277.9529	671	C12HClF2N2S-
278.9549	46	C11[13]CHClF2N2S-
279.9495	157	C12H[37]ClF2N2S-
280.9547	34	C6H2Cl2F5N3-
281.9923	322	C11H2ClF3N4-
282.9523	5	C8H3Cl2F6-
282.9951	32	C10[13]CH2ClF3N4-
283.9882	74	C11H2[37]ClF3N4-
284.9922	7	C11H3ClF3N3O-
287.9597	42	C12H3Cl2F3N-
288.9626	6	C11[13]CH3Cl2F3N-
289.956	15	C12H3Cl[37]ClF3N-
303.9544	16	C7H2Cl2F4N4O-
317.9682	106	C11H3Cl2F3N4-
318.9703	11	C10[13]CH3Cl2F3N4-
319.9664	62	C11H3Cl[37]ClF3N4-
320.9718	6	C11HClF5N3O-
329.9578	44	C11H3ClF6NS-
330.9616	5	C10[13]CH3ClF6NS-
331.9542	13	C11H3[37]ClF6NS-
332.9571	8	C11H2Cl2F3N4O-
334.9545	6	C11H2Cl[37]ClF3N4O-
348.9315	6	C6H3Cl2F6N3OS-
350.9271	5	C6H3Cl[37]ClF6N3OS-
350.9909	7	C12H3F6N3OS-
