Mass spectrum: Tolfenpyrad; LC-ESI-QTOF; MS2; CE: 30 eV; R=35000; [M+H]+
Name: Tolfenpyrad
Name: 4-chloro-5-ethyl-2-methyl-N-[[4-(4-methylphenoxy)phenyl]methyl]pyrazole-3-carboxamide
Formula: C21H22ClN3O2
Exact mass: 383.1400546
SMILES: CCC1=NN(C(=C1Cl)C(=O)NCC2=CC=C(C=C2)OC3=CC=C(C=C3)C)C
InChI: InChI=1S/C21H22ClN3O2/c1-4-18-19(22)20(25(3)24-18)21(26)23-13-15-7-11-17(12-8-15)27-16-9-5-14(2)6-10-16/h5-12H,4,13H2,1-3H3,(H,23,26)
Instrument: Bruker maXis Impact
Instrument type: LC-ESI-QTOF
Ms type: MS2
Ion mode: POSITIVE
Ionization: ESI
Fragmentation mode: CID
Collision energy: 30 eV
Resolution: 35000
Column name: Acclaim RSLC C18 2.2um, 2.1x100mm, Thermo
Retention time: 12.430 min
Base peak: 150.1129
Precursor m/z: 384.1473
Precursor type: [M+H]+
m/z	relative intensity	assigned
117.0218	39	C4H6ClN2+
141.0706	16	C11H9+
145.0529	265	C6H10ClN2+
147.0499	71	C6H10[37]ClN2+
153.0696	11	C12H9+
154.0768	36	C12H10+
169.1013	57	C13H13+
171.0325	206	C7H8ClN2O+
172.0355	29	C10H6NO2+
173.0297	49	C7H8[37]ClN2O+
197.0969	999	C11H16ClN+
198.1	160	C10[13]CH16ClN+
199.1025	14	C10H16ClN2+
200.0597	42	C10H13ClO2+
277.1002	46	C16H18ClO2+
279.102	14	C15H18ClNO2+
327.0802	189	C17H14ClN3O2+
328.085	20	C16[13]CH14ClN3O2+
341.1461	14	C20H22ClN2O+
384.1492	285	C21H23ClN3O2+
385.1514	80	C20[13]CH23ClN3O2+
386.1482	108	C21H23[37]ClN3O2+
