Mass spectrum: 1,3-Diphenylguanidine; LC-ESI-QTOF; MS2; CE: 40 eV; R=35000; [M+H]+
Name: 1,3-Diphenylguanidine
Name: 1,2-diphenylguanidine
Formula: C13H13N3
Exact mass: 211.1109474
SMILES: N=C(NC1=CC=CC=C1)NC1=CC=CC=C1
InChI: InChI=1S/C13H13N3/c14-13(15-11-7-3-1-4-8-11)16-12-9-5-2-6-10-12/h1-10H,(H3,14,15,16)
Instrument: Bruker maXis Impact
Instrument type: LC-ESI-QTOF
Ms type: MS2
Ion mode: POSITIVE
Ionization: ESI
Fragmentation mode: CID
Collision energy: 40 eV
Resolution: 35000
Column name: Acclaim RSLC C18 2.2um, 2.1x100mm, Thermo
Retention time: 4.446 min
Base peak: 212.1181
Precursor m/z: 212.1182
Precursor type: [M+H]+
m/z	relative intensity	assigned
117.0444	25	C7H5N2+
119.0596	999	C7H7N2+
120.0633	99	C6[13]CH7N2+
167.0732	97	C12H9N+
168.0783	57	C12H10N+
195.0903	311	C13H11N2+
196.0918	42	C12[13]CH11N2+
