Mass spectrum: Triethyl citrate; GC-APCI-QTOF; MS2; CE: 10 eV; R=35000; [M]+
Name: Triethyl citrate
Formula: C12H20O7
Exact mass: 276.1209
SMILES: CCOC(=O)CC(CC(=O)OCC)(C(=O)OCC)O
InChI: InChI=1S/C12H20O7/c1-4-17-9(13)7-12(16,11(15)19-6-3)8-10(14)18-5-2/h16H,4-8H2,1-3H3
Instrument: Bruker 450 GC coupled to maXis Impact
Instrument type: GC-APCI-QTOF
Ms type: MS2
Ion mode: POSITIVE
Ionization: APCI
Fragmentation mode: CID
Collision energy: 10 eV
Resolution: 35000
Column name: Rxi-5Sil MS column, 30m, 0.25mm i.d., 0.25Âµm film thickness, Restek
Retention time: 15.015 min
Base peak: 189.0559
Precursor m/z: 276.1204
Precursor type: [M]+
m/z	relative intensity	assigned
83.0479	27	C5H7O+
98.071	134	C6H10O+
132.0234	49	C8H4O2+
132.0555	95	C9H8O+
144.0589	42	C10H8O+
145.0662	29	C10H9O+
146.0379	49	C9H6O2+
146.0728	52	C10H10O+
146.0792	60	C3H14O6+
147.046	42	C9H7O2+
149.0255	999	C8H5O3+
150.0285	102	C8H6O3+
161.0627	35	C3H13O7+
172.0548	35	C11H8O2+
172.0904	168	C12H12O+
173.0995	28	C5H17O6+
174.0719	33	C4H14O7+
183.0824	48	C6H15O6+
184.092	156	C6H16O6+
188.05	157	C11H8O3+
189.0562	676	C11H9O3+
190.0657	90	C11H10O3+
190.0803	27	C8H14O5+
194.0577	30	C10H10O4+
202.1	122	C6H18O7+
204.0453	27	C11H8O4+
204.0782	110	C12H12O3+
205.0505	108	C11H9O4+
206.0575	48	C11H10O4+
