Mass spectrum: Caffeine; LC-ESI-QTOF; MS2; CE: Ramp 14.5-21.8 eV; R=35000; [M+H]+
Name: Caffeine
Name: 1,3,7-trimethylpurine-2,6-dione
Formula: C8H10N4O2
Exact mass: 194.08037556
SMILES: CN1C=NC2=C1C(=O)N(C)C(=O)N2C
InChI: InChI=1S/C8H10N4O2/c1-10-4-9-6-5(10)7(13)12(3)8(14)11(6)2/h4H,1-3H3
Instrument: Bruker maXis Impact
Instrument type: LC-ESI-QTOF
Ms type: MS2
Ion mode: POSITIVE
Ionization: ESI
Fragmentation mode: CID
Collision energy: Ramp 14.5-21.8 eV
Resolution: 35000
Column name: Acclaim RSLC C18 2.2um, 2.1x100mm, Thermo
Retention time: 6.598 min
Base peak: 102.1287
Precursor m/z: 195.0877
Precursor type: [M+H]+
m/z	relative intensity	assigned
135.0432	131	C6H5N3O+
138.0632	161	C6H8N3O+
163.0375	999	C7H5N3O2+
195.088	159	C8H11N4O2+
