Mass spectrum: Methyl salicylate; GC-APCI-QTOF; MS2; CE: 50 eV; R=35000; [M+H]+
Name: Methyl salicylate
Formula: C8H8O3
Exact mass: 152.0473
SMILES: COC(=O)C1=CC=CC=C1O
InChI: InChI=1S/C8H8O3/c1-11-8(10)6-4-2-3-5-7(6)9/h2-5,9H,1H3
Instrument: Bruker 450 GC coupled to maXis Impact
Instrument type: GC-APCI-QTOF
Ms type: MS2
Ion mode: POSITIVE
Ionization: APCI
Fragmentation mode: CID
Collision energy: 50 eV
Resolution: 35000
Column name: Rxi-5Sil MS column, 30m, 0.25mm i.d., 0.25Âµm film thickness, Restek
Retention time: 9.579 min
Base peak: 153.0559
Precursor m/z: 153.0546
Precursor type: [M+H]+
m/z	relative intensity	assigned
53.003	21	C3HO+
54.0472	35	C4H6+
62.016	31	C5H2+
63.023	999	C5H3+
64.0305	257	C5H4+
65.0386	353	C5H5+
92.0248	82	C6H4O+
