Mass spectrum: Hydrocortisone; LC-ESI-QTOF; MS2; CE: Ramp 22.9-34.3 eV; R=35000; [M+H]+
Name: (8S,9S,10R,11S,13S,14S,17R)-11,17-dihydroxy-17-(2-hydroxyacetyl)-10,13-dimethyl-2,6,7,8,9,11,12,14,15,16-decahydro-1H-cyclopenta[a]phenanthren-3-one
Name: Cortisol
Name: Hydrocortisone
Formula: C21H30O5
Exact mass: 362.20932
SMILES: C[C@]12CCC(=O)C=C1CC[C@@H]3[C@@H]2[C@H](C[C@]4([C@H]3CC[C@@]4(C(=O)CO)O)C)O
InChI: InChI=1S/C21H30O5/c1-19-7-5-13(23)9-12(19)3-4-14-15-6-8-21(26,17(25)11-22)20(15,2)10-16(24)18(14)19/h9,14-16,18,22,24,26H,3-8,10-11H2,1-2H3/t14-,15-,16-,18+,19-,20-,21-/m0/s1
Instrument: Bruker maXis Impact
Instrument type: LC-ESI-QTOF
Ms type: MS2
Ion mode: POSITIVE
Ionization: ESI
Fragmentation mode: CID
Collision energy: Ramp 22.9-34.3 eV
Resolution: 35000
Column name: Acclaim RSLC C18 2.2um, 2.1x100mm, Thermo
Retention time: 7.800 min
Base peak: 363.2171
Precursor m/z: 363.2166
Precursor type: [M+H]+
m/z	relative intensity	assigned
95.0851	19	C7H11+
97.0669	48	C6H9O+
109.066	32	C7H9O+
117.0693	19	C9H9+
119.0849	87	C9H11+
121.064	999	C8H9O+
122.0675	117	C7[13]CH9O+
123.0792	131	C8H11O+
125.0587	26	C7H9O2+
128.0605	22	C10H8+
129.0685	36	C10H9+
130.0765	20	C10H10+
131.0846	116	C10H11+
133.0627	32	C9H9O+
133.1007	129	C10H13+
134.1027	19	C9[13]CH13+
135.0796	145	C9H11O+
135.1165	33	C10H15+
137.058	26	C8H9O2+
137.095	55	C9H13O+
139.0722	22	C8H11O2+
141.0698	74	C11H9+
142.0748	20	C11H10+
143.0836	171	C11H11+
144.0889	22	C10[13]CH11+
145.0642	37	C10H9O+
145.1	221	C11H13+
147.0787	164	C10H11O+
147.1151	245	C11H15+
148.0819	28	C9[13]CH11O+
148.12	31	C10[13]CH15+
149.0942	85	C10H13O+
149.1311	40	C11H17+
151.0749	18	C9H11O2+
155.0836	61	C12H11+
157.0653	20	C11H9O+
157.0994	165	C12H13+
158.1031	25	C11[13]CH13+
159.0788	118	C11H11O+
159.1154	212	C12H15+
160.1204	50	C11[13]CH15+
161.0942	113	C11H13O+
161.1317	63	C12H17+
163.1102	223	C11H15O+
164.1142	31	C10[13]CH15O+
165.0883	18	C10H13O2+
167.0835	44	C13H11+
169.0989	153	C13H13+
170.1036	34	C12[13]CH13+
171.0799	67	C12H11O+
171.1151	106	C13H15+
172.1217	39	C13H16+
173.0954	119	C12H13O+
173.1312	85	C13H17+
174.0986	28	C11[13]CH13O+
175.1101	169	C12H15O+
176.1144	27	C11[13]CH15O+
177.0907	25	C11H13O2+
177.1256	45	C12H17O+
179.1045	21	C11H15O2+
181.0998	56	C14H13+
183.1156	138	C14H15+
185.0965	71	C13H13O+
185.1315	93	C14H17+
186.1004	18	C12[13]CH13O+
187.11	194	C13H15O+
187.1478	29	C14H19+
188.113	35	C12[13]CH15O+
189.1259	105	C13H17O+
191.1038	20	C12H15O2+
193.0997	18	C15H13+
195.1159	53	C15H15+
196.1208	29	C15H16+
197.0957	38	C14H13O+
197.131	68	C15H17+
199.1113	73	C14H15O+
199.1468	46	C15H19+
201.1264	92	C14H17O+
203.1056	33	C13H15O2+
203.1429	42	C14H19O+
205.1213	57	C13H17O2+
207.1162	41	C16H15+
207.1336	22	C13H19O2+
209.1311	142	C16H17+
210.1349	31	C15[13]CH17+
211.1108	61	C15H15O+
211.1465	63	C16H19+
212.1148	21	C15H16O+
213.1257	109	C15H17O+
214.1318	38	C15H18O+
215.1423	73	C15H19O+
217.1193	18	C14H17O2+
217.1555	18	C15H21O+
219.1383	22	C14H19O2+
221.132	54	C17H17+
223.1115	22	C16H15O+
223.1467	91	C17H19+
225.1267	163	C16H17O+
225.1627	73	C17H21+
226.1296	23	C15[13]CH17O+
227.1426	99	C16H19O+
228.1455	29	C15[13]CH19O+
229.1214	20	C15H17O2+
229.1566	37	C16H21O+
231.1361	39	C15H19O2+
233.1323	44	C18H17+
235.1074	21	C17H15O+
235.1425	18	C18H19+
237.1264	22	C17H17O+
237.1631	23	C18H21+
239.1423	135	C17H19O+
239.1775	27	C18H23+
240.1468	28	C16[13]CH19O+
241.1212	30	C16H17O2+
241.1578	261	C17H21O+
242.1606	53	C16[13]CH21O+
243.136	49	C16H19O2+
243.1738	108	C17H23O+
244.1752	28	C16[13]CH23O+
245.1517	34	C16H21O2+
247.1457	25	C19H19+
249.131	21	C18H17O+
249.1636	84	C19H21+
250.1722	23	C18[13]CH21+
251.1436	73	C18H19O+
251.1771	83	C19H23+
252.1446	26	C18H20O+
253.1567	77	C18H21O+
254.1672	19	C17[13]CH21O+
257.1526	28	C17H21O2+
259.1686	47	C17H23O2+
261.1585	24	C20H21+
263.1457	26	C19H19O+
263.1793	44	C20H23+
265.1611	63	C19H21O+
266.1603	23	C19H22O+
267.1361	27	C18H19O2+
267.1739	398	C19H23O+
268.1782	165	C19H24O+
269.1536	55	C18H21O2+
269.1887	333	C19H25O+
270.1623	20	C18H22O2+
270.1923	85	C18[13]CH25O+
271.1693	42	C18H23O2+
273.1627	24	C21H21+
276.1456	18	C20H20O+
279.1726	67	C20H23O+
281.1514	43	C19H21O2+
281.1885	126	C20H25O+
282.1926	54	C20H26O+
283.1626	42	C19H23O2+
285.1833	83	C19H25O2+
286.1877	51	C19H26O2+
287.1975	46	C19H27O2+
288.2045	20	C19H28O2+
291.173	153	C21H23O+
292.1774	36	C20[13]CH23O+
297.1838	195	C20H25O2+
298.1862	62	C19[13]CH25O2+
299.1612	19	C19H23O3+
299.1978	58	C20H27O2+
300.2031	24	C20H28O2+
301.1798	35	C19H25O3+
302.1811	19	C19H26O3+
303.1943	544	C19H27O3+
304.1968	177	C18[13]CH27O3+
309.1846	453	C21H25O2+
310.1871	122	C20[13]CH25O2+
311.1889	30	C17H27O5+
315.1947	54	C20H27O3+
317.2116	21	C20H29O3+
327.1951	579	C21H27O3+
328.1985	124	C20[13]CH27O3+
345.2044	188	C21H29O4+
346.2077	47	C20[13]CH29O4+
361.2015	24	C21H29O5+
363.2159	891	C21H31O5+
364.2194	226	C20[13]CH31O5+
