Mass spectrum: Tepraloxydim; LC-ESI-QTOF; MS2; CE: 10 eV; R=35000; [M-H]-
Name: Tepraloxydim
Name: Tepraloxydim [ISO]
Name: 2-[N-[(E)-3-chloroprop-2-enoxy]-C-ethylcarbonimidoyl]-3-hydroxy-5-(oxan-4-yl)cyclohex-2-en-1-one
Formula: C17H24ClNO4
Exact mass: 341.1393859
SMILES: [H]\C(Cl)=C(\[H])CON=C(CC)C1=C(O)CC(CC1=O)C1CCOCC1
InChI: InChI=1S/C17H24ClNO4/c1-2-14(19-23-7-3-6-18)17-15(20)10-13(11-16(17)21)12-4-8-22-9-5-12/h3,6,12-13,20H,2,4-5,7-11H2,1H3/b6-3+,19-14?
Instrument: Bruker maXis Impact
Instrument type: LC-ESI-QTOF
Ms type: MS2
Ion mode: NEGATIVE
Ionization: ESI
Fragmentation mode: CID
Collision energy: 10 eV
Resolution: 35000
Column name: Acclaim RSLC C18 2.2um, 2.1x100mm, Thermo
Retention time: 5.265 min
Base peak: 340.1316
Precursor m/z: 340.1321
Precursor type: [M-H]-
m/z	relative intensity	assigned
153.0428	11	C7H7NO3-
180.0663	19	C9H10NO3-
220.097	59	C12H14NO3-
221.098	5	C11[13]CH14NO3-
250.1433	82	C14H20NO3-
251.1471	13	C13[13]CH20NO3-
265.1299	8	C14H19NO4-
340.1311	999	C17H23ClNO4-
341.1348	177	C16[13]CH23ClNO4-
342.1284	281	C17H23[37]ClNO4-
