Mass spectrum: trans-3-Hydroxycotinine; LC-ESI-QTOF; MS2; CE: Ramp 17.8-26.6 eV; R=35000; [M+H]+
Name: trans-3-Hydroxycotinine
Name: Hydroxycotinine
Name: (3R,5S)-3-hydroxy-1-methyl-5-pyridin-3-ylpyrrolidin-2-one
Formula: C10H12N2O2
Exact mass: 192.0898776
SMILES: CN1[C@@H](C[C@H](C1=O)O)c2cccnc2
InChI: InChI=1S/C10H12N2O2/c1-12-8(5-9(13)10(12)14)7-3-2-4-11-6-7/h2-4,6,8-9,13H,5H2,1H3/t8-,9+/m0/s1
Instrument: Bruker maXis Impact
Instrument type: LC-ESI-QTOF
Ms type: MS2
Ion mode: POSITIVE
Ionization: ESI
Fragmentation mode: CID
Collision energy: Ramp 17.8-26.6 eV
Resolution: 35000
Column name: Acclaim RSLC C18 2.2um, 2.1x100mm, Thermo
Retention time: 2.937 min
Base peak: 193.0959
Precursor m/z: 193.0972
Precursor type: [M+H]+
m/z	relative intensity	assigned
116.0487	19	C8H6N+
117.056	36	C8H7N+
118.0643	116	C8H8N+
120.0431	12	C7H6NO+
121.075	21	C7H9N2+
123.09	17	C7H11N2+
130.0636	15	C9H8N+
131.0598	24	C8H7N2+
132.0664	25	C8H8N2+
133.0515	12	C8H7NO+
133.0742	47	C8H9N2+
134.0587	999	C8H8NO+
135.0625	90	C7[13]CH8NO+
136.0378	140	C7H6NO2+
136.0742	93	C8H10NO+
144.0441	16	C9H6NO+
146.0582	49	C9H8NO+
146.0826	9	C9H10N2+
147.0904	44	C9H11N2+
148.0749	13	C9H10NO+
149.069	264	C8H9N2O+
150.0739	19	C7[13]CH9N2O+
162.0527	21	C9H8NO2+
164.0692	13	C9H10NO2+
165.0993	15	C9H13N2O+
175.0852	41	C10H11N2O+
193.0957	725	C10H13N2O2+
194.0995	83	C9[13]CH13N2O2+
