Mass spectrum: Levamisole; LC-ESI-QTOF; MS2; CE: 50 eV; R=35000; [M+H]+
Name: Levamisole
Name: (6S)-6-phenyl-2,3,5,6-tetrahydroimidazo[2,1-b][1,3]thiazole
Formula: C11H12N2S
Exact mass: 204.0721194
SMILES: c1ccc(cc1)[C@H]2CN3CCSC3=N2
InChI: InChI=1S/C11H12N2S/c1-2-4-9(5-3-1)10-8-13-6-7-14-11(13)12-10/h1-5,10H,6-8H2/t10-/m1/s1
Instrument: Bruker maXis Impact
Instrument type: LC-ESI-QTOF
Ms type: MS2
Ion mode: POSITIVE
Ionization: ESI
Fragmentation mode: CID
Collision energy: 50 eV
Resolution: 35000
Column name: Acclaim RSLC C18 2.2um, 2.1x100mm, Thermo
Retention time: 3.8 min
Base peak: 205.0717
Precursor m/z: 205.0794
Precursor type: [M+H]+
m/z	relative intensity	assigned
115.0462	228	C5H9NS+
116.0516	38	C5H10NS+
117.0492	296	C4H9N2S+
118.0573	145	C4H10N2S+
124.0239	35	C6H6NS+
126.0459	32	C10H6+
127.0462	108	C6H9NS+
128.0415	69	C5H8N2S+
128.0539	654	C6H10NS+
129.0619	89	C6H11NS+
130.0575	999	C5H10N2S+
131.0644	159	C5H11N2S+
132.0729	75	C5H12N2S+
135.0214	44	C11H3+
144.0735	111	C6H12N2S+
145.0582	110	C6H11NOS+
148.0159	36	C11H2N+
150.0313	33	C11H4N+
155.0574	87	C10H7N2+
178.0655	159	C10H12NS+
