Mass spectrum: Trazodone; LC-ESI-QTOF; MS2; CE: 40 eV; R=35000; [M+H]+
Name: Trazodone
Name: 2-[3-[4-(3-chlorophenyl)piperazin-1-yl]propyl]-[1,2,4]triazolo[4,3-a]pyridin-3-one
Formula: C19H22ClN5O
Exact mass: 371.1512880
SMILES: c1ccn2c(c1)nn(c2=O)CCCN3CCN(CC3)c4cccc(c4)Cl
InChI: InChI=1S/C19H22ClN5O/c20-16-5-3-6-17(15-16)23-13-11-22(12-14-23)8-4-10-25-19(26)24-9-2-1-7-18(24)21-25/h1-3,5-7,9,15H,4,8,10-14H2
Instrument: Bruker maXis Impact
Instrument type: LC-ESI-QTOF
Ms type: MS2
Ion mode: POSITIVE
Ionization: ESI
Fragmentation mode: CID
Collision energy: 40 eV
Resolution: 35000
Column name: Acclaim RSLC C18 2.2um, 2.1x100mm, Thermo
Retention time: 6.006 min
Base peak: 372.1588
Precursor m/z: 372.1586
Precursor type: [M+H]+
m/z	relative intensity	assigned
119.0596	6	C7H7N2+
120.0548	5	C6H6N3+
121.075	10	C7H9N2+
133.0751	50	C8H9N2+
135.0418	10	C6H5N3O+
136.0489	6	C6H6N3O+
148.0496	889	C7H6N3O+
148.0862	213	C8H10N3+
149.0526	51	C6[13]CH6N3O+
149.089	13	C7[13]CH10N3+
154.0406	5	C9H4N3+
166.0405	6	C10H4N3+
176.081	999	C9H10N3O+
177.0839	71	C8[13]CH10N3O+
194.0596	5	C13H8NO+
209.083	17	C14H11NO+
237.1144	10	C16H15NO+
372.1588	6	C19H23ClN5O+
