Mass spectrum: Pethoxamid; LC-ESI-QTOF; MS2; CE: 20 eV; R=35000; [M+H]+
Name: Pethoxamid
Name: 2-chloro-N-(2-ethoxyethyl)-N-(2-methyl-1-phenylprop-1-enyl)acetamide
Formula: C16H22ClNO2
Exact mass: 295.1339066
SMILES: CCOCCN(C(=O)CCl)C(=C(C)C)C1=CC=CC=C1
InChI: InChI=1S/C16H22ClNO2/c1-4-20-11-10-18(15(19)12-17)16(13(2)3)14-8-6-5-7-9-14/h5-9H,4,10-12H2,1-3H3
Instrument: Bruker maXis Impact
Instrument type: LC-ESI-QTOF
Ms type: MS2
Ion mode: POSITIVE
Ionization: ESI
Fragmentation mode: CID
Collision energy: 20 eV
Resolution: 35000
Column name: Acclaim RSLC C18 2.2um, 2.1x100mm, Thermo
Retention time: 10.159 min
Base peak: 296.1414
Precursor m/z: 296.1412
Precursor type: [M+H]+
m/z	relative intensity	assigned
115.0538	7	C9H7+
116.0612	8	C9H8+
129.069	29	C10H9+
131.0849	999	C10H11+
132.0882	79	C9[13]CH11+
174.1267	7	C12H16N+
176.1055	7	C11H14NO+
219.1612	5	C14H21NO+
220.1691	56	C14H22NO+
221.1727	6	C13[13]CH22NO+
250.0992	441	C14H17ClNO+
251.1023	50	C13[13]CH17ClNO+
252.0963	92	C14H17[37]ClNO+
253.0995	7	C14H18ClO2+
296.1411	51	C16H23ClNO2+
297.1446	8	C15[13]CH23ClNO2+
298.1386	12	C16H23[37]ClNO2+
