Mass spectrum: Dapsone; LC-ESI-QTOF; MS2; CE: Ramp 19.8-29.6 eV; R=35000; [M+H]+
Name: Dapsone
Name: 4-(4-aminophenyl)sulfonylaniline
Formula: C12H12N2O2S
Exact mass: 248.0619
SMILES: c1cc(ccc1N)S(=O)(=O)c2ccc(cc2)N
InChI: InChI=1S/C12H12N2O2S/c13-9-1-5-11(6-2-9)17(15,16)12-7-3-10(14)4-8-12/h1-8H,13-14H2
Instrument: Bruker maXis Impact
Instrument type: LC-ESI-QTOF
Ms type: MS2
Ion mode: POSITIVE
Ionization: ESI
Fragmentation mode: CID
Collision energy: Ramp 19.8-29.6 eV
Resolution: 35000
Column name: Acclaim RSLC C18 2.2um, 2.1x100mm, Thermo
Retention time: 4.2 min
Base peak: 79.0208
Precursor m/z: 249.0692
Precursor type: [M+H]+
m/z	relative intensity	assigned
53.0382	8	C4H5+
54.0334	8	C3H4N+
55.0177	7	C3H3O+
60.0555	12	C3H8O+
65.0381	132	C5H5+
66.0416	8	H6N2O2+
68.0489	212	C4H6N+
69.0328	18	C4H5O+
74.095	6	C4H12N+
78.0333	19	C5H4N+
79.0177	35	C5H3O+
80.0495	17	C5H6N+
82.029	5	C4H4NO+
92.0497	272	C6H6N+
93.0573	149	C6H7N+
94.0605	10	CH8N3O2+
96.0442	28	C5H6NO+
108.0464	373	C3H10NOS+
109.0489	34	C6H7NO+
110.061	96	C6H8NO+
111.0638	5	C6H9NO+
120.0559	44	C8H8O+
156.0116	999	C6H6NO2S+
157.0143	99	C9H3NO2+
158.0076	43	C9H4NS+
249.0704	281	C12H13N2O2S+
250.0721	36	C11H12N3O2S+
251.0672	10	C11H13N3O2S+
