Mass spectrum: Phenylethylamine; LC-ESI-QTOF; MS2; CE: 10 eV; R=35000; [M+H]+
Name: Phenylethylamine
Name: Phenethylamine
Name: 2-phenylethanamine
Formula: C8H11N
Exact mass: 121.0891494
SMILES: c1ccc(cc1)CCN
InChI: InChI=1S/C8H11N/c9-7-6-8-4-2-1-3-5-8/h1-5H,6-7,9H2
Instrument: Bruker maXis Impact
Instrument type: LC-ESI-QTOF
Ms type: MS2
Ion mode: POSITIVE
Ionization: ESI
Fragmentation mode: CID
Collision energy: 10 eV
Resolution: 35000
Column name: Acclaim RSLC C18 2.2um, 2.1x100mm, Thermo
Retention time: 3.816 min
Base peak: 144.1752
Precursor m/z: 122.0964
Precursor type: [M+H]+
m/z	relative intensity	assigned
105.0714	45	C8H9+
122.0965	999	C8H12N+
123.0998	101	C7[13]CH12N+
