Mass spectrum: Oxycodone; LC-ESI-QTOF; MS2; CE: 10 eV; R=35000; [M+H]+
Name: Oxycodone
Name: (4R,4aS,7aR,12bS)-4a-hydroxy-9-methoxy-3-methyl-2,4,5,6,7a,13-hexahydro-1H-4,12-methanobenzofuro[3,2-e]isoquinoline-7-one
Formula: C18H21NO4
Exact mass: 315.1470582
SMILES: CN1CC[C@]23c4c5ccc(c4O[C@H]2C(=O)CC[C@]3([C@H]1C5)O)OC
InChI: InChI=1S/C18H21NO4/c1-19-8-7-17-14-10-3-4-12(22-2)15(14)23-16(17)11(20)5-6-18(17,21)13(19)9-10/h3-4,13,16,21H,5-9H2,1-2H3/t13-,16+,17+,18-/m1/s1
Instrument: Bruker maXis Impact
Instrument type: LC-ESI-QTOF
Ms type: MS2
Ion mode: POSITIVE
Ionization: ESI
Fragmentation mode: CID
Collision energy: 10 eV
Resolution: 35000
Column name: Acclaim RSLC C18 2.2um, 2.1x100mm, Thermo
Retention time: 3.740 min
Base peak: 316.1562
Precursor m/z: 316.1543
Precursor type: [M+H]+
m/z	relative intensity	assigned
298.1453	38	C18H20NO3+
299.1484	6	C17[13]CH20NO3+
316.1563	999	C18H22NO4+
317.1595	150	C17[13]CH22NO4+
318.1618	13	C18H22NO3[18]O+
