Mass spectrum: 5-Chlorobenzotriazole; LC-ESI-QTOF; MS2; CE: 40 eV; R=35000; [M+H]+
Name: 5-Chlorobenzotriazole
Name: 5-chloro-2H-benzotriazole
Formula: C6H4ClN3
Exact mass: 153.0093748
SMILES: ClC1=CC2=NNN=C2C=C1
InChI: InChI=1S/C6H4ClN3/c7-4-1-2-5-6(3-4)9-10-8-5/h1-3H,(H,8,9,10)
Instrument: Bruker maXis Impact
Instrument type: LC-ESI-QTOF
Ms type: MS2
Ion mode: POSITIVE
Ionization: ESI
Fragmentation mode: CID
Collision energy: 40 eV
Resolution: 35000
Column name: Acclaim RSLC C18 2.2um, 2.1x100mm, Thermo
Retention time: 6.481 min
Base peak: 154.0155
Precursor m/z: 154.0167
Precursor type: [M+H]+
m/z	relative intensity	assigned
119.0493	698	C6H5N3+
125.0022	436	C6H4ClN+
126.0103	410	C6H5ClN+
154.0161	999	C6H5ClN3+
156.0135	342	C6H5[37]ClN3+
