Mass spectrum: 5-Hydroxyflunixin; LC-ESI-QTOF; MS2; CE: 30 eV; R=35000; [M+H]+
Name: 5-Hydroxyflunixin
Name: 5-hydroxy-2-[2-methyl-3-(trifluoromethyl)anilino]pyridine-3-carboxylic acid
Formula: C14H11F3N2O3
Exact mass: 312.0721769
SMILES: Cc1c(cccc1Nc2c(cc(cn2)O)C(=O)O)C(F)(F)F
InChI: InChI=1S/C14H11F3N2O3/c1-7-10(14(15,16)17)3-2-4-11(7)19-12-9(13(21)22)5-8(20)6-18-12/h2-6,20H,1H3,(H,18,19)(H,21,22)
Instrument: Bruker maXis Impact
Instrument type: LC-ESI-QTOF
Ms type: MS2
Ion mode: POSITIVE
Ionization: ESI
Fragmentation mode: CID
Collision energy: 30 eV
Resolution: 35000
Column name: Acclaim RSLC C18 2.2um, 2.1x100mm, Thermo
Retention time: 8.6 min
Base peak: 313.0699
Precursor m/z: 313.0795
Precursor type: [M+H]+
m/z	relative intensity	assigned
275.0481	52	C14H6F3N2O+
280.0363	94	C14H7F3O3+
295.0635	999	C14H10F3N2O2+
296.0676	181	C13[13]CH10F3N2O2+
313.0735	226	C14H12F3N2O3+
