Mass spectrum: Piperine; LC-ESI-QTOF; MS2; CE: 50 eV; R=35000; [M+H]+
Name: Piperine
Name: (2E,4E)-5-(1,3-benzodioxol-5-yl)-1-piperidin-1-ylpenta-2,4-dien-1-one
Formula: C17H19NO3
Exact mass: 285.1364935
SMILES: O=C(\C=C\C=C\C1=CC2=C(OCO2)C=C1)N1CCCCC1
InChI: InChI=1S/C17H19NO3/c19-17(18-10-4-1-5-11-18)7-3-2-6-14-8-9-15-16(12-14)21-13-20-15/h2-3,6-9,12H,1,4-5,10-11,13H2/b6-2+,7-3+
Instrument: Bruker maXis Impact
Instrument type: LC-ESI-QTOF
Ms type: MS2
Ion mode: POSITIVE
Ionization: ESI
Fragmentation mode: CID
Collision energy: 50 eV
Resolution: 35000
Column name: Acclaim RSLC C18 2.2um, 2.1x100mm, Thermo
Retention time: 10.028 min
Base peak: 286.1435
Precursor m/z: 286.1438
Precursor type: [M+H]+
m/z	relative intensity	assigned
115.0538	999	C9H7+
116.0571	87	C8[13]CH7+
117.0687	9	C9H9+
122.0955	13	C8H12N+
127.0529	11	C10H7+
128.0607	5	C10H8+
131.0481	9	C9H7O+
134.0951	6	C6H14O3+
135.0431	303	C8H7O2+
136.0464	26	C7[13]CH7O2+
143.0482	387	C10H7O+
144.0514	48	C9[13]CH7O+
145.063	14	C10H9O+
150.09	13	C9H12NO+
151.0975	18	C9H13NO+
155.0588	13	C7H9NO3+
159.0424	72	C10H7O2+
160.0464	8	C9[13]CH7O2+
171.0428	160	C11H7O2+
172.0466	25	C10[13]CH7O2+
173.0578	34	C11H9O2+
174.0613	5	C10[13]CH9O2+
201.0532	82	C12H9O3+
202.0564	14	C11[13]CH9O3+
