Mass spectrum: Ametryn; LC-ESI-QTOF; MS2; CE: 20 eV; R=35000; [M+H]+
Name: Ametryn
Name: 4-N-ethyl-6-methylsulfanyl-2-N-propan-2-yl-1,3,5-triazine-2,4-diamine
Formula: C9H17N5S
Exact mass: 227.1204665
SMILES: CCNC1=NC(SC)=NC(NC(C)C)=N1
InChI: InChI=1S/C9H17N5S/c1-5-10-7-12-8(11-6(2)3)14-9(13-7)15-4/h6H,5H2,1-4H3,(H2,10,11,12,13,14)
Instrument: Bruker maXis Impact
Instrument type: LC-ESI-QTOF
Ms type: MS2
Ion mode: POSITIVE
Ionization: ESI
Fragmentation mode: CID
Collision energy: 20 eV
Resolution: 35000
Column name: Acclaim RSLC C18 2.2um, 2.1x100mm, Thermo
Retention time: 9.162 min
Base peak: 228.1292
Precursor m/z: 228.1277
Precursor type: [M+H]+
m/z	relative intensity	assigned
116.0273	14	C3H6N3S+
138.0768	46	C5H8N5+
138.1021	36	C7H12N3+
144.0585	43	C5H10N3S+
158.0486	42	C4H8N5S+
158.0739	7	C6H12N3S+
180.1236	15	C8H14N5+
186.0812	999	C6H12N5S+
187.0826	132	C9H9N5+
188.0764	62	C6H12N5[34]S+
228.1286	998	C9H18N5S+
230.1239	65	C9H18N5[34]S+
