Mass spectrum: Benzoylecgonine; LC-ESI-QTOF; MS2; CE: 50 eV; R=35000; [M+H]+
Name: Benzoylecgonine
Name: (3S,4R)-3-benzoyloxy-8-methyl-8-azabicyclo[3.2.1]octane-4-carboxylic acid
Formula: C16H19NO4
Exact mass: 289.1314081
SMILES: CN1C2CCC1[C@H]([C@H](C2)OC(=O)C1=CC=CC=C1)C(O)=O
InChI: InChI=1S/C16H19NO4/c1-17-11-7-8-12(17)14(15(18)19)13(9-11)21-16(20)10-5-3-2-4-6-10/h2-6,11-14H,7-9H2,1H3,(H,18,19)/t11?,12?,13-,14+/m0/s1
Instrument: Bruker maXis Impact
Instrument type: LC-ESI-QTOF
Ms type: MS2
Ion mode: POSITIVE
Ionization: ESI
Fragmentation mode: CID
Collision energy: 50 eV
Resolution: 35000
Column name: Acclaim RSLC C18 2.2um, 2.1x100mm, Thermo
Retention time: 4.6 min
Base peak: 290.1389
Precursor m/z: 290.1387
Precursor type: [M+H]+
m/z	relative intensity	assigned
117.0563	140	C8H7N+
118.0406	35	C8H6O+
118.0636	67	C5H10O3+
119.0481	462	C8H7O+
120.0432	21	C7H6NO+
120.0518	69	C3H8N2O3+
120.0808	59	C8H10N+
121.0631	22	C8H9O+
121.0866	28	C5H13O3+
122.0588	48	C7H8NO+
122.0956	426	C8H12N+
123.0997	48	C5H15O3+
124.1112	187	C8H14N+
130.064	43	C9H8N+
131.0714	25	C6H11O3+
132.0799	181	C9H10N+
133.0843	27	C6H13O3+
134.0592	105	C8H8NO+
135.0668	465	C8H9NO+
136.0712	33	C5H12O4+
137.0581	30	C8H9O2+
140.0693	187	C7H10NO2+
140.1048	20	C5H16O4+
141.0746	20	C2H11N3O4+
148.0752	18	C9H10NO+
150.0902	402	C9H12NO+
151.0959	33	C6H15O4+
168.1014	999	C9H14NO2+
169.1046	113	C8[13]CH14NO2+
