Mass spectrum: Warfarin; LC-ESI-QTOF; MS2; CE: 10 eV; R=35000; [M+H]+
Name: Warfarin
Name: 4-hydroxy-3-(3-oxo-1-phenylbutyl)chromen-2-one
Formula: C19H16O4
Exact mass: 308.1048590
SMILES: CC(=O)CC(C1=CC=CC=C1)C1=C(O)C2=CC=CC=C2OC1=O
InChI: InChI=1S/C19H16O4/c1-12(20)11-15(13-7-3-2-4-8-13)17-18(21)14-9-5-6-10-16(14)23-19(17)22/h2-10,15,21H,11H2,1H3
Instrument: Bruker maXis Impact
Instrument type: LC-ESI-QTOF
Ms type: MS2
Ion mode: POSITIVE
Ionization: ESI
Fragmentation mode: CID
Collision energy: 10 eV
Resolution: 35000
Column name: Acclaim RSLC C18 2.2um, 2.1x100mm, Thermo
Retention time: 9.351 min
Base peak: 309.1121
Precursor m/z: 309.1121
Precursor type: [M+H]+
m/z	relative intensity	assigned
147.0794	34	C10H11O+
163.038	360	C9H7O3+
164.0412	23	C8[13]CH7O3+
251.0699	103	C16H11O3+
252.0728	15	C15[13]CH11O3+
291.1002	5	C19H15O3+
309.1124	999	C19H17O4+
310.1157	167	C18[13]CH17O4+
311.1175	12	C17[13]C2H17O4+
