Mass spectrum: Celecoxib; LC-ESI-QTOF; MS2; CE: 30 eV; R=35000; [M-H]-
Name: Celecoxib
Name: 4-[5-(4-methylphenyl)-3-(trifluoromethyl)pyrazol-1-yl]benzenesulfonamide
Formula: C17H14F3N3O2S
Exact mass: 381.0758823
SMILES: CC1=CC=C(C=C1)C1=CC(=NN1C1=CC=C(C=C1)S(N)(=O)=O)C(F)(F)F
InChI: InChI=1S/C17H14F3N3O2S/c1-11-2-4-12(5-3-11)15-10-16(17(18,19)20)22-23(15)13-6-8-14(9-7-13)26(21,24)25/h2-10H,1H3,(H2,21,24,25)
Instrument: Bruker maXis Impact
Instrument type: LC-ESI-QTOF
Ms type: MS2
Ion mode: NEGATIVE
Ionization: ESI
Fragmentation mode: CID
Collision energy: 30 eV
Resolution: 35000
Column name: Acclaim RSLC C18 2.2um, 2.1x100mm, Thermo
Retention time: 10.259 min
Base peak: 380.0667
Precursor m/z: 380.0686
Precursor type: [M-H]-
m/z	relative intensity	assigned
139.0303	72	C9H3N2-
159.0377	150	C6H5F2N2O-
179.0425	233	C9H5F2N2-
221.0932	67	C9H12F3N2O-
225.0609	115	C11H9F2NO2-
246.0982	128	C16H12N3-
246.1072	65	C16H12N3-
247.1099	373	C14H13F2N2-
248.1056	63	C13[13]CH13F2N2-
249.0793	80	C16H11NO2-
256.0867	68	C17H10N3-
268.0907	102	C17H13FO2-
269.0845	65	C16H11F2N2-
269.0937	61	C13H12F3N2O-
275.0812	53	C15H10F3N2-
276.0928	514	C17H12N2O2-
277.0943	87	C16[13]CH12N2O2-
296.0968	370	C17H13FN2O2-
297.0979	83	C16[13]CH13FN2O2-
316.1045	999	C17H13F3N3-
317.1034	232	C16[13]CH13F3N3-
380.069	665	C17H13F3N3O2S-
381.0673	154	C16[13]CH13F3N3O2S-
