Mass spectrum: Clotrimazole; LC-ESI-QTOF; MS2; CE: 20 eV; R=35000; [M+H]+
Name: Clotrimazole
Name: 1-[(2-chlorophenyl)-diphenylmethyl]imidazole
Formula: C22H17ClN2
Exact mass: 344.1080262
SMILES: ClC1=CC=CC=C1C(N1C=CN=C1)(C1=CC=CC=C1)C1=CC=CC=C1
InChI: InChI=1S/C22H17ClN2/c23-21-14-8-7-13-20(21)22(25-16-15-24-17-25,18-9-3-1-4-10-18)19-11-5-2-6-12-19/h1-17H
Instrument: Bruker maXis Impact
Instrument type: LC-ESI-QTOF
Ms type: MS2
Ion mode: POSITIVE
Ionization: ESI
Fragmentation mode: CID
Collision energy: 20 eV
Resolution: 35000
Column name: Acclaim RSLC C18 2.2um, 2.1x100mm, Thermo
Retention time: 11.187 min
Base peak: 277.0782
Precursor m/z: 345.1153
Precursor type: [M+H]+
m/z	relative intensity	assigned
165.0688	41	C13H9+
166.0721	5	C12[13]CH9+
241.1007	8	C19H13+
242.1082	10	C19H14+
277.0778	999	C19H14Cl+
278.0813	169	C18[13]CH14Cl+
279.075	268	C19H14[37]Cl+
280.0776	31	C17H13ClN2+
327.0781	5	C22H14ClN+
