Mass spectrum: Aflatoxin G1; LC-ESI-QTOF; MS2; CE: 30 eV; R=35000; [M+H]+
Name: Aflatoxin G1
Name: 11-methoxy-6,8,16,20-tetraoxapentacyclo[10.8.0.02,9.03,7.013,18]icosa-1,4,9,11,13(18)-pentaene-17,19-dione
Class: Natural Product; Fungal metabolite
Formula: C17H12O7
Exact mass: 328.0583
SMILES: COC1=C2C3=C(C(=O)OCC3)C(=O)OC2=C4C5C=COC5OC4=C1
InChI: InChI=1S/C17H12O7/c1-20-9-6-10-12(8-3-5-22-17(8)23-10)14-11(9)7-2-4-21-15(18)13(7)16(19)24-14/h3,5-6,8,17H,2,4H2,1H3
Instrument: Bruker maXis Impact
Instrument type: LC-ESI-QTOF
Ms type: MS2
Ion mode: POSITIVE
Ionization: ESI
Fragmentation mode: CID
Collision energy: 30 eV
Resolution: 35000
Column name: Acclaim RSLC C18 2.2um, 2.1x100mm, Thermo
Retention time: 6.081 min
Base peak: 329.0654
Precursor m/z: 329.0656
Precursor type: [M+H]+
m/z	relative intensity	assigned
185.0596	6	C12H9O2+
197.0593	5	C13H9O2+
199.0388	5	C12H7O3+
199.0754	8	C13H11O2+
200.0464	22	C12H8O3+
205.0858	8	C12H13O3+
212.0465	5	C13H8O3+
213.0541	9	C13H9O3+
214.0623	53	C13H10O3+
215.0701	92	C13H11O3+
216.0736	11	C13H12O3+
225.0542	11	C14H9O3+
226.0618	10	C14H10O3+
227.0698	21	C14H11O3+
228.0413	5	C13H8O4+
229.0851	6	C14H13O3+
233.0808	29	C13H13O4+
239.0698	8	C15H11O3+
240.0411	9	C14H8O4+
241.0498	20	C14H9O4+
242.0568	27	C14H10O4+
243.0653	513	C14H11O4+
244.0685	66	C14H12O4+
245.0763	7	C14H13O4+
253.0489	13	C15H9O4+
254.0554	6	C15H10O4+
255.0646	52	C15H11O4+
256.0683	7	C15H12O4+
257.08	10	C15H13O4+
261.0757	9	C14H13O5+
267.0281	7	C15H7O5+
267.0646	10	C16H11O4+
268.0366	30	C15H8O5+
269.0427	11	C15H9O5+
270.0521	32	C15H10O5+
271.0573	7	C15H11O5+
282.0515	19	C16H10O5+
283.0601	240	C16H11O5+
284.0634	38	C16H12O5+
285.039	6	C15H9O6+
285.074	13	C16H13O5+
296.031	25	C16H8O6+
300.0624	32	C16H12O6+
301.0697	64	C16H13O6+
311.0551	499	C17H11O6+
312.0581	79	C17H12O6+
313.0662	16	C17H13O6+
314.0422	9	C16H10O7+
329.0655	999	C17H13O7+
