Mass spectrum: Glibenclamide; LC-ESI-QTOF; MS2; CE: 40 eV; R=35000; [M-H]-
Name: Glibenclamide
Name: Glyburide
Name: 5-chloro-N-[2-[4-(cyclohexylcarbamoylsulfamoyl)phenyl]ethyl]-2-methoxybenzamide
Formula: C23H28ClN3O5S
Exact mass: 493.1438197
SMILES: COC1=C(C=C(Cl)C=C1)C(=O)NCCC1=CC=C(C=C1)S(=O)(=O)NC(=O)NC1CCCCC1
InChI: InChI=1S/C23H28ClN3O5S/c1-32-21-12-9-17(24)15-20(21)22(28)25-14-13-16-7-10-19(11-8-16)33(30,31)27-23(29)26-18-5-3-2-4-6-18/h7-12,15,18H,2-6,13-14H2,1H3,(H,25,28)(H2,26,27,29)
Instrument: Bruker maXis Impact
Instrument type: LC-ESI-QTOF
Ms type: MS2
Ion mode: NEGATIVE
Ionization: ESI
Fragmentation mode: CID
Collision energy: 40 eV
Resolution: 35000
Column name: Acclaim RSLC C18 2.2um, 2.1x100mm, Thermo
Retention time: 9.388 min
Base peak: 492.136
Precursor m/z: 492.1365
Precursor type: [M-H]-
m/z	relative intensity	assigned
126.9978	156	C6H4ClO-
128.9915	60	C6H4[37]ClO-
151.9896	77	C2H4N2O4S-
170.0004	999	C7H5ClNO2-
170.0267	55	CH13ClNO4S-
171.0056	98	C6[13]CH5ClNO2-
171.9971	296	C7H5[37]ClNO2-
184.0413	56	C5H12O5S-
224.0499	47	C9H10N3O2S-
225.0299	38	C12H5N2O3-
378.0339	29	C22H8N3O2S-
