Mass spectrum: 2-Amino-9H-pyrido[2,3-b]indole (AalphaC); LC-ESI-QTOF; MS2; CE: 10 eV; R=35000; [M+H]+
Name: 2-Amino-9H-pyrido[2,3-b]indole (AalphaC)
Name: 2-Amino-9H-pyrido[2,3-b]indole
Name: 9H-pyrido[2,3-b]indol-2-amine
Formula: C11H9N3
Exact mass: 183.0796473
SMILES: NC1=NC2=C(C=C1)C1=CC=CC=C1N2
InChI: InChI=1S/C11H9N3/c12-10-6-5-8-7-3-1-2-4-9(7)13-11(8)14-10/h1-6H,(H3,12,13,14)
Instrument: Bruker maXis Impact
Instrument type: LC-ESI-QTOF
Ms type: MS2
Ion mode: POSITIVE
Ionization: ESI
Fragmentation mode: CID
Collision energy: 10 eV
Resolution: 35000
Column name: Acclaim RSLC C18 2.2um, 2.1x100mm, Thermo
Retention time: 7.036 min
Base peak: 184.0858
Precursor m/z: 184.0869
Precursor type: [M+H]+
m/z	relative intensity	assigned
167.0589	5	C11H7N2+
184.086	999	C11H10N3+
185.089	85	C10[13]CH10N3+
186.0915	5	C9[13]C2H10N3+
