Mass spectrum: Perfluoroheptanoic acid; LC-ESI-QTOF; MS2; CE: 10 eV; R=35000; [M-H]-
Name: Perfluoroheptanoic acid
Name: 2,2,3,3,4,4,5,5,6,6,7,7,7-tridecafluoroheptanoic acid
Formula: C7HF13O2
Exact mass: 363.9768961
SMILES: OC(=O)C(F)(F)C(F)(F)C(F)(F)C(F)(F)C(F)(F)C(F)(F)F
InChI: InChI=1S/C7HF13O2/c8-2(9,1(21)22)3(10,11)4(12,13)5(14,15)6(16,17)7(18,19)20/h(H,21,22)
Instrument: Bruker maXis Impact
Instrument type: LC-ESI-QTOF
Ms type: MS2
Ion mode: NEGATIVE
Ionization: ESI
Fragmentation mode: CID
Collision energy: 10 eV
Resolution: 35000
Column name: Acclaim RSLC C18 2.2um, 2.1x100mm, Thermo
Retention time: 8.799 min
Base peak: 318.9799
Precursor m/z: 362.9696
Precursor type: [M-H]-
m/z	relative intensity	assigned
118.9909	8	C2F5-
168.9898	200	C3F7-
169.9941	8	C2[13]CF7-
296.9734	6	C6F11O-
318.9797	999	C6F13-
319.9826	69	C5[13]CF13-
362.9683	13	C7F13O2-
