Mass spectrum: Bezafibrate; LC-ESI-QTOF; MS2; CE: 10 eV; R=35000; [M+H]+
Name: Bezafibrate
Name: 2-[4-[2-[(4-chlorobenzoyl)amino]ethyl]phenoxy]-2-methylpropanoic acid
Formula: C19H20ClNO4
Exact mass: 361.1080858
SMILES: CC(C)(OC1=CC=C(CCNC(=O)C2=CC=C(Cl)C=C2)C=C1)C(O)=O
InChI: InChI=1S/C19H20ClNO4/c1-19(2,18(23)24)25-16-9-3-13(4-10-16)11-12-21-17(22)14-5-7-15(20)8-6-14/h3-10H,11-12H2,1-2H3,(H,21,22)(H,23,24)
Instrument: Bruker maXis Impact
Instrument type: LC-ESI-QTOF
Ms type: MS2
Ion mode: POSITIVE
Ionization: ESI
Fragmentation mode: CID
Collision energy: 10 eV
Resolution: 35000
Column name: Acclaim RSLC C18 2.2um, 2.1x100mm, Thermo
Retention time: 8.968 min
Base peak: 419.2684
Precursor m/z: 362.1154
Precursor type: [M+H]+
m/z	relative intensity	assigned
138.9917	11	C5HNO4+
163.0739	17	C4H16ClO4+
207.0993	11	C12H15O3+
276.0775	157	C15H15ClNO2+
277.0812	30	C14[13]CH15ClNO2+
278.0739	67	C15H15[37]ClNO2+
316.1097	318	C18H19ClNO2+
317.111	58	C17[13]CH19ClNO2+
318.1057	107	C18H19[37]ClNO2+
319.1104	14	C18H20ClO3+
344.1053	37	C19H19ClNO3+
345.1088	10	C18[13]CH19ClNO3+
346.0982	16	C19H19[37]ClNO3+
362.1152	999	C19H21ClNO4+
363.119	218	C18[13]CH21ClNO4+
364.1109	276	C19H21[37]ClNO4+
