Mass spectrum: JWH-073; LC-ESI-QTOF; MS2; CE: 20 eV; R=35000; [M+H]+
Name: JWH-073
Name: 1-Butyl-3-(1-naphthoyl)indole
Name: (1-butylindol-3-yl)-naphthalen-1-ylmethanone
Formula: C23H21NO
Exact mass: 327.1623143
SMILES: CCCCN1C=C(C2=CC=CC=C21)C(=O)C3=CC=CC4=CC=CC=C43
InChI: InChI=1S/C23H21NO/c1-2-3-15-24-16-21(19-12-6-7-14-22(19)24)23(25)20-13-8-10-17-9-4-5-11-18(17)20/h4-14,16H,2-3,15H2,1H3
Instrument: Bruker maXis Impact
Instrument type: LC-ESI-QTOF
Ms type: MS2
Ion mode: POSITIVE
Ionization: ESI
Fragmentation mode: CID
Collision energy: 20 eV
Resolution: 35000
Column name: Acclaim RSLC C18 2.2um, 2.1x100mm, Thermo
Retention time: 12.191 min
Base peak: 328.1721
Precursor m/z: 328.1696
Precursor type: [M+H]+
m/z	relative intensity	assigned
145.0653	9	C10H9O+
155.0498	484	C11H7O+
156.0531	43	C10[13]CH7O+
200.1081	83	C13H14NO+
201.1117	11	C12[13]CH14NO+
328.1721	999	C23H22NO+
329.1755	199	C22[13]CH22NO+
330.178	20	C21[13]C2H22NO+
