Mass spectrum: Ambrettolide; LC-ESI-QTOF; MS2; CE: Ramp 19.9-29.9 eV; R=35000; [M+H]+
Name: Ambrettolide
Name: (Z)-Oxacycloheptadec-8-en-2-one
Name: (8Z)-1-oxacycloheptadec-8-en-2-one
Formula: C16H28O2
Exact mass: 252.2089301
SMILES: O=C1CCCCC\C=C/CCCCCCCCO1
InChI: InChI=1S/C16H28O2/c17-16-14-12-10-8-6-4-2-1-3-5-7-9-11-13-15-18-16/h2,4H,1,3,5-15H2/b4-2-
Instrument: Bruker maXis Impact
Instrument type: LC-ESI-QTOF
Ms type: MS2
Ion mode: POSITIVE
Ionization: ESI
Fragmentation mode: CID
Collision energy: Ramp 19.9-29.9 eV
Resolution: 35000
Column name: Acclaim RSLC C18 2.2um, 2.1x100mm, Thermo
Retention time: 11.185 min
Base peak: 102.1286
Precursor m/z: 253.2162
Precursor type: [M+H]+
m/z	relative intensity	assigned
121.1012	730	C9H13+
133.0992	873	C10H13+
137.0942	999	C9H13O+
181.1207	923	C11H17O2+
233.188	990	C16H25O+
