Mass spectrum: Lorazepam; LC-ESI-QTOF; MS2; CE: 40 eV; R=35000; [M+H]+
Name: Lorazepam
Name: 7-chloro-5-(2-chlorophenyl)-3-hydroxy-1,3-dihydro-1,4-benzodiazepin-2-one
Formula: C15H10Cl2N2O2
Exact mass: 320.0119329
SMILES: OC1N=C(C2=CC=CC=C2Cl)C2=C(NC1=O)C=CC(Cl)=C2
InChI: InChI=1S/C15H10Cl2N2O2/c16-8-5-6-12-10(7-8)13(19-15(21)14(20)18-12)9-3-1-2-4-11(9)17/h1-7,15,21H,(H,18,20)
Instrument: Bruker maXis Impact
Instrument type: LC-ESI-QTOF
Ms type: MS2
Ion mode: POSITIVE
Ionization: ESI
Fragmentation mode: CID
Collision energy: 40 eV
Resolution: 35000
Column name: Acclaim RSLC C18 2.2um, 2.1x100mm, Thermo
Retention time: 8.275 min
Base peak: 278.1904
Precursor m/z: 321.0192
Precursor type: [M+H]+
m/z	relative intensity	assigned
118.0534	7	C7H6N2+
128.0251	49	C6H7ClN+
130.0229	8	C6H7[37]ClN+
138.0097	192	C7H5ClN+
139.0127	17	C6[13]CH5ClN+
140.006	51	C7H5[37]ClN+
153.0198	33	C7H6ClN2+
155.0188	9	C7H6[37]ClN2+
156.0202	10	C10H4O2+
163.0047	164	C2H9Cl2N2O2+
164.005	26	C6H8Cl2N+
165.0013	48	C2H9Cl[37]ClN2O2+
166.0038	20	C6H8Cl[37]ClN+
167.0711	7	C12H9N+
168.002	6	C14+
177.0556	14	C13H7N+
181.0158	37	C8H6ClN2O+
183.0114	8	C8H6[37]ClN2O+
193.075	12	C13H9N2+
194.0826	189	C13H10N2+
195.0868	34	C12[13]CH10N2+
199.0288	6	C14H3N2+
205.0751	32	C14H9N2+
206.0574	8	C14H8NO+
206.0752	7	C15H10O+
213.0341	9	C13H8ClN+
214.0404	6	C13H9ClN+
221.0707	6	C14H9N2O+
229.052	999	C13H10ClN2+
230.055	143	C12[13]CH10ClN2+
231.0495	222	C13H10[37]ClN2+
232.0506	23	C13H11ClNO+
239.0361	82	C14H8ClN2+
240.0401	12	C13[13]CH8ClN2+
241.0309	41	C14H8[37]ClN2+
248.0036	8	C13H8Cl2N+
249.9981	9	C13H8Cl[37]ClN+
257.0489	17	C14H10ClN2O+
259.0409	6	C14H10[37]ClN2O+
263.0136	21	C13H9Cl2N2+
265.0099	16	C13H9Cl[37]ClN2+
265.0275	15	C13H11Cl2N2+
267.0259	10	C13H11Cl[37]ClN2+
272.998	8	C14H7Cl2N2+
275.0133	699	C14H9Cl2N2+
276.0166	126	C13[13]CH9Cl2N2+
277.0102	455	C14H9Cl[37]ClN2+
278.0127	55	C14H10Cl2NO+
291.0078	16	C14H9Cl2N2O+
293.0056	13	C14H9Cl[37]ClN2O+
303.008	23	C15H9Cl2N2O+
305.0039	11	C15H9Cl[37]ClN2O+
