Mass spectrum: Aflatoxin B2; LC-ESI-QTOF; MS2; CE: 50 eV; R=35000; [M+H]+
Name: Aflatoxin B2
Name: Dihydroaflatoxin B1
Name: 11-methoxy-6,8,19-trioxapentacyclo[10.7.0.02,9.03,7.013,17]nonadeca-1,9,11,13(17)-tetraene-16,18-dione
Class: Natural Product; Fungal metabolite
Formula: C17H14O6
Exact mass: 314.079
SMILES: COC1=C2C3=C(C(=O)CC3)C(=O)OC2=C4C5CCOC5OC4=C1
InChI: InChI=1S/C17H14O6/c1-20-10-6-11-14(8-4-5-21-17(8)22-11)15-13(10)7-2-3-9(18)12(7)16(19)23-15/h6,8,17H,2-5H2,1H3
Instrument: Bruker maXis Impact
Instrument type: LC-ESI-QTOF
Ms type: MS2
Ion mode: POSITIVE
Ionization: ESI
Fragmentation mode: CID
Collision energy: 50 eV
Resolution: 35000
Column name: Acclaim RSLC C18 2.2um, 2.1x100mm, Thermo
Retention time: 6.434 min
Base peak: 315.0863
Precursor m/z: 315.0863
Precursor type: [M+H]+
m/z	relative intensity	assigned
115.054	50	C9H7+
116.0594	9	C9H8+
117.0694	13	C9H9+
118.0409	6	C8H6O+
119.0487	5	C8H7O+
121.0287	8	C7H5O2+
127.0537	18	C10H7+
128.0615	80	C10H8+
129.069	48	C10H9+
130.0402	5	C9H6O+
131.0486	56	C9H7O+
131.0849	6	C10H11+
132.0562	45	C9H8O+
133.0635	30	C9H9O+
134.0365	6	C8H6O2+
135.0436	7	C8H7O2+
139.0531	7	C11H7+
141.0695	73	C11H9+
142.0411	20	C10H6O+
142.0765	30	C11H10+
143.0485	36	C10H7O+
143.0838	18	C11H11+
144.0556	34	C10H8O+
145.0276	9	C9H5O2+
145.0643	83	C10H9O+
146.0357	18	C9H6O2+
146.0699	13	C10H10O+
147.0435	32	C9H7O2+
147.0803	22	C10H11O+
148.0513	13	C9H8O2+
149.0588	27	C9H9O2+
151.0396	7	C8H7O3+
151.0523	6	C12H7+
152.0615	56	C12H8+
153.0692	75	C12H9+
154.076	30	C12H10+
155.0483	38	C11H7O+
155.0848	20	C12H11+
156.0558	13	C11H8O+
157.0284	7	C10H5O2+
157.0644	54	C11H9O+
157.1003	6	C12H13+
158.0361	5	C10H6O2+
158.0707	14	C11H10O+
159.0434	33	C10H7O2+
159.0798	39	C11H11O+
160.0512	136	C10H8O2+
160.0853	6	C11H12O+
161.0587	104	C10H9O2+
162.0642	13	C10H10O2+
163.039	19	C9H7O3+
163.0752	8	C10H11O2+
164.0449	6	C9H8O3+
165.0539	6	C9H9O3+
165.0692	22	C13H9+
166.075	6	C13H10+
167.0846	7	C13H11+
168.0559	11	C12H8O+
169.0642	70	C12H9O+
170.0357	28	C11H6O2+
170.0718	67	C12H10O+
171.0435	61	C11H7O2+
171.0794	41	C12H11O+
172.0509	33	C11H8O2+
172.0853	9	C12H12O+
173.0229	14	C10H5O3+
173.0593	88	C11H9O2+
173.0951	5	C12H13O+
174.0304	14	C10H6O3+
174.066	34	C11H10O2+
175.0389	41	C10H7O3+
175.0745	80	C11H11O2+
176.0447	13	C10H8O3+
177.0547	25	C10H9O3+
178.0588	5	C10H10O3+
179.0686	5	C10H11O3+
180.0567	5	C13H8O+
181.064	58	C13H9O+
182.0713	26	C13H10O+
183.0434	18	C12H7O2+
183.0796	19	C13H11O+
184.0507	28	C12H8O2+
185.0593	98	C12H9O2+
185.0949	22	C13H13O+
186.0317	9	C11H6O3+
186.0646	22	C12H10O2+
187.0385	89	C11H7O3+
187.0748	98	C12H11O2+
188.0465	293	C11H8O3+
188.0816	45	C12H12O2+
189.0536	186	C11H9O3+
190.0605	45	C11H10O3+
191.0335	9	C10H7O4+
191.0683	14	C11H11O3+
193.0481	5	C10H9O4+
193.0856	25	C11H13O3+
195.0801	6	C14H11O+
197.0594	87	C13H9O2+
198.0297	31	C12H6O3+
198.0667	111	C13H10O2+
199.0386	63	C12H7O3+
199.0739	84	C13H11O2+
200.0459	69	C12H8O3+
200.0811	21	C13H12O2+
201.0172	10	C11H5O4+
201.0542	148	C12H9O3+
201.0893	11	C13H13O2+
202.0262	17	C11H6O4+
202.0598	34	C12H10O3+
203.0335	57	C11H7O4+
203.07	396	C12H11O3+
204.0396	17	C11H8O4+
205.051	14	C11H9O4+
207.065	5	C11H11O4+
209.0591	28	C14H9O2+
210.0656	24	C14H10O2+
211.0391	20	C13H7O3+
211.075	11	C14H11O2+
212.0461	32	C13H8O3+
212.0807	7	C14H12O2+
213.0543	105	C13H9O3+
213.0902	47	C14H13O2+
214.0612	44	C13H10O3+
214.0956	5	C14H14O2+
215.0336	160	C12H7O4+
215.0698	127	C13H11O3+
216.0409	239	C12H8O4+
216.0776	135	C13H12O3+
217.0489	253	C12H9O4+
217.0831	40	C13H13O3+
218.053	39	C12H10O4+
219.0651	12	C12H11O4+
224.0477	6	C14H8O3+
225.0539	67	C14H9O3+
226.0258	18	C13H6O4+
226.0623	304	C14H10O3+
227.0336	95	C13H7O4+
227.0688	158	C14H11O3+
228.0402	41	C13H8O4+
228.0742	35	C14H12O3+
229.0493	184	C13H9O4+
230.054	39	C13H10O4+
231.0285	8	C12H7O5+
231.0647	168	C13H11O4+
231.1009	21	C14H15O3+
232.0359	9	C12H8O5+
232.0689	22	C13H12O4+
236.0453	5	C15H8O3+
237.0544	20	C15H9O3+
238.0598	11	C15H10O3+
239.0335	32	C14H7O4+
239.0693	6	C15H11O3+
240.039	11	C14H8O4+
241.049	115	C14H9O4+
241.0858	57	C15H13O3+
242.0548	33	C14H10O4+
242.0904	12	C15H14O3+
243.0649	999	C14H11O4+
244.0361	90	C13H8O5+
244.0696	176	C14H12O4+
245.0436	231	C13H9O5+
246.0474	40	C13H10O5+
247.0588	15	C13H11O5+
248.0302	20	C12H8O6+
249.0365	5	C12H9O6+
252.0418	5	C15H8O4+
253.0489	179	C15H9O4+
254.0199	12	C14H6O5+
254.0557	122	C15H10O4+
255.0276	8	C14H7O5+
255.064	89	C15H11O4+
256.0361	79	C14H8O5+
256.0679	14	C15H12O4+
257.0438	242	C14H9O5+
258.0474	40	C14H10O5+
259.0596	759	C14H11O5+
260.0633	100	C14H12O5+
264.0428	5	C16H8O4+
265.0503	11	C16H9O4+
269.0439	17	C15H9O5+
269.0796	31	C16H13O4+
270.051	31	C15H10O5+
270.0828	9	C16H14O4+
271.0597	452	C15H11O5+
272.066	155	C15H12O5+
273.039	15	C14H9O6+
273.0719	28	C15H13O5+
282.052	26	C16H10O5+
283.0579	17	C16H11O5+
284.0659	6	C16H12O5+
285.0383	18	C15H9O6+
285.0745	48	C16H13O5+
286.0795	13	C16H14O5+
287.0909	216	C16H15O5+
297.0744	15	C17H13O5+
298.0798	6	C17H14O5+
300.0628	7	C16H12O6+
315.086	43	C17H15O6+
