Mass spectrum: Ondansetron; LC-ESI-QTOF; MS2; CE: 40 eV; R=35000; [M+H]+
Name: Ondansetron
Name: 9-methyl-3-[(2-methylimidazol-1-yl)methyl]-2,3-dihydro-1H-carbazol-4-one
Formula: C18H19N3O
Exact mass: 293.1528122
SMILES: CN1C2=C(C3=CC=CC=C13)C(=O)C(CN1C=CN=C1C)CC2
InChI: InChI=1S/C18H19N3O/c1-12-19-9-10-21(12)11-13-7-8-16-17(18(13)22)14-5-3-4-6-15(14)20(16)2/h3-6,9-10,13H,7-8,11H2,1-2H3
Instrument: Bruker maXis Impact
Instrument type: LC-ESI-QTOF
Ms type: MS2
Ion mode: POSITIVE
Ionization: ESI
Fragmentation mode: CID
Collision energy: 40 eV
Resolution: 35000
Column name: Acclaim RSLC C18 2.2um, 2.1x100mm, Thermo
Retention time: 4.915 min
Base peak: 294.1601
Precursor m/z: 294.1601
Precursor type: [M+H]+
m/z	relative intensity	assigned
115.0536	5	C9H7+
128.0487	5	C9H6N+
128.0611	14	C10H8+
129.0686	9	C10H9+
142.0637	12	C10H8N+
143.0718	66	C10H9N+
144.0783	12	C10H10N+
154.064	20	C11H8N+
155.0715	22	C11H9N+
156.0787	7	C11H10N+
167.0719	68	C12H9N+
168.0795	88	C12H10N+
169.0874	140	C12H11N+
170.0954	999	C12H12N+
171.0668	72	C11H9NO+
171.0988	112	C11[13]CH12N+
172.07	9	C10[13]CH9NO+
182.0954	103	C13H12N+
183.1003	20	C12[13]CH12N+
184.1112	579	C13H14N+
185.1145	81	C12[13]CH14N+
212.1061	13	C14H14NO+
