Mass spectrum: Nitrendipin; LC-ESI-QTOF; MS2; CE: 10 eV; R=35000; [M-H]-
Name: Nitrendipin
Name: Nitrendipine
Name: 5-O-ethyl 3-O-methyl 2,6-dimethyl-4-(3-nitrophenyl)-1,4-dihydropyridine-3,5-dicarboxylate
Formula: C18H20N2O6
Exact mass: 360.1321364
SMILES: CCOC(=O)C1=C(C)NC(C)=C(C1C1=CC=CC(=C1)[N+]([O-])=O)C(=O)OC
InChI: InChI=1S/C18H20N2O6/c1-5-26-18(22)15-11(3)19-10(2)14(17(21)25-4)16(15)12-7-6-8-13(9-12)20(23)24/h6-9,16,19H,5H2,1-4H3
Instrument: Bruker maXis Impact
Instrument type: LC-ESI-QTOF
Ms type: MS2
Ion mode: NEGATIVE
Ionization: ESI
Fragmentation mode: CID
Collision energy: 10 eV
Resolution: 35000
Column name: Acclaim RSLC C18 2.2um, 2.1x100mm, Thermo
Retention time: 9.783 min
Base peak: 359.125
Precursor m/z: 359.1249
Precursor type: [M-H]-
m/z	relative intensity	assigned
122.0244	36	C6H4NO2-
208.0606	5	C10H10NO4-
208.098	5	C11H14NO3-
224.0704	20	C14H10NO2-
236.0922	137	C12H14NO4-
237.0953	14	C11[13]CH14NO4-
251.0577	5	C15H9NO3-
268.0621	24	C15H10NO4-
295.0709	11	C16H11N2O4-
298.0586	7	C15H10N2O5-
309.0867	10	C17H13N2O4-
312.075	10	C16H12N2O5-
313.0826	44	C16H13N2O5-
314.0899	6	C15[13]CH13N2O5-
327.0986	47	C17H15N2O5-
328.1012	9	C16[13]CH15N2O5-
359.1249	999	C18H19N2O6-
360.1281	198	C17[13]CH19N2O6-
361.1288	28	C16[13]C2H19N2O6-
