Mass spectrum: Parathion-methyl; LC-ESI-QTOF; MS2; CE: 50 eV; R=35000; [M+H]+
Name: Parathion-methyl
Name: Methyl parathion
Name: dimethoxy-(4-nitrophenoxy)-sulfanylidene-lambda5-phosphane
Formula: C8H10NO5PS
Exact mass: 263.0017300
SMILES: COP(=S)(OC)OC1=CC=C(C=C1)[N+]([O-])=O
InChI: InChI=1S/C8H10NO5PS/c1-12-15(16,13-2)14-8-5-3-7(4-6-8)9(10)11/h3-6H,1-2H3
Instrument: Bruker maXis Impact
Instrument type: LC-ESI-QTOF
Ms type: MS2
Ion mode: POSITIVE
Ionization: ESI
Fragmentation mode: CID
Collision energy: 50 eV
Resolution: 35000
Column name: Acclaim RSLC C18 2.2um, 2.1x100mm, Thermo
Retention time: 9.271 min
Base peak: 228.1273
Precursor m/z: 264.009
Precursor type: [M+H]+
m/z	relative intensity	assigned
124.9816	410	C2H6O2PS+
153.9605	520	C5NO3S+
154.9691	999	C5HNO3S+
185.9534	292	C6H3O3PS+
