Mass spectrum: Diuron-desdimethyl; LC-ESI-QTOF; MS2; CE: 10 eV; R=35000; [M+H]+
Name: Diuron-desdimethyl
Name: 1-(3,4-Dichlorophenyl)urea
Name: (3,4-dichlorophenyl)urea
Formula: C7H6Cl2N2O
Exact mass: 203.9857182
SMILES: NC(=O)NC1=CC(Cl)=C(Cl)C=C1
InChI: InChI=1S/C7H6Cl2N2O/c8-5-2-1-4(3-6(5)9)11-7(10)12/h1-3H,(H3,10,11,12)
Instrument: Bruker maXis Impact
Instrument type: LC-ESI-QTOF
Ms type: MS2
Ion mode: POSITIVE
Ionization: ESI
Fragmentation mode: CID
Collision energy: 10 eV
Resolution: 35000
Column name: Acclaim RSLC C18 2.2um, 2.1x100mm, Thermo
Retention time: 7.9 min
Base peak: 150.1115
Precursor m/z: 204.993
Precursor type: [M+H]+
m/z	relative intensity	assigned
127.0171	39	C6H6ClN+
144.9911	6	C2H7Cl2N2O+
159.971	6	C6H4Cl2N+
161.986	135	C6H6Cl2N+
162.9887	11	C5[13]CH6Cl2N+
163.9829	83	C6H6[37]Cl[35]ClN+
187.9654	20	C7H4Cl2NO+
189.9619	20	C7H4[37]Cl[35]ClNO+
204.9926	999	C7H7Cl2N2O+
205.9951	91	C6[13]CH7Cl2N2O+
206.9893	595	C7H7[37]Cl[35]ClN2O+
207.9926	26	C6[13]CH7[37]Cl[35]ClN2O+
