Mass spectrum: Valsartan; LC-ESI-QTOF; MS2; CE: 20 eV; R=35000; [M+H]+
Name: Valsartan
Name: (2S)-3-methyl-2-[pentanoyl-[[4-[2-(2H-tetrazol-5-yl)phenyl]phenyl]methyl]amino]butanoic acid
Formula: C24H29N5O3
Exact mass: 435.2270398
SMILES: CCCCC(=O)N(CC1=CC=C(C=C1)C1=CC=CC=C1C1=NNN=N1)[C@@H](C(C)C)C(O)=O
InChI: InChI=1S/C24H29N5O3/c1-4-5-10-21(30)29(22(16(2)3)24(31)32)15-17-11-13-18(14-12-17)19-8-6-7-9-20(19)23-25-27-28-26-23/h6-9,11-14,16,22H,4-5,10,15H2,1-3H3,(H,31,32)(H,25,26,27,28)/t22-/m0/s1
Instrument: Bruker maXis Impact
Instrument type: LC-ESI-QTOF
Ms type: MS2
Ion mode: POSITIVE
Ionization: ESI
Fragmentation mode: CID
Collision energy: 20 eV
Resolution: 35000
Column name: Acclaim RSLC C18 2.2um, 2.1x100mm, Thermo
Retention time: 8.9 min
Base peak: 150.1112
Precursor m/z: 436.2343
Precursor type: [M+H]+
m/z	relative intensity	assigned
178.0777	9	C14H10+
180.0804	39	C13H10N+
190.0634	23	C11H10O3+
191.0701	8	C11H11O3+
194.0954	11	C14H12N+
206.0835	12	C14H10N2+
207.0904	421	C14H11N2+
208.0928	62	C13[13]CH11N2+
210.0897	15	C12H10N4+
235.0966	999	C14H11N4+
236.0991	165	C13[13]CH11N4+
237.1057	13	C15H13N2O+
291.1492	909	C19H19N2O+
292.1522	215	C14H20N4O3+
293.1584	30	C13[13]CH20N4O3+
306.1703	451	C18H20N5+
307.1723	89	C17[13]CH20N5+
352.1762	241	C19H22N5O2+
353.1795	65	C18[13]CH22N5O2+
354.1789	9	C20H24N3O3+
362.2224	162	C23H28N3O+
363.2247	44	C22[13]CH28N3O+
390.2285	9	C23H28N5O+
408.2276	24	C24H30N3O3+
409.2325	10	C23H29N4O3+
418.2229	73	C24H28N5O2+
419.2279	21	C24H29N5O2+
