Mass spectrum: Trimethylolpropane trimethacrylate; GC-APCI-QTOF; MS2; CE: 40 eV; R=35000; [M+H]+
Name: Trimethylolpropane trimethacrylate
Formula: C18H26O6
Exact mass: 338.1729
SMILES: CCC(COC(=O)C(=C)C)(COC(=O)C(=C)C)COC(=O)C(=C)C
InChI: InChI=1S/C18H26O6/c1-8-18(9-22-15(19)12(2)3,10-23-16(20)13(4)5)11-24-17(21)14(6)7/h2,4,6,8-11H2,1,3,5,7H3
Instrument: Bruker 450 GC coupled to maXis Impact
Instrument type: GC-APCI-QTOF
Ms type: MS2
Ion mode: POSITIVE
Ionization: APCI
Fragmentation mode: CID
Collision energy: 40 eV
Resolution: 35000
Column name: Rxi-5Sil MS column, 30m, 0.25mm i.d., 0.25Âµm film thickness, Restek
Retention time: 23.650 min
Base peak: 283.2635
Precursor m/z: 339.1802
Precursor type: [M+H]+
m/z	relative intensity	assigned
55.0542	999	C4H7+
119.0831	681	C9H11+
129.0535	817	C6H9O3+
129.0687	590	C10H9+
133.1013	635	C10H13+
