Mass spectrum: N,O-Didesvenlafaxine; LC-ESI-QTOF; MS2; CE: 10 eV; R=35000; [M+H]+
Name: N,O-Didesvenlafaxine
Name: 4-[1-(1-hydroxycyclohexyl)-2-(methylamino)ethyl]phenol
Formula: C15H23NO2
Exact mass: 249.1728790
SMILES: CNCC(C1=CC=C(O)C=C1)C1(O)CCCCC1
InChI: InChI=1S/C15H23NO2/c1-16-11-14(12-5-7-13(17)8-6-12)15(18)9-3-2-4-10-15/h5-8,14,16-18H,2-4,9-11H2,1H3
Instrument: Bruker maXis Impact
Instrument type: LC-ESI-QTOF
Ms type: MS2
Ion mode: POSITIVE
Ionization: ESI
Fragmentation mode: CID
Collision energy: 10 eV
Resolution: 35000
Column name: Acclaim RSLC C18 2.2um, 2.1x100mm, Thermo
Retention time: 4.8 min
Base peak: 250.18
Precursor m/z: 250.1802
Precursor type: [M+H]+
m/z	relative intensity	assigned
201.1264	33	C14H17O+
202.1309	5	C13[13]CH17O+
232.1693	511	C15H22NO+
233.1722	60	C14[13]CH22NO+
234.1774	5	C13[13]C2H22NO+
250.1801	999	C15H24NO2+
251.1824	123	C14[13]CH24NO2+
252.1859	11	C13[13]C2H24NO2+
