Mass spectrum: 7-(Ethylamino)-4-methylcoumarin; LC-ESI-QTOF; MS2; CE: 20 eV; R=35000; [M+H]+
Name: 7-(Ethylamino)-4-methylcoumarin
Name: 2H-1-Benzopyran-2-one, 7-(ethylamino)-4-methyl-
Name: 7-(ethylamino)-4-methylchromen-2-one
Formula: C12H13NO2
Exact mass: 203.0946287
SMILES: CCNC1=CC=C2C(C)=CC(=O)OC2=C1
InChI: InChI=1S/C12H13NO2/c1-3-13-9-4-5-10-8(2)6-12(14)15-11(10)7-9/h4-7,13H,3H2,1-2H3
Instrument: Bruker maXis Impact
Instrument type: LC-ESI-QTOF
Ms type: MS2
Ion mode: POSITIVE
Ionization: ESI
Fragmentation mode: CID
Collision energy: 20 eV
Resolution: 35000
Column name: Acclaim RSLC C18 2.2um, 2.1x100mm, Thermo
Retention time: 7.692 min
Base peak: 204.1016
Precursor m/z: 204.1019
Precursor type: [M+H]+
m/z	relative intensity	assigned
118.0642	5	C8H8N+
130.0644	18	C9H8N+
131.0718	11	C9H9N+
132.0802	10	C9H10N+
144.0802	11	C10H10N+
145.0872	6	C10H11N+
146.0588	7	C9H8NO+
147.067	6	C9H9NO+
148.1113	62	C10H14N+
149.1144	6	C9[13]CH14N+
158.0961	5	C11H12N+
160.1114	29	C11H14N+
161.0829	9	C10H11NO+
175.0621	5	C10H9NO2+
176.1061	26	C11H14NO+
189.0782	5	C11H11NO2+
204.1017	999	C12H14NO2+
205.1049	97	C11[13]CH14NO2+
206.1072	7	C10[13]C2H14NO2+
