Mass spectrum: Hydroxychloroquine; LC-ESI-QTOF; MS2; CE: 30 eV; R=35000; [M+H]+
Name: Hydroxychloroquine
Name: 2-[4-[(7-chloroquinolin-4-yl)amino]pentyl-ethylamino]ethanol
Formula: C18H26ClN3O
Exact mass: 335.1764401
SMILES: CCN(CCO)CCCC(C)NC1=C2C=CC(Cl)=CC2=NC=C1
InChI: InChI=1S/C18H26ClN3O/c1-3-22(11-12-23)10-4-5-14(2)21-17-8-9-20-18-13-15(19)6-7-16(17)18/h6-9,13-14,23H,3-5,10-12H2,1-2H3,(H,20,21)
Instrument: Bruker maXis Impact
Instrument type: LC-ESI-QTOF
Ms type: MS2
Ion mode: POSITIVE
Ionization: ESI
Fragmentation mode: CID
Collision energy: 30 eV
Resolution: 35000
Column name: Acclaim RSLC C18 2.2um, 2.1x100mm, Thermo
Retention time: 3.769 min
Base peak: 336.1832
Precursor m/z: 336.1837
Precursor type: [M+H]+
m/z	relative intensity	assigned
156.0675	5	C10H8N2+
158.1528	262	C9H20NO+
159.1558	29	C8[13]CH20NO+
164.0247	20	C9H7ClN+
166.0217	7	C9H7[37]ClN+
179.0356	100	C9H8ClN2+
180.0381	9	C8[13]CH8ClN2+
181.0331	25	C9H8[37]ClN2+
191.0358	59	C10H8ClN2+
192.0405	9	C9[13]CH8ClN2+
193.0328	18	C10H8[37]ClN2+
205.0519	10	C14H7NO+
247.0989	999	C14H16ClN2+
248.1018	149	C13[13]CH16ClN2+
249.096	270	C14H16[37]ClN2+
250.0991	24	C14H17ClNO+
336.1821	49	C18H27ClN3O+
337.1857	10	C17[13]CH27ClN3O+
338.1797	15	C18H27[37]ClN3O+
