Mass spectrum: Diuron; LC-ESI-QTOF; MS2; CE: 10 eV; R=35000; [M+H]+
Name: Diuron
Name: 3-(3,4-dichlorophenyl)-1,1-dimethylurea
Formula: C9H10Cl2N2O
Exact mass: 232.0170183
SMILES: CN(C)C(=O)NC1=CC=C(Cl)C(Cl)=C1
InChI: InChI=1S/C9H10Cl2N2O/c1-13(2)9(14)12-6-3-4-7(10)8(11)5-6/h3-5H,1-2H3,(H,12,14)
Instrument: Bruker maXis Impact
Instrument type: LC-ESI-QTOF
Ms type: MS2
Ion mode: POSITIVE
Ionization: ESI
Fragmentation mode: CID
Collision energy: 10 eV
Resolution: 35000
Column name: Acclaim RSLC C18 2.2um, 2.1x100mm, Thermo
Retention time: 8.599 min
Base peak: 233.0235
Precursor m/z: 233.0243
Precursor type: [M+H]+
m/z	relative intensity	assigned
233.0237	999	C9H11Cl2N2O+
234.0264	70	C8[13]CH11Cl2N2O+
235.0208	543	C9H11Cl[37]ClN2O+
