Mass spectrum: 1-Chlorobenzotriazole; LC-ESI-QTOF; MS2; CE: 10 eV; R=35000; [M-H]-
Name: 1-Chlorobenzotriazole
Formula: C6H4ClN3
Exact mass: 153.0093748
SMILES: C1=CC=C2C(=C1)N=NN2Cl
InChI: InChI=1S/C6H4ClN3/c7-10-6-4-2-1-3-5(6)8-9-10/h1-4H
Instrument: Bruker maXis Impact
Instrument type: LC-ESI-QTOF
Ms type: MS2
Ion mode: NEGATIVE
Ionization: ESI
Fragmentation mode: CID
Collision energy: 10 eV
Resolution: 35000
Column name: Acclaim RSLC C18 2.2um, 2.1x100mm, Thermo
Retention time: 6.310 min
Base peak: 151.9998
Precursor m/z: 152.0021
Precursor type: [M-H]-
m/z	relative intensity	assigned
152	999	C6H3ClN3-
153.0037	69	C5[13]CH3ClN3-
153.9968	213	C6H3[37]ClN3-
