Mass spectrum: Cocaine; LC-ESI-QTOF; MS2; CE: 30 eV; R=35000; [M+H]+
Name: Cocaine
Name: methyl (1S,3S,4R,5R)-3-benzoyloxy-8-methyl-8-azabicyclo[3.2.1]octane-4-carboxylate
Formula: C17H21NO4
Exact mass: 303.1470582
SMILES: CN1[C@H]2CC[C@@H]1[C@H]([C@H](C2)OC(=O)c3ccccc3)C(=O)OC
InChI: InChI=1S/C17H21NO4/c1-18-12-8-9-13(18)15(17(20)21-2)14(10-12)22-16(19)11-6-4-3-5-7-11/h3-7,12-15H,8-10H2,1-2H3/t12-,13+,14-,15+/m0/s1
Instrument: Bruker maXis Impact
Instrument type: LC-ESI-QTOF
Ms type: MS2
Ion mode: POSITIVE
Ionization: ESI
Fragmentation mode: CID
Collision energy: 30 eV
Resolution: 35000
Column name: Acclaim RSLC C18 2.2um, 2.1x100mm, Thermo
Retention time: 5.0 min
Base peak: 304.1546
Precursor m/z: 304.1543
Precursor type: [M+H]+
m/z	relative intensity	assigned
119.0483	25	
122.0958	24	C8H12N+
150.0904	118	C9H12NO+
154.0851	15	C8H12NO2+
182.1171	999	C10H16NO2+
183.1203	106	C9[13]CH16NO2+
304.154	52	C17H22NO4+
