Mass spectrum: Climbazol; LC-ESI-QTOF; MS2; CE: 10 eV; R=35000; [M-H]-
Name: Climbazol
Name: Climbazole
Name: 1-(4-chlorophenoxy)-1-imidazol-1-yl-3,3-dimethylbutan-2-one
Formula: C15H17ClN2O2
Exact mass: 292.0978555
SMILES: CC(C)(C)C(=O)C(OC1=CC=C(Cl)C=C1)N1C=CN=C1
InChI: InChI=1S/C15H17ClN2O2/c1-15(2,3)13(19)14(18-9-8-17-10-18)20-12-6-4-11(16)5-7-12/h4-10,14H,1-3H3
Instrument: Bruker maXis Impact
Instrument type: LC-ESI-QTOF
Ms type: MS2
Ion mode: NEGATIVE
Ionization: ESI
Fragmentation mode: CID
Collision energy: 10 eV
Resolution: 35000
Column name: Acclaim RSLC C18 2.2um, 2.1x100mm, Thermo
Retention time: 10.097 min
Base peak: 291.0901
Precursor m/z: 291.0906
Precursor type: [M-H]-
m/z	relative intensity	assigned
141.9816	389	C6H3ClO2-
151.087	999	C8H11N2O-
221.013	609	C10H6ClN2O2-
223.0089	371	C10H6[37]ClN2O2-
233.0126	536	C11H6ClN2O2-
234.0193	641	C11H7ClN2O2-
249.0044	430	C15H4ClNO-
291.0909	458	C15H16ClN2O2-
