Mass spectrum: Oxolinic acid; LC-ESI-QTOF; MS2; CE: 50 eV; R=35000; [M+H]+
Name: Oxolinic acid
Name: 5-ethyl-8-oxo-[1,3]dioxolo[4,5-g]quinoline-7-carboxylic acid
Formula: C13H11NO5
Exact mass: 261.0637225
SMILES: CCn1cc(c(=O)c2c1cc3c(c2)OCO3)C(=O)O
InChI: InChI=1S/C13H11NO5/c1-2-14-5-8(13(16)17)12(15)7-3-10-11(4-9(7)14)19-6-18-10/h3-5H,2,6H2,1H3,(H,16,17)
Instrument: Bruker maXis Impact
Instrument type: LC-ESI-QTOF
Ms type: MS2
Ion mode: POSITIVE
Ionization: ESI
Fragmentation mode: CID
Collision energy: 50 eV
Resolution: 35000
Column name: Acclaim RSLC C18 2.2um, 2.1x100mm, Thermo
Retention time: 5.9 min
Base peak: 262.0706
Precursor m/z: 262.071
Precursor type: [M+H]+
m/z	relative intensity	assigned
118.0644	48	C8H8N+
121.0283	49	C7H5O2+
130.0284	65	C8H4NO+
130.065	297	C9H8N+
132.0449	38	C8H6NO+
133.0281	159	C8H5O2+
142.0663	32	C10H8N+
146.0593	44	C9H8NO+
148.0384	172	C8H6NO2+
158.0237	169	C9H4NO2+
158.0595	123	C10H8NO+
159.0304	44	C9H5NO2+
159.0649	38	C7H11O4+
160.039	999	C9H6NO2+
161.0427	83	C8[13]CH6NO2+
172.0387	366	C10H6NO2+
173.0459	225	C10H7NO2+
176.0342	39	C9H6NO3+
176.0698	31	C10H10NO2+
186.0181	177	C10H4NO3+
187.0257	103	C10H5NO3+
187.0606	60	C8H11O5+
188.0332	158	C10H6NO3+
214.0142	254	C11H4NO4+
215.0205	136	C11H5NO4+
216.0285	128	C11H6NO4+
216.0667	30	C12H10NO3+
229.037	35	C12H7NO4+
233.0313	93	C11H7NO5+
234.0401	167	C11H8NO5+
244.0604	47	C13H10NO4+
262.0707	60	C13H12NO5+
