Mass spectrum: Fipronil sulfone; LC-ESI-QTOF; MS2; CE: Ramp 30.0-45.1 eV; R=35000; [M-H]-
Name: Fipronil sulfone
Name: 5-amino-1-[2,6-dichloro-4-(trifluoromethyl)phenyl]-4-(trifluoromethylsulfonyl)pyrazole-3-carbonitrile
Formula: C12H4Cl2F6N4O2S
Exact mass: 451.9336210
SMILES: NC1=C(C(=NN1C1=C(Cl)C=C(C=C1Cl)C(F)(F)F)C#N)S(=O)(=O)C(F)(F)F
InChI: InChI=1S/C12H4Cl2F6N4O2S/c13-5-1-4(11(15,16)17)2-6(14)8(5)24-10(22)9(7(3-21)23-24)27(25,26)12(18,19)20/h1-2H,22H2
Instrument: Bruker maXis Impact
Instrument type: LC-ESI-QTOF
Ms type: MS2
Ion mode: NEGATIVE
Ionization: ESI
Fragmentation mode: CID
Collision energy: Ramp 30.0-45.1 eV
Resolution: 35000
Column name: Acclaim RSLC C18 2.2um, 2.1x100mm, Thermo
Retention time: 10.876 min
Base peak: 450.9267
Precursor m/z: 450.9263
Precursor type: [M-H]-
m/z	relative intensity	assigned
65.998	6	C3NO-
68.9945	56	CF3-
82.9599	130	ClH2NS-
88.0053	21	C5N2-
90.0076	6	C4N3-
132.9579	49	Cl2H3N2O2-
170.0104	187	C4H2F4N2O-
171.0134	9	C3[13]CH2F4N2O-
182.0099	33	C8HF3N2-
183.0183	259	C5H3F4N2O-
184.021	17	C4[13]CH3F4N2O-
198.0045	7	C8HF3N2O-
201.9977	6	C5F6N2-
207.0121	8	C8HF2N4O-
211.0042	5	C5F5N4-
216.9883	10	C7H3F2N2O2S-
217.9866	87	C8H2ClF3N2-
218.0095	224	C11HF3N2-
218.9878	8	C7[13]CH2ClF3N2-
219.0114	23	C10[13]CHF3N2-
219.9833	15	C8H2[37]ClF3N2-
226.0084	7	C11F2N4-
227.017	19	C11HF2N4-
233.9815	216	C5H3ClF4N2O2-
234.9848	12	C4[13]CH3ClF4N2O2-
235.0228	5	C10H2F3N4-
235.9796	36	C5H3[37]ClF4N2O2-
241.98	7	C3HClF6N4-
243.9892	729	C9H2ClF3N3-
244.9923	61	C8[13]CH2ClF3N3-
245.9868	130	C9H2[37]ClF3N3-
246.0158	293	C8H2F4N4O-
246.9902	8	C7H2F3N4OS-
247.0195	29	C7[13]CH2F4N4O-
251.0184	18	C10H2F3N4O-
253.9857	11	C11H2ClF3N2-
257.9911	15	C12F6-
259.9841	25	C9H2ClF3N3O-
261.9861	138	C8H3ClF6N-
262.9897	13	C7[13]CH3ClF6N-
263.9833	20	C8H3[37]ClF6N-
271.9839	18	C10H3ClF6-
273.9781	5	C10H3[37]ClF6-
281.9925	999	C11H2ClF3N4-
282.9953	108	C10[13]CH2ClF3N4-
283.9889	173	C11H2[37]ClF3N4-
284.9874	10	C7H2F5N4OS-
297.9873	142	C8H3ClF4N4O2-
298.9923	13	C7[13]CH3ClF4N4O2-
299.985	21	C8H3[37]ClF4N4O2-
300.9925	13	C8H3ClF5N4O-
313.9827	20	C9H2F6N3OS-
345.9537	13	C11H3ClF6NOS-
414.95	300	C12H2ClF6N4O2S-
415.9523	42	C11[13]CH2ClF6N4O2S-
416.9464	61	C12H2[37]ClF6N4O2S-
