Mass spectrum: Tris(2-ethylhexl)phosphate; LC-ESI-QTOF; MS2; CE: 50 eV; R=35000; [M+H]+
Name: Tris(2-ethylhexl)phosphate
Name: tris(2-ethylhexyl) phosphate
Formula: C24H51O4P
Exact mass: 434.3524967
SMILES: CCCCC(CC)COP(=O)(OCC(CC)CCCC)OCC(CC)CCCC
InChI: InChI=1S/C24H51O4P/c1-7-13-16-22(10-4)19-26-29(25,27-20-23(11-5)17-14-8-2)28-21-24(12-6)18-15-9-3/h22-24H,7-21H2,1-6H3
Instrument: Bruker maXis Impact
Instrument type: LC-ESI-QTOF
Ms type: MS2
Ion mode: POSITIVE
Ionization: ESI
Fragmentation mode: CID
Collision energy: 50 eV
Resolution: 35000
Column name: Acclaim RSLC C18 2.2um, 2.1x100mm, Thermo
Retention time: 15.472 min
Base peak: 435.3587
Precursor m/z: 435.3598
Precursor type: [M+H]+
m/z	relative intensity	assigned
121.0288	55	C7H5O2+
149.0225	999	C8H5O3+
150.0265	84	C7[13]CH5O3+
181.0688	34	C13H9O+
207.0691	28	C11H11O4+
224.0629	45	C18H8+
225.0784	48	C15H14P+
237.0781	283	C16H14P+
238.079	68	C19H10+
239.0757	46	C15H11O3+
