Mass spectrum: Imazalil; LC-ESI-QTOF; MS2; CE: 50 eV; R=35000; [M+H]+
Name: Imazalil
Name: Enilconazole
Name: 1-[2-(2,4-dichlorophenyl)-2-prop-2-enoxyethyl]imidazole
Formula: C14H14Cl2N2O
Exact mass: 296.0483184
SMILES: ClC1=CC=C(C(CN2C=CN=C2)OCC=C)C(Cl)=C1
InChI: InChI=1S/C14H14Cl2N2O/c1-2-7-19-14(9-18-6-5-17-10-18)12-4-3-11(15)8-13(12)16/h2-6,8,10,14H,1,7,9H2
Instrument: Bruker maXis Impact
Instrument type: LC-ESI-QTOF
Ms type: MS2
Ion mode: POSITIVE
Ionization: ESI
Fragmentation mode: CID
Collision energy: 50 eV
Resolution: 35000
Column name: Acclaim RSLC C18 2.2um, 2.1x100mm, Thermo
Retention time: 8.637 min
Base peak: 297.0561
Precursor m/z: 297.0556
Precursor type: [M+H]+
m/z	relative intensity	assigned
115.054	29	C9H7+
122.9988	123	C7H4Cl+
124.0062	43	C7H5Cl+
124.9955	29	C7H4[37]Cl+
125.013	11	C8HN2+
126.0038	11	C7H5[37]Cl+
128.0609	21	C10H8+
129.0686	48	C10H9+
130.0717	5	C9[13]CH9+
132.9595	23	C5H3Cl2+
134.9569	15	C5H3Cl[37]Cl+
136.0069	10	C8H5Cl+
137.0138	35	C8H6Cl+
138.022	40	C8H7Cl+
139.0112	10	C8H6[37]Cl+
139.0257	5	C7[13]CH7Cl+
139.0535	15	C11H7+
140.0187	11	C8H7[37]Cl+
140.0601	13	C11H8+
141.0689	166	C11H9+
142.0721	19	C10[13]CH9+
149.0147	21	C9H6Cl+
150.0213	12	C10H2N2+
151.0116	5	C9H6[37]Cl+
155.058	5	C10H7N2+
158.9753	999	C7H5Cl2+
159.9788	82	C6[13]CH5Cl2+
160.9722	567	C7H5Cl[37]Cl+
161.9751	25	C5H4Cl2N2+
162.9696	6	C7ClN2O+
164.038	6	C10H9Cl+
165.0099	7	C9H6ClO+
170.9747	8	C9ClN2+
171.9834	12	C8H6Cl2+
172.9648	5	C9ClNO+
172.9908	55	C8H7Cl2+
173.9809	8	C8H6Cl[37]Cl+
173.995	10	C12NO+
174.9875	34	C8H7Cl[37]Cl+
175.0298	16	C11H8Cl+
176.0371	29	C11H9Cl+
177.0315	6	C11H8[37]Cl+
178.0355	10	C11H9[37]Cl+
182.9741	8	C10ClN2+
195.9833	6	C10H6Cl2+
203.0364	12	C14H5NO+
