Mass spectrum: Genistein; LC-ESI-QTOF; MS2; CE: 20 eV; R=35000; [M+H]+
Name: Genistein
Name: 5,7-dihydroxy-3-(4-hydroxyphenyl)chromen-4-one
Formula: C15H10O5
Exact mass: 270.0528234
SMILES: OC1=CC=C(C=C1)C1=COC2=CC(O)=CC(O)=C2C1=O
InChI: InChI=1S/C15H10O5/c16-9-3-1-8(2-4-9)11-7-20-13-6-10(17)5-12(18)14(13)15(11)19/h1-7,16-18H
Instrument: Bruker maXis Impact
Instrument type: LC-ESI-QTOF
Ms type: MS2
Ion mode: POSITIVE
Ionization: ESI
Fragmentation mode: CID
Collision energy: 20 eV
Resolution: 35000
Column name: Acclaim RSLC C18 2.2um, 2.1x100mm, Thermo
Retention time: 7.694 min
Base peak: 271.0597
Precursor m/z: 271.0601
Precursor type: [M+H]+
m/z	relative intensity	assigned
149.0221	8	C8H5O3+
153.0174	14	C7H5O4+
215.0696	23	C13H11O3+
243.0648	30	C14H11O4+
253.0498	5	C15H9O4+
271.06	999	C15H11O5+
272.0624	148	C14[13]CH11O5+
