Mass spectrum: N-isopropyl-N'-phenyl-p-phenylenediamine; LC-ESI-QTOF; MS2; CE: Ramp 19.0-28.5 eV; R=35000; [M+H]+
Name: N-isopropyl-N'-phenyl-p-phenylenediamine
Name: N-Isopropyl-N`-phenyl-p-phenylenediamine
Name: 1-N-phenyl-4-N-propan-2-ylbenzene-1,4-diamine
Formula: C15H18N2
Exact mass: 226.14699858
SMILES: CC(C)NC1=CC=C(NC2=CC=CC=C2)C=C1
InChI: InChI=1S/C15H18N2/c1-12(2)16-14-8-10-15(11-9-14)17-13-6-4-3-5-7-13/h3-12,16-17H,1-2H3
Instrument: Bruker maXis Impact
Instrument type: LC-ESI-QTOF
Ms type: MS2
Ion mode: POSITIVE
Ionization: ESI
Fragmentation mode: CID
Collision energy: Ramp 19.0-28.5 eV
Resolution: 35000
Column name: Acclaim RSLC C18 2.2um, 2.1x100mm, Thermo
Retention time: 6.560 min
Base peak: 227.1539
Precursor m/z: 227.1543
Precursor type: [M+H]+
m/z	relative intensity	assigned
103.0551	6	C8H7+
120.0808	531	C8H10N+
121.084	42	C7[13]CH10N+
129.0694	13	C10H9+
155.0843	5	C12H11+
178.0769	70	C14H10+
179.0809	9	C13[13]CH10+
180.0798	52	C13H10N+
181.0856	9	C12[13]CH10N+
193.1005	73	C15H13+
194.0973	26	C14H12N+
195.1037	96	C14H13N+
196.1066	12	C13[13]CH13N+
208.1119	6	C15H14N+
210.127	41	C15H16N+
211.1257	12	C14H15N2+
225.1383	11	C15H17N2+
227.1542	999	C15H19N2+
228.1574	145	C14[13]CH19N2+
229.1614	10	C13[13]C2H19N2+
