Mass spectrum: Isophorone; LC-ESI-QTOF; MS2; CE: 10 eV; R=35000; [M+H]+
Name: Isophorone
Name: 3,5,5-trimethylcyclohex-2-en-1-one
Formula: C9H14O
Exact mass: 138.1044651
SMILES: CC1=CC(=O)CC(C)(C)C1
InChI: InChI=1S/C9H14O/c1-7-4-8(10)6-9(2,3)5-7/h4H,5-6H2,1-3H3
Instrument: Bruker maXis Impact
Instrument type: LC-ESI-QTOF
Ms type: MS2
Ion mode: POSITIVE
Ionization: ESI
Fragmentation mode: CID
Collision energy: 10 eV
Resolution: 35000
Column name: Acclaim RSLC C18 2.2um, 2.1x100mm, Thermo
Retention time: 7.143 min
Base peak: 196.0745
Precursor m/z: 139.1117
Precursor type: [M+H]+
m/z	relative intensity	assigned
139.1108	999	C9H15O+
140.1136	98	C8[13]CH15O+
