Mass spectrum: O-Desvenlafaxine; LC-ESI-QTOF; MS2; CE: 30 eV; R=35000; [M+H]+
Name: O-Desvenlafaxine
Name: Desvenlafaxine
Name: 4-[2-(dimethylamino)-1-(1-hydroxycyclohexyl)ethyl]phenol
Formula: C16H25NO2
Exact mass: 263.1885290
SMILES: CN(C)CC(C1=CC=C(O)C=C1)C1(O)CCCCC1
InChI: InChI=1S/C16H25NO2/c1-17(2)12-15(13-6-8-14(18)9-7-13)16(19)10-4-3-5-11-16/h6-9,15,18-19H,3-5,10-12H2,1-2H3
Instrument: Bruker maXis Impact
Instrument type: LC-ESI-QTOF
Ms type: MS2
Ion mode: POSITIVE
Ionization: ESI
Fragmentation mode: CID
Collision energy: 30 eV
Resolution: 35000
Column name: Acclaim RSLC C18 2.2um, 2.1x100mm, Thermo
Retention time: 4.8 min
Base peak: 264.1957
Precursor m/z: 264.1958
Precursor type: [M+H]+
m/z	relative intensity	assigned
107.0487	6	C7H7O+
115.0539	18	C9H7+
117.0696	6	C9H9+
119.0483	7	C8H7O+
121.0645	57	C8H9O+
127.0522	8	C10H7+
131.0481	45	C9H7O+
131.0845	24	C10H11+
133.064	999	C9H9O+
134.0673	108	C8[13]CH9O+
135.0698	7	C8H9NO+
141.0681	17	C11H9+
144.0556	24	C10H8O+
145.0637	282	C10H9O+
146.0668	33	C9[13]CH9O+
147.0795	31	C10H11O+
149.0825	38	C9H11NO+
150.0867	8	C4H12N3O3+
152.1431	14	C10H18N+
155.0585	13	C7H9NO3+
155.084	6	C12H11+
157.0638	6	C11H9O+
159.0794	415	C11H11O+
160.0827	57	C10[13]CH11O+
163.0981	58	C10H13NO+
164.1057	77	C10H14NO+
165.108	9	C5H15N3O3+
169.0749	9	C11H9N2+
173.0951	28	C12H13O+
183.1155	15	C14H15+
201.1265	226	C14H17O+
202.1299	30	C13[13]CH17O+
246.1847	48	C16H24NO+
247.1879	8	C15[13]CH24NO+
264.1939	6	C16H26NO2+
