Mass spectrum: Propafenone; LC-ESI-QTOF; MS2; CE: 10 eV; R=35000; [M+H]+
Name: Propafenone
Name: 1-[2-[2-hydroxy-3-(propylamino)propoxy]phenyl]-3-phenylpropan-1-one
Formula: C21H27NO3
Exact mass: 341.1990937
SMILES: CCCNCC(COc1ccccc1C(=O)CCc2ccccc2)O
InChI: InChI=1S/C21H27NO3/c1-2-14-22-15-18(23)16-25-21-11-7-6-10-19(21)20(24)13-12-17-8-4-3-5-9-17/h3-11,18,22-23H,2,12-16H2,1H3
Instrument: Bruker maXis Impact
Instrument type: LC-ESI-QTOF
Ms type: MS2
Ion mode: POSITIVE
Ionization: ESI
Fragmentation mode: CID
Collision energy: 10 eV
Resolution: 35000
Column name: Acclaim RSLC C18 2.2um, 2.1x100mm, Thermo
Retention time: 7.721 min
Base peak: 342.2065
Precursor m/z: 342.2064
Precursor type: [M+H]+
m/z	relative intensity	assigned
324.1954	6	C21H26NO2+
342.2081	999	C21H28NO3+
344.2122	38	C19[13]C2H28NO3+
