Mass spectrum: Bis (2,6-diisopropylphenyl)-carbodiimide; GC-APCI-QTOF; MS2; CE: 40 eV; R=35000; [M]+
Name: Bis (2,6-diisopropylphenyl)-carbodiimide
Formula: C25H34N2
Exact mass: 362.2722
SMILES: CC(C)C1=C(C(=CC=C1)C(C)C)N=C=NC2=C(C=CC=C2C(C)C)C(C)C
InChI: InChI=1S/C25H34N2/c1-16(2)20-11-9-12-21(17(3)4)24(20)26-15-27-25-22(18(5)6)13-10-14-23(25)19(7)8/h9-14,16-19H,1-8H3
Instrument: Bruker 450 GC coupled to maXis Impact
Instrument type: GC-APCI-QTOF
Ms type: MS2
Ion mode: POSITIVE
Ionization: APCI
Fragmentation mode: CID
Collision energy: 40 eV
Resolution: 35000
Column name: Rxi-5Sil MS column, 30m, 0.25mm i.d., 0.25Âµm film thickness, Restek
Retention time: 22.579 min
Base peak: 283.262
Precursor m/z: 362.2717
Precursor type: [M]+
m/z	relative intensity	assigned
118.0653	123	C8H8N+
120.0821	337	C8H10N+
131.073	204	C9H9N+
132.0805	515	C9H10N+
144.0822	165	C10H10N+
145.0889	120	C10H11N+
146.0978	609	C10H12N+
148.1141	437	C10H14N+
158.1001	113	C11H12N+
160.1143	272	C11H14N+
162.1316	444	C11H16N+
171.1072	428	C12H13N+
172.1148	353	C12H14N+
173.1199	87	C12H15N+
176.1436	107	C12H18N+
184.1137	84	C13H14N+
186.1307	999	C13H16N+
187.1353	308	C13H17N+
188.1444	126	C13H18N+
199.1369	100	C14H17N+
200.1472	165	C14H18N+
212.1473	531	C15H18N+
213.1481	178	C15H19N+
226.1612	84	C16H20N+
263.1547	269	C18H19N2+
275.1542	142	C19H19N2+
277.1717	113	C19H21N2+
289.1709	129	C20H21N2+
303.1867	132	C21H23N2+
304.1926	373	C21H24N2+
305.1998	275	C21H25N2+
317.2031	252	C22H25N2+
318.2108	90	C22H26N2+
319.2191	330	C22H27N2+
347.2531	194	C24H31N2+
362.2773	90	C25H34N2+
