Mass spectrum: Simazine; LC-ESI-QTOF; MS2; CE: 30 eV; R=35000; [M+H]+
Name: Simazine
Name: 6-chloro-2-N,4-N-diethyl-1,3,5-triazine-2,4-diamine
Formula: C7H12ClN5
Exact mass: 201.0781231
SMILES: CCNC1=NC(NCC)=NC(Cl)=N1
InChI: InChI=1S/C7H12ClN5/c1-3-9-6-11-5(8)12-7(13-6)10-4-2/h3-4H2,1-2H3,(H2,9,10,11,12,13)
Instrument: Bruker maXis Impact
Instrument type: LC-ESI-QTOF
Ms type: MS2
Ion mode: POSITIVE
Ionization: ESI
Fragmentation mode: CID
Collision energy: 30 eV
Resolution: 35000
Column name: Acclaim RSLC C18 2.2um, 2.1x100mm, Thermo
Retention time: 6.8 min
Base peak: 150.1114
Precursor m/z: 202.0854
Precursor type: [M+H]+
m/z	relative intensity	assigned
124.0865	728	C6H10N3+
132.0312	999	C5H2N5+
138.0774	231	C5H8N5+
146.0203	199	C3H5ClN5+
166.1066	376	C7H12N5+
174.0532	400	C5H9ClN5+
175.0532	72	C4[13]CH9ClN5+
176.0497	202	C5H9[37]ClN5+
202.0838	654	C7H13ClN5+
