Mass spectrum: Tris(2-ethylhexl)phosphate; LC-ESI-QTOF; MS2; CE: 30 eV; R=35000; [M+H]+
Name: Tris(2-ethylhexl)phosphate
Name: tris(2-ethylhexyl) phosphate
Formula: C24H51O4P
Exact mass: 434.3524967
SMILES: CCCCC(CC)COP(=O)(OCC(CC)CCCC)OCC(CC)CCCC
InChI: InChI=1S/C24H51O4P/c1-7-13-16-22(10-4)19-26-29(25,27-20-23(11-5)17-14-8-2)28-21-24(12-6)18-15-9-3/h22-24H,7-21H2,1-6H3
Instrument: Bruker maXis Impact
Instrument type: LC-ESI-QTOF
Ms type: MS2
Ion mode: POSITIVE
Ionization: ESI
Fragmentation mode: CID
Collision energy: 30 eV
Resolution: 35000
Column name: Acclaim RSLC C18 2.2um, 2.1x100mm, Thermo
Retention time: 15.485 min
Base peak: 435.3592
Precursor m/z: 435.3598
Precursor type: [M+H]+
m/z	relative intensity	assigned
149.0223	999	C8H5O3+
150.026	97	C7[13]CH5O3+
167.0354	28	C8H7O4+
182.0699	21	C6H15O4P+
237.0782	664	C16H14P+
238.0783	143	C19H10+
299.0617	33	C20H12OP+
