Mass spectrum: 2,2`-Methylenebis(6-tert-butyl-1,4-ethylphenol); GC-APCI-QTOF; MS2; CE: 20 eV; R=35000; [M]+
Name: 2,2`-Methylenebis(6-tert-butyl-1,4-ethylphenol)
Formula: C25H36O2
Exact mass: 368.2715
SMILES: CCC1=CC(=C(C(=C1)C(C)(C)C)O)CC2=C(C(=CC(=C2)CC)C(C)(C)C)O
InChI: InChI=1S/C25H36O2/c1-9-16-11-18(22(26)20(13-16)24(3,4)5)15-19-12-17(10-2)14-21(23(19)27)25(6,7)8/h11-14,26-27H,9-10,15H2,1-8H3
Instrument: Bruker 450 GC coupled to maXis Impact
Instrument type: GC-APCI-QTOF
Ms type: MS2
Ion mode: POSITIVE
Ionization: APCI
Fragmentation mode: CID
Collision energy: 20 eV
Resolution: 35000
Column name: Rxi-5Sil MS column, 30m, 0.25mm i.d., 0.25Âµm film thickness, Restek
Retention time: 24.304 min
Base peak: 368.2722
Precursor m/z: 368.271
Precursor type: [M]+
m/z	relative intensity	assigned
122.0736	14	C8H10O+
125.0967	17	C8H13O+
135.081	75	C9H11O+
135.1138	28	C10H15+
137.1305	17	C10H17+
139.1125	18	C9H15O+
146.107	24	C11H14+
147.1165	24	C11H15+
148.122	18	C11H16+
159.1143	26	C12H15+
160.124	29	C12H16+
161.1298	23	C12H17+
163.1102	213	C11H15O+
163.1486	26	C12H19+
175.1095	221	C12H15O+
175.1472	33	C13H19+
176.1161	34	C12H16O+
178.1344	887	C12H18O+
189.1271	14	C13H17O+
190.1347	58	C13H18O+
191.1427	999	C13H19O+
192.1475	203	C13H20O+
201.1652	14	C15H21+
247.2449	20	C18H31+
255.1428	28	C17H19O2+
255.2122	18	C19H27+
256.1461	84	C17H20O2+
257.1512	23	C17H21O2+
265.2556	14	C18H33O+
297.1919	69	C20H25O2+
298.192	22	C20H26O2+
309.1864	17	C21H25O2+
311.2015	44	C21H27O2+
312.2101	467	C21H28O2+
313.2165	78	C21H29O2+
353.249	22	C24H33O2+
366.2549	23	C25H34O2+
368.2729	189	C25H36O2+
