Mass spectrum: 6a_Methylprednisolone; LC-ESI-QTOF; MS2; CE: 10 eV; R=35000; [M+H]+
Name: 6a_Methylprednisolone
Name: Methylprednisolone
Name: (6S,8S,9S,10R,11S,13S,14S,17R)-11,17-dihydroxy-17-(2-hydroxyacetyl)-6,10,13-trimethyl-7,8,9,11,12,14,15,16-octahydro-6H-cyclopenta[a]phenanthren-3-one
Formula: C22H30O5
Exact mass: 374.2093241
SMILES: [H][C@@]12CC[C@](O)(C(=O)CO)[C@@]1(C)C[C@H](O)[C@@]1([H])[C@@]2([H])C[C@H](C)C2=CC(=O)C=C[C@]12C
InChI: InChI=1S/C22H30O5/c1-12-8-14-15-5-7-22(27,18(26)11-23)21(15,3)10-17(25)19(14)20(2)6-4-13(24)9-16(12)20/h4,6,9,12,14-15,17,19,23,25,27H,5,7-8,10-11H2,1-3H3/t12-,14-,15-,17-,19+,20-,21-,22-/m0/s1
Instrument: Bruker maXis Impact
Instrument type: LC-ESI-QTOF
Ms type: MS2
Ion mode: POSITIVE
Ionization: ESI
Fragmentation mode: CID
Collision energy: 10 eV
Resolution: 35000
Column name: Acclaim RSLC C18 2.2um, 2.1x100mm, Thermo
Retention time: 8.707 min
Base peak: 375.2165
Precursor m/z: 375.2166
Precursor type: [M+H]+
m/z	relative intensity	assigned
135.0793	37	C9H11O+
147.0792	7	C10H11O+
149.0947	9	C10H13O+
161.0947	66	C11H13O+
162.0969	7	C10[13]CH13O+
163.111	6	C11H15O+
165.0901	17	C10H13O2+
173.0945	8	C12H13O+
175.1114	12	C12H15O+
177.0902	11	C11H13O2+
183.1004	10	C10H15O3+
185.095	37	C13H13O+
187.1106	35	C13H15O+
199.1106	5	C14H15O+
211.1094	8	C15H15O+
213.1264	21	C15H17O+
225.1276	7	C16H17O+
231.1377	11	C15H19O2+
237.1263	10	C17H17O+
239.1426	8	C17H19O+
249.1277	7	C18H17O+
251.1428	31	C18H19O+
253.1585	60	C18H21O+
254.163	16	C17[13]CH21O+
255.1723	13	C18H23O+
265.1589	7	C19H21O+
267.138	9	C18H19O2+
277.1589	18	C20H21O+
278.1619	5	C19[13]CH21O+
279.1368	9	C19H19O2+
279.1739	45	C20H23O+
280.178	17	C20H24O+
281.1885	19	C20H25O+
282.1903	5	C19[13]CH25O+
291.1762	11	C21H23O+
293.152	46	C20H21O2+
293.1893	30	C21H25O+
294.1573	9	C19[13]CH21O2+
294.1928	9	C20[13]CH25O+
295.167	7	C20H23O2+
296.1737	5	C20H24O2+
297.149	12	C19H21O3+
297.1846	22	C20H25O2+
303.1743	48	C22H23O+
304.1755	10	C21[13]CH23O+
309.1861	18	C21H25O2+
310.189	5	C20[13]CH25O2+
311.2021	14	C21H27O2+
315.1573	8	C19H23O4+
321.1846	188	C22H25O2+
322.1879	42	C21[13]CH25O2+
323.1935	6	C20[13]C2H25O2+
327.1933	15	C21H27O3+
329.2113	9	C21H29O3+
339.195	472	C22H27O3+
340.1981	109	C21[13]CH27O3+
341.2008	13	C20[13]C2H27O3+
357.2061	999	C22H29O4+
358.2095	234	C21[13]CH29O4+
359.2119	27	C20[13]C2H29O4+
375.2161	720	C22H31O5+
376.2191	158	C21[13]CH31O5+
