Mass spectrum: Triphenylphosphate; LC-ESI-QTOF; MS2; CE: Ramp 22.1-33.2 eV; R=35000; [M+H]+
Name: Triphenylphosphate
Name: triphenyl phosphate
Formula: C18H15O4P
Exact mass: 326.0707956
SMILES: O=P(OC1=CC=CC=C1)(OC1=CC=CC=C1)OC1=CC=CC=C1
InChI: InChI=1S/C18H15O4P/c19-23(20-16-10-4-1-5-11-16,21-17-12-6-2-7-13-17)22-18-14-8-3-9-15-18/h1-15H
Instrument: Bruker maXis Impact
Instrument type: LC-ESI-QTOF
Ms type: MS2
Ion mode: POSITIVE
Ionization: ESI
Fragmentation mode: CID
Collision energy: Ramp 22.1-33.2 eV
Resolution: 35000
Column name: Acclaim RSLC C18 2.2um, 2.1x100mm, Thermo
Retention time: 11.053 min
Base peak: 327.0775
Precursor m/z: 327.0781
Precursor type: [M+H]+
m/z	relative intensity	assigned
53.0375	5	C4H5+
95.0494	6	C6H7O+
105.0469	7	C4H10OP+
152.0618	134	C12H8+
153.0695	208	C12H9+
154.0726	23	C11[13]CH9+
168.0564	22	C12H8O+
169.0636	17	C12H9O+
171.0799	26	C12H11O+
175.0145	15	C6H8O4P+
179.0603	7	C10H12OP+
181.0759	5	C10H14OP+
202.0779	5	C16H10+
215.0257	44	C12H8O2P+
216.0299	8	C11[13]CH8O2P+
227.0854	8	C18H11+
228.093	56	C18H12+
229.0999	44	C18H13+
230.1041	11	C17[13]CH13+
233.0364	286	C12H10O3P+
234.0393	35	C11[13]CH10O3P+
235.0415	5	C15H7O3+
251.0472	173	C12H12O4P+
252.0509	20	C11[13]CH12O4P+
309.068	10	C18H14O3P+
327.0783	999	C18H16O4P+
328.0821	210	C17[13]CH16O4P+
329.0834	24	C16[13]C2H16O4P+
