Mass spectrum: 2-Amino-9H-pyrido[2,3-b]indole (AalphaC); LC-ESI-QTOF; MS2; CE: 40 eV; R=35000; [M+H]+
Name: 2-Amino-9H-pyrido[2,3-b]indole (AalphaC)
Name: 2-Amino-9H-pyrido[2,3-b]indole
Name: 9H-pyrido[2,3-b]indol-2-amine
Formula: C11H9N3
Exact mass: 183.0796473
SMILES: NC1=NC2=C(C=C1)C1=CC=CC=C1N2
InChI: InChI=1S/C11H9N3/c12-10-6-5-8-7-3-1-2-4-9(7)13-11(8)14-10/h1-6H,(H3,12,13,14)
Instrument: Bruker maXis Impact
Instrument type: LC-ESI-QTOF
Ms type: MS2
Ion mode: POSITIVE
Ionization: ESI
Fragmentation mode: CID
Collision energy: 40 eV
Resolution: 35000
Column name: Acclaim RSLC C18 2.2um, 2.1x100mm, Thermo
Retention time: 7.042 min
Base peak: 184.0862
Precursor m/z: 184.0869
Precursor type: [M+H]+
m/z	relative intensity	assigned
113.0378	12	C9H5+
114.0333	6	C8H4N+
130.0639	11	C9H8N+
139.0408	5	C10H5N+
140.0487	999	C10H6N+
141.0517	75	C9[13]CH6N+
156.0671	6	C10H8N2+
157.0751	7	C10H9N2+
165.0435	5	C11H5N2+
166.0516	79	C11H6N2+
167.0593	242	C11H7N2+
168.0624	23	C10[13]CH7N2+
183.0782	11	C11H9N3+
184.0854	13	C11H10N3+
