Mass spectrum: Triamcinolone; LC-ESI-QTOF; MS2; CE: 40 eV; R=35000; [M+H]+
Name: Triamcinolone
Name: (8S,9R,10S,11S,13S,14S,16R,17S)-9-fluoro-11,16,17-trihydroxy-17-(2-hydroxyacetyl)-10,13-dimethyl-6,7,8,11,12,14,15,16-octahydrocyclopenta[a]phenanthren-3-one
Formula: C21H27FO6
Exact mass: 394.1791668
SMILES: C[C@]12C[C@H](O)[C@@]3(F)[C@@H](CCC4=CC(=O)C=C[C@]34C)[C@@H]1C[C@@H](O)[C@]2(O)C(=O)CO
InChI: InChI=1S/C21H27FO6/c1-18-6-5-12(24)7-11(18)3-4-13-14-8-15(25)21(28,17(27)10-23)19(14,2)9-16(26)20(13,18)22/h5-7,13-16,23,25-26,28H,3-4,8-10H2,1-2H3/t13-,14-,15+,16-,18-,19-,20-,21-/m0/s1
Instrument: Bruker maXis Impact
Instrument type: LC-ESI-QTOF
Ms type: MS2
Ion mode: POSITIVE
Ionization: ESI
Fragmentation mode: CID
Collision energy: 40 eV
Resolution: 35000
Column name: Acclaim RSLC C18 2.2um, 2.1x100mm, Thermo
Retention time: 6.366 min
Base peak: 395.1857
Precursor m/z: 395.1864
Precursor type: [M+H]+
m/z	relative intensity	assigned
119.0839	71	C9H11+
121.0636	351	C8H9O+
123.0788	63	C8H11O+
125.06	69	C7H9O2+
128.0622	119	C10H8+
129.0709	51	C7H10FO+
131.0835	186	C10H11+
133.0631	94	C9H9O+
135.0798	243	C9H11O+
137.0577	94	C8H9O2+
141.0678	87	C11H9+
143.0841	243	C11H11+
145.063	236	C10H9O+
145.0991	69	C11H13+
147.0793	999	C10H11O+
148.0831	101	C9[13]CH11O+
155.0846	262	C12H11+
157.0655	68	C8H10FO2+
157.0991	157	C12H13+
158.071	128	C11H10O+
159.0798	393	C11H11O+
161.0575	51	C10H9O2+
161.0949	160	C11H13O+
165.0668	101	C13H9+
166.0751	66	C13H10+
167.084	116	C13H11+
169.0639	83	C12H9O+
169.1014	65	C13H13+
171.0792	501	C12H11O+
171.1174	81	C10H16FO+
173.0943	321	C12H13O+
179.0844	137	C14H11+
180.0894	58	C14H12+
181.0623	55	C13H9O+
181.1013	97	C14H13+
182.0721	61	C13H10O+
182.1071	73	C14H14+
183.0793	144	C13H11O+
183.1146	74	C14H15+
184.0875	46	C13H12O+
185.0939	271	C13H13O+
186.1019	66	C13H14O+
187.0757	151	C12H11O2+
187.1121	54	C13H15O+
189.0669	51	C15H9+
190.0766	56	C15H10+
191.0836	82	C15H11+
192.0919	124	C15H12+
193.1002	119	C15H13+
194.1055	64	C15H14+
195.0796	143	C14H11O+
195.1168	144	C15H15+
196.0855	144	C14H12O+
197.0942	421	C14H13O+
197.1321	147	C15H17+
198.1029	89	C13[13]CH13O+
199.1094	177	C14H15O+
201.089	52	C13H13O2+
203.0857	94	C16H11+
204.0907	84	C16H12+
205.1007	117	C16H13+
206.1082	151	C16H14+
207.1162	202	C16H15+
208.0862	137	C15H12O+
209.0944	459	C15H13O+
209.133	82	C16H17+
210.1021	307	C15H14O+
211.1098	301	C12H16FO2+
212.1168	73	C11[13]CH16FO2+
213.0879	47	C14H13O2+
213.1259	440	C15H17O+
214.1305	75	C14[13]CH17O+
217.1017	69	C17H13+
218.1045	54	C17H14+
219.1155	131	C17H15+
220.0861	67	C16H12O+
221.0948	148	C16H13O+
221.1301	53	C17H17+
222.1026	338	C16H14O+
223.1091	521	C16H15O+
224.1176	356	C16H16O+
225.1258	606	C16H17O+
226.1294	131	C15[13]CH17O+
227.1057	79	C15H15O2+
227.1451	65	C13H20FO2+
230.1049	81	C18H14+
232.1274	77	C15H17FO+
233.0958	147	C17H13O+
233.1302	82	C18H17+
234.1	131	C17H14O+
235.1093	340	C17H15O+
235.1478	70	C18H19+
236.1179	129	C17H16O+
237.1265	440	C17H17O+
238.0964	56	C16H14O2+
238.1297	124	C16[13]CH17O+
239.1425	202	C17H19O+
241.1244	70	C13H18FO3+
243.1181	66	C16H16FO+
245.0956	84	C18H13O+
245.1293	76	C19H17+
246.1005	139	C18H14O+
247.1128	94	C15H16FO2+
248.1178	234	C18H16O+
249.1254	159	C18H17O+
250.1325	69	C18H18O+
251.1079	69	C14H16FO3+
251.1407	156	C15H20FO2+
252.1152	49	C14H17FO3+
252.1476	46	C14[13]CH20FO2+
253.1195	74	C17H17O2+
259.1107	81	C19H15O+
260.1183	122	C19H16O+
261.1266	167	C19H17O+
262.094	51	C18H14O2+
262.1325	114	C19H18O+
263.1428	240	C19H19O+
264.1471	76	C18[13]CH19O+
265.1228	96	C18H17O2+
265.1588	56	C19H21O+
266.1245	49	C18H18O2+
275.1426	167	C20H19O+
276.1453	47	C19[13]CH19O+
277.1226	62	C19H17O2+
279.1357	81	C19H19O2+
280.1456	119	C19H20O2+
281.1494	71	C19H21O2+
293.1534	48	C20H21O2+
303.1404	58	C18H20FO3+
321.1465	62	C21H21O3+
