Mass spectrum: Acebutolol; LC-ESI-QTOF; MS2; CE: 30 eV; R=35000; [M+H]+
Name: Acebutolol
Name: N-[3-acetyl-4-[2-hydroxy-3-(propan-2-ylamino)propoxy]phenyl]butanamide
Formula: C18H28N2O4
Exact mass: 336.2049074
SMILES: CCCC(=O)Nc1ccc(c(c1)C(=O)C)OCC(CNC(C)C)O
InChI: InChI=1S/C18H28N2O4/c1-5-6-18(23)20-14-7-8-17(16(9-14)13(4)21)24-11-15(22)10-19-12(2)3/h7-9,12,15,19,22H,5-6,10-11H2,1-4H3,(H,20,23)
Instrument: Bruker maXis Impact
Instrument type: LC-ESI-QTOF
Ms type: MS2
Ion mode: POSITIVE
Ionization: ESI
Fragmentation mode: CID
Collision energy: 30 eV
Resolution: 35000
Column name: Acclaim RSLC C18 2.2um, 2.1x100mm, Thermo
Retention time: 4.643 min
Base peak: 337.213
Precursor m/z: 337.2122
Precursor type: [M+H]+
m/z	relative intensity	assigned
114.0904	5	C6H12NO+
116.1063	747	C6H14NO+
117.1094	53	C5[13]CH14NO+
120.08	17	C8H10N+
122.0586	6	C4H10O4+
130.0642	9	C9H8N+
134.059	8	C8H8NO+
134.0951	17	C9H12N+
136.0743	9	C5H12O4+
144.0792	11	C7H12O3+
148.0743	185	C6H12O4+
149.0778	17	C5[13]CH12O4+
150.0532	15	C8H8NO2+
150.0902	16	C9H12NO+
151.0601	5	C8H9NO2+
152.0691	18	C8H10NO2+
160.074	46	C7H12O4+
162.0899	20	C7H14O4+
164.0691	19	C9H10NO2+
172.0743	15	C8H12O4+
174.0898	6	C8H14O4+
180.1005	153	C10H14NO2+
181.104	14	C9[13]CH14NO2+
190.0851	56	C11H12NO2+
191.0876	6	C10[13]CH12NO2+
192.1005	18	C11H14NO2+
204.1009	19	C12H14NO2+
206.1162	23	C12H16NO2+
216.101	14	C13H14NO2+
218.1169	663	C13H16NO2+
219.1201	79	C12[13]CH16NO2+
220.1318	30	C13H18NO2+
221.1352	5	C12[13]CH18NO2+
222.1115	306	C12H16NO3+
223.1144	41	C11[13]CH16NO3+
230.1166	61	C14H16NO2+
231.1193	9	C13[13]CH16NO2+
232.1315	11	C14H18NO2+
233.1273	10	C13H17N2O2+
234.1116	44	C13H16NO3+
235.1144	6	C12[13]CH16NO3+
235.1429	9	C13H19N2O2+
236.1264	5	C13H18NO3+
242.1165	20	C15H16NO2+
244.1324	12	C15H18NO2+
248.1273	117	C14H18NO3+
249.1306	17	C13[13]CH18NO3+
253.1538	14	C13H21N2O3+
259.144	5	C15H19N2O2+
260.1276	513	C15H18NO3+
261.1305	79	C14[13]CH18NO3+
262.1335	8	C13[13]C2H18NO3+
275.1749	9	C16H23N2O2+
277.1534	41	C15H21N2O3+
277.19	12	C16H25N2O2+
278.1377	28	C15H20NO4+
295.1644	29	C15H23N2O4+
295.2009	19	C16H27N2O3+
296.168	5	C14[13]CH23N2O4+
319.2012	228	C18H27N2O3+
320.2044	44	C17[13]CH27N2O3+
321.2068	5	C16[13]C2H27N2O3+
337.2121	999	C18H29N2O4+
338.2151	153	C17[13]CH29N2O4+
339.2171	18	C16[13]C2H29N2O4+
