Mass spectrum: Hexadecyltrimethylammonium; LC-ESI-QTOF; MS2; CE: Ramp 17.2-25.8 eV; R=35000; [M+H]+
Name: Hexadecyltrimethylammonium
Name: Cetrimonium
Name: hexadecyl(trimethyl)azanium
Formula: [C19H42N]+
Exact mass: 284.3317253
SMILES: CCCCCCCCCCCCCCCC[N+](C)(C)C
InChI: InChI=1S/C19H42N/c1-5-6-7-8-9-10-11-12-13-14-15-16-17-18-19-20(2,3)4/h5-19H2,1-4H3/q+1
Instrument: Bruker maXis Impact
Instrument type: LC-ESI-QTOF
Ms type: MS2
Ion mode: POSITIVE
Ionization: ESI
Fragmentation mode: CID
Collision energy: Ramp 17.2-25.8 eV 30 eV
Resolution: 35000
Column name: Acclaim RSLC C18 2.2um, 2.1x100mm, Thermo
Retention time: 12.824 min
Base peak: 304.3003
Precursor m/z: 285.339
Precursor type: [M+H]+
m/z	relative intensity	assigned
57.0692	5	C4H9+
60.0802	28	C3H10N+
71.0849	5	C5H11+
284.3314	999	C19H42N+
285.335	225	C18[13]CH42N+
286.3382	27	C17[13]C2H42N+
