Mass spectrum: Oseltamivir; LC-ESI-QTOF; MS2; CE: 50 eV; R=35000; [M+H]+
Name: Oseltamivir
Name: ethyl (3R,4R,5S)-4-acetamido-5-amino-3-pentan-3-yloxycyclohexene-1-carboxylate
Formula: C16H28N2O4
Exact mass: 312.2049074
SMILES: CCOC(=O)C1=C[C@@H](OC(CC)CC)[C@H](NC(C)=O)[C@@H](N)C1
InChI: InChI=1S/C16H28N2O4/c1-5-12(6-2)22-14-9-11(16(20)21-7-3)8-13(17)15(14)18-10(4)19/h9,12-15H,5-8,17H2,1-4H3,(H,18,19)/t13-,14+,15+/m0/s1
Instrument: Bruker maXis Impact
Instrument type: LC-ESI-QTOF
Ms type: MS2
Ion mode: POSITIVE
Ionization: ESI
Fragmentation mode: CID
Collision energy: 50 eV
Resolution: 35000
Column name: Acclaim RSLC C18 2.2um, 2.1x100mm, Thermo
Retention time: 6.8 min
Base peak: 313.212
Precursor m/z: 313.2122
Precursor type: [M+H]+
m/z	relative intensity	assigned
119.0597	99	C7H7N2+
120.0435	999	C7H6NO+
121.0472	101	C6[13]CH6NO+
133.0753	30	C8H9N2+
134.0591	38	C8H8NO+
137.0459	162	C7H7NO2+
137.0698	304	C7H9N2O+
138.0541	603	C7H8NO2+
138.074	45	C4H12NO4+
138.0901	57	C8H12NO+
139.0577	63	C6[13]CH8NO2+
152.0696	25	C8H10NO2+
162.0527	42	C9H8NO2+
166.0848	304	C9H12NO2+
167.0888	39	C8[13]CH12NO2+
