Mass spectrum: N-Bisdesmethyl Tramadol; LC-ESI-QTOF; MS2; CE: 50 eV; R=35000; [M+H]+
Name: N-Bisdesmethyl Tramadol
Name: BRN 2851491
Name: 2-(aminomethyl)-1-(3-methoxyphenyl)cyclohexan-1-ol
Formula: C14H21NO2
Exact mass: 235.1572289
SMILES: COC1=CC=CC(=C1)C1(O)CCCCC1CN
InChI: InChI=1S/C14H21NO2/c1-17-13-7-4-6-11(9-13)14(16)8-3-2-5-12(14)10-15/h4,6-7,9,12,16H,2-3,5,8,10,15H2,1H3
Instrument: Bruker maXis Impact
Instrument type: LC-ESI-QTOF
Ms type: MS2
Ion mode: POSITIVE
Ionization: ESI
Fragmentation mode: CID
Collision energy: 50 eV
Resolution: 35000
Column name: Acclaim RSLC C18 2.2um, 2.1x100mm, Thermo
Retention time: 5.2 min
Base peak: 236.1641
Precursor m/z: 236.1645
Precursor type: [M+H]+
m/z	relative intensity	assigned
115.0536	111	C9H7+
116.0589	28	C4H8N2O2+
121.0639	999	C8H9O+
122.0679	107	C7[13]CH9O+
128.0605	73	C10H8+
129.0692	56	C10H9+
131.0476	23	C9H7O+
132.0556	25	C9H8O+
142.0741	21	C6H10N2O2+
144.0571	57	C10H8O+
145.0638	40	C10H9O+
146.0692	19	C5H10N2O3+
147.0794	69	C10H11O+
155.0594	26	C10H7N2+
158.0708	22	C11H10O+
159.0782	28	C11H11O+
