Mass spectrum: Raloxifene; LC-ESI-QTOF; MS2; CE: 40 eV; R=35000; [M+H]+
Name: Raloxifene
Name: [6-hydroxy-2-(4-hydroxyphenyl)-1-benzothiophen-3-yl]-[4-(2-piperidin-1-ylethoxy)phenyl]methanone
Formula: C28H27NO4S
Exact mass: 473.1660793
SMILES: OC1=CC=C(C=C1)C1=C(C(=O)C2=CC=C(OCCN3CCCCC3)C=C2)C2=C(S1)C=C(O)C=C2
InChI: InChI=1S/C28H27NO4S/c30-21-8-4-20(5-9-21)28-26(24-13-10-22(31)18-25(24)34-28)27(32)19-6-11-23(12-7-19)33-17-16-29-14-2-1-3-15-29/h4-13,18,30-31H,1-3,14-17H2
Instrument: Bruker maXis Impact
Instrument type: LC-ESI-QTOF
Ms type: MS2
Ion mode: POSITIVE
Ionization: ESI
Fragmentation mode: CID
Collision energy: 40 eV
Resolution: 35000
Column name: Acclaim RSLC C18 2.2um, 2.1x100mm, Thermo
Retention time: 6.421 min
Base peak: 474.173
Precursor m/z: 474.1734
Precursor type: [M+H]+
m/z	relative intensity	assigned
112.1117	130	C7H14N+
113.1148	15	C6[13]CH14N+
121.0288	5	C7H5O2+
147.0431	131	C9H7O2+
148.0469	12	C8[13]CH7O2+
197.0584	15	C13H9O2+
206.1537	6	C13H20NO+
213.037	7	C13H9OS+
241.0314	5	C14H9O2S+
269.0267	432	C15H9O3S+
270.0294	81	C14[13]CH9O3S+
271.0241	21	C15H9O3[34]S+
305.0613	8	C22H9O2+
319.0431	5	C19H11O3S+
333.0581	13	C20H13O3S+
345.0567	14	C27H7N+
361.053	23	C21H13O4S+
362.0603	66	C27H8NO+
363.0635	19	C26[13]CH8NO+
374.0598	6	C28H8NO+
389.0843	10	C23H17O4S+
474.174	999	C28H28NO4S+
475.1766	318	C27[13]CH28NO4S+
