Mass spectrum: Methiocarb-sulfoxide; LC-ESI-QTOF; MS2; CE: 10 eV; R=35000; [M+H]+
Name: Methiocarb-sulfoxide
Name: Mesurol sulfoxide
Name: (3,5-dimethyl-4-methylsulfinylphenyl) N-methylcarbamate
Formula: C11H15NO3S
Exact mass: 241.0772643
SMILES: CNC(=O)OC1=CC(C)=C(C(C)=C1)S(C)=O
InChI: InChI=1S/C11H15NO3S/c1-7-5-9(15-11(13)12-3)6-8(2)10(7)16(4)14/h5-6H,1-4H3,(H,12,13)
Instrument: Bruker maXis Impact
Instrument type: LC-ESI-QTOF
Ms type: MS2
Ion mode: POSITIVE
Ionization: ESI
Fragmentation mode: CID
Collision energy: 10 eV
Resolution: 35000
Column name: Acclaim RSLC C18 2.2um, 2.1x100mm, Thermo
Retention time: 4.7 min
Base peak: 242.0842
Precursor m/z: 242.0845
Precursor type: [M+H]+
m/z	relative intensity	assigned
122.0717	4	
168.0596	4	C9H12OS+
170.0389	6	C8H10O2S+
185.0622	999	C9H13O2S+
186.0654	79	C8[13]CH13O2S+
187.0593	27	C9H13O2[34]S+
242.0842	429	C11H16NO3S+
243.0871	49	C10[13]CH16NO3S+
244.0809	15	C11H16NO3[34]S+
