Mass spectrum: Propyl benzoate; GC-APCI-QTOF; MS2; CE: 30 eV; R=35000; [M+H]+
Name: Propyl benzoate
Formula: C10H12O2
Exact mass: 164.0837
SMILES: CCCOC(=O)C1=CC=CC=C1
InChI: InChI=1S/C10H12O2/c1-2-8-12-10(11)9-6-4-3-5-7-9/h3-7H,2,8H2,1H3
Instrument: Bruker 450 GC coupled to maXis Impact
Instrument type: GC-APCI-QTOF
Ms type: MS2
Ion mode: POSITIVE
Ionization: APCI
Fragmentation mode: CID
Collision energy: 30 eV
Resolution: 35000
Column name: Rxi-5Sil MS column, 30m, 0.25mm i.d., 0.25Âµm film thickness, Restek
Retention time: 10.281 min
Base peak: 123.0433
Precursor m/z: 165.091
Precursor type: [M+H]+
m/z	relative intensity	assigned
53.0394	142	C4H5+
77.0394	47	C6H5+
79.0542	999	C6H7+
95.0489	241	C6H7O+
105.0316	297	C7H5O+
115.0547	130	C9H7+
117.0694	58	C9H9+
123.0431	525	C7H7O2+
124.0488	63	C7H8O2+
135.0449	84	C8H7O2+
