Mass spectrum: Ifosfamide; LC-ESI-QTOF; MS2; CE: 30 eV; R=35000; [M+H]+
Name: Ifosfamide
Name: N,3-bis(2-chloroethyl)-2-oxo-1,3,2lambda5-oxazaphosphinan-2-amine
Formula: C7H15Cl2N2O2P
Exact mass: 260.0248197
SMILES: ClCCNP1(=O)OCCCN1CCCl
InChI: InChI=1S/C7H15Cl2N2O2P/c8-2-4-10-14(12)11(6-3-9)5-1-7-13-14/h1-7H2,(H,10,12)
Instrument: Bruker maXis Impact
Instrument type: LC-ESI-QTOF
Ms type: MS2
Ion mode: POSITIVE
Ionization: ESI
Fragmentation mode: CID
Collision energy: 30 eV
Resolution: 35000
Column name: Acclaim RSLC C18 2.2um, 2.1x100mm, Thermo
Retention time: 5.859 min
Base peak: 261.0318
Precursor m/z: 261.0321
Precursor type: [M+H]+
m/z	relative intensity	assigned
116.9494	20	CH3Cl2O2+
118.0046	7	C7H2O2+
118.041	5	C4H9NOP+
118.947	7	CH3Cl[37]ClO2+
120.0196	6	C7H4O2+
120.0567	64	C5H11ClN+
122.0539	15	C5H11[37]ClN+
125.9496	27	CH2ClNO2P+
126.97	5	C4ClN2O+
127.947	6	CH2[37]ClNO2P+
127.9653	23	C5HClO2+
128.0249	27	Cl2H12NO2+
129.9627	7	C5H[37]ClO2+
136.015	11	C4H7ClNO2+
141.9809	44	C6H3ClO2+
143.9781	11	C6H3[37]ClO2+
146.0355	60	C5H9NO2P+
153.9809	999	C3H6ClNO2P+
154.9841	30	C2[13]CH6ClNO2P+
155.9779	221	C3H6[37]ClNO2P+
164.0456	5	C6H11ClNO2+
171.9907	8	C4H8Cl2NO2+
182.0123	116	C5H10ClNO2P+
183.0152	6	C4[13]CH10ClNO2P+
184.0093	29	C5H10[37]ClNO2P+
200.0227	16	C6H12Cl2NO2+
233.0001	93	C5H12Cl2N2O2P+
234.0032	5	C4[13]CH12Cl2N2O2P+
234.9973	58	C5H12Cl[37]ClN2O2P+
261.0311	45	C7H16Cl2N2O2P+
263.0287	27	C7H16Cl[37]ClN2O2P+
