Mass spectrum: Lorazepam; LC-ESI-QTOF; MS2; CE: RAMP 22.0-33.0 eV; R=35000; [M+H]+
Name: Lorazepam
Name: 7-chloro-5-(2-chlorophenyl)-3-hydroxy-1,3-dihydro-1,4-benzodiazepin-2-one
Formula: C15H10Cl2N2O2
Exact mass: 320.0119329
SMILES: c1ccc(c(c1)C2=NC(C(=O)Nc3c2cc(cc3)Cl)O)Cl
InChI: InChI=1S/C15H10Cl2N2O2/c16-8-5-6-12-10(7-8)13(19-15(21)14(20)18-12)9-3-1-2-4-11(9)17/h1-7,15,21H,(H,18,20)
Instrument: Bruker maXis Impact
Instrument type: LC-ESI-QTOF
Ms type: MS2
Ion mode: POSITIVE
Ionization: ESI
Fragmentation mode: CID
Collision energy: RAMP 22.0-33.0 eV
Resolution: 35000
Column name: Acclaim RSLC C18 2.2um, 2.1x100mm, Thermo
Retention time: 11.955 min
Base peak: 279.1593
Precursor m/z: 321.0192
Precursor type: [M+H]+
m/z	relative intensity	assigned
55.0175	338	C3H3O+
57.0687	545	C4H9+
89.0585	92	C4H9O2+
99.0425	999	C5H7O2+
