Mass spectrum: Cetirizine N-Oxide; LC-ESI-QTOF; MS2; CE: 20 eV; R=35000; [M+H]+
Name: Cetirizine N-Oxide
Name: (R)-Cetirizine N-Oxide
Name: 2-[2-[4-[(4-chlorophenyl)-phenylmethyl]-1-oxidopiperazin-1-ium-1-yl]ethoxy]acetic acid
Formula: C21H25ClN2O4
Exact mass: 404.1502850
SMILES: OC(=O)COCC[N+]1([O-])CCN(CC1)C(C1=CC=CC=C1)C1=CC=C(Cl)C=C1
InChI: InChI=1S/C21H25ClN2O4/c22-19-8-6-18(7-9-19)21(17-4-2-1-3-5-17)23-10-12-24(27,13-11-23)14-15-28-16-20(25)26/h1-9,21H,10-16H2,(H,25,26)
Instrument: Bruker maXis Impact
Instrument type: LC-ESI-QTOF
Ms type: MS2
Ion mode: POSITIVE
Ionization: ESI
Fragmentation mode: CID
Collision energy: 20 eV
Resolution: 35000
Column name: Acclaim RSLC C18 2.2um, 2.1x100mm, Thermo
Retention time: 8.9 min
Base peak: 150.1117
Precursor m/z: 405.1576
Precursor type: [M+H]+
m/z	relative intensity	assigned
121.0641	34	C8H9O+
132.0645	25	C5H10NO3+
146.0802	124	C6H12NO3+
147.0874	19	C6H13NO3+
187.1058	73	C8H15N2O3+
188.1121	14	C8H16N2O3+
201.0459	308	C13H10Cl+
202.049	43	C13[13]CH5N2+
203.0433	108	C13H10[37]Cl+
206.0964	18	C15H12N+
216.0571	22	C16H8O+
217.0428	14	C13H10ClO+
229.0638	35	C17H9O+
231.0627	19	C13H11O4+
240.0586	20	C15H11ClN+
241.0647	100	C18H9O+
242.0719	116	C18H10O+
243.0627	25	C14H11O4+
243.0786	17	C12H16ClO3+
244.0692	29	C14H12O4+
267.1214	19	C11H22ClNO4+
284.1091	27	C17H17ClN2+
299.1311	92	C18H20ClN2+
300.1315	18	C19H21ClO+
301.1292	26	C17H19NO4+
312.1374	38	C16H23ClNO3+
313.144	19	C16H24ClNO3+
387.1468	22	C21H24ClN2O3+
388.154	53	C21H25ClN2O3+
389.1557	22	C21H26ClN2O3+
390.1514	18	C21H25ClNO4+
405.1579	999	C21H26ClN2O4+
406.1625	245	C20[13]CH26ClN2O4+
407.1557	274	C21H26[37]ClN2O4+
408.1605	60	C20[13]CH26[37]ClN2O4+
