Mass spectrum: Perfluorodecanoic acid; LC-ESI-QTOF; MS2; CE: 30 eV; R=35000; [M-H]-
Name: Perfluorodecanoic acid
Name: 2,2,3,3,4,4,5,5,6,6,7,7,8,8,9,9,10,10,10-nonadecafluorodecanoic acid
Formula: C10HF19O2
Exact mass: 513.9673155
SMILES: OC(=O)C(F)(F)C(F)(F)C(F)(F)C(F)(F)C(F)(F)C(F)(F)C(F)(F)C(F)(F)C(F)(F)F
InChI: InChI=1S/C10HF19O2/c11-2(12,1(30)31)3(13,14)4(15,16)5(17,18)6(19,20)7(21,22)8(23,24)9(25,26)10(27,28)29/h(H,30,31)
Instrument: Bruker maXis Impact
Instrument type: LC-ESI-QTOF
Ms type: MS2
Ion mode: NEGATIVE
Ionization: ESI
Fragmentation mode: CID
Collision energy: 30 eV
Resolution: 35000
Column name: Acclaim RSLC C18 2.2um, 2.1x100mm, Thermo
Retention time: 11.085 min
Base peak: 468.9709
Precursor m/z: 512.96
Precursor type: [M-H]-
m/z	relative intensity	assigned
118.9935	83	C7FO-
168.9898	999	C3F7-
196.9824	85	C4F7O-
218.9851	574	C4F9-
268.9836	456	C5F11-
318.9778	59	C6F13-
468.9672	53	C9F19-
