Mass spectrum: Methyl laurate; GC-APCI-QTOF; MS2; CE: 30 eV; R=35000; [M+H]+
Name: Methyl laurate
Formula: C13H26O2
Exact mass: 214.1933
SMILES: CCCCCCCCCCCC(=O)OC
InChI: InChI=1S/C13H26O2/c1-3-4-5-6-7-8-9-10-11-12-13(14)15-2/h3-12H2,1-2H3
Instrument: Bruker 450 GC coupled to maXis Impact
Instrument type: GC-APCI-QTOF
Ms type: MS2
Ion mode: POSITIVE
Ionization: APCI
Fragmentation mode: CID
Collision energy: 30 eV
Resolution: 35000
Column name: Rxi-5Sil MS column, 30m, 0.25mm i.d., 0.25Âµm film thickness, Restek
Retention time: 12.401 min
Base peak: 215.2007
Precursor m/z: 215.2006
Precursor type: [M+H]+
m/z	relative intensity	assigned
55.0549	164	C4H7+
57.0699	428	C4H9+
59.0502	87	C3H7O+
71.0839	124	C5H11+
95.084	58	C7H11+
97.1022	65	C7H13+
103.0742	58	C5H11O2+
117.0902	192	C6H13O2+
121.1004	124	C9H13+
125.0971	69	C8H13O+
129.0909	106	C7H13O2+
131.1062	259	C7H15O2+
135.1161	62	C10H15+
139.1104	60	C9H15O+
143.1064	407	C8H15O2+
145.1243	133	C8H17O2+
159.1373	96	C9H19O2+
163.1474	219	C12H19+
164.1527	69	C12H20+
171.139	143	C10H19O2+
215.2011	999	C13H27O2+
