Mass spectrum: 5,6-dimethyl-1H-benzotriazole; LC-ESI-QTOF; MS2; CE: RAMP 16.1-24.2 eV; R=35000; [M+H]+
Name: 5,6-dimethyl-1H-benzotriazole
Name: 5,6-Dimethylbenzotriazole
Name: 5,6-dimethyl-2H-benzotriazole
Formula: C8H9N3
Exact mass: 147.0796473
SMILES: Cc1cc2c(cc1C)nn[nH]2
InChI: InChI=1S/C8H9N3/c1-5-3-7-8(4-6(5)2)10-11-9-7/h3-4H,1-2H3,(H,9,10,11)
Instrument: Bruker maXis Impact
Instrument type: LC-ESI-QTOF
Ms type: MS2
Ion mode: POSITIVE
Ionization: ESI
Fragmentation mode: CID
Collision energy: RAMP 16.1-24.2 eV
Resolution: 35000
Column name: Acclaim RSLC C18 2.2um, 2.1x100mm, Thermo
Retention time: 6.871 min
Base peak: 148.0865
Precursor m/z: 148.0869
Precursor type: [M+H]+
m/z	relative intensity	assigned
53.0377	26	C4H5+
54.0328	9	C3H4N+
65.0374	20	C5H5+
67.053	7	C5H7+
77.0375	22	C6H5+
78.0454	7	C6H6+
79.0533	21	C6H7+
80.0481	24	C5H6N+
81.0556	5	C5H7N+
91.0536	118	C7H7+
92.0493	9	C6H6N+
92.0561	8	C6[13]CH7+
93.0568	19	C6H7N+
93.0691	191	C7H9+
94.0642	16	C6H8N+
94.0725	13	C6[13]CH9+
95.0484	95	C4H5N3+
96.0525	6	C3[13]CH5N3+
103.0541	42	C8H7+
104.0496	5	C7H6N+
105.0449	46	C6H5N2+
105.0566	14	C7H7N+
118.0639	12	C8H8N+
119.0716	20	C8H9N+
120.0798	77	C8H10N+
121.0831	5	C7[13]CH10N+
148.0862	999	C8H10N3+
149.0891	121	C7[13]CH10N3+
