Mass spectrum: Metamitron-desamino; LC-ESI-QTOF; MS2; CE: 30 eV; R=35000; [M+H]+
Name: Metamitron-desamino
Name: 3-methyl-6-phenyl-2H-1,2,4-triazin-5-one
Formula: C10H9N3O
Exact mass: 187.0745619
SMILES: CC1=NC(=O)C(=NN1)C1=CC=CC=C1
InChI: InChI=1S/C10H9N3O/c1-7-11-10(14)9(13-12-7)8-5-3-2-4-6-8/h2-6H,1H3,(H,11,12,14)
Instrument: Bruker maXis Impact
Instrument type: LC-ESI-QTOF
Ms type: MS2
Ion mode: POSITIVE
Ionization: ESI
Fragmentation mode: CID
Collision energy: 30 eV
Resolution: 35000
Column name: Acclaim RSLC C18 2.2um, 2.1x100mm, Thermo
Retention time: 5.1 min
Base peak: 188.0811
Precursor m/z: 188.0818
Precursor type: [M+H]+
m/z	relative intensity	assigned
117.0571	6	C8H7N+
118.0522	5	C7H6N2+
119.0596	246	C7H7N2+
120.063	22	C6[13]CH7N2+
130.0647	30	C9H8N+
131.0718	19	C9H9N+
142.0637	9	C10H8N+
160.0859	999	C9H10N3+
161.0887	102	C8[13]CH10N3+
188.0809	153	C10H10N3O+
189.0838	19	C9[13]CH10N3O+
