Mass spectrum: Methyl salicylate; GC-APCI-QTOF; MS2; CE: 20 eV; R=35000; [M]+
Name: Methyl salicylate
Formula: C8H8O3
Exact mass: 152.0473
SMILES: COC(=O)C1=CC=CC=C1O
InChI: InChI=1S/C8H8O3/c1-11-8(10)6-4-2-3-5-7(6)9/h2-5,9H,1H3
Instrument: Bruker 450 GC coupled to maXis Impact
Instrument type: GC-APCI-QTOF
Ms type: MS2
Ion mode: POSITIVE
Ionization: APCI
Fragmentation mode: CID
Collision energy: 20 eV
Resolution: 35000
Column name: Rxi-5Sil MS column, 30m, 0.25mm i.d., 0.25Âµm film thickness, Restek
Retention time: 9.622 min
Base peak: 153.0564
Precursor m/z: 152.0468
Precursor type: [M]+
m/z	relative intensity	assigned
65.0378	14	C5H5+
92.0253	71	C6H4O+
120.0203	112	C7H4O2+
121.0276	999	C7H5O2+
138.0321	650	C7H6O3+
139.0375	48	C7H7O3+
