Mass spectrum: Fenthion-sulfoxide; LC-ESI-QTOF; MS2; CE: 10 eV; R=35000; [M+H]+
Name: Fenthion-sulfoxide
Formula: C10H15O4PS2
Exact mass: 294.0149376
SMILES: Cc1cc(ccc1S(=O)C)OP(=S)(OC)OC
InChI: InChI=1S/C10H15O4PS2/c1-8-7-9(5-6-10(8)17(4)11)14-15(16,12-2)13-3/h5-7H,1-4H3
Instrument: Bruker maXis Impact
Instrument type: LC-ESI-QTOF
Ms type: MS2
Ion mode: POSITIVE
Ionization: ESI
Fragmentation mode: CID
Collision energy: 10 eV
Resolution: 35000
Column name: Acclaim RSLC C18 2.2um, 2.1x100mm, Thermo
Retention time: 7.2 min
Base peak: 295.0223
Precursor m/z: 295.0222
Precursor type: [M+H]+
m/z	relative intensity	assigned
264.0028	9	C9H13O3PS2+
278.0198	5	C10H15O3PS2+
295.0224	999	C10H16O4PS2+
296.0251	113	C9[13]CH16O4PS2+
297.0184	70	C10H16O4P[34]S[32]S+
