Mass spectrum: Sulfamethoxazole; LC-ESI-QTOF; MS2; CE: 40 eV; R=35000; [M+H]+
Name: Sulfamethoxazole
Name: 4-amino-N-(5-methyl-1,2-oxazol-3-yl)benzenesulfonamide
Formula: C10H11N3O3S
Exact mass: 253.0521122
SMILES: CC1=CC(NS(=O)(=O)C2=CC=C(N)C=C2)=NO1
InChI: InChI=1S/C10H11N3O3S/c1-7-6-10(12-16-7)13-17(14,15)9-4-2-8(11)3-5-9/h2-6H,11H2,1H3,(H,12,13)
Instrument: Bruker maXis Impact
Instrument type: LC-ESI-QTOF
Ms type: MS2
Ion mode: POSITIVE
Ionization: ESI
Fragmentation mode: CID
Collision energy: 40 eV
Resolution: 35000
Column name: Acclaim RSLC C18 2.2um, 2.1x100mm, Thermo
Retention time: 4.5 min
Base peak: 254.0594
Precursor m/z: 254.0594
Precursor type: [M+H]+
m/z	relative intensity	assigned
108.044	174	C6H6NO+
119.0586	104	C4H9NO3+
121.0744	124	C4H11NO3+
131.0598	148	C8H7N2+
133.0706	130	C5H11NO3+
143.0608	181	C9H7N2+
145.0614	128	C5H9N2O3+
146.0707	873	C8H8N3+
147.0778	694	C8H9N3+
156.011	999	C6H6NO2S+
157.0131	118	C10H5S+
159.0773	155	C6H11N2O3+
160.0857	690	C9H10N3+
