Mass spectrum: Tetracaine; LC-ESI-QTOF; MS2; CE: 10 eV; R=35000; [M+H]+
Name: Tetracaine
Name: 2-(dimethylamino)ethyl 4-(butylamino)benzoate
Formula: C15H24N2O2
Exact mass: 264.1837780
SMILES: CCCCNC1=CC=C(C=C1)C(=O)OCCN(C)C
InChI: InChI=1S/C15H24N2O2/c1-4-5-10-16-14-8-6-13(7-9-14)15(18)19-12-11-17(2)3/h6-9,16H,4-5,10-12H2,1-3H3
Instrument: Bruker maXis Impact
Instrument type: LC-ESI-QTOF
Ms type: MS2
Ion mode: POSITIVE
Ionization: ESI
Fragmentation mode: CID
Collision energy: 10 eV
Resolution: 35000
Column name: Acclaim RSLC C18 2.2um, 2.1x100mm, Thermo
Retention time: 6.286 min
Base peak: 265.1917
Precursor m/z: 265.1911
Precursor type: [M+H]+
m/z	relative intensity	assigned
176.1064	952	C11H14NO+
177.1094	118	C10[13]CH14NO+
178.1119	5	C9[13]C2H14NO+
220.1327	54	C13H18NO2+
221.1358	8	C12[13]CH18NO2+
265.1914	999	C15H25N2O2+
266.1941	183	C14[13]CH25N2O2+
267.1965	13	C13[13]C2H25N2O2+
