Mass spectrum: Propyl benzoate; GC-APCI-QTOF; MS2; CE: 50 eV; R=35000; [M+H]+
Name: Propyl benzoate
Formula: C10H12O2
Exact mass: 164.0837
SMILES: CCCOC(=O)C1=CC=CC=C1
InChI: InChI=1S/C10H12O2/c1-2-8-12-10(11)9-6-4-3-5-7-9/h3-7H,2,8H2,1H3
Instrument: Bruker 450 GC coupled to maXis Impact
Instrument type: GC-APCI-QTOF
Ms type: MS2
Ion mode: POSITIVE
Ionization: APCI
Fragmentation mode: CID
Collision energy: 50 eV
Resolution: 35000
Column name: Rxi-5Sil MS column, 30m, 0.25mm i.d., 0.25Âµm film thickness, Restek
Retention time: 10.276 min
Base peak: 123.043
Precursor m/z: 165.091
Precursor type: [M+H]+
m/z	relative intensity	assigned
50.0158	288	C4H2+
51.0234	999	C4H3+
53.0398	473	C4H5+
77.0384	222	C6H5+
79.0542	179	C6H7+
95.049	636	C6H7O+
105.0344	79	C7H5O+
115.0536	128	C9H7+
