Mass spectrum: Propyl benzoate; GC-APCI-QTOF; MS2; CE: 10 eV; R=35000; [M+H]+
Name: Propyl benzoate
Formula: C10H12O2
Exact mass: 164.0837
SMILES: CCCOC(=O)C1=CC=CC=C1
InChI: InChI=1S/C10H12O2/c1-2-8-12-10(11)9-6-4-3-5-7-9/h3-7H,2,8H2,1H3
Instrument: Bruker 450 GC coupled to maXis Impact
Instrument type: GC-APCI-QTOF
Ms type: MS2
Ion mode: POSITIVE
Ionization: APCI
Fragmentation mode: CID
Collision energy: 10 eV
Resolution: 35000
Column name: Rxi-5Sil MS column, 30m, 0.25mm i.d., 0.25Âµm film thickness, Restek
Retention time: 10.282 min
Base peak: 123.0431
Precursor m/z: 165.091
Precursor type: [M+H]+
m/z	relative intensity	assigned
79.0543	14	C6H7+
122.0357	10	C7H6O2+
123.0432	999	C7H7O2+
135.0452	6	C8H7O2+
145.0677	10	C10H9O+
163.0777	17	C10H11O2+
164.0799	6	C10H12O2+
165.0939	8	C10H13O2+
