Mass spectrum: 2-(4-Morpholinyl)benzothiazole; LC-ESI-QTOF; MS2; CE: 10 eV; R=35000; [M+H]+
Name: 2-(4-Morpholinyl)benzothiazole
Name: 4-(1,3-benzothiazol-2-yl)morpholine
Formula: C11H12N2OS
Exact mass: 220.0670340
SMILES: C1CN(CCO1)C1=NC2=CC=CC=C2S1
InChI: InChI=1S/C11H12N2OS/c1-2-4-10-9(3-1)12-11(15-10)13-5-7-14-8-6-13/h1-4H,5-8H2
Instrument: Bruker maXis Impact
Instrument type: LC-ESI-QTOF
Ms type: MS2
Ion mode: POSITIVE
Ionization: ESI
Fragmentation mode: CID
Collision energy: 10 eV
Resolution: 35000
Column name: Acclaim RSLC C18 2.2um, 2.1x100mm, Thermo
Retention time: 8.498 min
Base peak: 221.0734
Precursor m/z: 221.0743
Precursor type: [M+H]+
m/z	relative intensity	assigned
177.0523	18	C9H9N2S+
221.0743	999	C11H13N2OS+
222.0766	135	C10[13]CH13N2OS+
223.0698	42	C11H13N2O[34]S+
