Mass spectrum: Linuron; LC-ESI-QTOF; MS2; CE: 20 eV; R=35000; [M+H]+
Name: Linuron
Name: 3-(3,4-dichlorophenyl)-1-methoxy-1-methylurea
Formula: C9H10Cl2N2O2
Exact mass: 248.0119329
SMILES: CON(C)C(=O)NC1=CC=C(Cl)C(Cl)=C1
InChI: InChI=1S/C9H10Cl2N2O2/c1-13(15-2)9(14)12-6-3-4-7(10)8(11)5-6/h3-5H,1-2H3,(H,12,14)
Instrument: Bruker maXis Impact
Instrument type: LC-ESI-QTOF
Ms type: MS2
Ion mode: POSITIVE
Ionization: ESI
Fragmentation mode: CID
Collision energy: 20 eV
Resolution: 35000
Column name: Acclaim RSLC C18 2.2um, 2.1x100mm, Thermo
Retention time: 9.313 min
Base peak: 249.019
Precursor m/z: 249.0192
Precursor type: [M+H]+
m/z	relative intensity	assigned
123.9938	8	C9O+
125.0017	23	C9HO+
132.9596	60	C5H3Cl2+
134.9563	34	C5H3Cl[37]Cl+
153.0203	25	C7H6ClN2+
155.0173	6	C7H6[37]ClN2+
159.9704	999	C6H4Cl2N+
160.9776	243	C6H5Cl2N+
161.9675	572	C6H4Cl[37]ClN+
162.9747	138	C6H5Cl[37]ClN+
163.9788	5	C6H6Cl2O+
181.0149	21	C8H6ClN2O+
182.0231	924	C8H7ClN2O+
183.0261	61	C7[13]CH7ClN2O+
184.0204	183	C8H7[37]ClN2O+
185.0231	9	C8H8ClNO2+
187.965	7	C7H4Cl2NO+
216.992	63	C8H7Cl2N2O+
217.9992	25	C8H8Cl2N2O+
218.989	37	C8H7Cl[37]ClN2O+
219.9961	13	C8H8Cl[37]ClN2O+
249.0186	85	C9H11Cl2N2O2+
250.0212	8	C8[13]CH11Cl2N2O2+
251.0155	51	C9H11Cl[37]ClN2O2+
