Mass spectrum: Acetochlor; LC-ESI-QTOF; MS2; CE: 50 eV; R=35000; [M+H]+
Name: Acetochlor
Name: 2-chloro-N-(ethoxymethyl)-N-(2-ethyl-6-methylphenyl)acetamide
Formula: C14H20ClNO2
Exact mass: 269.1182566
SMILES: CCOCN(C(=O)CCl)C1=C(CC)C=CC=C1C
InChI: InChI=1S/C14H20ClNO2/c1-4-12-8-6-7-11(3)14(12)16(10-18-5-2)13(17)9-15/h6-8H,4-5,9-10H2,1-3H3
Instrument: Bruker maXis Impact
Instrument type: LC-ESI-QTOF
Ms type: MS2
Ion mode: POSITIVE
Ionization: ESI
Fragmentation mode: CID
Collision energy: 50 eV
Resolution: 35000
Column name: Acclaim RSLC C18 2.2um, 2.1x100mm, Thermo
Retention time: 10.2 min
Base peak: 224.0833
Precursor m/z: 270.1255
Precursor type: [M+H]+
m/z	relative intensity	assigned
115.0527	27	C3H12ClO2+
117.0555	68	C2H12ClNO2+
118.0644	56	C8H8N+
119.0675	8	C3H9N3O2+
130.064	38	C3H13ClNO2+
131.0729	24	C9H9N+
133.0876	999	C9H11N+
134.091	96	C8[13]CH11N+
144.0787	17	C4H15ClNO2+
145.0874	13	C4H16ClNO2+
146.0945	17	C4H17ClNO2+
148.1115	88	C10H14N+
149.1133	16	C5H15N3O2+
