Mass spectrum: Fluvastatin; LC-ESI-QTOF; MS2; CE: 20 eV; R=35000; [M+H]+
Name: Fluvastatin
Name: (E,3R,5S)-7-[3-(4-fluorophenyl)-1-propan-2-ylindol-2-yl]-3,5-dihydroxyhept-6-enoic acid
Formula: C24H26FNO4
Exact mass: 411.1845865
SMILES: CC(C)n1c2ccccc2c(c1/C=C/[C@H](C[C@H](CC(=O)O)O)O)c3ccc(cc3)F
InChI: InChI=1S/C24H26FNO4/c1-15(2)26-21-6-4-3-5-20(21)24(16-7-9-17(25)10-8-16)22(26)12-11-18(27)13-19(28)14-23(29)30/h3-12,15,18-19,27-28H,13-14H2,1-2H3,(H,29,30)/b12-11+/t18-,19-/m1/s1
Instrument: Bruker maXis Impact
Instrument type: LC-ESI-QTOF
Ms type: MS2
Ion mode: POSITIVE
Ionization: ESI
Fragmentation mode: CID
Collision energy: 20 eV
Resolution: 35000
Column name: Acclaim RSLC C18 2.2um, 2.1x100mm, Thermo
Retention time: 10.873 min
Base peak: 150.1127
Precursor m/z: 412.1919
Precursor type: [M+H]+
m/z	relative intensity	assigned
123.0436	17	C7H7O2+
141.0545	34	C7H9O3+
212.0906	13	C10H14NO4+
223.0807	11	C15H10FN+
224.088	419	C15H11FN+
225.0917	56	C14[13]CH11FN+
238.1044	9	C16H13FN+
254.1368	37	C13H20NO4+
255.1407	12	C17H18FN+
264.1198	11	C18H15FN+
266.1353	999	C18H17FN+
267.1387	204	C17[13]CH17FN+
280.151	87	C19H19FN+
281.1588	18	C19H20FN+
290.135	13	C20H17FN+
306.1668	15	C21H21FN+
352.1346	30	C21H19FNO3+
353.142	11	C21H20FNO3+
370.1483	60	C21H21FNO4+
371.148	24	C24H21NO3+
376.1776	23	C24H23FNO2+
377.1755	14	C24H25O4+
394.1823	151	C24H25FNO3+
395.1873	40	C23[13]CH25FNO3+
411.1829	14	C24H26FNO4+
412.1935	294	C24H27FNO4+
413.1962	87	C23[13]CH27FNO4+
