Mass spectrum: 2-Hydroxybenzothiazole; LC-ESI-QTOF; MS2; CE: 30 eV; R=35000; [M+H]+
Name: 2-Hydroxybenzothiazole
Name: Benzothiazolone
Name: 3H-1,3-benzothiazol-2-one
Formula: C7H5NOS
Exact mass: 151.0091848
SMILES: c1ccc2c(c1)nc(s2)O
InChI: InChI=1S/C7H5NOS/c9-7-8-5-3-1-2-4-6(5)10-7/h1-4H,(H,8,9)
Instrument: Bruker maXis Impact
Instrument type: LC-ESI-QTOF
Ms type: MS2
Ion mode: POSITIVE
Ionization: ESI
Fragmentation mode: CID
Collision energy: 30 eV
Resolution: 35000
Column name: Acclaim RSLC C18 2.2um, 2.1x100mm, Thermo
Retention time: 6.484 min
Base peak: 152.0166
Precursor m/z: 152.0165
Precursor type: [M+H]+
m/z	relative intensity	assigned
119.0372	540	C7H5NO+
124.0217	999	C6H6NS+
126.0157	112	C6H6OS+
134.0053	202	C7H4NS+
152.0166	873	C7H6NOS+
