Mass spectrum: TDCPP; LC-ESI-QTOF; MS2; CE: 50 eV; R=35000; [M+H]+
Name: TDCPP
Name: Tris(1,3-dichloro-2-propyl)phosphate
Name: tris(1,3-dichloropropan-2-yl) phosphate
Formula: C9H15Cl6O4P
Exact mass: 427.8839117
SMILES: ClCC(CCl)OP(=O)(OC(CCl)CCl)OC(CCl)CCl
InChI: InChI=1S/C9H15Cl6O4P/c10-1-7(2-11)17-20(16,18-8(3-12)4-13)19-9(5-14)6-15/h7-9H,1-6H2
Instrument: Bruker maXis Impact
Instrument type: LC-ESI-QTOF
Ms type: MS2
Ion mode: POSITIVE
Ionization: ESI
Fragmentation mode: CID
Collision energy: 50 eV
Resolution: 35000
Column name: Acclaim RSLC C18 2.2um, 2.1x100mm, Thermo
Retention time: 12.762 min
Base peak: 369.1239
Precursor m/z: 428.8912
Precursor type: [M+H]+
m/z	relative intensity	assigned
153.0696	107	C6H14ClO2+
165.0687	685	C7H14ClO2+
166.0766	999	C7H15ClO2+
167.0817	215	C6H16O3P+
178.0763	74	C8H15ClO2+
179.0845	122	C8H16ClO2+
