Mass spectrum: Carboline; LC-ESI-QTOF; MS2; CE: 40 eV; R=35000; [M+H]+
Name: Carboline
Name: 9H-pyrido[2,3-b]indole
Formula: C11H8N2
Exact mass: 168.0687483
SMILES: N1C2=C(C=CC=C2)C2=C1N=CC=C2
InChI: InChI=1S/C11H8N2/c1-2-6-10-8(4-1)9-5-3-7-12-11(9)13-10/h1-7H,(H,12,13)
Instrument: Bruker maXis Impact
Instrument type: LC-ESI-QTOF
Ms type: MS2
Ion mode: POSITIVE
Ionization: ESI
Fragmentation mode: CID
Collision energy: 40 eV
Resolution: 35000
Column name: Acclaim RSLC C18 2.2um, 2.1x100mm, Thermo
Retention time: 8.688 min
Base peak: 169.0754
Precursor m/z: 169.076
Precursor type: [M+H]+
m/z	relative intensity	assigned
113.038	6	C9H5+
114.0456	14	C9H6+
115.0538	165	C9H7+
116.0555	17	C8[13]CH7+
117.0564	12	C8H7N+
128.0485	8	C9H6N+
129.056	8	C9H7N+
140.0486	179	C10H6N+
141.0561	167	C10H7N+
142.0636	79	C10H8N+
143.0662	7	C9[13]CH8N+
152.0481	9	C11H6N+
166.0513	8	C11H6N2+
167.0593	59	C11H7N2+
168.0673	999	C11H8N2+
169.0744	516	C11H9N2+
170.0776	44	C10[13]CH9N2+
