Mass spectrum: Propyzamide; LC-ESI-QTOF; MS2; CE: 10 eV; R=35000; [M-H]-
Name: Propyzamide
Name: 3,5-dichloro-N-(2-methylbut-3-yn-2-yl)benzamide
Formula: C12H11Cl2NO
Exact mass: 255.0217693
SMILES: CC(C)(NC(=O)C1=CC(Cl)=CC(Cl)=C1)C#C
InChI: InChI=1S/C12H11Cl2NO/c1-4-12(2,3)15-11(16)8-5-9(13)7-10(14)6-8/h1,5-7H,2-3H3,(H,15,16)
Instrument: Bruker maXis Impact
Instrument type: LC-ESI-QTOF
Ms type: MS2
Ion mode: NEGATIVE
Ionization: ESI
Fragmentation mode: CID
Collision energy: 10 eV
Resolution: 35000
Column name: Acclaim RSLC C18 2.2um, 2.1x100mm, Thermo
Retention time: 9.711 min
Base peak: 254.0146
Precursor m/z: 254.0145
Precursor type: [M-H]-
m/z	relative intensity	assigned
144.9614	107	C6H3Cl2-
146.9575	57	C6H3Cl[37]Cl-
186.9747	21	C8H5Cl2O-
188.9694	14	C8H5Cl[37]ClO-
212.9714	16	C9H5Cl2NO-
212.9785	13	C9H5Cl2NO-
214.9755	13	C9H5Cl[37]ClNO-
227.9979	999	C10H8Cl2NO-
229.0008	126	C9[13]CH8Cl2NO-
229.9953	544	C10H8Cl[37]ClNO-
254.0135	588	C12H10Cl2NO-
255.0171	111	C11[13]CH10Cl2NO-
256.0103	394	C12H10Cl[37]ClNO-
