Mass spectrum: 4-Fluorobenzoylpropionic acid; LC-ESI-QTOF; MS2; CE: 40 eV; R=35000; [M+H]+
Name: 4-Fluorobenzoylpropionic acid
Name: 3-(4-Fluorobenzoyl)propionic acid
Name: 4-(4-fluorophenyl)-4-oxobutanoic acid
Formula: C10H9FO3
Exact mass: 196.0535724
SMILES: OC(=O)CCC(=O)C1=CC=C(F)C=C1
InChI: InChI=1S/C10H9FO3/c11-8-3-1-7(2-4-8)9(12)5-6-10(13)14/h1-4H,5-6H2,(H,13,14)
Instrument: Bruker maXis Impact
Instrument type: LC-ESI-QTOF
Ms type: MS2
Ion mode: POSITIVE
Ionization: ESI
Fragmentation mode: CID
Collision energy: 40 eV
Resolution: 35000
Column name: Acclaim RSLC C18 2.2um, 2.1x100mm, Thermo
Retention time: 6.093 min
Base peak: 197.0597
Precursor m/z: 197.0608
Precursor type: [M+H]+
m/z	relative intensity	assigned
121.044	72	C8H6F+
123.0233	999	C10H3+
124.0268	109	C9[13]CH3+
133.0438	195	C9H6F+
