Mass spectrum: Triclabendazole; LC-ESI-QTOF; MS2; CE: 50 eV; R=35000; [M+H]+
Name: Triclabendazole
Name: 6-chloro-5-(2,3-dichlorophenoxy)-2-methylsulfanyl-1H-benzimidazole
Formula: C14H9Cl3N2OS
Exact mass: 357.9501169
SMILES: CSc1[nH]c2cc(c(cc2n1)Oc3cccc(c3Cl)Cl)Cl
InChI: InChI=1S/C14H9Cl3N2OS/c1-21-14-18-9-5-8(16)12(6-10(9)19-14)20-11-4-2-3-7(15)13(11)17/h2-6H,1H3,(H,18,19)
Instrument: Bruker maXis Impact
Instrument type: LC-ESI-QTOF
Ms type: MS2
Ion mode: POSITIVE
Ionization: ESI
Fragmentation mode: CID
Collision energy: 50 eV
Resolution: 35000
Column name: Acclaim RSLC C18 2.2um, 2.1x100mm, Thermo
Retention time: 11.8 min
Base peak: 334.0617
Precursor m/z: 358.9574
Precursor type: [M+H]+
m/z	relative intensity	assigned
148.0083	11	C7H4N2S+
163.0323	56	C8H7N2S+
165.0206	78	C11H3NO+
167.0184	12	C5H10ClNOS+
170.9774	126	C9HNOS+
172.9732	17	C9[37]ClN2+
182.9778	16	C7H4ClN2S+
196.9923	16	C10H7Cl2+
198.0017	39	C8H7ClN2S+
198.9725	315	C7H4ClN2OS+
199.9743	16	C9[13]CClN2O+
200.9695	53	C7H4[37]ClN2OS+
229.9894	11	C14H2N2S+
239.0259	11	C13H7N2OS+
242.0245	75	C13H7ClN2O+
244.0193	10	C10H10Cl2N2O+
250.9899	80	C12H7Cl2NO+
251.9948	12	C12H8Cl2NO+
252.9873	32	C12H7Cl[37]ClNO+
272.9881	28	C13H6ClN2OS+
273.9961	999	C13H7ClN2OS+
274.9995	92	C12[13]CH7ClN2OS+
275.9923	181	C13H7[37]ClN2OS+
276.9949	48	C12[13]CH7[37]ClN2OS+
280.9709	22	C12H7Cl2N2S+
307.9586	18	C13H6Cl2N2OS+
308.9657	33	C13H7Cl2N2OS+
309.963	10	C14H7Cl3NO+
343.934	69	C13H7Cl3N2OS+
