Mass spectrum: Clobetasol propionate; LC-ESI-QTOF; MS2; CE: 20 eV; R=35000; [M+H]+
Name: Clobetasol propionate
Name: [(8S,9R,10S,11S,13S,14S,16S,17R)-17-(2-chloroacetyl)-9-fluoro-11-hydroxy-10,13,16-trimethyl-3-oxo-6,7,8,11,12,14,15,16-octahydrocyclopenta[a]phenanthren-17-yl] propanoate
Formula: C25H32ClFO5
Exact mass: 466.1922300
SMILES: CCC(=O)O[C@@]1([C@@H](C)C[C@H]2[C@@H]3CCC4=CC(=O)C=C[C@]4(C)[C@@]3(F)[C@@H](O)C[C@]12C)C(=O)CCl
InChI: InChI=1S/C25H32ClFO5/c1-5-21(31)32-25(20(30)13-26)14(2)10-18-17-7-6-15-11-16(28)8-9-22(15,3)24(17,27)19(29)12-23(18,25)4/h8-9,11,14,17-19,29H,5-7,10,12-13H2,1-4H3/t14-,17-,18-,19-,22-,23-,24-,25-/m0/s1
Instrument: Bruker maXis Impact
Instrument type: LC-ESI-QTOF
Ms type: MS2
Ion mode: POSITIVE
Ionization: ESI
Fragmentation mode: CID
Collision energy: 20 eV
Resolution: 35000
Column name: Acclaim RSLC C18 2.2um, 2.1x100mm, Thermo
Retention time: 10.647 min
Base peak: 467.1992
Precursor m/z: 467.1995
Precursor type: [M+H]+
m/z	relative intensity	assigned
119.0856	10	C9H11+
121.064	29	C8H9O+
121.1008	37	C9H13+
133.0401	16	C6H10ClO+
133.0631	5	C3H14ClO3+
133.1003	30	CH19ClFO3+
135.0384	5	C6H10[37]ClO+
135.0795	45	ClFH17O4+
137.0951	9	ClFH19O4+
143.0613	11	C8H12Cl+
143.0848	7	C2H17ClFO3+
145.0395	5	C7H10ClO+
145.062	12	C4H14ClO3+
145.0995	6	C5H18ClO2+
147.0795	213	C10H11O+
148.0827	17	C9[13]CH11O+
149.0946	21	CH19ClFO4+
157.0765	10	C9H14Cl+
157.1012	6	C12H13+
159.0564	4	C8H12ClO+
159.0793	58	C11H11O+
160.0832	9	C10[13]CH11O+
161.058	10	C4H14ClO4+
161.0954	60	C11H13O+
162.0982	8	C10[13]CH13O+
163.0742	8	CH17ClFO5+
167.0611	27	C10H12Cl+
169.0408	6	C9H10ClO+
169.0602	11	C10H12[37]Cl+
169.0774	18	C10H14Cl+
171.056	85	C9H12ClO+
171.079	142	C12H11O+
171.1159	12	C4H21ClFO3+
172.0591	8	C8[13]CH12ClO+
172.0827	18	C11[13]CH11O+
173.0534	25	C9H12[37]ClO+
173.0947	91	C12H13O+
174.0989	11	C11[13]CH13O+
175.0917	10	C12H12F+
175.1097	6	C6H20ClO3+
177.0898	17	C2H19ClFO5+
179.1058	9	C2H21ClFO5+
183.0557	17	C10H12ClO+
183.078	7	C7H16ClO3+
185.0719	161	C10H14ClO+
185.0951	164	C7H18ClO3+
186.0759	16	C9[13]CH14ClO+
186.0984	19	C6[13]CH18ClO3+
187.0737	183	C12H11O2+
187.111	16	C4H21ClFO4+
188.0767	21	C11[13]CH11O2+
189.0898	28	C3H19ClFO5+
193.0764	27	C9H15ClFO+
195.0562	15	C11H12ClO+
195.076	9	C9H15[37]ClFO+
197.0714	15	C11H14ClO+
197.0948	14	C5H19ClFO4+
199.0736	19	C7H16ClO4+
199.1112	13	C5H21ClFO4+
203.106	36	C4H21ClFO5+
209.0956	15	C15H13O+
211.111	23	C6H21ClFO4+
213.067	35	C11H14ClO2+
213.0889	10	C8H18ClO4+
213.1268	103	C15H17O+
214.1305	15	C14[13]CH17O+
215.0636	12	C11H14[37]ClO2+
215.1061	6	C5H21ClFO5+
221.0953	14	C7H19ClFO4+
223.111	53	C16H15O+
224.1171	15	C15[13]CH15O+
225.1254	11	C10H22ClO3+
227.1068	5	C15H15O2+
227.1424	16	C7H25ClFO4+
235.1106	11	C8H21ClFO4+
237.127	21	C17H17O+
239.1064	7	C16H15O2+
239.1425	28	C17H19O+
240.1458	5	C16[13]CH19O+
241.1224	28	C13H18FO3+
241.158	38	C17H21O+
242.1283	5	C12[13]CH18FO3+
242.1621	5	C16[13]CH21O+
247.0876	7	C15H16ClO+
248.1189	6	C9H22ClFO4+
249.1267	22	C18H17O+
250.1312	5	C17[13]CH17O+
251.0832	15	C14H16ClO2+
251.1423	13	C9H25ClFO4+
253.1583	137	C18H21O+
254.1615	28	C17[13]CH21O+
261.0666	6	C15H14ClO2+
261.126	17	C10H23ClFO4+
261.1632	8	C11H27ClFO3+
262.1322	7	C13H23ClO3+
263.1427	379	C19H19O+
264.1462	74	C18[13]CH19O+
265.1517	9	C17[13]C2H19O+
267.1371	23	C18H19O2+
267.1737	26	C13H28ClO3+
268.1408	5	C17[13]CH19O2+
268.1766	6	C12[13]CH28ClO3+
271.0906	5	C14H17ClFO2+
273.125	5	C14H22ClO3+
273.1636	6	C21H21+
275.0833	9	C16H16ClO2+
275.1424	61	C17H20FO2+
276.1486	18	C16[13]CH20FO2+
277.1586	172	C20H21O+
278.1663	458	C20H22O+
279.1738	643	C20H23O+
280.177	104	C19[13]CH23O+
281.1532	36	C13H26ClO4+
281.1861	14	C18[13]C2H23O+
282.157	6	C12[13]CH26ClO4+
283.149	9	C13H26[37]ClO4+
286.1378	7	C18H19FO2+
287.1193	18	C18H20ClO+
288.1508	37	C21H20O+
289.1547	12	C20[13]CH20O+
291.1743	190	C21H23O+
292.1775	38	C20[13]CH23O+
293.1556	5	C17H22FO3+
295.1316	6	C13H24ClO5+
295.1686	23	C11H29ClFO5+
296.1749	28	C14H29ClO4+
297.102	5	C19H18ClO+
297.1832	20	C14H30ClO4+
301.1589	168	C22H21O+
302.162	37	C21[13]CH21O+
306.1616	38	C15H27ClO4+
307.1634	8	C14[13]CH27ClO4+
309.1851	104	C21H25O2+
310.188	22	C20[13]CH25O2+
311.12	12	C20H20ClO+
313.099	18	C16H19ClFO3+
313.1348	45	C20H22ClO+
314.1386	10	C19[13]CH22ClO+
315.1015	5	C16H19[37]ClFO3+
315.1348	14	C20H22[37]ClO+
319.1691	217	C22H23O2+
320.1726	56	C21[13]CH23O2+
321.1704	10	C20[13]C2H23O2+
327.151	191	C21H24ClO+
328.1537	45	C20[13]CH24ClO+
329.1481	63	C21H24[37]ClO+
330.1484	9	C19H22O5+
331.1298	8	C16H24ClO5+
337.135	172	C19H23ClFO2+
337.1792	35	C16H30ClO5+
338.1398	39	C18[13]CH23ClFO2+
338.1851	6	C15[13]CH30ClO5+
339.134	45	C19H23[37]ClFO2+
339.1754	6	C16H30[37]ClO5+
340.1358	8	C22H22ClF+
345.1609	126	C21H26ClO2+
346.1648	33	C20[13]CH26ClO2+
347.1583	45	C21H26[37]ClO2+
348.1625	7	C24H25Cl+
355.1464	999	C22H24ClO2+
356.1494	218	C21[13]CH24ClO2+
357.1434	286	C22H24[37]ClO2+
358.1465	38	C25H23Cl+
373.1568	523	C22H26ClO3+
374.1601	118	C21[13]CH26ClO3+
375.1543	177	C22H26[37]ClO3+
376.1563	28	C25H25ClO+
377.1493	9	C21H26ClO4+
391.1673	14	C22H28ClO4+
393.1633	7	C22H28[37]ClO4+
429.1824	9	C25H30ClO4+
447.1921	41	C25H32ClO5+
448.1959	11	C24[13]CH32ClO5+
449.1899	15	C25H32[37]ClO5+
467.1985	16	C25H33ClFO5+
469.1937	5	C25H33[37]ClFO5+
