Mass spectrum: Propanil; LC-ESI-QTOF; MS2; CE: 40 eV; R=35000; [M-H]-
Name: Propanil
Name: N-(3,4-dichlorophenyl)propanamide
Formula: C9H9Cl2NO
Exact mass: 217.0061193
SMILES: CCC(=O)NC1=CC(Cl)=C(Cl)C=C1
InChI: InChI=1S/C9H9Cl2NO/c1-2-9(13)12-6-3-4-7(10)8(11)5-6/h3-5H,2H2,1H3,(H,12,13)
Instrument: Bruker maXis Impact
Instrument type: LC-ESI-QTOF
Ms type: MS2
Ion mode: NEGATIVE
Ionization: ESI
Fragmentation mode: CID
Collision energy: 40 eV
Resolution: 35000
Column name: Acclaim RSLC C18 2.2um, 2.1x100mm, Thermo
Retention time: 9.372 min
Base peak: 215.9988
Precursor m/z: 215.9988
Precursor type: [M-H]-
m/z	relative intensity	assigned
159.9713	999	C6H4Cl2N-
161.9684	629	C6H4Cl[37]ClN-
