Mass spectrum: Perfluorohexanoic acid (PFHxA); LC-ESI-QTOF; MS2; CE: 10 eV; R=35000; [M-H]-
Name: Perfluorohexanoic acid (PFHxA)
Name: Perfluorohexanoic acid
Name: 2,2,3,3,4,4,5,5,6,6,6-undecafluorohexanoic acid
Formula: C6HF11O2
Exact mass: 313.9801
SMILES: C(=O)(C(C(C(C(C(F)(F)F)(F)F)(F)F)(F)F)(F)F)O
InChI: InChI=1S/C6HF11O2/c7-2(8,1(18)19)3(9,10)4(11,12)5(13,14)6(15,16)17/h(H,18,19)
Instrument: Bruker maXis Impact
Instrument type: LC-ESI-QTOF
Ms type: MS2
Ion mode: NEGATIVE
Ionization: ESI
Fragmentation mode: CID
Collision energy: 10 eV
Resolution: 35000
Column name: Acclaim RSLC C18 2.2um, 2.1x100mm, Thermo
Retention time: 7.738 min
Base peak: 312.972
Precursor m/z: 312.9728
Precursor type: [M-H]-
m/z	relative intensity
268.983	999
312.9717	25
