Mass spectrum: 4-Hydroxyquinoline; LC-ESI-QTOF; MS2; CE: 10 eV; R=35000; [M+H]+
Name: 4-Hydroxyquinoline
Name: 1H-quinolin-4-one
Formula: C9H7NO
Exact mass: 145.0527638
SMILES: OC1=CC=NC2=CC=CC=C12
InChI: InChI=1S/C9H7NO/c11-9-5-6-10-8-4-2-1-3-7(8)9/h1-6H,(H,10,11)
Instrument: Bruker maXis Impact
Instrument type: LC-ESI-QTOF
Ms type: MS2
Ion mode: POSITIVE
Ionization: ESI
Fragmentation mode: CID
Collision energy: 10 eV
Resolution: 35000
Column name: Acclaim RSLC C18 2.2um, 2.1x100mm, Thermo
Retention time: 4.064 min
Base peak: 146.0594
Precursor m/z: 146.06
Precursor type: [M+H]+
m/z	relative intensity	assigned
146.0595	999	C9H8NO+
147.0624	105	C8[13]CH8NO+
148.0652	6	C7[13]C2H8NO+
