Mass spectrum: Tebuconazole; LC-ESI-QTOF; MS2; CE: 20 eV; R=35000; [M+H]+
Name: Tebuconazole
Name: 1-(4-chlorophenyl)-4,4-dimethyl-3-(1,2,4-triazol-1-ylmethyl)pentan-3-ol
Formula: C16H22ClN3O
Exact mass: 307.1451400
SMILES: CC(C)(C)C(O)(CCC1=CC=C(Cl)C=C1)CN1C=NC=N1
InChI: InChI=1S/C16H22ClN3O/c1-15(2,3)16(21,10-20-12-18-11-19-20)9-8-13-4-6-14(17)7-5-13/h4-7,11-12,21H,8-10H2,1-3H3
Instrument: Bruker maXis Impact
Instrument type: LC-ESI-QTOF
Ms type: MS2
Ion mode: POSITIVE
Ionization: ESI
Fragmentation mode: CID
Collision energy: 20 eV
Resolution: 35000
Column name: Acclaim RSLC C18 2.2um, 2.1x100mm, Thermo
Retention time: 10.918 min
Base peak: 308.1521
Precursor m/z: 308.1524
Precursor type: [M+H]+
m/z	relative intensity	assigned
125.0144	20	C7H6Cl+
127.011	5	C7H6[37]Cl+
139.0298	6	C9H3N2+
151.0296	24	C9H8Cl+
153.0263	5	C9H8[37]Cl+
165.0452	10	C11H5N2+
308.1523	999	C16H23ClN3O+
309.1551	157	C15[13]CH23ClN3O+
310.1496	270	C16H23[37]ClN3O+
