Mass spectrum: Triphenylphosphate; LC-ESI-QTOF; MS2; CE: 50 eV; R=35000; [M+H]+
Name: Triphenylphosphate
Name: triphenyl phosphate
Formula: C18H15O4P
Exact mass: 326.0707956
SMILES: O=P(OC1=CC=CC=C1)(OC1=CC=CC=C1)OC1=CC=CC=C1
InChI: InChI=1S/C18H15O4P/c19-23(20-16-10-4-1-5-11-16,21-17-12-6-2-7-13-17)22-18-14-8-3-9-15-18/h1-15H
Instrument: Bruker maXis Impact
Instrument type: LC-ESI-QTOF
Ms type: MS2
Ion mode: POSITIVE
Ionization: ESI
Fragmentation mode: CID
Collision energy: 50 eV
Resolution: 35000
Column name: Acclaim RSLC C18 2.2um, 2.1x100mm, Thermo
Retention time: 11.058 min
Base peak: 327.0778
Precursor m/z: 327.0781
Precursor type: [M+H]+
m/z	relative intensity	assigned
115.0534	6	C9H7+
126.0454	7	C10H6+
127.0539	12	C10H7+
133.02	10	C8H6P+
138.9933	27	C6H4O2P+
139.0533	11	C11H7+
141.0685	24	C4H14O3P+
142.0745	6	C4H15O3P+
145.0638	11	C10H9O+
150.046	27	C12H6+
151.0528	44	C5H12O3P+
152.0613	999	C12H8+
153.0673	252	C5H14O3P+
154.0719	19	C4[13]CH14O3P+
155.06	26	C8H12OP+
157.0043	9	C6H6O3P+
159.0357	9	C10H8P+
168.0562	372	C12H8O+
169.0627	132	C12H9O+
170.0686	23	C11[13]CH9O+
175.0148	65	C6H8O4P+
176.0152	5	C5[13]CH8O4P+
179.0589	55	C10H12OP+
187.03	49	C11H8OP+
188.0341	10	C11H9OP+
202.0764	26	C16H10+
203.0824	7	C15[13]CH10+
215.0252	101	C12H8O2P+
216.0273	18	C11[13]CH8O2P+
226.0772	35	C18H10+
227.0847	63	C18H11+
228.0921	108	C18H12+
229.0959	24	C17[13]CH12+
233.0358	149	C12H10O3P+
234.038	19	C11[13]CH10O3P+
244.0883	7	C18H12O+
245.0918	5	C18H13O+
251.0461	58	C12H12O4P+
252.052	10	C11[13]CH12O4P+
