Mass spectrum: Fenoxycarb; LC-ESI-QTOF; MS2; CE: 30 eV; R=35000; [M+H]+
Name: Fenoxycarb
Name: ethyl N-[2-(4-phenoxyphenoxy)ethyl]carbamate
Formula: C17H19NO4
Exact mass: 301.1314081
SMILES: CCOC(=O)NCCOC1=CC=C(OC2=CC=CC=C2)C=C1
InChI: InChI=1S/C17H19NO4/c1-2-20-17(19)18-12-13-21-14-8-10-16(11-9-14)22-15-6-4-3-5-7-15/h3-11H,2,12-13H2,1H3,(H,18,19)
Instrument: Bruker maXis Impact
Instrument type: LC-ESI-QTOF
Ms type: MS2
Ion mode: POSITIVE
Ionization: ESI
Fragmentation mode: CID
Collision energy: 30 eV
Resolution: 35000
Column name: Acclaim RSLC C18 2.2um, 2.1x100mm, Thermo
Retention time: 10.634 min
Base peak: 317.1641
Precursor m/z: 302.1387
Precursor type: [M+H]+
m/z	relative intensity	assigned
115.053	29	C9H7+
116.0699	82	C5H10NO2+
116.1057	22	C6H14NO+
118.0408	78	C8H6O+
118.0642	24	C8H8N+
119.0477	55	C8H7O+
120.0566	174	C8H8O+
128.0609	49	C10H8+
129.0691	149	C10H9+
130.1219	152	C7H16NO+
132.0941	19	C10H12+
133.0286	32	C8H5O2+
134.0348	118	C8H6O2+
135.0413	21	C8H7O2+
135.0673	27	C8H9NO+
141.0691	166	C11H9+
144.0555	23	C10H8O+
145.0623	32	C10H9O+
146.0595	39	C9H8NO+
147.0619	18	C6H11O4+
147.1155	292	C11H15+
148.1192	18	C10[13]CH15+
152.0619	47	C12H8+
153.0679	21	C12H9+
155.0606	23	C7H9NO3+
155.0841	31	C12H11+
157.063	76	C11H9O+
157.0993	37	C12H13+
158.07	33	C11H10O+
159.0791	29	C11H11O+
161.1314	16	C12H17+
162.0533	25	C9H8NO2+
163.0616	691	C9H9NO2+
164.0643	77	C8[13]CH9NO2+
165.0691	132	C13H9+
166.074	35	C13H10+
167.0844	155	C13H11+
168.0539	15	C12H8O+
168.0864	29	C12[13]CH11+
169.0634	233	C12H9O+
170.0704	53	C12H10O+
171.0781	21	C12H11O+
177.0682	67	C14H9+
178.0489	29	C9H8NO3+
178.0733	17	C14H10+
181.0642	23	C13H9O+
182.0685	20	C13H10O+
183.0801	313	C13H11O+
184.0811	54	C12[13]CH11O+
185.0588	485	C12H9O2+
185.0949	113	C13H13O+
186.0663	698	C12H10O2+
187.0728	319	C12H11O2+
188.0757	39	C11[13]CH11O2+
193.0701	62	C10H11NO3+
194.0745	28	C14H10O+
195.0802	201	C14H11O+
196.0822	27	C13[13]CH11O+
197.0691	40	C9H11NO4+
198.0669	87	C13H10O2+
199.0717	31	C13H11O2+
211.0744	361	C14H11O2+
213.0538	999	C16H7N+
213.0899	227	C14H13O2+
214.0582	134	C15[13]CH7N+
214.0926	49	C13[13]CH13O2+
215.0611	20	C14[13]C2H7N+
221.0707	37	C11H11NO4+
223.0867	23	C11H13NO4+
238.0867	118	C15H12NO2+
239.0891	33	C14[13]CH12NO2+
256.096	868	C15H14NO3+
257.0998	190	C14[13]CH14NO3+
