Mass spectrum: Ritonavir; LC-ESI-QTOF; MS2; CE: 40 eV; R=35000; [M+H]+
Name: Ritonavir
Name: 1,3-thiazol-5-ylmethyl N-[(2S,3S,5S)-3-hydroxy-5-[[(2S)-3-methyl-2-[[methyl-[(2-propan-2-yl-1,3-thiazol-4-yl)methyl]carbamoyl]amino]butanoyl]amino]-1,6-diphenylhexan-2-yl]carbamate
Formula: C37H48N6O5S2
Exact mass: 720.3127606
SMILES: CC(C)c1nc(cs1)CN(C)/C(=N\[C@@H](C(C)C)/C(=N\[C@@H](Cc2ccccc2)C[C@@H]([C@H](Cc3ccccc3)/N=C(\O)/OCc4cncs4)O)/O)/O
InChI: InChI=1S/C37H48N6O5S2/c1-24(2)33(42-36(46)43(5)20-29-22-49-35(40-29)25(3)4)34(45)39-28(16-26-12-8-6-9-13-26)18-32(44)31(17-27-14-10-7-11-15-27)41-37(47)48-21-30-19-38-23-50-30/h6-15,19,22-25,28,31-33,44H,16-18,20-21H2,1-5H3,(H,39,45)(H,41,47)(H,42,46)/t28-,31-,32-,33-/m0/s1
Instrument: Bruker maXis Impact
Instrument type: LC-ESI-QTOF
Ms type: MS2
Ion mode: POSITIVE
Ionization: ESI
Fragmentation mode: CID
Collision energy: 40 eV
Resolution: 35000
Column name: Acclaim RSLC C18 2.2um, 2.1x100mm, Thermo
Retention time: 11.009 min
Base peak: 721.3224
Precursor m/z: 721.32
Precursor type: [M+H]+
m/z	relative intensity	assigned
140.053	175	C7H10NS+
141.0557	11	C6[13]CH10NS+
169.0793	8	C8H13N2S+
171.0955	379	C2H21NO3S2+
173.0913	8	C8H15N2[34]S+
197.0752	489	C3H19NO4S2+
250.1597	26	C12H26O3S+
251.1628	5	C11[13]CH26O3S+
268.1491	999	C15H24O2S+
269.1519	127	C14[13]CH24O2S+
296.1442	196	C16H24O3S+
297.1468	30	C15[13]CH24O3S+
311.176	10	C13H29NO5S+
347.1584	12	C16H29NO3S2+
365.1695	14	C16H23N5O5+
382.1965	12	C17H30N6S2+
408.176	7	C18H28N6OS2+
426.1866	47	C18H30N6O2S2+
427.19	12	C17[13]CH30N6O2S2+
489.2332	4	C30H35NO3S+
507.2443	8	C30H37NO4S+
