Mass spectrum: Gabapentin; LC-ESI-QTOF; MS2; CE: 20 eV; R=35000; [M+H]+
Name: Gabapentin
Name: 2-[1-(aminomethyl)cyclohexyl]acetic acid
Formula: C9H17NO2
Exact mass: 171.1259288
SMILES: NCC1(CC(O)=O)CCCCC1
InChI: InChI=1S/C9H17NO2/c10-7-9(6-8(11)12)4-2-1-3-5-9/h1-7,10H2,(H,11,12)
Instrument: Bruker maXis Impact
Instrument type: LC-ESI-QTOF
Ms type: MS2
Ion mode: POSITIVE
Ionization: ESI
Fragmentation mode: CID
Collision energy: 20 eV
Resolution: 35000
Column name: Acclaim RSLC C18 2.2um, 2.1x100mm, Thermo
Retention time: 3.7 min
Base peak: 172.1322
Precursor m/z: 172.1332
Precursor type: [M+H]+
m/z	relative intensity	assigned
119.085	134	C9H11+
120.0875	13	C4H12N2O2+
126.1263	26	C8H16N+
136.111	70	C9H14N+
137.0956	799	C9H13O+
138.0993	57	C4H14N2O3+
154.1216	999	C9H16NO+
155.1055	38	C9H15O2+
155.1249	86	C4H17N3O3+
156.1256	9	C8H16N2O+
172.1323	183	C9H18NO2+
