Mass spectrum: Celecoxib; LC-ESI-QTOF; MS2; CE: 40 eV; R=35000; [M-H]-
Name: Celecoxib
Name: 4-[5-(4-methylphenyl)-3-(trifluoromethyl)pyrazol-1-yl]benzenesulfonamide
Formula: C17H14F3N3O2S
Exact mass: 381.0758823
SMILES: CC1=CC=C(C=C1)C1=CC(=NN1C1=CC=C(C=C1)S(N)(=O)=O)C(F)(F)F
InChI: InChI=1S/C17H14F3N3O2S/c1-11-2-4-12(5-3-11)15-10-16(17(18,19)20)22-23(15)13-6-8-14(9-7-13)26(21,24)25/h2-10H,1H3,(H2,21,24,25)
Instrument: Bruker maXis Impact
Instrument type: LC-ESI-QTOF
Ms type: MS2
Ion mode: NEGATIVE
Ionization: ESI
Fragmentation mode: CID
Collision energy: 40 eV
Resolution: 35000
Column name: Acclaim RSLC C18 2.2um, 2.1x100mm, Thermo
Retention time: 10.258 min
Base peak: 380.0674
Precursor m/z: 380.0686
Precursor type: [M-H]-
m/z	relative intensity	assigned
130.054	190	C8H6N2-
139.0327	292	C3H5F2N2O2-
159.0368	746	C9H4FN2-
179.0417	694	C6H10FNO2S-
198.0399	204	C9H9FNOS-
221.0952	204	C14H11N3-
225.0616	999	C14H11NS-
247.1106	769	C16H13N3-
249.084	272	C13H11F2N2O-
256.0875	206	C17H10N3-
275.0872	181	C14H11F2N3O-
276.094	994	C15H11F3N2-
277.0904	224	C14[13]CH11F3N2-
296.096	324	C17H13FN2O2-
316.106	404	C17H13F3N3-
