Mass spectrum: Fosinopril; LC-ESI-QTOF; MS2; CE: 30 eV; R=35000; [M+H]+
Name: Fosinopril
Name: (2S,4S)-4-cyclohexyl-1-[2-[(2-methyl-1-propanoyloxypropoxy)-(4-phenylbutyl)phosphoryl]acetyl]pyrrolidine-2-carboxylic acid
Formula: C30H46NO7P
Exact mass: 563.3011894
SMILES: O=C(CP(=O)(CCCCc1ccccc1)OC(OC(=O)CC)C(C)C)N2C[C@@H](C[C@H]2C(O)=O)C3CCCCC3
InChI: InChI=1S/C30H46NO7P/c1-4-28(33)37-30(22(2)3)38-39(36,18-12-11-15-23-13-7-5-8-14-23)21-27(32)31-20-25(19-26(31)29(34)35)24-16-9-6-10-17-24/h5,7-8,13-14,22,24-26,30H,4,6,9-12,15-21H2,1-3H3,(H,34,35)/t25-,26+,30?,39?/m1/s1
Instrument: Bruker maXis Impact
Instrument type: LC-ESI-QTOF
Ms type: MS2
Ion mode: POSITIVE
Ionization: ESI
Fragmentation mode: CID
Collision energy: 30 eV
Resolution: 35000
Column name: Acclaim RSLC C18 2.2um, 2.1x100mm, Thermo
Retention time: 12.304 min
Base peak: 564.3119
Precursor m/z: 564.3085
Precursor type: [M+H]+
m/z	relative intensity	assigned
133.086	19	C6H13O3+
152.1438	193	C10H18N+
153.147	18	C9[13]CH18N+
177.1121	10	C8H17O4+
194.1544	5	C12H20NO+
197.072	5	C10H14O2P+
198.15	6	C11H20NO2+
221.0731	11	C12H14O2P+
372.2116	53	C19H32O7+
373.2146	14	C18[13]CH32O7+
390.2224	875	C29H28N+
391.2254	193	C19H36O6P+
392.228	24	C18[13]CH36O6P+
418.2169	604	C30H28NO+
419.2203	149	C20H36O7P+
420.2225	17	C19[13]CH36O7P+
436.2278	999	C30H30NO2+
437.2317	207	C27H33O5+
438.2358	30	C26[13]CH33O5+
