Mass spectrum: Baquiloprim; LC-ESI-QTOF; MS2; CE: 50 eV; R=35000; [M+H]+
Name: Baquiloprim
Name: 5-[[8-(dimethylamino)-7-methylquinolin-5-yl]methyl]pyrimidine-2,4-diamine
Formula: C17H20N6
Exact mass: 308.1749446
SMILES: CC1=CC(=C2C=CC=NC2=C1N(C)C)CC3=CN=C(N=C3N)N
InChI: InChI=1S/C17H20N6/c1-10-7-11(8-12-9-21-17(19)22-16(12)18)13-5-4-6-20-14(13)15(10)23(2)3/h4-7,9H,8H2,1-3H3,(H4,18,19,21,22)
Instrument: Bruker maXis Impact
Instrument type: LC-ESI-QTOF
Ms type: MS2
Ion mode: POSITIVE
Ionization: ESI
Fragmentation mode: CID
Collision energy: 50 eV
Resolution: 35000
Column name: Acclaim RSLC C18 2.2um, 2.1x100mm, Thermo
Retention time: 3.5 min
Base peak: 309.1716
Precursor m/z: 309.1822
Precursor type: [M+H]+
m/z	relative intensity	assigned
123.0646	144	C5H7N4+
142.059	28	C3H6N6O+
143.0665	66	C3H7N6O+
144.0741	137	C3H8N6O+
145.0781	16	C9H9N2+
154.0546	199	C10H6N2+
155.0617	79	C10H7N2+
156.0702	104	C10H8N2+
157.0781	100	C10H9N2+
158.0853	84	C10H10N2+
159.0904	17	C10H11N2+
166.0542	15	C11H6N2+
167.0627	39	C11H7N2+
168.0695	23	C11H8N2+
169.073	76	C11H9N2+
170.0726	76	C10H8N3+
171.0815	308	C10H9N3+
172.0888	39	C10H10N3+
179.0505	12	C11H5N3+
180.0709	49	C12H8N2+
181.0786	29	C12H9N2+
182.0813	25	C12H10N2+
183.0817	95	C11H9N3+
184.0882	45	C11H10N3+
185.0969	108	C11H11N3+
186.1004	29	C11H12N3+
192.0579	51	C12H6N3+
193.0658	127	C12H7N3+
194.0726	23	C12H8N3+
195.0813	64	C12H9N3+
196.0845	21	C12H10N3+
196.0895	19	C12H10N3+
197.0985	14	C12H11N3+
205.0666	53	C13H7N3+
206.0748	66	C13H8N3+
207.0817	176	C13H9N3+
208.0872	30	C13H10N3+
209.0909	17	C13H11N3+
209.0971	15	C13H11N3+
210.0999	41	C13H12N3+
217.0669	49	C14H7N3+
218.075	49	C14H8N3+
219.0701	32	C13H7N4+
220.0779	347	C13H8N4+
221.0818	56	C12[13]CH8N4+
222.0917	39	C13H10N4+
223.1014	39	C13H11N4+
224.11	159	C13H12N4+
225.1144	21	C13H13N4+
232.0786	67	C14H8N4+
233.0847	36	C14H9N4+
234.0942	180	C14H10N4+
235.094	79	C14H11N4+
236.0903	29	C13H10N5+
236.1045	22	C14H12N4+
237.1048	288	C13H11N5+
238.1079	33	C12[13]CH11N5+
245.0741	66	C14H7N5+
246.0788	20	C14H8N5+
247.0884	44	C14H9N5+
248.0846	183	C13H8N6+
249.1034	169	C14H11N5+
250.101	122	C13H10N6+
251.1198	62	C14H13N5+
252.1143	23	C13H12N6+
259.0891	129	C15H9N5+
260.0958	51	C15H10N5+
261.0927	96	C14H9N6+
262.0997	530	C14H10N6+
263.1034	129	C13[13]CH10N6+
264.1138	176	C14H12N6+
265.1234	162	C14H13N6+
266.1306	999	C14H14N6+
267.1344	120	C13[13]CH14N6+
274.0988	29	C15H10N6+
275.1061	22	C15H11N6+
276.1148	569	C15H12N6+
277.1187	137	C14[13]CH12N6+
278.1233	49	C15H14N6+
279.1316	712	C15H15N6+
291.1312	91	C16H15N6+
292.1392	51	C16H16N6+
293.1455	314	C16H17N6+
294.1492	56	C15[13]CH17N6+
307.163	17	C17H19N6+
