Mass spectrum: Ranitidine-S-oxide; LC-ESI-QTOF; MS2; CE: 50 eV; R=35000; [M+H]+
Name: Ranitidine-S-oxide
Formula: C13H22N4O4S
Exact mass: 330.1361762
SMILES: CN\C(NCCS(=O)CC1=CC=C(CN(C)C)O1)=C/[N+]([O-])=O
InChI: InChI=1S/C13H22N4O4S/c1-14-13(9-17(18)19)15-6-7-22(20)10-12-5-4-11(21-12)8-16(2)3/h4-5,9,14-15H,6-8,10H2,1-3H3/b13-9+
Instrument: Bruker maXis Impact
Instrument type: LC-ESI-QTOF
Ms type: MS2
Ion mode: POSITIVE
Ionization: ESI
Fragmentation mode: CID
Collision energy: 50 eV
Resolution: 35000
Column name: Acclaim RSLC C18 2.2um, 2.1x100mm, Thermo
Retention time: 1.8 min
Base peak: 331.1435
Precursor m/z: 331.1435
Precursor type: [M+H]+
m/z	relative intensity	assigned
110.0962	99	C7H12N+
121.0725	48	C2H9N4O2+
123.0666	51	C5H7N4+
125.0043	98	C4H3N3S+
129.0473	73	C5H9N2S+
130.0551	228	C5H10N2S+
131.0622	64	C2H13NO3S+
132.0434	55	C6H4N4+
138.0905	999	C8H12NO+
139.0934	79	C7[13]CH12NO+
146.0492	119	C2H12NO4S+
147.0581	50	C5H11N2OS+
148.0744	57	C7H8N4+
149.1068	54	CH17N4O2S+
191.1161	96	C8H17NO4+
192.0462	58	C8H8N4S+
