Mass spectrum: Dibutyl maleate; GC-APCI-QTOF; MS2; CE: 30 eV; R=35000; [M+H]+
Name: Dibutyl maleate
Formula: C12H20O4
Exact mass: 228.1362
SMILES: CCCCOC(=O)C=CC(=O)OCCCC
InChI: InChI=1S/C12H20O4/c1-3-5-9-15-11(13)7-8-12(14)16-10-6-4-2/h7-8H,3-6,9-10H2,1-2H3
Instrument: Bruker 450 GC coupled to maXis Impact
Instrument type: GC-APCI-QTOF
Ms type: MS2
Ion mode: POSITIVE
Ionization: APCI
Fragmentation mode: CID
Collision energy: 30 eV
Resolution: 35000
Column name: Rxi-5Sil MS column, 30m, 0.25mm i.d., 0.25Âµm film thickness, Restek
Retention time: 12.596 min
Base peak: 229.1425
Precursor m/z: 229.1434
Precursor type: [M+H]+
m/z	relative intensity	assigned
55.054	70	C4H7+
57.0705	311	C4H9+
99.0076	999	C4H3O3+
100.0137	53	C4H4O3+
117.0179	226	C4H5O4+
125.0599	50	C7H9O2+
139.039	43	C7H7O3+
141.0937	46	C8H13O2+
153.055	55	C8H9O3+
