Mass spectrum: 4-Acetamidoantipyrin; LC-ESI-QTOF; MS2; CE: 40 eV; R=35000; [M+H]+
Name: 4-Acetamidoantipyrin
Name: 4-Acetamidoantipyrine
Name: N-(1,5-dimethyl-3-oxo-2-phenylpyrazol-4-yl)acetamide
Formula: C13H15N3O2
Exact mass: 245.1164267
SMILES: CN1N(C(=O)C(NC(C)=O)=C1C)C1=CC=CC=C1
InChI: InChI=1S/C13H15N3O2/c1-9-12(14-10(2)17)13(18)16(15(9)3)11-7-5-4-6-8-11/h4-8H,1-3H3,(H,14,17)
Instrument: Bruker maXis Impact
Instrument type: LC-ESI-QTOF
Ms type: MS2
Ion mode: POSITIVE
Ionization: ESI
Fragmentation mode: CID
Collision energy: 40 eV
Resolution: 35000
Column name: Acclaim RSLC C18 2.2um, 2.1x100mm, Thermo
Retention time: 4.0 min
Base peak: 246.1231
Precursor m/z: 246.1237
Precursor type: [M+H]+
m/z	relative intensity	assigned
115.054	118	C9H7+
116.05	54	C8H6N+
117.0559	271	C8H7N+
118.0514	70	C7H6N2+
118.0644	366	C8H8N+
119.0596	490	C7H7N2+
120.0632	53	C2H8N4O2+
122.059	48	C7H8NO+
128.0486	733	C9H6N+
129.0527	78	C4H7N3O2+
130.0514	61	C8H6N2+
130.0643	805	C9H8N+
131.0596	754	C8H7N2+
132.0432	294	C8H6NO+
132.0679	158	C8H8N2+
132.0794	593	C9H10N+
133.0753	172	C8H9N2+
134.0608	48	C8H8NO+
142.0507	42	C9H6N2+
142.0641	157	C10H8N+
143.0588	455	C9H7N2+
144.0669	570	C9H8N2+
144.0799	861	C10H10N+
145.0394	116	C8H5N2O+
145.0749	945	C9H9N2+
146.0777	90	C4H10N4O2+
148.0592	39	C3H8N4O3+
155.0596	92	C10H7N2+
156.0677	91	C10H8N2+
157.0741	193	C10H9N2+
158.0465	217	C9H6N2O+
158.0581	169	C10H8NO+
158.0817	277	C10H10N2+
159.0536	323	C9H7N2O+
160.0741	69	C10H10NO+
161.0943	108	C9H11N3+
169.0742	89	C11H9N2+
170.0702	124	C10H8N3+
171.0537	878	C10H7N2O+
171.0769	47	C10H9N3+
171.0902	91	C11H11N2+
172.0616	999	C10H8N2O+
173.0679	258	C10H9N2O+
174.0689	42	C11H10O2+
184.0874	153	C11H10N3+
185.0695	533	C11H9N2O+
185.0922	55	C11H11N3+
186.0774	296	C11H10N2O+
187.0853	274	C11H11N2O+
188.0807	237	C10H10N3O+
189.0889	321	C10H11N3O+
190.092	41	C5H12N5O3+
198.0638	53	C11H8N3O+
200.0823	69	C11H10N3O+
204.1116	169	C11H14N3O+
212.0804	148	C12H10N3O+
213.0881	187	C12H11N3O+
226.098	91	C13H12N3O+
228.1122	170	C13H14N3O+
