Mass spectrum: N,N-Dimethyl-N'-phenylsulfamide; LC-ESI-QTOF; MS2; CE: 30 eV; R=35000; [M+H]+
Name: N,N-Dimethyl-N'-phenylsulfamide
Name: N-(Dimethylsulfamoyl)aniline
Name: (dimethylsulfamoylamino)benzene
Formula: C8H12N2O2S
Exact mass: 200.0619486
SMILES: CN(C)S(=O)(=O)NC1=CC=CC=C1
InChI: InChI=1S/C8H12N2O2S/c1-10(2)13(11,12)9-8-6-4-3-5-7-8/h3-7,9H,1-2H3
Instrument: Bruker maXis Impact
Instrument type: LC-ESI-QTOF
Ms type: MS2
Ion mode: POSITIVE
Ionization: ESI
Fragmentation mode: CID
Collision energy: 30 eV
Resolution: 35000
Column name: Acclaim RSLC C18 2.2um, 2.1x100mm, Thermo
Retention time: 6.1 min
Base peak: 201.0685
Precursor m/z: 201.0692
Precursor type: [M+H]+
m/z	relative intensity	assigned
120.0793	609	C8H10N+
121.0749	501	C7H9N2+
121.0874	277	C8H11N+
122.0832	999	C7H10N2+
135.0904	292	C8H11N2+
137.106	386	C8H13N2+
