Mass spectrum: Valsartan; LC-ESI-QTOF; MS2; CE: 10 eV; R=35000; [M+H]+
Name: Valsartan
Name: (2S)-3-methyl-2-[pentanoyl-[[4-[2-(2H-tetrazol-5-yl)phenyl]phenyl]methyl]amino]butanoic acid
Formula: C24H29N5O3
Exact mass: 435.2270398
SMILES: CCCCC(=O)N(CC1=CC=C(C=C1)C1=CC=CC=C1C1=NNN=N1)[C@@H](C(C)C)C(O)=O
InChI: InChI=1S/C24H29N5O3/c1-4-5-10-21(30)29(22(16(2)3)24(31)32)15-17-11-13-18(14-12-17)19-8-6-7-9-20(19)23-25-27-28-26-23/h6-9,11-14,16,22H,4-5,10,15H2,1-3H3,(H,31,32)(H,25,26,27,28)/t22-/m0/s1
Instrument: Bruker maXis Impact
Instrument type: LC-ESI-QTOF
Ms type: MS2
Ion mode: POSITIVE
Ionization: ESI
Fragmentation mode: CID
Collision energy: 10 eV
Resolution: 35000
Column name: Acclaim RSLC C18 2.2um, 2.1x100mm, Thermo
Retention time: 9.0 min
Base peak: 150.1116
Precursor m/z: 436.2343
Precursor type: [M+H]+
m/z	relative intensity	assigned
207.0924	40	C14H11N2+
235.0975	336	C14H11N4+
236.1006	74	C13[13]CH11N4+
291.1493	237	C19H19N2O+
292.1533	48	C18[13]CH19N2O+
306.1712	295	C18H20N5+
307.1732	72	C17[13]CH20N5+
352.1779	175	C21H24N2O3+
353.1802	34	C20[13]CH24N2O3+
362.2221	208	C23H28N3O+
363.2244	42	C22[13]CH28N3O+
364.2244	14	C22H28N4O+
408.228	461	C24H30N3O3+
409.2325	129	C23[13]CH30N3O3+
410.234	21	C23H30N4O3+
418.2243	475	C24H28N5O2+
419.2271	144	C23[13]CH28N5O2+
420.2276	18	C23H28N6O2+
436.2346	999	C24H30N5O3+
437.238	310	C23H29N6O3+
438.2407	41	C23H30N6O3+
