Mass spectrum: Metolachlor-ESA; LC-ESI-QTOF; MS2; CE: 40 eV; R=35000; [M+H]+
Name: Metolachlor-ESA
Name: Metolachlor esa
Name: 2-[2-ethyl-N-(1-methoxypropan-2-yl)-6-methylanilino]-2-oxoethanesulfonic acid
Formula: C15H23NO5S
Exact mass: 329.1296938
SMILES: CCC1=CC=CC(C)=C1N(C(C)COC)C(=O)CS(O)(=O)=O
InChI: InChI=1S/C15H23NO5S/c1-5-13-8-6-7-11(2)15(13)16(12(3)9-21-4)14(17)10-22(18,19)20/h6-8,12H,5,9-10H2,1-4H3,(H,18,19,20)
Instrument: Bruker maXis Impact
Instrument type: LC-ESI-QTOF
Ms type: MS2
Ion mode: POSITIVE
Ionization: ESI
Fragmentation mode: CID
Collision energy: 40 eV
Resolution: 35000
Column name: Acclaim RSLC C18 2.2um, 2.1x100mm, Thermo
Retention time: 7.1 min
Base peak: 330.1361
Precursor m/z: 330.137
Precursor type: [M+H]+
m/z	relative intensity	assigned
120.08	28	C8H10N+
130.0639	20	C9H8N+
131.0724	23	C9H9N+
132.08	108	C9H10N+
133.0875	52	C9H11N+
134.0949	93	C6H14O3+
135.1006	16	C6H15O3+
136.1104	43	C6H16O3+
143.0853	57	C11H11+
144.0798	93	C10H10N+
145.0871	116	C7H13O3+
146.095	148	C7H14O3+
148.0749	19	C9H10NO+
148.1106	46	C7H16O3+
158.0946	56	C8H14O3+
158.1078	21	C12H14+
159.1032	76	C11H13N+
160.111	736	C11H14N+
161.1139	114	C6H15N3O2+
175.1307	107	C9H19O3+
176.106	17	C11H14NO+
176.1421	199	C12H18N+
177.1473	27	C9H21O3+
188.1055	63	C9H16O4+
202.1215	999	C13H16NO+
203.1249	177	C12[13]CH16NO+
216.1397	26	C8H24O4S+
234.149	30	C14H20NO2+
298.1096	95	C14H20NO4S+
299.1151	19	C14H21NO4S+
