Mass spectrum: Fipronil desulfinyl; LC-ESI-QTOF; MS2; CE: 30 eV; R=35000; [M-H]-
Name: Fipronil desulfinyl
Name: Desulfinylfipronil
Name: 5-amino-1-[2,6-dichloro-4-(trifluoromethyl)phenyl]-4-(trifluoromethyl)pyrazole-3-carbonitrile
Formula: C12H4Cl2F6N4
Exact mass: 387.9717208
SMILES: NC1=C(C(=NN1C1=C(Cl)C=C(C=C1Cl)C(F)(F)F)C#N)C(F)(F)F
InChI: InChI=1S/C12H4Cl2F6N4/c13-5-1-4(11(15,16)17)2-6(14)9(5)24-10(22)8(12(18,19)20)7(3-21)23-24/h1-2H,22H2
Instrument: Bruker maXis Impact
Instrument type: LC-ESI-QTOF
Ms type: MS2
Ion mode: NEGATIVE
Ionization: ESI
Fragmentation mode: CID
Collision energy: 30 eV
Resolution: 35000
Column name: Acclaim RSLC C18 2.2um, 2.1x100mm, Thermo
Retention time: 10.241 min
Base peak: 350.9877
Precursor m/z: 386.9644
Precursor type: [M-H]-
m/z	relative intensity	assigned
135.0109	14	C5FN4-
203.9826	65	C8H2ClF3N-
205.98	12	C8H2[37]ClF3N-
228.9784	18	C9HClF3N2-
230.9765	5	C9H[37]ClF3N2-
236.985	10	C8H2ClF4N2-
261.9802	14	C9HClF4N3-
281.9924	315	C11H2ClF3N4-
282.994	23	C10[13]CH2ClF3N4-
283.9892	57	C11H2[37]ClF3N4-
295.0033	21	C12F5N4-
296.0093	8	C12HF5N4-
305.985	60	C11H2ClF5N3-
306.9855	7	C10[13]CH2ClF5N3-
307.9821	13	C11H2[37]ClF5N3-
310.9754	13	C12ClF4N4-
316.0173	21	C12H2F6N4-
324.984	65	C11H2ClF6N3-
325.9876	6	C10[13]CH2ClF6N3-
326.9806	13	C11H2[37]ClF6N3-
330.9807	131	C12HClF5N4-
331.9829	12	C11[13]CHClF5N4-
332.9783	26	C12H[37]ClF5N4-
350.9877	999	C12H2ClF6N4-
351.9898	89	C11[13]CH2ClF6N4-
352.9844	227	C12H2[37]ClF6N4-
