Mass spectrum: Bezafibrate; LC-ESI-QTOF; MS2; CE: 10 eV; R=35000; [M-H]-
Name: Bezafibrate
Name: 2-[4-[2-[(4-chlorobenzoyl)amino]ethyl]phenoxy]-2-methylpropanoic acid
Formula: C19H20ClNO4
Exact mass: 361.1080858
SMILES: CC(C)(OC1=CC=C(CCNC(=O)C2=CC=C(Cl)C=C2)C=C1)C(O)=O
InChI: InChI=1S/C19H20ClNO4/c1-19(2,18(23)24)25-16-9-3-13(4-10-16)11-12-21-17(22)14-5-7-15(20)8-6-14/h3-10H,11-12H2,1-2H3,(H,21,22)(H,23,24)
Instrument: Bruker maXis Impact
Instrument type: LC-ESI-QTOF
Ms type: MS2
Ion mode: NEGATIVE
Ionization: ESI
Fragmentation mode: CID
Collision energy: 10 eV
Resolution: 35000
Column name: Acclaim RSLC C18 2.2um, 2.1x100mm, Thermo
Retention time: 7.598 min
Base peak: 360.1011
Precursor m/z: 360.1008
Precursor type: [M-H]-
m/z	relative intensity	assigned
274.0625	734	C15H13ClNO2-
275.0675	138	C14[13]CH13ClNO2-
276.062	171	C15H13[37]ClNO2-
360.1003	999	C19H19ClNO4-
361.1038	169	C18[13]CH19ClNO4-
362.0955	286	C19H19[37]ClNO4-
