Mass spectrum: N-isopropyl-N'-phenyl-p-phenylenediamine; LC-ESI-QTOF; MS2; CE: 30 eV; R=35000; [M+H]+
Name: N-isopropyl-N'-phenyl-p-phenylenediamine
Name: N-Isopropyl-N`-phenyl-p-phenylenediamine
Formula: C15H18N2
Exact mass: 226.1469986
SMILES: CC(C)NC1=CC=C(NC2=CC=CC=C2)C=C1
InChI: InChI=1S/C15H18N2/c1-12(2)16-14-8-10-15(11-9-14)17-13-6-4-3-5-7-13/h3-12,16-17H,1-2H3
Instrument: Bruker maXis Impact
Instrument type: LC-ESI-QTOF
Ms type: MS2
Ion mode: POSITIVE
Ionization: ESI
Fragmentation mode: CID
Collision energy: 30 eV
Resolution: 35000
Column name: Acclaim RSLC C18 2.2um, 2.1x100mm, Thermo
Retention time: 6.574 min
Base peak: 227.1537
Precursor m/z: 227.1543
Precursor type: [M+H]+
m/z	relative intensity	assigned
118.0642	7	C8H8N+
119.0722	8	C8H9N+
120.08	999	C8H10N+
121.0832	76	C7[13]CH10N+
128.0614	10	C10H8+
129.0688	20	C10H9+
142.0767	6	C11H10+
143.0842	5	C11H11+
152.0608	5	C12H8+
153.0683	6	C12H9+
154.0761	5	C12H10+
155.0841	14	C12H11+
165.0686	7	C13H9+
166.0754	5	C13H10+
168.0911	6	C13H12+
169.0994	7	C13H13+
178.0766	158	C14H10+
179.0806	27	C13[13]CH10+
180.0798	147	C13H10N+
181.0845	27	C12[13]CH10N+
182.094	11	C13H12N+
183.1159	5	C14H15+
192.0919	8	C15H12+
193.1	79	C15H13+
194.0959	84	C14H12N+
195.1031	172	C14H13N+
196.1061	25	C13[13]CH13N+
208.1113	11	C15H14N+
209.1166	7	C15H15N+
210.1266	33	C15H16N+
211.1229	12	C14H15N2+
225.1374	16	C15H17N2+
227.1537	171	C15H19N2+
228.1567	31	C14[13]CH19N2+
