Mass spectrum: Napropamide; LC-ESI-QTOF; MS2; CE: 20 eV; R=35000; [M+H]+
Name: Napropamide
Name: N,N-diethyl-2-naphthalen-1-yloxypropanamide
Formula: C17H21NO2
Exact mass: 271.1572289
SMILES: CCN(CC)C(=O)C(C)OC1=C2C=CC=CC2=CC=C1
InChI: InChI=1S/C17H21NO2/c1-4-18(5-2)17(19)13(3)20-16-12-8-10-14-9-6-7-11-15(14)16/h6-13H,4-5H2,1-3H3
Instrument: Bruker maXis Impact
Instrument type: LC-ESI-QTOF
Ms type: MS2
Ion mode: POSITIVE
Ionization: ESI
Fragmentation mode: CID
Collision energy: 20 eV
Resolution: 35000
Column name: Acclaim RSLC C18 2.2um, 2.1x100mm, Thermo
Retention time: 10.1 min
Base peak: 272.1644
Precursor m/z: 272.1645
Precursor type: [M+H]+
m/z	relative intensity	assigned
128.0616	22	C10H8+
129.114	921	C7H15NO+
130.1169	68	C6[13]CH15NO
143.0843	37	C11H11+
144.0554	8	C10H8O+
145.0626	7	C10H9O+
152.0615	5	C12H8+
153.0684	22	C12H9+
171.0797	999	C12H11O+
172.0829	155	C11[13]CH11O+
173.085	9	C10[13]C2H11O+
199.0746	437	C13H11O2+
200.0778	49	C12[13]CH11O2+
201.0803	6	C11[13]C2H11O2+
272.1643	101	C17H22NO2+
