Mass spectrum: N,O-Desmethyltramadol; LC-ESI-QTOF; MS2; CE: 40 eV; R=35000; [M+H]+
Name: N,O-Desmethyltramadol
Name: O-Desmethyltramadol
Name: 3-[(1R,2R)-2-[(dimethylamino)methyl]-1-hydroxycyclohexyl]phenol
Formula: C15H23NO2
Exact mass: 249.1728790
SMILES: O[C@]2(c1cc(O)ccc1)CCCC[C@@H]2CN(C)C
InChI: InChI=1S/C15H23NO2/c1-16(2)11-13-6-3-4-9-15(13,18)12-7-5-8-14(17)10-12/h5,7-8,10,13,17-18H,3-4,6,9,11H2,1-2H3/t13-,15+/m1/s1
Instrument: Bruker maXis Impact
Instrument type: LC-ESI-QTOF
Ms type: MS2
Ion mode: POSITIVE
Ionization: ESI
Fragmentation mode: CID
Collision energy: 40 eV
Resolution: 35000
Column name: Acclaim RSLC C18 2.2um, 2.1x100mm, Thermo
Retention time: 3.949 min
Base peak: 250.1801
Precursor m/z: 250.1802
Precursor type: [M+H]+
m/z	relative intensity	assigned
115.0552	258	C9H7+
117.0691	172	C9H9+
121.064	175	C8H9O+
131.0485	343	C9H7O+
131.0853	213	C10H11+
133.0642	348	C9H9O+
144.0566	234	C10H8O+
145.063	999	C10H9O+
158.0718	132	C11H10O+
159.0796	231	C11H11O+
