Mass spectrum: Vinyl laurate; GC-APCI-QTOF; MS2; CE: 20 eV; R=35000; [M+H]+
Name: Vinyl laurate
Formula: C14H26O2
Exact mass: 226.1933
SMILES: CCCCCCCCCCCC(=O)OC=C
InChI: InChI=1S/C14H26O2/c1-3-5-6-7-8-9-10-11-12-13-14(15)16-4-2/h4H,2-3,5-13H2,1H3
Instrument: Bruker 450 GC coupled to maXis Impact
Instrument type: GC-APCI-QTOF
Ms type: MS2
Ion mode: POSITIVE
Ionization: APCI
Fragmentation mode: CID
Collision energy: 20 eV
Resolution: 35000
Column name: Rxi-5Sil MS column, 30m, 0.25mm i.d., 0.25Âµm film thickness, Restek
Retention time: 12.858 min
Base peak: 183.1761
Precursor m/z: 227.2006
Precursor type: [M+H]+
m/z	relative intensity	assigned
57.071	999	C4H9+
71.0839	173	C5H11+
95.0859	116	C7H11+
109.1012	108	C8H13+
121.1018	104	C9H13+
123.115	161	C9H15+
163.152	100	C12H19+
