Mass spectrum: Dimethoate; LC-ESI-QTOF; MS2; CE: 30 eV; R=35000; [M+H]+
Name: Dimethoate
Name: 2-dimethoxyphosphinothioylsulfanyl-N-methylacetamide
Formula: C5H12NO3PS2
Exact mass: 228.9996219
SMILES: P(SCC(NC)=O)(OC)(OC)=S
InChI: InChI=1S/C5H12NO3PS2/c1-6-5(7)4-12-10(11,8-2)9-3/h4H2,1-3H3,(H,6,7)
Instrument: Bruker maXis Impact
Instrument type: LC-ESI-QTOF
Ms type: MS2
Ion mode: POSITIVE
Ionization: ESI
Fragmentation mode: CID
Collision energy: 30 eV
Resolution: 35000
Column name: Acclaim RSLC C18 2.2um, 2.1x100mm, Thermo
Retention time: 5.130 min
Base peak: 230.0083
Precursor m/z: 230.0069
Precursor type: [M+H]+
m/z	relative intensity	assigned
123.9983	25	C2H7NOPS+
124.9823	999	C2H6O2PS+
125.9845	18	C[13]CH6O2PS+
126.9779	29	C2H6O2P[34]S+
142.993	332	C2H8O3PS+
143.9952	8	C[13]CH8O3PS+
144.9886	14	C2H8O3P[34]S+
155.97	15	C2H7NOPS2+
156.9542	118	C2H6O2PS2+
158.95	9	C2H6O2PS[34]S+
170.9699	52	C3H8O2PS2+
