Mass spectrum: Propoxycarbazone; LC-ESI-QTOF; MS2; CE: 20 eV; R=35000; [M+H]+
Name: Propoxycarbazone
Name: methyl 2-[(4-methyl-5-oxo-3-propoxy-1,2,4-triazole-1-carbonyl)sulfamoyl]benzoate
Formula: C15H18N4O7S
Exact mass: 398.0896199
SMILES: CCCOC1=NN(C(=O)NS(=O)(=O)C2=CC=CC=C2C(=O)OC)C(=O)N1C
InChI: InChI=1S/C15H18N4O7S/c1-4-9-26-14-16-19(15(22)18(14)2)13(21)17-27(23,24)11-8-6-5-7-10(11)12(20)25-3/h5-8H,4,9H2,1-3H3,(H,17,21)
Instrument: Bruker maXis Impact
Instrument type: LC-ESI-QTOF
Ms type: MS2
Ion mode: POSITIVE
Ionization: ESI
Fragmentation mode: CID
Collision energy: 20 eV
Resolution: 35000
Column name: Acclaim RSLC C18 2.2um, 2.1x100mm, Thermo
Retention time: 5.744 min
Base peak: 212.1504
Precursor m/z: 399.0969
Precursor type: [M+H]+
m/z	relative intensity	assigned
116.0458	149	C3H6N3O2+
135.0433	88	H11N2O4S+
158.091	662	C7H14N2S+
159.093	60	C6[13]CH14N2S+
168.9958	60	C7H5O3S+
199.0051	999	C11H3O4+
200.0071	157	C10[13]CH3O4+
209.9846	478	C11NO4+
210.9886	73	C10[13]CNO4+
282.0144	69	C13H4N3O5+
325.0249	70	C13H11NO7S+
367.0779	71	C15H17N3O6S+
