Mass spectrum: Methiocarb-sulfoxide phenol; LC-ESI-QTOF; MS2; CE: 20 eV; R=35000; [M-H]-
Name: Methiocarb-sulfoxide phenol
Name: Phenol, 3,5-dimethyl-4-(methylsulfinyl)-
Name: 3,5-dimethyl-4-methylsulfinylphenol
Formula: C9H12O2S
Exact mass: 184.0558006
SMILES: CC1=CC(O)=CC(C)=C1S(C)=O
InChI: InChI=1S/C9H12O2S/c1-6-4-8(10)5-7(2)9(6)12(3)11/h4-5,10H,1-3H3
Instrument: Bruker maXis Impact
Instrument type: LC-ESI-QTOF
Ms type: MS2
Ion mode: NEGATIVE
Ionization: ESI
Fragmentation mode: CID
Collision energy: 20 eV
Resolution: 35000
Column name: Acclaim RSLC C18 2.2um, 2.1x100mm, Thermo
Retention time: 4.602 min
Base peak: 168.0255
Precursor m/z: 183.0485
Precursor type: [M-H]-
m/z	relative intensity	assigned
123.0282	104	C7H7S-
135.0455	78	C8H7O2-
136.0516	16	C8H8O2-
137.0065	16	C7H5OS-
139.0214	27	C7H7OS-
149.0064	34	C8H5OS-
150.014	83	C8H6OS-
151.0219	257	C8H7OS-
152.0248	28	C7[13]CH7OS-
152.0337	24	C8H8OS-
153.0009	62	C7H5O2S-
167.0165	51	C8H7O2S-
168.0245	999	C8H8O2S-
169.029	129	C7[13]CH8O2S-
170.021	41	C8H8O2[34]S-
