Mass spectrum: Trifloxystrobin CGA 321113; LC-ESI-QTOF; MS2; CE: 20 eV; R=35000; [M+H]+
Name: Trifloxystrobin CGA 321113
Name: ISZQNKFXNXQTTF-NACSPRHISA-N
Name: (2E)-2-methoxyimino-2-[2-[[(E)-1-[3-(trifluoromethyl)phenyl]ethylideneamino]oxymethyl]phenyl]acetic acid
Formula: C19H17F3N2O4
Exact mass: 394.1140417
SMILES: CO\N=C(\C(O)=O)C1=CC=CC=C1CO\N=C(/C)C1=CC=CC(=C1)C(F)(F)F
InChI: InChI=1S/C19H17F3N2O4/c1-12(13-7-5-8-15(10-13)19(20,21)22)23-28-11-14-6-3-4-9-16(14)17(18(25)26)24-27-2/h3-10H,11H2,1-2H3,(H,25,26)/b23-12+,24-17+
Instrument: Bruker maXis Impact
Instrument type: LC-ESI-QTOF
Ms type: MS2
Ion mode: POSITIVE
Ionization: ESI
Fragmentation mode: CID
Collision energy: 20 eV
Resolution: 35000
Column name: Acclaim RSLC C18 2.2um, 2.1x100mm, Thermo
Retention time: 10.366 min
Base peak: 330.0805
Precursor m/z: 395.1213
Precursor type: [M+H]+
m/z	relative intensity	assigned
116.0489	41	C8H6N+
117.0555	12	C2H10FO4+
134.0594	14	C8H8NO+
145.0249	35	C4H5N2O4+
148.0745	240	C9H10NO+
149.0782	22	C8[13]CH10NO+
173.0319	9	C7H4F3N2+
186.0517	999	C11H8NO2+
187.0546	112	C10[13]CH8NO2+
188.0584	6	C9[13]C2H8NO2+
192.0643	33	C11H8F2N+
193.0676	6	C10[13]CH8F2N+
204.0634	19	C9H9F3NO+
395.1177	7	C19H18F3N2O4+
