Mass spectrum: Clopidogrel; LC-ESI-QTOF; MS2; CE: 50 eV; R=35000; [M+H]+
Name: Clopidogrel
Name: methyl (2S)-2-(2-chlorophenyl)-2-(6,7-dihydro-4H-thieno[3,2-c]pyridin-5-yl)acetate
Formula: C16H16ClNO2S
Exact mass: 321.0590274
SMILES: COC(=O)[C@H](c1ccccc1Cl)N2CCc3c(ccs3)C2
InChI: InChI=1S/C16H16ClNO2S/c1-20-16(19)15(12-4-2-3-5-13(12)17)18-8-6-14-11(10-18)7-9-21-14/h2-5,7,9,15H,6,8,10H2,1H3/t15-/m0/s1
Instrument: Bruker maXis Impact
Instrument type: LC-ESI-QTOF
Ms type: MS2
Ion mode: POSITIVE
Ionization: ESI
Fragmentation mode: CID
Collision energy: 50 eV
Resolution: 35000
Column name: Acclaim RSLC C18 2.2um, 2.1x100mm, Thermo
Retention time: 11.687 min
Base peak: 322.0667
Precursor m/z: 322.0663
Precursor type: [M+H]+
m/z	relative intensity	assigned
125.0146	244	C7H6Cl+
126.0179	13	C6[13]CH6Cl+
127.0117	63	C7H6[37]Cl+
133.0277	11	C8H5O2+
138.9936	18	C7H4ClO+
140.9906	5	C7H4[37]ClO+
148.0509	17	C9H8O2+
152.0253	59	C8H7ClN+
154.0223	16	C8H7[37]ClN+
154.0411	9	C11H6O+
155.0251	999	C8H8ClO+
156.0284	56	C7[13]CH8ClO+
157.022	229	C8H8[37]ClO+
158.0251	9	C9H4NO2+
183.0199	35	C9H8ClO2+
184.0513	11	C12H8O2+
185.0168	10	C9H8[37]ClO2+
