Mass spectrum: Iminostilbene; LC-ESI-QTOF; MS2; CE: 20 eV; R=35000; [M+H]+
Name: Iminostilbene
Name: 11H-benzo[b][1]benzazepine
Formula: C14H11N
Exact mass: 193.0891494
SMILES: N1C2=CC=CC=C2C=CC2=CC=CC=C12
InChI: InChI=1S/C14H11N/c1-3-7-13-11(5-1)9-10-12-6-2-4-8-14(12)15-13/h1-10,15H
Instrument: Bruker maXis Impact
Instrument type: LC-ESI-QTOF
Ms type: MS2
Ion mode: POSITIVE
Ionization: ESI
Fragmentation mode: CID
Collision energy: 20 eV
Resolution: 35000
Column name: Acclaim RSLC C18 2.2um, 2.1x100mm, Thermo
Retention time: 9.998 min
Base peak: 194.0955
Precursor m/z: 194.0964
Precursor type: [M+H]+
m/z	relative intensity	assigned
122.0954	5	C8H12N+
152.0639	12	C12H8+
165.0722	6	C13H9+
167.0713	8	C12H9N+
167.0859	10	C13H11+
177.0686	6	C14H9+
179.071	31	C13H9N+
180.0964	14	C14H12+
191.0711	5	C14H9N+
192.0798	24	C14H10N+
193.0879	115	C14H11N+
194.0958	999	C14H12N+
195.099	174	C13[13]CH12N+
196.103	11	C12[13]C2H12N+
