Mass spectrum: Quinoxyfen; LC-ESI-QTOF; MS2; CE: Ramp 21.8-32.6 eV; R=35000; [M+H]+
Name: Quinoxyfen
Name: 5,7-dichloro-4-(4-fluorophenoxy)quinoline
Formula: C15H8Cl2FNO
Exact mass: 306.9966975
SMILES: FC1=CC=C(OC2=C3C(Cl)=CC(Cl)=CC3=NC=C2)C=C1
InChI: InChI=1S/C15H8Cl2FNO/c16-9-7-12(17)15-13(8-9)19-6-5-14(15)20-11-3-1-10(18)2-4-11/h1-8H
Instrument: Bruker maXis Impact
Instrument type: LC-ESI-QTOF
Ms type: MS2
Ion mode: POSITIVE
Ionization: ESI
Fragmentation mode: CID
Collision energy: Ramp 21.8-32.6 eV
Resolution: 35000
Column name: Acclaim RSLC C18 2.2um, 2.1x100mm, Thermo
Retention time: 12.809 min
Base peak: 308.0043
Precursor m/z: 308.004
Precursor type: [M+H]+
m/z	relative intensity	assigned
123.0366	5	C5H9ClF+
150.0105	10	C8H5ClN+
162.0103	9	C9H5ClN+
196.9796	109	C9H5Cl2N+
197.9827	8	C8[13]CH5Cl2N+
198.9766	53	C9H5Cl[37]ClN+
213.9823	54	C9H6Cl2NO+
215.9792	26	C9H6Cl[37]ClNO+
228.9695	31	C15ClN+
230.9659	19	C9H4Cl2FNO+
237.0578	8	C15H8FNO+
244.0325	15	C14H8ClFN+
245.0397	31	C14H9ClFN+
247.037	7	C14H9[37]ClFN+
272.0276	111	C15H8ClFNO+
273.0314	19	C14[13]CH8ClFNO+
274.0245	26	C15H8[37]ClFNO+
280.0098	13	C14H9Cl2FN+
282.0054	7	C14H9Cl[37]ClFN+
287.9975	6	C15H8Cl2NO+
308.0048	999	C15H9Cl2FNO+
309.008	211	C14[13]CH9Cl2FNO+
310.0017	732	C15H9Cl[37]ClFNO+
