Mass spectrum: 6a_Methylprednisolone; LC-ESI-QTOF; MS2; CE: 30 eV; R=35000; [M+H]+
Name: 6a_Methylprednisolone
Name: Methylprednisolone
Name: (6S,8S,9S,10R,11S,13S,14S,17R)-11,17-dihydroxy-17-(2-hydroxyacetyl)-6,10,13-trimethyl-7,8,9,11,12,14,15,16-octahydro-6H-cyclopenta[a]phenanthren-3-one
Formula: C22H30O5
Exact mass: 374.2093241
SMILES: [H][C@@]12CC[C@](O)(C(=O)CO)[C@@]1(C)C[C@H](O)[C@@]1([H])[C@@]2([H])C[C@H](C)C2=CC(=O)C=C[C@]12C
InChI: InChI=1S/C22H30O5/c1-12-8-14-15-5-7-22(27,18(26)11-23)21(15,3)10-17(25)19(14)20(2)6-4-13(24)9-16(12)20/h4,6,9,12,14-15,17,19,23,25,27H,5,7-8,10-11H2,1-3H3/t12-,14-,15-,17-,19+,20-,21-,22-/m0/s1
Instrument: Bruker maXis Impact
Instrument type: LC-ESI-QTOF
Ms type: MS2
Ion mode: POSITIVE
Ionization: ESI
Fragmentation mode: CID
Collision energy: 30 eV
Resolution: 35000
Column name: Acclaim RSLC C18 2.2um, 2.1x100mm, Thermo
Retention time: 8.690 min
Base peak: 375.2167
Precursor m/z: 375.2166
Precursor type: [M+H]+
m/z	relative intensity	assigned
115.0524	19	C9H7+
117.0695	18	C9H9+
119.0854	35	C9H11+
121.0642	149	C8H9O+
121.1001	8	C9H13+
122.0673	10	C7[13]CH9O+
123.0794	24	C8H11O+
125.0586	13	C7H9O2+
128.0609	15	C10H8+
129.0687	27	C10H9+
131.0849	56	C10H11+
133.0631	23	C9H9O+
133.0998	68	C10H13+
134.1038	11	C9[13]CH13+
135.0796	523	C9H11O+
136.0831	65	C8[13]CH11O+
137.059	28	C8H9O2+
137.0945	21	C9H13O+
139.0736	10	C8H11O2+
141.0689	12	C11H9+
142.078	9	C11H10+
143.0847	46	C11H11+
144.0553	10	C10H8O+
145.0639	66	C10H9O+
145.1008	53	C11H13+
146.0709	28	C10H10O+
147.0793	156	C10H11O+
147.1154	27	C11H15+
148.0822	12	C9[13]CH11O+
149.095	81	C10H13O+
150.0983	12	C9[13]CH13O+
151.0747	17	C9H11O2+
151.1109	8	C10H15O+
153.0904	12	C9H13O2+
155.0697	8	C8H11O3+
155.0836	11	C12H11+
157.0643	9	C11H9O+
157.0995	35	C12H13+
158.0718	33	C11H10O+
159.0793	193	C11H11O+
159.1155	35	C12H15+
160.0845	40	C11H12O+
161.0951	999	C11H13O+
162.0986	104	C10[13]CH13O+
163.0754	10	C10H11O2+
163.1112	23	C11H15O+
165.0902	45	C10H13O2+
166.0762	8	C13H10+
169.0999	14	C13H13+
171.0788	50	C12H11O+
171.1153	34	C13H15+
172.0867	24	C12H12O+
172.1194	9	C12[13]CH15+
173.0944	226	C12H13O+
173.1313	34	C13H17+
174.099	29	C11[13]CH13O+
175.0755	11	C11H11O2+
175.1101	72	C12H15O+
175.148	8	C13H19+
176.1146	10	C11[13]CH15O+
177.0905	51	C11H13O2+
179.107	12	C11H15O2+
181.1016	16	C14H13+
183.0806	13	C13H11O+
183.1151	14	C14H15+
184.0841	14	C13H12O+
185.0949	627	C13H13O+
186.0985	104	C12[13]CH13O+
187.1108	467	C13H15O+
188.1144	85	C12[13]CH15O+
189.0898	130	C12H13O2+
189.125	22	C13H17O+
190.0938	10	C11[13]CH13O2+
191.1051	9	C12H15O2+
191.1413	10	C13H19O+
192.1145	8	C12H16O2+
193.1016	17	C15H13+
195.0776	22	C14H11O+
195.1157	19	C15H15+
196.0866	30	C14H12O+
197.0959	51	C14H13O+
198.0998	8	C13[13]CH13O+
199.1103	151	C14H15O+
200.1154	33	C13[13]CH15O+
201.0903	10	C13H13O2+
201.1278	52	C14H17O+
202.129	12	C13[13]CH17O+
203.1061	10	C13H15O2+
203.1409	13	C14H19O+
205.1023	10	C16H13+
205.1199	18	C13H17O2+
206.1094	11	C16H14+
207.1151	13	C16H15+
208.0884	22	C15H12O+
209.0948	80	C15H13O+
209.1316	14	C16H17+
210.1021	42	C15H14O+
211.111	451	C15H15O+
212.1163	91	C14[13]CH15O+
213.1264	163	C15H17O+
214.1308	31	C14[13]CH17O+
215.1423	10	C15H19O+
219.115	19	C17H15+
219.1383	12	C14H19O2+
220.1279	10	C10H20O5+
221.0964	16	C16H13O+
221.1316	16	C17H17+
222.1028	31	C16H14O+
223.1109	114	C16H15O+
223.1451	11	C17H19+
224.1176	59	C16H16O+
225.1265	135	C16H17O+
226.1335	37	C15[13]CH17O+
227.1079	17	C15H15O2+
227.1422	63	C16H19O+
228.1455	22	C16H20O+
229.1238	9	C15H17O2+
231.1373	65	C15H19O2+
232.1395	12	C14[13]CH19O2+
233.0953	9	C17H13O+
233.1322	14	C18H17+
234.1029	11	C17H14O+
235.1107	69	C17H15O+
235.1478	29	C18H19+
236.1165	52	C17H16O+
236.154	11	C18H20+
237.1269	290	C17H17O+
238.133	122	C17H18O+
239.107	10	C16H15O2+
239.1421	152	C17H19O+
240.1472	54	C17H20O+
241.1233	10	C16H17O2+
241.1581	45	C17H21O+
242.1601	11	C16[13]CH21O+
245.0979	8	C18H13O+
246.1026	12	C18H14O+
247.1108	23	C18H15O+
247.1471	8	C19H19+
248.1189	23	C18H16O+
249.1272	86	C18H17O+
250.1335	36	C18H18O+
251.1058	22	C17H15O2+
251.1424	251	C18H19O+
252.1466	63	C17[13]CH19O+
253.1582	554	C18H21O+
254.1619	121	C17[13]CH21O+
255.1358	16	C17H19O2+
255.1729	69	C18H23O+
256.182	11	C17[13]CH23O+
259.1125	14	C19H15O+
260.1163	12	C19H16O+
261.1265	58	C19H17O+
261.1637	11	C20H21+
262.1344	51	C19H18O+
263.1423	79	C19H19O+
263.1794	28	C20H23+
264.1115	17	C18H16O2+
264.146	30	C19H20O+
265.1213	13	C18H17O2+
265.1575	145	C19H21O+
266.1293	9	C18H18O2+
266.1632	30	C18[13]CH21O+
267.1379	49	C18H19O2+
267.1702	17	C19H23O+
268.1428	12	C17[13]CH19O2+
269.1537	24	C18H21O2+
273.1281	18	C20H17O+
274.1355	30	C20H18O+
275.1444	24	C20H19O+
275.1761	8	C21H23+
276.1509	10	C20H20O+
277.1595	105	C20H21O+
278.165	59	C20H22O+
279.1378	92	C19H19O2+
279.1733	237	C20H23O+
280.1424	23	C18[13]CH19O2+
280.1822	336	C20H24O+
281.1522	9	C19H21O2+
281.1888	120	C19[13]CH24O+
282.1914	21	C20H26O+
285.1593	14	C22H21+
288.1525	32	C21H20O+
290.1665	12	C21H22O+
291.1734	75	C21H23O+
292.1449	10	C20H20O2+
292.1776	12	C20[13]CH23O+
293.1517	12	C20H21O2+
293.1889	106	C21H25O+
294.1516	8	C16H22O5+
294.1922	25	C20[13]CH25O+
295.1677	17	C20H23O2+
297.1484	61	C19H21O3+
297.1834	22	C20H25O2+
298.155	13	C18[13]CH21O3+
299.1998	11	C20H27O2+
303.1735	130	C22H23O+
304.1759	27	C21[13]CH23O+
306.1644	15	C21H22O2+
308.1778	21	C21H24O2+
309.1853	77	C21H25O2+
310.1885	11	C20[13]CH25O2+
311.1619	16	C20H23O3+
311.2016	11	C21H27O2+
315.1571	11	C19H23O4+
321.1852	112	C22H25O2+
322.1905	26	C21[13]CH25O2+
327.2003	8	C21H27O3+
339.1968	89	C22H27O3+
340.2002	17	C21[13]CH27O3+
357.2058	50	C22H29O4+
358.2091	8	C21[13]CH29O4+
