Mass spectrum: Prednisone; LC-ESI-QTOF; MS2; CE: 30 eV; R=35000; [M+H]+
Name: Prednisone
Name: (8S,9S,10R,13S,14S,17R)-17-hydroxy-17-(2-hydroxyacetyl)-10,13-dimethyl-6,7,8,9,12,14,15,16-octahydrocyclopenta[a]phenanthrene-3,11-dione
Formula: C21H26O5
Exact mass: 358.1780239
SMILES: C[C@]12CC(=O)[C@H]3[C@H]([C@@H]1CC[C@@]2(C(=O)CO)O)CCC4=CC(=O)C=C[C@]34C
InChI: InChI=1S/C21H26O5/c1-19-7-5-13(23)9-12(19)3-4-14-15-6-8-21(26,17(25)11-22)20(15,2)10-16(24)18(14)19/h5,7,9,14-15,18,22,26H,3-4,6,8,10-11H2,1-2H3/t14-,15-,18+,19-,20-,21-/m0/s1
Instrument: Bruker maXis Impact
Instrument type: LC-ESI-QTOF
Ms type: MS2
Ion mode: POSITIVE
Ionization: ESI
Fragmentation mode: CID
Collision energy: 30 eV
Resolution: 35000
Column name: Acclaim RSLC C18 2.2um, 2.1x100mm, Thermo
Retention time: 7.114 min
Base peak: 359.1879
Precursor m/z: 359.1853
Precursor type: [M+H]+
m/z	relative intensity	assigned
117.0708	25	C9H9+
119.085	43	C9H11+
121.0646	173	C8H9O+
123.0814	47	C8H11O+
129.0694	33	C10H9+
131.0488	23	C9H7O+
131.0863	63	C10H11+
132.0582	30	C9H8O+
133.0648	64	C9H9O+
133.1004	23	C10H13+
135.0805	300	C9H11O+
137.061	44	C8H9O2+
137.0972	49	C9H13O+
139.077	37	C8H11O2+
141.0687	36	C11H9+
145.0649	84	C10H9O+
145.1023	24	C11H13+
147.0806	999	C10H11O+
148.084	150	C9[13]CH11O+
149.0952	42	C10H13O+
151.0768	30	C9H11O2+
153.0919	93	C9H13O2+
155.0869	30	C12H11+
158.0727	61	C11H10O+
159.081	527	C11H11O+
161.0963	236	C11H13O+
162.1016	51	C11H14O+
163.0756	122	C10H11O2+
169.1016	37	C13H13+
171.0807	785	C12H11O+
172.0838	120	C11[13]CH11O+
173.0967	389	C12H13O+
174.102	59	C12H14O+
175.076	29	C11H11O2+
175.1108	43	C12H15O+
177.0904	23	C11H13O2+
179.0847	40	C14H11+
181.0993	23	C14H13+
182.0735	37	C13H10O+
183.0823	99	C13H11O+
183.1019	35	C10H15O3+
185.061	33	C12H9O2+
185.0974	119	C13H13O+
186.1022	58	C13H14O+
187.075	199	C12H11O2+
187.1124	294	C13H15O+
188.1152	33	C13H16O+
189.0914	114	C12H13O2+
193.1014	27	C15H13+
195.0818	57	C14H11O+
196.0884	50	C14H12O+
197.0972	416	C14H13O+
198.1009	68	C14H14O+
199.1126	278	C14H15O+
200.1154	41	C14H16O+
201.0913	30	C13H13O2+
201.1271	23	C14H17O+
205.0992	29	C16H13+
207.1188	29	C16H15+
208.0882	58	C15H12O+
209.0973	219	C15H13O+
209.134	23	C16H17+
210.1036	100	C15H14O+
211.114	157	C15H15O+
212.12	93	C15H16O+
213.0907	56	C14H13O2+
213.1278	192	C15H17O+
215.1089	74	C14H15O2+
219.1186	55	C17H15+
220.0851	23	C16H12O+
221.0961	176	C16H13O+
222.1054	202	C16H14O+
223.1124	304	C16H15O+
224.1183	69	C16H16O+
225.0939	30	C15H13O2+
225.1288	225	C16H17O+
226.1033	23	C15H14O2+
226.1305	47	C16H18O+
226.1373	45	C16H18O+
227.1072	43	C15H15O2+
227.145	221	C16H19O+
228.148	49	C16H20O+
233.097	30	C17H13O+
234.1046	66	C17H14O+
235.1116	162	C17H15O+
236.1205	49	C17H16O+
237.128	725	C17H17O+
238.134	186	C16[13]CH17O+
239.1062	123	C16H15O2+
239.144	237	C17H19O+
240.109	26	C16H16O2+
240.1504	47	C17H20O+
241.1213	54	C16H17O2+
245.1325	28	C19H17+
246.107	53	C18H14O+
247.1119	70	C18H15O+
247.1484	38	C19H19+
248.1209	129	C18H16O+
249.1286	288	C18H17O+
250.1345	92	C18H18O+
251.1435	132	C18H19O+
252.1488	53	C18H20O+
253.1238	162	C17H17O2+
253.1592	111	C18H21O+
254.1278	73	C17H18O2+
254.1617	42	C18H22O+
255.1399	237	C17H19O2+
256.1436	58	C17H20O2+
259.1109	35	C19H15O+
260.1206	56	C19H16O+
261.13	168	C19H17O+
262.1357	146	C19H18O+
263.1071	39	C18H15O2+
263.1443	371	C19H19O+
264.1126	25	C18H16O2+
264.1516	231	C19H20O+
265.1248	60	C18H17O2+
265.1607	548	C19H21O+
266.1643	115	C18[13]CH21O+
267.1399	232	C18H19O2+
267.1771	57	C19H23O+
268.1439	39	C18H20O2+
272.1193	46	C20H16O+
275.1474	74	C20H19O+
276.1484	42	C20H20O+
277.1207	40	C19H17O2+
277.16	272	C20H21O+
278.1641	66	C20H22O+
279.1419	39	C19H19O2+
280.1472	46	C19H20O2+
281.1541	116	C19H21O2+
282.159	39	C19H22O2+
283.1703	50	C19H23O2+
287.1461	89	C21H19O+
290.1291	44	C20H18O2+
292.1468	56	C20H20O2+
293.1536	138	C20H21O2+
295.1704	214	C20H23O2+
296.1748	38	C20H24O2+
297.1505	53	C19H21O3+
305.1549	142	C21H21O2+
306.1612	26	C21H22O2+
311.1661	41	C20H23O3+
313.1822	86	C20H25O3+
323.1659	137	C21H23O3+
324.1677	41	C21H24O3+
341.1813	69	C21H25O4+
