Mass spectrum: Bis(tridecafluorohexyl)phosphinic acid (6:6PFPi); LC-ESI-QTOF; MS2; CE: 40 eV; R=35000; [M-H]-
Name: Bis(tridecafluorohexyl)phosphinic acid (6:6PFPi)
Name: Bis(tridecafluorohexyl)phosphinic acid
Name: bis(1,1,2,2,3,3,4,4,5,5,6,6,6-tridecafluorohexyl)phosphinic acid
Formula: C12HF26O2P
Exact mass: 701.9299
SMILES: C(C(C(C(F)(F)P(=O)(C(C(C(C(C(C(F)(F)F)(F)F)(F)F)(F)F)(F)F)(F)F)O)(F)F)(F)F)(C(C(F)(F)F)(F)F)(F)F
InChI: InChI=1S/C12HF26O2P/c13-1(14,5(21,22)9(29,30)31)3(17,18)7(25,26)11(35,36)41(39,40)12(37,38)8(27,28)4(19,20)2(15,16)6(23,24)10(32,33)34/h(H,39,40)
Instrument: Bruker maXis Impact
Instrument type: LC-ESI-QTOF
Ms type: MS2
Ionization: ESI
Fragmentation mode: CID
Collision energy: 40 eV
Resolution: 35000
Column name: Acclaim RSLC C18 2.2um, 2.1x100mm, Thermo
Retention time: 12.101 min
Base peak: 700.9231
Precursor m/z: 700.9226
Precursor type: [M-H]-
m/z	relative intensity	assigned
400.9424	9	C6F14O2P-
700.9212	999	C12F26O2P-
