Mass spectrum: Danofloxacin; LC-ESI-QTOF; MS2; CE: Ramp 22.8-34.1 eV; R=35000; [M+H]+
Name: Danofloxacin
Name: 1-cyclopropyl-6-fluoro-7-[(1S,4S)-5-methyl-2,5-diazabicyclo[2.2.1]heptan-2-yl]-4-oxoquinoline-3-carboxylic acid
Formula: C19H20FN3O3
Exact mass: 357.1489
SMILES: CN1C[C@@H]2C[C@H]1CN2C3=C(C=C4C(=C3)N(C=C(C4=O)C(=O)O)C5CC5)F
InChI: InChI=1S/C19H20FN3O3/c1-21-7-12-4-11(21)8-22(12)17-6-16-13(5-15(17)20)18(24)14(19(25)26)9-23(16)10-2-3-10/h5-6,9-12H,2-4,7-8H2,1H3,(H,25,26)/t11-,12-/m0/s1
Instrument: Bruker maXis Impact
Instrument type: LC-ESI-QTOF
Ms type: MS2
Ion mode: POSITIVE
Ionization: ESI
Fragmentation mode: CID
Collision energy: Ramp 22.8-34.1 eV
Resolution: 35000
Column name: Acclaim RSLC C18 2.2um, 2.1x100mm, Thermo
Retention time: 4.7 min
Base peak: 358.1584
Precursor m/z: 358.1561
Precursor type: [M+H]+
m/z	relative intensity	assigned
82.0651	10	C5H8N+
245.1094	16	C14H14FN2O+
255.0576	14	C14H8FN2O2+
261.1036	19	C14H14FN2O2+
283.1255	9	C17H16FN2O+
286.1006	5	C17H15FO3+
314.1673	10	C18H21FN3O+
318.1627	26	C17H21FN3O2+
340.147	112	C19H19FN3O2+
341.1494	22	C19H20FN3O2+
342.1594	5	C19H21FN3O2+
358.1585	999	C19H21FN3O3+
359.1611	262	C17H21N5O4+
360.1719	110	C18H21FN4O3+
362.1529	14	C18H21FN3O4+
