Mass spectrum: Lapatinib; LC-ESI-QTOF; MS2; CE: 20 eV; R=35000; [M+H]+
Name: Lapatinib
Name: N-[3-chloro-4-[(3-fluorophenyl)methoxy]phenyl]-6-[5-[(2-methylsulfonylethylamino)methyl]furan-2-yl]quinazolin-4-amine
Formula: C29H26ClFN4O4S
Exact mass: 580.1347322
SMILES: CS(=O)(=O)CCNCC1=CC=C(O1)C1=CC2=C(C=C1)N=CN=C2NC1=CC(Cl)=C(OCC2=CC(F)=CC=C2)C=C1
InChI: InChI=1S/C29H26ClFN4O4S/c1-40(36,37)12-11-32-16-23-7-10-27(39-23)20-5-8-26-24(14-20)29(34-18-33-26)35-22-6-9-28(25(30)15-22)38-17-19-3-2-4-21(31)13-19/h2-10,13-15,18,32H,11-12,16-17H2,1H3,(H,33,34,35)
Instrument: Bruker maXis Impact
Instrument type: LC-ESI-QTOF
Ms type: MS2
Ion mode: POSITIVE
Ionization: ESI
Fragmentation mode: CID
Collision energy: 20 eV
Resolution: 35000
Column name: Acclaim RSLC C18 2.2um, 2.1x100mm, Thermo
Retention time: 11.099 min
Base peak: 581.1403
Precursor m/z: 581.142
Precursor type: [M+H]+
m/z	relative intensity	assigned
365.0779	8	C19H19ClFO2S+
458.1048	9	C24H18N4O4S+
581.142	999	C29H27ClFN4O4S+
582.1447	334	C28[13]CH27ClFN4O4S+
583.1397	360	C29H27[37]ClFN4O4S+
