Mass spectrum: Estrone; LC-ESI-QTOF; MS2; CE: 40 eV; R=35000; [M-H]-
Name: Estrone
Name: (8R,9S,13S,14S)-3-hydroxy-13-methyl-7,8,9,11,12,14,15,16-octahydro-6H-cyclopenta[a]phenanthren-17-one
Formula: C18H22O2
Exact mass: 270.1619799
SMILES: C[C@]12CC[C@H]3[C@@H](CCC4=CC(O)=CC=C34)[C@@H]1CCC2=O
InChI: InChI=1S/C18H22O2/c1-18-9-8-14-13-5-3-12(19)10-11(13)2-4-15(14)16(18)6-7-17(18)20/h3,5,10,14-16,19H,2,4,6-9H2,1H3/t14-,15-,16+,18+/m1/s1
Instrument: Bruker maXis Impact
Instrument type: LC-ESI-QTOF
Ms type: MS2
Ion mode: NEGATIVE
Ionization: ESI
Fragmentation mode: CID
Collision energy: 40 eV
Resolution: 35000
Column name: Acclaim RSLC C18 2.2um, 2.1x100mm, Thermo
Retention time: 9.484 min
Base peak: 269.1532
Precursor m/z: 269.1547
Precursor type: [M-H]-
m/z	relative intensity	assigned
143.0491	200	C10H7O-
145.0651	999	C10H9O-
159.0844	226	C11H11O-
269.1515	265	C18H21O2-
