Mass spectrum: N4-Acetylsulfadimethoxine; LC-ESI-QTOF; MS2; CE: 40 eV; R=35000; [M+H]+
Name: N4-Acetylsulfadimethoxine
Name: N(4)-Acetylsulfadimethoxine
Name: N-[4-[(4,6-dimethoxypyrimidin-2-yl)sulfamoyl]phenyl]acetamide
Formula: C14H16N4O5S
Exact mass: 352.0841406
SMILES: COC1=CC(OC)=NC(NS(=O)(=O)C2=CC=C(NC(C)=O)C=C2)=N1
InChI: InChI=1S/C14H16N4O5S/c1-9(19)15-10-4-6-11(7-5-10)24(20,21)18-14-16-12(22-2)8-13(17-14)23-3/h4-8H,1-3H3,(H,15,19)(H,16,17,18)
Instrument: Bruker maXis Impact
Instrument type: LC-ESI-QTOF
Ms type: MS2
Ion mode: POSITIVE
Ionization: ESI
Fragmentation mode: CID
Collision energy: 40 eV
Resolution: 35000
Column name: Acclaim RSLC C18 2.2um, 2.1x100mm, Thermo
Retention time: 6.0 min
Base peak: 242.2838
Precursor m/z: 353.0914
Precursor type: [M+H]+
m/z	relative intensity	assigned
124.0478	27	C2H8N2O4+
125.0577	206	C5H7N3O+
126.0651	170	C5H8N3O+
127.0491	93	C5H7N2O2+
127.0652	23	CH11N4OS+
134.0591	999	H12N3O3S+
139.0375	40	C5H5N3O2+
140.0162	23	C6H6NOS+
140.0439	109	C2H8N2O5+
141.0527	97	C5H7N3O2+
148.0744	35	C7H8N4+
150.0546	54	H12N3O4S+
155.0671	514	C3H11N2O5+
156.0103	109	C4H4N4OS+
156.0755	630	C6H10N3O2+
157.0466	30	C5H7N3O3+
157.0791	57	C7H13N2S+
159.0538	36	CH11N4O3S+
162.0655	53	C8H8N3O+
164.0698	70	CH14N3O4S+
173.0577	233	C9H7N3O+
174.0605	40	C7H12NO2S+
198.0204	121	C6H6N4O2S+
215.068	161	C11H9N3O2+
216.0731	26	C8H12N2O5+
218.0214	67	C11H6O5+
230.0784	105	C8H12N3O5+
231.084	23	C14H15OS+
245.1029	66	C12H13N4O2+
269.0992	22	C11H15N3O5+
272.0878	30	C14H14N3OS+
287.1143	70	C14H15N4O3+
353.0916	23	C14H17N4O5S+
