Mass spectrum: Chloramphenicol; LC-ESI-QTOF; MS2; CE: 10 eV; R=35000; [M+H]+
Name: Chloramphenicol
Name: 2,2-Dichloro-N-[1,3-dihydroxy-1-(4-nitrophenyl)propan-2-yl]acetamide
Name: 2,2-dichloro-N-[1,3-dihydroxy-1-(4-nitrophenyl)propan-2-yl]acetamide
Formula: C11H12Cl2N2O5
Exact mass: 322.0123268
SMILES: OCC(NC(=O)C(Cl)Cl)C(O)C1=CC=C(C=C1)[N+]([O-])=O
InChI: InChI=1S/C11H12Cl2N2O5/c12-10(13)11(18)14-8(5-16)9(17)6-1-3-7(4-2-6)15(19)20/h1-4,8-10,16-17H,5H2,(H,14,18)
Instrument: Bruker maXis Impact
Instrument type: LC-ESI-QTOF
Ms type: MS2
Ion mode: POSITIVE
Ionization: ESI
Fragmentation mode: CID
Collision energy: 10 eV
Resolution: 35000
Column name: Acclaim RSLC C18 2.2um, 2.1x100mm, Thermo
Retention time: 5.738 min
Base peak: 376.2388
Precursor m/z: 323.0196
Precursor type: [M+H]+
m/z	relative intensity	assigned
161.0691	103	C6H11NO4+
274.9979	674	C10H9Cl2N2O3+
276.0031	106	C10H10Cl2N2O3+
276.9954	413	C10H9Cl[37]ClN2O3+
305.0083	999	C11H11Cl2N2O4+
306.0129	113	C10[13]CH11Cl2N2O4+
307.0045	680	C11H11Cl[37]ClN2O4+
323.0198	102	C11H13Cl2N2O5+
