Mass spectrum: 2-Hydroxycarbamazepine; LC-ESI-QTOF; MS2; CE: 30 eV; R=35000; [M+H]+
Name: 2-Hydroxycarbamazepine
Name: 3-hydroxybenzo[b][1]benzazepine-11-carboxamide
Formula: C15H12N2O2
Exact mass: 252.0898776
SMILES: NC(=O)N1C2=CC=CC=C2C=CC2=CC(O)=CC=C12
InChI: InChI=1S/C15H12N2O2/c16-15(19)17-13-4-2-1-3-10(13)5-6-11-9-12(18)7-8-14(11)17/h1-9,18H,(H2,16,19)
Instrument: Bruker maXis Impact
Instrument type: LC-ESI-QTOF
Ms type: MS2
Ion mode: POSITIVE
Ionization: ESI
Fragmentation mode: CID
Collision energy: 30 eV
Resolution: 35000
Column name: Acclaim RSLC C18 2.2um, 2.1x100mm, Thermo
Retention time: 6.016 min
Base peak: 253.0966
Precursor m/z: 253.0972
Precursor type: [M+H]+
m/z	relative intensity	assigned
165.0686	21	C13H9+
167.0718	42	C12H9N+
168.076	6	C11[13]CH9N+
179.0716	7	C13H9N+
180.0795	20	C13H10N+
181.0868	9	C13H11N+
182.0952	65	C13H12N+
183.0792	5	C13H11O+
183.0982	8	C12[13]CH12N+
191.0718	5	C14H9N+
192.0799	68	C14H10N+
193.0869	40	C14H11N+
194.0955	319	C14H12N+
195.0666	33	C13H9NO+
195.0989	26	C13[13]CH12N+
196.0708	5	C12[13]CH9NO+
208.0748	393	C14H10NO+
209.0812	119	C14H11NO+
210.0906	999	C14H12NO+
211.0938	104	C13[13]CH12NO+
212.0968	7	C12[13]C2H12NO+
253.0965	8	C15H13N2O2+
