Mass spectrum: 1,6-Bis(acryloyloxy)hexane; GC-APCI-QTOF; MS2; CE: 30 eV; R=35000; [M+H]+
Name: 1,6-Bis(acryloyloxy)hexane
Formula: C12H18O4
Exact mass: 226.1205
SMILES: C=CC(=O)OCCCCCCOC(=O)C=C
InChI: InChI=1S/C12H18O4/c1-3-11(13)15-9-7-5-6-8-10-16-12(14)4-2/h3-4H,1-2,5-10H2
Instrument: Bruker 450 GC coupled to maXis Impact
Instrument type: GC-APCI-QTOF
Ms type: MS2
Ion mode: POSITIVE
Ionization: APCI
Fragmentation mode: CID
Collision energy: 30 eV
Resolution: 35000
Column name: Rxi-5Sil MS column, 30m, 0.25mm i.d., 0.25Âµm film thickness, Restek
Retention time: 13.109 min
Base peak: 227.1268
Precursor m/z: 227.1278
Precursor type: [M+H]+
m/z	relative intensity	assigned
53.0393	20	C4H5+
55.0186	127	C3H3O+
55.0549	999	C4H7+
67.0532	11	C5H7+
71.049	11	C4H7O+
73.0285	79	C3H5O2+
83.0852	42	C6H11+
125.0256	7	C6H5O3+
