Mass spectrum: Baquiloprim; LC-ESI-QTOF; MS2; CE: 20 eV; R=35000; [M+H]+
Name: Baquiloprim
Name: 5-[[8-(dimethylamino)-7-methylquinolin-5-yl]methyl]pyrimidine-2,4-diamine
Formula: C17H20N6
Exact mass: 308.1749446
SMILES: CC1=CC(=C2C=CC=NC2=C1N(C)C)CC3=CN=C(N=C3N)N
InChI: InChI=1S/C17H20N6/c1-10-7-11(8-12-9-21-17(19)22-16(12)18)13-5-4-6-20-14(13)15(10)23(2)3/h4-7,9H,8H2,1-3H3,(H4,18,19,21,22)
Instrument: Bruker maXis Impact
Instrument type: LC-ESI-QTOF
Ms type: MS2
Ion mode: POSITIVE
Ionization: ESI
Fragmentation mode: CID
Collision energy: 20 eV
Resolution: 35000
Column name: Acclaim RSLC C18 2.2um, 2.1x100mm, Thermo
Retention time: 3.6 min
Base peak: 309.1725
Precursor m/z: 309.1822
Precursor type: [M+H]+
m/z	relative intensity	assigned
171.08	5	
294.1529	53	C16H18N6+
295.1573	8	C15[13]CH18N6+
307.1608	14	C17H19N6+
309.1766	999	C17H21N6+
310.1812	124	C16[13]CH21N6+
