Mass spectrum: Dibutyl maleate; GC-APCI-QTOF; MS2; CE: 50 eV; R=35000; [M+H]+
Name: Dibutyl maleate
Formula: C12H20O4
Exact mass: 228.1362
SMILES: CCCCOC(=O)C=CC(=O)OCCCC
InChI: InChI=1S/C12H20O4/c1-3-5-9-15-11(13)7-8-12(14)16-10-6-4-2/h7-8H,3-6,9-10H2,1-2H3
Instrument: Bruker 450 GC coupled to maXis Impact
Instrument type: GC-APCI-QTOF
Ms type: MS2
Ion mode: POSITIVE
Ionization: APCI
Fragmentation mode: CID
Collision energy: 50 eV
Resolution: 35000
Column name: Rxi-5Sil MS column, 30m, 0.25mm i.d., 0.25Âµm film thickness, Restek
Retention time: 12.591 min
Base peak: 229.1429
Precursor m/z: 229.1434
Precursor type: [M+H]+
m/z	relative intensity	assigned
53.0017	132	C3HO+
71.0136	456	C3H3O2+
99.0078	999	C4H3O3+
