Mass spectrum: Quinoline; LC-ESI-QTOF; MS2; CE: 30 eV; R=35000; [M+H]+
Name: Quinoline
Formula: C9H7N
Exact mass: 129.0578492
SMILES: C1=CC=C2N=CC=CC2=C1
InChI: InChI=1S/C9H7N/c1-2-6-9-8(4-1)5-3-7-10-9/h1-7H
Instrument: Bruker maXis Impact
Instrument type: LC-ESI-QTOF
Ms type: MS2
Ion mode: POSITIVE
Ionization: ESI
Fragmentation mode: CID
Collision energy: 30 eV
Resolution: 35000
Column name: Acclaim RSLC C18 2.2um, 2.1x100mm, Thermo
Retention time: 6.271 min
Base peak: 376.239
Precursor m/z: 130.0651
Precursor type: [M+H]+
m/z	relative intensity	assigned
130.0634	999	C9H8N+
