Mass spectrum: Dexamethasone-21-acetate; LC-ESI-QTOF; MS2; CE: 40 eV; R=35000; [M+H]+
Name: Dexamethasone-21-acetate
Name: Dexamethasone acetate
Name: [2-[(8S,9R,10S,11S,13S,14S,16R,17R)-9-fluoro-11,17-dihydroxy-10,13,16-trimethyl-3-oxo-6,7,8,11,12,14,15,16-octahydrocyclopenta[a]phenanthren-17-yl]-2-oxoethyl] acetate
Formula: C24H31FO6
Exact mass: 434.2104669
SMILES: C[C@@H]1C[C@H]2[C@@H]3CCC4=CC(=O)C=C[C@]4(C)[C@@]3(F)[C@@H](O)C[C@]2(C)[C@@]1(O)C(=O)COC(C)=O
InChI: InChI=1S/C24H31FO6/c1-13-9-18-17-6-5-15-10-16(27)7-8-21(15,3)23(17,25)19(28)11-22(18,4)24(13,30)20(29)12-31-14(2)26/h7-8,10,13,17-19,28,30H,5-6,9,11-12H2,1-4H3/t13-,17+,18+,19+,21+,22+,23+,24+/m1/s1
Instrument: Bruker maXis Impact
Instrument type: LC-ESI-QTOF
Ms type: MS2
Ion mode: POSITIVE
Ionization: ESI
Fragmentation mode: CID
Collision energy: 40 eV
Resolution: 35000
Column name: Acclaim RSLC C18 2.2um, 2.1x100mm, Thermo
Retention time: 8.674 min
Base peak: 435.2169
Precursor m/z: 435.2177
Precursor type: [M+H]+
m/z	relative intensity	assigned
115.0537	19	C9H7+
116.0605	5	C9H8+
117.0688	17	C9H9+
119.0839	33	C9H11+
121.064	305	C8H9O+
122.067	20	C7[13]CH9O+
123.0437	20	C7H7O2+
123.0796	35	C8H11O+
125.059	36	C7H9O2+
127.0388	8	C6H7O3+
128.0605	38	C10H8+
129.0679	33	C10H9+
131.0482	16	C9H7O+
131.0843	68	C10H11+
132.0562	21	C9H8O+
133.0635	109	C9H9O+
133.1006	15	C10H13+
134.0678	8	C8[13]CH9O+
135.0793	164	C9H11O+
136.0834	21	C8[13]CH11O+
137.0585	60	C8H9O2+
138.0613	6	C7[13]CH9O2+
139.0364	6	C7H7O3+
139.0534	5	C11H7+
139.0743	33	C8H11O2+
141.0536	29	C7H9O3+
141.0686	34	C11H9+
142.075	14	C11H10+
143.084	101	C11H11+
144.0555	27	C10H8O+
144.0885	18	C10[13]CH11+
145.0631	159	C10H9O+
145.1001	40	C11H13+
146.0699	26	C9[13]CH9O+
147.0791	745	C10H11O+
148.0822	81	C9[13]CH11O+
149.0582	15	C9H9O2+
149.0926	8	C10H13O+
151.0378	26	C8H7O3+
151.0744	70	C9H11O2+
152.0602	5	C12H8+
152.0766	8	C8[13]CH11O2+
153.053	16	C8H9O3+
153.0686	16	C12H9+
153.0879	5	C9H13O2+
154.0747	5	C12H10+
155.0698	12	C8H11O3+
155.0843	74	C12H11+
156.0546	5	C11H8O+
157.0628	26	C11H9O+
157.1002	27	C12H13+
158.0714	59	C11H10O+
158.1054	6	C12H14+
159.0791	475	C11H11O+
160.0832	74	C10[13]CH11O+
161.0578	64	C10H9O2+
161.0946	210	C11H13O+
162.0631	6	C9[13]CH9O2+
162.0987	32	C10[13]CH13O+
163.0742	29	C10H11O2+
165.0685	40	C13H9+
166.0752	13	C13H10+
167.0686	5	C9H11O3+
167.0836	34	C13H11+
168.0549	6	C12H8O+
168.0907	8	C13H12+
169.0634	55	C12H9O+
169.0876	10	C6H14FO4+
169.0998	29	C13H13+
170.0707	14	C12H10O+
170.1073	12	C13H14+
171.0792	599	C12H11O+
172.0834	84	C11[13]CH11O+
173.0945	420	C12H13O+
174.0981	52	C11[13]CH13O+
175.0741	11	C11H11O2+
175.0898	13	C12H12F+
175.11	17	C12H15O+
177.0891	9	C11H13O2+
178.0759	15	C14H10+
179.0695	15	C10H11O3+
179.084	57	C14H11+
180.0908	23	C14H12+
181.0641	14	C13H9O+
181.0994	47	C14H13+
182.0715	23	C13H10O+
182.1051	17	C14H14+
183.0787	55	C13H11O+
183.1154	19	C14H15+
184.0855	34	C13H12O+
185.0589	14	C12H9O2+
185.0949	208	C13H13O+
186.065	5	C12H10O2+
186.0992	40	C12[13]CH13O+
187.0739	211	C12H11O2+
187.1103	59	C13H15O+
188.0787	30	C11[13]CH11O2+
188.1125	12	C12[13]CH15O+
189.0687	20	C15H9+
189.09	19	C12H13O2+
190.0767	12	C15H10+
191.0839	29	C15H11+
191.105	5	C12H15O2+
192.0911	37	C15H12+
193.099	58	C15H13+
194.0708	10	C14H10O+
194.1046	13	C14[13]CH13+
195.0788	72	C14H11O+
195.1157	53	C15H15+
196.0867	70	C14H12O+
196.1213	20	C15H16+
197.0947	224	C14H13O+
197.1308	140	C15H17+
198.1012	62	C14H14O+
198.135	22	C14[13]CH17+
199.0744	22	C13H11O2+
199.1101	125	C14H15O+
200.1142	23	C13[13]CH15O+
201.0899	18	C13H13O2+
201.1269	11	C14H17O+
203.083	16	C16H11+
203.1045	13	C13H15O2+
204.0925	20	C16H12+
205.0999	53	C16H13+
206.1069	30	C16H14+
207.0794	12	C15H11O+
207.1155	116	C16H15+
208.0867	97	C15H12O+
208.1182	20	C15[13]CH15+
209.0947	269	C15H13O+
209.1311	30	C16H17+
210.102	142	C15H14O+
210.1345	8	C15[13]CH17+
211.0729	14	C14H11O2+
211.1099	241	C15H15O+
212.0786	6	C14H12O2+
212.1163	74	C15H16O+
213.1263	999	C15H17O+
214.1295	172	C14[13]CH17O+
215.0852	18	C17H11+
215.1051	10	C14H15O2+
215.1412	56	C15H19O+
216.0919	12	C17H12+
216.1454	11	C14[13]CH19O+
217.1001	24	C17H13+
218.107	22	C17H14+
219.0798	19	C16H11O+
219.1152	50	C17H15+
220.0872	20	C16H12O+
220.1228	26	C17H16+
221.0948	101	C16H13O+
221.1311	69	C17H17+
222.1022	107	C16H14O+
222.1344	10	C16[13]CH17+
223.1104	399	C16H15O+
224.1168	209	C16H16O+
225.1263	623	C16H17O+
226.0972	14	C15H14O2+
226.1299	111	C15[13]CH17O+
227.0845	6	C18H11+
227.1055	39	C12H16FO3+
227.1413	74	C16H19O+
228.0908	7	C18H12+
228.1115	8	C11[13]CH16FO3+
228.1442	13	C15[13]CH19O+
229.1014	22	C18H13+
229.118	6	C15H17O2+
230.1066	32	C18H14+
231.0778	17	C17H11O+
231.1138	26	C18H15+
232.0852	13	C17H12O+
232.1233	22	C18H16+
233.0942	55	C17H13O+
233.1312	59	C15H18FO+
234.1025	67	C17H14O+
234.1375	11	C14[13]CH18FO+
235.1109	229	C17H15O+
235.147	75	C18H19+
236.0842	5	C13H13FO3+
236.115	93	C17H16O+
236.1492	17	C17[13]CH19+
237.0897	37	C16H13O2+
237.1261	287	C17H17O+
238.0979	21	C16H14O2+
238.1319	71	C16[13]CH17O+
239.1053	32	C16H15O2+
239.1416	191	C17H19O+
240.1109	10	C16H16O2+
240.1451	41	C16[13]CH19O+
241.1215	67	C16H17O2+
241.1578	17	C17H21O+
242.1077	23	C19H14+
242.1266	24	C16H18O2+
242.1566	5	C16[13]CH21O+
243.1152	32	C19H15+
243.1357	12	C16H19O2+
244.1212	12	C19H16+
245.0953	46	C18H13O+
245.1308	56	C19H17+
246.1019	75	C18H14O+
246.1368	13	C18[13]CH17+
247.1099	82	C18H15O+
247.1466	45	C19H19+
248.1176	128	C18H16O+
248.1505	7	C18[13]CH19+
249.1253	152	C18H17O+
250.0966	16	C17H14O2+
250.1325	71	C18H18O+
251.1047	53	C17H15O2+
251.1421	197	C18H19O+
252.1094	21	C17H16O2+
252.1469	67	C18H20O+
253.1213	143	C17H17O2+
253.1573	155	C18H21O+
254.1247	33	C16[13]CH17O2+
254.1612	31	C17[13]CH21O+
255.1024	8	C13H16FO4+
255.119	10	C17H16FO+
255.1363	20	C17H19O2+
256.1356	5	C16[13]CH19O2+
257.1322	40	C20H17+
258.1019	21	C19H14O+
258.1355	10	C19[13]CH17+
259.1101	39	C19H15O+
260.1178	124	C19H16O+
261.0883	9	C18H13O2+
261.1252	182	C19H17O+
262.0971	16	C18H14O2+
262.1326	101	C19H18O+
263.1051	30	C18H15O2+
263.1419	405	C19H19O+
264.1122	30	C18H16O2+
264.1456	108	C18[13]CH19O+
265.1195	64	C18H17O2+
265.1578	120	C19H21O+
266.1259	22	C18H18O2+
266.1614	24	C18[13]CH21O+
267.1371	48	C18H19O2+
268.141	14	C17[13]CH19O2+
269.1146	7	C17H17O3+
269.1313	6	C21H17+
269.1502	16	C18H21O2+
270.1023	11	C20H14O+
271.1068	8	C20H15O+
272.1181	5	C20H16O+
273.1277	30	C20H17O+
274.0956	8	C19H14O2+
274.1321	10	C19[13]CH17O+
275.1076	19	C16H16FO3+
275.1422	177	C20H19O+
276.1146	21	C19H16O2+
276.1455	52	C19[13]CH19O+
277.121	47	C19H17O2+
277.1557	11	C20H21O+
278.1286	47	C19H18O2+
279.0967	7	C18H15O3+
279.1372	109	C19H19O2+
280.1049	5	C18H16O3+
280.1436	68	C19H20O2+
281.1522	124	C19H21O2+
282.1552	27	C18[13]CH21O2+
283.1664	22	C19H23O2+
284.1525	5	C22H20+
285.1254	38	C18H18FO2+
286.1329	11	C17[13]CH18FO2+
288.1134	34	C20H16O2+
289.1169	14	C20H17O2+
290.1286	8	C20H18O2+
291.1371	49	C20H19O2+
292.1413	17	C19[13]CH19O2+
293.1178	6	C16H18FO4+
293.152	104	C20H21O2+
294.1562	34	C19[13]CH21O2+
295.1316	29	C19H19O3+
296.1372	10	C19H20O3+
297.1481	26	C19H21O3+
298.1494	9	C19H22O3+
301.1588	8	C22H21O+
303.137	64	C21H19O2+
304.1407	17	C20[13]CH19O2+
306.1236	12	C20H18O3+
307.1331	5	C20H19O3+
309.1471	14	C20H21O3+
310.1482	5	C19[13]CH21O3+
311.1634	52	C20H23O3+
312.1669	15	C19[13]CH23O3+
321.1469	66	C21H21O3+
322.1508	19	C20[13]CH21O3+
329.171	6	C24H22F+
339.1586	67	C21H23O4+
340.1625	19	C20[13]CH23O4+
397.1987	12	C24H29O5+
398.2033	5	C23[13]CH29O5+
