Mass spectrum: 3-(Trimethoxysilyl)propyl methacrylate; GC-APCI-QTOF; MS2; CE: 40 eV; R=35000; [M]+
Name: 3-(Trimethoxysilyl)propyl methacrylate
Formula: C10H20O5Si
Exact mass: 248.1080
SMILES: CC(=C)C(=O)OCCC[Si](OC)(OC)OC
InChI: InChI=1S/C10H20O5Si/c1-9(2)10(11)15-7-6-8-16(12-3,13-4)14-5/h1,6-8H2,2-5H3
Instrument: Bruker 450 GC coupled to maXis Impact
Instrument type: GC-APCI-QTOF
Ms type: MS2
Ion mode: POSITIVE
Ionization: APCI
Fragmentation mode: CID
Collision energy: 40 eV
Resolution: 35000
Column name: Rxi-5Sil MS column, 30m, 0.25mm i.d., 0.25Âµm film thickness, Restek
Retention time: 11.570 min
Base peak: 217.089
Precursor m/z: 248.1075
Precursor type: [M]+
m/z	relative intensity	assigned
95.014	66	C5H3O2+
109.0295	99	C6H5O2+
125.0261	999	C2H9O4Si+
137.0263	99	C3H9O4Si+
139.0442	619	C3H11O4Si+
140.0444	83	C7H8O3+
143.0385	63	C2H11O5Si+
147.0114	97	C4H7O4Si+
147.1242	68	C4H19O5+
151.0441	57	C4H11O4Si+
177.0242	163	C5H9O5Si+
179.041	59	C5H11O5Si+
191.0401	110	C6H11O5Si+
