Mass spectrum: Chlorpromazine; LC-ESI-QTOF; MS2; CE: 20 eV; R=35000; [M+H]+
Name: Chlorpromazine
Name: 3-(2-chlorophenothiazin-10-yl)-N,N-dimethylpropan-1-amine
Formula: C17H19ClN2S
Exact mass: 318.0957473
SMILES: CN(C)CCCN1c2ccccc2Sc3c1cc(cc3)Cl
InChI: InChI=1S/C17H19ClN2S/c1-19(2)10-5-11-20-14-6-3-4-7-16(14)21-17-9-8-13(18)12-15(17)20/h3-4,6-9,12H,5,10-11H2,1-2H3
Instrument: Bruker maXis Impact
Instrument type: LC-ESI-QTOF
Ms type: MS2
Ion mode: POSITIVE
Ionization: ESI
Fragmentation mode: CID
Collision energy: 20 eV
Resolution: 35000
Column name: Acclaim RSLC C18 2.2um, 2.1x100mm, Thermo
Retention time: 9.4 min
Base peak: 319.0946
Precursor m/z: 319.103
Precursor type: [M+H]+
m/z	relative intensity	assigned
246.0075	63	C16H5ClN+
247.0114	5	C15[13]CH5ClN+
248.0047	18	C16H5[37]ClN+
274.0375	32	C14H11ClN2S+
276.0354	11	C14H11[37]ClN2S+
319.0999	999	C17H20ClN2S+
320.1022	148	C16[13]CH20ClN2S+
