Mass spectrum: Olopatadine; LC-ESI-QTOF; MS2; CE: 30 eV; R=35000; [M+H]+
Name: Olopatadine
Name: 2-[(11Z)-11-[3-(dimethylazaniumyl)propylidene]-6H-benzo[c][1]benzoxepin-2-yl]acetate
Formula: C21H23NO3
Exact mass: 337.1677936
SMILES: CN(C)CC/C=C\1/c2ccccc2COc3c1cc(cc3)CC(=O)O
InChI: InChI=1S/C21H23NO3/c1-22(2)11-5-8-18-17-7-4-3-6-16(17)14-25-20-10-9-15(12-19(18)20)13-21(23)24/h3-4,6-10,12H,5,11,13-14H2,1-2H3,(H,23,24)/b18-8-
Instrument: Bruker maXis Impact
Instrument type: LC-ESI-QTOF
Ms type: MS2
Ion mode: POSITIVE
Ionization: ESI
Fragmentation mode: CID
Collision energy: 30 eV
Resolution: 35000
Column name: Acclaim RSLC C18 2.2um, 2.1x100mm, Thermo
Retention time: 6.985 min
Base peak: 338.1781
Precursor m/z: 338.1751
Precursor type: [M+H]+
m/z	relative intensity	assigned
115.055	42	C9H7+
117.0703	49	C9H9+
118.0739	5	C8[13]CH9+
119.0499	5	C8H7O+
123.0445	31	C7H7O2+
128.0624	9	C10H8+
129.0703	48	C10H9+
130.0739	5	C9[13]CH9+
131.0496	12	C9H7O+
137.0604	65	C8H9O2+
138.0636	5	C7[13]CH9O2+
141.0706	119	C11H9+
142.0757	18	C10[13]CH9+
143.0858	11	C11H11+
149.0603	7	C9H9O2+
161.0603	9	C10H9O2+
165.0557	758	C9H9O3+
166.0588	59	C8[13]CH9O3+
167.0606	5	C7[13]C2H9O3+
173.1207	16	C12H15N+
178.0787	5	C14H10+
179.0861	33	C14H11+
186.1286	12	C13H16N+
189.0557	17	C11H9O3+
191.0863	11	C15H11+
193.1022	13	C15H13+
203.0863	8	C16H11+
204.094	13	C16H12+
205.0655	5	C15H9O+
205.1023	26	C16H13+
206.1059	5	C15[13]CH13+
207.0816	19	C15H11O+
208.0924	6	C15H12O+
209.0976	5	C15H13O+
215.0863	11	C17H11+
217.1021	8	C17H13+
219.0819	38	C16H11O+
219.1186	60	C17H15+
220.0856	7	C15[13]CH11O+
220.1219	9	C16[13]CH15+
221.0978	100	C16H13O+
222.1003	14	C15[13]CH13O+
229.1027	70	C18H13+
230.1067	14	C17[13]CH13+
231.0822	12	C17H11O+
232.0898	93	C17H12O+
233.0965	45	C17H13O+
234.1054	91	C17H14O+
235.1087	16	C16[13]CH14O+
245.0982	5	C18H13O+
247.114	999	C18H15O+
248.1172	147	C18H16O+
249.0935	6	C17H13O2+
249.1258	23	C17[13]CH16O+
252.0797	23	C19H10N+
253.0876	72	C19H11N+
254.0903	11	C18[13]CH11N+
257.0994	5	C19H13O+
265.0881	12	C20H11N+
265.1236	7	C18H17O2+
275.109	5	C19H15O2+
293.1198	109	C19H17O3+
294.1229	20	C18[13]CH17O3+
338.1782	715	C21H24NO3+
339.1814	130	C20[13]CH24NO3+
340.1843	15	C19[13]C2H24NO3+
