Mass spectrum: Imazapyr; LC-ESI-QTOF; MS2; CE: 20 eV; R=35000; [M+H]+
Name: Imazapyr
Name: 2-(4-methyl-5-oxo-4-propan-2-yl-1H-imidazol-2-yl)pyridine-3-carboxylic acid
Formula: C13H15N3O3
Exact mass: 261.1113413
SMILES: CC(C)C1(C)N=C(NC1=O)C1=NC=CC=C1C(O)=O
InChI: InChI=1S/C13H15N3O3/c1-7(2)13(3)12(19)15-10(16-13)9-8(11(17)18)5-4-6-14-9/h4-7H,1-3H3,(H,17,18)(H,15,16,19)
Instrument: Bruker maXis Impact
Instrument type: LC-ESI-QTOF
Ms type: MS2
Ion mode: POSITIVE
Ionization: ESI
Fragmentation mode: CID
Collision energy: 20 eV
Resolution: 35000
Column name: Acclaim RSLC C18 2.2um, 2.1x100mm, Thermo
Retention time: 4.244 min
Base peak: 262.1185
Precursor m/z: 262.1186
Precursor type: [M+H]+
m/z	relative intensity	assigned
147.0547	5	C8H7N2O+
148.0494	12	C7H6N3O+
149.0336	59	C7H5N2O2+
173.1064	38	C11H13N2+
174.0649	13	C9H8N3O+
191.0679	6	C9H9N3O2+
199.0855	19	C12H11N2O+
202.0605	104	C10H8N3O2+
203.0633	10	C9[13]CH8N3O2+
216.1127	46	C12H14N3O+
217.0968	478	C12H13N2O2+
218.0998	52	C11[13]CH13N2O2+
219.0626	6	C10H9N3O3+
220.0713	307	C10H10N3O3+
221.0737	27	C9[13]CH10N3O3+
234.1235	272	C12H16N3O2+
235.1261	30	C11[13]CH16N3O2+
244.1075	11	C13H14N3O2+
262.1186	999	C13H16N3O3+
263.1215	107	C12[13]CH16N3O3+
264.1234	10	C11[13]C2H16N3O3+
