Mass spectrum: Gemfibrozil; LC-ESI-QTOF; MS2; CE: 10 eV; R=35000; [M+H]+
Name: Gemfibrozil
Name: 5-(2,5-dimethylphenoxy)-2,2-dimethylpentanoic acid
Formula: C15H22O3
Exact mass: 250.1568946
SMILES: CC1=CC(OCCCC(C)(C)C(O)=O)=C(C)C=C1
InChI: InChI=1S/C15H22O3/c1-11-6-7-12(2)13(10-11)18-9-5-8-15(3,4)14(16)17/h6-7,10H,5,8-9H2,1-4H3,(H,16,17)
Instrument: Bruker maXis Impact
Instrument type: LC-ESI-QTOF
Ms type: MS2
Ion mode: POSITIVE
Ionization: ESI
Fragmentation mode: CID
Collision energy: 10 eV
Resolution: 35000
Column name: Acclaim RSLC C18 2.2um, 2.1x100mm, Thermo
Retention time: 11.905 min
Base peak: 251.1637
Precursor m/z: 251.1642
Precursor type: [M+H]+
m/z	relative intensity	assigned
123.0797	145	C8H11O+
129.0901	999	C7H13O2+
130.0943	95	C6[13]CH13O2+
161.0936	23	C11H13O+
197.1167	20	C11H17O3+
205.1577	381	C14H21O+
206.1609	46	C13[13]CH21O+
233.1532	479	C15H21O2+
234.1558	77	C14[13]CH21O2+
251.1635	36	C15H23O3+
