Mass spectrum: Methyl n-octanoate; GC-APCI-QTOF; MS2; CE: 10 eV; R=35000; [M+H]+
Name: Methyl n-octanoate
Formula: C9H18O2
Exact mass: 158.1307
SMILES: CCCCCCCC(=O)OC
InChI: InChI=1S/C9H18O2/c1-3-4-5-6-7-8-9(10)11-2/h3-8H2,1-2H3
Instrument: Bruker 450 GC coupled to maXis Impact
Instrument type: GC-APCI-QTOF
Ms type: MS2
Ion mode: POSITIVE
Ionization: APCI
Fragmentation mode: CID
Collision energy: 10 eV
Resolution: 35000
Column name: Rxi-5Sil MS column, 30m, 0.25mm i.d., 0.25Âµm film thickness, Restek
Retention time: 8.706 min
Base peak: 159.1402
Precursor m/z: 159.138
Precursor type: [M+H]+
m/z	relative intensity	assigned
57.071	9	C4H9+
103.0756	28	C5H11O2+
115.0755	5	C6H11O2+
117.0916	30	C6H13O2+
125.0963	25	C8H13O+
127.1115	9	C8H15O+
129.0887	7	C7H13O2+
131.1051	11	C7H15O2+
157.1249	14	C9H17O2+
159.1404	999	C9H19O2+
