Mass spectrum: Chlorotoluron; LC-ESI-QTOF; MS2; CE: 40 eV; R=35000; [M+H]+
Name: Chlorotoluron
Name: 3-(3-chloro-4-methylphenyl)-1,1-dimethylurea
Formula: C10H13ClN2O
Exact mass: 212.0716407
SMILES: CN(C)C(=O)NC1=CC(Cl)=C(C)C=C1
InChI: InChI=1S/C10H13ClN2O/c1-7-4-5-8(6-9(7)11)12-10(14)13(2)3/h4-6H,1-3H3,(H,12,14)
Instrument: Bruker maXis Impact
Instrument type: LC-ESI-QTOF
Ms type: MS2
Ion mode: POSITIVE
Ionization: ESI
Fragmentation mode: CID
Collision energy: 40 eV
Resolution: 35000
Column name: Acclaim RSLC C18 2.2um, 2.1x100mm, Thermo
Retention time: 8.023 min
Base peak: 213.0787
Precursor m/z: 213.0789
Precursor type: [M+H]+
m/z	relative intensity	assigned
113.0144	36	C6H6Cl+
115.0126	16	C6H6[37]Cl+
120.0791	13	C8H10N+
121.0857	11	C8H11N+
125.0144	445	C7H6Cl+
126.0171	35	C6[13]CH6Cl+
127.0114	172	C7H6[37]Cl+
128.0155	13	C5H5ClN2+
132.0433	73	C8H6NO+
133.0503	101	C8H7NO+
134.0954	17	C9H12N+
140.0247	999	C7H7ClN+
141.0283	87	C6[13]CH7ClN+
142.0218	317	C7H7[37]ClN+
143.0252	29	C7H8ClO+
152.9945	23	C7H4ClNO+
153.0206	37	C10H3NO+
166.0062	20	C8H5ClNO+
168.0201	38	C8H7ClNO+
170.0162	17	C8H7[37]ClNO+
