Mass spectrum: Flurtamone; LC-ESI-QTOF; MS2; CE: 10 eV; R=35000; [M-H]-
Name: Flurtamone
Name: 5-(methylamino)-2-phenyl-4-[3-(trifluoromethyl)phenyl]furan-3-one
Formula: C18H14F3NO2
Exact mass: 333.0976633
SMILES: CNC1=C(C(=O)C(O1)C1=CC=CC=C1)C1=CC=CC(=C1)C(F)(F)F
InChI: InChI=1S/C18H14F3NO2/c1-22-17-14(12-8-5-9-13(10-12)18(19,20)21)15(23)16(24-17)11-6-3-2-4-7-11/h2-10,16,22H,1H3
Instrument: Bruker maXis Impact
Instrument type: LC-ESI-QTOF
Ms type: MS2
Ion mode: NEGATIVE
Ionization: ESI
Fragmentation mode: CID
Collision energy: 10 eV
Resolution: 35000
Column name: Acclaim RSLC C18 2.2um, 2.1x100mm, Thermo
Retention time: 9.126 min
Base peak: 332.0907
Precursor m/z: 332.0904
Precursor type: [M-H]-
m/z	relative intensity	assigned
332.0904	999	C18H13F3NO2-
333.0935	169	C17[13]CH13F3NO2-
334.0946	14	C16[13]C2H13F3NO2-
