Mass spectrum: Trifloxystrobin; LC-ESI-QTOF; MS2; CE: 40 eV; R=35000; [M+H]+
Name: Trifloxystrobin
Name: methyl (2Z)-2-methoxyimino-2-[2-[[(E)-1-[3-(trifluoromethyl)phenyl]ethylideneamino]oxymethyl]phenyl]acetate
Formula: C20H19F3N2O4
Exact mass: 408.1296917
SMILES: CO\N=C(/C(=O)OC)C1=C(CO\N=C(/C)C2=CC(=CC=C2)C(F)(F)F)C=CC=C1
InChI: InChI=1S/C20H19F3N2O4/c1-13(14-8-6-9-16(11-14)20(21,22)23)24-29-12-15-7-4-5-10-17(15)18(25-28-3)19(26)27-2/h4-11H,12H2,1-3H3/b24-13+,25-18-
Instrument: Bruker maXis Impact
Instrument type: LC-ESI-QTOF
Ms type: MS2
Ion mode: POSITIVE
Ionization: ESI
Fragmentation mode: CID
Collision energy: 40 eV
Resolution: 35000
Column name: Acclaim RSLC C18 2.2um, 2.1x100mm, Thermo
Retention time: 11.6 min
Base peak: 409.1376
Precursor m/z: 409.137
Precursor type: [M+H]+
m/z	relative intensity	assigned
117.0561	20	C2H10FO4+
125.0194	6	C7H3F2+
130.0643	36	C3H11FO4+
132.0433	10	C8H6NO+
132.0794	66	C3H13FO4+
145.0253	355	C7H4F3+
146.0283	28	C6[13]CH4F3+
147.0655	11	C6H11O4+
148.0747	5	C9H10NO+
161.0461	7	C9H7NO2+
162.0906	6	C10H12NO+
163.0357	13	C10H5F2+
173.0313	108	C7H4F3N2+
174.0344	8	C6[13]CH4F3N2+
186.052	999	C9H7F3N+
