Mass spectrum: Sulfadimethoxine; LC-ESI-QTOF; MS2; CE: 50 eV; R=35000; [M+H]+
Name: Sulfadimethoxine
Name: 4-amino-n-(2,6-dimethoxypyrimidin-4-yl)benzenesulfonamide
Formula: C12H14N4O4S
Exact mass: 310.0735759
SMILES: COc1cc(nc(n1)OC)NS(=O)(=O)c2ccc(cc2)N
InChI: InChI=1S/C12H14N4O4S/c1-19-11-7-10(14-12(15-11)20-2)16-21(17,18)9-5-3-8(13)4-6-9/h3-7H,13H2,1-2H3,(H,14,15,16)
Instrument: Bruker maXis Impact
Instrument type: LC-ESI-QTOF
Ms type: MS2
Ion mode: POSITIVE
Ionization: ESI
Fragmentation mode: CID
Collision energy: 50 eV
Resolution: 35000
Column name: Acclaim RSLC C18 2.2um, 2.1x100mm, Thermo
Retention time: 4.7 min
Base peak: 311.0805
Precursor m/z: 311.0809
Precursor type: [M+H]+
m/z	relative intensity	assigned
112.051	52	C4H6N3O+
123.0427	77	C5H5N3O+
124.0502	64	C5H6N3O+
126.0287	58	C4H4N3O2+
126.0666	62	C5H8N3O+
127.0491	39	C5H7N2O2+
132.0559	95	C7H6N3+
133.0628	51	C7H7N3+
138.0293	105	C5H4N3O2+
140.045	457	C5H6N3O2+
141.0521	467	C5H7N3O2+
142.0539	38	C3H12NO3S+
154.0606	999	C6H8N3O2+
156.0102	36	C4H4N4OS+
156.0405	52	C5H6N3O3+
156.0769	171	C6H10N3O2+
157.0629	58	C9H7N3+
160.0507	39	C8H6N3O+
178.0613	94	C8H8N3O2+
184.0741	47	C10H8N4+
201.0768	90	C10H9N4O+
212.0705	75	C5H14N3O4S+
