Mass spectrum: Hydrocortisonacetate; LC-ESI-QTOF; MS2; CE: 10 eV; R=35000; [M+H]+
Name: Hydrocortisonacetate
Name: Hydrocortisone acetate
Name: [2-[(8S,9S,10R,11S,13S,14S,17R)-11,17-dihydroxy-10,13-dimethyl-3-oxo-2,6,7,8,9,11,12,14,15,16-decahydro-1H-cyclopenta[a]phenanthren-17-yl]-2-oxoethyl] acetate
Formula: C23H32O6
Exact mass: 404.2198887
SMILES: [H][C@@]12CC[C@](O)(C(=O)COC(C)=O)[C@@]1(C)C[C@H](O)[C@@]1([H])[C@@]2([H])CCC2=CC(=O)CC[C@]12C
InChI: InChI=1S/C23H32O6/c1-13(24)29-12-19(27)23(28)9-7-17-16-5-4-14-10-15(25)6-8-21(14,2)20(16)18(26)11-22(17,23)3/h10,16-18,20,26,28H,4-9,11-12H2,1-3H3/t16-,17-,18-,20+,21-,22-,23-/m0/s1
Instrument: Bruker maXis Impact
Instrument type: LC-ESI-QTOF
Ms type: MS2
Ion mode: POSITIVE
Ionization: ESI
Fragmentation mode: CID
Collision energy: 10 eV
Resolution: 35000
Column name: Acclaim RSLC C18 2.2um, 2.1x100mm, Thermo
Retention time: 8.785 min
Base peak: 453.2082
Precursor m/z: 405.2272
Precursor type: [M+H]+
m/z	relative intensity	assigned
241.159	6	C17H21O+
291.1783	5	C14H27O6+
309.1843	23	C21H25O2+
310.1875	5	C20[13]CH25O2+
327.1949	39	C21H27O3+
328.1972	6	C20[13]CH27O3+
345.2094	6	C21H29O4+
369.2096	8	C23H29O4+
387.2176	9	C23H31O5+
405.2273	999	C23H33O6+
406.2298	289	C22[13]CH33O6+
407.2336	40	C21[13]C2H33O6+
