Mass spectrum: Prosulfocarb; LC-ESI-QTOF; MS2; CE: 20 eV; R=35000; [M+H]+
Name: Prosulfocarb
Name: S-benzyl N,N-dipropylcarbamothioate
Formula: C14H21NOS
Exact mass: 251.1343853
SMILES: CCCN(CCC)C(=O)SCC1=CC=CC=C1
InChI: InChI=1S/C14H21NOS/c1-3-10-15(11-4-2)14(16)17-12-13-8-6-5-7-9-13/h5-9H,3-4,10-12H2,1-2H3
Instrument: Bruker maXis Impact
Instrument type: LC-ESI-QTOF
Ms type: MS2
Ion mode: POSITIVE
Ionization: ESI
Fragmentation mode: CID
Collision energy: 20 eV
Resolution: 35000
Column name: Acclaim RSLC C18 2.2um, 2.1x100mm, Thermo
Retention time: 11.972 min
Base peak: 252.1419
Precursor m/z: 252.1417
Precursor type: [M+H]+
m/z	relative intensity	assigned
128.1063	723	C7H14NO+
129.1096	62	C6[13]CH14NO+
144.0826	19	C7H14NS+
192.175	17	C13H22N+
225.042	12	C14H9OS+
252.1416	999	C14H22NOS+
253.1444	171	C13[13]CH22NOS+
254.1387	47	C14H22NO[34]S+
