Mass spectrum: Flumequine; LC-ESI-QTOF; MS2; CE: 50 eV; R=35000; [M+H]+
Name: Flumequine
Formula: C14H12FNO3
Exact mass: 261.0801215
SMILES: CC1CCc2cc(cc3c2n1cc(c3=O)C(=O)O)F
InChI: InChI=1S/C14H12FNO3/c1-7-2-3-8-4-9(15)5-10-12(8)16(7)6-11(13(10)17)14(18)19/h4-7H,2-3H2,1H3,(H,18,19)
Instrument: Bruker maXis Impact
Instrument type: LC-ESI-QTOF
Ms type: MS2
Ion mode: POSITIVE
Ionization: ESI
Fragmentation mode: CID
Collision energy: 50 eV
Resolution: 35000
Column name: Acclaim RSLC C18 2.2um, 2.1x100mm, Thermo
Retention time: 7.3 min
Base peak: 262.087
Precursor m/z: 262.0874
Precursor type: [M+H]+
m/z	relative intensity	assigned
116.0491	7	C8H6N+
119.0293	16	C8H4F+
120.0354	7	C8H5F+
126.0331	157	C9H4N+
127.0373	15	C6H7O3+
133.0443	9	C9H6F+
144.0431	45	C9H6NO+
146.0395	447	C9H5FN+
147.0451	51	C8[13]CH5FN+
148.0542	16	C6H9FO3+
154.0392	289	C11H6O+
155.0424	16	C10[13]CH6O+
158.0395	9	C10H5FN+
159.0466	11	C10H6FN+
160.0375	6	C9H6NO2+
161.0623	10	C10H8FN+
164.0497	30	C12H6N+
172.0391	5	C10H6NO2+
172.0551	17	C11H7FN+
173.0614	6	C8H10FO3+
174.0344	999	C10H5FNO+
175.0374	68	C12[13]CH4N+
176.0488	9	C13H6N+
176.0878	5	C11H11FN+
187.0428	5	C11H6FNO+
188.051	5	C11H7FNO+
192.0451	25	C10H7FNO2+
200.0494	16	C12H7FNO+
200.0874	7	C13H11FN+
202.0294	974	C11H5FNO2+
203.0335	76	C10[13]CH5FNO2+
220.0401	673	C11H7FNO3+
221.0443	60	C10[13]CH7FNO3+
232.04	7	C12H7FNO3+
238.0506	351	C14H8NO3+
239.0546	33	C13[13]CH8NO3+
244.0755	23	C14H11FNO2+
262.0881	40	C14H13FNO3+
