Mass spectrum: Oleamide; GC-APCI-QTOF; MS2; CE: 50 eV; R=35000; [M]+
Name: Oleamide
Formula: C18H35NO
Exact mass: 281.2719
SMILES: CCCCCCCCC=CCCCCCCCC(=O)N
InChI: InChI=1S/C18H35NO/c1-2-3-4-5-6-7-8-9-10-11-12-13-14-15-16-17-18(19)20/h9-10H,2-8,11-17H2,1H3,(H2,19,20)
Instrument: Bruker 450 GC coupled to maXis Impact
Instrument type: GC-APCI-QTOF
Ms type: MS2
Ion mode: POSITIVE
Ionization: APCI
Fragmentation mode: CID
Collision energy: 50 eV
Resolution: 35000
Column name: Rxi-5Sil MS column, 30m, 0.25mm i.d., 0.25Âµm film thickness, Restek
Retention time: 17.533 min
Base peak: 281.2458
Precursor m/z: 281.2713
Precursor type: [M]+
m/z	relative intensity	assigned
53.0029	14	C3HO+
53.0397	68	C4H5+
54.0456	5	C4H6+
55.0548	999	C4H7+
57.0342	18	C3H5O+
57.0705	183	C4H9+
59.0493	28	C3H7O+
65.0391	155	C5H5+
67.0542	930	C5H7+
69.0698	553	C5H9+
71.0489	81	C4H7O+
71.086	16	C5H11+
73.0646	5	C4H9O+
77.0392	7	C6H5+
79.0538	290	C6H7+
81.0693	388	C6H9+
83.0486	36	C5H7O+
83.085	82	C6H11+
85.0647	15	C5H9O+
91.0536	124	C7H7+
93.0328	10	C6H5O+
93.0691	81	C7H9+
95.0482	31	C6H7O+
95.0845	151	C7H11+
97.0639	31	C6H9O+
97.1023	10	C7H13+
105.0691	48	C8H9+
107.0849	18	C8H11+
109.0644	10	C7H9O+
109.1	27	C8H13+
111.0793	5	C7H11O+
115.0532	5	C9H7+
117.0716	11	C9H9+
119.0846	48	C9H11+
120.0909	5	C9H12+
121.1007	20	C9H13+
123.0794	10	C8H11O+
123.1169	8	C9H15+
131.0862	10	C10H11+
133.1019	26	C10H13+
135.118	8	C10H15+
145.1041	5	C11H13+
147.1196	16	C11H15+
149.0247	497	C11H3N+
167.0395	5	C11H5NO+
175.1496	5	C13H19+
