Mass spectrum: N,N-Didesvenlafaxine; LC-ESI-QTOF; MS2; CE: 50 eV; R=35000; [M+H]+
Name: N,N-Didesvenlafaxine
Name: Dinorvenlafaxine
Formula: C15H23NO2
Exact mass: 249.1728790
SMILES: COC1=CC=C(C=C1)C(CN)C1(O)CCCCC1
InChI: InChI=1S/C15H23NO2/c1-18-13-7-5-12(6-8-13)14(11-16)15(17)9-3-2-4-10-15/h5-8,14,17H,2-4,9-11,16H2,1H3
Instrument: Bruker maXis Impact
Instrument type: LC-ESI-QTOF
Ms type: MS2
Ion mode: POSITIVE
Ionization: ESI
Fragmentation mode: CID
Collision energy: 50 eV
Resolution: 35000
Column name: Acclaim RSLC C18 2.2um, 2.1x100mm, Thermo
Retention time: 6.3 min
Base peak: 250.1797
Precursor m/z: 250.1802
Precursor type: [M+H]+
m/z	relative intensity	assigned
115.0535	365	C9H7+
116.0596	70	C4H8N2O2+
117.0696	69	C9H9+
118.0639	35	C8H8N+
119.0842	43	C9H11+
121.0638	999	C8H9O+
122.0677	117	C7[13]CH9O+
127.0541	32	C10H7+
128.0611	184	C10H8+
129.0696	84	C10H9+
130.0731	61	C5H10N2O2+
131.0478	249	C9H7O+
132.0558	294	C9H8O+
133.0626	71	C9H9O+
135.0794	58	C9H11O+
141.0698	119	C11H9+
142.0752	39	C11H10+
143.0487	72	C10H7O+
144.0561	177	C10H8O+
145.0635	152	C10H9O+
146.0704	39	C10H10O+
147.0793	229	C10H11O+
153.0701	44	C12H9+
155.0577	56	C7H9NO3+
157.065	40	C11H9O+
158.0711	253	C11H10O+
159.0783	127	C11H11O+
171.0798	67	C12H11O+
173.0945	65	C12H13O+
