Mass spectrum: Niflumic acid; LC-ESI-QTOF; MS2; CE: 40 eV; R=35000; [M+H]+
Name: Niflumic acid
Name: 2-[3-(trifluoromethyl)anilino]pyridine-3-carboxylic acid
Formula: C13H9F3N2O2
Exact mass: 282.0616122
SMILES: c1cc(cc(c1)Nc2c(cccn2)C(=O)O)C(F)(F)F
InChI: InChI=1S/C13H9F3N2O2/c14-13(15,16)8-3-1-4-9(7-8)18-11-10(12(19)20)5-2-6-17-11/h1-7H,(H,17,18)(H,19,20)
Instrument: Bruker maXis Impact
Instrument type: LC-ESI-QTOF
Ms type: MS2
Ion mode: POSITIVE
Ionization: ESI
Fragmentation mode: CID
Collision energy: 40 eV
Resolution: 35000
Column name: Acclaim RSLC C18 2.2um, 2.1x100mm, Thermo
Retention time: 9.4 min
Base peak: 283.0591
Precursor m/z: 283.0689
Precursor type: [M+H]+
m/z	relative intensity	assigned
145.02	116	C8H2FN2+
146.0245	7	C8H4NO2+
168.0614	101	C9H8F2N+
169.0647	9	C12H9O+
190.0387	10	C11H7FO2+
196.0557	98	C13H7FN+
197.0572	12	C12[13]CH8O2+
198.049	8	C10H8F2O2+
217.049	136	C10H8F3O2+
218.0523	19	C9[13]CH8F3O2+
236.0475	8	C13H7F3O+
237.0546	33	C13H8F3O+
238.0396	22	C11H5F3N2O+
245.0481	348	C13H7F2N2O+
246.0511	35	C12[13]CH7F2N2O+
247.0484	6	C13H6F3N2+
263.0577	10	C13H9F2N2O2+
264.0453	11	C13H7F3N2O+
265.0531	999	C13H8F3N2O+
266.0574	95	C12[13]CH8F3N2O+
267.0542	7	C13H8F3NO2+
