Mass spectrum: Amisulpride; LC-ESI-QTOF; MS2; CE: 40 eV; R=35000; [M+H]+
Name: Amisulpride
Name: 4-amino-N-[(1-ethylpyrrolidin-2-yl)methyl]-5-ethylsulfonyl-2-methoxybenzamide
Formula: C17H27N3O4S
Exact mass: 369.1722273
SMILES: CCN1CCCC1CNC(=O)C1=C(OC)C=C(N)C(=C1)S(=O)(=O)CC
InChI: InChI=1S/C17H27N3O4S/c1-4-20-8-6-7-12(20)11-19-17(21)13-9-16(25(22,23)5-2)14(18)10-15(13)24-3/h9-10,12H,4-8,11,18H2,1-3H3,(H,19,21)
Instrument: Bruker maXis Impact
Instrument type: LC-ESI-QTOF
Ms type: MS2
Ion mode: POSITIVE
Ionization: ESI
Fragmentation mode: CID
Collision energy: 40 eV
Resolution: 35000
Column name: Acclaim RSLC C18 2.2um, 2.1x100mm, Thermo
Retention time: 3.9 min
Base peak: 370.1798
Precursor m/z: 370.1795
Precursor type: [M+H]+
m/z	relative intensity	assigned
112.1118	10	C7H14N+
121.0512	5	C7H7NO+
149.0463	123	H11N3O4S+
168.0099	10	C7H6NO2S+
177.9946	4	C8H4NO2S+
196.0058	999	C14N2+
214.0164	147	C14H2N2O+
242.0485	759	C10H12NO4S+
243.0509	158	C9[13]CH12NO4S+
244.0449	39	C10H12NO4[34]S+
370.181	7	C17H28N3O4S+
