Mass spectrum: Ranitidine-N-oxide; LC-ESI-QTOF; MS2; CE: 30 eV; R=35000; [M+H]+
Name: Ranitidine-N-oxide
Name: Ranitidine N-oxide
Name: N,N-dimethyl-1-[5-[2-[[(E)-1-(methylamino)-2-nitroethenyl]amino]ethylsulfanylmethyl]furan-2-yl]methanamine oxide
Formula: C13H22N4O4S
Exact mass: 330.1361762
SMILES: CN\C(NCCSCC1=CC=C(C[N+](C)(C)[O-])O1)=C/[N+]([O-])=O
InChI: InChI=1S/C13H22N4O4S/c1-14-13(8-16(18)19)15-6-7-22-10-12-5-4-11(21-12)9-17(2,3)20/h4-5,8,14-15H,6-7,9-10H2,1-3H3/b13-8+
Instrument: Bruker maXis Impact
Instrument type: LC-ESI-QTOF
Ms type: MS2
Ion mode: POSITIVE
Ionization: ESI
Fragmentation mode: CID
Collision energy: 30 eV
Resolution: 35000
Column name: Acclaim RSLC C18 2.2um, 2.1x100mm, Thermo
Retention time: 3.3 min
Base peak: 331.1439
Precursor m/z: 331.1435
Precursor type: [M+H]+
m/z	relative intensity	assigned
117.0473	9	C4H9N2S+
118.0315	12	C4H8NOS+
121.0751	19	C7H9N2+
125.0048	860	C4H3N3S+
127.0009	25	C6H5O[34]S+
129.0475	27	C5H9N2S+
130.0553	960	C5H10N2S+
131.0591	49	C4[13]CH10N2S+
133.0514	8	H11N3O3S+
135.0255	6	C8H7S+
135.0907	44	H15N4O2S+
136.0742	5	C6H8N4+
144.0757	36	C5H10N3O2+
145.0418	15	C5H9N2OS+
146.0494	9	C2H12NO4S+
147.0217	5	C4H7N2O2S+
147.0582	22	C5H11N2OS+
149.0706	18	H13N4O3S+
151.02	5	C6H5N3S+
152.0278	8	C6H6N3S+
153.0359	51	C6H7N3S+
154.039	5	C5[13]CH7N3S+
154.0551	12	C7H10N2S+
163.0857	34	CH15N4O3S+
165.1014	252	CH17N4O3S+
167.0626	64	C8H11N2S+
168.0649	5	C7[13]CH11N2S+
170.0624	63	C6H10N4S+
171.0648	6	C5[13]CH10N4S+
176.0481	999	C5H10N3O2S+
178.0327	16	C9H8NOS+
178.1087	47	C2H18N4O3S+
181.0786	116	C9H13N2S+
182.0816	13	C8[13]CH13N2S+
191.1171	355	C3H19N4O3S+
194.0602	18	C13H8NO+
195.0704	14	C8H11N4S+
207.0936	6	C8H17NO3S+
209.0731	10	C10H13N2OS+
223.0897	17	C11H15N2OS+
224.0971	184	C11H16N2OS+
270.0907	6	C11H16N3O3S+
