Mass spectrum: Metazachlor-OXA; LC-ESI-QTOF; MS2; CE: 40 eV; R=35000; [M+H]+
Name: Metazachlor-OXA
Name: 2-[2,6-dimethyl-N-(pyrazol-1-ylmethyl)anilino]-2-oxoacetic acid
Formula: C14H15N3O3
Exact mass: 273.1113413
SMILES: Cc1cccc(C)c1N(Cn1cccn1)C(=O)C(O)=O
InChI: InChI=1S/C14H15N3O3/c1-10-5-3-6-11(2)12(10)17(13(18)14(19)20)9-16-8-4-7-15-16/h3-8H,9H2,1-2H3,(H,19,20)
Instrument: Bruker maXis Impact
Instrument type: LC-ESI-QTOF
Ms type: MS2
Ion mode: POSITIVE
Ionization: ESI
Fragmentation mode: CID
Collision energy: 40 eV
Resolution: 35000
Column name: Acclaim RSLC C18 2.2um, 2.1x100mm, Thermo
Retention time: 4.8 min
Base peak: 150.1115
Precursor m/z: 274.1186
Precursor type: [M+H]+
m/z	relative intensity	assigned
117.0573	31	C8H7N+
118.0644	103	C8H8N+
119.0726	83	C8H9N+
132.0789	71	C6H12O3+
133.084	22	C4H11N3O2+
134.0958	999	C9H12N+
135.0993	65	C8[13]CH12N+
