Mass spectrum: 4-Acetamidoantipyrin; LC-ESI-QTOF; MS2; CE: 20 eV; R=35000; [M+H]+
Name: 4-Acetamidoantipyrin
Name: 4-Acetamidoantipyrine
Name: N-(1,5-dimethyl-3-oxo-2-phenylpyrazol-4-yl)acetamide
Formula: C13H15N3O2
Exact mass: 245.1164267
SMILES: CN1N(C(=O)C(NC(C)=O)=C1C)C1=CC=CC=C1
InChI: InChI=1S/C13H15N3O2/c1-9-12(14-10(2)17)13(18)16(15(9)3)11-7-5-4-6-8-11/h4-8H,1-3H3,(H,14,17)
Instrument: Bruker maXis Impact
Instrument type: LC-ESI-QTOF
Ms type: MS2
Ion mode: POSITIVE
Ionization: ESI
Fragmentation mode: CID
Collision energy: 20 eV
Resolution: 35000
Column name: Acclaim RSLC C18 2.2um, 2.1x100mm, Thermo
Retention time: 3.9 min
Base peak: 246.1234
Precursor m/z: 246.1237
Precursor type: [M+H]+
m/z	relative intensity	assigned
145.0753	10	C9H9N2+
159.0905	67	C10H11N2+
160.094	7	C9[13]CH11N2+
172.0617	8	C10H8N2O+
186.0777	6	C11H10N2O+
187.0857	53	C11H11N2O+
188.0883	7	C10[13]CH11N2O+
189.0887	7	C10H11N3O+
204.1124	642	C11H14N3O+
205.1153	52	C10[13]CH14N3O+
228.1127	999	C13H14N3O+
229.1155	108	C12[13]CH14N3O+
230.1193	7	C12H14N4O+
246.123	68	C13H16N3O2+
