Mass spectrum: Indoxacarb; LC-ESI-QTOF; MS2; CE: 50 eV; R=35000; [M+H]+
Name: Indoxacarb
Name: methyl (4aS)-7-chloro-2-[methoxycarbonyl-[4-(trifluoromethoxy)phenyl]carbamoyl]-3,5-dihydroindeno[1,2-e][1,3,4]oxadiazine-4a-carboxylate
Formula: C22H17ClF3N3O7
Exact mass: 527.0707122
SMILES: COC(=O)N(C(=O)N1CO[C@]2(CC3=CC(Cl)=CC=C3C2=N1)C(=O)OC)C1=CC=C(OC(F)(F)F)C=C1
InChI: InChI=1S/C22H17ClF3N3O7/c1-33-18(30)21-10-12-9-13(23)3-8-16(12)17(21)27-28(11-35-21)19(31)29(20(32)34-2)14-4-6-15(7-5-14)36-22(24,25)26/h3-9H,10-11H2,1-2H3/t21-/m0/s1
Instrument: Bruker maXis Impact
Instrument type: LC-ESI-QTOF
Ms type: MS2
Ion mode: POSITIVE
Ionization: ESI
Fragmentation mode: CID
Collision energy: 50 eV
Resolution: 35000
Column name: Acclaim RSLC C18 2.2um, 2.1x100mm, Thermo
Retention time: 11.555 min
Base peak: 306.1036
Precursor m/z: 528.078
Precursor type: [M+H]+
m/z	relative intensity	assigned
115.0537	5	C4H6FN3+
122.9983	6	C5FN2O+
127.0403	12	C3H8FO4+
128.061	15	CH14ClFO3+
132.0434	32	C2H9FO5+
134.0226	35	CH7FO6+
137.0146	6	C6H2FN2O+
142.0639	10	CH14ClFNO3+
149.0143	18	C7H2FN2O+
150.0093	140	C5H7ClO3+
151.0117	22	ClH8N2O5+
152.0059	40	C5H7[37]ClO3+
154.0383	5	C3H7FN2O4+
155.0591	19	CH13ClFN2O3+
156.0653	5	C7H10NO3+
160.0491	16	C2H9FN2O5+
162.0095	109	C9H5ClN+
163.013	16	C8[13]CH5ClN+
163.0305	14	C5H7ClFN3+
164.0056	27	C9H5[37]ClN+
164.0252	12	CH8ClFN3O3+
165.0299	9	C4H8ClN3O2+
166.0208	6	CH8[37]ClFN3O3+
167.025	27	C7H4FN2O2+
168.0198	84	C2H10ClFO5+
169.0228	19	C6H8ClF2O+
170.0175	24	C2H10[37]ClFO5+
175.0032	5	C6H6ClNO3+
175.0227	7	C10H3F2N+
176.026	8	C10H7ClN+
177.0093	7	C8H2FN2O2+
177.0333	21	C8H4FN3O+
178.0384	5	C5H7FN2O4+
179.0255	37	C8H6ClN3+
180.0204	22	C3H10ClFO5+
181.0221	12	C8H6[37]ClN3+
182.0169	7	C3H10[37]ClFO5+
189.0203	44	C13H3NO+
190.0044	101	C10H5ClNO+
190.024	6	C12[13]CH3NO+
190.0463	48	C11H6F2N+
191.0112	13	C9[13]CH5ClNO+
191.0492	5	C10[13]CH6F2N+
192.0013	29	C10H5[37]ClNO+
192.0183	8	C7H9ClO4+
195.0199	40	C8H6ClN3O+
196.0226	5	C7[13]CH6ClN3O+
197.0173	11	C8H6[37]ClN3O+
203.0182	999	C8H5F2O4+
204.0207	67	C7[13]CH5F2O4+
205.0227	5	C6[13]C2H5F2O4+
206.0046	7	C4H4N3O7+
207.0201	28	ClF2H10N2O6+
208.0163	14	C5H4F2N3O4+
209.0167	9	H10[37]ClF2N2O6+
215.0415	9	C12H5F2N2+
216.026	5	C9H7ClF2N2+
217.0155	32	C2H10ClF2NO6+
218.0185	7	C9H5F3O3+
218.0414	84	C12H6F2NO+
219.0132	9	C2H10[37]ClF2NO6+
219.0308	47	C11H8ClN2O+
220.0345	6	C10[13]CH8ClN2O+
221.0286	14	C11H8[37]ClN2O+
223.0156	10	C11H8ClO3+
230.9957	7	C11H4ClN2O2+
