Mass spectrum: Diuron; LC-ESI-QTOF; MS2; CE: 50 eV; R=35000; [M+H]+
Name: Diuron
Name: 3-(3,4-dichlorophenyl)-1,1-dimethylurea
Formula: C9H10Cl2N2O
Exact mass: 232.0170183
SMILES: CN(C)C(=O)NC1=CC(Cl)=C(Cl)C=C1
InChI: InChI=1S/C9H10Cl2N2O/c1-13(2)9(14)12-6-3-4-7(10)8(11)5-6/h3-5H,1-2H3,(H,12,14)
Instrument: Bruker maXis Impact
Instrument type: LC-ESI-QTOF
Ms type: MS2
Ion mode: POSITIVE
Ionization: ESI
Fragmentation mode: CID
Collision energy: 50 eV
Resolution: 35000
Column name: Acclaim RSLC C18 2.2um, 2.1x100mm, Thermo
Retention time: 8.4 min
Base peak: 233.0237
Precursor m/z: 233.0243
Precursor type: [M+H]+
m/z	relative intensity	assigned
123.9935	179	C9O+
125.0014	707	C9HO+
125.9901	57	C3H6Cl2N+
126.0051	41	CH5ClN3O2+
128.0031	21	C3H8Cl2N+
132.9595	999	C5H3Cl2+
133.9626	65	C4[13]CH3Cl2+
134.9565	626	C5H3[37]Cl[35]Cl+
144.9592	58	C6H3Cl2+
146.9573	42	Cl2H3N3O2+
152.9959	102	C7H4ClNO+
159.9703	473	
160.9737	34	
161.9672	284	
162.9703	24	
172.9656	135	C6H3Cl2N2+
173.9692	13	C5[13]CH3Cl2N2+
174.963	107	C6CH3[37]Cl2N2+
