Mass spectrum: Acetyl-sulfamethoxazole; LC-ESI-QTOF; MS2; CE: 20 eV; R=35000; [M+H]+
Name: Acetyl-sulfamethoxazole
Name: Acetylsulfamethoxazole
Name: N-[4-[(5-methyl-1,2-oxazol-3-yl)sulfamoyl]phenyl]acetamide
Formula: C12H13N3O4S
Exact mass: 295.0626769
SMILES: CC(=O)NC1=CC=C(C=C1)S(=O)(=O)NC1=NOC(C)=C1
InChI: InChI=1S/C12H13N3O4S/c1-8-7-12(14-19-8)15-20(17,18)11-5-3-10(4-6-11)13-9(2)16/h3-7H,1-2H3,(H,13,16)(H,14,15)
Instrument: Bruker maXis Impact
Instrument type: LC-ESI-QTOF
Ms type: MS2
Ion mode: POSITIVE
Ionization: ESI
Fragmentation mode: CID
Collision energy: 20 eV
Resolution: 35000
Column name: Acclaim RSLC C18 2.2um, 2.1x100mm, Thermo
Retention time: 5.239 min
Base peak: 296.0692
Precursor m/z: 296.07
Precursor type: [M+H]+
m/z	relative intensity	assigned
132.0689	6	C2H14NO3S+
134.0591	402	H12N3O3S+
135.0652	64	C5H11O4+
136.0743	309	C8H10NO+
137.0782	30	C7[13]CH10NO+
145.0746	7	C6H11NO3+
146.0699	88	C5H10N2O3+
147.0777	48	C5H11N2O3+
148.0854	34	C5H12N2O3+
149.0695	11	C5H11NO4+
150.0539	88	C8H8NO2+
150.0782	7	C8H10N2O+
151.0299	8	C4H9NO3S+
151.0562	7	C7[13]CH8NO2+
152.0697	43	H14N3O4S+
156.0096	79	C6H6NO2S+
158.008	6	C6H6NO2[34]S+
160.0854	114	C6H12N2O3+
161.0007	30	C4H5N2O3S+
161.0889	8	C5[13]CH12N2O3+
162.065	98	C8H8N3O+
172.0853	8	C7H12N2O3+
174.0227	23	C6H8NO3S+
176.0265	26	C8H6N3S+
177.0096	7	C5H7NO4S+
188.0802	411	C7H12N2O4+
189.0867	101	C7H13N2O4+
190.0955	168	C10H12N3O+
191.0782	9	C11H13NS+
191.0991	26	C9[13]CH12N3O+
193.042	6	C9H9N2OS+
194.0373	191	C8H8N3OS+
195.0194	8	C11H3N2O2+
195.0404	21	C7[13]CH8N3OS+
196.0316	11	C8H8N3O[34]S+
198.0205	926	C8H8NO3S+
199.0234	109	C7[13]CH8NO3S+
200.0176	40	C8H8NO3[34]S+
201.0628	10	C12H11NS+
202.0973	22	C11H12N3O+
203.0769	7	C12H13NS+
214.0957	28	C9H14N2O4+
215.0954	7	C8H13N3O4+
216.031	14	C8H10NO4S+
216.0876	18	C12H12N2O2+
218.0374	18	C10H8N3OS+
230.0912	62	C12H12N3O2+
231.0958	11	C11[13]CH12N3O2+
232.1087	37	C12H14N3O2+
236.0466	117	C10H10N3O2S+
237.0482	8	C9[13]CH10N3O2S+
237.0535	8	C9[13]CH10N3O2S+
238.0444	7	C10H10N2O3S+
254.0592	22	C10H12N3O3S+
278.0582	13	C12H12N3O3S+
296.0694	999	C12H14N3O4S+
297.0725	134	C11[13]CH14N3O4S+
298.0704	47	C12H14N3O4[34]S+
