Mass spectrum: Chloridazon; LC-ESI-QTOF; MS2; CE: 40 eV; R=35000; [M+H]+
Name: Chloridazon
Name: 5-amino-4-chloro-2-phenylpyridazin-3-one
Formula: C10H8ClN3O
Exact mass: 221.0355896
SMILES: NC1=C(Cl)C(=O)N(N=C1)C1=CC=CC=C1
InChI: InChI=1S/C10H8ClN3O/c11-9-8(12)6-13-14(10(9)15)7-4-2-1-3-5-7/h1-6H,12H2
Instrument: Bruker maXis Impact
Instrument type: LC-ESI-QTOF
Ms type: MS2
Ion mode: POSITIVE
Ionization: ESI
Fragmentation mode: CID
Collision energy: 40 eV
Resolution: 35000
Column name: Acclaim RSLC C18 2.2um, 2.1x100mm, Thermo
Retention time: 5.3 min
Base peak: 222.0425
Precursor m/z: 222.0429
Precursor type: [M+H]+
m/z	relative intensity	assigned
114.034	39	C8H4N+
116.9971	52	C4H4ClNO+
117.0574	27	C8H7N+
119.0611	52	C7H7N2+
122.9997	100	C7H4Cl+
124.9971	27	CH4ClN3O2+
125.0131	26	C8HN2+
128.9843	489	C4H2ClN2O+
129.0566	36	C9H7N+
130.064	377	C9H8N+
131.0597	153	C8H7N2+
132.0442	147	C8H6NO+
132.0665	64	C8H8N2+
133.0512	40	C8H7NO+
140.0246	26	C8H2N3+
140.0487	26	C10H6N+
141.0445	42	C9H5N2+
142.0522	107	C9H6N2+
143.0365	26	C9H5NO+
143.0613	45	C9H7N2+
146.011	999	C4H5ClN3O+
149.0144	127	C9H6Cl+
150.0099	240	C8H5ClN+
151.0132	44	C9HN3+
152.0071	81	C2H5ClN4O2+
158.06	45	C10H8NO+
159.055	74	C9H7N2O+
159.0756	39	C9H9N3+
160.062	54	C9H8N2O+
164.0247	28	C10H2N3+
169.0427	27	C7H8ClN3+
177.0174	30	C9H6ClN2+
178.0029	30	C10N3O+
186.0653	64	C10H8N3O+
193.0278	269	C10H8ClNO+
194.0335	26	C9[13]CH8ClNO+
195.0249	63	C10H8[37]ClNO+
222.0424	520	C10H9ClN3O+
223.0452	71	C9[13]CH9ClN3O+
224.0395	142	C10H9[37]ClN3O+
