Mass spectrum: 17alpha-Methyltestosterone; LC-ESI-QTOF; MS2; CE: 40 eV; R=35000; [M+H]+
Name: 17alpha-Methyltestosterone
Name: Methyltestosterone
Name: (8R,9S,10R,13S,14S,17S)-17-hydroxy-10,13,17-trimethyl-2,6,7,8,9,11,12,14,15,16-decahydro-1H-cyclopenta[a]phenanthren-3-one
Formula: C20H30O2
Exact mass: 302.2245802
SMILES: C[C@]1(O)CC[C@H]2[C@@H]3CCC4=CC(=O)CC[C@]4(C)[C@H]3CC[C@]12C
InChI: InChI=1S/C20H30O2/c1-18-9-6-14(21)12-13(18)4-5-15-16(18)7-10-19(2)17(15)8-11-20(19,3)22/h12,15-17,22H,4-11H2,1-3H3/t15-,16+,17+,18+,19+,20+/m1/s1
Instrument: Bruker maXis Impact
Instrument type: LC-ESI-QTOF
Ms type: MS2
Ion mode: POSITIVE
Ionization: ESI
Fragmentation mode: CID
Collision energy: 40 eV
Resolution: 35000
Column name: Acclaim RSLC C18 2.2um, 2.1x100mm, Thermo
Retention time: 10.345 min
Base peak: 303.2315
Precursor m/z: 303.2319
Precursor type: [M+H]+
m/z	relative intensity	assigned
109.0641	60	C7H9O+
115.0537	69	C9H7+
117.0681	128	C9H9+
118.0744	17	C8[13]CH9+
119.0847	510	C9H11+
120.0883	56	C8[13]CH11+
121.0636	291	C8H9O+
121.0998	412	C9H13+
122.0683	29	C7[13]CH9O+
122.104	51	C8[13]CH13+
123.0793	999	C8H11O+
124.0828	83	C7[13]CH11O+
125.0937	29	C8H13O+
128.0608	85	C10H8+
129.0691	145	C10H9+
130.0758	47	C10H10+
131.0844	458	C10H11+
132.0881	48	C9[13]CH11+
133.1001	868	C10H13+
134.1032	103	C9[13]CH13+
135.0791	83	C9H11O+
135.1155	354	C10H15+
136.1188	36	C9[13]CH15+
137.0949	111	C9H13O+
137.1319	34	C10H17+
141.0689	75	C11H9+
142.0761	100	C11H10+
143.084	303	C11H11+
144.0905	104	C11H12+
145.0995	574	C11H13+
146.1037	83	C10[13]CH13+
147.079	77	C10H11O+
147.1154	484	C11H15+
148.0859	26	C10H12O+
148.1187	57	C10[13]CH15+
149.0948	227	C10H13O+
149.1307	215	C11H17+
150.1347	28	C10[13]CH17+
151.1093	30	C10H15O+
153.0682	10	C12H9+
154.0751	14	C12H10+
155.0841	141	C12H11+
156.0907	97	C12H12+
157.0997	365	C12H13+
158.1049	63	C11[13]CH13+
159.079	38	C11H11O+
159.1154	664	C12H15+
160.0861	13	C11H12O+
160.1206	107	C11[13]CH15+
161.0942	94	C11H13O+
161.1308	399	C12H17+
162.1003	27	C11H14O+
162.1334	47	C11[13]CH17+
163.1105	228	C11H15O+
163.147	78	C12H19+
164.1136	35	C10[13]CH15O+
164.1516	13	C11[13]CH19+
167.0841	16	C13H11+
168.0908	25	C13H12+
169.0993	170	C13H13+
171.1151	388	C13H15+
172.1199	89	C12[13]CH15+
173.0931	28	C12H13O+
173.1304	277	C13H17+
174.1018	17	C12H14O+
174.1362	53	C12[13]CH17+
175.1104	111	C12H15O+
175.147	222	C13H19+
176.1152	26	C12H16O+
176.1502	32	C12[13]CH19+
177.1258	263	C12H17O+
177.1619	108	C13H21+
178.1293	42	C11[13]CH17O+
181.1014	29	C14H13+
182.1061	27	C14H14+
183.1155	150	C14H15+
184.1207	44	C14H16+
185.1311	320	C14H17+
186.1359	68	C13[13]CH17+
187.1114	29	C13H15O+
187.1466	301	C14H19+
188.1155	10	C13H16O+
188.1508	51	C13[13]CH19+
189.1266	87	C13H17O+
189.1624	252	C14H21+
190.1301	14	C12[13]CH17O+
190.1673	37	C13[13]CH21+
191.1419	39	C13H19O+
192.1444	11	C12[13]CH19O+
195.1152	28	C15H15+
196.1229	44	C15H16+
197.131	137	C15H17+
198.136	36	C14[13]CH17+
199.1466	151	C15H19+
200.1189	13	C14H16O+
200.1525	35	C14[13]CH19+
201.1263	35	C14H17O+
201.1625	166	C15H21+
202.1336	40	C14H18O+
202.1682	29	C14[13]CH21+
203.1401	28	C14H19O+
203.177	51	C15H23+
204.1469	10	C14H20O+
209.1316	17	C16H17+
210.1363	36	C16H18+
211.147	189	C16H19+
212.1526	63	C16H20+
213.1267	17	C15H17O+
213.1599	36	C16H21+
214.136	14	C15H18O+
215.1429	69	C15H19O+
215.1777	61	C16H23+
216.1463	28	C15H20O+
216.1814	15	C15[13]CH23+
217.1571	12	C15H21O+
223.1481	24	C17H19+
224.1572	13	C17H20+
225.1626	69	C17H21+
226.1672	26	C17H22+
227.1777	339	C17H23+
228.1813	87	C16[13]CH23+
229.1572	45	C16H21O+
230.1644	17	C16H22O+
237.1609	26	C18H21+
238.1702	21	C18H22+
239.1771	31	C18H23+
241.1928	29	C18H25+
243.1725	18	C17H23O+
245.1894	97	C17H25O+
246.1933	24	C16[13]CH25O+
252.1852	49	C19H24+
255.1716	14	C18H23O+
257.1848	10	C18H25O+
267.2089	158	C20H27+
268.2125	25	C19[13]CH27+
270.1972	34	C19H26O+
271.2004	12	C19H27O+
285.2204	98	C20H29O+
286.2262	22	C19[13]CH29O+
303.2295	28	C20H31O2+
