Mass spectrum: Metolachlor; LC-ESI-QTOF; MS2; CE: 50 eV; R=35000; [M+H]+
Name: Metolachlor
Name: 2-chloro-N-(2-ethyl-6-methylphenyl)-N-(1-methoxypropan-2-yl)acetamide
Formula: C15H22ClNO2
Exact mass: 283.1339066
SMILES: CCC1=C(N(C(C)COC)C(=O)CCl)C(C)=CC=C1
InChI: InChI=1S/C15H22ClNO2/c1-5-13-8-6-7-11(2)15(13)17(14(18)9-16)12(3)10-19-4/h6-8,12H,5,9-10H2,1-4H3
Instrument: Bruker maXis Impact
Instrument type: LC-ESI-QTOF
Ms type: MS2
Ion mode: POSITIVE
Ionization: ESI
Fragmentation mode: CID
Collision energy: 50 eV
Resolution: 35000
Column name: Acclaim RSLC C18 2.2um, 2.1x100mm, Thermo
Retention time: 10.2 min
Base peak: 284.1409
Precursor m/z: 284.1412
Precursor type: [M+H]+
m/z	relative intensity	assigned
115.0537	203	C9H7+
116.0605	28	C3H13ClO2+
117.0568	124	C8H7N+
117.069	158	C9H9+
118.0646	267	C8H8N+
119.0845	88	C9H11+
120.0798	234	C8H10N+
121.0635	8	C8H9O+
121.0839	28	C2H16ClNO2+
128.0488	12	C9H6N+
128.0615	29	C10H8+
129.0688	47	C10H9+
134.0953	999	C9H12N+
135.0792	21	C9H11O+
135.0987	96	C4H13N3O2+
136.1113	32	C9H14N+
139.03	8	C8H8Cl+
141.027	9	C5H5N2O3+
141.0683	18	C5H14ClO2+
142.0638	33	C4H13ClNO2+
142.075	9	C5H15ClO2+
146.059	86	C9H8NO+
146.0953	801	C4H17ClNO2+
147.0666	67	C9H9NO+
148.0744	45	C9H10NO+
149.1135	12	C5H15N3O2+
155.0609	10	C9H12Cl+
156.0799	27	C11H10N+
157.0871	38	C5H16ClNO2+
160.0744	34	C10H10NO+
160.1107	511	C5H19ClNO2+
161.0828	11	C10H11NO+
162.0904	76	C10H12NO+
162.1246	18	C5H21ClNO2+
166.0397	34	C12H6O+
168.0385	12	C6H6N3O3+
170.0955	9	C12H12N+
172.1111	7	C12H14N+
174.0909	16	C11H12NO+
174.1277	37	C12H16N+
175.1328	7	C6H22ClNO2+
176.1424	579	C12H18N+
177.1466	89	C7H19N3O2+
178.0406	17	C13H6O+
180.038	11	C7H6N3O3+
182.0375	9	C9H9ClNO+
184.0518	166	C12H8O2+
184.1102	9	C7H19ClNO2+
185.0546	23	C4H12ClN3O3+
188.106	25	C12H14NO+
194.0722	28	C14H10O+
196.0497	9	C13H8O2+
202.1212	34	C13H16NO+
212.0826	20	C14H12O2+
252.1148	24	C14H19ClNO+
253.1177	5	C13[13]CH19ClNO+
254.112	10	C14H19[37]ClNO+
