Mass spectrum: Atazanavir; LC-ESI-QTOF; MS2; CE: 30 eV; R=35000; [M+H]+
Name: Atazanavir
Name: methyl N-[(2S)-1-[2-[(2S,3S)-2-hydroxy-3-[[(2S)-2-(methoxycarbonylamino)-3,3-dimethylbutanoyl]amino]-4-phenylbutyl]-2-[(4-pyridin-2-ylphenyl)methyl]hydrazinyl]-3,3-dimethyl-1-oxobutan-2-yl]carbamate
Formula: C38H52N6O7
Exact mass: 704.3897480
SMILES: CC(C)(C)[C@@H](C(=O)N[C@@H](Cc1ccccc1)[C@H](CN(Cc2ccc(cc2)c3ccccn3)NC(=O)[C@H](C(C)(C)C)NC(=O)OC)O)NC(=O)OC
InChI: InChI=1S/C38H52N6O7/c1-37(2,3)31(41-35(48)50-7)33(46)40-29(22-25-14-10-9-11-15-25)30(45)24-44(43-34(47)32(38(4,5)6)42-36(49)51-8)23-26-17-19-27(20-18-26)28-16-12-13-21-39-28/h9-21,29-32,45H,22-24H2,1-8H3,(H,40,46)(H,41,48)(H,42,49)(H,43,47)/t29-,30-,31+,32+/m0/s1
Instrument: Bruker maXis Impact
Instrument type: LC-ESI-QTOF
Ms type: MS2
Ion mode: POSITIVE
Ionization: ESI
Fragmentation mode: CID
Collision energy: 30 eV
Resolution: 35000
Column name: Acclaim RSLC C18 2.2um, 2.1x100mm, Thermo
Retention time: 10.798 min
Base peak: 705.4011
Precursor m/z: 705.397
Precursor type: [M+H]+
m/z	relative intensity	assigned
144.1024	25	C7H14NO2+
146.0974	4	C10H12N+
167.0737	16	C12H9N+
168.0816	373	C12H10N+
169.0851	41	C11[13]CH10N+
170.0962	12	C12H12N+
311.1771	16	C19H23N2O2+
322.1949	7	C11H26N6O5+
335.1994	999	C21H25N3O+
336.2025	157	C16H26N5O3+
337.2041	18	C15[13]CH26N5O3+
371.2093	18	C22H29NO4+
372.2116	5	C21[13]CH29NO4+
397.2253	5	C24H31NO4+
424.2413	17	C19H32N6O5+
499.2737	24	C33H33N5+
500.276	9	C32[13]CH33N5+
502.2817	7	C29H36N5O3+
516.3016	8	C35H38N3O+
534.312	253	C35H40N3O2+
535.3151	85	C30H41N5O4+
536.3175	15	C29[13]CH41N5O4+
544.2964	5	C36H38N3O2+
612.3591	58	C38H48N2O5+
613.3634	22	C38H49N2O5+
614.3636	5	C37[13]CH49N2O5+
673.3721	15	C37H49N6O6+
674.3791	6	C36[13]CH49N6O6+
687.3919	48	C38H51N6O6+
688.3964	19	C38H52N6O6+
689.4032	6	C37[13]CH52N6O6+
705.4037	777	C38H53N6O7+
706.4061	341	C37[13]CH53N6O7+
707.4084	62	C36[13]C2H53N6O7+
