Mass spectrum: Decoquinate; LC-ESI-QTOF; MS2; CE: 50 eV; R=35000; [M+H]+
Name: Decoquinate
Name: ethyl 6-decoxy-7-ethoxy-4-oxo-1H-quinoline-3-carboxylate
Formula: C24H35NO5
Exact mass: 417.2515232
SMILES: CCCCCCCCCCOc1cc2c(cc1OCC)ncc(c2O)C(=O)OCC
InChI: InChI=1S/C24H35NO5/c1-4-7-8-9-10-11-12-13-14-30-21-15-18-20(16-22(21)28-5-2)25-17-19(23(18)26)24(27)29-6-3/h15-17H,4-14H2,1-3H3,(H,25,26)
Instrument: Bruker maXis Impact
Instrument type: LC-ESI-QTOF
Ms type: MS2
Ion mode: POSITIVE
Ionization: ESI
Fragmentation mode: CID
Collision energy: 50 eV
Resolution: 35000
Column name: Acclaim RSLC C18 2.2um, 2.1x100mm, Thermo
Retention time: 13.4 min
Base peak: 418.2588
Precursor m/z: 418.2588
Precursor type: [M+H]+
m/z	relative intensity	assigned
121.028	9	C7H5O2+
147.0307	8	C8H5NO2+
148.0386	86	C8H6NO2+
158.023	10	C9H4NO2+
160.0385	43	C9H6NO2+
175.0255	7	C9H5NO3+
176.0331	98	C9H6NO3+
177.0361	8	C8[13]CH6NO3+
194.044	9	C9H8NO4+
203.0213	29	C10H5NO4+
204.0287	839	C10H6NO4+
205.0317	54	C9[13]CH6NO4+
206.0443	80	C10H8NO4+
216.0284	12	C11H6NO4+
221.0312	64	C10H7NO5+
222.0393	999	C10H8NO5+
223.0425	69	C17H5N+
224.0458	8	C16[13]CH5N+
232.06	264	C12H10NO4+
233.0641	26	C11[13]CH10NO4+
234.0397	16	C11H8NO5+
234.076	16	C12H12NO4+
250.0708	475	C12H12NO5+
251.0744	43	C19H9N+
252.0762	5	C18[13]CH9N+
344.1879	8	C20H26NO4+
362.1959	13	C20H28NO5+
372.2167	30	C22H30NO4+
373.2214	7	C22H31NO4+
390.2275	73	C22H32NO5+
391.2311	19	C21[13]CH32NO5+
