Mass spectrum: Dicyclohexyl sulfosuccinate; LC-ESI-QTOF; MS2; CE: 10 eV; R=35000; [M+H]+
Name: Dicyclohexyl sulfosuccinate
Name: Dicyclohexyl sulfosuccinic acid
Name: 1,4-dicyclohexyloxy-1,4-dioxobutane-2-sulfonic acid
Formula: C16H26O7S
Exact mass: 362.1399242
SMILES: OS(=O)(=O)C(CC(=O)OC1CCCCC1)C(=O)OC1CCCCC1
InChI: InChI=1S/C16H26O7S/c17-15(22-12-7-3-1-4-8-12)11-14(24(19,20)21)16(18)23-13-9-5-2-6-10-13/h12-14H,1-11H2,(H,19,20,21)
Instrument: Bruker maXis Impact
Instrument type: LC-ESI-QTOF
Ms type: MS2
Ion mode: POSITIVE
Ionization: ESI
Fragmentation mode: CID
Collision energy: 10 eV
Resolution: 35000
Column name: Acclaim RSLC C18 2.2um, 2.1x100mm, Thermo
Retention time: 9.679 min
Base peak: 143.053
Precursor m/z: 363.1472
Precursor type: [M+H]+
m/z	relative intensity	assigned
198.9918	999	C4H7O7S+
