Mass spectrum: Icaridin; LC-ESI-QTOF; MS2; CE: Ramp 20-30 eV; R=35000; [M+H]+
Name: Icaridin
Name: butan-2-yl 2-(2-hydroxyethyl)piperidine-1-carboxylate
Formula: C12H23NO3
Exact mass: 229.1677936
SMILES: CCC(C)OC(=O)N1CCCCC1CCO
InChI: InChI=1S/C12H23NO3/c1-3-10(2)16-12(15)13-8-5-4-6-11(13)7-9-14/h10-11,14H,3-9H2,1-2H3
Instrument: Bruker maXis Impact
Instrument type: LC-ESI-QTOF
Ms type: MS2
Ion mode: POSITIVE
Ionization: ESI
Fragmentation mode: CID
Collision energy: Ramp 20-30 eV
Resolution: 35000
Column name: Acclaim RSLC C18 2.2um, 2.1x100mm, Thermo
Retention time: 8.795 min
Base peak: 230.1749
Precursor m/z: 230.1751
Precursor type: [M+H]+
m/z	relative intensity	assigned
55.0537	6	C4H7+
57.0693	19	C4H9+
67.0538	50	C5H7+
69.0695	15	C5H9+
70.0646	16	C4H8N+
71.0487	81	C4H7O+
72.044	15	C3H6NO+
83.0855	5	C6H11+
84.0807	41	C5H10N+
93.0703	6	C7H9+
95.0862	117	C7H11+
96.0892	8	C6[13]CH11+
112.1137	74	C7H14N+
113.0977	20	C7H13O+
128.0703	51	C6H10NO2+
130.1227	999	C7H16NO+
131.1256	81	C6[13]CH16NO+
156.1013	54	C8H14NO2+
157.1048	5	C7[13]CH14NO2+
169.0752	7	C8H11NO3+
174.1115	10	C8H16NO3+
