Mass spectrum: Dibutyl phthalate; GC-APCI-QTOF; MS2; CE: 20 eV; R=35000; [M+H]+
Name: Dibutyl phthalate
Formula: C16H22O4
Exact mass: 278.1518
SMILES: CCCCOC(=O)C1=CC=CC=C1C(=O)OCCCC
InChI: InChI=1S/C16H22O4/c1-3-5-11-19-15(17)13-9-7-8-10-14(13)16(18)20-12-6-4-2/h7-10H,3-6,11-12H2,1-2H3
Instrument: Bruker 450 GC coupled to maXis Impact
Instrument type: GC-APCI-QTOF
Ms type: MS2
Ion mode: POSITIVE
Ionization: APCI
Fragmentation mode: CID
Collision energy: 20 eV
Resolution: 35000
Column name: Rxi-5Sil MS column, 30m, 0.25mm i.d., 0.25Âµm film thickness, Restek
Retention time: 17.563 min
Base peak: 149.0252
Precursor m/z: 279.1591
Precursor type: [M+H]+
m/z	relative intensity	assigned
55.0549	5	C4H7+
57.0706	9	C4H9+
67.0544	5	C5H7+
69.0698	7	C5H9+
81.0693	9	C6H9+
95.0852	5	C7H11+
109.0993	7	C8H13+
119.0856	19	C9H11+
121.1009	15	C9H13+
123.0806	7	C8H11O+
123.1168	19	C9H15+
125.0968	5	C8H13O+
133.1013	35	C10H13+
135.1176	29	C10H15+
137.0973	10	C9H13O+
137.1331	22	C10H17+
139.1139	6	C9H15O+
147.1193	25	C11H15+
149.0253	999	C8H5O3+
150.0293	57	C8H6O3+
153.1311	5	C10H17O+
161.1352	22	C12H17+
175.1509	15	C13H19+
179.1469	5	C12H19O+
191.1813	9	C14H23+
205.0868	5	C12H13O3+
