Mass spectrum: Trifloxystrobin; LC-ESI-QTOF; MS2; CE: 50 eV; R=35000; [M+H]+
Name: Trifloxystrobin
Name: methyl (2Z)-2-methoxyimino-2-[2-[[(E)-1-[3-(trifluoromethyl)phenyl]ethylideneamino]oxymethyl]phenyl]acetate
Formula: C20H19F3N2O4
Exact mass: 408.1296917
SMILES: CO\N=C(/C(=O)OC)C1=C(CO\N=C(/C)C2=CC(=CC=C2)C(F)(F)F)C=CC=C1
InChI: InChI=1S/C20H19F3N2O4/c1-13(14-8-6-9-16(11-14)20(21,22)23)24-29-12-15-7-4-5-10-17(15)18(25-28-3)19(26)27-2/h4-11H,12H2,1-3H3/b24-13+,25-18-
Instrument: Bruker maXis Impact
Instrument type: LC-ESI-QTOF
Ms type: MS2
Ion mode: POSITIVE
Ionization: ESI
Fragmentation mode: CID
Collision energy: 50 eV
Resolution: 35000
Column name: Acclaim RSLC C18 2.2um, 2.1x100mm, Thermo
Retention time: 11.6 min
Base peak: 409.1372
Precursor m/z: 409.137
Precursor type: [M+H]+
m/z	relative intensity	assigned
116.0487	79	C2H9FO4+
117.056	38	C2H10FO4+
118.0639	52	C2H11FO4+
119.0486	6	C8H7O+
125.0187	21	C7H3F2+
130.0641	88	C3H11FO4+
132.0437	16	C8H6NO+
132.0788	58	C3H13FO4+
143.0323	8	C4H6F3O2+
145.025	999	C4H5N2O4+
147.0654	11	C6H11O4+
148.0741	5	C6H12O4+
159.0409	5	C8H6F3+
161.0454	10	C7H6F3N+
163.0357	24	C10H5F2+
173.031	179	C7H4F3N2+
174.0346	15	C6[13]CH4F3N2+
186.0517	693	C9H7F3N+
