Mass spectrum: Flunitrazepam; LC-ESI-QTOF; MS2; CE: 20 eV; R=35000; [M+H]+
Name: Flunitrazepam
Name: 5-(2-fluorophenyl)-1-methyl-7-nitro-3H-1,4-benzodiazepin-2-one
Formula: C16H12FN3O3
Exact mass: 313.0862695
SMILES: CN1C2=C(C=C(C=C2)[N+]([O-])=O)C(=NCC1=O)C1=C(F)C=CC=C1
InChI: InChI=1S/C16H12FN3O3/c1-19-14-7-6-10(20(22)23)8-12(14)16(18-9-15(19)21)11-4-2-3-5-13(11)17/h2-8H,9H2,1H3
Instrument: Bruker maXis Impact
Instrument type: LC-ESI-QTOF
Ms type: MS2
Ion mode: POSITIVE
Ionization: ESI
Fragmentation mode: CID
Collision energy: 20 eV
Resolution: 35000
Column name: Acclaim RSLC C18 2.2um, 2.1x100mm, Thermo
Retention time: 7.6 min
Base peak: 327.1368
Precursor m/z: 314.0935
Precursor type: [M+H]+
m/z	relative intensity	assigned
268.0998	33	C16H13FN2O+
269.1031	5	C14H13N4O2+
286.0988	9	C15H13FN3O2+
314.0936	999	C16H13FN3O3+
315.0964	141	C15[13]CFN3O3+
316.0987	12	C14[13]C2FN3O3+
