Mass spectrum: Fentanyl; LC-ESI-QTOF; MS2; CE: 50 eV; R=35000; [M+H]+
Name: Fentanyl
Name: N-phenyl-N-[1-(2-phenylethyl)piperidin-4-yl]propanamide
Formula: C22H28N2O
Exact mass: 336.2201635
SMILES: CCC(=O)N(C1CCN(CCC2=CC=CC=C2)CC1)C1=CC=CC=C1
InChI: InChI=1S/C22H28N2O/c1-2-22(25)24(20-11-7-4-8-12-20)21-14-17-23(18-15-21)16-13-19-9-5-3-6-10-19/h3-12,21H,2,13-18H2,1H3
Instrument: Bruker maXis Impact
Instrument type: LC-ESI-QTOF
Ms type: MS2
Ion mode: POSITIVE
Ionization: ESI
Fragmentation mode: CID
Collision energy: 50 eV
Resolution: 35000
Column name: Acclaim RSLC C18 2.2um, 2.1x100mm, Thermo
Retention time: 6.1 min
Base peak: 337.2278
Precursor m/z: 337.2274
Precursor type: [M+H]+
m/z	relative intensity	assigned
115.0534	49	C9H7+
116.058	9	C4H8N2O2+
117.0567	115	C8H7N+
117.0686	43	C9H9+
118.0631	28	C8H8N+
119.0725	13	C8H9N+
119.0856	10	C9H11+
120.0807	39	C8H10N+
121.0827	5	C3H11N3O2+
128.0609	8	C10H8+
129.0689	20	C10H9+
130.0643	75	C9H8N+
131.0718	44	C9H9N+
132.0801	999	C9H10N+
133.0832	100	C4H11N3O2+
134.0955	221	C9H12N+
135.099	25	C4H13N3O2+
144.0798	11	C10H10N+
145.086	8	C10H11N+
146.0954	179	C10H12N+
147.1001	21	C5H13N3O2+
150.0902	35	C9H12NO+
158.0972	7	C11H12N+
160.1112	29	C11H14N+
184.1106	11	C13H14N+
186.1272	61	C13H16N+
187.1324	10	C13H17N+
188.1429	930	C13H18N+
189.1459	130	C8H19N3O2+
190.1489	8	C12H18N2+
216.1372	40	C14H18NO+
217.1403	9	C12H17N4+
