Mass spectrum: EDDP; LC-ESI-QTOF; MS2; CE: 50 eV; R=35000; [M+H]+
Name: EDDP
Name: (2Z)-2-ethylidene-1,5-dimethyl-3,3-diphenylpyrrolidine
Formula: C20H23N
Exact mass: 277.1830497
SMILES: C\C=C1/N(C)C(C)CC1(C1=CC=CC=C1)C1=CC=CC=C1
InChI: InChI=1S/C20H23N/c1-4-19-20(15-16(2)21(19)3,17-11-7-5-8-12-17)18-13-9-6-10-14-18/h4-14,16H,15H2,1-3H3/b19-4-
Instrument: Bruker maXis Impact
Instrument type: LC-ESI-QTOF
Ms type: MS2
Ion mode: POSITIVE
Ionization: ESI
Fragmentation mode: CID
Collision energy: 50 eV
Resolution: 35000
Column name: Acclaim RSLC C18 2.2um, 2.1x100mm, Thermo
Retention time: 6.4 min
Base peak: 278.1902
Precursor m/z: 278.1903
Precursor type: [M+H]+
m/z	relative intensity	assigned
117.0697	5	C9H9+
118.0644	10	C8H8N+
130.0643	7	C9H8N+
132.0796	7	C9H10N+
141.0693	5	C11H9+
144.0786	16	C10H10N+
155.0844	5	C12H11+
158.0953	333	C11H12N+
167.0853	5	C13H11+
172.1106	63	C12H14N+
179.0837	10	C14H11+
184.1118	5	C13H14N+
186.1271	558	C13H16N+
192.0901	13	C15H12+
201.149	14	C14H19N+
202.0772	10	C16H10+
204.0892	11	C16H12+
205.0997	9	C16H13+
207.1033	60	C15H13N+
208.1077	11	C14[13]CH13N+
217.0894	12	C16H11N+
219.1038	523	C16H13N+
220.1077	84	C15[13]CH13N+
234.1274	999	C17H16N+
236.1338	11	C16H16N2+
262.1586	5	C19H20N+
278.1915	5	C20H24N+
