Mass spectrum: Triethylcitrate; LC-ESI-QTOF; MS2; CE: 10 eV; R=35000; [M+H]+
Name: Triethylcitrate
Name: Triethyl citrate
Name: triethyl 2-hydroxypropane-1,2,3-tricarboxylate
Formula: C12H20O7
Exact mass: 276.1209030
SMILES: CCOC(=O)CC(O)(CC(=O)OCC)C(=O)OCC
InChI: InChI=1S/C12H20O7/c1-4-17-9(13)7-12(16,11(15)19-6-3)8-10(14)18-5-2/h16H,4-8H2,1-3H3
Instrument: Bruker maXis Impact
Instrument type: LC-ESI-QTOF
Ms type: MS2
Ion mode: POSITIVE
Ionization: ESI
Fragmentation mode: CID
Collision energy: 10 eV
Resolution: 35000
Column name: Acclaim RSLC C18 2.2um, 2.1x100mm, Thermo
Retention time: 6.943 min
Base peak: 277.1277
Precursor m/z: 277.1282
Precursor type: [M+H]+
m/z	relative intensity	assigned
129.0179	6	C5H5O4+
157.0483	999	C7H9O4+
158.0513	86	C6[13]CH9O4+
159.0527	10	C7H9O3[18]O+
185.0431	17	C8H9O5+
189.0741	5	C8H13O5+
203.0904	606	C9H15O5+
204.0939	65	C8[13]CH15O5+
205.095	8	C9H15O4[18]O+
213.0746	35	C10H13O5+
231.0855	26	C10H15O6+
277.1273	39	C12H21O7+
