Mass spectrum: Methyl benzoate; GC-APCI-QTOF; MS2; CE: 10 eV; R=35000; [M+H]+
Name: Methyl benzoate
Formula: C8H8O2
Exact mass: 136.0524
SMILES: COC(=O)C1=CC=CC=C1
InChI: InChI=1S/C8H8O2/c1-10-8(9)7-5-3-2-4-6-7/h2-6H,1H3
Instrument: Bruker 450 GC coupled to maXis Impact
Instrument type: GC-APCI-QTOF
Ms type: MS2
Ion mode: POSITIVE
Ionization: APCI
Fragmentation mode: CID
Collision energy: 10 eV
Resolution: 35000
Column name: Rxi-5Sil MS column, 30m, 0.25mm i.d., 0.25Âµm film thickness, Restek
Retention time: 8.476 min
Base peak: 137.0601
Precursor m/z: 137.0597
Precursor type: [M+H]+
m/z	relative intensity	assigned
91.0533	29	C7H7+
93.0691	39	C7H9+
105.0322	45	C7H5O+
135.0461	27	C8H7O2+
136.0497	14	C8H8O2+
137.0601	999	C8H9O2+
