Mass spectrum: Methiocarb-sulfoxide phenol; LC-ESI-QTOF; MS2; CE: 40 eV; R=35000; [M+H]+
Name: Methiocarb-sulfoxide phenol
Name: Phenol, 3,5-dimethyl-4-(methylsulfinyl)-
Name: 3,5-dimethyl-4-methylsulfinylphenol
Formula: C9H12O2S
Exact mass: 184.0558006
SMILES: CC1=CC(O)=CC(C)=C1S(C)=O
InChI: InChI=1S/C9H12O2S/c1-6-4-8(10)5-7(2)9(6)12(3)11/h4-5,10H,1-3H3
Instrument: Bruker maXis Impact
Instrument type: LC-ESI-QTOF
Ms type: MS2
Ion mode: POSITIVE
Ionization: ESI
Fragmentation mode: CID
Collision energy: 40 eV
Resolution: 35000
Column name: Acclaim RSLC C18 2.2um, 2.1x100mm, Thermo
Retention time: 4.643 min
Base peak: 185.062
Precursor m/z: 185.0631
Precursor type: [M+H]+
m/z	relative intensity	assigned
107.0488	21	C7H7O+
109.0643	15	C7H9O+
119.0469	11	C8H7O+
120.0541	9	C8H8O+
121.0639	350	C8H9O+
122.0712	477	C8H10O+
123.0257	14	C7H7S+
123.0424	22	C7H7O2+
123.0745	51	C7[13]CH10O+
124.0332	6	C7H8S+
125.0406	35	C7H9S+
133.0099	9	C8H5S+
134.0155	7	C8H6S+
135.0245	20	C8H7S+
135.0787	10	C9H11O+
137.0043	39	C7H5OS+
137.0587	17	C8H9O2+
138.0121	30	C7H6OS+
138.0651	12	C8H10O2+
150.0117	7	C8H6OS+
151.0197	354	C8H7OS+
152.0268	173	C8H8OS+
153.0354	999	C8H9OS+
154.0392	81	C7[13]CH9OS+
155.0325	28	C8H9O[34]S+
168.0588	72	C9H12OS+
169.0626	6	C8[13]CH12OS+
170.0379	72	C8H10O2S+
