Mass spectrum: Bisphenol A (3-chloro-2-hydroxypropyl) glycidyl ether; LC-ESI-QTOF; MS2; CE: 20 eV; R=35000; [M+NH4]+
Name: Bisphenol A (3-chloro-2-hydroxypropyl) glycidyl ether
Name: Bisphenol A (3-chloro-2-hydroxypropyl)glycidyl ether
Name: 1-chloro-3-[4-[2-[4-(oxiran-2-ylmethoxy)phenyl]propan-2-yl]phenoxy]propan-2-ol
Formula: C21H25ClO4
Exact mass: 376.1441
SMILES: CC(C)(C1=CC=C(C=C1)OCC2CO2)C3=CC=C(C=C3)OCC(CCl)O
InChI: InChI=1S/C21H25ClO4/c1-21(2,15-3-7-18(8-4-15)24-12-17(23)11-22)16-5-9-19(10-6-16)25-13-20-14-26-20/h3-10,17,20,23H,11-14H2,1-2H3
Instrument: Bruker maXis Impact
Instrument type: LC-ESI-QTOF
Ms type: MS2
Ion mode: POSITIVE
Ionization: ESI
Fragmentation mode: CID
Collision energy: 20 eV
Resolution: 35000
Column name: Acclaim RSLC C18 2.2um, 2.1x100mm, Thermo
Retention time: 11.123 min
Base peak: 394.1782
Precursor m/z: 394.1791
Precursor type: [M+NH4]+
m/z	relative intensity	assigned
135.0791	114	C3H16ClO3+
136.083	7	C3H17ClO3+
149.0233	7	C8H5O3+
150.0248	5	C9H7Cl+
161.0951	304	C11H13O+
162.0986	29	C5H19ClO3+
173.0953	19	C12H13O+
191.1058	622	C12H15O2+
192.1098	68	C6H21ClO4+
193.1135	6	C11H15NO2+
227.0829	999	C12H16ClO2+
228.086	118	C17H10N+
229.0802	256	C15H14Cl+
230.0829	28	C13H12NO3+
347.1429	19	C20H24ClO3+
349.1423	5	C19H24ClNO3+
359.1378	6	C21H24ClO3+
394.1782	27	C21H29ClNO4+
