Mass spectrum: Triclabendazole; LC-ESI-QTOF; MS2; CE: Ramp 22.8-34.2 eV; R=35000; [M+H]+
Name: Triclabendazole
Name: 6-chloro-5-(2,3-dichlorophenoxy)-2-methylsulfanyl-1H-benzimidazole
Formula: C14H9Cl3N2OS
Exact mass: 357.9501
SMILES: CSc1[nH]c2cc(c(cc2n1)Oc3cccc(c3Cl)Cl)Cl
InChI: InChI=1S/C14H9Cl3N2OS/c1-21-14-18-9-5-8(16)12(6-10(9)19-14)20-11-4-2-3-7(15)13(11)17/h2-6H,1H3,(H,18,19)
Instrument: Bruker maXis Impact
Instrument type: LC-ESI-QTOF
Ms type: MS2
Ion mode: POSITIVE
Ionization: ESI
Fragmentation mode: CID
Collision energy: Ramp 22.8-34.2 eV
Resolution: 35000
Column name: Acclaim RSLC C18 2.2um, 2.1x100mm, Thermo
Retention time: 11.9 min
Base peak: 279.1604
Precursor m/z: 358.9574
Precursor type: [M+H]+
m/z	relative intensity	assigned
60.0548	23	C3H8O+
165.0218	44	C8H6ClN2+
166.0257	5	C11H4NO+
167.0171	10	C5H10ClNOS+
196.9941	13	C8H6ClN2S+
198.0019	68	C8H7ClN2S+
198.9734	16	C7H4ClN2OS+
199.0055	9	C14HNO+
199.999	18	C13N2O+
229.993	17	C14H2N2S+
242.0245	12	C13H7ClN2O+
250.9921	12	C9H10Cl3N2+
252.9887	9	C11H7Cl2N2O+
272.9894	9	C13H6ClN2OS+
273.9982	189	C13H7ClN2OS+
274.9998	26	C13H8ClN2OS+
275.995	40	C14H8Cl2NO+
276.9953	36	C13H7Cl2N2O+
278.9914	20	C10H10Cl3N2O+
291.0146	5	C14H9Cl2N2O+
308.9659	36	C13H7Cl2N2OS+
309.9694	6	C13H8Cl2N2OS+
310.9647	16	C14H8Cl3NO+
311.9657	18	C13H7Cl3N2O+
313.9594	13	C14H9Cl3S+
343.9359	560	C13H7Cl3N2OS+
344.9389	62	C13H8Cl3N2OS+
345.9328	487	C12H7Cl3N3OS+
346.9361	45	C13H8Cl3NO2S+
347.9324	13	C12H7Cl3N2O2S+
358.9596	999	C14H10Cl3N2OS+
359.9635	156	C13H9Cl3N3OS+
360.9568	882	C13H10Cl3N3OS+
361.9607	83	C12H9Cl3N4OS+
362.9529	26	C13H10Cl3N2O2S+
