Mass spectrum: Dimoxystrobin; LC-ESI-QTOF; MS2; CE: 40 eV; R=35000; [M+H]+
Name: Dimoxystrobin
Name: Benzeneacetamide, 2-((2,5-dimethylphenoxy)methyl)-alpha-(methoxyimino)-N-methyl-, (alphaE)-
Name: (2E)-2-[2-[(2,5-dimethylphenoxy)methyl]phenyl]-2-methoxyimino-N-methylacetamide
Formula: C19H22N2O3
Exact mass: 326.1630426
SMILES: CNC(=O)C(=N\OC)\C1=CC=CC=C1COC1=CC(C)=CC=C1C
InChI: InChI=1S/C19H22N2O3/c1-13-9-10-14(2)17(11-13)24-12-15-7-5-6-8-16(15)18(21-23-4)19(22)20-3/h5-11H,12H2,1-4H3,(H,20,22)/b21-18+
Instrument: Bruker maXis Impact
Instrument type: LC-ESI-QTOF
Ms type: MS2
Ion mode: POSITIVE
Ionization: ESI
Fragmentation mode: CID
Collision energy: 40 eV
Resolution: 35000
Column name: Acclaim RSLC C18 2.2um, 2.1x100mm, Thermo
Retention time: 10.710 min
Base peak: 327.1709
Precursor m/z: 327.1703
Precursor type: [M+H]+
m/z	relative intensity	assigned
116.0492	999	C8H6N+
117.0539	99	C7[13]CH6N+
118.0634	11	C5H10O3+
133.0509	5	C8H7NO+
145.0749	22	C9H9N2+
146.0823	8	C6H12NO3+
148.0745	24	C9H10NO+
161.0466	5	C9H7NO2+
174.0776	6	C10H10N2O+
178.0769	10	C14H10+
179.0829	5	C9H11N2O2+
180.08	20	C13H10N+
181.086	6	C10H13O3+
193.0999	12	C15H13+
194.0955	10	C14H12N+
195.1035	23	C14H13N+
196.1076	5	C13[13]CH13N+
205.0965	77	C11H13N2O2+
206.0992	9	C10[13]CH13N2O2+
221.0955	7	C16H13O+
222.1019	7	C16H14O+
223.0988	60	C15H13NO+
224.1017	9	C14[13]CH13NO+
