Mass spectrum: Albendazole Sulfone; LC-ESI-QTOF; MS2; CE: Ramp 21.5-32.3 eV; R=35000; [M+H]+
Name: Albendazole Sulfone
Name: methyl N-(6-propylsulfonyl-1H-benzimidazol-2-yl)carbamate
Formula: C12H15N3O4S
Exact mass: 297.0783
SMILES: CCCS(=O)(=O)c1ccc2c(c1)[nH]c(n2)/N=C(\O)/OC
InChI: InChI=1S/C12H15N3O4S/c1-3-6-20(17,18)8-4-5-9-10(7-8)14-11(13-9)15-12(16)19-2/h4-5,7H,3,6H2,1-2H3,(H2,13,14,15,16)
Instrument: Bruker maXis Impact
Instrument type: LC-ESI-QTOF
Ms type: MS2
Ion mode: POSITIVE
Ionization: ESI
Fragmentation mode: CID
Collision energy: Ramp 21.5-32.3 eV
Resolution: 35000
Column name: Acclaim RSLC C18 2.2um, 2.1x100mm, Thermo
Retention time: 6.0 min
Base peak: 251.1866
Precursor m/z: 298.0856
Precursor type: [M+H]+
m/z	relative intensity	assigned
159.0426	160	C8H5N3O+
160.048	20	C5H8N2O4+
175.0369	5	C8H5N3O2+
191.033	144	C8H5N3O3+
191.0695	17	C9H9N3O2+
192.0364	13	C9H8N2OS+
192.0723	8	C10H12N2S+
207.0122	6	C10H7O3S+
223.0593	26	C9H9N3O4+
224.0129	403	C8H6N3O3S+
225.0157	38	C11H3N3O3+
226.0098	17	C11H4N3OS+
256.0397	36	C9H10N3O4S+
257.0389	10	C12H7N3O4+
266.0608	999	C11H12N3O3S+
267.0635	113	C11H13N3O3S+
268.0566	38	C11H12N2O4S+
298.087	336	C12H16N3O4S+
299.0895	47	C11H15N4O4S+
300.084	13	C11H16N4O4S+
