Mass spectrum: Pyraclostrobin; LC-ESI-QTOF; MS2; CE: 40 eV; R=35000; [M+H]+
Name: Pyraclostrobin
Name: methyl N-[2-[[1-(4-chlorophenyl)pyrazol-3-yl]oxymethyl]phenyl]-N-methoxycarbamate
Formula: C19H18ClN3O4
Exact mass: 387.0985837
SMILES: CON(C(=O)OC)C1=C(COC2=NN(C=C2)C2=CC=C(Cl)C=C2)C=CC=C1
InChI: InChI=1S/C19H18ClN3O4/c1-25-19(24)23(26-2)17-6-4-3-5-14(17)13-27-18-11-12-22(21-18)16-9-7-15(20)8-10-16/h3-12H,13H2,1-2H3
Instrument: Bruker maXis Impact
Instrument type: LC-ESI-QTOF
Ms type: MS2
Ion mode: POSITIVE
Ionization: ESI
Fragmentation mode: CID
Collision energy: 40 eV
Resolution: 35000
Column name: Acclaim RSLC C18 2.2um, 2.1x100mm, Thermo
Retention time: 11.212 min
Base peak: 388.1065
Precursor m/z: 388.1059
Precursor type: [M+H]+
m/z	relative intensity	assigned
117.0563	6	C8H7N+
118.0642	13	C8H8N+
119.0358	48	C7H5NO+
120.0436	54	C7H6NO+
121.0637	14	C6H7N3+
128.0484	11	C9H6N+
130.0279	13	C8H4NO+
132.0436	155	C8H6NO+
133.0512	368	C8H7NO+
134.0227	11	C7H4NO2+
134.058	57	C8H8NO+
135.0645	6	C7[13]CH8NO+
146.0589	11	C3H13ClNO3+
148.038	17	C2H11ClNO4+
149.0461	433	C5H10ClN2O+
150.0493	23	C4[13]CH10ClN2O+
151.0615	5	C2H14ClNO4+
162.0539	150	C9H8NO2+
163.0617	999	C9H9NO2+
164.0679	168	C4H10N3O4+
165.0714	10	C3[13]CH10N3O4+
166.0851	5	C3H17ClNO4+
179.0565	11	C9H9NO3+
194.0802	32	C10H12NO3+
218.0827	11	C9H15ClN2O2+
219.0898	5	C9H16ClN2O2+
232.076	6	C13H13ClN2+
243.0781	7	C12H16ClO3+
253.0515	17	C18H7NO+
261.0888	15	C12H18ClO4+
296.058	21	C16H11ClN3O+
298.0551	6	C16H11[37]ClN3O+
