Mass spectrum: 2,4-Dihydroxybenzophenone; GC-APCI-QTOF; MS2; CE: 20 eV; R=35000; [M]+
Name: 2,4-Dihydroxybenzophenone
Formula: C13H10O3
Exact mass: 214.0630
SMILES: C1=CC=C(C=C1)C(=O)C2=C(C=C(C=C2)O)O
InChI: InChI=1S/C13H10O3/c14-10-6-7-11(12(15)8-10)13(16)9-4-2-1-3-5-9/h1-8,14-15H
Instrument: Bruker 450 GC coupled to maXis Impact
Instrument type: GC-APCI-QTOF
Ms type: MS2
Ion mode: POSITIVE
Ionization: APCI
Fragmentation mode: CID
Collision energy: 20 eV
Resolution: 35000
Column name: Rxi-5Sil MS column, 30m, 0.25mm i.d., 0.25Âµm film thickness, Restek
Retention time: 19.932 min
Base peak: 309.2776
Precursor m/z: 214.0624
Precursor type: [M]+
m/z	relative intensity	assigned
105.0323	24	C7H5O+
137.0239	429	C7H5O3+
213.0552	999	C13H9O3+
214.0584	147	C13H10O3+
