Mass spectrum: Thiabendazole; LC-ESI-QTOF; MS2; CE: 40 eV; R=35000; [M+H]+
Name: Thiabendazole
Name: 4-(1H-benzimidazol-2-yl)-1,3-thiazole
Formula: C10H7N3S
Exact mass: 201.0360682
SMILES: N1C2=CC=CC=C2N=C1C1=CSC=N1
InChI: InChI=1S/C10H7N3S/c1-2-4-8-7(3-1)12-10(13-8)9-5-14-6-11-9/h1-6H,(H,12,13)
Instrument: Bruker maXis Impact
Instrument type: LC-ESI-QTOF
Ms type: MS2
Ion mode: POSITIVE
Ionization: ESI
Fragmentation mode: CID
Collision energy: 40 eV
Resolution: 35000
Column name: Acclaim RSLC C18 2.2um, 2.1x100mm, Thermo
Retention time: 6.078 min
Base peak: 202.0428
Precursor m/z: 202.0433
Precursor type: [M+H]+
m/z	relative intensity	assigned
118.0516	7	C7H6N2+
131.0595	656	C8H7N2+
132.0625	46	C7[13]CH7N2+
134.0048	23	C7H4NS+
142.0511	8	C9H6N2+
143.0591	73	C9H7N2+
144.0625	6	C8[13]CH7N2+
157.0619	14	C9H7N3+
158.0699	22	C9H8N3+
169.0619	5	C10H7N3+
170.0699	19	C10H8N3+
174.0235	6	C9H6N2S+
175.0314	999	C9H7N2S+
176.0342	79	C8[13]CH7N2S+
177.0271	28	C9H7N2[34]S+
202.0425	160	C10H8N3S+
203.0451	17	C9[13]CH8N3S+
204.0386	6	C10H8N3[34]S+
