Mass spectrum: Cetirizine N-Oxide; LC-ESI-QTOF; MS2; CE: 40 eV; R=35000; [M+H]+
Name: Cetirizine N-Oxide
Name: (R)-Cetirizine N-Oxide
Name: 2-[2-[4-[(4-chlorophenyl)-phenylmethyl]-1-oxidopiperazin-1-ium-1-yl]ethoxy]acetic acid
Formula: C21H25ClN2O4
Exact mass: 404.1502850
SMILES: OC(=O)COCC[N+]1([O-])CCN(CC1)C(C1=CC=CC=C1)C1=CC=C(Cl)C=C1
InChI: InChI=1S/C21H25ClN2O4/c22-19-8-6-18(7-9-19)21(17-4-2-1-3-5-17)23-10-12-24(27,13-11-23)14-15-28-16-20(25)26/h1-9,21H,10-16H2,(H,25,26)
Instrument: Bruker maXis Impact
Instrument type: LC-ESI-QTOF
Ms type: MS2
Ion mode: POSITIVE
Ionization: ESI
Fragmentation mode: CID
Collision energy: 40 eV
Resolution: 35000
Column name: Acclaim RSLC C18 2.2um, 2.1x100mm, Thermo
Retention time: 8.9 min
Base peak: 150.1118
Precursor m/z: 405.1576
Precursor type: [M+H]+
m/z	relative intensity	assigned
132.0646	58	C5H10NO3+
138.022	11	C9H2N2+
146.0792	22	C6H12NO3+
160.0952	9	C7H14NO3+
166.0763	280	C7H15ClO2+
179.0862	25	C14H11+
183.0805	17	C13H11O+
187.1064	54	C8H15N2O3+
193.0751	22	C13H9N2+
199.0311	11	C13H8Cl+
201.046	999	C13H10Cl+
203.0429	257	C13H10[37]Cl+
206.0961	63	C15H12N+
207.098	9	C12H15O3+
216.058	13	C13H11ClN+
228.0579	149	C14H11ClN+
229.0636	34	C11H14ClO3+
230.0559	30	C14H11[37]ClN+
241.0622	15	C12H14ClO3+
242.0721	85	C18H10O+
243.0765	16	C13H11N2O3+
244.0711	18	C14H12O4+
285.1149	20	C20H15NO+
299.1311	36	C18H20ClN2+
