Mass spectrum: 2,2`-Methylenebis(6-tert-butyl-1,4-ethylphenol); GC-APCI-QTOF; MS2; CE: 50 eV; R=35000; [M]+
Name: 2,2`-Methylenebis(6-tert-butyl-1,4-ethylphenol)
Formula: C25H36O2
Exact mass: 368.2715
SMILES: CCC1=CC(=C(C(=C1)C(C)(C)C)O)CC2=C(C(=CC(=C2)CC)C(C)(C)C)O
InChI: InChI=1S/C25H36O2/c1-9-16-11-18(22(26)20(13-16)24(3,4)5)15-19-12-17(10-2)14-21(23(19)27)25(6,7)8/h11-14,26-27H,9-10,15H2,1-8H3
Instrument: Bruker 450 GC coupled to maXis Impact
Instrument type: GC-APCI-QTOF
Ms type: MS2
Ion mode: POSITIVE
Ionization: APCI
Fragmentation mode: CID
Collision energy: 50 eV
Resolution: 35000
Column name: Rxi-5Sil MS column, 30m, 0.25mm i.d., 0.25Âµm film thickness, Restek
Retention time: 24.295 min
Base peak: 368.2725
Precursor m/z: 368.271
Precursor type: [M]+
m/z	relative intensity	assigned
105.0709	20	C8H9+
115.0549	24	C9H7+
117.071	29	C9H9+
119.0853	123	C9H11+
121.067	27	C8H9O+
121.1004	20	C9H13+
122.0727	26	C8H10O+
123.0803	129	C8H11O+
129.0695	30	C10H9+
131.086	73	C10H11+
133.067	43	C9H9O+
133.1015	118	C10H13+
134.0728	19	C9H10O+
134.1076	21	C10H14+
135.0811	678	C9H11O+
135.1167	73	C10H15+
141.0671	19	C11H9+
143.0875	19	C11H11+
145.1029	57	C11H13+
146.0751	48	C10H10O+
147.0825	93	C10H11O+
147.1191	75	C11H15+
149.0996	77	C10H13O+
151.1153	43	C10H15O+
159.1195	31	C12H15+
160.0921	20	C11H12O+
161.1344	28	C12H17+
162.1059	31	C11H14O+
163.1149	999	C11H15O+
164.1182	150	C11H16O+
175.115	370	C12H15O+
176.1198	66	C12H16O+
191.1452	183	C13H19O+
192.1535	30	C13H20O+
199.1101	19	C14H15O+
