Mass spectrum: Divinylbenzene (m- and p- mixture); GC-APCI-QTOF; MS2; CE: 10 eV; R=35000; [M+H]+
Name: Divinylbenzene (m- and p- mixture)
Formula: C10H10
Exact mass: 130.0783
SMILES: C=CC1=CC=CC=C1C=C
InChI: InChI=1S/C10H10/c1-3-9-7-5-6-8-10(9)4-2/h3-8H,1-2H2
Instrument: Bruker 450 GC coupled to maXis Impact
Instrument type: GC-APCI-QTOF
Ms type: MS2
Ion mode: POSITIVE
Ionization: APCI
Fragmentation mode: CID
Collision energy: 10 eV
Resolution: 35000
Column name: Rxi-5Sil MS column, 30m, 0.25mm i.d., 0.25Âµm film thickness, Restek
Retention time: 12.017 min
Base peak: 190.1358
Precursor m/z: 131.0855
Precursor type: [M+H]+
m/z	relative intensity	assigned
116.0631	10	C9H8+
117.0712	18	C9H9+
118.0758	11	C9H10+
129.0713	35	C10H9+
130.0756	11	C10H10+
131.0856	999	C10H11+
