Mass spectrum: Trimethylolpropane trimethacrylate; GC-APCI-QTOF; MS2; CE: 40 eV; R=35000; [M]+
Name: Trimethylolpropane trimethacrylate
Formula: C18H26O6
Exact mass: 338.1729
SMILES: CCC(COC(=O)C(=C)C)(COC(=O)C(=C)C)COC(=O)C(=C)C
InChI: InChI=1S/C18H26O6/c1-8-18(9-22-15(19)12(2)3,10-23-16(20)13(4)5)11-24-17(21)14(6)7/h2,4,6,8-11H2,1,3,5,7H3
Instrument: Bruker 450 GC coupled to maXis Impact
Instrument type: GC-APCI-QTOF
Ms type: MS2
Ion mode: POSITIVE
Ionization: APCI
Fragmentation mode: CID
Collision energy: 40 eV
Resolution: 35000
Column name: Rxi-5Sil MS column, 30m, 0.25mm i.d., 0.25Âµm film thickness, Restek
Retention time: 18.220 min
Base peak: 253.1432
Precursor m/z: 338.1724
Precursor type: [M]+
m/z	relative intensity	assigned
53.0027	13	C3HO+
53.0389	16	C4H5+
55.0554	13	C4H7+
57.0342	6	C3H5O+
59.0502	11	C3H7O+
67.0538	12	C5H7+
68.025	21	C4H4O+
69.0326	999	C4H5O+
79.0536	68	C6H7+
81.0691	220	C6H9+
87.0442	5	C4H7O2+
95.0865	5	C7H11+
97.0649	13	C6H9O+
98.0721	13	C6H10O+
99.0795	9	C6H11O+
105.0694	9	C8H9+
107.0501	9	C7H7O+
108.0571	15	C7H8O+
119.0854	17	C9H11+
121.0633	6	C8H9O+
121.1023	18	C9H13+
123.0444	6	C7H7O2+
123.0804	10	C8H11O+
125.059	19	C7H9O2+
126.0663	11	C7H10O2+
127.0772	6	C7H11O2+
131.086	23	C10H11+
133.0651	240	C9H9O+
135.0436	10	C8H7O2+
147.0809	109	C10H11O+
148.0887	88	C10H12O+
149.0957	55	C10H13O+
150.1011	9	C10H14O+
159.0819	5	C11H11O+
161.0598	42	C10H9O2+
162.0667	8	C10H10O2+
167.1097	7	C10H15O2+
175.0748	15	C11H11O2+
176.0832	57	C11H12O2+
177.0903	10	C11H13O2+
179.0747	7	C10H11O3+
185.1182	21	C10H17O3+
193.087	11	C11H13O3+
224.1414	5	C13H20O3+
253.145	144	C14H21O4+
254.1481	23	C14H22O4+
