Mass spectrum: 17alpha-Hydroxyprogesterone; LC-ESI-QTOF; MS2; CE: 10 eV; R=35000; [M-H]-
Name: 17alpha-Hydroxyprogesterone
Name: 17alpha-Hydroxypregn-4-ene-3,20-dione
Name: 17-acetyl-17-hydroxy-10,13-dimethyl-2,6,7,8,9,11,12,14,15,16-decahydro-1H-cyclopenta[a]phenanthren-3-one
Formula: C21H30O3
Exact mass: 330.2194948
SMILES: CC(=O)C1(O)CCC2C3CCC4=CC(=O)CCC4(C)C3CCC12C
InChI: InChI=1S/C21H30O3/c1-13(22)21(24)11-8-18-16-5-4-14-12-15(23)6-9-19(14,2)17(16)7-10-20(18,21)3/h12,16-18,24H,4-11H2,1-3H3
Instrument: Bruker maXis Impact
Instrument type: LC-ESI-QTOF
Ms type: MS2
Ion mode: NEGATIVE
Ionization: ESI
Fragmentation mode: CID
Collision energy: 10 eV
Resolution: 35000
Column name: Acclaim RSLC C18 2.2um, 2.1x100mm, Thermo
Retention time: 9.988 min
Base peak: 365.1867
Precursor m/z: 329.2122
Precursor type: [M-H]-
m/z	relative intensity	assigned
285.1817	464	C19H25O2-
329.2127	999	C21H29O3-
