Mass spectrum: Difenoconazole; LC-ESI-QTOF; MS2; CE: 50 eV; R=35000; [M+H]+
Name: Difenoconazole
Name: 1-[[2-[2-chloro-4-(4-chlorophenoxy)phenyl]-4-methyl-1,3-dioxolan-2-yl]methyl]-1,2,4-triazole
Formula: C19H17Cl2N3O3
Exact mass: 405.0646968
SMILES: CC1COC(CN2C=NC=N2)(O1)C1=C(Cl)C=C(OC2=CC=C(Cl)C=C2)C=C1
InChI: InChI=1S/C19H17Cl2N3O3/c1-13-9-25-19(27-13,10-24-12-22-11-23-24)17-7-6-16(8-18(17)21)26-15-4-2-14(20)3-5-15/h2-8,11-13H,9-10H2,1H3
Instrument: Bruker maXis Impact
Instrument type: LC-ESI-QTOF
Ms type: MS2
Ion mode: POSITIVE
Ionization: ESI
Fragmentation mode: CID
Collision energy: 50 eV
Resolution: 35000
Column name: Acclaim RSLC C18 2.2um, 2.1x100mm, Thermo
Retention time: 11.555 min
Base peak: 306.1036
Precursor m/z: 406.072
Precursor type: [M+H]+
m/z	relative intensity	assigned
128.0611	5	CH16Cl2NO+
129.0687	17	CH17Cl2NO+
141.009	64	C5H4ClN3+
143.0058	15	C5H4[37]ClN3+
145.0244	5	CH8ClN3O3+
152.0608	126	C3H16Cl2NO+
153.0682	94	C6H14ClO2+
154.0717	10	C5[13]CH14ClO2+
164.0375	5	C11H4N2+
169.0635	5	C10H7N3+
179.0599	5	C5H17Cl2O2+
181.0637	77	C11H7N3+
182.0674	11	C10[13]CH7N3+
187.0297	81	C12H8Cl+
188.0377	296	C12H9Cl+
189.0275	17	C12H8[37]Cl+
189.0406	41	C11[13]CH9Cl+
190.0344	66	C12H9[37]Cl+
191.0378	6	C10H8ClN2+
202.0163	11	C13H2N2O+
208.9906	6	C12H2ClN2+
215.0253	41	C13H8ClO+
216.0317	30	C11H7ClN3+
217.0229	9	C13H8[37]ClO+
218.0294	7	C11H7[37]ClN3+
223.0067	125	C13H4ClN2+
224.0092	16	C12[13]CH4ClN2+
225.0037	67	C13H4[37]ClN2+
226.0069	6	C10H8Cl2N2+
251.0022	999	C11H7Cl2N3+
252.005	119	C10[13]CH7Cl2N3+
252.9992	541	C11H7Cl[37]ClN3+
254.0017	45	C11H8Cl2N2O+
254.9959	8	C10H7Cl2N3O+
264.981	106	C11H5Cl2N3O+
265.9845	17	C10[13]CH5Cl2N3O+
266.9781	58	C11H5Cl[37]ClN3O+
