Mass spectrum: Nitrendipin; LC-ESI-QTOF; MS2; CE: 40 eV; R=35000; [M-H]-
Name: Nitrendipin
Name: Nitrendipine
Name: 5-O-ethyl 3-O-methyl 2,6-dimethyl-4-(3-nitrophenyl)-1,4-dihydropyridine-3,5-dicarboxylate
Formula: C18H20N2O6
Exact mass: 360.1321364
SMILES: CCOC(=O)C1=C(C)NC(C)=C(C1C1=CC=CC(=C1)[N+]([O-])=O)C(=O)OC
InChI: InChI=1S/C18H20N2O6/c1-5-26-18(22)15-11(3)19-10(2)14(17(21)25-4)16(15)12-7-6-8-13(9-12)20(23)24/h6-9,16,19H,5H2,1-4H3
Instrument: Bruker maXis Impact
Instrument type: LC-ESI-QTOF
Ms type: MS2
Ion mode: NEGATIVE
Ionization: ESI
Fragmentation mode: CID
Collision energy: 40 eV
Resolution: 35000
Column name: Acclaim RSLC C18 2.2um, 2.1x100mm, Thermo
Retention time: 9.744 min
Base peak: 359.1244
Precursor m/z: 359.1249
Precursor type: [M-H]-
m/z	relative intensity	assigned
148.0396	189	C8H6NO2-
149.0472	376	C8H7NO2-
150.0553	227	C8H8NO2-
162.0547	447	C6H10O5-
164.0702	361	C6H12O5-
178.0836	245	C7H14O5-
178.0934	212	C6H14N2O4-
190.0502	217	C10H8NO3-
206.0636	225	C14H8NO-
207.063	290	C6H11N2O6-
208.052	242	C14H8O2-
223.0716	204	C10H11N2O4-
224.0714	999	C14H10NO2-
225.0755	318	C11H13O5-
236.0924	328	C12H14NO4-
239.0435	601	C10H9NO6-
253.0584	209	C11H11NO6-
