Mass spectrum: Omeprazole; LC-ESI-QTOF; MS2; CE: 30 eV; R=35000; [M+H]+
Name: Omeprazole
Name: 6-methoxy-2-[(4-methoxy-3,5-dimethylpyridin-2-yl)methylsulfinyl]-1H-benzimidazole
Formula: C17H19N3O3S
Exact mass: 345.1147125
SMILES: Cc1cnc(c(c1OC)C)CS(=O)c2[nH]c3ccc(cc3n2)OC
InChI: InChI=1S/C17H19N3O3S/c1-10-8-18-15(11(2)16(10)23-4)9-24(21)17-19-13-6-5-12(22-3)7-14(13)20-17/h5-8H,9H2,1-4H3,(H,19,20)
Instrument: Bruker maXis Impact
Instrument type: LC-ESI-QTOF
Ms type: MS2
Ion mode: POSITIVE
Ionization: ESI
Fragmentation mode: CID
Collision energy: 30 eV
Resolution: 35000
Column name: Acclaim RSLC C18 2.2um, 2.1x100mm, Thermo
Retention time: 7.5 min
Base peak: 376.1471
Precursor m/z: 346.122
Precursor type: [M+H]+
m/z	relative intensity	assigned
120.0798	22	H14N3O2S+
121.0884	100	C8H11N+
122.0957	51	H16N3O2S+
134.048	26	C7H6N2O+
136.0751	999	H14N3O3S+
137.0787	65	C7[13]CH10NO+
149.0703	161	C8H9N2O+
150.0915	224	C9H12NO+
151.0986	928	CH17N3O3S+
152.1029	77	C8[13]CH13NO+
165.0235	38	C8H7NOS+
168.1016	148	C9H14NO2+
179.0267	119	C8H7N2OS+
180.0474	570	C9H10NOS+
198.058	862	C9H12NO2S+
199.0615	63	C8[13]CH12NO2S+
200.0586	24	C11H8N2O2+
