Mass spectrum: alpha-Hydroxymidazolam; LC-ESI-QTOF; MS2; CE: 20 eV; R=35000; [M+H]+
Name: alpha-Hydroxymidazolam
Name: 1-Hydroxymidazolam
Name: [8-chloro-6-(2-fluorophenyl)-4H-imidazo[1,5-a][1,4]benzodiazepin-1-yl]methanol
Formula: C18H13ClFN3O
Exact mass: 341.0731179
SMILES: C1C2=CN=C(N2C3=C(C=C(C=C3)Cl)C(=N1)C4=CC=CC=C4F)CO
InChI: InChI=1S/C18H13ClFN3O/c19-11-5-6-16-14(7-11)18(13-3-1-2-4-15(13)20)22-9-12-8-21-17(10-24)23(12)16/h1-8,24H,9-10H2
Instrument: Bruker maXis Impact
Instrument type: LC-ESI-QTOF
Ms type: MS2
Ion mode: POSITIVE
Ionization: ESI
Fragmentation mode: CID
Collision energy: 20 eV
Resolution: 35000
Column name: Acclaim RSLC C18 2.2um, 2.1x100mm, Thermo
Retention time: 8.565 min
Base peak: 342.08
Precursor m/z: 342.0804
Precursor type: [M+H]+
m/z	relative intensity	assigned
203.0357	36	C11H8ClN2+
205.0327	10	C11H8[37]ClN2+
297.0581	9	C17H11ClFN2+
324.0695	362	C18H12ClFN3+
325.0725	53	C17[13]CH12ClFN3+
326.0667	89	C18H12[37]ClFN3+
327.0695	10	C18H13ClFN2O+
342.0802	999	C18H14ClFN3O+
343.0833	176	C17[13]CH14ClFN3O+
344.0776	263	C18H14[37]ClFN3O+
