Mass spectrum: Bosentan; LC-ESI-QTOF; MS2; CE: 50 eV; R=35000; [M+H]+
Name: Bosentan
Name: 4-tert-butyl-N-[6-(2-hydroxyethoxy)-5-(2-methoxyphenoxy)-2-pyrimidin-2-ylpyrimidin-4-yl]benzenesulfonamide
Formula: C27H29N5O6S
Exact mass: 551.1838546
SMILES: COC1=CC=CC=C1OC1=C(NS(=O)(=O)C2=CC=C(C=C2)C(C)(C)C)N=C(N=C1OCCO)C1=NC=CC=N1
InChI: InChI=1S/C27H29N5O6S/c1-27(2,3)18-10-12-19(13-11-18)39(34,35)32-23-22(38-21-9-6-5-8-20(21)36-4)26(37-17-16-33)31-25(30-23)24-28-14-7-15-29-24/h5-15,33H,16-17H2,1-4H3,(H,30,31,32)
Instrument: Bruker maXis Impact
Instrument type: LC-ESI-QTOF
Ms type: MS2
Ion mode: POSITIVE
Ionization: ESI
Fragmentation mode: CID
Collision energy: 50 eV
Resolution: 35000
Column name: Acclaim RSLC C18 2.2um, 2.1x100mm, Thermo
Retention time: 9.952 min
Base peak: 293.105
Precursor m/z: 552.1911
Precursor type: [M+H]+
m/z	relative intensity	assigned
122.0575	16	C4H10O4+
123.0433	8	C5H5N3O+
123.0656	46	C4H11O4+
124.0499	14	C5H6N3O+
132.067	9	H12N4O2S+
133.051	13	C6H5N4+
133.1006	6	C2H17N2O2S+
134.0582	11	C6H6N4+
135.0431	28	H11N2O4S+
135.0652	8	C5H11O4+
147.0652	27	C6H11O4+
149.0447	81	C5H9O5+
149.0689	10	C5H11NO4+
150.0521	40	C5H10O5+
151.1111	6	C2H19N2O3S+
161.1061	48	C7H15NO3+
162.1097	6	C6[13]CH15NO3+
175.0603	68	C7H11O5+
175.0838	7	C7H13NO4+
176.0572	15	CH12N4O4S+
177.0403	22	C7H5N4O2+
189.0637	14	C7H11NO5+
190.0715	15	C7H12NO5+
197.062	16	C8H11N3OS+
202.0717	999	C11H10N2O2+
203.0555	34	C8H11O6+
203.0762	152	C10[13]CH10N2O2+
204.0512	11	C8H6N5O2+
204.0791	10	C9[13]C2H10N2O2+
205.0584	19	C7H11NO6+
224.0929	7	C12H10N5+
237.1005	16	C13H11N5+
238.1057	4	C10H14N4O3+
241.0892	5	C12H17O3S+
248.0932	6	C14H10N5+
252.0856	5	C10H12N4O4+
254.1019	6	C12H16NO5+
255.1108	40	C12H17NO5+
256.1139	7	C11[13]CH17NO5+
264.0876	16	C14H10N5O+
265.0933	10	C11H13N4O4+
268.0928	5	C11H14N3O5+
276.0642	6	C15H8N4O2+
276.0881	25	C15H10N5O+
279.075	14	C14H9N5O2+
280.0828	494	C19H10N3+
281.0855	86	C18[13]CH10N3+
282.0932	12	C17[13]C2H10N3+
283.1056	36	C13H17NO6+
292.0818	6	C14H14NO6+
293.0888	10	C14H15NO6+
294.0981	51	C14H16NO6+
295.1004	8	C13[13]CH16NO6+
296.0782	5	C8H16N4O6S+
310.092	21	C12H14N4O6+
311.101	80	C20H13N3O+
312.1061	26	C19[13]CH13N3O+
324.1096	20	C10H20N4O6S+
