Mass spectrum: Pantoprazole; LC-ESI-QTOF; MS2; CE: Ramp 23.3-34.9 eV; R=35000; [M+H]+
Name: Pantoprazole
Name: 6-(difluoromethoxy)-2-[(3,4-dimethoxypyridin-2-yl)methylsulfinyl]-1H-benzimidazole
Formula: C16H15F2N3O4S
Exact mass: 383.0751334
SMILES: COc1ccnc(c1OC)CS(=O)c2[nH]c3ccc(cc3n2)OC(F)F
InChI: InChI=1S/C16H15F2N3O4S/c1-23-13-5-6-19-12(14(13)24-2)8-26(22)16-20-10-4-3-9(25-15(17)18)7-11(10)21-16/h3-7,15H,8H2,1-2H3,(H,20,21)
Instrument: Bruker maXis Impact
Instrument type: LC-ESI-QTOF
Ms type: MS2
Ion mode: POSITIVE
Ionization: ESI
Fragmentation mode: CID
Collision energy: Ramp 23.3-34.9 eV
Resolution: 35000
Column name: Acclaim RSLC C18 2.2um, 2.1x100mm, Thermo
Retention time: 7.403 min
Base peak: 384.083
Precursor m/z: 384.0824
Precursor type: [M+H]+
m/z	relative intensity	assigned
122.059	8	C7H8NO+
136.0381	49	C7H6NO2+
138.0541	999	C7H8NO2+
139.0572	88	C6[13]CH8NO2+
140.0586	5	C7H8NO[18]O+
152.0694	58	H14N3O4S+
153.0772	157	C8H11NO2+
154.0484	29	C5H10F2NS+
154.0805	11	C7[13]CH11NO2+
167.0023	11	C4H3F2NO4+
168.0642	16	C6H12F2NS+
170.0798	14	C6H14F2NS+
182.0257	13	C5H6F2NO4+
185.0507	17	C8H11NO2S+
200.0366	561	C8H10NO3S+
201.0397	47	C7[13]CH10NO3S+
202.0331	16	C8H10NO3[34]S+
215.0072	10	C11H4FN2S+
