Mass spectrum: Dimethenamid-OA; LC-ESI-QTOF; MS2; CE: 50 eV; R=35000; [M+H]+
Name: Dimethenamid-OA
Name: [(2,4-Dimethylthiophen-3-yl)(1-methoxypropan-2-yl)amino](oxo)acetic acid
Name: 2-[(2,4-dimethylthiophen-3-yl)-(1-methoxypropan-2-yl)amino]-2-oxoacetic acid
Formula: C12H17NO4S
Exact mass: 271.0878290
SMILES: COCC(C)N(C(=O)C(O)=O)C1=C(C)SC=C1C
InChI: InChI=1S/C12H17NO4S/c1-7-6-18-9(3)10(7)13(8(2)5-17-4)11(14)12(15)16/h6,8H,5H2,1-4H3,(H,15,16)
Instrument: Bruker maXis Impact
Instrument type: LC-ESI-QTOF
Ms type: MS2
Ion mode: POSITIVE
Ionization: ESI
Fragmentation mode: CID
Collision energy: 50 eV
Resolution: 35000
Column name: Acclaim RSLC C18 2.2um, 2.1x100mm, Thermo
Retention time: 6.524 min
Base peak: 272.0947
Precursor m/z: 272.0951
Precursor type: [M+H]+
m/z	relative intensity	assigned
123.0115	97	C3H7O3S+
125.0282	97	C6H7NS+
125.0404	114	C7H9S+
126.0361	999	C9H4N+
127.0376	98	C8[13]CH4N+
132.0805	108	C9H10N+
133.0882	108	C9H11N+
136.0208	119	C7H6NS+
137.0267	105	C4H9O3S+
137.999	101	C3H6O4S+
138.0353	386	C4H10O3S+
150.0349	97	C5H10O3S+
151.044	118	C8H9NS+
152.0163	126	C7H6NOS+
152.0494	269	C11H6N+
153.0571	109	C11H7N+
