Mass spectrum: Icaridin; LC-ESI-QTOF; MS2; CE: 40 eV; R=35000; [M+H]+
Name: Icaridin
Name: butan-2-yl 2-(2-hydroxyethyl)piperidine-1-carboxylate
Formula: C12H23NO3
Exact mass: 229.1677936
SMILES: CCC(C)OC(=O)N1CCCCC1CCO
InChI: InChI=1S/C12H23NO3/c1-3-10(2)16-12(15)13-8-5-4-6-11(13)7-9-14/h10-11,14H,3-9H2,1-2H3
Instrument: Bruker maXis Impact
Instrument type: LC-ESI-QTOF
Ms type: MS2
Ion mode: POSITIVE
Ionization: ESI
Fragmentation mode: CID
Collision energy: 40 eV
Resolution: 35000
Column name: Acclaim RSLC C18 2.2um, 2.1x100mm, Thermo
Retention time: 8.788 min
Base peak: 230.1749
Precursor m/z: 230.1751
Precursor type: [M+H]+
m/z	relative intensity	assigned
112.1123	18	C7H14N+
113.0971	8	C7H13O+
128.0701	248	C6H10NO2+
129.0737	16	C5[13]CH10NO2+
130.1219	999	C7H16NO+
131.1253	95	C6[13]CH16NO+
156.1017	24	C8H14NO2+
168.0669	11	C8H10NO3+
169.0749	84	C8H11NO3+
170.0781	10	C7[13]CH11NO3+
