Mass spectrum: Venlafaxine; LC-ESI-QTOF; MS2; CE: 50 eV; R=35000; [M+H]+
Name: Venlafaxine
Name: 1-[2-(dimethylamino)-1-(4-methoxyphenyl)ethyl]cyclohexan-1-ol
Formula: C17H27NO2
Exact mass: 277.2041791
SMILES: CN(C)CC(c1ccc(cc1)OC)C2(CCCCC2)O
InChI: InChI=1S/C17H27NO2/c1-18(2)13-16(17(19)11-5-4-6-12-17)14-7-9-15(20-3)10-8-14/h7-10,16,19H,4-6,11-13H2,1-3H3
Instrument: Bruker maXis Impact
Instrument type: LC-ESI-QTOF
Ms type: MS2
Ion mode: POSITIVE
Ionization: ESI
Fragmentation mode: CID
Collision energy: 50 eV
Resolution: 35000
Column name: Acclaim RSLC C18 2.2um, 2.1x100mm, Thermo
Retention time: 6.2 min
Base peak: 278.212
Precursor m/z: 278.2115
Precursor type: [M+H]+
m/z	relative intensity	assigned
116.06	26	C9H8+
117.0695	36	C9H9+
118.0727	5	C4H10N2O2+
119.0482	8	C8H7O+
119.0851	22	C9H11+
120.0549	5	C8H8O+
121.0643	999	C8H9O+
122.0674	82	C3H10N2O3+
127.0537	14	C10H7+
128.0612	72	C10H8+
129.0689	55	C10H9+
130.0761	23	C10H10+
131.0841	5	C10H11+
132.056	131	C9H8O+
133.0626	20	C8[13]CH8O+
134.0952	7	C9H12N+
135.0801	50	C9H11O+
136.0835	7	C4H12N2O3+
141.069	65	C11H9+
142.0757	17	C11H10+
143.0484	19	C10H7O+
143.0845	15	C11H11+
145.0639	67	C10H9O+
146.0713	31	C10H10O+
146.0954	7	C10H12N+
148.0758	61	C9H10NO+
149.0776	7	C4H11N3O3+
153.0692	9	C12H9+
155.0602	20	C10H7N2+
155.0852	14	C12H11+
157.0647	19	C11H9O+
159.0789	134	C11H11O+
160.085	20	C10[13]CH11O+
161.0952	15	C11H13O+
163.0973	29	C10H13NO+
167.0845	7	C13H11+
168.092	6	C13H12+
169.0748	7	C11H9N2+
171.0798	18	C12H11O+
172.0872	15	C12H12O+
173.095	91	C12H13O+
174.1002	20	C11[13]CH13O+
177.1141	7	C11H15NO+
178.1227	6	C11H16NO+
185.0951	9	C13H13O+
