Mass spectrum: Sarafloxacin; LC-ESI-QTOF; MS2; CE: Ramp 23.3-35.0 eV; R=35000; [M+H]+
Name: Sarafloxacin
Name: 6-fluoro-1-(4-fluorophenyl)-4-oxo-7-piperazin-4-ium-1-ylquinoline-3-carboxylate
Formula: C20H17F2N3O3
Exact mass: 385.1238
SMILES: c1cc(ccc1n2cc(c(=O)c3c2cc(c(c3)F)N4CCNCC4)C(=O)O)F
InChI: InChI=1S/C20H17F2N3O3/c21-12-1-3-13(4-2-12)25-11-15(20(27)28)19(26)14-9-16(22)18(10-17(14)25)24-7-5-23-6-8-24/h1-4,9-11,23H,5-8H2,(H,27,28)
Instrument: Bruker maXis Impact
Instrument type: LC-ESI-QTOF
Ms type: MS2
Ion mode: POSITIVE
Ionization: ESI
Fragmentation mode: CID
Collision energy: Ramp 23.3-35.0 eV
Resolution: 35000
Column name: Acclaim RSLC C18 2.2um, 2.1x100mm, Thermo
Retention time: 4.9 min
Base peak: 360.1736
Precursor m/z: 386.1311
Precursor type: [M+H]+
m/z	relative intensity	assigned
270.0985	5	C15H14N2O3+
285.0864	8	C16H11F2N2O+
292.1264	6	C17H18F2O2+
299.1014	80	C17H13F2N2O+
300.1035	16	C17H15FNO3+
322.137	10	C16H18F2N3O2+
340.1285	6	C19H16F2N3O+
342.1439	83	C19H18F2N3O+
343.1474	19	C17H18FN5O2+
348.1174	7	C17H16F2N3O3+
366.1276	34	C20H17FN3O3+
367.1299	9	C20H18FN3O3+
368.123	92	C20H16F2N3O2+
369.1239	26	C20H17F2N3O2+
386.1346	999	C20H18F2N3O3+
387.1373	287	C18H18FN5O4+
388.1389	31	C19H18F2N4O3+
