Mass spectrum: Metribuzin-desamino; LC-ESI-QTOF; MS2; CE: 50 eV; R=35000; [M+H]+
Name: Metribuzin-desamino
Name: Deaminated sencor
Name: 6-tert-butyl-3-methylsulfanyl-2H-1,2,4-triazin-5-one
Formula: C8H13N3OS
Exact mass: 199.077933
SMILES: CSC1=NC(=O)C(=NN1)C(C)(C)C
InChI: InChI=1S/C8H13N3OS/c1-8(2,3)5-6(12)9-7(13-4)11-10-5/h1-4H3,(H,9,11,12)
Instrument: Bruker maXis Impact
Instrument type: LC-ESI-QTOF
Ms type: MS2
Ion mode: POSITIVE
Ionization: ESI
Fragmentation mode: CID
Collision energy: 50 eV
Resolution: 35000
Column name: Acclaim RSLC C18 2.2um, 2.1x100mm, Thermo
Retention time: 7.1 min
Base peak: 200.0846
Precursor m/z: 200.0852
Precursor type: [M+H]+
m/z	relative intensity	assigned
116.0266	37	C8H4O+
127.0191	126	C4H5N3S+
128.0266	27	C4H6N3S+
129.0348	25	C4H7N3S+
140.0265	43	C5H6N3S+
141.0348	252	C5H7N3S+
142.0423	978	C5H8N3S+
144.0378	53	C5H8N2OS+
156.0579	999	C6H10N3S+
158.0544	62	C6H10N2OS+
