Mass spectrum: N4-Acetylsulfathiazole; LC-ESI-QTOF; MS2; CE: 30 eV; R=35000; [M+H]+
Name: N4-Acetylsulfathiazole
Name: Acetylsulfathiazole
Name: N-[4-(1,3-thiazol-2-ylsulfamoyl)phenyl]acetamide
Formula: C11H11N3O3S2
Exact mass: 297.0241832
SMILES: CC(=O)NC1=CC=C(C=C1)S(=O)(=O)NC1=NC=CS1
InChI: InChI=1S/C11H11N3O3S2/c1-8(15)13-9-2-4-10(5-3-9)19(16,17)14-11-12-6-7-18-11/h2-7H,1H3,(H,12,14)(H,13,15)
Instrument: Bruker maXis Impact
Instrument type: LC-ESI-QTOF
Ms type: MS2
Ion mode: POSITIVE
Ionization: ESI
Fragmentation mode: CID
Collision energy: 30 eV
Resolution: 35000
Column name: Acclaim RSLC C18 2.2um, 2.1x100mm, Thermo
Retention time: 4.1 min
Base peak: 150.1114
Precursor m/z: 298.0315
Precursor type: [M+H]+
m/z	relative intensity	assigned
134.0594	999	C8H8NO+
135.0623	98	C7[13]CH8NO+
136.0735	32	C3H10N3O3+
140.0162	32	C6H6NOS+
150.0541	62	C8H8NO2+
156.0098	94	C6H6NO2S+
162.0635	68	C8H8N3O+
182.0281	31	C8H8NO2S+
198.0213	299	C8H8NO3S+
298.0299	35	C11H12N3O3S2+
