Mass spectrum: Medroxyprogesterone; LC-ESI-QTOF; MS2; CE: 20 eV; R=35000; [M+H]+
Name: Medroxyprogesterone
Name: (6S,8R,9S,10R,13S,14S,17R)-17-acetyl-17-hydroxy-6,10,13-trimethyl-2,6,7,8,9,11,12,14,15,16-decahydro-1H-cyclopenta[a]phenanthren-3-one
Formula: C22H32O3
Exact mass: 344.2351449
SMILES: [H][C@@]12CC[C@](O)(C(C)=O)[C@@]1(C)CC[C@@]1([H])[C@@]2([H])C[C@H](C)C2=CC(=O)CC[C@]12C
InChI: InChI=1S/C22H32O3/c1-13-11-16-17(20(3)8-5-15(24)12-19(13)20)6-9-21(4)18(16)7-10-22(21,25)14(2)23/h12-13,16-18,25H,5-11H2,1-4H3/t13-,16+,17-,18-,20+,21-,22-/m0/s1
Instrument: Bruker maXis Impact
Instrument type: LC-ESI-QTOF
Ms type: MS2
Ion mode: POSITIVE
Ionization: ESI
Fragmentation mode: CID
Collision energy: 20 eV
Resolution: 35000
Column name: Acclaim RSLC C18 2.2um, 2.1x100mm, Thermo
Retention time: 10.706 min
Base peak: 345.2427
Precursor m/z: 345.2424
Precursor type: [M+H]+
m/z	relative intensity	assigned
123.08	247	C8H11O+
124.0834	23	C7[13]CH11O+
137.0954	19	C9H13O+
145.1004	7	C11H13+
147.1168	6	C11H15+
159.1159	6	C12H15+
161.132	5	C12H17+
163.111	8	C11H15O+
171.1161	5	C13H15+
173.1316	11	C13H17+
175.1469	12	C13H19+
177.1268	9	C12H17O+
187.1479	7	C14H19+
189.1265	7	C13H17O+
191.1423	10	C13H19O+
197.1321	5	C15H17+
199.1474	6	C15H19+
203.1423	8	C14H19O+
205.1585	16	C14H21O+
213.1635	6	C16H21+
215.1425	7	C15H19O+
217.1587	8	C15H21O+
225.1629	5	C17H21+
227.1791	7	C17H23+
229.1583	5	C16H21O+
231.1748	9	C16H23O+
245.1892	8	C17H25O+
257.1537	23	C17H21O2+
267.2102	30	C20H27+
268.2136	7	C19[13]CH27+
269.1903	8	C19H25O+
275.1637	38	C17H23O3+
276.1667	6	C16[13]CH23O3+
283.2055	6	C20H27O+
284.2131	6	C20H28O+
285.2212	45	C20H29O+
286.2247	9	C19[13]CH29O+
291.2103	7	C22H27+
309.2209	43	C22H29O+
310.225	10	C21[13]CH29O+
327.2321	102	C22H31O2+
328.2353	24	C21[13]CH31O2+
345.2431	999	C22H33O3+
346.2464	224	C21[13]CH33O3+
347.2485	24	C20[13]C2H33O3+
