Mass spectrum: Fosinopril; LC-ESI-QTOF; MS2; CE: 40 eV; R=35000; [M+H]+
Name: Fosinopril
Name: (2S,4S)-4-cyclohexyl-1-[2-[(2-methyl-1-propanoyloxypropoxy)-(4-phenylbutyl)phosphoryl]acetyl]pyrrolidine-2-carboxylic acid
Formula: C30H46NO7P
Exact mass: 563.3011894
SMILES: O=C(CP(=O)(CCCCc1ccccc1)OC(OC(=O)CC)C(C)C)N2C[C@@H](C[C@H]2C(O)=O)C3CCCCC3
InChI: InChI=1S/C30H46NO7P/c1-4-28(33)37-30(22(2)3)38-39(36,18-12-11-15-23-13-7-5-8-14-23)21-27(32)31-20-25(19-26(31)29(34)35)24-16-9-6-10-17-24/h5,7-8,13-14,22,24-26,30H,4,6,9-12,15-21H2,1-3H3,(H,34,35)/t25-,26+,30?,39?/m1/s1
Instrument: Bruker maXis Impact
Instrument type: LC-ESI-QTOF
Ms type: MS2
Ion mode: POSITIVE
Ionization: ESI
Fragmentation mode: CID
Collision energy: 40 eV
Resolution: 35000
Column name: Acclaim RSLC C18 2.2um, 2.1x100mm, Thermo
Retention time: 12.304 min
Base peak: 564.3121
Precursor m/z: 564.3085
Precursor type: [M+H]+
m/z	relative intensity	assigned
152.1443	999	C10H18N+
153.1474	96	C9[13]CH18N+
176.1433	5	C12H18N+
194.1548	11	C12H20NO+
197.0736	18	C10H14O2P+
198.15	22	C11H20NO2+
221.0737	42	C12H14O2P+
222.0763	5	C11[13]CH14O2P+
239.0843	9	C12H16O3P+
348.2113	19	C20H31NO2P+
349.2181	5	C20H32NO2P+
372.2114	86	C22H31NO2P+
373.2144	18	C21[13]CH31NO2P+
390.2226	763	C29H28N+
391.2254	177	C19H36O6P+
392.2284	20	C18[13]CH36O6P+
418.2175	123	C30H28NO+
419.2218	36	C27H31O4+
420.224	5	C26[13]CH31O4+
436.2279	77	C30H30NO2+
437.2318	22	C29[13]CH30NO2+
