Mass spectrum: Triethyl citrate; GC-APCI-QTOF; MS2; CE: 10 eV; R=35000; [M+H]+
Name: Triethyl citrate
Formula: C12H20O7
Exact mass: 276.1209
SMILES: CCOC(=O)CC(CC(=O)OCC)(C(=O)OCC)O
InChI: InChI=1S/C12H20O7/c1-4-17-9(13)7-12(16,11(15)19-6-3)8-10(14)18-5-2/h16H,4-8H2,1-3H3
Instrument: Bruker 450 GC coupled to maXis Impact
Instrument type: GC-APCI-QTOF
Ms type: MS2
Ion mode: POSITIVE
Ionization: APCI
Fragmentation mode: CID
Collision energy: 10 eV
Resolution: 35000
Column name: Rxi-5Sil MS column, 30m, 0.25mm i.d., 0.25Âµm film thickness, Restek
Retention time: 20.396 min
Base peak: 277.1075
Precursor m/z: 277.1282
Precursor type: [M+H]+
m/z	relative intensity	assigned
121.0998	12	C9H13+
149.1341	14	C11H17+
163.1473	11	C12H19+
171.0329	13	C7H7O5+
173.0439	16	C7H9O5+
178.0804	94	C7H14O5+
181.1584	16	C12H21O+
195.1409	15	C12H19O2+
200.0718	167	C9H12O5+
201.0755	16	C9H13O5+
203.0739	148	C12H11O3+
204.0807	999	C12H12O3+
205.0869	304	C12H13O3+
205.1241	15	C6H21O7+
206.0751	28	C8H14O6+
206.095	46	C12H14O3+
220.0767	12	C12H12O4+
221.0818	13	C12H13O4+
222.0679	26	C8H14O7+
