Mass spectrum: Simazine-2-hydroxy; LC-ESI-QTOF; MS2; CE: 10 eV; R=35000; [M+H]+
Name: Simazine-2-hydroxy
Name: Hydroxysimazine
Name: 2,6-bis(ethylamino)-1H-1,3,5-triazin-4-one
Formula: C7H13N5O
Exact mass: 183.1120100
SMILES: CCNC1=NC(=O)N=C(NCC)N1
InChI: InChI=1S/C7H13N5O/c1-3-8-5-10-6(9-4-2)12-7(13)11-5/h3-4H2,1-2H3,(H3,8,9,10,11,12,13)
Instrument: Bruker maXis Impact
Instrument type: LC-ESI-QTOF
Ms type: MS2
Ion mode: POSITIVE
Ionization: ESI
Fragmentation mode: CID
Collision energy: 10 eV
Resolution: 35000
Column name: Acclaim RSLC C18 2.2um, 2.1x100mm, Thermo
Retention time: 4.0 min
Base peak: 184.1186
Precursor m/z: 184.1193
Precursor type: [M+H]+
m/z	relative intensity	assigned
114.0655	6	C4H8N3O+
156.0864	1	C5H10N5O+
184.1189	999	C7H14N5O+
185.1215	69	C6[13]CH14N5O+
186.1237	4	C5[13]C2H14N5O+
