Mass spectrum: Diisobutyl phthalate; GC-APCI-QTOF; MS2; CE: 10 eV; R=35000; [M+H]+
Name: Diisobutyl phthalate
Formula: C16H22O4
Exact mass: 278.1518
SMILES: CC(C)COC(=O)C1=CC=CC=C1C(=O)OCC(C)C
InChI: InChI=1S/C16H22O4/c1-11(2)9-19-15(17)13-7-5-6-8-14(13)16(18)20-10-12(3)4/h5-8,11-12H,9-10H2,1-4H3
Instrument: Bruker 450 GC coupled to maXis Impact
Instrument type: GC-APCI-QTOF
Ms type: MS2
Ion mode: POSITIVE
Ionization: APCI
Fragmentation mode: CID
Collision energy: 10 eV
Resolution: 35000
Column name: Rxi-5Sil MS column, 30m, 0.25mm i.d., 0.25Âµm film thickness, Restek
Retention time: 16.338 min
Base peak: 149.0245
Precursor m/z: 279.1591
Precursor type: [M+H]+
m/z	relative intensity	assigned
57.0708	20	C4H9+
149.0244	999	C8H5O3+
150.0284	60	C8H6O3+
167.0361	25	C8H7O4+
205.0863	152	C12H13O3+
206.0906	12	C12H14O3+
223.097	44	C12H15O4+
224.0992	7	C12H16O4+
279.1592	28	C16H23O4+
