Mass spectrum: Atrazine-Desethyl; LC-ESI-QTOF; MS2; CE: 40 eV; R=35000; [M+H]+
Name: Atrazine-Desethyl
Name: Deethylatrazine
Name: 6-chloro-2-N-propan-2-yl-1,3,5-triazine-2,4-diamine
Formula: C6H10ClN5
Exact mass: 187.0624730
SMILES: CC(C)NC1=NC(N)=NC(Cl)=N1
InChI: InChI=1S/C6H10ClN5/c1-3(2)9-6-11-4(7)10-5(8)12-6/h3H,1-2H3,(H3,8,9,10,11,12)
Instrument: Bruker maXis Impact
Instrument type: LC-ESI-QTOF
Ms type: MS2
Ion mode: POSITIVE
Ionization: ESI
Fragmentation mode: CID
Collision energy: 40 eV
Resolution: 35000
Column name: Acclaim RSLC C18 2.2um, 2.1x100mm, Thermo
Retention time: 5.5 min
Base peak: 188.0692
Precursor m/z: 188.0697
Precursor type: [M+H]+
m/z	relative intensity	assigned
146.0219	999	C3H5ClN5+
147.0237	63	C2[13]CH5ClN5+
148.0187	354	C3H5[37]ClN5+
