Mass spectrum: Sitagliptin; LC-ESI-QTOF; MS2; CE: 50 eV; R=35000; [M+H]+
Name: Sitagliptin
Name: (3R)-3-amino-1-[3-(trifluoromethyl)-6,8-dihydro-5H-[1,2,4]triazolo[4,3-a]pyrazin-7-yl]-4-(2,4,5-trifluorophenyl)butan-1-one
Formula: C16H15F6N5O
Exact mass: 407.1180794
SMILES: c1c(c(cc(c1F)F)F)C[C@H](CC(=O)N2CCn3c(nnc3C(F)(F)F)C2)N
InChI: InChI=1S/C16H15F6N5O/c17-10-6-12(19)11(18)4-8(10)3-9(23)5-14(28)26-1-2-27-13(7-26)24-25-15(27)16(20,21)22/h4,6,9H,1-3,5,7,23H2/t9-/m1/s1
Instrument: Bruker maXis Impact
Instrument type: LC-ESI-QTOF
Ms type: MS2
Ion mode: POSITIVE
Ionization: ESI
Fragmentation mode: CID
Collision energy: 50 eV
Resolution: 35000
Column name: Acclaim RSLC C18 2.2um, 2.1x100mm, Thermo
Retention time: 5.389 min
Base peak: 408.1281
Precursor m/z: 408.1254
Precursor type: [M+H]+
m/z	relative intensity	assigned
127.0357	442	C7H5F2+
128.0386	42	C5H5FN2O+
134.0399	45	F6H6N+
135.044	10	C3H7F4O+
137.0319	11	C4H4F3N2+
138.0274	123	C3H3F3N3+
145.0259	45	C7H4F3+
150.0275	25	C9H4F2+
151.0357	72	C9H5F2+
153.0386	46	C8H5F2N+
154.0467	414	C8H6F2N+
155.0493	55	C11H7O+
157.0262	16	C8H4F3+
165.0373	11	C4H4F3N4+
168.0383	78	C9H6F2O+
169.0289	13	C6H5F4O+
171.0423	107	CH6F5N3O+
172.0443	18	C7H6F2N2O+
174.0529	999	C8H7F3N+
175.0558	78	C7[13]CH7F3N+
193.0703	427	C3H9F4N4O+
235.0812	39	C13H11F2NO+
