Mass spectrum: Tramadol N-Oxide; LC-ESI-QTOF; MS2; CE: 40 eV; R=35000; [M+H]+
Name: Tramadol N-Oxide
Name: 1-[2-hydroxy-2-(3-methoxyphenyl)cyclohexyl]-N,N-dimethylmethanamine oxide
Formula: C16H25NO3
Exact mass: 279.1834437
SMILES: COC1=CC=CC(=C1)C1(O)CCCCC1C[N+](C)(C)[O-]
InChI: InChI=1S/C16H25NO3/c1-17(2,19)12-14-7-4-5-10-16(14,18)13-8-6-9-15(11-13)20-3/h6,8-9,11,14,18H,4-5,7,10,12H2,1-3H3
Instrument: Bruker maXis Impact
Instrument type: LC-ESI-QTOF
Ms type: MS2
Ion mode: POSITIVE
Ionization: ESI
Fragmentation mode: CID
Collision energy: 40 eV
Resolution: 35000
Column name: Acclaim RSLC C18 2.2um, 2.1x100mm, Thermo
Retention time: 5.1 min
Base peak: 280.1908
Precursor m/z: 280.1907
Precursor type: [M+H]+
m/z	relative intensity	assigned
115.0538	25	C9H7+
116.0603	7	C9H8+
117.0692	7	C9H9+
121.0641	334	C8H9O+
122.0677	30	C7[13]CH9O+
127.0533	8	C10H7+
128.0613	36	C10H8+
129.0688	42	C10H9+
130.0746	7	C5H10N2O2+
131.0481	23	C9H7O+
132.0561	11	C9H8O+
133.0635	13	C9H9O+
135.0433	999	C8H7O2+
135.0794	56	C9H11O+
136.0466	82	C3H8N2O4+
136.083	6	C4H12N2O3+
137.0481	5	C7H7NO2+
137.059	6	C8H9O2+
141.0689	19	C11H9+
142.0756	9	C11H10+
143.0849	5	C11H11+
146.0703	37	C10H10O+
147.0797	103	C10H11O+
148.0827	13	C5H12N2O3+
149.0228	15	C8H5O3+
155.0592	10	C7H9NO3+
157.0638	11	C11H9O+
161.0934	24	C11H13O+
163.0744	6	C10H11O2+
169.0746	5	C8H11NO3+
169.1005	5	C13H13+
171.0798	21	C12H11O+
172.087	34	C12H12O+
173.0951	76	C12H13O+
174.0989	7	C7H14N2O3+
175.1097	8	C12H15O+
184.0873	6	C13H12O+
186.1027	20	C13H14O+
199.111	6	C14H15O+
201.1267	68	C14H17O+
202.1297	11	C13[13]CH17O+
262.1798	8	C16H24NO2+
