Mass spectrum: Diazinon; LC-ESI-QTOF; MS2; CE: 50 eV; R=35000; [M+H]+
Name: Diazinon
Name: diethoxy-(6-methyl-2-propan-2-ylpyrimidin-4-yl)oxy-sulfanylidene-$l^{5}-phosphane
Formula: C12H21N2O3PS
Exact mass: 304.1010502
SMILES: CCOP(=S)(OCC)OC1=NC(=NC(C)=C1)C(C)C
InChI: InChI=1S/C12H21N2O3PS/c1-6-15-18(19,16-7-2)17-11-8-10(5)13-12(14-11)9(3)4/h8-9H,6-7H2,1-5H3
Instrument: Bruker maXis Impact
Instrument type: LC-ESI-QTOF
Ms type: MS2
Ion mode: POSITIVE
Ionization: ESI
Fragmentation mode: CID
Collision energy: 50 eV
Resolution: 35000
Column name: Acclaim RSLC C18 2.2um, 2.1x100mm, Thermo
Retention time: 10.9 min
Base peak: 305.1096
Precursor m/z: 305.1083
Precursor type: [M+H]+
m/z	relative intensity	assigned
128.052	7	C6H10NS+
135.0908	69	C8H11N2+
136.0748	5	C8H10NO+
136.0947	7	C7[13]CH11N2+
153.1014	552	C8H13N2O+
154.0545	65	C8H11OP+
154.1046	41	C7[13]CH13N2O+
155.0576	6	C7[13]CH11OP+
167.0626	9	C9H12OP+
168.0705	7	C9H13OP+
169.0787	999	C8H13N2S+
