Mass spectrum: Flunitrazepam; LC-ESI-QTOF; MS2; CE: 40 eV; R=35000; [M+H]+
Name: Flunitrazepam
Name: 5-(2-fluorophenyl)-1-methyl-7-nitro-3H-1,4-benzodiazepin-2-one
Formula: C16H12FN3O3
Exact mass: 313.0862695
SMILES: CN1C2=C(C=C(C=C2)[N+]([O-])=O)C(=NCC1=O)C1=C(F)C=CC=C1
InChI: InChI=1S/C16H12FN3O3/c1-19-14-7-6-10(20(22)23)8-12(14)16(18-9-15(19)21)11-4-2-3-5-13(11)17/h2-8H,9H2,1H3
Instrument: Bruker maXis Impact
Instrument type: LC-ESI-QTOF
Ms type: MS2
Ion mode: POSITIVE
Ionization: ESI
Fragmentation mode: CID
Collision energy: 40 eV
Resolution: 35000
Column name: Acclaim RSLC C18 2.2um, 2.1x100mm, Thermo
Retention time: 7.6 min
Base peak: 327.1368
Precursor m/z: 314.0935
Precursor type: [M+H]+
m/z	relative intensity	assigned
117.0579	6	C5H8FNO+
118.064	30	C8H8N+
119.0722	45	C8H9N+
123.0233	11	C10H3+
131.0611	6	C5H8FN2O+
132.0438	5	C8H6NO+
134.0389	11	C8H5FN+
143.0589	22	C6H9NO3+
144.0668	8	C6H10NO3+
145.0517	10	C9H7NO+
145.0737	11	C6H11NO3+
147.0667	35	C9H9NO+
148.0704	5	C4H10N3O3+
164.0624	8	C13H8+
165.0662	28	C8H9N2O2+
166.0762	7	C8H9FN3+
170.0512	43	C12H7F+
171.0561	10	C7H8FN2O2+
172.0597	7	C10H8N2O+
174.0566	6	C7H9FNO3+
179.0571	8	C9H9NO3+
179.07	5	C5H10FN3O3+
182.0516	7	C13H7F+
183.0593	99	C13H8F+
184.0654	24	C12[13]CH8F+
185.0679	9	C11H9N2O+
186.0723	5	C12H9FN+
190.0634	11	C11H10O3+
191.0457	6	C9H7N2O3+
191.0707	9	C11H11O3+
192.0797	14	C14H10N+
193.0865	13	C11H13O3+
196.0574	6	C13H7FN+
198.0698	105	C10H11FO3+
199.0558	5	C13H8FO+
199.0763	26	C10H12FO3+
200.0849	10	C10H13FO3+
204.0794	7	C12H12O3+
205.0747	83	C14H9N2+
206.0799	14	C13[13]CH9N2+
208.0542	7	C11H9FO3+
209.0616	9	C11H10FO3+
209.1067	5	C14H13N2+
212.0849	193	C11H13FO3+
214.0653	9	C16H8N+
214.0869	8	C10H13FNO3+
219.0909	64	C15H11N2+
220.0963	31	C15H12N2+
221.1064	112	C15H13N2+
222.071	67	C15H9FN+
223.0732	26	C13H9N3O+
224.0739	39	C14H9FN2+
225.0812	94	C14H10FN2+
226.0862	20	C13[13]CH10FN2+
227.0731	8	C14H10FNO+
227.0977	59	C14H12FN2+
228.0805	22	C14H11FNO+
228.1032	18	C14H13FN2+
237.081	15	C15H10FN2+
238.066	8	C15H9FNO+
238.0878	27	C12H13FNO3+
240.1033	326	C15H13FN2+
241.078	9	C14H10FN2O+
241.1073	41	C13H13N4O+
243.0692	11	C14H10FNO2+
249.1025	8	C16H13N2O+
253.0759	6	C15H10FN2O+
255.0919	12	C15H12FN2O+
256.0651	5	C14H9FN2O2+
256.0983	11	C15H13FN2O+
257.0712	15	C14H10FN2O2+
258.0758	7	C14H11FN2O2+
267.0929	50	C16H12FN2O+
268.1003	999	C16H13FN2O+
269.103	173	C14H13N4O2+
270.0684	15	C16H11FO3+
270.1049	15	C14[13]C2H13FN2O+
271.0864	6	C15H12FN2O2+
272.0944	56	C15H13FN2O2+
273.0962	9	C14H12FN3O2+
283.086	10	C16H12FN2O2+
286.0978	27	C15H13FN3O2+
300.09	464	C16H13FN2O3+
301.0929	80	C14H13N4O4+
302.0968	8	C15H13FN3O3+
314.0929	76	C16H13FN3O3+
