Mass spectrum: Triethylphosphate; LC-ESI-QTOF; MS2; CE: 10 eV; R=35000; [M+H]+
Name: Triethylphosphate
Name: triethyl phosphate
Formula: C6H15O4P
Exact mass: 182.0707956
SMILES: CCOP(=O)(OCC)OCC
InChI: InChI=1S/C6H15O4P/c1-4-8-11(7,9-5-2)10-6-3/h4-6H2,1-3H3
Instrument: Bruker maXis Impact
Instrument type: LC-ESI-QTOF
Ms type: MS2
Ion mode: POSITIVE
Ionization: ESI
Fragmentation mode: CID
Collision energy: 10 eV
Resolution: 35000
Column name: Acclaim RSLC C18 2.2um, 2.1x100mm, Thermo
Retention time: 6.120 min
Base peak: 183.0776
Precursor m/z: 183.0781
Precursor type: [M+H]+
m/z	relative intensity	assigned
127.0147	589	C2H8O4P+
128.0192	20	C[13]CH8O4P+
129.0182	12	C5H5O4+
155.0461	999	C4H12O4P+
156.0495	40	C3[13]CH12O4P+
157.0498	9	C4H12O3[18]OP+
168.0556	6	C5H13O4P+
183.0772	558	C6H16O4P+
184.0805	32	C5[13]CH16O4P+
