Mass spectrum: 2-Perfluorooctyl ethanoic acid (8:2) (FOEA); LC-ESI-QTOF; MS2; CE: 40 eV; R=35000; [M-H]-
Name: 2-Perfluorooctyl ethanoic acid (8:2) (FOEA)
Name: Decanoic acid, 3,3,4,4,5,5,6,6,7,7,8,8,9,9,10,10,10-heptadecafluoro-
Name: 3,3,4,4,5,5,6,6,7,7,8,8,9,9,10,10,10-heptadecafluorodecanoic acid
Formula: C10H3F17O2
Exact mass: 477.9862
SMILES: C(C(=O)O)C(C(C(C(C(C(C(C(F)(F)F)(F)F)(F)F)(F)F)(F)F)(F)F)(F)F)(F)F
InChI: InChI=1S/C10H3F17O2/c11-3(12,1-2(28)29)4(13,14)5(15,16)6(17,18)7(19,20)8(21,22)9(23,24)10(25,26)27/h1H2,(H,28,29)
Instrument: Bruker maXis Impact
Instrument type: LC-ESI-QTOF
Ms type: MS2
Ionization: ESI
Fragmentation mode: CID
Collision energy: 40 eV
Resolution: 35000
Column name: Acclaim RSLC C18 2.2um, 2.1x100mm, Thermo
Retention time: 10.666 min
Base peak: 393.9801
Precursor m/z: 476.9789
Precursor type: [M-H]-
m/z	relative intensity	assigned
392.9795	999	C3H2F17O2-
393.9741	533	C8F14O2-
