Mass spectrum: Warfarin; LC-ESI-QTOF; MS2; CE: 10 eV; R=35000; [M-H]-
Name: Warfarin
Name: 4-hydroxy-3-(3-oxo-1-phenylbutyl)chromen-2-one
Formula: C19H16O4
Exact mass: 308.1048590
SMILES: CC(=O)CC(C1=CC=CC=C1)C1=C(O)C2=CC=CC=C2OC1=O
InChI: InChI=1S/C19H16O4/c1-12(20)11-15(13-7-3-2-4-8-13)17-18(21)14-9-5-6-10-16(14)23-19(17)22/h2-10,15,21H,11H2,1H3
Instrument: Bruker maXis Impact
Instrument type: LC-ESI-QTOF
Ms type: MS2
Ion mode: NEGATIVE
Ionization: ESI
Fragmentation mode: CID
Collision energy: 10 eV
Resolution: 35000
Column name: Acclaim RSLC C18 2.2um, 2.1x100mm, Thermo
Retention time: 6.660 min
Base peak: 307.0972
Precursor m/z: 307.0976
Precursor type: [M-H]-
m/z	relative intensity	assigned
161.0247	61	C9H5O3-
162.0284	5	C8[13]CH5O3-
250.0631	20	C16H10O3-
307.0973	999	C19H15O4-
308.1001	193	C18[13]CH15O4-
309.1024	17	C17[13]C2H15O4-
