Mass spectrum: Triamcinolone acetonide; LC-ESI-QTOF; MS2; CE: Ramp 24.3-36.5 eV; R=35000; [M+H]+
Name: Triamcinolone acetonide
Name: (1S,2S,4R,8S,9S,11S,12R,13S)-12-fluoro-11-hydroxy-8-(2-hydroxyacetyl)-6,6,9,13-tetramethyl-5,7-dioxapentacyclo[10.8.0.02,9.04,8.013,18]icosa-14,17-dien-16-one
Formula: C24H31FO6
Exact mass: 434.2104669
SMILES: [H][C@@]12C[C@H]3OC(C)(C)O[C@@]3(C(=O)CO)[C@@]1(C)C[C@H](O)[C@@]1(F)[C@@]2([H])CCC2=CC(=O)C=C[C@]12C
InChI: InChI=1S/C24H31FO6/c1-20(2)30-19-10-16-15-6-5-13-9-14(27)7-8-21(13,3)23(15,25)17(28)11-22(16,4)24(19,31-20)18(29)12-26/h7-9,15-17,19,26,28H,5-6,10-12H2,1-4H3/t15-,16-,17-,19+,21-,22-,23-,24+/m0/s1
Instrument: Bruker maXis Impact
Instrument type: LC-ESI-QTOF
Ms type: MS2
Ion mode: POSITIVE
Ionization: ESI
Fragmentation mode: CID
Collision energy: Ramp 24.3-36.5 eV
Resolution: 35000
Column name: Acclaim RSLC C18 2.2um, 2.1x100mm, Thermo
Retention time: 8.695 min
Base peak: 435.2178
Precursor m/z: 435.2177
Precursor type: [M+H]+
m/z	relative intensity	assigned
55.0171	37	C3H3O+
55.0541	5	C4H7+
59.0486	162	C3H7O+
60.0534	5	C2[13]CH7O+
67.0535	10	C5H7+
69.0335	29	C4H5O+
69.0693	13	C5H9+
71.0488	12	C4H7O+
73.0271	7	C3H5O2+
79.0538	25	C6H7+
81.0338	8	C5H5O+
81.0693	64	C6H9+
83.0493	22	C5H7O+
83.0855	6	C6H11+
85.0281	7	C4H5O2+
85.0649	5	C5H9O+
87.0436	26	C4H7O2+
91.054	15	C7H7+
93.0701	105	C7H9+
94.0737	8	C6[13]CH9+
95.0494	39	C6H7O+
95.0858	77	C7H11+
96.0887	5	C6[13]CH11+
97.0284	27	C5H5O2+
97.0651	22	C6H9O+
99.0448	22	C2H8FO3+
101.0242	22	CH6FO4+
105.0709	47	C5H10FO+
107.0497	7	C4H8FO2+
107.0866	27	C5H12FO+
109.0659	37	C4H10FO2+
111.0447	13	C3H8FO3+
111.081	15	C7H11O+
113.06	10	C6H9O2+
115.0406	13	C2H8FO4+
115.0533	8	C9H7+
117.07	16	C9H9+
119.0495	8	C8H7O+
119.0848	23	C9H11+
121.0644	202	C8H9O+
122.0672	14	C7[13]CH9O+
123.043	12	C7H7O2+
123.0802	27	C8H11O+
125.0596	28	C7H9O2+
127.0382	8	C6H7O3+
127.0757	10	C7H11O2+
128.0618	10	C10H8+
129.0691	11	C10H9+
131.0847	37	C10H11+
132.0559	8	C9H8O+
133.0639	73	C9H9O+
133.1007	8	C10H13+
134.0692	9	C8[13]CH9O+
135.0799	102	C9H11O+
136.0822	10	C8[13]CH11O+
137.0585	60	C8H9O2+
138.0619	6	C7[13]CH9O2+
139.0746	35	C8H11O2+
140.0785	5	C7[13]CH11O2+
141.0535	34	C7H9O3+
141.0699	7	C11H9+
142.076	5	C11H10+
143.0845	36	C11H11+
144.0561	7	C10H8O+
144.0876	7	C10[13]CH11+
145.0636	52	C10H9O+
145.1005	14	C11H13+
147.0793	501	C10H11O+
148.0825	58	C9[13]CH11O+
149.0585	11	C9H9O2+
151.0383	30	C8H7O3+
151.0742	110	C9H11O2+
152.0788	8	C8[13]CH11O2+
153.0533	23	C8H9O3+
153.0898	13	C9H13O2+
155.0686	16	C8H11O3+
155.0837	21	C12H11+
157.0637	13	C11H9O+
157.1	16	C12H13+
158.071	25	C11H10O+
159.0639	14	C7H11O4+
159.079	260	C11H11O+
160.0827	33	C10[13]CH11O+
161.0584	46	C10H9O2+
161.095	196	C11H13O+
162.0985	23	C10[13]CH13O+
163.0743	23	C10H11O2+
165.0698	11	C13H9+
165.0898	5	C10H13O2+
167.0688	7	C9H11O3+
167.0849	12	C13H11+
169.0477	5	C8H9O4+
169.0638	27	C12H9O+
169.0848	14	C9H13O3+
169.1008	13	C13H13+
170.0697	5	C11[13]CH9O+
171.0791	330	C12H11O+
172.0837	44	C11[13]CH11O+
173.0951	256	C12H13O+
174.0981	38	C11[13]CH13O+
175.0743	16	C11H11O2+
177.0893	14	C11H13O2+
179.0699	42	C10H11O3+
179.0828	19	C14H11+
180.0912	10	C14H12+
181.0993	17	C14H13+
182.0697	5	C13H10O+
182.1069	5	C14H14+
183.0792	36	C13H11O+
183.1154	13	C14H15+
184.084	10	C13H12O+
185.0587	13	C12H9O2+
185.0949	146	C13H13O+
186.0997	29	C12[13]CH13O+
187.0747	200	C12H11O2+
187.1119	36	C13H15O+
188.0789	29	C11[13]CH11O2+
188.1139	7	C12[13]CH15O+
189.0705	9	C12H10FO+
189.09	19	C12H13O2+
191.0865	9	C12H12FO+
191.1073	5	C9H16FO3+
192.0911	9	C15H12+
193.0849	5	C11H13O3+
193.1	22	C15H13+
194.1044	9	C15H14+
195.0795	33	C14H11O+
195.1167	23	C15H15+
196.086	20	C14H12O+
196.1213	5	C14[13]CH15+
197.0952	154	C14H13O+
197.1317	106	C15H17+
198.1018	38	C13[13]CH13O+
198.1344	16	C14[13]CH17+
199.074	16	C13H11O2+
199.1111	91	C14H15O+
200.1141	16	C13[13]CH15O+
201.0898	19	C13H13O2+
201.1279	9	C14H17O+
202.0966	5	C13H14O2+
203.0851	8	C16H11+
203.1058	18	C13H15O2+
204.0919	6	C16H12+
205.1016	12	C16H13+
206.1071	9	C16H14+
207.0805	6	C15H11O+
207.1158	49	C16H15+
208.0871	23	C15H12O+
208.1191	6	C15[13]CH15+
209.0953	128	C15H13O+
209.1301	12	C16H17+
210.1007	65	C15H14O+
211.1113	173	C15H15O+
212.1161	41	C14[13]CH15O+
213.127	999	C15H17O+
214.094	10	C14H14O2+
214.1304	135	C14[13]CH17O+
215.0842	5	C17H11+
215.1058	18	C14H15O2+
215.1418	86	C15H19O+
216.1449	14	C14[13]CH19O+
217.1001	7	C17H13+
218.1097	5	C14H15FO+
219.0801	10	C16H11O+
219.1168	19	C17H15+
220.0847	8	C16H12O+
220.1243	9	C17H16+
221.0949	57	C16H13O+
221.1325	34	C17H17+
222.1019	35	C16H14O+
222.1352	14	C17H18+
223.1108	324	C16H15O+
224.1168	134	C16H16O+
225.1269	686	C16H17O+
226.0945	11	C15H14O2+
226.1304	120	C15[13]CH17O+
227.1064	36	C15H15O2+
227.1423	68	C16H19O+
228.1137	8	C14[13]CH15O2+
228.1451	11	C15[13]CH19O+
229.0815	6	C14H13O3+
229.1017	8	C18H13+
229.1206	8	C15H17O2+
230.1076	10	C18H14+
231.105	12	C11H16FO4+
231.1113	10	C18H15+
232.0885	8	C17H12O+
232.1232	13	C18H16+
233.0942	24	C17H13O+
233.1317	34	C15H18FO+
234.1033	21	C17H14O+
234.1379	9	C14[13]CH18FO+
235.1108	181	C17H15O+
235.1473	53	C18H19+
236.115	47	C16[13]CH15O+
236.1504	10	C17[13]CH19+
237.0912	22	C16H13O2+
237.1268	261	C17H17O+
238.097	15	C16H14O2+
238.1305	59	C16[13]CH17O+
239.1052	31	C16H15O2+
239.1424	224	C17H19O+
240.1126	11	C16H16O2+
240.1453	35	C16[13]CH19O+
241.1219	131	C16H17O2+
241.1593	23	C17H21O+
242.1069	6	C19H14+
242.1281	37	C15[13]CH17O2+
242.162	5	C16[13]CH21O+
243.1154	20	C19H15+
243.1366	32	C16H19O2+
244.1225	8	C19H16+
244.143	9	C15[13]CH19O2+
245.096	15	C18H13O+
245.1322	30	C16H18FO+
246.1041	21	C18H14O+
246.1397	7	C15[13]CH18FO+
247.1112	38	C18H15O+
247.1483	26	C19H19+
248.1191	45	C18H16O+
248.1523	5	C18[13]CH19+
249.1268	129	C18H17O+
250.1331	44	C18H18O+
251.106	53	C17H15O2+
251.1426	204	C18H19O+
252.1125	15	C16[13]CH15O2+
252.1471	61	C17[13]CH19O+
253.1222	179	C17H17O2+
253.1584	262	C18H21O+
254.1247	32	C16[13]CH17O2+
254.1617	62	C17[13]CH21O+
255.1018	7	C16H15O3+
255.1382	39	C14H20FO3+
255.1709	6	C16[13]C2H21O+
256.1427	7	C13[13]CH20FO3+
257.1326	24	C20H17+
257.1521	5	C17H21O2+
258.1013	7	C19H14O+
259.112	25	C19H15O+
260.1185	51	C19H16O+
261.127	192	C19H17O+
262.0969	7	C18H14O2+
262.1325	69	C19H18O+
263.1433	543	C19H19O+
264.1145	20	C18H16O2+
264.1466	108	C18[13]CH19O+
265.122	55	C18H17O2+
265.1582	189	C19H21O+
266.1267	15	C17[13]CH17O2+
266.1615	33	C18[13]CH21O+
267.1383	84	C18H19O2+
268.1423	22	C17[13]CH19O2+
269.1162	24	C17H17O3+
269.1533	36	C18H21O2+
270.1013	6	C20H14O+
270.122	6	C16[13]CH17O3+
270.157	9	C17[13]CH21O2+
271.1455	6	C21H19+
271.1617	9	C11H24FO6+
273.1268	32	C20H17O+
274.1299	9	C19[13]CH17O+
275.1431	301	C20H19O+
276.1143	11	C19H16O2+
276.1471	73	C19[13]CH19O+
277.1227	73	C19H17O2+
277.1555	10	C18[13]C2H19O+
278.1292	40	C19H18O2+
279.1373	221	C19H19O2+
280.1436	84	C19H20O2+
281.1539	309	C19H21O2+
282.1575	60	C18[13]CH21O2+
283.1491	27	C22H19+
283.1682	64	C19H23O2+
284.1499	7	C21[13]CH19+
284.1723	17	C18[13]CH23O2+
285.1279	29	C21H17O+
286.1312	10	C20[13]CH17O+
288.1156	19	C17H17FO3+
289.1199	9	C20H17O2+
290.1273	5	C20H18O2+
291.1387	100	C20H19O2+
292.1422	19	C19[13]CH19O2+
293.1537	481	C20H21O2+
294.1569	112	C19[13]CH21O2+
295.1336	55	C19H19O3+
295.1558	16	C18[13]C2H21O2+
296.1375	15	C18[13]CH19O3+
297.1493	108	C19H21O3+
298.1529	27	C18[13]CH21O3+
299.1613	13	C19H23O3+
301.1603	9	C19H22FO2+
303.1378	163	C21H19O2+
304.1416	38	C20[13]CH19O2+
305.1426	7	C14H22FO6+
307.1327	5	C20H19O3+
309.1494	60	C20H21O3+
310.153	13	C19[13]CH21O3+
311.1648	415	C20H23O3+
312.1678	67	C19[13]CH23O3+
313.1618	15	C20H22FO2+
321.1491	378	C21H21O3+
322.1518	93	C20[13]CH21O3+
323.1518	12	C19[13]C2H21O3+
325.1437	7	C20H21O4+
327.1598	13	C17H24FO5+
329.1739	57	C20H25O4+
330.1788	8	C19[13]CH25O4+
331.1693	9	C23H23O2+
337.1469	5	C18H22FO5+
339.1595	658	C21H23O4+
340.1625	153	C20[13]CH23O4+
341.1615	26	C19[13]C2H23O4+
342.162	11	C24H22O2+
343.1528	9	C20H23O5+
351.1949	5	C23H27O3+
357.1696	146	C21H25O5+
358.174	40	C20[13]CH25O5+
359.1701	15	C21H24FO4+
379.1885	10	C24H27O4+
397.2018	538	C24H29O5+
398.2045	158	C23[13]CH29O5+
399.2078	25	C22[13]C2H29O5+
415.2131	56	C24H31O6+
416.212	21	C23[13]CH31O6+
417.214	6	C24H30FO5+
