Mass spectrum: Ronidazole; LC-ESI-QTOF; MS2; CE: Ramp 18.0-27.1 eV; R=35000; [M+H]+
Name: Ronidazole
Name: (1-methyl-5-nitroimidazol-2-yl)methyl carbamate
Formula: C6H8N4O4
Exact mass: 200.0546
SMILES: Cn1c(cnc1COC(=O)N)[N+](=O)[O-]
InChI: InChI=1S/C6H8N4O4/c1-9-4(3-14-6(7)11)8-2-5(9)10(12)13/h2H,3H2,1H3,(H2,7,11)
Instrument: Bruker maXis Impact
Instrument type: LC-ESI-QTOF
Ms type: MS2
Ion mode: POSITIVE
Ionization: ESI
Fragmentation mode: CID
Collision energy: Ramp 18.0-27.1 eV
Resolution: 35000
Column name: Acclaim RSLC C18 2.2um, 2.1x100mm, Thermo
Retention time: 3.8 min
Base peak: 79.0209
Precursor m/z: 201.0618
Precursor type: [M+H]+
m/z	relative intensity	assigned
54.0333	63	C3H4N+
55.0412	523	C3H5N+
60.0545	6	CH6N3+
67.0411	9	C4H5N+
71.0236	8	C2H3N2O+
72.0076	7	C2H2NO2+
82.0517	15	C4H6N2+
94.0529	7	C5H6N2+
110.049	29	C5H6N2O+
140.046	999	C5H6N3O2+
141.0484	63	C5H7N3O2+
157.0704	5	C5H9N4O2+
158.0561	17	C5H8N3O3+
172.0716	13	C4H8N6O2+
181.0734	61	C2H9N6O4+
201.0644	5	C6H9N4O4+
