Mass spectrum: Salbutamol; LC-ESI-QTOF; MS2; CE: 10 eV; R=35000; [M+H]+
Name: Salbutamol
Name: Albuterol
Name: 4-[2-(tert-butylamino)-1-hydroxyethyl]-2-(hydroxymethyl)phenol
Formula: C13H21NO3
Exact mass: 239.1521435
SMILES: CC(C)(C)NCC(c1ccc(c(c1)CO)O)O
InChI: InChI=1S/C13H21NO3/c1-13(2,3)14-7-12(17)9-4-5-11(16)10(6-9)8-15/h4-6,12,14-17H,7-8H2,1-3H3
Instrument: Bruker maXis Impact
Instrument type: LC-ESI-QTOF
Ms type: MS2
Ion mode: POSITIVE
Ionization: ESI
Fragmentation mode: CID
Collision energy: 10 eV
Resolution: 35000
Column name: Acclaim RSLC C18 2.2um, 2.1x100mm, Thermo
Retention time: 3.1 min
Base peak: 240.1591
Precursor m/z: 240.1594
Precursor type: [M+H]+
m/z	relative intensity	assigned
148.0745	143	C9H10NO+
166.0856	264	C9H12NO2+
167.0885	27	C13H11+
222.1487	999	C13H20NO2+
223.1529	112	C12[13]CH20NO2+
240.1592	979	C13H22NO3+
241.1624	106	C12[13]CH22NO3+
242.1668	14	C12H22N2O3+
