Mass spectrum: Cashmeran; LC-ESI-QTOF; MS2; CE: 10 eV; R=35000; [M+H]+
Name: Cashmeran
Name: 4H-Inden-4-one, 1,2,3,5,6,7-hexahydro-1,1,2,3,3-pentamethyl-
Name: 1,1,2,3,3-pentamethyl-2,5,6,7-tetrahydroinden-4-one
Formula: C14H22O
Exact mass: 206.1670653
SMILES: CC1C(C)(C)C2=C(C(=O)CCC2)C1(C)C
InChI: InChI=1S/C14H22O/c1-9-13(2,3)10-7-6-8-11(15)12(10)14(9,4)5/h9H,6-8H2,1-5H3
Instrument: Bruker maXis Impact
Instrument type: LC-ESI-QTOF
Ms type: MS2
Ion mode: POSITIVE
Ionization: ESI
Fragmentation mode: CID
Collision energy: 10 eV
Resolution: 35000
Column name: Acclaim RSLC C18 2.2um, 2.1x100mm, Thermo
Retention time: 10.763 min
Base peak: 223.0628
Precursor m/z: 207.1743
Precursor type: [M+H]+
m/z	relative intensity	assigned
189.1637	333	C14H21+
207.1735	999	C14H23O+
