Mass spectrum: Aniline Yellow; LC-ESI-QTOF; MS2; CE: 40 eV; R=35000; [M+H]+
Name: Aniline Yellow
Formula: C12H11N3
Exact mass: 197.0952974
SMILES: NC1=CC=C(C=C1)\N=N\C1=CC=CC=C1
InChI: InChI=1S/C12H11N3/c13-10-6-8-12(9-7-10)15-14-11-4-2-1-3-5-11/h1-9H,13H2/b15-14+
Instrument: Bruker maXis Impact
Instrument type: LC-ESI-QTOF
Ms type: MS2
Ion mode: POSITIVE
Ionization: ESI
Fragmentation mode: CID
Collision energy: 40 eV
Resolution: 35000
Column name: Acclaim RSLC C18 2.2um, 2.1x100mm, Thermo
Retention time: 9.250 min
Base peak: 198.102
Precursor m/z: 198.1026
Precursor type: [M+H]+
m/z	relative intensity	assigned
126.0473	76	C10H6+
128.0493	90	C9H6N+
128.0604	146	C10H8+
141.0666	95	C11H9+
150.0464	72	C12H6+
152.061	999	C12H8+
154.064	170	C11H8N+
155.0593	127	C10H7N2+
157.0616	128	C9H7N3+
167.0716	160	C12H9N+
168.0789	312	C12H10N+
169.065	166	C10H7N3+
169.0889	175	C12H11N+
179.0579	131	C12H7N2+
181.0747	316	C12H9N2+
182.0763	74	C11[13]CH9N2+
196.0844	165	C12H10N3+
