Mass spectrum: Creatinine; LC-ESI-QTOF; MS2; CE: Ramp 14.9-22.4 eV; R=35000; [M+H]+
Name: Creatinine
Name: 2-amino-3-methyl-4H-imidazol-5-one
Formula: C4H7N3O
Exact mass: 113.05891184
SMILES: CN1CC(=O)N=C1N
InChI: InChI=1S/C4H7N3O/c1-7-2-3(8)6-4(7)5/h2H2,1H3,(H2,5,6,8)
Instrument: Bruker maXis Impact
Instrument type: LC-ESI-QTOF
Ms type: MS2
Ion mode: POSITIVE
Ionization: ESI
Fragmentation mode: CID
Collision energy: Ramp 14.9-22.4 eV
Resolution: 35000
Column name: Acclaim RSLC C18 2.2um, 2.1x100mm, Thermo
Retention time: 1.260 min
Base peak: 114.0678
Precursor m/z: 114.0662
Precursor type: [M+H]+
m/z	relative intensity	assigned
57.0327	76	CH3N3+
58.0645	999	C3H8N+
72.0436	94	C3H6NO+
86.0708	76	C3H8N3+
114.0666	807	C4H8N3O+
115.0682	35	C3[13]CH8N3O+
