Mass spectrum: Terbutryn; LC-ESI-QTOF; MS2; CE: 30 eV; R=35000; [M+H]+
Name: Terbutryn
Name: 2-N-tert-butyl-4-N-ethyl-6-methylsulfanyl-1,3,5-triazine-2,4-diamine
Formula: C10H19N5S
Exact mass: 241.1361166
SMILES: CCNC1=NC(NC(C)(C)C)=NC(SC)=N1
InChI: InChI=1S/C10H19N5S/c1-6-11-7-12-8(15-10(2,3)4)14-9(13-7)16-5/h6H2,1-5H3,(H2,11,12,13,14,15)
Instrument: Bruker maXis Impact
Instrument type: LC-ESI-QTOF
Ms type: MS2
Ion mode: POSITIVE
Ionization: ESI
Fragmentation mode: CID
Collision energy: 30 eV
Resolution: 35000
Column name: Acclaim RSLC C18 2.2um, 2.1x100mm, Thermo
Retention time: 10.269 min
Base peak: 242.1433
Precursor m/z: 242.1434
Precursor type: [M+H]+
m/z	relative intensity	assigned
116.0269	12	C3H6N3S+
138.0764	81	C5H8N5+
144.0577	61	C5H10N3S+
158.0484	76	C4H8N5S+
186.0801	999	C6H12N5S+
187.0819	64	C5[13]CH12N5S+
188.0756	35	C6H12N5[34]S+
242.1425	7	C10H20N5S+
