Mass spectrum: Norbuprenorphine; LC-ESI-QTOF; MS2; CE: 50 eV; R=35000; [M+H]+
Name: Norbuprenorphine
Formula: C25H35NO4
Exact mass: 413.2566086
SMILES: C[C@]([C@H]1C[C@@]23CC[C@@]1([C@H]4[C@@]25CCN[C@@H]3Cc6c5c(c(cc6)O)O4)OC)(C(C)(C)C)O
InChI: InChI=1S/C25H35NO4/c1-21(2,3)22(4,28)16-13-23-8-9-25(16,29-5)20-24(23)10-11-26-17(23)12-14-6-7-15(27)19(30-20)18(14)24/h6-7,16-17,20,26-28H,8-13H2,1-5H3/t16-,17-,20-,22+,23-,24+,25-/m1/s1
Instrument: Bruker maXis Impact
Instrument type: LC-ESI-QTOF
Ms type: MS2
Ion mode: POSITIVE
Ionization: ESI
Fragmentation mode: CID
Collision energy: 50 eV
Resolution: 35000
Column name: Acclaim RSLC C18 2.2um, 2.1x100mm, Thermo
Retention time: 6.276 min
Base peak: 414.2649
Precursor m/z: 414.2639
Precursor type: [M+H]+
m/z	relative intensity	assigned
137.0959	303	C9H13O+
161.0613	509	C10H9O2+
173.061	426	C11H9O2+
184.051	262	C12H8O2+
185.0578	273	C12H9O2+
187.075	834	C12H11O2+
193.0658	257	C14H9O+
195.0816	301	C14H11O+
197.0939	295	C14H13O+
199.0765	405	C13H11O2+
211.0757	952	C14H11O2+
213.0894	227	C14H13O2+
219.0811	273	C16H11O+
221.0943	328	C16H13O+
223.0754	539	C15H11O2+
225.0914	725	C15H13O2+
237.0923	426	C16H13O2+
239.1067	457	C16H15O2+
241.0855	213	C15H13O3+
243.1018	511	C15H15O3+
244.107	221	C15H16O3+
245.0956	218	C18H13O+
247.1087	249	C18H15O+
251.1037	265	C17H15O2+
253.1215	303	C17H17O2+
257.1173	262	C16H17O3+
263.108	361	C18H15O2+
265.1235	372	C18H17O2+
268.1074	218	C17H16O3+
269.1147	216	C17H17O3+
279.1412	273	C19H19O2+
281.1564	210	C19H21O2+
291.1406	208	C20H19O2+
311.165	260	C20H23O3+
312.1636	309	C19H22NO3+
340.1907	216	C21H26NO3+
414.2664	999	C25H36NO4+
