Mass spectrum: Metamitron-desamino; LC-ESI-QTOF; MS2; CE: 20 eV; R=35000; [M+H]+
Name: Metamitron-desamino
Name: 3-methyl-6-phenyl-2H-1,2,4-triazin-5-one
Formula: C10H9N3O
Exact mass: 187.0745619
SMILES: CC1=NC(=O)C(=NN1)C1=CC=CC=C1
InChI: InChI=1S/C10H9N3O/c1-7-11-10(14)9(13-12-7)8-5-3-2-4-6-8/h2-6H,1H3,(H,11,12,14)
Instrument: Bruker maXis Impact
Instrument type: LC-ESI-QTOF
Ms type: MS2
Ion mode: POSITIVE
Ionization: ESI
Fragmentation mode: CID
Collision energy: 20 eV
Resolution: 35000
Column name: Acclaim RSLC C18 2.2um, 2.1x100mm, Thermo
Retention time: 5.1 min
Base peak: 188.0811
Precursor m/z: 188.0818
Precursor type: [M+H]+
m/z	relative intensity	assigned
119.0594	89	C7H7N2+
120.063	7	C6[13]CH7N2+
142.0634	4	C10H8N+
160.0859	999	C9H10N3+
161.0887	94	C8[13]CH10N3+
188.0811	863	C10H10N3O+
189.0838	73	C9[13]CH10N3O+
190.0866	5	C8[13]C2H10N3O+
