Mass spectrum: Candesartan; LC-ESI-QTOF; MS2; CE: Ramp 24.4-36.6 eV; R=35000; [M+H]+
Name: Candesartan
Name: 2-ethoxy-3-[[4-[2-(2H-tetrazol-5-yl)phenyl]phenyl]methyl]benzimidazole-4-carboxylic acid
Formula: C24H20N6O3
Exact mass: 440.1596885
SMILES: CCOC1=NC2=CC=CC(C(O)=O)=C2N1CC1=CC=C(C=C1)C1=CC=CC=C1C1=NN=NN1
InChI: InChI=1S/C24H20N6O3/c1-2-33-24-25-20-9-5-8-19(23(31)32)21(20)30(24)14-15-10-12-16(13-11-15)17-6-3-4-7-18(17)22-26-28-29-27-22/h3-13H,2,14H2,1H3,(H,31,32)(H,26,27,28,29)
Instrument: Bruker maXis Impact
Instrument type: LC-ESI-QTOF
Ms type: MS2
Ion mode: POSITIVE
Ionization: ESI
Fragmentation mode: CID
Collision energy: Ramp 24.4-36.6 eV
Resolution: 35000
Column name: Acclaim RSLC C18 2.2um, 2.1x100mm, Thermo
Retention time: 8.056 min
Base peak: 278.1907
Precursor m/z: 441.167
Precursor type: [M+H]+
m/z	relative intensity	assigned
152.06	19	C7H8N2O2+
153.0689	60	C12H9+
161.0332	20	C6H3N5O+
165.0678	80	C8H9N2O2+
167.0824	31	C8H11N2O2+
173.0334	20	C7H3N5O+
178.0768	105	C14H10+
179.0431	25	C6H5N5O2+
179.0828	33	C9H11N2O2+
180.079	211	C10H12O3+
181.0829	29	C9[13]CH12O3+
189.0625	17	C8H7N5O+
190.0643	149	C14H8N+
191.0452	31	C9H7N2O3+
191.0708	67	C11H11O3+
192.0793	149	C11H12O3+
193.0865	125	C11H13O3+
194.0954	247	C14H12N+
195.0998	48	C13[13]CH12N+
205.0736	35	C11H11NO3+
206.082	120	C11H12NO3+
207.0911	999	C11H13NO3+
208.094	197	C10[13]CH13NO3+
208.1118	59	C15H14N+
209.1128	16	C14[13]CH14N+
210.0901	455	C12H10N4+
211.0935	68	C11[13]CH10N4+
218.0939	63	C13H14O3+
219.0954	23	C9H11N6O+
220.0978	64	C12H14NO3+
233.0744	19	C15H9N2O+
233.1103	33	C16H13N2+
234.1142	80	C16H14N2+
235.0966	317	C14H11N4+
235.1225	441	C16H15N2+
236.1	68	C13[13]CH11N4+
236.1256	108	C15[13]CH15N2+
251.1277	21	C12H17N3O3+
263.1282	598	C16H15N4+
264.1317	119	C15[13]CH15N4+
265.134	17	C14[13]C2H15N4+
308.1178	21	C21H14N3+
309.1054	35	C21H13N2O+
310.1148	22	C15H14N6O2+
337.0992	26	C22H13N2O2+
338.1056	160	C22H14N2O2+
339.1113	69	C20H13N5O+
349.1046	55	C17H13N6O3+
350.0934	103	C24H14O3+
351.0984	24	C23[13]CH14O3+
352.1078	265	C20H12N6O+
353.1102	75	C19[13]CH12N6O+
367.1169	42	C22H15N4O2+
368.0981	17	C20H12N6O2+
368.1168	21	C23H16N2O3+
380.141	63	C24H18N3O2+
381.1452	24	C23[13]CH18N3O2+
395.1496	93	C24H19N4O2+
396.1562	42	C24H20N4O2+
423.1545	104	C24H19N6O2+
424.1602	28	C23[13]CH19N6O2+
