Mass spectrum: Benzoylecgonine; LC-ESI-QTOF; MS2; CE: 30 eV; R=35000; [M+H]+
Name: Benzoylecgonine
Name: (3S,4R)-3-benzoyloxy-8-methyl-8-azabicyclo[3.2.1]octane-4-carboxylic acid
Formula: C16H19NO4
Exact mass: 289.1314081
SMILES: CN1C2CCC1[C@H]([C@H](C2)OC(=O)C1=CC=CC=C1)C(O)=O
InChI: InChI=1S/C16H19NO4/c1-17-11-7-8-12(17)14(15(18)19)13(9-11)21-16(20)10-5-3-2-4-6-10/h2-6,11-14H,7-9H2,1H3,(H,18,19)/t11?,12?,13-,14+/m0/s1
Instrument: Bruker maXis Impact
Instrument type: LC-ESI-QTOF
Ms type: MS2
Ion mode: POSITIVE
Ionization: ESI
Fragmentation mode: CID
Collision energy: 30 eV
Resolution: 35000
Column name: Acclaim RSLC C18 2.2um, 2.1x100mm, Thermo
Retention time: 4.5 min
Base peak: 290.1387
Precursor m/z: 290.1387
Precursor type: [M+H]+
m/z	relative intensity	assigned
119.0484	24	C8H7O+
122.0957	22	C8H12N+
124.1113	20	C8H14N+
132.0799	6	C9H10N+
135.0669	7	C8H9NO+
140.0695	8	C7H10NO2+
150.0904	91	C9H12NO+
151.0937	7	C8[13]CH12NO+
168.101	999	C9H14NO2+
272.1277	23	C16H18NO3+
290.1383	43	C16H20NO4+
