Mass spectrum: Triethyl citrate; GC-APCI-QTOF; MS2; CE: 50 eV; R=35000; [M+H]+
Name: Triethyl citrate
Formula: C12H20O7
Exact mass: 276.1209
SMILES: CCOC(=O)CC(CC(=O)OCC)(C(=O)OCC)O
InChI: InChI=1S/C12H20O7/c1-4-17-9(13)7-12(16,11(15)19-6-3)8-10(14)18-5-2/h16H,4-8H2,1-3H3
Instrument: Bruker 450 GC coupled to maXis Impact
Instrument type: GC-APCI-QTOF
Ms type: MS2
Ion mode: POSITIVE
Ionization: APCI
Fragmentation mode: CID
Collision energy: 50 eV
Resolution: 35000
Column name: Rxi-5Sil MS column, 30m, 0.25mm i.d., 0.25Âµm film thickness, Restek
Retention time: 20.373 min
Base peak: 277.1077
Precursor m/z: 277.1282
Precursor type: [M+H]+
m/z	relative intensity	assigned
53.0386	7	C4H5+
81.0693	6	C6H9+
95.0471	21	C6H7O+
105.0319	19	C7H5O+
115.0517	6	C9H7+
119.086	6	C9H11+
121.0294	6	C7H5O2+
126.0454	6	C10H6+
127.0411	6	C6H7O3+
128.049	32	C6H8O3+
129.0329	23	C9H5O+
129.0419	12	C2H9O6+
139.0565	11	C11H7+
140.0644	6	C11H8+
145.0703	7	C3H13O6+
150.0489	23	C12H6+
151.0574	46	C5H11O5+
152.0644	117	C12H8+
153.0693	19	C12H9+
154.0458	14	C4H10O6+
154.0663	7	C8H10O3+
154.0742	6	C12H10+
163.0585	13	C6H11O5+
164.0645	10	C6H12O5+
165.0721	455	C6H13O5+
167.0878	6	C6H15O5+
168.0614	11	C5H12O6+
168.082	6	C9H12O3+
169.0669	204	C12H9O+
170.0716	18	C12H10O+
175.0576	21	C7H11O5+
176.0638	999	C7H12O5+
181.0679	28	C6H13O6+
189.0714	12	C8H13O5+
190.0672	98	C11H10O3+
191.0738	93	C11H11O3+
192.0822	64	C11H12O3+
195.0822	36	C7H15O6+
196.0777	7	C10H12O4+
201.0586	78	C12H9O3+
202.0664	130	C12H10O3+
203.0735	966	C12H11O3+
204.0804	398	C12H12O3+
206.0802	9	C8H14O6+
206.0965	14	C12H14O3+
219.0668	16	C12H11O4+
220.0761	181	C12H12O4+
221.0652	10	C8H13O7+
221.0802	32	C12H13O4+
222.086	5	C12H14O4+
