Mass spectrum: Dihydrocodeine; LC-ESI-QTOF; MS2; CE: 40 eV; R=35000; [M+H]+
Name: Dihydrocodeine
Name: (4R,4aR,7S,7aR,12bS)-9-methoxy-3-methyl-2,4,4a,5,6,7,7a,13-octahydro-1H-4,12-methanobenzofuro[3,2-e]isoquinoline-7-ol
Formula: C18H23NO3
Exact mass: 301.1677936
SMILES: CN1CC[C@]23c4c5ccc(c4O[C@H]2[C@H](CC[C@H]3[C@H]1C5)O)OC
InChI: InChI=1S/C18H23NO3/c1-19-8-7-18-11-4-5-13(20)17(18)22-16-14(21-2)6-3-10(15(16)18)9-12(11)19/h3,6,11-13,17,20H,4-5,7-9H2,1-2H3/t11-,12+,13-,17-,18-/m0/s1
Instrument: Bruker maXis Impact
Instrument type: LC-ESI-QTOF
Ms type: MS2
Ion mode: POSITIVE
Ionization: ESI
Fragmentation mode: CID
Collision energy: 40 eV
Resolution: 35000
Column name: Acclaim RSLC C18 2.2um, 2.1x100mm, Thermo
Retention time: 3.487 min
Base peak: 302.1775
Precursor m/z: 302.1751
Precursor type: [M+H]+
m/z	relative intensity	assigned
115.0544	11	C9H7+
128.0624	25	C10H8+
129.07	18	C10H9+
131.0492	7	C9H7O+
137.06	37	C8H9O2+
141.07	40	C11H9+
142.075	7	C10[13]CH9+
143.0496	15	C10H7O+
143.0854	9	C11H11+
144.0571	11	C10H8O+
145.0647	11	C10H9O+
147.0808	5	C10H11O+
151.0761	5	C9H11O2+
152.0622	12	C12H8+
153.0702	19	C12H9+
155.0861	14	C12H11+
156.0573	14	C11H8O+
157.0652	29	C11H9O+
157.1021	8	C12H13+
158.073	72	C11H10O+
159.0797	21	C11H11O+
161.0601	59	C10H9O2+
161.0965	12	C11H13O+
162.0645	7	C9[13]CH9O2+
163.0755	16	C10H11O2+
165.0703	51	C13H9+
166.0754	10	C12[13]CH9+
167.0862	62	C13H11+
168.0573	7	C12H8O+
168.0905	10	C12[13]CH11+
169.0651	23	C12H9O+
169.1019	5	C13H13+
170.0715	6	C12H10O+
171.0811	193	C12H11O+
172.0518	6	C11H8O2+
172.0845	23	C11[13]CH11O+
173.0968	91	C12H13O+
174.1001	11	C11[13]CH13O+
175.0759	24	C11H11O2+
176.0819	5	C11H12O2+
177.0704	19	C14H9+
177.0915	5	C11H13O2+
178.0763	7	C14H10+
181.0654	23	C13H9O+
182.0728	9	C13H10O+
183.0812	138	C13H11O+
184.0528	6	C12H8O2+
184.0873	33	C13H12O+
185.0604	21	C12H9O2+
185.0966	48	C13H13O+
186.0679	29	C12H10O2+
186.1007	5	C12[13]CH13O+
187.076	49	C12H11O2+
188.0804	8	C11[13]CH11O2+
189.0919	76	C12H13O2+
190.0943	11	C11[13]CH13O2+
193.0656	14	C14H9O+
193.1022	6	C15H13+
194.0729	15	C14H10O+
195.0814	117	C14H11O+
196.0875	44	C14H12O+
197.0607	9	C13H9O2+
197.0957	19	C14H13O+
198.0683	22	C13H10O2+
199.0766	999	C13H11O2+
200.0801	108	C12[13]CH11O2+
200.1161	7	C14H16O+
201.0919	302	C13H13O2+
202.0955	38	C13H14O2+
203.1063	6	C12[13]CH14O2+
209.0974	13	C15H13O+
211.0762	29	C14H11O2+
212.0837	25	C14H12O2+
213.0918	40	C14H13O2+
214.0637	5	C13H10O3+
214.0965	10	C13[13]CH13O2+
215.1074	16	C14H15O2+
217.1229	34	C14H17O2+
218.1261	5	C13[13]CH17O2+
221.0969	8	C16H13O+
222.1035	5	C16H14O+
225.0924	42	C15H13O2+
226.0963	8	C14[13]CH13O2+
227.1081	163	C15H15O2+
228.1107	25	C14[13]CH15O2+
243.1027	59	C15H15O3+
244.1055	11	C14[13]CH15O3+
245.1188	101	C18H15N+
246.1216	15	C17[13]CH15N+
253.1237	9	C17H17O2+
269.1418	10	C17H19NO2+
274.1461	6	C16H20NO3+
284.1658	11	C18H22NO2+
302.1772	285	C18H24NO3+
303.1805	50	C17[13]CH24NO3+
304.1831	5	C16[13]C2H24NO3+
