Mass spectrum: Fipronil; LC-ESI-QTOF; MS2; CE: 10 eV; R=35000; [M-H]-
Name: Fipronil
Name: 5-amino-1-[2,6-dichloro-4-(trifluoromethyl)phenyl]-4-(trifluoromethylsulfinyl)pyrazole-3-carbonitrile
Formula: C12H4Cl2F6N4OS
Exact mass: 435.9387064
SMILES: NC1=C(C(=NN1C1=C(Cl)C=C(C=C1Cl)C(F)(F)F)C#N)S(=O)C(F)(F)F
InChI: InChI=1S/C12H4Cl2F6N4OS/c13-5-1-4(11(15,16)17)2-6(14)8(5)24-10(22)9(7(3-21)23-24)26(25)12(18,19)20/h1-2H,22H2
Instrument: Bruker maXis Impact
Instrument type: LC-ESI-QTOF
Ms type: MS2
Ion mode: NEGATIVE
Ionization: ESI
Fragmentation mode: CID
Collision energy: 10 eV
Resolution: 35000
Column name: Acclaim RSLC C18 2.2um, 2.1x100mm, Thermo
Retention time: 10.475 min
Base peak: 434.9316
Precursor m/z: 434.9314
Precursor type: [M-H]-
m/z	relative intensity	assigned
249.9581	5	C10H2Cl2N3O-
317.9675	13	C11H3Cl2F3N4-
319.9659	6	C11H3Cl[37]ClF3N4-
329.9595	999	C11H3ClF6NS-
330.9609	67	C10[13]CH3ClF6NS-
331.9559	216	C11H3[37]ClF6NS-
332.9602	30	C11H2ClF4N4S-
334.9572	5	C10H3Cl2F6N2-
365.9348	49	C11H3Cl2F3N4OS-
366.9371	5	C10[13]CH3Cl2F3N4OS-
367.9321	28	C11H3Cl[37]ClF3N4OS-
398.9541	166	C12H2ClF6N4OS-
399.9577	17	C11[13]CH2ClF6N4OS-
400.9503	42	C12H2[37]ClF6N4OS-
434.9312	265	C12H3Cl2F6N4OS-
435.9323	26	C11[13]CH3Cl2F6N4OS-
436.9276	175	C12H3Cl[37]ClF6N4OS-
