Mass spectrum: Atenolol; LC-ESI-QTOF; MS2; CE: Ramp 20.4-30.6 eV; R=35000; [M+H]+
Name: Atenolol
Name: 2-[4-[2-hydroxy-3-(propan-2-ylamino)propoxy]phenyl]acetamide
Formula: C14H22N2O3
Exact mass: 266.1630
SMILES: CC(C)NCC(COc1ccc(cc1)CC(=O)N)O
InChI: InChI=1S/C14H22N2O3/c1-10(2)16-8-12(17)9-19-13-5-3-11(4-6-13)7-14(15)18/h3-6,10,12,16-17H,7-9H2,1-2H3,(H2,15,18)
Instrument: Bruker maXis Impact
Instrument type: LC-ESI-QTOF
Ms type: MS2
Ion mode: POSITIVE
Ionization: ESI
Fragmentation mode: CID
Collision energy: Ramp 20.4-30.6 eV
Resolution: 35000
Column name: Acclaim RSLC C18 2.2um, 2.1x100mm, Thermo
Retention time: 3.3 min
Base peak: 267.1735
Precursor m/z: 267.1703
Precursor type: [M+H]+
m/z	relative intensity	assigned
56.0491	227	C3H6N+
58.0649	26	C3H8N+
60.0801	7	C3H10N+
72.0804	318	C4H10N+
74.0597	468	C3H8NO+
84.0806	7	C5H10N+
91.0541	6	C7H7+
93.0706	12	C7H9+
98.0973	111	C6H12N+
99.1003	7	C6H13N+
100.1144	5	C6H14N+
107.0507	13	C7H7O+
115.0545	6	C9H7+
116.1079	112	C6H14NO+
117.0703	7	C9H9+
117.1115	5	C6H15NO+
119.0495	17	C8H7O+
121.065	28	C8H9O+
122.0603	6	C7H8NO+
133.0651	82	C9H9O+
134.0654	10	C4H10N2O3+
145.0648	386	C10H9O+
146.0686	43	C5H10N2O3+
147.0439	21	C9H7O2+
147.0799	5	C10H11O+
152.0706	16	C8H10NO2+
162.0669	10	C10H10O2+
162.0914	65	C10H12NO+
163.0753	14	C10H11O2+
163.0943	7	C10H13NO+
164.0705	76	C9H10NO2+
165.0735	6	C13H9+
173.0597	52	C11H9O2+
174.0626	5	C11H10O2+
178.0867	152	C10H12NO2+
179.0893	15	C14H11+
180.1022	73	C10H14NO2+
181.1051	6	C14H13+
182.0819	35	C9H12NO3+
190.0866	406	C11H12NO2+
191.0898	48	C11H13NO2+
192.0894	5	C10H12N2O2+
204.1396	11	C13H18NO+
207.1122	7	C11H15N2O2+
208.0976	120	C11H14NO3+
209.1006	19	C11H15NO3+
225.1239	217	C11H17N2O3+
226.1276	22	C11H18N2O3+
249.161	28	C14H21N2O2+
250.145	11	C14H20NO3+
250.1633	5	C14H22N2O2+
267.1709	999	C14H23N2O3+
268.1747	183	C13H22N3O3+
269.176	19	C13H23N3O3+
