Mass spectrum: Cetirizine; LC-ESI-QTOF; MS2; CE: 10 eV; R=35000; [M+H]+
Name: Cetirizine
Name: Levocetirizine
Name: 2-[2-[4-[(R)-(4-chlorophenyl)-phenylmethyl]piperazin-1-ium-1-yl]ethoxy]acetate
Formula: C21H25ClN2O3
Exact mass: 388.1553703
SMILES: N1([C@@H](c2ccc(Cl)cc2)c2ccccc2)CCN(CCOCC(O)=O)CC1
InChI: InChI=1S/C21H25ClN2O3/c22-19-8-6-18(7-9-19)21(17-4-2-1-3-5-17)24-12-10-23(11-13-24)14-15-27-16-20(25)26/h1-9,21H,10-16H2,(H,25,26)/t21-/m1/s1
Instrument: Bruker maXis Impact
Instrument type: LC-ESI-QTOF
Ms type: MS2
Ion mode: POSITIVE
Ionization: ESI
Fragmentation mode: CID
Collision energy: 10 eV
Resolution: 35000
Column name: Acclaim RSLC C18 2.2um, 2.1x100mm, Thermo
Retention time: 8.7 min
Base peak: 389.1628
Precursor m/z: 389.1626
Precursor type: [M+H]+
m/z	relative intensity	assigned
187.1064	13	C8H15N2O3+
201.0462	197	C13H10Cl+
202.0491	30	C12[13]CH10Cl+
203.0425	59	C13H10[37]Cl+
204.0464	5	C12[13]CH10[37]Cl+
389.1632	999	C21H26ClN2O3+
390.1662	189	C20[13]CH26ClN2O3+
391.1603	237	C21H26[37]ClN2O3+
392.1631	26	C20[13]CH26[37]ClN2O3+
