Mass spectrum: N-(2,4-Dimethylphenyl)-N-methylimidoformamide; LC-ESI-QTOF; MS2; CE: 40 eV; R=35000; [M+H]+
Name: N-(2,4-Dimethylphenyl)-N-methylimidoformamide
Name: SCHEMBL11046767
Name: N-(2,4-dimethylphenyl)-N-methylmethanimidamide
Formula: C10H14N2
Exact mass: 162.1156984
SMILES: Cc1ccc(c(c1)C)N(C)C=N
InChI: InChI=1S/C10H14N2/c1-8-4-5-10(9(2)6-8)12(3)7-11/h4-7,11H,1-3H3
Instrument: Bruker maXis Impact
Instrument type: LC-ESI-QTOF
Ms type: MS2
Ion mode: POSITIVE
Ionization: ESI
Fragmentation mode: CID
Collision energy: 40 eV
Resolution: 35000
Column name: Acclaim RSLC C18 2.2um, 2.1x100mm, Thermo
Retention time: 4.5 min
Base peak: 163.122
Precursor m/z: 163.123
Precursor type: [M+H]+
m/z	relative intensity	assigned
106.0651	42	C7H8N+
107.0719	19	C7H9N+
115.0539	18	C9H7+
116.0489	21	C8H6N+
117.0567	999	C8H7N+
120.0799	120	C8H10N+
121.0871	30	C8H11N+
122.0956	87	C8H12N+
130.0641	212	C9H8N+
131.0709	81	C9H9N+
132.0793	108	C9H10N+
133.0753	33	C8H9N2+
147.0903	45	C9H11N2+
