Mass spectrum: Octocrylene; LC-ESI-QTOF; MS2; CE: Ramp 22.8-34.3 eV; R=35000; [M+H]+
Name: Octocrylene
Name: 2-ethylhexyl 2-cyano-3,3-diphenylprop-2-enoate
Formula: C24H27NO2
Exact mass: 361.2041791
SMILES: CCCCC(CC)COC(=O)C(C#N)=C(C1=CC=CC=C1)C1=CC=CC=C1
InChI: InChI=1S/C24H27NO2/c1-3-5-12-19(4-2)18-27-24(26)22(17-25)23(20-13-8-6-9-14-20)21-15-10-7-11-16-21/h6-11,13-16,19H,3-5,12,18H2,1-2H3
Instrument: Bruker maXis Impact
Instrument type: LC-ESI-QTOF
Ms type: MS2
Ion mode: POSITIVE
Ionization: ESI
Fragmentation mode: CID
Collision energy: Ramp 22.8-34.3 eV
Resolution: 35000
Column name: Acclaim RSLC C18 2.2um, 2.1x100mm, Thermo
Retention time: 13.230 min
Base peak: 379.238
Precursor m/z: 362.2115
Precursor type: [M+H]+
m/z	relative intensity	assigned
57.0698	34	C4H9+
71.085	20	C5H11+
147.0427	18	C9H7O2+
149.0231	21	C11H3N+
157.0127	28	C9H3NO2+
157.0265	17	C10H5O2+
177.0712	14	C14H9+
179.0855	14	C14H11+
182.0954	19	C13H12N+
203.0732	15	C15H9N+
204.0794	135	C15H10N+
205.0836	26	C14[13]CH10N+
206.0967	12	C15H12N+
207.0778	15	C15H11O+
222.0904	47	C15H12NO+
223.0939	12	C14[13]CH12NO+
232.0751	999	C16H10NO+
233.079	177	C15[13]CH10NO+
237.0775	38	C15H11NO2+
250.0857	451	C16H12NO2+
251.0884	102	C15[13]CH12NO2+
311.0939	12	C21H13NO2+
