Mass spectrum: O-Desvenlafaxine; LC-ESI-QTOF; MS2; CE: 20 eV; R=35000; [M+H]+
Name: O-Desvenlafaxine
Name: Desvenlafaxine
Name: 4-[2-(dimethylamino)-1-(1-hydroxycyclohexyl)ethyl]phenol
Formula: C16H25NO2
Exact mass: 263.1885290
SMILES: CN(C)CC(C1=CC=C(O)C=C1)C1(O)CCCCC1
InChI: InChI=1S/C16H25NO2/c1-17(2)12-15(13-6-8-14(18)9-7-13)16(19)10-4-3-5-11-16/h6-9,15,18-19H,3-5,10-12H2,1-2H3
Instrument: Bruker maXis Impact
Instrument type: LC-ESI-QTOF
Ms type: MS2
Ion mode: POSITIVE
Ionization: ESI
Fragmentation mode: CID
Collision energy: 20 eV
Resolution: 35000
Column name: Acclaim RSLC C18 2.2um, 2.1x100mm, Thermo
Retention time: 4.8 min
Base peak: 264.1957
Precursor m/z: 264.1958
Precursor type: [M+H]+
m/z	relative intensity	assigned
121.0639	9	C8H9O+
131.048	5	C9H7O+
133.0638	239	C9H9O+
134.0673	20	C8[13]CH9O+
145.0634	55	C10H9O+
146.0668	6	C9[13]CH9O+
147.0791	5	C10H11O+
152.1427	7	C10H18N+
159.079	79	C11H11O+
160.0827	12	C10[13]CH11O+
163.0984	7	C10H13NO+
164.1056	19	C10H14NO+
173.0943	15	C12H13O+
201.1266	414	C14H17O+
202.1299	51	C13[13]CH17O+
246.1848	999	C16H24NO+
247.1879	147	C15[13]CH24NO+
248.1903	12	C14[13]C2H24NO+
264.1955	398	C16H26NO2+
265.1992	57	C15[13]CH26NO2+
