Mass spectrum: Flunixin; LC-ESI-QTOF; MS2; CE: 10 eV; R=35000; [M+H]+
Name: Flunixin
Name: 2-[2-methyl-3-(trifluoromethyl)anilino]pyridine-3-carboxylic acid
Formula: C14H11F3N2O2
Exact mass: 296.0772623
SMILES: Cc1c(cccc1Nc2c(cccn2)C(=O)O)C(F)(F)F
InChI: InChI=1S/C14H11F3N2O2/c1-8-10(14(15,16)17)5-2-6-11(8)19-12-9(13(20)21)4-3-7-18-12/h2-7H,1H3,(H,18,19)(H,20,21)
Instrument: Bruker maXis Impact
Instrument type: LC-ESI-QTOF
Ms type: MS2
Ion mode: POSITIVE
Ionization: ESI
Fragmentation mode: CID
Collision energy: 10 eV
Resolution: 35000
Column name: Acclaim RSLC C18 2.2um, 2.1x100mm, Thermo
Retention time: 9.2 min
Base peak: 297.0753
Precursor m/z: 297.0845
Precursor type: [M+H]+
m/z	relative intensity	assigned
279.069	8	C14H10F3N2O+
297.0834	999	C14H12F3N2O2+
298.0866	126	C13[13]CH12F3N2O2+
