Mass spectrum: Flurazepam; LC-ESI-QTOF; MS2; CE: 20 eV; R=35000; [M+H]+
Name: Flurazepam
Name: 7-chloro-1-[2-(diethylamino)ethyl]-5-(2-fluorophenyl)-3H-1,4-benzodiazepin-2-one
Formula: C21H23ClFN3O
Exact mass: 387.1513683
SMILES: CCN(CC)CCN1c2ccc(cc2C(=NCC1=O)c3ccccc3F)Cl
InChI: InChI=1S/C21H23ClFN3O/c1-3-25(4-2)11-12-26-19-10-9-15(22)13-17(19)21(24-14-20(26)27)16-7-5-6-8-18(16)23/h5-10,13H,3-4,11-12,14H2,1-2H3
Instrument: Bruker maXis Impact
Instrument type: LC-ESI-QTOF
Ms type: MS2
Ion mode: POSITIVE
Ionization: ESI
Fragmentation mode: CID
Collision energy: 20 eV
Resolution: 35000
Column name: Acclaim RSLC C18 2.2um, 2.1x100mm, Thermo
Retention time: 6.878 min
Base peak: 388.1612
Precursor m/z: 388.1586
Precursor type: [M+H]+
m/z	relative intensity	assigned
143.1183	11	C4H18ClN3+
288.0604	33	C16H12ClFNO+
289.0647	6	C15[13]CH12ClFNO+
290.0572	7	C16H12[37]ClFNO+
315.0717	999	C17H13ClFN2O+
316.0744	143	C16[13]CH13ClFN2O+
317.07	176	C17H13[37]ClFN2O+
317.0846	233	C17H15ClFN2O+
318.0891	47	C20H15ClN2+
319.0841	65	C19H14ClN3+
320.0882	5	C18[13]CH14ClN3+
388.1615	892	C21H24ClFN3O+
389.1644	193	C20[13]CH24ClFN3O+
390.1588	218	C21H24[37]ClFN3O+
