Mass spectrum: Cotinine; LC-ESI-QTOF; MS2; CE: 30 eV; R=35000; [M+H]+
Name: Cotinine
Name: (5S)-1-methyl-5-pyridin-3-ylpyrrolidin-2-one
Formula: C10H12N2O
Exact mass: 176.0949630
SMILES: CN1[C@@H](CCC1=O)c2cccnc2
InChI: InChI=1S/C10H12N2O/c1-12-9(4-5-10(12)13)8-3-2-6-11-7-8/h2-3,6-7,9H,4-5H2,1H3/t9-/m0/s1
Instrument: Bruker maXis Impact
Instrument type: LC-ESI-QTOF
Ms type: MS2
Ion mode: POSITIVE
Ionization: ESI
Fragmentation mode: CID
Collision energy: 30 eV
Resolution: 35000
Column name: Acclaim RSLC C18 2.2um, 2.1x100mm, Thermo
Retention time: 3.590 min
Base peak: 177.1017
Precursor m/z: 177.1022
Precursor type: [M+H]+
m/z	relative intensity	assigned
117.0563	82	C8H7N+
118.0643	213	C8H8N+
119.0684	21	C7[13]CH8N+
120.08	124	C8H10N+
121.0826	13	C7[13]CH10N+
122.0819	7	C7H10N2+
128.0487	15	C9H6N+
130.0643	15	C9H8N+
131.059	7	C8H7N2+
132.0794	9	C9H10N+
133.0744	8	C8H9N2+
134.0455	5	C7H6N2O+
134.0585	23	C8H8NO+
135.0908	10	C8H11N2+
143.0583	5	C9H7N2+
144.0668	33	C9H8N2+
145.0516	8	C9H7NO+
145.0738	7	C9H9N2+
146.0587	359	C9H8NO+
147.0625	36	C8[13]CH8NO+
148.0741	19	C9H10NO+
149.0695	74	C8H9N2O+
149.1066	8	C9H13N2+
150.0726	10	C7[13]CH9N2O+
159.0905	35	C10H11N2+
160.0739	5	C10H10NO+
162.0766	6	C9H10N2O+
177.1011	999	C10H13N2O+
178.1038	99	C9[13]CH13N2O+
