Mass spectrum: 3-(Trimethoxysilyl)propyl methacrylate; GC-APCI-QTOF; MS2; CE: 30 eV; R=35000; [M]+
Name: 3-(Trimethoxysilyl)propyl methacrylate
Formula: C10H20O5Si
Exact mass: 248.1080
SMILES: CC(=C)C(=O)OCCC[Si](OC)(OC)OC
InChI: InChI=1S/C10H20O5Si/c1-9(2)10(11)15-7-6-8-16(12-3,13-4)14-5/h1,6-8H2,2-5H3
Instrument: Bruker 450 GC coupled to maXis Impact
Instrument type: GC-APCI-QTOF
Ms type: MS2
Ion mode: POSITIVE
Ionization: APCI
Fragmentation mode: CID
Collision energy: 30 eV
Resolution: 35000
Column name: Rxi-5Sil MS column, 30m, 0.25mm i.d., 0.25Âµm film thickness, Restek
Retention time: 11.567 min
Base peak: 217.0885
Precursor m/z: 248.1075
Precursor type: [M]+
m/z	relative intensity	assigned
109.0317	41	C2H9O3Si+
111.0109	65	CH7O4Si+
121.0337	46	C3H9O3Si+
125.0264	510	C2H9O4Si+
126.028	69	C6H6O3+
131.0136	36	C8H3O2+
132.9963	61	C3H5O4Si+
133.0324	57	C4H9O3Si+
137.0277	40	C3H9O4Si+
139.0431	999	C3H11O4Si+
141.0398	36	C6H9O2Si+
143.0395	43	C2H11O5Si+
145.0332	78	C5H9O3Si+
147.0144	68	C4H7O4Si+
147.047	43	C5H11O3Si+
149.0268	76	C4H9O4Si+
152.0164	43	C3H8O5Si+
153.0236	75	C3H9O5Si+
160.0206	47	C5H8O4Si+
161.0303	130	C5H9O4Si+
162.0341	46	C5H10O4Si+
163.0078	81	C4H7O5Si+
163.0442	39	C5H11O4Si+
165.0591	60	C5H13O4Si+
175.0436	60	C6H11O4Si+
177.0233	513	C5H9O5Si+
177.059	76	C6H13O4Si+
178.0294	90	C5H10O5Si+
179.0405	165	C5H11O5Si+
180.0464	100	C5H12O5Si+
191.0389	278	C6H11O5Si+
192.0388	79	C10H8O4+
192.0494	72	C6H12O5Si+
193.0537	134	C6H13O5Si+
