Mass spectrum: Fipronil sulfone; LC-ESI-QTOF; MS2; CE: 20 eV; R=35000; [M-H]-
Name: Fipronil sulfone
Name: 5-amino-1-[2,6-dichloro-4-(trifluoromethyl)phenyl]-4-(trifluoromethylsulfonyl)pyrazole-3-carbonitrile
Formula: C12H4Cl2F6N4O2S
Exact mass: 451.9336210
SMILES: NC1=C(C(=NN1C1=C(Cl)C=C(C=C1Cl)C(F)(F)F)C#N)S(=O)(=O)C(F)(F)F
InChI: InChI=1S/C12H4Cl2F6N4O2S/c13-5-1-4(11(15,16)17)2-6(14)8(5)24-10(22)9(7(3-21)23-24)27(25,26)12(18,19)20/h1-2H,22H2
Instrument: Bruker maXis Impact
Instrument type: LC-ESI-QTOF
Ms type: MS2
Ion mode: NEGATIVE
Ionization: ESI
Fragmentation mode: CID
Collision energy: 20 eV
Resolution: 35000
Column name: Acclaim RSLC C18 2.2um, 2.1x100mm, Thermo
Retention time: 10.876 min
Base peak: 450.9263
Precursor m/z: 450.9263
Precursor type: [M-H]-
m/z	relative intensity	assigned
132.9577	7	Cl2H3N2O2-
170.0097	11	C7HF3N2-
182.0089	5	C8HF3N2-
183.0174	30	C8H2F3N2-
217.9863	13	C8H2ClF3N2-
233.9809	16	C8H2ClF3N2O-
243.9887	11	C9H2ClF3N3-
281.9927	214	C11H2ClF3N4-
282.9951	18	C10[13]CH2ClF3N4-
283.9892	43	C11H2[37]ClF3N4-
297.9864	10	C11H3ClF6N-
345.9531	21	C11H3ClF6NOS-
347.9503	5	C11H3[37]ClF6NOS-
414.9502	999	C12H2ClF6N4O2S-
415.9519	89	C11[13]CH2ClF6N4O2S-
416.9469	247	C12H2[37]ClF6N4O2S-
417.9478	17	C12H2Cl2F6N4O2-
450.925	13	C12H3Cl2F6N4O2S-
452.9228	8	C12H3Cl[37]ClF6N4O2S-
