Mass spectrum: Valsartan; LC-ESI-QTOF; MS2; CE: 30 eV; R=35000; [M+H]+
Name: Valsartan
Name: (2S)-3-methyl-2-[pentanoyl-[[4-[2-(2H-tetrazol-5-yl)phenyl]phenyl]methyl]amino]butanoic acid
Formula: C24H29N5O3
Exact mass: 435.2270398
SMILES: CCCCC(=O)N(CC1=CC=C(C=C1)C1=CC=CC=C1C1=NNN=N1)[C@@H](C(C)C)C(O)=O
InChI: InChI=1S/C24H29N5O3/c1-4-5-10-21(30)29(22(16(2)3)24(31)32)15-17-11-13-18(14-12-17)19-8-6-7-9-20(19)23-25-27-28-26-23/h6-9,11-14,16,22H,4-5,10,15H2,1-3H3,(H,31,32)(H,25,26,27,28)/t22-/m0/s1
Instrument: Bruker maXis Impact
Instrument type: LC-ESI-QTOF
Ms type: MS2
Ion mode: POSITIVE
Ionization: ESI
Fragmentation mode: CID
Collision energy: 30 eV
Resolution: 35000
Column name: Acclaim RSLC C18 2.2um, 2.1x100mm, Thermo
Retention time: 8.9 min
Base peak: 150.1113
Precursor m/z: 436.2343
Precursor type: [M+H]+
m/z	relative intensity	assigned
152.0597	7	C7H8N2O2+
153.0683	14	C12H9+
167.0727	9	C12H9N+
178.0761	30	C14H10+
179.0833	17	C9H11N2O2+
180.0798	119	C13H10N+
181.0825	17	C8H11N3O2+
190.0637	114	C11H10O3+
191.0686	25	C9H9N3O2+
192.0675	19	C13H8N2+
192.0767	18	C9H10N3O2+
194.0958	60	C14H12N+
195.0974	11	C9H13N3O2+
205.0754	16	C14H9N2+
206.0831	56	C14H10N2+
207.0909	999	C14H11N2+
208.0747	22	C12H8N4+
208.0938	146	C13[13]CH11N2+
209.1055	26	C11H15NO3+
210.0903	65	C12H10N4+
211.0945	10	C9H13N3O3+
235.0967	738	C14H11N4+
236.1002	114	C13[13]CH11N4+
237.1054	13	C15H13N2O+
291.1485	473	C17H17N5+
292.1518	109	C16[13]CH17N5+
306.1698	113	C15H22N4O3+
352.1752	13	C19H22N5O2+
362.2228	11	C23H28N3O+
