Mass spectrum: Prochloraz BTS40348; LC-ESI-QTOF; MS2; CE: 20 eV; R=35000; [M+H]+
Name: Prochloraz BTS40348
Name: N-(2-(2,4,6-Trichlorophenoxy)ethyl)propan-1-amine
Name: N-[2-(2,4,6-trichlorophenoxy)ethyl]propan-1-amine
Formula: C11H14Cl3NO
Exact mass: 281.0140971
SMILES: CCCNCCOC1=C(Cl)C=C(Cl)C=C1Cl
InChI: InChI=1S/C11H14Cl3NO/c1-2-3-15-4-5-16-11-9(13)6-8(12)7-10(11)14/h6-7,15H,2-5H2,1H3
Instrument: Bruker maXis Impact
Instrument type: LC-ESI-QTOF
Ms type: MS2
Ion mode: POSITIVE
Ionization: ESI
Fragmentation mode: CID
Collision energy: 20 eV
Resolution: 35000
Column name: Acclaim RSLC C18 2.2um, 2.1x100mm, Thermo
Retention time: 6.998 min
Base peak: 282.0209
Precursor m/z: 282.0214
Precursor type: [M+H]+
m/z	relative intensity	assigned
222.9466	19	C8H6Cl3O+
224.9438	13	C8H6Cl2[37]ClO+
239.9732	23	C8H9Cl3NO+
241.9706	20	C8H9Cl2[37]ClNO+
246.0439	9	C11H14Cl2NO+
282.0206	999	C11H15Cl3NO+
283.0236	103	C10[13]CH15Cl3NO+
284.0175	749	C11H15Cl2[37]ClNO+
