Mass spectrum: Clonidine; LC-ESI-QTOF; MS2; CE: Ramp 19.1-28.6 eV; R=35000; [M+H]+
Name: Clonidine
Name: N-(2,6-dichlorophenyl)-4,5-dihydro-1H-imidazol-2-amine
Formula: C9H9Cl2N3
Exact mass: 229.0173526
SMILES: ClC1=CC=CC(Cl)=C1NC1=NCCN1
InChI: InChI=1S/C9H9Cl2N3/c10-6-2-1-3-7(11)8(6)14-9-12-4-5-13-9/h1-3H,4-5H2,(H2,12,13,14)
Instrument: Bruker maXis Impact
Instrument type: LC-ESI-QTOF
Ms type: MS2
Ion mode: POSITIVE
Ionization: ESI
Fragmentation mode: CID
Collision energy: Ramp 19.1-28.6 eV
Resolution: 35000
Column name: Acclaim RSLC C18 2.2um, 2.1x100mm, Thermo
Retention time: 3.687 min
Base peak: 230.025
Precursor m/z: 230.0246
Precursor type: [M+H]+
m/z	relative intensity	assigned
59.06	14	C2H7N2+
69.0444	17	C3H5N2+
171.9709	6	C7H4Cl2N+
186.982	15	C7H5Cl2N2+
188.9792	7	C7H5Cl[37]ClN2+
194.0472	9	C9H9ClN3+
212.9977	47	C9H7Cl2N2+
214.9949	25	C9H7Cl[37]ClN2+
230.0249	999	C9H10Cl2N3+
231.0275	130	C8[13]CH10Cl2N3+
232.0218	807	C9H10Cl[37]ClN3+
