Mass spectrum: Cefalexin; LC-ESI-QTOF; MS2; CE: Ramp 22.6-33.8 eV; R=35000; [M+H]+
Name: Cefalexin
Name: (6R,7R)-7-[[(2R)-2-amino-2-phenylacetyl]amino]-3-methyl-8-oxo-5-thia-1-azabicyclo[4.2.0]oct-2-ene-2-carboxylic acid
Formula: C16H17N3O4S
Exact mass: 347.094
SMILES: CC1=C(N2[C@@H]([C@@H](C2=O)NC(=O)[C@@H](c3ccccc3)N)SC1)C(=O)O
InChI: InChI=1S/C16H17N3O4S/c1-8-7-24-15-11(14(21)19(15)12(8)16(22)23)18-13(20)10(17)9-5-3-2-4-6-9/h2-6,10-11,15H,7,17H2,1H3,(H,18,20)(H,22,23)/t10-,11-,15-/m1/s1
Instrument: Bruker maXis Impact
Instrument type: LC-ESI-QTOF
Ms type: MS2
Ion mode: POSITIVE
Ionization: ESI
Fragmentation mode: CID
Collision energy: Ramp 22.6-33.8 eV
Resolution: 35000
Column name: Acclaim RSLC C18 2.2um, 2.1x100mm, Thermo
Retention time: 4.2 min
Base peak: 102.1289
Precursor m/z: 348.1013
Precursor type: [M+H]+
m/z	relative intensity	assigned
60.0543	27	CH6N3+
68.0489	66	C4H6N+
106.0663	116	C7H8N+
114.0015	56	C4H4NOS+
118.039	24	C6H4N3+
118.0653	81	C8H8N+
121.0117	21	CH3N3O4+
134.059	24	H12N3O3S+
140.0169	67	C6H6NOS+
140.035	49	C6H6NO3+
146.0596	64	CH12N3O3S+
150.0378	59	C8H8NS+
158.0278	999	C6H8NO2S+
159.0305	67	CH9N3O4S+
160.0232	47	C9H6NS+
162.0383	22	C9H8NS+
164.0536	59	C9H10NS+
174.0556	561	C10H8NO2+
175.0587	93	C5H9N3O4+
178.0316	64	C9H8NOS+
186.0477	44	C15H6+
190.0312	22	C10H8NOS+
191.0408	66	C10H9NOS+
192.0481	191	C10H10NOS+
193.0521	25	C13H7NO+
242.0668	18	C13H10N2O3+
257.0884	20	C15H15NOS+
303.0782	18	C15H15N2O3S+
