Mass spectrum: alpha-Methylstyrene; GC-APCI-QTOF; MS2; CE: 30 eV; R=35000; [M+H]+
Name: alpha-Methylstyrene
Formula: C9H10
Exact mass: 118.0783
SMILES: CC(=C)C1=CC=CC=C1
InChI: InChI=1S/C9H10/c1-8(2)9-6-4-3-5-7-9/h3-7H,1H2,2H3
Instrument: Bruker 450 GC coupled to maXis Impact
Instrument type: GC-APCI-QTOF
Ms type: MS2
Ion mode: POSITIVE
Ionization: APCI
Fragmentation mode: CID
Collision energy: 30 eV
Resolution: 35000
Column name: Rxi-5Sil MS column, 30m, 0.25mm i.d., 0.25Âµm film thickness, Restek
Retention time: 7.237 min
Base peak: 135.0811
Precursor m/z: 119.0855
Precursor type: [M+H]+
m/z	relative intensity	assigned
91.053	333	C7H7+
115.0551	999	C9H7+
118.0749	435	C9H10+
