Mass spectrum: Tylosin; LC-ESI-QTOF; MS2; CE: 50 eV; R=35000; [M+H]+
Name: Tylosin
Name: 2-[(4R,5S,6S,7R,9R,11E,13E,15R,16R)-6-[(2R,3R,4R,5S,6R)-5-[(2S,4R,5S,6S)-4,5-dihydroxy-4,6-dimethyloxan-2-yl]oxy-4-(dimethylamino)-3-hydroxy-6-methyloxan-2-yl]oxy-16-ethyl-4-hydroxy-15-[[(2R,3R,4R,5R,6R)-5-hydroxy-3,4-dimethoxy-6-methyloxan-2-yl]oxymethyl]-5,9,13-trimethyl-2,10-dioxo-1-oxacyclohexadeca-11,13-dien-7-yl]acetaldehyde
Formula: C46H77NO17
Exact mass: 915.5191500
SMILES: CC[C@H]1OC(=O)C[C@@H](O)[C@H](C)[C@@H](O[C@@H]2O[C@H](C)[C@@H](O[C@H]3C[C@@](C)(O)[C@@H](O)[C@H](C)O3)[C@@H]([C@H]2O)N(C)C)[C@@H](CC=O)C[C@@H](C)C(=O)\C=C\C(\C)=C\[C@@H]1CO[C@@H]1O[C@H](C)[C@@H](O)[C@@H](OC)[C@H]1OC
InChI: InChI=1S/C46H77NO17/c1-13-33-30(22-58-45-42(57-12)41(56-11)37(52)26(5)60-45)18-23(2)14-15-31(49)24(3)19-29(16-17-48)39(25(4)32(50)20-34(51)62-33)64-44-38(53)36(47(9)10)40(27(6)61-44)63-35-21-46(8,55)43(54)28(7)59-35/h14-15,17-18,24-30,32-33,35-45,50,52-55H,13,16,19-22H2,1-12H3/b15-14+,23-18+/t24-,25+,26-,27-,28+,29+,30-,32-,33-,35+,36-,37-,38-,39-,40-,41-,42-,43+,44+,45-,46-/m1/s1
Instrument: Bruker maXis Impact
Instrument type: LC-ESI-QTOF
Ms type: MS2
Ion mode: POSITIVE
Ionization: ESI
Fragmentation mode: CID
Collision energy: 50 eV
Resolution: 35000
Column name: Acclaim RSLC C18 2.2um, 2.1x100mm, Thermo
Retention time: 7.619 min
Base peak: 948.55
Precursor m/z: 916.5264
Precursor type: [M+H]+
m/z	relative intensity	assigned
116.0699	8	C5H10NO2+
127.0741	35	C7H11O2+
132.1004	70	C6H14NO2+
133.1041	6	C5[13]CH14NO2+
143.0684	8	C7H11O3+
145.0847	74	C7H13O3+
146.0883	5	C6[13]CH13O3+
156.1004	52	C5H16O5+
157.1035	10	C12H13+
158.1165	7	C8H16NO2+
172.0937	9	C5H16O6+
174.1112	999	C8H16NO3+
175.1141	92	C7[13]CH16NO3+
176.1171	8	C8H16NO2[18]O+
232.1531	12	C11H22NO4+
276.18	14	C13H26NO5+
318.1907	24	C22H24NO+
319.1911	5	C21[13]CH24NO+
371.2186	5	C5H39O17+
389.2289	9	C8H39NO15+
391.2472	6	C8H41NO15+
407.243	14	C23H35O6+
598.3615	8	C46H46+
772.4471	22	C36H68O17+
773.4493	12	C35[13]CH68O17+
774.465	6	C39H68NO14+
916.5197	6	C46H78NO17+
916.5366	5	C46H78NO17+
