Mass spectrum: 4,4`-Difluorobenzophenonen; GC-APCI-QTOF; MS2; CE: 50 eV; R=35000; [M]+
Name: 4,4`-Difluorobenzophenonen
Formula: C13H8F2O
Exact mass: 218.0543
SMILES: C1=CC(=CC=C1C(=O)C2=CC=C(C=C2)F)F
InChI: InChI=1S/C13H8F2O/c14-11-5-1-9(2-6-11)13(16)10-3-7-12(15)8-4-10/h1-8H
Instrument: Bruker 450 GC coupled to maXis Impact
Instrument type: GC-APCI-QTOF
Ms type: MS2
Ion mode: POSITIVE
Ionization: APCI
Fragmentation mode: CID
Collision energy: 50 eV
Resolution: 35000
Column name: Rxi-5Sil MS column, 30m, 0.25mm i.d., 0.25Âµm film thickness, Restek
Retention time: 13.353 min
Base peak: 218.0534
Precursor m/z: 218.0538
Precursor type: [M]+
m/z	relative intensity	assigned
51.0234	90	C4H3+
53.0022	45	C3HO+
71.0293	39	C4H4F+
74.0145	34	C6H2+
75.0234	210	C6H3+
95.0291	116	C6H4F+
113.0393	734	C6H6FO+
114.0438	55	C9H6+
123.0236	999	C7H4FO+
150.0485	27	C9H7FO+
169.045	52	C12H6F+
170.0574	73	C9H8F2O+
181.0491	33	C10H7F2O+
187.0565	155	C12H8FO+
188.0448	809	C12H6F2+
189.0491	120	C12H7F2+
201.0559	58	C13H7F2+
