Mass spectrum: 3,4-Methylenedioxy-N-methylamphetamine (MDMA); LC-ESI-QTOF; MS2; CE: RAMP 17.8-26.7 eV; R=35000; [M+H]+
Name: 3,4-Methylenedioxy-N-methylamphetamine (MDMA)
Name: MDMA
Name: 1-(1,3-benzodioxol-5-yl)-N-methylpropan-2-amine
Formula: C11H15NO2
Exact mass: 193.1102787
SMILES: CC(Cc1ccc2c(c1)OCO2)NC
InChI: InChI=1S/C11H15NO2/c1-8(12-2)5-9-3-4-10-11(6-9)14-7-13-10/h3-4,6,8,12H,5,7H2,1-2H3
Instrument: Bruker maXis Impact
Instrument type: LC-ESI-QTOF
Ms type: MS2
Ion mode: POSITIVE
Ionization: ESI
Fragmentation mode: CID
Collision energy: RAMP 17.8-26.7 eV
Resolution: 35000
Column name: Acclaim RSLC C18 2.2um, 2.1x100mm, Thermo
Retention time: 4.346 min
Base peak: 150.1284
Precursor m/z: 194.1176
Precursor type: [M+H]+
m/z	relative intensity	assigned
55.0171	25	C3H3O+
58.0643	193	C3H8N+
59.0677	6	C2[13]CH8N+
77.0378	7	C6H5+
79.0536	101	C6H7+
80.0567	5	C5[13]CH7+
91.0542	8	C7H7+
95.0486	12	C6H7O+
103.0547	33	C8H7+
105.071	999	C8H9+
106.0741	44	C7[13]CH9+
115.0545	7	C9H7+
121.0283	10	C7H5O2+
122.0358	18	C7H6O2+
133.0648	579	C9H9O+
134.0677	43	C8[13]CH9O+
135.044	735	C8H7O2+
136.0469	47	C7[13]CH7O2+
148.0512	7	C9H8O2+
151.075	29	C9H11O2+
163.0752	956	C10H11O2+
164.0779	99	C9[13]CH11O2+
165.0807	7	C8[13]C2H11O2+
194.1174	40	C11H16NO2+
