Mass spectrum: Methyl 4-hydroxybenzoate; GC-APCI-QTOF; MS2; CE: 10 eV; R=35000; [M+H]+
Name: Methyl 4-hydroxybenzoate
Formula: C8H8O3
Exact mass: 152.0473
SMILES: COC(=O)C1=CC=C(C=C1)O
InChI: InChI=1S/C8H8O3/c1-11-8(10)6-2-4-7(9)5-3-6/h2-5,9H,1H3
Instrument: Bruker 450 GC coupled to maXis Impact
Instrument type: GC-APCI-QTOF
Ms type: MS2
Ion mode: POSITIVE
Ionization: APCI
Fragmentation mode: CID
Collision energy: 10 eV
Resolution: 35000
Column name: Rxi-5Sil MS column, 30m, 0.25mm i.d., 0.25Âµm film thickness, Restek
Retention time: 13.275 min
Base peak: 181.0803
Precursor m/z: 153.0546
Precursor type: [M+H]+
m/z	relative intensity	assigned
121.0291	243	C7H5O2+
152.0433	999	C8H8O3+
