Mass spectrum: delta9-Tetrahydrocannabinol; LC-ESI-QTOF; MS2; CE: 10 eV; R=35000; [M-H]-
Name: delta9-Tetrahydrocannabinol
Name: 6,6,9-trimethyl-3-pentyl-6a,7,8,10a-tetrahydrobenzo[c]chromen-1-ol
Formula: C21H30O2
Exact mass: 314.2245802
SMILES: CCCCCC1=CC2=C(C3C=C(CCC3C(O2)(C)C)C)C(=C1)O
InChI: InChI=1S/C21H30O2/c1-5-6-7-8-15-12-18(22)20-16-11-14(2)9-10-17(16)21(3,4)23-19(20)13-15/h11-13,16-17,22H,5-10H2,1-4H3
Instrument: Bruker maXis Impact
Instrument type: LC-ESI-QTOF
Ms type: MS2
Ion mode: NEGATIVE
Ionization: ESI
Fragmentation mode: CID
Collision energy: 10 eV
Resolution: 35000
Column name: Acclaim RSLC C18 2.2um, 2.1x100mm, Thermo
Retention time: 13.834 min
Base peak: 255.2304
Precursor m/z: 313.2173
Precursor type: [M-H]-
m/z	relative intensity	assigned
313.2135	999	C21H29O2-
314.2136	164	C20[13]CH29O2-
