Mass spectrum: Tylosin; LC-ESI-QTOF; MS2; CE: 40 eV; R=35000; [M+H]+
Name: Tylosin
Name: 2-[(4R,5S,6S,7R,9R,11E,13E,15R,16R)-6-[(2R,3R,4R,5S,6R)-5-[(2S,4R,5S,6S)-4,5-dihydroxy-4,6-dimethyloxan-2-yl]oxy-4-(dimethylamino)-3-hydroxy-6-methyloxan-2-yl]oxy-16-ethyl-4-hydroxy-15-[[(2R,3R,4R,5R,6R)-5-hydroxy-3,4-dimethoxy-6-methyloxan-2-yl]oxymethyl]-5,9,13-trimethyl-2,10-dioxo-1-oxacyclohexadeca-11,13-dien-7-yl]acetaldehyde
Formula: C46H77NO17
Exact mass: 915.5191500
SMILES: CC[C@@H]1[C@H](/C=C(/C=C/C(=O)[C@@H](C[C@@H]([C@@H]([C@H]([C@@H](CC(=O)O1)O)C)O[C@H]2[C@@H]([C@H]([C@@H]([C@H](O2)C)O[C@H]3C[C@@]([C@H]([C@@H](O3)C)O)(C)O)N(C)C)O)CC=O)C)\C)CO[C@H]4[C@@H]([C@@H]([C@@H]([C@H](O4)C)O)OC)OC
InChI: InChI=1S/C46H77NO17/c1-13-33-30(22-58-45-42(57-12)41(56-11)37(52)26(5)60-45)18-23(2)14-15-31(49)24(3)19-29(16-17-48)39(25(4)32(50)20-34(51)62-33)64-44-38(53)36(47(9)10)40(27(6)61-44)63-35-21-46(8,55)43(54)28(7)59-35/h14-15,17-18,24-30,32-33,35-45,50,52-55H,13,16,19-22H2,1-12H3/b15-14+,23-18+/t24-,25+,26-,27-,28+,29+,30-,32-,33-,35+,36-,37-,38-,39-,40-,41-,42-,43+,44+,45-,46-/m1/s1
Instrument: Bruker maXis Impact
Instrument type: LC-ESI-QTOF
Ms type: MS2
Ion mode: POSITIVE
Ionization: ESI
Fragmentation mode: CID
Collision energy: 40 eV
Resolution: 35000
Column name: Acclaim RSLC C18 2.2um, 2.1x100mm, Thermo
Retention time: 7.880 min
Base peak: 313.1255
Precursor m/z: 916.5264
Precursor type: [M+H]+
m/z	relative intensity	assigned
127.0765	43	C7H11O2+
132.1031	55	C6H14NO2+
143.0703	6	C7H11O3+
145.0873	110	C10H11N+
156.1034	38	C8H14NO2+
158.1195	5	C8H16NO2+
172.0991	5	C8H14NO3+
174.1143	999	C8H16NO3+
175.1174	91	C7[13]CH16NO3+
232.1571	9	CH28O12+
276.1836	29	C3H32O13+
318.1951	99	C5H34O14+
348.2018	5	C16H30NO7+
389.2364	17	C26H31NO2+
391.2533	9	C16H39O10+
407.2476	29	C16H39O11+
408.2513	11	C23H36O6+
409.2637	12	C16H41O11+
425.2595	6	C16H41O12+
598.3677	22	C42H48NO2+
599.3684	8	C46H47+
772.4577	159	C40H68O14+
773.4622	78	C40H69O14+
774.474	34	C40H70O14+
775.4795	7	C39[13]CH70O14+
916.5382	165	C46H78NO17+
917.5429	108	C45[13]CH78NO17+
