Mass spectrum: Ecgonine-methyl-ester (EME); LC-ESI-QTOF; MS2; CE: 30 eV; R=35000; [M+H]+
Name: Ecgonine-methyl-ester (EME)
Name: AC1L9FBF
Name: methyl (3S,4R)-3-hydroxy-8-methyl-8-azabicyclo[3.2.1]octane-4-carboxylate
Formula: C10H17NO3
Exact mass: 199.1208434
SMILES: COC(=O)[C@@H]1C2CCC(C[C@@H]1O)N2C
InChI: InChI=1S/C10H17NO3/c1-11-6-3-4-7(11)9(8(12)5-6)10(13)14-2/h6-9,12H,3-5H2,1-2H3/t6?,7?,8-,9+/m0/s1
Instrument: Bruker maXis Impact
Instrument type: LC-ESI-QTOF
Ms type: MS2
Ion mode: POSITIVE
Ionization: ESI
Fragmentation mode: CID
Collision energy: 30 eV
Resolution: 35000
Column name: Acclaim RSLC C18 2.2um, 2.1x100mm, Thermo
Retention time: 1.4 min
Base peak: 200.1274
Precursor m/z: 200.1281
Precursor type: [M+H]+
m/z	relative intensity	assigned
117.0568	5	C8H7N+
118.0404	11	C8H6O+
119.0481	59	C8H7O+
120.0522	7	C3H8N2O3+
122.0591	11	C7H8NO+
122.0954	58	C8H12N+
123.1012	6	C5H15O3+
124.0753	7	C7H10NO+
124.1115	23	C8H14N+
125.0587	9	C7H9O2+
132.0794	14	C6H12O3+
135.0671	16	C8H9NO+
138.0906	6	C8H12NO+
140.106	13	C8H14NO+
150.09	116	C9H12NO+
151.0746	10	C9H11O2+
151.0925	13	C4H13N3O3+
154.085	103	C8H12NO2+
155.0889	12	C3H13N3O4+
156.1003	21	C8H14NO2+
168.1006	31	C9H14NO2+
182.1168	999	C10H16NO2+
183.1199	103	C5H17N3O4+
184.1216	8	C9H16N2O2+
200.1273	137	C10H18NO3+
