Mass spectrum: Methyl salicylate; GC-APCI-QTOF; MS2; CE: 40 eV; R=35000; [M]+
Name: Methyl salicylate
Formula: C8H8O3
Exact mass: 152.0473
SMILES: COC(=O)C1=CC=CC=C1O
InChI: InChI=1S/C8H8O3/c1-11-8(10)6-4-2-3-5-7(6)9/h2-5,9H,1H3
Instrument: Bruker 450 GC coupled to maXis Impact
Instrument type: GC-APCI-QTOF
Ms type: MS2
Ion mode: POSITIVE
Ionization: APCI
Fragmentation mode: CID
Collision energy: 40 eV
Resolution: 35000
Column name: Rxi-5Sil MS column, 30m, 0.25mm i.d., 0.25Âµm film thickness, Restek
Retention time: 9.612 min
Base peak: 153.0568
Precursor m/z: 152.0468
Precursor type: [M]+
m/z	relative intensity	assigned
63.0235	668	C5H3+
65.039	999	C5H5+
92.0257	566	C6H4O+
121.0291	435	C7H5O2+
