Mass spectrum: Gestoden; LC-ESI-QTOF; MS2; CE: 30 eV; R=35000; [M+H]+
Name: Gestoden
Name: Gestodene
Name: (8R,9S,10R,13S,14S,17R)-13-ethyl-17-ethynyl-17-hydroxy-1,2,6,7,8,9,10,11,12,14-decahydrocyclopenta[a]phenanthren-3-one
Formula: C21H26O2
Exact mass: 310.1932801
SMILES: [H][C@@]12C=C[C@@](O)(C#C)[C@@]1(CC)CC[C@]1([H])[C@@]3([H])CCC(=O)C=C3CC[C@@]21[H]
InChI: InChI=1S/C21H26O2/c1-3-20-11-9-17-16-8-6-15(22)13-14(16)5-7-18(17)19(20)10-12-21(20,23)4-2/h2,10,12-13,16-19,23H,3,5-9,11H2,1H3/t16-,17+,18+,19-,20-,21-/m0/s1
Instrument: Bruker maXis Impact
Instrument type: LC-ESI-QTOF
Ms type: MS2
Ion mode: POSITIVE
Ionization: ESI
Fragmentation mode: CID
Collision energy: 30 eV
Resolution: 35000
Column name: Acclaim RSLC C18 2.2um, 2.1x100mm, Thermo
Retention time: 9.443 min
Base peak: 311.201
Precursor m/z: 311.2006
Precursor type: [M+H]+
m/z	relative intensity	assigned
109.0654	14	C7H9O+
115.0538	244	C9H7+
116.0609	58	C9H8+
117.0691	395	C9H9+
118.0719	37	C8[13]CH9+
119.0486	38	C8H7O+
119.0846	439	C9H11+
120.0878	58	C8[13]CH11+
121.0642	154	C8H9O+
121.1009	172	C9H13+
122.1032	25	C8[13]CH13+
123.08	169	C8H11O+
123.1164	48	C9H15+
124.0843	19	C7[13]CH11O+
127.0537	29	C10H7+
128.061	421	C10H8+
129.0688	819	C10H9+
130.075	176	C10H10+
131.0485	104	C9H7O+
131.0846	999	C10H11+
132.0556	45	C9H8O+
132.0886	112	C9[13]CH11+
133.0638	703	C9H9O+
133.1002	569	C10H13+
134.0683	100	C8[13]CH9O+
134.1031	73	C9[13]CH13+
135.0794	762	C9H11O+
135.116	151	C10H15+
136.0828	75	C8[13]CH11O+
136.119	11	C9[13]CH15+
137.0587	12	C8H9O2+
137.0954	82	C9H13O+
141.0688	536	C11H9+
142.0759	280	C11H10+
143.0842	858	C11H11+
144.0558	48	C10H8O+
144.0896	159	C10[13]CH11+
145.0637	275	C10H9O+
145.1001	923	C11H13+
146.0696	100	C10H10O+
146.104	133	C10[13]CH13+
147.0793	747	C10H11O+
147.1159	334	C11H15+
148.0852	126	C9[13]CH11O+
148.1189	58	C10[13]CH15+
149.095	673	C10H13O+
149.1317	99	C11H17+
150.0985	80	C9[13]CH13O+
151.0514	11	C12H7+
151.0737	17	C9H11O2+
151.1106	25	C10H15O+
152.0615	57	C12H8+
153.0689	256	C12H9+
154.0758	223	C12H10+
155.0842	757	C12H11+
156.0901	202	C12H12+
157.0637	195	C11H9O+
157.0998	714	C12H13+
158.071	84	C11H10O+
158.1051	143	C11[13]CH13+
159.0792	716	C11H11O+
159.1155	484	C12H15+
160.0845	156	C11H12O+
160.1203	85	C11[13]CH15+
161.0948	546	C11H13O+
161.131	375	C12H17+
162.0996	107	C10[13]CH13O+
162.1335	64	C11[13]CH17+
163.1107	337	C11H15O+
164.1145	57	C10[13]CH15O+
165.069	177	C13H9+
166.0757	145	C13H10+
167.0841	360	C13H11+
168.0919	290	C13H12+
169.0637	37	C12H9O+
169.0998	570	C13H13+
170.0731	29	C12H10O+
170.1053	136	C12[13]CH13+
171.0792	193	C12H11O+
171.1156	702	C13H15+
172.0869	114	C12H12O+
172.1193	127	C12[13]CH15+
173.0948	388	C12H13O+
173.1316	498	C13H17+
174.1012	111	C12H14O+
174.1348	55	C12[13]CH17+
175.0741	28	C11H11O2+
175.1104	481	C12H15O+
175.1473	110	C13H19+
176.1146	64	C11[13]CH15O+
176.1524	30	C13H20+
177.0896	11	C11H13O2+
177.1262	63	C12H17O+
177.1628	12	C13H21+
178.0772	92	C14H10+
179.0842	225	C14H11+
180.0919	134	C14H12+
181.0636	44	C13H9O+
181.0998	498	C14H13+
182.0713	30	C13H10O+
182.1064	188	C14H14+
183.0789	106	C13H11O+
183.1157	734	C14H15+
184.0849	64	C13H12O+
184.1203	154	C13[13]CH15+
185.0946	223	C13H13O+
185.1314	432	C14H17+
186.1023	85	C13H14O+
186.1354	86	C13[13]CH17+
187.0745	24	C12H11O2+
187.1105	259	C13H15O+
187.1473	123	C14H19+
188.1165	88	C13H16O+
188.1519	18	C13[13]CH19+
189.0922	13	C12H13O2+
189.1261	152	C13H17O+
189.1628	102	C14H21+
190.0791	30	C15H10+
190.1664	15	C13[13]CH21+
191.0838	123	C15H11+
191.1028	18	C12H15O2+
191.1427	14	C13H19O+
192.0913	94	C15H12+
193.0999	206	C15H13+
194.0725	26	C14H10O+
194.1068	124	C15H14+
195.0786	53	C14H11O+
195.116	359	C15H15+
196.0884	63	C14H12O+
196.1204	110	C15H16+
197.0951	134	C14H13O+
197.1313	298	C15H17+
198.1005	55	C14H14O+
198.1351	64	C14[13]CH17+
199.0731	13	C13H11O2+
199.1107	234	C14H15O+
199.1473	176	C15H19+
200.1172	50	C13[13]CH15O+
200.1519	43	C14[13]CH19+
201.1262	977	C14H17O+
201.1634	256	C15H21+
202.0758	14	C16H10+
202.1303	171	C13[13]CH17O+
202.1676	51	C14[13]CH21+
203.0829	53	C16H11+
203.1426	111	C14H19O+
203.1808	26	C15H23+
204.0911	88	C16H12+
204.1421	22	C13[13]CH19O+
205.1001	211	C16H13+
206.1074	113	C16H14+
207.082	18	C15H11O+
207.115	186	C16H15+
208.0883	32	C15H12O+
208.1225	83	C16H16+
209.0951	121	C15H13O+
209.1316	255	C16H17+
210.1013	59	C15H14O+
210.1369	74	C15[13]CH17+
211.1105	75	C15H15O+
211.1465	114	C16H19+
212.118	46	C15H16O+
212.1509	51	C16H20+
213.1271	130	C15H17O+
213.1626	362	C16H21+
214.1329	55	C15H18O+
214.1674	87	C15[13]CH21+
215.1048	12	C14H15O2+
215.141	161	C15H19O+
215.1774	22	C16H23+
216.0914	10	C17H12+
216.1443	40	C14[13]CH19O+
217.1006	54	C17H13+
217.1591	68	C15H21O+
218.1067	83	C17H14+
219.116	138	C17H15+
219.1741	96	C15H23O+
220.1227	92	C17H16+
220.1769	18	C14[13]CH23O+
221.0978	19	C16H13O+
221.1314	122	C17H17+
222.1029	44	C16H14O+
222.137	59	C17H18+
223.1103	146	C16H15O+
223.1467	216	C17H19+
224.1164	73	C16H16O+
224.152	45	C16[13]CH19+
225.1262	87	C16H17O+
225.1625	245	C17H21+
226.0982	11	C15H14O2+
226.1318	43	C16H18O+
226.1661	67	C16[13]CH21+
227.1066	18	C15H15O2+
227.1426	93	C16H19O+
227.1806	12	C17H23+
228.1128	16	C15H16O2+
228.1502	50	C16H20O+
229.1243	12	C15H17O2+
229.1584	79	C16H21O+
230.1651	153	C16H22O+
231.1148	57	C18H15+
231.1732	318	C16H23O+
232.1227	45	C18H16+
232.1778	47	C15[13]CH23O+
233.1309	84	C18H17+
234.1356	52	C18H18+
235.1141	35	C17H15O+
235.1468	155	C18H19+
236.119	56	C17H16O+
236.1526	56	C18H20+
237.1265	107	C17H17O+
237.1623	67	C18H21+
238.1336	34	C16[13]CH17O+
238.1691	42	C18H22+
239.1424	77	C17H19O+
239.1795	59	C18H23+
240.1477	19	C16[13]CH19O+
240.1851	11	C17[13]CH23+
241.1222	38	C16H17O2+
241.1571	125	C17H21O+
241.1928	17	C18H25+
242.1303	13	C16H18O2+
242.1628	31	C16[13]CH21O+
243.1743	278	C17H23O+
244.1772	52	C16[13]CH23O+
245.1319	34	C19H17+
246.1383	53	C19H18+
247.1472	70	C19H19+
248.1525	17	C18[13]CH19+
249.1251	34	C18H17O+
249.1629	75	C19H21+
250.1354	28	C18H18O+
250.1677	26	C19H22+
251.1415	62	C18H19O+
251.1779	80	C19H23+
252.1494	34	C18H20O+
252.1805	20	C18[13]CH23+
253.1575	83	C18H21O+
254.1633	29	C17[13]CH21O+
255.1377	12	C17H19O2+
255.1427	15	C17H19O2+
255.1738	26	C18H23O+
256.1823	22	C18H24O+
257.1899	13	C18H25O+
260.156	24	C20H20+
263.1396	26	C19H19O+
264.1514	75	C19H20O+
265.1573	89	C19H21O+
265.1954	35	C20H25+
266.1637	20	C18[13]CH21O+
267.1737	39	C19H23O+
268.1797	15	C19H24O+
269.1533	12	C18H21O2+
269.188	23	C19H25O+
275.1788	66	C21H23+
276.1844	20	C20[13]CH23+
278.1658	18	C20H22O+
282.1611	32	C19H22O2+
283.1657	33	C19H23O2+
283.2078	17	C20H27O+
293.1891	154	C21H25O+
294.1922	34	C20[13]CH25O+
311.1999	413	C21H27O2+
312.2051	94	C20[13]CH27O2+
313.2009	13	C19[13]C2H27O2+
313.2121	11	C19[13]C2H27O2+
