Mass spectrum: Cyprodinil; LC-ESI-QTOF; MS2; CE: 40 eV; R=35000; [M+H]+
Name: Cyprodinil
Name: 4-cyclopropyl-6-methyl-N-phenylpyrimidin-2-amine
Formula: C14H15N3
Exact mass: 225.1265975
SMILES: CC1=NC(NC2=CC=CC=C2)=NC(=C1)C1CC1
InChI: InChI=1S/C14H15N3/c1-10-9-13(11-7-8-11)17-14(15-10)16-12-5-3-2-4-6-12/h2-6,9,11H,7-8H2,1H3,(H,15,16,17)
Instrument: Bruker maXis Impact
Instrument type: LC-ESI-QTOF
Ms type: MS2
Ion mode: POSITIVE
Ionization: ESI
Fragmentation mode: CID
Collision energy: 40 eV
Resolution: 35000
Column name: Acclaim RSLC C18 2.2um, 2.1x100mm, Thermo
Retention time: 11.112 min
Base peak: 226.1342
Precursor m/z: 226.1339
Precursor type: [M+H]+
m/z	relative intensity	assigned
115.0536	30	C9H7+
116.0492	57	C8H6N+
117.0442	15	C7H5N2+
117.0565	77	C8H7N+
118.052	345	C7H6N2+
118.0632	48	C8H8N+
119.0596	229	C7H7N2+
120.0627	17	C6[13]CH7N2+
122.0833	5	C7H10N2+
123.0908	17	C7H11N2+
127.0537	6	C10H7+
128.0488	18	C9H6N+
128.0601	10	C10H8+
129.0445	5	C8H5N2+
129.0675	5	C10H9+
130.0646	32	C9H8N+
131.0595	275	C8H7N2+
132.067	240	C8H8N2+
133.075	238	C8H9N2+
134.0787	25	C7[13]CH9N2+
139.0533	12	C11H7+
140.0481	42	C10H6N+
141.0553	14	C10H7N+
141.0693	20	C11H9+
142.0527	8	C9H6N2+
142.0641	63	C10H8N+
143.0593	194	C9H7N2+
144.0631	27	C8[13]CH7N2+
144.0796	139	C10H10N+
145.0755	106	C9H9N2+
146.0789	11	C8[13]CH9N2+
148.0855	26	C8H10N3+
149.0917	6	C8H11N3+
150.1013	12	C8H12N3+
152.0614	9	C12H8+
153.0565	7	C11H7N+
153.0664	5	C12H9+
154.0643	31	C11H8N+
155.0594	27	C10H7N2+
156.067	50	C10H8N2+
157.0748	45	C10H9N2+
158.0819	22	C10H10N2+
158.0944	13	C11H12N+
159.0905	88	C10H11N2+
160.0938	11	C9[13]CH11N2+
165.0688	39	C13H9+
166.0645	45	C12H8N+
167.0717	222	C12H9N+
168.068	101	C11H8N2+
168.0788	123	C12H10N+
169.0748	103	C11H9N2+
170.0819	33	C11H10N2+
171.0904	30	C11H11N2+
172.0941	5	C10[13]CH11N2+
177.0559	5	C13H7N+
179.0587	9	C12H7N2+
180.0803	30	C13H10N+
181.0753	77	C12H9N2+
182.0824	102	C12H10N2+
183.0794	85	C11H9N3+
183.0879	83	C12H11N2+
184.0861	168	C11H10N3+
184.1095	11	C13H14N+
185.0889	23	C10[13]CH10N3+
185.1061	81	C12H13N2+
186.108	13	C11[13]CH13N2+
190.0635	12	C14H8N+
191.0714	33	C14H9N+
192.0784	23	C14H10N+
193.075	287	C13H9N2+
194.0826	336	C13H10N2+
195.0867	52	C12[13]CH10N2+
196.0866	38	C12H10N3+
197.0938	47	C12H11N3+
198.1016	86	C12H12N3+
199.1086	31	C12H13N3+
200.117	10	C12H14N3+
205.0748	5	C14H9N2+
206.0831	25	C14H10N2+
207.091	238	C14H11N2+
208.098	114	C14H12N2+
209.1061	152	C14H13N2+
210.1022	463	C13H12N3+
211.1068	110	C12[13]CH12N3+
224.1177	142	C14H14N3+
225.1215	31	C13[13]CH14N3+
226.1333	999	C14H16N3+
227.1362	154	C13[13]CH16N3+
228.1394	11	C12[13]C2H16N3+
