Mass spectrum: N-isopropyl-N'-phenyl-p-phenylenediamine; LC-ESI-QTOF; MS2; CE: 50 eV; R=35000; [M+H]+
Name: N-isopropyl-N'-phenyl-p-phenylenediamine
Name: N-Isopropyl-N`-phenyl-p-phenylenediamine
Name: 1-N-phenyl-4-N-propan-2-ylbenzene-1,4-diamine
Formula: C15H18N2
Exact mass: 226.1469986
SMILES: CC(C)NC1=CC=C(NC2=CC=CC=C2)C=C1
InChI: InChI=1S/C15H18N2/c1-12(2)16-14-8-10-15(11-9-14)17-13-6-4-3-5-7-13/h3-12,16-17H,1-2H3
Instrument: Bruker maXis Impact
Instrument type: LC-ESI-QTOF
Ms type: MS2
Ion mode: POSITIVE
Ionization: ESI
Fragmentation mode: CID
Collision energy: 50 eV
Resolution: 35000
Column name: Acclaim RSLC C18 2.2um, 2.1x100mm, Thermo
Retention time: 6.567 min
Base peak: 227.1536
Precursor m/z: 227.1543
Precursor type: [M+H]+
m/z	relative intensity	assigned
115.0535	5	C9H7+
117.0565	13	C8H7N+
118.0639	42	C8H8N+
119.0718	39	C8H9N+
120.08	999	C8H10N+
121.0832	95	C7[13]CH10N+
127.0528	10	C10H7+
128.061	49	C10H8+
129.0674	12	C10H9+
130.0642	19	C9H8N+
139.0531	8	C11H7+
140.0486	5	C10H6N+
141.0684	20	C11H9+
142.075	7	C11H10+
143.0713	6	C10H9N+
144.079	14	C10H10N+
150.0446	7	C12H6+
151.0531	12	C12H7+
152.0607	165	C12H8+
153.0679	121	C12H9+
154.0715	20	C11[13]CH9+
155.0595	15	C10H7N2+
155.0835	6	C12H11+
156.0797	12	C11H10N+
163.0528	24	C13H7+
164.0587	5	C13H8+
165.0681	67	C13H9+
166.0746	21	C13H10+
167.072	22	C12H9N+
167.0831	34	C13H11+
168.079	14	C12H10N+
169.0865	5	C12H11N+
170.0954	5	C12H12N+
176.0607	53	C14H8+
177.068	95	C14H9+
178.0764	212	C14H10+
179.0809	52	C13[13]CH10+
180.0796	500	C13H10N+
181.0829	71	C12[13]CH10N+
182.0944	7	C13H12N+
189.0688	10	C15H9+
190.0753	7	C15H10+
191.0835	21	C15H11+
192.081	16	C14H10N+
193.0875	132	C14H11N+
194.0951	203	C14H12N+
195.0972	49	C13[13]CH12N+
196.0987	12	C13H12N2+
208.1108	9	C15H14N+
209.1068	10	C14H13N2+
