Mass spectrum: Fluocinolone acetonide; LC-ESI-QTOF; MS2; CE: 30 eV; R=35000; [M+H]+
Name: Fluocinolone acetonide
Name: (1S,2S,4R,8S,9S,11S,12R,13S,19S)-12,19-difluoro-11-hydroxy-8-(2-hydroxyacetyl)-6,6,9,13-tetramethyl-5,7-dioxapentacyclo[10.8.0.02,9.04,8.013,18]icosa-14,17-dien-16-one
Formula: C24H30F2O6
Exact mass: 452.2010451
SMILES: CC1(C)O[C@@H]2C[C@H]3[C@@H]4C[C@H](F)C5=CC(=O)C=C[C@]5(C)[C@@]4(F)[C@@H](O)C[C@]3(C)[C@@]2(O1)C(=O)CO
InChI: InChI=1S/C24H30F2O6/c1-20(2)31-19-9-13-14-8-16(25)15-7-12(28)5-6-21(15,3)23(14,26)17(29)10-22(13,4)24(19,32-20)18(30)11-27/h5-7,13-14,16-17,19,27,29H,8-11H2,1-4H3/t13-,14-,16-,17-,19+,21-,22-,23-,24+/m0/s1
Instrument: Bruker maXis Impact
Instrument type: LC-ESI-QTOF
Ms type: MS2
Ion mode: POSITIVE
Ionization: ESI
Fragmentation mode: CID
Collision energy: 30 eV
Resolution: 35000
Column name: Acclaim RSLC C18 2.2um, 2.1x100mm, Thermo
Retention time: 8.758 min
Base peak: 453.2076
Precursor m/z: 453.2083
Precursor type: [M+H]+
m/z	relative intensity	assigned
115.0389	8	C5H7O3+
115.0519	20	C9H7+
117.0707	12	C6H10FO+
119.0493	10	C8H7O+
119.085	12	C9H11+
121.064	999	C8H9O+
122.0675	87	C7[13]CH9O+
123.0432	13	C7H7O2+
123.0581	8	C8H8F+
123.0796	20	C8H11O+
125.0595	33	C7H9O2+
127.0372	17	C6H7O3+
128.0605	11	C10H8+
129.0521	9	C7H7F2+
129.0692	17	C10H9+
131.0843	26	C10H11+
133.064	117	C9H9O+
133.1011	10	C10H13+
134.0674	12	C8[13]CH9O+
135.0417	26	C8H7O2+
135.0794	247	C9H11O+
136.083	34	C8[13]CH11O+
137.0587	59	C8H9O2+
137.0752	64	C9H10F+
138.0775	8	C8[13]CH10F+
139.0388	10	C7H7O3+
139.0541	84	C11H7+
139.0741	52	C8H11O2+
140.0586	9	C10[13]CH7+
141.0536	24	C7H9O3+
141.0685	33	C11H9+
143.084	31	C11H11+
145.0643	159	C10H9O+
145.0992	37	C11H13+
146.0675	25	C9[13]CH9O+
147.0796	260	C10H11O+
148.0835	24	C9[13]CH11O+
149.0599	40	C9H9O2+
149.0748	21	C10H10F+
149.095	11	C10H13O+
151.0368	19	C9H5F2+
151.0744	94	C9H11O2+
152.0779	13	C8[13]CH11O2+
153.0545	42	C8H9O3+
153.0698	38	C12H9+
155.0692	75	C8H11O3+
155.084	19	C12H11+
157.0635	28	C11H9O+
157.0993	13	C12H13+
158.0708	32	C11H10O+
159.0792	286	C11H11O+
160.0828	37	C10[13]CH11O+
161.059	92	C7H10FO3+
161.0761	20	C11H10F+
161.0944	55	C11H13O+
162.0645	8	C6[13]CH10FO3+
163.0528	15	C13H7+
163.0745	73	C10H11O2+
163.0904	12	C11H12F+
165.0696	94	C13H9+
165.0881	11	C10H13O2+
166.0724	12	C12[13]CH9+
167.068	29	C10H9F2+
167.0846	30	C13H11+
169.0638	79	C12H9O+
169.0832	14	C10H11F2+
170.0692	17	C11[13]CH9O+
171.0796	343	C12H11O+
172.0822	48	C11[13]CH11O+
173.0587	21	C11H9O2+
173.0746	14	C12H10F+
173.0952	80	C12H13O+
174.0986	16	C11[13]CH13O+
175.0746	64	C11H11O2+
175.1117	9	C12H15O+
177.0536	24	C10H9O3+
177.0707	54	C11H10FO+
177.0895	17	C11H13O2+
179.0505	12	C10H8FO2+
179.0691	48	C10H11O3+
179.0857	82	C11H12FO+
179.1063	8	C11H15O2+
180.0913	14	C10[13]CH12FO+
181.0646	96	C13H9O+
181.0844	15	C10H13O3+
181.1002	17	C14H13+
182.0688	28	C13H10O+
182.1075	9	C14H14+
183.0619	9	C10H9F2O+
183.0799	139	C13H11O+
183.1157	9	C14H15+
184.0868	23	C12[13]CH11O+
185.0585	94	C12H9O2+
185.0766	15	C13H10F+
185.0948	128	C13H13O+
186.0994	25	C12[13]CH13O+
187.0569	14	C9H9F2O2+
187.0741	162	C12H11O2+
187.1106	24	C13H15O+
188.0771	19	C11[13]CH11O2+
189.07	96	C15H9+
189.0902	30	C12H13O2+
190.0742	23	C14[13]CH9+
191.0853	82	C15H11+
191.1054	9	C12H15O2+
192.0892	18	C14[13]CH11+
193.0638	15	C14H9O+
193.0857	22	C11H13O3+
193.0997	28	C15H13+
194.1061	15	C15H14+
195.0792	97	C14H11O+
195.1148	53	C15H15+
196.0865	33	C14H12O+
197.0593	19	C13H9O2+
197.0953	213	C14H13O+
198.0992	43	C13[13]CH13O+
199.0743	44	C13H11O2+
199.1114	46	C14H15O+
200.1148	9	C13[13]CH15O+
201.0696	9	C16H9+
201.0895	47	C13H13O2+
201.1247	10	C14H17O+
203.0705	32	C12H11O3+
203.0849	23	C16H11+
205.065	211	C12H10FO2+
205.1003	46	C16H13+
206.0698	41	C11[13]CH10FO2+
206.1041	8	C15[13]CH13+
207.0818	18	C12H12FO2+
207.1132	23	C16H15+
208.0871	56	C15H12O+
209.0941	174	C15H13O+
209.1317	18	C16H17+
210.0999	44	C14[13]CH13O+
211.075	60	C14H11O2+
211.1109	379	C15H15O+
212.1174	192	C15H16O+
213.0728	12	C11H11F2O2+
213.0903	74	C14H13O2+
213.1264	174	C15H17O+
214.0989	16	C13[13]CH13O2+
214.1287	29	C14[13]CH17O+
215.0694	11	C13H11O3+
215.0864	34	C14H12FO+
215.1056	32	C14H15O2+
215.1227	15	C15H16F+
216.0928	21	C17H12+
217.0654	8	C13H10FO2+
217.0836	11	C14H11F2+
217.0984	23	C17H13+
218.1086	14	C17H14+
219.0814	22	C13H12FO2+
219.1168	22	C17H15+
220.0853	11	C16H12O+
220.1204	10	C17H16+
221.095	140	C16H13O+
221.1198	12	C7H19F2O5+
221.132	12	C17H17+
222.1025	126	C16H14O+
223.076	112	C12H12FO3+
223.1108	594	C16H15O+
224.0815	33	C15H12O2+
224.1147	130	C15[13]CH15O+
225.0907	62	C15H13O2+
225.1263	147	C16H17O+
226.0949	27	C15H14O2+
226.1308	28	C15[13]CH17O+
227.0695	11	C14H11O3+
227.0871	22	C15H12FO+
227.1056	38	C15H15O2+
227.1411	24	C16H19O+
228.0905	10	C18H12+
228.1088	11	C15H16O2+
229.0886	17	C8H15F2O5+
229.0998	27	C18H13+
230.1072	23	C18H14+
231.0806	24	C17H11O+
231.1172	79	C18H15+
232.087	23	C17H12O+
232.1222	25	C17[13]CH15+
233.0955	54	C17H13O+
233.1307	65	C15H18FO+
234.1032	53	C17H14O+
234.1386	14	C14[13]CH18FO+
235.1106	284	C17H15O+
235.148	16	C18H19+
236.1149	76	C16[13]CH15O+
237.0908	59	C16H13O2+
237.1264	386	C17H17O+
238.097	30	C16H14O2+
238.1306	70	C16[13]CH17O+
239.1058	253	C16H15O2+
239.1425	83	C17H19O+
240.0906	14	C19H12+
240.1111	101	C16H16O2+
240.1452	32	C17H20O+
241.0865	81	C15H13O3+
241.1014	64	C19H13+
241.1211	347	C16H17O2+
242.0913	20	C14[13]CH13O3+
242.1257	82	C15[13]CH17O2+
243.095	11	C16H13F2+
243.1169	89	C19H15+
244.1212	19	C18[13]CH15+
245.0964	17	C18H13O+
245.1311	54	C19H17+
246.1025	44	C18H14O+
246.1347	26	C19H18+
247.1108	173	C18H15O+
248.0863	8	C11H14F2O4+
248.1177	78	C18H16O+
249.0914	58	C17H13O2+
249.1263	309	C18H17O+
250.0991	26	C17H14O2+
250.1303	107	C18H18O+
251.1059	297	C17H15O2+
251.1424	307	C18H19O+
252.1086	49	C16[13]CH15O2+
252.1455	66	C17[13]CH19O+
253.1217	494	C17H17O2+
253.1552	27	C18H21O+
254.1255	93	C16[13]CH17O2+
255.1173	82	C14H17F2O2+
255.1347	67	C17H19O2+
256.123	22	C13[13]CH17F2O2+
256.1386	15	C16[13]CH19O2+
257.0937	20	C19H13O+
257.1065	11	C12H17O6+
257.1328	49	C20H17+
258.1046	61	C16H15FO2+
258.1361	14	C19[13]CH17+
259.1111	201	C19H15O+
260.1175	83	C19H16O+
261.1266	561	C19H17O+
262.0991	44	C18H14O2+
262.1309	138	C18[13]CH17O+
263.1063	107	C18H15O2+
263.142	292	C19H19O+
264.1129	57	C18H16O2+
264.1462	66	C18[13]CH19O+
265.0915	12	C11H15F2O5+
265.1219	143	C18H17O2+
265.1554	10	C19H21O+
266.1236	31	C17[13]CH17O2+
267.0999	26	C17H15O3+
267.1144	29	C21H15+
267.1369	109	C18H19O2+
267.1703	8	C19H23O+
268.1091	10	C17H16O3+
268.1403	35	C17[13]CH19O2+
269.0972	25	C17H14FO2+
269.1334	59	C18H18FO+
269.1547	23	C18H21O2+
270.1398	16	C17[13]CH18FO+
270.1561	8	C17[13]CH21O2+
271.1121	46	C20H15O+
271.1481	47	C21H19+
272.1184	16	C19[13]CH15O+
272.1499	10	C20[13]CH19+
273.1269	421	C20H17O+
274.0969	19	C19H14O2+
274.1308	85	C19[13]CH17O+
275.1049	67	C19H15O2+
275.1415	52	C20H19O+
276.1121	91	C19H16O2+
277.1217	417	C19H17O2+
277.158	31	C20H21O+
278.092	13	C18H14O3+
278.1269	139	C18[13]CH17O2+
278.1647	22	C20H22O+
279.1379	667	C19H19O2+
279.1758	45	C20H23O+
280.1411	137	C18[13]CH19O2+
280.1763	14	C19[13]CH23O+
281.1339	181	C22H17+
281.1515	120	C19H21O2+
282.1368	45	C21[13]CH17+
282.154	24	C18[13]CH21O2+
283.1128	26	C18H16FO2+
283.1271	29	C19H17F2+
283.1475	39	C22H19+
284.1166	11	C21H16O+
284.149	12	C21[13]CH19+
285.1284	16	C18H18FO2+
286.0972	34	C20H14O2+
286.1327	14	C21H18O+
287.1059	14	C20H15O2+
287.1452	18	C15H21F2O3+
288.1126	11	C20H16O2+
289.122	153	C20H17O2+
289.1575	13	C21H21O+
290.1248	36	C19[13]CH17O2+
291.1374	518	C20H19O2+
291.1732	28	C21H23O+
292.1125	12	C13H18F2O5+
292.1413	137	C19[13]CH19O2+
292.1817	9	C21H24O+
293.1204	90	C13H19F2O5+
294.1231	44	C20H16F2+
295.1324	169	C19H19O3+
295.1688	8	C20H23O2+
296.1379	55	C18[13]CH19O3+
297.1272	83	C22H17O+
297.1461	87	C20H19F2+
297.1863	13	C17H26FO3+
298.1339	36	C22H18O+
299.1442	168	C22H19O+
300.1469	33	C21[13]CH19O+
301.1226	206	C21H17O2+
301.1574	46	C22H21O+
302.1248	49	C20[13]CH17O2+
302.1622	10	C21[13]CH21O+
303.1243	18	C14H20FO6+
304.1082	50	C20H16O3+
305.1129	13	C19[13]CH16O3+
305.1342	14	C18H19F2O2+
307.132	174	C21H17F2+
307.165	18	C21H23O2+
308.1346	35	C20[13]CH17F2+
309.1474	270	C20H21O3+
310.1513	62	C19[13]CH21O3+
310.1892	9	C21H26O2+
311.1434	113	C23H19O+
312.1472	23	C22[13]CH19O+
313.1305	18	C16H19F2O4+
313.1416	37	C20H19F2O+
315.1397	37	C16H21F2O4+
317.1338	29	C22H18FO+
317.1517	27	C22H21O2+
319.1329	398	C21H19O3+
320.1351	95	C20[13]CH19O3+
320.1696	14	C15H25FO6+
321.1273	56	C24H17O+
322.1317	17	C23[13]CH17O+
325.1425	28	C20H21O4+
325.1744	10	C22H23F2+
327.1374	28	C23H19O2+
327.1579	82	C14H25F2O6+
327.1935	16	C22H25F2+
328.1426	9	C22[13]CH19O2+
328.1648	17	C13[13]CH25F2O6+
329.1542	80	C20H22FO3+
330.1581	18	C19[13]CH22FO3+
331.1514	41	C20H21F2O2+
335.1502	9	C18H23O6+
337.143	409	C21H21O4+
337.1786	53	C22H25O3+
338.1464	109	C20[13]CH21O4+
338.1838	12	C21[13]CH25O3+
339.1395	111	C18H21F2O4+
340.146	24	C17[13]CH21F2O4+
341.1357	28	C21H19F2O2+
345.1478	12	C23H21O3+
347.1633	74	C17H25F2O5+
348.1712	17	C16[13]CH25F2O5+
349.1607	20	C20H23F2O3+
355.1534	231	C21H23O5+
355.1875	31	C22H27O4+
356.1569	61	C20[13]CH23O5+
356.1957	8	C21[13]CH27O4+
357.1501	111	C21H22FO4+
358.1532	24	C20[13]CH22FO4+
359.1464	47	C21H21F2O3+
360.1506	16	C20[13]CH21F2O3+
365.158	15	C20H23F2O4+
375.16	40	C21H24FO5+
375.1972	20	C19H29F2O5+
376.1644	12	C20[13]CH24FO5+
376.2094	8	C18[13]CH29F2O5+
377.1543	48	C24H22FO3+
378.1562	13	C23[13]CH22FO3+
395.1739	15	C21H25F2O5+
413.1942	59	C24H29O6+
414.2006	19	C23[13]CH29O6+
415.1913	82	C24H28FO5+
416.1929	27	C23[13]CH28FO5+
433.1985	19	C24H30FO6+
453.2133	9	C24H31F2O6+
