Mass spectrum: 3,3`-Dimethylbenzidine; LC-ESI-QTOF; MS2; CE: 30 eV; R=35000; [M+H]+
Name: 3,3`-Dimethylbenzidine
Formula: C14H16N2
Exact mass: 212.1313485
SMILES: CC1=CC(=CC=C1N)C1=CC=C(N)C(C)=C1
InChI: InChI=1S/C14H16N2/c1-9-7-11(3-5-13(9)15)12-4-6-14(16)10(2)8-12/h3-8H,15-16H2,1-2H3
Instrument: Bruker maXis Impact
Instrument type: LC-ESI-QTOF
Ms type: MS2
Ion mode: POSITIVE
Ionization: ESI
Fragmentation mode: CID
Collision energy: 30 eV
Resolution: 35000
Column name: Acclaim RSLC C18 2.2um, 2.1x100mm, Thermo
Retention time: 5.671 min
Base peak: 225.1127
Precursor m/z: 213.1386
Precursor type: [M+H]+
m/z	relative intensity	assigned
120.0798	10	C8H10N+
130.064	8	C9H8N+
131.072	6	C9H9N+
132.0779	5	C9H10N+
141.0684	5	C11H9+
143.0714	5	C10H9N+
144.0802	10	C10H10N+
152.0604	21	C12H8+
153.0684	19	C12H9+
154.065	7	C11H8N+
154.0746	7	C12H10+
156.0794	13	C11H10N+
157.0865	13	C11H11N+
164.061	8	C13H8+
165.0685	31	C13H9+
166.0712	6	C12[13]CH9+
167.0711	10	C12H9N+
167.0816	5	C13H11+
168.0791	16	C12H10N+
169.0867	21	C12H11N+
170.095	31	C12H12N+
171.1018	9	C12H13N+
177.069	5	C14H9+
178.0761	45	C14H10+
179.0835	41	C14H11+
180.0796	510	C13H10N+
181.0871	597	C13H11N+
182.09	91	C12[13]CH11N+
183.0901	22	C12H11N2+
184.1102	23	C13H14N+
185.1167	7	C13H15N+
193.0872	5	C14H11N+
194.0952	68	C14H12N+
195.0921	43	C13H11N2+
195.1007	53	C14H13N+
196.1101	377	C14H14N+
197.107	200	C13H13N2+
198.1138	364	C13H14N2+
199.1171	46	C12[13]CH14N2+
210.1142	8	C14H14N2+
211.122	389	C14H15N2+
212.1297	999	C14H16N2+
213.134	159	C13[13]CH16N2+
214.1384	16	C12[13]C2H16N2+
