Mass spectrum: Fenthion-sulfoxide; LC-ESI-QTOF; MS2; CE: 20 eV; R=35000; [M+H]+
Name: Fenthion-sulfoxide
Formula: C10H15O4PS2
Exact mass: 294.0149376
SMILES: Cc1cc(ccc1S(=O)C)OP(=S)(OC)OC
InChI: InChI=1S/C10H15O4PS2/c1-8-7-9(5-6-10(8)17(4)11)14-15(16,12-2)13-3/h5-7H,1-4H3
Instrument: Bruker maXis Impact
Instrument type: LC-ESI-QTOF
Ms type: MS2
Ion mode: POSITIVE
Ionization: ESI
Fragmentation mode: CID
Collision energy: 20 eV
Resolution: 35000
Column name: Acclaim RSLC C18 2.2um, 2.1x100mm, Thermo
Retention time: 7.2 min
Base peak: 295.0221
Precursor m/z: 295.0222
Precursor type: [M+H]+
m/z	relative intensity	assigned
124.9812	6	C2H6O2PS+
136.0331	6	C8H8S+
137.0408	7	C8H9S+
138.0123	5	C7H6OS+
139.0196	13	H12O4PS+
152.9818	9	C7H5S2+
153.9892	21	H11O3PS2+
154.0435	15	C8H10OS+
169.9846	11	C7H6OS2+
170.0205	20	CH15O3PS2+
199.051	9	C9H12O3P+
200.0043	10	C8H9O2PS+
201.0395	29	C9H13OS2+
217.0616	8	C9H14O4P+
231.977	5	C8H9O2PS2+
232.0309	109	C9H13O3PS+
233.0371	20	C8[13]CH13O3PS+
234.0272	5	C9H13O3P[34]S+
246.9631	5	C8H8O3PS2+
247.9716	7	C8H9O3PS2+
261.9875	37	C9H11O3PS2+
262.9952	31	C9H12O3PS2+
264.0031	108	C9H13O3PS2+
265.0056	16	C8[13]CH13O3PS2+
265.9991	9	C10H6N2O5S+
278.0188	199	C10H15O3PS2+
279.0218	24	C9[13]CH15O3PS2+
279.9984	999	C9H13O4PS2+
281.0013	99	C8[13]CH13O4PS2+
281.9944	68	C9H13O4P[34]S[32]S+
295.0221	659	C10H16O4PS2+
296.0251	76	C9[13]CH16O4PS2+
297.0184	43	C10H16O4P[34]S[32]S+
