Mass spectrum: Acenapthene; GC-APCI-QTOF; MS2; CE: 30 eV; R=35000; [M]+
Name: Acenapthene
Name: Acenaphthene
Name: 1,2-dihydroacenaphthylene
Formula: C12H10
Exact mass: 154.0783
SMILES: C1CC2=C3C1=CC=CC3=CC=C2
InChI: InChI=1S/C12H10/c1-3-9-4-2-6-11-8-7-10(5-1)12(9)11/h1-6H,7-8H2
Instrument: Bruker 450 GC coupled to maXis Impact
Instrument type: GC-APCI-QTOF
Ms type: MS2
Ion mode: POSITIVE
Ionization: APCI
Fragmentation mode: CID
Collision energy: 30 eV
Resolution: 35000
Column name: Rxi-5Sil MS column, 30m, 0.25mm i.d., 0.25Âµm film thickness (Restek)
Retention time: 12.226 min
Base peak: 154.0744
Precursor m/z: 154.0777
Precursor type: [M]+
m/z	relative intensity	assigned
115.0534	29	C9H7+
127.0527	23	C10H7+
128.0609	55	C10H8+
129.0684	46	C10H9+
150.0431	5	C12H6+
152.0589	289	C12H8+
153.0667	999	C12H9+
