Mass spectrum: Glycidyl methacrylate; GC-APCI-QTOF; MS2; CE: 10 eV; R=35000; [M+H]+
Name: Glycidyl methacrylate
Formula: C7H10O3
Exact mass: 142.0630
SMILES: CC(=C)C(=O)OCC1CO1
InChI: InChI=1S/C7H10O3/c1-5(2)7(8)10-4-6-3-9-6/h6H,1,3-4H2,2H3
Instrument: Bruker 450 GC coupled to maXis Impact
Instrument type: GC-APCI-QTOF
Ms type: MS2
Ion mode: POSITIVE
Ionization: APCI
Fragmentation mode: CID
Collision energy: 10 eV
Resolution: 35000
Column name: Rxi-5Sil MS column, 30m, 0.25mm i.d., 0.25Âµm film thickness, Restek
Retention time: 8.128 min
Base peak: 172.0628
Precursor m/z: 143.0703
Precursor type: [M+H]+
m/z	relative intensity	assigned
57.0345	46	C3H5O+
69.0334	74	C4H5O+
141.0563	24	C7H9O3+
143.072	999	C7H11O3+
