Mass spectrum: Flurtamone; LC-ESI-QTOF; MS2; CE: Ramp 22.3-33.4 eV; R=35000; [M+H]+
Name: Flurtamone
Name: 5-(methylamino)-2-phenyl-4-[3-(trifluoromethyl)phenyl]furan-3-one
Formula: C18H14F3NO2
Exact mass: 333.0976633
SMILES: CNC1=C(C(=O)C(O1)C1=CC=CC=C1)C1=CC=CC(=C1)C(F)(F)F
InChI: InChI=1S/C18H14F3NO2/c1-22-17-14(12-8-5-9-13(10-12)18(19,20)21)15(23)16(24-17)11-6-3-2-4-7-11/h2-10,16,22H,1H3
Instrument: Bruker maXis Impact
Instrument type: LC-ESI-QTOF
Ms type: MS2
Ion mode: POSITIVE
Ionization: ESI
Fragmentation mode: CID
Collision energy: Ramp 22.3-33.4 eV
Resolution: 35000
Column name: Acclaim RSLC C18 2.2um, 2.1x100mm, Thermo
Retention time: 9.152 min
Base peak: 334.1061
Precursor m/z: 334.1049
Precursor type: [M+H]+
m/z	relative intensity	assigned
58.0284	80	C2H4NO+
77.038	6	C6H5+
95.0488	8	C6H7O+
103.0545	54	C8H7+
105.0341	506	C7H5O+
106.0374	28	C6[13]CH5O+
120.0816	113	C8H10N+
121.0846	9	C7[13]CH10N+
131.0498	33	C6H8FO2+
171.0416	27	C9H6F3+
178.0779	90	C14H10+
179.0811	10	C13[13]CH10+
197.0207	8	C10H4F3O+
199.0361	17	C10H6F3O+
207.0604	14	C15H8F+
209.0767	13	C15H10F+
225.0159	36	C11H4F3O2+
227.0668	79	C15H9F2+
228.067	18	C14[13]CH9F2+
229.0822	12	C15H11F2+
237.0705	9	C16H10FO+
238.0467	7	C15H6F2N+
243.0257	15	C14H5F2O2+
247.0734	999	C17H11O2+
248.0763	189	C16[13]CH11O2+
249.0862	18	C15[13]C2H11O2+
255.0605	5	C16H9F2O+
256.0581	25	C12H9F3NO2+
257.0766	42	C16H11F2O+
258.0795	7	C15[13]CH11F2O+
259.0732	5	C16H10F3+
265.0833	5	C15H12F3O+
275.0679	261	C16H10F3O+
276.0709	46	C15[13]CH10F3O+
277.0832	88	C16H12F3O+
278.0862	13	C15[13]CH12F3O+
278.1158	5	C16H15F3N+
286.1042	11	C17H14F2NO+
288.0992	32	C17H13F3N+
289.1021	5	C16[13]CH13F3N+
303.0629	270	C17H10F3O2+
304.066	50	C16[13]CH10F3O2+
306.1103	270	C17H15F3NO+
307.1133	43	C16[13]CH15F3NO+
314.0977	7	C18H14F2NO2+
316.094	23	C18H13F3NO+
334.1054	803	C18H15F3NO2+
335.1085	218	C17[13]CH15F3NO2+
336.1107	17	C16[13]C2H15F3NO2+
