Mass spectrum: Perfluorotetradecanoic acid; LC-ESI-QTOF; MS2; CE: 20 eV; R=35000; [M-H]-
Name: Perfluorotetradecanoic acid
Name: Perfluoromyristic acid
Name: 2,2,3,3,4,4,5,5,6,6,7,7,8,8,9,9,10,10,11,11,12,12,13,13,14,14,14-heptacosafluorotetradecanoic acid
Formula: C14HF27O2
Exact mass: 713.9545412
SMILES: OC(=O)C(F)(F)C(F)(F)C(F)(F)C(F)(F)C(F)(F)C(F)(F)C(F)(F)C(F)(F)C(F)(F)C(F)(F)C(F)(F)C(F)(F)C(F)(F)F
InChI: InChI=1S/C14HF27O2/c15-2(16,1(42)43)3(17,18)4(19,20)5(21,22)6(23,24)7(25,26)8(27,28)9(29,30)10(31,32)11(33,34)12(35,36)13(37,38)14(39,40)41/h(H,42,43)
Instrument: Bruker maXis Impact
Instrument type: LC-ESI-QTOF
Ms type: MS2
Ion mode: NEGATIVE
Ionization: ESI
Fragmentation mode: CID
Collision energy: 20 eV
Resolution: 35000
Column name: Acclaim RSLC C18 2.2um, 2.1x100mm, Thermo
Retention time: 12.865 min
Base peak: 712.9477
Precursor m/z: 712.9473
Precursor type: [M-H]-
m/z	relative intensity	assigned
168.9887	205	C3F7-
169.9905	8	C2[13]CF7-
196.985	15	C9F3O2-
218.9858	316	C4F9-
219.9906	14	C3[13]CF9-
268.9822	362	C5F11-
269.9866	14	C4[13]CF11-
318.978	379	C6F13-
319.9819	22	C5[13]CF13-
368.9754	338	C7F15-
369.9757	23	C6[13]CF15-
418.9717	242	C8F17-
419.9752	22	C7[13]CF17-
468.9707	103	C9F19-
469.981	8	C8[13]CF19-
518.9662	13	C10F21-
668.9566	999	C13F27-
669.9572	98	C12[13]CF27-
670.9597	6	C11[13]C2F27-
670.9793	8	C11[13]C2F27-
