Mass spectrum: Propanil; LC-ESI-QTOF; MS2; CE: 30 eV; R=35000; [M-H]-
Name: Propanil
Name: N-(3,4-dichlorophenyl)propanamide
Formula: C9H9Cl2NO
Exact mass: 217.0061193
SMILES: CCC(=O)NC1=CC(Cl)=C(Cl)C=C1
InChI: InChI=1S/C9H9Cl2NO/c1-2-9(13)12-6-3-4-7(10)8(11)5-6/h3-5H,2H2,1H3,(H,12,13)
Instrument: Bruker maXis Impact
Instrument type: LC-ESI-QTOF
Ms type: MS2
Ion mode: NEGATIVE
Ionization: ESI
Fragmentation mode: CID
Collision energy: 30 eV
Resolution: 35000
Column name: Acclaim RSLC C18 2.2um, 2.1x100mm, Thermo
Retention time: 9.356 min
Base peak: 215.9992
Precursor m/z: 215.9988
Precursor type: [M-H]-
m/z	relative intensity	assigned
123.9973	117	C6H3ClN-
125.9935	31	C6H3[37]ClN-
159.973	999	C9HClO-
160.9753	120	C8[13]CHClO-
162.9746	57	C6H5Cl2O-
199.9672	35	C8H4Cl2NO-
215.9985	83	C9H8Cl2NO-
217.9961	45	C9H8Cl[37]ClNO-
