Mass spectrum: Ranitidine; LC-ESI-QTOF; MS2; CE: 50 eV; R=35000; [M+H]+
Name: Ranitidine
Name: (E)-1-N`-[2-[[5-[(dimethylamino)methyl]furan-2-yl]methylsulfanyl]ethyl]-1-N-methyl-2-nitroethene-1,1-diamine
Formula: C13H22N4O3S
Exact mass: 314.1412616
SMILES: CN\C(NCCSCC1=CC=C(CN(C)C)O1)=C/[N+]([O-])=O
InChI: InChI=1S/C13H22N4O3S/c1-14-13(9-17(18)19)15-6-7-21-10-12-5-4-11(20-12)8-16(2)3/h4-5,9,14-15H,6-8,10H2,1-3H3/b13-9+
Instrument: Bruker maXis Impact
Instrument type: LC-ESI-QTOF
Ms type: MS2
Ion mode: POSITIVE
Ionization: ESI
Fragmentation mode: CID
Collision energy: 50 eV
Resolution: 35000
Column name: Acclaim RSLC C18 2.2um, 2.1x100mm, Thermo
Retention time: 3.2 min
Base peak: 315.1486
Precursor m/z: 315.1485
Precursor type: [M+H]+
m/z	relative intensity	assigned
107.0481	9	C5H5N3+
114.0363	5	C5H8NS+
115.0319	13	C4H7N2S+
117.0473	41	C4H9N2S+
117.0562	23	H11N3O2S+
118.0323	10	C4H8NOS+
118.0645	89	H12N3O2S+
119.0476	15	C6H5N3+
119.0589	29	C4H9NO3+
119.0675	12	C3H9N3O2+
120.0441	11	C7H6NO+
120.0674	22	C7H8N2+
120.0797	45	H14N3O2S+
122.0597	29	C7H8NO+
122.0802	34	C2H10N4O2+
122.095	7	H16N3O2S+
123.0249	33	C7H7S+
123.0653	5	C5H7N4+
123.0911	16	C7H11N2+
124.0325	11	C7H8S+
124.0748	43	C5H8N4+
125.0049	999	C6H5OS+
126.009	71	C3[13]CH3N3S+
126.0363	6	C6H8NS+
127.0208	10	C6H7OS+
127.0731	6	C5H9N3O+
129.047	136	C5H9N2S+
131.0265	11	C4H7N2OS+
131.06	50	H11N4O2S+
133.0753	59	H13N4O2S+
134.0171	7	C8H6S+
134.0588	68	C6H6N4+
134.082	40	C5H12NO3+
135.0252	38	C8H7S+
135.0907	472	H15N4O2S+
136.0202	10	C7H6NS+
136.0744	32	C6H8N4+
137.0047	18	C5H3N3S+
137.0831	9	H15N3O3S+
137.1064	45	H17N4O2S+
138.0117	10	C5H4N3S+
138.0357	16	C4H10O3S+
138.0909	11	H16N3O3S+
139.0314	34	C6H7N2S+
140.0359	6	CH8N4O2S+
140.0513	23	C4H12O3S+
142.0423	10	C10H6O+
144.0666	8	CH12N4O2S+
145.0419	9	C5H9N2OS+
145.0754	18	CH13N4O2S+
146.0598	44	C9H8NO+
146.0818	10	C6H12NO3+
147.0543	24	H11N4O3S+
147.0667	67	C7H7N4+
147.0908	73	CH15N4O2S+
148.0745	669	C7H8N4+
149.0704	165	H13N4O3S+
149.106	36	CH17N4O2S+
150.0361	62	C8H8NS+
150.09	16	C7H10N4+
150.1131	6	C6H16NO3+
151.0198	81	C6H5N3S+
151.0433	13	C5H11O3S+
152.0255	13	C11H4O+
152.0523	18	C8H10NS+
153.0369	10	C8H9OS+
153.0472	13	C7H9N2S+
154.0529	11	C10H6N2+
159.0448	48	C10H7O2+
159.0902	24	C2H15N4O2S+
160.0495	5	C8H6N3O+
160.0748	43	C2H14N3O3S+
160.0955	7	C5H12N4O2+
161.0694	11	CH13N4O3S+
161.0792	8	C5H11N3O3+
161.1058	13	C2H17N4O2S+
162.0766	16	CH14N4O3S+
163.0857	255	CH15N4O3S+
163.1222	15	C2H19N4O2S+
164.0144	10	C6H4N4S+
164.0518	12	C9H10NS+
165.101	111	CH17N4O3S+
166.0312	7	C6H6N4S+
166.0558	7	C8H10N2S+
166.1044	10	C4H14N4O3+
167.0627	70	C8H11N2S+
168.0658	7	C8H10NO3+
173.1069	5	C3H17N4O2S+
174.0925	5	C6H14N4S+
175.0851	6	C2H15N4O3S+
176.0488	28	C5H10N3O2S+
176.0942	11	C10H12N2O+
177.1011	277	C2H17N4O3S+
178.031	150	C7H6N4S+
179.1181	5	C10H15N2O+
180.0272	5	C6H4N4O3+
180.0478	7	C9H10NOS+
181.0783	57	C9H13N2S+
182.0822	5	C9H12NO3+
189.1019	7	C3H17N4O3S+
191.1171	60	C3H19N4O3S+
192.0463	75	C8H8N4S+
192.1229	6	C6H16N4O3+
193.0508	14	C11H5N4+
194.0624	21	C8H10N4S+
195.094	8	C10H15N2S+
209.0735	10	C10H13N2OS+
223.0889	17	C11H15N2OS+
