Mass spectrum: Fluoxetine; LC-ESI-QTOF; MS2; CE: 10 eV; R=35000; [M+H]+
Name: Fluoxetine
Name: N-methyl-3-phenyl-3-[4-(trifluoromethyl)phenoxy]propan-1-amine
Formula: C17H18F3NO
Exact mass: 309.1340489
SMILES: CNCCC(c1ccccc1)Oc2ccc(cc2)C(F)(F)F
InChI: InChI=1S/C17H18F3NO/c1-21-12-11-16(13-5-3-2-4-6-13)22-15-9-7-14(8-10-15)17(18,19)20/h2-10,16,21H,11-12H2,1H3
Instrument: Bruker maXis Impact
Instrument type: LC-ESI-QTOF
Ms type: MS2
Ion mode: POSITIVE
Ionization: ESI
Fragmentation mode: CID
Collision energy: 10 eV
Resolution: 35000
Column name: Acclaim RSLC C18 2.2um, 2.1x100mm, Thermo
Retention time: 8.6 min
Base peak: 310.1421
Precursor m/z: 310.1413
Precursor type: [M+H]+
m/z	relative intensity	assigned
148.1114	110	C10H14N+
149.115	11	C9[13]CH14N+
265.159	24	C17H19N3+
310.1421	999	C17H19F3NO+
311.1446	135	C15H19F2N3O2+
312.1467	12	C16H19F3N2O+
