Mass spectrum: Perfluorooctanesulfonic acid; LC-ESI-QTOF; MS2; CE: Ramp 32.0-47.9 eV; R=35000; [M-H]-
Name: Perfluorooctanesulfonic acid
Name: Perfluorooctane sulfonic acid
Name: 1,1,2,2,3,3,4,4,5,5,6,6,7,7,8,8,8-heptadecafluorooctane-1-sulfonic acid
Formula: C8HF17O3S
Exact mass: 499.9374946
SMILES: OS(=O)(=O)C(F)(F)C(F)(F)C(F)(F)C(F)(F)C(F)(F)C(F)(F)C(F)(F)C(F)(F)F
InChI: InChI=1S/C8HF17O3S/c9-1(10,3(13,14)5(17,18)7(21,22)23)2(11,12)4(15,16)6(19,20)8(24,25)29(26,27)28/h(H,26,27,28)
Instrument: Bruker maXis Impact
Instrument type: LC-ESI-QTOF
Ms type: MS2
Ion mode: NEGATIVE
Ionization: ESI
Fragmentation mode: CID
Collision energy: Ramp 32.0-47.9 eV
Resolution: 35000
Column name: Acclaim RSLC C18 2.2um, 2.1x100mm, Thermo
Retention time: 10.083 min
Base peak: 59.0133
Precursor m/z: 498.9302
Precursor type: [M-H]-
m/z	relative intensity	assigned
79.9569	178	O3S-
129.9544	158	CF2O3S-
168.9917	46	C8F3O-
179.9501	64	C2F4O3S-
218.9866	64	C4F9-
229.9477	169	C3F6O3S-
279.9404	159	C4F8O3S-
498.9301	999	C8F17O3S-
499.9366	117	C7[13]CF17O3S-
500.9301	47	C8F17O3[34]S-
