Mass spectrum: Torasemide; LC-ESI-QTOF; MS2; CE: 40 eV; R=35000; [M-H]-
Name: Torasemide
Name: Torsemide
Name: 1-[4-(3-methylanilino)pyridin-3-yl]sulfonyl-3-propan-2-ylurea
Formula: C16H20N4O3S
Exact mass: 348.1256115
SMILES: CC(C)NC(=O)NS(=O)(=O)C1=CN=CC=C1NC1=CC=CC(C)=C1
InChI: InChI=1S/C16H20N4O3S/c1-11(2)18-16(21)20-24(22,23)15-10-17-8-7-14(15)19-13-6-4-5-12(3)9-13/h4-11H,1-3H3,(H,17,19)(H2,18,20,21)
Instrument: Bruker maXis Impact
Instrument type: LC-ESI-QTOF
Ms type: MS2
Ion mode: NEGATIVE
Ionization: ESI
Fragmentation mode: CID
Collision energy: 40 eV
Resolution: 35000
Column name: Acclaim RSLC C18 2.2um, 2.1x100mm, Thermo
Retention time: 7.187 min
Base peak: 347.1169
Precursor m/z: 347.1183
Precursor type: [M-H]-
m/z	relative intensity	assigned
150.9964	81	C6H3N2OS-
155.999	117	C5H4N2O2S-
181.0743	326	C9H11NO3-
182.0725	114	C11H8N3-
183.0913	199	C4H15N4O2S-
194.0728	144	C6H14N2O3S-
195.0785	677	C9H11N2O3-
196.0865	515	C12H10N3-
197.0901	67	C11[13]CH10N3-
198.103	393	C12H12N3-
199.1027	69	C11[13]CH12N3-
210.067	135	C12H8N3O-
226.0445	112	C12H8N3S-
228.0731	71	C13H12N2S-
243.047	78	C12H9N3OS-
244.0528	115	C15H6N3O-
262.065	999	C15H8N3O2-
263.0673	262	C14[13]CH8N3O2-
264.0668	72	C16H10NO3-
