Mass spectrum: Nicosulfuron; LC-ESI-QTOF; MS2; CE: 20 eV; R=35000; [M+H]+
Name: Nicosulfuron
Name: 2-[(4,6-dimethoxypyrimidin-2-yl)carbamoylsulfamoyl]-N,N-dimethylpyridine-3-carboxamide
Formula: C15H18N6O6S
Exact mass: 410.1008533
SMILES: COC1=CC(OC)=NC(NC(=O)NS(=O)(=O)C2=NC=CC=C2C(=O)N(C)C)=N1
InChI: InChI=1S/C15H18N6O6S/c1-21(2)13(22)9-6-5-7-16-12(9)28(24,25)20-15(23)19-14-17-10(26-3)8-11(18-14)27-4/h5-8H,1-4H3,(H2,17,18,19,20,23)
Instrument: Bruker maXis Impact
Instrument type: LC-ESI-QTOF
Ms type: MS2
Ion mode: POSITIVE
Ionization: ESI
Fragmentation mode: CID
Collision energy: 20 eV
Resolution: 35000
Column name: Acclaim RSLC C18 2.2um, 2.1x100mm, Thermo
Retention time: 6.697 min
Base peak: 411.1081
Precursor m/z: 411.1081
Precursor type: [M+H]+
m/z	relative intensity	assigned
156.0758	66	C4H8N6O+
157.0598	7	C4H7N5O2+
182.0554	999	C7H8N3O3+
183.0579	88	C6[13]CH8N3O3+
184.0605	8	C7H8N3O2[18]O+
213.0323	516	C6H7N5O2S+
214.0351	55	C5[13]CH7N5O2S+
215.0282	21	C6H7N5O2[34]S+
230.0588	17	C14H6N4+
256.0382	28	C15H4N4O+
259.0817	24	C4H15N6O5S+
304.141	8	C14H18N5O3+
366.0506	35	C13H12N5O6S+
367.0534	6	C12[13]CH12N5O6S+
411.1072	34	C15H19N6O6S+
412.1118	7	C14[13]CH19N6O6S+
