Mass spectrum: D617; LC-ESI-QTOF; MS2; CE: 10 eV; R=35000; [M+H]+
Name: D617
Name: 2-(3,4-dimethoxyphenyl)-5-(methylamino)-2-propan-2-ylpentanenitrile
Formula: C17H26N2O2
Exact mass: 290.1994281
SMILES: CNCCCC(C#N)(C(C)C)C1=CC(OC)=C(OC)C=C1
InChI: InChI=1S/C17H26N2O2/c1-13(2)17(12-18,9-6-10-19-3)14-7-8-15(20-4)16(11-14)21-5/h7-8,11,13,19H,6,9-10H2,1-5H3
Instrument: Bruker maXis Impact
Instrument type: LC-ESI-QTOF
Ms type: MS2
Ion mode: POSITIVE
Ionization: ESI
Fragmentation mode: CID
Collision energy: 10 eV
Resolution: 35000
Column name: Acclaim RSLC C18 2.2um, 2.1x100mm, Thermo
Retention time: 6.1 min
Base peak: 291.2071
Precursor m/z: 291.2067
Precursor type: [M+H]+
m/z	relative intensity	assigned
151.0744	2	C9H11O2+
165.089	1	C10H13O2+
177.0902	1	C11H13O2+
218.1173	1	C13H16NO2+
233.1542	1	C15H21O2+
248.1514	2	C14H20N2O2+
260.1643	12	C16H22NO2+
261.1679	2	C15[13]CH22NO2+
264.1954	1	C16H26NO2+
291.2072	999	C17H27N2O2+
292.2105	172	C16[13]CH27N2O2+
293.2133	14	C15[13]C2H27N2O2+
