Mass spectrum: Glibenclamide; LC-ESI-QTOF; MS2; CE: 30 eV; R=35000; [M-H]-
Name: Glibenclamide
Name: Glyburide
Name: 5-chloro-N-[2-[4-(cyclohexylcarbamoylsulfamoyl)phenyl]ethyl]-2-methoxybenzamide
Formula: C23H28ClN3O5S
Exact mass: 493.1438197
SMILES: COC1=C(C=C(Cl)C=C1)C(=O)NCCC1=CC=C(C=C1)S(=O)(=O)NC(=O)NC1CCCCC1
InChI: InChI=1S/C23H28ClN3O5S/c1-32-21-12-9-17(24)15-20(21)22(28)25-14-13-16-7-10-19(11-8-16)33(30,31)27-23(29)26-18-5-3-2-4-6-18/h7-12,15,18H,2-6,13-14H2,1H3,(H,25,28)(H2,26,27,29)
Instrument: Bruker maXis Impact
Instrument type: LC-ESI-QTOF
Ms type: MS2
Ion mode: NEGATIVE
Ionization: ESI
Fragmentation mode: CID
Collision energy: 30 eV
Resolution: 35000
Column name: Acclaim RSLC C18 2.2um, 2.1x100mm, Thermo
Retention time: 9.364 min
Base peak: 492.1338
Precursor m/z: 492.1365
Precursor type: [M-H]-
m/z	relative intensity	assigned
126.996	48	C4H2ClN3-
128.9905	22	C4H2[37]ClN3-
170.0008	999	C7H5ClNO2-
171.004	71	C6[13]CH5ClNO2-
171.9985	247	C7H5[37]ClNO2-
172.9983	27	C8HN2O3-
184.0437	19	C8H10NO2S-
196.0435	19	C9H10NO2S-
224.052	23	C8H15ClNO2S-
367.0476	140	C22H10ClN3O-
368.0537	28	C21[13]CH10ClN3O-
369.0472	38	C22H10[37]ClN3O-
378.0339	55	C22H8N3O2S-
492.136	21	C23H27ClN3O5S-
