Mass spectrum: Prochloraz BTS40348; LC-ESI-QTOF; MS2; CE: 40 eV; R=35000; [M+H]+
Name: Prochloraz BTS40348
Name: N-(2-(2,4,6-Trichlorophenoxy)ethyl)propan-1-amine
Name: N-[2-(2,4,6-trichlorophenoxy)ethyl]propan-1-amine
Formula: C11H14Cl3NO
Exact mass: 281.0140971
SMILES: CCCNCCOC1=C(Cl)C=C(Cl)C=C1Cl
InChI: InChI=1S/C11H14Cl3NO/c1-2-3-15-4-5-16-11-9(13)6-8(12)7-10(11)14/h6-7,15H,2-5H2,1H3
Instrument: Bruker maXis Impact
Instrument type: LC-ESI-QTOF
Ms type: MS2
Ion mode: POSITIVE
Ionization: ESI
Fragmentation mode: CID
Collision energy: 40 eV
Resolution: 35000
Column name: Acclaim RSLC C18 2.2um, 2.1x100mm, Thermo
Retention time: 7.002 min
Base peak: 282.0211
Precursor m/z: 282.0214
Precursor type: [M+H]+
m/z	relative intensity	assigned
122.9994	99	C7H4Cl+
125.0142	184	C7H6Cl+
127.0117	77	C7H6[37]Cl+
132.9602	425	C5H3Cl2+
134.0953	120	C9H12N+
134.9566	196	C5H3Cl[37]Cl+
151.9995	83	C8H5ClO+
153.0076	84	C8H6ClO+
158.9746	514	C7H5Cl2+
159.9819	237	C7H6Cl2+
160.9534	314	C6H3Cl2O+
160.9721	249	C7H5Cl[37]Cl+
161.9619	711	C6H4Cl2O+
162.9501	99	C6H3Cl[37]ClO+
162.9685	73	C5[13]CH4Cl2O+
163.9585	316	C6H4Cl[37]ClO+
166.9197	999	C5H2Cl3+
168.9169	772	C5H2Cl2[37]Cl+
169.9657	80	C8H4Cl2+
179.9286	262	C6H3Cl3+
181.9267	286	C6H3Cl2[37]Cl+
186.97	84	C8H5Cl2O+
187.9775	275	C5H9Cl3N+
188.963	59	C5H8Cl3O+
189.9776	218	C5H9Cl2[37]ClN+
194.9153	685	C6H2Cl3O+
194.9504	95	C7H6Cl3+
196.9119	558	C6H2Cl2[37]ClO+
196.9303	304	C6H4Cl3O+
198.9279	336	C6H4Cl2[37]ClO+
208.9225	61	C6H2Cl3NO+
222.9479	109	C8H6Cl3O+
224.9432	61	C8H6Cl2[37]ClO+
