Mass spectrum: Triphenylphosphine oxide; LC-ESI-QTOF; MS2; CE: 50 eV; R=35000; [M+H]+
Name: Triphenylphosphine oxide
Name: diphenylphosphorylbenzene
Formula: C18H15OP
Exact mass: 278.0860517
SMILES: O=P(C1=CC=CC=C1)(C1=CC=CC=C1)C1=CC=CC=C1
InChI: InChI=1S/C18H15OP/c19-20(16-10-4-1-5-11-16,17-12-6-2-7-13-17)18-14-8-3-9-15-18/h1-15H
Instrument: Bruker maXis Impact
Instrument type: LC-ESI-QTOF
Ms type: MS2
Ion mode: POSITIVE
Ionization: ESI
Fragmentation mode: CID
Collision energy: 50 eV
Resolution: 35000
Column name: Acclaim RSLC C18 2.2um, 2.1x100mm, Thermo
Retention time: 8.936 min
Base peak: 279.0927
Precursor m/z: 279.0933
Precursor type: [M+H]+
m/z	relative intensity	assigned
122.9993	119	C6H4OP+
125.014	72	C6H6OP+
128.0614	523	C10H8+
129.0693	350	C10H9+
130.0737	43	C9[13]CH9+
133.0194	322	C8H6P+
141.0681	156	C11H9+
142.0722	30	C10[13]CH9+
145.0183	37	C9H6P+
147.035	146	C9H8P+
152.0606	154	C12H8+
153.0684	210	C12H9+
154.0762	504	C12H10+
155.0798	68	C11[13]CH10+
157.0184	42	C10H6P+
170.0272	109	C11H7P+
171.0351	760	C11H8P+
172.0397	109	C10[13]CH8P+
173.0504	999	C11H10P+
174.0538	149	C10[13]CH10P+
183.0342	673	C12H8P+
184.0381	90	C11[13]CH8P+
199.0293	61	C12H8OP+
201.0457	894	C12H10OP+
202.0499	101	C11[13]CH10OP+
279.0931	30	C18H16OP+
