Mass spectrum: Allethrin; LC-ESI-QTOF; MS2; CE: 30 eV; R=35000; [M+H]+
Name: Allethrin
Name: (2-methyl-4-oxo-3-prop-2-enylcyclopent-2-en-1-yl) 2,2-dimethyl-3-(2-methylprop-1-enyl)cyclopropane-1-carboxylate
Formula: C19H26O3
Exact mass: 302.1881947
SMILES: CC(C)=CC1C(C(=O)OC2CC(=O)C(CC=C)=C2C)C1(C)C
InChI: InChI=1S/C19H26O3/c1-7-8-13-12(4)16(10-15(13)20)22-18(21)17-14(9-11(2)3)19(17,5)6/h7,9,14,16-17H,1,8,10H2,2-6H3
Instrument: Bruker maXis Impact
Instrument type: LC-ESI-QTOF
Ms type: MS2
Ion mode: POSITIVE
Ionization: ESI
Fragmentation mode: CID
Collision energy: 30 eV
Resolution: 35000
Column name: Acclaim RSLC C18 2.2um, 2.1x100mm, Thermo
Retention time: 12.389 min
Base peak: 356.2428
Precursor m/z: 303.1955
Precursor type: [M+H]+
m/z	relative intensity	assigned
115.0533	170	C9H7+
117.069	118	C9H9+
119.0842	9	C9H11+
120.0574	13	C8H8O+
121.0627	12	C8H9O+
121.0999	44	C9H13+
123.1157	523	C9H15+
124.1192	64	C8[13]CH15+
133.0649	15	C9H9O+
133.0999	15	C10H13+
135.0791	999	C9H11O+
136.0823	125	C8[13]CH11O+
137.0951	9	C9H13O+
145.1007	11	C11H13+
149.0227	23	C8H5O3+
149.0952	20	C10H13O+
151.1104	112	C10H15O+
169.1224	33	C10H17O2+
201.1282	9	C14H17O+
