Mass spectrum: Dinoseb; LC-ESI-QTOF; MS2; CE: 30 eV; R=35000; [M-H]-
Name: Dinoseb
Name: 2-butan-2-yl-4,6-dinitrophenol
Formula: C10H12N2O5
Exact mass: 240.0746215
SMILES: CCC(C)C1=C(O)C(=CC(=C1)[N+]([O-])=O)[N+]([O-])=O
InChI: InChI=1S/C10H12N2O5/c1-3-6(2)8-4-7(11(14)15)5-9(10(8)13)12(16)17/h4-6,13H,3H2,1-2H3
Instrument: Bruker maXis Impact
Instrument type: LC-ESI-QTOF
Ms type: MS2
Ion mode: NEGATIVE
Ionization: ESI
Fragmentation mode: CID
Collision energy: 30 eV
Resolution: 35000
Column name: Acclaim RSLC C18 2.2um, 2.1x100mm, Thermo
Retention time: 7.992 min
Base peak: 239.0674
Precursor m/z: 239.0673
Precursor type: [M-H]-
m/z	relative intensity	assigned
121.0299	14	C7H5O2-
122.0379	10	C7H6O2-
134.025	243	C7H4NO2-
135.0319	58	C7H5NO2-
136.0394	40	C7H6NO2-
137.0478	7	C7H7NO2-
138.019	5	C6H4NO3-
146.0249	6	C8H4NO2-
146.0357	8	C9H6O2-
147.0445	14	C9H7O2-
148.0409	10	C8H6NO2-
149.0247	14	C8H5O3-
149.0479	7	C8H7NO2-
150.0324	13	C8H6O3-
150.0562	11	C8H8NO2-
151.0279	6	C7H5NO3-
151.0761	62	C9H11O2-
152.0347	7	C7H6NO3-
152.0793	8	C8[13]CH11O2-
160.0392	8	C9H6NO2-
162.0199	39	C8H4NO3-
162.0684	10	C10H10O2-
163.0276	177	C8H5NO3-
164.0337	35	C8H6NO3-
164.0459	45	C9H8O3-
165.0517	7	C4H9N2O5-
174.0543	7	C7H10O5-
176.0348	117	C9H6NO3-
177.0421	99	C9H7NO3-
178.0509	113	C9H8NO3-
179.0231	13	C8H5NO4-
179.0527	12	C8[13]CH8NO3-
179.0701	29	C10H11O3-
180.0303	32	C8H6NO4-
181.0352	6	C8H7NO4-
190.0514	13	C10H8NO3-
191.0584	6	C10H9NO3-
192.0662	210	C10H10NO3-
193.0257	999	C8H5N2O4-
194.0277	92	C7[13]CH5N2O4-
194.0454	434	C9H8NO4-
195.0292	9	C8H5N2O3[18]O-
195.0492	53	C8[13]CH8NO4-
196.05	5	C9H8NO3[18]O-
207.0406	117	C9H7N2O4-
208.058	28	C10H10NO4-
209.0199	180	C8H5N2O5-
209.068	11	C10H11NO4-
210.0249	25	C7[13]CH5N2O5-
221.058	12	C10H9N2O4-
222.0633	28	C10H10N2O4-
239.067	77	C10H11N2O5-
