Mass spectrum: Flufenacet; LC-ESI-QTOF; MS2; CE: 10 eV; R=35000; [M+H]+
Name: Flufenacet
Name: N-(4-fluorophenyl)-N-propan-2-yl-2-[[5-(trifluoromethyl)-1,3,4-thiadiazol-2-yl]oxy]acetamide
Formula: C14H13F4N3O2S
Exact mass: 363.0664605
SMILES: CC(C)N(C(=O)COC1=NN=C(S1)C(F)(F)F)C1=CC=C(F)C=C1
InChI: InChI=1S/C14H13F4N3O2S/c1-8(2)21(10-5-3-9(15)4-6-10)11(22)7-23-13-20-19-12(24-13)14(16,17)18/h3-6,8H,7H2,1-2H3
Instrument: Bruker maXis Impact
Instrument type: LC-ESI-QTOF
Ms type: MS2
Ion mode: POSITIVE
Ionization: ESI
Fragmentation mode: CID
Collision energy: 10 eV
Resolution: 35000
Column name: Acclaim RSLC C18 2.2um, 2.1x100mm, Thermo
Retention time: 9.9 min
Base peak: 364.0735
Precursor m/z: 364.0737
Precursor type: [M+H]+
m/z	relative intensity	assigned
124.0546	6	C4H12O2S+
152.0496	141	C11H6N+
153.0527	9	C10[13]CH6N+
194.0968	999	C14H12N+
364.0736	246	C14H14F4N3O2S+
365.0766	29	C13[13]CH14F4N3O2S
366.0711	7	C12[13]C2H14F4N3O2S
