Mass spectrum: N-Nitrosofenfluramine; LC-ESI-QTOF; MS2; CE: 10 eV; R=35000; [M+H]+
Name: N-Nitrosofenfluramine
Formula: C12H15F3N2O
Exact mass: 260.1136478
SMILES: C1=C(C=C(C=C1)CC(C)N(N=O)CC)C(F)(F)F
InChI: InChI=1S/C12H15F3N2O/c1-3-17(16-18)9(2)7-10-5-4-6-11(8-10)12(13,14)15/h4-6,8-9H,3,7H2,1-2H3
Instrument: Bruker maXis Impact
Instrument type: LC-ESI-QTOF
Ms type: MS2
Ion mode: POSITIVE
Ionization: ESI
Fragmentation mode: CID
Collision energy: 10 eV
Resolution: 35000
Column name: Acclaim RSLC C18 2.2um, 2.1x100mm, Thermo
Retention time: 9.2 min
Base peak: 261.1205
Precursor m/z: 261.1209
Precursor type: [M+H]+
m/z	relative intensity	assigned
159.0405	411	C8H6F3+
160.0435	40	C7[13]CH6F3+
167.066	6	C10H9F2+
185.0757	5	C10H11F2O+
187.0721	999	C10H10F3+
188.075	81	C9[13]CH10F3+
210.1078	38	C12H14F2N+
211.1152	53	C12H15F2N+
212.1189	6	C10H15FN3O+
219.1113	7	C10H14F3N2+
237.1225	41	C10H16F3N2O+
238.1254	5	C8H16F2N4O2+
239.1185	5	C12H16FN2O2+
241.1141	6	C12H15F2N2O+
261.1207	782	C12H16F3N2O+
262.1237	75	C11[13]CH16F3N2O+
263.126	5	C10[13]C2H16F3N2O+
