Mass spectrum: Dimethachlor-OXA; LC-ESI-QTOF; MS2; CE: 30 eV; R=35000; [M+H]+
Name: Dimethachlor-OXA
Name: 2-[N-(2-methoxyethyl)-2,6-dimethylanilino]-2-oxoacetic acid
Formula: C13H17NO4
Exact mass: 251.1157580
SMILES: COCCN(C(=O)C(O)=O)c1c(C)cccc1C
InChI: InChI=1S/C13H17NO4/c1-9-5-4-6-10(2)11(9)14(7-8-18-3)12(15)13(16)17/h4-6H,7-8H2,1-3H3,(H,16,17)
Instrument: Bruker maXis Impact
Instrument type: LC-ESI-QTOF
Ms type: MS2
Ion mode: POSITIVE
Ionization: ESI
Fragmentation mode: CID
Collision energy: 30 eV
Resolution: 35000
Column name: Acclaim RSLC C18 2.2um, 2.1x100mm, Thermo
Retention time: 5.0 min
Base peak: 150.1116
Precursor m/z: 252.123
Precursor type: [M+H]+
m/z	relative intensity	assigned
117.056	166	C8H7N+
118.0638	147	C8H8N+
120.08	66	C8H10N+
130.0648	155	C9H8N+
131.072	423	C9H9N+
132.0797	999	C9H10N+
133.0875	375	C9H11N+
134.091	59	C4H12N3O2+
146.0948	310	C7H14O3+
148.0767	135	C9H10NO+
148.1112	955	C10H14N+
149.1143	112	C9[13]CH14N+
158.0954	59	C11H12N+
176.1067	144	C11H14NO+
178.1252	63	C11H16NO+
220.0989	927	
221.1016	125	
