Mass spectrum: Levamisole; LC-ESI-QTOF; MS2; CE: 10 eV; R=35000; [M+H]+
Name: Levamisole
Name: (6S)-6-phenyl-2,3,5,6-tetrahydroimidazo[2,1-b][1,3]thiazole
Formula: C11H12N2S
Exact mass: 204.0721194
SMILES: c1ccc(cc1)[C@H]2CN3CCSC3=N2
InChI: InChI=1S/C11H12N2S/c1-2-4-9(5-3-1)10-8-13-6-7-14-11(13)12-10/h1-5,10H,6-8H2/t10-/m1/s1
Instrument: Bruker maXis Impact
Instrument type: LC-ESI-QTOF
Ms type: MS2
Ion mode: POSITIVE
Ionization: ESI
Fragmentation mode: CID
Collision energy: 10 eV
Resolution: 35000
Column name: Acclaim RSLC C18 2.2um, 2.1x100mm, Thermo
Retention time: 3.8 min
Base peak: 205.0723
Precursor m/z: 205.0794
Precursor type: [M+H]+
m/z	relative intensity	assigned
178.0663	5	C10H12NS+
205.0766	999	C11H13N2S+
206.0804	119	C10[13]CH13N2S+
207.0722	29	C11H13N2[34]S+
