Mass spectrum: Nicosulfuron; LC-ESI-QTOF; MS2; CE: 30 eV; R=35000; [M+H]+
Name: Nicosulfuron
Name: 2-[(4,6-dimethoxypyrimidin-2-yl)carbamoylsulfamoyl]-N,N-dimethylpyridine-3-carboxamide
Formula: C15H18N6O6S
Exact mass: 410.1008533
SMILES: COC1=CC(OC)=NC(NC(=O)NS(=O)(=O)C2=NC=CC=C2C(=O)N(C)C)=N1
InChI: InChI=1S/C15H18N6O6S/c1-21(2)13(22)9-6-5-7-16-12(9)28(24,25)20-15(23)19-14-17-10(26-3)8-11(18-14)27-4/h5-8H,1-4H3,(H2,17,18,19,20,23)
Instrument: Bruker maXis Impact
Instrument type: LC-ESI-QTOF
Ms type: MS2
Ion mode: POSITIVE
Ionization: ESI
Fragmentation mode: CID
Collision energy: 30 eV
Resolution: 35000
Column name: Acclaim RSLC C18 2.2um, 2.1x100mm, Thermo
Retention time: 6.710 min
Base peak: 411.108
Precursor m/z: 411.1081
Precursor type: [M+H]+
m/z	relative intensity	assigned
139.0489	22	C4H5N5O+
156.0752	84	C4H8N6O+
157.0593	32	C4H7N5O2+
157.0782	5	C3[13]CH8N6O+
182.0551	999	C7H8N3O3+
183.0579	92	C6[13]CH8N3O3+
184.0594	9	C7H8N3O2[18]O+
213.0321	303	C8H9N2O3S+
214.0356	29	C7[13]CH9N2O3S+
215.029	11	C8H9N2O3[34]S+
256.0378	8	C15H4N4O+
259.0812	17	C4H15N6O5S+
