Mass spectrum: Prochloraz BTS40348; LC-ESI-QTOF; MS2; CE: 50 eV; R=35000; [M+H]+
Name: Prochloraz BTS40348
Name: N-(2-(2,4,6-Trichlorophenoxy)ethyl)propan-1-amine
Name: N-[2-(2,4,6-trichlorophenoxy)ethyl]propan-1-amine
Formula: C11H14Cl3NO
Exact mass: 281.0140971
SMILES: CCCNCCOC1=C(Cl)C=C(Cl)C=C1Cl
InChI: InChI=1S/C11H14Cl3NO/c1-2-3-15-4-5-16-11-9(13)6-8(12)7-10(11)14/h6-7,15H,2-5H2,1H3
Instrument: Bruker maXis Impact
Instrument type: LC-ESI-QTOF
Ms type: MS2
Ion mode: POSITIVE
Ionization: ESI
Fragmentation mode: CID
Collision energy: 50 eV
Resolution: 35000
Column name: Acclaim RSLC C18 2.2um, 2.1x100mm, Thermo
Retention time: 6.975 min
Base peak: 282.0206
Precursor m/z: 282.0214
Precursor type: [M+H]+
m/z	relative intensity	assigned
122.9979	108	C7H4Cl+
125.014	174	C7H6Cl+
127.0116	35	C7H6[37]Cl+
128.0019	32	C6H5ClO+
132.9592	364	C5H3Cl2+
133.9624	30	C4[13]CH3Cl2+
134.9564	167	C5H3Cl[37]Cl+
142.9429	103	C6HCl2+
144.9403	46	C6HCl[37]Cl+
151.9999	33	C8H5ClO+
153.0095	49	C8H6ClO+
154.0058	29	C7H5ClNO+
158.9747	214	C7H5Cl2+
159.9815	69	C7H6Cl2+
160.9525	69	C6H3Cl2O+
160.9726	80	C7H5Cl[37]Cl+
161.9619	444	C6H4Cl2O+
162.951	42	C6H3Cl[37]ClO+
163.9585	269	C6H4Cl[37]ClO+
166.9198	999	C5H2Cl3+
167.9247	81	C4[13]CH2Cl3+
168.9173	694	C5H2Cl2[37]Cl+
169.9672	55	C8H4Cl2+
178.9191	31	C6H2Cl3+
179.9283	165	C6H3Cl3+
180.9163	37	C6H2Cl2[37]Cl+
181.9252	158	C6H3Cl2[37]Cl+
187.9773	68	C5H9Cl3N+
188.962	28	C5H8Cl3O+
189.9815	41	C5H9Cl2[37]ClN+
191.9778	31	C4H9Cl3NO+
194.9149	172	C6H2Cl3O+
196.9119	167	C6H2Cl2[37]ClO+
196.9308	35	C6H4Cl3O+
198.9264	60	C6H4Cl2[37]ClO+
