Mass spectrum: Efavirenz; LC-ESI-QTOF; MS2; CE: 20 eV; R=35000; [M-H]-
Name: Efavirenz
Name: 6-Chloro-4-(cyclopropylethynyl)-4-(trifluoromethyl)-1,4-dihydro-2H-3,1-benzoxazin-2-one
Name: 6-chloro-4-(2-cyclopropylethynyl)-4-(trifluoromethyl)-1H-3,1-benzoxazin-2-one
Formula: C14H9ClF3NO2
Exact mass: 315.0273909
SMILES: FC(F)(F)C1(OC(=O)NC2=C1C=C(Cl)C=C2)C#CC1CC1
InChI: InChI=1S/C14H9ClF3NO2/c15-9-3-4-11-10(7-9)13(14(16,17)18,21-12(20)19-11)6-5-8-1-2-8/h3-4,7-8H,1-2H2,(H,19,20)
Instrument: Bruker maXis Impact
Instrument type: LC-ESI-QTOF
Ms type: MS2
Ion mode: NEGATIVE
Ionization: ESI
Fragmentation mode: CID
Collision energy: 20 eV
Resolution: 35000
Column name: Acclaim RSLC C18 2.2um, 2.1x100mm, Thermo
Retention time: 10.649 min
Base peak: 314.0194
Precursor m/z: 314.0201
Precursor type: [M-H]-
m/z	relative intensity	assigned
151.9892	80	C10O2-
161.0219	92	C7H4F3O-
200.0254	146	C10H7ClF2-
202.005	45	C14H2O2-
202.0162	63	C10H7[37]ClF2-
208.0376	84	C11H5F3N-
214.0442	56	C13H7FO2-
216.0218	154	C12H7ClNO-
217.023	53	C13H7ClF-
218.0167	63	C12H7[37]ClNO-
221.9907	109	C14F2O-
226.0063	69	C13H5ClNO-
228.0018	39	C13H4ClFN-
230.0196	62	C7H8ClF3NO2-
241.9973	455	C13H5ClNO2-
243.0038	65	C12[13]CH5ClNO2-
243.9963	181	C13H5[37]ClNO2-
244.0163	999	C13H7ClNO2-
245.021	188	C12[13]CH7ClNO2-
246.0138	392	C13H7[37]ClNO2-
247.0191	43	C13H7ClFNO-
247.9739	79	C9H2ClF3NO2-
250.0238	276	C13H7ClF2N-
251.0267	63	C13H8ClF2N-
252.0203	57	C13H7[37]ClF2N-
253.9968	50	C12H5ClF2O2-
270.0277	44	C13H8ClF3N-
274.0025	43	C12H6ClF3O2-
296.0141	35	C14H6ClF3NO-
314.0201	177	C14H8ClF3NO2-
316.017	78	C14H8[37]ClF3NO2-
