Mass spectrum: Antipyrine; LC-ESI-QTOF; MS2; CE: 20 eV; R=35000; [M+H]+
Name: Antipyrine
Name: 1,5-dimethyl-2-phenylpyrazol-3-one
Formula: C11H12N2O
Exact mass: 188.0949630
SMILES: Cc1cc(=O)n(n1C)c2ccccc2
InChI: InChI=1S/C11H12N2O/c1-9-8-11(14)13(12(9)2)10-6-4-3-5-7-10/h3-8H,1-2H3
Instrument: Bruker maXis Impact
Instrument type: LC-ESI-QTOF
Ms type: MS2
Ion mode: POSITIVE
Ionization: ESI
Fragmentation mode: CID
Collision energy: 20 eV
Resolution: 35000
Column name: Acclaim RSLC C18 2.2um, 2.1x100mm, Thermo
Retention time: 4.752 min
Base peak: 189.1015
Precursor m/z: 189.1022
Precursor type: [M+H]+
m/z	relative intensity	assigned
118.064	7	C8H8N+
120.0799	8	C8H10N+
130.064	22	C9H8N+
131.0715	25	C9H9N+
132.0791	12	C9H10N+
144.0795	28	C10H10N+
145.0634	10	C10H9O+
146.0826	28	C9H10N2+
146.0933	7	C10H12N+
147.0903	46	C9H11N2+
161.106	41	C10H13N2+
172.0746	7	C11H10NO+
174.0775	28	C10H10N2O+
189.1012	999	C11H13N2O+
190.1043	92	C10[13]CH13N2O+
191.1067	5	C9[13]C2H13N2O+
