Mass spectrum: Pindolol; LC-ESI-QTOF; MS2; CE: Ramp 19.8-29.7 eV; R=35000; [M+H]+
Name: Pindolol
Name: 1-(1H-indol-4-yloxy)-3-(propan-2-ylamino)propan-2-ol
Formula: C14H20N2O2
Exact mass: 248.1524779
SMILES: CC(C)NCC(O)COC1=CC=CC2=C1C=CN2
InChI: InChI=1S/C14H20N2O2/c1-10(2)16-8-11(17)9-18-14-5-3-4-13-12(14)6-7-15-13/h3-7,10-11,15-17H,8-9H2,1-2H3
Instrument: Bruker maXis Impact
Instrument type: LC-ESI-QTOF
Ms type: MS2
Ion mode: POSITIVE
Ionization: ESI
Fragmentation mode: CID
Collision energy: Ramp 19.8-29.7 eV
Resolution: 35000
Column name: Acclaim RSLC C18 2.2um, 2.1x100mm, Thermo
Retention time: 3.763 min
Base peak: 249.16
Precursor m/z: 249.1598
Precursor type: [M+H]+
m/z	relative intensity	assigned
56.0491	181	C3H6N+
57.0525	6	C2[13]CH6N+
58.0648	116	C3H8N+
60.0804	8	C3H10N+
65.038	6	C5H5+
68.049	5	C4H6N+
72.0806	535	C4H10N+
73.0839	18	C3[13]CH10N+
74.0598	460	C3H8NO+
75.0636	12	C2[13]CH8NO+
84.0805	5	C5H10N+
86.0962	37	C5H12N+
92.0501	32	C6H6N+
93.0574	5	C6H7N+
94.0535	5	C5H6N2+
95.0608	37	C5H7N2+
98.0972	210	C6H12N+
99.1004	13	C5[13]CH12N+
100.1127	27	C6H14N+
108.0456	35	C6H6NO+
116.1084	999	C6H14NO+
117.0571	5	C8H7N+
117.0701	10	C9H9+
117.111	55	C5[13]CH14NO+
118.0654	50	C8H8N+
130.0648	16	C9H8N+
132.044	16	C8H6NO+
132.0804	6	C9H10N+
133.0508	7	C8H7NO+
134.0596	180	C8H8NO+
135.0625	14	C7[13]CH8NO+
143.0725	7	C10H9N+
144.0802	190	C10H10N+
145.0636	5	C10H9O+
145.0834	18	C9[13]CH10N+
146.0595	218	C9H8NO+
147.063	18	C8[13]CH8NO+
154.0642	7	C11H8N+
156.0106	65	C9H2NO2+
157.0086	6	C8[13]CH2NO2+
160.0751	24	C10H10NO+
172.0751	402	C11H10NO+
173.0787	49	C10[13]CH10NO+
176.1065	5	C11H14NO+
184.086	43	C13H12O+
185.0893	5	C12[13]CH12O+
207.1126	33	C11H15N2O2+
249.16	833	C14H21N2O2+
250.1629	133	C13[13]CH21N2O2+
251.1663	8	C12[13]C2H21N2O2+
