Mass spectrum: Dimethenamid-ESA; LC-ESI-QTOF; MS2; CE: 30 eV; R=35000; [M+H]+
Name: Dimethenamid-ESA
Name: AC1O52R5
Name: 2-[(2,4-dimethylthiophen-3-yl)-(1-methoxypropan-2-yl)amino]-2-oxoethanesulfonic acid
Formula: C12H19NO5S2
Exact mass: 321.0704647
SMILES: COCC(C)N(C(=O)CS(O)(=O)=O)c1c(C)csc1C
InChI: InChI=1S/C12H19NO5S2/c1-8-6-19-10(3)12(8)13(9(2)5-18-4)11(14)7-20(15,16)17/h6,9H,5,7H2,1-4H3,(H,15,16,17)
Instrument: Bruker maXis Impact
Instrument type: LC-ESI-QTOF
Ms type: MS2
Ion mode: POSITIVE
Ionization: ESI
Fragmentation mode: CID
Collision energy: 30 eV
Resolution: 35000
Column name: Acclaim RSLC C18 2.2um, 2.1x100mm, Thermo
Retention time: 6.0 min
Base peak: 242.2836
Precursor m/z: 322.0777
Precursor type: [M+H]+
m/z	relative intensity	assigned
125.0416	28	C7H9S+
126.0353	28	C3H10O3S+
128.0531	35	C6H10NS+
134.095	52	C6H14O3+
135.1021	27	C6H15O3+
138.0374	22	C7H8NS+
150.0376	21	C2H14O3S2+
150.0482	58	C9H10S+
151.0447	21	C8H9NS+
152.052	177	C8H10NS+
153.0592	32	C5H13O3S+
154.0512	24	C7H8NO3+
166.067	440	C6H14O3S+
167.0743	246	C6H15O3S+
168.0454	64	C5H12O4S+
168.0621	19	C6H16OS2+
168.0828	314	C9H14NS+
169.0543	34	C8H11NOS+
169.0841	33	C9H13O3+
170.0608	21	C5H14O4S+
170.0787	25	C6H18OS2+
176.1058	26	C11H14NO+
194.0617	55	C7H14O4S+
209.0855	134	C8H17O4S+
210.0936	999	C11H16NOS+
211.0979	110	C10[13]CH16NOS+
212.0896	54	C8H20O2S2+
226.0864	35	C8H18O5S+
290.0501	593	C11H16NO4S2+
291.0547	76	C10[13]CH16NO4S2+
292.046	59	C11H16NO4[34]S[32]S+
