Mass spectrum: 3-(Trimethoxysilyl)propyl methacrylate; GC-APCI-QTOF; MS2; CE: 50 eV; R=35000; [M]+
Name: 3-(Trimethoxysilyl)propyl methacrylate
Formula: C10H20O5Si
Exact mass: 248.1080
SMILES: CC(=C)C(=O)OCCC[Si](OC)(OC)OC
InChI: InChI=1S/C10H20O5Si/c1-9(2)10(11)15-7-6-8-16(12-3,13-4)14-5/h1,6-8H2,2-5H3
Instrument: Bruker 450 GC coupled to maXis Impact
Instrument type: GC-APCI-QTOF
Ms type: MS2
Ion mode: POSITIVE
Ionization: APCI
Fragmentation mode: CID
Collision energy: 50 eV
Resolution: 35000
Column name: Rxi-5Sil MS column, 30m, 0.25mm i.d., 0.25Âµm film thickness, Restek
Retention time: 11.563 min
Base peak: 217.0891
Precursor m/z: 248.1075
Precursor type: [M]+
m/z	relative intensity	assigned
95.0143	524	C5H3O2+
109.0297	245	C6H5O2+
111.0099	178	CH7O4Si+
125.0266	999	C2H9O4Si+
133.0308	223	C4H9O3Si+
139.042	524	C3H11O4Si+
177.0235	145	C5H9O5Si+
