Mass spectrum: Chloramphenicol; LC-ESI-QTOF; MS2; CE: Ramp 24.8-37.3 eV; R=35000; [M-H]-
Name: Chloramphenicol
Name: 2,2-Dichloro-N-[1,3-dihydroxy-1-(4-nitrophenyl)propan-2-yl]acetamide
Name: 2,2-dichloro-N-[1,3-dihydroxy-1-(4-nitrophenyl)propan-2-yl]acetamide
Formula: C11H12Cl2N2O5
Exact mass: 322.0123268
SMILES: OCC(NC(=O)C(Cl)Cl)C(O)C1=CC=C(C=C1)[N+]([O-])=O
InChI: InChI=1S/C11H12Cl2N2O5/c12-10(13)11(18)14-8(5-16)9(17)6-1-3-7(4-2-6)15(19)20/h1-4,8-10,16-17H,5H2,(H,14,18)
Instrument: Bruker maXis Impact
Instrument type: LC-ESI-QTOF
Ms type: MS2
Ion mode: NEGATIVE
Ionization: ESI
Fragmentation mode: CID
Collision energy: Ramp 24.8-37.3 eV
Resolution: 35000
Column name: Acclaim RSLC C18 2.2um, 2.1x100mm, Thermo
Retention time: 5.677 min
Base peak: 59.0129
Precursor m/z: 321.0051
Precursor type: [M-H]-
m/z	relative intensity	assigned
45.9925	179	NO2-
82.9463	61	CHCl2-
121.0301	661	C4H8ClNO-
122.036	56	CH11ClO4-
148.0401	75	C8H6NO2-
151.0271	999	C7H5NO3-
152.0363	480	C4H9ClN2O2-
159.0289	58	C6H7O5-
166.0155	67	C4H7ClN2O3-
176.0343	97	C9H6NO3-
