Mass spectrum: Hexazinone; LC-ESI-QTOF; MS2; CE: 10 eV; R=35000; [M+H]+
Name: Hexazinone
Name: 3-cyclohexyl-6-(dimethylamino)-1-methyl-1,3,5-triazine-2,4-dione
Formula: C12H20N4O2
Exact mass: 252.1586259
SMILES: CN(C)C1=NC(=O)N(C2CCCCC2)C(=O)N1C
InChI: InChI=1S/C12H20N4O2/c1-14(2)10-13-11(17)16(12(18)15(10)3)9-7-5-4-6-8-9/h9H,4-8H2,1-3H3
Instrument: Bruker maXis Impact
Instrument type: LC-ESI-QTOF
Ms type: MS2
Ion mode: POSITIVE
Ionization: ESI
Fragmentation mode: CID
Collision energy: 10 eV
Resolution: 35000
Column name: Acclaim RSLC C18 2.2um, 2.1x100mm, Thermo
Retention time: 7.088 min
Base peak: 253.1664
Precursor m/z: 253.1659
Precursor type: [M+H]+
m/z	relative intensity	assigned
171.0867	824	C6H11N4O2+
172.0894	36	C5[13]CH11N4O2+
253.1665	999	C12H21N4O2+
254.1686	211	C11[13]CH21N4O2+
