Mass spectrum: Ketamine; LC-ESI-QTOF; MS2; CE: RAMP 19.4-29.1 eV; R=35000; [M+H]+
Name: Ketamine
Name: 2-(2-chlorophenyl)-2-(methylamino)cyclohexan-1-one
Formula: C13H16ClNO
Exact mass: 237.0920418
SMILES: CNC1(CCCCC1=O)c2ccccc2Cl
InChI: InChI=1S/C13H16ClNO/c1-15-13(9-5-4-8-12(13)16)10-6-2-3-7-11(10)14/h2-3,6-7,15H,4-5,8-9H2,1H3
Instrument: Bruker maXis Impact
Instrument type: LC-ESI-QTOF
Ms type: MS2
Ion mode: POSITIVE
Ionization: ESI
Fragmentation mode: CID
Collision energy: RAMP 19.4-29.1 eV
Resolution: 35000
Column name: Acclaim RSLC C18 2.2um, 2.1x100mm, Thermo
Retention time: 4.823 min
Base peak: 238.1003
Precursor m/z: 238.0993
Precursor type: [M+H]+
m/z	relative intensity	assigned
67.0535	88	C5H7+
68.0565	5	C4[13]CH7+
86.0959	73	C5H12N+
95.0486	7	C6H7O+
115.0539	10	C9H7+
116.0618	6	C9H8+
125.0155	999	C7H6Cl+
126.0186	56	C6[13]CH6Cl+
127.0125	256	C7H6[37]Cl+
128.0153	7	C8H2NO+
128.0617	20	C10H8+
129.0693	13	C10H9+
130.0773	10	C10H10+
138.9939	6	C7H4ClO+
141.0099	19	C7H6ClO+
143.0071	5	C7H6[37]ClO+
143.0853	9	C11H11+
144.0928	19	C11H12+
149.0147	10	C9H6Cl+
151.0305	47	C9H8Cl+
152.026	39	C8H7ClN+
153.0283	13	C9H8[37]Cl+
153.0692	20	C12H9+
154.0227	9	C8H7[37]ClN+
154.0771	33	C12H10+
156.0924	8	C12H12+
157.0885	5	C11H11N+
163.0308	110	C10H8Cl+
164.0342	9	C9[13]CH8Cl+
165.0099	34	C9H6ClO+
165.0276	26	C10H8[37]Cl+
165.0464	16	C10H10Cl+
167.0065	10	C9H6[37]ClO+
167.0433	5	C10H10[37]Cl+
179.0622	278	C11H12Cl+
180.0652	27	C10[13]CH12Cl+
181.0592	68	C11H12[37]Cl+
189.0464	45	C12H10Cl+
190.0497	5	C11[13]CH10Cl+
191.0436	11	C12H10[37]Cl+
191.0616	5	C12H12Cl+
207.0576	217	C12H12ClO+
208.0605	19	C11[13]CH12ClO+
209.0544	51	C12H12[37]ClO+
220.0893	208	C13H15ClN+
221.0925	24	C12[13]CH15ClN+
222.086	54	C13H15[37]ClN+
238.0999	136	C13H17ClNO+
239.1037	14	C12[13]CH17ClNO+
240.0969	37	C13H17[37]ClNO+
