Mass spectrum: Perfluorononanoic acid (PFNA); LC-ESI-QTOF; MS2; CE: 10 eV; R=35000; [M-H]-
Name: Perfluorononanoic acid (PFNA)
Name: Perfluorononanoic acid
Name: 2,2,3,3,4,4,5,5,6,6,7,7,8,8,9,9,9-heptadecafluorononanoic acid
Formula: C9HF17O2
Exact mass: 463.9705
SMILES: C(=O)(C(C(C(C(C(C(C(C(F)(F)F)(F)F)(F)F)(F)F)(F)F)(F)F)(F)F)(F)F)O
InChI: InChI=1S/C9HF17O2/c10-2(11,1(27)28)3(12,13)4(14,15)5(16,17)6(18,19)7(20,21)8(22,23)9(24,25)26/h(H,27,28)
Instrument: Bruker maXis Impact
Instrument type: LC-ESI-QTOF
Ms type: MS2
Ion mode: NEGATIVE
Ionization: ESI
Fragmentation mode: CID
Collision energy: 10 eV
Resolution: 35000
Column name: Acclaim RSLC C18 2.2um, 2.1x100mm, Thermo
Retention time: 10.464 min
Base peak: 462.9619
Precursor m/z: 462.9632
Precursor type: [M-H]-
m/z	relative intensity
418.9713	999
462.9602	88
