Mass spectrum: Triclabendazole; LC-ESI-QTOF; MS2; CE: 50 eV; R=35000; [M-H]-
Name: Triclabendazole
Name: 6-chloro-5-(2,3-dichlorophenoxy)-2-methylsulfanyl-1H-benzimidazole
Formula: C14H9Cl3N2OS
Exact mass: 357.9501169
SMILES: CSc1[nH]c2cc(c(cc2n1)Oc3cccc(c3Cl)Cl)Cl
InChI: InChI=1S/C14H9Cl3N2OS/c1-21-14-18-9-5-8(16)12(6-10(9)19-14)20-11-4-2-3-7(15)13(11)17/h2-6H,1H3,(H,18,19)
Instrument: Bruker maXis Impact
Instrument type: LC-ESI-QTOF
Ms type: MS2
Ion mode: NEGATIVE
Ionization: ESI
Fragmentation mode: CID
Collision energy: 50 eV
Resolution: 35000
Column name: Acclaim RSLC C18 2.2um, 2.1x100mm, Thermo
Retention time: 11.753 min
Base peak: 358.9383
Precursor m/z: 356.9428
Precursor type: [M-H]-
m/z	relative intensity	assigned
165.9927	36	C7H3ClN2O-
196.9572	999	C6H6Cl3N-
197.9609	60	C8[13]CH3Cl2O-
211.982	73	C8H5ClN2OS-
341.9179	46	C13H5Cl3N2OS-
