Mass spectrum: Carbadox; LC-ESI-QTOF; MS2; CE: 40 eV; R=35000; [M+H]+
Name: Carbadox
Name: methyl N-[(1-hydroxy-4-oxidoquinoxalin-4-ium-2-ylidene)methylimino]carbamate
Formula: C11H10N4O4
Exact mass: 262.0702048
SMILES: COC(=O)NN=CC1=[N+](C2=CC=CC=C2[N+](=C1)[O-])[O-]
InChI: InChI=1S/C11H10N4O4/c1-19-11(16)13-12-6-8-7-14(17)9-4-2-3-5-10(9)15(8)18/h2-7H,1H3,(H,13,16)
Instrument: Bruker maXis Impact
Instrument type: LC-ESI-QTOF
Ms type: MS2
Ion mode: POSITIVE
Ionization: ESI
Fragmentation mode: CID
Collision energy: 40 eV
Resolution: 35000
Column name: Acclaim RSLC C18 2.2um, 2.1x100mm, Thermo
Retention time: 4.7 min
Base peak: 221.1024
Precursor m/z: 263.0775
Precursor type: [M+H]+
m/z	relative intensity	assigned
116.0309	137	C2H4N4O2+
129.039	999	C3H5N4O2+
130.0465	303	C3H6N4O2+
131.0554	191	C3H7N4O2+
142.0475	118	C4H6N4O2+
143.0425	397	C5H7N2O3+
145.0336	117	C3H5N4O3+
147.0497	337	C3H7N4O3+
155.0394	145	C10H5NO+
159.0482	109	C4H7N4O3+
163.0433	224	C3H7N4O4+
171.0374	514	C6H7N2O4+
172.0416	133	C10H6NO2+
197.0376	141	C11H5N2O2+
