Mass spectrum: Ranitidine; LC-ESI-QTOF; MS2; CE: 20 eV; R=35000; [M+H]+
Name: Ranitidine
Name: (E)-1-N`-[2-[[5-[(dimethylamino)methyl]furan-2-yl]methylsulfanyl]ethyl]-1-N-methyl-2-nitroethene-1,1-diamine
Formula: C13H22N4O3S
Exact mass: 314.1412616
SMILES: CN\C(NCCSCC1=CC=C(CN(C)C)O1)=C/[N+]([O-])=O
InChI: InChI=1S/C13H22N4O3S/c1-14-13(9-17(18)19)15-6-7-21-10-12-5-4-11(20-12)8-16(2)3/h4-5,9,14-15H,6-8,10H2,1-3H3/b13-9+
Instrument: Bruker maXis Impact
Instrument type: LC-ESI-QTOF
Ms type: MS2
Ion mode: POSITIVE
Ionization: ESI
Fragmentation mode: CID
Collision energy: 20 eV
Resolution: 35000
Column name: Acclaim RSLC C18 2.2um, 2.1x100mm, Thermo
Retention time: 3.2 min
Base peak: 315.1486
Precursor m/z: 315.1485
Precursor type: [M+H]+
m/z	relative intensity	assigned
147.021	5	C4H7N2O2S+
164.0927	8	CH16N4O3S+
176.0478	999	C10H8O3+
177.1011	5	C2H17N4O3S+
178.1085	7	C2H18N4O3S+
224.0972	168	C11H16N2OS+
270.0902	100	C11H16N3O3S+
315.1481	62	C13H23N4O3S+
316.1507	9	C12H22N5O3S+
