Mass spectrum: PCB 52; GC-APCI-QTOF; MS2; CE: 30 eV; R=35000; [M]+
Name: PCB 52
Name: 2,2`,5,5`-Tetrachlorobiphenyl
Name: 1,4-dichloro-2-(2,5-dichlorophenyl)benzene
Formula: C12H6Cl4
Exact mass: 289.9224
SMILES: ClC1=CC(=C(Cl)C=C1)C1=C(Cl)C=CC(Cl)=C1
InChI: InChI=1S/C12H6Cl4/c13-7-1-3-11(15)9(5-7)10-6-8(14)2-4-12(10)16/h1-6H
Instrument: Bruker 450 GC coupled to maXis Impact
Instrument type: GC-APCI-QTOF
Ms type: MS2
Ion mode: POSITIVE
Ionization: APCI
Fragmentation mode: CID
Collision energy: 30 eV
Resolution: 35000
Column name: Rxi-5Sil MS column, 30m, 0.25mm i.d., 0.25Âµm film thickness (Restek)
Retention time: 17.275 min
Base peak: 289.9199
Precursor m/z: 289.9218
Precursor type: [M]+
m/z	relative intensity	assigned
219.9807	999	C12H6Cl2+
254.9504	279	C12H6Cl3+
289.9243	37	C12H6Cl4+
