Mass spectrum: 2,6-Dichlorobenzamide; LC-ESI-QTOF; MS2; CE: 10 eV; R=35000; [M+H]+
Name: 2,6-Dichlorobenzamide
Name: 2,6-dichlorobenzamide
Formula: C7H5Cl2NO
Exact mass: 188.9748191
SMILES: NC(=O)C1=C(Cl)C=CC=C1Cl
InChI: InChI=1S/C7H5Cl2NO/c8-4-2-1-3-5(9)6(4)7(10)11/h1-3H,(H2,10,11)
Instrument: Bruker maXis Impact
Instrument type: LC-ESI-QTOF
Ms type: MS2
Ion mode: POSITIVE
Ionization: ESI
Fragmentation mode: CID
Collision energy: 10 eV
Resolution: 35000
Column name: Acclaim RSLC C18 2.2um, 2.1x100mm, Thermo
Retention time: 4.4 min
Base peak: 189.9814
Precursor m/z: 189.9821
Precursor type: [M+H]+
m/z	relative intensity	assigned
171.9699	5	C7H4Cl2N+
172.9541	136	C7H3Cl2O+
173.9575	13	C6[13]CH3Cl2O+
174.9516	76	C7H3[37]Cl[35]ClO+
189.9814	999	C7H6Cl2NO+
190.9846	63	C6[13]CH6Cl2NO+
191.9783	499	C7H6[37]Cl[35]ClNO+
192.9813	27	C6[13]CH6[37]Cl[35]ClNO+
