Mass spectrum: Lovastatin; LC-ESI-QTOF; MS2; CE: 20 eV; R=35000; [M+H]+
Name: Lovastatin
Name: [(1S,3R,7S,8S,8aR)-8-[2-[(2R,4R)-4-hydroxy-6-oxooxan-2-yl]ethyl]-3,7-dimethyl-1,2,3,7,8,8a-hexahydronaphthalen-1-yl] (2S)-2-methylbutanoate
Formula: C24H36O5
Exact mass: 404.2562743
SMILES: CC[C@H](C)C(=O)O[C@H]1C[C@H](C=C2[C@H]1[C@H]([C@H](C=C2)C)CC[C@@H]3C[C@H](CC(=O)O3)O)C
InChI: InChI=1S/C24H36O5/c1-5-15(3)24(27)29-21-11-14(2)10-17-7-6-16(4)20(23(17)21)9-8-19-12-18(25)13-22(26)28-19/h6-7,10,14-16,18-21,23,25H,5,8-9,11-13H2,1-4H3/t14-,15-,16-,18+,19+,20-,21-,23-/m0/s1
Instrument: Bruker maXis Impact
Instrument type: LC-ESI-QTOF
Ms type: MS2
Ion mode: POSITIVE
Ionization: ESI
Fragmentation mode: CID
Collision energy: 20 eV
Resolution: 35000
Column name: Acclaim RSLC C18 2.2um, 2.1x100mm, Thermo
Retention time: 12.178 min
Base peak: 405.2659
Precursor m/z: 405.2636
Precursor type: [M+H]+
m/z	relative intensity	assigned
121.1008	21	C9H13+
127.0761	16	C7H11O2+
131.0858	41	C10H11+
143.071	54	C7H11O3+
143.0865	46	C11H11+
145.1012	95	C11H13+
147.1176	21	C11H15+
157.101	65	C12H13+
158.1072	17	C12H14+
159.1171	161	C12H15+
161.1367	17	C5H21O5+
167.1076	15	C10H15O2+
169.1018	89	C13H13+
171.1178	108	C13H15+
173.1329	625	C13H17+
174.1358	93	C12[13]CH17+
181.1003	22	C14H13+
183.1175	33	C14H15+
185.1343	40	C14H17+
189.0912	16	C12H13O2+
191.107	65	C12H15O2+
192.1103	20	C12H16O2+
197.1349	33	C15H17+
199.1484	999	C15H19+
200.1522	160	C14[13]CH19+
201.1641	328	C15H21+
202.1699	61	C15H22+
205.1249	24	C13H17O2+
207.1191	18	C16H15+
209.1177	40	C12H17O3+
211.151	35	C16H19+
215.181	37	C16H23+
223.0643	83	C11H11O5+
223.1489	147	C17H19+
224.0651	17	C11H12O5+
224.1524	26	C17H20+
225.1644	616	C17H21+
226.169	124	C16[13]CH21+
229.1248	32	C15H17O2+
239.1816	188	C18H23+
240.1821	40	C18H24+
243.1753	608	C17H23O+
244.1773	98	C16[13]CH23O+
249.1638	225	C19H21+
250.1685	55	C19H22+
257.1523	19	C17H21O2+
259.2072	15	C18H27O+
267.1749	350	C19H23O+
268.1795	80	C18[13]CH23O+
285.1858	743	C19H25O2+
286.1892	184	C18[13]CH25O2+
297.0861	21	C21H13O2+
303.1965	287	C19H27O3+
304.2027	70	C19H28O3+
