Mass spectrum: Diacetylmorphine (Heroin); LC-ESI-QTOF; MS2; CE: 30 eV; R=35000; [M+H]+
Name: Diacetylmorphine (Heroin)
Name: Diacetylmorphine
Name: [(4R,4aR,7S,7aR,12bS)-9-acetyloxy-3-methyl-2,4,4a,7,7a,13-hexahydro-1H-4,12-methanobenzofuro[3,2-e]isoquinoline-7-yl] acetate
Formula: C21H23NO5
Exact mass: 369.1576228
SMILES: CC(=O)Oc1ccc2c3c1O[C@@H]4[C@]35CCN([C@H](C2)[C@@H]5C=C[C@@H]4OC(=O)C)C
InChI: InChI=1S/C21H23NO5/c1-11(23)25-16-6-4-13-10-15-14-5-7-17(26-12(2)24)20-21(14,8-9-22(15)3)18(13)19(16)27-20/h4-7,14-15,17,20H,8-10H2,1-3H3/t14-,15+,17-,20-,21-/m0/s1
Instrument: Bruker maXis Impact
Instrument type: LC-ESI-QTOF
Ms type: MS2
Ion mode: POSITIVE
Ionization: ESI
Fragmentation mode: CID
Collision energy: 30 eV
Resolution: 35000
Column name: Acclaim RSLC C18 2.2um, 2.1x100mm, Thermo
Retention time: 4.803 min
Base peak: 370.1667
Precursor m/z: 370.1649
Precursor type: [M+H]+
m/z	relative intensity	assigned
161.0603	8	C10H9O2+
165.0704	19	C13H9+
181.0645	7	C13H9O+
183.081	19	C13H11O+
187.0767	7	C12H11O2+
191.0879	19	C15H11+
193.0659	60	C14H9O+
194.072	7	C14H10O+
203.0718	9	C15H9N+
207.0827	7	C15H11O+
209.0603	24	C14H9O2+
209.0975	7	C15H13O+
211.076	108	C14H11O2+
212.081	22	C14H12O2+
219.0815	25	C16H11O+
220.083	7	C16H12O+
221.0994	7	C16H13O+
225.0932	9	C15H13O2+
227.0731	7	C17H9N+
229.0862	22	C14H13O3+
237.0929	57	C16H13O2+
238.0964	6	C16H14O2+
239.1043	9	C16H15O2+
253.0848	7	C16H13O3+
255.1025	12	C16H15O3+
266.1217	14	C17H16NO2+
267.1281	9	C17H17NO2+
268.1342	167	C17H18NO2+
269.1368	21	C16[13]CH18NO2+
286.1438	11	C17H20NO3+
310.1443	74	C19H20NO3+
311.1494	19	C19H21NO3+
328.156	152	C19H22NO4+
329.1585	26	C18[13]CH22NO4+
370.1675	999	C21H24NO5+
371.1701	290	C20[13]CH24NO5+
