Mass spectrum: Diflufenican; LC-ESI-QTOF; MS2; CE: 40 eV; R=35000; [M-H]-
Name: Diflufenican
Name: N-(2,4-difluorophenyl)-2-[3-(trifluoromethyl)phenoxy]pyridine-3-carboxamide
Formula: C19H11F5N2O2
Exact mass: 394.0740687
SMILES: FC1=CC=C(NC(=O)C2=CC=CN=C2OC2=CC=CC(=C2)C(F)(F)F)C(F)=C1
InChI: InChI=1S/C19H11F5N2O2/c20-12-6-7-16(15(21)10-12)26-17(27)14-5-2-8-25-18(14)28-13-4-1-3-11(9-13)19(22,23)24/h1-10H,(H,26,27)
Instrument: Bruker maXis Impact
Instrument type: LC-ESI-QTOF
Ms type: MS2
Ion mode: NEGATIVE
Ionization: ESI
Fragmentation mode: CID
Collision energy: 40 eV
Resolution: 35000
Column name: Acclaim RSLC C18 2.2um, 2.1x100mm, Thermo
Retention time: 11.705 min
Base peak: 393.0666
Precursor m/z: 393.0668
Precursor type: [M-H]-
m/z	relative intensity	assigned
136.0209	17	C7H3FNO-
150.0343	16	C3H5F5N-
161.0212	301	C10H3F2-
162.0225	24	C9[13]CH3F2-
165.0445	13	C3H6F5N2-
170.0385	13	C11H6O2-
178.0288	23	C7H4F4N-
185.052	80	C11H6FN2-
186.0335	29	C6H5F5N-
186.0484	15	C12H7FO-
192.0241	24	C13H3FN-
198.0373	33	C9H6F2NO2-
210.0489	18	C14H7FO-
211.0378	14	C11H6F3O-
212.0307	178	C7H6F4NO2-
213.0364	17	C6[13]CH6F4NO2-
218.0415	25	C15H5FN-
229.0399	62	C10H5F4N2-
232.0383	122	C10H6F4NO-
233.0415	17	C9[13]CH6F4NO-
238.0478	199	C9H8F4NO2-
239.0534	19	C8[13]CH8F4NO2-
251.0378	18	C18H5NO-
252.0434	999	C13H6F4N-
253.0469	119	C12[13]CH6F4N-
263.0194	13	C13H4F3NO2-
269.0582	13	C17H8F3-
270.0328	78	C16H5F3O-
271.0322	13	C15[13]CH5F3O-
272.0492	573	C13H7F5N-
273.053	86	C12[13]CH7F5N-
289.0584	15	C18H7F2N2-
309.062	15	C18H9F2NO2-
325.0554	20	C16H8F5NO-
353.0491	15	C17H8F5NO2-
