Mass spectrum: Mebeverine; LC-ESI-QTOF; MS2; CE: 10 eV; R=35000; [M+H]+
Name: Mebeverine
Name: 4-[ethyl-[1-(4-methoxyphenyl)propan-2-yl]amino]butyl 3,4-dimethoxybenzoate
Formula: C25H35NO5
Exact mass: 429.2515232
SMILES: CCN(CCCCOC(=O)C1=CC(OC)=C(OC)C=C1)C(C)CC1=CC=C(OC)C=C1
InChI: InChI=1S/C25H35NO5/c1-6-26(19(2)17-20-9-12-22(28-3)13-10-20)15-7-8-16-31-25(27)21-11-14-23(29-4)24(18-21)30-5/h9-14,18-19H,6-8,15-17H2,1-5H3
Instrument: Bruker maXis Impact
Instrument type: LC-ESI-QTOF
Ms type: MS2
Ion mode: POSITIVE
Ionization: ESI
Fragmentation mode: CID
Collision energy: 10 eV
Resolution: 35000
Column name: Acclaim RSLC C18 2.2um, 2.1x100mm, Thermo
Retention time: 6.698 min
Base peak: 430.2601
Precursor m/z: 430.2588
Precursor type: [M+H]+
m/z	relative intensity	assigned
149.0948	12	C10H13O+
430.2605	999	C25H36NO5+
431.2626	443	C24[13]CH36NO5+
432.2655	48	C23[13]C2H36NO5+
