Mass spectrum: Dimethenamid; LC-ESI-QTOF; MS2; CE: 40 eV; R=35000; [M+H]+
Name: Dimethenamid
Name: 2-chloro-N-(2,4-dimethylthiophen-3-yl)-N-(1-methoxypropan-2-yl)acetamide
Formula: C12H18ClNO2S
Exact mass: 275.0746775
SMILES: COCC(C)N(C(=O)CCl)C1=C(C)SC=C1C
InChI: InChI=1S/C12H18ClNO2S/c1-8-7-17-10(3)12(8)14(11(15)5-13)9(2)6-16-4/h7,9H,5-6H2,1-4H3
Instrument: Bruker maXis Impact
Instrument type: LC-ESI-QTOF
Ms type: MS2
Ion mode: POSITIVE
Ionization: ESI
Fragmentation mode: CID
Collision energy: 40 eV
Resolution: 35000
Column name: Acclaim RSLC C18 2.2um, 2.1x100mm, Thermo
Retention time: 9.2 min
Base peak: 404.2072
Precursor m/z: 276.082
Precursor type: [M+H]+
m/z	relative intensity	assigned
111.0266	59	C6H7S+
112.0305	7	C9H4+
113.042	6	C6H9S+
114.0372	5	C5H8NS+
115.0553	6	ClH16O2S+
117.057	8	C8H7N+
117.0682	11	C3H14ClO2+
118.0657	14	C8H8N+
118.0761	7	C3H15ClO2+
119.0713	16	C2H14ClNO2+
120.0803	57	C8H10N+
122.0965	17	C8H12N+
123.0133	10	C6H5NS+
123.0259	14	C7H7S+
124.0214	21	C6H6NS+
124.0335	31	C7H8S+
125.0293	21	C6H7NS+
125.0412	76	C7H9S+
126.0368	421	C6H8NS+
127.0208	18	C6H7OS+
127.0424	62	ClH14NO2S+
127.0571	26	C7H11S+
128.0323	14	C3H11ClNS+
128.0518	101	C6H10NS+
129.0358	18	C6H9OS+
129.0537	7	C3H12ClNO2+
132.081	8	C9H10N+
133.0882	7	C9H11N+
134.0565	5	C3H8N3O3+
134.0958	72	C9H12N+
135.0261	11	C8H7S+
135.1032	134	C9H13N+
136.0209	33	C7H6NS+
136.033	12	C2H13ClO2S+
136.1067	9	C4H14N3O2+
137.0284	87	C7H7NS+
138.0364	263	C7H8NS+
139.0237	6	C4H10ClNS+
139.0413	24	C10H5N+
139.0566	15	C8H11S+
140.033	7	C6H6NO3+
140.0528	27	C7H10NS+
141.0542	5	C4H12ClNO2+
141.0725	5	C8H13S+
144.9868	8	C6H6ClS+
147.0013	5	C6H8ClS+
149.0237	5	C5H8ClNO2+
149.041	13	C9H9S+
150.0366	143	C8H8NS+
151.0193	7	C8H6ClN+
151.0434	46	C2H14ClNO2S+
151.0566	106	C9H11S+
152.0154	130	C7H6NOS+
152.0522	330	C8H10NS+
153.0234	170	C7H7NOS+
153.0588	116	C2H16ClNO2S+
154.0302	51	C10H4NO+
154.0487	10	C5H13ClNS+
154.067	32	C2H17ClNO2S+
155.0208	5	C3H8ClN2O3+
155.0324	5	C5H12ClOS+
155.0688	5	C5H14ClNO2+
156.0278	6	C4H11ClNOS+
158.0358	7	C10H6O2+
159.0027	7	C7H8ClS+
166.0312	57	C8H8NOS+
166.0676	50	C9H12NS+
167.0358	11	C11H5NO+
167.0753	102	C9H13NS+
168.0834	999	C9H14NS+
169.0863	93	C6H16ClNO2+
170.0794	30	C6H17ClNS+
171.9958	8	C10H3ClN+
174.0128	12	C10H6OS+
183.9976	5	C11H4OS+
186.0131	89	C11H6OS+
187.0144	6	C11H6ClN+
188.0106	24	C7H7ClNO3+
202.0083	12	C11H6O2S+
203.0159	48	C11H7O2S+
204.0055	5	C10H5ClN2O+
204.0227	15	C11H8O2S+
205.012	12	C8H10ClO2S+
206.0209	6	C8H11ClO2S+
244.0553	168	C11H15ClNOS+
245.0582	18	C10[13]CH15ClNOS+
246.0523	42	C11H15[37]ClNOS+
247.0549	5	C10[13]CH15[37]ClNOS+
