Mass spectrum: Clonidine; LC-ESI-QTOF; MS2; CE: 50 eV; R=35000; [M+H]+
Name: Clonidine
Name: N-(2,6-dichlorophenyl)-4,5-dihydro-1H-imidazol-2-amine
Formula: C9H9Cl2N3
Exact mass: 229.0173526
SMILES: ClC1=CC=CC(Cl)=C1NC1=NCCN1
InChI: InChI=1S/C9H9Cl2N3/c10-6-2-1-3-7(11)8(6)14-9-12-4-5-13-9/h1-3H,4-5H2,(H2,12,13,14)
Instrument: Bruker maXis Impact
Instrument type: LC-ESI-QTOF
Ms type: MS2
Ion mode: POSITIVE
Ionization: ESI
Fragmentation mode: CID
Collision energy: 50 eV
Resolution: 35000
Column name: Acclaim RSLC C18 2.2um, 2.1x100mm, Thermo
Retention time: 3.666 min
Base peak: 230.0242
Precursor m/z: 230.0246
Precursor type: [M+H]+
m/z	relative intensity	assigned
108.9835	21	C6H2Cl+
110.9801	10	C6H2[37]Cl+
114.0103	6	C5H5ClN+
114.0323	5	C8H4N+
115.0285	12	C7H3N2+
116.0364	11	C7H4N2+
116.0478	18	C8H6N+
117.0441	26	C7H5N2+
117.0548	14	C8H7N+
118.0515	53	C7H6N2+
119.0595	43	C7H7N2+
122.999	20	C7H4Cl+
123.9939	956	C6H3ClN+
125.0011	267	C6H4ClN+
125.9911	216	C6H3[37]ClN+
126.0084	40	C7N3+
126.9975	64	C6H4[37]ClN+
127.0169	28	C6H6ClN+
128.0021	21	C3H8Cl2N+
129.0152	9	C6H6[37]ClN+
129.0432	20	C8H5N2+
130.038	11	C7H4N3+
130.0504	14	C8H6N2+
131.0592	267	C8H7N2+
132.0665	118	C8H8N2+
132.9595	999	C5H3Cl2+
133.0628	89	C7H7N3+
133.963	52	C4[13]CH3Cl2+
134.0648	9	C6[13]CH7N3+
134.9563	561	C5H3Cl[37]Cl+
135.9598	18	C3H2Cl2N2+
135.9935	68	C7H3ClN+
137.0001	16	C7H4ClN+
137.9905	18	C7H3[37]ClN+
138.0092	132	C7H5ClN+
139.0049	64	C6H4ClN2+
140.0072	37	C7H5[37]ClN+
140.0249	35	C7H7ClN+
141.0028	14	C6H4[37]ClN2+
141.0182	9	C6H6ClN2+
142.0037	55	C3H8Cl2N2+
142.0237	5	C7H7[37]ClN+
142.0509	13	C9H6N2+
143.0588	11	C9H7N2+
144.0016	12	C3H8Cl[37]ClN2+
144.0546	15	C8H6N3+
144.9594	138	C6H3Cl2+
145.0509	9	C6H10ClN2+
145.9649	24	C6H4Cl2+
146.9561	83	C6H3Cl[37]Cl+
147.0533	5	C5H10ClN3+
147.9636	15	C6H4Cl[37]Cl+
149.9953	22	C7H3ClN2+
150.0094	18	C9N3+
151.0169	185	C9HN3+
152.0124	265	C7H5ClN2+
153.0185	147	C7H6ClN2+
154.0077	87	C7H5[37]ClN2+
155.0021	9	C3H7Cl2N3+
155.017	30	C7H6[37]ClN2+
156.0197	7	C4H10Cl2N2+
157.0623	21	C9H7N3+
158.0699	335	C9H8N3+
158.9631	10	C6H3Cl2N+
158.9747	47	C8ClN2+
159.0777	169	C9H9N3+
159.9704	911	C6H4Cl2N+
160.0853	151	C9H10N3+
160.9767	199	C6H5Cl2N+
161.088	17	C8[13]CH10N3+
161.9672	555	C6H4Cl[37]ClN+
162.9735	132	C6H5Cl[37]ClN+
163.9997	298	C7H3ClN3+
165.0029	24	C6[13]CH3ClN3+
165.0198	86	C8H6ClN2+
165.9964	77	C7H3[37]ClN3+
166.0157	35	C7H5ClN3+
166.0258	32	C8H7ClN2+
167.0208	46	C8H6[37]ClN2+
167.0346	30	C8H8ClN2+
168.0123	12	C7H5[37]ClN3+
168.0293	19	C7H7ClN3+
169.0192	14	C4H9Cl2N3+
169.0321	7	C8H8[37]ClN2+
170.0291	5	C7H7[37]ClN3+
170.9624	63	C7H3Cl2N+
171.9701	246	C7H4Cl2N+
172.9655	534	C6H3Cl2N2+
173.9674	186	C7H4Cl[37]ClN+
174.9627	325	C6H3Cl[37]ClN2+
177.0195	8	C9H6ClN2+
178.026	8	C9H7ClN2+
179.0165	6	C6H9Cl2N2+
184.9654	119	C7H3Cl2N2+
185.9721	51	C7H4Cl2N2+
185.9855	93	C8H6Cl2N+
186.9626	85	C7H3Cl[37]ClN2+
186.9809	218	C7H5Cl2N2+
187.9832	65	C8H6Cl[37]ClN+
188.9782	146	C7H5Cl[37]ClN2+
192.0313	11	C9H7ClN3+
194.0466	242	C9H9ClN3+
195.0518	20	C8[13]CH9ClN3+
196.0433	57	C9H9[37]ClN3+
200.997	5	C8H7Cl2N2+
210.9793	9	C9H5Cl2N2+
212.9968	118	C9H7Cl2N2+
214.0012	17	C8[13]CH7Cl2N2+
214.9942	76	C9H7Cl[37]ClN2+
228.0082	14	C9H8Cl2N3+
230.0227	46	C9H10Cl2N3+
232.0211	31	C9H10Cl[37]ClN3+
