Mass spectrum: Oleamide; GC-APCI-QTOF; MS2; CE: 20 eV; R=35000; [M]+
Name: Oleamide
Formula: C18H35NO
Exact mass: 281.2719
SMILES: CCCCCCCCC=CCCCCCCCC(=O)N
InChI: InChI=1S/C18H35NO/c1-2-3-4-5-6-7-8-9-10-11-12-13-14-15-16-17-18(19)20/h9-10H,2-8,11-17H2,1H3,(H2,19,20)
Instrument: Bruker 450 GC coupled to maXis Impact
Instrument type: GC-APCI-QTOF
Ms type: MS2
Ion mode: POSITIVE
Ionization: APCI
Fragmentation mode: CID
Collision energy: 20 eV
Resolution: 35000
Column name: Rxi-5Sil MS column, 30m, 0.25mm i.d., 0.25Âµm film thickness, Restek
Retention time: 17.597 min
Base peak: 281.246
Precursor m/z: 281.2713
Precursor type: [M]+
m/z	relative intensity	assigned
55.0553	158	C4H7+
57.0703	115	C4H9+
67.0546	108	C5H7+
69.0707	146	C5H9+
71.0501	34	C4H7O+
71.0868	37	C5H11+
79.0548	39	C6H7+
81.07	105	C6H9+
83.0855	84	C6H11+
95.0842	130	C7H11+
97.0633	35	C6H9O+
97.1008	65	C7H13+
107.0871	46	C8H11+
109.1007	72	C8H13+
111.1153	54	C8H15+
113.0953	28	C7H13O+
117.0677	27	C9H9+
119.086	209	C9H11+
121.101	481	C9H13+
123.0803	68	C8H11O+
123.1171	325	C9H15+
125.0964	160	C8H13O+
125.131	55	C9H17+
131.0869	34	C10H11+
133.1017	625	C10H13+
134.1062	65	C10H14+
135.1174	999	C10H15+
136.1222	70	C10H16+
137.0978	147	C9H13O+
137.1342	412	C10H17+
138.1028	36	C9H14O+
138.1381	41	C10H18+
139.1139	260	C9H15O+
139.1357	28	C9H17N+
139.1485	47	C10H19+
140.1171	26	C9H16O+
141.1283	51	C9H17O+
147.1191	580	C11H15+
148.1239	31	C11H16+
149.0263	254	C11H3N+
149.099	29	C10H13O+
149.1357	497	C11H17+
150.1389	53	C11H18+
151.1513	297	C11H19+
152.1553	41	C11H20+
153.1311	222	C10H17O+
161.1356	293	C12H17+
162.1387	40	C12H18+
163.151	210	C12H19+
164.1545	37	C12H20+
165.1312	100	C11H17O+
167.1471	121	C11H19O+
175.1519	131	C13H19+
177.1671	169	C13H21+
179.146	65	C12H19O+
181.162	57	C12H21O+
189.1669	115	C14H21+
191.1829	147	C14H23+
192.1852	51	C14H24+
193.1965	208	C14H25+
195.1766	32	C13H23O+
207.2115	30	C15H27+
217.1952	948	C16H25+
218.2004	166	C16H26+
219.2105	453	C16H27+
220.2141	51	C16H28+
235.205	481	C16H27O+
236.2104	58	C16H28O+
237.222	144	C16H29O+
237.2419	58	C16H31N+
245.2245	42	C18H29+
247.2432	56	C18H31+
265.2511	38	C18H33O+
