Mass spectrum: 2-(4-Morpholinyl)benzothiazole; LC-ESI-QTOF; MS2; CE: 30 eV; R=35000; [M+H]+
Name: 2-(4-Morpholinyl)benzothiazole
Name: 4-(1,3-benzothiazol-2-yl)morpholine
Formula: C11H12N2OS
Exact mass: 220.0670340
SMILES: C1CN(CCO1)C1=NC2=CC=CC=C2S1
InChI: InChI=1S/C11H12N2OS/c1-2-4-10-9(3-1)12-11(15-10)13-5-7-14-8-6-13/h1-4H,5-8H2
Instrument: Bruker maXis Impact
Instrument type: LC-ESI-QTOF
Ms type: MS2
Ion mode: POSITIVE
Ionization: ESI
Fragmentation mode: CID
Collision energy: 30 eV
Resolution: 35000
Column name: Acclaim RSLC C18 2.2um, 2.1x100mm, Thermo
Retention time: 8.513 min
Base peak: 221.0735
Precursor m/z: 221.0743
Precursor type: [M+H]+
m/z	relative intensity	assigned
117.0562	23	C8H7N+
124.0203	19	C6H6NS+
134.0041	6	C10N+
135.0121	7	C7H5NS+
136.0202	204	C7H6NS+
137.0228	13	C6[13]CH6NS+
138.0155	7	C7H6N[34]S+
144.0668	8	C9H8N2+
148.02	5	C8H6NS+
149.0223	47	C11H3N+
150.0358	382	C8H8NS+
151.0376	25	C7[13]CH8NS+
152.0317	12	C8H8N[34]S+
160.0199	6	C9H6NS+
163.0309	10	C8H7N2S+
175.0309	39	C9H7N2S+
176.0376	10	C9H8N2S+
177.0468	999	C9H9N2S+
178.0496	71	C8[13]CH9N2S+
179.0426	26	C9H9N2[34]S+
189.0461	9	C10H9N2S+
190.0541	8	C10H10N2S+
203.0621	19	C11H11N2S+
219.0568	11	C11H11N2OS+
221.0733	608	C11H13N2OS+
222.0762	64	C10[13]CH13N2OS+
223.0694	22	C11H13N2O[34]S+
