Mass spectrum: Cetirizine N-Oxide; LC-ESI-QTOF; MS2; CE: 30 eV; R=35000; [M+H]+
Name: Cetirizine N-Oxide
Name: (R)-Cetirizine N-Oxide
Name: 2-[2-[4-[(4-chlorophenyl)-phenylmethyl]-1-oxidopiperazin-1-ium-1-yl]ethoxy]acetic acid
Formula: C21H25ClN2O4
Exact mass: 404.1502850
SMILES: OC(=O)COCC[N+]1([O-])CCN(CC1)C(C1=CC=CC=C1)C1=CC=C(Cl)C=C1
InChI: InChI=1S/C21H25ClN2O4/c22-19-8-6-18(7-9-19)21(17-4-2-1-3-5-17)23-10-12-24(27,13-11-23)14-15-28-16-20(25)26/h1-9,21H,10-16H2,(H,25,26)
Instrument: Bruker maXis Impact
Instrument type: LC-ESI-QTOF
Ms type: MS2
Ion mode: POSITIVE
Ionization: ESI
Fragmentation mode: CID
Collision energy: 30 eV
Resolution: 35000
Column name: Acclaim RSLC C18 2.2um, 2.1x100mm, Thermo
Retention time: 8.9 min
Base peak: 150.1114
Precursor m/z: 405.1576
Precursor type: [M+H]+
m/z	relative intensity	assigned
132.0639	79	C5H10NO3+
146.0795	75	C6H12NO3+
147.0865	19	C6H13NO3+
165.0687	43	C7H14ClO2+
166.0767	80	C13H10+
167.0797	13	C2H16ClN2O4+
179.084	19	C8H16ClO2+
187.1064	117	C8H15N2O3+
201.0459	999	C13H10Cl+
202.049	159	C13[13]CH5N2+
203.0433	279	C13H10[37]Cl+
206.0957	49	C15H12N+
207.0992	12	C12H15O3+
216.0559	19	C16H8O+
217.0424	16	C13H10ClO+
228.056	91	C17H8O+
229.0633	93	C11H14ClO3+
230.0597	23	C16H8NO+
231.0625	20	C13H11O4+
240.0572	119	C18H8O+
241.0632	133	C12H14ClO3+
242.0714	204	C12H15ClO3+
243.0622	46	C12H14[37]ClO3+
244.0694	47	C12H15[37]ClO3+
283.0999	18	C17H16ClN2+
284.1068	22	C20H14NO+
285.1131	25	C14H20ClNO3+
286.1039	13	C16H16NO4+
299.13	114	C21H17NO+
300.1363	31	C15H23ClNO3+
312.1401	12	C19H21ClN2+
313.1438	12	C16H24ClNO3+
405.1577	76	C21H26ClN2O4+
