Mass spectrum: N4-Acetylsulfamethazine; LC-ESI-QTOF; MS2; CE: 50 eV; R=35000; [M+H]+
Name: N4-Acetylsulfamethazine
Name: N-Acetyl Sulfamethazine
Name: N-[4-[(4,6-dimethylpyrimidin-2-yl)sulfamoyl]phenyl]acetamide
Formula: C14H16N4O3S
Exact mass: 320.0943114
SMILES: Cc1cc(nc(n1)NS(=O)(=O)c2ccc(cc2)/N=C(\C)/O)C
InChI: InChI=1S/C14H16N4O3S/c1-9-8-10(2)16-14(15-9)18-22(20,21)13-6-4-12(5-7-13)17-11(3)19/h4-8H,1-3H3,(H,17,19)(H,15,16,18)
Instrument: Bruker maXis Impact
Instrument type: LC-ESI-QTOF
Ms type: MS2
Ion mode: POSITIVE
Ionization: ESI
Fragmentation mode: CID
Collision energy: 50 eV
Resolution: 35000
Column name: Acclaim RSLC C18 2.2um, 2.1x100mm, Thermo
Retention time: 4.4 min
Base peak: 321.1013
Precursor m/z: 321.1016
Precursor type: [M+H]+
m/z	relative intensity	assigned
122.0701	120	C6H8N3+
123.0783	301	C6H9N3+
124.0858	999	C6H10N3+
134.059	780	C6H6N4+
135.0621	77	C5[13]CH6N4+
186.0333	43	C6H8N3O2S+
186.0994	43	C8H14N2O3+
196.0862	178	C12H10N3+
197.0935	62	C12H11N3+
198.0891	95	C11H10N4+
204.0414	114	C9H6N3O3+
211.0952	50	C9H13N3O3+
212.1042	305	C9H14N3O3+
213.1118	550	C9H15N3O3+
214.0968	94	C12H12N3O+
214.115	70	C9H16N3O3+
255.1243	138	C14H15N4O+
