Mass spectrum: Amisulpride N-Oxide; LC-ESI-QTOF; MS2; CE: 40 eV; R=35000; [M+H]+
Name: Amisulpride N-Oxide
Name: 4-amino-N-[(1-ethyl-1-oxidopyrrolidin-1-ium-2-yl)methyl]-5-ethylsulfonyl-2-methoxybenzamide
Formula: C17H27N3O5S
Exact mass: 385.1671420
SMILES: CC[N+]1([O-])CCCC1CNC(=O)C1=CC(=C(N)C=C1OC)S(=O)(=O)CC
InChI: InChI=1S/C17H27N3O5S/c1-4-20(22)8-6-7-12(20)11-19-17(21)13-9-16(26(23,24)5-2)14(18)10-15(13)25-3/h9-10,12H,4-8,11,18H2,1-3H3,(H,19,21)
Instrument: Bruker maXis Impact
Instrument type: LC-ESI-QTOF
Ms type: MS2
Ion mode: POSITIVE
Ionization: ESI
Fragmentation mode: CID
Collision energy: 40 eV
Resolution: 35000
Column name: Acclaim RSLC C18 2.2um, 2.1x100mm, Thermo
Retention time: 4.2 min
Base peak: 386.1747
Precursor m/z: 386.1744
Precursor type: [M+H]+
m/z	relative intensity	assigned
149.0461	14	C5H9O5+
168.0102	7	C7H6NO2S+
177.9951	3	C8H4NO2S+
196.0058	178	C14N2+
214.0164	68	C14H2N2O+
242.0484	999	C10H12NO4S+
243.0502	137	C9[13]CH12NO4S+
244.0447	32	C10H12NO4[34]S+
259.0737	2	C10H15N2O4S+
325.1209	2	C15H21N2O4S+
