Mass spectrum: Acebutolol; LC-ESI-QTOF; MS2; CE: 10 eV; R=35000; [M-H]-
Name: Acebutolol
Name: N-[3-acetyl-4-[2-hydroxy-3-(propan-2-ylamino)propoxy]phenyl]butanamide
Formula: C18H28N2O4
Exact mass: 336.2049074
SMILES: CCCC(=O)Nc1ccc(c(c1)C(=O)C)OCC(CNC(C)C)O
InChI: InChI=1S/C18H28N2O4/c1-5-6-18(23)20-14-7-8-17(16(9-14)13(4)21)24-11-15(22)10-19-12(2)3/h7-9,12,15,19,22H,5-6,10-11H2,1-4H3,(H,20,23)
Instrument: Bruker maXis Impact
Instrument type: LC-ESI-QTOF
Ms type: MS2
Ion mode: NEGATIVE
Ionization: ESI
Fragmentation mode: CID
Collision energy: 10 eV
Resolution: 35000
Column name: Acclaim RSLC C18 2.2um, 2.1x100mm, Thermo
Retention time: 4.982 min
Base peak: 335.1963
Precursor m/z: 335.1976
Precursor type: [M-H]-
m/z	relative intensity	assigned
335.195	999	C18H27N2O4-
336.1965	205	C17[13]CH27N2O4-
