Mass spectrum: Acetochlor; LC-ESI-QTOF; MS2; CE: 10 eV; R=35000; [M+H]+
Name: Acetochlor
Name: 2-chloro-N-(ethoxymethyl)-N-(2-ethyl-6-methylphenyl)acetamide
Formula: C14H20ClNO2
Exact mass: 269.1182566
SMILES: CCOCN(C(=O)CCl)C1=C(CC)C=CC=C1C
InChI: InChI=1S/C14H20ClNO2/c1-4-12-8-6-7-11(3)14(12)16(10-18-5-2)13(17)9-15/h6-8H,4-5,9-10H2,1-3H3
Instrument: Bruker maXis Impact
Instrument type: LC-ESI-QTOF
Ms type: MS2
Ion mode: POSITIVE
Ionization: ESI
Fragmentation mode: CID
Collision energy: 10 eV
Resolution: 35000
Column name: Acclaim RSLC C18 2.2um, 2.1x100mm, Thermo
Retention time: 10.1 min
Base peak: 224.0833
Precursor m/z: 270.1255
Precursor type: [M+H]+
m/z	relative intensity	assigned
132.0791	6	C3H15ClNO2+
133.0859	10	C3H16ClNO2+
148.1112	166	C10H14N+
149.1142	13	C9[13]CH14N+
194.0738	9	C11H13ClN+
210.0673	6	C14H10O2+
224.0828	999	C12H15ClNO+
225.0856	117	C11[13]CH15ClNO+
226.0801	262	C12H15[37]ClNO+
227.0843	21	C11[13]CH15[37]ClNO+
270.125	187	C14H21ClNO2+
271.1284	27	C13[13]CH21ClNO2+
272.1223	55	C14H21[37]ClNO2+
273.1272	9	C13[13]CH21[37]ClNO2+
