Mass spectrum: Levamisole; LC-ESI-QTOF; MS2; CE: 20 eV; R=35000; [M+H]+
Name: Levamisole
Name: (6S)-6-phenyl-2,3,5,6-tetrahydroimidazo[2,1-b][1,3]thiazole
Formula: C11H12N2S
Exact mass: 204.0721194
SMILES: c1ccc(cc1)[C@H]2CN3CCSC3=N2
InChI: InChI=1S/C11H12N2S/c1-2-4-9(5-3-1)10-8-13-6-7-14-11(13)12-10/h1-5,10H,6-8H2/t10-/m1/s1
Instrument: Bruker maXis Impact
Instrument type: LC-ESI-QTOF
Ms type: MS2
Ion mode: POSITIVE
Ionization: ESI
Fragmentation mode: CID
Collision energy: 20 eV
Resolution: 35000
Column name: Acclaim RSLC C18 2.2um, 2.1x100mm, Thermo
Retention time: 3.8 min
Base peak: 205.0722
Precursor m/z: 205.0794
Precursor type: [M+H]+
m/z	relative intensity	assigned
123.021	8	C10H3+
129.0625	13	C6H11NS+
145.0735	5	C9H9N2+
178.0588	246	C9H10N2S+
179.0628	22	C8[13]CH10N2S+
180.0616	6	C10H12N[34]S+
205.0762	999	C11H13N2S+
206.0792	101	C10[13]CH13N2S+
