Mass spectrum: Oxybutynin; LC-ESI-QTOF; MS2; CE: 20 eV; R=35000; [M+H]+
Name: Oxybutynin
Name: 4-(diethylamino)but-2-ynyl 2-cyclohexyl-2-hydroxy-2-phenylacetate
Formula: C22H31NO3
Exact mass: 357.2303939
SMILES: CCN(CC)CC#CCOC(=O)C(O)(C1CCCCC1)C1=CC=CC=C1
InChI: InChI=1S/C22H31NO3/c1-3-23(4-2)17-11-12-18-26-21(24)22(25,19-13-7-5-8-14-19)20-15-9-6-10-16-20/h5,7-8,13-14,20,25H,3-4,6,9-10,15-18H2,1-2H3
Instrument: Bruker maXis Impact
Instrument type: LC-ESI-QTOF
Ms type: MS2
Ion mode: POSITIVE
Ionization: ESI
Fragmentation mode: CID
Collision energy: 20 eV
Resolution: 35000
Column name: Acclaim RSLC C18 2.2um, 2.1x100mm, Thermo
Retention time: 8.489 min
Base peak: 358.2376
Precursor m/z: 358.2377
Precursor type: [M+H]+
m/z	relative intensity	assigned
124.111	59	C8H14N+
142.1214	60	C8H16NO+
171.1153	7	C13H15+
189.1258	13	C13H17O+
199.1105	5	C14H15O+
258.1477	12	C16H20NO2+
340.2264	62	C22H30NO2+
341.2293	14	C21[13]CH30NO2+
358.2378	999	C22H32NO3+
359.2405	334	C21[13]CH32NO3+
360.2429	32	C20[13]C2H32NO3+
