Mass spectrum: LSD; LC-ESI-QTOF; MS2; CE: 10 eV; R=35000; [M+Na]+
Name: LSD
Name: D-Lysergic acid N,N-diethylamide
Name: N,N-diethyl-7-methyl-6,6a,8,9-tetrahydro-4H-indolo[4,3-fg]quinoline-9-carboxamide
Formula: C20H25N3O
Exact mass: 323.1997624
SMILES: CCN(CC)C(=O)C1CN(C2CC3=CNC4=CC=CC(=C34)C2=C1)C
InChI: InChI=1S/C20H25N3O/c1-4-23(5-2)20(24)14-9-16-15-7-6-8-17-19(15)13(11-21-17)10-18(16)22(3)12-14/h6-9,11,14,18,21H,4-5,10,12H2,1-3H3
Instrument: Bruker maXis Impact
Instrument type: LC-ESI-QTOF
Ms type: MS2
Ion mode: POSITIVE
Ionization: ESI
Fragmentation mode: CID
Collision energy: 10 eV
Resolution: 35000
Column name: Acclaim RSLC C18 2.2um, 2.1x100mm, Thermo
Retention time: 9.402 min
Base peak: 748.4866
Precursor m/z: 346.189
Precursor type: [M+Na]+
m/z	relative intensity	assigned
133.0884	91	C9H11N+
174.9923	584	C9N2NaO+
176.989	187	C8N3NaO+
177.1145	67	C11H15NO+
252.9979	999	C18NNa+
254.9964	125	C17N2Na+
