Mass spectrum: 7-Diethylamino-4-methylcoumarin; LC-ESI-QTOF; MS2; CE: 40 eV; R=35000; [M+H]+
Name: 7-Diethylamino-4-methylcoumarin
Name: 7-(diethylamino)-4-methylchromen-2-one
Formula: C14H17NO2
Exact mass: 231.1259288
SMILES: CCN(CC)C1=CC=C2C(C)=CC(=O)OC2=C1
InChI: InChI=1S/C14H17NO2/c1-4-15(5-2)11-6-7-12-10(3)8-14(16)17-13(12)9-11/h6-9H,4-5H2,1-3H3
Instrument: Bruker maXis Impact
Instrument type: LC-ESI-QTOF
Ms type: MS2
Ion mode: POSITIVE
Ionization: ESI
Fragmentation mode: CID
Collision energy: 40 eV
Resolution: 35000
Column name: Acclaim RSLC C18 2.2um, 2.1x100mm, Thermo
Retention time: 9.798 min
Base peak: 232.1326
Precursor m/z: 232.1332
Precursor type: [M+H]+
m/z	relative intensity	assigned
115.0535	58	C9H7+
116.0614	44	C9H8+
117.0574	15	C8H7N+
117.0678	24	C9H9+
118.0401	5	C8H6O+
118.065	18	C8H8N+
119.0711	12	C8H9N+
120.0791	16	C8H10N+
128.0603	5	C10H8+
130.0648	20	C9H8N+
131.0489	67	C9H7O+
131.0704	12	C9H9N+
132.0557	96	C9H8O+
132.0796	112	C9H10N+
133.0634	14	C9H9O+
133.0842	17	C8[13]CH10N+
134.0596	6	C8H8NO+
134.0955	10	C9H12N+
142.0649	11	C10H8N+
143.0721	27	C10H9N+
144.0796	129	C10H10N+
145.0517	13	C9H7NO+
145.062	5	C10H9O+
145.0837	18	C9[13]CH10N+
146.0595	45	C9H8NO+
146.0958	40	C10H12N+
147.0656	14	C9H9NO+
147.1011	16	C10H13N+
148.0743	7	C9H10NO+
148.1107	38	C10H14N+
157.088	9	C11H11N+
158.0955	33	C11H12N+
159.0665	9	C10H9NO+
160.0506	25	C10H8O2+
160.0748	161	C10H10NO+
160.1112	38	C11H14N+
161.0579	8	C10H9O2+
161.0795	25	C9[13]CH10NO+
161.1189	26	C11H15N+
162.1238	15	C11H16N+
172.1106	37	C12H14N+
173.0853	6	C11H11NO+
173.1184	11	C12H15N+
174.0662	72	C11H10O2+
174.0905	169	C11H12NO+
174.1272	10	C12H16N+
175.097	34	C10[13]CH12NO+
176.1058	11	C11H14NO+
176.1424	107	C12H18N+
177.1459	15	C11[13]CH18N+
186.1264	7	C13H16N+
188.0697	999	C11H10NO2+
189.0729	134	C10[13]CH10NO2+
189.113	11	C12H15NO+
192.0405	11	C13H6NO+
202.0855	115	C12H12NO2+
202.1226	6	C13H16NO+
203.0896	19	C11[13]CH12NO2+
204.1024	8	C12H14NO2+
204.1366	15	C13H18NO+
216.0998	38	C13H14NO2+
217.1048	10	C13H15NO2+
232.133	85	C14H18NO2+
233.137	12	C13[13]CH18NO2+
