Mass spectrum: Imidacloprid; LC-ESI-QTOF; MS2; CE: 10 eV; R=35000; [M+H]+
Name: Imidacloprid
Name: N-[1-[(6-chloropyridin-3-yl)methyl]-4,5-dihydroimidazol-2-yl]nitramide
Formula: C9H10ClN5O2
Exact mass: 255.0523022
SMILES: [O-][N+](=O)NC1=NCCN1CC1=CN=C(Cl)C=C1
InChI: InChI=1S/C9H10ClN5O2/c10-8-2-1-7(5-12-8)6-14-4-3-11-9(14)13-15(16)17/h1-2,5H,3-4,6H2,(H,11,13)
Instrument: Bruker maXis Impact
Instrument type: LC-ESI-QTOF
Ms type: MS2
Ion mode: POSITIVE
Ionization: ESI
Fragmentation mode: CID
Collision energy: 10 eV
Resolution: 35000
Column name: Acclaim RSLC C18 2.2um, 2.1x100mm, Thermo
Retention time: 4.6 min
Base peak: 163.1221
Precursor m/z: 256.0596
Precursor type: [M+H]+
m/z	relative intensity	assigned
128.0254	10	C9H4O+
174.0891	38	C9H10N4+
175.0968	296	C9H11N4+
209.0583	293	C9H10ClN4+
210.0655	283	C8[13]CH10ClN4+
211.0555	83	
212.0593	187	C9H11ClN3O+
213.0613	16	C8[13]CH11ClN3O+
214.0455	42	
226.0605	7	C9H11ClN4O+
256.0594	999	C9H11ClN5O2+
257.0617	87	C8[13]CH11ClN5O2+
258.0564	248	C9CH11[37]ClN5O2+
259.0585	14	C8[13]CH11[37]ClN5O2+
