Mass spectrum: Perfluorooctanesulfonamide; LC-ESI-QTOF; MS2; CE: 40 eV; R=35000; [M-H]-
Name: Perfluorooctanesulfonamide
Name: 1,1,2,2,3,3,4,4,5,5,6,6,7,7,8,8,8-heptadecafluorooctane-1-sulfonamide
Formula: C8H2F17NO2S
Exact mass: 498.9534790
SMILES: NS(=O)(=O)C(F)(F)C(F)(F)C(F)(F)C(F)(F)C(F)(F)C(F)(F)C(F)(F)C(F)(F)F
InChI: InChI=1S/C8H2F17NO2S/c9-1(10,3(13,14)5(17,18)7(21,22)23)2(11,12)4(15,16)6(19,20)8(24,25)29(26,27)28/h(H2,26,27,28)
Instrument: Bruker maXis Impact
Instrument type: LC-ESI-QTOF
Ms type: MS2
Ion mode: NEGATIVE
Ionization: ESI
Fragmentation mode: CID
Collision energy: 40 eV
Resolution: 35000
Column name: Acclaim RSLC C18 2.2um, 2.1x100mm, Thermo
Retention time: 11.456 min
Base peak: 497.9461
Precursor m/z: 497.9462
Precursor type: [M-H]-
m/z	relative intensity	assigned
168.9895	482	C3F7-
497.9471	999	C8HF17NO2S-
