Mass spectrum: Genistein; LC-ESI-QTOF; MS2; CE: 10 eV; R=35000; [M-H]-
Name: Genistein
Name: 5,7-dihydroxy-3-(4-hydroxyphenyl)chromen-4-one
Formula: C15H10O5
Exact mass: 270.0528234
SMILES: OC1=CC=C(C=C1)C1=COC2=CC(O)=CC(O)=C2C1=O
InChI: InChI=1S/C15H10O5/c16-9-3-1-8(2-4-9)11-7-20-13-6-10(17)5-12(18)14(13)15(11)19/h1-7,16-18H
Instrument: Bruker maXis Impact
Instrument type: LC-ESI-QTOF
Ms type: MS2
Ion mode: NEGATIVE
Ionization: ESI
Fragmentation mode: CID
Collision energy: 10 eV
Resolution: 35000
Column name: Acclaim RSLC C18 2.2um, 2.1x100mm, Thermo
Retention time: 7.489 min
Base peak: 269.0455
Precursor m/z: 269.0455
Precursor type: [M-H]-
m/z	relative intensity	assigned
269.0454	999	C15H9O5-
270.0481	151	C14[13]CH9O5-
271.0507	17	C13[13]C2H9O5-
