Mass spectrum: Pioglitazone; LC-ESI-QTOF; MS2; CE: 30 eV; R=35000; [M+H]+
Name: Pioglitazone
Name: 5-[[4-[2-(5-ethylpyridin-2-yl)ethoxy]phenyl]methyl]-1,3-thiazolidine-2,4-dione
Formula: C19H20N2O3S
Exact mass: 356.1194635
SMILES: CCC1=CN=C(CCOC2=CC=C(CC3SC(=O)NC3=O)C=C2)C=C1
InChI: InChI=1S/C19H20N2O3S/c1-2-13-3-6-15(20-12-13)9-10-24-16-7-4-14(5-8-16)11-17-18(22)21-19(23)25-17/h3-8,12,17H,2,9-11H2,1H3,(H,21,22,23)
Instrument: Bruker maXis Impact
Instrument type: LC-ESI-QTOF
Ms type: MS2
Ion mode: POSITIVE
Ionization: ESI
Fragmentation mode: CID
Collision energy: 30 eV
Resolution: 35000
Column name: Acclaim RSLC C18 2.2um, 2.1x100mm, Thermo
Retention time: 9.087 min
Base peak: 357.1274
Precursor m/z: 357.1267
Precursor type: [M+H]+
m/z	relative intensity	assigned
118.0643	12	C8H8N+
119.0723	95	C8H9N+
120.0784	13	C7[13]CH9N+
134.0958	999	C9H12N+
135.1023	260	C6H15O3+
136.1061	16	C5[13]CH15O3+
240.1374	10	C16H18NO+
241.1449	17	C16H19NO+
286.1255	9	C17H20NOS+
357.1269	754	C19H21N2O3S+
358.13	122	C18[13]CH21N2O3S+
359.1262	26	C19H21N2O3[34]S+
