Mass spectrum: Dicyclohexylphthalate; LC-ESI-QTOF; MS2; CE: 10 eV; R=35000; [M+H]+
Name: Dicyclohexylphthalate
Name: Dicyclohexyl phthalate
Name: dicyclohexyl benzene-1,2-dicarboxylate
Formula: C20H26O4
Exact mass: 330.1831093
SMILES: O=C(OC1CCCCC1)C1=CC=CC=C1C(=O)OC1CCCCC1
InChI: InChI=1S/C20H26O4/c21-19(23-15-9-3-1-4-10-15)17-13-7-8-14-18(17)20(22)24-16-11-5-2-6-12-16/h7-8,13-16H,1-6,9-12H2
Instrument: Bruker maXis Impact
Instrument type: LC-ESI-QTOF
Ms type: MS2
Ion mode: POSITIVE
Ionization: ESI
Fragmentation mode: CID
Collision energy: 10 eV
Resolution: 35000
Column name: Acclaim RSLC C18 2.2um, 2.1x100mm, Thermo
Retention time: 13.088 min
Base peak: 331.1904
Precursor m/z: 331.1904
Precursor type: [M+H]+
m/z	relative intensity	assigned
149.0222	666	C8H5O3+
150.0253	41	C7[13]CH5O3+
167.0328	999	C8H7O4+
168.0361	70	C7[13]CH7O4+
169.0377	7	C8H7O3[18]O+
231.101	163	C14H15O3+
232.104	24	C13[13]CH15O3+
249.1118	998	C14H17O4+
250.115	104	C13[13]CH17O4+
251.1173	10	C12[13]C2H17O4+
331.1905	307	C20H27O4+
332.1934	63	C19[13]CH27O4+
333.1965	7	C18[13]C2H27O4+
