Mass spectrum: Sulfadimethoxine; LC-ESI-QTOF; MS2; CE: 40 eV; R=35000; [M-H]-
Name: Sulfadimethoxine
Name: 4-amino-N-(2,6-dimethoxypyrimidin-4-yl)benzenesulfonamide
Formula: C12H14N4O4S
Exact mass: 310.0735759
SMILES: COC1=CC(NS(=O)(=O)C2=CC=C(N)C=C2)=NC(OC)=N1
InChI: InChI=1S/C12H14N4O4S/c1-19-11-7-10(14-12(15-11)20-2)16-21(17,18)9-5-3-8(13)4-6-9/h3-7H,13H2,1-2H3,(H,14,15,16)
Instrument: Bruker maXis Impact
Instrument type: LC-ESI-QTOF
Ms type: MS2
Ion mode: NEGATIVE
Ionization: ESI
Fragmentation mode: CID
Collision energy: 40 eV
Resolution: 35000
Column name: Acclaim RSLC C18 2.2um, 2.1x100mm, Thermo
Retention time: 4.777 min
Base peak: 309.0658
Precursor m/z: 309.0663
Precursor type: [M-H]-
m/z	relative intensity	assigned
122.0347	704	C5H4N3O-
131.0584	826	C5H9NO3-
139.0396	833	C7H7O3-
154.0598	999	C6H8N3O2-
171.0233	618	C6H7N2O2S-
