Mass spectrum: Dioctyl Adipate; GC-APCI-QTOF; MS2; CE: 20 eV; R=35000; [M+H]+
Name: Dioctyl Adipate
Formula: C22H42O4
Exact mass: 370.3083
SMILES: CCCCC(CC)COC(=O)CCCCC(=O)OCC(CC)CCCC
InChI: InChI=1S/C22H42O4/c1-5-9-13-19(7-3)17-25-21(23)15-11-12-16-22(24)26-18-20(8-4)14-10-6-2/h19-20H,5-18H2,1-4H3
Instrument: Bruker 450 GC coupled to maXis Impact
Instrument type: GC-APCI-QTOF
Ms type: MS2
Ion mode: POSITIVE
Ionization: APCI
Fragmentation mode: CID
Collision energy: 20 eV
Resolution: 35000
Column name: Rxi-5Sil MS column, 30m, 0.25mm i.d., 0.25Âµm film thickness, Restek
Retention time: 22.755 min
Base peak: 371.3148
Precursor m/z: 371.3156
Precursor type: [M+H]+
m/z	relative intensity	assigned
55.0539	10	C4H7+
57.0704	76	C4H9+
69.0703	15	C5H9+
71.0856	83	C5H11+
101.0594	34	C5H9O2+
111.0432	55	C6H7O2+
129.0541	804	C6H9O3+
143.0697	8	C7H11O3+
145.0494	6	C6H9O4+
147.0632	999	C6H11O4+
161.0784	5	C7H13O4+
241.1823	26	C14H25O3+
259.1929	11	C14H27O4+
