Mass spectrum: Droperidol; LC-ESI-QTOF; MS2; CE: 20 eV; R=35000; [M+Na]+
Name: Droperidol
Name: 3-[1-[4-(4-fluorophenyl)-4-oxobutyl]-3,6-dihydro-2H-pyridin-4-yl]-1H-benzimidazol-2-one
Formula: C22H22FN3O2
Exact mass: 379.1696052
SMILES: c1ccc2c(c1)nc(n2C3=CCN(CC3)CCCC(=O)c4ccc(cc4)F)O
InChI: InChI=1S/C22H22FN3O2/c23-17-9-7-16(8-10-17)21(27)6-3-13-25-14-11-18(12-15-25)26-20-5-2-1-4-19(20)24-22(26)28/h1-2,4-5,7-11H,3,6,12-15H2,(H,24,28)
Instrument: Bruker maXis Impact
Instrument type: LC-ESI-QTOF
Ms type: MS2
Ion mode: POSITIVE
Ionization: ESI
Fragmentation mode: CID
Collision energy: 20 eV
Resolution: 35000
Column name: Acclaim RSLC C18 2.2um, 2.1x100mm, Thermo
Retention time: 6.432 min
Base peak: 380.1797
Precursor m/z: 402.1588
Precursor type: [M+Na]+
m/z	relative intensity	assigned
118.1469	24	C6H18N2+
400.1524	70	C22H20FN3NaO2+
401.1522	43	C22H21FN3NaO2+
402.1613	999	C22H22FN3NaO2+
403.1645	305	C21[13]CH22FN3NaO2+
