Mass spectrum: 4-Hydroxy-1-(2-hydroxyethyl)-2,2,6,6-tetramethylpiperidine; LC-ESI-QTOF; MS2; CE: Ramp 18.1-27.1 eV; R=35000; [M+H]+
Name: 4-Hydroxy-1-(2-hydroxyethyl)-2,2,6,6-tetramethylpiperidine
Name: 1-Piperidineethanol, 4-hydroxy-2,2,6,6-tetramethyl-
Name: 1-(2-hydroxyethyl)-2,2,6,6-tetramethylpiperidin-4-ol
Formula: C11H23NO2
Exact mass: 201.1728790
SMILES: CC1(C)CC(O)CC(C)(C)N1CCO
InChI: InChI=1S/C11H23NO2/c1-10(2)7-9(14)8-11(3,4)12(10)5-6-13/h9,13-14H,5-8H2,1-4H3
Instrument: Bruker maXis Impact
Instrument type: LC-ESI-QTOF
Ms type: MS2
Ion mode: POSITIVE
Ionization: ESI
Fragmentation mode: CID
Collision energy: Ramp 18.1-27.1 eV
Resolution: 35000
Column name: Acclaim RSLC C18 2.2um, 2.1x100mm, Thermo
Retention time: 1.354 min
Base peak: 202.1799
Precursor m/z: 202.1802
Precursor type: [M+H]+
m/z	relative intensity	assigned
55.0537	8	C4H7+
57.0694	65	C4H9+
58.0645	20	C3H8N+
59.0487	16	C3H7O+
60.0441	7	C2H6NO+
62.0596	745	C2H8NO+
63.0629	12	C[13]CH8NO+
67.0538	19	C5H7+
72.0438	6	C3H6NO+
81.0696	53	C6H9+
83.0853	22	C6H11+
84.0808	74	C5H10N+
85.0648	218	C5H9O+
86.0679	9	C4[13]CH9O+
88.0757	15	C4H10NO+
95.086	5	C7H11+
102.0925	999	C5H12NO+
103.0957	28	C4[13]CH12NO+
123.1168	39	C9H15+
128.1065	9	C7H14NO+
146.1166	28	C7H16NO2+
202.1798	804	C11H24NO2+
203.1833	106	C10[13]CH24NO2+
204.185	6	C9[13]C2H24NO2+
