Mass spectrum: Picolinafen; LC-ESI-QTOF; MS2; CE: 10 eV; R=35000; [M-H]-
Name: Picolinafen
Name: N-(4-fluorophenyl)-6-[3-(trifluoromethyl)phenoxy]pyridine-2-carboxamide
Formula: C19H12F4N2O2
Exact mass: 376.0834905
SMILES: FC1=CC=C(NC(=O)C2=NC(OC3=CC=CC(=C3)C(F)(F)F)=CC=C2)C=C1
InChI: InChI=1S/C19H12F4N2O2/c20-13-7-9-14(10-8-13)24-18(26)16-5-2-6-17(25-16)27-15-4-1-3-12(11-15)19(21,22)23/h1-11H,(H,24,26)
Instrument: Bruker maXis Impact
Instrument type: LC-ESI-QTOF
Ms type: MS2
Ion mode: NEGATIVE
Ionization: ESI
Fragmentation mode: CID
Collision energy: 10 eV
Resolution: 35000
Column name: Acclaim RSLC C18 2.2um, 2.1x100mm, Thermo
Retention time: 12.296 min
Base peak: 375.075
Precursor m/z: 375.0762
Precursor type: [M-H]-
m/z	relative intensity	assigned
210.0567	13	C13H8NO2-
238.0463	50	C15H6F2N-
375.075	999	C19H11F4N2O2-
376.076	199	C18[13]CH11F4N2O2-
377.0782	24	C17[13]C2H11F4N2O2-
