Mass spectrum: Fenfluramine; LC-ESI-QTOF; MS2; CE: 50 eV; R=35000; [M+H]+
Name: Fenfluramine
Name: N-ethyl-1-[3-(trifluoromethyl)phenyl]propan-2-amine
Formula: C12H16F3N
Exact mass: 231.1234842
SMILES: CCNC(C)CC1=CC(=CC=C1)C(F)(F)F
InChI: InChI=1S/C12H16F3N/c1-3-16-9(2)7-10-5-4-6-11(8-10)12(13,14)15/h4-6,8-9,16H,3,7H2,1-2H3
Instrument: Bruker maXis Impact
Instrument type: LC-ESI-QTOF
Ms type: MS2
Ion mode: POSITIVE
Ionization: ESI
Fragmentation mode: CID
Collision energy: 50 eV
Resolution: 35000
Column name: Acclaim RSLC C18 2.2um, 2.1x100mm, Thermo
Retention time: 6.2 min
Base peak: 232.1302
Precursor m/z: 232.1308
Precursor type: [M+H]+
m/z	relative intensity	assigned
133.0246	14	C6H4F3+
137.0383	12	C11H5+
139.0343	103	C8H5F2+
140.0375	8	C9H4N2+
146.0516	9	C10H7F+
147.0342	74	C8H4FN2+
148.0373	8	C7[13]CH4FN2+
158.0324	9	C8H5F3+
159.0406	999	C8H6F3+
160.0442	75	C7[13]CH6F3+
