Mass spectrum: 4-Methylbenzylidene camphor; LC-ESI-QTOF; MS2; CE: 30 eV; R=35000; [M+H]+
Name: 4-Methylbenzylidene camphor
Name: 1,7,7-Trimethyl-3-(4-methylbenzylidene)bicyclo[2.2.1]heptan-2-one
Name: 1,7,7-trimethyl-3-[(4-methylphenyl)methylidene]bicyclo[2.2.1]heptan-2-one
Formula: C18H22O
Exact mass: 254.1670653
SMILES: CC1=CC=C(C=C2C3CCC(C)(C2=O)C3(C)C)C=C1
InChI: InChI=1S/C18H22O/c1-12-5-7-13(8-6-12)11-14-15-9-10-18(4,16(14)19)17(15,2)3/h5-8,11,15H,9-10H2,1-4H3
Instrument: Bruker maXis Impact
Instrument type: LC-ESI-QTOF
Ms type: MS2
Ion mode: POSITIVE
Ionization: ESI
Fragmentation mode: CID
Collision energy: 30 eV
Resolution: 35000
Column name: Acclaim RSLC C18 2.2um, 2.1x100mm, Thermo
Retention time: 12.690 min
Base peak: 255.1739
Precursor m/z: 255.1743
Precursor type: [M+H]+
m/z	relative intensity	assigned
111.0794	5	C7H11O+
115.0531	40	C9H7+
117.069	54	C9H9+
119.0479	93	C8H7O+
119.0843	247	C9H11+
120.053	11	C7[13]CH7O+
120.0882	32	C8[13]CH11+
121.0638	34	C8H9O+
121.0997	30	C9H13+
122.0706	10	C8H10O+
123.0797	42	C8H11O+
123.115	9	C9H15+
127.0534	5	C10H7+
128.0608	120	C10H8+
129.0682	141	C10H9+
130.0756	99	C10H10+
131.0841	217	C10H11+
132.0876	24	C9[13]CH11+
133.0643	6	C9H9O+
133.0998	45	C10H13+
134.105	5	C9[13]CH13+
135.0789	51	C9H11O+
135.1156	57	C10H15+
136.1198	6	C9[13]CH15+
137.0949	47	C9H13O+
139.1101	11	C9H15O+
141.0686	100	C11H9+
142.0762	264	C11H10+
143.0838	506	C11H11+
144.0884	80	C10[13]CH11+
145.0998	459	C11H13+
146.1032	52	C10[13]CH13+
147.0787	32	C10H11O+
147.1148	31	C11H15+
148.0858	6	C10H12O+
149.095	12	C10H13O+
150.102	14	C10H14O+
152.0608	12	C12H8+
153.0682	63	C12H9+
154.0757	41	C12H10+
155.084	234	C12H11+
156.0915	329	C12H12+
157.0996	697	C12H13+
158.0715	18	C11H10O+
158.1032	88	C11[13]CH13+
159.078	36	C11H11O+
159.115	170	C12H15+
160.0826	6	C10[13]CH11O+
160.119	23	C11[13]CH15+
161.0953	16	C11H13O+
163.1104	100	C11H15O+
164.1132	13	C10[13]CH15O+
165.0683	216	C13H9+
166.0755	143	C13H10+
167.0837	107	C13H11+
168.0911	56	C13H12+
169.0995	277	C13H13+
170.0715	10	C12H10O+
170.105	61	C12[13]CH13+
171.0787	264	C12H11O+
171.1155	745	C13H15+
172.0838	39	C11[13]CH11O+
172.1189	102	C12[13]CH15+
173.0942	38	C12H13O+
173.129	15	C13H17+
174.0984	6	C11[13]CH13O+
178.0773	23	C14H10+
179.084	141	C14H11+
180.092	313	C14H12+
181.0636	12	C13H9O+
181.0988	226	C14H13+
182.0714	14	C13H10O+
182.1069	119	C14H14+
183.0778	17	C13H11O+
183.1153	325	C14H15+
184.087	37	C13H12O+
184.1201	63	C13[13]CH15+
185.0948	323	C13H13O+
185.1309	69	C14H17+
186.0999	77	C13H14O+
186.1346	9	C13[13]CH17+
187.1102	39	C13H15O+
188.1158	6	C12[13]CH15O+
192.0914	18	C15H12+
193.0999	170	C15H13+
194.1068	187	C15H14+
195.1154	607	C15H15+
196.0874	53	C14H12O+
196.1203	105	C14[13]CH15+
197.0948	306	C14H13O+
197.1308	170	C15H17+
198.1008	72	C13[13]CH13O+
198.1347	26	C14[13]CH17+
199.1104	381	C14H15O+
200.1146	70	C13[13]CH15O+
201.1283	8	C14H17O+
206.1068	8	C16H14+
207.1154	176	C16H15+
208.1231	133	C16H16+
209.1313	144	C16H17+
210.1345	17	C15[13]CH17+
211.1106	153	C15H15O+
211.1469	51	C16H19+
212.1187	999	C15H16O+
213.1244	364	C15H17O+
213.1636	21	C16H21+
214.1286	52	C14[13]CH17O+
220.1238	12	C17H16+
221.1318	7	C17H17+
222.1387	125	C17H18+
223.1421	28	C16[13]CH18+
225.1265	48	C16H17O+
226.0425	5	C17H6O+
226.1344	37	C16H18O+
227.142	121	C16H19O+
228.1455	16	C15[13]CH19O+
235.1487	9	C18H19+
237.1628	128	C18H21+
238.166	17	C17[13]CH21+
240.1496	46	C17H20O+
241.1556	8	C16[13]CH20O+
255.1733	82	C18H23O+
256.1772	14	C17[13]CH23O+
