Mass spectrum: Dimethenamid-OXA; LC-ESI-QTOF; MS2; CE: 50 eV; R=35000; [M+H]+
Name: Dimethenamid-OXA
Name: 2-[(2,4-dimethylthiophen-3-yl)-(1-methoxypropan-2-yl)amino]-2-oxoacetic acid
Formula: C12H17NO4S
Exact mass: 271.0878290
SMILES: COCC(C)N(C(=O)C(O)=O)c1c(C)csc1C
InChI: InChI=1S/C12H17NO4S/c1-7-6-18-9(3)10(7)13(8(2)5-17-4)11(14)12(15)16/h6,8H,5H2,1-4H3,(H,15,16)
Instrument: Bruker maXis Impact
Instrument type: LC-ESI-QTOF
Ms type: MS2
Ion mode: POSITIVE
Ionization: ESI
Fragmentation mode: CID
Collision energy: 50 eV
Resolution: 35000
Column name: Acclaim RSLC C18 2.2um, 2.1x100mm, Thermo
Retention time: 6.0 min
Base peak: 150.1115
Precursor m/z: 272.0951
Precursor type: [M+H]+
m/z	relative intensity	assigned
111.0266	87	C6H7S+
120.0803	80	C8H10N+
123.0144	94	C6H5NS+
126.0363	999	C6H8NS+
127.0389	108	C6H7O3+
132.08	95	C9H10N+
134.0972	103	C3H18O3S+
136.0201	132	C4H8O3S+
137.0273	96	C4H9O3S+
138.0362	400	C7H8NS+
150.0349	162	C5H10O3S+
152.0146	176	C4H8O4S+
152.0531	181	C8H10NS+
154.0299	103	C4H10O4S+
