Mass spectrum: 2-Aminopyridine; LC-ESI-QTOF; MS2; CE: Ramp 14.4-21.6 eV; R=35000; [M+H]+
Name: 2-Aminopyridine
Name: pyridin-2-amine
Formula: C5H6N2
Exact mass: 94.05309819
SMILES: NC1=NC=CC=C1
InChI: InChI=1S/C5H6N2/c6-5-3-1-2-4-7-5/h1-4H,(H2,6,7)
Instrument: Bruker maXis Impact
Instrument type: LC-ESI-QTOF
Ms type: MS2
Ion mode: POSITIVE
Ionization: ESI
Fragmentation mode: CID
Collision energy: Ramp 14.4-21.6 eV
Resolution: 35000
Column name: Acclaim RSLC C18 2.2um, 2.1x100mm, Thermo
Retention time: 1.362 min
Base peak: 61.039
Precursor m/z: 95.0604
Precursor type: [M+H]+
m/z	relative intensity	assigned
95.0621	999	C5H7N2+
