Mass spectrum: Propachlor-ESA; LC-ESI-QTOF; MS2; CE: 30 eV; R=35000; [M+H]+
Name: Propachlor-ESA
Name: 2-oxo-2-(N-propan-2-ylanilino)ethanesulfonic acid
Formula: C11H15NO4S
Exact mass: 257.0721790
SMILES: CC(C)N(C(=O)CS(O)(=O)=O)C1=CC=CC=C1
InChI: InChI=1S/C11H15NO4S/c1-9(2)12(10-6-4-3-5-7-10)11(13)8-17(14,15)16/h3-7,9H,8H2,1-2H3,(H,14,15,16)
Instrument: Bruker maXis Impact
Instrument type: LC-ESI-QTOF
Ms type: MS2
Ion mode: POSITIVE
Ionization: ESI
Fragmentation mode: CID
Collision energy: 30 eV
Resolution: 35000
Column name: Acclaim RSLC C18 2.2um, 2.1x100mm, Thermo
Retention time: 5.2 min
Base peak: 150.1114
Precursor m/z: 258.0795
Precursor type: [M+H]+
m/z	relative intensity	assigned
117.0579	313	C2H13O3S+
198.0217	717	C8H8NO3S+
256.1102	999	C11H16N2O5+
