Mass spectrum: Morphine; LC-ESI-QTOF; MS2; CE: 20 eV; R=35000; [M+H]+
Name: Morphine
Name: (4R,4aR,7S,7aR,12bS)-3-methyl-2,4,4a,7,7a,13-hexahydro-1H-4,12-methanobenzofuro[3,2-e]isoquinoline-7,9-diol
Formula: C17H19NO3
Exact mass: 285.1364935
SMILES: CN1CC[C@]23[C@@H]4[C@H]1CC5=C2C(=C(C=C5)O)O[C@H]3[C@H](C=C4)O
InChI: InChI=1S/C17H19NO3/c1-18-7-6-17-10-3-5-13(20)16(17)21-15-12(19)4-2-9(14(15)17)8-11(10)18/h2-5,10-11,13,16,19-20H,6-8H2,1H3/t10-,11+,13-,16-,17-/m0/s1
Instrument: Bruker maXis Impact
Instrument type: LC-ESI-QTOF
Ms type: MS2
Ion mode: POSITIVE
Ionization: ESI
Fragmentation mode: CID
Collision energy: 20 eV
Resolution: 35000
Column name: Acclaim RSLC C18 2.2um, 2.1x100mm, Thermo
Retention time: 2.713 min
Base peak: 286.1455
Precursor m/z: 286.1438
Precursor type: [M+H]+
m/z	relative intensity	assigned
201.0918	14	C13H13O2+
211.076	6	C14H11O2+
229.0869	15	C14H13O3+
268.1343	6	C17H18NO2+
286.1457	999	C17H20NO3+
287.1489	169	C16[13]CH20NO3+
288.1513	14	C15[13]C2H20NO3+
