Mass spectrum: Loratadine; LC-ESI-QTOF; MS2; CE: 50 eV; R=35000; [M+H]+
Name: Loratadine
Name: ethyl 4-(8-chloro-5,6-dihydrobenzo[1,2]cyclohepta[2,4-b]pyridin-11-ylidene)piperidine-1-carboxylate
Formula: C22H23ClN2O2
Exact mass: 382.1448057
SMILES: CCOC(=O)N1CCC(=C2c3ccc(cc3CCc4c2nccc4)Cl)CC1
InChI: InChI=1S/C22H23ClN2O2/c1-2-27-22(26)25-12-9-15(10-13-25)20-19-8-7-18(23)14-17(19)6-5-16-4-3-11-24-21(16)20/h3-4,7-8,11,14H,2,5-6,9-10,12-13H2,1H3
Instrument: Bruker maXis Impact
Instrument type: LC-ESI-QTOF
Ms type: MS2
Ion mode: POSITIVE
Ionization: ESI
Fragmentation mode: CID
Collision energy: 50 eV
Resolution: 35000
Column name: Acclaim RSLC C18 2.2um, 2.1x100mm, Thermo
Retention time: 11.737 min
Base peak: 383.1528
Precursor m/z: 383.1521
Precursor type: [M+H]+
m/z	relative intensity	assigned
130.0642	5	C9H8N+
192.0801	7	C14H10N+
193.0875	21	C14H11N+
194.0927	5	C13[13]CH11N+
214.0412	74	C13H9ClN+
215.0443	11	C12[13]CH9ClN+
216.0382	20	C13H9[37]ClN+
216.0798	7	C16H10N+
217.0879	15	C16H11N+
218.0954	20	C16H12N+
219.1024	11	C10H18ClNO2+
220.1006	7	C14H17Cl+
226.0415	7	C17H6O+
227.0478	7	C17H7O+
228.0567	58	C14H11ClN+
229.0642	53	C14H12ClN+
230.0542	15	C14H11[37]ClN+
230.096	26	C17H12N+
231.0614	14	C14H12[37]ClN+
231.1039	121	C17H13N+
232.1105	62	C11H19ClNO2+
233.1175	23	C11H20ClNO2+
238.0413	8	C18H6O+
242.0732	5	C15H13ClN+
242.0957	10	C18H12N+
243.1039	90	C18H13N+
244.1113	113	C18H14N+
245.1187	84	C12H20ClNO2+
246.1268	99	C18H16N+
247.1334	42	C12H22ClNO2+
248.0938	12	C16H12N2O+
248.1382	6	C11[13]CH22ClNO2+
251.0489	13	C19H7O+
252.0572	133	C16H11ClN+
253.0646	126	C16H12ClN+
254.0559	33	C16H11[37]ClN+
255.0619	29	C16H12[37]ClN+
256.0678	5	C16H13ClO+
256.1116	17	C19H14N+
257.119	24	C19H15N+
258.1277	451	C19H16N+
259.1349	590	C19H17N+
260.1388	92	C18[13]CH17N+
261.1427	6	C17[13]C2H17N+
264.057	13	C20H8O+
265.0646	17	C20H9O+
266.073	515	C17H13ClN+
267.0806	999	C17H14ClN+
268.0813	125	C16[13]CH14ClN+
269.0779	197	C17H14[37]ClN+
270.0553	10	C15H11ClN2O+
270.0815	20	C17H15ClO+
277.0651	14	C18H12ClN+
278.0725	66	C21H10O+
279.0807	243	C18H14ClN+
280.0883	456	C18H15ClN+
281.0784	41	C18H14[37]ClN+
281.0951	284	C18H16ClN+
282.0867	85	C18H15[37]ClN+
282.1014	119	C18H17ClN+
283.0632	13	C16H12ClN2O+
283.0933	64	C18H16[37]ClN+
284.1004	34	C18H17[37]ClN+
292.0887	73	C19H15ClN+
293.0933	22	C18[13]CH15ClN+
294.1041	102	C19H17ClN+
295.1071	25	C18[13]CH17ClN+
296.1018	30	C19H17[37]ClN+
302.1408	15	C20H18N2O+
322.0866	22	C19H15ClN2O+
323.0894	5	C18[13]CH15ClN2O+
324.0843	6	C19H15[37]ClN2O+
335.095	5	C20H16ClN2O+
337.1099	47	C20H18ClN2O+
338.1133	10	C19[13]CH18ClN2O+
339.1074	15	C20H18[37]ClN2O+
339.1627	6	C21H24ClN2+
