Mass spectrum: N-Butylbenzenesulfonamide; LC-ESI-QTOF; MS2; CE: 20 eV; R=35000; [M-H]-
Name: N-Butylbenzenesulfonamide
Name: N-butylbenzenesulfonamide
Formula: C10H15NO2S
Exact mass: 213.0823497
SMILES: CCCCNS(=O)(=O)C1=CC=CC=C1
InChI: InChI=1S/C10H15NO2S/c1-2-3-9-11-14(12,13)10-7-5-4-6-8-10/h4-8,11H,2-3,9H2,1H3
Instrument: Bruker maXis Impact
Instrument type: LC-ESI-QTOF
Ms type: MS2
Ion mode: NEGATIVE
Ionization: ESI
Fragmentation mode: CID
Collision energy: 20 eV
Resolution: 35000
Column name: Acclaim RSLC C18 2.2um, 2.1x100mm, Thermo
Retention time: 7.718 min
Base peak: 212.076
Precursor m/z: 212.0751
Precursor type: [M-H]-
m/z	relative intensity	assigned
136.0433	152	C4H10NO2S-
141.0014	358	C6H5O2S-
146.1006	263	C10H12N-
148.1153	263	C10H14N-
156.0116	169	C6H6NO2S-
212.075	999	C10H14NO2S-
