Mass spectrum: Methyl salicylate; GC-APCI-QTOF; MS2; CE: 10 eV; R=35000; [M+H]+
Name: Methyl salicylate
Formula: C8H8O3
Exact mass: 152.0473
SMILES: COC(=O)C1=CC=CC=C1O
InChI: InChI=1S/C8H8O3/c1-11-8(10)6-4-2-3-5-7(6)9/h2-5,9H,1H3
Instrument: Bruker 450 GC coupled to maXis Impact
Instrument type: GC-APCI-QTOF
Ms type: MS2
Ion mode: POSITIVE
Ionization: APCI
Fragmentation mode: CID
Collision energy: 10 eV
Resolution: 35000
Column name: Rxi-5Sil MS column, 30m, 0.25mm i.d., 0.25Âµm film thickness, Restek
Retention time: 9.588 min
Base peak: 153.0564
Precursor m/z: 153.0546
Precursor type: [M+H]+
m/z	relative intensity	assigned
92.0251	60	C6H4O+
95.0491	7	C6H7O+
109.064	8	C7H9O+
120.0196	609	C7H4O2+
121.0272	999	C7H5O2+
138.0315	457	C7H6O3+
139.0356	51	C7H7O3+
152.0493	81	C8H8O3+
153.0566	430	C8H9O3+
