Mass spectrum: 2-(2-(Chlorophenyl)amino)benzaldehyde; LC-ESI-QTOF; MS2; CE: 50 eV; R=35000; [M+H]+
Name: 2-(2-(Chlorophenyl)amino)benzaldehyde
Name: 2-[(2-Chlorophenyl)amino]-benzaldehyde
Name: 2-(2-chloroanilino)benzaldehyde
Formula: C13H10ClNO
Exact mass: 231.0450916
SMILES: ClC1=CC=CC=C1NC1=C(C=O)C=CC=C1
InChI: InChI=1S/C13H10ClNO/c14-11-6-2-4-8-13(11)15-12-7-3-1-5-10(12)9-16/h1-9,15H
Instrument: Bruker maXis Impact
Instrument type: LC-ESI-QTOF
Ms type: MS2
Ion mode: POSITIVE
Ionization: ESI
Fragmentation mode: CID
Collision energy: 50 eV
Resolution: 35000
Column name: Acclaim RSLC C18 2.2um, 2.1x100mm, Thermo
Retention time: 11.394 min
Base peak: 277.0772
Precursor m/z: 232.0524
Precursor type: [M+H]+
m/z	relative intensity	assigned
125.0377	27	C10H5+
127.0181	14	C6H6ClN+
127.0529	19	C10H7+
128.0495	17	C9H6N+
139.0537	16	C11H7+
140.0468	15	C10H6N+
145.0645	22	C10H9O+
149.0383	18	C12H5+
150.0452	208	C12H6+
151.0527	325	C12H7+
152.0599	191	C12H8+
153.057	32	C11H7N+
153.064	34	C11[13]CH8+
154.0641	32	C11H8N+
166.0631	35	C12H8N+
167.0478	15	C12H7O+
167.0713	215	C12H9N+
168.079	124	C12H10N+
169.0633	680	C12H9O+
170.0646	83	C11[13]CH9O+
176.0482	12	C13H6N+
177.0563	999	C13H7N+
178.0635	694	C13H8N+
179.0708	868	C13H9N+
180.0792	696	C13H10N+
181.0827	108	C12[13]CH10N+
194.0581	43	C13H8NO+
195.0644	22	C13H9NO+
196.0744	103	C13H10NO+
197.0786	12	C12[13]CH10NO+
204.0542	48	C12H11ClN+
214.0409	216	C13H9ClN+
215.0451	31	C12[13]CH9ClN+
216.0371	85	C13H9[37]ClN+
217.042	18	C13H10ClO+
