Mass spectrum: Cocaine; LC-ESI-QTOF; MS2; CE: 40 eV; R=35000; [M+H]+
Name: Cocaine
Name: methyl (1S,3S,4R,5R)-3-benzoyloxy-8-methyl-8-azabicyclo[3.2.1]octane-4-carboxylate
Formula: C17H21NO4
Exact mass: 303.1470582
SMILES: CN1[C@H]2CC[C@@H]1[C@H]([C@H](C2)OC(=O)c3ccccc3)C(=O)OC
InChI: InChI=1S/C17H21NO4/c1-18-12-8-9-13(18)15(17(20)21-2)14(10-12)22-16(19)11-6-4-3-5-7-11/h3-7,12-15H,8-10H2,1-2H3/t12-,13+,14-,15+/m0/s1
Instrument: Bruker maXis Impact
Instrument type: LC-ESI-QTOF
Ms type: MS2
Ion mode: POSITIVE
Ionization: ESI
Fragmentation mode: CID
Collision energy: 40 eV
Resolution: 35000
Column name: Acclaim RSLC C18 2.2um, 2.1x100mm, Thermo
Retention time: 5.0 min
Base peak: 304.1545
Precursor m/z: 304.1543
Precursor type: [M+H]+
m/z	relative intensity	assigned
117.0568	9	C8H7N+
118.0405	20	C8H6O+
119.0482	136	C8H7O+
120.0517	10	C3H8N2O3+
122.0591	8	C7H8NO+
122.0955	124	C8H12N+
123.0798	6	C8H11O+
123.0988	10	C7[13]CH12N+
125.0584	22	C7H9O2+
150.0901	256	C9H12NO+
151.0738	18	C9H11O2+
151.0935	18	C8[13]CH12NO+
154.0849	73	C8H12NO2+
155.0884	5	C7[13]CH12NO2+
164.1056	5	C7H16O4+
182.1166	999	C10H16NO2+
183.1199	89	C14H15+
184.1219	9	C13[13]CH15+
