Mass spectrum: Ecgonine-methyl-ester (EME); LC-ESI-QTOF; MS2; CE: 50 eV; R=35000; [M+H]+
Name: Ecgonine-methyl-ester (EME)
Name: AC1L9FBF
Name: methyl (3S,4R)-3-hydroxy-8-methyl-8-azabicyclo[3.2.1]octane-4-carboxylate
Formula: C10H17NO3
Exact mass: 199.1208434
SMILES: COC(=O)[C@@H]1C2CCC(C[C@@H]1O)N2C
InChI: InChI=1S/C10H17NO3/c1-11-6-3-4-7(11)9(8(12)5-6)10(13)14-2/h6-9,12H,3-5H2,1-2H3/t6?,7?,8-,9+/m0/s1
Instrument: Bruker maXis Impact
Instrument type: LC-ESI-QTOF
Ms type: MS2
Ion mode: POSITIVE
Ionization: ESI
Fragmentation mode: CID
Collision energy: 50 eV
Resolution: 35000
Column name: Acclaim RSLC C18 2.2um, 2.1x100mm, Thermo
Retention time: 1.4 min
Base peak: 200.1277
Precursor m/z: 200.1281
Precursor type: [M+H]+
m/z	relative intensity	assigned
117.0578	450	C8H7N+
119.0493	559	C8H7O+
122.0599	605	C7H8NO+
122.0949	839	C5H14O3+
135.0669	513	C8H9NO+
138.0539	679	C7H8NO2+
152.0694	645	C8H10NO2+
154.0851	707	C8H12NO2+
182.1161	999	C10H16NO2+
