Mass spectrum: Dimethylaminophenazone; LC-ESI-QTOF; MS2; CE: 20 eV; R=35000; [M+H]+
Name: Dimethylaminophenazone
Name: Aminopyrine
Name: 4-(dimethylamino)-1,5-dimethyl-2-phenylpyrazol-3-one
Formula: C13H17N3O
Exact mass: 231.1371622
SMILES: CN(C)C1=C(C)N(C)N(C1=O)C1=CC=CC=C1
InChI: InChI=1S/C13H17N3O/c1-10-12(14(2)3)13(17)16(15(10)4)11-8-6-5-7-9-11/h5-9H,1-4H3
Instrument: Bruker maXis Impact
Instrument type: LC-ESI-QTOF
Ms type: MS2
Ion mode: POSITIVE
Ionization: ESI
Fragmentation mode: CID
Collision energy: 20 eV
Resolution: 35000
Column name: Acclaim RSLC C18 2.2um, 2.1x100mm, Thermo
Retention time: 4.933 min
Base peak: 232.1443
Precursor m/z: 232.1444
Precursor type: [M+H]+
m/z	relative intensity	assigned
111.0907	100	C6H11N2+
113.1065	131	C6H13N2+
114.1112	9	C5[13]CH13N2+
117.0567	5	C8H7N+
118.0642	162	C8H8N+
119.0671	15	C7[13]CH8N+
123.0539	19	C6H7N2O+
125.0723	7	C6H9N2O+
127.0864	11	C6H11N2O+
128.0487	12	C9H6N+
129.1022	9	C6H13N2O+
130.0629	10	C9H8N+
132.0434	123	C8H6NO+
132.0792	25	C9H10N+
133.0472	15	C7[13]CH6NO+
133.0751	59	C8H9N2+
134.0587	37	C8H8NO+
139.085	118	C7H11N2O+
140.0898	13	C6[13]CH11N2O+
142.0666	5	C10H8N+
144.0791	14	C10H10N+
145.0861	5	C10H11N+
146.0585	98	C9H8NO+
147.0622	11	C8[13]CH8NO+
147.0905	25	C9H11N2+
149.1059	284	C9H13N2+
150.1089	24	C8[13]CH13N2+
155.0692	8	C11H9N+
158.0586	37	C10H8NO+
159.0902	582	C10H11N2+
160.0745	6	C10H10NO+
160.0936	72	C9[13]CH11N2+
161.069	8	C9H9N2O+
161.1052	8	C10H13N2+
162.0782	8	C9H10N2O+
163.1206	10	C10H15N2+
169.0762	5	C11H9N2+
170.058	8	C11H8NO+
172.0616	12	C10H8N2O+
173.1069	21	C11H13N2+
175.085	121	C10H11N2O+
176.0883	13	C9[13]CH11N2O+
177.101	723	C10H13N2O+
178.1038	79	C9[13]CH13N2O+
179.1091	5	C8[13]C2H13N2O+
185.0689	16	C11H9N2O+
187.0851	300	C11H11N2O+
188.0929	156	C11H12N2O+
189.0976	27	C10[13]CH12N2O+
189.1246	6	C11H15N3+
199.0863	9	C12H11N2O+
200.0928	6	C12H12N2O+
201.1018	57	C12H13N2O+
202.0971	56	C11H12N3O+
203.1006	9	C10[13]CH12N3O+
204.1489	20	C12H18N3+
214.1328	43	C13H16N3+
215.1348	8	C12[13]CH16N3+
216.1122	148	C12H14N3O+
217.1196	226	C12H15N3O+
218.1224	44	C11[13]CH15N3O+
230.1277	109	C13H16N3O+
231.1337	25	C12[13]CH16N3O+
232.1438	999	C13H18N3O+
233.1462	141	C12[13]CH18N3O+
234.1506	12	C11[13]C2H18N3O+
