Mass spectrum: Aniline Yellow; LC-ESI-QTOF; MS2; CE: 30 eV; R=35000; [M+H]+
Name: Aniline Yellow
Formula: C12H11N3
Exact mass: 197.0952974
SMILES: NC1=CC=C(C=C1)\N=N\C1=CC=CC=C1
InChI: InChI=1S/C12H11N3/c13-10-6-8-12(9-7-10)15-14-11-4-2-1-3-5-11/h1-9H,13H2/b15-14+
Instrument: Bruker maXis Impact
Instrument type: LC-ESI-QTOF
Ms type: MS2
Ion mode: POSITIVE
Ionization: ESI
Fragmentation mode: CID
Collision energy: 30 eV
Resolution: 35000
Column name: Acclaim RSLC C18 2.2um, 2.1x100mm, Thermo
Retention time: 9.284 min
Base peak: 198.1018
Precursor m/z: 198.1026
Precursor type: [M+H]+
m/z	relative intensity	assigned
128.0616	128	C10H8+
141.0703	80	C11H9+
151.0545	77	C12H7+
152.0602	999	C12H8+
154.0638	121	C11H8N+
167.0732	95	C12H9N+
168.08	125	C12H10N+
169.0634	151	C10H7N3+
169.088	441	C12H11N+
181.0737	351	C12H9N2+
182.0803	123	C12H10N2+
183.0762	88	C11H9N3+
196.0862	258	C12H10N3+
197.0903	143	C12H11N3+
198.1004	537	C12H12N3+
