Mass spectrum: Decoquinate; LC-ESI-QTOF; MS2; CE: 30 eV; R=35000; [M+H]+
Name: Decoquinate
Name: ethyl 6-decoxy-7-ethoxy-4-oxo-1H-quinoline-3-carboxylate
Formula: C24H35NO5
Exact mass: 417.2515232
SMILES: CCCCCCCCCCOc1cc2c(cc1OCC)ncc(c2O)C(=O)OCC
InChI: InChI=1S/C24H35NO5/c1-4-7-8-9-10-11-12-13-14-30-21-15-18-20(16-22(21)28-5-2)25-17-19(23(18)26)24(27)29-6-3/h15-17H,4-14H2,1-3H3,(H,25,26)
Instrument: Bruker maXis Impact
Instrument type: LC-ESI-QTOF
Ms type: MS2
Ion mode: POSITIVE
Ionization: ESI
Fragmentation mode: CID
Collision energy: 30 eV
Resolution: 35000
Column name: Acclaim RSLC C18 2.2um, 2.1x100mm, Thermo
Retention time: 13.4 min
Base peak: 418.2581
Precursor m/z: 418.2588
Precursor type: [M+H]+
m/z	relative intensity	assigned
204.029	7	C10H6NO4+
222.0401	7	C10H8NO5+
232.0606	13	C12H10NO4+
250.071	24	C12H12NO5+
372.2172	247	C22H30NO4+
373.2204	56	C22H31NO4+
374.2268	6	C21[13]CH31NO4+
390.228	999	C22H32NO5+
391.2312	178	C22H33NO5+
392.2346	20	C20[13]C2H32NO5+
418.2595	59	C24H36NO5+
419.2624	15	C23[13]CH36NO5+
