Mass spectrum: Normianserin; LC-ESI-QTOF; MS2; CE: 50 eV; R=35000; [M+H]+
Name: Normianserin
Name: Desmethylmianserin
Formula: C17H18N2
Exact mass: 250.1469986
SMILES: c1ccc2c(c1)Cc3ccccc3N4C2CNCC4
InChI: InChI=1S/C17H18N2/c1-3-7-15-13(5-1)11-14-6-2-4-8-16(14)19-10-9-18-12-17(15)19/h1-8,17-18H,9-12H2
Instrument: Bruker maXis Impact
Instrument type: LC-ESI-QTOF
Ms type: MS2
Ion mode: POSITIVE
Ionization: ESI
Fragmentation mode: CID
Collision energy: 50 eV
Resolution: 35000
Column name: Acclaim RSLC C18 2.2um, 2.1x100mm, Thermo
Retention time: 7.3 min
Base peak: 251.1543
Precursor m/z: 251.1543
Precursor type: [M+H]+
m/z	relative intensity	assigned
116.0494	42	C8H6N+
116.0606	53	C9H8+
117.0568	213	C8H7N+
118.0647	314	C8H8N+
119.0707	40	C7[13]CH8N+
120.08	99	C8H10N+
126.0448	12	C10H6+
127.0537	16	C10H7+
128.0502	22	C9H6N+
128.0612	133	C10H8+
129.0685	57	C10H9+
131.0708	68	C9H9N+
132.0692	41	C8H8N2+
132.0798	177	C9H10N+
139.0524	9	C11H7+
140.0485	9	C10H6N+
141.0693	30	C11H9+
142.064	27	C10H8N+
143.0721	105	C10H9N+
144.0798	98	C10H10N+
145.0639	16	C8H7N3+
145.0761	24	C9H9N2+
146.0619	6	C9H8NO+
146.096	30	C10H12N+
147.0909	114	C9H11N2+
151.055	6	C12H7+
152.0613	97	C12H8+
153.0676	24	C12H9+
155.0599	15	C10H7N2+
156.0803	18	C11H10N+
157.0877	16	C11H11N+
158.0962	27	C11H12N+
159.0909	22	C10H11N2+
168.0799	10	C12H10N+
169.065	9	C12H9O+
176.06	19	C14H8+
177.0683	47	C14H9+
179.0605	6	C12H7N2+
179.0833	126	C14H11+
180.0805	53	C13H10N+
181.0861	16	C13H11N+
181.0993	29	C14H13+
182.0962	6	C13H12N+
189.0686	22	C15H9+
190.0761	15	C15H10+
191.0842	49	C15H11+
192.0808	110	C14H10N+
193.0881	999	C14H11N+
194.0928	188	C13[13]CH11N+
202.0766	21	C16H10+
203.0838	16	C16H11+
205.0866	57	C15H11N+
208.1112	172	C15H14N+
215.0832	7	C17H11+
216.0822	12	C16H10N+
217.0876	102	C16H11N+
218.0957	163	C16H12N+
219.1003	40	C15[13]CH12N+
220.1116	31	C16H14N+
221.1061	17	C15H13N2+
222.127	6	C16H16N+
231.1033	8	C17H13N+
232.1111	18	C17H14N+
233.109	15	C16H13N2+
234.1106	6	C16H14N2+
235.1234	8	C16H15N2+
249.1431	8	C17H17N2+
