Mass spectrum: Azoxystrobin; LC-ESI-QTOF; MS2; CE: 40 eV; R=35000; [M+H]+
Name: Azoxystrobin
Name: Methyl (E)-2-[2-[6-(2-cyanophenoxy)pyrimidin-4-YL]oxyphenyl]-3-methoxy-prop-2-enoate
Formula: C22H17N3O5
Exact mass: 403.1168206
SMILES: CO/C=C(\C1=CC=CC=C1OC2=NC=NC(=C2)OC3=CC=CC=C3C#N)/C(=O)OC
InChI: InChI=1S/C22H17N3O5/c1-27-13-17(22(26)28-2)16-8-4-6-10-19(16)30-21-11-20(24-14-25-21)29-18-9-5-3-7-15(18)12-23/h3-11,13-14H,1-2H3/b17-13+
Instrument: Bruker maXis Impact
Instrument type: LC-ESI-QTOF
Ms type: MS2
Ion mode: POSITIVE
Ionization: ESI
Fragmentation mode: CID
Collision energy: 40 eV
Resolution: 35000
Column name: Acclaim RSLC C18 2.2um, 2.1x100mm, Thermo
Retention time: 8.9 min
Base peak: 404.1239
Precursor m/z: 404.1241
Precursor type: [M+H]+
m/z	relative intensity	assigned
129.0436	10	C8H5N2+
133.0508	8	C5H9O4+
141.0431	6	C6H7NO3+
145.0271	13	C7H3N3O+
145.0508	8	C6H9O4+
162.0538	5	C9H8NO2+
170.0454	6	C7H8NO4+
171.0294	6	C7H7O5+
171.0538	19	C7H9NO4+
173.0437	9	C5H7N3O4+
177.0533	12	C8H7N3O2+
182.0701	10	C11H8N3+
183.054	89	C11H7N2O+
184.0576	10	C10[13]CH7N2O+
201.0409	53	C11H7NO3+
202.0463	7	C10[13]CH7NO3+
211.048	13	C9H9NO5+
216.0646	60	C12H10NO3+
217.0683	7	C11[13]CH10NO3+
242.0309	6	C12H6N2O4+
273.0884	22	C17H11N3O+
274.0716	8	C14H12NO5+
274.0903	6	C16[13]CH11N3O+
275.0799	6	C14H13NO5+
288.1121	5	C18H14N3O+
289.0957	6	C15H15NO5+
301.0841	104	C18H11N3O2+
303.077	5	C18H11N2O3+
312.0762	6	C19H10N3O2+
316.1075	22	C19H14N3O2+
317.0915	5	C19H13N2O3+
317.1092	5	C18[13]CH14N3O2+
329.0794	999	C19H11N3O3+
330.0825	179	C19H12N3O3+
344.1028	331	C20H14N3O3+
345.1053	70	C20H15N3O3+
372.0975	36	C21H14N3O4+
