Mass spectrum: Promethazin; LC-ESI-QTOF; MS2; CE: 40 eV; R=35000; [M+H]+
Name: Promethazin
Name: Promethazine
Name: N,N-dimethyl-1-phenothiazin-10-ylpropan-2-amine
Formula: C17H20N2S
Exact mass: 284.1347196
SMILES: CC(CN1C2=CC=CC=C2SC2=CC=CC=C12)N(C)C
InChI: InChI=1S/C17H20N2S/c1-13(18(2)3)12-19-14-8-4-6-10-16(14)20-17-11-7-5-9-15(17)19/h4-11,13H,12H2,1-3H3
Instrument: Bruker maXis Impact
Instrument type: LC-ESI-QTOF
Ms type: MS2
Ion mode: POSITIVE
Ionization: ESI
Fragmentation mode: CID
Collision energy: 40 eV
Resolution: 35000
Column name: Acclaim RSLC C18 2.2um, 2.1x100mm, Thermo
Retention time: 7.334 min
Base peak: 285.1416
Precursor m/z: 285.142
Precursor type: [M+H]+
m/z	relative intensity	assigned
130.0646	8	C9H8N+
136.0206	12	C7H6NS+
154.0639	67	C11H8N+
155.0661	7	C10[13]CH8N+
162.036	47	C12H4N+
163.0391	6	C11[13]CH4N+
166.0646	11	C12H8N+
171.0251	19	C11H7S+
180.0798	6	C13H10N+
193.087	13	C14H11N+
197.0284	22	C12H7NS+
198.0364	999	C12H8NS+
199.0399	167	C11[13]CH8NS+
200.0326	41	C12H8N[34]S+
206.0958	41	C15H12N+
207.1018	29	C15H13N+
208.1097	12	C15H14N+
224.0518	40	C14H10NS+
225.0593	76	C14H11NS+
226.0631	12	C13[13]CH11NS+
239.0751	5	C15H13NS+
240.0838	23	C15H14NS+
