Mass spectrum: Octyl-methoxycinnamate; LC-ESI-QTOF; MS2; CE: 20 eV; R=35000; [M+H]+
Name: Octyl-methoxycinnamate
Name: Octinoxate
Name: 2-ethylhexyl (E)-3-(4-methoxyphenyl)prop-2-enoate
Formula: C18H26O3
Exact mass: 290.1881947
SMILES: CCCCC(CC)COC(=O)\C=C\C1=CC=C(OC)C=C1
InChI: InChI=1S/C18H26O3/c1-4-6-7-15(5-2)14-21-18(19)13-10-16-8-11-17(20-3)12-9-16/h8-13,15H,4-7,14H2,1-3H3/b13-10+
Instrument: Bruker maXis Impact
Instrument type: LC-ESI-QTOF
Ms type: MS2
Ion mode: POSITIVE
Ionization: ESI
Fragmentation mode: CID
Collision energy: 20 eV
Resolution: 35000
Column name: Acclaim RSLC C18 2.2um, 2.1x100mm, Thermo
Retention time: 13.858 min
Base peak: 179.0691
Precursor m/z: 291.1955
Precursor type: [M+H]+
m/z	relative intensity	assigned
133.0634	54	C9H9O+
134.0669	6	C8[13]CH9O+
161.0584	999	C10H9O2+
162.0614	103	C9[13]CH9O2+
163.0635	7	C8[13]C2H9O2+
179.0688	190	C10H11O3+
180.072	23	C9[13]CH11O3+
