Mass spectrum: Ethopabate; LC-ESI-QTOF; MS2; CE: 30 eV; R=35000; [M+H]+
Name: Ethopabate
Name: methyl 4-acetamido-2-ethoxybenzoate
Formula: C12H15NO4
Exact mass: 237.1001080
SMILES: CCOc1cc(ccc1C(=O)OC)NC(=O)C
InChI: InChI=1S/C12H15NO4/c1-4-17-11-7-9(13-8(2)14)5-6-10(11)12(15)16-3/h5-7H,4H2,1-3H3,(H,13,14)
Instrument: Bruker maXis Impact
Instrument type: LC-ESI-QTOF
Ms type: MS2
Ion mode: POSITIVE
Ionization: ESI
Fragmentation mode: CID
Collision energy: 30 eV
Resolution: 35000
Column name: Acclaim RSLC C18 2.2um, 2.1x100mm, Thermo
Retention time: 6.4 min
Base peak: 238.1072
Precursor m/z: 238.1074
Precursor type: [M+H]+
m/z	relative intensity	assigned
118.0651	8	C8H8N+
136.0387	999	C7H6NO2+
136.0751	254	C8H10NO+
137.0227	71	C7H5O3+
137.0418	50	C6[13]CH6NO2+
137.0587	16	C8H9O2+
137.0782	19	C4[13]CH12O4+
146.0594	48	C9H8NO+
147.0434	7	C9H7O2+
164.07	474	C9H10NO2+
165.0539	22	C9H9O3+
165.073	29	C8[13]CH10NO2+
178.0495	59	C9H8NO3+
178.088	8	C10H12NO2+
188.071	9	C11H10NO2+
206.0807	30	C11H12NO3+
