Mass spectrum: Novobiocin; LC-ESI-QTOF; MS2; CE: 30 eV; R=35000; [M+H]+
Name: Novobiocin
Name: novobiocin
Name: [(3R,4S,5R,6R)-5-hydroxy-6-[4-hydroxy-3-[[4-hydroxy-3-(3-methylbut-2-enyl)benzoyl]amino]-8-methyl-2-oxochromen-7-yl]oxy-3-methoxy-2,2-dimethyloxan-4-yl] carbamate
Formula: C31H36N2O11
Exact mass: 612.2319100
SMILES: Cc1c(ccc2c1oc(=O)c(c2O)NC(=O)c3ccc(c(c3)CC=C(C)C)O)O[C@H]4[C@@H]([C@@H]([C@H](C(O4)(C)C)OC)OC(=O)N)O
InChI: InChI=1S/C31H36N2O11/c1-14(2)7-8-16-13-17(9-11-19(16)34)27(37)33-21-22(35)18-10-12-20(15(3)24(18)42-28(21)38)41-29-23(36)25(43-30(32)39)26(40-6)31(4,5)44-29/h7,9-13,23,25-26,29,34-36H,8H2,1-6H3,(H2,32,39)(H,33,37)/t23-,25+,26-,29-/m1/s1
Instrument: Bruker maXis Impact
Instrument type: LC-ESI-QTOF
Ms type: MS2
Ion mode: POSITIVE
Ionization: ESI
Fragmentation mode: CID
Collision energy: 30 eV
Resolution: 35000
Column name: Acclaim RSLC C18 2.2um, 2.1x100mm, Thermo
Retention time: 11.115 min
Base peak: 150.1141
Precursor m/z: 613.2392
Precursor type: [M+H]+
m/z	relative intensity	assigned
125.0603	68	C7H9O2+
133.0299	47	C8H5O2+
134.0336	8	C3H6N2O4+
143.0715	27	C7H11O3+
157.0872	77	C8H13O3+
158.0906	8	C3H14N2O5+
186.0775	69	C11H10N2O+
189.0929	999	H17N2O9+
191.0978	12	CH19O10+
218.1045	50	C12H14N2O2+
219.1064	8	C6H19O8+
378.1383	17	C15H24NO10+
396.1472	49	C25H20N2O3+
397.1491	13	C19H25O9+
