Mass spectrum: Levamisole; LC-ESI-QTOF; MS2; CE: 30 eV; R=35000; [M+H]+
Name: Levamisole
Name: (6S)-6-phenyl-2,3,5,6-tetrahydroimidazo[2,1-b][1,3]thiazole
Formula: C11H12N2S
Exact mass: 204.0721194
SMILES: c1ccc(cc1)[C@H]2CN3CCSC3=N2
InChI: InChI=1S/C11H12N2S/c1-2-4-9(5-3-1)10-8-13-6-7-14-11(13)12-10/h1-5,10H,6-8H2/t10-/m1/s1
Instrument: Bruker maXis Impact
Instrument type: LC-ESI-QTOF
Ms type: MS2
Ion mode: POSITIVE
Ionization: ESI
Fragmentation mode: CID
Collision energy: 30 eV
Resolution: 35000
Column name: Acclaim RSLC C18 2.2um, 2.1x100mm, Thermo
Retention time: 3.8 min
Base peak: 205.0715
Precursor m/z: 205.0794
Precursor type: [M+H]+
m/z	relative intensity	assigned
115.0466	23	C5H9NS+
117.0497	21	C4H9N2S+
117.0677	28	C9H9+
118.0581	47	C4H10N2S+
123.0209	186	C10H3+
124.0252	13	C9[13]CH3+
128.042	11	C5H8N2S+
128.0552	51	C6H10NS+
129.0622	83	C6H11NS+
130.0578	38	C5H10N2S+
131.0657	23	C5H11N2S+
132.0735	19	C5H12N2S+
135.0211	18	C11H3+
144.0737	32	C6H12N2S+
145.0583	5	C6H11NOS+
145.0697	25	C7H13OS+
146.0529	7	C5H10N2OS+
147.0943	7	C9H11N2+
150.0317	34	C11H4N+
155.0534	7	C8H11OS+
178.0585	999	C9H10N2S+
179.0626	82	C8[13]CH10N2S+
180.0614	27	C10H12N[34]S+
188.0428	15	C10H8N2S+
205.0758	652	C11H13N2S+
206.0794	54	C10[13]CH13N2S+
