Mass spectrum: Rifaximin; LC-ESI-QTOF; MS2; CE: Ramp 31.6-47.3 eV; R=35000; [M+H]+
Name: Rifaximin
Formula: C43H51N3O11
Exact mass: 785.3524
SMILES: C[C@H]1/C=C/C=C(\C(=O)NC2=C(C3=C(C4=C(C(=C3O)C)O[C@@](C4=O)(O/C=C/[C@@H]([C@H]([C@H]([C@@H]([C@@H]([C@@H]([C@H]1O)C)O)C)OC(=O)C)C)OC)C)C5=C2N6C=CC(=CC6=N5)C)O)/C
InChI: InChI=1S/C43H51N3O11/c1-19-14-16-46-28(18-19)44-32-29-30-37(50)25(7)40-31(29)41(52)43(9,57-40)55-17-15-27(54-10)22(4)39(56-26(8)47)24(6)36(49)23(5)35(48)20(2)12-11-13-21(3)42(53)45-33(34(32)46)38(30)51/h11-18,20,22-24,27,35-36,39,48-51H,1-10H3,(H,45,53)/b12-11+,17-15+,21-13-/t20-,22+,23+,24+,27-,35-,36+,39+,43-/m0/s1
Instrument: Bruker maXis Impact
Instrument type: LC-ESI-QTOF
Ms type: MS2
Ion mode: POSITIVE
Ionization: ESI
Fragmentation mode: CID
Collision energy: Ramp 31.6-47.3 eV
Resolution: 35000
Column name: Acclaim RSLC C18 2.2um, 2.1x100mm, Thermo
Retention time: 10.1 min
Base peak: 786.3666
Precursor m/z: 786.3596
Precursor type: [M+H]+
m/z	relative intensity	assigned
55.0532	14	C4H7+
57.0325	15	CH3N3+
60.0545	21	CH6N3+
67.0535	31	C5H7+
69.0332	29	C4H5O+
69.0697	24	C5H9+
71.048	10	C2H5N3+
79.0549	15	C6H7+
81.0697	20	C6H9+
83.0483	11	C3H5N3+
85.0647	19	C5H9O+
93.0705	44	C7H9+
95.0499	78	C6H7O+
95.0861	93	C7H11+
96.0893	12	C2H12N2O2+
97.0656	33	C6H9O+
97.1005	8	C7H13+
105.0719	26	C8H9+
107.0867	67	C8H11+
108.0903	11	C3H12N2O2+
109.0655	30	C7H9O+
109.1026	27	C8H13+
111.0815	16	C7H11O+
119.086	41	C9H11+
121.0655	30	C8H9O+
121.1012	68	C9H13+
122.1046	11	C4H14N2O2+
123.0809	317	C8H11O+
123.1174	27	C9H15+
124.0847	21	C3H12N2O3+
125.0975	38	C8H13O+
133.0644	18	C9H9O+
133.1013	45	C10H13+
135.0806	147	C9H11O+
135.1173	56	C10H15+
136.0842	17	C4H12N2O3+
136.1211	12	C5H16N2O2+
137.0602	15	C8H9O2+
137.0964	99	C9H13O+
137.133	28	C10H17+
139.0753	49	C8H11O2+
139.1118	15	C9H15O+
140.0795	8	C3H12N2O4+
141.0895	8	C6H11N3O+
143.0866	13	C11H11+
145.101	74	C11H13+
146.1039	15	C6H14N2O2+
147.0805	30	C10H11O+
147.1175	105	C11H15+
148.1206	21	C6H16N2O2+
149.0611	24	C9H9O2+
149.0952	35	C8H11N3+
149.1338	19	C11H17+
151.0759	999	C9H11O2+
152.0783	97	C4H12N2O4+
153.091	200	C9H13O2+
154.0948	18	C4H14N2O4+
155.1064	22	C9H15O2+
157.1009	21	C12H13+
158.104	13	C7H14N2O2+
159.1173	78	C12H15+
160.1221	11	C7H16N2O2+
161.0961	160	C11H13O+
161.1343	12	C12H17+
162.0987	14	C6H14N2O3+
163.1124	750	C11H15O+
164.1148	64	C6H16N2O3+
165.0907	13	C10H13O2+
165.1279	84	C11H17O+
166.1296	9	C6H18N2O3+
171.117	15	C13H15+
173.0968	142	C12H13O+
173.1325	93	C13H17+
174.0996	26	C7H14N2O3+
174.1363	12	C8H18N2O2+
175.1123	127	C12H15O+
175.1485	31	C13H19+
176.1177	19	C10H14N3+
177.0921	32	C11H13O2+
177.1287	52	C12H17O+
178.1337	9	C10H16N3+
179.1073	314	C11H15O2+
180.1093	19	C6H16N2O4+
181.1227	48	C11H17O2+
182.125	10	C6H18N2O4+
183.1172	14	C14H15+
183.1381	13	C11H19O2+
185.097	9	C13H13O+
185.1336	58	C14H17+
186.1369	12	C9H18N2O2+
187.1132	10	C13H15O+
187.1481	21	C14H19+
188.1526	8	C9H20N2O2+
189.0901	23	C10H11N3O+
189.127	22	C13H17O+
191.1079	340	C12H15O2+
192.1098	38	C7H16N2O4+
193.1227	107	C12H17O2+
194.1273	12	C7H18N2O4+
195.1189	12	C15H15+
195.1387	10	C12H19O2+
198.1422	11	C15H18+
199.1121	16	C14H15O+
199.1474	28	C15H19+
200.153	9	C10H20N2O2+
201.1282	88	C14H17O+
202.1324	12	C9H18N2O3+
203.1072	19	C13H15O2+
203.1433	49	C14H19O+
205.1237	22	C13H17O2+
207.1028	11	C12H15O3+
209.1174	141	C12H17O3+
210.1213	17	C7H18N2O5+
211.1122	9	C15H15O+
211.1326	31	C12H19O3+
213.1291	50	C15H17O+
213.1646	9	C16H21+
215.1443	20	C15H19O+
216.1467	15	C10H20N2O3+
217.124	17	C14H17O2+
217.1578	10	C13H19N3+
218.1288	9	C12H16N3O+
219.1392	60	C14H19O2+
220.1431	15	C12H18N3O+
221.1531	40	C14H21O2+
223.1498	14	C17H19+
225.1648	21	C17H21+
227.1457	12	C7H21N3O5+
231.1385	51	C15H19O2+
232.1428	12	C10H20N2O4+
235.1344	12	C17H17N+
237.1291	18	C17H17O+
237.1478	15	C12H19N3O2+
241.1576	12	C15H19N3+
241.1948	16	C18H25+
243.174	10	C17H23O+
249.1489	25	C15H21O3+
251.1804	28	C19H23+
253.16	22	C18H21O+
255.1389	13	C17H19O2+
255.1781	11	C9H25N3O5+
257.1578	10	C8H23N3O6+
259.1667	8	C15H21N3O+
261.1647	15	C20H21+
261.187	14	C17H25O2+
264.1503	9	C19H20O+
269.1903	32	C19H25O+
270.1947	14	C14H26N2O3+
271.1697	34	C18H23O2+
277.1881	9	C13H27NO5+
279.1753	61	C20H23O+
280.1781	10	C15H24N2O3+
281.1782	9	C19H23NO+
287.2037	22	C10H29N3O6+
289.1807	26	C18H25O3+
297.1855	114	C20H25O2+
298.1907	26	C18H24N3O+
315.1966	146	C20H27O3+
316.2019	24	C18H26N3O2+
333.2086	33	C23H27NO+
334.2137	11	C20H30O4+
347.1044	74	C23H13N3O+
348.1098	21	C20H16N2O4+
357.2062	9	C22H29O4+
361.1081	47	C22H17O5+
362.1156	477	C22H18O5+
363.1187	86	C17H19N2O7+
364.1205	15	C24H16N2O2+
375.2176	19	C22H31O5+
388.1014	9	C19H18NO8+
466.1874	13	C29H26N2O4+
495.1843	12	C22H29N3O10+
496.1852	11	C26H28N2O8+
511.1772	20	C34H25NO4+
512.1851	32	C34H26NO4+
513.1862	9	C26H29N2O9+
513.2026	8	C30H29N2O6+
540.2266	9	C32H32N2O6+
639.2968	15	C42H41NO5+
676.3092	20	C38H46NO10+
694.3148	23	C42H46O9+
695.3255	15	C42H47O9+
698.3194	9	C40H46N2O9+
708.3427	14	C42H48N2O8+
725.3351	15	C43H49O10+
726.3371	21	C41H48N3O9+
727.3359	8	C42H49NO10+
727.3549	12	C42H51N2O9+
736.3258	65	C42H46N3O9+
737.3359	38	C42H47N3O9+
752.3443	9	C43H50N3O9+
753.3305	8	C42H47N3O10+
754.3421	981	C43H50N2O10+
755.3441	400	C42H49N3O10+
756.3449	114	C42H50N3O10+
757.3476	23	C43H51NO11+
768.3555	45	C43H50N3O10+
768.4003	10	C43H52N4O9+
769.3581	23	C43H51N3O10+
784.3504	61	C43H50N3O11+
785.3514	42	C43H51N3O11+
786.3674	231	C43H52N3O11+
787.3671	104	C42H51N4O11+
788.3777	34	C42H52N4O11+
