Mass spectrum: Norethindrone; LC-ESI-QTOF; MS2; CE: Ramp 21.6-32.4 eV; R=35000; [M+H]+
Name: Norethindrone
Name: (8R,9S,10R,13S,14S,17R)-17-ethynyl-17-hydroxy-13-methyl-1,2,6,7,8,9,10,11,12,14,15,16-dodecahydrocyclopenta[a]phenanthren-3-one
Formula: C20H26O2
Exact mass: 298.1932801
SMILES: C[C@]12CC[C@H]3[C@@H](CCC4=CC(=O)CC[C@H]34)[C@@H]1CC[C@@]2(O)C#C
InChI: InChI=1S/C20H26O2/c1-3-20(22)11-9-18-17-6-4-13-12-14(21)5-7-15(13)16(17)8-10-19(18,20)2/h1,12,15-18,22H,4-11H2,2H3/t15-,16+,17+,18-,19-,20-/m0/s1
Instrument: Bruker maXis Impact
Instrument type: LC-ESI-QTOF
Ms type: MS2
Ion mode: POSITIVE
Ionization: ESI
Fragmentation mode: CID
Collision energy: Ramp 21.6-32.4 eV
Resolution: 35000
Column name: Acclaim RSLC C18 2.2um, 2.1x100mm, Thermo
Retention time: 9.348 min
Base peak: 299.2002
Precursor m/z: 299.2006
Precursor type: [M+H]+
m/z	relative intensity	assigned
55.0175	9	C3H3O+
55.0535	20	C4H7+
67.0534	60	C5H7+
69.0693	19	C5H9+
71.0483	7	C4H7O+
79.0538	110	C6H7+
80.0572	6	C5[13]CH7+
81.0331	12	C5H5O+
81.0693	140	C6H9+
82.0731	10	C5[13]CH9+
83.0487	344	C5H7O+
84.0522	19	C4[13]CH7O+
91.0543	127	C7H7+
92.0581	9	C6[13]CH7+
93.0701	111	C7H9+
94.0732	7	C6[13]CH9+
95.0491	17	C6H7O+
95.0855	72	C7H11+
96.0894	6	C6[13]CH11+
97.0651	23	C6H9O+
103.0542	5	C8H7+
105.0707	92	C8H9+
106.0747	7	C7[13]CH9+
107.05	55	C7H7O+
107.0867	47	C8H11+
108.0549	5	C6[13]CH7O+
108.0896	5	C7[13]CH11+
109.0662	393	C7H9O+
109.1023	26	C8H13+
110.0696	23	C6[13]CH9O+
111.0808	14	C7H11O+
115.053	20	C9H7+
116.0609	7	C9H8+
117.0696	67	C9H9+
118.0727	6	C8[13]CH9+
119.0851	154	C9H11+
120.0883	16	C8[13]CH11+
121.0644	20	C8H9O+
121.1008	47	C9H13+
122.1037	5	C8[13]CH13+
123.0801	41	C8H11O+
123.117	11	C9H15+
128.0612	26	C10H8+
129.0686	65	C10H9+
130.075	17	C10H10+
131.0846	146	C10H11+
132.088	13	C9[13]CH11+
133.0633	19	C9H9O+
133.1001	60	C10H13+
134.1035	5	C9[13]CH13+
135.0794	115	C9H11O+
135.1157	21	C10H15+
136.0829	8	C8[13]CH11O+
137.0945	16	C9H13O+
141.0689	27	C11H9+
142.0758	17	C11H10+
143.0843	116	C11H11+
144.0893	17	C10[13]CH11+
145.0644	8	C10H9O+
145.0999	160	C11H13+
146.1026	14	C10[13]CH13+
147.0793	27	C10H11O+
147.1152	39	C11H15+
148.1192	6	C10[13]CH15+
149.0949	82	C10H13O+
149.1317	9	C11H17+
150.0979	9	C9[13]CH13O+
151.1103	9	C10H15O+
153.0687	6	C12H9+
154.076	7	C12H10+
155.0841	37	C12H11+
156.0915	19	C12H12+
157.0635	8	C11H9O+
157.0997	98	C12H13+
158.105	14	C11[13]CH13+
159.0795	29	C11H11O+
159.1153	70	C12H15+
160.1194	10	C11[13]CH15+
161.0949	71	C11H13O+
161.131	43	C12H17+
162.0995	10	C10[13]CH13O+
163.1104	66	C11H15O+
164.1145	6	C10[13]CH15O+
165.0693	7	C13H9+
166.0751	6	C13H10+
167.084	25	C13H11+
168.0904	12	C13H12+
169.0999	102	C13H13+
170.1047	16	C12[13]CH13+
171.1154	167	C13H15+
172.1197	26	C12[13]CH15+
173.0947	16	C12H13O+
173.1309	90	C13H17+
174.1344	13	C12[13]CH17+
175.1099	46	C12H15O+
176.1136	9	C11[13]CH15O+
177.1264	8	C12H17O+
179.0844	14	C14H11+
180.0911	9	C14H12+
181.0996	46	C14H13+
183.1152	65	C14H15+
184.1201	11	C13[13]CH15+
185.0948	24	C13H13O+
185.1312	74	C14H17+
186.1359	17	C13[13]CH17+
187.1103	28	C13H15O+
187.1472	17	C14H19+
188.1164	10	C13H16O+
189.1258	26	C13H17O+
189.1618	6	C14H21+
191.1426	6	C13H19O+
192.0907	7	C15H12+
193.0998	23	C15H13+
194.1065	9	C15H14+
195.1159	41	C15H15+
196.1205	9	C14[13]CH15+
197.0949	5	C14H13O+
197.1314	41	C15H17+
198.1352	8	C14[13]CH17+
199.1105	16	C14H15O+
199.1468	32	C15H19+
200.15	5	C14[13]CH19+
201.1255	28	C14H17O+
201.1617	7	C15H21+
202.1306	8	C14H18O+
203.1423	10	C14H19O+
205.0994	7	C16H13+
206.1068	8	C16H14+
207.1159	32	C16H15+
208.1223	12	C16H16+
209.1308	26	C16H17+
210.1363	7	C15[13]CH17+
211.1106	14	C15H15O+
211.1469	70	C16H19+
212.1516	13	C15[13]CH19+
213.1261	14	C15H17O+
213.1626	116	C16H21+
214.1666	19	C15[13]CH21+
215.1409	11	C15H19O+
219.115	7	C17H15+
220.1229	7	C17H16+
221.1317	50	C17H17+
222.1366	15	C17H18+
223.1472	72	C17H19+
224.1504	16	C16[13]CH19+
225.1265	18	C16H17O+
225.1628	10	C17H21+
226.1315	6	C16H18O+
227.142	13	C16H19O+
229.1574	20	C16H21O+
231.1736	375	C16H23O+
232.1774	65	C15[13]CH23O+
234.1396	7	C18H18+
235.1477	30	C18H19+
236.1499	6	C17[13]CH19+
237.1624	21	C18H21+
238.167	6	C17[13]CH21+
239.1418	18	C17H19O+
239.1781	27	C18H23+
240.1485	5	C16[13]CH19O+
240.1818	8	C17[13]CH23+
241.1566	22	C17H21O+
248.1544	9	C19H20+
253.1582	23	C18H21O+
253.1951	10	C19H25+
254.1612	5	C17[13]CH21O+
255.175	6	C18H23O+
257.188	12	C18H25O+
263.1785	71	C20H23+
264.1818	16	C19[13]CH23+
266.166	6	C19H22O+
281.1898	158	C20H25O+
282.1925	38	C19[13]CH25O+
299.2006	999	C20H27O2+
300.2035	241	C19[13]CH27O2+
301.2066	23	C18[13]C2H27O2+
