Mass spectrum: 10,11-Dihydro-10,11-dihydroxycarbamazepine; LC-ESI-QTOF; MS2; CE: 30 eV; R=35000; [M+H]+
Name: 10,11-Dihydro-10,11-dihydroxycarbamazepine
Name: Carbazepine 10,11-diol
Name: 5,6-dihydroxy-5,6-dihydrobenzo[b][1]benzazepine-11-carboxamide
Formula: C15H14N2O3
Exact mass: 270.1004423
SMILES: NC(=O)N1C2=CC=CC=C2C(O)C(O)C2=CC=CC=C12
InChI: InChI=1S/C15H14N2O3/c16-15(20)17-11-7-3-1-5-9(11)13(18)14(19)10-6-2-4-8-12(10)17/h1-8,13-14,18-19H,(H2,16,20)
Instrument: Bruker maXis Impact
Instrument type: LC-ESI-QTOF
Ms type: MS2
Ion mode: POSITIVE
Ionization: ESI
Fragmentation mode: CID
Collision energy: 30 eV
Resolution: 35000
Column name: Acclaim RSLC C18 2.2um, 2.1x100mm, Thermo
Retention time: 5.715 min
Base peak: 326.2327
Precursor m/z: 271.1077
Precursor type: [M+H]+
m/z	relative intensity	assigned
165.0698	10	C13H9+
167.0715	28	C9H11O3+
168.0745	4	C8[13]CH11O3+
179.0722	10	C13H9N+
180.0797	999	C13H10N+
181.0839	189	C12[13]CH10N+
182.0952	331	C13H12N+
183.0992	49	C12[13]CH12N+
192.0791	7	C11H12O3+
193.0872	9	C11H13O3+
208.0746	13	C14H10NO+
210.0904	244	C14H12NO+
211.0943	42	C13[13]CH12NO+
254.0791	8	C15H12NO3+
