Mass spectrum: Irbesartan; LC-ESI-QTOF; MS2; CE: 50 eV; R=35000; [M+H]+
Name: Irbesartan
Name: 2-butyl-3-[[4-[2-(2H-tetrazol-5-yl)phenyl]phenyl]methyl]-1,3-diazaspiro[4.4]non-1-en-4-one
Formula: C25H28N6O
Exact mass: 428.2324595
SMILES: CCCCC1=NC2(CCCC2)C(=O)N1CC1=CC=C(C=C1)C1=CC=CC=C1C1=NNN=N1
InChI: InChI=1S/C25H28N6O/c1-2-3-10-22-26-25(15-6-7-16-25)24(32)31(22)17-18-11-13-19(14-12-18)20-8-4-5-9-21(20)23-27-29-30-28-23/h4-5,8-9,11-14H,2-3,6-7,10,15-17H2,1H3,(H,27,28,29,30)
Instrument: Bruker maXis Impact
Instrument type: LC-ESI-QTOF
Ms type: MS2
Ion mode: POSITIVE
Ionization: ESI
Fragmentation mode: CID
Collision energy: 50 eV
Resolution: 35000
Column name: Acclaim RSLC C18 2.2um, 2.1x100mm, Thermo
Retention time: 9.1 min
Base peak: 429.2396
Precursor m/z: 429.2397
Precursor type: [M+H]+
m/z	relative intensity	assigned
129.0444	6	C8H5N2+
140.0487	7	C10H6N+
151.0529	7	C12H7+
163.0528	8	C13H7+
166.0737	8	C6H8N5O+
169.0637	9	C10H7N3+
177.0562	6	C13H7N+
180.0798	333	C13H10N+
192.0681	69	C13H8N2+
192.0786	97	C14H10N+
193.0728	10	C12[13]CH8N2+
193.0818	13	C13[13]CH10N+
194.0586	6	C11H6N4+
195.1484	42	C9H17N5+
196.151	5	C4H18N7O2+
207.091	999	C14H11N2+
208.0942	114	C13[13]CH11N2+
209.0976	7	C12[13]C2H11N2+
