Mass spectrum: Diuron; LC-ESI-QTOF; MS2; CE: 20 eV; R=35000; [M+H]+
Name: Diuron
Name: 3-(3,4-dichlorophenyl)-1,1-dimethylurea
Formula: C9H10Cl2N2O
Exact mass: 232.0170183
SMILES: CN(C)C(=O)NC1=CC(Cl)=C(Cl)C=C1
InChI: InChI=1S/C9H10Cl2N2O/c1-13(2)9(14)12-6-3-4-7(10)8(11)5-6/h3-5H,1-2H3,(H,12,14)
Instrument: Bruker maXis Impact
Instrument type: LC-ESI-QTOF
Ms type: MS2
Ion mode: POSITIVE
Ionization: ESI
Fragmentation mode: CID
Collision energy: 20 eV
Resolution: 35000
Column name: Acclaim RSLC C18 2.2um, 2.1x100mm, Thermo
Retention time: 8.4 min
Base peak: 233.0239
Precursor m/z: 233.0243
Precursor type: [M+H]+
m/z	relative intensity	assigned
125.0024	5	C9HO+
132.9596	7	C5H3Cl2+
152.9961	6	C7H4ClNO+
159.9703	111	C9HClO+
160.9737	9	C8[13]CHClO+
161.9672	68	C9H[37]ClO+
173.0812	5	C9H9N4+
187.9652	153	C7H4Cl2NO+
188.9686	11	C6[13]CH4Cl2NO+
189.9625	78	C7H4[37]Cl[35]ClNO+
205.977	5	C7H6Cl2NO2+
233.0237	999	C9H11Cl2N2O+
234.027	88	C8[13]CH11Cl2N2O+
235.021	477	C9H11[37]Cl[35]ClN2O+
236.0253	35	C8[13]CH11[37]Cl[35]ClN2O+
