Mass spectrum: 1,6-Bis(acryloyloxy)hexane; GC-APCI-QTOF; MS2; CE: 50 eV; R=35000; [M]+
Name: 1,6-Bis(acryloyloxy)hexane
Formula: C12H18O4
Exact mass: 226.1205
SMILES: C=CC(=O)OCCCCCCOC(=O)C=C
InChI: InChI=1S/C12H18O4/c1-3-11(13)15-9-7-5-6-8-10-16-12(14)4-2/h3-4H,1-2,5-10H2
Instrument: Bruker 450 GC coupled to maXis Impact
Instrument type: GC-APCI-QTOF
Ms type: MS2
Ion mode: POSITIVE
Ionization: APCI
Fragmentation mode: CID
Collision energy: 50 eV
Resolution: 35000
Column name: Rxi-5Sil MS column, 30m, 0.25mm i.d., 0.25Âµm film thickness, Restek
Retention time: 19.296 min
Base peak: 228.1953
Precursor m/z: 226.12
Precursor type: [M]+
m/z	relative intensity	assigned
55.0548	999	C4H7+
67.0538	840	C5H7+
