Mass spectrum: Triadimenol; LC-ESI-QTOF; MS2; CE: 10 eV; R=35000; [M+H]+
Name: Triadimenol
Name: 1-(4-chlorophenoxy)-3,3-dimethyl-1-(1,2,4-triazol-1-yl)butan-2-ol
Formula: C14H18ClN3O2
Exact mass: 295.1087545
SMILES: CC(C)(C)C(O)C(OC1=CC=C(Cl)C=C1)N1C=NC=N1
InChI: InChI=1S/C14H18ClN3O2/c1-14(2,3)12(19)13(18-9-16-8-17-18)20-11-6-4-10(15)5-7-11/h4-9,12-13,19H,1-3H3
Instrument: Bruker maXis Impact
Instrument type: LC-ESI-QTOF
Ms type: MS2
Ion mode: POSITIVE
Ionization: ESI
Fragmentation mode: CID
Collision energy: 10 eV
Resolution: 35000
Column name: Acclaim RSLC C18 2.2um, 2.1x100mm, Thermo
Retention time: 9.943 min
Base peak: 459.0855
Precursor m/z: 296.116
Precursor type: [M+H]+
m/z	relative intensity	assigned
144.1354	35	C8H18NO+
203.1045	47	C11H13N3O+
209.0729	87	C12H14ClO+
221.1176	74	C11H15N3O2+
227.0819	999	C10H14ClN3O+
228.0849	161	C9[13]CH14ClN3O+
229.0796	318	C10H14[37]ClN3O+
296.1144	919	C14H19ClN3O2+
297.1179	194	C13[13]CH19ClN3O2+
298.1132	299	C14H19[37]ClN3O2+
