Mass spectrum: Octocrylene; LC-ESI-QTOF; MS2; CE: 20 eV; R=35000; [M+H]+
Name: Octocrylene
Name: 2-ethylhexyl 2-cyano-3,3-diphenylprop-2-enoate
Formula: C24H27NO2
Exact mass: 361.2041791
SMILES: CCCCC(CC)COC(=O)C(C#N)=C(C1=CC=CC=C1)C1=CC=CC=C1
InChI: InChI=1S/C24H27NO2/c1-3-5-12-19(4-2)18-27-24(26)22(17-25)23(20-13-8-6-9-14-20)21-15-10-7-11-16-21/h6-11,13-16,19H,3-5,12,18H2,1-2H3
Instrument: Bruker maXis Impact
Instrument type: LC-ESI-QTOF
Ms type: MS2
Ion mode: POSITIVE
Ionization: ESI
Fragmentation mode: CID
Collision energy: 20 eV
Resolution: 35000
Column name: Acclaim RSLC C18 2.2um, 2.1x100mm, Thermo
Retention time: 13.256 min
Base peak: 379.2376
Precursor m/z: 362.2115
Precursor type: [M+H]+
m/z	relative intensity	assigned
149.0225	23	C11H3N+
182.0957	21	C13H12N+
204.0776	35	C15H10N+
232.0747	992	C16H10NO+
233.0778	187	C15[13]CH10NO+
237.0793	97	C15H11NO2+
238.0815	21	C14[13]CH11NO2+
239.0759	32	C18H9N+
250.0852	999	C16H12NO2+
251.0891	170	C15[13]CH12NO2+
252.0928	26	C20H12+
301.1416	30	C21H19NO+
303.1695	42	C22H23O+
311.0981	79	C21H13NO2+
312.0957	30	C20[13]CH13NO2+
