Mass spectrum: Coumaphos; LC-ESI-QTOF; MS2; CE: 50 eV; R=35000; [M+H]+
Name: Coumaphos
Name: 3-chloro-7-diethoxyphosphinothioyloxy-4-methylchromen-2-one
Formula: C14H16ClO5PS
Exact mass: 362.0144589
SMILES: CCOP(=S)(OCC)Oc1ccc2c(c(c(=O)oc2c1)Cl)C
InChI: InChI=1S/C14H16ClO5PS/c1-4-17-21(22,18-5-2)20-10-6-7-11-9(3)13(15)14(16)19-12(11)8-10/h6-8H,4-5H2,1-3H3
Instrument: Bruker maXis Impact
Instrument type: LC-ESI-QTOF
Ms type: MS2
Ion mode: POSITIVE
Ionization: ESI
Fragmentation mode: CID
Collision energy: 50 eV
Resolution: 35000
Column name: Acclaim RSLC C18 2.2um, 2.1x100mm, Thermo
Retention time: 11.0 min
Base peak: 363.0215
Precursor m/z: 363.0217
Precursor type: [M+H]+
m/z	relative intensity	assigned
115.0542	67	C9H7+
131.0487	154	C9H7O+
132.0557	72	C3H13ClO3+
135.0258	49	C8H7S+
137.0145	25	C7H6OP+
147.0253	127	C9H7S+
147.0432	45	C9H7O2+
148.0326	24	C3H13ClO2S+
148.0517	64	C9H8O2+
150.0223	50	C8H7OP+
155.0274	20	C8H8ClO+
159.043	40	C10H7O2+
163.0206	92	C9H7OS+
164.0278	137	C3H13ClO3S+
165.0084	19	C2H11ClO4P+
166.0179	63	C8H7O2P+
171.0023	39	C7H8OPS+
175.0385	36	C10H7O3+
182.0122	43	C8H7O3P+
191.0161	46	C10H7O2S+
192.0219	19	C4H13ClO4S+
194.0125	151	C9H7O3P+
196.0096	35	C9H9OPS+
196.982	44	C8H6O2PS+
210.0087	38	C10H7ClO3+
211.0156	382	C10H8ClO3+
213.0117	83	C10H8[37]ClO3+
224.9776	19	C10H6ClO2S+
225.9848	337	C9H7O3PS+
226.9924	999	C9H8O3PS+
227.9824	68	C10H7[37]ClO2S+
227.9943	87	C12[13]CH4ClO2+
228.99	224	C10H8[37]ClO2S+
256.9769	66	C10H7ClO4P+
270.9392	30	C10H5ClO3PS+
288.951	73	C10H7ClO4PS+
289.9513	19	C13H4ClO4P+
290.9464	17	C13H5ClO2PS+
290.9836	34	C13H8O4PS+
