Mass spectrum: Niflumic acid; LC-ESI-QTOF; MS2; CE: Ramp 21.0-31.5 eV; R=35000; [M+H]+
Name: Niflumic acid
Name: 2-[3-(trifluoromethyl)anilino]pyridine-3-carboxylic acid
Formula: C13H9F3N2O2
Exact mass: 282.0616
SMILES: c1cc(cc(c1)Nc2c(cccn2)C(=O)O)C(F)(F)F
InChI: InChI=1S/C13H9F3N2O2/c14-13(15,16)8-3-1-4-9(7-8)18-11-10(12(19)20)5-2-6-17-11/h1-7H,(H,17,18)(H,19,20)
Instrument: Bruker maXis Impact
Instrument type: LC-ESI-QTOF
Ms type: MS2
Ion mode: POSITIVE
Ionization: ESI
Fragmentation mode: CID
Collision energy: Ramp 21.0-31.5 eV
Resolution: 35000
Column name: Acclaim RSLC C18 2.2um, 2.1x100mm, Thermo
Retention time: 9.8 min
Base peak: 283.073
Precursor m/z: 283.0689
Precursor type: [M+H]+
m/z	relative intensity	assigned
60.0555	5	C3H8O+
145.0271	7	C7H4F3+
168.0716	8	C5H10F2N2O2+
196.0643	14	C9H9FN2O2+
197.067	5	C7H10F3NO2+
217.0611	11	C9H8F3N2O+
237.0547	6	C12H9F2NO2+
237.0672	8	C12H8F3N2+
245.056	93	C10H8F3N2O2+
246.0576	16	C13H8F2N2O+
263.0654	23	C13H9F2N2O2+
265.0649	999	C13H8F3N2O+
266.0673	164	C13H9F3N2O+
267.0715	12	C13H10F3N2O+
283.0764	371	C13H10F3N2O2+
284.0773	69	C11H10F2N4O3+
