Mass spectrum: Cefazolin; LC-ESI-QTOF; MS2; CE: 50 eV; R=35000; [M+H]+
Name: Cefazolin
Name: cefazolin
Name: (6R,7R)-3-[(5-methyl-1,3,4-thiadiazol-2-yl)sulfanylmethyl]-8-oxo-7-[[2-(tetrazol-1-yl)acetyl]amino]-5-thia-1-azabicyclo[4.2.0]oct-2-ene-2-carboxylic acid
Formula: C14H14N8O4S3
Exact mass: 454.0300139
SMILES: Cc1nnc(s1)SCC2=C(N3[C@@H]([C@@H](C3=O)NC(=O)Cn4cnnn4)SC2)C(=O)O
InChI: InChI=1S/C14H14N8O4S3/c1-6-17-18-14(29-6)28-4-7-3-27-12-9(11(24)22(12)10(7)13(25)26)16-8(23)2-21-5-15-19-20-21/h5,9,12H,2-4H2,1H3,(H,16,23)(H,25,26)/t9-,12-/m1/s1
Instrument: Bruker maXis Impact
Instrument type: LC-ESI-QTOF
Ms type: MS2
Ion mode: POSITIVE
Ionization: ESI
Fragmentation mode: CID
Collision energy: 50 eV
Resolution: 35000
Column name: Acclaim RSLC C18 2.2um, 2.1x100mm, Thermo
Retention time: 4.039 min
Base peak: 455.0422
Precursor m/z: 455.0373
Precursor type: [M+H]+
m/z	relative intensity	assigned
119.0619	311	CH13NO3S+
120.0695	271	CH14NO3S+
122.0067	140	H10O3S2+
124.0224	470	H12O3S2+
125.0263	96	C9H3N+
126.0378	94	H14O3S2+
127.0211	195	C6H7OS+
128.0287	244	C6H8OS+
132.057	103	C9H8O+
132.9898	999	C3H5N2S2+
133.0651	93	C9H9O+
134.0741	126	C4H12N3S+
134.9864	176	C2H3N2O3S+
139.0338	698	H5N5O4+
140.0378	97	C3H10NO3S+
141.0483	168	C6H9N2S+
151.0342	439	CH5N5O4+
152.018	116	C2H8N4S2+
153.0499	346	CH7N5O4+
156.0131	966	CH8N4OS2+
157.0229	87	C3H3N5O3+
161.0834	152	C10H11NO+
162.0891	131	H14N6O2S+
166.0452	268	C9H10OS+
168.0149	102	C4H10NO2S2+
178.0458	263	C5H12N3S2+
180.0595	95	C8H10N3S+
