Mass spectrum: Indomethacin; LC-ESI-QTOF; MS2; CE: Ramp 22.8-34.1 eV; R=35000; [M+H]+
Name: Indomethacin
Name: 2-[1-(4-chlorobenzoyl)-5-methoxy-2-methylindol-3-yl]acetic acid
Formula: C19H16ClNO4
Exact mass: 357.0767857
SMILES: COC1=CC2=C(C=C1)N(C(=O)C1=CC=C(Cl)C=C1)C(C)=C2CC(O)=O
InChI: InChI=1S/C19H16ClNO4/c1-11-15(10-18(22)23)16-9-14(25-2)7-8-17(16)21(11)19(24)12-3-5-13(20)6-4-12/h3-9H,10H2,1-2H3,(H,22,23)
Instrument: Bruker maXis Impact
Instrument type: LC-ESI-QTOF
Ms type: MS2
Ion mode: POSITIVE
Ionization: ESI
Fragmentation mode: CID
Collision energy: Ramp 22.8-34.1 eV
Resolution: 35000
Column name: Acclaim RSLC C18 2.2um, 2.1x100mm, Thermo
Retention time: 10.649 min
Base peak: 372.2323
Precursor m/z: 358.0841
Precursor type: [M+H]+
m/z	relative intensity	assigned
138.9936	999	C7H4ClO+
139.9972	79	C6[13]CH4ClO+
140.9908	275	C7H4[37]ClO+
141.9948	17	C8NO2+
163.0745	9	C10H11O2+
174.0905	40	C11H12NO+
245.1084	35	C14H15NO3+
261.103	8	C14H15NO4+
