Mass spectrum: Metolachlor-ESA; LC-ESI-QTOF; MS2; CE: 30 eV; R=35000; [M+H]+
Name: Metolachlor-ESA
Name: Metolachlor esa
Name: 2-[2-ethyl-N-(1-methoxypropan-2-yl)-6-methylanilino]-2-oxoethanesulfonic acid
Formula: C15H23NO5S
Exact mass: 329.1296938
SMILES: CCC1=CC=CC(C)=C1N(C(C)COC)C(=O)CS(O)(=O)=O
InChI: InChI=1S/C15H23NO5S/c1-5-13-8-6-7-11(2)15(13)16(12(3)9-21-4)14(17)10-22(18,19)20/h6-8,12H,5,9-10H2,1-4H3,(H,18,19,20)
Instrument: Bruker maXis Impact
Instrument type: LC-ESI-QTOF
Ms type: MS2
Ion mode: POSITIVE
Ionization: ESI
Fragmentation mode: CID
Collision energy: 30 eV
Resolution: 35000
Column name: Acclaim RSLC C18 2.2um, 2.1x100mm, Thermo
Retention time: 7.1 min
Base peak: 330.1366
Precursor m/z: 330.137
Precursor type: [M+H]+
m/z	relative intensity	assigned
132.0789	17	C6H12O3+
134.0954	20	C9H12N+
136.1107	40	C6H16O3+
143.0847	13	C11H11+
144.08	20	C10H10N+
145.0857	12	C7H13O3+
146.0954	56	C10H12N+
158.0955	29	C11H12N+
158.1077	26	C12H14+
159.1035	18	C11H13N+
160.111	355	C11H14N+
161.1139	48	C6H15N3O2+
174.1262	214	C9H18O3+
175.1333	135	C9H19O3+
176.1038	13	C8H16O4+
176.1418	241	C9H20O3+
177.1445	28	C8H21N2S+
188.1062	25	C12H14NO+
188.1465	12	C10H22NS+
202.1213	721	C13H16NO+
203.1254	111	C12[13]CH16NO+
204.1286	13	C6H22NO4S+
216.1364	13	C11H20O4+
217.1464	41	C14H19NO+
234.1485	28	C14H20NO2+
258.0797	12	C11H16NO4S+
298.1102	999	C14H20NO4S+
299.1135	152	C13[13]CH20NO4S+
300.1063	59	C14H20NO4[34]S+
