Mass spectrum: 4,4`-Difluorobenzophenonen; GC-APCI-QTOF; MS2; CE: 20 eV; R=35000; [M+H]+
Name: 4,4`-Difluorobenzophenonen
Formula: C13H8F2O
Exact mass: 218.0543
SMILES: C1=CC(=CC=C1C(=O)C2=CC=C(C=C2)F)F
InChI: InChI=1S/C13H8F2O/c14-11-5-1-9(2-6-11)13(16)10-3-7-12(15)8-4-10/h1-8H
Instrument: Bruker 450 GC coupled to maXis Impact
Instrument type: GC-APCI-QTOF
Ms type: MS2
Ion mode: POSITIVE
Ionization: APCI
Fragmentation mode: CID
Collision energy: 20 eV
Resolution: 35000
Column name: Rxi-5Sil MS column, 30m, 0.25mm i.d., 0.25Âµm film thickness, Restek
Retention time: 13.381 min
Base peak: 218.0532
Precursor m/z: 219.0616
Precursor type: [M+H]+
m/z	relative intensity	assigned
123.0234	999	C10H3+
170.0525	5	C12H7F+
189.0553	5	C12H7F2+
198.0496	9	C13H7FO+
199.0576	7	C13H8FO+
201.0521	6	C13H7F2+
217.0464	134	C13H7F2O+
218.0514	18	C13H8F2O+
219.0626	67	C13H9F2O+
