Mass spectrum: Propyzamide; LC-ESI-QTOF; MS2; CE: 20 eV; R=35000; [M-H]-
Name: Propyzamide
Name: 3,5-dichloro-N-(2-methylbut-3-yn-2-yl)benzamide
Formula: C12H11Cl2NO
Exact mass: 255.0217693
SMILES: CC(C)(NC(=O)C1=CC(Cl)=CC(Cl)=C1)C#C
InChI: InChI=1S/C12H11Cl2NO/c1-4-12(2,3)15-11(16)8-5-9(13)7-10(14)6-8/h1,5-7H,2-3H3,(H,15,16)
Instrument: Bruker maXis Impact
Instrument type: LC-ESI-QTOF
Ms type: MS2
Ion mode: NEGATIVE
Ionization: ESI
Fragmentation mode: CID
Collision energy: 20 eV
Resolution: 35000
Column name: Acclaim RSLC C18 2.2um, 2.1x100mm, Thermo
Retention time: 9.704 min
Base peak: 254.0143
Precursor m/z: 254.0145
Precursor type: [M-H]-
m/z	relative intensity	assigned
144.9616	781	C6H3Cl2-
145.9645	71	C5[13]CH3Cl2-
146.9579	479	C6H3Cl[37]Cl-
148.9533	27	C5H3Cl2O-
186.9718	145	C8H5Cl2O-
188.965	101	C8H5Cl[37]ClO-
190.9508	63	C10HCl2-
212.9732	127	C9H5Cl2NO-
214.9699	67	C9H5Cl[37]ClNO-
227.998	999	C10H8Cl2NO-
228.9996	169	C9[13]CH8Cl2NO-
229.9955	554	C10H8Cl[37]ClNO-
254.0127	32	C12H10Cl2NO-
256.0134	27	C12H10Cl[37]ClNO-
