Mass spectrum: Megestrol-17-acetate; LC-ESI-QTOF; MS2; CE: 40 eV; R=35000; [M+H]+
Name: Megestrol-17-acetate
Name: Megestrol acetate
Name: [(8R,9S,10R,13S,14S,17R)-17-acetyl-6,10,13-trimethyl-3-oxo-2,8,9,11,12,14,15,16-octahydro-1H-cyclopenta[a]phenanthren-17-yl] acetate
Formula: C24H32O4
Exact mass: 384.2300595
SMILES: CC(=O)O[C@@]1(CC[C@H]2[C@@H]3C=C(C)C4=CC(=O)CC[C@]4(C)[C@H]3CC[C@]12C)C(C)=O
InChI: InChI=1S/C24H32O4/c1-14-12-18-19(22(4)9-6-17(27)13-21(14)22)7-10-23(5)20(18)8-11-24(23,15(2)25)28-16(3)26/h12-13,18-20H,6-11H2,1-5H3/t18-,19+,20+,22-,23+,24+/m1/s1
Instrument: Bruker maXis Impact
Instrument type: LC-ESI-QTOF
Ms type: MS2
Ion mode: POSITIVE
Ionization: ESI
Fragmentation mode: CID
Collision energy: 40 eV
Resolution: 35000
Column name: Acclaim RSLC C18 2.2um, 2.1x100mm, Thermo
Retention time: 10.847 min
Base peak: 385.237
Precursor m/z: 385.2373
Precursor type: [M+H]+
m/z	relative intensity	assigned
117.0696	6	C9H9+
119.0847	19	C9H11+
121.0637	14	C8H9O+
121.1004	13	C9H13+
123.0785	8	C8H11O+
128.0609	8	C10H8+
129.0685	14	C10H9+
131.0844	26	C10H11+
133.1	72	C10H13+
134.1037	10	C9[13]CH13+
135.0795	10	C9H11O+
135.1152	11	C10H15+
137.0947	14	C9H13O+
141.0688	11	C11H9+
142.0761	20	C11H10+
143.0841	28	C11H11+
144.0905	7	C11H12+
145.0629	7	C10H9O+
145.0999	59	C11H13+
146.1038	8	C10[13]CH13+
147.0792	11	C10H11O+
147.1153	33	C11H15+
149.0944	14	C10H13O+
151.1106	6	C10H15O+
155.0839	23	C12H11+
156.091	12	C12H12+
157.0997	74	C12H13+
158.1042	8	C11[13]CH13+
159.0791	14	C11H11O+
159.1154	43	C12H15+
160.0864	10	C11H12O+
160.1197	8	C11[13]CH15+
161.0946	59	C11H13O+
161.1311	8	C12H17+
162.1002	12	C10[13]CH13O+
163.1098	11	C11H15O+
167.084	15	C13H11+
168.091	8	C13H12+
169.0997	87	C13H13+
170.1051	15	C12[13]CH13+
171.0791	13	C12H11O+
171.1151	60	C13H15+
172.0862	9	C12H12O+
172.1206	10	C12[13]CH15+
173.0946	43	C12H13O+
173.131	26	C13H17+
174.1007	13	C12H14O+
175.1105	184	C12H15O+
176.1139	25	C11[13]CH15O+
177.1259	5	C12H17O+
179.0836	17	C14H11+
180.091	7	C14H12+
181.0995	31	C14H13+
182.1062	14	C14H14+
183.1157	147	C14H15+
184.1198	23	C13[13]CH15+
185.0944	18	C13H13O+
185.1308	40	C14H17+
186.1365	8	C13[13]CH17+
187.1105	128	C13H15O+
187.146	7	C14H19+
188.1146	20	C12[13]CH15O+
189.1255	30	C13H17O+
193.0994	21	C15H13+
194.107	28	C15H14+
195.1153	51	C15H15+
196.1218	20	C15H16+
197.0945	5	C14H13O+
197.131	93	C15H17+
198.1382	83	C15H18+
199.1101	9	C14H15O+
199.146	56	C15H19+
200.1527	17	C15H20+
201.1256	10	C14H17O+
201.1619	8	C15H21+
206.107	5	C16H14+
207.1154	25	C16H15+
208.1228	31	C16H16+
209.1314	406	C16H17+
210.1364	84	C15[13]CH17+
211.1105	12	C15H15O+
211.147	235	C16H19+
212.1511	49	C15[13]CH19+
213.1257	11	C15H17O+
213.161	15	C16H21+
215.1415	15	C15H19O+
219.1156	12	C17H15+
220.123	9	C17H16+
221.1309	25	C17H17+
222.1387	27	C17H18+
223.147	170	C17H19+
224.155	999	C17H20+
225.1263	16	C16H17O+
225.1609	298	C16[13]CH20+
226.1326	7	C16H18O+
227.1414	8	C16H19O+
233.1312	6	C18H17+
234.1388	38	C18H18+
235.1461	33	C18H19+
236.1537	12	C18H20+
237.1257	7	C17H17O+
237.1626	35	C18H21+
238.1338	5	C17H18O+
238.1673	11	C17[13]CH21+
239.1415	22	C17H19O+
239.1782	14	C18H23+
240.1478	8	C17H20O+
241.1571	34	C17H21O+
242.162	8	C16[13]CH21O+
247.1467	8	C19H19+
248.1544	8	C19H20+
249.1627	108	C19H21+
250.1677	33	C18[13]CH21+
251.1415	23	C18H19O+
251.1733	5	C19H23+
252.1483	15	C18H20O+
253.1569	17	C18H21O+
254.1631	7	C18H22O+
255.172	11	C18H23O+
263.1784	16	C20H23+
264.1858	24	C20H24+
265.1569	17	C19H21O+
265.1936	66	C20H25+
266.1649	18	C19H22O+
266.1978	12	C19[13]CH25+
267.1735	533	C19H23O+
268.1769	102	C18[13]CH23O+
269.1807	9	C17[13]C2H23O+
274.1711	5	C21H22+
281.1893	77	C20H25O+
282.1969	300	C20H26O+
283.2016	88	C19[13]CH26O+
292.1807	6	C21H24O+
295.1684	8	C20H23O2+
307.2045	17	C22H27O+
310.1921	13	C21H26O2+
325.2153	20	C22H29O2+
326.2179	6	C21[13]CH29O2+
