Mass spectrum: Midazolam; LC-ESI-QTOF; MS2; CE: 20 eV; R=35000; [M+H]+
Name: Midazolam
Name: 8-chloro-6-(2-fluorophenyl)-1-methyl-4H-imidazo[1,5-a][1,4]benzodiazepine
Formula: C18H13ClFN3
Exact mass: 325.0782033
SMILES: CC1=NC=C2N1C3=C(C=C(C=C3)Cl)C(=NC2)C4=CC=CC=C4F
InChI: InChI=1S/C18H13ClFN3/c1-11-21-9-13-10-22-18(14-4-2-3-5-16(14)20)15-8-12(19)6-7-17(15)23(11)13/h2-9H,10H2,1H3
Instrument: Bruker maXis Impact
Instrument type: LC-ESI-QTOF
Ms type: MS2
Ion mode: POSITIVE
Ionization: ESI
Fragmentation mode: CID
Collision energy: 20 eV
Resolution: 35000
Column name: Acclaim RSLC C18 2.2um, 2.1x100mm, Thermo
Retention time: 8.582 min
Base peak: 326.0883
Precursor m/z: 326.0855
Precursor type: [M+H]+
m/z	relative intensity	assigned
244.0337	12	C14H8ClFN+
285.0611	7	C16H11ClFN2+
290.1108	13	C18H13FN3+
291.1188	61	C18H14FN3+
292.1216	8	C17[13]CH14FN3+
326.0894	999	C18H14ClFN3+
327.0912	318	C17[13]CH14ClFN3+
