Mass spectrum: Antipyrine; LC-ESI-QTOF; MS2; CE: 30 eV; R=35000; [M+H]+
Name: Antipyrine
Name: 1,5-dimethyl-2-phenylpyrazol-3-one
Formula: C11H12N2O
Exact mass: 188.0949630
SMILES: Cc1cc(=O)n(n1C)c2ccccc2
InChI: InChI=1S/C11H12N2O/c1-9-8-11(14)13(12(9)2)10-6-4-3-5-7-10/h3-8H,1-2H3
Instrument: Bruker maXis Impact
Instrument type: LC-ESI-QTOF
Ms type: MS2
Ion mode: POSITIVE
Ionization: ESI
Fragmentation mode: CID
Collision energy: 30 eV
Resolution: 35000
Column name: Acclaim RSLC C18 2.2um, 2.1x100mm, Thermo
Retention time: 4.693 min
Base peak: 189.1018
Precursor m/z: 189.1022
Precursor type: [M+H]+
m/z	relative intensity	assigned
115.0533	91	C9H7+
116.0581	11	C8[13]CH7+
117.0567	77	C8H7N+
117.069	76	C9H9+
118.0641	118	C8H8N+
119.0688	14	C7[13]CH8N+
120.0797	103	C8H10N+
121.0829	10	C7[13]CH10N+
128.0483	22	C9H6N+
128.06	9	C10H8+
129.0563	71	C9H7N+
130.0642	449	C9H8N+
131.0594	190	C8H7N2+
131.0713	279	C9H9N+
132.0439	16	C8H6NO+
132.0672	126	C8H8N2+
132.0787	133	C9H10N+
133.0511	73	C8H7NO+
133.0746	38	C8H9N2+
134.0469	15	C7H6N2O+
134.0559	10	C7[13]CH7NO+
134.0951	35	C9H12N+
135.0548	8	C7H7N2O+
142.0636	6	C10H8N+
143.0715	44	C10H9N+
144.0796	291	C10H10N+
145.0635	97	C10H9O+
145.0748	177	C9H9N2+
146.0597	14	C9H8NO+
146.0825	271	C9H10N2+
147.0905	498	C9H11N2+
148.0745	19	C9H10NO+
148.0933	48	C8[13]CH11N2+
149.07	41	C8H9N2O+
155.0591	12	C10H7N2+
156.0654	7	C10H8N2+
157.0506	61	C10H7NO+
158.0576	17	C10H8NO+
159.054	31	C9H7N2O+
159.0907	27	C10H11N2+
160.0978	19	C10H12N2+
161.1062	123	C10H13N2+
162.1087	13	C9[13]CH13N2+
171.0899	6	C11H11N2+
172.075	47	C11H10NO+
173.0698	48	C10H9N2O+
174.0776	260	C10H10N2O+
175.0811	27	C9[13]CH10N2O+
189.1014	999	C11H13N2O+
190.1042	103	C10[13]CH13N2O+
191.1067	8	C9[13]C2H13N2O+
