Mass spectrum: Harman; LC-ESI-QTOF; MS2; CE: Ramp 20-30 eV; R=35000; [M+H]+
Name: Harman
Name: 1-methyl-9H-pyrido[3,4-b]indole
Formula: C12H10N2
Exact mass: 182.0843983
SMILES: CC1=NC=CC2=C1NC1=C2C=CC=C1
InChI: InChI=1S/C12H10N2/c1-8-12-10(6-7-13-8)9-4-2-3-5-11(9)14-12/h2-7,14H,1H3
Instrument: Bruker maXis Impact
Instrument type: LC-ESI-QTOF
Ms type: MS2
Ion mode: POSITIVE
Ionization: ESI
Fragmentation mode: CID
Collision energy: Ramp 20-30 eV
Resolution: 35000
Column name: Acclaim RSLC C18 2.2um, 2.1x100mm, Thermo
Retention time: 4.728 min
Base peak: 183.0914
Precursor m/z: 183.0917
Precursor type: [M+H]+
m/z	relative intensity	assigned
115.0549	66	C9H7+
116.0579	5	C8[13]CH7+
142.0647	34	C10H8N+
167.0595	5	C11H7N2+
168.0674	35	C11H8N2+
182.0834	27	C12H10N2+
183.0919	999	C12H11N2+
184.0944	167	C11[13]CH11N2+
185.0977	7	C10[13]C2H11N2+
