Mass spectrum: Azoxystrobin acid; LC-ESI-QTOF; MS2; CE: 40 eV; R=35000; [M+H]+
Name: Azoxystrobin acid
Name: SCHEMBL435486
Name: (E)-2-[2-[6-(2-cyanophenoxy)pyrimidin-4-yl]oxyphenyl]-3-methoxyprop-2-enoic acid
Formula: C21H15N3O5
Exact mass: 389.1011706
SMILES: CO\C=C(\C(O)=O)c1ccccc1Oc1cc(Oc2ccccc2C#N)ncn1
InChI: InChI=1S/C21H15N3O5/c1-27-12-16(21(25)26)15-7-3-5-9-18(15)29-20-10-19(23-13-24-20)28-17-8-4-2-6-14(17)11-22/h2-10,12-13H,1H3,(H,25,26)/b16-12+
Instrument: Bruker maXis Impact
Instrument type: LC-ESI-QTOF
Ms type: MS2
Ion mode: POSITIVE
Ionization: ESI
Fragmentation mode: CID
Collision energy: 40 eV
Resolution: 35000
Column name: Acclaim RSLC C18 2.2um, 2.1x100mm, Thermo
Retention time: 7.9 min
Base peak: 390.108
Precursor m/z: 390.1084
Precursor type: [M+H]+
m/z	relative intensity	assigned
120.0434	6	C7H6NO+
129.0432	19	C5H7NO3+
130.0268	5	C5H6O4+
133.051	15	C8H7NO+
134.0589	61	C8H8NO+
135.0629	6	C3H9N3O3+
141.0431	17	C6H7NO3+
143.0353	5	C9H5NO+
143.0594	40	C9H7N2+
144.0434	5	C9H6NO+
145.0271	20	C7H3N3O+
145.0507	20	C6H9O4+
149.0217	17	C6H3N3O2+
155.059	8	C7H9NO3+
156.0432	54	C10H6NO+
157.0267	5	C8H3N3O+
157.047	5	C5H7N3O3+
161.0698	5	C9H9N2O+
162.054	5	C9H8NO2+
169.0381	36	C7H7NO4+
170.0451	10	C7H8NO4+
171.0305	10	C10H5NO2+
171.054	31	C10H7N2O+
172.0378	82	C7H8O5+
177.0532	19	C8H7N3O2+
182.0459	9	C8H8NO4+
182.0703	11	C11H8N3+
183.0541	164	C11H7N2O+
184.0392	6	C11H6NO2+
184.0579	26	C10[13]CH7N2O+
186.0544	8	C11H8NO2+
187.0495	18	C10H7N2O2+
197.0701	6	C12H9N2O+
199.0495	34	C11H7N2O2+
200.0333	45	C11H6NO3+
201.0408	86	C11H7NO3+
201.065	27	C11H9N2O2+
202.0462	13	C10[13]CH7NO3+
210.0651	22	C12H8N3O+
211.0472	22	C9H9NO5+
216.0647	75	C12H10NO3+
217.068	9	C11[13]CH10NO3+
242.0313	15	C12H6N2O4+
245.0707	6	C16H9N2O+
246.078	5	C16H10N2O+
258.0785	5	C17H10N2O+
259.0847	7	C14H13NO4+
261.076	5	C14H13O5+
262.0856	5	C17H12NO2+
272.08	33	C14H12N2O4+
273.0648	34	C17H9N2O2+
273.0883	45	C14H13N2O4+
274.0712	12	C14H12NO5+
275.0793	9	C14H13NO5+
284.0793	5	C15H12N2O4+
287.0808	19	C18H11N2O2+
288.0663	7	C18H10NO3+
288.0851	6	C15H14NO5+
288.1136	10	C18H14N3O+
289.0951	9	C15H15NO5+
301.0836	155	C18H11N3O2+
302.0874	37	C17[13]CH11N3O2+
303.0764	7	C18H11N2O3+
312.0782	10	C21H12O3+
314.0926	7	C19H12N3O2+
315.1011	11	C21H15O3+
316.1072	17	C19H14N3O2+
317.1104	5	C19H15N3O2+
329.0791	999	C19H11N3O3+
330.0821	207	C18[13]CH11N3O3+
344.1024	261	C20H14N3O3+
345.1057	62	C19[13]CH14N3O3+
346.1138	6	C19[13]CH15N3O3+
372.098	24	C21H14N3O4+
373.1009	7	C20[13]CH14N3O4+
