Mass spectrum: Propyzamide; LC-ESI-QTOF; MS2; CE: 40 eV; R=35000; [M+H]+
Name: Propyzamide
Name: 3,5-dichloro-N-(2-methylbut-3-yn-2-yl)benzamide
Formula: C12H11Cl2NO
Exact mass: 255.0217693
SMILES: CC(C)(NC(=O)C1=CC(Cl)=CC(Cl)=C1)C#C
InChI: InChI=1S/C12H11Cl2NO/c1-4-12(2,3)15-11(16)8-5-9(13)7-10(14)6-8/h1,5-7H,2-3H3,(H,15,16)
Instrument: Bruker maXis Impact
Instrument type: LC-ESI-QTOF
Ms type: MS2
Ion mode: POSITIVE
Ionization: ESI
Fragmentation mode: CID
Collision energy: 40 eV
Resolution: 35000
Column name: Acclaim RSLC C18 2.2um, 2.1x100mm, Thermo
Retention time: 9.729 min
Base peak: 256.0286
Precursor m/z: 256.029
Precursor type: [M+H]+
m/z	relative intensity	assigned
108.9838	5	C6H2Cl+
110.9985	5	C6H4Cl+
120.96	12	C4H3Cl2+
122.9564	12	C4H3Cl[37]Cl+
126.9937	33	C6H4ClO+
128.001	26	C6H5ClO+
128.9904	8	C6H4[37]ClO+
129.9976	8	C6H5[37]ClO+
132.0788	11	C9H10N+
133.0862	6	C9H11N+
144.9589	125	C6H3Cl2+
145.9622	10	C5[13]CH3Cl2+
146.9558	82	C6H3Cl[37]Cl+
146.9749	62	C6H5Cl2+
148.9722	37	C6H5Cl[37]Cl+
162.9695	143	C6H5Cl2O+
164.9666	86	C6H5Cl[37]ClO+
171.9708	31	C10HClO+
172.9553	905	C7H3Cl2O+
172.9634	999	C9ClNO+
173.9667	98	C8[13]CClNO+
174.9522	582	C7H3Cl[37]ClO+
174.9606	577	C6H3Cl2NO+
189.9808	102	C7H6Cl2NO+
190.9824	10	C6[13]CH6Cl2NO+
190.9983	6	C8H9Cl2O+
191.9775	69	C7H6Cl[37]ClNO+
227.0207	31	C11H11Cl2N+
