Mass spectrum: Fluoxastrobin; LC-ESI-QTOF; MS2; CE: 40 eV; R=35000; [M+H]+
Name: Fluoxastrobin
Name: (E)-1-[2-[6-(2-chlorophenoxy)-5-fluoropyrimidin-4-yl]oxyphenyl]-1-(5,6-dihydro-1,4,2-dioxazin-3-yl)-N-methoxymethanimine
Formula: C21H16ClFN4O5
Exact mass: 458.0793255
SMILES: CO\N=C(\C1=NOCCO1)C1=C(OC2=C(F)C(OC3=C(Cl)C=CC=C3)=NC=N2)C=CC=C1
InChI: InChI=1S/C21H16ClFN4O5/c1-28-26-18(21-27-30-11-10-29-21)13-6-2-4-8-15(13)31-19-17(23)20(25-12-24-19)32-16-9-5-3-7-14(16)22/h2-9,12H,10-11H2,1H3/b26-18+
Instrument: Bruker maXis Impact
Instrument type: LC-ESI-QTOF
Ms type: MS2
Ion mode: POSITIVE
Ionization: ESI
Fragmentation mode: CID
Collision energy: 40 eV
Resolution: 35000
Column name: Acclaim RSLC C18 2.2um, 2.1x100mm, Thermo
Retention time: 10.008 min
Base peak: 459.0859
Precursor m/z: 459.0866
Precursor type: [M+H]+
m/z	relative intensity	assigned
119.0355	7	C5H3N4+
120.0434	30	CH11ClNO3+
122.0389	6	CH11[37]ClNO3+
129.0085	10	C7HN2O+
129.0434	14	C2H8FNO4+
130.0278	35	C6H2N4+
130.0507	5	C2H9FNO4+
132.0432	15	C6H4N4+
133.0322	6	C8H4FN+
134.0393	12	C8H5FN+
134.0586	8	C2H11FO5+
136.0384	7	C5H4N4O+
138.0094	174	C4H7ClO3+
138.9938	9	C5FN2O2+
139.0117	11	C3[13]CH7ClO3+
140.0062	40	C4H7[37]ClO3+
140.9891	7	C7H3ClF+
144.0305	19	C2H7FNO5+
144.0541	10	C2H9FN2O4+
145.0384	129	C5H7NO4+
146.022	33	C6H2N4O+
146.0421	11	C4[13]CH7NO4+
147.0318	6	C5H8ClN2O+
150.0334	97	C6H3FN4+
151.0042	7	CH7ClFNO4+
151.0372	7	C5[13]CH3FN4+
154.0389	7	ClFH10N3O3+
157.0384	9	ClFH11N2O4+
159.0339	9	C3H9ClFN2O2+
160.0253	14	C2H9ClN2O4+
160.0453	11	C8H10ClF+
161.0327	43	C2H10ClN2O4+
162.0362	23	C6H8ClFN2+
163.0044	19	C2H7ClFNO4+
163.0468	14	C6H9ClFN2+
164.0326	65	C6H4N4O2+
165.0021	5	C2H7[37]ClFNO4+
165.0376	6	C6H9[37]ClFN2+
166.0037	6	C9N3O+
167.9998	35	C5H6ClFO3+
169.9961	9	C5H6[37]ClFO3+
170.0333	36	C3H7FN2O5+
173.0338	5	ClFH11N2O5+
174.0443	7	C8H11ClO2+
175.0286	43	C12H3N2+
176.0361	28	C3H10ClFN2O3+
177.0439	8	C3H11ClFN2O3+
178.0287	109	C10H2N4+
178.9995	52	C2H7ClFNO5+
179.0319	11	C9[13]CH2N4+
180.9966	12	C2H7[37]ClFNO5+
183.0102	8	C9FN4+
183.9948	19	C5H6ClFO4+
185.9915	5	C5H6[37]ClFO4+
186.044	7	C4H10ClFN3O2+
187.029	5	C13H3N2+
187.0514	5	C7H8FN2O3+
188.037	999	C13H4N2+
189.0402	94	C12[13]CH4N2+
190.0445	25	C5H8N3O5+
191.0235	21	C12H3N2O+
195.0106	5	C15HN+
198.0284	7	CH10ClFN3O5+
200.0425	5	C7H8N2O5+
202.0399	16	C4H11ClN2O5+
203.0242	12	C13H3N2O+
204.0314	8	C4H11[37]ClN2O5+
204.0529	15	C10H8N2O3+
204.0745	8	C4H15ClN3O4+
205.0396	59	C7H10ClN2O3+
205.0593	57	C10H9N2O3+
206.0416	5	C6[13]CH10ClN2O3+
206.0627	5	C9[13]CH9N2O3+
211.9897	6	C12H3ClNO+
212.0458	5	C8H9ClN4O+
214.0055	33	C10H3ClN4+
214.0397	14	C14H4N3+
214.0602	15	C7H15ClO5+
215.0472	10	C10H12ClO3+
216.0022	7	C10H3[37]ClN4+
216.0547	9	C10H13ClO3+
218.0349	22	C7H9ClN3O3+
220.0273	7	C7H9[37]ClN3O3+
220.0506	6	C13H6N3O+
221.0341	5	C13H5N2O2+
223.0058	15	C7H7ClFNO4+
223.0259	5	C8H4FN4O3+
223.9898	14	C13H3ClNO+
225.0022	6	C7H7[37]ClFNO4+
225.0571	7	C12H6FN4+
228.0439	18	C11H5FN4O+
229.0266	15	C10H10ClO4+
229.0495	6	C13H9O4+
230.0349	106	C10H11ClO4+
231.0188	23	C14H3N2O2+
231.038	12	C9[13]CH11ClO4+
232.051	11	C11H9ClN4+
235.0505	6	C11H10ClN3O+
240.0431	23	C15H4N4+
241.0171	10	C13H4FNO3+
241.0505	16	C11H10FO5+
242.0569	19	C9H9FN3O4+
244.0499	16	C11H13ClO4+
246.0299	68	C10H11ClO5+
247.0323	8	C9[13]CH11ClO5+
250.0161	6	C17H2N2O+
252.0682	11	C18H8N2+
255.031	18	C12H4FN4O2+
256.0354	7	C12H6N3O4+
257.0461	16	C8H13ClFNO5+
262.053	7	C19H6N2+
266.012	39	C14H5ClN3O+
267.0304	13	C9H11ClFNO5+
268.0091	10	C14H5[37]ClN3O+
270.0538	5	C9H14ClFNO5+
272.0322	5	C11H11ClNO5+
273.0407	6	C15H5N4O2+
274.0612	25	C16H8N3O2+
277.064	11	C12H15ClFO4+
278.0708	19	C15H15ClO3+
279.0565	8	C16H8FN2O2+
280.0627	19	C19H8N2O+
281.067	7	C14H9N4O3+
290.0564	5	C13H11ClN4O2+
293.0592	5	C16H8FN3O2+
299.0553	7	C8H13ClFN4O5+
300.0627	5	C8H14ClFN4O5+
301.072	5	C17H9N4O2+
304.0506	12	C20H6N3O+
304.0723	5	C14H13ClN4O2+
305.0576	6	C16H14ClO4+
306.067	409	C14H11FN2O5+
307.07	61	C13[13]CH11FN2O5+
308.0223	5	C16H7ClN3O2+
308.0711	6	C12[13]C2H11FN2O5+
313.0398	10	C19H8ClN3+
315.0325	78	C19H8ClN2O+
316.0354	13	C18[13]CH8ClN2O+
317.0296	22	C19H8[37]ClN2O+
318.0664	24	C20H13ClNO+
319.0701	6	C19[13]CH13ClNO+
320.0219	5	C17H7ClN3O2+
320.0708	6	C20H13[37]ClNO+
321.0758	5	C19H13O5+
327.0447	5	C21H10ClNO+
331.0615	33	C21H7N4O+
332.0656	9	C20[13]CH7N4O+
333.0757	8	C20H13O5+
339.0428	8	C16H13ClFO5+
340.0272	56	C19H10ClFO3+
341.0328	17	C18[13]CH10ClFO3+
342.0418	32	C20H9ClN3O+
343.0401	11	C19[13]CH9ClN3O+
344.0408	11	C20H9[37]ClN3O+
353.0342	5	C15H11ClFN2O5+
355.0383	7	C20H8ClN4O+
358.0379	8	C20H9ClN3O2+
367.0381	76	C21H8ClN4O+
368.0406	18	C20[13]CH8ClN4O+
369.036	26	C21H8[37]ClN4O+
383.033	48	C21H8ClN4O2+
384.0369	12	C20[13]CH8ClN4O2+
385.0354	15	C21H8[37]ClN4O2+
391.082	6	C17H16ClN4O5+
397.0483	7	C19H11ClFN4O3+
427.0597	100	C20H13ClFN4O4+
428.0628	22	C19[13]CH13ClFN4O4+
429.0556	30	C20H13[37]ClFN4O4+
