Mass spectrum: Methylprednisolone; LC-ESI-QTOF; MS2; CE: 20 eV; R=35000; [M+H]+
Name: Methylprednisolone
Name: methylprednisolone
Name: (6S,8S,9S,10R,11S,13S,14S,17R)-11,17-dihydroxy-17-(2-hydroxyacetyl)-6,10,13-trimethyl-7,8,9,11,12,14,15,16-octahydro-6H-cyclopenta[a]phenanthren-3-one
Formula: C22H30O5
Exact mass: 374.2093241
SMILES: C[C@H]1C[C@H]2[C@@H]3CC[C@@]([C@]3(C[C@@H]([C@@H]2[C@@]4(C1=CC(=O)C=C4)C)O)C)(C(=O)CO)O
InChI: InChI=1S/C22H30O5/c1-12-8-14-15-5-7-22(27,18(26)11-23)21(15,3)10-17(25)19(14)20(2)6-4-13(24)9-16(12)20/h4,6,9,12,14-15,17,19,23,25,27H,5,7-8,10-11H2,1-3H3/t12-,14-,15-,17-,19+,20-,21-,22-/m0/s1
Instrument: Bruker maXis Impact
Instrument type: LC-ESI-QTOF
Ms type: MS2
Ion mode: POSITIVE
Ionization: ESI
Fragmentation mode: CID
Collision energy: 20 eV
Resolution: 35000
Column name: Acclaim RSLC C18 2.2um, 2.1x100mm, Thermo
Retention time: 8.590 min
Base peak: 375.219
Precursor m/z: 375.2166
Precursor type: [M+H]+
m/z	relative intensity	assigned
119.0858	16	C9H11+
121.0649	64	C8H9O+
121.1017	12	C9H13+
123.082	11	C8H11O+
125.0605	13	C7H9O2+
127.0749	6	C7H11O2+
129.071	6	C10H9+
131.0855	19	C10H11+
133.066	9	C9H9O+
133.1013	27	C10H13+
135.0808	469	C9H11O+
136.084	38	C8[13]CH11O+
137.0584	13	C8H9O2+
137.097	15	C9H13O+
139.076	18	C8H11O2+
143.0857	16	C11H11+
145.0648	26	C10H9O+
145.1012	50	C11H13+
146.0717	7	C10H10O+
147.0803	94	C10H11O+
147.1166	19	C11H15+
148.0841	7	C9[13]CH11O+
149.0963	77	C10H13O+
150.099	7	C9[13]CH13O+
151.075	19	C9H11O2+
151.1115	5	C10H15O+
153.0904	11	C9H13O2+
155.072	9	C8H11O3+
157.0876	6	C8H13O3+
157.1013	9	C12H13+
158.0728	7	C11H10O+
159.0812	87	C11H11O+
159.1177	10	C12H15+
160.0844	10	C10[13]CH11O+
161.0965	820	C11H13O+
162.0996	99	C10[13]CH13O+
163.0756	5	C10H11O2+
163.1119	23	C11H15O+
165.0916	72	C10H13O2+
166.0949	9	C9[13]CH13O2+
167.1055	13	C10H15O2+
169.1032	12	C13H13+
171.0807	13	C12H11O+
171.1173	21	C13H15+
172.0889	6	C12H12O+
173.0969	88	C12H13O+
173.1322	16	C13H17+
174.1003	14	C11[13]CH13O+
175.0756	5	C11H11O2+
175.112	64	C12H15O+
176.1155	11	C11[13]CH15O+
177.0918	47	C11H13O2+
177.1269	7	C12H17O+
178.0957	5	C11H14O2+
179.1065	18	C11H15O2+
183.1026	36	C10H15O3+
184.108	7	C10H16O3+
185.0965	396	C13H13O+
186.1001	69	C12[13]CH13O+
187.1123	373	C13H15O+
188.1157	51	C12[13]CH15O+
189.0914	67	C12H13O2+
189.1273	19	C13H17O+
190.0964	10	C11[13]CH13O2+
191.1074	18	C12H15O2+
191.1434	9	C13H19O+
193.1241	9	C12H17O2+
195.117	10	C15H15+
196.1241	7	C15H16+
197.0963	25	C14H13O+
198.1033	6	C14H14O+
199.1123	71	C14H15O+
200.1168	9	C13[13]CH15O+
201.0922	10	C13H13O2+
201.1278	56	C14H17O+
202.1309	10	C13[13]CH17O+
203.1083	6	C13H15O2+
203.1429	11	C14H19O+
205.1233	21	C13H17O2+
209.0963	16	C15H13O+
210.1	6	C15H14O+
211.1126	178	C15H15O+
212.1158	26	C14[13]CH15O+
213.0931	6	C14H13O2+
213.1281	117	C15H17O+
214.1326	23	C14[13]CH17O+
215.106	8	C14H15O2+
215.1435	15	C15H19O+
219.1383	9	C14H19O2+
221.0941	7	C16H13O+
221.1354	5	C17H17+
222.1046	6	C16H14O+
223.1132	41	C16H15O+
223.1361	5	C13H19O3+
224.1205	13	C16H16O+
225.1283	83	C16H17O+
226.1324	13	C15[13]CH17O+
227.107	18	C15H15O2+
227.1428	51	C16H19O+
228.1117	6	C15H16O2+
228.1456	13	C15[13]CH19O+
229.1251	12	C15H17O2+
231.1391	96	C15H19O2+
232.1414	18	C14[13]CH19O2+
235.1121	34	C17H15O+
235.1498	9	C18H19+
236.116	13	C17H16O+
237.1285	179	C17H17O+
238.1327	38	C16[13]CH17O+
239.1048	7	C16H15O2+
239.1444	78	C17H19O+
240.1486	26	C17H20O+
241.1241	9	C16H17O2+
241.1593	50	C17H21O+
242.163	9	C16[13]CH21O+
243.1026	5	C15H15O3+
243.137	5	C16H19O2+
243.1729	5	C17H23O+
247.1127	5	C18H15O+
248.1219	7	C18H16O+
249.1279	54	C18H17O+
249.1649	7	C19H21+
250.1318	16	C18H18O+
251.1435	227	C18H19O+
252.1477	46	C17[13]CH19O+
253.1596	660	C18H21O+
254.1633	152	C17[13]CH21O+
255.1373	7	C17H19O2+
255.1753	95	C18H23O+
256.1794	23	C17[13]CH23O+
257.1534	7	C17H21O2+
260.1206	6	C19H16O+
261.1296	38	C19H17O+
261.1658	5	C20H21+
262.134	14	C18[13]CH17O+
263.1442	79	C19H19O+
263.1801	12	C20H23+
264.1477	25	C18[13]CH19O+
265.1237	15	C18H17O2+
265.1598	62	C19H21O+
266.1648	10	C18[13]CH21O+
267.1394	58	C18H19O2+
268.1436	17	C17[13]CH19O2+
269.1545	30	C18H21O2+
270.158	5	C18H22O2+
274.1367	16	C20H18O+
275.1433	25	C20H19O+
275.1798	7	C21H23+
276.1505	7	C20H20O+
277.1595	129	C20H21O+
278.165	40	C19[13]CH21O+
279.1395	126	C19H19O2+
279.1757	355	C20H23O+
280.1434	23	C18[13]CH19O2+
280.1823	248	C20H24O+
281.1903	230	C20H25O+
282.1939	42	C20H26O+
283.1694	6	C19H23O2+
283.2081	6	C19[13]CH26O+
285.1527	17	C18H21O3+
288.1516	16	C21H20O+
289.1561	8	C21H21O+
290.1716	8	C21H22O+
291.1751	96	C21H23O+
292.1807	24	C20[13]CH23O+
293.1532	51	C20H21O2+
293.1912	207	C21H25O+
294.1593	14	C19[13]CH21O2+
294.1936	47	C21H26O+
295.1713	45	C20H23O2+
295.2004	8	C20[13]CH26O+
296.1753	9	C19[13]CH23O2+
297.1501	103	C19H21O3+
297.1855	59	C20H25O2+
298.1537	22	C18[13]CH21O3+
298.1892	11	C19[13]CH25O2+
299.2012	30	C20H27O2+
303.1756	296	C22H23O+
304.1782	63	C22H24O+
305.1827	7	C21[13]CH24O+
306.1605	12	C21H22O2+
308.1828	7	C21H24O2+
309.1873	112	C21H25O2+
310.1902	32	C20[13]CH25O2+
311.1662	15	C20H23O3+
311.2018	47	C21H27O2+
312.2039	9	C20[13]CH27O2+
315.1616	59	C19H23O4+
316.1645	16	C18[13]CH23O4+
321.1861	536	C22H25O2+
322.1888	118	C22H26O2+
323.1924	15	C21[13]CH26O2+
327.1972	27	C21H27O3+
328.1964	7	C21H28O3+
328.2075	6	C21H28O3+
329.2116	12	C21H29O3+
339.1969	617	C22H27O3+
340.2005	129	C22H28O3+
341.204	17	C21[13]CH28O3+
357.2082	999	C22H29O4+
358.211	231	C22H30O4+
359.2131	31	C21[13]CH30O4+
375.2177	19	C22H31O5+
