Mass spectrum: Darunavir; LC-ESI-QTOF; MS2; CE: 20 eV; R=35000; [M+H]+
Name: Darunavir
Name: [(3aS,4R,6aR)-2,3,3a,4,5,6a-hexahydrofuro[2,3-b]furan-4-yl] N-[(2S,3R)-4-[(4-aminophenyl)sulfonyl-(2-methylpropyl)amino]-3-hydroxy-1-phenylbutan-2-yl]carbamate
Formula: C27H37N3O7S
Exact mass: 547.2352215
SMILES: CC(C)CN(C[C@H]([C@H](Cc1ccccc1)NC(=O)O[C@H]2CO[C@@H]3[C@H]2CCO3)O)S(=O)(=O)c4ccc(cc4)N
InChI: InChI=1S/C27H37N3O7S/c1-18(2)15-30(38(33,34)21-10-8-20(28)9-11-21)16-24(31)23(14-19-6-4-3-5-7-19)29-27(32)37-25-17-36-26-22(25)12-13-35-26/h3-11,18,22-26,31H,12-17,28H2,1-2H3,(H,29,32)/t22-,23-,24+,25-,26+/m0/s1
Instrument: Bruker maXis Impact
Instrument type: LC-ESI-QTOF
Ms type: MS2
Ion mode: POSITIVE
Ionization: ESI
Fragmentation mode: CID
Collision energy: 20 eV
Resolution: 35000
Column name: Acclaim RSLC C18 2.2um, 2.1x100mm, Thermo
Retention time: 8.161 min
Base peak: 548.2471
Precursor m/z: 548.2425
Precursor type: [M+H]+
m/z	relative intensity	assigned
146.0944	7	C7H14O3+
156.0122	42	C6H6NO2S+
208.0987	6	C14H12N2+
241.1021	50	C7H17N2O7+
242.1051	7	C14H14N2O2+
245.1663	34	C9H27NO4S+
246.1717	8	C15H22N2O+
261.1656	7	C8H25N2O7+
357.1662	7	C16H25N2O7+
374.1962	7	C21H28NO5+
375.1814	8	C16H29N3O5S+
392.2046	999	C25H30NOS+
393.2077	270	C20H31N3O3S+
394.2041	73	C19[13]CH31N3O3S+
418.182	19	C23H30O5S+
436.1948	39	C26H30NO3S+
437.2015	12	C26H31NO3S+
504.2664	14	C26H38N3O7+
548.2465	18	C27H38N3O7S+
