Mass spectrum: 3-Phenoxybenzoic acid; LC-ESI-QTOF; MS2; CE: 10 eV; R=35000; [M-H]-
Name: 3-Phenoxybenzoic acid
Formula: C13H10O3
Exact mass: 214.0629942
SMILES: c1ccc(cc1)Oc2cccc(c2)C(=O)O
InChI: InChI=1S/C13H10O3/c14-13(15)10-5-4-8-12(9-10)16-11-6-2-1-3-7-11/h1-9H,(H,14,15)
Instrument: Bruker maXis Impact
Instrument type: LC-ESI-QTOF
Ms type: MS2
Ion mode: NEGATIVE
Ionization: ESI
Fragmentation mode: CID
Collision energy: 10 eV
Resolution: 35000
Column name: Acclaim RSLC C18 2.2um, 2.1x100mm, Thermo
Retention time: 6.387 min
Base peak: 213.0539
Precursor m/z: 213.0557
Precursor type: [M-H]-
m/z	relative intensity	assigned
169.0644	628	C12H9O-
213.0543	999	C13H9O3-
214.0576	162	C12[13]CH9O3-
