Mass spectrum: Norfloxacin; LC-ESI-QTOF; MS2; CE: 40 eV; R=35000; [M+H]+
Name: Norfloxacin
Name: 1-ethyl-6-fluoro-4-oxo-7-piperazin-4-ium-1-ylquinoline-3-carboxylate
Formula: C16H18FN3O3
Exact mass: 319.1332197
SMILES: CCn1cc(c(=O)c2c1cc(c(c2)F)N3CCNCC3)C(=O)O
InChI: InChI=1S/C16H18FN3O3/c1-2-19-9-11(16(22)23)15(21)10-7-12(17)14(8-13(10)19)20-5-3-18-4-6-20/h7-9,18H,2-6H2,1H3,(H,22,23)
Instrument: Bruker maXis Impact
Instrument type: LC-ESI-QTOF
Ms type: MS2
Ion mode: POSITIVE
Ionization: ESI
Fragmentation mode: CID
Collision energy: 40 eV
Resolution: 35000
Column name: Acclaim RSLC C18 2.2um, 2.1x100mm, Thermo
Retention time: 4.6 min
Base peak: 254.0592
Precursor m/z: 320.1405
Precursor type: [M+H]+
m/z	relative intensity	assigned
163.0673	13	C9H8FN2+
171.0903	12	C8H13NO3+
176.0738	14	C10H9FN2+
179.0993	16	C10H12FN2+
189.082	36	C11H10FN2+
198.1026	11	C12H12N3+
203.0615	28	C11H8FN2O+
204.0693	16	C11H9FN2O+
204.1056	99	C12H13FN2+
205.0776	34	C11H10FN2O+
205.1096	14	C12H15NO2+
211.1108	26	C13H13N3+
219.0923	12	C12H12FN2O+
226.0975	28	C13H12N3O+
226.1361	22	C13H19FO2+
231.0562	489	C12H8FN2O2+
232.0596	62	C14[13]CH7N2O+
233.1092	35	C13H14FN2O+
249.0677	28	C12H10FN2O3+
253.0853	20	C11H12FN3O3+
254.0932	36	C11H13FN3O3+
254.1284	29	C15H16N3O+
259.0873	13	C14H12FN2O2+
263.0834	16	C13H12FN2O3+
272.103	62	C14H14N3O3+
273.1084	11	C14H15N3O3+
274.0998	32	C16H15FO3+
274.136	24	C15H17FN3O+
282.1245	70	C13H17FN3O3+
283.1284	13	C16H17N3O2+
292.1093	33	C14H15FN3O3+
300.135	155	C16H18N3O3+
301.1378	26	C16H19N3O3+
302.1292	297	C16H17FN3O2+
303.134	44	C15[13]CH17FN3O2+
320.1403	999	C16H19FN3O3+
321.1438	131	C15[13]CH19FN3O3+
