Mass spectrum: Diallyl phthalate; GC-APCI-QTOF; MS2; CE: 10 eV; R=35000; [M+H]+
Name: Diallyl phthalate
Formula: C14H14O4
Exact mass: 246.0892
SMILES: C=CCOC(=O)C1=CC=CC=C1C(=O)OCC=C
InChI: InChI=1S/C14H14O4/c1-3-9-17-13(15)11-7-5-6-8-12(11)14(16)18-10-4-2/h3-8H,1-2,9-10H2
Instrument: Bruker 450 GC coupled to maXis Impact
Instrument type: GC-APCI-QTOF
Ms type: MS2
Ion mode: POSITIVE
Ionization: APCI
Fragmentation mode: CID
Collision energy: 10 eV
Resolution: 35000
Column name: Rxi-5Sil MS column, 30m, 0.25mm i.d., 0.25Âµm film thickness, Restek
Retention time: 15.015 min
Base peak: 189.0559
Precursor m/z: 247.0965
Precursor type: [M+H]+
m/z	relative intensity	assigned
134.1107	9	C10H14+
149.0265	22	C8H5O3+
189.0558	999	C11H9O3+
190.06	75	C11H10O3+
191.0656	11	C11H11O3+
247.0942	28	C14H15O4+
