Mass spectrum: Corticosterone; LC-ESI-QTOF; MS2; CE: 30 eV; R=35000; [M+H]+
Name: Corticosterone
Name: (8S,9S,10R,11S,13S,14S,17S)-11-hydroxy-17-(2-hydroxyacetyl)-10,13-dimethyl-1,2,6,7,8,9,11,12,14,15,16,17-dodecahydrocyclopenta[a]phenanthren-3-one
Formula: C21H30O4
Exact mass: 346.2144094
SMILES: C[C@]12CCC(=O)C=C1CC[C@@H]3[C@@H]2[C@H](C[C@]4([C@H]3CC[C@@H]4C(=O)CO)C)O
InChI: InChI=1S/C21H30O4/c1-20-8-7-13(23)9-12(20)3-4-14-15-5-6-16(18(25)11-22)21(15,2)10-17(24)19(14)20/h9,14-17,19,22,24H,3-8,10-11H2,1-2H3/t14-,15-,16+,17-,19+,20-,21-/m0/s1
Instrument: Bruker maXis Impact
Instrument type: LC-ESI-QTOF
Ms type: MS2
Ion mode: POSITIVE
Ionization: ESI
Fragmentation mode: CID
Collision energy: 30 eV
Resolution: 35000
Column name: Acclaim RSLC C18 2.2um, 2.1x100mm, Thermo
Retention time: 8.641 min
Base peak: 347.2242
Precursor m/z: 347.2217
Precursor type: [M+H]+
m/z	relative intensity	assigned
115.0549	31	C9H7+
117.0708	69	C9H9+
119.0865	208	C9H11+
121.0651	999	C8H9O+
121.1018	65	C9H13+
122.0687	86	C7[13]CH9O+
123.0807	450	C8H11O+
128.0631	30	C10H8+
129.0708	105	C10H9+
130.0766	23	C10H10+
131.0857	310	C10H11+
133.0656	52	C9H9O+
133.102	344	C10H13+
135.0807	415	C9H11O+
135.118	116	C10H15+
136.1213	22	C10H16+
137.0968	105	C9H13O+
139.0761	21	C8H11O2+
141.0703	42	C11H9+
142.0792	31	C11H10+
143.0863	235	C11H11+
144.0927	34	C11H12+
145.1023	447	C11H13+
146.1059	71	C11H14+
147.0811	261	C10H11O+
147.1173	258	C11H15+
148.0853	34	C10H12O+
148.1215	44	C11H16+
149.0961	170	C10H13O+
149.1335	65	C11H17+
150.102	20	C10H14O+
151.0747	20	C9H11O2+
151.1141	27	C10H15O+
153.091	86	C9H13O2+
155.0862	121	C12H11+
156.0934	73	C12H12+
157.102	396	C12H13+
159.0809	114	C11H11O+
159.1172	371	C12H15+
160.121	43	C12H16+
161.0964	275	C11H13O+
161.1336	91	C12H17+
162.1009	38	C11H14O+
163.1126	427	C11H15O+
165.0928	24	C10H13O2+
167.0854	47	C13H11+
168.0943	18	C13H12+
169.1016	210	C13H13+
170.1062	28	C13H14+
171.0818	69	C12H11O+
171.1176	556	C13H15+
172.12	97	C12[13]CH15+
173.0969	244	C12H13O+
173.1334	210	C13H17+
174.1012	27	C12H14O+
175.1124	410	C12H15O+
175.1483	32	C13H19+
176.1155	46	C12H16O+
177.1289	131	C12H17O+
178.131	18	C12H18O+
179.1077	37	C11H15O2+
181.1023	98	C14H13+
182.1079	43	C14H14+
183.0789	19	C13H11O+
183.1178	170	C14H15+
184.122	42	C14H16+
185.0981	76	C13H13O+
185.1336	214	C14H17+
186.1382	35	C14H18+
187.1124	168	C13H15O+
187.1496	112	C14H19+
188.1149	46	C13H16O+
188.153	24	C14H20+
189.1279	266	C13H17O+
190.1317	38	C13H18O+
191.1095	22	C12H15O2+
191.1434	28	C13H19O+
193.103	36	C15H13+
193.1234	138	C12H17O2+
194.1105	22	C15H14+
195.1175	144	C15H15+
196.1253	36	C15H16+
197.0974	45	C14H13O+
197.1338	210	C15H17+
198.1375	64	C15H18+
199.112	74	C14H15O+
199.1491	52	C15H19+
201.1278	157	C14H17O+
201.1638	43	C15H21+
202.1335	25	C14H18O+
203.1088	34	C13H15O2+
203.1436	59	C14H19O+
205.1229	36	C13H17O2+
207.1187	59	C16H15+
207.1382	45	C13H19O2+
208.127	33	C16H16+
209.133	146	C16H17+
210.1404	60	C16H18+
211.1128	59	C15H15O+
211.1501	182	C16H19+
212.1188	30	C15H16O+
212.1518	33	C16H20+
213.1293	69	C15H17O+
213.1641	76	C16H21+
214.1336	19	C15H18O+
215.1065	19	C14H15O2+
215.1443	147	C15H19O+
216.1461	18	C15H20O+
219.118	22	C17H15+
219.1389	64	C14H19O2+
221.1319	44	C17H17+
223.1147	26	C16H15O+
223.1508	168	C17H19+
224.1574	32	C17H20+
225.1304	52	C16H17O+
225.1645	106	C17H21+
226.136	23	C16H18O+
227.1442	132	C16H19O+
227.1796	26	C17H23+
229.1244	21	C15H17O2+
229.1606	209	C16H21O+
230.1643	29	C16H22O+
233.1342	30	C18H17+
233.1548	65	C15H21O2+
235.1501	91	C18H19+
236.1542	30	C18H20+
237.1287	64	C17H17O+
237.1651	56	C18H21+
238.136	19	C17H18O+
238.1742	20	C18H22+
239.1443	80	C17H19O+
239.1805	32	C18H23+
240.1513	26	C17H20O+
241.1595	156	C17H21O+
242.1644	48	C17H22O+
243.1383	33	C16H19O2+
243.1748	96	C17H23O+
244.1789	19	C17H24O+
245.1549	72	C16H21O2+
247.1488	21	C19H19+
247.1687	35	C16H23O2+
249.165	63	C19H21+
250.1716	25	C19H22+
251.1439	63	C18H19O+
251.1802	138	C19H23+
252.1473	20	C18H20O+
252.1853	33	C19H24+
253.1608	146	C18H21O+
253.1979	87	C19H25+
254.1696	33	C18H22O+
254.2004	23	C19H26+
255.1418	26	C17H19O2+
255.1746	68	C18H23O+
256.177	21	C18H24O+
259.1719	26	C17H23O2+
263.1805	45	C20H23+
265.1603	88	C19H21O+
265.198	92	C20H25+
266.1683	21	C19H22O+
266.2006	24	C20H26+
267.1761	163	C19H23O+
268.1799	56	C19H24O+
269.1909	276	C19H25O+
270.1951	58	C19H26O+
271.1712	120	C18H23O2+
271.2061	81	C19H27O+
272.2137	20	C19H28O+
275.1829	123	C21H23+
278.1692	22	C20H22O+
281.1919	123	C20H25O+
282.2011	21	C20H26O+
283.1683	41	C19H23O2+
283.208	82	C20H27O+
285.1858	59	C19H25O2+
286.192	20	C19H26O2+
287.2028	31	C19H27O2+
293.191	323	C21H25O+
294.1932	78	C20[13]CH25O+
299.2028	34	C20H27O2+
301.1762	22	C19H25O3+
303.199	23	C19H27O3+
311.2022	356	C21H27O2+
312.2053	83	C20[13]CH27O2+
314.1902	27	C20H26O3+
329.2132	650	C21H29O3+
330.2176	145	C20[13]CH29O3+
347.2237	243	C21H31O4+
