Mass spectrum: Carbamazepine-10,11-epoxide; LC-ESI-QTOF; MS2; CE: 30 eV; R=35000; [M+H]+
Name: Carbamazepine-10,11-epoxide
Name: Carbamazepine epoxide
Formula: C15H12N2O2
Exact mass: 252.0898776
SMILES: NC(=O)N1C2=C(C=CC=C2)C2OC2C2=C1C=CC=C2
InChI: InChI=1S/C15H12N2O2/c16-15(18)17-11-7-3-1-5-9(11)13-14(19-13)10-6-2-4-8-12(10)17/h1-8,13-14H,(H2,16,18)
Instrument: Bruker maXis Impact
Instrument type: LC-ESI-QTOF
Ms type: MS2
Ion mode: POSITIVE
Ionization: ESI
Fragmentation mode: CID
Collision energy: 30 eV
Resolution: 35000
Column name: Acclaim RSLC C18 2.2um, 2.1x100mm, Thermo
Retention time: 5.9 min
Base peak: 253.0971
Precursor m/z: 253.0972
Precursor type: [M+H]+
m/z	relative intensity	assigned
165.0685	8	C13H9+
167.0718	32	C12H9N+
168.0756	5	C7H10N3O2+
179.0716	6	C13H9N+
180.0802	999	C13H10N+
181.0829	144	C12[13]CH10N+
182.0958	310	C13H12N+
183.0988	30	C8H13N3O2+
192.0799	5	C14H10N+
208.0748	6	C14H10NO+
210.0911	130	C14H12NO+
211.0943	16	C13[13]CH12NO+
