Mass spectrum: Imidacloprid-urea; LC-ESI-QTOF; MS2; CE: 10 eV; R=35000; [M+H]+
Name: Imidacloprid-urea
Name: 1-[(6-chloropyridin-3-yl)methyl]imidazolidin-2-one
Formula: C9H10ClN3O
Exact mass: 211.0512396
SMILES: ClC1=NC=C(CN2CCNC2=O)C=C1
InChI: InChI=1S/C9H10ClN3O/c10-8-2-1-7(5-12-8)6-13-4-3-11-9(13)14/h1-2,5H,3-4,6H2,(H,11,14)
Instrument: Bruker maXis Impact
Instrument type: LC-ESI-QTOF
Ms type: MS2
Ion mode: POSITIVE
Ionization: ESI
Fragmentation mode: CID
Collision energy: 10 eV
Resolution: 35000
Column name: Acclaim RSLC C18 2.2um, 2.1x100mm, Thermo
Retention time: 4.674 min
Base peak: 212.0575
Precursor m/z: 212.0585
Precursor type: [M+H]+
m/z	relative intensity	assigned
128.0251	38	C6H7ClN+
130.0219	10	C6H7[37]ClN+
212.0579	999	C9H11ClN3O+
213.0606	80	C8[13]CH11ClN3O+
214.0551	242	C9H11[37]ClN3O+
