Mass spectrum: Chlorotoluron; LC-ESI-QTOF; MS2; CE: 10 eV; R=35000; [M-H]-
Name: Chlorotoluron
Name: 3-(3-chloro-4-methylphenyl)-1,1-dimethylurea
Formula: C10H13ClN2O
Exact mass: 212.0716407
SMILES: CN(C)C(=O)NC1=CC(Cl)=C(C)C=C1
InChI: InChI=1S/C10H13ClN2O/c1-7-4-5-8(6-9(7)11)12-10(14)13(2)3/h4-6H,1-3H3,(H,12,14)
Instrument: Bruker maXis Impact
Instrument type: LC-ESI-QTOF
Ms type: MS2
Ion mode: NEGATIVE
Ionization: ESI
Fragmentation mode: CID
Collision energy: 10 eV
Resolution: 35000
Column name: Acclaim RSLC C18 2.2um, 2.1x100mm, Thermo
Retention time: 7.988 min
Base peak: 211.0637
Precursor m/z: 211.0644
Precursor type: [M-H]-
m/z	relative intensity	assigned
140.0256	30	C10H4O-
166.0061	143	C8H5ClNO-
168.0019	58	C8H5[37]ClNO-
211.0631	999	C10H12ClN2O-
213.0609	324	C10H12[37]ClN2O-
