Mass spectrum: Lovastatin; LC-ESI-QTOF; MS2; CE: 30 eV; R=35000; [M+Na]+
Name: Lovastatin
Name: [(1S,3R,7S,8S,8aR)-8-[2-[(2R,4R)-4-hydroxy-6-oxooxan-2-yl]ethyl]-3,7-dimethyl-1,2,3,7,8,8a-hexahydronaphthalen-1-yl] (2S)-2-methylbutanoate
Formula: C24H36O5
Exact mass: 404.2562743
SMILES: CC[C@H](C)C(=O)O[C@H]1C[C@H](C=C2[C@H]1[C@H]([C@H](C=C2)C)CC[C@@H]3C[C@H](CC(=O)O3)O)C
InChI: InChI=1S/C24H36O5/c1-5-15(3)24(27)29-21-11-14(2)10-17-7-6-16(4)20(23(17)21)9-8-19-12-18(25)13-22(26)28-19/h6-7,10,14-16,18-21,23,25H,5,8-9,11-13H2,1-4H3/t14-,15-,16-,18+,19+,20-,21-,23-/m0/s1
Instrument: Bruker maXis Impact
Instrument type: LC-ESI-QTOF
Ms type: MS2
Ion mode: POSITIVE
Ionization: ESI
Fragmentation mode: CID
Collision energy: 30 eV
Resolution: 35000
Column name: Acclaim RSLC C18 2.2um, 2.1x100mm, Thermo
Retention time: 11.977 min
Base peak: 279.1606
Precursor m/z: 427.2455
Precursor type: [M+Na]+
m/z	relative intensity	assigned
159.1186	11	C3H20NaO5+
295.1308	12	C17H20NaO3+
310.1575	18	C20H22O3+
323.1656	19	C21H23O3+
325.1789	944	C21H25O3+
326.1826	253	C20[13]CH25O3+
327.1844	27	C18[13]CH27NaO3+
342.142	12	C18H23NaO5+
427.2474	999	C24H36NaO5+
428.251	271	C23[13]CH36NaO5+
429.2524	42	C22[13]C2H36NaO5+
