Mass spectrum: Norfloxacin; LC-ESI-QTOF; MS2; CE: 10 eV; R=35000; [M+H]+
Name: Norfloxacin
Name: 1-ethyl-6-fluoro-4-oxo-7-piperazin-1-ylquinoline-3-carboxylic acid
Formula: C16H18FN3O3
Exact mass: 319.1332197
SMILES: CCN1C=C(C(O)=O)C(=O)C2=CC(F)=C(C=C12)N1CCNCC1
InChI: InChI=1S/C16H18FN3O3/c1-2-19-9-11(16(22)23)15(21)10-7-12(17)14(8-13(10)19)20-5-3-18-4-6-20/h7-9,18H,2-6H2,1H3,(H,22,23)
Instrument: Bruker maXis Impact
Instrument type: LC-ESI-QTOF
Ms type: MS2
Ion mode: POSITIVE
Ionization: ESI
Fragmentation mode: CID
Collision energy: 10 eV
Resolution: 35000
Column name: Acclaim RSLC C18 2.2um, 2.1x100mm, Thermo
Retention time: 4.280 min
Base peak: 362.1508
Precursor m/z: 320.1405
Precursor type: [M+H]+
m/z	relative intensity	assigned
276.1486	10	C15H19FN3O+
302.1291	12	C16H17FN3O2+
320.14	999	C16H19FN3O3+
321.1431	169	C15[13]CH19FN3O3+
322.1449	19	C14[13]C2H19FN3O3+
