Mass spectrum: 3-Iodopropynyl butylcarbamate; LC-ESI-QTOF; MS2; CE: Ramp 20-30 eV; R=35000; [M+H]+
Name: 3-Iodopropynyl butylcarbamate
Name: 3-Iodo-2-propynyl butylcarbamate
Name: 3-iodoprop-2-ynyl N-butylcarbamate
Formula: C8H12INO2
Exact mass: 280.9912766
SMILES: CCCCNC(=O)OCC#CI
InChI: InChI=1S/C8H12INO2/c1-2-3-6-10-8(11)12-7-4-5-9/h2-3,6-7H2,1H3,(H,10,11)
Instrument: Bruker maXis Impact
Instrument type: LC-ESI-QTOF
Ms type: MS2
Ion mode: POSITIVE
Ionization: ESI
Fragmentation mode: CID
Collision energy: Ramp 20-30 eV
Resolution: 35000
Column name: Acclaim RSLC C18 2.2um, 2.1x100mm, Thermo
Retention time: 8.042 min
Base peak: 281.9983
Precursor m/z: 281.9986
Precursor type: [M+H]+
m/z	relative intensity	assigned
55.0174	8	C3H3O+
57.0693	69	C4H9+
164.919	999	C3H2I+
165.9219	31	C2[13]CH2I+
