Mass spectrum: Pendimethalin; LC-ESI-QTOF; MS2; CE: 10 eV; R=35000; [M+H]+
Name: Pendimethalin
Name: 3,4-dimethyl-2,6-dinitro-N-pentan-3-ylaniline
Formula: C13H19N3O4
Exact mass: 281.1375561
SMILES: CCC(CC)NC1=C(C(C)=C(C)C=C1[N+]([O-])=O)[N+]([O-])=O
InChI: InChI=1S/C13H19N3O4/c1-5-10(6-2)14-12-11(15(17)18)7-8(3)9(4)13(12)16(19)20/h7,10,14H,5-6H2,1-4H3
Instrument: Bruker maXis Impact
Instrument type: LC-ESI-QTOF
Ms type: MS2
Ion mode: POSITIVE
Ionization: ESI
Fragmentation mode: CID
Collision energy: 10 eV
Resolution: 35000
Column name: Acclaim RSLC C18 2.2um, 2.1x100mm, Thermo
Retention time: 12.854 min
Base peak: 308.0047
Precursor m/z: 282.1448
Precursor type: [M+H]+
m/z	relative intensity	assigned
149.0221	11	C6H3N3O2+
194.0544	19	C8H8N3O3+
206.0904	5	C10H12N3O2+
212.0662	999	C8H10N3O4+
213.0687	87	C7[13]CH10N3O4+
214.0715	10	C8H10N3O3[18]O+
252.1157	29	C12H16N2O4+
253.1166	5	C11[13]CH16N2O4+
282.145	75	C13H20N3O4+
283.1476	10	C12[13]CH20N3O4+
