Mass spectrum: Fludrocortisone acetate; LC-ESI-QTOF; MS2; CE: 10 eV; R=35000; [M+H]+
Name: Fludrocortisone acetate
Name: [2-[(8S,9R,10S,11S,13S,14S,17R)-9-fluoro-11,17-dihydroxy-10,13-dimethyl-3-oxo-1,2,6,7,8,11,12,14,15,16-decahydrocyclopenta[a]phenanthren-17-yl]-2-oxoethyl] acetate
Formula: C23H31FO6
Exact mass: 422.2104669
SMILES: CC(=O)OCC(=O)[C@]1(CC[C@@H]2[C@@]1(C[C@@H]([C@]3([C@H]2CCC4=CC(=O)CC[C@@]43C)F)O)C)O
InChI: InChI=1S/C23H31FO6/c1-13(25)30-12-19(28)22(29)9-7-16-17-5-4-14-10-15(26)6-8-20(14,2)23(17,24)18(27)11-21(16,22)3/h10,16-18,27,29H,4-9,11-12H2,1-3H3/t16-,17-,18-,20-,21-,22-,23-/m0/s1
Instrument: Bruker maXis Impact
Instrument type: LC-ESI-QTOF
Ms type: MS2
Ion mode: POSITIVE
Ionization: ESI
Fragmentation mode: CID
Collision energy: 10 eV
Resolution: 35000
Column name: Acclaim RSLC C18 2.2um, 2.1x100mm, Thermo
Retention time: 8.599 min
Base peak: 347.2245
Precursor m/z: 423.2177
Precursor type: [M+H]+
m/z	relative intensity	assigned
423.2212	999	C23H32FO6+
424.2255	281	C22[13]CH32FO6+
425.2282	40	C21[13]C2H32FO6+
