Mass spectrum: Ternidazole; LC-ESI-QTOF; MS2; CE: Ramp 17.5-26.2 eV; R=35000; [M+H]+
Name: Ternidazole
Name: 3-(2-methyl-5-nitroimidazol-1-yl)propan-1-ol
Formula: C7H11N3O3
Exact mass: 185.0800
SMILES: Cc1ncc(n1CCCO)[N+](=O)[O-]
InChI: InChI=1S/C7H11N3O3/c1-6-8-5-7(10(12)13)9(6)3-2-4-11/h5,11H,2-4H2,1H3
Instrument: Bruker maXis Impact
Instrument type: LC-ESI-QTOF
Ms type: MS2
Ion mode: POSITIVE
Ionization: ESI
Fragmentation mode: CID
Collision energy: Ramp 17.5-26.2 eV
Resolution: 35000
Column name: Acclaim RSLC C18 2.2um, 2.1x100mm, Thermo
Retention time: 4.4 min
Base peak: 186.0878
Precursor m/z: 186.0873
Precursor type: [M+H]+
m/z	relative intensity	assigned
56.0363	44	C2H4N2+
57.0205	7	C2H3NO+
59.0489	37	C3H7O+
60.0438	6	C2H6NO+
82.0523	43	C4H6N2+
98.0475	12	C4H6N2O+
111.0437	14	C6H7O2+
128.0454	999	C4H6N3O2+
130.0498	5	C5H8NO3+
186.0877	216	C7H12N3O3+
