Mass spectrum: Bromochlorophen; LC-ESI-QTOF; MS2; CE: Ramp 29.0-43.5 eV; R=35000; [M-H]-
Name: Bromochlorophen
Name: 2,2`-Methylenebis(6-bromo-4-chlorophenol)
Name: 2-bromo-6-[(3-bromo-5-chloro-2-hydroxyphenyl)methyl]-4-chlorophenol
Formula: C13H8Br2Cl2O2
Exact mass: 423.8268091
SMILES: OC1=C(Br)C=C(Cl)C=C1CC1=CC(Cl)=CC(Br)=C1O
InChI: InChI=1S/C13H8Br2Cl2O2/c14-10-4-8(16)2-6(12(10)18)1-7-3-9(17)5-11(15)13(7)19/h2-5,18-19H,1H2
Instrument: Bruker maXis Impact
Instrument type: LC-ESI-QTOF
Ms type: MS2
Ion mode: NEGATIVE
Ionization: ESI
Fragmentation mode: CID
Collision energy: Ramp 29.0-43.5 eV
Resolution: 35000
Column name: Acclaim RSLC C18 2.2um, 2.1x100mm, Thermo
Retention time: 12.114 min
Base peak: 59.0132
Precursor m/z: 422.8195
Precursor type: [M-H]-
m/z	relative intensity	assigned
78.9177	168	Br-
204.9053	999	C6H3BrClO-
206.9024	542	C6H3[81]BrClO-
