Mass spectrum: Tri(butoxyethyl)phosphate; LC-ESI-QTOF; MS2; CE: 10 eV; R=35000; [M+H]+
Name: Tri(butoxyethyl)phosphate
Name: tris(2-butoxyethyl) phosphate
Formula: C18H39O7P
Exact mass: 398.2433402
SMILES: CCCCOCCOP(=O)(OCCOCCCC)OCCOCCCC
InChI: InChI=1S/C18H39O7P/c1-4-7-10-20-13-16-23-26(19,24-17-14-21-11-8-5-2)25-18-15-22-12-9-6-3/h4-18H2,1-3H3
Instrument: Bruker maXis Impact
Instrument type: LC-ESI-QTOF
Ms type: MS2
Ion mode: POSITIVE
Ionization: ESI
Fragmentation mode: CID
Collision energy: 10 eV
Resolution: 35000
Column name: Acclaim RSLC C18 2.2um, 2.1x100mm, Thermo
Retention time: 12.035 min
Base peak: 399.2501
Precursor m/z: 399.2506
Precursor type: [M+H]+
m/z	relative intensity	assigned
199.0723	58	C6H16O5P+
299.1616	183	C12H28O6P+
300.1649	33	C11[13]CH28O6P+
399.2503	999	C18H40O7P+
400.2536	188	C17[13]CH40O7P+
401.2553	27	C16[13]C2H40O7P+
