Mass spectrum: Norephedrine; LC-ESI-QTOF; MS2; CE: RAMP 16.3-24.4 eV; R=35000; [M+H]+
Name: Norephedrine
Name: (1S,2R)-2-amino-1-phenylpropan-1-ol
Formula: C9H13NO
Exact mass: 151.0997140
SMILES: C[C@H]([C@H](c1ccccc1)O)N
InChI: InChI=1S/C9H13NO/c1-7(10)9(11)8-5-3-2-4-6-8/h2-7,9,11H,10H2,1H3/t7-,9-/m1/s1
Instrument: Bruker maXis Impact
Instrument type: LC-ESI-QTOF
Ms type: MS2
Ion mode: POSITIVE
Ionization: ESI
Fragmentation mode: CID
Collision energy: RAMP 16.3-24.4 eV
Resolution: 35000
Column name: Acclaim RSLC C18 2.2um, 2.1x100mm, Thermo
Retention time: 3.702 min
Base peak: 134.096
Precursor m/z: 152.107
Precursor type: [M+H]+
m/z	relative intensity	assigned
56.0489	134	C3H6N+
57.0322	34	C3H5O+
59.048	23	C3H7O+
91.054	78	C7H7+
92.0565	7	C6[13]CH7+
93.0697	19	C7H9+
115.0528	399	C9H7+
116.0579	38	C8[13]CH7+
117.0689	476	C9H9+
119.0713	75	C8H9N+
134.0954	999	C9H12N+
135.0786	11	C9H11O+
