Mass spectrum: Bisphenol A (3-chloro-2-hydroxypropyl) glycidyl ether; LC-ESI-QTOF; MS2; CE: 40 eV; R=35000; [M+NH4]+
Name: Bisphenol A (3-chloro-2-hydroxypropyl) glycidyl ether
Name: Bisphenol A (3-chloro-2-hydroxypropyl)glycidyl ether
Name: 1-chloro-3-[4-[2-[4-(oxiran-2-ylmethoxy)phenyl]propan-2-yl]phenoxy]propan-2-ol
Formula: C21H25ClO4
Exact mass: 376.1441
SMILES: CC(C)(C1=CC=C(C=C1)OCC2CO2)C3=CC=C(C=C3)OCC(CCl)O
InChI: InChI=1S/C21H25ClO4/c1-21(2,15-3-7-18(8-4-15)24-12-17(23)11-22)16-5-9-19(10-6-16)25-13-20-14-26-20/h3-10,17,20,23H,11-14H2,1-2H3
Instrument: Bruker maXis Impact
Instrument type: LC-ESI-QTOF
Ms type: MS2
Ion mode: POSITIVE
Ionization: ESI
Fragmentation mode: CID
Collision energy: 40 eV
Resolution: 35000
Column name: Acclaim RSLC C18 2.2um, 2.1x100mm, Thermo
Retention time: 11.115 min
Base peak: 394.1784
Precursor m/z: 394.1791
Precursor type: [M+NH4]+
m/z	relative intensity	assigned
115.0537	10	C9H7+
117.0704	7	C9H9+
119.0491	7	C8H7O+
128.0619	7	C10H8+
133.0641	29	C9H9O+
133.1009	6	C10H13+
135.0796	999	C9H11O+
136.0827	104	C3H17ClO3+
147.0787	10	C4H16ClO3+
149.0235	13	C8H5O3+
161.095	248	C11H13O+
162.0986	26	C5H19ClO3+
173.0956	7	C12H13O+
191.1057	395	C12H15O2+
192.1089	54	C6H21ClO4+
227.0828	209	C12H16ClO2+
228.0866	32	C12H17ClO2+
229.0808	55	C15H14Cl+
288.0923	7	C17H17ClO2+
320.0811	8	C17H17ClO4+
