Mass spectrum: 1,6-Bis(acryloyloxy)hexane; GC-APCI-QTOF; MS2; CE: 10 eV; R=35000; [M+H]+
Name: 1,6-Bis(acryloyloxy)hexane
Formula: C12H18O4
Exact mass: 226.1205
SMILES: C=CC(=O)OCCCCCCOC(=O)C=C
InChI: InChI=1S/C12H18O4/c1-3-11(13)15-9-7-5-6-8-10-16-12(14)4-2/h3-4H,1-2,5-10H2
Instrument: Bruker 450 GC coupled to maXis Impact
Instrument type: GC-APCI-QTOF
Ms type: MS2
Ion mode: POSITIVE
Ionization: APCI
Fragmentation mode: CID
Collision energy: 10 eV
Resolution: 35000
Column name: Rxi-5Sil MS column, 30m, 0.25mm i.d., 0.25Âµm film thickness, Restek
Retention time: 13.121 min
Base peak: 227.1268
Precursor m/z: 227.1278
Precursor type: [M+H]+
m/z	relative intensity	assigned
55.0553	259	C4H7+
73.0284	173	C3H5O2+
83.0847	661	C6H11+
137.1345	17	C10H17+
143.0348	58	C6H7O4+
154.0996	17	C9H14O2+
155.1089	999	C9H15O2+
156.1127	83	C9H16O2+
161.1363	17	C12H17+
163.1521	35	C12H19+
179.1429	32	C12H19O+
225.1131	28	C12H17O4+
226.1206	51	C12H18O4+
227.1273	288	C12H19O4+
