Mass spectrum: Amidosulfuron; LC-ESI-QTOF; MS2; CE: 50 eV; R=35000; [M+H]+
Name: Amidosulfuron
Name: 1-(4,6-dimethoxypyrimidin-2-yl)-3-[methyl(methylsulfonyl)sulfamoyl]urea
Formula: C9H15N5O7S2
Exact mass: 369.0412898
SMILES: COC1=CC(OC)=NC(NC(=O)NS(=O)(=O)N(C)S(C)(=O)=O)=N1
InChI: InChI=1S/C9H15N5O7S2/c1-14(22(4,16)17)23(18,19)13-9(15)12-8-10-6(20-2)5-7(11-8)21-3/h5H,1-4H3,(H2,10,11,12,13,15)
Instrument: Bruker maXis Impact
Instrument type: LC-ESI-QTOF
Ms type: MS2
Ion mode: POSITIVE
Ionization: ESI
Fragmentation mode: CID
Collision energy: 50 eV
Resolution: 35000
Column name: Acclaim RSLC C18 2.2um, 2.1x100mm, Thermo
Retention time: 6.965 min
Base peak: 370.048
Precursor m/z: 370.0486
Precursor type: [M+H]+
m/z	relative intensity	assigned
124.0505	48	C5H6N3O+
126.0653	22	C5H8N3O+
127.0492	105	C3H5N5O+
128.0523	16	C6H10NS+
139.0363	999	C5H5N3O2+
139.0483	147	C4H13NS2+
140.04	80	C4[13]CH5N3O2+
154.0594	251	C6H8N3O2+
155.0627	21	C5[13]CH8N3O2+
157.0597	147	C4H7N5O2+
181.0716	80	C7H9N4O2+
182.0545	211	C8H10N2OS+
183.0562	19	C7[13]CH10N2OS+
218.0215	48	C3H10N2O7S+
236.0325	218	C6H10N3O5S+
