Mass spectrum: Piperonyl butoxide; LC-ESI-QTOF; MS2; CE: 10 eV; R=35000; [M+H]+
Name: Piperonyl butoxide
Name: 5-[2-(2-butoxyethoxy)ethoxymethyl]-6-propyl-1,3-benzodioxole
Formula: C19H30O5
Exact mass: 338.2093241
SMILES: CCCCOCCOCCOCC1=CC2=C(OCO2)C=C1CCC
InChI: InChI=1S/C19H30O5/c1-3-5-7-20-8-9-21-10-11-22-14-17-13-19-18(23-15-24-19)12-16(17)6-4-2/h12-13H,3-11,14-15H2,1-2H3
Instrument: Bruker maXis Impact
Instrument type: LC-ESI-QTOF
Ms type: MS2
Ion mode: POSITIVE
Ionization: ESI
Fragmentation mode: CID
Collision energy: 10 eV
Resolution: 35000
Column name: Acclaim RSLC C18 2.2um, 2.1x100mm, Thermo
Retention time: 8.506 min
Base peak: 177.0531
Precursor m/z: 339.2166
Precursor type: [M+H]+
m/z	relative intensity	assigned
178.1202	999	C8H18O4+
