Mass spectrum: Ebastin; LC-ESI-QTOF; MS2; CE: 40 eV; R=35000; [M+H]+
Name: Ebastin
Name: Ebastine
Name: 4-(4-benzhydryloxypiperidin-1-yl)-1-(4-tert-butylphenyl)butan-1-one
Formula: C32H39NO2
Exact mass: 469.2980795
SMILES: CC(C)(C)C1=CC=C(C=C1)C(=O)CCCN1CCC(CC1)OC(C1=CC=CC=C1)C1=CC=CC=C1
InChI: InChI=1S/C32H39NO2/c1-32(2,3)28-18-16-25(17-19-28)30(34)15-10-22-33-23-20-29(21-24-33)35-31(26-11-6-4-7-12-26)27-13-8-5-9-14-27/h4-9,11-14,16-19,29,31H,10,15,20-24H2,1-3H3
Instrument: Bruker maXis Impact
Instrument type: LC-ESI-QTOF
Ms type: MS2
Ion mode: POSITIVE
Ionization: ESI
Fragmentation mode: CID
Collision energy: 40 eV
Resolution: 35000
Column name: Acclaim RSLC C18 2.2um, 2.1x100mm, Thermo
Retention time: 10.745 min
Base peak: 470.3059
Precursor m/z: 470.3054
Precursor type: [M+H]+
m/z	relative intensity	assigned
152.0611	36	C12H8+
161.0953	183	C11H13O+
162.0985	21	C10[13]CH13O+
165.069	41	C13H9+
166.0754	15	C13H10+
167.0848	959	C13H11+
168.0881	121	C12[13]CH11+
169.0912	5	C11[13]C2H11+
188.1186	8	C13H16O+
203.1428	999	C14H19O+
204.1459	123	C13[13]CH19O+
205.1487	7	C12[13]C2H19O+
470.3065	21	C32H40NO2+
471.3093	8	C31[13]CH40NO2+
