Mass spectrum: Norfentanyl; LC-ESI-QTOF; MS2; CE: 30 eV; R=35000; [M+H]+
Name: Norfentanyl
Name: N-phenyl-N-piperidin-4-ylpropanamide
Formula: C14H20N2O
Exact mass: 232.1575633
SMILES: CCC(=O)N(c1ccccc1)C2CCNCC2
InChI: InChI=1S/C14H20N2O/c1-2-14(17)16(12-6-4-3-5-7-12)13-8-10-15-11-9-13/h3-7,13,15H,2,8-11H2,1H3
Instrument: Bruker maXis Impact
Instrument type: LC-ESI-QTOF
Ms type: MS2
Ion mode: POSITIVE
Ionization: ESI
Fragmentation mode: CID
Collision energy: 30 eV
Resolution: 35000
Column name: Acclaim RSLC C18 2.2um, 2.1x100mm, Thermo
Retention time: 4.7 min
Base peak: 233.1641
Precursor m/z: 233.1648
Precursor type: [M+H]+
m/z	relative intensity	assigned
117.0566	20	C8H7N+
120.0797	49	C8H10N+
132.0797	219	C9H10N+
133.0832	26	C4H11N3O2+
146.0957	24	C10H12N+
150.0901	999	C9H12NO+
152.0963	15	C8H12N2O+
155.0701	43	C11H9N+
160.1099	16	C11H14N+
173.0792	38	C9H9N4+
177.1376	224	C11H17N2+
178.1407	33	C6H18N4O2+
216.1375	66	C14H18NO+
233.1641	171	C14H21N2O+
