Mass spectrum: Albendazole; LC-ESI-QTOF; MS2; CE: 50 eV; R=35000; [M+H]+
Name: Albendazole
Name: methyl N-(6-propylsulfanyl-1H-benzimidazol-2-yl)carbamate
Formula: C12H15N3O2S
Exact mass: 265.0884977
SMILES: CCCSc1ccc2c(c1)nc([nH]2)NC(=O)OC
InChI: InChI=1S/C12H15N3O2S/c1-3-6-18-8-4-5-9-10(7-8)14-11(13-9)15-12(16)17-2/h4-5,7H,3,6H2,1-2H3,(H2,13,14,15,16)
Instrument: Bruker maXis Impact
Instrument type: LC-ESI-QTOF
Ms type: MS2
Ion mode: POSITIVE
Ionization: ESI
Fragmentation mode: CID
Collision energy: 50 eV
Resolution: 35000
Column name: Acclaim RSLC C18 2.2um, 2.1x100mm, Thermo
Retention time: 9.4 min
Base peak: 266.0957
Precursor m/z: 266.0958
Precursor type: [M+H]+
m/z	relative intensity	assigned
119.047	26	C6H5N3+
120.9973	15	C6H3NS+
122.0043	10	C6H4NS+
123.0138	6	C6H5NS+
130.0398	10	C7H4N3+
131.0473	62	C7H5N3+
133.0636	5	C7H7N3+
136.008	70	C6H4N2S+
137.0152	5	C6H5N2S+
147.042	25	C7H5N3O+
148.0088	5	C7H4N2S+
158.0329	10	C8H4N3O+
159.042	605	C8H5N3O+
160.046	55	C7[13]CH5N3O+
162.012	7	C7H4N3S+
163.0192	192	C7H5N3S+
164.003	6	C7H4N2OS+
164.0262	41	C12H4O+
165.0326	8	C10H3N3+
190.0062	12	C8H4N3OS+
191.0145	999	C8H5N3OS+
192.021	178	C8H6N3OS+
193.0104	24	C8H5N3O[34]S+
204.0236	7	C11H8O2S+
234.0708	11	C11H12N3OS+
