Mass spectrum: Ochratoxin A; LC-ESI-QTOF; MS2; CE: 20 eV; R=35000; [M+H]+
Name: Ochratoxin A
Name: Alanine, (-)-
Name: 2-[(5-chloro-8-hydroxy-3-methyl-1-oxo-3,4-dihydroisochromene-7-carbonyl)amino]-3-phenylpropanoic acid
Class: Natural Product; Fungal metabolite
Formula: C20H18ClNO6
Exact mass: 403.0823
SMILES: CC1CC2=C(C=C(C(=C2C(=O)O1)O)C(=O)NC(CC3=CC=CC=C3)C(=O)O)Cl
InChI: InChI=1S/C20H18ClNO6/c1-10-7-12-14(21)9-13(17(23)16(12)20(27)28-10)18(24)22-15(19(25)26)8-11-5-3-2-4-6-11/h2-6,9-10,15,23H,7-8H2,1H3,(H,22,24)(H,25,26)
Instrument: Bruker maXis Impact
Instrument type: LC-ESI-QTOF
Ms type: MS2
Ion mode: POSITIVE
Ionization: ESI
Fragmentation mode: CID
Collision energy: 20 eV
Resolution: 35000
Column name: Acclaim RSLC C18 2.2um, 2.1x100mm, Thermo
Retention time: 9.142 min
Base peak: 404.0885
Precursor m/z: 404.0895
Precursor type: [M+H]+
m/z	relative intensity	assigned
120.0801	50	C8H10N+
239.0099	698	C11H8ClO4+
240.0131	95	C16H2NO2+
241.0071	249	C20H+
242.0074	21	C12H4NO5+
257.0203	999	C11H10ClO5+
258.0242	101	C18H7Cl+
259.0174	274	C20H3O+
260.02	25	C12H6NO6+
271.0356	26	C12H12ClO5+
341.0574	176	C19H14ClO4+
342.0593	37	C19H15ClO4+
343.0545	45	C18H14ClNO4+
344.0517	16	C20H10NO5+
358.0824	589	C19H17ClNO4+
359.0867	143	C19H18ClNO4+
360.0818	181	C19H17ClO5+
361.083	20	C19H18ClO5+
386.0762	19	C20H17ClNO5+
404.0876	79	C20H19ClNO6+
