Mass spectrum: Candesartan; LC-ESI-QTOF; MS2; CE: 20 eV; R=35000; [M+H]+
Name: Candesartan
Name: 2-ethoxy-3-[[4-[2-(2H-tetrazol-5-yl)phenyl]phenyl]methyl]benzimidazole-4-carboxylic acid
Formula: C24H20N6O3
Exact mass: 440.1596885
SMILES: CCOC1=NC2=CC=CC(C(O)=O)=C2N1CC1=CC=C(C=C1)C1=CC=CC=C1C1=NNN=N1
InChI: InChI=1S/C24H20N6O3/c1-2-33-24-25-20-9-5-8-19(23(31)32)21(20)30(24)14-15-10-12-16(13-11-15)17-6-3-4-7-18(17)22-26-28-29-27-22/h3-13H,2,14H2,1H3,(H,31,32)(H,26,27,28,29)
Instrument: Bruker maXis Impact
Instrument type: LC-ESI-QTOF
Ms type: MS2
Ion mode: POSITIVE
Ionization: ESI
Fragmentation mode: CID
Collision energy: 20 eV
Resolution: 35000
Column name: Acclaim RSLC C18 2.2um, 2.1x100mm, Thermo
Retention time: 7.7 min
Base peak: 251.1536
Precursor m/z: 441.167
Precursor type: [M+H]+
m/z	relative intensity	assigned
180.0775	17	C10H12O3+
189.0653	18	C10H9N2O2+
191.0468	17	C12H5N3+
192.0798	34	C14H10N+
193.0868	25	C11H13O3+
194.0955	42	C14H12N+
206.0835	12	C14H10N2+
207.0765	58	C10H11N2O3+
207.09	253	C11H13NO3+
208.0949	40	C10[13]CH13NO3+
210.0901	86	C12H10N4+
211.094	15	C7H11N6O2+
220.0986	25	C15H12N2+
234.1136	23	C13H16NO3+
235.0969	270	C14H11N4+
235.122	233	C16H15N2+
236.1271	40	C15[13]CH15N2+
263.1281	999	C16H15N4+
264.1312	174	C15[13]CH15N4+
265.1323	19	C14[13]C3H15N4+
338.104	105	C20H12N5O+
339.1083	32	C20H13N5O+
349.1063	15	C17H13N6O3+
350.0906	26	C20H10N6O+
352.1065	68	C20H12N6O+
353.1115	15	C20H13N6O+
367.1171	13	C22H15N4O2+
380.1388	60	C24H18N3O2+
381.1379	23	C23H17N4O2+
395.1486	131	C24H19N4O2+
396.1569	37	C23[13]CH19N4O2+
423.1561	383	C24H19N6O2+
424.1593	112	C23[13]CH19N6O2+
441.1673	34	C24H21N6O3+
