Mass spectrum: Metazachlor-OXA; LC-ESI-QTOF; MS2; CE: 10 eV; R=35000; [M+H]+
Name: Metazachlor-OXA
Name: 2-[2,6-dimethyl-N-(pyrazol-1-ylmethyl)anilino]-2-oxoacetic acid
Formula: C14H15N3O3
Exact mass: 273.1113413
SMILES: Cc1cccc(C)c1N(Cn1cccn1)C(=O)C(O)=O
InChI: InChI=1S/C14H15N3O3/c1-10-5-3-6-11(2)12(10)17(13(18)14(19)20)9-16-8-4-7-15-16/h3-8H,9H2,1-2H3,(H,19,20)
Instrument: Bruker maXis Impact
Instrument type: LC-ESI-QTOF
Ms type: MS2
Ion mode: POSITIVE
Ionization: ESI
Fragmentation mode: CID
Collision energy: 10 eV
Resolution: 35000
Column name: Acclaim RSLC C18 2.2um, 2.1x100mm, Thermo
Retention time: 4.8 min
Base peak: 150.1115
Precursor m/z: 274.1186
Precursor type: [M+H]+
m/z	relative intensity	assigned
134.0955	878	C9H12N+
135.098	87	C8[13]CH12N+
162.0901	855	C10H12NO+
163.094	82	C9[13]CH12NO+
206.0803	999	C11H12NO3+
207.0838	129	C10[13]CH12NO3+
208.0857	24	C9[13]C2H12NO3+
224.0906	62	C14H12N2O+
230.1271	21	C13H16N3O+
274.1187	233	C14H16N3O3+
275.1215	37	C13[13]CH16N3O3+
