Mass spectrum: Dibutyl sebacate; GC-APCI-QTOF; MS2; CE: 30 eV; R=35000; [M]+
Name: Dibutyl sebacate
Formula: C18H34O4
Exact mass: 314.2457
SMILES: CCCCOC(=O)CCCCCCCCC(=O)OCCCC
InChI: InChI=1S/C18H34O4/c1-3-5-15-21-17(19)13-11-9-7-8-10-12-14-18(20)22-16-6-4-2/h3-16H2,1-2H3
Instrument: Bruker 450 GC coupled to maXis Impact
Instrument type: GC-APCI-QTOF
Ms type: MS2
Ion mode: POSITIVE
Ionization: APCI
Fragmentation mode: CID
Collision energy: 30 eV
Resolution: 35000
Column name: Rxi-5Sil MS column, 30m, 0.25mm i.d., 0.25Âµm film thickness, Restek
Retention time: 17.741 min
Base peak: 285.2765
Precursor m/z: 314.2452
Precursor type: [M]+
m/z	relative intensity	assigned
55.0183	37	C3H3O+
55.055	191	C4H7+
57.0708	999	C4H9+
67.0554	135	C5H7+
69.0701	89	C5H9+
71.0864	274	C5H11+
81.0707	93	C6H9+
83.0855	79	C6H11+
85.102	119	C6H13+
95.0848	174	C7H11+
109.1028	81	C8H13+
121.1015	53	C9H13+
123.1171	151	C9H15+
133.1031	72	C10H13+
135.1184	138	C10H15+
137.135	69	C10H17+
147.1199	46	C11H15+
149.1354	46	C11H17+
151.1124	37	C10H15O+
153.128	37	C10H17O+
157.1224	36	C9H17O2+
163.1511	41	C12H19+
219.2113	57	C16H27+
222.2216	46	C12H30O3+
240.2475	36	C16H32O+
