Mass spectrum: Flurtamone; LC-ESI-QTOF; MS2; CE: 50 eV; R=35000; [M+H]+
Name: Flurtamone
Name: 5-(methylamino)-2-phenyl-4-[3-(trifluoromethyl)phenyl]furan-3-one
Formula: C18H14F3NO2
Exact mass: 333.0976633
SMILES: CNC1=C(C(=O)C(O1)C1=CC=CC=C1)C1=CC=CC(=C1)C(F)(F)F
InChI: InChI=1S/C18H14F3NO2/c1-22-17-14(12-8-5-9-13(10-12)18(19,20)21)15(23)16(24-17)11-6-3-2-4-7-11/h2-10,16,22H,1H3
Instrument: Bruker maXis Impact
Instrument type: LC-ESI-QTOF
Ms type: MS2
Ion mode: POSITIVE
Ionization: ESI
Fragmentation mode: CID
Collision energy: 50 eV
Resolution: 35000
Column name: Acclaim RSLC C18 2.2um, 2.1x100mm, Thermo
Retention time: 9.174 min
Base peak: 334.1055
Precursor m/z: 334.1049
Precursor type: [M+H]+
m/z	relative intensity	assigned
120.0798	12	C8H10N+
151.0341	10	C9H5F2+
152.0607	8	C12H8+
165.0684	6	C13H9+
169.0247	12	C9H4F3+
171.04	13	C9H6F3+
176.0606	6	C14H8+
177.068	10	C14H9+
178.0768	999	C14H10+
179.0802	112	C13[13]CH10+
180.0835	6	C12[13]C2H10+
196.0674	16	C14H9F+
197.0199	23	C13H3F2+
201.05	6	C13H7F2+
207.0598	128	C15H8F+
208.0628	18	C14[13]CH8F+
209.0747	14	C15H10F+
214.0579	8	C14H8F2+
227.0662	551	C12H10F3O+
228.0693	65	C11[13]CH10F3O+
229.0771	5	C10[13]C2H10F3O+
246.0645	37	C15H9F3+
247.0724	286	C15H10F3+
248.0757	34	C14[13]CH10F3+
275.0671	19	C16H10F3O+
