Mass spectrum: Tributylamine; GC-APCI-QTOF; MS2; CE: 20 eV; R=35000; [M+H]+
Name: Tributylamine
Formula: C12H27N
Exact mass: 185.2143
SMILES: CCCCN(CCCC)CCCC
InChI: InChI=1S/C12H27N/c1-4-7-10-13(11-8-5-2)12-9-6-3/h4-12H2,1-3H3
Instrument: Bruker 450 GC coupled to maXis Impact
Instrument type: GC-APCI-QTOF
Ms type: MS2
Ion mode: POSITIVE
Ionization: APCI
Fragmentation mode: CID
Collision energy: 20 eV
Resolution: 35000
Column name: Rxi-5Sil MS column, 30m, 0.25mm i.d., 0.25Âµm film thickness, Restek
Retention time: 9.359 min
Base peak: 142.1584
Precursor m/z: 186.2216
Precursor type: [M+H]+
m/z	relative intensity	assigned
57.0702	16	C4H9+
128.1433	48	C8H18N+
130.1583	278	C8H20N+
142.1588	48	C9H20N+
184.2065	56	C12H26N+
185.2124	10	C12H27N+
186.2216	999	C12H28N+
