Mass spectrum: Dimethachlor-ESA; LC-ESI-QTOF; MS2; CE: 50 eV; R=35000; [M+H]+
Name: Dimethachlor-ESA
Name: 2-[N-(2-methoxyethyl)-2,6-dimethylanilino]-2-oxoethanesulfonic acid
Formula: C13H19NO5S
Exact mass: 301.0983937
SMILES: COCCN(C(=O)CS(O)(=O)=O)c1c(C)cccc1C
InChI: InChI=1S/C13H19NO5S/c1-10-5-4-6-11(2)13(10)14(7-8-19-3)12(15)9-20(16,17)18/h4-6H,7-9H2,1-3H3,(H,16,17,18)
Instrument: Bruker maXis Impact
Instrument type: LC-ESI-QTOF
Ms type: MS2
Ion mode: POSITIVE
Ionization: ESI
Fragmentation mode: CID
Collision energy: 50 eV
Resolution: 35000
Column name: Acclaim RSLC C18 2.2um, 2.1x100mm, Thermo
Retention time: 5.3 min
Base peak: 302.1056
Precursor m/z: 302.1057
Precursor type: [M+H]+
m/z	relative intensity	assigned
117.057	152	C8H7N+
118.0618	30	C5H10O3+
130.064	125	C9H8N+
131.072	302	C9H9N+
132.08	999	C9H10N+
133.0836	108	C8[13]CH10N+
134.0963	18	C9H12N+
144.0791	73	C7H12O3+
145.0889	27	C10H11N+
146.0955	625	C10H12N+
147.0986	107	C5H13N3O2+
148.1118	57	C10H14N+
158.0958	61	C11H12N+
159.1005	30	C8H15O3+
174.0905	406	C11H12NO+
175.0939	59	C10[13]CH12NO+
