Mass spectrum: 2-Amino-3,8-dimethylimidazo-[4,5-f]quinoxaline (MeIQx); LC-ESI-QTOF; MS2; CE: 40 eV; R=35000; [M+H]+
Name: 2-Amino-3,8-dimethylimidazo-[4,5-f]quinoxaline (MeIQx)
Name: MeIQx
Name: 3,8-dimethylimidazo[4,5-f]quinoxalin-2-amine
Formula: C11H11N5
Exact mass: 213.1014454
SMILES: CN1C(N)=NC2=C1C=CC1=NC=C(C)N=C21
InChI: InChI=1S/C11H11N5/c1-6-5-13-7-3-4-8-10(9(7)14-6)15-11(12)16(8)2/h3-5H,1-2H3,(H2,12,15)
Instrument: Bruker maXis Impact
Instrument type: LC-ESI-QTOF
Ms type: MS2
Ion mode: POSITIVE
Ionization: ESI
Fragmentation mode: CID
Collision energy: 40 eV
Resolution: 35000
Column name: Acclaim RSLC C18 2.2um, 2.1x100mm, Thermo
Retention time: 4.081 min
Base peak: 214.1081
Precursor m/z: 214.1087
Precursor type: [M+H]+
m/z	relative intensity	assigned
116.049	5	C8H6N+
117.0436	5	C7H5N2+
118.0513	5	C7H6N2+
119.0593	12	C7H7N2+
129.0435	23	C8H5N2+
130.0386	11	C7H4N3+
130.0498	7	C8H6N2+
131.0466	358	C7H5N3+
132.0499	25	C6[13]CH5N3+
133.0747	9	C8H9N2+
134.0574	5	C6H6N4+
142.0513	9	C9H6N2+
143.0585	31	C9H7N2+
144.0544	18	C8H6N3+
144.0655	12	C9H8N2+
145.0617	28	C8H7N3+
145.0737	23	C9H9N2+
146.0698	180	C8H8N3+
147.0733	17	C7[13]CH8N3+
156.0538	41	C9H6N3+
157.0608	22	C9H7N3+
158.0572	26	C8H6N4+
159.0641	7	C8H7N4+
159.0764	7	C9H9N3+
160.0849	44	C9H10N3+
161.0879	5	C8[13]CH10N3+
170.0693	27	C10H8N3+
171.0649	128	C9H7N4+
172.0728	267	C9H8N4+
173.0795	101	C9H9N4+
174.0778	14	C8H8N5+
184.0602	9	C9H6N5+
185.0803	11	C10H9N4+
187.096	31	C10H11N4+
197.0801	32	C11H9N4+
198.076	45	C10H8N5+
199.0841	999	C10H9N5+
200.0868	98	C9[13]CH9N5+
212.0916	9	C11H10N5+
213.0983	10	C11H11N5+
214.1074	132	C11H12N5+
215.1103	19	C10[13]CH12N5+
