Mass spectrum: Atenolol; LC-ESI-QTOF; MS2; CE: 30 eV; R=35000; [M+H]+
Name: Atenolol
Name: 2-[4-[2-hydroxy-3-(propan-2-ylamino)propoxy]phenyl]acetamide
Formula: C14H22N2O3
Exact mass: 266.1630426
SMILES: CC(C)NCC(COc1ccc(cc1)CC(=O)N)O
InChI: InChI=1S/C14H22N2O3/c1-10(2)16-8-12(17)9-19-13-5-3-11(4-6-13)7-14(15)18/h3-6,10,12,16-17H,7-9H2,1-2H3,(H2,15,18)
Instrument: Bruker maXis Impact
Instrument type: LC-ESI-QTOF
Ms type: MS2
Ion mode: POSITIVE
Ionization: ESI
Fragmentation mode: CID
Collision energy: 30 eV
Resolution: 35000
Column name: Acclaim RSLC C18 2.2um, 2.1x100mm, Thermo
Retention time: 3.0 min
Base peak: 267.1702
Precursor m/z: 267.1703
Precursor type: [M+H]+
m/z	relative intensity	assigned
115.0533	14	C9H7+
116.1064	25	C6H14NO+
117.0692	14	C9H9+
119.0482	21	C8H7O+
122.0598	13	C7H8NO+
131.0479	7	C9H7O+
136.0739	5	C8H10NO+
144.0791	6	C7H12O3+
145.0637	999	C10H9O+
146.067	82	C5H10N2O3+
147.0428	48	C9H7O2+
147.0711	5	C4[13]CH10N2O3+
147.0794	9	C10H11O+
148.0457	5	C4H8N2O4+
152.0695	26	C8H10NO2+
161.0582	8	C10H9O2+
162.065	22	C10H10O2+
162.0901	72	C10H12NO+
163.0739	28	C10H11O2+
163.0933	8	C5H13N3O3+
164.0695	133	C9H10NO2+
165.0728	12	C8[13]CH10NO2+
173.0585	57	C11H9O2+
174.0623	6	C6H10N2O4+
178.0853	221	C10H12NO2+
179.0883	19	C9[13]CH12NO2+
182.08	25	C9H12NO3+
190.0853	337	C11H12NO2+
191.0882	36	C6H13N3O4+
204.1368	5	C13H18NO+
208.096	70	C11H14NO3+
209.0983	8	C13H11N3+
225.1223	51	C11H17N2O3+
226.1259	6	C13H14N4+
267.1697	92	C14H23N2O3+
