Mass spectrum: Tricresylphosphate; LC-ESI-QTOF; MS2; CE: Ramp 23.0-34.5 eV; R=35000; [M+H]+
Name: Tricresylphosphate
Name: Tri-P-cresyl phosphate
Name: tris(4-methylphenyl) phosphate
Formula: C21H21O4P
Exact mass: 368.1177458
SMILES: CC1=CC=C(OP(=O)(OC2=CC=C(C)C=C2)OC2=CC=C(C)C=C2)C=C1
InChI: InChI=1S/C21H21O4P/c1-16-4-10-19(11-5-16)23-26(22,24-20-12-6-17(2)7-13-20)25-21-14-8-18(3)9-15-21/h4-15H,1-3H3
Instrument: Bruker maXis Impact
Instrument type: LC-ESI-QTOF
Ms type: MS2
Ion mode: POSITIVE
Ionization: ESI
Fragmentation mode: CID
Collision energy: Ramp 23.0-34.5 eV
Resolution: 35000
Column name: Acclaim RSLC C18 2.2um, 2.1x100mm, Thermo
Retention time: 12.743 min
Base peak: 369.125
Precursor m/z: 369.125
Precursor type: [M+H]+
m/z	relative intensity	assigned
91.0539	6	C7H7+
107.0505	10	C7H7O+
153.0685	8	C5H14O3P+
154.0181	5	C7H7O2P+
165.0697	107	C13H9+
166.0771	228	C13H10+
167.0811	33	C12[13]CH10+
179.0855	19	C14H11+
180.0918	7	C7H17O3P+
181.1008	43	C14H13+
182.1053	12	C7H19O3P+
189.0302	12	C7H10O4P+
196.0876	13	C14H12O+
197.0941	6	C7H18O4P+
199.1102	15	C7H20O4P+
241.1016	13	C19H13+
243.0562	44	C14H12O2P+
244.062	9	C13[13]CH12O2P+
255.1149	5	C13H20O3P+
256.1241	44	C20H16+
257.1263	10	C19[13]CH16+
261.0671	198	C14H14O3P+
262.0715	27	C13[13]CH14O3P+
271.1451	7	C21H19+
279.0773	84	C14H16O4P+
280.0822	17	C13[13]CH16O4P+
351.1143	6	C21H20O3P+
369.1259	999	C21H22O4P+
370.1288	237	C20[13]CH22O4P+
371.1302	26	C19[13]C2H22O4P+
