Mass spectrum: desethyl-desisopropyl-atrazine; LC-ESI-QTOF; MS2; CE: 10 eV; R=35000; [M+H]+
Name: desethyl-desisopropyl-atrazine
Name: 2-Chloro-4,6-diamino-1,3,5-triazine
Name: 6-chloro-1,3,5-triazine-2,4-diamine
Formula: C3H4ClN5
Exact mass: 145.0155228
SMILES: c1(nc(nc(n1)Cl)N)N
InChI: InChI=1S/C3H4ClN5/c4-1-7-2(5)9-3(6)8-1/h(H4,5,6,7,8,9)
Instrument: Bruker maXis Impact
Instrument type: LC-ESI-QTOF
Ms type: MS2
Ion mode: POSITIVE
Ionization: ESI
Fragmentation mode: CID
Collision energy: 10 eV
Resolution: 35000
Column name: Acclaim RSLC C18 2.2um, 2.1x100mm, Thermo
Retention time: 2.878 min
Base peak: 121.077
Precursor m/z: 146.0228
Precursor type: [M+H]+
m/z	relative intensity	assigned
146.0241	999	C3H5ClN5+
