Mass spectrum: Captopril; LC-ESI-QTOF; MS2; CE: Ramp 18.7-28.0 eV; R=35000; [M+H]+
Name: Captopril
Name: (2S)-1-[(2S)-2-methyl-3-sulfanylpropanoyl]pyrrolidine-2-carboxylic acid
Formula: C9H15NO3S
Exact mass: 217.0772643
SMILES: C[C@H](CS)C(=O)N1CCC[C@H]1C(O)=O
InChI: InChI=1S/C9H15NO3S/c1-6(5-14)8(11)10-4-2-3-7(10)9(12)13/h6-7,14H,2-5H2,1H3,(H,12,13)/t6-,7+/m1/s1
Instrument: Bruker maXis Impact
Instrument type: LC-ESI-QTOF
Ms type: MS2
Ion mode: POSITIVE
Ionization: ESI
Fragmentation mode: CID
Collision energy: Ramp 18.7-28.0 eV
Resolution: 35000
Column name: Acclaim RSLC C18 2.2um, 2.1x100mm, Thermo
Retention time: 4.390 min
Base peak: 362.1512
Precursor m/z: 218.0845
Precursor type: [M+H]+
m/z	relative intensity	assigned
70.0645	999	C4H8N+
75.0267	344	C3H7S+
116.0714	743	C5H10NO2+
172.0796	569	C8H14NOS+
176.0703	307	C7H14NO2S+
218.0802	344	C9H16NO3S+
