Mass spectrum: N4-Acetylsulfadiazine; LC-ESI-QTOF; MS2; CE: 40 eV; R=35000; [M+H]+
Name: N4-Acetylsulfadiazine
Name: N-Acetyl Sulfadiazine
Name: N-[4-(pyrimidin-2-ylsulfamoyl)phenyl]acetamide
Formula: C12H12N4O3S
Exact mass: 292.0630112
SMILES: CC(=O)NC1=CC=C(C=C1)S(=O)(=O)NC1=NC=CC=N1
InChI: InChI=1S/C12H12N4O3S/c1-9(17)15-10-3-5-11(6-4-10)20(18,19)16-12-13-7-2-8-14-12/h2-8H,1H3,(H,15,17)(H,13,14,16)
Instrument: Bruker maXis Impact
Instrument type: LC-ESI-QTOF
Ms type: MS2
Ion mode: POSITIVE
Ionization: ESI
Fragmentation mode: CID
Collision energy: 40 eV
Resolution: 35000
Column name: Acclaim RSLC C18 2.2um, 2.1x100mm, Thermo
Retention time: 3.9 min
Base peak: 293.0697
Precursor m/z: 293.0703
Precursor type: [M+H]+
m/z	relative intensity	assigned
134.0591	999	C8H8NO+
135.0609	130	C7[13]CH8NO
156.0111	89	C6H6NO2S+
168.0548	59	C10H6N3+
184.073	70	C7H10N3O3+
185.0809	384	C10H9N4+
186.0662	65	C10H8N3O+
186.0828	66	C9[13]CH9N4+
198.02	58	C6H6N4O2S+
227.0926	93	C12H11N4O+
