Mass spectrum: Gestoden; LC-ESI-QTOF; MS2; CE: 50 eV; R=35000; [M+H]+
Name: Gestoden
Name: Gestodene
Name: (8R,9S,10R,13S,14S,17R)-13-ethyl-17-ethynyl-17-hydroxy-1,2,6,7,8,9,10,11,12,14-decahydrocyclopenta[a]phenanthren-3-one
Formula: C21H26O2
Exact mass: 310.1932801
SMILES: [H][C@@]12C=C[C@@](O)(C#C)[C@@]1(CC)CC[C@]1([H])[C@@]3([H])CCC(=O)C=C3CC[C@@]21[H]
InChI: InChI=1S/C21H26O2/c1-3-20-11-9-17-16-8-6-15(22)13-14(16)5-7-18(17)19(20)10-12-21(20,23)4-2/h2,10,12-13,16-19,23H,3,5-9,11H2,1H3/t16-,17+,18+,19-,20-,21-/m0/s1
Instrument: Bruker maXis Impact
Instrument type: LC-ESI-QTOF
Ms type: MS2
Ion mode: POSITIVE
Ionization: ESI
Fragmentation mode: CID
Collision energy: 50 eV
Resolution: 35000
Column name: Acclaim RSLC C18 2.2um, 2.1x100mm, Thermo
Retention time: 9.437 min
Base peak: 311.2005
Precursor m/z: 311.2006
Precursor type: [M+H]+
m/z	relative intensity	assigned
107.0497	10	C7H7O+
115.0535	491	C9H7+
116.0593	111	C9H8+
117.0689	239	C9H9+
118.0408	12	C8H6O+
118.073	35	C8[13]CH9+
119.0479	23	C8H7O+
119.0845	149	C9H11+
120.0547	11	C8H8O+
120.0884	21	C8[13]CH11+
121.0633	48	C8H9O+
121.1003	25	C9H13+
122.068	8	C7[13]CH9O+
123.0797	43	C8H11O+
126.0462	22	C10H6+
127.0528	96	C10H7+
128.0609	999	C10H8+
129.0683	784	C10H9+
130.075	176	C10H10+
131.048	127	C9H7O+
131.0841	391	C10H11+
132.055	54	C9H8O+
132.0879	60	C9[13]CH11+
133.0634	171	C9H9O+
133.0998	122	C10H13+
134.1041	19	C9[13]CH13+
135.0792	141	C9H11O+
136.0825	15	C8[13]CH11O+
137.0954	9	C9H13O+
139.0528	23	C11H7+
141.0685	700	C11H9+
142.0757	360	C11H10+
143.084	348	C11H11+
144.0552	103	C10H8O+
144.0902	77	C11H12+
145.0635	242	C10H9O+
145.0996	189	C11H13+
146.0696	65	C10H10O+
147.0793	120	C10H11O+
147.1155	32	C11H15+
148.0846	27	C10H12O+
148.1212	8	C11H16+
149.0948	81	C10H13O+
149.1307	9	C11H17+
151.0513	13	C12H7+
152.0606	221	C12H8+
153.0685	496	C12H9+
154.0756	265	C12H10+
155.0836	366	C12H11+
156.0906	119	C12H12+
157.0638	119	C11H9O+
157.0998	137	C12H13+
158.071	82	C11H10O+
158.1054	28	C11[13]CH13+
159.0788	161	C11H11O+
159.1154	87	C12H15+
160.0856	32	C11H12O+
160.1229	13	C11[13]CH15+
161.0946	72	C11H13O+
161.1318	24	C12H17+
162.1008	18	C11H14O+
163.1117	15	C11H15O+
164.0602	10	C13H8+
165.0682	402	C13H9+
166.0746	199	C13H10+
167.0837	334	C13H11+
168.0555	15	C12H8O+
168.0909	150	C13H12+
169.0634	48	C12H9O+
169.0994	157	C13H13+
170.0708	24	C12H10O+
170.1067	39	C13H14+
171.079	102	C12H11O+
171.1156	81	C13H15+
172.086	40	C12H12O+
173.0947	63	C12H13O+
173.1312	48	C13H17+
174.1358	7	C12[13]CH17+
175.1109	18	C12H15O+
176.0619	11	C14H8+
177.0684	22	C14H9+
178.0762	176	C14H10+
179.0837	231	C14H11+
180.0906	83	C14H12+
181.0649	36	C13H9O+
181.0995	119	C14H13+
182.0727	15	C13H10O+
182.105	52	C14H14+
183.0786	38	C13H11O+
183.1152	79	C14H15+
184.0842	18	C13H12O+
184.121	24	C14H16+
185.0955	29	C13H13O+
185.1316	18	C14H17+
186.1015	21	C13H14O+
187.1109	44	C13H15O+
188.1153	19	C13H16O+
189.068	54	C15H9+
190.0757	45	C15H10+
191.0846	118	C15H11+
192.0917	66	C15H12+
193.0995	86	C15H13+
194.0723	31	C14H10O+
194.1053	35	C15H14+
195.0791	43	C14H11O+
195.1151	48	C15H15+
196.0848	10	C14H12O+
196.1209	15	C15H16+
197.0954	21	C14H13O+
197.1308	25	C15H17+
198.1024	10	C14H14O+
199.1098	38	C14H15O+
200.1189	10	C14H16O+
201.1263	173	C14H17O+
202.076	58	C16H10+
202.1299	37	C13[13]CH17O+
203.0854	77	C16H11+
204.0899	35	C16H12+
205.0995	69	C16H13+
206.1071	31	C16H14+
207.0781	22	C15H11O+
207.1149	43	C16H15+
208.0852	21	C15H12O+
208.121	14	C16H16+
209.0948	25	C15H13O+
209.1305	16	C16H17+
210.1027	11	C15H14O+
211.1103	15	C15H15O+
211.1467	10	C16H19+
213.1272	12	C15H17O+
214.1316	10	C15H18O+
215.0841	21	C17H11+
215.1416	12	C15H19O+
216.0927	16	C17H12+
217.1012	44	C17H13+
218.1064	24	C17H14+
219.1144	19	C17H15+
220.0865	9	C16H12O+
220.1205	13	C17H16+
221.0967	21	C16H13O+
221.1311	10	C17H17+
223.1099	8	C16H15O+
227.1425	11	C16H19O+
229.0984	12	C18H13+
230.106	10	C18H14+
231.116	16	C18H15+
232.124	9	C18H16+
233.1299	9	C18H17+
235.11	16	C17H15O+
249.1277	8	C18H17O+
263.1381	11	C19H19O+
