Mass spectrum: Sulfathiazole; LC-ESI-QTOF; MS2; CE: 30 eV; R=35000; [M+H]+
Name: Sulfathiazole
Name: 4-amino-N-(1,3-thiazol-2-yl)benzenesulfonamide
Formula: C9H9N3O2S2
Exact mass: 255.0136185
SMILES: NC1=CC=C(C=C1)S(=O)(=O)NC1=NC=CS1
InChI: InChI=1S/C9H9N3O2S2/c10-7-1-3-8(4-2-7)16(13,14)12-9-11-5-6-15-9/h1-6H,10H2,(H,11,12)
Instrument: Bruker maXis Impact
Instrument type: LC-ESI-QTOF
Ms type: MS2
Ion mode: POSITIVE
Ionization: ESI
Fragmentation mode: CID
Collision energy: 30 eV
Resolution: 35000
Column name: Acclaim RSLC C18 2.2um, 2.1x100mm, Thermo
Retention time: 5.124 min
Base peak: 256.0149
Precursor m/z: 256.0209
Precursor type: [M+H]+
m/z	relative intensity	assigned
122.9987	8	C5H3N2S+
151.0169	26	C9HN3+
153.0141	7	C3H9N2OS2+
158.9563	13	C5H3O2S2+
158.975	41	C8HNOS+
160.9719	25	C3H3N3OS2+
166.0281	63	C8H8NOS+
167.0175	8	C3H9N3OS2+
168.0247	13	C8H8O2S+
171.9703	49	C8N2OS+
172.9658	11	C9HO2S+
173.9675	28	C5H4NO2S2+
173.9859	17	C8H2N2OS+
174.9635	6	C4H3N2O2S2+
175.9829	9	C5H6NO2S2+
178.0148	8	C6H10O2S2+
179.0231	8	C8H7N2OS+
183.9702	28	C9N2OS+
185.9675	18	C6H4NO2S2+
185.9859	20	C9H2N2OS+
186.9814	57	C8HN3OS+
187.9835	16	C6H6NO2S2+
188.9786	31	C5H5N2O2S2+
193.0386	7	C9H9N2OS+
211.9784	21	C8H6NO2S2+
212.9787	57	C7H5N2O2S2+
213.9743	11	C6H4N3O2S2+
213.9901	8	C7H6N2O2S2+
215.9888	5	C6H6N3O2S2+
222.0343	6	C9H8N3O2S+
229.003	22	C7H7N3O2S2+
256.0147	999	C9H10N3O2S2+
