Mass spectrum: Venlafaxine N-Oxide; LC-ESI-QTOF; MS2; CE: 50 eV; R=35000; [M+H]+
Name: Venlafaxine N-Oxide
Name: SCHEMBL3276808
Name: 2-(1-hydroxycyclohexyl)-2-(4-methoxyphenyl)-N,N-dimethylethanamine oxide
Formula: C17H27NO3
Exact mass: 293.1990937
SMILES: OC1(C(C2=CC=C(OC)C=C2)C[N+](C)(C)[O-])CCCCC1
InChI: InChI=1S/C17H27NO3/c1-18(2,20)13-16(17(19)11-5-4-6-12-17)14-7-9-15(21-3)10-8-14/h7-10,16,19H,4-6,11-13H2,1-3H3
Instrument: Bruker maXis Impact
Instrument type: LC-ESI-QTOF
Ms type: MS2
Ion mode: POSITIVE
Ionization: ESI
Fragmentation mode: CID
Collision energy: 50 eV
Resolution: 35000
Column name: Acclaim RSLC C18 2.2um, 2.1x100mm, Thermo
Retention time: 6.9 min
Base peak: 294.2062
Precursor m/z: 294.2064
Precursor type: [M+H]+
m/z	relative intensity	assigned
121.064	999	C8H9O+
122.0672	74	C7[13]CH9O+
123.0696	5	C6[13]C2H9O+
135.0795	17	C9H11O+
144.056	5	C10H8O+
146.0953	7	C10H12N+
147.0793	8	C10H11O+
148.0744	23	C9H10NO+
158.0711	6	C11H10O+
159.0787	6	C11H11O+
163.0975	11	C10H13NO+
173.0947	5	C12H13O+
