Mass spectrum: Methiocarb-sulfoxide; LC-ESI-QTOF; MS2; CE: 40 eV; R=35000; [M+H]+
Name: Methiocarb-sulfoxide
Name: Mesurol sulfoxide
Name: (3,5-dimethyl-4-methylsulfinylphenyl) N-methylcarbamate
Formula: C11H15NO3S
Exact mass: 241.0772643
SMILES: CNC(=O)OC1=CC(C)=C(C(C)=C1)S(C)=O
InChI: InChI=1S/C11H15NO3S/c1-7-5-9(15-11(13)12-3)6-8(2)10(7)16(4)14/h5-6H,1-4H3,(H,12,13)
Instrument: Bruker maXis Impact
Instrument type: LC-ESI-QTOF
Ms type: MS2
Ion mode: POSITIVE
Ionization: ESI
Fragmentation mode: CID
Collision energy: 40 eV
Resolution: 35000
Column name: Acclaim RSLC C18 2.2um, 2.1x100mm, Thermo
Retention time: 4.7 min
Base peak: 242.0844
Precursor m/z: 242.0845
Precursor type: [M+H]+
m/z	relative intensity	assigned
121.0641	98	C8H9O+
122.072	722	C8H10O+
123.0433	6	C7H7O2+
123.0753	53	C7[13]CH10O+
125.041	6	C7H9S+
137.0589	5	C8H9O2+
138.0662	12	C8H10O2+
151.0199	31	C8H7OS+
152.0278	91	C8H8OS+
153.0359	999	C8H9OS+
154.0389	58	C7[13]CH9OS+
155.0318	23	C8H9O[34]S+
168.0593	381	C9H12OS+
169.0625	29	C8[13]CH12OS+
170.0387	517	C8H10O2S+
171.0417	42	C7[13]CH10O2S+
172.0346	16	C8H10O2[34]S+
185.062	53	C9H13O2S+
186.0653	5	C8[13]CH13O2S+
187.0595	2	C9H13O2[34]S+
