Mass spectrum: Ibuprofen; LC-ESI-QTOF; MS2; CE: 10 eV; R=35000; [M-H]-
Name: Ibuprofen
Name: 2-[4-(2-methylpropyl)phenyl]propanoic acid
Formula: C13H18O2
Exact mass: 206.1306798
SMILES: CC(C)CC1=CC=C(C=C1)C(C)C(O)=O
InChI: InChI=1S/C13H18O2/c1-9(2)8-11-4-6-12(7-5-11)10(3)13(14)15/h4-7,9-10H,8H2,1-3H3,(H,14,15)
Instrument: Bruker maXis Impact
Instrument type: LC-ESI-QTOF
Ms type: MS2
Ion mode: NEGATIVE
Ionization: ESI
Fragmentation mode: CID
Collision energy: 10 eV
Resolution: 35000
Column name: Acclaim RSLC C18 2.2um, 2.1x100mm, Thermo
Retention time: 9.031 min
Base peak: 159.1176
Precursor m/z: 205.1234
Precursor type: [M-H]-
m/z	relative intensity	assigned
159.1203	999	C12H15-
