Mass spectrum: Dinoseb; LC-ESI-QTOF; MS2; CE: 10 eV; R=35000; [M-H]-
Name: Dinoseb
Name: 2-butan-2-yl-4,6-dinitrophenol
Formula: C10H12N2O5
Exact mass: 240.0746215
SMILES: CCC(C)C1=C(O)C(=CC(=C1)[N+]([O-])=O)[N+]([O-])=O
InChI: InChI=1S/C10H12N2O5/c1-3-6(2)8-4-7(11(14)15)5-9(10(8)13)12(16)17/h4-6,13H,3H2,1-2H3
Instrument: Bruker maXis Impact
Instrument type: LC-ESI-QTOF
Ms type: MS2
Ion mode: NEGATIVE
Ionization: ESI
Fragmentation mode: CID
Collision energy: 10 eV
Resolution: 35000
Column name: Acclaim RSLC C18 2.2um, 2.1x100mm, Thermo
Retention time: 7.951 min
Base peak: 239.0679
Precursor m/z: 239.0673
Precursor type: [M-H]-
m/z	relative intensity	assigned
193.0252	10	C8H5N2O4-
194.0461	20	C9H8NO4-
222.0638	5	C10H10N2O4-
239.0678	999	C10H11N2O5-
240.0705	109	C9[13]CH11N2O5-
241.0717	10	C10H11N2O4[18]O-
