Mass spectrum: Triadimenol; LC-ESI-QTOF; MS2; CE: Ramp 21.5-32.2 eV; R=35000; [M+H]+
Name: Triadimenol
Name: 1-(4-chlorophenoxy)-3,3-dimethyl-1-(1,2,4-triazol-1-yl)butan-2-ol
Formula: C14H18ClN3O2
Exact mass: 295.1087545
SMILES: CC(C)(C)C(O)C(OC1=CC=C(Cl)C=C1)N1C=NC=N1
InChI: InChI=1S/C14H18ClN3O2/c1-14(2,3)12(19)13(18-9-16-8-17-18)20-11-6-4-10(15)5-7-11/h4-9,12-13,19H,1-3H3
Instrument: Bruker maXis Impact
Instrument type: LC-ESI-QTOF
Ms type: MS2
Ion mode: POSITIVE
Ionization: ESI
Fragmentation mode: CID
Collision energy: Ramp 21.5-32.2 eV
Resolution: 35000
Column name: Acclaim RSLC C18 2.2um, 2.1x100mm, Thermo
Retention time: 9.934 min
Base peak: 102.1285
Precursor m/z: 296.116
Precursor type: [M+H]+
m/z	relative intensity	assigned
57.0703	34	C4H9+
70.0395	999	C2H4N3+
71.0365	17	C2H4N2[15]N+
71.0433	22	C[13]CH4N3+
99.08	47	C6H11O+
141.0085	14	C8HN2O+
144.1371	99	C8H18NO+
161.0942	23	C9H11N3+
165.0544	15	C6H12ClNO2+
203.104	12	C11H13N3O+
209.0708	15	C13H9N2O+
227.0822	24	C10H14ClN3O+
