Mass spectrum: 2-Perfluorodecyl ethanoic acid (10:2) (FDEA); LC-ESI-QTOF; MS2; CE: 27.2-40.8 eV; R=35000; [M-H]-
Name: 2-Perfluorodecyl ethanoic acid (10:2) (FDEA)
Formula: C12H3F21O2
Exact mass: 577.9798
SMILES: C(C(=O)O)C(C(C(C(C(C(C(C(C(C(F)(F)F)(F)F)(F)F)(F)F)(F)F)(F)F)(F)F)(F)F)(F)F)(F)F
InChI: InChI=1S/C12H3F21O2/c13-3(14,1-2(34)35)4(15,16)5(17,18)6(19,20)7(21,22)8(23,24)9(25,26)10(27,28)11(29,30)12(31,32)33/h1H2,(H,34,35)
Instrument: Bruker maXis Impact
Instrument type: LC-ESI-QTOF
Ms type: MS2
Ionization: ESI
Fragmentation mode: CID
Collision energy: 27.2-40.8 eV
Resolution: 35000
Column name: Acclaim RSLC C18 2.2um, 2.1x100mm, Thermo
Retention time: 11.905 min
Base peak: 59.0129
Precursor m/z: 576.9725
Precursor type: [M-H]-
m/z	relative intensity	assigned
492.9731	999	C5H2F21O2-
493.9742	987	C11HF19-
