Mass spectrum: Fumonisin B1; LC-ESI-QTOF; MS2; CE: 50 eV; R=35000; [M+H]+
Name: Fumonisin B1
Name: 2-[2-[19-amino-6-(3,4-dicarboxybutanoyloxy)-11,16,18-trihydroxy-5,9-dimethylicosan-7-yl]oxy-2-oxoethyl]butanedioic acid
Class: Natural Product; Fungal metabolite
Formula: C34H59NO15
Exact mass: 721.3885
SMILES: CCCCC(C)C(C(CC(C)CC(CCCCC(CC(C(C)N)O)O)O)OC(=O)CC(CC(=O)O)C(=O)O)OC(=O)CC(CC(=O)O)C(=O)O
InChI: InChI=1S/C34H59NO15/c1-5-6-9-20(3)32(50-31(44)17-23(34(47)48)15-29(41)42)27(49-30(43)16-22(33(45)46)14-28(39)40)13-19(2)12-24(36)10-7-8-11-25(37)18-26(38)21(4)35/h19-27,32,36-38H,5-18,35H2,1-4H3,(H,39,40)(H,41,42)(H,45,46)(H,47,48)
Instrument: Bruker maXis Impact
Instrument type: LC-ESI-QTOF
Ms type: MS2
Ion mode: POSITIVE
Ionization: ESI
Fragmentation mode: CID
Collision energy: 50 eV
Resolution: 35000
Column name: Acclaim RSLC C18 2.2um, 2.1x100mm, Thermo
Retention time: 8.642 min
Base peak: 722.3951
Precursor m/z: 722.3957
Precursor type: [M+H]+
m/z	relative intensity	assigned
121.1012	37	C9H13+
123.1153	45	C9H15+
133.1019	54	C10H13+
135.1159	77	C10H15+
137.1312	38	C10H17+
141.0178	94	C6H5O4+
145.102	37	C11H13+
147.1165	98	C11H15+
149.131	61	C11H17+
151.1126	23	C10H15O+
151.1479	77	C11H19+
159.0285	114	C6H7O5+
159.1181	24	C12H15+
161.1322	97	C12H17+
163.1475	65	C12H19+
165.1629	53	C12H21+
168.1377	63	C10H18NO+
173.1331	25	C13H17+
175.1487	58	C13H19+
177.1632	37	C13H21+
186.1491	168	C10H20NO2+
187.1517	46	C7H23O5+
189.1613	60	C14H21+
192.1743	33	C13H22N+
201.1641	95	C15H21+
203.1792	29	C15H23+
204.1594	28	C10H22NO3+
210.1876	59	C3H30O9+
222.1874	25	C4H30O9+
236.1995	82	C12H28O4+
240.1939	26	C11H28O5+
243.213	30	C18H27+
245.2259	54	C3H35NO10+
254.209	45	C12H30O5+
259.2403	31	C4H37NO10+
299.2712	35	C7H41NO10+
300.276	22	C14H38NO5+
316.2996	303	C22H38N+
317.2855	49	C22H37O+
317.3051	84	C19H41O3+
334.3103	999	C22H40NO+
335.3147	256	C4H49NO14+
336.3175	24	C11H46NO9+
352.3206	734	C22H42NO2+
353.326	206	C19H45O5+
354.3264	51	C11H48NO10+
370.3307	170	C22H44NO3+
371.3338	28	C26H43O+
492.3296	34	C25H48O9+
510.3426	93	C28H48NO7+
511.3461	40	C25H51O10+
528.3529	76	C28H50NO8+
529.3563	25	C25H53O11+
546.3555	31	C32H50O7+
686.3692	35	C34H56NO13+
687.3782	22	C34H57NO13+
704.3849	53	C34H58NO14+
705.3939	27	C34H59NO14+
