Mass spectrum: Fumonisin B1; LC-ESI-QTOF; MS2; CE: 30 eV; R=35000; [M+H]+
Name: Fumonisin B1
Name: 2-[2-[19-amino-6-(3,4-dicarboxybutanoyloxy)-11,16,18-trihydroxy-5,9-dimethylicosan-7-yl]oxy-2-oxoethyl]butanedioic acid
Class: Natural Product; Fungal metabolite
Formula: C34H59NO15
Exact mass: 721.3885
SMILES: CCCCC(C)C(C(CC(C)CC(CCCCC(CC(C(C)N)O)O)O)OC(=O)CC(CC(=O)O)C(=O)O)OC(=O)CC(CC(=O)O)C(=O)O
InChI: InChI=1S/C34H59NO15/c1-5-6-9-20(3)32(50-31(44)17-23(34(47)48)15-29(41)42)27(49-30(43)16-22(33(45)46)14-28(39)40)13-19(2)12-24(36)10-7-8-11-25(37)18-26(38)21(4)35/h19-27,32,36-38H,5-18,35H2,1-4H3,(H,39,40)(H,41,42)(H,45,46)(H,47,48)
Instrument: Bruker maXis Impact
Instrument type: LC-ESI-QTOF
Ms type: MS2
Ion mode: POSITIVE
Ionization: ESI
Fragmentation mode: CID
Collision energy: 30 eV
Resolution: 35000
Column name: Acclaim RSLC C18 2.2um, 2.1x100mm, Thermo
Retention time: 8.690 min
Base peak: 722.3962
Precursor m/z: 722.3957
Precursor type: [M+H]+
m/z	relative intensity	assigned
334.3085	28	C19H42O4+
352.3209	67	C22H42NO2+
370.3335	53	C12H50O11+
546.3638	43	C28H52NO9+
686.3728	26	C34H56NO13+
704.3819	87	C34H58NO14+
705.3923	38	C34H59NO14+
722.3949	999	C34H60NO15+
