Mass spectrum: Lidocaine-N-Oxide; LC-ESI-QTOF; MS2; CE: 40 eV; R=35000; [M+H]+
Name: Lidocaine-N-Oxide
Name: Lidocaine N-oxide
Name: 2-(2,6-dimethylanilino)-N,N-diethyl-2-oxoethanamine oxide
Formula: C14H22N2O2
Exact mass: 250.1681279
SMILES: CC[N+]([O-])(CC)CC(=O)NC1=C(C)C=CC=C1C
InChI: InChI=1S/C14H22N2O2/c1-5-16(18,6-2)10-13(17)15-14-11(3)8-7-9-12(14)4/h7-9H,5-6,10H2,1-4H3,(H,15,17)
Instrument: Bruker maXis Impact
Instrument type: LC-ESI-QTOF
Ms type: MS2
Ion mode: POSITIVE
Ionization: ESI
Fragmentation mode: CID
Collision energy: 40 eV
Resolution: 35000
Column name: Acclaim RSLC C18 2.2um, 2.1x100mm, Thermo
Retention time: 5.3 min
Base peak: 251.1752
Precursor m/z: 251.1754
Precursor type: [M+H]+
m/z	relative intensity	assigned
115.0539	8	C9H7+
117.0572	12	C8H7N+
118.0647	37	C8H8N+
119.0724	14	C8H9N+
119.0846	8	C9H11+
120.08	999	C8H10N+
121.0642	8	C8H9O+
121.0846	99	C7[13]CH10N+
122.0955	175	C8H12N+
123.0993	20	C3H13N3O2+
130.0653	7	C9H8N+
131.0715	18	C9H9N+
132.0793	14	C9H10N+
133.0521	24	C8H7NO+
134.0583	12	C8H8NO+
134.0956	132	C9H12N+
135.0985	12	C4H13N3O2+
144.0787	12	C10H10N+
146.0949	36	C10H12N+
147.0667	36	C9H9NO+
148.0747	183	C9H10NO+
148.1105	13	C10H14N+
149.0779	22	C8[13]CH10NO+
150.0907	11	C9H12NO+
163.0621	17	C9H9NO2+
164.1059	29	C10H14NO+
