Mass spectrum: Carbadox; LC-ESI-QTOF; MS2; CE: 50 eV; R=35000; [M+H]+
Name: Carbadox
Name: methyl N-[(1-hydroxy-4-oxidoquinoxalin-4-ium-2-ylidene)methylimino]carbamate
Formula: C11H10N4O4
Exact mass: 262.0702048
SMILES: COC(=O)NN=CC1=[N+](C2=CC=CC=C2[N+](=C1)[O-])[O-]
InChI: InChI=1S/C11H10N4O4/c1-19-11(16)13-12-6-8-7-14(17)9-4-2-3-5-10(9)15(8)18/h2-7H,1H3,(H,13,16)
Instrument: Bruker maXis Impact
Instrument type: LC-ESI-QTOF
Ms type: MS2
Ion mode: POSITIVE
Ionization: ESI
Fragmentation mode: CID
Collision energy: 50 eV
Resolution: 35000
Column name: Acclaim RSLC C18 2.2um, 2.1x100mm, Thermo
Retention time: 4.7 min
Base peak: 221.1026
Precursor m/z: 263.0775
Precursor type: [M+H]+
m/z	relative intensity	assigned
116.0311	179	C2H4N4O2+
129.039	999	C3H5N4O2+
130.0465	236	C3H6N4O2+
142.0472	149	C4H6N4O2+
143.0431	553	C5H7N2O3+
145.0339	173	C3H5N4O3+
147.0493	248	C3H7N4O3+
155.0432	479	C6H7N2O3+
171.0375	294	C6H7N2O4+
