Mass spectrum: Ketoprofen; LC-ESI-QTOF; MS2; CE: 30 eV; R=35000; [M+H]+
Name: Ketoprofen
Name: 2-(3-benzoylphenyl)propanoic acid
Formula: C16H14O3
Exact mass: 254.0942943
SMILES: CC(c1cccc(c1)C(=O)c2ccccc2)C(=O)O
InChI: InChI=1S/C16H14O3/c1-11(16(18)19)13-8-5-9-14(10-13)15(17)12-6-3-2-4-7-12/h2-11H,1H3,(H,18,19)
Instrument: Bruker maXis Impact
Instrument type: LC-ESI-QTOF
Ms type: MS2
Ion mode: POSITIVE
Ionization: ESI
Fragmentation mode: CID
Collision energy: 30 eV
Resolution: 35000
Column name: Acclaim RSLC C18 2.2um, 2.1x100mm, Thermo
Retention time: 8.4 min
Base peak: 255.0928
Precursor m/z: 255.1016
Precursor type: [M+H]+
m/z	relative intensity	assigned
131.0466	445	C9H7O+
177.0518	934	C10H9O3+
194.0688	519	C14H10O+
209.0923	999	C15H13O+
