Mass spectrum: Tetrachlorosalicylanilide; LC-ESI-QTOF; MS2; CE: 40 eV; R=35000; [M-H]-
Name: Tetrachlorosalicylanilide
Name: 3,3`,4`,5-Tetrachlorosalicylanilide
Name: 3,5-dichloro-N-(3,4-dichlorophenyl)-2-hydroxybenzamide
Formula: C13H7Cl4NO2
Exact mass: 348.9230892
SMILES: OC1=C(C=C(Cl)C=C1Cl)C(=O)NC1=CC=C(Cl)C(Cl)=C1
InChI: InChI=1S/C13H7Cl4NO2/c14-6-3-8(12(19)11(17)4-6)13(20)18-7-1-2-9(15)10(16)5-7/h1-5,19H,(H,18,20)
Instrument: Bruker maXis Impact
Instrument type: LC-ESI-QTOF
Ms type: MS2
Ion mode: NEGATIVE
Ionization: ESI
Fragmentation mode: CID
Collision energy: 40 eV
Resolution: 35000
Column name: Acclaim RSLC C18 2.2um, 2.1x100mm, Thermo
Retention time: 10.677 min
Base peak: 196.9148
Precursor m/z: 347.9158
Precursor type: [M-H]-
m/z	relative intensity	assigned
124.9793	183	C6H2ClO-
159.9712	141	C9HClO-
160.9562	999	C6H3Cl2O-
161.9611	90	C5[13]CH3Cl2O-
162.9537	287	C6H3Cl[37]ClO-
185.9517	42	C7H2Cl2NO-
347.9143	537	C13H6Cl4NO2-
