Mass spectrum: Praziquantel; LC-ESI-QTOF; MS2; CE: 30 eV; R=35000; [M+H]+
Name: Praziquantel
Name: 2-(cyclohexanecarbonyl)-3,6,7,11b-tetrahydro-1H-pyrazino[2,1-a]isoquinolin-4-one
Formula: C19H24N2O2
Exact mass: 312.1837780
SMILES: c1ccc2c(c1)CCN3C2CN(CC3=O)C(=O)C4CCCCC4
InChI: InChI=1S/C19H24N2O2/c22-18-13-20(19(23)15-7-2-1-3-8-15)12-17-16-9-5-4-6-14(16)10-11-21(17)18/h4-6,9,15,17H,1-3,7-8,10-13H2
Instrument: Bruker maXis Impact
Instrument type: LC-ESI-QTOF
Ms type: MS2
Ion mode: POSITIVE
Ionization: ESI
Fragmentation mode: CID
Collision energy: 30 eV
Resolution: 35000
Column name: Acclaim RSLC C18 2.2um, 2.1x100mm, Thermo
Retention time: 9.169 min
Base peak: 313.1934
Precursor m/z: 313.1911
Precursor type: [M+H]+
m/z	relative intensity	assigned
128.0621	6	C10H8+
129.0699	30	C10H9+
130.0661	10	C9H8N+
131.0728	8	C9H9N+
132.0812	214	C9H10N+
133.0846	18	C8[13]CH10N+
144.0808	17	C10H10N+
146.0967	120	C10H12N+
147.0999	13	C9[13]CH12N+
158.097	33	C11H12N+
173.1069	7	C11H13N2+
174.0922	338	C11H12NO+
175.0948	43	C10[13]CH12NO+
175.1233	89	C11H15N2+
176.1268	9	C10[13]CH15N2+
203.1191	999	C12H15N2O+
204.1221	106	C11[13]CH15N2O+
205.1245	9	C10[13]C2H15N2O+
256.1707	36	C17H22NO+
257.1725	8	C16[13]CH22NO+
285.1974	25	C18H25N2O+
286.1999	5	C17[13]CH25N2O+
313.1938	8	C19H25N2O2+
