Mass spectrum: Hydrocortisone; LC-ESI-QTOF; MS2; CE: 10 eV; R=35000; [M+H]+
Name: (8S,9S,10R,11S,13S,14S,17R)-11,17-dihydroxy-17-(2-hydroxyacetyl)-10,13-dimethyl-2,6,7,8,9,11,12,14,15,16-decahydro-1H-cyclopenta[a]phenanthren-3-one
Name: Cortisol
Name: Hydrocortisone
Formula: C21H30O5
Exact mass: 362.20932
SMILES: C[C@]12CCC(=O)C=C1CC[C@@H]3[C@@H]2[C@H](C[C@]4([C@H]3CC[C@@]4(C(=O)CO)O)C)O
InChI: InChI=1S/C21H30O5/c1-19-7-5-13(23)9-12(19)3-4-14-15-6-8-21(26,17(25)11-22)20(15,2)10-16(24)18(14)19/h9,14-16,18,22,24,26H,3-8,10-11H2,1-2H3/t14-,15-,16-,18+,19-,20-,21-/m0/s1
Instrument: Bruker maXis Impact
Instrument type: LC-ESI-QTOF
Ms type: MS2
Ion mode: POSITIVE
Ionization: ESI
Fragmentation mode: CID
Collision energy: 10 eV
Resolution: 35000
Column name: Acclaim RSLC C18 2.2um, 2.1x100mm, Thermo
Retention time: 7.804 min
Base peak: 363.2165
Precursor m/z: 363.2166
Precursor type: [M+H]+
m/z	relative intensity	assigned
121.0636	5	C8H9O+
267.1745	7	C19H23O+
303.1947	96	C19H27O3+
304.1991	27	C18[13]CH27O3+
309.1832	12	C21H25O2+
327.1948	21	C21H27O3+
328.1962	5	C20[13]CH27O3+
345.2071	14	C21H29O4+
361.2011	10	C21H29O5+
363.217	999	C21H31O5+
364.22	212	C20[13]CH31O5+
365.2221	38	C19[13]C2H31O5+
