Mass spectrum: Dioctyl Adipate; GC-APCI-QTOF; MS2; CE: 20 eV; R=35000; [M]+
Name: Dioctyl Adipate
Formula: C22H42O4
Exact mass: 370.3083
SMILES: CCCCC(CC)COC(=O)CCCCC(=O)OCC(CC)CCCC
InChI: InChI=1S/C22H42O4/c1-5-9-13-19(7-3)17-25-21(23)15-11-12-16-22(24)26-18-20(8-4)14-10-6-2/h19-20H,5-18H2,1-4H3
Instrument: Bruker 450 GC coupled to maXis Impact
Instrument type: GC-APCI-QTOF
Ms type: MS2
Ion mode: POSITIVE
Ionization: APCI
Fragmentation mode: CID
Collision energy: 20 eV
Resolution: 35000
Column name: Rxi-5Sil MS column, 30m, 0.25mm i.d., 0.25Âµm film thickness, Restek
Retention time: 22.576 min
Base peak: 283.2645
Precursor m/z: 370.3078
Precursor type: [M]+
m/z	relative intensity	assigned
123.116	999	C9H15+
129.0355	360	C9H5O+
137.1354	416	C10H17+
147.1152	790	C11H15+
149.132	582	C11H17+
153.1284	360	C10H17O+
161.1296	457	C12H17+
163.1479	541	C12H19+
164.1544	444	C12H20+
167.1413	388	C11H19O+
171.101	402	C9H15O3+
185.1209	555	C10H17O3+
213.1642	430	C16H21+
247.2458	610	C18H31+
267.2731	541	C18H35O+
296.2639	763	C19H36O2+
