Mass spectrum: ZON; LC-ESI-QTOF; MS2; CE: 40 eV; R=35000; [M+H]+
Name: ZON
Name: 15,17-Dihydroxy-11-methyl-12-oxabicyclo[12.4.0]octadeca-1(14),2,15,17-tetraene-7,13-dione
Name: 16,18-dihydroxy-4-methyl-3-oxabicyclo[12.4.0]octadeca-1(14),12,15,17-tetraene-2,8-dione
Class: Natural Product; Fungal metabolite
Formula: C18H22O5
Exact mass: 318.1467
SMILES: CC1CCCC(=O)CCCC=CC2=C(C(=CC(=C2)O)O)C(=O)O1
InChI: InChI=1S/C18H22O5/c1-12-6-5-9-14(19)8-4-2-3-7-13-10-15(20)11-16(21)17(13)18(22)23-12/h3,7,10-12,20-21H,2,4-6,8-9H2,1H3
Instrument: Bruker maXis Impact
Instrument type: LC-ESI-QTOF
Ms type: MS2
Ion mode: POSITIVE
Ionization: ESI
Fragmentation mode: CID
Collision energy: 40 eV
Resolution: 35000
Column name: Acclaim RSLC C18 2.2um, 2.1x100mm, Thermo
Retention time: 9.895 min
Base peak: 319.1534
Precursor m/z: 319.154
Precursor type: [M+H]+
m/z	relative intensity	assigned
115.0537	103	C9H7+
123.044	59	C7H7O2+
128.0615	150	C10H8+
129.0694	267	C10H9+
131.0497	69	C9H7O+
131.0837	101	C10H11+
133.064	84	C9H9O+
139.0534	57	C11H7+
141.0698	400	C11H9+
144.058	49	C10H8O+
145.0629	60	C10H9O+
147.044	204	C9H7O2+
147.0794	147	C10H11O+
149.0593	57	C9H9O2+
153.0687	67	C12H9+
157.0645	999	C11H9O+
158.0691	125	C11H10O+
159.0789	85	C11H11O+
160.0511	263	C10H8O2+
161.0597	389	C10H9O2+
163.0759	49	C10H11O2+
165.0202	54	C8H5O4+
167.048	59	C12H7O+
168.0579	81	C12H8O+
169.0641	278	C12H9O+
173.0577	91	C11H9O2+
175.0386	504	C10H7O3+
175.075	434	C11H11O2+
176.0794	90	C11H12O2+
177.0553	123	C10H9O3+
177.0898	104	C11H13O2+
184.051	64	C12H8O2+
185.059	911	C12H9O2+
186.0633	175	C12H10O2+
187.0747	596	C12H11O2+
188.0798	65	C12H12O2+
189.0535	217	C11H9O3+
197.0595	80	C13H9O2+
199.0754	80	C13H11O2+
201.0911	69	C13H13O2+
203.0694	664	C12H11O3+
204.0733	86	C12H12O3+
213.0528	132	C13H9O3+
214.059	49	C13H10O3+
215.069	60	C13H11O3+
219.1728	49	C15H23O+
226.0624	52	C14H10O3+
227.0706	63	C14H11O3+
229.0841	63	C14H13O3+
