Mass spectrum: Albendazole Sulfoxide; LC-ESI-QTOF; MS2; CE: 40 eV; R=35000; [M+H]+
Name: Albendazole Sulfoxide
Name: methyl N-(6-propylsulfinyl-1H-benzimidazol-2-yl)carbamate
Formula: C12H15N3O3S
Exact mass: 281.0834123
SMILES: CCCS(=O)c1ccc2c(c1)nc([nH]2)NC(=O)OC
InChI: InChI=1S/C12H15N3O3S/c1-3-6-19(17)8-4-5-9-10(7-8)14-11(13-9)15-12(16)18-2/h4-5,7H,3,6H2,1-2H3,(H2,13,14,15,16)
Instrument: Bruker maXis Impact
Instrument type: LC-ESI-QTOF
Ms type: MS2
Ion mode: POSITIVE
Ionization: ESI
Fragmentation mode: CID
Collision energy: 40 eV
Resolution: 35000
Column name: Acclaim RSLC C18 2.2um, 2.1x100mm, Thermo
Retention time: 5.6 min
Base peak: 282.0911
Precursor m/z: 282.0907
Precursor type: [M+H]+
m/z	relative intensity	assigned
118.052	21	C7H6N2+
119.0598	19	C7H7N2+
122.0057	31	C6H4NS+
129.0449	9	C8H5N2+
131.0476	36	C7H5N3+
132.0543	11	C7H6N3+
133.0637	26	C7H7N3+
134.0052	9	C7H4NS+
134.0701	14	C7H8N3+
145.0636	11	C8H7N3+
146.0711	85	C8H8N3+
149.0161	23	C7H5N2S+
150.0241	11	C7H6N2S+
159.0423	999	C8H5N3O+
160.0482	138	C9[13]CH7O2+
161.0179	11	C8H5N2S+
161.0526	9	C6H11NO2S+
163.0192	14	C7H5N3S+
172.0513	18	C11H8O2+
177.0362	10	C10H9OS+
178.0435	17	C8H8N3S+
179.0269	10	C8H7N2OS+
179.0489	10	C5H11N2O3S+
180.0209	9	C12H4O2+
186.0662	9	C10H8N3O+
190.0069	394	C8H4N3OS+
191.014	379	C8H5N3OS+
191.0312	46	C8H5N3O3+
191.0697	135	C11H11O3+
192.0158	25	C10[13]CHN3O+
192.0739	12	C10H12N2S+
207.0096	277	C8H5N3O2S+
208.0176	809	C8H6N3O2S+
209.0203	63	C7[13]CH6N3O2S+
210.0153	16	C10H8O3[34]S+
222.0347	27	C11H10O3S+
223.0411	24	C9H9N3O2S+
239.0333	14	C12H5N3O3+
