Mass spectrum: 3,3`-Dichlorobenzidine; LC-ESI-QTOF; MS2; CE: 40 eV; R=35000; [M+H]+
Name: 3,3`-Dichlorobenzidine
Name: 4-(4-amino-3-chlorophenyl)-2-chloroaniline
Formula: C12H10Cl2N2
Exact mass: 252.0221037
SMILES: NC1=CC=C(C=C1Cl)C1=CC=C(N)C(Cl)=C1
InChI: InChI=1S/C12H10Cl2N2/c13-9-5-7(1-3-11(9)15)8-2-4-12(16)10(14)6-8/h1-6H,15-16H2
Instrument: Bruker maXis Impact
Instrument type: LC-ESI-QTOF
Ms type: MS2
Ion mode: POSITIVE
Ionization: ESI
Fragmentation mode: CID
Collision energy: 40 eV
Resolution: 35000
Column name: Acclaim RSLC C18 2.2um, 2.1x100mm, Thermo
Retention time: 8.899 min
Base peak: 244.1904
Precursor m/z: 253.0294
Precursor type: [M+H]+
m/z	relative intensity	assigned
126.0449	20	C10H6+
127.0182	32	C6H6ClN+
127.0544	25	C10H7+
128.0491	13	C9H6N+
128.0619	14	C10H8+
129.0137	16	C3H9Cl2N+
130.0641	72	C9H8N+
131.0718	27	C9H9N+
140.0493	12	C10H6N+
141.0551	10	C10H7N+
151.0162	19	C8H6ClN+
152.0474	13	C11H6N+
153.0179	11	C7H6ClN2+
153.0564	45	C11H7N+
154.0641	750	C11H8N+
155.0704	153	C11H9N+
156.0745	18	C10[13]CH9N+
162.0227	10	C10H7Cl+
164.0255	57	C9H7ClN+
164.0473	30	C12H6N+
165.0272	15	C7H11Cl2+
165.0568	47	C12H7N+
166.0228	25	C9H7[37]ClN+
166.0638	19	C12H8N+
170.0601	20	C8H11ClN2+
173.0145	17	C11H6Cl+
179.0603	49	C12H7N2+
180.0662	32	C12H8N2+
181.0749	665	C12H9N2+
182.0825	999	C12H10N2+
183.0859	148	C11[13]CH10N2+
188.0254	47	C11H7ClN+
189.0319	52	C11H8ClN+
190.0225	24	C11H7[37]ClN+
190.0406	401	C11H9ClN+
191.0441	60	C10[13]CH9ClN+
192.0376	120	C11H9[37]ClN+
197.9868	17	C9H6Cl2N+
199.9829	11	C9H6Cl[37]ClN+
200.0255	15	C12H7ClN+
201.0331	73	C12H8ClN+
202.0242	14	C11H7ClN2+
203.0311	28	C12H8[37]ClN+
215.0361	292	C12H8ClN2+
216.0437	248	C12H9ClN2+
217.0341	90	C12H8[37]ClN2+
217.0516	190	C12H10ClN2+
218.041	86	C12H9[37]ClN2+
218.0603	161	C12H11ClN2+
219.0494	44	C12H10[37]ClN2+
220.0563	39	C12H11[37]ClN2+
224.0021	172	C11H8Cl2N+
225.0061	22	C10[13]CH8Cl2N+
234.9951	23	C12H7Cl2N+
236.9919	24	C12H7Cl[37]ClN+
251.0132	63	C12H9Cl2N2+
252.0211	463	C12H10Cl2N2+
253.0235	77	C11[13]CH10Cl2N2+
254.0186	325	C12H10Cl[37]ClN2+
