Mass spectrum: Spiroxamine; LC-ESI-QTOF; MS2; CE: Ramp 21.5-32.3 eV; R=35000; [M+H]+
Name: Spiroxamine
Name: N-[(8-tert-butyl-1,4-dioxaspiro[4.5]decan-3-yl)methyl]-N-ethylpropan-1-amine
Formula: C18H35NO2
Exact mass: 297.2667794
SMILES: CCCN(CC)CC1COC2(CCC(CC2)C(C)(C)C)O1
InChI: InChI=1S/C18H35NO2/c1-6-12-19(7-2)13-16-14-20-18(21-16)10-8-15(9-11-18)17(3,4)5/h15-16H,6-14H2,1-5H3
Instrument: Bruker maXis Impact
Instrument type: LC-ESI-QTOF
Ms type: MS2
Ion mode: POSITIVE
Ionization: ESI
Fragmentation mode: CID
Collision energy: Ramp 21.5-32.3 eV
Resolution: 35000
Column name: Acclaim RSLC C18 2.2um, 2.1x100mm, Thermo
Retention time: 8.980 min
Base peak: 404.124
Precursor m/z: 298.2741
Precursor type: [M+H]+
m/z	relative intensity	assigned
58.0646	18	C3H8N+
72.0804	25	C4H10N+
84.08	5	C5H10N+
100.1131	129	C6H14N+
101.1157	10	C5[13]CH14N+
126.1269	8	C8H16N+
144.1374	999	C8H18NO+
145.141	129	C7[13]CH18NO+
298.2742	358	C18H36NO2+
299.2773	69	C17[13]CH36NO2+
300.2795	7	C16[13]C2H36NO2+
