Mass spectrum: Acemetacin; LC-ESI-QTOF; MS2; CE: 10 eV; R=35000; [M+H]+
Name: Acemetacin
Name: 2-[2-[1-(4-chlorobenzoyl)-5-methoxy-2-methylindol-3-yl]acetyl]oxyacetic acid
Formula: C21H18ClNO6
Exact mass: 415.0822650
SMILES: Cc1c(c2cc(ccc2n1C(=O)c3ccc(cc3)Cl)OC)CC(=O)OCC(=O)O
InChI: InChI=1S/C21H18ClNO6/c1-12-16(10-20(26)29-11-19(24)25)17-9-15(28-2)7-8-18(17)23(12)21(27)13-3-5-14(22)6-4-13/h3-9H,10-11H2,1-2H3,(H,24,25)
Instrument: Bruker maXis Impact
Instrument type: LC-ESI-QTOF
Ms type: MS2
Ion mode: POSITIVE
Ionization: ESI
Fragmentation mode: CID
Collision energy: 10 eV
Resolution: 35000
Column name: Acclaim RSLC C18 2.2um, 2.1x100mm, Thermo
Retention time: 9.854 min
Base peak: 150.1131
Precursor m/z: 416.0895
Precursor type: [M+H]+
m/z	relative intensity	assigned
138.995	260	C7H4ClO+
140.9928	62	C3H6ClO4+
174.0922	64	C11H12NO+
260.0936	218	C14H14NO4+
312.081	80	C18H15ClNO2+
314.08	48	C14H17ClNO5+
416.093	999	C21H19ClNO6+
417.0956	345	C20[13]CH19ClNO6+
418.0894	385	C21H19[37]ClNO6+
