Mass spectrum: Bentazone; LC-ESI-QTOF; MS2; CE: 10 eV; R=35000; [M+H]+
Name: Bentazone
Name: 2,2-dioxo-3-propan-2-yl-1H-2lambda6,1,3-benzothiadiazin-4-one
Formula: C10H12N2O3S
Exact mass: 240.0568632
SMILES: CC(C)N1C(=O)C2=CC=CC=C2NS1(=O)=O
InChI: InChI=1S/C10H12N2O3S/c1-7(2)12-10(13)8-5-3-4-6-9(8)11-16(12,14)15/h3-7,11H,1-2H3
Instrument: Bruker maXis Impact
Instrument type: LC-ESI-QTOF
Ms type: MS2
Ion mode: POSITIVE
Ionization: ESI
Fragmentation mode: CID
Collision energy: 10 eV
Resolution: 35000
Column name: Acclaim RSLC C18 2.2um, 2.1x100mm, Thermo
Retention time: 5.478 min
Base peak: 222.042
Precursor m/z: 241.0641
Precursor type: [M+H]+
m/z	relative intensity	assigned
197.0286	25	C9H9O3S+
199.0161	999	C7H7N2O3S+
200.0178	95	C6[13]CH7N2O3S+
201.0123	59	C7H7N2O3[34]S+
241.0632	81	C10H13N2O3S+
