Mass spectrum: 2-Hydroxycarbamazepine; LC-ESI-QTOF; MS2; CE: 40 eV; R=35000; [M+H]+
Name: 2-Hydroxycarbamazepine
Name: 3-hydroxybenzo[b][1]benzazepine-11-carboxamide
Formula: C15H12N2O2
Exact mass: 252.0898776
SMILES: NC(=O)N1C2=CC=CC=C2C=CC2=CC(O)=CC=C12
InChI: InChI=1S/C15H12N2O2/c16-15(19)17-13-4-2-1-3-10(13)5-6-11-9-12(18)7-8-14(11)17/h1-9,18H,(H2,16,19)
Instrument: Bruker maXis Impact
Instrument type: LC-ESI-QTOF
Ms type: MS2
Ion mode: POSITIVE
Ionization: ESI
Fragmentation mode: CID
Collision energy: 40 eV
Resolution: 35000
Column name: Acclaim RSLC C18 2.2um, 2.1x100mm, Thermo
Retention time: 6.017 min
Base peak: 253.0966
Precursor m/z: 253.0972
Precursor type: [M+H]+
m/z	relative intensity	assigned
117.0569	21	C8H7N+
139.0531	11	C11H7+
140.0482	7	C10H6N+
141.0686	8	C11H9+
152.0611	55	C12H8+
153.0686	58	C12H9+
154.0659	9	C11H8N+
154.0711	10	C11[13]CH9+
155.0844	11	C12H11+
163.0529	6	C13H7+
164.0601	6	C13H8+
165.0689	200	C13H9+
166.067	38	C12H8N+
167.0721	628	C12H9N+
168.0758	71	C11[13]CH9N+
169.0637	6	C12H9O+
177.0579	7	C13H7N+
177.068	10	C14H9+
178.0644	28	C13H8N+
179.072	130	C13H9N+
180.0796	306	C13H10N+
181.0639	58	C13H9O+
181.087	141	C13H11N+
182.0954	294	C13H12N+
183.0683	16	C12H9NO+
183.0772	17	C13H11O+
183.0984	36	C12[13]CH12N+
190.0643	99	C14H8N+
191.0716	109	C14H9N+
192.08	229	C14H10N+
193.0877	442	C14H11N+
194.0956	640	C14H12N+
195.0671	374	C13H9NO+
195.099	46	C13[13]CH12N+
196.0705	49	C12[13]CH9NO+
206.0593	14	C14H8NO+
207.067	58	C14H9NO+
208.0751	837	C14H10NO+
209.0822	518	C14H11NO+
210.0905	999	C14H12NO+
211.0938	113	C13[13]CH12NO+
212.0963	9	C12[13]C2H12NO+
