Mass spectrum: Dimethenamid-ESA; LC-ESI-QTOF; MS2; CE: 40 eV; R=35000; [M+H]+
Name: Dimethenamid-ESA
Name: AC1O52R5
Name: 2-[(2,4-dimethylthiophen-3-yl)-(1-methoxypropan-2-yl)amino]-2-oxoethanesulfonic acid
Formula: C12H19NO5S2
Exact mass: 321.0704647
SMILES: COCC(C)N(C(=O)CS(O)(=O)=O)c1c(C)csc1C
InChI: InChI=1S/C12H19NO5S2/c1-8-6-19-10(3)12(8)13(9(2)5-18-4)11(14)7-20(15,16)17/h6,9H,5,7H2,1-4H3,(H,15,16,17)
Instrument: Bruker maXis Impact
Instrument type: LC-ESI-QTOF
Ms type: MS2
Ion mode: POSITIVE
Ionization: ESI
Fragmentation mode: CID
Collision energy: 40 eV
Resolution: 35000
Column name: Acclaim RSLC C18 2.2um, 2.1x100mm, Thermo
Retention time: 6.0 min
Base peak: 242.2835
Precursor m/z: 322.0777
Precursor type: [M+H]+
m/z	relative intensity	assigned
119.073	36	C8H9N+
125.0411	97	C7H9S+
126.0362	248	C6H8NS+
127.0423	47	C3H11O3S+
128.0515	60	C3H12O3S+
133.0877	44	C9H11N+
134.0953	275	C9H12N+
135.0249	84	C8H7S+
135.1022	68	C6H15O3+
138.0361	218	C7H8NS+
149.0412	63	C9H9S+
150.0372	55	C8H8NS+
150.0482	152	C9H10S+
151.0489	52	C5H13NS2+
152.015	93	C4H8O4S+
152.0517	719	C8H10NS+
153.0563	100	C11H7N+
166.0308	73	C8H8NOS+
166.0671	999	C6H14O3S+
167.0381	48	C5H11O4S+
167.0749	358	C6H15O3S+
168.0462	93	C5H12O4S+
168.0595	44	C9H12OS+
168.0822	495	C6H16O3S+
169.0864	54	C9H13O3+
176.1068	89	C11H14NO+
194.0625	130	C10H12NOS+
209.0848	34	C8H17O4S+
210.0929	303	C8H18O4S+
211.0977	68	C11H15O4+
290.0515	60	C11H16NO4S2+
