Mass spectrum: Alachlor; LC-ESI-QTOF; MS2; CE: 30 eV; R=35000; [M+H]+
Name: Alachlor
Name: 2-chloro-N-(2,6-diethylphenyl)-N-(methoxymethyl)acetamide
Formula: C14H20ClNO2
Exact mass: 269.1182566
SMILES: CCC1=CC=CC(CC)=C1N(COC)C(=O)CCl
InChI: InChI=1S/C14H20ClNO2/c1-4-11-7-6-8-12(5-2)14(11)16(10-18-3)13(17)9-15/h6-8H,4-5,9-10H2,1-3H3
Instrument: Bruker maXis Impact
Instrument type: LC-ESI-QTOF
Ms type: MS2
Ion mode: POSITIVE
Ionization: ESI
Fragmentation mode: CID
Collision energy: 30 eV
Resolution: 35000
Column name: Acclaim RSLC C18 2.2um, 2.1x100mm, Thermo
Retention time: 10.2 min
Base peak: 238.0992
Precursor m/z: 270.1255
Precursor type: [M+H]+
m/z	relative intensity	assigned
115.0541	8	C9H7+
117.0569	11	C8H7N+
118.0644	20	C8H8N+
130.065	12	C9H8N+
131.0714	31	C3H14ClNO2+
133.0857	25	C3H16ClNO2+
134.0953	52	C3H17ClNO2+
144.08	21	C10H10N+
145.0889	9	C10H11N+
147.1034	498	C10H13N+
148.1071	63	C9[13]CH13N+
149.0978	7	C7H16ClN+
156.0813	6	C11H10N+
158.095	10	C5H17ClNO2+
160.074	11	C10H10NO+
160.1113	23	C11H14N+
161.1188	35	C5H20ClNO2+
162.1271	999	C11H16N+
163.111	55	C11H15O+
163.1301	124	C6H17N3O2+
164.1134	7	C6H16N2O3+
170.0961	15	C12H12N+
171.1023	9	C6H18ClNO2+
173.0822	18	C11H11NO+
174.0913	25	C11H12NO+
174.1259	12	C6H21ClNO2+
185.1174	10	C7H20ClNO2+
188.1067	9	C12H14NO+
206.071	15	C12H13ClN+
210.0679	6	C11H13ClNO+
220.0877	25	C13H15ClN+
222.0876	11	C10H12N3O3+
238.0987	63	C13H17ClNO+
239.1022	11	C12[13]CH17ClNO+
240.0954	29	C13H17[37]ClNO+
