Mass spectrum: 4,4`-Thiodianiline; LC-ESI-QTOF; MS2; CE: 20 eV; R=35000; [M+H]+
Name: 4,4`-Thiodianiline
Name: 4-(4-aminophenyl)sulfanylaniline
Formula: C12H12N2S
Exact mass: 216.0721194
SMILES: NC1=CC=C(SC2=CC=C(N)C=C2)C=C1
InChI: InChI=1S/C12H12N2S/c13-9-1-5-11(6-2-9)15-12-7-3-10(14)4-8-12/h1-8H,13-14H2
Instrument: Bruker maXis Impact
Instrument type: LC-ESI-QTOF
Ms type: MS2
Ion mode: POSITIVE
Ionization: ESI
Fragmentation mode: CID
Collision energy: 20 eV
Resolution: 35000
Column name: Acclaim RSLC C18 2.2um, 2.1x100mm, Thermo
Retention time: 6.208 min
Base peak: 217.0784
Precursor m/z: 217.0794
Precursor type: [M+H]+
m/z	relative intensity	assigned
123.0122	8	C6H5NS+
124.0203	603	C6H6NS+
125.0233	44	C5[13]CH6NS+
126.0159	24	C6H6N[34]S+
139.0528	17	C11H7+
156.0786	9	C11H10N+
167.0714	50	C12H9N+
168.0754	5	C11[13]CH9N+
171.025	9	C11H7S+
173.0402	9	C11H9S+
183.0247	50	C12H7S+
183.0899	26	C12H11N2+
184.032	42	C12H8S+
184.0976	117	C12H12N2+
185.0356	7	C11[13]CH8S+
185.101	17	C11[13]CH12N2+
199.0437	115	C12H9NS+
200.0512	283	C12H10NS+
201.0545	40	C11[13]CH10NS+
202.047	15	C12H10N[34]S+
211.0311	36	C12H7N2S+
212.0337	5	C11[13]CH7N2S+
215.0618	52	C12H11N2S+
216.0702	258	C12H12N2S+
217.0781	999	C12H13N2S+
218.0811	139	C11[13]CH13N2S+
219.0748	41	C12H13N2[34]S+
