Mass spectrum: Indoxacarb; LC-ESI-QTOF; MS2; CE: Ramp 26.2-39.3 eV; R=35000; [M+H]+
Name: Indoxacarb
Name: methyl (4aS)-7-chloro-2-[methoxycarbonyl-[4-(trifluoromethoxy)phenyl]carbamoyl]-3,5-dihydroindeno[1,2-e][1,3,4]oxadiazine-4a-carboxylate
Formula: C22H17ClF3N3O7
Exact mass: 527.0707122
SMILES: COC(=O)N(C(=O)N1CO[C@]2(CC3=CC(Cl)=CC=C3C2=N1)C(=O)OC)C1=CC=C(OC(F)(F)F)C=C1
InChI: InChI=1S/C22H17ClF3N3O7/c1-33-18(30)21-10-12-9-13(23)3-8-16(12)17(21)27-28(11-35-21)19(31)29(20(32)34-2)14-4-6-15(7-5-14)36-22(24,25)26/h3-9H,10-11H2,1-2H3/t21-/m0/s1
Instrument: Bruker maXis Impact
Instrument type: LC-ESI-QTOF
Ms type: MS2
Ion mode: POSITIVE
Ionization: ESI
Fragmentation mode: CID
Collision energy: Ramp 26.2-39.3 eV
Resolution: 35000
Column name: Acclaim RSLC C18 2.2um, 2.1x100mm, Thermo
Retention time: 11.590 min
Base peak: 528.0777
Precursor m/z: 528.078
Precursor type: [M+H]+
m/z	relative intensity	assigned
45.0333	7	C2H5O+
56.0128	237	C2H2NO+
57.0162	7	C[13]CH2NO+
75.0436	18	C3H7O2+
104.0495	5	C7H6N+
128.0606	7	CH14ClFO3+
132.0434	18	C2H9FO5+
134.0218	10	CH9ClNO4+
146.0333	7	CH7FN2O5+
149.0137	8	C10HN2+
150.0092	191	C8H5ClN+
150.0534	10	C2H11FO6+
151.0128	17	C7[13]CH5ClN+
152.0067	65	C8H5[37]ClN+
153.0103	5	C8H6ClO+
155.0592	15	CH13ClFN2O3+
160.0493	40	C8H7F3+
161.0515	8	C9H6FN2+
162.0093	51	C9H5ClN+
163.0106	6	C8[13]CH5ClN+
163.0296	19	C11H3N2+
164.0058	15	C9H5[37]ClN+
164.0245	12	C3H10ClFO4+
165.0286	12	C4H9ClF3O+
166.0222	5	C3H10[37]ClFO4+
167.025	14	C7H4FN2O2+
168.0203	386	C5H9ClO4+
169.0236	33	C4[13]CH9ClO4+
170.0173	123	C5H9[37]ClO4+
171.0208	7	C8H8ClO2+
176.0255	8	C8H3FN3O+
177.0087	5	C8H4ClN3+
177.0322	9	C11H3N3+
178.0043	13	C3H8ClFO5+
178.0402	9	C4H12ClFO4+
179.0255	34	C8H6ClN3+
180.0205	28	C3H10ClFO5+
181.0214	9	C8H6[37]ClN3+
182.0167	5	C3H10[37]ClFO5+
189.0209	86	C5H7ClF3NO+
190.0048	297	C7H6ClFNO2+
190.0469	52	C2H9FN3O6+
191.0123	26	C5H7[37]ClF3NO+
192.0017	76	C7H6[37]ClFNO2+
192.0209	10	C10H7ClNO+
193.0051	7	C10H6ClO2+
194.0369	12	C10H9ClNO+
195.0208	49	C8H6ClN3O+
196.0157	56	C3H10ClFO6+
197.0167	17	C8H6[37]ClN3O+
197.0454	5	CH9F2N3O6+
198.0124	12	C3H10[37]ClFO6+
203.0185	829	C11H4FO3+
204.0207	55	C10[13]CH4FO3+
205.011	6	C4H10ClO7+
205.0221	8	C9[13]C2H4FO3+
205.0519	5	C5H11F2O6+
206.0065	7	C4H6ClF3N2O2+
206.0353	9	C5H12ClFO5+
207.0225	38	C6H7ClFN3O2+
208.0154	48	C4H10ClFO6+
209.0177	18	C6H7[37]ClFN3O2+
210.0125	12	C4H10[37]ClFO6+
214.072	25	C12H10N2O2+
215.0407	17	C3H11ClF3N2O3+
215.0769	5	C11[13]CH10N2O2+
216.0257	5	C12H4F2NO+
217.0157	169	C2H10ClF2NO6+
218.0422	999	C6H9F3O5+
219.0133	40	C2H10[37]ClF2NO6+
219.0318	115	C11H8ClN2O+
219.0437	107	C5[13]CH9F3O5+
220.0176	7	C3H5F3N3O5+
220.0351	14	C10[13]CH8ClN2O+
221.0285	31	C11H8[37]ClN2O+
221.0484	12	C11H8FNO3+
222.031	12	C9H5FN3O3+
223.0151	145	C11H8ClO3+
224.0186	18	C10[13]CH8ClO3+
225.0129	44	C11H8[37]ClO3+
225.0313	14	C6H9ClFN3O3+
226.0267	10	C10H9ClNO3+
227.0288	6	C6H9[37]ClFN3O3+
230.9957	28	C11H4ClN2O2+
231.0332	6	C9H9ClFN2O2+
232.993	8	C11H4[37]ClN2O2+
235.0264	21	C11H8ClN2O2+
237.0244	8	C11H8[37]ClN2O2+
249.0427	352	C12H10ClN2O2+
250.0456	40	C11[13]CH10ClN2O2+
251.0397	95	C12H10[37]ClN2O2+
252.0427	10	C7H8F2N3O5+
263.0216	112	C12H8ClN2O3+
264.0249	15	C11[13]CH8ClN2O3+
265.0202	28	C12H8[37]ClN2O3+
265.0365	16	C12H10ClN2O3+
267.0353	7	C12H10[37]ClN2O3+
267.0511	13	C9H14ClNO6+
269.0479	5	C9H14[37]ClNO6+
280.0429	5	C10H9F3NO5+
291.0588	7	C11H10F3N2O4+
293.0329	70	C13H10ClN2O4+
294.0348	14	C12[13]CH10ClN2O4+
295.0291	23	C13H10[37]ClN2O4+
325.0589	8	C15H11ClF3N3+
452.0626	5	C20H14ClF3N3O4+
454.0761	5	C17H18ClF3N2O7+
484.0839	5	C21H18ClF3N3O5+
496.0499	5	C21H14ClF3N3O6+
496.0584	6	C21H14ClF3N3O6+
498.0575	5	C22H16ClF3NO7+
528.0832	5	C22H18ClF3N3O7+
