Mass spectrum: Oseltamivir; LC-ESI-QTOF; MS2; CE: 40 eV; R=35000; [M+H]+
Name: Oseltamivir
Name: ethyl (3R,4R,5S)-4-acetamido-5-amino-3-pentan-3-yloxycyclohexene-1-carboxylate
Formula: C16H28N2O4
Exact mass: 312.2049074
SMILES: CCOC(=O)C1=C[C@@H](OC(CC)CC)[C@H](NC(C)=O)[C@@H](N)C1
InChI: InChI=1S/C16H28N2O4/c1-5-12(6-2)22-14-9-11(16(20)21-7-3)8-13(17)15(14)18-10(4)19/h9,12-15H,5-8,17H2,1-4H3,(H,18,19)/t13-,14+,15+/m0/s1
Instrument: Bruker maXis Impact
Instrument type: LC-ESI-QTOF
Ms type: MS2
Ion mode: POSITIVE
Ionization: ESI
Fragmentation mode: CID
Collision energy: 40 eV
Resolution: 35000
Column name: Acclaim RSLC C18 2.2um, 2.1x100mm, Thermo
Retention time: 6.8 min
Base peak: 313.2121
Precursor m/z: 313.2122
Precursor type: [M+H]+
m/z	relative intensity	assigned
119.0589	50	C4H9NO3+
120.0435	974	C7H6NO+
121.0277	15	C7H5O2+
121.0469	63	C6[13]CH6NO+
122.059	15	C7H8NO+
122.0955	18	C8H12N+
123.079	21	C8H11O+
126.0535	17	C6H8NO2+
133.0748	24	C8H9N2+
134.0591	27	C8H8NO+
136.0744	68	C8H10NO+
137.0465	74	C7H7NO2+
137.0695	469	C4H11NO4+
138.0536	504	C7H8NO2+
138.0737	46	C4H12NO4+
138.0902	38	C8H12NO+
139.0385	23	C7H7O3+
139.0573	34	C2H9N3O4+
139.0746	16	C8H11O2+
151.0845	13	C5H13NO4+
152.0703	14	C8H10NO2+
154.085	13	C8H12NO2+
155.0783	19	C4H13NO5+
161.0702	38	C9H9N2O+
162.0538	94	C9H8NO2+
163.0579	12	C4H9N3O4+
166.0851	999	C9H12NO2+
167.0889	98	C8[13]CH12NO2+
179.082	20	C9H11N2O2+
180.0651	28	C9H10NO3+
183.1123	16	C9H15N2O2+
