Mass spectrum: Dimethenamid; LC-ESI-QTOF; MS2; CE: 30 eV; R=35000; [M+H]+
Name: Dimethenamid
Name: 2-chloro-N-(2,4-dimethylthiophen-3-yl)-N-(1-methoxypropan-2-yl)acetamide
Formula: C12H18ClNO2S
Exact mass: 275.0746775
SMILES: COCC(C)N(C(=O)CCl)C1=C(C)SC=C1C
InChI: InChI=1S/C12H18ClNO2S/c1-8-7-17-10(3)12(8)14(11(15)5-13)9(2)6-16-4/h7,9H,5-6H2,1-4H3
Instrument: Bruker maXis Impact
Instrument type: LC-ESI-QTOF
Ms type: MS2
Ion mode: POSITIVE
Ionization: ESI
Fragmentation mode: CID
Collision energy: 30 eV
Resolution: 35000
Column name: Acclaim RSLC C18 2.2um, 2.1x100mm, Thermo
Retention time: 9.2 min
Base peak: 404.2068
Precursor m/z: 276.082
Precursor type: [M+H]+
m/z	relative intensity	assigned
111.0256	13	C6H7S+
120.0805	5	C8H10N+
124.0334	6	C7H8S+
125.0407	19	CH14ClO2S+
126.0364	65	C6H8NS+
127.0205	7	C6H7OS+
127.0433	11	ClH14NO2S+
127.0565	11	C7H11S+
128.0519	21	C6H10NS+
129.0367	10	C6H9OS+
134.0959	22	C9H12N+
135.1037	27	C9H13N+
137.0282	9	CH12ClNO2S+
138.0361	40	C7H8NS+
139.0414	5	C10H5N+
140.0521	9	C7H10NS+
149.022	5	C5H8ClNO2+
150.0362	30	C8H8NS+
151.0427	7	C2H14ClNO2S+
151.0563	52	C3H16ClO2S+
152.0149	20	C7H6NOS+
152.0521	56	C8H10NS+
153.0229	42	C7H7NOS+
153.0594	21	C2H16ClNO2S+
154.0299	8	C10H4NO+
154.0665	7	C2H17ClNO2S+
166.0311	23	C8H8NOS+
166.0669	22	C3H17ClNO2S+
167.0751	86	C3H18ClNO2S+
168.0833	999	C9H14NS+
169.086	88	C6H16ClNO2+
170.0786	32	C6H17ClNS+
174.0126	5	C10H6OS+
186.0128	54	C11H6OS+
188.0101	16	C7H7ClNO3+
202.0079	15	C11H6O2S+
203.0153	36	C11H7O2S+
204.006	6	C10H5ClN2O+
204.0227	23	C11H8O2S+
205.0119	13	C8H10ClO2S+
206.0207	8	C8H11ClO2S+
244.0553	694	C11H15ClNOS+
245.0582	88	C10[13]CH15ClNOS+
246.0523	206	C11H15[37]ClNOS+
247.0549	16	C10[13]CH15[37]ClNOS+
