Mass spectrum: N-Butylbenzenesulfonamide; LC-ESI-QTOF; MS2; CE: 20 eV; R=35000; [M+H]+
Name: N-Butylbenzenesulfonamide
Name: N-butylbenzenesulfonamide
Formula: C10H15NO2S
Exact mass: 213.0823497
SMILES: CCCCNS(=O)(=O)C1=CC=CC=C1
InChI: InChI=1S/C10H15NO2S/c1-2-3-9-11-14(12,13)10-7-5-4-6-8-10/h4-8,11H,2-3,9H2,1H3
Instrument: Bruker maXis Impact
Instrument type: LC-ESI-QTOF
Ms type: MS2
Ion mode: POSITIVE
Ionization: ESI
Fragmentation mode: CID
Collision energy: 20 eV
Resolution: 35000
Column name: Acclaim RSLC C18 2.2um, 2.1x100mm, Thermo
Retention time: 7.742 min
Base peak: 204.1015
Precursor m/z: 214.0896
Precursor type: [M+H]+
m/z	relative intensity	assigned
140.9994	999	C6H5O2S+
142.0033	98	C5[13]CH5O2S+
142.9946	42	C6H5O2[34]S+
158.0265	327	C6H8NO2S+
159.0287	26	C5[13]CH8NO2S+
160.0219	23	C6H8NO2[34]S+
160.0343	18	C10H8S+
