Mass spectrum: Carbaryl; LC-ESI-QTOF; MS2; CE: 50 eV; R=35000; [M+H]+
Name: Carbaryl
Name: naphthalen-1-yl N-methylcarbamate
Formula: C12H11NO2
Exact mass: 201.0789786
SMILES: CNC(=O)OC1=C2C=CC=CC2=CC=C1
InChI: InChI=1S/C12H11NO2/c1-13-12(14)15-11-8-4-6-9-5-2-3-7-10(9)11/h2-8H,1H3,(H,13,14)
Instrument: Bruker maXis Impact
Instrument type: LC-ESI-QTOF
Ms type: MS2
Ion mode: POSITIVE
Ionization: ESI
Fragmentation mode: CID
Collision energy: 50 eV
Resolution: 35000
Column name: Acclaim RSLC C18 2.2um, 2.1x100mm, Thermo
Retention time: 7.464 min
Base peak: 202.0858
Precursor m/z: 202.0863
Precursor type: [M+H]+
m/z	relative intensity	assigned
115.0536	731	C9H7+
117.0692	125	C9H9+
118.0734	17	C8[13]CH9+
125.0381	33	C10H5+
126.0454	501	C10H6+
127.0532	999	C10H7+
128.0577	141	C9[13]CH7+
131.0466	8	C9H7O+
143.049	6	C10H7O+
144.0556	126	C10H8O+
145.0637	693	C10H9O+
146.0666	72	C9[13]CH9O+
157.0671	12	C11H9O+
