Mass spectrum: Metoclopramide; LC-ESI-QTOF; MS2; CE: 20 eV; R=35000; [M+H]+
Name: Metoclopramide
Name: 4-amino-5-chloro-N-[2-(diethylamino)ethyl]-2-methoxybenzamide
Formula: C14H22ClN3O2
Exact mass: 299.1400546
SMILES: CCN(CC)CCNC(=O)c1cc(c(cc1OC)N)Cl
InChI: InChI=1S/C14H22ClN3O2/c1-4-18(5-2)7-6-17-14(19)10-8-11(15)12(16)9-13(10)20-3/h8-9H,4-7,16H2,1-3H3,(H,17,19)
Instrument: Bruker maXis Impact
Instrument type: LC-ESI-QTOF
Ms type: MS2
Ion mode: POSITIVE
Ionization: ESI
Fragmentation mode: CID
Collision energy: 20 eV
Resolution: 35000
Column name: Acclaim RSLC C18 2.2um, 2.1x100mm, Thermo
Retention time: 4.300 min
Base peak: 300.147
Precursor m/z: 300.1473
Precursor type: [M+H]+
m/z	relative intensity	assigned
183.0305	6	C11H5NO2+
184.0149	138	C8H7ClNO2+
185.0184	10	C7[13]CH7ClNO2+
186.0119	33	C8H7[37]ClNO2+
212.0339	5	C9H9ClN2O2+
227.0578	999	C10H12ClN2O2+
228.0606	103	C9[13]CH12ClN2O2+
229.0546	312	C10H12[37]ClN2O2+
230.0573	13	C13H11ClN2+
300.147	165	C14H23ClN3O2+
301.15	20	C13[13]CH23ClN3O2+
302.1446	37	C14H23[37]ClN3O2+
