Mass spectrum: Tepraloxydim; LC-ESI-QTOF; MS2; CE: Ramp 22.4-33.7 eV; R=35000; [M+H]+
Name: Tepraloxydim
Name: Tepraloxydim [ISO]
Name: 2-[N-[(E)-3-chloroprop-2-enoxy]-C-ethylcarbonimidoyl]-3-hydroxy-5-(oxan-4-yl)cyclohex-2-en-1-one
Formula: C17H24ClNO4
Exact mass: 341.1393859
SMILES: [H]\C(Cl)=C(\[H])CON=C(CC)C1=C(O)CC(CC1=O)C1CCOCC1
InChI: InChI=1S/C17H24ClNO4/c1-2-14(19-23-7-3-6-18)17-15(20)10-13(11-16(17)21)12-4-8-22-9-5-12/h3,6,12-13,20H,2,4-5,7-11H2,1H3/b6-3+,19-14?
Instrument: Bruker maXis Impact
Instrument type: LC-ESI-QTOF
Ms type: MS2
Ion mode: POSITIVE
Ionization: ESI
Fragmentation mode: CID
Collision energy: Ramp 22.4-33.7 eV
Resolution: 35000
Column name: Acclaim RSLC C18 2.2um, 2.1x100mm, Thermo
Retention time: 7.319 min
Base peak: 342.1473
Precursor m/z: 342.1467
Precursor type: [M+H]+
m/z	relative intensity	assigned
55.0178	8	C3H3O+
55.0537	16	C4H7+
56.0488	7	C3H6N+
57.0337	5	C3H5O+
57.0707	8	C4H9+
58.0649	6	C3H8N+
67.0541	45	C5H7+
68.0486	6	C4H6N+
69.0334	5	C4H5O+
69.0695	14	C5H9+
70.0646	15	C4H8N+
71.0485	6	C4H7O+
71.0726	6	C4H9N+
72.0448	16	C3H6NO+
72.0805	7	C4H10N+
74.9992	37	C3H4Cl+
76.9964	12	C3H4[37]Cl+
79.0539	19	C6H7+
81.0326	6	C5H5O+
81.07	23	C6H9+
82.0648	11	C5H8N+
83.0492	47	C5H7O+
84.0452	6	C4H6NO+
85.0645	9	C5H9O+
91.0546	17	C7H7+
93.0702	40	C7H9+
94.0651	12	C6H8N+
95.0497	11	C3H10ClN+
95.086	7	C7H11+
96.0447	50	C5H6NO+
96.0808	5	C6H10N+
98.0599	49	C5H8NO+
105.0697	7	C8H9+
107.0867	8	C8H11+
108.0811	5	C7H10N+
109.0654	6	C4H12ClN+
110.0606	26	C6H8NO+
113.0844	5	C6H11NO+
114.0911	8	C6H12NO+
115.0534	7	C9H7+
117.0695	15	C9H9+
119.0487	6	C8H7O+
119.0851	32	C9H11+
120.0438	7	C7H6NO+
120.0807	11	C8H10N+
121.0642	56	C8H9O+
121.1004	5	C9H13+
122.0588	30	CH13ClNO3+
123.0438	6	C7H7O2+
123.0795	8	C8H11O+
124.0384	19	C6H6NO2+
124.075	14	C7H10NO+
126.0549	12	C6H8NO2+
128.0606	8	C4H13ClO2+
129.0682	11	C4H14ClO2+
130.0642	7	C9H8N+
131.0852	27	C10H11+
132.0795	19	C3H15ClNO2+
133.0649	19	C9H9O+
133.1002	21	C10H13+
134.059	18	C8H8NO+
134.0954	9	C9H12N+
135.0797	40	C9H11O+
136.0393	45	C7H6NO2+
136.0753	113	C8H10NO+
137.0587	27	C8H9O2+
137.0816	15	C7[13]CH10NO+
138.0539	27	C7H8NO2+
138.0908	143	C5H14O4+
139.0617	32	CH14ClNO4+
139.0748	24	C2H16ClO4+
139.093	10	C4[13]CH14O4+
140.0699	32	C7H10NO2+
141.0699	7	C2H16[37]ClO4+
142.0495	14	C6H8NO3+
143.0711	5	C4H14ClNO2+
143.0849	16	C11H11+
144.0804	15	C10H10N+
144.0902	5	C5H17ClO2+
145.0647	13	C10H9O+
145.0869	5	C4H16ClNO2+
145.1003	29	C11H13+
146.0603	17	C9H8NO+
146.0951	12	C4H17ClNO2+
147.0426	15	C3H12ClO4+
147.0672	12	C9H9NO+
147.0804	24	C7H14ClN+
147.1156	7	C5H20ClO2+
148.0392	17	C8H6NO2+
148.0743	54	C3H15ClNO3+
148.1109	18	C4H19ClNO2+
149.0594	64	C9H9O2+
149.0809	8	C7H14[37]ClN+
149.0963	12	C10H13O+
150.0618	10	C3H15ClO4+
150.0903	22	C9H12NO+
151.0317	41	C9H8Cl+
152.0695	22	C8H10NO2+
153.0754	7	C2H16ClNO4+
156.0646	7	C7H10NO3+
157.1003	6	C12H13+
158.0952	21	C5H17ClNO2+
159.0801	17	C11H11O+
159.1154	20	C6H20ClO2+
160.0747	74	C10H10NO+
160.1109	21	C5H19ClNO2+
161.0593	19	C10H9O2+
161.0796	11	C9[13]CH10NO+
161.0944	28	C5H18ClO3+
162.0551	22	C9H8NO2+
162.091	21	C10H12NO+
162.1262	9	C5H21ClNO2+
163.0636	8	C9H9NO2+
163.0736	12	C4H16ClO4+
163.1108	12	C11H15O+
164.0698	234	C9H10NO2+
165.0738	26	C8[13]CH10NO2+
165.0894	17	C4H18ClO4+
166.0857	999	C3H17ClNO4+
167.0894	92	C3H18ClNO4+
168.089	7	C3H17ClNO3[18]O+
169.1002	14	C13H13+
170.0969	7	C12H12N+
171.0791	8	C6H16ClO3+
171.1048	5	C12H13N+
171.114	6	C7H20ClO2+
172.1113	8	C12H14N+
173.0952	21	C9H16ClN+
174.0906	16	C11H12NO+
174.1263	5	C6H21ClNO2+
175.0746	8	C11H11O2+
175.0968	10	C9H16[37]ClN+
175.1111	10	C12H15O+
176.07	14	C10H10NO2+
176.1061	39	C11H14NO+
176.142	6	C6H23ClNO2+
177.0749	6	C4H16ClNO4+
177.0894	10	C5H18ClO4+
177.1117	5	C10[13]CH14NO+
177.1277	7	C9H20ClN+
178.0843	8	C4H17ClNO4+
178.1215	14	C5H21ClNO3+
179.0913	6	C4H18ClNO4+
180.1043	7	C10H14NO2+
180.1377	12	C11H18NO+
181.0865	6	C7H16ClNO2+
186.0898	20	C6H17ClNO3+
186.1277	10	C13H16N+
187.111	23	C13H15O+
188.1064	44	C12H14NO+
189.0898	14	C6H18ClO4+
189.1153	7	C11[13]CH14NO+
190.0861	9	C11H12NO2+
190.1218	34	C12H16NO+
191.1078	16	C9H18ClNO+
192.0994	10	C5H19ClNO4+
192.1383	8	C12H18NO+
194.1176	15	C11H16NO2+
194.1525	5	C6H25ClNO3+
202.1213	11	C7H21ClNO3+
204.102	41	C12H14NO2+
204.1382	59	C13H18NO+
205.0866	5	C9H16ClNO2+
205.122	32	C10H20ClNO+
205.1409	10	C12[13]CH18NO+
206.1177	18	C12H16NO2+
207.1237	8	C10H20[37]ClNO+
208.1328	67	C12H18NO2+
209.1364	7	C11[13]CH18NO2+
210.1484	19	C12H20NO2+
214.1227	11	C14H16NO+
215.106	10	C14H15O2+
220.1321	7	C13H18NO2+
222.112	92	C12H16NO3+
222.1489	275	C13H20NO2+
223.1167	13	C11[13]CH16NO3+
223.1316	8	C13H19O3+
223.153	44	C12[13]CH20NO2+
224.1299	10	C12H18NO3+
224.1629	22	C13H22NO2+
232.1327	40	C14H18NO2+
233.1169	9	C14H17O3+
233.1351	7	C13[13]CH18NO2+
234.148	39	C14H20NO2+
235.1336	16	C11H22ClNO2+
235.1522	7	C13[13]CH20NO2+
250.1441	893	C14H20NO3+
251.1491	197	C13[13]CH20NO3+
252.1586	80	C14H22NO3+
253.1638	14	C13[13]CH22NO3+
288.1597	9	C17H22NO3+
342.147	17	C17H25ClNO4+
344.1463	5	C17H25[37]ClNO4+
