Mass spectrum: Phenylbutazone; LC-ESI-QTOF; MS2; CE: 10 eV; R=35000; [M+H]+
Name: Phenylbutazone
Name: 4-butyl-1,2-diphenylpyrazolidine-3,5-dione
Formula: C19H20N2O2
Exact mass: 308.1524779
SMILES: CCCCC1C(=O)N(N(C1=O)c2ccccc2)c3ccccc3
InChI: InChI=1S/C19H20N2O2/c1-2-3-14-17-18(22)20(15-10-6-4-7-11-15)21(19(17)23)16-12-8-5-9-13-16/h4-13,17H,2-3,14H2,1H3
Instrument: Bruker maXis Impact
Instrument type: LC-ESI-QTOF
Ms type: MS2
Ion mode: POSITIVE
Ionization: ESI
Fragmentation mode: CID
Collision energy: 10 eV
Resolution: 35000
Column name: Acclaim RSLC C18 2.2um, 2.1x100mm, Thermo
Retention time: 9.1 min
Base peak: 297.0754
Precursor m/z: 309.1598
Precursor type: [M+H]+
m/z	relative intensity	assigned
162.1263	11	C11H16N+
188.105	13	C12H14NO+
190.1208	16	C12H16NO+
309.1551	999	C19H21N2O2+
310.159	224	C18[13]CH21N2O2+
311.1531	19	C19H21NO3+
