Mass spectrum: Desacetyldiltiazem; LC-ESI-QTOF; MS2; CE: 40 eV; R=35000; [M+H]+
Name: Desacetyldiltiazem
Name: (2S,3S)-5-[2-(dimethylamino)ethyl]-3-hydroxy-2-(4-methoxyphenyl)-2,3-dihydro-1,5-benzothiazepin-4-one
Formula: C20H24N2O3S
Exact mass: 372.1507636
SMILES: CN(C)CCN1c2ccccc2S[C@H]([C@H](C1=O)O)c3ccc(cc3)OC
InChI: InChI=1S/C20H24N2O3S/c1-21(2)12-13-22-16-6-4-5-7-17(16)26-19(18(23)20(22)24)14-8-10-15(25-3)11-9-14/h4-11,18-19,23H,12-13H2,1-3H3/t18-,19+/m1/s1
Instrument: Bruker maXis Impact
Instrument type: LC-ESI-QTOF
Ms type: MS2
Ion mode: POSITIVE
Ionization: ESI
Fragmentation mode: CID
Collision energy: 40 eV
Resolution: 35000
Column name: Acclaim RSLC C18 2.2um, 2.1x100mm, Thermo
Retention time: 6.257 min
Base peak: 373.1584
Precursor m/z: 373.158
Precursor type: [M+H]+
m/z	relative intensity	assigned
121.0639	6	H13N2O3S+
136.0206	6	C7H6NS+
148.0494	19	C9H8O2+
150.0361	627	C5H10O3S+
151.0391	40	C4[13]CH10O3S+
152.0318	16	C5H10O3[34]S+
176.0805	17	C11H12O2+
178.0315	999	C9H8NOS+
179.0342	117	C8[13]CH8NOS+
180.0273	36	C9H8NO[34]S+
180.0452	5	C12H6NO+
328.0998	8	C18H18NO3S+
