Mass spectrum: Oxprenolol; LC-ESI-QTOF; MS2; CE: RAMP 20.3-30.5 eV; R=35000; [M+H]+
Name: Oxprenolol
Name: 1-(propan-2-ylamino)-3-(2-prop-2-enoxyphenoxy)propan-2-ol
Formula: C15H23NO3
Exact mass: 265.1677936
SMILES: CC(C)NCC(COc1ccccc1OCC=C)O
InChI: InChI=1S/C15H23NO3/c1-4-9-18-14-7-5-6-8-15(14)19-11-13(17)10-16-12(2)3/h4-8,12-13,16-17H,1,9-11H2,2-3H3
Instrument: Bruker maXis Impact
Instrument type: LC-ESI-QTOF
Ms type: MS2
Ion mode: POSITIVE
Ionization: ESI
Fragmentation mode: CID
Collision energy: RAMP 20.3-30.5 eV
Resolution: 35000
Column name: Acclaim RSLC C18 2.2um, 2.1x100mm, Thermo
Retention time: 5.494 min
Base peak: 266.1658
Precursor m/z: 266.1751
Precursor type: [M+H]+
m/z	relative intensity	assigned
58.0641	8	C3H8N+
70.064	22	C4H8N+
72.08	945	C4H10N+
73.0832	31	C3[13]CH10N+
110.0602	17	C6H8NO+
115.054	7	C9H7+
133.0755	5	C5H11NO3+
144.0803	5	C10H10N+
180.0796	9	C13H10N+
182.0958	11	C13H12N+
194.0833	25	C10H12NO3+
195.0916	999	C10H13NO3+
196.0943	159	C10H14NO3+
197.0972	8	C9[13]CH14NO3+
207.0909	5	C11H13NO3+
209.1068	196	C11H15NO3+
210.1099	24	C10[13]CH15NO3+
220.0979	5	C12H14NO3+
223.1224	36	C12H17NO3+
224.1248	5	C11[13]CH17NO3+
235.1225	45	C13H17NO3+
236.1253	6	C12[13]CH17NO3+
