Mass spectrum: Norfenfluramine; LC-ESI-QTOF; MS2; CE: 40 eV; R=35000; [M+H]+
Name: Norfenfluramine
Name: 1-[3-(trifluoromethyl)phenyl]propan-2-amine
Formula: C10H12F3N
Exact mass: 203.0921840
SMILES: CC(N)CC1=CC(=CC=C1)C(F)(F)F
InChI: InChI=1S/C10H12F3N/c1-7(14)5-8-3-2-4-9(6-8)10(11,12)13/h2-4,6-7H,5,14H2,1H3
Instrument: Bruker maXis Impact
Instrument type: LC-ESI-QTOF
Ms type: MS2
Ion mode: POSITIVE
Ionization: ESI
Fragmentation mode: CID
Collision energy: 40 eV
Resolution: 35000
Column name: Acclaim RSLC C18 2.2um, 2.1x100mm, Thermo
Retention time: 5.9 min
Base peak: 204.0987
Precursor m/z: 204.0995
Precursor type: [M+H]+
m/z	relative intensity	assigned
109.0443	30	C7H6F+
119.0282	24	C8H4F+
133.0244	7	C6H4F3+
137.0389	6	C6H4FN3+
139.0342	72	C8H5F2+
140.0379	7	C6H5FN2O+
146.051	6	C10H7F+
147.0341	49	C8H4FN2+
158.0322	5	C8H5F3+
159.0405	999	C8H6F3+
160.0438	79	
161.0478	5	C6[13]C2H6F3+
