Mass spectrum: Oxfendazole; LC-ESI-QTOF; MS2; CE: Ramp 21.9-32.9 eV; R=35000; [M+H]+
Name: Oxfendazole
Name: methyl N-[6-(benzenesulfinyl)-1H-benzimidazol-2-yl]carbamate
Formula: C15H13N3O3S
Exact mass: 315.0678
SMILES: COC(=O)Nc1[nH]c2ccc(cc2n1)S(=O)c3ccccc3
InChI: InChI=1S/C15H13N3O3S/c1-21-15(19)18-14-16-12-8-7-11(9-13(12)17-14)22(20)10-5-3-2-4-6-10/h2-9H,1H3,(H2,16,17,18,19)
Instrument: Bruker maXis Impact
Instrument type: LC-ESI-QTOF
Ms type: MS2
Ion mode: POSITIVE
Ionization: ESI
Fragmentation mode: CID
Collision energy: Ramp 21.9-32.9 eV
Resolution: 35000
Column name: Acclaim RSLC C18 2.2um, 2.1x100mm, Thermo
Retention time: 6.5 min
Base peak: 400.1782
Precursor m/z: 316.075
Precursor type: [M+H]+
m/z	relative intensity	assigned
60.0552	6	CH6N3+
67.0531	5	C5H7+
108.0796	7	C7H10N+
134.0474	41	C7H6N2O+
136.0756	340	C8H10NO+
137.0834	274	C8H11NO+
138.0877	18	C3H12N3O3+
140.0519	9	C7H10NS+
149.0711	648	C8H9N2O+
150.0743	43	C6H14O2S+
154.0868	304	C8H12NO2+
155.0895	24	C12H11+
161.0715	5	C9H9N2O+
166.0322	7	C8H8NOS+
168.0482	999	C8H10NOS+
169.0512	75	C3H11N3O3S+
170.044	30	C10H6N2O+
180.0335	14	C11H4N2O+
181.0431	46	C8H9N2OS+
268.1092	44	C15H14N3O2+
269.113	8	C14H13N4O2+
284.0893	8	C15H14N3OS+
301.0877	7	C14H13N4O4+
