Mass spectrum: Scopolamine-N-butyl; LC-ESI-QTOF; MS2; CE: 50 eV; R=35000; [M+H]+
Name: Scopolamine-N-butyl
Name: [(1S,2R,4S,5S)-9-butyl-9-methyl-3-oxa-9-azoniatricyclo[3.3.1.0^{2,4}]nonan-7-yl] 3-hydroxy-2-phenylpropanoate
Formula: [C21H30NO4]+
Exact mass: 360.2174834
SMILES: CCCC[N+]1(C)[C@H]2CC(C[C@H]1[C@@H]1O[C@H]21)OC(=O)C(CO)C1=CC=CC=C1
InChI: InChI=1S/C21H30NO4/c1-3-4-10-22(2)17-11-15(12-18(22)20-19(17)26-20)25-21(24)16(13-23)14-8-6-5-7-9-14/h5-9,15-20,23H,3-4,10-13H2,1-2H3/q+1/t15?,16?,17-,18-,19-,20+,22?/m0/s1
Instrument: Bruker maXis Impact
Instrument type: LC-ESI-QTOF
Ms type: MS2
Ion mode: POSITIVE
Ionization: ESI
Fragmentation mode: CID
Collision energy: 50 eV
Resolution: 35000
Column name: Acclaim RSLC C18 2.2um, 2.1x100mm, Thermo
Retention time: 5.059 min
Base peak: 264.1757
Precursor m/z: 361.2248
Precursor type: [M+H]+
m/z	relative intensity	assigned
120.0799	133	C8H10N+
121.0637	250	C8H9O+
122.0955	94	C8H12N+
123.0674	28	C7H9NO+
136.0738	36	C5H12O4+
136.1099	30	C6H16O3+
138.0898	999	C5H14O4+
139.0941	158	C5H15O4+
140.1056	60	C5H16O4+
154.0841	29	C8H12NO2+
154.1193	37	C6H18O4+
156.1001	311	C8H14NO2+
157.1025	49	C12H13+
194.1519	320	C9H22O4+
195.1551	51	C8[13]CH22O4+
