Mass spectrum: Metolachlor-OXA; LC-ESI-QTOF; MS2; CE: 10 eV; R=35000; [M+H]+
Name: Metolachlor-OXA
Name: Metolachlor OA
Name: 2-[2-ethyl-N-(1-methoxypropan-2-yl)-6-methylanilino]-2-oxoacetic acid
Formula: C15H21NO4
Exact mass: 279.1470582
SMILES: CCC1=CC=CC(C)=C1N(C(C)COC)C(=O)C(O)=O
InChI: InChI=1S/C15H21NO4/c1-5-12-8-6-7-10(2)13(12)16(11(3)9-20-4)14(17)15(18)19/h6-8,11H,5,9H2,1-4H3,(H,18,19)
Instrument: Bruker maXis Impact
Instrument type: LC-ESI-QTOF
Ms type: MS2
Ion mode: POSITIVE
Ionization: ESI
Fragmentation mode: CID
Collision energy: 10 eV
Resolution: 35000
Column name: Acclaim RSLC C18 2.2um, 2.1x100mm, Thermo
Retention time: 7.3 min
Base peak: 280.1541
Precursor m/z: 280.1543
Precursor type: [M+H]+
m/z	relative intensity	assigned
149.0233	34	C8H5O3+
205.087	14	C12H13O3+
208.0982	8	C11H14NO3+
234.1475	23	C14H20NO2+
248.1279	999	C14H18NO3+
249.131	174	C13[13]CH18NO3+
250.1357	17	C12[13]C2H18NO3+
280.1541	436	C15H22NO4+
281.1584	85	C14[13]CH22NO4+
