Mass spectrum: Imazapyr; LC-ESI-QTOF; MS2; CE: Ramp 20.2-30.4 eV; R=35000; [M+H]+
Name: Imazapyr
Name: 2-(4-methyl-5-oxo-4-propan-2-yl-1H-imidazol-2-yl)pyridine-3-carboxylic acid
Formula: C13H15N3O3
Exact mass: 261.1113413
SMILES: CC(C)C1(C)N=C(NC1=O)C1=NC=CC=C1C(O)=O
InChI: InChI=1S/C13H15N3O3/c1-7(2)13(3)12(19)15-10(16-13)9-8(11(17)18)5-4-6-14-9/h4-7H,1-3H3,(H,17,18)(H,15,16,19)
Instrument: Bruker maXis Impact
Instrument type: LC-ESI-QTOF
Ms type: MS2
Ion mode: POSITIVE
Ionization: ESI
Fragmentation mode: CID
Collision energy: Ramp 20.2-30.4 eV
Resolution: 35000
Column name: Acclaim RSLC C18 2.2um, 2.1x100mm, Thermo
Retention time: 4.256 min
Base peak: 262.1182
Precursor m/z: 262.1186
Precursor type: [M+H]+
m/z	relative intensity	assigned
58.0647	7	C3H8N+
69.0694	384	C5H9+
70.0727	17	C4[13]CH9+
71.0725	6	C4H9N+
71.0849	5	C5H11+
86.0963	402	C5H12N+
87.0997	22	C4[13]CH12N+
97.0649	14	C6H9O+
105.0457	16	C6H5N2+
131.0231	48	C7H3N2O+
133.0387	7	C7H5N2O+
147.0542	49	C8H7N2O+
148.0492	63	C7H6N3O+
149.0337	329	C7H5N2O2+
150.0366	21	C6[13]CH5N2O2+
166.06	6	C7H8N3O2+
173.1059	68	C8H15NO3+
174.0652	138	C9H8N3O+
175.0678	15	C8[13]CH8N3O+
175.085	17	C10H11N2O+
176.0798	9	C9H10N3O+
177.0652	6	C9H9N2O2+
190.1323	6	C11H16N3+
191.0678	28	C9H9N3O2+
192.0748	6	C9H10N3O2+
199.0856	76	C12H11N2O+
200.0882	8	C11[13]CH11N2O+
201.0516	12	C10H7N3O2+
202.0604	341	C10H8N3O2+
203.0633	36	C9[13]CH8N3O2+
216.1127	66	C12H14N3O+
217.0966	733	C12H13N2O2+
218.0997	113	C11[13]CH13N2O2+
219.0628	21	C10H9N3O3+
219.1028	8	C10[13]C2H13N2O2+
220.0713	402	C10H10N3O3+
221.0742	39	C9[13]CH10N3O3+
234.1234	333	C12H16N3O2+
235.1258	40	C11[13]CH16N3O2+
244.107	15	C13H14N3O2+
262.1185	999	C13H16N3O3+
263.1217	129	C12[13]CH16N3O3+
264.1223	13	C11[13]C2H16N3O3+
