Mass spectrum: Benzyl butyl phthalate; GC-APCI-QTOF; MS2; CE: 50 eV; R=35000; [M+H]+
Name: Benzyl butyl phthalate
Formula: C19H20O4
Exact mass: 312.1362
SMILES: CCCCOC(=O)C1=CC=CC=C1C(=O)OCC2=CC=CC=C2
InChI: InChI=1S/C19H20O4/c1-2-3-13-22-18(20)16-11-7-8-12-17(16)19(21)23-14-15-9-5-4-6-10-15/h4-12H,2-3,13-14H2,1H3
Instrument: Bruker 450 GC coupled to maXis Impact
Instrument type: GC-APCI-QTOF
Ms type: MS2
Ion mode: POSITIVE
Ionization: APCI
Fragmentation mode: CID
Collision energy: 50 eV
Resolution: 35000
Column name: Rxi-5Sil MS column, 30m, 0.25mm i.d., 0.25Âµm film thickness, Restek
Retention time: 22.467 min
Base peak: 149.0249
Precursor m/z: 313.1434
Precursor type: [M+H]+
m/z	relative intensity	assigned
57.0712	88	C4H9+
91.0546	653	C7H7+
121.0277	184	C7H5O2+
131.0832	136	C10H11+
149.026	999	C8H5O3+
