Mass spectrum: Dodecyl acrylate; GC-APCI-QTOF; MS2; CE: 40 eV; R=35000; [M+H]+
Name: Dodecyl acrylate
Formula: C15H28O2
Exact mass: 240.2089
SMILES: CCCCCCCCCCCCOC(=O)C=C
InChI: InChI=1S/C15H28O2/c1-3-5-6-7-8-9-10-11-12-13-14-17-15(16)4-2/h4H,2-3,5-14H2,1H3
Instrument: Bruker 450 GC coupled to maXis Impact
Instrument type: GC-APCI-QTOF
Ms type: MS2
Ion mode: POSITIVE
Ionization: APCI
Fragmentation mode: CID
Collision energy: 40 eV
Resolution: 35000
Column name: Rxi-5Sil MS column, 30m, 0.25mm i.d., 0.25Âµm film thickness, Restek
Retention time: 13.806 min
Base peak: 283.2628
Precursor m/z: 241.2162
Precursor type: [M+H]+
m/z	relative intensity	assigned
55.0547	999	C4H7+
