Mass spectrum: Diphenylphosphate; LC-ESI-QTOF; MS2; CE: 20 eV; R=35000; [M-H]-
Name: Diphenylphosphate
Name: Diphenyl phosphate
Name: diphenyl hydrogen phosphate
Formula: C12H11O4P
Exact mass: 250.0394955
SMILES: OP(=O)(OC1=CC=CC=C1)OC1=CC=CC=C1
InChI: InChI=1S/C12H11O4P/c13-17(14,15-11-7-3-1-4-8-11)16-12-9-5-2-6-10-12/h1-10H,(H,13,14)
Instrument: Bruker maXis Impact
Instrument type: LC-ESI-QTOF
Ms type: MS2
Ion mode: NEGATIVE
Ionization: ESI
Fragmentation mode: CID
Collision energy: 20 eV
Resolution: 35000
Column name: Acclaim RSLC C18 2.2um, 2.1x100mm, Thermo
Retention time: 6.415 min
Base peak: 249.0325
Precursor m/z: 249.0322
Precursor type: [M-H]-
m/z	relative intensity	assigned
154.9916	91	C6H4O3P-
249.0324	999	C12H10O4P-
250.0373	109	C11[13]CH10O4P-
