Mass spectrum: Megestrol-17-acetate; LC-ESI-QTOF; MS2; CE: 30 eV; R=35000; [M+H]+
Name: Megestrol-17-acetate
Name: Megestrol acetate
Name: [(8R,9S,10R,13S,14S,17R)-17-acetyl-6,10,13-trimethyl-3-oxo-2,8,9,11,12,14,15,16-octahydro-1H-cyclopenta[a]phenanthren-17-yl] acetate
Formula: C24H32O4
Exact mass: 384.2300595
SMILES: CC(=O)O[C@@]1(CC[C@H]2[C@@H]3C=C(C)C4=CC(=O)CC[C@]4(C)[C@H]3CC[C@]12C)C(C)=O
InChI: InChI=1S/C24H32O4/c1-14-12-18-19(22(4)9-6-17(27)13-21(14)22)7-10-23(5)20(18)8-11-24(23,15(2)25)28-16(3)26/h12-13,18-20H,6-11H2,1-5H3/t18-,19+,20+,22-,23+,24+/m1/s1
Instrument: Bruker maXis Impact
Instrument type: LC-ESI-QTOF
Ms type: MS2
Ion mode: POSITIVE
Ionization: ESI
Fragmentation mode: CID
Collision energy: 30 eV
Resolution: 35000
Column name: Acclaim RSLC C18 2.2um, 2.1x100mm, Thermo
Retention time: 10.848 min
Base peak: 385.2378
Precursor m/z: 385.2373
Precursor type: [M+H]+
m/z	relative intensity	assigned
119.0844	7	C9H11+
121.0641	15	C8H9O+
121.0999	9	C9H13+
123.0798	5	C8H11O+
131.0849	9	C10H11+
133.1001	51	C10H13+
134.1036	6	C9[13]CH13+
135.0797	9	C9H11O+
135.1161	8	C10H15+
137.0949	13	C9H13O+
143.084	11	C11H11+
145.1002	35	C11H13+
146.104	5	C10[13]CH13+
147.0791	8	C10H11O+
147.1159	20	C11H15+
149.0948	16	C10H13O+
151.1106	14	C10H15O+
155.0843	10	C12H11+
157.0998	40	C12H13+
158.1039	5	C11[13]CH13+
159.0787	6	C11H11O+
159.1154	31	C12H15+
160.12	5	C11[13]CH15+
161.0947	58	C11H13O+
161.1312	6	C12H17+
162.0995	8	C10[13]CH13O+
163.1105	12	C11H15O+
169.1	53	C13H13+
170.1038	7	C12[13]CH13+
171.0788	5	C12H11O+
171.1156	38	C13H15+
172.119	5	C12[13]CH15+
173.0949	35	C12H13O+
173.1313	19	C13H17+
174.0997	6	C11[13]CH13O+
175.1107	157	C12H15O+
176.1139	18	C11[13]CH15O+
177.1259	8	C12H17O+
181.1005	11	C14H13+
183.1157	98	C14H15+
184.1202	14	C13[13]CH15+
185.0949	16	C13H13O+
185.1316	20	C14H17+
186.1366	5	C14H18+
187.1108	130	C13H15O+
188.1145	18	C12[13]CH15O+
189.1263	40	C13H17O+
190.1302	5	C12[13]CH17O+
193.1007	6	C15H13+
194.1078	5	C15H14+
195.1156	22	C15H15+
196.1218	8	C15H16+
197.1315	46	C15H17+
198.1387	44	C15H18+
199.1107	7	C14H15O+
199.1467	34	C15H19+
200.1533	13	C15H20+
201.1266	14	C14H17O+
201.1618	7	C15H21+
207.1156	11	C16H15+
208.1231	6	C16H16+
209.1314	91	C16H17+
210.1368	26	C16H18+
211.11	7	C15H15O+
211.1471	113	C16H19+
212.1518	27	C15[13]CH19+
213.1262	15	C15H17O+
213.162	15	C16H21+
215.1421	23	C15H19O+
219.1163	5	C17H15+
221.1311	12	C17H17+
222.1383	9	C17H18+
223.1475	134	C17H19+
224.1554	999	C17H20+
225.1615	322	C17H21+
226.1656	41	C16[13]CH21+
227.1419	10	C16H19O+
229.1581	10	C16H21O+
231.1369	5	C15H19O2+
233.1315	5	C18H17+
234.1395	18	C18H18+
235.1468	17	C18H19+
236.1528	6	C18H20+
237.1269	6	C17H17O+
237.163	49	C18H21+
238.1669	10	C17[13]CH21+
239.1423	20	C17H19O+
239.1784	10	C18H23+
240.148	5	C16[13]CH19O+
241.158	88	C17H21O+
242.1612	17	C16[13]CH21O+
243.1737	16	C17H23O+
247.1473	11	C19H19+
248.1538	6	C19H20+
249.1633	86	C19H21+
250.168	23	C18[13]CH21+
251.1423	10	C18H19O+
252.1486	7	C18H20O+
253.1579	17	C18H21O+
255.1739	62	C18H23O+
256.1773	14	C17[13]CH23O+
263.1782	24	C20H23+
264.1856	26	C20H24+
265.1583	21	C19H21O+
265.1947	179	C20H25+
266.165	15	C19H22O+
266.198	38	C19[13]CH25+
267.174	747	C19H23O+
268.1773	127	C18[13]CH23O+
269.1806	9	C17[13]C2H23O+
281.1897	133	C20H25O+
282.1974	566	C20H26O+
283.2032	213	C20H27O+
284.2076	31	C19[13]CH27O+
289.1951	16	C22H25+
292.182	5	C21H24O+
307.2053	80	C22H27O+
308.2089	21	C21[13]CH27O+
310.1915	10	C21H26O2+
325.2162	221	C22H29O2+
326.2193	55	C21[13]CH29O2+
327.2221	6	C20[13]C2H29O2+
385.2371	9	C24H33O4+
