Mass spectrum: 3-(Trimethoxysilyl)propyl methacrylate; GC-APCI-QTOF; MS2; CE: 10 eV; R=35000; [M]+
Name: 3-(Trimethoxysilyl)propyl methacrylate
Formula: C10H20O5Si
Exact mass: 248.1080
SMILES: CC(=C)C(=O)OCCC[Si](OC)(OC)OC
InChI: InChI=1S/C10H20O5Si/c1-9(2)10(11)15-7-6-8-16(12-3,13-4)14-5/h1,6-8H2,2-5H3
Instrument: Bruker 450 GC coupled to maXis Impact
Instrument type: GC-APCI-QTOF
Ms type: MS2
Ion mode: POSITIVE
Ionization: APCI
Fragmentation mode: CID
Collision energy: 10 eV
Resolution: 35000
Column name: Rxi-5Sil MS column, 30m, 0.25mm i.d., 0.25Âµm film thickness, Restek
Retention time: 11.591 min
Base peak: 217.0886
Precursor m/z: 248.1075
Precursor type: [M]+
m/z	relative intensity	assigned
125.0266	530	C2H9O4Si+
133.0323	468	C4H9O3Si+
177.0216	407	C5H9O5Si+
177.0596	999	C6H13O4Si+
180.0494	456	C5H12O5Si+
190.0644	629	C7H14O4Si+
191.0372	419	C6H11O5Si+
191.0749	468	C7H15O4Si+
192.048	629	C6H12O5Si+
193.0543	986	C6H13O5Si+
220.0791	407	C8H16O5Si+
220.1146	518	C9H20O4Si+
247.0991	567	C10H19O5Si+
248.11	875	C10H20O5Si+
