Mass spectrum: Benzo(a)pyrene; GC-APCI-QTOF; MS2; CE: 40 eV; R=35000; [M]+
Name: Benzo(a)pyrene
Name: benzo[a]pyrene
Formula: C20H12
Exact mass: 252.0939
SMILES: C1=CC2=CC3=CC=C4C=CC=C5C=CC(=C2C=C1)C3=C45
InChI: InChI=1S/C20H12/c1-2-7-17-15(4-1)12-16-9-8-13-5-3-6-14-10-11-18(17)20(16)19(13)14/h1-12H
Instrument: Bruker 450 GC coupled to maXis Impact
Instrument type: GC-APCI-QTOF
Ms type: MS2
Ion mode: POSITIVE
Ionization: APCI
Fragmentation mode: CID
Collision energy: 40 eV
Resolution: 35000
Column name: Rxi-5Sil MS column, 30m, 0.25mm i.d., 0.25Âµm film thickness (Restek)
Retention time: 28.366 min
Base peak: 252.0918
Precursor m/z: 252.0934
Precursor type: [M]+
m/z	relative intensity	assigned
226.0722	20	C18H10+
250.0744	23	C20H10+
251.0826	38	C20H11+
252.0919	999	C20H12+
