Mass spectrum: 10,11-Dihydro-10,11-dihydroxycarbamazepine; LC-ESI-QTOF; MS2; CE: 20 eV; R=35000; [M+H]+
Name: 10,11-Dihydro-10,11-dihydroxycarbamazepine
Name: Carbazepine 10,11-diol
Name: 5,6-dihydroxy-5,6-dihydrobenzo[b][1]benzazepine-11-carboxamide
Formula: C15H14N2O3
Exact mass: 270.1004423
SMILES: NC(=O)N1C2=CC=CC=C2C(O)C(O)C2=CC=CC=C12
InChI: InChI=1S/C15H14N2O3/c16-15(20)17-11-7-3-1-5-9(11)13(18)14(19)10-6-2-4-8-12(10)17/h1-8,13-14,18-19H,(H2,16,20)
Instrument: Bruker maXis Impact
Instrument type: LC-ESI-QTOF
Ms type: MS2
Ion mode: POSITIVE
Ionization: ESI
Fragmentation mode: CID
Collision energy: 20 eV
Resolution: 35000
Column name: Acclaim RSLC C18 2.2um, 2.1x100mm, Thermo
Retention time: 5.740 min
Base peak: 326.2332
Precursor m/z: 271.1077
Precursor type: [M+H]+
m/z	relative intensity	assigned
167.073	7	C12H9N+
180.08	999	C13H10N+
181.084	147	C12[13]CH10N+
182.0955	173	C10H14O3+
183.0982	25	C9[13]CH14O3+
192.0829	7	C14H10N+
208.075	83	C14H10NO+
209.0781	15	C13[13]CH10NO+
210.0909	760	C14H12NO+
211.094	123	C13[13]CH12NO+
212.0964	8	C12[13]C2H12NO+
236.071	85	C15H10NO2+
237.0753	17	C14[13]CH10NO2+
253.0953	23	C15H13N2O2+
254.0807	373	C15H12NO3+
255.0835	70	C14[13]CH12NO3+
