Mass spectrum: N4-Acetylsulfamethazine; LC-ESI-QTOF; MS2; CE: 40 eV; R=35000; [M+H]+
Name: N4-Acetylsulfamethazine
Name: N-Acetyl Sulfamethazine
Name: N-[4-[(4,6-dimethylpyrimidin-2-yl)sulfamoyl]phenyl]acetamide
Formula: C14H16N4O3S
Exact mass: 320.0943114
SMILES: Cc1cc(nc(n1)NS(=O)(=O)c2ccc(cc2)/N=C(\C)/O)C
InChI: InChI=1S/C14H16N4O3S/c1-9-8-10(2)16-14(15-9)18-22(20,21)13-6-4-12(5-7-13)17-11(3)19/h4-8H,1-3H3,(H,17,19)(H,15,16,18)
Instrument: Bruker maXis Impact
Instrument type: LC-ESI-QTOF
Ms type: MS2
Ion mode: POSITIVE
Ionization: ESI
Fragmentation mode: CID
Collision energy: 40 eV
Resolution: 35000
Column name: Acclaim RSLC C18 2.2um, 2.1x100mm, Thermo
Retention time: 4.4 min
Base peak: 321.1009
Precursor m/z: 321.1016
Precursor type: [M+H]+
m/z	relative intensity	assigned
122.0703	96	C6H8N3+
123.0779	202	C6H9N3+
124.0859	651	C6H10N3+
125.0887	53	C4H15NOS+
134.0589	999	C6H6N4+
135.0622	73	C5[13]CH6N4+
136.0754	26	C8H10NO+
150.0532	26	C6H6N4O+
156.0097	87	C4H4N4OS+
162.0648	37	C8H8N3O+
186.0322	65	C6H8N3O2S+
196.0846	33	C9H12N2O3+
197.0937	19	C12H11N3+
198.0204	63	C6H6N4O2S+
204.043	293	C12H4N4+
205.0457	18	C11[13]CH4N4+
212.1042	148	C9H14N3O3+
213.1121	288	C9H15N3O3+
214.0966	68	C12H12N3O+
214.1172	34	C9H16N3O3+
255.1218	278	C14H15N4O+
256.1272	40	C13[13]CH15N4O+
