Mass spectrum: Bicalutamide; LC-ESI-QTOF; MS2; CE: 30 eV; R=35000; [M-H]-
Name: Bicalutamide
Name: N-[4-cyano-3-(trifluoromethyl)phenyl]-3-(4-fluorophenyl)sulfonyl-2-hydroxy-2-methylpropanamide
Formula: C18H14F4N2O4S
Exact mass: 430.0610408
SMILES: CC(O)(CS(=O)(=O)C1=CC=C(F)C=C1)C(=O)NC1=CC(=C(C=C1)C#N)C(F)(F)F
InChI: InChI=1S/C18H14F4N2O4S/c1-17(26,10-29(27,28)14-6-3-12(19)4-7-14)16(25)24-13-5-2-11(9-23)15(8-13)18(20,21)22/h2-8,26H,10H2,1H3,(H,24,25)
Instrument: Bruker maXis Impact
Instrument type: LC-ESI-QTOF
Ms type: MS2
Ion mode: NEGATIVE
Ionization: ESI
Fragmentation mode: CID
Collision energy: 30 eV
Resolution: 35000
Column name: Acclaim RSLC C18 2.2um, 2.1x100mm, Thermo
Retention time: 8.563 min
Base peak: 429.0529
Precursor m/z: 429.0538
Precursor type: [M-H]-
m/z	relative intensity	assigned
158.9926	32	C6H4FO2S-
173.0093	98	C7H5F2NS-
174.0135	7	C6[13]CH5F2NS-
184.0397	135	F4H12O4S-
185.0352	349	C5H5F4N2O-
186.0374	28	C4[13]CH5F4N2O-
227.0451	11	C7H7F4N2O2-
243.0135	15	C13H3F2NO2-
255.0396	999	C10H11N2O4S-
256.0425	87	C9[13]CH11N2O4S-
257.0489	6	C8[13]C2H11N2O4S-
411.0371	8	C18H11F4N2O3S-
411.0483	9	C18H11F4N2O3S-
