Mass spectrum: Bis (2,6-diisopropylphenyl)-carbodiimide; GC-APCI-QTOF; MS2; CE: 50 eV; R=35000; [M]+
Name: Bis (2,6-diisopropylphenyl)-carbodiimide
Formula: C25H34N2
Exact mass: 362.2722
SMILES: CC(C)C1=C(C(=CC=C1)C(C)C)N=C=NC2=C(C=CC=C2C(C)C)C(C)C
InChI: InChI=1S/C25H34N2/c1-16(2)20-11-9-12-21(17(3)4)24(20)26-15-27-25-22(18(5)6)13-10-14-23(25)19(7)8/h9-14,16-19H,1-8H3
Instrument: Bruker 450 GC coupled to maXis Impact
Instrument type: GC-APCI-QTOF
Ms type: MS2
Ion mode: POSITIVE
Ionization: APCI
Fragmentation mode: CID
Collision energy: 50 eV
Resolution: 35000
Column name: Rxi-5Sil MS column, 30m, 0.25mm i.d., 0.25Âµm film thickness, Restek
Retention time: 22.568 min
Base peak: 285.2781
Precursor m/z: 362.2717
Precursor type: [M]+
m/z	relative intensity	assigned
117.0586	172	C8H7N+
118.0652	333	C8H8N+
120.0813	551	C8H10N+
128.0621	275	C10H8+
130.0646	384	C9H8N+
131.0744	350	C9H9N+
131.0856	241	C10H11+
132.0817	964	C9H10N+
133.0895	218	C9H11N+
143.0747	292	C10H9N+
144.084	912	C10H10N+
146.0996	999	C10H12N+
147.1025	183	C10H13N+
148.1157	533	C10H14N+
160.1144	430	C11H14N+
168.0826	160	C12H10N+
170.1003	843	C12H12N+
171.1084	516	C12H13N+
172.1151	562	C12H14N+
173.1216	212	C12H15N+
176.1455	229	C12H18N+
186.1302	723	C13H16N+
187.1373	252	C13H17N+
196.113	310	C14H14N+
197.1223	235	C14H15N+
198.1306	177	C14H16N+
200.1461	419	C14H18N+
212.1452	235	C15H18N+
220.0985	155	C15H12N2+
221.1082	189	C15H13N2+
233.108	241	C16H13N2+
246.1195	229	C17H14N2+
247.1243	355	C17H15N2+
248.1275	177	C17H16N2+
261.1391	229	C18H17N2+
263.1563	195	C18H19N2+
276.1622	160	C19H20N2+
277.1688	183	C19H21N2+
289.1734	344	C20H21N2+
290.1757	149	C20H22N2+
303.1854	275	C21H23N2+
304.1885	241	C21H24N2+
317.1985	223	C22H25N2+
