Mass spectrum: Domperidone; LC-ESI-QTOF; MS2; CE: 50 eV; R=35000; [M+H]+
Name: Domperidone
Name: 6-chloro-3-[1-[3-(2-oxo-3H-benzimidazol-1-yl)propyl]piperidin-4-yl]-1H-benzimidazol-2-one
Formula: C22H24ClN5O2
Exact mass: 425.1618527
SMILES: ClC1=CC2=C(C=C1)N(C1CCN(CCCN3C(=O)NC4=CC=CC=C34)CC1)C(=O)N2
InChI: InChI=1S/C22H24ClN5O2/c23-15-6-7-20-18(14-15)25-22(30)28(20)16-8-12-26(13-9-16)10-3-11-27-19-5-2-1-4-17(19)24-21(27)29/h1-2,4-7,14,16H,3,8-13H2,(H,24,29)(H,25,30)
Instrument: Bruker maXis Impact
Instrument type: LC-ESI-QTOF
Ms type: MS2
Ion mode: POSITIVE
Ionization: ESI
Fragmentation mode: CID
Collision energy: 50 eV
Resolution: 35000
Column name: Acclaim RSLC C18 2.2um, 2.1x100mm, Thermo
Retention time: 5.787 min
Base peak: 411.2189
Precursor m/z: 426.1691
Precursor type: [M+H]+
m/z	relative intensity	assigned
119.06	200	C7H7N2+
120.0631	17	C6[13]CH7N2+
134.0463	13	C5H4N5+
147.0545	999	C8H7N2O+
148.0573	89	C7[13]CH7N2O+
149.0595	5	C6[13]C2H7N2O+
175.0858	599	C8H9N5+
176.0888	63	C7[13]CH9N5+
207.0313	14	C10H8ClN2O+
209.0304	5	C10H8[37]ClN2O+
235.0616	7	C13H7N4O+
