Mass spectrum: beta-Pinene; GC-APCI-QTOF; MS2; CE: 10 eV; R=35000; [M+H]+
Name: beta-Pinene
Formula: C10H16
Exact mass: 136.1252
SMILES: CC1(C2CCC(=C)C1C2)C
InChI: InChI=1S/C10H16/c1-7-4-5-8-6-9(7)10(8,2)3/h8-9H,1,4-6H2,2-3H3
Instrument: Bruker 450 GC coupled to maXis Impact
Instrument type: GC-APCI-QTOF
Ms type: MS2
Ion mode: POSITIVE
Ionization: APCI
Fragmentation mode: CID
Collision energy: 10 eV
Resolution: 35000
Column name: Rxi-5Sil MS column, 30m, 0.25mm i.d., 0.25Âµm film thickness, Restek
Retention time: 7.172 min
Base peak: 137.1334
Precursor m/z: 137.1325
Precursor type: [M+H]+
m/z	relative intensity	assigned
121.1025	450	C9H13+
135.1175	325	C10H15+
136.1249	333	C10H16+
137.1341	999	C10H17+
