Mass spectrum: Colchicine; LC-ESI-QTOF; MS2; CE: 30 eV; R=35000; [M+H]+
Name: Colchicine
Name: N-[(7S)-1,2,3,10-tetramethoxy-9-oxo-6,7-dihydro-5H-benzo[a]heptalen-7-yl]acetamide
Formula: C22H25NO6
Exact mass: 399.1681875
SMILES: C/C(=N\[C@H]1CCc2cc(c(c(c2-c3c1cc(=O)c(cc3)OC)OC)OC)OC)/O
InChI: InChI=1S/C22H25NO6/c1-12(24)23-16-8-6-13-10-19(27-3)21(28-4)22(29-5)20(13)14-7-9-18(26-2)17(25)11-15(14)16/h7,9-11,16H,6,8H2,1-5H3,(H,23,24)/t16-/m0/s1
Instrument: Bruker maXis Impact
Instrument type: LC-ESI-QTOF
Ms type: MS2
Ion mode: POSITIVE
Ionization: ESI
Fragmentation mode: CID
Collision energy: 30 eV
Resolution: 35000
Column name: Acclaim RSLC C18 2.2um, 2.1x100mm, Thermo
Retention time: 6.2 min
Base peak: 400.163
Precursor m/z: 400.1755
Precursor type: [M+H]+
m/z	relative intensity	assigned
137.0574	8	C8H9O2+
152.0642	5	C12H8+
181.076	19	C9H11NO3+
193.0679	5	C7H13O6+
203.0869	6	C16H11+
205.0768	6	C11H11NO3+
207.0926	7	C11H13NO3+
219.0929	10	C12H13NO3+
220.0899	5	C16H12O+
222.1039	5	C16H14O+
234.1042	51	C17H14O+
235.1105	7	C17H15O+
238.0902	6	C15H12NO2+
239.0981	6	C15H13NO2+
240.1009	5	C15H14NO2+
242.086	8	C14H12NO3+
245.0958	6	C18H13O+
249.0819	10	C16H11NO2+
250.0882	9	C16H12NO2+
251.0621	6	C15H9NO3+
251.0963	10	C16H13NO2+
252.0687	6	C15H10NO3+
252.1042	9	C16H14NO2+
253.0757	7	C15H11NO3+
253.1137	5	C16H15NO2+
254.086	6	C15H12NO3+
255.0906	7	C15H13NO3+
256.0982	10	C15H14NO3+
257.1079	5	C15H15NO3+
263.0876	5	C21H11+
264.0929	5	C21H12+
266.0832	11	C16H12NO3+
266.1082	6	C21H14+
267.0921	38	C16H13NO3+
268.0992	24	C16H14NO3+
270.0814	11	C15H12NO4+
270.1138	12	C16H16NO3+
271.0867	7	C15H13NO4+
271.123	7	C16H17NO3+
273.1015	9	C15H15NO4+
276.1167	5	C19H16O2+
278.0836	45	C17H12NO3+
279.0554	6	C16H9NO4+
279.0913	17	C17H13NO3+
280.096	14	C17H14NO3+
281.1081	52	C17H15NO3+
282.1152	244	C17H16NO3+
283.1204	55	C16[13]CH16NO3+
284.0949	13	C16H14NO4+
284.1223	13	C21H16O+
285.1024	91	C16H15NO4+
285.1303	7	C21H17O+
287.0804	10	C15H13NO5+
287.1149	10	C16H17NO4+
292.0983	7	C18H14NO3+
294.0788	27	C17H12NO4+
294.1015	15	C22H14O+
296.0875	18	C17H14NO4+
296.1163	13	C22H16O+
298.0759	9	C16H12NO5+
298.1104	69	C17H16NO4+
298.1335	45	C22H18O+
299.1168	47	C17H17NO4+
300.0871	7	C16H14NO5+
300.1189	19	C17H18NO4+
301.0973	6	C16H15NO5+
301.1246	11	C21H17O2+
302.1035	20	C16H16NO5+
302.1323	5	C21H18O2+
303.1099	6	C16H17NO5+
307.1089	9	C15H17NO6+
308.0913	6	C18H14NO4+
308.1166	15	C15H18NO6+
309.1283	14	C16H21O6+
310.1093	342	C18H16NO4+
311.11	75	C22H15O2+
312.1136	21	C21[13]CH15O2+
313.0967	36	C17H15NO5+
313.1338	93	C18H19NO4+
314.1336	27	C17[13]CH19NO4+
315.1139	9	C17H17NO5+
315.1406	5	C22H19O2+
316.145	28	C22H20O2+
317.1502	7	C22H21O2+
322.1338	6	C16H20NO6+
323.1167	11	C19H17NO4+
323.1419	7	C16H21NO6+
324.1181	20	C19H18NO4+
325.1258	26	C19H19NO4+
326.1214	184	C19H18O5+
327.1088	24	C17[13]CH16NO5+
328.1088	35	C22H16O3+
329.1136	17	C22H17O3+
330.1229	17	C22H18O3+
330.1636	11	C19H24NO4+
331.162	5	C22H21NO2+
336.1164	6	C20H18NO4+
339.1398	24	C20H21NO4+
341.1277	265	C19H19NO5+
342.1285	59	C18[13]CH19NO5+
343.1267	44	C22H17NO3+
344.1334	7	C22H18NO3+
350.1339	8	C21H20NO4+
351.1397	8	C21H21NO4+
352.112	9	C20H18NO5+
354.1638	17	C21H24NO4+
356.1423	5	C20H22NO5+
357.14	14	
358.1578	606	C20H24NO5+
359.1552	103	C20H23O6+
360.16	11	
367.1343	41	C21H21NO5+
368.1324	19	C21H20O6+
369.1498	5	C21H23NO5+
382.1583	107	C22H24NO5+
383.1622	28	C21[13]CH24NO5+
400.1685	999	C22H26NO6+
401.1718	200	C21[13]CH26NO6+
