Mass spectrum: Sulfapyridine; LC-ESI-QTOF; MS2; CE: Ramp 19.8-29.7 eV; R=35000; [M+H]+
Name: Sulfapyridine
Name: 4-amino-N-pyridin-2-ylbenzenesulfonamide
Formula: C11H11N3O2S
Exact mass: 249.0572
SMILES: c1ccnc(c1)NS(=O)(=O)c2ccc(cc2)N
InChI: InChI=1S/C11H11N3O2S/c12-9-4-6-10(7-5-9)17(15,16)14-11-3-1-2-8-13-11/h1-8H,12H2,(H,13,14)
Instrument: Bruker maXis Impact
Instrument type: LC-ESI-QTOF
Ms type: MS2
Ion mode: POSITIVE
Ionization: ESI
Fragmentation mode: CID
Collision energy: Ramp 19.8-29.7 eV
Resolution: 35000
Column name: Acclaim RSLC C18 2.2um, 2.1x100mm, Thermo
Retention time: 3.9 min
Base peak: 250.0657
Precursor m/z: 250.0645
Precursor type: [M+H]+
m/z	relative intensity	assigned
53.0383	6	C4H5+
55.0175	5	C3H3O+
65.0381	80	C5H5+
67.0411	13	C4H5N+
68.049	139	C4H6N+
69.033	15	C4H5O+
78.0333	19	C5H4N+
79.0176	20	C5H3O+
80.0494	11	C5H6N+
82.0285	5	C4H4NO+
92.0497	264	C6H6N+
93.0447	18	C5H5N2+
93.0569	65	C6H7N+
94.0527	66	C5H6N2+
95.0609	472	C5H7N2+
96.0445	23	C5H6NO+
96.0643	25	H8N4O2+
108.0464	335	C3H10NOS+
109.0486	28	C6H7NO+
110.061	67	C6H8NO+
120.056	33	C6H6N3+
121.0577	5	C4H11NOS+
156.0117	999	C6H6NO2S+
157.0106	155	C10H5S+
158.0081	54	C9H4NS+
167.0614	15	C11H7N2+
168.0676	5	C11H8N2+
169.0744	7	C11H9N2+
183.0791	5	C11H9N3+
184.0876	765	C11H10N3+
185.0907	76	C11H11N3+
186.1027	25	C11H12N3+
250.0658	644	C11H12N3O2S+
251.069	78	C10H11N4O2S+
252.0629	26	C10H12N4O2S+
