Mass spectrum: (+/-)-Camphor; GC-APCI-QTOF; MS2; CE: 10 eV; R=35000; [M+H]+
Name: (+/-)-Camphor
Formula: C10H16O
Exact mass: 152.1201
SMILES: CC1(C2CCC1(C(=O)C2)C)C
InChI: InChI=1S/C10H16O/c1-9(2)7-4-5-10(9,3)8(11)6-7/h7H,4-6H2,1-3H3
Instrument: Bruker 450 GC coupled to maXis Impact
Instrument type: GC-APCI-QTOF
Ms type: MS2
Ion mode: POSITIVE
Ionization: APCI
Fragmentation mode: CID
Collision energy: 10 eV
Resolution: 35000
Column name: Rxi-5Sil MS column, 30m, 0.25mm i.d., 0.25Âµm film thickness, Restek
Retention time: 9.041 min
Base peak: 153.1284
Precursor m/z: 153.1274
Precursor type: [M+H]+
m/z	relative intensity	assigned
69.0708	6	C5H9+
95.0866	10	C7H11+
97.066	17	C6H9O+
107.0845	10	C8H11+
109.1001	27	C8H13+
135.117	209	C10H15+
137.0963	67	C9H13O+
138.1039	5	C9H14O+
151.1125	5	C10H15O+
152.1214	46	C10H16O+
153.1282	999	C10H17O+
