Mass spectrum: Simazine; LC-ESI-QTOF; MS2; CE: 20 eV; R=35000; [M+H]+
Name: Simazine
Name: 6-chloro-2-N,4-N-diethyl-1,3,5-triazine-2,4-diamine
Formula: C7H12ClN5
Exact mass: 201.0781231
SMILES: CCNC1=NC(NCC)=NC(Cl)=N1
InChI: InChI=1S/C7H12ClN5/c1-3-9-6-11-5(8)12-7(13-6)10-4-2/h3-4H2,1-2H3,(H2,9,10,11,12,13)
Instrument: Bruker maXis Impact
Instrument type: LC-ESI-QTOF
Ms type: MS2
Ion mode: POSITIVE
Ionization: ESI
Fragmentation mode: CID
Collision energy: 20 eV
Resolution: 35000
Column name: Acclaim RSLC C18 2.2um, 2.1x100mm, Thermo
Retention time: 6.9 min
Base peak: 150.1116
Precursor m/z: 202.0854
Precursor type: [M+H]+
m/z	relative intensity	assigned
124.0859	243	C6H10N3+
132.0315	326	C4H7ClN3+
138.0773	24	C5H8N5+
166.108	104	C7H12N5+
167.1075	15	C6H11N6+
174.0534	140	C5H9ClN5+
202.0848	999	C7H13ClN5+
203.0866	108	C6[13]CH13ClN5+
204.0820	224	C7H13[37]ClN5+
205.0837	18	C6[13]CH13[37]ClN5+
