Mass spectrum: R-Deprenyl N-Oxide; LC-ESI-QTOF; MS2; CE: 30 eV; R=35000; [M+H]+
Name: R-Deprenyl N-Oxide
Name: N-methyl-1-phenyl-N-prop-2-ynylpropan-2-amine oxide
Formula: C13H17NO
Exact mass: 203.1310142
SMILES: CC(CC1=CC=CC=C1)[N+](C)([O-])CC#C
InChI: InChI=1S/C13H17NO/c1-4-10-14(3,15)12(2)11-13-8-6-5-7-9-13/h1,5-9,12H,10-11H2,2-3H3
Instrument: Bruker maXis Impact
Instrument type: LC-ESI-QTOF
Ms type: MS2
Ion mode: POSITIVE
Ionization: ESI
Fragmentation mode: CID
Collision energy: 30 eV
Resolution: 35000
Column name: Acclaim RSLC C18 2.2um, 2.1x100mm, Thermo
Retention time: 5.2 min
Base peak: 204.1377
Precursor m/z: 204.1383
Precursor type: [M+H]+
m/z	relative intensity	assigned
119.0842	999	C9H11+
