Mass spectrum: Flufenoxuron; LC-ESI-QTOF; MS2; CE: 40 eV; R=35000; [M-H]-
Name: Flufenoxuron
Name: N-[[4-[2-chloro-4-(trifluoromethyl)phenoxy]-2-fluorophenyl]carbamoyl]-2,6-difluorobenzamide
Formula: C21H11ClF6N2O3
Exact mass: 488.0362392
SMILES: FC1=CC(OC2=CC=C(C=C2Cl)C(F)(F)F)=CC=C1NC(=O)NC(=O)C1=C(F)C=CC=C1F
InChI: InChI=1S/C21H11ClF6N2O3/c22-12-8-10(21(26,27)28)4-7-17(12)33-11-5-6-16(15(25)9-11)29-20(32)30-19(31)18-13(23)2-1-3-14(18)24/h1-9H,(H2,29,30,31,32)
Instrument: Bruker maXis Impact
Instrument type: LC-ESI-QTOF
Ms type: MS2
Ion mode: NEGATIVE
Ionization: ESI
Fragmentation mode: CID
Collision energy: 40 eV
Resolution: 35000
Column name: Acclaim RSLC C18 2.2um, 2.1x100mm, Thermo
Retention time: 12.776 min
Base peak: 487.0282
Precursor m/z: 487.029
Precursor type: [M-H]-
m/z	relative intensity	assigned
150.0242	398	C9H7Cl-
178.9873	848	C6H5ClFO3-
180.9882	203	C6H5[37]ClFO3-
194.9818	999	C7H3ClF3O-
196.979	383	C7H3[37]ClF3O-
222.9767	201	C11H2ClF2O-
248.0296	261	C10H9ClF2NO2-
256.0094	187	C7H7ClF6O-
269.035	162	C14H9ClF3-
283.0004	197	C16H4ClF2N-
284.0096	385	C13H6ClF3NO-
289.0422	156	C17H6FN2O2-
304.0208	455	C13H7ClF4NO-
306.0127	158	C13H7[37]ClF4NO-
329.0106	608	C17H5ClF3N2-
331.0063	211	C17H5[37]ClF3N2-
