Mass spectrum: 2-Hydroxy-2-methylpropiophenone; GC-APCI-QTOF; MS2; CE: 20 eV; R=35000; [M+H]+
Name: 2-Hydroxy-2-methylpropiophenone
Formula: C10H12O2
Exact mass: 164.0837
SMILES: CC(C)(C(=O)C1=CC=CC=C1)O
InChI: InChI=1S/C10H12O2/c1-10(2,12)9(11)8-6-4-3-5-7-8/h3-7,12H,1-2H3
Instrument: Bruker 450 GC coupled to maXis Impact
Instrument type: GC-APCI-QTOF
Ms type: MS2
Ion mode: POSITIVE
Ionization: APCI
Fragmentation mode: CID
Collision energy: 20 eV
Resolution: 35000
Column name: Rxi-5Sil MS column, 30m, 0.25mm i.d., 0.25Âµm film thickness, Restek
Retention time: 10.431 min
Base peak: 147.0787
Precursor m/z: 165.091
Precursor type: [M+H]+
m/z	relative intensity	assigned
69.0326	7	C4H5O+
91.0532	106	C7H7+
117.0701	16	C9H9+
119.0852	999	C9H11+
127.0525	8	C10H7+
128.0629	112	C10H8+
129.0698	586	C10H9+
130.0751	42	C10H10+
132.0559	7	C9H8O+
145.0648	18	C10H9O+
147.0797	128	C10H11O+
150.0644	7	C9H10O2+
