Mass spectrum: Metolachlor CGA 368208; LC-ESI-QTOF; MS2; CE: 20 eV; R=35000; [M-H]-
Name: Metolachlor CGA 368208
Name: 2-(2-ethyl-6-methylanilino)-2-oxoethanesulfonic acid
Formula: C11H15NO4S
Exact mass: 257.0721790
SMILES: CCC1=CC=CC(C)=C1NC(=O)CS(O)(=O)=O
InChI: InChI=1S/C11H15NO4S/c1-3-9-6-4-5-8(2)11(9)12-10(13)7-17(14,15)16/h4-6H,3,7H2,1-2H3,(H,12,13)(H,14,15,16)
Instrument: Bruker maXis Impact
Instrument type: LC-ESI-QTOF
Ms type: MS2
Ion mode: NEGATIVE
Ionization: ESI
Fragmentation mode: CID
Collision energy: 20 eV
Resolution: 35000
Column name: Acclaim RSLC C18 2.2um, 2.1x100mm, Thermo
Retention time: 4.852 min
Base peak: 256.0641
Precursor m/z: 256.0649
Precursor type: [M-H]-
m/z	relative intensity	assigned
120.9605	248	C2HO4S-
134.0986	63	C9H12N-
192.1005	67	C11H14NO2-
256.0626	999	C11H14NO4S-
258.0614	69	C11H14NO4[34]S-
