Mass spectrum: Fluoxetine; LC-ESI-QTOF; MS2; CE: 40 eV; R=35000; [M+H]+
Name: Fluoxetine
Name: N-methyl-3-phenyl-3-[4-(trifluoromethyl)phenoxy]propan-1-amine
Formula: C17H18F3NO
Exact mass: 309.1340489
SMILES: CNCCC(c1ccccc1)Oc2ccc(cc2)C(F)(F)F
InChI: InChI=1S/C17H18F3NO/c1-21-12-11-16(13-5-3-2-4-6-13)22-15-9-7-14(8-10-15)17(18,19)20/h2-10,16,21H,11-12H2,1H3
Instrument: Bruker maXis Impact
Instrument type: LC-ESI-QTOF
Ms type: MS2
Ion mode: POSITIVE
Ionization: ESI
Fragmentation mode: CID
Collision energy: 40 eV
Resolution: 35000
Column name: Acclaim RSLC C18 2.2um, 2.1x100mm, Thermo
Retention time: 8.6 min
Base peak: 310.1419
Precursor m/z: 310.1413
Precursor type: [M+H]+
m/z	relative intensity	assigned
115.0533	419	C9H7+
117.0696	558	C9H9+
129.0686	444	C10H9+
141.0706	180	C8H10FO+
145.0236	175	C7H4F3+
145.063	205	C10H9O+
159.1177	214	C9H16FO+
165.0692	196	C13H9+
167.0848	515	C13H11+
194.0726	333	C14H10O+
195.1182	419	C12H16FO+
203.084	250	C16H11+
204.0926	999	C16H12+
205.099	447	C16H13+
217.1007	342	C17H13+
218.1075	775	C17H14+
219.1156	939	C17H15+
220.1197	184	C17H16+
223.1102	428	C16H15O+
236.1174	221	C17H16O+
