Mass spectrum: 3,4,5-Trichlorophenol; LC-ESI-QTOF; MS2; CE: 30 eV; R=35000; [M-H]-
Name: 3,4,5-Trichlorophenol
Formula: C6H3Cl3O
Exact mass: 195.9249478
SMILES: OC1=CC(Cl)=C(Cl)C(Cl)=C1
InChI: InChI=1S/C6H3Cl3O/c7-4-1-3(10)2-5(8)6(4)9/h1-2,10H
Instrument: Bruker maXis Impact
Instrument type: LC-ESI-QTOF
Ms type: MS2
Ion mode: NEGATIVE
Ionization: ESI
Fragmentation mode: CID
Collision energy: 30 eV
Resolution: 35000
Column name: Acclaim RSLC C18 2.2um, 2.1x100mm, Thermo
Retention time: 10.707 min
Base peak: 194.9177
Precursor m/z: 194.9177
Precursor type: [M-H]-
m/z	relative intensity	assigned
122.9623	133	C6ClO-
158.9403	999	C6HCl2O-
160.9375	457	C6HCl[37]ClO-
