Mass spectrum: N-Desmethyl Clarithromycin; LC-ESI-QTOF; MS2; CE: 20 eV; R=35000; [M+H]+
Name: N-Desmethyl Clarithromycin
Name: 14-ethyl-12,13-dihydroxy-4-(5-hydroxy-4-methoxy-4,6-dimethyloxan-2-yl)oxy-6-[3-hydroxy-6-methyl-4-(methylamino)oxan-2-yl]oxy-7-methoxy-3,5,7,9,11,13-hexamethyl-oxacyclotetradecane-2,10-dione
Formula: C37H67NO13
Exact mass: 733.4612412
SMILES: CCC1OC(=O)C(C)C(OC2CC(C)(OC)C(O)C(C)O2)C(C)C(OC2OC(C)CC(NC)C2O)C(C)(CC(C)C(=O)C(C)C(O)C1(C)O)OC
InChI: InChI=1S/C37H67NO13/c1-14-25-37(10,44)30(41)20(4)27(39)18(2)16-36(9,46-13)32(51-34-28(40)24(38-11)15-19(3)47-34)21(5)29(22(6)33(43)49-25)50-26-17-35(8,45-12)31(42)23(7)48-26/h18-26,28-32,34,38,40-42,44H,14-17H2,1-13H3
Instrument: Bruker maXis Impact
Instrument type: LC-ESI-QTOF
Ms type: MS2
Ion mode: POSITIVE
Ionization: ESI
Fragmentation mode: CID
Collision energy: 20 eV
Resolution: 35000
Column name: Acclaim RSLC C18 2.2um, 2.1x100mm, Thermo
Retention time: 9.1 min
Base peak: 429.2396
Precursor m/z: 734.4685
Precursor type: [M+H]+
m/z	relative intensity	assigned
127.0745	47	C7H11O2+
144.101	999	C7H14NO2+
145.1039	78	C6[13]CH14NO2+
146.1057	5	C6H14N2O2+
159.0996	10	C8H15O3+
270.1693	26	C14H24NO4+
271.1721	5	C18H23O2+
302.1957	180	C15H28NO5+
307.1908	5	C18H27O4+
339.2181	25	C22H29NO2+
340.2222	5	C19H32O5+
365.2321	37	C21H33O5+
366.2338	7	C20[13]CH33O5+
383.2433	34	C21H35O6+
384.2483	9	C20[13]CH35O6+
397.2578	49	C22H37O6+
398.2615	15	C21[13]CH37O6+
401.2531	11	C21H37O7+
415.2678	17	C22H39O7+
433.2807	30	C22H41O8+
526.3416	7	C21H52NO13+
544.3475	46	C28H50NO9+
545.3515	15	C27[13]CH50NO9+
574.3539	5	C36H48NO5+
576.3747	393	C29H54NO10+
577.3778	115	C26H57O13+
578.3806	26	C25[13]CH57O13+
579.3861	6	C24[13]C2H57O13+
702.4468	15	C36H64NO12+
703.4455	9	C36H65NO12+
732.4615	8	C37H66NO13+
733.4616	6	C37H67NO13+
734.4706	709	C36[13]CH67NO13+
735.4737	287	C35[13]C2H67NO13+
736.4795	59	C34[13]C3H67NO13+
