Mass spectrum: Alachlor; LC-ESI-QTOF; MS2; CE: 10 eV; R=35000; [M+H]+
Name: Alachlor
Name: 2-chloro-N-(2,6-diethylphenyl)-N-(methoxymethyl)acetamide
Formula: C14H20ClNO2
Exact mass: 269.1182566
SMILES: CCC1=CC=CC(CC)=C1N(COC)C(=O)CCl
InChI: InChI=1S/C14H20ClNO2/c1-4-11-7-6-8-12(5-2)14(11)16(10-18-3)13(17)9-15/h6-8H,4-5,9-10H2,1-3H3
Instrument: Bruker maXis Impact
Instrument type: LC-ESI-QTOF
Ms type: MS2
Ion mode: POSITIVE
Ionization: ESI
Fragmentation mode: CID
Collision energy: 10 eV
Resolution: 35000
Column name: Acclaim RSLC C18 2.2um, 2.1x100mm, Thermo
Retention time: 10.2 min
Base peak: 238.0988
Precursor m/z: 270.1255
Precursor type: [M+H]+
m/z	relative intensity	assigned
162.1262	108	C11H16N+
163.1299	15	C10[13]CH16N+
208.0878	8	C12H15ClN+
224.0826	8	C12H15ClNO+
238.0987	999	C13H17ClNO+
239.1022	131	C12[13]CH17ClNO+
240.0954	280	C13H17[37]ClNO+
241.0977	29	C12[13]CH17[37]ClNO+
270.125	186	C14H21ClNO2+
271.1284	24	C13[13]CH21ClNO2+
272.123	43	C14H21[37]ClNO2+
273.1256	5	C13[13]CH21[37]ClNO2+
