Mass spectrum: Amcinonide; LC-ESI-QTOF; MS2; CE: Ramp 25.7-38.5 eV; R=35000; [M+H]+
Name: Amcinonide
Name: [2-[(1S,2S,4R,8S,9S,11S,12R,13S)-12-fluoro-11-hydroxy-9,13-dimethyl-16-oxospiro[5,7-dioxapentacyclo[10.8.0.02,9.04,8.013,18]icosa-14,17-diene-6,1`-cyclopentane]-8-yl]-2-oxoethyl] acetate
Formula: C28H35FO7
Exact mass: 502.2366817
SMILES: [H][C@@]12C[C@H]3OC4(CCCC4)O[C@@]3(C(=O)COC(C)=O)[C@@]1(C)C[C@H](O)[C@@]1(F)[C@@]2([H])CCC2=CC(=O)C=C[C@]12C
InChI: InChI=1S/C28H35FO7/c1-16(30)34-15-22(33)28-23(35-26(36-28)9-4-5-10-26)13-20-19-7-6-17-12-18(31)8-11-24(17,2)27(19,29)21(32)14-25(20,28)3/h8,11-12,19-21,23,32H,4-7,9-10,13-15H2,1-3H3/t19-,20-,21-,23+,24-,25-,27-,28+/m0/s1
Instrument: Bruker maXis Impact
Instrument type: LC-ESI-QTOF
Ms type: MS2
Ion mode: POSITIVE
Ionization: ESI
Fragmentation mode: CID
Collision energy: Ramp 25.7-38.5 eV
Resolution: 35000
Column name: Acclaim RSLC C18 2.2um, 2.1x100mm, Thermo
Retention time: 11.105 min
Base peak: 102.1284
Precursor m/z: 503.244
Precursor type: [M+H]+
m/z	relative intensity	assigned
85.0642	17	C5H9O+
95.0863	14	C4H12FO+
101.0231	24	C4H5O3+
109.0628	17	C7H9O+
119.0849	20	C9H11+
121.0638	132	C8H9O+
123.0803	32	C8H11O+
125.0593	20	C7H9O2+
131.084	17	C10H11+
133.0635	77	C9H9O+
135.0795	135	C9H11O+
136.0838	17	C8[13]CH11O+
137.0576	70	C8H9O2+
139.0743	33	C8H11O2+
141.053	17	C7H9O3+
143.0843	57	C11H11+
144.0546	15	C10H8O+
145.0632	60	C10H9O+
145.1007	17	C11H13+
147.0796	477	C10H11O+
148.0821	49	C9[13]CH11O+
149.0604	21	C6H10FO3+
151.0737	140	C9H11O2+
152.0796	14	C8[13]CH11O2+
153.0551	21	C8H9O3+
153.0896	52	C9H13O2+
155.0705	40	C8H11O3+
155.0846	25	C12H11+
157.0476	14	C7H9O4+
157.0643	14	C11H9O+
157.1013	15	C12H13+
158.0714	20	C11H10O+
159.0791	195	C11H11O+
160.083	16	C10[13]CH11O+
161.0576	128	C10H9O2+
161.095	161	C11H13O+
162.0967	19	C10[13]CH13O+
163.0733	42	C10H11O2+
165.068	17	C13H9+
167.0704	52	C9H11O3+
167.0822	14	C13H11+
169.0629	37	C12H9O+
171.0794	355	C12H11O+
172.0823	44	C11[13]CH11O+
173.0946	254	C12H13O+
174.0977	29	C11[13]CH13O+
175.0752	25	C11H11O2+
175.1127	15	C9H16FO2+
177.0878	15	C11H13O2+
179.0681	34	C10H11O3+
179.0859	25	C14H11+
181.0823	22	C10H13O3+
183.079	41	C13H11O+
185.0575	20	C12H9O2+
185.0942	204	C13H13O+
186.0986	32	C12[13]CH13O+
187.0742	291	C12H11O2+
187.1102	74	C13H15O+
188.0778	41	C11[13]CH11O2+
189.0719	14	C12H10FO+
189.0903	43	C12H13O2+
191.087	14	C12H12FO+
193.0851	20	C11H13O3+
195.0812	31	C11H12FO2+
195.1177	34	C12H16FO+
196.0851	15	C14H12O+
197.0798	28	C10H13O4+
197.0954	100	C14H13O+
197.1318	67	C15H17+
198.101	35	C14H14O+
199.074	21	C13H11O2+
199.11	98	C14H15O+
200.0808	15	C13H12O2+
201.0903	32	C13H13O2+
201.126	16	C14H17O+
203.1066	20	C13H15O2+
205.0672	57	C12H10FO2+
205.0997	28	C16H13+
207.0814	16	C12H12FO2+
207.1167	34	C16H15+
208.0875	24	C15H12O+
209.0957	105	C15H13O+
210.1019	56	C15H14O+
211.0141	147	C16H3O+
211.0731	24	C14H11O2+
211.1111	180	C15H15O+
212.015	21	C9H5FO5+
212.1164	44	C14[13]CH15O+
213.0142	41	C16H2F+
213.0889	51	C14H13O2+
213.1269	670	C15H17O+
214.0949	14	C13[13]CH13O2+
214.1295	97	C14[13]CH17O+
215.1061	17	C14H15O2+
215.1424	24	C15H19O+
217.1003	14	C17H13+
219.1153	19	C17H15+
220.0848	14	C16H12O+
221.0971	61	C13H14FO2+
221.1335	18	C14H18FO+
222.1006	37	C16H14O+
223.111	399	C16H15O+
224.117	100	C15[13]CH15O+
225.0307	43	C17H5O+
225.0879	27	C15H13O2+
225.1264	466	C16H17O+
226.1293	73	C15[13]CH17O+
227.0276	18	C17H4F+
227.1042	29	C15H15O2+
227.1428	65	C13H20FO2+
228.1476	14	C12[13]CH20FO2+
229.1	14	C18H13+
232.123	19	C18H16+
233.0954	36	C17H13O+
233.1315	34	C18H17+
234.1037	24	C17H14O+
235.111	194	C17H15O+
235.147	27	C18H19+
236.1168	52	C16[13]CH15O+
237.0894	27	C16H13O2+
237.126	290	C17H17O+
238.1311	48	C16[13]CH17O+
239.1063	30	C16H15O2+
239.1422	125	C17H19O+
240.1443	23	C16[13]CH19O+
241.1212	104	C16H17O2+
241.1549	28	C17H21O+
242.1267	23	C15[13]CH17O2+
243.1179	26	C16H16FO+
243.1374	28	C16H19O2+
244.1236	15	C19H16+
245.0968	17	C15H14FO2+
245.132	30	C19H17+
246.1035	25	C18H14O+
247.1086	45	C18H15O+
247.1442	27	C19H19+
248.1167	37	C18H16O+
249.0928	14	C14H14FO3+
249.1263	176	C15H18FO2+
250.1323	42	C14[13]CH18FO2+
251.1054	61	C17H15O2+
251.1423	206	C18H19O+
252.1469	46	C17[13]CH19O+
253.1217	113	C17H17O2+
253.1583	190	C18H21O+
254.1242	41	C17H18O2+
254.1625	29	C17[13]CH21O+
255.1016	14	C16H15O3+
255.1369	53	C17H19O2+
257.1304	31	C20H17+
259.1116	34	C19H15O+
260.1192	84	C19H16O+
261.1267	224	C19H17O+
262.1308	69	C18[13]CH17O+
263.1063	31	C18H15O2+
263.1417	426	C19H19O+
264.1123	21	C18H16O2+
264.1474	86	C18[13]CH19O+
265.1195	32	C18H17O2+
265.1589	304	C19H21O+
266.1597	65	C18[13]CH21O+
267.1368	111	C18H19O2+
267.1692	15	C19H23O+
268.1404	33	C17[13]CH19O2+
269.1181	22	C14H18FO4+
269.1537	83	C18H21O2+
270.1565	24	C17[13]CH21O2+
273.1297	22	C17H18FO2+
275.1418	544	C20H19O+
276.1464	122	C19[13]CH19O+
277.1227	124	C19H17O2+
277.1554	56	C20H21O+
278.1278	56	C19H18O2+
278.1627	14	C19[13]CH21O+
279.0978	23	C18H15O3+
279.1371	305	C19H19O2+
279.1742	18	C20H23O+
280.1426	68	C18[13]CH19O2+
281.1532	268	C19H21O2+
282.1549	49	C18[13]CH21O2+
283.1667	80	C16H24FO3+
284.178	16	C15[13]CH24FO3+
285.1259	60	C21H17O+
286.1336	23	C21H18O+
288.1158	42	C17H17FO3+
291.1391	43	C17H20FO3+
292.1386	18	C13H21FO6+
293.1539	699	C20H21O2+
294.1564	192	C19[13]CH21O2+
295.1333	82	C19H19O3+
295.147	52	C23H19+
295.1605	43	C16H23O5+
296.1362	17	C18[13]CH19O3+
296.158	17	C22[13]CH19+
297.1481	67	C19H21O3+
298.1494	14	C18[13]CH21O3+
299.1416	18	C22H19O+
299.1632	13	C19H23O3+
301.1581	13	C22H21O+
303.1381	328	C21H19O2+
304.142	112	C20[13]CH19O2+
305.15	22	C21H21O2+
309.1483	44	C20H21O3+
311.1645	377	C20H23O3+
312.1672	80	C19[13]CH23O3+
313.1607	69	C20H22FO2+
319.1327	23	C21H19O3+
321.1486	999	C21H21O3+
322.1523	190	C20[13]CH21O3+
323.1546	41	C14H24FO7+
335.1668	23	C19H24FO4+
337.1437	22	C21H21O4+
339.1586	832	C21H23O4+
340.1624	207	C20[13]CH23O4+
341.1559	47	C21H22FO3+
345.1527	17	C20H22FO4+
353.1745	96	C22H25O4+
354.1768	21	C21[13]CH25O4+
357.1704	166	C21H25O5+
358.1732	44	C20[13]CH25O5+
359.1622	36	C24H23O3+
360.1656	19	C24H24O3+
363.1611	74	C23H23O4+
364.1633	26	C22[13]CH23O4+
377.1761	26	C21H26FO5+
381.169	258	C23H25O5+
382.1728	48	C22[13]CH25O5+
383.1723	19	C23H24FO4+
387.1975	14	C23H28FO4+
399.1801	155	C23H27O6+
400.1839	51	C22[13]CH27O6+
423.2169	23	C26H31O5+
449.1497	29	C26H25O7+
465.2289	184	C28H33O6+
466.2296	46	C27[13]CH33O6+
483.2329	16	C28H35O7+
