Mass spectrum: Tepraloxydim; LC-ESI-QTOF; MS2; CE: 40 eV; R=35000; [M+H]+
Name: Tepraloxydim
Name: Tepraloxydim [ISO]
Name: 2-[N-[(E)-3-chloroprop-2-enoxy]-C-ethylcarbonimidoyl]-3-hydroxy-5-(oxan-4-yl)cyclohex-2-en-1-one
Formula: C17H24ClNO4
Exact mass: 341.1393859
SMILES: [H]\C(Cl)=C(\[H])CON=C(CC)C1=C(O)CC(CC1=O)C1CCOCC1
InChI: InChI=1S/C17H24ClNO4/c1-2-14(19-23-7-3-6-18)17-15(20)10-13(11-16(17)21)12-4-8-22-9-5-12/h3,6,12-13,20H,2,4-5,7-11H2,1H3/b6-3+,19-14?
Instrument: Bruker maXis Impact
Instrument type: LC-ESI-QTOF
Ms type: MS2
Ion mode: POSITIVE
Ionization: ESI
Fragmentation mode: CID
Collision energy: 40 eV
Resolution: 35000
Column name: Acclaim RSLC C18 2.2um, 2.1x100mm, Thermo
Retention time: 7.339 min
Base peak: 342.1461
Precursor m/z: 342.1467
Precursor type: [M+H]+
m/z	relative intensity	assigned
115.0536	37	C9H7+
116.0495	7	C8H6N+
116.0618	13	C9H8+
117.0686	31	C3H14ClO2+
118.064	19	C2H13ClNO2+
119.0479	12	C2H12ClO3+
119.0716	9	C2H14ClNO2+
119.0843	37	C3H16ClO2+
120.0434	31	C7H6NO+
120.08	40	C8H10N+
121.0635	177	C2H14ClO3+
121.0997	9	C3H18ClO2+
122.0584	61	CH13ClNO3+
122.0956	12	C8H12N+
123.0423	10	CH12ClO4+
123.0635	12	C4H11O4+
123.08	11	C8H11O+
124.0381	56	C6H6NO2+
124.074	32	CH15ClNO3+
125.0417	6	C5[13]CH6NO2+
125.0781	10	C4H13O4+
126.0553	13	C6H8NO2+
128.0606	44	C4H13ClO2+
129.0682	37	C4H14ClO2+
130.0635	34	C3H13ClNO2+
130.0756	15	C4H15ClO2+
131.0483	16	C9H7O+
131.0717	13	C3H14ClNO2+
131.0848	74	C10H11+
132.0425	17	C2H11ClNO3+
132.0785	45	C3H15ClNO2+
133.0512	7	C8H7NO+
133.0635	44	C6H12ClN+
133.0858	11	C6H13O3+
133.1002	27	C4H18ClO2+
134.0587	54	C2H13ClNO3+
134.0951	32	C3H17ClNO2+
135.0628	7	C6H12[37]ClN+
135.0789	38	C3H16ClO3+
135.098	6	C4H18[37]ClO2+
135.1062	6	C9H13N+
136.0376	104	C7H6NO2+
136.074	263	C2H15ClNO3+
137.0404	9	C6[13]CH6NO2+
137.0582	50	C2H14ClO4+
137.0805	55	C5H13O4+
138.0525	49	CH13ClNO4+
138.0652	15	C2H15ClO4+
138.0899	266	C8H12NO+
139.0618	38	C7H9NO2+
139.0735	24	C2H16ClO4+
139.094	16	C7[13]CH12NO+
140.0695	25	CH15ClNO4+
141.069	26	C11H9+
142.0489	37	C6H8NO3+
142.0638	10	CH15[37]ClNO4+
142.0772	10	C11H10+
143.0715	17	C4H14ClNO2+
143.0836	48	C5H16ClO2+
144.0556	12	C4H13ClO3+
144.0799	27	C10H10N+
145.0629	27	C4H14ClO3+
145.0995	37	C5H18ClO2+
146.058	40	C3H13ClNO3+
146.0944	38	C10H12N+
147.0424	45	C3H12ClO4+
147.0665	24	C3H14ClNO3+
147.0782	45	C7H14ClN+
147.1008	6	C9[13]CH12N+
147.116	12	C11H15+
148.037	52	C2H11ClNO4+
148.074	91	C3H15ClNO3+
148.109	18	C7H16O3+
149.0578	275	C9H9O2+
149.0791	20	C7H14[37]ClN+
149.0949	16	C4H18ClO3+
150.0614	28	C8[13]CH9O2+
150.0897	31	C3H17ClNO3+
151.0308	75	C9H8Cl+
151.0724	8	C3H16ClO4+
152.0333	11	C8[13]CH8Cl+
152.069	34	C2H15ClNO4+
153.0735	18	C2H16ClNO4+
154.0753	17	C6H15ClO2+
155.0554	8	C7H9NO3+
155.0838	13	C6H16ClO2+
156.0784	10	C5H15ClNO2+
157.0624	8	C5H14ClO3+
157.0861	6	C8H13O3+
158.0572	8	C7H10O4+
158.0705	11	C5H15ClO3+
158.0943	44	C11H12N+
159.0785	34	C5H16ClO3+
159.1001	8	C10[13]CH12N+
159.1152	25	C6H20ClO2+
160.047	9	C4H13ClO4+
160.0738	107	C4H15ClNO3+
160.1094	45	C11H14N+
161.0573	37	C7H12ClNO+
161.0806	21	C7H13O4+
161.0936	29	C8H16ClN+
161.1149	9	C10[13]CH14N+
162.0539	49	C9H8NO2+
162.0901	64	C4H17ClNO3+
162.126	11	C5H21ClNO2+
163.061	17	C7H12[37]ClNO+
163.072	14	C4H16ClO4+
163.0943	11	C8H16[37]ClN+
163.1115	13	C11H15O+
164.0688	315	C9H10NO2+
165.0732	28	C8[13]CH10NO2+
165.0851	16	C4H18ClO4+
166.0845	999	C3H17ClNO4+
167.0886	99	C13H11+
168.0882	8	C3H17ClNO3[18]O+
169.0994	9	C7H18ClO2+
170.0942	17	C6H17ClNO2+
171.0813	10	C9H14ClN+
171.1043	10	C12H13N+
172.1118	9	C12H14N+
173.0861	14	C11H11NO+
174.0899	40	C5H17ClNO3+
175.0962	10	C8H15O4+
175.1103	9	C6H20ClO3+
176.0697	39	C10H10NO2+
176.1056	39	C5H19ClNO3+
177.0745	6	C9[13]CH10NO2+
177.089	13	C5H18ClO4+
177.1079	8	C9H18ClO+
177.1262	11	C6H22ClO3+
178.0857	15	C10H12NO2+
178.1232	12	C11H16NO+
180.1006	13	C4H19ClNO4+
180.1369	13	C5H23ClNO3+
181.0871	6	C7H16ClNO2+
184.0723	7	C9H12O4+
186.0898	15	C6H17ClNO3+
187.0754	6	C12H11O2+
187.1096	7	C7H20ClO3+
188.1066	21	C12H14NO+
189.0885	8	C6H18ClO4+
190.0844	15	C5H17ClNO4+
190.1193	13	C9H18O4+
191.0914	8	C5H18ClNO4+
192.1004	11	C5H19ClNO4+
192.1366	11	C6H23ClNO3+
194.1156	15	C5H21ClNO4+
194.1529	6	C12H20NO+
195.1233	6	C5H22ClNO4+
199.1097	6	C8H20ClO3+
202.0877	6	C12H12NO2+
202.1245	6	C13H16NO+
204.0998	15	C6H19ClNO4+
204.1355	36	C10H20O4+
205.122	14	C13H17O2+
206.1149	11	C6H21ClNO4+
208.1334	22	C12H18NO2+
222.1122	10	C12H16NO3+
222.1477	55	C13H20NO2+
223.1539	7	C12[13]CH20NO2+
224.1248	6	C12H18NO3+
232.1347	10	C14H18NO2+
234.1467	87	C8H25ClNO4+
235.1496	12	C7[13]CH25ClNO4+
250.142	59	C14H20NO3+
251.1448	6	C13[13]CH20NO3+
