Mass spectrum: Ethyl 2-Cyano-3,3-diphenylacrylate; GC-APCI-QTOF; MS2; CE: 10 eV; R=35000; [M]+
Name: Ethyl 2-Cyano-3,3-diphenylacrylate
Formula: C18H15NO2
Exact mass: 277.1103
SMILES: CCOC(=O)C(=C(C1=CC=CC=C1)C2=CC=CC=C2)C#N
InChI: InChI=1S/C18H15NO2/c1-2-21-18(20)16(13-19)17(14-9-5-3-6-10-14)15-11-7-4-8-12-15/h3-12H,2H2,1H3
Instrument: Bruker 450 GC coupled to maXis Impact
Instrument type: GC-APCI-QTOF
Ms type: MS2
Ion mode: POSITIVE
Ionization: APCI
Fragmentation mode: CID
Collision energy: 10 eV
Resolution: 35000
Column name: Rxi-5Sil MS column, 30m, 0.25mm i.d., 0.25Âµm film thickness, Restek
Retention time: 20.396 min
Base peak: 277.1075
Precursor m/z: 277.1097
Precursor type: [M]+
m/z	relative intensity	assigned
121.0998	8	C9H13+
165.0715	8	C13H9+
171.0329	8	C10H5NO2+
172.0421	47	C10H6NO2+
173.0439	10	C10H7NO2+
178.0804	60	C14H10+
179.0853	10	C14H11+
200.0718	106	C12H10NO2+
201.0755	10	C12H11NO2+
203.0739	94	C15H9N+
204.0807	636	C15H10N+
205.0869	194	C15H11N+
206.0751	18	C15H10O+
206.095	29	C15H12N+
218.0673	8	C16H10O+
220.0767	7	C15H10NO+
221.0818	8	C15H11NO+
222.0679	17	C15H10O2+
230.0583	12	C16H8NO+
231.0672	179	C16H9NO+
231.1046	11	C17H13N+
232.0745	550	C16H10NO+
232.1156	35	C17H14N+
233.0792	83	C16H11NO+
233.1195	12	C17H15N+
248.0688	587	C16H10NO2+
249.0763	620	C16H11NO2+
250.0843	721	C16H12NO2+
251.0881	94	C16H13NO2+
259.0956	13	C18H13NO+
276.1001	666	C18H14NO2+
277.1071	999	C18H15NO2+
