Mass spectrum: Fludrocortisone acetate; LC-ESI-QTOF; MS2; CE: 40 eV; R=35000; [M+H]+
Name: Fludrocortisone acetate
Name: [2-[(8S,9R,10S,11S,13S,14S,17R)-9-fluoro-11,17-dihydroxy-10,13-dimethyl-3-oxo-1,2,6,7,8,11,12,14,15,16-decahydrocyclopenta[a]phenanthren-17-yl]-2-oxoethyl] acetate
Formula: C23H31FO6
Exact mass: 422.2104669
SMILES: CC(=O)OCC(=O)[C@]1(CC[C@@H]2[C@@]1(C[C@@H]([C@]3([C@H]2CCC4=CC(=O)CC[C@@]43C)F)O)C)O
InChI: InChI=1S/C23H31FO6/c1-13(25)30-12-19(28)22(29)9-7-16-17-5-4-14-10-15(26)6-8-20(14,2)23(17,24)18(27)11-21(16,22)3/h10,16-18,27,29H,4-9,11-12H2,1-3H3/t16-,17-,18-,20-,21-,22-,23-/m0/s1
Instrument: Bruker maXis Impact
Instrument type: LC-ESI-QTOF
Ms type: MS2
Ion mode: POSITIVE
Ionization: ESI
Fragmentation mode: CID
Collision energy: 40 eV
Resolution: 35000
Column name: Acclaim RSLC C18 2.2um, 2.1x100mm, Thermo
Retention time: 8.642 min
Base peak: 347.2241
Precursor m/z: 423.2177
Precursor type: [M+H]+
m/z	relative intensity	assigned
115.0556	47	C6H8FO+
119.0864	120	C6H12FO+
121.0654	270	C5H10FO2+
123.0815	154	C5H12FO2+
128.0651	78	C7H9FO+
129.07	90	C10H9+
131.0866	239	C7H12FO+
132.0912	45	C10H12+
133.0652	73	C9H9O+
133.1005	217	C10H13+
135.081	323	C9H11O+
137.0968	100	C6H14FO2+
141.071	90	C8H10FO+
142.0777	77	C11H10+
143.086	408	C11H11+
145.0662	94	C7H10FO2+
145.1017	229	C11H13+
147.0808	284	C10H11O+
147.1183	52	C8H16FO+
149.0982	105	C7H14FO2+
151.075	46	C9H11O2+
153.0701	44	C12H9+
153.0915	50	C9H13O2+
155.0861	221	C12H11+
156.0909	50	C12H12+
157.0665	59	C8H10FO2+
157.1024	310	C9H14FO+
159.0811	207	C8H12FO2+
159.1179	173	C9H16FO+
161.0965	503	C11H13O+
162.1009	50	C11H14O+
163.0773	102	C7H12FO3+
163.0929	47	C11H12F+
163.1129	316	C8H16FO2+
167.0862	60	C10H12FO+
169.1018	226	C10H14FO+
170.1072	66	C13H14+
171.0819	172	C9H12FO2+
171.1183	153	C10H16FO+
172.0871	49	C12H12O+
173.0969	308	C9H14FO2+
175.1131	120	C9H16FO2+
176.1163	62	C12H16O+
179.0864	72	C11H12FO+
180.0938	47	C14H12+
181.1027	999	C11H14FO+
182.1072	157	C14H14+
183.0817	102	C10H12FO2+
183.1174	311	C11H16FO+
184.0867	48	C13H12O+
184.1221	57	C14H16+
185.0972	254	C10H14FO2+
185.1333	174	C11H18FO+
186.103	55	C13H14O+
187.113	208	C10H16FO2+
188.1177	88	C13H16O+
189.0923	361	C9H14FO3+
189.1283	69	C10H18FO2+
190.0948	47	C12H14O2+
191.1078	61	C9H16FO3+
193.1037	89	C12H14FO+
195.1181	270	C12H16FO+
196.1259	52	C12H17FO+
197.0962	99	C14H13O+
197.1337	387	C12H18FO+
198.1384	83	C15H18+
199.1145	239	C11H16FO2+
199.1495	113	C12H20FO+
200.1193	83	C14H16O+
201.0914	90	C13H13O2+
201.1276	97	C14H17O+
203.1082	102	C10H16FO3+
205.1027	60	C13H14FO+
206.1077	90	C16H14+
207.1181	171	C13H16FO+
208.1221	54	C16H16+
209.0977	102	C12H14FO2+
209.1343	164	C13H18FO+
210.0996	45	C15H14O+
210.1394	47	C16H18+
211.113	227	C12H16FO2+
211.1482	161	C16H19+
213.1292	243	C12H18FO2+
214.131	55	C15H18O+
215.1451	72	C12H20FO2+
217.1237	92	C11H18FO3+
219.1174	94	C14H16FO+
220.125	56	C17H16+
221.1354	270	C14H18FO+
222.1383	109	C17H18+
223.1129	159	C13H16FO2+
223.1478	253	C17H19+
224.1188	70	C16H16O+
224.1547	63	C17H20+
225.1293	171	C13H18FO2+
225.1662	156	C14H22FO+
226.1322	54	C16H18O+
227.1439	136	C13H20FO2+
229.123	80	C12H18FO3+
234.1447	55	C11H22O5+
235.1494	120	C15H20FO+
237.1289	172	C14H18FO2+
237.1649	158	C15H22FO+
238.1699	65	C18H22+
239.1443	710	C14H20FO2+
240.1487	233	C17H20O+
241.123	113	C13H18FO3+
241.1606	241	C14H22FO2+
242.1666	59	C17H22O+
243.1389	123	C13H20FO3+
245.1357	75	C16H18FO+
247.1498	248	C16H20FO+
248.1522	66	C19H20+
249.1286	126	C15H18FO2+
249.165	79	C16H22FO+
250.1351	53	C18H18O+
251.1431	127	C18H19O+
252.1534	60	C15H21FO2+
253.1594	76	C15H22FO2+
255.1395	138	C14H20FO3+
255.1775	61	C15H24FO2+
257.1566	189	C14H22FO3+
258.1652	103	C14H23FO3+
259.1499	63	C17H20FO+
259.1688	55	C17H23O2+
261.1314	45	C12H21O6+
261.1648	83	C17H22FO+
262.167	46	C20H22+
263.153	59	C12H23O6+
264.151	72	C19H20O+
265.1615	444	C16H22FO2+
266.1665	195	C19H22O+
267.1377	84	C18H19O2+
267.1745	298	C19H23O+
268.1779	82	C19H24O+
269.1562	93	C15H22FO3+
271.1481	56	C21H19+
277.1644	52	C13H25O6+
279.1351	44	C19H19O2+
279.1759	290	C17H24FO2+
280.1832	55	C17H25FO2+
281.1571	60	C16H22FO3+
283.1714	222	C16H24FO3+
284.1786	224	C16H25FO3+
285.1841	142	C19H25O2+
289.16	180	C18H22FO2+
290.1631	47	C21H22O+
294.1666	44	C17H23FO3+
295.1712	98	C17H24FO3+
297.1873	120	C17H26FO3+
299.1656	109	C16H24FO4+
300.1735	51	C16H25FO4+
301.1803	64	C19H25O3+
304.1807	48	C22H24O+
307.1712	271	C18H24FO3+
308.1758	74	C21H24O2+
313.1828	47	C17H26FO4+
325.1829	374	C18H26FO4+
326.184	128	C21H26O3+
343.1926	357	C18H28FO5+
344.1968	98	C21H28O4+
423.222	141	C23H32FO6+
