Mass spectrum: Flucytosine (5-FC); LC-ESI-QTOF; MS2; CE: 30 eV; R=35000; [M+H]+
Name: Flucytosine (5-FC)
Name: 5-Fluorocytosine
Name: 6-amino-5-fluoro-1H-pyrimidin-2-one
Formula: C4H4FN3O
Exact mass: 129.0338400
SMILES: FC=1\C=N/C(=O)NC=1N
InChI: InChI=1S/C4H4FN3O/c5-2-1-7-4(9)8-3(2)6/h1H,(H3,6,7,8,9)
Instrument: Bruker maXis Impact
Instrument type: LC-ESI-QTOF
Ms type: MS2
Ion mode: POSITIVE
Ionization: ESI
Fragmentation mode: CID
Collision energy: 30 eV
Resolution: 35000
Column name: Acclaim RSLC C18 2.2um, 2.1x100mm, Thermo
Retention time: 1.583 min
Base peak: 130.0413
Precursor m/z: 130.0411
Precursor type: [M+H]+
m/z	relative intensity	assigned
113.0153	999	C4H2FN2O+
130.0416	820	C4H5FN3O+
