Mass spectrum: Propylthiouracil; LC-ESI-QTOF; MS2; CE: 20 eV; R=35000; [M+H]+
Name: Propylthiouracil
Name: propylthiouracil
Name: 6-propyl-2-sulfanylidene-1H-pyrimidin-4-one
Formula: C7H10N2OS
Exact mass: 170.0513839
SMILES: CCCc1cc(nc(n1)S)O
InChI: InChI=1S/C7H10N2OS/c1-2-3-5-4-6(10)9-7(11)8-5/h4H,2-3H2,1H3,(H2,8,9,10,11)
Instrument: Bruker maXis Impact
Instrument type: LC-ESI-QTOF
Ms type: MS2
Ion mode: POSITIVE
Ionization: ESI
Fragmentation mode: CID
Collision energy: 20 eV
Resolution: 35000
Column name: Acclaim RSLC C18 2.2um, 2.1x100mm, Thermo
Retention time: 4.468 min
Base peak: 432.2852
Precursor m/z: 171.0587
Precursor type: [M+H]+
m/z	relative intensity	assigned
112.0758	47	C6H10NO+
129.0392	48	C6H9OS+
154.0334	746	C7H8NOS+
155.0368	44	C6[13]CH8NOS+
171.0602	999	C7H11N2OS+
172.0642	83	C6[13]CH11N2OS+
