Mass spectrum: Harman; LC-ESI-QTOF; MS2; CE: 10 eV; R=35000; [M+H]+
Name: Harman
Name: 1-methyl-9H-pyrido[3,4-b]indole
Formula: C12H10N2
Exact mass: 182.0843983
SMILES: CC1=NC=CC2=C1NC1=C2C=CC=C1
InChI: InChI=1S/C12H10N2/c1-8-12-10(6-7-13-8)9-4-2-3-5-11(9)14-12/h2-7,14H,1H3
Instrument: Bruker maXis Impact
Instrument type: LC-ESI-QTOF
Ms type: MS2
Ion mode: POSITIVE
Ionization: ESI
Fragmentation mode: CID
Collision energy: 10 eV
Resolution: 35000
Column name: Acclaim RSLC C18 2.2um, 2.1x100mm, Thermo
Retention time: 4.735 min
Base peak: 183.091
Precursor m/z: 183.0917
Precursor type: [M+H]+
m/z	relative intensity	assigned
183.0917	999	C12H11N2+
184.0943	168	C11[13]CH11N2+
185.0969	7	C10[13]C2H11N2+
