Mass spectrum: Acebutolol; LC-ESI-QTOF; MS2; CE: 20 eV; R=35000; [M-H]-
Name: Acebutolol
Name: N-[3-acetyl-4-[2-hydroxy-3-(propan-2-ylamino)propoxy]phenyl]butanamide
Formula: C18H28N2O4
Exact mass: 336.2049074
SMILES: CCCC(=O)Nc1ccc(c(c1)C(=O)C)OCC(CNC(C)C)O
InChI: InChI=1S/C18H28N2O4/c1-5-6-18(23)20-14-7-8-17(16(9-14)13(4)21)24-11-15(22)10-19-12(2)3/h7-9,12,15,19,22H,5-6,10-11H2,1-4H3,(H,20,23)
Instrument: Bruker maXis Impact
Instrument type: LC-ESI-QTOF
Ms type: MS2
Ion mode: NEGATIVE
Ionization: ESI
Fragmentation mode: CID
Collision energy: 20 eV
Resolution: 35000
Column name: Acclaim RSLC C18 2.2um, 2.1x100mm, Thermo
Retention time: 4.997 min
Base peak: 335.1967
Precursor m/z: 335.1976
Precursor type: [M-H]-
m/z	relative intensity	assigned
176.0361	295	C9H6NO3-
219.0905	999	C15H11N2-
220.0948	169	C14[13]CH11N2-
335.1974	198	C18H27N2O4-
