Mass spectrum: Mycophenolic acid; LC-ESI-QTOF; MS2; CE: 30 eV; R=35000; [M+H]+
Name: Mycophenolic acid
Name: (E)-6-(4-hydroxy-6-methoxy-7-methyl-3-oxo-1H-2-benzofuran-5-yl)-4-methylhex-4-enoic acid
Formula: C17H20O6
Exact mass: 320.1259884
SMILES: COC1=C(C)C2=C(C(=O)OC2)C(O)=C1C\C=C(/C)CCC(O)=O
InChI: InChI=1S/C17H20O6/c1-9(5-7-13(18)19)4-6-11-15(20)14-12(8-23-17(14)21)10(2)16(11)22-3/h4,20H,5-8H2,1-3H3,(H,18,19)/b9-4+
Instrument: Bruker maXis Impact
Instrument type: LC-ESI-QTOF
Ms type: MS2
Ion mode: POSITIVE
Ionization: ESI
Fragmentation mode: CID
Collision energy: 30 eV
Resolution: 35000
Column name: Acclaim RSLC C18 2.2um, 2.1x100mm, Thermo
Retention time: 8.819 min
Base peak: 306.081
Precursor m/z: 321.1333
Precursor type: [M+H]+
m/z	relative intensity	assigned
131.047	12	C9H7O+
135.0802	7	C9H11O+
159.0424	172	C10H7O2+
160.0451	11	C9[13]CH7O2+
175.0768	11	C11H11O2+
177.0536	147	C10H9O3+
178.0559	24	C9[13]CH9O3+
179.0688	13	C10H11O3+
195.0643	55	C10H11O4+
196.0675	7	C9[13]CH11O4+
207.0643	999	C11H11O4+
208.0676	149	C10[13]CH11O4+
215.1034	9	C14H15O2+
216.1176	6	C14H16O2+
219.0621	11	C12H11O4+
233.1055	6	C10H17O6+
259.0989	6	C15H15O4+
261.1107	7	C15H17O4+
270.0881	10	C16H14O4+
275.1273	16	C16H19O4+
285.1128	23	C17H17O4+
286.1147	9	C17H18O4+
321.1407	18	C17H21O6+
