Mass spectrum: Labetalol; LC-ESI-QTOF; MS2; CE: Ramp 22.2-33.3 eV; R=35000; [M+H]+
Name: Labetalol
Name: 2-hydroxy-5-[1-hydroxy-2-(4-phenylbutan-2-ylamino)ethyl]benzamide
Formula: C19H24N2O3
Exact mass: 328.1786926
SMILES: CC(CCC1=CC=CC=C1)NCC(O)C1=CC(C(N)=O)=C(O)C=C1
InChI: InChI=1S/C19H24N2O3/c1-13(7-8-14-5-3-2-4-6-14)21-12-18(23)15-9-10-17(22)16(11-15)19(20)24/h2-6,9-11,13,18,21-23H,7-8,12H2,1H3,(H2,20,24)
Instrument: Bruker maXis Impact
Instrument type: LC-ESI-QTOF
Ms type: MS2
Ion mode: POSITIVE
Ionization: ESI
Fragmentation mode: CID
Collision energy: Ramp 22.2-33.3 eV
Resolution: 35000
Column name: Acclaim RSLC C18 2.2um, 2.1x100mm, Thermo
Retention time: 5.612 min
Base peak: 411.219
Precursor m/z: 329.186
Precursor type: [M+H]+
m/z	relative intensity	assigned
91.0546	151	C7H7+
92.0577	14	C6[13]CH7+
133.1006	9	C10H13+
134.0591	34	C8H8NO+
135.043	8	C8H7O2+
136.0741	7	C8H10NO+
144.0435	9	C9H6NO+
147.0426	19	C9H7O2+
162.054	999	C9H8NO2+
163.057	99	C8[13]CH8NO2+
164.0692	85	C9H10NO2+
165.0534	45	C9H9O3+
165.0729	8	C8[13]CH10NO2+
166.0578	5	C8[13]CH9O3+
179.0805	213	C9H11N2O2+
180.0644	127	C9H10NO3+
180.0839	15	C8[13]CH11N2O2+
181.0665	8	C8[13]CH10NO3+
190.085	82	C11H12NO2+
191.088	13	C10[13]CH12NO2+
194.0801	6	C10H12NO3+
207.1118	215	C11H15N2O2+
208.0962	20	C11H14NO3+
208.1147	22	C10[13]CH15N2O2+
258.0136	5	C16H4NO3+
294.1482	251	C19H20NO2+
295.1516	48	C18[13]CH20NO2+
296.1551	8	C17[13]C2H20NO2+
311.1751	503	C19H23N2O2+
312.16	213	C19H22NO3+
312.1749	74	C18[13]CH23N2O2+
313.1626	34	C18[13]CH22NO3+
329.1851	13	C19H25N2O3+
