Mass spectrum: 4-Isopropylantipyrine; LC-ESI-QTOF; MS2; CE: 10 eV; R=35000; [M+H]+
Name: 4-Isopropylantipyrine
Name: Propyphenazone
Name: 1,5-dimethyl-2-phenyl-4-propan-2-ylpyrazol-3-one
Formula: C14H18N2O
Exact mass: 230.1419132
SMILES: Cc1c(c(=O)n(n1C)c2ccccc2)C(C)C
InChI: InChI=1S/C14H18N2O/c1-10(2)13-11(3)15(4)16(14(13)17)12-8-6-5-7-9-12/h5-10H,1-4H3
Instrument: Bruker maXis Impact
Instrument type: LC-ESI-QTOF
Ms type: MS2
Ion mode: POSITIVE
Ionization: ESI
Fragmentation mode: CID
Collision energy: 10 eV
Resolution: 35000
Column name: Acclaim RSLC C18 2.2um, 2.1x100mm, Thermo
Retention time: 7.470 min
Base peak: 231.1493
Precursor m/z: 231.1492
Precursor type: [M+H]+
m/z	relative intensity	assigned
189.1008	5	C11H13N2O+
231.1499	999	C14H19N2O+
