Mass spectrum: Prothioconazole-desthio; LC-ESI-QTOF; MS2; CE: 10 eV; R=35000; [M+H]+
Name: Prothioconazole-desthio
Name: 2-(1-Chlorocyclopropyl)-1-(2-chlorophenyl)-3-(1H-1,2,4-triazol-1-yl)propan-2-ol
Name: 2-(1-chlorocyclopropyl)-1-(2-chlorophenyl)-3-(1,2,4-triazol-1-yl)propan-2-ol
Formula: C14H15Cl2N3O
Exact mass: 311.0592175
SMILES: OC(CN1C=NC=N1)(CC1=CC=CC=C1Cl)C1(Cl)CC1
InChI: InChI=1S/C14H15Cl2N3O/c15-12-4-2-1-3-11(12)7-14(20,13(16)5-6-13)8-19-10-17-9-18-19/h1-4,9-10,20H,5-8H2
Instrument: Bruker maXis Impact
Instrument type: LC-ESI-QTOF
Ms type: MS2
Ion mode: POSITIVE
Ionization: ESI
Fragmentation mode: CID
Collision energy: 10 eV
Resolution: 35000
Column name: Acclaim RSLC C18 2.2um, 2.1x100mm, Thermo
Retention time: 10.495 min
Base peak: 316.1079
Precursor m/z: 312.0665
Precursor type: [M+H]+
m/z	relative intensity	assigned
312.066	999	C14H16Cl2N3O+
313.0692	124	C13[13]CH16Cl2N3O+
314.0632	499	C14H16Cl[37]ClN3O+
