Mass spectrum: Chloroxuron; LC-ESI-QTOF; MS2; CE: 50 eV; R=35000; [M+H]+
Name: Chloroxuron
Name: 3-[4-(4-chlorophenoxy)phenyl]-1,1-dimethylurea
Formula: C15H15ClN2O2
Exact mass: 290.0822054
SMILES: CN(C)C(=O)NC1=CC=C(OC2=CC=C(Cl)C=C2)C=C1
InChI: InChI=1S/C15H15ClN2O2/c1-18(2)15(19)17-12-5-9-14(10-6-12)20-13-7-3-11(16)4-8-13/h3-10H,1-2H3,(H,17,19)
Instrument: Bruker maXis Impact
Instrument type: LC-ESI-QTOF
Ms type: MS2
Ion mode: POSITIVE
Ionization: ESI
Fragmentation mode: CID
Collision energy: 50 eV
Resolution: 35000
Column name: Acclaim RSLC C18 2.2um, 2.1x100mm, Thermo
Retention time: 10.024 min
Base peak: 291.0895
Precursor m/z: 291.0895
Precursor type: [M+H]+
m/z	relative intensity	assigned
110.999	35	C6H4Cl+
115.0535	19	C9H7+
118.0642	119	C8H8N+
119.036	8	C7H5NO+
119.068	14	C7[13]CH8N+
120.0791	20	C2H15ClNO2+
126.0441	21	C4H11ClO2+
126.9931	16	C6H4ClO+
127.0531	184	C4H12ClO2+
128.061	999	C10H8+
129.0102	8	C6H6ClO+
129.0645	128	C9[13]CH8+
130.0663	14	C9H8N+
131.0487	7	C9H7O+
132.043	33	C8H6NO+
139.004	14	C9HNO+
139.0531	80	C5H12ClO2+
140.0595	47	C5H13ClO2+
145.0633	261	C10H9O+
146.0668	36	C9[13]CH9O+
149.0138	116	C9H6Cl+
150.0205	19	C10H2N2+
151.0112	31	C9H6[37]Cl+
151.9997	33	C9N2O+
153.0543	16	C5H12ClNO2+
154.0635	284	C5H13ClNO2+
155.0587	428	C4H12ClN2O2+
155.07	274	C5H14ClNO2+
156.0598	59	C5H13[37]ClNO2+
162.0206	18	C11H2N2+
163.0292	739	C10H8Cl+
164.032	80	C9[13]CH8Cl+
165.0265	159	C10H8[37]Cl+
166.0292	15	C8H7ClN2+
168.0552	182	C12H8O+
169.0597	21	C11[13]CH8O+
170.0596	8	C11H8NO+
173.0141	12	C12HN2+
175.0297	38	C11H8Cl+
176.0304	7	C10[13]CH8Cl+
177.0262	17	C11H8[37]Cl+
178.0186	11	C10H7ClO+
182.0585	74	C12H8NO+
183.0659	213	C12H9NO+
184.0694	28	C11[13]CH9NO+
189.0202	8	C13H3NO+
190.0403	169	C11H9ClN+
191.0248	39	C11H8ClO+
191.0421	29	C10[13]CH9ClN+
192.0375	55	C11H9[37]ClN+
193.0214	12	C11H8[37]ClO+
211.0615	7	C13H9NO2+
217.028	8	C15H5O2+
218.0359	333	C12H9ClNO+
219.039	57	C11[13]CH9ClNO+
220.032	123	C12H9[37]ClNO+
221.0364	11	C12H10ClO2+
258.0543	7	C14H11ClN2O+
