Mass spectrum: Tris(2-chloroethyl)phosphate; LC-ESI-QTOF; MS2; CE: 20 eV; R=35000; [M+H]+
Name: Tris(2-chloroethyl)phosphate
Name: tris(2-chloroethyl) phosphate
Formula: C6H12Cl3O4P
Exact mass: 283.9538785
SMILES: ClCCOP(=O)(OCCCl)OCCCl
InChI: InChI=1S/C6H12Cl3O4P/c7-1-4-11-14(10,12-5-2-8)13-6-3-9/h1-6H2
Instrument: Bruker maXis Impact
Instrument type: LC-ESI-QTOF
Ms type: MS2
Ion mode: POSITIVE
Ionization: ESI
Fragmentation mode: CID
Collision energy: 20 eV
Resolution: 35000
Column name: Acclaim RSLC C18 2.2um, 2.1x100mm, Thermo
Retention time: 7.141 min
Base peak: 284.9609
Precursor m/z: 284.9612
Precursor type: [M+H]+
m/z	relative intensity	assigned
124.999	307	C2H6O4P+
160.9761	999	C2H7ClO4P+
162.9737	174	C2H7[37]ClO4P+
186.9927	91	C5H9Cl2O3+
222.9684	565	C4H10Cl2O4P+
223.9709	48	C5H12Cl3OP+
224.9644	252	C4H10Cl[37]ClO4P+
284.9603	147	C6H13Cl3O4P+
286.9568	106	C6H13Cl2[37]ClO4P+
