Mass spectrum: Ethyl azinphos; LC-ESI-QTOF; MS2; CE: 20 eV; R=35000; [M+H]+
Name: Ethyl azinphos
Name: Azinphos-ethyl
Name: 3-(diethoxyphosphinothioylsulfanylmethyl)-1,2,3-benzotriazin-4-one
Formula: C12H16N3O3PS2
Exact mass: 345.0370700
SMILES: CCOP(=S)(OCC)SCN1N=NC2=CC=CC=C2C1=O
InChI: InChI=1S/C12H16N3O3PS2/c1-3-17-19(20,18-4-2)21-9-15-12(16)10-7-5-6-8-11(10)13-14-15/h5-8H,3-4,9H2,1-2H3
Instrument: Bruker maXis Impact
Instrument type: LC-ESI-QTOF
Ms type: MS2
Ion mode: POSITIVE
Ionization: ESI
Fragmentation mode: CID
Collision energy: 20 eV
Resolution: 35000
Column name: Acclaim RSLC C18 2.2um, 2.1x100mm, Thermo
Retention time: 10.266 min
Base peak: 346.0442
Precursor m/z: 346.0443
Precursor type: [M+H]+
m/z	relative intensity	assigned
124.9811	13	H4N3OPS+
132.0436	999	C8H6NO+
133.0466	73	C7[13]CH6NO+
137.0044	56	C7H5OS+
138.0084	5	C6[13]CH5OS+
142.9373	56	CH4O2PS2+
148.0203	8	H10N3O2S2+
150.0539	43	C2H17NPS2+
153.0119	19	C2H8N3OPS+
160.0495	101	C4H17PS2+
161.0536	6	C3[13]CH17PS2+
166.03	7	C7H7N2OP+
170.9687	24	CH6N3OPS2+
171.0226	11	C2H10N3O2PS+
216.9709	6	C5H4N3O3PS+
232.9485	117	C9HN2O2S2+
233.9513	10	C8[13]CHN2O2S2+
234.9454	10	C9HN2O2S[34]S+
247.0129	5	C8H12N2OPS2+
260.9796	30	C10H4N3O2PS+
261.9789	5	C9[13]CH4N3O2PS+
263.0072	8	C8H12N2O2PS2+
288.028	19	C11H15NO2PS2+
