Mass spectrum: Tiamulin; LC-ESI-QTOF; MS2; CE: 30 eV; R=35000; [M+H]+
Name: Tiamulin
Formula: C28H47NO4S
Exact mass: 493.3225800
SMILES: CCN(CC)CCSCC(=O)O[C@@H]1C[C@@]([C@H]([C@@H]([C@@]23CC[C@H]([C@@]1([C@@H]2C(=O)CC3)C)C)C)O)(C)C=C
InChI: InChI=1S/C28H47NO4S/c1-8-26(6)17-22(33-23(31)18-34-16-15-29(9-2)10-3)27(7)19(4)11-13-28(20(5)25(26)32)14-12-21(30)24(27)28/h8,19-20,22,24-25,32H,1,9-18H2,2-7H3/t19-,20+,22-,24+,25+,26-,27+,28+/m1/s1
Instrument: Bruker maXis Impact
Instrument type: LC-ESI-QTOF
Ms type: MS2
Ion mode: POSITIVE
Ionization: ESI
Fragmentation mode: CID
Collision energy: 30 eV
Resolution: 35000
Column name: Acclaim RSLC C18 2.2um, 2.1x100mm, Thermo
Retention time: 7.863 min
Base peak: 494.334
Precursor m/z: 494.3299
Precursor type: [M+H]+
m/z	relative intensity	assigned
119.0166	18	C4H7O2S+
133.1019	7	C10H13+
147.1177	6	C11H15+
149.0969	7	C10H13O+
159.1175	5	C12H15+
161.1331	5	C12H17+
163.1127	28	C11H15O+
173.1331	7	C13H17+
175.1129	6	C12H15O+
175.1489	7	C13H19+
177.1283	10	C12H17O+
187.1489	6	C14H19+
192.1069	999	C8H18NO2S+
193.1099	65	C7[13]CH18NO2S+
194.1028	22	C8H18NO2[34]S+
203.1443	7	C14H19O+
211.1492	5	C16H19+
221.1552	9	C14H21O2+
227.1809	7	C17H23+
229.1966	6	C17H25+
245.1925	20	C14H29OS+
257.2281	7	C19H29+
267.2126	15	C17H31S+
285.2236	27	C17H33OS+
286.2267	6	C16[13]CH33OS+
303.2338	13	C17H35O2S+
494.334	11	C28H48NO4S+
