Mass spectrum: Benzyldimethyltetradecylammonium; LC-ESI-QTOF; MS2; CE: 50 eV; R=35000; [M+H]+
Name: Benzyldimethyltetradecylammonium
Name: benzyl-dimethyl-tetradecylazanium
Formula: [C23H42N]+
Exact mass: 332.3317253
SMILES: CCCCCCCCCCCCCC[N+](C)(C)CC1=CC=CC=C1
InChI: InChI=1S/C23H42N/c1-4-5-6-7-8-9-10-11-12-13-14-18-21-24(2,3)22-23-19-16-15-17-20-23/h15-17,19-20H,4-14,18,21-22H2,1-3H3/q+1
Instrument: Bruker maXis Impact
Instrument type: LC-ESI-QTOF
Ms type: MS2
Ion mode: POSITIVE
Ionization: ESI
Fragmentation mode: CID
Collision energy: 50 eV
Resolution: 35000
Column name: Acclaim RSLC C18 2.2um, 2.1x100mm, Thermo
Retention time: 12.216 min
Base peak: 332.3311
Precursor m/z: 333.339
Precursor type: [M+H]+
m/z	relative intensity	assigned
240.268	999	C16H34N+
241.2712	196	C15[13]CH34N+
