Mass spectrum: 3-Aminoacetophenon; LC-ESI-QTOF; MS2; CE: 30 eV; R=35000; [M+H]+
Name: 3-Aminoacetophenon
Name: 3-Aminoacetophenone
Name: 1-(3-aminophenyl)ethanone
Formula: C8H9NO
Exact mass: 135.0684139
SMILES: CC(=O)C1=CC(N)=CC=C1
InChI: InChI=1S/C8H9NO/c1-6(10)7-3-2-4-8(9)5-7/h2-5H,9H2,1H3
Instrument: Bruker maXis Impact
Instrument type: LC-ESI-QTOF
Ms type: MS2
Ion mode: POSITIVE
Ionization: ESI
Fragmentation mode: CID
Collision energy: 30 eV
Resolution: 35000
Column name: Acclaim RSLC C18 2.2um, 2.1x100mm, Thermo
Retention time: 4.417 min
Base peak: 136.0747
Precursor m/z: 136.0757
Precursor type: [M+H]+
m/z	relative intensity	assigned
136.0758	999	C8H10NO+
