Mass spectrum: Pantoprazole; LC-ESI-QTOF; MS2; CE: 20 eV; R=35000; [M+H]+
Name: Pantoprazole
Name: 6-(difluoromethoxy)-2-[(3,4-dimethoxypyridin-2-yl)methylsulfinyl]-1H-benzimidazole
Formula: C16H15F2N3O4S
Exact mass: 383.0751334
SMILES: COc1ccnc(c1OC)CS(=O)c2[nH]c3ccc(cc3n2)OC(F)F
InChI: InChI=1S/C16H15F2N3O4S/c1-23-13-5-6-19-12(14(13)24-2)8-26(22)16-20-10-4-3-9(25-15(17)18)7-11(10)21-16/h3-7,15H,8H2,1-2H3,(H,20,21)
Instrument: Bruker maXis Impact
Instrument type: LC-ESI-QTOF
Ms type: MS2
Ion mode: POSITIVE
Ionization: ESI
Fragmentation mode: CID
Collision energy: 20 eV
Resolution: 35000
Column name: Acclaim RSLC C18 2.2um, 2.1x100mm, Thermo
Retention time: 7.411 min
Base peak: 384.083
Precursor m/z: 384.0824
Precursor type: [M+H]+
m/z	relative intensity	assigned
136.0383	18	C7H6NO2+
138.0541	802	C7H8NO2+
139.0574	54	C6[13]CH8NO2+
152.0694	23	H14N3O4S+
153.0775	752	C8H11NO2+
154.0485	11	C5H10F2NS+
154.0807	46	C7[13]CH11NO2+
168.0643	29	C6H12F2NS+
170.0801	33	C6H14F2NS+
185.051	19	C11H6FN2+
200.037	999	C8H10NO3S+
201.0398	92	C7[13]CH10NO3S+
202.0334	31	C8H10NO3[34]S+
215.0074	8	C11H4FN2S+
366.0711	10	C16H14F2N3O3S+
384.0819	14	C16H16F2N3O4S+
