Mass spectrum: Chloridazon; LC-ESI-QTOF; MS2; CE: 30 eV; R=35000; [M+H]+
Name: Chloridazon
Name: 5-amino-4-chloro-2-phenylpyridazin-3-one
Formula: C10H8ClN3O
Exact mass: 221.0355896
SMILES: NC1=C(Cl)C(=O)N(N=C1)C1=CC=CC=C1
InChI: InChI=1S/C10H8ClN3O/c11-9-8(12)6-13-14(10(9)15)7-4-2-1-3-5-7/h1-6H,12H2
Instrument: Bruker maXis Impact
Instrument type: LC-ESI-QTOF
Ms type: MS2
Ion mode: POSITIVE
Ionization: ESI
Fragmentation mode: CID
Collision energy: 30 eV
Resolution: 35000
Column name: Acclaim RSLC C18 2.2um, 2.1x100mm, Thermo
Retention time: 5.304 min
Base peak: 222.0424
Precursor m/z: 222.0429
Precursor type: [M+H]+
m/z	relative intensity	assigned
119.0594	13	C7H7N2+
128.9841	114	C4H2ClN2O+
129.9876	6	C3[13]CH2ClN2O+
130.064	34	C9H8N+
130.9813	38	C4H2[37]ClN2O+
131.0597	23	C8H7N2+
132.0436	22	C8H6NO+
132.0665	6	C8H8N2+
140.0253	5	C10H4O+
141.0436	5	C9H5N2+
141.0557	6	C10H7N+
142.0516	12	C9H6N2+
143.0583	6	C9H7N2+
146.0105	168	C4H5ClN3O+
147.0136	7	C3[13]CH5ClN3O+
148.0076	45	C4H5[37]ClN3O+
149.0139	24	C9H6Cl+
150.0093	30	C8H5ClN+
151.0118	10	C9H6[37]Cl+
152.0067	8	C8H5[37]ClN+
158.0591	12	C10H8NO+
158.0675	10	C9H8N3+
159.0541	28	C9H7N2O+
159.0768	9	C9H9N3+
160.0613	10	C9H8N2O+
169.0383	7	C10H5N2O+
177.0203	10	C9H6ClN2+
178.0043	9	C10N3O+
186.065	48	C10H8N3O+
187.071	8	C9[13]CH8N3O+
193.0277	83	C10H8ClNO+
194.0319	11	C9[13]CH8ClNO+
195.0266	31	C10H8[37]ClNO+
205.0163	20	C10H6ClN2O+
207.0123	7	C10H6[37]ClN2O+
222.0423	999	C10H9ClN3O+
223.0452	101	C9[13]CH9ClN3O+
224.0394	267	C10H9[37]ClN3O+
