Mass spectrum: Vinyltriethoxysilane; GC-APCI-QTOF; MS2; CE: 10 eV; R=35000; [M+H]+
Name: Vinyltriethoxysilane
Formula: C8H18O3Si
Exact mass: 190.1025
SMILES: CCO[Si](C=C)(OCC)OCC
InChI: InChI=1S/C8H18O3Si/c1-5-9-12(8-4,10-6-2)11-7-3/h8H,4-7H2,1-3H3
Instrument: Bruker 450 GC coupled to maXis Impact
Instrument type: GC-APCI-QTOF
Ms type: MS2
Ion mode: POSITIVE
Ionization: APCI
Fragmentation mode: CID
Collision energy: 10 eV
Resolution: 35000
Column name: Rxi-5Sil MS column, 30m, 0.25mm i.d., 0.25Âµm film thickness, Restek
Retention time: 6.814 min
Base peak: 163.081
Precursor m/z: 191.1098
Precursor type: [M+H]+
m/z	relative intensity	assigned
96.9933	10	C4HO3+
107.0151	11	C2H7O3Si+
135.0478	246	C4H11O3Si+
136.0491	20	C8H8O2+
145.0695	53	C6H13O2Si+
163.0809	999	C6H15O3Si+
164.0842	81	C6H16O3Si+
191.1127	20	C8H19O3Si+
