Mass spectrum: Diflubenzuron; LC-ESI-QTOF; MS2; CE: 10 eV; R=35000; [M-H]-
Name: Diflubenzuron
Name: N-[(4-chlorophenyl)carbamoyl]-2,6-difluorobenzamide
Formula: C14H9ClF2N2O2
Exact mass: 310.0320616
SMILES: FC1=CC=CC(F)=C1C(=O)NC(=O)NC1=CC=C(Cl)C=C1
InChI: InChI=1S/C14H9ClF2N2O2/c15-8-4-6-9(7-5-8)18-14(21)19-13(20)12-10(16)2-1-3-11(12)17/h1-7H,(H2,18,19,20,21)
Instrument: Bruker maXis Impact
Instrument type: LC-ESI-QTOF
Ms type: MS2
Ion mode: NEGATIVE
Ionization: ESI
Fragmentation mode: CID
Collision energy: 10 eV
Resolution: 35000
Column name: Acclaim RSLC C18 2.2um, 2.1x100mm, Thermo
Retention time: 10.570 min
Base peak: 309.0238
Precursor m/z: 309.0248
Precursor type: [M-H]-
m/z	relative intensity	assigned
151.0075	361	C4H5ClFN2O-
153.0041	115	C4H5[37]ClFN2O-
156.0266	999	C10H3FN-
157.0276	115	C9[13]CH3FN-
289.0176	864	C14H7ClFN2O2-
290.0181	176	C13[13]CH7ClFN2O2-
291.014	265	C14H7[37]ClFN2O2-
309.0235	408	C14H8ClF2N2O2-
310.0283	99	C13[13]CH8ClF2N2O2-
311.019	146	C14H8[37]ClF2N2O2-
