Mass spectrum: Pioglitazone; LC-ESI-QTOF; MS2; CE: RAMP 22.7-34.1 eV; R=35000; [M+H]+
Name: Pioglitazone
Name: 5-[[4-[2-(5-ethylpyridin-2-yl)ethoxy]phenyl]methyl]-1,3-thiazolidine-2,4-dione
Formula: C19H20N2O3S
Exact mass: 356.1194635
SMILES: CCc1ccc(nc1)CCOc2ccc(cc2)CC3C(=O)NC(=O)S3
InChI: InChI=1S/C19H20N2O3S/c1-2-13-3-6-15(20-12-13)9-10-24-16-7-4-14(5-8-16)11-17-18(22)21-19(23)25-17/h3-8,12,17H,2,9-11H2,1H3,(H,21,22,23)
Instrument: Bruker maXis Impact
Instrument type: LC-ESI-QTOF
Ms type: MS2
Ion mode: POSITIVE
Ionization: ESI
Fragmentation mode: CID
Collision energy: RAMP 22.7-34.1 eV
Resolution: 35000
Column name: Acclaim RSLC C18 2.2um, 2.1x100mm, Thermo
Retention time: 9.311 min
Base peak: 357.1282
Precursor m/z: 357.1267
Precursor type: [M+H]+
m/z	relative intensity	assigned
118.0654	14	C8H8N+
119.0726	118	C8H9N+
120.0785	24	C5H12O3+
121.0871	11	C5H13O3+
134.0969	816	C3H18O3S+
135.1029	291	C9H13N+
136.1066	22	C8[13]CH13N+
167.0934	18	C9H13NO2+
240.1364	12	C16H18NO+
240.145	7	C12H20N2O3+
241.1459	21	C16H19NO+
286.127	7	C17H20NOS+
357.1338	999	C19H21N2O3S+
358.1341	251	C18[13]CH21N2O3S+
