Mass spectrum: Levetiracetam; LC-ESI-QTOF; MS2; CE: 10 eV; R=35000; [M+Na]+
Name: Levetiracetam
Name: LEVITIRACETAM
Name: (2R)-2-(2-oxopyrrolidin-1-yl)butanamide
Formula: C8H14N2O2
Exact mass: 170.1055277
SMILES: CC[C@H](C(=O)N)N1CCCC1=O
InChI: InChI=1S/C8H14N2O2/c1-2-6(8(9)12)10-5-3-4-7(10)11/h6H,2-5H2,1H3,(H2,9,12)/t6-/m1/s1
Instrument: Bruker maXis Impact
Instrument type: LC-ESI-QTOF
Ms type: MS2
Ion mode: POSITIVE
Ionization: ESI
Fragmentation mode: CID
Collision energy: 10 eV
Resolution: 35000
Column name: Acclaim RSLC C18 2.2um, 2.1x100mm, Thermo
Retention time: 4.292 min
Base peak: 388.2549
Precursor m/z: 193.0947
Precursor type: [M+Na]+
m/z	relative intensity	assigned
193.0952	999	C8H14N2NaO2+
