Mass spectrum: 9-OH-Risperidone; LC-ESI-QTOF; MS2; CE: 40 eV; R=35000; [M+H]+
Name: 9-OH-Risperidone
Name: Paliperidone
Name: 3-[2-[4-(6-fluoro-1,2-benzoxazol-3-yl)piperidin-1-yl]ethyl]-9-hydroxy-2-methyl-6,7,8,9-tetrahydropyrido[1,2-a]pyrimidin-4-one
Formula: C23H27FN4O3
Exact mass: 426.2067189
SMILES: CC1=C(CCN2CCC(CC2)C2=NOC3=CC(F)=CC=C23)C(=O)N2CCCC(O)C2=N1
InChI: InChI=1S/C23H27FN4O3/c1-14-17(23(30)28-9-2-3-19(29)22(28)25-14)8-12-27-10-6-15(7-11-27)21-18-5-4-16(24)13-20(18)31-26-21/h4-5,13,15,19,29H,2-3,6-12H2,1H3
Instrument: Bruker maXis Impact
Instrument type: LC-ESI-QTOF
Ms type: MS2
Ion mode: POSITIVE
Ionization: ESI
Fragmentation mode: CID
Collision energy: 40 eV
Resolution: 35000
Column name: Acclaim RSLC C18 2.2um, 2.1x100mm, Thermo
Retention time: 5.4 min
Base peak: 427.2146
Precursor m/z: 427.214
Precursor type: [M+H]+
m/z	relative intensity	assigned
110.0598	1	C6H8NO+
137.0703	1	C7H9N2O+
165.0647	6	C8H9N2O2+
179.0805	9	C9H11N2O2+
189.1010	4	C11H13N2O+
207.1128	999	C11H15N2O2+
208.1155	162	C10[13]CH15N2O2+
233.1082	2	C16H13N2+
