Mass spectrum: 1,3-Diphenylguanidine; LC-ESI-QTOF; MS2; CE: 50 eV; R=35000; [M+H]+
Name: 1,3-Diphenylguanidine
Name: 1,2-diphenylguanidine
Formula: C13H13N3
Exact mass: 211.1109474
SMILES: N=C(NC1=CC=CC=C1)NC1=CC=CC=C1
InChI: InChI=1S/C13H13N3/c14-13(15-11-7-3-1-4-8-11)16-12-9-5-2-6-10-12/h1-10H,(H3,14,15,16)
Instrument: Bruker maXis Impact
Instrument type: LC-ESI-QTOF
Ms type: MS2
Ion mode: POSITIVE
Ionization: ESI
Fragmentation mode: CID
Collision energy: 50 eV
Resolution: 35000
Column name: Acclaim RSLC C18 2.2um, 2.1x100mm, Thermo
Retention time: 4.424 min
Base peak: 212.1178
Precursor m/z: 212.1182
Precursor type: [M+H]+
m/z	relative intensity	assigned
119.0595	999	C7H7N2+
167.0737	366	C12H9N+
195.0892	147	C13H11N2+
