Mass spectrum: Quinoline N-oxide; LC-ESI-QTOF; MS2; CE: Ramp 16.1-24.1 eV; R=35000; [M+H]+
Name: Quinoline N-oxide
Name: Quinoline 1-oxide
Name: 1-oxidoquinolin-1-ium
Formula: C9H7NO
Exact mass: 145.0527638
SMILES: [O-][N+]1=CC=CC2=CC=CC=C12
InChI: InChI=1S/C9H7NO/c11-10-7-3-5-8-4-1-2-6-9(8)10/h1-7H
Instrument: Bruker maXis Impact
Instrument type: LC-ESI-QTOF
Ms type: MS2
Ion mode: POSITIVE
Ionization: ESI
Fragmentation mode: CID
Collision energy: Ramp 16.1-24.1 eV
Resolution: 35000
Column name: Acclaim RSLC C18 2.2um, 2.1x100mm, Thermo
Retention time: 4.310 min
Base peak: 146.0599
Precursor m/z: 146.06
Precursor type: [M+H]+
m/z	relative intensity	assigned
77.0378	7	C6H5+
91.0544	61	C7H7+
95.049	9	C6H7O+
102.0469	11	C8H6+
103.0547	15	C8H7+
117.0571	17	C8H7N+
118.0652	23	C8H8N+
128.0491	262	C9H6N+
129.057	999	C9H7N+
130.0602	92	C8[13]CH7N+
146.0596	765	C9H8NO+
147.0627	87	C8[13]CH8NO+
