Mass spectrum: Oxfendazole; LC-ESI-QTOF; MS2; CE: 20 eV; R=35000; [M+H]+
Name: Oxfendazole
Name: methyl N-[6-(benzenesulfinyl)-1H-benzimidazol-2-yl]carbamate
Formula: C15H13N3O3S
Exact mass: 315.0677623
SMILES: COC(=O)Nc1[nH]c2ccc(cc2n1)S(=O)c3ccccc3
InChI: InChI=1S/C15H13N3O3S/c1-21-15(19)18-14-16-12-8-7-11(9-13(12)17-14)22(20)10-5-3-2-4-6-10/h2-9H,1H3,(H2,16,17,18,19)
Instrument: Bruker maXis Impact
Instrument type: LC-ESI-QTOF
Ms type: MS2
Ion mode: POSITIVE
Ionization: ESI
Fragmentation mode: CID
Collision energy: 20 eV
Resolution: 35000
Column name: Acclaim RSLC C18 2.2um, 2.1x100mm, Thermo
Retention time: 6.5 min
Base peak: 238.1072
Precursor m/z: 316.075
Precursor type: [M+H]+
m/z	relative intensity	assigned
125.0054	20	C6H5OS+
159.0419	103	C8H5N3O+
191.0323	31	C8H5N3O3+
191.0685	547	C9H9N3O2+
192.0728	45	C8[13]CH9N3O2+
207.0653	26	C9H9N3O3+
223.0592	83	C15H11S+
239.0362	85	C9H9N3O3S+
284.0488	447	C14H10N3O2S+
285.0526	56	C13[13]CH10N3O2S+
299.0726	149	C15H13N3O2S+
300.0768	27	C15H14N3O2S+
316.075	999	C15H14N3O3S+
317.0795	151	C14[13]CH14N3O3S+
318.0726	45	C14H14N4O3S+
