Mass spectrum: Omeprazole; LC-ESI-QTOF; MS2; CE: 10 eV; R=35000; [M+H]+
Name: Omeprazole
Name: 6-methoxy-2-[(4-methoxy-3,5-dimethylpyridin-2-yl)methylsulfinyl]-1H-benzimidazole
Formula: C17H19N3O3S
Exact mass: 345.1147125
SMILES: Cc1cnc(c(c1OC)C)CS(=O)c2[nH]c3ccc(cc3n2)OC
InChI: InChI=1S/C17H19N3O3S/c1-10-8-18-15(11(2)16(10)23-4)9-24(21)17-19-13-6-5-12(22-3)7-14(13)20-17/h5-8H,9H2,1-4H3,(H,19,20)
Instrument: Bruker maXis Impact
Instrument type: LC-ESI-QTOF
Ms type: MS2
Ion mode: POSITIVE
Ionization: ESI
Fragmentation mode: CID
Collision energy: 10 eV
Resolution: 35000
Column name: Acclaim RSLC C18 2.2um, 2.1x100mm, Thermo
Retention time: 7.5 min
Base peak: 237.1017
Precursor m/z: 346.122
Precursor type: [M+H]+
m/z	relative intensity	assigned
149.0702	53	C8H9N2O+
151.0987	75	CH17N3O3S+
152.1018	10	C4H14N3O3+
166.0854	11	C9H12NO2+
168.1017	93	C9H14NO2+
179.0287	12	C8H7N2OS+
180.0477	10	C9H10NOS+
198.058	999	C9H12NO2S+
199.0611	61	C8[13]CH12NO2S+
200.0556	28	C9H12NO2[34]S+
346.1221	185	C17H20N3O3S+
347.1279	28	C16[13]CH20N3O3S+
