Mass spectrum: Ranitidine-S-oxide; LC-ESI-QTOF; MS2; CE: 30 eV; R=35000; [M+H]+
Name: Ranitidine-S-oxide
Formula: C13H22N4O4S
Exact mass: 330.1361762
SMILES: CN\C(NCCS(=O)CC1=CC=C(CN(C)C)O1)=C/[N+]([O-])=O
InChI: InChI=1S/C13H22N4O4S/c1-14-13(9-17(18)19)15-6-7-22(20)10-12-5-4-11(21-12)8-16(2)3/h4-5,9,14-15H,6-8,10H2,1-3H3/b13-9+
Instrument: Bruker maXis Impact
Instrument type: LC-ESI-QTOF
Ms type: MS2
Ion mode: POSITIVE
Ionization: ESI
Fragmentation mode: CID
Collision energy: 30 eV
Resolution: 35000
Column name: Acclaim RSLC C18 2.2um, 2.1x100mm, Thermo
Retention time: 1.8 min
Base peak: 331.1433
Precursor m/z: 331.1435
Precursor type: [M+H]+
m/z	relative intensity	assigned
110.0956	31	C7H12N+
123.0659	6	C5H7N4+
125.0038	9	C4H3N3S+
130.0573	60	C5H10N2S+
131.0617	9	C2H13NO3S+
138.0902	999	C6H10N4+
140.1007	7	C3H14N3O3+
143.0146	48	C4H5N3OS+
144.0743	10	C5H10N3O2+
146.0496	62	C5H10N2OS+
147.057	21	C2H13NO4S+
176.0478	23	C5H10N3O2S+
191.1158	11	C8H17NO4+
192.0426	105	C11H4N4+
192.1241	13	C3H20N4O3S+
193.0496	22	C10[13]CH4N4+
194.0391	6	C10H10O2S+
194.0555	7	C8H8N3O3+
221.0718	5	C8H15NO4S+
222.0821	19	C11H14N2OS+
223.0897	24	C11H15N2OS+
240.0931	13	C11H16N2O2S+
