Mass spectrum: Metolachlor-ESA; LC-ESI-QTOF; MS2; CE: 20 eV; R=35000; [M+H]+
Name: Metolachlor-ESA
Name: Metolachlor esa
Name: 2-[2-ethyl-N-(1-methoxypropan-2-yl)-6-methylanilino]-2-oxoethanesulfonic acid
Formula: C15H23NO5S
Exact mass: 329.1296938
SMILES: CCC1=CC=CC(C)=C1N(C(C)COC)C(=O)CS(O)(=O)=O
InChI: InChI=1S/C15H23NO5S/c1-5-13-8-6-7-11(2)15(13)16(12(3)9-21-4)14(17)10-22(18,19)20/h6-8,12H,5,9-10H2,1-4H3,(H,18,19,20)
Instrument: Bruker maXis Impact
Instrument type: LC-ESI-QTOF
Ms type: MS2
Ion mode: POSITIVE
Ionization: ESI
Fragmentation mode: CID
Collision energy: 20 eV
Resolution: 35000
Column name: Acclaim RSLC C18 2.2um, 2.1x100mm, Thermo
Retention time: 7.1 min
Base peak: 330.1368
Precursor m/z: 330.137
Precursor type: [M+H]+
m/z	relative intensity	assigned
136.1132	5	C3H20O3S+
160.1132	9	C5H20O3S+
174.1265	8	C12H16N+
175.1357	13	C12H17N+
176.1415	20	C9H20O3+
202.1223	30	C13H16NO+
203.1253	8	C10H19O4+
217.1457	9	C14H19NO+
258.0784	16	C11H16NO4S+
298.1108	999	C14H20NO4S+
300.1098	41	C14H20NO4[34]S+
301.109	5	C14H21O5S+
330.1363	17	C15H24NO5S+
