Mass spectrum: Octocrylene; LC-ESI-QTOF; MS2; CE: 30 eV; R=35000; [M+H]+
Name: Octocrylene
Name: 2-ethylhexyl 2-cyano-3,3-diphenylprop-2-enoate
Formula: C24H27NO2
Exact mass: 361.2041791
SMILES: CCCCC(CC)COC(=O)C(C#N)=C(C1=CC=CC=C1)C1=CC=CC=C1
InChI: InChI=1S/C24H27NO2/c1-3-5-12-19(4-2)18-27-24(26)22(17-25)23(20-13-8-6-9-14-20)21-15-10-7-11-16-21/h6-11,13-16,19H,3-5,12,18H2,1-2H3
Instrument: Bruker maXis Impact
Instrument type: LC-ESI-QTOF
Ms type: MS2
Ion mode: POSITIVE
Ionization: ESI
Fragmentation mode: CID
Collision energy: 30 eV
Resolution: 35000
Column name: Acclaim RSLC C18 2.2um, 2.1x100mm, Thermo
Retention time: 13.245 min
Base peak: 379.238
Precursor m/z: 362.2115
Precursor type: [M+H]+
m/z	relative intensity	assigned
139.0034	24	C9HNO+
147.0415	19	C9H7O2+
157.0133	18	C9H3NO2+
157.0267	30	C10H5O2+
179.0861	20	C14H11+
182.0944	25	C13H12N+
183.0801	16	C13H11O+
203.0747	26	C15H9N+
204.079	183	C15H10N+
205.0833	36	C14[13]CH10N+
206.0947	27	C15H12N+
207.0794	19	C15H11O+
222.0906	37	C15H12NO+
232.0744	999	C16H10NO+
233.0783	196	C15[13]CH10NO+
234.0801	19	C14[13]C2H10NO+
237.0775	72	C15H11NO2+
238.0783	35	C19H10+
239.0758	28	C18H9N+
250.086	379	C16H12NO2+
251.0875	71	C15[13]CH12NO2+
303.1702	21	C22H23O+
311.0961	23	C21H13NO2+
