Mass spectrum: 2,4-Di-tert-butyl-phenol; GC-APCI-QTOF; MS2; CE: 50 eV; R=35000; [M]+
Name: 2,4-Di-tert-butyl-phenol
Formula: C14H22O
Exact mass: 206.1671
SMILES: CC(C)(C)C1=CC(=C(C=C1)O)C(C)(C)C
InChI: InChI=1S/C14H22O/c1-13(2,3)10-7-8-12(15)11(9-10)14(4,5)6/h7-9,15H,1-6H3
Instrument: Bruker 450 GC coupled to maXis Impact
Instrument type: GC-APCI-QTOF
Ms type: MS2
Ion mode: POSITIVE
Ionization: APCI
Fragmentation mode: CID
Collision energy: 50 eV
Resolution: 35000
Column name: Rxi-5Sil MS column, 30m, 0.25mm i.d., 0.25Âµm film thickness, Restek
Retention time: 12.511 min
Base peak: 206.1669
Precursor m/z: 206.1665
Precursor type: [M]+
m/z	relative intensity	assigned
57.0706	207	C4H9+
79.0551	75	C6H7+
91.0534	103	C7H7+
115.0546	321	C9H7+
116.0625	96	C9H8+
117.0702	174	C9H9+
119.0484	111	C8H7O+
119.0846	161	C9H11+
120.0599	98	C8H8O+
121.0657	217	C8H9O+
128.0627	728	C10H8+
129.0685	220	C10H9+
130.0745	68	C10H10+
131.0499	154	C9H7O+
131.0851	177	C10H11+
132.0577	121	C9H8O+
133.0649	999	C9H9O+
133.1033	118	C10H13+
135.0792	96	C9H11O+
141.0722	220	C11H9+
142.0782	78	C11H10+
143.0882	182	C11H11+
145.0675	141	C10H9O+
146.0747	141	C10H10O+
147.0827	450	C10H11O+
148.0898	189	C10H12O+
160.0912	80	C11H12O+
161.0991	677	C11H13O+
162.1005	85	C11H14O+
163.1138	98	C11H15O+
175.113	93	C12H15O+
