Mass spectrum: Triclocarban; LC-ESI-QTOF; MS2; CE: Ramp 20-30 eV; R=35000; [M+H]+
Name: Triclocarban
Name: 1-(4-chlorophenyl)-3-(3,4-dichlorophenyl)urea
Formula: C13H9Cl3N2O
Exact mass: 313.9780459
SMILES: ClC1=CC=C(NC(=O)NC2=CC(Cl)=C(Cl)C=C2)C=C1
InChI: InChI=1S/C13H9Cl3N2O/c14-8-1-3-9(4-2-8)17-13(19)18-10-5-6-11(15)12(16)7-10/h1-7H,(H2,17,18,19)
Instrument: Bruker maXis Impact
Instrument type: LC-ESI-QTOF
Ms type: MS2
Ion mode: POSITIVE
Ionization: ESI
Fragmentation mode: CID
Collision energy: Ramp 20-30 eV
Resolution: 35000
Column name: Acclaim RSLC C18 2.2um, 2.1x100mm, Thermo
Retention time: 11.908 min
Base peak: 102.1285
Precursor m/z: 314.9853
Precursor type: [M+H]+
m/z	relative intensity	assigned
93.0573	21	C6H7N+
126.01	160	C9H2O+
127.0177	999	C6H6ClN+
128.0256	979	C6H7ClN+
129.015	163	C6H6[37]ClN+
129.0289	46	C5[13]CH7ClN+
130.0224	201	C6H7[37]ClN+
154.0047	85	C7H5ClNO+
159.97	119	C9HClO+
161.9677	57	C9H[37]ClO+
161.9863	939	C9H3ClO+
162.989	75	C8[13]CH3ClO+
163.9836	371	C9H3[37]ClO+
164.9859	25	C7H2ClN2O+
172.0158	57	C4H10Cl2N2O+
187.9655	63	C7H4Cl2NO+
314.9853	364	C13H10Cl3N2O+
315.9897	53	C12[13]CH10Cl3N2O+
316.9821	269	C13H10Cl2[37]ClN2O+
