Mass spectrum: 5-Chloro-2-methyl-4-isothiazolin-3-one (CMI); LC-ESI-QTOF; MS2; CE: 30 eV; R=35000; [M+H]+
Name: 5-Chloro-2-methyl-4-isothiazolin-3-one (CMI)
Name: 5-Chloro-2-methyl-4-isothiazolin-3-one
Name: 5-chloro-2-methyl-1,2-thiazol-3-one
Formula: C4H4ClNOS
Exact mass: 148.9702124
SMILES: Cn1c(=O)cc(s1)Cl
InChI: InChI=1S/C4H4ClNOS/c1-6-4(7)2-3(5)8-6/h2H,1H3
Instrument: Bruker maXis Impact
Instrument type: LC-ESI-QTOF
Ms type: MS2
Ion mode: POSITIVE
Ionization: ESI
Fragmentation mode: CID
Collision energy: 30 eV
Resolution: 35000
Column name: Acclaim RSLC C18 2.2um, 2.1x100mm, Thermo
Retention time: 4.376 min
Base peak: 149.9781
Precursor m/z: 149.9775
Precursor type: [M+H]+
m/z	relative intensity	assigned
115.0089	79	C4H5NOS+
116.9993	18	C4H4ClNO+
118.936	166	C3ClOS+
120.9513	64	C3H2ClOS+
132.9511	19	C4H2ClOS+
134.9544	748	C3H2ClNOS+
136.9511	296	C3H2[37]ClNOS+
147.962	18	C4H3ClNOS+
149.9779	999	C4H5ClNOS+
151.975	404	C4H5[37]ClNOS+
