Mass spectrum: Flumethasone; LC-ESI-QTOF; MS2; CE: 10 eV; R=35000; [M+H]+
Name: Flumethasone
Name: (6S,8S,9R,10S,11S,13S,14S,16R,17R)-6,9-difluoro-11,17-dihydroxy-17-(2-hydroxyacetyl)-10,13,16-trimethyl-6,7,8,11,12,14,15,16-octahydrocyclopenta[a]phenanthren-3-one
Formula: C22H28F2O5
Exact mass: 410.1904804
SMILES: [H][C@@]12C[C@@H](C)[C@](O)(C(=O)CO)[C@@]1(C)C[C@H](O)[C@@]1(F)[C@@]2([H])C[C@H](F)C2=CC(=O)C=C[C@]12C
InChI: InChI=1S/C22H28F2O5/c1-11-6-13-14-8-16(23)15-7-12(26)4-5-19(15,2)21(14,24)17(27)9-20(13,3)22(11,29)18(28)10-25/h4-5,7,11,13-14,16-17,25,27,29H,6,8-10H2,1-3H3/t11-,13+,14+,16+,17+,19+,20+,21+,22+/m1/s1
Instrument: Bruker maXis Impact
Instrument type: LC-ESI-QTOF
Ms type: MS2
Ion mode: POSITIVE
Ionization: ESI
Fragmentation mode: CID
Collision energy: 10 eV
Resolution: 35000
Column name: Acclaim RSLC C18 2.2um, 2.1x100mm, Thermo
Retention time: 8.283 min
Base peak: 303.1948
Precursor m/z: 411.1978
Precursor type: [M+H]+
m/z	relative intensity	assigned
121.0649	10	C8H9O+
125.0598	7	C7H9O2+
135.0802	11	C9H11O+
141.0892	5	C8H13O2+
147.0802	12	C10H11O+
153.0898	10	C9H13O2+
159.082	7	C8H12FO2+
161.0946	7	C11H13O+
163.0726	5	C10H11O2+
165.0908	5	C10H13O2+
167.106	6	C10H15O2+
171.0795	12	C12H11O+
177.0886	6	C11H13O2+
185.0943	7	C13H13O+
193.0849	6	C11H13O3+
197.0948	6	C14H13O+
209.0936	8	C15H13O+
211.0926	8	C12H13F2O+
211.111	10	C15H15O+
213.0919	8	C11H14FO3+
223.1098	8	C16H15O+
235.1111	53	C17H15O+
236.1151	11	C16[13]CH15O+
237.1249	47	C17H17O+
238.1316	11	C16[13]CH17O+
239.1043	8	C16H15O2+
251.1054	6	C17H15O2+
253.1212	183	C17H17O2+
254.1255	43	C16[13]CH17O2+
255.1242	8	C13H19O5+
255.1363	8	C17H19O2+
257.1337	6	C17H18FO+
261.1239	8	C19H17O+
263.1456	5	C13H21F2O3+
273.1281	47	C17H18FO2+
274.1327	9	C16[13]CH18FO2+
275.1419	39	C20H19O+
276.1466	15	C20H20O+
277.1193	7	C19H17O2+
277.1575	40	C20H21O+
278.1631	13	C19[13]CH21O+
279.1366	11	C19H19O2+
279.1726	10	C20H23O+
287.1441	8	C18H20FO2+
289.157	24	C21H21O+
291.1381	12	C20H19O2+
293.1523	30	C20H21O2+
294.1533	7	C19[13]CH21O2+
295.1367	7	C13H21F2O5+
295.168	43	C17H24FO3+
296.1747	12	C16[13]CH24FO3+
297.1627	15	C20H22FO+
298.1654	6	C13H24F2O5+
299.1436	7	C22H19O+
305.1518	17	C21H21O2+
307.1697	29	C21H23O2+
308.1741	8	C20[13]CH23O2+
309.1457	8	C20H21O3+
309.154	8	C14H23F2O5+
313.161	6	C17H23F2O3+
315.1758	15	C20H24FO2+
317.1533	39	C22H21O2+
318.1553	11	C21[13]CH21O2+
323.164	17	C21H23O3+
325.1794	21	C21H25O3+
327.1757	8	C21H24FO2+
333.167	10	C20H23F2O2+
335.1644	95	C22H23O3+
336.1668	26	C21[13]CH23O3+
337.1612	10	C19H23F2O3+
343.1708	12	C21H24FO3+
345.1798	5	C21H26FO3+
345.1922	5	C18H27F2O4+
347.1811	8	C21H25F2O2+
351.1723	8	C20H25F2O3+
353.1752	92	C22H25O4+
354.1777	23	C21[13]CH25O4+
355.169	41	C19H25F2O4+
356.1756	8	C18[13]CH25F2O4+
357.1632	7	C22H23F2O2+
361.18	13	C21H26FO4+
363.1743	6	C21H25F2O3+
363.1838	5	C21H25F2O3+
365.1911	11	C21H27F2O3+
371.1838	199	C22H27O5+
372.1886	49	C21[13]CH27O5+
373.1806	77	C22H26FO4+
374.1833	27	C21[13]CH26FO4+
375.1744	29	C22H25F2O3+
376.1743	6	C21[13]CH25F2O3+
376.1899	6	C21[13]CH25F2O3+
381.1843	6	C21H27F2O4+
391.1908	411	C22H28FO5+
392.1946	137	C21[13]CH28FO5+
393.1907	47	C22H27F2O4+
394.1924	13	C21[13]CH27F2O4+
411.1968	999	C22H29F2O5+
412.201	272	C21[13]CH29F2O5+
413.2027	37	C20[13]C2H29F2O5+
