Mass spectrum: Fosinopril; LC-ESI-QTOF; MS2; CE: 10 eV; R=35000; [M+H]+
Name: Fosinopril
Name: (2S,4S)-4-cyclohexyl-1-[2-[(2-methyl-1-propanoyloxypropoxy)-(4-phenylbutyl)phosphoryl]acetyl]pyrrolidine-2-carboxylic acid
Formula: C30H46NO7P
Exact mass: 563.3011894
SMILES: O=C(CP(=O)(CCCCc1ccccc1)OC(OC(=O)CC)C(C)C)N2C[C@@H](C[C@H]2C(O)=O)C3CCCCC3
InChI: InChI=1S/C30H46NO7P/c1-4-28(33)37-30(22(2)3)38-39(36,18-12-11-15-23-13-7-5-8-14-23)21-27(32)31-20-25(19-26(31)29(34)35)24-16-9-6-10-17-24/h5,7-8,13-14,22,24-26,30H,4,6,9-12,15-21H2,1-3H3,(H,34,35)/t25-,26+,30?,39?/m1/s1
Instrument: Bruker maXis Impact
Instrument type: LC-ESI-QTOF
Ms type: MS2
Ion mode: POSITIVE
Ionization: ESI
Fragmentation mode: CID
Collision energy: 10 eV
Resolution: 35000
Column name: Acclaim RSLC C18 2.2um, 2.1x100mm, Thermo
Retention time: 12.313 min
Base peak: 564.313
Precursor m/z: 564.3085
Precursor type: [M+H]+
m/z	relative intensity	assigned
390.2228	16	C29H28N+
418.2178	301	C30H28NO+
419.2207	75	C27H31O4+
420.2225	14	C26[13]CH31O4+
436.2288	842	C30H30NO2+
437.2322	206	C27H33O5+
438.2331	26	C26[13]CH33O5+
490.2787	5	C27H40NO7+
492.2558	999	C26H39NO6P+
493.2589	308	C26H40NO6P+
494.2604	42	C25[13]CH40NO6P+
495.2686	5	C30H40O4P+
564.3126	52	C30H47NO7P+
565.3131	15	C29[13]CH47NO7P+
