Mass spectrum: alpha-Hydroxymidazolam; LC-ESI-QTOF; MS2; CE: Ramp 22.1-33.2 eV; R=35000; [M+H]+
Name: alpha-Hydroxymidazolam
Name: 1-Hydroxymidazolam
Name: [8-chloro-6-(2-fluorophenyl)-4H-imidazo[1,5-a][1,4]benzodiazepin-1-yl]methanol
Formula: C18H13ClFN3O
Exact mass: 341.0731179
SMILES: C1C2=CN=C(N2C3=C(C=C(C=C3)Cl)C(=N1)C4=CC=CC=C4F)CO
InChI: InChI=1S/C18H13ClFN3O/c19-11-5-6-16-14(7-11)18(13-3-1-2-4-15(13)20)22-9-12-8-21-17(10-24)23(12)16/h1-8,24H,9-10H2
Instrument: Bruker maXis Impact
Instrument type: LC-ESI-QTOF
Ms type: MS2
Ion mode: POSITIVE
Ionization: ESI
Fragmentation mode: CID
Collision energy: Ramp 22.1-33.2 eV
Resolution: 35000
Column name: Acclaim RSLC C18 2.2um, 2.1x100mm, Thermo
Retention time: 8.557 min
Base peak: 342.0799
Precursor m/z: 342.0804
Precursor type: [M+H]+
m/z	relative intensity	assigned
168.0667	78	C11H8N2+
169.07	9	C10[13]CH8N2+
176.0248	64	C10H7ClN+
177.0284	7	C9[13]CH7ClN+
178.0221	17	C10H7[37]ClN+
203.0361	397	C11H8ClN2+
204.039	41	C10[13]CH8ClN2+
205.033	97	C11H8[37]ClN2+
206.0356	6	C12H4N3O+
228.0312	6	C15H4N2O+
249.0819	6	C16H10FN2+
262.0892	23	C17H11FN2+
270.0474	13	C16H10ClFN+
277.0518	8	C17H10ClN2+
283.0425	11	C16H9ClFN2+
284.049	6	C16H10ClFN2+
288.0925	8	C18H11FN3+
289.1003	58	C18H12FN3+
290.1027	9	C17[13]CH12FN3+
296.0508	52	C17H10ClFN2+
297.0576	96	C17H11ClFN2+
298.0574	18	C16[13]CH11ClFN2+
299.0553	27	C17H11[37]ClFN2+
304.0629	23	C18H11ClN3+
306.0593	6	C18H11[37]ClN3+
307.1101	6	C18H14FN3O+
324.0696	999	C18H12ClFN3+
325.0727	156	C17[13]CH12ClFN3+
326.0667	236	C18H12[37]ClFN3+
327.0693	26	C18H13ClFN2O+
342.0798	175	C18H14ClFN3O+
343.0832	31	C17[13]CH14ClFN3O+
344.0771	49	C18H14[37]ClFN3O+
