Mass spectrum: Endosulfan sulphate; GC-APCI-QTOF; MS2; CE: 30 eV; R=35000; [M]+
Name: Endosulfan sulphate
Name: Endosulfan sulfate
Name: 1,9,10,11,12,12-hexachloro-4,6-dioxa-5lambda6-thiatricyclo[7.2.1.02,8]dodec-10-ene 5,5-dioxide
Formula: C9H6Cl6O4S
Exact mass: 419.8118
SMILES: ClC1=C(Cl)C2(Cl)C3COS(=O)(=O)OCC3C1(Cl)C2(Cl)Cl
InChI: InChI=1S/C9H6Cl6O4S/c10-5-6(11)8(13)4-2-19-20(16,17)18-1-3(4)7(5,12)9(8,14)15/h3-4H,1-2H2
Instrument: Bruker 450 GC coupled to maXis Impact
Instrument type: GC-APCI-QTOF
Ms type: MS2
Ion mode: POSITIVE
Ionization: APCI
Fragmentation mode: CID
Collision energy: 30 eV
Resolution: 35000
Column name: Rxi-5Sil MS column, 30m, 0.25mm i.d., 0.25Âµm film thickness (Restek)
Retention time: 22.180 min
Base peak: 419.8086
Precursor m/z: 419.8112
Precursor type: [M]+
m/z	relative intensity	assigned
193.9394	135	C6H4Cl2OS+
216.9313	153	C8H3Cl2OS+
226.8951	999	C5HCl2O4S+
228.8924	674	C4H6Cl5+
229.8963	103	C2H5Cl3O4S+
230.9104	111	C8HCl2O2S+
234.8402	239	C5Cl5+
236.8371	305	C2H3Cl6+
238.8957	339	C6HCl2O4S+
240.8935	465	C5H6Cl5+
250.8942	347	C7HCl2O4S+
251.9038	246	C7H2Cl2O4S+
252.8917	332	C6H6Cl5+
253.8956	212	C4H5Cl3O4S+
256.9059	155	C8H5Cl4O+
260.8702	98	C3H5Cl4O3S+
269.812	239	C5Cl6+
271.8086	532	CH2Cl6O3+
273.8062	115	C4Cl6O+
274.8745	219	C8H4Cl5+
276.8673	264	C9Cl3O2S+
286.8702	184	C7H2Cl3O4S+
288.8681	207	C4H5Cl4O4S+
384.8427	114	C9H6Cl5O4S+
386.8363	105	C9H5Cl6O4+
