Mass spectrum: Piperine; LC-ESI-QTOF; MS2; CE: 30 eV; R=35000; [M+H]+
Name: Piperine
Name: (2E,4E)-5-(1,3-benzodioxol-5-yl)-1-piperidin-1-ylpenta-2,4-dien-1-one
Formula: C17H19NO3
Exact mass: 285.1364935
SMILES: O=C(\C=C\C=C\C1=CC2=C(OCO2)C=C1)N1CCCCC1
InChI: InChI=1S/C17H19NO3/c19-17(18-10-4-1-5-11-18)7-3-2-6-14-8-9-15-16(12-14)21-13-20-15/h2-3,6-9,12H,1,4-5,10-11,13H2/b6-2+,7-3+
Instrument: Bruker maXis Impact
Instrument type: LC-ESI-QTOF
Ms type: MS2
Ion mode: POSITIVE
Ionization: ESI
Fragmentation mode: CID
Collision energy: 30 eV
Resolution: 35000
Column name: Acclaim RSLC C18 2.2um, 2.1x100mm, Thermo
Retention time: 10.034 min
Base peak: 286.144
Precursor m/z: 286.1438
Precursor type: [M+H]+
m/z	relative intensity	assigned
115.0538	75	C9H7+
116.0566	8	C8[13]CH7+
135.0431	274	C8H7O2+
136.0463	18	C7[13]CH7O2+
143.048	162	C10H7O+
144.0513	15	C9[13]CH7O+
145.0635	5	C10H9O+
150.0899	7	C9H12NO+
151.0979	25	C9H13NO+
159.0428	40	C10H7O2+
171.0431	185	C11H7O2+
172.0462	19	C10[13]CH7O2+
173.0585	69	C11H9O2+
174.062	7	C10[13]CH9O2+
185.0949	5	C13H13O+
201.0539	999	C12H9O3+
202.0572	103	C11[13]CH9O3+
203.0592	8	C10[13]C2H9O3+
286.1435	27	C17H20NO3+
287.1468	5	C16[13]CH20NO3+
