Mass spectrum: Enrofloxacin; LC-ESI-QTOF; MS2; CE: 30 eV; R=35000; [M+H]+
Name: Enrofloxacin
Name: 1-cyclopropyl-7-(4-ethylpiperazin-1-yl)-6-fluoro-4-oxoquinoline-3-carboxylic acid
Formula: C19H22FN3O3
Exact mass: 359.1645198
SMILES: CCN1CCN(CC1)C1=C(F)C=C2C(=O)C(=CN(C3CC3)C2=C1)C(O)=O
InChI: InChI=1S/C19H22FN3O3/c1-2-21-5-7-22(8-6-21)17-10-16-13(9-15(17)20)18(24)14(19(25)26)11-23(16)12-3-4-12/h9-12H,2-8H2,1H3,(H,25,26)
Instrument: Bruker maXis Impact
Instrument type: LC-ESI-QTOF
Ms type: MS2
Ion mode: POSITIVE
Ionization: ESI
Fragmentation mode: CID
Collision energy: 30 eV
Resolution: 35000
Column name: Acclaim RSLC C18 2.2um, 2.1x100mm, Thermo
Retention time: 4.555 min
Base peak: 238.0994
Precursor m/z: 360.1718
Precursor type: [M+H]+
m/z	relative intensity	assigned
203.0608	23	C14H7N2+
204.0684	41	C14H8N2+
205.0755	10	C13[13]CH8N2+
217.0751	7	C15H9N2+
221.0708	6	C14H9N2O+
229.0778	5	C13H10FN2O+
231.0926	33	C13H12FN2O+
233.0717	7	C12H10FN2O2+
245.1085	410	C17H13N2+
246.1116	59	C16[13]CH13N2+
247.0864	9	C16H11N2O+
257.1087	12	C15H14FN2O+
258.0659	5	C16H8N3O+
261.1031	275	C17H13N2O+
262.106	24	C16[13]CH13N2O+
273.138	5	C19H17N2+
285.1263	8	C19H15N3+
286.098	33	C18H12N3O+
287.1019	5	C17[13]CH12N3O+
288.1504	18	C16H19FN3O+
296.1756	5	C18H22N3O+
301.1221	8	C16H16FN3O2+
314.1304	6	C17H17FN3O2+
314.166	44	C18H21FN3O+
315.1697	10	C17[13]CH21FN3O+
316.1823	590	C18H23FN3O+
317.1851	108	C17[13]CH23FN3O+
318.1613	226	C17H21FN3O2+
319.1645	29	C16[13]CH21FN3O2+
342.1615	260	C19H21FN3O2+
343.164	51	C18[13]CH21FN3O2+
344.1393	13	C18H19FN3O3+
344.1671	6	C17[13]C2H21FN3O2+
360.1723	999	C19H23FN3O3+
361.1755	190	C18[13]CH23FN3O3+
362.1758	23	C17[13]C2H23FN3O3+
