Mass spectrum: Levamisole; LC-ESI-QTOF; MS2; CE: 40 eV; R=35000; [M+H]+
Name: Levamisole
Name: (6S)-6-phenyl-2,3,5,6-tetrahydroimidazo[2,1-b][1,3]thiazole
Formula: C11H12N2S
Exact mass: 204.0721194
SMILES: c1ccc(cc1)[C@H]2CN3CCSC3=N2
InChI: InChI=1S/C11H12N2S/c1-2-4-9(5-3-1)10-8-13-6-7-14-11(13)12-10/h1-5,10H,6-8H2/t10-/m1/s1
Instrument: Bruker maXis Impact
Instrument type: LC-ESI-QTOF
Ms type: MS2
Ion mode: POSITIVE
Ionization: ESI
Fragmentation mode: CID
Collision energy: 40 eV
Resolution: 35000
Column name: Acclaim RSLC C18 2.2um, 2.1x100mm, Thermo
Retention time: 3.8 min
Base peak: 205.0717
Precursor m/z: 205.0794
Precursor type: [M+H]+
m/z	relative intensity	assigned
115.047	174	C5H9NS+
116.053	19	C5H10NS+
117.05	215	C4H9N2S+
117.0621	84	C5H11NS+
118.0571	176	C4H10N2S+
119.0657	34	C4H11N2S+
123.0208	725	C10H3+
125.0172	27	C5H5N2S+
128.0412	59	C5H8N2S+
128.0545	466	C6H10NS+
129.0622	198	C6H11NS+
130.0575	575	C5H10N2S+
131.0663	127	C5H11N2S+
132.0731	109	C5H12N2S+
135.0208	82	C11H3+
144.0735	158	C6H12N2S+
145.0582	61	C6H11NOS+
145.0738	34	C9H9N2+
146.0942	72	C10H12N+
148.0168	31	C11H2N+
150.031	90	C11H4N+
155.0536	77	C8H11OS+
178.0585	999	C9H10N2S+
179.0631	75	C8[13]CH10N2S+
180.0582	28	C8H10N3S+
188.0431	21	C10H8N2S+
205.076	176	C11H13N2S+
