Mass spectrum: Bupropion; LC-ESI-QTOF; MS2; CE: 10 eV; R=35000; [M+H]+
Name: Bupropion
Name: 2-(tert-butylamino)-1-(3-chlorophenyl)propan-1-one
Formula: C13H18ClNO
Exact mass: 239.1076919
SMILES: CC(NC(C)(C)C)C(=O)C1=CC(Cl)=CC=C1
InChI: InChI=1S/C13H18ClNO/c1-9(15-13(2,3)4)12(16)10-6-5-7-11(14)8-10/h5-9,15H,1-4H3
Instrument: Bruker maXis Impact
Instrument type: LC-ESI-QTOF
Ms type: MS2
Ion mode: POSITIVE
Ionization: ESI
Fragmentation mode: CID
Collision energy: 10 eV
Resolution: 35000
Column name: Acclaim RSLC C18 2.2um, 2.1x100mm, Thermo
Retention time: 5.584 min
Base peak: 240.1149
Precursor m/z: 240.115
Precursor type: [M+H]+
m/z	relative intensity	assigned
131.072	8	C9H9N+
166.0407	45	C9H9ClN+
167.0245	20	C9H8ClO+
168.0374	12	C9H9[37]ClN+
184.0516	999	C9H11ClNO+
185.0546	78	C8[13]CH11ClNO+
186.0486	279	C9H11[37]ClNO+
240.1147	841	C13H19ClNO+
241.1178	101	C12[13]CH19ClNO+
242.1118	215	C13H19[37]ClNO+
