Mass spectrum: Imidacloprid-urea; LC-ESI-QTOF; MS2; CE: 50 eV; R=35000; [M+H]+
Name: Imidacloprid-urea
Name: 1-[(6-chloropyridin-3-yl)methyl]imidazolidin-2-one
Formula: C9H10ClN3O
Exact mass: 211.0512396
SMILES: ClC1=NC=C(CN2CCNC2=O)C=C1
InChI: InChI=1S/C9H10ClN3O/c10-8-2-1-7(5-12-8)6-13-4-3-11-9(13)14/h1-2,5H,3-4,6H2,(H,11,14)
Instrument: Bruker maXis Impact
Instrument type: LC-ESI-QTOF
Ms type: MS2
Ion mode: POSITIVE
Ionization: ESI
Fragmentation mode: CID
Collision energy: 50 eV
Resolution: 35000
Column name: Acclaim RSLC C18 2.2um, 2.1x100mm, Thermo
Retention time: 4.679 min
Base peak: 212.0579
Precursor m/z: 212.0585
Precursor type: [M+H]+
m/z	relative intensity	assigned
114.0096	92	C5H5ClN+
116.0078	34	C5H5[37]ClN+
116.0385	18	C6H9Cl+
116.0497	20	C8H6N+
117.0439	31	C7H5N2+
118.0523	57	C7H6N2+
119.0589	47	C7H7N2+
120.066	21	C7H8N2+
121.075	19	C7H9N2+
123.9943	15	C9O+
126.0097	831	C6H5ClN+
127.017	999	C6H6ClN+
128.0063	305	C6H5[37]ClN+
128.0247	641	C6H7ClN+
129.0143	413	C6H6[37]ClN+
129.0429	20	C8H5N2+
130.0222	258	C6H7[37]ClN+
131.0592	119	C8H7N2+
132.0665	54	C8H8N2+
133.0751	111	C8H9N2+
135.0531	18	C7H7N2O+
139.0047	19	C9HNO+
140.0277	22	C7H7ClN+
141.02	302	C6H6ClN2+
142.0056	19	C6H5ClNO+
142.0258	43	C9H4NO+
143.0176	96	C6H6[37]ClN2+
144.0199	98	C6H7ClNO+
146.0162	42	C6H7[37]ClNO+
151.0049	51	C7H4ClN2+
152.0132	36	C7H5ClN2+
153.0011	23	C7H4[37]ClN2+
153.0202	97	C7H6ClN2+
154.0087	21	C7H5[37]ClN2+
154.0286	24	C7H7ClN2+
155.018	30	C7H6[37]ClN2+
155.0342	16	C7H8ClN2+
158.0708	14	C9H8N3+
165.0197	29	C8H6ClN2+
168.0203	15	C8H7ClNO+
169.0144	36	C7H6ClN2O+
176.0815	29	C9H10N3O+
194.048	23	C9H9ClN3+
