Mass spectrum: 2-Acetonaphthone; LC-ESI-QTOF; MS2; CE: Ramp 17.0-25.4 eV; R=35000; [M+H]+
Name: 2-Acetonaphthone
Name: 2-Acetylnaphthalene
Name: 1-naphthalen-2-ylethanone
Formula: C12H10O
Exact mass: 170.0731649
SMILES: CC(=O)C1=CC=C2C=CC=CC2=C1
InChI: InChI=1S/C12H10O/c1-9(13)11-7-6-10-4-2-3-5-12(10)8-11/h2-8H,1H3
Instrument: Bruker maXis Impact
Instrument type: LC-ESI-QTOF
Ms type: MS2
Ion mode: POSITIVE
Ionization: ESI
Fragmentation mode: CID
Collision energy: Ramp 17.0-25.4 eV
Resolution: 35000
Column name: Acclaim RSLC C18 2.2um, 2.1x100mm, Thermo
Retention time: 6.413 min
Base peak: 102.1286
Precursor m/z: 171.0804
Precursor type: [M+H]+
m/z	relative intensity	assigned
55.0532	999	C4H7+
