Mass spectrum: 2,2`-Methylenebis(6-tert-butyl-p-cresol); GC-APCI-QTOF; MS2; CE: 50 eV; R=35000; [M]+
Name: 2,2`-Methylenebis(6-tert-butyl-p-cresol)
Formula: C23H32O2
Exact mass: 340.2402
SMILES: CC1=CC(=C(C(=C1)C(C)(C)C)O)CC2=C(C(=CC(=C2)C)C(C)(C)C)O
InChI: InChI=1S/C23H32O2/c1-14-9-16(20(24)18(11-14)22(3,4)5)13-17-10-15(2)12-19(21(17)25)23(6,7)8/h9-12,24-25H,13H2,1-8H3
Instrument: Bruker 450 GC coupled to maXis Impact
Instrument type: GC-APCI-QTOF
Ms type: MS2
Ion mode: POSITIVE
Ionization: APCI
Fragmentation mode: CID
Collision energy: 50 eV
Resolution: 35000
Column name: Rxi-5Sil MS column, 30m, 0.25mm i.d., 0.25Âµm film thickness, Restek
Retention time: 19.974 min
Base peak: 309.2768
Precursor m/z: 340.2397
Precursor type: [M]+
m/z	relative intensity	assigned
53.0391	46	C4H5+
55.0184	146	C3H3O+
55.0548	999	C4H7+
57.0706	220	C4H9+
59.0486	50	C3H7O+
60.0212	16	C2H4O2+
61.0288	19	C2H5O2+
65.0397	30	C5H5+
67.0542	594	C5H7+
69.034	55	C4H5O+
69.0706	248	C5H9+
71.0486	51	C4H7O+
71.0851	34	C5H11+
73.028	29	C3H5O2+
79.0542	202	C6H7+
81.0697	232	C6H9+
83.0483	55	C5H7O+
83.0859	84	C6H11+
83.1082	16	C3H15O2+
91.0553	80	C7H7+
93.0693	80	C7H9+
95.0857	115	C7H11+
97.0993	22	C7H13+
105.0694	16	C8H9+
107.0869	19	C8H11+
109.0626	16	C7H9O+
117.0697	57	C9H9+
119.086	96	C9H11+
120.0911	22	C9H12+
121.0649	25	C8H9O+
121.1015	55	C9H13+
123.0823	48	C8H11O+
123.1184	26	C9H15+
125.0973	26	C8H13O+
127.0763	25	C7H11O2+
129.0701	29	C10H9+
130.078	16	C10H10+
131.0863	44	C10H11+
133.101	41	C10H13+
135.0815	46	C9H11O+
135.1179	33	C10H15+
136.0871	26	C9H12O+
137.0976	58	C9H13O+
145.1044	31	C11H13+
147.0825	30	C10H11O+
161.1343	17	C12H17+
