Mass spectrum: Ranitidine-N-oxide; LC-ESI-QTOF; MS2; CE: 40 eV; R=35000; [M+H]+
Name: Ranitidine-N-oxide
Name: Ranitidine N-oxide
Name: N,N-dimethyl-1-[5-[2-[[(E)-1-(methylamino)-2-nitroethenyl]amino]ethylsulfanylmethyl]furan-2-yl]methanamine oxide
Formula: C13H22N4O4S
Exact mass: 330.1361762
SMILES: CN\C(NCCSCC1=CC=C(C[N+](C)(C)[O-])O1)=C/[N+]([O-])=O
InChI: InChI=1S/C13H22N4O4S/c1-14-13(8-16(18)19)15-6-7-22-10-12-5-4-11(21-12)9-17(2,3)20/h4-5,8,14-15H,6-7,9-10H2,1-3H3/b13-8+
Instrument: Bruker maXis Impact
Instrument type: LC-ESI-QTOF
Ms type: MS2
Ion mode: POSITIVE
Ionization: ESI
Fragmentation mode: CID
Collision energy: 40 eV
Resolution: 35000
Column name: Acclaim RSLC C18 2.2um, 2.1x100mm, Thermo
Retention time: 3.3 min
Base peak: 331.1438
Precursor m/z: 331.1435
Precursor type: [M+H]+
m/z	relative intensity	assigned
115.0321	5	C4H7N2S+
117.0481	12	C4H9N2S+
118.0315	12	C4H8NOS+
118.0642	11	H12N3O2S+
120.0805	8	C8H10N+
122.0591	5	C5H6N4+
122.0817	13	C4H12NO3+
123.0261	5	C7H7S+
124.075	43	C5H8N4+
125.0049	999	C4H3N3S+
127.0005	35	C6H5O[34]S+
129.0473	46	C5H9N2S+
130.0552	676	C5H10N2S+
131.0594	39	C4[13]CH10N2S+
133.0747	6	H13N4O2S+
134.0584	17	C6H6N4+
134.0826	5	H14N4O2S+
135.0254	20	C8H7S+
135.0908	188	H15N4O2S+
136.0744	10	C6H8N4+
137.0816	5	C6H9N4+
137.1065	15	H17N4O2S+
138.0129	6	C7H6OS+
139.0309	6	C3H9NO3S+
140.0521	6	C7H10NS+
145.0415	11	C2H11NO4S+
146.0588	6	C7H6N4+
146.0828	8	CH14N4O2S+
147.0667	39	C7H7N4+
147.0909	19	CH15N4O2S+
148.0747	273	CH14N3O3S+
149.0705	83	H13N4O3S+
149.1062	13	CH17N4O2S+
150.0361	11	C8H8NS+
150.074	6	CH14N3O3[34]S+
150.0912	7	C9H12NO+
151.0203	28	C6H5N3S+
152.0276	11	C6H6N3S+
152.0522	5	C8H10NS+
153.0357	20	C6H7N3S+
154.054	10	C4H12NO3S+
159.0449	9	C10H7O2+
159.0911	9	C2H15N4O2S+
160.075	14	C2H14N3O3S+
160.0975	6	C7H14NO3+
161.1066	5	C2H17N4O2S+
163.1224	12	C2H19N4O2S+
165.1012	248	CH17N4O3S+
167.0628	51	C8H11N2S+
168.0659	6	C7[13]CH11N2S+
170.0629	12	C8H12NOS+
177.1014	228	C2H17N4O3S+
178.0313	59	C7H6N4S+
179.0362	6	C6[13]CH6N4S+
179.1155	7	C7H17NO4+
181.0785	96	C9H13N2S+
182.082	8	C8[13]CH13N2S+
191.1172	226	C3H19N4O3S+
193.054	27	C8H9N4S+
194.062	22	C8H10N4S+
195.0948	5	C10H15N2S+
207.0934	6	C8H17NO3S+
209.0736	14	C10H13N2OS+
223.0889	24	C11H15N2OS+
224.0971	14	C11H16N2OS+
