Mass spectrum: Triethyl citrate; GC-APCI-QTOF; MS2; CE: 40 eV; R=35000; [M]+
Name: Triethyl citrate
Formula: C12H20O7
Exact mass: 276.1209
SMILES: CCOC(=O)CC(CC(=O)OCC)(C(=O)OCC)O
InChI: InChI=1S/C12H20O7/c1-4-17-9(13)7-12(16,11(15)19-6-3)8-10(14)18-5-2/h16H,4-8H2,1-3H3
Instrument: Bruker 450 GC coupled to maXis Impact
Instrument type: GC-APCI-QTOF
Ms type: MS2
Ion mode: POSITIVE
Ionization: APCI
Fragmentation mode: CID
Collision energy: 40 eV
Resolution: 35000
Column name: Rxi-5Sil MS column, 30m, 0.25mm i.d., 0.25Âµm film thickness, Restek
Retention time: 15.004 min
Base peak: 189.056
Precursor m/z: 276.1204
Precursor type: [M]+
m/z	relative intensity	assigned
64.0307	20	C5H4+
115.0547	45	C9H7+
116.0629	26	C9H8+
117.0714	46	C9H9+
119.0567	16	CH11O6+
121.0284	185	C7H5O2+
122.0338	17	C7H6O2+
128.064	28	C10H8+
129.0684	45	C10H9+
131.0492	99	C9H7O+
132.0215	21	C8H4O2+
132.056	54	C9H8O+
133.063	29	C9H9O+
141.0694	33	C11H9+
143.0903	28	C4H15O5+
144.0587	41	C10H8O+
145.0657	40	C10H9O+
147.0442	31	C9H7O2+
149.0259	999	C8H5O3+
150.0288	82	C8H6O3+
154.0792	20	C12H10+
155.0879	18	C12H11+
157.0666	25	C11H9O+
167.038	29	C8H7O4+
169.0683	17	C5H13O6+
171.0851	44	C5H15O6+
172.0861	25	C12H12O+
