Mass spectrum: Nicosulfuron; LC-ESI-QTOF; MS2; CE: Ramp 23.8-35.7 eV; R=35000; [M+H]+
Name: Nicosulfuron
Name: 2-[(4,6-dimethoxypyrimidin-2-yl)carbamoylsulfamoyl]-N,N-dimethylpyridine-3-carboxamide
Formula: C15H18N6O6S
Exact mass: 410.1008533
SMILES: COC1=CC(OC)=NC(NC(=O)NS(=O)(=O)C2=NC=CC=C2C(=O)N(C)C)=N1
InChI: InChI=1S/C15H18N6O6S/c1-21(2)13(22)9-6-5-7-16-12(9)28(24,25)20-15(23)19-14-17-10(26-3)8-11(18-14)27-4/h5-8H,1-4H3,(H2,17,18,19,20,23)
Instrument: Bruker maXis Impact
Instrument type: LC-ESI-QTOF
Ms type: MS2
Ion mode: POSITIVE
Ionization: ESI
Fragmentation mode: CID
Collision energy: Ramp 23.8-35.7 eV
Resolution: 35000
Column name: Acclaim RSLC C18 2.2um, 2.1x100mm, Thermo
Retention time: 6.725 min
Base peak: 411.108
Precursor m/z: 411.1081
Precursor type: [M+H]+
m/z	relative intensity	assigned
83.0236	6	C3H3N2O+
106.0293	23	H10O4S+
139.0499	15	C6H7N2O2+
156.0764	118	C6H10N3O2+
157.0604	36	C6H9N2O3+
157.08	9	C5[13]CH10N3O2+
182.0562	999	C9H10O4+
183.0586	121	C8[13]CH10O4+
184.06	12	C9H10O3[18]O+
213.0333	418	C8H9N2O3S+
214.0358	50	C7[13]CH9N2O3S+
215.0301	17	C8H9N2O3[34]S+
256.0386	15	C9H10N3O4S+
259.0828	27	C12H11N4O3+
366.048	8	C13H12N5O6S+
