Mass spectrum: Dexamethasone-21-acetate; LC-ESI-QTOF; MS2; CE: 30 eV; R=35000; [M+H]+
Name: Dexamethasone-21-acetate
Name: Dexamethasone acetate
Name: [2-[(8S,9R,10S,11S,13S,14S,16R,17R)-9-fluoro-11,17-dihydroxy-10,13,16-trimethyl-3-oxo-6,7,8,11,12,14,15,16-octahydrocyclopenta[a]phenanthren-17-yl]-2-oxoethyl] acetate
Formula: C24H31FO6
Exact mass: 434.2104669
SMILES: C[C@@H]1C[C@H]2[C@@H]3CCC4=CC(=O)C=C[C@]4(C)[C@@]3(F)[C@@H](O)C[C@]2(C)[C@@]1(O)C(=O)COC(C)=O
InChI: InChI=1S/C24H31FO6/c1-13-9-18-17-6-5-15-10-16(27)7-8-21(15,3)23(17,25)19(28)11-22(18,4)24(13,30)20(29)12-31-14(2)26/h7-8,10,13,17-19,28,30H,5-6,9,11-12H2,1-4H3/t13-,17+,18+,19+,21+,22+,23+,24+/m1/s1
Instrument: Bruker maXis Impact
Instrument type: LC-ESI-QTOF
Ms type: MS2
Ion mode: POSITIVE
Ionization: ESI
Fragmentation mode: CID
Collision energy: 30 eV
Resolution: 35000
Column name: Acclaim RSLC C18 2.2um, 2.1x100mm, Thermo
Retention time: 8.708 min
Base peak: 435.2173
Precursor m/z: 435.2177
Precursor type: [M+H]+
m/z	relative intensity	assigned
115.0529	6	C9H7+
117.0696	11	C9H9+
119.0853	19	C9H11+
121.0641	125	C8H9O+
122.0673	15	C7[13]CH9O+
123.0428	6	C7H7O2+
123.0796	21	C8H11O+
125.0586	32	C7H9O2+
127.0383	8	C6H7O3+
127.0739	7	C7H11O2+
128.0615	12	C10H8+
129.0693	9	C10H9+
131.0848	35	C10H11+
132.0561	7	C9H8O+
133.0638	78	C9H9O+
133.1014	7	C10H13+
135.0435	6	C8H7O2+
135.0793	105	C9H11O+
136.0819	10	C8[13]CH11O+
137.0588	56	C8H9O2+
138.0609	6	C7[13]CH9O2+
139.0375	5	C7H7O3+
139.074	40	C8H11O2+
141.0535	22	C7H9O3+
141.0695	8	C11H9+
143.084	45	C11H11+
145.0639	55	C10H9O+
145.0997	15	C11H13+
146.0699	8	C9[13]CH9O+
147.0794	508	C10H11O+
148.0826	53	C9[13]CH11O+
149.0584	14	C9H9O2+
151.038	35	C8H7O3+
151.074	97	C9H11O2+
152.0779	11	C8[13]CH11O2+
153.0529	28	C8H9O3+
153.0898	16	C9H13O2+
155.0693	27	C8H11O3+
155.0843	23	C12H11+
157.0641	7	C11H9O+
157.1007	14	C12H13+
158.0712	16	C11H10O+
159.0791	250	C11H11O+
160.0833	30	C10[13]CH11O+
161.0586	48	C10H9O2+
161.0946	198	C11H13O+
162.0606	7	C9[13]CH9O2+
162.0978	23	C10[13]CH13O+
163.0742	37	C10H11O2+
165.0705	12	C10H10FO+
165.0904	9	C10H13O2+
167.069	8	C9H11O3+
167.0863	9	C10H12FO+
169.0634	35	C12H9O+
169.0846	16	C9H13O3+
169.101	14	C13H13+
171.0792	336	C12H11O+
172.083	46	C11[13]CH11O+
173.0949	280	C12H13O+
174.0985	30	C11[13]CH13O+
175.0737	17	C11H11O2+
175.0905	7	C12H12F+
175.111	8	C12H15O+
177.0905	14	C11H13O2+
179.0695	35	C10H11O3+
179.085	15	C14H11+
181.1002	16	C14H13+
182.0718	6	C13H10O+
183.0788	36	C13H11O+
183.1152	14	C14H15+
184.0864	12	C13H12O+
185.0597	12	C12H9O2+
185.0949	139	C13H13O+
186.0995	29	C12[13]CH13O+
187.0741	210	C12H11O2+
187.1103	53	C13H15O+
188.0774	29	C11[13]CH11O2+
188.1156	9	C12[13]CH15O+
189.0727	8	C12H10FO+
189.0896	26	C12H13O2+
191.0856	10	C15H11+
192.0904	6	C15H12+
193.0846	8	C11H13O3+
193.0985	14	C15H13+
195.079	22	C14H11O+
195.1159	23	C15H15+
196.0859	13	C14H12O+
197.0951	127	C14H13O+
197.1314	109	C15H17+
198.0996	32	C13[13]CH13O+
198.1348	16	C14[13]CH17+
199.0734	12	C13H11O2+
199.1103	123	C14H15O+
200.1149	14	C13[13]CH15O+
201.0893	24	C13H13O2+
201.126	15	C14H17O+
203.0862	5	C13H12FO+
203.1052	15	C13H15O2+
205.0833	5	C12H13O3+
205.0992	18	C16H13+
207.081	6	C15H11O+
207.1155	47	C16H15+
208.0883	16	C15H12O+
208.1206	12	C15[13]CH15+
209.0952	108	C15H13O+
209.1308	11	C16H17+
210.1017	42	C15H14O+
211.0754	10	C14H11O2+
211.1108	146	C15H15O+
212.1163	46	C15H16O+
213.1266	999	C15H17O+
214.1296	150	C14[13]CH17O+
215.1053	16	C14H15O2+
215.1421	100	C15H19O+
216.1449	19	C14[13]CH19O+
217.0849	7	C13H13O3+
217.1003	5	C17H13+
218.107	6	C17H14+
219.0802	7	C16H11O+
219.1153	16	C17H15+
220.0896	5	C13H13FO2+
220.1218	6	C17H16+
221.0947	46	C16H13O+
221.1312	40	C17H17+
222.1019	35	C16H14O+
222.1355	10	C16[13]CH17+
223.111	336	C16H15O+
224.1174	118	C16H16O+
225.1266	682	C16H17O+
226.1301	114	C15[13]CH17O+
227.1057	35	C15H15O2+
227.1411	88	C16H19O+
228.1087	6	C14[13]CH15O2+
228.1454	12	C15[13]CH19O+
229.0996	5	C18H13+
229.1212	8	C15H17O2+
229.1566	7	C16H21O+
230.109	5	C18H14+
231.1014	12	C14H15O3+
231.1146	13	C18H15+
232.1241	7	C18H16+
233.0958	23	C17H13O+
233.1323	34	C18H17+
234.1028	18	C17H14O+
234.1359	10	C17[13]CH17+
235.1107	164	C17H15O+
235.1475	56	C18H19+
236.1157	39	C16[13]CH15O+
236.1524	12	C17[13]CH19+
237.0892	23	C16H13O2+
237.1262	273	C17H17O+
238.0964	8	C16H14O2+
238.1301	49	C16[13]CH17O+
239.1057	40	C16H15O2+
239.142	220	C17H19O+
240.1108	9	C15[13]CH15O2+
240.1457	45	C16[13]CH19O+
241.1214	108	C16H17O2+
241.157	23	C17H21O+
242.1093	5	C19H14+
242.127	35	C16H18O2+
242.1631	7	C16[13]CH21O+
243.1168	15	C19H15+
243.1365	29	C16H19O2+
244.1221	8	C19H16+
244.1391	5	C15[13]CH19O2+
245.0953	12	C18H13O+
245.131	41	C19H17+
246.1029	20	C18H14O+
246.1347	7	C18[13]CH17+
247.1103	40	C18H15O+
247.1476	28	C19H19+
248.1185	43	C18H16O+
248.1525	5	C18[13]CH19+
249.1261	136	C18H17O+
250.1322	42	C17[13]CH17O+
251.1058	57	C17H15O2+
251.1424	238	C15H20FO2+
252.1094	12	C16[13]CH15O2+
252.1478	64	C14[13]CH20FO2+
253.1218	179	C17H17O2+
253.158	263	C18H21O+
254.1241	29	C16[13]CH17O2+
254.1615	51	C17[13]CH21O+
255.1003	7	C16H15O3+
255.1368	39	C17H19O2+
255.1683	6	C16[13]C2H21O+
256.1405	5	C16[13]CH19O2+
257.1319	30	C20H17+
258.1034	6	C19H14O+
258.1353	7	C19[13]CH17+
259.1105	28	C19H15O+
260.1191	54	C19H16O+
261.1265	174	C19H17O+
262.0978	5	C18H14O2+
262.1329	79	C19H18O+
263.1426	594	C19H19O+
264.1136	14	C18H16O2+
264.1459	115	C18[13]CH19O+
265.1208	46	C18H17O2+
265.1578	170	C19H21O+
266.1264	10	C17[13]CH17O2+
266.162	37	C18[13]CH21O+
267.1376	60	C15H20FO3+
268.1429	15	C14[13]CH20FO3+
269.1177	17	C17H17O3+
269.1537	44	C18H21O2+
270.1027	8	C20H14O+
270.1186	5	C17H18O3+
270.1557	5	C17[13]CH21O2+
271.1696	8	C18H23O2+
273.1259	41	C17H18FO2+
274.135	11	C16[13]CH18FO2+
275.1427	283	C20H19O+
276.1137	9	C19H16O2+
276.1454	75	C19[13]CH19O+
277.1217	61	C19H17O2+
277.1548	15	C20H21O+
278.1275	45	C19H18O2+
279.1367	194	C19H19O2+
280.1427	91	C19H20O2+
281.1528	273	C19H21O2+
282.1564	63	C18[13]CH21O2+
283.1675	60	C19H23O2+
284.1529	7	C22H20+
284.171	11	C18[13]CH23O2+
285.1254	23	C21H17O+
286.1327	10	C21H18O+
288.116	16	C17H17FO3+
289.1178	8	C20H17O2+
290.1266	6	C20H18O2+
291.1379	95	C20H19O2+
292.1406	22	C19[13]CH19O2+
293.1528	386	C20H21O2+
294.1568	86	C19[13]CH21O2+
295.1325	53	C19H19O3+
295.1578	15	C13H24FO6+
296.1374	16	C18[13]CH19O3+
297.1213	6	C22H17O+
297.1477	95	C19H21O3+
298.1511	19	C18[13]CH21O3+
299.1414	7	C22H19O+
299.1592	10	C19H23O3+
301.1588	14	C22H21O+
303.137	162	C21H19O2+
304.1402	38	C20[13]CH19O2+
305.1448	6	C14H22FO6+
306.124	5	C20H18O3+
309.1463	60	C20H21O3+
310.1496	17	C19[13]CH21O3+
311.1634	256	C20H23O3+
312.1678	52	C19[13]CH23O3+
313.143	9	C19H21O4+
313.1673	12	C16H25O6+
319.133	5	C21H19O3+
321.1483	288	C21H21O3+
322.1509	63	C20[13]CH21O3+
323.1503	11	C19[13]C2H21O3+
325.1436	5	C20H21O4+
327.122	7	C19H19O5+
327.1604	8	C17H24FO5+
329.1738	48	C24H22F+
330.1754	14	C23[13]CH22F+
331.1693	6	C23H23O2+
339.1589	422	C21H23O4+
340.1624	98	C20[13]CH23O4+
341.1608	21	C24H21O2+
342.1612	7	C23[13]CH21O2+
357.1689	45	C21H25O5+
358.1741	11	C20[13]CH25O5+
359.1659	11	C21H24FO4+
397.2003	239	C24H29O5+
398.2043	69	C23[13]CH29O5+
399.2052	10	C22[13]C2H29O5+
415.212	8	C24H31O6+
417.2091	5	C24H30FO5+
