Mass spectrum: Sudan I; LC-ESI-QTOF; MS2; CE: RAMP 19.8-29.7 eV; R=35000; [M+H]+
Name: Sudan I
Formula: C16H12N2O
Exact mass: 248.0949630
SMILES: c1ccc(cc1)/N=N/c2c3ccccc3ccc2O
InChI: InChI=1S/C16H12N2O/c19-15-11-10-12-6-4-5-9-14(12)16(15)18-17-13-7-2-1-3-8-13/h1-11,19H/b18-17+
Instrument: Bruker maXis Impact
Instrument type: LC-ESI-QTOF
Ms type: MS2
Ion mode: POSITIVE
Ionization: ESI
Fragmentation mode: CID
Collision energy: RAMP 19.8-29.7 eV
Resolution: 35000
Column name: Acclaim RSLC C18 2.2um, 2.1x100mm, Thermo
Retention time: 13.480 min
Base peak: 60.0546
Precursor m/z: 249.1022
Precursor type: [M+H]+
m/z	relative intensity	assigned
59.0484	50	C3H7O+
93.0559	246	C6H7N+
119.0832	38	C9H11+
128.0481	471	C9H6N+
146.0592	100	C9H8NO+
156.0427	999	C10H6NO+
157.0468	109	C9[13]CH6NO+
175.0545	30	C14H7+
192.0612	30	C14H8O+
204.0802	76	C15H10N+
231.0912	159	C16H11N2+
232.0743	202	C16H10NO+
232.0982	677	C16H12N2+
233.0826	91	C16H11NO+
233.1	112	C15[13]CH12N2+
248.0928	50	C16H12N2O+
249.1	174	C16H13N2O+
