Mass spectrum: Isoproturon; LC-ESI-QTOF; MS2; CE: 50 eV; R=35000; [M+H]+
Name: Isoproturon
Name: 1,1-dimethyl-3-(4-propan-2-ylphenyl)urea
Formula: C12H18N2O
Exact mass: 206.1419132
SMILES: CC(C)C1=CC=C(NC(=O)N(C)C)C=C1
InChI: InChI=1S/C12H18N2O/c1-9(2)10-5-7-11(8-6-10)13-12(15)14(3)4/h5-9H,1-4H3,(H,13,15)
Instrument: Bruker maXis Impact
Instrument type: LC-ESI-QTOF
Ms type: MS2
Ion mode: POSITIVE
Ionization: ESI
Fragmentation mode: CID
Collision energy: 50 eV
Resolution: 35000
Column name: Acclaim RSLC C18 2.2um, 2.1x100mm, Thermo
Retention time: 8.2 min
Base peak: 207.1486
Precursor m/z: 207.1492
Precursor type: [M+H]+
m/z	relative intensity	assigned
115.0531	482	C9H7+
117.0564	491	C8H7N+
118.0649	999	C8H8N+
119.0706	927	C8H9N+
134.0958	747	C9H12N+
