Mass spectrum: Diglyme; LC-ESI-QTOF; MS2; CE: Ramp 15.7-23.5 eV; R=35000; [M+H]+
Name: Diglyme
Name: 1-methoxy-2-(2-methoxyethoxy)ethane
Formula: C6H14O3
Exact mass: 134.09429431
SMILES: COCCOCCOC
InChI: InChI=1S/C6H14O3/c1-7-3-5-9-6-4-8-2/h3-6H2,1-2H3
Instrument: Bruker maXis Impact
Instrument type: LC-ESI-QTOF
Ms type: MS2
Ion mode: POSITIVE
Ionization: ESI
Fragmentation mode: CID
Collision energy: Ramp 15.7-23.5 eV
Resolution: 35000
Column name: Acclaim RSLC C18 2.2um, 2.1x100mm, Thermo
Retention time: 3.904 min
Base peak: 181.0711
Precursor m/z: 135.1016
Precursor type: [M+H]+
m/z	relative intensity	assigned
59.0481	999	C3H7O+
