Mass spectrum: 4-Isopropylantipyrine; LC-ESI-QTOF; MS2; CE: 40 eV; R=35000; [M+H]+
Name: 4-Isopropylantipyrine
Name: Propyphenazone
Name: 1,5-dimethyl-2-phenyl-4-propan-2-ylpyrazol-3-one
Formula: C14H18N2O
Exact mass: 230.1419132
SMILES: Cc1c(c(=O)n(n1C)c2ccccc2)C(C)C
InChI: InChI=1S/C14H18N2O/c1-10(2)13-11(3)15(4)16(14(13)17)12-8-6-5-7-9-12/h5-10H,1-4H3
Instrument: Bruker maXis Impact
Instrument type: LC-ESI-QTOF
Ms type: MS2
Ion mode: POSITIVE
Ionization: ESI
Fragmentation mode: CID
Collision energy: 40 eV
Resolution: 35000
Column name: Acclaim RSLC C18 2.2um, 2.1x100mm, Thermo
Retention time: 7.461 min
Base peak: 231.1495
Precursor m/z: 231.1492
Precursor type: [M+H]+
m/z	relative intensity	assigned
112.112	6	C7H14N+
115.0534	110	C9H7+
116.0493	13	C8H6N+
116.0567	14	C8[13]CH7+
117.0566	86	C8H7N+
117.0693	78	C9H9+
118.0644	242	C8H8N+
119.0689	34	C7[13]CH8N+
120.0434	45	C7H6NO+
120.0798	178	C8H10N+
121.083	22	C7[13]CH10N+
122.0594	22	C7H8NO+
123.0538	5	C6H7N2O+
123.067	7	C7H9NO+
123.0906	22	C7H11N2+
124.0748	145	C7H10NO+
125.077	14	C6[13]CH10NO+
125.1067	7	C7H13N2+
127.0537	6	C10H7+
128.0489	26	C9H6N+
128.0603	19	C10H8+
128.1056	8	C7H14NO+
129.0558	28	C9H7N+
129.0686	24	C10H9+
130.0642	472	C9H8N+
131.0717	405	C9H9N+
132.0435	14	C8H6NO+
132.0792	179	C9H10N+
133.051	89	C8H7NO+
133.0753	91	C8H9N2+
134.0557	12	C7[13]CH7NO+
134.0779	6	C7[13]CH9N2+
134.0948	56	C9H12N+
135.0549	25	C7H7N2O+
135.0984	7	C8[13]CH12N+
136.0746	10	C8H10NO+
138.0899	26	C8H12NO+
139.0854	36	C7H11N2O+
140.0484	28	C10H6N+
141.0552	11	C10H7N+
141.0677	6	C11H9+
142.0639	55	C10H8N+
143.0718	146	C10H9N+
144.0797	430	C10H10N+
145.0639	90	C10H9O+
145.0755	86	C9H9N2+
146.0593	21	C9H8NO+
146.0828	198	C9H10N2+
146.095	265	C10H12N+
147.0666	12	C9H9NO+
147.0903	86	C9H11N2+
148.0745	25	C9H10NO+
148.0928	9	C8[13]CH11N2+
148.1105	53	C10H14N+
149.115	6	C9[13]CH14N+
153.1013	5	C8H13N2O+
154.0652	11	C11H8N+
155.0592	17	C10H7N2+
155.0735	6	C11H9N+
156.0798	61	C11H10N+
157.0508	36	C10H7NO+
157.0874	59	C11H11N+
158.0585	52	C10H8NO+
158.095	98	C11H12N+
159.0659	28	C10H9NO+
159.0911	67	C10H11N2+
160.075	31	C10H10NO+
160.098	52	C10H12N2+
161.106	67	C10H13N2+
162.0908	5	C10H12NO+
162.1094	8	C9[13]CH13N2+
162.1266	6	C11H16N+
167.0717	6	C12H9N+
170.0586	22	C11H8NO+
170.0953	12	C12H12N+
171.0541	39	C10H7N2O+
171.0909	15	C11H11N2+
172.0746	77	C11H10NO+
172.1109	38	C12H14N+
173.0703	42	C10H9N2O+
173.1064	44	C11H13N2+
174.0782	111	C10H10N2O+
174.111	6	C10[13]CH13N2+
175.0809	13	C9[13]CH10N2O+
183.0914	5	C12H11N2+
184.0745	23	C12H10NO+
185.07	50	C11H9N2O+
186.0776	161	C11H10N2O+
187.0847	53	C11H11N2O+
187.122	18	C12H15N2+
188.093	38	C11H12N2O+
188.1282	8	C12H16N2+
189.1014	805	C11H13N2O+
190.1043	91	C10[13]CH13N2O+
191.1079	8	C9[13]C2H13N2O+
197.106	11	C13H13N2+
199.0866	11	C12H11N2O+
200.0948	8	C12H12N2O+
201.1016	999	C12H13N2O+
202.1048	128	C11[13]CH13N2O+
203.1086	6	C10[13]C2H13N2O+
203.1522	10	C13H19N2+
215.1167	31	C13H15N2O+
216.1238	17	C13H16N2O+
229.133	16	C14H17N2O+
231.1489	301	C14H19N2O+
232.1522	47	C13[13]CH19N2O+
