Mass spectrum: Dieldrin; GC-APCI-QTOF; MS2; CE: 30 eV; R=35000; [M]+
Name: Dieldrin
Name: (1R,2S,3S,6R,7R,8S,9S,11R)-3,4,5,6,13,13-hexachloro-10-oxapentacyclo[6.3.1.13,6.02,7.09,11]tridec-4-ene
Formula: C12H8Cl6O
Exact mass: 377.8706
SMILES: ClC1=C(Cl)[C@]2(Cl)[C@@H]3[C@@H]4C[C@@H]([C@H]5O[C@@H]45)[C@@H]3[C@@]1(Cl)C2(Cl)Cl
InChI: InChI=1S/C12H8Cl6O/c13-8-9(14)11(16)5-3-1-2(6-7(3)19-6)4(5)10(8,15)12(11,17)18/h2-7H,1H2/t2-,3+,4+,5-,6-,7+,10+,11-
Instrument: Bruker 450 GC coupled to maXis Impact
Instrument type: GC-APCI-QTOF
Ms type: MS2
Ion mode: POSITIVE
Ionization: APCI
Fragmentation mode: CID
Collision energy: 30 eV
Resolution: 35000
Column name: Rxi-5Sil MS column, 30m, 0.25mm i.d., 0.25Âµm film thickness (Restek)
Retention time: 20.314 min
Base peak: 377.8687
Precursor m/z: 377.8701
Precursor type: [M]+
m/z	relative intensity	assigned
146.973	813	C6H5Cl2+
226.8952	384	C7H3Cl4+
228.8891	397	C4H6Cl5+
242.9505	999	C11H6Cl3+
253.9409	436	C12H5Cl3+
255.9397	393	C9H8Cl4+
260.857	531	C7H2Cl5+
262.8555	518	C4H5Cl6+
276.8686	410	C5H7Cl6+
278.9116	380	C8H8Cl5+
278.9264	371	C11H7Cl4+
288.9104	605	C12H5Cl4+
289.9222	739	C12H6Cl4+
290.9101	454	C9H8Cl5+
