Mass spectrum: Pantoprazole; LC-ESI-QTOF; MS2; CE: 50 eV; R=35000; [M+H]+
Name: Pantoprazole
Name: 6-(difluoromethoxy)-2-[(3,4-dimethoxypyridin-2-yl)methylsulfinyl]-1H-benzimidazole
Formula: C16H15F2N3O4S
Exact mass: 383.0751334
SMILES: COc1ccnc(c1OC)CS(=O)c2[nH]c3ccc(cc3n2)OC(F)F
InChI: InChI=1S/C16H15F2N3O4S/c1-23-13-5-6-19-12(14(13)24-2)8-26(22)16-20-10-4-3-9(25-15(17)18)7-11(10)21-16/h3-7,15H,8H2,1-2H3,(H,20,21)
Instrument: Bruker maXis Impact
Instrument type: LC-ESI-QTOF
Ms type: MS2
Ion mode: POSITIVE
Ionization: ESI
Fragmentation mode: CID
Collision energy: 50 eV
Resolution: 35000
Column name: Acclaim RSLC C18 2.2um, 2.1x100mm, Thermo
Retention time: 7.422 min
Base peak: 384.083
Precursor m/z: 384.0824
Precursor type: [M+H]+
m/z	relative intensity	assigned
122.0593	26	C7H8NO+
123.066	5	C4H11O4+
124.0747	7	C7H10NO+
136.0386	217	C7H6NO2+
137.0422	13	C6[13]CH6NO2+
138.0543	999	C7H8NO2+
139.0075	22	C3H3F2NO3+
139.0575	76	C6[13]CH8NO2+
152.0697	102	C8H10NO2+
153.0753	13	C7[13]CH10NO2+
154.0489	118	C5H10F2NS+
155.052	7	C4[13]CH10F2NS+
156.0102	9	C3H4F2NO4+
165.0107	13	C4H3F2N2O3+
167.0026	43	C10FN2+
168.0081	5	C9[13]CFN2+
168.0642	13	C6H12F2NS+
182.0261	17	C5H6F2NO4+
185.0513	10	C11H6FN2+
200.0369	67	C8H7FNO4+
201.0391	7	C7[13]CH7FNO4+
