Mass spectrum: trans-3-Hydroxycotinine; LC-ESI-QTOF; MS2; CE: 50 eV; R=35000; [M+H]+
Name: trans-3-Hydroxycotinine
Name: Hydroxycotinine
Name: (3R,5S)-3-hydroxy-1-methyl-5-pyridin-3-ylpyrrolidin-2-one
Formula: C10H12N2O2
Exact mass: 192.0898776
SMILES: CN1[C@@H](C[C@H](C1=O)O)c2cccnc2
InChI: InChI=1S/C10H12N2O2/c1-12-8(5-9(13)10(12)14)7-3-2-4-11-6-7/h2-4,6,8-9,13H,5H2,1H3/t8-,9+/m0/s1
Instrument: Bruker maXis Impact
Instrument type: LC-ESI-QTOF
Ms type: MS2
Ion mode: POSITIVE
Ionization: ESI
Fragmentation mode: CID
Collision energy: 50 eV
Resolution: 35000
Column name: Acclaim RSLC C18 2.2um, 2.1x100mm, Thermo
Retention time: 2.905 min
Base peak: 193.0963
Precursor m/z: 193.0972
Precursor type: [M+H]+
m/z	relative intensity	assigned
117.0571	999	C8H7N+
118.0648	942	C8H8N+
131.059	595	C8H7N2+
133.0759	341	C8H9N2+
134.058	740	C8H8NO+
