Mass spectrum: Dimethyl-5-sulfoisophthalate; LC-ESI-QTOF; MS2; CE: 20 eV; R=35000; [M-H]-
Name: Dimethyl-5-sulfoisophthalate
Name: 1,3-Benzenedicarboxylic acid, 5-sulfo-, 1,3-dimethyl ester
Name: 3,5-bis(methoxycarbonyl)benzenesulfonic acid
Formula: C10H10O7S
Exact mass: 274.0147237
SMILES: COC(=O)C1=CC(=CC(=C1)C(=O)OC)S(O)(=O)=O
InChI: InChI=1S/C10H10O7S/c1-16-9(11)6-3-7(10(12)17-2)5-8(4-6)18(13,14)15/h3-5H,1-2H3,(H,13,14,15)
Instrument: Bruker maXis Impact
Instrument type: LC-ESI-QTOF
Ms type: MS2
Ion mode: NEGATIVE
Ionization: ESI
Fragmentation mode: CID
Collision energy: 20 eV
Resolution: 35000
Column name: Acclaim RSLC C18 2.2um, 2.1x100mm, Thermo
Retention time: 4.547 min
Base peak: 273.0062
Precursor m/z: 273.0074
Precursor type: [M-H]-
m/z	relative intensity	assigned
135.0105	20	C4H7O3S-
150.0329	37	C8H6O3-
166.0253	23	C8H6O4-
209.0451	172	C10H9O5-
210.0478	28	C9[13]CH9O5-
245.9836	22	C8H6O7S-
273.0063	999	C10H9O7S-
274.0086	145	C9[13]CH9O7S-
275.0063	52	C10H9O7[34]S-
