Mass spectrum: 4-Androsten-11beta-ol-3,17-dione; LC-ESI-QTOF; MS2; CE: 30 eV; R=35000; [M+H]+
Name: 4-Androsten-11beta-ol-3,17-dione
Name: 11beta-Hydroxyandrostenedione
Name: (8S,9S,10R,11S,13S,14S)-11-hydroxy-10,13-dimethyl-2,6,7,8,9,11,12,14,15,16-decahydro-1H-cyclopenta[a]phenanthrene-3,17-dione
Formula: C19H26O3
Exact mass: 302.1881947
SMILES: C[C@]12C[C@H](O)[C@H]3[C@@H](CCC4=CC(=O)CC[C@]34C)[C@@H]1CCC2=O
InChI: InChI=1S/C19H26O3/c1-18-8-7-12(20)9-11(18)3-4-13-14-5-6-16(22)19(14,2)10-15(21)17(13)18/h9,13-15,17,21H,3-8,10H2,1-2H3/t13-,14-,15-,17+,18-,19-/m0/s1
Instrument: Bruker maXis Impact
Instrument type: LC-ESI-QTOF
Ms type: MS2
Ion mode: POSITIVE
Ionization: ESI
Fragmentation mode: CID
Collision energy: 30 eV
Resolution: 35000
Column name: Acclaim RSLC C18 2.2um, 2.1x100mm, Thermo
Retention time: 8.206 min
Base peak: 303.195
Precursor m/z: 303.1955
Precursor type: [M+H]+
m/z	relative intensity	assigned
115.0545	40	C9H7+
116.0593	11	C9H8+
117.069	94	C9H9+
119.0846	161	C9H11+
120.088	17	C8[13]CH11+
121.0639	724	C8H9O+
121.1004	88	C9H13+
122.0667	65	C7[13]CH9O+
123.0794	627	C8H11O+
124.0832	47	C7[13]CH11O+
128.0612	51	C10H8+
129.0688	128	C10H9+
130.0762	35	C10H10+
131.0846	289	C10H11+
132.0876	38	C9[13]CH11+
133.0635	39	C9H9O+
133.1004	306	C10H13+
134.1039	42	C9[13]CH13+
135.0792	218	C9H11O+
135.1158	113	C10H15+
136.0835	30	C8[13]CH11O+
136.1217	17	C9[13]CH15+
137.0956	76	C9H13O+
141.068	49	C11H9+
142.0763	44	C11H10+
143.0843	413	C11H11+
144.0891	56	C10[13]CH11+
145.1001	999	C11H13+
146.0729	12	C10H10O+
146.1036	120	C10[13]CH13+
147.0792	235	C10H11O+
147.1153	178	C11H15+
148.0852	42	C9[13]CH11O+
148.119	27	C10[13]CH15+
149.0948	151	C10H13O+
149.1316	11	C11H17+
150.1004	30	C10H14O+
151.1107	108	C10H15O+
153.0669	10	C12H9+
154.0758	11	C12H10+
155.0843	121	C12H11+
156.0913	36	C12H12+
157.0626	18	C11H9O+
157.0994	264	C12H13+
158.1047	48	C11[13]CH13+
159.0797	132	C11H11O+
159.1154	264	C12H15+
160.0853	20	C10[13]CH11O+
160.118	43	C11[13]CH15+
161.095	252	C11H13O+
161.1321	57	C12H17+
162.1	42	C10[13]CH13O+
163.1108	504	C11H15O+
164.1142	96	C10[13]CH15O+
165.0677	23	C13H9+
165.1276	13	C11H17O+
167.0846	63	C13H11+
168.0914	24	C13H12+
169.1001	196	C13H13+
170.1054	39	C12[13]CH13+
171.0792	47	C12H11O+
171.1157	313	C13H15+
172.1201	43	C12[13]CH15+
173.0949	190	C12H13O+
173.1301	78	C13H17+
174.1001	36	C11[13]CH13O+
175.1104	366	C12H15O+
176.1145	57	C11[13]CH15O+
177.09	15	C11H13O2+
177.1265	43	C12H17O+
179.086	37	C14H11+
179.1066	17	C11H15O2+
180.0922	15	C14H12+
181.1006	73	C14H13+
182.1053	25	C14H14+
183.0781	15	C13H11O+
183.1155	283	C14H15+
184.0847	9	C13H12O+
184.1211	53	C13[13]CH15+
185.0955	63	C13H13O+
185.1314	275	C14H17+
186.0994	16	C12[13]CH13O+
186.1352	40	C13[13]CH17+
187.1115	105	C13H15O+
187.1472	23	C14H19+
188.1158	21	C12[13]CH15O+
188.1519	10	C14H20+
189.1266	267	C13H17O+
190.1292	41	C12[13]CH17O+
191.1048	20	C12H15O2+
192.095	14	C15H12+
193.0989	44	C15H13+
194.1071	28	C15H14+
195.1156	85	C15H15+
196.1226	21	C15H16+
197.0953	175	C14H13O+
197.1315	166	C15H17+
198.1003	36	C13[13]CH13O+
198.1334	29	C14[13]CH17+
199.1105	115	C14H15O+
199.1465	153	C15H19+
200.1153	26	C13[13]CH15O+
200.1502	33	C14[13]CH19+
201.0921	9	C13H13O2+
201.127	119	C14H17O+
201.1635	39	C15H21+
202.1301	31	C13[13]CH17O+
202.1709	9	C14[13]CH21+
203.1078	9	C13H15O2+
203.1434	61	C14H19O+
204.1465	15	C13[13]CH19O+
205.1211	14	C13H17O2+
206.1106	17	C16H14+
207.116	88	C16H15+
208.1203	25	C15[13]CH15+
209.1307	281	C16H17+
210.1039	12	C15H14O+
210.1361	54	C15[13]CH17+
211.1108	87	C15H15O+
211.1465	74	C16H19+
212.1172	34	C15H16O+
213.1257	83	C15H17O+
213.1626	36	C16H21+
214.1317	22	C15H18O+
215.1425	77	C15H19O+
215.1773	34	C16H23+
216.1447	11	C14[13]CH19O+
216.1803	9	C15[13]CH23+
217.1225	13	C14H17O2+
217.1595	24	C15H21O+
220.1231	20	C17H16+
221.1322	47	C17H17+
222.1414	10	C16[13]CH17+
223.1474	134	C17H19+
224.1155	10	C16H16O+
224.1506	41	C16[13]CH19+
225.1267	158	C16H17O+
225.1631	198	C17H21+
226.1297	31	C15[13]CH17O+
226.1663	61	C17H22+
227.1424	302	C16H19O+
228.1463	61	C15[13]CH19O+
229.1227	14	C15H17O2+
229.1572	35	C16H21O+
234.1389	25	C18H18+
237.1235	22	C17H17O+
238.1296	14	C17H18O+
239.142	221	C17H19O+
239.1783	118	C18H23+
240.1452	53	C16[13]CH19O+
240.1817	33	C17[13]CH23+
241.1587	221	C17H21O+
242.162	47	C16[13]CH21O+
243.1335	13	C16H19O2+
243.1734	224	C17H23O+
244.1761	47	C16[13]CH23O+
245.1535	36	C16H21O2+
249.1629	175	C19H21+
250.1666	44	C18[13]CH21+
252.1501	165	C18H20O+
253.1534	35	C17[13]CH20O+
255.1768	11	C18H23O+
257.1529	51	C17H21O2+
257.1902	43	C18H25O+
258.1605	27	C17H22O2+
258.1956	15	C17[13]CH25O+
259.169	91	C17H23O2+
260.1713	12	C16[13]CH23O2+
267.1731	769	C19H23O+
268.1767	176	C18[13]CH23O+
269.1792	18	C17[13]C2H23O+
270.1589	47	C18H22O2+
285.1842	477	C19H25O2+
286.1874	134	C18[13]CH25O2+
287.1868	14	C17[13]C2H25O2+
287.1972	13	C17[13]C2H25O2+
303.195	210	C19H27O3+
304.1985	53	C18[13]CH27O3+
