Mass spectrum: Bendiocarb; LC-ESI-QTOF; MS2; CE: 50 eV; R=35000; [M+H]+
Name: Bendiocarb
Name: (2,2-dimethyl-1,3-benzodioxol-4-yl) N-methylcarbamate
Formula: C11H13NO4
Exact mass: 223.0844579
SMILES: CNC(=O)OC1=CC=CC2=C1OC(C)(C)O2
InChI: InChI=1S/C11H13NO4/c1-11(2)15-8-6-4-5-7(9(8)16-11)14-10(13)12-3/h4-6H,1-3H3,(H,12,13)
Instrument: Bruker maXis Impact
Instrument type: LC-ESI-QTOF
Ms type: MS2
Ion mode: POSITIVE
Ionization: ESI
Fragmentation mode: CID
Collision energy: 50 eV
Resolution: 35000
Column name: Acclaim RSLC C18 2.2um, 2.1x100mm, Thermo
Retention time: 7.012 min
Base peak: 224.0913
Precursor m/z: 224.0917
Precursor type: [M+H]+
m/z	relative intensity	assigned
127.0375	999	C6H7O3+
139.0386	494	C7H7O3+
