Mass spectrum: Tricresylphosphate; LC-ESI-QTOF; MS2; CE: 30 eV; R=35000; [M+H]+
Name: Tricresylphosphate
Name: Tri-P-cresyl phosphate
Name: tris(4-methylphenyl) phosphate
Formula: C21H21O4P
Exact mass: 368.1177458
SMILES: CC1=CC=C(OP(=O)(OC2=CC=C(C)C=C2)OC2=CC=C(C)C=C2)C=C1
InChI: InChI=1S/C21H21O4P/c1-16-4-10-19(11-5-16)23-26(22,24-20-12-6-17(2)7-13-20)25-21-14-8-18(3)9-15-21/h4-15H,1-3H3
Instrument: Bruker maXis Impact
Instrument type: LC-ESI-QTOF
Ms type: MS2
Ion mode: POSITIVE
Ionization: ESI
Fragmentation mode: CID
Collision energy: 30 eV
Resolution: 35000
Column name: Acclaim RSLC C18 2.2um, 2.1x100mm, Thermo
Retention time: 12.725 min
Base peak: 369.1242
Precursor m/z: 369.125
Precursor type: [M+H]+
m/z	relative intensity	assigned
141.0688	7	C11H9+
153.0093	10	C7H6O2P+
153.0694	22	C12H9+
154.0147	6	C7H7O2P+
165.0688	184	C13H9+
166.0765	379	C13H10+
167.0796	55	C12[13]CH10+
179.0844	43	C14H11+
180.0892	14	C7H17O3P+
181.1	95	C14H13+
182.1044	16	C13[13]CH13+
189.0301	33	C7H10O4P+
196.0872	13	C14H12O+
197.0942	10	C7H18O4P+
199.1099	36	C14H15O+
200.1138	8	C13[13]CH15O+
215.0589	7	C13H12OP+
233.0712	6	C13H14O2P+
241.0995	20	C12H18O3P+
242.107	7	C12H19O3P+
243.0557	74	C14H12O2P+
244.061	13	C13[13]CH12O2P+
255.114	13	C13H20O3P+
256.1245	102	C20H16+
257.1277	23	C19[13]CH16+
261.0667	386	C21H9+
262.0708	63	C20[13]CH9+
263.0741	7	C19[13]C2H9+
271.1465	10	C21H19+
277.0631	8	C14H14O4P+
279.0774	128	C14H16O4P+
280.0815	20	C13[13]CH16O4P+
333.1051	6	C21H18O2P+
351.1136	14	C21H20O3P+
369.124	999	C21H22O4P+
370.1273	234	C20[13]CH22O4P+
371.1301	38	C19[13]C2H22O4P+
