Mass spectrum: Venlafaxine; LC-ESI-QTOF; MS2; CE: 40 eV; R=35000; [M+H]+
Name: Venlafaxine
Name: 1-[2-(dimethylamino)-1-(4-methoxyphenyl)ethyl]cyclohexan-1-ol
Formula: C17H27NO2
Exact mass: 277.2041791
SMILES: CN(C)CC(c1ccc(cc1)OC)C2(CCCCC2)O
InChI: InChI=1S/C17H27NO2/c1-18(2)13-16(17(19)11-5-4-6-12-17)14-7-9-15(20-3)10-8-14/h7-10,16,19H,4-6,11-13H2,1-3H3
Instrument: Bruker maXis Impact
Instrument type: LC-ESI-QTOF
Ms type: MS2
Ion mode: POSITIVE
Ionization: ESI
Fragmentation mode: CID
Collision energy: 40 eV
Resolution: 35000
Column name: Acclaim RSLC C18 2.2um, 2.1x100mm, Thermo
Retention time: 6.1 min
Base peak: 278.2124
Precursor m/z: 278.2115
Precursor type: [M+H]+
m/z	relative intensity	assigned
115.0539	38	C9H7+
116.0592	8	C4H8N2O2+
117.0697	22	C9H9+
119.0848	12	C9H11+
121.0643	999	C8H9O+
122.0676	76	C3H10N2O3+
128.0613	21	C10H8+
129.0683	22	C10H9+
130.0763	7	C10H10+
131.0484	32	C9H7O+
132.0561	98	C9H8O+
133.0619	15	C8[13]CH8O+
135.0794	64	C9H11O+
136.0831	8	C4H12N2O3+
141.0692	27	C11H9+
142.0758	11	C11H10+
143.0842	9	C11H11+
145.0635	35	C10H9O+
146.0707	15	C10H10O+
147.0797	553	C10H11O+
148.0827	48	C5H12N2O3+
152.1422	7	C10H18N+
155.0593	7	C10H7N2+
155.0849	11	C12H11+
159.0794	149	C11H11O+
160.0843	21	C6H12N2O3+
161.0949	23	C11H13O+
163.0976	46	C10H13NO+
164.1021	5	C5H14N3O3+
168.093	5	C13H12+
171.0799	8	C12H11O+
172.087	9	C12H12O+
173.0954	195	C12H13O+
174.0996	26	C7H14N2O3+
177.114	29	C11H15NO+
178.1215	19	C11H16NO+
183.116	8	C14H15+
186.1028	5	C13H14O+
187.1101	7	C13H15O+
215.1423	12	C15H19O+
