Mass spectrum: Biphenyl; GC-APCI-QTOF; MS2; CE: 40 eV; R=35000; [M+H]+
Name: Biphenyl
Formula: C12H10
Exact mass: 154.0783
SMILES: C1=CC=C(C=C1)C2=CC=CC=C2
InChI: InChI=1S/C12H10/c1-3-7-11(8-4-1)12-9-5-2-6-10-12/h1-10H
Instrument: Bruker 450 GC coupled to maXis Impact
Instrument type: GC-APCI-QTOF
Ms type: MS2
Ion mode: POSITIVE
Ionization: APCI
Fragmentation mode: CID
Collision energy: 40 eV
Resolution: 35000
Column name: Rxi-5Sil MS column, 30m, 0.25mm i.d., 0.25Âµm film thickness, Restek
Retention time: 11.397 min
Base peak: 154.0801
Precursor m/z: 155.0855
Precursor type: [M+H]+
m/z	relative intensity	assigned
50.016	20	C4H2+
51.024	33	C4H3+
102.0465	15	C8H6+
115.0544	81	C9H7+
126.0458	86	C10H6+
127.0544	67	C10H7+
128.0622	147	C10H8+
129.0715	25	C10H9+
139.0564	96	C11H7+
140.0596	17	C11H8+
150.0477	15	C12H6+
151.0578	30	C12H7+
152.0651	999	C12H8+
153.0716	309	C12H9+
154.0778	69	C12H10+
155.0878	10	C12H11+
