Mass spectrum: Azithromycin; LC-ESI-QTOF; MS2; CE: 30 eV; R=35000; [M+H]+
Name: Azithromycin
Name: Azithramycine
Name: (2R,3S,4R,5R,8R,10R,11R,13S,14R)-11-[(2S,3R,4S,6R)-4-(dimethylamino)-3-hydroxy-6-methyloxan-2-yl]oxy-2-ethyl-3,4,10-trihydroxy-13-[(2R,4R,5S,6S)-5-hydroxy-4-methoxy-4,6-dimethyloxan-2-yl]oxy-3,5,6,8,10,12,14-heptamethyl-1-oxa-6-azacyclopentadecan-15-one
Formula: C38H72N2O12
Exact mass: 748.5085257
SMILES: CC[C@H]1OC(=O)[C@H](C)[C@@H](O[C@H]2C[C@@](C)(OC)[C@@H](O)[C@H](C)O2)C(C)[C@@H](O[C@@H]2O[C@H](C)C[C@@H]([C@H]2O)N(C)C)[C@](C)(O)C[C@@H](C)CN(C)[C@H](C)[C@@H](O)[C@]1(C)O
InChI: InChI=1S/C38H72N2O12/c1-15-27-38(10,46)31(42)24(6)40(13)19-20(2)17-36(8,45)33(52-35-29(41)26(39(11)12)16-21(3)48-35)22(4)30(23(5)34(44)50-27)51-28-18-37(9,47-14)32(43)25(7)49-28/h20-33,35,41-43,45-46H,15-19H2,1-14H3/t20-,21-,22?,23-,24-,25+,26+,27-,28+,29-,30+,31-,32+,33-,35+,36-,37-,38-/m1/s1
Instrument: Bruker maXis Impact
Instrument type: LC-ESI-QTOF
Ms type: MS2
Ion mode: POSITIVE
Ionization: ESI
Fragmentation mode: CID
Collision energy: 30 eV
Resolution: 35000
Column name: Acclaim RSLC C18 2.2um, 2.1x100mm, Thermo
Retention time: 6.4 min
Base peak: 375.2608
Precursor m/z: 749.5158
Precursor type: [M+H]+
m/z	relative intensity	assigned
116.1055	25	C3H16O4+
158.1164	152	C8H16NO2+
573.4067	61	C27H59NO11+
574.4111	28	C34H56NO6+
591.422	560	C30H59N2O9+
592.4238	218	C37H56N2O4+
593.4243	49	C36[13]CH56N2O4+
749.5171	999	C38H73N2O12+
750.5193	475	C37H72N3O12+
751.521	128	C37H73N3O12+
752.5236	25	C36H72N4O12+
