Mass spectrum: Progesterone; LC-ESI-QTOF; MS2; CE: 10 eV; R=35000; [M+H]+
Name: Progesterone
Name: progesterone
Name: (8S,9S,10R,13S,14S,17S)-17-acetyl-10,13-dimethyl-1,2,6,7,8,9,11,12,14,15,16,17-dodecahydrocyclopenta[a]phenanthren-3-one
Formula: C21H30O2
Exact mass: 314.2245802
SMILES: CC(=O)[C@H]1CC[C@@H]2[C@@]1(CC[C@H]3[C@H]2CCC4=CC(=O)CC[C@]34C)C
InChI: InChI=1S/C21H30O2/c1-13(22)17-6-7-18-16-5-4-14-12-15(23)8-10-20(14,2)19(16)9-11-21(17,18)3/h12,16-19H,4-11H2,1-3H3/t16-,17+,18-,19-,20-,21+/m0/s1
Instrument: Bruker maXis Impact
Instrument type: LC-ESI-QTOF
Ms type: MS2
Ion mode: POSITIVE
Ionization: ESI
Fragmentation mode: CID
Collision energy: 10 eV
Resolution: 35000
Column name: Acclaim RSLC C18 2.2um, 2.1x100mm, Thermo
Retention time: 11.058 min
Base peak: 315.2337
Precursor m/z: 315.2319
Precursor type: [M+H]+
m/z	relative intensity	assigned
297.2229	8	C21H29O+
315.2339	999	C21H31O2+
316.2372	202	C20[13]CH31O2+
317.24	20	C19[13]C2H31O2+
