Mass spectrum: Benzidine; LC-ESI-QTOF; MS2; CE: Ramp 17.5-26.2 eV; R=35000; [M+H]+
Name: Benzidine
Name: 4-(4-aminophenyl)aniline
Formula: C12H12N2
Exact mass: 184.10004838
SMILES: NC1=CC=C(C=C1)C1=CC=C(N)C=C1
InChI: InChI=1S/C12H12N2/c13-11-5-1-9(2-6-11)10-3-7-12(14)8-4-10/h1-8H,13-14H2
Instrument: Bruker maXis Impact
Instrument type: LC-ESI-QTOF
Ms type: MS2
Ion mode: POSITIVE
Ionization: ESI
Fragmentation mode: CID
Collision energy: Ramp 17.5-26.2 eV
Resolution: 35000
Column name: Acclaim RSLC C18 2.2um, 2.1x100mm, Thermo
Retention time: 3.974 min
Base peak: 214.108
Precursor m/z: 185.1073
Precursor type: [M+H]+
m/z	relative intensity	assigned
93.0578	10	C6H7N+
130.0642	8	C9H8N+
139.0533	5	C11H7+
141.0688	44	C11H9+
143.0716	13	C10H9N+
144.0799	10	C10H10N+
151.0522	9	C12H7+
152.0602	7	C12H8+
153.0568	7	C11H7N+
156.0797	31	C11H10N+
157.0871	18	C11H11N+
158.0853	5	C10H10N2+
158.0945	9	C11H12N+
166.0638	18	C12H8N+
167.0719	208	C12H9N+
168.0797	317	C12H10N+
169.0853	50	C11[13]CH10N+
170.0837	6	C11H10N2+
179.0588	7	C12H7N2+
182.0826	8	C12H10N2+
183.0905	93	C12H11N2+
184.0985	999	C12H12N2+
185.1053	465	C12H13N2+
186.1089	40	C11[13]CH13N2+
