Mass spectrum: 4-Piperidinecarboxamide; LC-ESI-QTOF; MS2; CE: 30 eV; R=35000; [M+H]+
Name: 4-Piperidinecarboxamide
Name: Isonipecotamide
Name: piperidine-4-carboxamide
Formula: C6H12N2O
Exact mass: 128.0949630
SMILES: C1CNCCC1C(=O)N
InChI: InChI=1S/C6H12N2O/c7-6(9)5-1-3-8-4-2-5/h5,8H,1-4H2,(H2,7,9)
Instrument: Bruker maXis Impact
Instrument type: LC-ESI-QTOF
Ms type: MS2
Ion mode: POSITIVE
Ionization: ESI
Fragmentation mode: CID
Collision energy: 30 eV
Resolution: 35000
Column name: Acclaim RSLC C18 2.2um, 2.1x100mm, Thermo
Retention time: 1.423 min
Base peak: 129.1028
Precursor m/z: 129.1022
Precursor type: [M+H]+
m/z	relative intensity	assigned
112.0781	999	C6H10NO+
