Mass spectrum: Benzyl methacrylate; GC-APCI-QTOF; MS2; CE: 10 eV; R=35000; [M+H]+
Name: Benzyl methacrylate
Formula: C11H12O2
Exact mass: 176.0837
SMILES: CC(=C)C(=O)OCC1=CC=CC=C1
InChI: InChI=1S/C11H12O2/c1-9(2)11(12)13-8-10-6-4-3-5-7-10/h3-7H,1,8H2,2H3
Instrument: Bruker 450 GC coupled to maXis Impact
Instrument type: GC-APCI-QTOF
Ms type: MS2
Ion mode: POSITIVE
Ionization: APCI
Fragmentation mode: CID
Collision energy: 10 eV
Resolution: 35000
Column name: Rxi-5Sil MS column, 30m, 0.25mm i.d., 0.25Âµm film thickness, Restek
Retention time: 10.450 min
Base peak: 147.0813
Precursor m/z: 177.091
Precursor type: [M+H]+
m/z	relative intensity	assigned
119.0853	988	C9H11+
120.0912	90	C9H12+
147.0829	999	C10H11O+
148.086	84	C10H12O+
177.0933	322	C11H13O2+
