Mass spectrum: Darunavir; LC-ESI-QTOF; MS2; CE: 50 eV; R=35000; [M+H]+
Name: Darunavir
Name: [(3aS,4R,6aR)-2,3,3a,4,5,6a-hexahydrofuro[2,3-b]furan-4-yl] N-[(2S,3R)-4-[(4-aminophenyl)sulfonyl-(2-methylpropyl)amino]-3-hydroxy-1-phenylbutan-2-yl]carbamate
Formula: C27H37N3O7S
Exact mass: 547.2352215
SMILES: CC(C)CN(C[C@H]([C@H](Cc1ccccc1)NC(=O)O[C@H]2CO[C@@H]3[C@H]2CCO3)O)S(=O)(=O)c4ccc(cc4)N
InChI: InChI=1S/C27H37N3O7S/c1-18(2)15-30(38(33,34)21-10-8-20(28)9-11-21)16-24(31)23(14-19-6-4-3-5-7-19)29-27(32)37-25-17-36-26-22(25)12-13-35-26/h3-11,18,22-26,31H,12-17,28H2,1-2H3,(H,29,32)/t22-,23-,24+,25-,26+/m0/s1
Instrument: Bruker maXis Impact
Instrument type: LC-ESI-QTOF
Ms type: MS2
Ion mode: POSITIVE
Ionization: ESI
Fragmentation mode: CID
Collision energy: 50 eV
Resolution: 35000
Column name: Acclaim RSLC C18 2.2um, 2.1x100mm, Thermo
Retention time: 8.158 min
Base peak: 548.2466
Precursor m/z: 548.2425
Precursor type: [M+H]+
m/z	relative intensity	assigned
120.0814	71	C2H16O3S+
127.1231	28	C7H15N2+
128.0624	22	C10H8+
129.0708	112	C10H9+
131.0859	39	C10H11+
146.0981	51	C4H18O3S+
156.0122	999	C6H6NO2S+
157.0153	94	CH7N3O4S+
158.0072	51	C5H4NO5+
164.1075	21	C4H20O4S+
200.1426	21	C6H22N3O2S+
202.161	94	C2H24N3O7+
203.1618	23	C9H21N3O2+
220.1695	26	C14H22NO+
237.1976	40	C8H31NO4S+
241.1038	33	C16H17S+
