Mass spectrum: Terbutylazine-2-hydroxy; LC-ESI-QTOF; MS2; CE: 20 eV; R=35000; [M+H]+
Name: Terbutylazine-2-hydroxy
Name: 2-(tert-butylamino)-6-(ethylamino)-1H-1,3,5-triazin-4-one
Formula: C9H17N5O
Exact mass: 211.1433102
SMILES: CCNC1=NC(=O)N=C(NC(C)(C)C)N1
InChI: InChI=1S/C9H17N5O/c1-5-10-6-11-7(13-8(15)12-6)14-9(2,3)4/h5H2,1-4H3,(H3,10,11,12,13,14,15)
Instrument: Bruker maXis Impact
Instrument type: LC-ESI-QTOF
Ms type: MS2
Ion mode: POSITIVE
Ionization: ESI
Fragmentation mode: CID
Collision energy: 20 eV
Resolution: 35000
Column name: Acclaim RSLC C18 2.2um, 2.1x100mm, Thermo
Retention time: 5.8 min
Base peak: 212.1503
Precursor m/z: 212.1506
Precursor type: [M+H]+
m/z	relative intensity	assigned
114.0657	12	C4H8N3O+
128.056	7	C3H6N5O+
156.0872	999	C5H10N5O+
157.0892	64	C4[13]CH10N5O+
158.091	4	C3[13]C2H10N5O+
212.1499	58	C9H18N5O+
213.1528	6	C8[13]CH18N5O+
