Mass spectrum: 2-Ethylhexyl 2-Cyano-3,3-diphenylacrylate; GC-APCI-QTOF; MS2; CE: 30 eV; R=35000; [M+H]+
Name: 2-Ethylhexyl 2-Cyano-3,3-diphenylacrylate
Formula: C24H27NO2
Exact mass: 361.2042
SMILES: CCCCC(CC)COC(=O)C(=C(C1=CC=CC=C1)C2=CC=CC=C2)C#N
InChI: InChI=1S/C24H27NO2/c1-3-5-12-19(4-2)18-27-24(26)22(17-25)23(20-13-8-6-9-14-20)21-15-10-7-11-16-21/h6-11,13-16,19H,3-5,12,18H2,1-2H3
Instrument: Bruker 450 GC coupled to maXis Impact
Instrument type: GC-APCI-QTOF
Ms type: MS2
Ion mode: POSITIVE
Ionization: APCI
Fragmentation mode: CID
Collision energy: 30 eV
Resolution: 35000
Column name: Rxi-5Sil MS column, 30m, 0.25mm i.d., 0.25Âµm film thickness, Restek
Retention time: 24.546 min
Base peak: 264.2428
Precursor m/z: 362.2115
Precursor type: [M+H]+
m/z	relative intensity	assigned
57.0706	579	C4H9+
109.1013	539	C8H13+
135.1231	999	C6H17NO2+
143.087	559	C11H11+
