Mass spectrum: Phenylbutazone; LC-ESI-QTOF; MS2; CE: 50 eV; R=35000; [M+H]+
Name: Phenylbutazone
Name: 4-butyl-1,2-diphenylpyrazolidine-3,5-dione
Formula: C19H20N2O2
Exact mass: 308.1524779
SMILES: CCCCC1C(=O)N(N(C1=O)c2ccccc2)c3ccccc3
InChI: InChI=1S/C19H20N2O2/c1-2-3-14-17-18(22)20(15-10-6-4-7-11-15)21(19(17)23)16-12-8-5-9-13-16/h4-13,17H,2-3,14H2,1H3
Instrument: Bruker maXis Impact
Instrument type: LC-ESI-QTOF
Ms type: MS2
Ion mode: POSITIVE
Ionization: ESI
Fragmentation mode: CID
Collision energy: 50 eV
Resolution: 35000
Column name: Acclaim RSLC C18 2.2um, 2.1x100mm, Thermo
Retention time: 3.5 min
Base peak: 309.1716
Precursor m/z: 309.1598
Precursor type: [M+H]+
m/z	relative intensity	assigned
123.0616	144	C2H9N3O3+
124.0712	24	C2H10N3O3+
135.0612	17	C3H9N3O3+
142.059	28	C5H8N3O2+
143.0665	66	C5H9N3O2+
144.0741	137	C5H10N3O2+
145.0781	16	C9H9N2+
154.0546	199	C10H6N2+
155.0627	79	C10H7N2+
156.0702	104	C10H8N2+
157.0781	100	C10H9N2+
158.0863	84	C10H10N2+
159.0894	17	C10H11N2+
166.0542	15	C11H6N2+
167.0627	39	C11H7N2+
168.0705	23	C11H8N2+
169.067	76	C12H9O+
170.0746	76	C12H10O+
171.0825	308	C12H11O+
172.087	39	C11[13]CH11O+
179.0525	12	C13H7O+
180.0709	49	C12H8N2+
181.0786	29	C12H9N2+
182.0803	25	C12H10N2+
183.0827	95	C13H11O+
184.091	45	C13H12O+
185.0989	108	C13H13O+
186.0944	29	C12H12NO+
192.06	51	C14H8O+
193.0678	127	C14H9O+
194.0726	23	C14H10O+
195.0843	64	C14H11O+
196.0845	21	C14H12O+
196.0915	19	C14H12O+
197.0985	14	C14H13O+
205.0686	53	C15H9O+
206.0748	66	C15H10O+
207.0837	176	C15H11O+
208.0872	30	C15H12O+
209.0929	17	C15H13O+
209.0991	15	C15H13O+
210.0949	41	C14H12NO+
217.0679	49	C16H9O+
218.075	49	C16H10O+
219.0721	32	C15H9NO+
220.0789	347	C15H10NO+
221.0838	56	C14[13]CH10NO+
222.0917	39	C15H12NO+
223.1014	39	C15H13NO+
224.1102	159	C15H14NO+
225.1144	21	C15H15NO+
232.0786	67	C16H10NO+
233.0847	36	C16H11NO+
234.0942	180	C16H12NO+
235.0955	79	C16H13NO+
236.0903	29	C15H12N2O+
236.1045	22	C16H14NO+
237.1048	288	C15H13N2O+
238.1079	33	C14[13]CH13N2O+
245.0741	66	C16H9N2O+
246.0788	20	C16H10N2O+
247.0884	44	C16H11N2O+
248.0856	183	C17H12O2+
249.1034	169	C16H13N2O+
250.1012	122	C17H14O2+
251.1198	62	C16H15N2O+
252.1173	23	C17H16O2+
259.0891	129	C17H11N2O+
260.0958	51	C17H12N2O+
261.0927	96	C18H13O2+
262.0997	530	C18H14O2+
263.1034	129	C17[13]CH14O2+
264.1138	176	C18H16O2+
265.1234	162	C18H17O2+
266.1306	999	C18H18O2+
267.1344	120	C17[13]CH18O2+
274.0988	29	C19H14O2+
275.1061	22	C19H15O2+
276.1148	569	C19H16O2+
277.1187	137	C18[13]CH16O2+
278.1213	49	C18H16NO2+
279.1256	712	C18H17NO2+
280.1268	115	C17[13]CH17NO2+
291.1252	91	C19H17NO2+
292.1332	51	C19H18NO2+
293.1405	314	C19H19NO2+
294.1438	56	C18[13]CH19NO2+
307.1575	17	C18H19N4O+
