Mass spectrum: Bentazone; LC-ESI-QTOF; MS2; CE: 30 eV; R=35000; [M-H]-
Name: Bentazone
Name: Bentazon
Name: 2,2-dioxo-3-propan-2-yl-1H-2$l^{6},1,3-benzothiadiazin-4-one
Formula: C10H12N2O3S
Exact mass: 240.0568632
SMILES: CC(C)N1C(=O)C2=CC=CC=C2NS1(=O)=O
InChI: InChI=1S/C10H12N2O3S/c1-7(2)12-10(13)8-5-3-4-6-9(8)11-16(12,14)15/h3-7,11H,1-2H3
Instrument: Bruker maXis Impact
Instrument type: LC-ESI-QTOF
Ms type: MS2
Ion mode: NEGATIVE
Ionization: ESI
Fragmentation mode: CID
Collision energy: 30 eV
Resolution: 35000
Column name: Acclaim RSLC C18 2.2um, 2.1x100mm, Thermo
Retention time: 4.450 min
Base peak: 239.0498
Precursor m/z: 239.0496
Precursor type: [M-H]-
m/z	relative intensity	assigned
117.0456	64	C7H5N2-
118.0496	13	C4H8NO3-
132.0331	999	C7H4N2O-
133.0399	457	C7H5N2O-
134.0439	36	C6[13]CH5N2O-
145.0387	12	C8H5N2O-
145.0661	9	C10H9O-
147.0815	19	C10H11O-
153.9965	9	C6H4NO2S-
159.0584	8	C6H11N2OS-
168.0007	16	C6H4N2O2S-
175.0867	130	C10H11N2O-
194.9871	11	C7H3N2O3S-
195.9941	107	C7H4N2O3S-
197.0014	325	C7H5N2O3S-
198.0039	40	C6[13]CH5N2O3S-
198.9998	18	C7H5N2O3[34]S-
239.0496	71	C10H11N2O3S-
