Mass spectrum: Ethopabate; LC-ESI-QTOF; MS2; CE: Ramp 19.4-29.1 eV; R=35000; [M+H]+
Name: Ethopabate
Name: methyl 4-acetamido-2-ethoxybenzoate
Formula: C12H15NO4
Exact mass: 237.1001
SMILES: CCOc1cc(ccc1C(=O)OC)NC(=O)C
InChI: InChI=1S/C12H15NO4/c1-4-17-11-7-9(13-8(2)14)5-6-10(11)12(15)16-3/h5-7H,4H2,1-3H3,(H,13,14)
Instrument: Bruker maXis Impact
Instrument type: LC-ESI-QTOF
Ms type: MS2
Ion mode: POSITIVE
Ionization: ESI
Fragmentation mode: CID
Collision energy: Ramp 19.4-29.1 eV
Resolution: 35000
Column name: Acclaim RSLC C18 2.2um, 2.1x100mm, Thermo
Retention time: 6.0 min
Base peak: 79.0208
Precursor m/z: 238.1074
Precursor type: [M+H]+
m/z	relative intensity	assigned
105.033	25	C7H5O+
133.0638	14	C9H9O+
238.098	999	C12H16NO4+
240.1023	18	C12H16O5+
