Mass spectrum: Norfludiazepam; LC-ESI-QTOF; MS2; CE: 10 eV; R=35000; [M+H]+
Name: Norfludiazepam
Name: Norflurazepam
Name: 7-chloro-5-(2-fluorophenyl)-1,3-dihydro-1,4-benzodiazepin-2-one
Formula: C15H10ClFN2O
Exact mass: 288.0465688
SMILES: c1ccc(c(c1)C2=NCC(=O)Nc3c2cc(cc3)Cl)F
InChI: InChI=1S/C15H10ClFN2O/c16-9-5-6-13-11(7-9)15(18-8-14(20)19-13)10-3-1-2-4-12(10)17/h1-7H,8H2,(H,19,20)
Instrument: Bruker maXis Impact
Instrument type: LC-ESI-QTOF
Ms type: MS2
Ion mode: POSITIVE
Ionization: ESI
Fragmentation mode: CID
Collision energy: 10 eV
Resolution: 35000
Column name: Acclaim RSLC C18 2.2um, 2.1x100mm, Thermo
Retention time: 8.574 min
Base peak: 342.0799
Precursor m/z: 289.0538
Precursor type: [M+H]+
m/z	relative intensity	assigned
289.0538	999	C15H11ClFN2O+
290.057	125	C14[13]CH11ClFN2O+
291.0513	216	C15H11[37]ClFN2O+
