Mass spectrum: Clofibrate; LC-ESI-QTOF; MS2; CE: 10 eV; R=35000; [M+H]+
Name: Clofibrate
Name: ethyl 2-(4-chlorophenoxy)-2-methylpropanoate
Formula: C12H15ClO3
Exact mass: 242.0709720
SMILES: CCOC(=O)C(C)(C)OC1=CC=C(Cl)C=C1
InChI: InChI=1S/C12H15ClO3/c1-4-15-11(14)12(2,3)16-10-7-5-9(13)6-8-10/h5-8H,4H2,1-3H3
Instrument: Bruker maXis Impact
Instrument type: LC-ESI-QTOF
Ms type: MS2
Ion mode: POSITIVE
Ionization: ESI
Fragmentation mode: CID
Collision energy: 10 eV
Resolution: 35000
Column name: Acclaim RSLC C18 2.2um, 2.1x100mm, Thermo
Retention time: 11.002 min
Base peak: 223.063
Precursor m/z: 243.0782
Precursor type: [M+H]+
m/z	relative intensity	assigned
169.0409	999	C9H10ClO+
186.0484	556	C9H11ClO2+
197.0355	650	C10H10ClO2+
243.0786	843	C12H16ClO3+
