Mass spectrum: Dimethachlor OA; LC-ESI-QTOF; MS2; CE: 20 eV; R=35000; [M+H]+
Name: Dimethachlor OA
Name: [(2,6-Dimethylphenyl)(2-methoxyethyl)amino](oxo)acetic acid
Name: 2-[N-(2-methoxyethyl)-2,6-dimethylanilino]-2-oxoacetic acid
Formula: C13H17NO4
Exact mass: 251.1157580
SMILES: COCCN(C(=O)C(O)=O)C1=C(C)C=CC=C1C
InChI: InChI=1S/C13H17NO4/c1-9-5-4-6-10(2)11(9)14(7-8-18-3)12(15)13(16)17/h4-6H,7-8H2,1-3H3,(H,16,17)
Instrument: Bruker maXis Impact
Instrument type: LC-ESI-QTOF
Ms type: MS2
Ion mode: POSITIVE
Ionization: ESI
Fragmentation mode: CID
Collision energy: 20 eV
Resolution: 35000
Column name: Acclaim RSLC C18 2.2um, 2.1x100mm, Thermo
Retention time: 5.393 min
Base peak: 222.0423
Precursor m/z: 252.123
Precursor type: [M+H]+
m/z	relative intensity	assigned
130.0633	8	C6H10O3+
131.0711	34	C6H11O3+
132.08	101	C9H10N+
133.0858	28	C6H13O3+
146.0959	88	C10H12N+
147.1	13	C9[13]CH12N+
148.0749	23	C9H10NO+
148.111	112	C7H16O3+
149.1132	11	C6[13]CH16O3+
176.1058	56	C11H14NO+
177.1097	9	C8H17O4+
178.1216	57	C11H16NO+
192.1022	8	C11H14NO2+
206.1158	20	C12H16NO2+
220.0957	999	C12H14NO3+
221.0995	136	C11[13]CH14NO3+
224.0388	9	C13H6NO3+
