Mass spectrum: Tolfenpyrad; LC-ESI-QTOF; MS2; CE: 10 eV; R=35000; [M+H]+
Name: Tolfenpyrad
Name: 4-chloro-5-ethyl-2-methyl-N-[[4-(4-methylphenoxy)phenyl]methyl]pyrazole-3-carboxamide
Formula: C21H22ClN3O2
Exact mass: 383.1400546
SMILES: CCC1=NN(C(=C1Cl)C(=O)NCC2=CC=C(C=C2)OC3=CC=C(C=C3)C)C
InChI: InChI=1S/C21H22ClN3O2/c1-4-18-19(22)20(25(3)24-18)21(26)23-13-15-7-11-17(12-8-15)27-16-9-5-14(2)6-10-16/h5-12H,4,13H2,1-3H3,(H,23,26)
Instrument: Bruker maXis Impact
Instrument type: LC-ESI-QTOF
Ms type: MS2
Ion mode: POSITIVE
Ionization: ESI
Fragmentation mode: CID
Collision energy: 10 eV
Resolution: 35000
Column name: Acclaim RSLC C18 2.2um, 2.1x100mm, Thermo
Retention time: 12.430 min
Base peak: 150.1129
Precursor m/z: 384.1473
Precursor type: [M+H]+
m/z	relative intensity	assigned
197.0962	42	C14H13O+
200.0581	13	C11H8N2O2+
369.1274	79	C20H20ClN3O2+
370.1291	13	C19[13]CH20ClN3O2+
384.1501	999	C21H23ClN3O2+
385.1527	262	C20[13]CH23ClN3O2+
386.1468	267	C21H23[37]ClN3O2+
