Mass spectrum: N-Nitrosofenfluramine; LC-ESI-QTOF; MS2; CE: 20 eV; R=35000; [M+H]+
Name: N-Nitrosofenfluramine
Formula: C12H15F3N2O
Exact mass: 260.1136478
SMILES: C1=C(C=C(C=C1)CC(C)N(N=O)CC)C(F)(F)F
InChI: InChI=1S/C12H15F3N2O/c1-3-17(16-18)9(2)7-10-5-4-6-11(8-10)12(13,14)15/h4-6,8-9H,3,7H2,1-2H3
Instrument: Bruker maXis Impact
Instrument type: LC-ESI-QTOF
Ms type: MS2
Ion mode: POSITIVE
Ionization: ESI
Fragmentation mode: CID
Collision energy: 20 eV
Resolution: 35000
Column name: Acclaim RSLC C18 2.2um, 2.1x100mm, Thermo
Retention time: 9.2 min
Base peak: 261.1207
Precursor m/z: 261.1209
Precursor type: [M+H]+
m/z	relative intensity	assigned
147.0603	2	C10H8F+
159.0407	999	C8H6F3+
160.0435	63	C7[13]CH6F3+
167.0655	4	C10H9F2+
187.072	125	C10H10F3+
188.0755	11	C9[13]CH10F3+
210.1078	13	C12H14F2N+
211.1152	11	C12H15F2N+
212.1189	1	C10H15FN3O+
