Mass spectrum: Allopurinol; LC-ESI-QTOF; MS2; CE: Ramp 15.7-23.6 eV; R=35000; [M+H]+
Name: Allopurinol
Name: CID 2094
Name: 1,2-dihydropyrazolo[3,4-d]pyrimidin-4-one
Formula: C5H4N4O
Exact mass: 136.03851075
SMILES: OC1=NC=NC2=C1C=NN2
InChI: InChI=1S/C5H4N4O/c10-5-3-1-8-9-4(3)6-2-7-5/h1-2H,(H2,6,7,8,9,10)
Instrument: Bruker maXis Impact
Instrument type: LC-ESI-QTOF
Ms type: MS2
Ion mode: POSITIVE
Ionization: ESI
Fragmentation mode: CID
Collision energy: Ramp 15.7-23.6 eV
Resolution: 35000
Column name: Acclaim RSLC C18 2.2um, 2.1x100mm, Thermo
Retention time: 2.396 min
Base peak: 61.0389
Precursor m/z: 137.0458
Precursor type: [M+H]+
m/z	relative intensity	assigned
137.0448	999	C5H5N4O+
138.0478	67	C4[13]CH5N4O+
