Mass spectrum: 2H-Perfluoro-2-decenoic acid (8:2) (FOUEA); LC-ESI-QTOF; MS2; CE: 24.7-37.1 eV; R=35000; [M-H]-
Name: 2H-Perfluoro-2-decenoic acid (8:2) (FOUEA)
Formula: C10H2F16O2
Exact mass: 457.9799
SMILES: C(=C(/C(C(C(C(C(C(C(F)(F)F)(F)F)(F)F)(F)F)(F)F)(F)F)(F)F)\F)\C(=O)O
InChI: InChI=1S/C10H2F16O2/c11-2(1-3(27)28)4(12,13)5(14,15)6(16,17)7(18,19)8(20,21)9(22,23)10(24,25)26/h1H,(H,27,28)/b2-1-
Instrument: Bruker maXis Impact
Instrument type: LC-ESI-QTOF
Ms type: MS2
Ionization: ESI
Fragmentation mode: CID
Collision energy: 24.7-37.1 eV
Resolution: 35000
Column name: Acclaim RSLC C18 2.2um, 2.1x100mm, Thermo
Retention time: 10.632 min
Base peak: 59.0128
Precursor m/z: 456.9727
Precursor type: [M-H]-
m/z	relative intensity	assigned
68.9946	14	CF3-
118.9932	7	C2F5-
192.9898	10	C5F7-
242.9884	10	C8HF6O2-
342.9808	12	C5HF14O-
392.9772	999	C6HF16O-
393.9799	741	C9HF15-
394.9811	22	C8HF14O2-
