Mass spectrum: Dimethenamid-ESA; LC-ESI-QTOF; MS2; CE: 10 eV; R=35000; [M+H]+
Name: Dimethenamid-ESA
Name: AC1O52R5
Name: 2-[(2,4-dimethylthiophen-3-yl)-(1-methoxypropan-2-yl)amino]-2-oxoethanesulfonic acid
Formula: C12H19NO5S2
Exact mass: 321.0704647
SMILES: COCC(C)N(C(=O)CS(O)(=O)=O)c1c(C)csc1C
InChI: InChI=1S/C12H19NO5S2/c1-8-6-19-10(3)12(8)13(9(2)5-18-4)11(14)7-20(15,16)17/h6,9H,5,7H2,1-4H3,(H,15,16,17)
Instrument: Bruker maXis Impact
Instrument type: LC-ESI-QTOF
Ms type: MS2
Ion mode: POSITIVE
Ionization: ESI
Fragmentation mode: CID
Collision energy: 10 eV
Resolution: 35000
Column name: Acclaim RSLC C18 2.2um, 2.1x100mm, Thermo
Retention time: 6.0 min
Base peak: 242.2838
Precursor m/z: 322.0777
Precursor type: [M+H]+
m/z	relative intensity	assigned
210.0924	13	C8H18O4S+
290.0505	999	C11H16NO4S2+
291.0537	138	C10[13]CH16NO4S2+
292.0476	102	C11H16NO4S[34]S+
322.0768	819	C12H20NO5S2+
323.0799	166	C11[13]CH20NO5S2+
324.0725	76	C12H20NO5[34]S[32]S+
