Mass spectrum: Morantel; LC-ESI-QTOF; MS2; CE: 50 eV; R=35000; [M+H]+
Name: Morantel
Name: 1-methyl-2-[(E)-2-(3-methylthiophen-2-yl)ethenyl]-5,6-dihydro-4H-pyrimidine
Formula: C12H16N2S
Exact mass: 220.1034195
SMILES: Cc1ccsc1/C=C/C2=NCCCN2C
InChI: InChI=1S/C12H16N2S/c1-10-6-9-15-11(10)4-5-12-13-7-3-8-14(12)2/h4-6,9H,3,7-8H2,1-2H3/b5-4+
Instrument: Bruker maXis Impact
Instrument type: LC-ESI-QTOF
Ms type: MS2
Ion mode: POSITIVE
Ionization: ESI
Fragmentation mode: CID
Collision energy: 50 eV
Resolution: 35000
Column name: Acclaim RSLC C18 2.2um, 2.1x100mm, Thermo
Retention time: 4.7 min
Base peak: 221.1026
Precursor m/z: 221.1107
Precursor type: [M+H]+
m/z	relative intensity	assigned
116.0483	16	C8H6N+
117.0501	108	C4H9N2S+
118.0572	34	C4H10N2S+
121.0057	67	C10H+
121.0703	15	C5H13OS+
122.0013	40	C9N+
122.0132	195	C10H2+
123.0208	999	C10H3+
124.025	60	C9[13]CH3+
125.0166	37	C5H5N2S+
130.0569	68	C5H10N2S+
131.0535	15	C6H11OS+
131.0654	38	C5H11N2S+
133.0054	23	C11H+
134.0017	18	C10N+
134.0136	35	C11H2+
135.008	47	C10HN+
135.0214	18	C11H3+
136.0164	19	C10H2N+
136.0939	16	C6H16OS+
138.0314	35	C10H4N+
145.0745	17	C9H9N2+
148.0162	73	C11H2N+
150.0326	358	C11H4N+
151.0166	24	C9HN3+
151.0334	25	C7H7N2S+
152.0272	16	C6H6N3S+
159.0898	26	C10H11N2+
161.0108	30	C11HN2+
161.1	17	C8H17OS+
162.0314	20	C12H4N+
163.0347	25	C8H7N2S+
164.0469	274	C12H6N+
165.0484	19	C8H9N2S+
166.0418	15	C12H6O+
173.1051	56	C11H13N2+
177.0423	40	C12H5N2+
187.1199	38	C12H15N2+
189.135	15	C12H17N2+
205.0762	26	C11H13N2S+
221.1077	32	C12H17N2S+
