Mass spectrum: Clenbuterol; LC-ESI-QTOF; MS2; CE: Ramp 20.8-31.2 eV; R=35000; [M+H]+
Name: Clenbuterol
Name: 1-(4-amino-3,5-dichlorophenyl)-2-(tert-butylamino)ethanol
Formula: C12H18Cl2N2O
Exact mass: 276.0796
SMILES: CC(C)(C)NCC(c1cc(c(c(c1)Cl)N)Cl)O
InChI: InChI=1S/C12H18Cl2N2O/c1-12(2,3)16-6-10(17)7-4-8(13)11(15)9(14)5-7/h4-5,10,16-17H,6,15H2,1-3H3
Instrument: Bruker maXis Impact
Instrument type: LC-ESI-QTOF
Ms type: MS2
Ion mode: POSITIVE
Ionization: ESI
Fragmentation mode: CID
Collision energy: Ramp 20.8-31.2 eV
Resolution: 35000
Column name: Acclaim RSLC C18 2.2um, 2.1x100mm, Thermo
Retention time: 4.9 min
Base peak: 277.0882
Precursor m/z: 277.0869
Precursor type: [M+H]+
m/z	relative intensity	assigned
57.0694	119	C4H9+
131.0607	101	C8H7N2+
132.0684	415	C8H8N2+
133.072	31	C8H9N2+
140.0261	15	C7H7ClN+
151.0186	14	C8H6ClN+
167.0375	181	C8H8ClN2+
168.0452	363	C8H9ClN2+
169.0347	38	C10H5N2O+
169.0477	20	C11H7NO+
170.0422	76	C5H12Cl2N2+
185.9879	24	C8H6Cl2N+
187.9852	12	C10H3ClNO+
203.0147	999	C8H9Cl2N2+
204.0178	100	C11H7ClNO+
205.0116	568	C10H6ClN2O+
206.0148	26	C8H10Cl2NO+
221.0249	10	C8H11Cl2N2O+
223.0232	5	C11H3N4O2+
259.0783	58	C12H17Cl2N2+
260.0798	5	C12H18Cl2N2+
261.0747	29	C12H17Cl2NO+
