Mass spectrum: Sotalol; LC-ESI-QTOF; MS2; CE: 20 eV; R=35000; [M-H]-
Name: Sotalol
Name: N-[4-[1-hydroxy-2-(propan-2-ylamino)ethyl]phenyl]methanesulfonamide
Formula: C12H20N2O3S
Exact mass: 272.1194635
SMILES: CC(C)NCC(O)C1=CC=C(NS(C)(=O)=O)C=C1
InChI: InChI=1S/C12H20N2O3S/c1-9(2)13-8-12(15)10-4-6-11(7-5-10)14-18(3,16)17/h4-7,9,12-15H,8H2,1-3H3
Instrument: Bruker maXis Impact
Instrument type: LC-ESI-QTOF
Ms type: MS2
Ion mode: NEGATIVE
Ionization: ESI
Fragmentation mode: CID
Collision energy: 20 eV
Resolution: 35000
Column name: Acclaim RSLC C18 2.2um, 2.1x100mm, Thermo
Retention time: 3.346 min
Base peak: 150.0551
Precursor m/z: 271.1122
Precursor type: [M-H]-
m/z	relative intensity	assigned
174.1206	621	C8H18N2S-
210.0449	999	C12H6N2O2-
253.1019	739	C12H17N2O2S-
271.1099	920	C12H19N2O3S-
