Mass spectrum: Albendazole; LC-ESI-QTOF; MS2; CE: 40 eV; R=35000; [M+H]+
Name: Albendazole
Name: methyl N-(6-propylsulfanyl-1H-benzimidazol-2-yl)carbamate
Formula: C12H15N3O2S
Exact mass: 265.0884977
SMILES: CCCSc1ccc2c(c1)nc([nH]2)NC(=O)OC
InChI: InChI=1S/C12H15N3O2S/c1-3-6-18-8-4-5-9-10(7-8)14-11(13-9)15-12(16)17-2/h4-5,7H,3,6H2,1-2H3,(H2,13,14,15,16)
Instrument: Bruker maXis Impact
Instrument type: LC-ESI-QTOF
Ms type: MS2
Ion mode: POSITIVE
Ionization: ESI
Fragmentation mode: CID
Collision energy: 40 eV
Resolution: 35000
Column name: Acclaim RSLC C18 2.2um, 2.1x100mm, Thermo
Retention time: 9.4 min
Base peak: 266.0961
Precursor m/z: 266.0958
Precursor type: [M+H]+
m/z	relative intensity	assigned
131.0472	13	C7H5N3+
136.0095	9	C6H4N2S+
147.0429	6	C7H5N3O+
159.0423	319	C8H5N3O+
160.0464	23	C7[13]CH5N3O+
163.0195	39	C7H5N3S+
164.0275	18	C7H6N3S+
190.0081	8	C10H6O2S+
191.0147	999	C8H5N3OS+
192.0217	376	C8H6N3OS+
193.0126	22	C10H7O2[34]S+
193.0232	28	C10[13]CH2N3O+
194.0183	10	C8H6N3O[34]S+
234.07	206	C11H12N3OS+
235.0729	22	C10[13]CH12N3OS+
