Mass spectrum: Fenbendazole; LC-ESI-QTOF; MS2; CE: 40 eV; R=35000; [M+H]+
Name: Fenbendazole
Name: methyl N-(6-phenylsulfanyl-1H-benzimidazol-2-yl)carbamate
Formula: C15H13N3O2S
Exact mass: 299.0728477
SMILES: CO/C(=N/c1[nH]c2cc(ccc2n1)Sc3ccccc3)/O
InChI: InChI=1S/C15H13N3O2S/c1-20-15(19)18-14-16-12-8-7-11(9-13(12)17-14)21-10-5-3-2-4-6-10/h2-9H,1H3,(H2,16,17,18,19)
Instrument: Bruker maXis Impact
Instrument type: LC-ESI-QTOF
Ms type: MS2
Ion mode: POSITIVE
Ionization: ESI
Fragmentation mode: CID
Collision energy: 40 eV
Resolution: 35000
Column name: Acclaim RSLC C18 2.2um, 2.1x100mm, Thermo
Retention time: 10.2 min
Base peak: 300.0801
Precursor m/z: 300.0801
Precursor type: [M+H]+
m/z	relative intensity	assigned
122.0062	7	C6H4NS+
131.0471	46	C7H5N3+
146.0694	5	C8H8N3+
159.042	999	C8H5N3O+
160.045	63	C7[13]CH5N3O+
190.0065	121	C8H4N3OS+
191.0134	20	C9[13]CH6O2S+
198.0366	6	C12H8NS+
225.0493	7	C13H9N2S+
226.0559	9	C13H10N2S+
240.0593	11	C13H10N3S+
241.0692	6	C15H13OS+
268.0538	627	C14H10N3OS+
269.058	61	C13[13]CH10N3OS+
270.0506	15	C14H10N3O[34]S+
