Mass spectrum: Aceclofenac; LC-ESI-QTOF; MS2; CE: 20 eV; R=35000; [M+H]+
Name: Aceclofenac
Name: 2-[2-[2-(2,6-dichloroanilino)phenyl]acetyl]oxyacetic acid
Formula: C16H13Cl2NO4
Exact mass: 353.0221633
SMILES: c1ccc(c(c1)CC(=O)OCC(=O)O)Nc2c(cccc2Cl)Cl
InChI: InChI=1S/C16H13Cl2NO4/c17-11-5-3-6-12(18)16(11)19-13-7-2-1-4-10(13)8-15(22)23-9-14(20)21/h1-7,19H,8-9H2,(H,20,21)
Instrument: Bruker maXis Impact
Instrument type: LC-ESI-QTOF
Ms type: MS2
Ion mode: POSITIVE
Ionization: ESI
Fragmentation mode: CID
Collision energy: 20 eV
Resolution: 35000
Column name: Acclaim RSLC C18 2.2um, 2.1x100mm, Thermo
Retention time: 9.2 min
Base peak: 297.0747
Precursor m/z: 354.0294
Precursor type: [M+H]+
m/z	relative intensity	assigned
214.0344	119	C11H12Cl2+
215.0426	999	C11H13Cl2+
216.0468	163	C11H14Cl2+
217.0398	215	C11H13Cl[37]Cl+
250.0104	840	C14H4NO4+
251.0122	135	C15H6ClNO+
252.0035	344	C9H10Cl[37]ClNO3+
278.0049	130	C16H5ClNO2+
