Mass spectrum: 2-Morpholinothiobenzothiazole; LC-ESI-QTOF; MS2; CE: 40 eV; R=35000; [M+H]+
Name: 2-Morpholinothiobenzothiazole
Name: 2-(Morpholinothio)benzothiazole
Name: 4-(1,3-benzothiazol-2-ylsulfanyl)morpholine
Formula: C11H12N2OS2
Exact mass: 252.0391050
SMILES: C1CN(CCO1)SC1=NC2=CC=CC=C2S1
InChI: InChI=1S/C11H12N2OS2/c1-2-4-10-9(3-1)12-11(15-10)16-13-5-7-14-8-6-13/h1-4H,5-8H2
Instrument: Bruker maXis Impact
Instrument type: LC-ESI-QTOF
Ms type: MS2
Ion mode: POSITIVE
Ionization: ESI
Fragmentation mode: CID
Collision energy: 40 eV
Resolution: 35000
Column name: Acclaim RSLC C18 2.2um, 2.1x100mm, Thermo
Retention time: 9.842 min
Base peak: 253.0457
Precursor m/z: 253.0464
Precursor type: [M+H]+
m/z	relative intensity	assigned
122.0047	263	C6H4NS+
123.011	42	C9HN+
124.0216	40	C6H6NS+
132.9972	31	C7H3NS+
135.0135	150	C7H5NS+
136.0205	266	C10H2N+
137.0226	32	C9[13]CH2N+
138.9656	105	C6H3S2+
148.0199	36	C8H6NS+
162.0368	54	C9H8NS+
163.0313	81	C8H7N2S+
165.9764	999	C7H4NS2+
166.9836	363	C7H5NS2+
167.9745	103	C7H4NS[34]S+
167.9923	391	C7H6NS2+
168.9798	50	C7H5NS[34]S+
168.996	39	C6[13]CH6NS2+
169.9872	53	C7H6NS[34]S+
175.0307	50	C9H7N2S+
183.9875	29	C7H6NOS2+
189.0475	30	C10H9N2S+
219.0596	32	C11H11N2OS+
