Mass spectrum: Chlorfenvinphos; LC-ESI-QTOF; MS2; CE: 30 eV; R=35000; [M+H]+
Name: Chlorfenvinphos
Name: Phosphoric acid, 2-chloro-1-(2,4-dichlorophenyl)ethenyl diethyl ester
Name: [2-chloro-1-(2,4-dichlorophenyl)ethenyl] diethyl phosphate
Formula: C12H14Cl3O4P
Exact mass: 357.9695286
SMILES: CCOP(=O)(OCC)OC(=CCl)C1=C(Cl)C=C(Cl)C=C1
InChI: InChI=1S/C12H14Cl3O4P/c1-3-17-20(16,18-4-2)19-12(8-13)10-6-5-9(14)7-11(10)15/h5-8H,3-4H2,1-2H3
Instrument: Bruker maXis Impact
Instrument type: LC-ESI-QTOF
Ms type: MS2
Ion mode: POSITIVE
Ionization: ESI
Fragmentation mode: CID
Collision energy: 30 eV
Resolution: 35000
Column name: Acclaim RSLC C18 2.2um, 2.1x100mm, Thermo
Retention time: 11.018 min
Base peak: 326.1757
Precursor m/z: 358.9768
Precursor type: [M+H]+
m/z	relative intensity	assigned
127.0145	426	C2H8O4P+
128.0182	6	C[13]CH8O4P+
155.0454	205	C4H12O4P+
156.0493	6	C3[13]CH12O4P+
168.9595	11	C7H3ClOP+
169.9672	682	C7H4ClOP+
170.9704	54	C6[13]CH4ClOP+
171.9642	286	C7H4[37]ClOP+
172.9681	18	C4H8Cl2OP+
196.9652	7	Cl3H13O3P+
204.9367	999	C8H4Cl3+
205.9398	102	C7[13]CH4Cl3+
206.9334	950	C8H4Cl2[37]Cl+
207.9367	49	C4H8Cl3OP+
208.9298	10	Cl3H9O4P+
