Mass spectrum: Ethopabate; LC-ESI-QTOF; MS2; CE: 10 eV; R=35000; [M+H]+
Name: Ethopabate
Name: methyl 4-acetamido-2-ethoxybenzoate
Formula: C12H15NO4
Exact mass: 237.1001080
SMILES: CCOc1cc(ccc1C(=O)OC)NC(=O)C
InChI: InChI=1S/C12H15NO4/c1-4-17-11-7-9(13-8(2)14)5-6-10(11)12(15)16-3/h5-7H,4H2,1-3H3,(H,13,14)
Instrument: Bruker maXis Impact
Instrument type: LC-ESI-QTOF
Ms type: MS2
Ion mode: POSITIVE
Ionization: ESI
Fragmentation mode: CID
Collision energy: 10 eV
Resolution: 35000
Column name: Acclaim RSLC C18 2.2um, 2.1x100mm, Thermo
Retention time: 6.5 min
Base peak: 238.107
Precursor m/z: 238.1074
Precursor type: [M+H]+
m/z	relative intensity	assigned
164.0695	7	C9H10NO2+
206.0807	999	C11H12NO3+
207.084	79	C10[13]CH12NO3+
210.0776	5	C10H12NO4+
238.1071	106	C12H16NO4+
239.1118	8	C11[13]CH16NO4+
