Mass spectrum: Flufenacet; LC-ESI-QTOF; MS2; CE: 40 eV; R=35000; [M+H]+
Name: Flufenacet
Name: N-(4-fluorophenyl)-N-propan-2-yl-2-[[5-(trifluoromethyl)-1,3,4-thiadiazol-2-yl]oxy]acetamide
Formula: C14H13F4N3O2S
Exact mass: 363.0664605
SMILES: CC(C)N(C(=O)COC1=NN=C(S1)C(F)(F)F)C1=CC=C(F)C=C1
InChI: InChI=1S/C14H13F4N3O2S/c1-8(2)21(10-5-3-9(15)4-6-10)11(22)7-23-13-20-19-12(24-13)14(16,17)18/h3-6,8H,7H2,1-2H3
Instrument: Bruker maXis Impact
Instrument type: LC-ESI-QTOF
Ms type: MS2
Ion mode: POSITIVE
Ionization: ESI
Fragmentation mode: CID
Collision energy: 40 eV
Resolution: 35000
Column name: Acclaim RSLC C18 2.2um, 2.1x100mm, Thermo
Retention time: 9.9 min
Base peak: 364.0734
Precursor m/z: 364.0737
Precursor type: [M+H]+
m/z	relative intensity	assigned
109.0446	8	C2H5F2N3+
124.0551	855	C4H12O2S+
125.0391	5	C2H5F2N3O+
132.0437	7	C3H6F4N+
134.0393	9	FH9N3O2S+
137.0622	6	F4H13OS+
152.0498	999	C11H6N+
152.0865	164	C9H11FN+
153.0895	14	C8[13]CH11FN+
166.1019	9	C10H13FN+
194.097	23	C11H13FNO+
