Mass spectrum: 2,4-dimethylphenylformamid; LC-ESI-QTOF; MS2; CE: 20 eV; R=35000; [M+H]+
Name: 2,4-dimethylphenylformamid
Name: N-(2,4-dimethylphenyl)formamide
Formula: C9H11NO
Exact mass: 149.084064
SMILES: CC1=CC(C)=C(NC=O)C=C1
InChI: InChI=1S/C9H11NO/c1-7-3-4-9(10-6-11)8(2)5-7/h3-6H,1-2H3,(H,10,11)
Instrument: Bruker maXis Impact
Instrument type: LC-ESI-QTOF
Ms type: MS2
Ion mode: POSITIVE
Ionization: ESI
Fragmentation mode: CID
Collision energy: 20 eV
Resolution: 35000
Column name: Acclaim RSLC C18 2.2um, 2.1x100mm, Thermo
Retention time: 6.4 min
Base peak: 150.0904
Precursor m/z: 150.0913
Precursor type: [M+H]+
m/z	relative intensity	assigned
106.0646	21	C7H8N+
107.0721	20	C7H9N+
114.0913	7	C6H12NO+
115.0538	5	C9H7+
117.0566	308	C8H7N+
118.0599	28	C3H8N3O2+
120.08	26	C8H10N+
121.0638	20	C8H9O+
121.088	18	C8H11N+
122.0958	489	C8H12N+
123.0796	516	C8H11O+
130.0643	14	C9H8N+
131.0716	15	C9H9N+
132.0801	657	C9H10N+
133.0833	73	C8[13]CH10N+
135.0669	34	C8H9NO+
148.0741	7	C9H10NO+
150.0903	999	C9H12NO+
151.0934	81	C8[13]CH12NO+
152.0965	5	C7[13]CH12NO+
