Mass spectrum: Methyl n-octanoate; GC-APCI-QTOF; MS2; CE: 20 eV; R=35000; [M+H]+
Name: Methyl n-octanoate
Formula: C9H18O2
Exact mass: 158.1307
SMILES: CCCCCCCC(=O)OC
InChI: InChI=1S/C9H18O2/c1-3-4-5-6-7-8-9(10)11-2/h3-8H2,1-2H3
Instrument: Bruker 450 GC coupled to maXis Impact
Instrument type: GC-APCI-QTOF
Ms type: MS2
Ion mode: POSITIVE
Ionization: APCI
Fragmentation mode: CID
Collision energy: 20 eV
Resolution: 35000
Column name: Rxi-5Sil MS column, 30m, 0.25mm i.d., 0.25Âµm film thickness, Restek
Retention time: 8.699 min
Base peak: 159.1407
Precursor m/z: 159.138
Precursor type: [M+H]+
m/z	relative intensity	assigned
55.0554	513	C4H7+
57.0709	999	C4H9+
57.0898	77	CH13O2+
59.0494	338	C3H7O+
71.0488	127	C4H7O+
73.0636	119	C4H9O+
89.0593	74	C4H9O2+
103.0749	108	C5H11O2+
115.0753	141	C6H11O2+
117.0904	238	C6H13O2+
125.0962	124	C8H13O+
159.1416	593	C9H19O2+
