Mass spectrum: Ropinirole; LC-ESI-QTOF; MS2; CE: 30 eV; R=35000; [M+H]+
Name: Ropinirole
Name: 4-[2-(dipropylamino)ethyl]-1,3-dihydroindol-2-one
Formula: C16H24N2O
Exact mass: 260.1888634
SMILES: CCCN(CCC)CCC1=C2CC(=O)NC2=CC=C1
InChI: InChI=1S/C16H24N2O/c1-3-9-18(10-4-2)11-8-13-6-5-7-15-14(13)12-16(19)17-15/h5-7H,3-4,8-12H2,1-2H3,(H,17,19)
Instrument: Bruker maXis Impact
Instrument type: LC-ESI-QTOF
Ms type: MS2
Ion mode: POSITIVE
Ionization: ESI
Fragmentation mode: CID
Collision energy: 30 eV
Resolution: 35000
Column name: Acclaim RSLC C18 2.2um, 2.1x100mm, Thermo
Retention time: 3.953 min
Base peak: 261.1974
Precursor m/z: 261.1961
Precursor type: [M+H]+
m/z	relative intensity	assigned
114.1274	112	C7H16N+
115.0536	10	C9H7+
115.1302	13	C6[13]CH16N+
117.0568	26	C8H7N+
117.0682	5	C9H9+
130.0642	10	C9H8N+
131.0715	7	C9H9N+
132.08	570	C9H10N+
133.0832	42	C8[13]CH10N+
160.0748	999	C10H10NO+
161.0779	74	C9[13]CH10NO+
261.1958	53	C16H25N2O+
262.199	9	C15[13]CH25N2O+
