Mass spectrum: Fluconazole; LC-ESI-QTOF; MS2; CE: 40 eV; R=35000; [M+H]+
Name: Fluconazole
Name: 2-(2,4-difluorophenyl)-1,3-bis(1,2,4-triazol-1-yl)propan-2-ol
Formula: C13H12F2N6O
Exact mass: 306.1040654
SMILES: OC(CN1C=NC=N1)(CN1C=NC=N1)C1=C(F)C=C(F)C=C1
InChI: InChI=1S/C13H12F2N6O/c14-10-1-2-11(12(15)3-10)13(22,4-20-8-16-6-18-20)5-21-9-17-7-19-21/h1-3,6-9,22H,4-5H2
Instrument: Bruker maXis Impact
Instrument type: LC-ESI-QTOF
Ms type: MS2
Ion mode: POSITIVE
Ionization: ESI
Fragmentation mode: CID
Collision energy: 40 eV
Resolution: 35000
Column name: Acclaim RSLC C18 2.2um, 2.1x100mm, Thermo
Retention time: 5.139 min
Base peak: 266.1654
Precursor m/z: 307.1113
Precursor type: [M+H]+
m/z	relative intensity	assigned
119.0286	25	C3H3F2N3+
121.0439	365	C8H6F+
122.0473	30	C7[13]CH6F+
125.0188	5	C7H3F2+
127.0343	819	C7H5F2+
128.0377	66	C6[13]CH5F2+
137.0381	10	CH3F2N6+
139.0343	999	C8H5F2+
140.0373	110	C7[13]CH5F2+
141.0134	137	C10H2F+
141.0498	466	C8H7F2+
142.0178	9	C9[13]CH2F+
142.0531	40	C7[13]CH7F2+
145.0425	8	C5H5F2N3+
146.0386	15	C4H4F2N4+
147.034	81	C8H4FN2+
148.0378	8	C7[13]CH4FN2+
149.0387	29	C12H5+
150.0412	5	C11[13]CH5+
151.0342	917	C9H5F2+
152.0373	88	C8[13]CH5F2+
153.0394	20	C8H5F2N+
154.0397	5	C4H3FN6+
156.0608	7	C8H8F2N+
163.0538	10	C3H5F2N6+
164.0422	24	C10H6F2+
165.0501	9	C10H7F2+
166.0448	115	C9H6F2N+
167.0483	28	C2H5F2N6O+
168.0597	8	C9H8F2N+
169.0447	927	C12H6F+
170.0483	101	C11[13]CH6F+
170.0692	8	C5H7FN6+
171.049	9	C10[13]C2H6F+
172.055	10	C6H6F2N4+
173.0493	149	C10H6FN2+
174.0526	23	C9[13]CH6FN2+
176.0301	8	C10H4F2N+
177.045	38	C12H5N2+
178.0451	24	C10H6F2N+
187.0554	15	C12H8FO+
188.0614	8	C5H6F2N6+
193.0561	57	C13H7NO+
194.0574	7	C12[13]CH7NO+
200.0605	164	C11H7FN3+
201.0644	26	C10[13]CH7FN3+
208.0675	7	C10H8F2N3+
219.0605	21	C11H7F2N3+
220.0674	477	C11H8F2N3+
221.071	70	C10[13]CH8F2N3+
224.0607	5	C8H6F2N6+
238.0781	129	C9H8F2N6+
239.0809	19	C8[13]CH8F2N6+
