Mass spectrum: Methyl 4-hydroxybenzoate; GC-APCI-QTOF; MS2; CE: 20 eV; R=35000; [M]+
Name: Methyl 4-hydroxybenzoate
Formula: C8H8O3
Exact mass: 152.0473
SMILES: COC(=O)C1=CC=C(C=C1)O
InChI: InChI=1S/C8H8O3/c1-11-8(10)6-2-4-7(9)5-3-6/h2-5,9H,1H3
Instrument: Bruker 450 GC coupled to maXis Impact
Instrument type: GC-APCI-QTOF
Ms type: MS2
Ion mode: POSITIVE
Ionization: APCI
Fragmentation mode: CID
Collision energy: 20 eV
Resolution: 35000
Column name: Rxi-5Sil MS column, 30m, 0.25mm i.d., 0.25Âµm film thickness, Restek
Retention time: 12.170 min
Base peak: 153.0526
Precursor m/z: 152.0468
Precursor type: [M]+
m/z	relative intensity	assigned
111.0433	14	C6H7O2+
121.0278	999	C7H5O2+
135.0459	11	C8H7O2+
151.0394	53	C8H7O3+
