Mass spectrum: Triethylphosphate; LC-ESI-QTOF; MS2; CE: Ramp 17.4-26.1 eV; R=35000; [M+H]+
Name: Triethylphosphate
Name: triethyl phosphate
Formula: C6H15O4P
Exact mass: 182.0707956
SMILES: CCOP(=O)(OCC)OCC
InChI: InChI=1S/C6H15O4P/c1-4-8-11(7,9-5-2)10-6-3/h4-6H2,1-3H3
Instrument: Bruker maXis Impact
Instrument type: LC-ESI-QTOF
Ms type: MS2
Ion mode: POSITIVE
Ionization: ESI
Fragmentation mode: CID
Collision energy: Ramp 17.4-26.1 eV
Resolution: 35000
Column name: Acclaim RSLC C18 2.2um, 2.1x100mm, Thermo
Retention time: 6.120 min
Base peak: 183.0769
Precursor m/z: 183.0781
Precursor type: [M+H]+
m/z	relative intensity	assigned
98.9837	992	H4O4P+
127.0154	999	C2H8O4P+
155.0454	628	C4H12O4P+
