Mass spectrum: Mometasone fuorate; LC-ESI-QTOF; MS2; CE: 40 eV; R=35000; [M+H]+
Name: Mometasone fuorate
Name: Mometasone furoate
Name: [(8S,9R,10S,11S,13S,14S,16R,17R)-9-chloro-17-(2-chloroacetyl)-11-hydroxy-10,13,16-trimethyl-3-oxo-6,7,8,11,12,14,15,16-octahydrocyclopenta[a]phenanthren-17-yl] furan-2-carboxylate
Formula: C27H30Cl2O6
Exact mass: 520.1419440
SMILES: C[C@@H]1C[C@H]2[C@@H]3CCC4=CC(=O)C=C[C@]4(C)[C@@]3(Cl)[C@@H](O)C[C@]2(C)[C@@]1(OC(=O)C1=CC=CO1)C(=O)CCl
InChI: InChI=1S/C27H30Cl2O6/c1-15-11-19-18-7-6-16-12-17(30)8-9-24(16,2)26(18,29)21(31)13-25(19,3)27(15,22(32)14-28)35-23(33)20-5-4-10-34-20/h4-5,8-10,12,15,18-19,21,31H,6-7,11,13-14H2,1-3H3/t15-,18+,19+,21+,24+,25+,26+,27+/m1/s1
Instrument: Bruker maXis Impact
Instrument type: LC-ESI-QTOF
Ms type: MS2
Ion mode: POSITIVE
Ionization: ESI
Fragmentation mode: CID
Collision energy: 40 eV
Resolution: 35000
Column name: Acclaim RSLC C18 2.2um, 2.1x100mm, Thermo
Retention time: 10.681 min
Base peak: 313.2164
Precursor m/z: 521.1492
Precursor type: [M+H]+
m/z	relative intensity	assigned
115.0538	21	C9H7+
117.0712	11	C9H9+
119.0842	56	C3H16ClO2+
121.0641	174	C8H9O+
121.1015	25	C9H13+
122.0673	14	C7[13]CH9O+
128.0619	21	C10H8+
129.0697	13	C10H9+
131.0246	13	Cl2H13O3+
131.0851	33	C10H11+
132.0556	11	C3H13ClO3+
132.0905	11	C4H17ClO2+
133.0414	29	C6H10ClO+
133.0626	34	C3H14ClO3+
133.1005	37	C10H13+
135.0793	398	C9H11O+
136.0827	35	C8[13]CH11O+
137.0955	16	C9H13O+
141.069	12	C11H9+
142.0758	12	C5H15ClO2+
143.062	13	C8H12Cl+
143.084	47	C5H16ClO2+
145.0421	14	C7H10ClO+
145.0639	62	C10H9O+
145.1002	37	C11H13+
146.0689	16	C4H15ClO3+
147.0791	478	C10H11O+
148.0817	58	C9[13]CH11O+
149.095	18	C10H13O+
151.074	15	C3H16ClO4+
153.0676	10	C6H14ClO2+
155.0627	17	C9H12Cl+
155.084	29	C6H16ClO2+
156.0888	18	Cl2H22O4+
157.0388	23	C2H15Cl2O3+
157.0643	12	C11H9O+
157.1001	56	C6H18ClO2+
158.072	21	C11H10O+
159.0795	188	C11H11O+
159.1162	20	C12H15+
160.0839	23	C10[13]CH11O+
161.0587	22	C10H9O2+
161.0954	99	C11H13O+
163.074	19	C4H16ClO4+
167.061	42	C4H17Cl2O2+
167.0856	12	C13H11+
169.0405	14	C9H10ClO+
169.0637	35	C6H14ClO3+
169.0999	20	C7H18ClO2+
170.0713	16	C6H15ClO3+
170.1065	18	C7H19ClO2+
171.0556	127	C9H12ClO+
171.0792	326	C12H11O+
171.1172	37	C13H15+
172.0833	49	C11[13]CH11O+
173.0551	30	C9H12[37]ClO+
173.0951	271	C12H13O+
174.0983	41	C11[13]CH13O+
175.1101	21	C6H20ClO3+
177.0438	14	C5H15Cl2O2+
177.0885	10	C5H18ClO4+
179.0621	26	C11H12Cl+
179.0834	28	C8H16ClO2+
180.0907	13	C8H17ClO2+
181.04	11	C4H15Cl2O3+
182.0731	17	C13H10O+
183.0551	41	C10H12ClO+
183.0797	51	CH21Cl2O5+
183.1166	18	C14H15+
184.086	26	C7H17ClO3+
185.0558	16	C10H12[37]ClO+
185.0706	41	CH21Cl[37]ClO5+
185.0949	260	C7H18ClO3+
186.0985	62	CH24Cl2O5+
187.0519	27	C9H12ClO2+
187.0746	84	C12H11O2+
187.1106	72	C13H15O+
188.119	11	C12[13]CH15O+
189.0901	27	Cl2H23O6+
191.0605	50	C12H12Cl+
191.0832	15	H23Cl[37]ClO6+
193.0587	21	C12H12[37]Cl+
193.0762	23	C6H19Cl2O2+
193.0996	27	C9H18ClO2+
194.1078	11	C9H19ClO2+
195.0565	44	C5H17Cl2O3+
195.0776	35	C2H21Cl2O5+
195.1181	22	C15H15+
196.0864	25	C8H17ClO3+
197.0528	13	C5H17Cl[37]ClO3+
197.0732	13	C2H21Cl[37]ClO5+
197.0947	82	C8H18ClO3+
198.1011	31	C8H19ClO3+
199.0734	48	C7H16ClO4+
199.1114	34	C14H15O+
201.087	12	CH23Cl2O6+
205.0424	15	C12H10ClO+
205.0801	18	C13H14Cl+
205.1011	31	C4H23Cl2O4+
207.0558	49	C6H17Cl2O3+
207.0794	20	C15H11O+
207.0913	17	C4H23Cl[37]ClO4+
207.1157	22	C16H15+
208.0867	62	C9H17ClO3+
209.0956	93	C15H13O+
210.1044	42	C15H14O+
211.0673	13	C9H17Cl2O+
211.1108	94	C15H15O+
212.1162	18	C14[13]CH15O+
213.0915	13	C14H13O2+
213.1266	28	C15H17O+
215.082	15	C5H21Cl2O4+
216.069	10	C14H13Cl+
217.0991	11	C11H18ClO2+
219.0582	12	C13H12ClO+
219.0789	22	C4H21Cl2O5+
219.1163	19	C17H15+
220.0882	20	C16H12O+
220.1238	16	C17H16+
221.0708	15	C4H21Cl[37]ClO5+
221.0959	128	C16H13O+
221.1301	21	C11H22ClO2+
222.1015	77	C10H19ClO3+
223.1109	277	C16H15O+
224.117	179	C10H21ClO3+
225.1257	74	C16H17O+
226.1293	14	C15[13]CH17O+
229.0411	16	C8H15Cl2O3+
229.0809	15	C8H18ClO5+
229.1007	15	C18H13+
230.1075	24	C12H19ClO2+
231.0368	16	C8H15Cl[37]ClO3+
232.0871	14	C11H17ClO3+
233.0729	25	C14H14ClO+
233.0968	40	C17H13O+
234.103	85	C17H14O+
235.1099	197	C17H15O+
235.1469	48	C18H19+
236.1152	43	C16[13]CH15O+
236.149	15	C17[13]CH19+
237.1252	171	C17H17O+
238.13	47	C16[13]CH17O+
239.1415	58	C17H19O+
240.1458	12	C16[13]CH19O+
241.1217	23	C16H17O2+
241.1572	12	C11H26ClO3+
243.0528	14	C9H17Cl2O3+
244.1192	13	C7H26Cl2O4+
245.0714	29	C9H19Cl2O3+
245.0972	17	C18H13O+
245.1314	67	C13H22ClO2+
246.1012	24	C12H19ClO3+
246.1344	14	C12[13]CH22ClO2+
247.0488	15	C8H17Cl2O4+
247.0608	12	C13H11O5+
247.0858	31	C9H21Cl2O3+
247.1109	44	C18H15O+
248.1184	171	C12H21ClO3+
249.0901	18	C5H23Cl2O6+
249.1246	127	C12H22ClO3+
249.1632	14	C19H21+
250.0982	39	C17H14O2+
250.132	49	C12H23ClO3+
250.1694	12	C13H27ClO2+
251.0835	14	C5H23Cl[37]ClO6+
251.1066	22	C17H15O2+
251.1422	23	C18H19O+
251.1771	21	C13H28ClO2+
252.1451	16	C6H30Cl2O5+
253.1577	23	C18H21O+
257.0723	21	C16H14ClO+
257.1306	16	C14H22ClO2+
258.1055	15	C19H14O+
259.0888	17	C16H16ClO+
259.1105	44	C13H20ClO3+
259.1468	19	C14H24ClO2+
260.1183	102	C13H21ClO3+
260.1568	29	C20H20+
261.1273	82	C19H17O+
261.1633	57	C13H25O5+
262.135	117	C19H18O+
262.1715	11	C12[13]CH25O5+
263.1422	999	C19H19O+
264.1464	228	C18[13]CH19O+
265.1543	24	C17[13]C2H19O+
267.0511	11	C11H17Cl2O3+
271.0879	42	C11H21Cl2O3+
271.1102	22	C8H25Cl2O5+
272.0932	15	C11H22Cl2O3+
272.1177	46	C14H21ClO3+
273.0831	11	C11H21Cl[37]ClO3+
273.1059	13	C8H25Cl[37]ClO5+
273.1266	98	C20H17O+
273.1642	27	C21H21+
274.132	46	C14H23ClO3+
275.1	14	C7H25Cl2O6+
275.1438	77	C20H19O+
276.1499	63	C20H20O+
277.1243	24	C19H17O2+
277.1583	289	C20H21O+
278.1656	807	C20H22O+
279.1721	483	C20H23O+
280.1776	83	C19[13]CH23O+
281.0695	14	C12H19Cl2O3+
281.1521	32	C13H26ClO4+
281.178	10	C18[13]C2H23O+
283.1519	12	C13H26[37]ClO4+
284.1531	12	C16H25ClO2+
285.0677	16	C17H14ClO2+
285.1056	17	C18H18ClO+
285.1336	14	C14H21O6+
286.1341	109	C21H18O+
287.122	11	C18H20ClO+
287.1413	40	C20[13]CH18O+
288.1507	160	C21H20O+
289.1563	49	C20[13]CH20O+
290.1295	10	C20H18O2+
291.1372	81	C20H19O2+
291.1731	114	C21H23O+
292.1401	18	C19[13]CH19O2+
292.1805	21	C20[13]CH23O+
295.0856	18	C13H21Cl2O3+
296.1748	17	C14H29ClO4+
297.1044	14	C19H18ClO+
297.1827	11	C14H30ClO4+
299.0817	24	C12H21Cl2O4+
299.1208	38	C19H20ClO+
299.1382	12	C10H29Cl2O5+
301.1191	12	C19H20[37]ClO+
301.1581	212	C22H21O+
302.1638	57	C21[13]CH21O+
303.1695	22	C16H28ClO3+
304.1447	23	C21H20O2+
305.1511	17	C15H26ClO4+
306.1609	168	C21H22O2+
307.1655	50	C20[13]CH22O2+
308.0917	15	C14H22Cl2O3+
309.1037	23	C20H18ClO+
311.1167	12	C14H25Cl2O3+
313.0993	38	C25H13+
313.1345	25	C20H22ClO+
314.1006	13	C24[13]CH13+
314.1419	58	C20H23ClO+
315.1502	14	C19[13]CH23ClO+
316.1427	12	C20H23[37]ClO+
319.1665	82	C22H23O2+
320.1733	24	C21[13]CH23O2+
322.1112	22	C21H19ClO+
327.1155	12	C20H20ClO2+
327.1501	37	C21H24ClO+
328.1548	14	C15H30Cl2O3+
329.1488	13	C21H24[37]ClO+
337.137	101	C22H22ClO+
338.1371	28	C21[13]CH22ClO+
339.1365	17	C22H22[37]ClO+
340.1331	15	C19H26Cl2O+
355.1462	131	C22H24ClO2+
356.1497	51	C21[13]CH24ClO2+
357.1436	28	C22H24[37]ClO2+
373.1729	10	C19H30ClO5+
373.1827	18	C25H25O3+
391.1281	11	C21H24ClO5+
