Mass spectrum: Diflufenican; LC-ESI-QTOF; MS2; CE: 30 eV; R=35000; [M-H]-
Name: Diflufenican
Name: N-(2,4-difluorophenyl)-2-[3-(trifluoromethyl)phenoxy]pyridine-3-carboxamide
Formula: C19H11F5N2O2
Exact mass: 394.0740687
SMILES: FC1=CC=C(NC(=O)C2=CC=CN=C2OC2=CC=CC(=C2)C(F)(F)F)C(F)=C1
InChI: InChI=1S/C19H11F5N2O2/c20-12-6-7-16(15(21)10-12)26-17(27)14-5-2-8-25-18(14)28-13-4-1-3-11(9-13)19(22,23)24/h1-10H,(H,26,27)
Instrument: Bruker maXis Impact
Instrument type: LC-ESI-QTOF
Ms type: MS2
Ion mode: NEGATIVE
Ionization: ESI
Fragmentation mode: CID
Collision energy: 30 eV
Resolution: 35000
Column name: Acclaim RSLC C18 2.2um, 2.1x100mm, Thermo
Retention time: 11.729 min
Base peak: 393.0657
Precursor m/z: 393.0668
Precursor type: [M-H]-
m/z	relative intensity	assigned
161.0221	202	C10H3F2-
162.0228	18	C9[13]CH3F2-
185.0501	73	C11H6FN2-
186.0364	21	C11H5FNO-
186.0562	12	C10[13]CH6FN2-
210.0531	9	C11H7F3N-
212.0341	16	C7H6F4NO2-
218.0418	21	C12H6F2NO-
229.0429	32	C12H6FN2O2-
232.0373	19	C13H5F3N-
238.0478	119	C9H8F4NO2-
239.0499	10	C8[13]CH8F4NO2-
239.0548	11	C8[13]CH8F4NO2-
252.0434	329	C13H6F4N-
253.0463	33	C12[13]CH6F4N-
270.031	11	C13H6F4O2-
270.044	12	C17H6N2O2-
272.0501	999	C13H7F5N-
273.054	124	C12[13]CH7F5N-
274.0553	11	C11[13]C2H7F5N-
289.063	11	C17H9F4-
302.057	9	C17H9F3O2-
309.0631	26	C18H8F3N2-
325.0573	23	C18H8F3N2O-
328.063	12	C18H8F4N2-
329.0699	35	C18H9F4N2-
345.068	11	C15H10F5N2O2-
353.0536	35	C19H8F3N2O2-
373.0552	14	C19H9F4N2O2-
373.0636	9	C19H9F4N2O2-
