Mass spectrum: Mefenamic acid; LC-ESI-QTOF; MS2; CE: 30 eV; R=35000; [M+H]+
Name: Mefenamic acid
Name: 2-(2,3-dimethylanilino)benzoic acid
Formula: C15H15NO2
Exact mass: 241.1102787
SMILES: Cc1cccc(c1C)Nc2ccccc2C(=O)O
InChI: InChI=1S/C15H15NO2/c1-10-6-5-9-13(11(10)2)16-14-8-4-3-7-12(14)15(17)18/h3-9,16H,1-2H3,(H,17,18)
Instrument: Bruker maXis Impact
Instrument type: LC-ESI-QTOF
Ms type: MS2
Ion mode: POSITIVE
Ionization: ESI
Fragmentation mode: CID
Collision energy: 30 eV
Resolution: 35000
Column name: Acclaim RSLC C18 2.2um, 2.1x100mm, Thermo
Retention time: 11.5 min
Base peak: 242.1097
Precursor m/z: 242.1176
Precursor type: [M+H]+
m/z	relative intensity	assigned
180.0741	81	C8H10N3O2+
181.0791	59	C12H9N2+
208.0722	156	C14H10NO+
209.0789	430	C14H11NO+
210.079	62	C13H10N2O+
222.0877	112	C15H12NO+
223.0912	90	C15H13NO+
224.1032	999	C15H14NO+
225.1022	163	C14H13N2O+
