Mass spectrum: Leucomalachite Green; LC-ESI-QTOF; MS2; CE: RAMP 22.2-33.3 eV; R=35000; [M+H]+
Name: Leucomalachite Green
Name: 4-[[4-(dimethylamino)phenyl]-phenylmethyl]-N,N-dimethylaniline
Formula: C23H26N2
Exact mass: 330.2095988
SMILES: CN(C)c1ccc(cc1)C(c2ccccc2)c3ccc(cc3)N(C)C
InChI: InChI=1S/C23H26N2/c1-24(2)21-14-10-19(11-15-21)23(18-8-6-5-7-9-18)20-12-16-22(17-13-20)25(3)4/h5-17,23H,1-4H3
Instrument: Bruker maXis Impact
Instrument type: LC-ESI-QTOF
Ms type: MS2
Ion mode: POSITIVE
Ionization: ESI
Fragmentation mode: CID
Collision energy: RAMP 22.2-33.3 eV
Resolution: 35000
Column name: Acclaim RSLC C18 2.2um, 2.1x100mm, Thermo
Retention time: 13.580 min
Base peak: 331.2174
Precursor m/z: 331.2169
Precursor type: [M+H]+
m/z	relative intensity	assigned
91.0526	6	C7H7+
120.0798	10	C8H10N+
121.0876	12	C8H11N+
134.0957	15	C9H12N+
165.0686	8	C13H9+
194.0953	29	C14H12N+
195.1033	91	C14H13N+
196.11	29	C14H14N+
208.1109	19	C15H14N+
209.119	108	C15H15N+
210.1262	88	C15H16N+
211.1294	9	C14[13]CH16N+
223.1214	8	C15H15N2+
238.1457	25	C16H18N2+
239.1543	999	C16H19N2+
240.157	294	C16H20N2+
241.1597	15	C14[13]C2H19N2+
253.1689	6	C17H21N2+
272.1429	126	C20H18N+
273.146	25	C19[13]CH18N+
286.1584	62	C21H20N+
287.1619	13	C20[13]CH20N+
301.1691	19	C21H21N2+
315.1856	348	C22H23N2+
316.1929	864	C22H24N2+
317.1966	189	C21[13]CH24N2+
318.199	14	C21[13]CH25N2+
329.2009	22	C23H25N2+
330.2029	6	C22[13]CH25N2+
331.2171	955	C23H27N2+
333.2232	34	C21[13]C2H27N2+
