Mass spectrum: Picoxystrobin; LC-ESI-QTOF; MS2; CE: 10 eV; R=35000; [M+H]+
Name: Picoxystrobin
Name: methyl (E)-3-methoxy-2-[2-[[6-(trifluoromethyl)pyridin-2-yl]oxymethyl]phenyl]prop-2-enoate
Formula: C18H16F3NO4
Exact mass: 367.1031427
SMILES: CO\C=C(\C(=O)OC)C1=CC=CC=C1COC1=CC=CC(=N1)C(F)(F)F
InChI: InChI=1S/C18H16F3NO4/c1-24-11-14(17(23)25-2)13-7-4-3-6-12(13)10-26-16-9-5-8-15(22-16)18(19,20)21/h3-9,11H,10H2,1-2H3/b14-11+
Instrument: Bruker maXis Impact
Instrument type: LC-ESI-QTOF
Ms type: MS2
Ion mode: POSITIVE
Ionization: ESI
Fragmentation mode: CID
Collision energy: 10 eV
Resolution: 35000
Column name: Acclaim RSLC C18 2.2um, 2.1x100mm, Thermo
Retention time: 10.545 min
Base peak: 317.1653
Precursor m/z: 368.1104
Precursor type: [M+H]+
m/z	relative intensity	assigned
145.0638	258	C10H9O+
146.067	24	C9[13]CH9O+
173.0586	19	C11H9O2+
177.0899	7	C11H13O2+
205.0861	999	C13H11F2+
206.0887	199	C12[13]CH11F2+
207.0905	13	C11[13]C2H11F2+
368.1103	18	C18H17F3NO4+
