Mass spectrum: 2-Amido-3,5,6-trichloro-4-cyanobenzenesulfonic acid; LC-ESI-QTOF; MS2; CE: 20 eV; R=35000; [M-H]-
Name: 2-Amido-3,5,6-trichloro-4-cyanobenzenesulfonic acid
Formula: C8H3Cl3N2O4S
Exact mass: 327.8879106
SMILES: NC(=O)C1=C(C(Cl)=C(Cl)C(C#N)=C1Cl)S(O)(=O)=O
InChI: InChI=1S/C8H3Cl3N2O4S/c9-4-2(1-12)5(10)6(11)7(18(15,16)17)3(4)8(13)14/h(H2,13,14)(H,15,16,17)
Instrument: Bruker maXis Impact
Instrument type: LC-ESI-QTOF
Ms type: MS2
Ion mode: NEGATIVE
Ionization: ESI
Fragmentation mode: CID
Collision energy: 20 eV
Resolution: 35000
Column name: Acclaim RSLC C18 2.2um, 2.1x100mm, Thermo
Retention time: 4.345 min
Base peak: 328.8776
Precursor m/z: 326.8806
Precursor type: [M-H]-
m/z	relative intensity	assigned
203.9171	273	C2H2Cl2N2O3S-
219.9152	856	C7H2Cl2O2S-
221.9079	725	C7H2Cl[37]ClO2S-
221.9158	736	C7H2Cl[37]ClO2S-
283.8695	630	C7HCl3NO3S-
285.8725	999	C7HCl2[37]ClNO3S-
326.8784	521	C8H2Cl3N2O4S-
328.874	554	C8H2Cl2[37]ClN2O4S-
328.8837	630	C8H2Cl2[37]ClN2O4S-
