Mass spectrum: Dichlofluanid; LC-ESI-QTOF; MS2; CE: 30 eV; R=35000; [M+H]+
Name: Dichlofluanid
Name: N-[dichloro(fluoro)methyl]sulfanyl-N-(dimethylsulfamoyl)aniline
Formula: C9H11Cl2FN2O2S2
Exact mass: 331.9623032
SMILES: CN(C)S(=O)(=O)N(SC(F)(Cl)Cl)C1=CC=CC=C1
InChI: InChI=1S/C9H11Cl2FN2O2S2/c1-13(2)18(15,16)14(17-9(10,11)12)8-6-4-3-5-7-8/h3-7H,1-2H3
Instrument: Bruker maXis Impact
Instrument type: LC-ESI-QTOF
Ms type: MS2
Ion mode: POSITIVE
Ionization: ESI
Fragmentation mode: CID
Collision energy: 30 eV
Resolution: 35000
Column name: Acclaim RSLC C18 2.2um, 2.1x100mm, Thermo
Retention time: 10.0 min
Base peak: 332.9693
Precursor m/z: 332.9696
Precursor type: [M+H]+
m/z	relative intensity	assigned
120.0797	6	C8H10N+
121.0893	6	C5H12FNO+
122.0048	21	C3H4ClFN2+
123.013	999	C6H5NS+
153.0034	13	C4H9O2S2+
188.9796	12	CH10Cl2FNO2S+
223.9493	208	C4H10Cl2O2S2+
224.9515	24	C3[13]CH10Cl2O2S2+
225.9459	116	C4H10[37]Cl[35]ClO2S2+
226.949	8	C3[13]CH10[37]Cl[35]ClO2S2+
