Mass spectrum: 2,2`-Methylenebis(6-tert-butyl-p-cresol); GC-APCI-QTOF; MS2; CE: 20 eV; R=35000; [M]+
Name: 2,2`-Methylenebis(6-tert-butyl-p-cresol)
Formula: C23H32O2
Exact mass: 340.2402
SMILES: CC1=CC(=C(C(=C1)C(C)(C)C)O)CC2=C(C(=CC(=C2)C)C(C)(C)C)O
InChI: InChI=1S/C23H32O2/c1-14-9-16(20(24)18(11-14)22(3,4)5)13-17-10-15(2)12-19(21(17)25)23(6,7)8/h9-12,24-25H,13H2,1-8H3
Instrument: Bruker 450 GC coupled to maXis Impact
Instrument type: GC-APCI-QTOF
Ms type: MS2
Ion mode: POSITIVE
Ionization: APCI
Fragmentation mode: CID
Collision energy: 20 eV
Resolution: 35000
Column name: Rxi-5Sil MS column, 30m, 0.25mm i.d., 0.25Âµm film thickness, Restek
Retention time: 19.985 min
Base peak: 309.2762
Precursor m/z: 340.2397
Precursor type: [M]+
m/z	relative intensity	assigned
55.055	140	C4H7+
57.0709	118	C4H9+
67.0544	177	C5H7+
69.0701	174	C5H9+
71.0855	94	C5H11+
79.0547	75	C6H7+
81.0693	138	C6H9+
83.0489	31	C5H7O+
83.085	147	C6H11+
93.0701	30	C7H9+
95.0848	73	C7H11+
97.1013	126	C7H13+
107.0842	46	C8H11+
109.101	55	C8H13+
119.0852	121	C9H11+
121.0646	21	C8H9O+
121.1002	138	C9H13+
123.0799	103	C8H11O+
123.1167	87	C9H15+
125.0954	416	C8H13O+
131.0866	27	C10H11+
133.1013	106	C10H13+
135.0819	68	C9H11O+
135.1167	96	C10H15+
136.0881	24	C9H12O+
137.0973	215	C9H13O+
137.1339	52	C10H17+
138.1005	30	C9H14O+
139.0761	34	C8H11O2+
139.1128	48	C9H15O+
141.0926	31	C8H13O2+
141.1285	52	C9H17O+
143.1082	75	C8H15O2+
147.1191	38	C11H15+
148.1276	27	C11H16+
149.0984	54	C10H13O+
149.1361	48	C11H17+
151.0785	21	C9H11O2+
151.1144	49	C10H15O+
151.1505	25	C11H19+
153.0943	22	C9H13O2+
153.1305	29	C10H17O+
155.1087	34	C9H15O2+
159.1201	21	C12H15+
161.1361	46	C12H17+
163.1135	38	C11H15O+
163.1521	46	C12H19+
165.0945	53	C10H13O2+
171.1404	65	C10H19O2+
173.1334	33	C13H17+
175.15	29	C13H19+
177.1672	38	C13H21+
179.1451	27	C12H19O+
181.1604	28	C12H21O+
183.1423	33	C11H19O2+
187.1502	33	C14H19+
193.1618	30	C13H21O+
195.1396	23	C12H19O2+
195.174	26	C13H23O+
205.1974	20	C15H25+
219.2098	40	C16H27+
220.2174	24	C16H28+
231.2114	24	C17H27+
233.2276	51	C17H29+
239.183	32	C18H23+
243.2107	26	C18H27+
245.2244	27	C18H29+
247.2087	22	C17H27O+
249.2216	32	C17H29O+
251.2374	32	C17H31O+
259.2045	23	C18H27O+
261.2231	34	C18H29O+
263.238	27	C18H31O+
264.2455	27	C18H32O+
275.1994	35	C18H27O2+
277.2156	45	C18H29O2+
279.2334	20	C18H31O2+
280.2247	94	C21H28+
294.2413	999	C22H30+
295.2459	128	C22H31+
296.2558	27	C22H32+
