Mass spectrum: Roxithromycin; LC-ESI-QTOF; MS2; CE: 40 eV; R=35000; [M+H]+
Name: Roxithromycin
Name: (3R,4S,5S,6R,7R,9R,10E,11S,12R,13S,14R)-6-[(2S,3R,4S,6R)-4-(dimethylamino)-3-hydroxy-6-methyloxan-2-yl]oxy-14-ethyl-7,12,13-trihydroxy-4-[(2R,4R,5S,6S)-5-hydroxy-4-methoxy-4,6-dimethyloxan-2-yl]oxy-10-(2-methoxyethoxymethoxyimino)-3,5,7,9,11,13-hexamethyl-oxacyclotetradecan-2-one
Formula: C41H76N2O15
Exact mass: 836.5245697
SMILES: CC[C@@H]1[C@@]([C@@H]([C@H](/C(=N/OCOCCOC)/[C@@H](C[C@@]([C@@H]([C@H]([C@@H]([C@H](C(=O)O1)C)O[C@H]2C[C@@]([C@H]([C@@H](O2)C)O)(C)OC)C)O[C@H]3[C@@H]([C@H](C[C@H](O3)C)N(C)C)O)(C)O)C)C)O)(C)O
InChI: InChI=1S/C41H76N2O15/c1-15-29-41(10,49)34(45)24(4)31(42-53-21-52-17-16-50-13)22(2)19-39(8,48)36(58-38-32(44)28(43(11)12)18-23(3)54-38)25(5)33(26(6)37(47)56-29)57-30-20-40(9,51-14)35(46)27(7)55-30/h22-30,32-36,38,44-46,48-49H,15-21H2,1-14H3/b42-31+/t22-,23-,24+,25+,26-,27+,28+,29-,30+,32-,33+,34-,35+,36-,38+,39-,40-,41-/m1/s1
Instrument: Bruker maXis Impact
Instrument type: LC-ESI-QTOF
Ms type: MS2
Ion mode: POSITIVE
Ionization: ESI
Fragmentation mode: CID
Collision energy: 40 eV
Resolution: 35000
Column name: Acclaim RSLC C18 2.2um, 2.1x100mm, Thermo
Retention time: 9.394 min
Base peak: 837.5359
Precursor m/z: 837.5318
Precursor type: [M+H]+
m/z	relative intensity	assigned
116.071	10	C5H10NO2+
116.1075	27	C6H14NO+
127.0756	10	C7H11O2+
158.1184	999	C8H16NO2+
159.1215	77	C5H19O5+
160.1233	5	C4[13]CH19O5+
380.2463	5	C11H40O13+
398.2565	13	C24H34N2O3+
416.2669	5	C24H36N2O4+
446.2785	5	C25H38N2O5+
522.3346	18	C33H46O5+
523.3383	6	C32[13]CH46O5+
540.3554	6	C32H48N2O5+
555.3683	7	C34H51O6+
558.3687	11	C22H56NO14+
573.3773	5	C34H53O7+
603.3902	8	C23H59N2O15+
661.4327	8	C41H59NO6+
679.4431	85	C41H61NO7+
680.4458	37	C33H64N2O12+
681.4508	7	C32[13]CH64N2O12+
