Mass spectrum: Benz[a]anthracene; GC-APCI-QTOF; MS2; CE: 20 eV; R=35000; [M]+
Name: Benz[a]anthracene
Name: benzo[a]anthracene
Formula: C18H12
Exact mass: 228.0939
SMILES: C1=CC2=C(C=C1)C=C1C(C=CC3=C1C=CC=C3)=C2
InChI: InChI=1S/C18H12/c1-2-7-15-12-18-16(11-14(15)6-1)10-9-13-5-3-4-8-17(13)18/h1-12H
Instrument: Bruker 450 GC coupled to maXis Impact
Instrument type: GC-APCI-QTOF
Ms type: MS2
Ion mode: POSITIVE
Ionization: APCI
Fragmentation mode: CID
Collision energy: 20 eV
Resolution: 35000
Column name: Rxi-5Sil MS column, 30m, 0.25mm i.d., 0.25Âµm film thickness (Restek)
Retention time: 23.685 min
Base peak: 228.0908
Precursor m/z: 228.0934
Precursor type: [M]+
m/z	relative intensity	assigned
228.091	999	C18H12+
