Mass spectrum: 3-(4-Isopropylphenyl)isobutyraldehyde; GC-APCI-QTOF; MS2; CE: 20 eV; R=35000; [M]+
Name: 3-(4-Isopropylphenyl)isobutyraldehyde
Formula: C13H18O
Exact mass: 190.1358
SMILES: CC(C)C1=CC=C(C=C1)CC(C)C=O
InChI: InChI=1S/C13H18O/c1-10(2)13-6-4-12(5-7-13)8-11(3)9-14/h4-7,9-11H,8H2,1-3H3
Instrument: Bruker 450 GC coupled to maXis Impact
Instrument type: GC-APCI-QTOF
Ms type: MS2
Ion mode: POSITIVE
Ionization: APCI
Fragmentation mode: CID
Collision energy: 20 eV
Resolution: 35000
Column name: Rxi-5Sil MS column, 30m, 0.25mm i.d., 0.25Âµm film thickness, Restek
Retention time: 12.019 min
Base peak: 190.134
Precursor m/z: 190.1352
Precursor type: [M]+
m/z	relative intensity	assigned
91.0544	18	C7H7+
92.0613	8	C7H8+
105.0695	60	C8H9+
115.0547	94	C9H7+
116.0619	9	C9H8+
117.0698	207	C9H9+
118.0755	29	C9H10+
119.0853	56	C9H11+
128.0624	38	C10H8+
129.0697	438	C10H9+
131.0854	79	C10H11+
132.0933	147	C10H12+
133.0646	52	C9H9O+
133.1007	999	C10H13+
142.0765	20	C11H10+
145.0666	7	C10H9O+
145.1006	8	C11H13+
146.0712	9	C10H10O+
147.0792	584	C10H11O+
147.116	48	C11H15+
149.0978	7	C10H13O+
157.1005	40	C12H13+
175.1108	429	C12H15O+
189.1263	10	C13H17O+
