Mass spectrum: Tetramethylene glycol dimethacrylate; GC-APCI-QTOF; MS2; CE: 30 eV; R=35000; [M]+
Name: Tetramethylene glycol dimethacrylate
Formula: C12H18O4
Exact mass: 226.1205
SMILES: CC(=C)C(=O)OCCCCOC(=O)C(=C)C
InChI: InChI=1S/C12H18O4/c1-9(2)11(13)15-7-5-6-8-16-12(14)10(3)4/h1,3,5-8H2,2,4H3
Instrument: Bruker 450 GC coupled to maXis Impact
Instrument type: GC-APCI-QTOF
Ms type: MS2
Ion mode: POSITIVE
Ionization: APCI
Fragmentation mode: CID
Collision energy: 30 eV
Resolution: 35000
Column name: Rxi-5Sil MS column, 30m, 0.25mm i.d., 0.25Âµm film thickness, Restek
Retention time: 12.621 min
Base peak: 141.0916
Precursor m/z: 226.12
Precursor type: [M]+
m/z	relative intensity	assigned
54.0475	69	C4H6+
55.0552	515	C4H7+
69.0343	184	C4H5O+
108.0578	88	C7H8O+
111.0445	90	C6H7O2+
125.06	360	C7H9O2+
126.067	154	C7H10O2+
141.0926	999	C8H13O2+
