Mass spectrum: Fluvastatin; LC-ESI-QTOF; MS2; CE: 20 eV; R=35000; [M+Na]+
Name: Fluvastatin
Name: (E,3R,5S)-7-[3-(4-fluorophenyl)-1-propan-2-ylindol-2-yl]-3,5-dihydroxyhept-6-enoic acid
Formula: C24H26FNO4
Exact mass: 411.1845865
SMILES: CC(C)n1c2ccccc2c(c1/C=C/[C@H](C[C@H](CC(=O)O)O)O)c3ccc(cc3)F
InChI: InChI=1S/C24H26FNO4/c1-15(2)26-21-6-4-3-5-20(21)24(16-7-9-17(25)10-8-16)22(26)12-11-18(27)13-19(28)14-23(29)30/h3-12,15,18-19,27-28H,13-14H2,1-2H3,(H,29,30)/b12-11+/t18-,19-/m1/s1
Instrument: Bruker maXis Impact
Instrument type: LC-ESI-QTOF
Ms type: MS2
Ion mode: POSITIVE
Ionization: ESI
Fragmentation mode: CID
Collision energy: 20 eV
Resolution: 35000
Column name: Acclaim RSLC C18 2.2um, 2.1x100mm, Thermo
Retention time: 10.873 min
Base peak: 150.1127
Precursor m/z: 434.1738
Precursor type: [M+Na]+
m/z	relative intensity	assigned
133.0864	999	C7H12NNa+
177.1123	799	C9H16NNaO+
178.1161	109	C12H15F+
221.14	138	C8H21FNNaO3+
265.1671	144	C15H23NO3+
327.2031	157	C21H26FNO+
354.1634	160	C23H22FNNa+
