Mass spectrum: Drospirenone; LC-ESI-QTOF; MS2; CE: 50 eV; R=35000; [M+H]+
Name: Drospirenone
Name: (1R,2R,4R,10R,11S,14S,15S,16S,18S,19S)-10,14-dimethylspiro[hexacyclo[9.8.0.02,4.05,10.014,19.016,18]nonadec-5-ene-15,5`-oxolane]-2`,7-dione
Formula: C24H30O3
Exact mass: 366.2194948
SMILES: [H][C@@]12[C@@H]3C[C@@H]3[C@@]3(CCC(=O)O3)[C@@]1(C)CC[C@@]1([H])[C@@]2([H])[C@H]2C[C@H]2C2=CC(=O)CC[C@]12C
InChI: InChI=1S/C24H30O3/c1-22-6-3-12(25)9-17(22)13-10-14(13)20-16(22)4-7-23(2)21(20)15-11-18(15)24(23)8-5-19(26)27-24/h9,13-16,18,20-21H,3-8,10-11H2,1-2H3/t13-,14+,15-,16+,18+,20-,21+,22-,23+,24+/m1/s1
Instrument: Bruker maXis Impact
Instrument type: LC-ESI-QTOF
Ms type: MS2
Ion mode: POSITIVE
Ionization: ESI
Fragmentation mode: CID
Collision energy: 50 eV
Resolution: 35000
Column name: Acclaim RSLC C18 2.2um, 2.1x100mm, Thermo
Retention time: 9.537 min
Base peak: 367.2267
Precursor m/z: 367.2268
Precursor type: [M+H]+
m/z	relative intensity	assigned
115.0534	226	C9H7+
116.0608	78	C9H8+
117.069	204	C9H9+
119.0848	231	C9H11+
120.0875	31	C8[13]CH11+
121.064	136	C8H9O+
121.1001	15	C9H13+
122.0664	14	C7[13]CH9O+
123.0796	156	C8H11O+
124.0822	15	C7[13]CH11O+
125.0585	13	C7H9O2+
127.0534	28	C10H7+
128.061	521	C10H8+
129.0686	556	C10H9+
130.0753	153	C10H10+
131.0844	999	C10H11+
132.0551	17	C9H8O+
132.0882	91	C9[13]CH11+
133.0638	62	C9H9O+
133.0999	160	C10H13+
134.0712	21	C9H10O+
134.1041	23	C9[13]CH13+
135.0791	185	C9H11O+
135.1162	22	C10H15+
137.0605	5	C8H9O2+
137.0942	27	C9H13O+
141.0686	363	C11H9+
142.0763	376	C11H10+
143.0843	716	C11H11+
144.0564	24	C10H8O+
144.0902	150	C11H12+
145.0633	96	C10H9O+
145.1	422	C11H13+
146.0707	20	C10H10O+
146.1046	56	C10[13]CH13+
147.0791	271	C10H11O+
147.1157	53	C11H15+
148.0843	38	C9[13]CH11O+
148.1182	8	C10[13]CH15+
149.0943	171	C10H13O+
150.0982	21	C9[13]CH13O+
151.0741	13	C9H11O2+
152.0612	34	C12H8+
153.0678	119	C12H9+
154.0759	138	C12H10+
155.084	477	C12H11+
156.0914	328	C12H12+
157.0996	541	C12H13+
158.0715	30	C11H10O+
158.104	72	C11[13]CH13+
159.079	274	C11H11O+
159.1155	305	C12H15+
160.0846	58	C11H12O+
160.1193	43	C11[13]CH15+
161.0594	5	C10H9O2+
161.0949	82	C11H13O+
161.1306	19	C12H17+
162.1001	15	C10[13]CH13O+
163.0737	14	C10H11O2+
163.1108	25	C11H15O+
165.0684	127	C13H9+
165.0877	11	C10H13O2+
166.075	86	C13H10+
167.084	189	C13H11+
168.0912	155	C13H12+
169.0994	359	C13H13+
170.0716	12	C12H10O+
170.1063	90	C13H14+
171.0781	47	C12H11O+
171.1155	449	C13H15+
172.0868	19	C12H12O+
172.1194	64	C12[13]CH15+
173.0949	95	C12H13O+
173.1306	55	C13H17+
174.0987	18	C11[13]CH13O+
174.1341	9	C12[13]CH17+
175.0754	7	C11H11O2+
175.1109	39	C12H15O+
177.0895	100	C11H13O2+
177.1264	8	C12H17O+
178.0763	50	C14H10+
178.0928	16	C10[13]CH13O2+
179.0836	130	C14H11+
180.091	105	C14H12+
181.0636	10	C13H9O+
181.0994	185	C14H13+
182.0716	7	C13H10O+
182.1069	113	C14H14+
183.0781	27	C13H11O+
183.1149	215	C14H15+
184.0879	19	C13H12O+
184.1204	51	C13[13]CH15+
185.0939	47	C13H13O+
185.1313	113	C14H17+
186.1003	12	C13H14O+
186.1357	21	C13[13]CH17+
187.1108	43	C13H15O+
187.1473	11	C14H19+
188.1167	9	C12[13]CH15O+
189.069	7	C15H9+
189.0906	8	C12H13O2+
189.1277	17	C13H17O+
190.0749	7	C15H10+
190.0965	5	C12H14O2+
191.0839	49	C15H11+
191.107	18	C12H15O2+
192.0917	57	C15H12+
193.0998	111	C15H13+
194.1067	60	C15H14+
195.0816	9	C14H11O+
195.1156	180	C15H15+
196.0888	14	C14H12O+
196.1215	61	C15H16+
197.0955	34	C14H13O+
197.1305	152	C15H17+
198.1016	16	C14H14O+
198.1356	36	C14[13]CH17+
199.1107	43	C14H15O+
199.1468	32	C15H19+
200.1158	11	C13[13]CH15O+
200.1536	6	C14[13]CH19+
201.0909	7	C13H13O2+
201.1261	20	C14H17O+
202.0788	5	C16H10+
203.085	24	C16H11+
203.1057	11	C13H15O2+
204.0931	13	C16H12+
205.1001	64	C16H13+
206.1074	59	C16H14+
207.1156	80	C16H15+
208.0887	5	C15H12O+
208.1222	38	C16H16+
209.0944	20	C15H13O+
209.1311	79	C16H17+
210.1022	7	C15H14O+
210.1373	21	C15[13]CH17+
211.1099	30	C15H15O+
211.1471	36	C16H19+
212.1195	9	C15H16O+
212.1527	7	C15[13]CH19+
213.092	5	C14H13O2+
213.1263	39	C15H17O+
213.1648	5	C16H21+
214.1315	15	C15H18O+
215.0831	5	C17H11+
215.1065	9	C14H15O2+
215.1423	11	C15H19O+
216.0912	5	C17H12+
216.1097	5	C14H16O2+
217.0996	21	C17H13+
217.1214	11	C14H17O2+
218.1071	33	C17H14+
219.1159	55	C17H15+
219.137	7	C14H19O2+
220.1225	35	C17H16+
221.095	10	C16H13O+
221.1312	75	C17H17+
222.1069	7	C16H14O+
222.137	21	C16[13]CH17+
223.1097	20	C16H15O+
223.1472	45	C17H19+
224.1159	8	C16H16O+
224.1516	8	C16[13]CH19+
225.1275	26	C16H17O+
225.1621	10	C17H21+
226.131	8	C15[13]CH17O+
227.1453	10	C16H19O+
228.1475	6	C16H20O+
229.099	7	C18H13+
229.1194	11	C15H17O2+
229.1556	6	C16H21O+
230.111	10	C18H14+
231.1164	23	C18H15+
231.1364	10	C15H19O2+
232.1237	22	C18H16+
233.1313	42	C18H17+
234.1358	16	C18H18+
235.1097	8	C17H15O+
235.1457	31	C18H19+
236.1201	6	C17H16O+
236.1525	15	C18H20+
237.1267	24	C17H17O+
237.1628	22	C18H21+
238.1328	11	C17H18O+
238.1709	6	C17[13]CH21+
239.105	6	C16H15O2+
239.1421	15	C17H19O+
240.1547	8	C17H20O+
241.121	5	C16H17O2+
241.1548	9	C17H21O+
243.1152	7	C19H15+
243.1359	6	C16H19O2+
244.1292	7	C19H16+
245.1315	18	C19H17+
246.1376	26	C19H18+
247.1111	5	C18H15O+
247.1482	29	C19H19+
248.1171	6	C18H16O+
248.1514	9	C18[13]CH19+
249.1262	6	C18H17O+
249.1623	17	C19H21+
250.1337	5	C18H18O+
250.1693	6	C19H22+
251.1411	12	C18H19O+
251.176	8	C19H23+
252.1473	6	C18H20O+
253.1595	10	C18H21O+
257.1311	11	C20H17+
259.1484	13	C20H19+
260.1517	5	C20H20+
261.1238	6	C19H17O+
261.1608	14	C20H21+
262.1668	5	C19[13]CH21+
263.1431	10	C19H19O+
263.1798	5	C20H23+
264.1509	5	C19H20O+
265.1546	5	C19H21O+
266.1641	9	C19H22O+
269.1508	5	C18H21O2+
275.1823	11	C21H23+
277.159	5	C20H21O+
279.1749	9	C20H23O+
283.1454	5	C22H19+
289.1938	7	C22H25+
293.1858	5	C21H25O+
307.2067	5	C22H27O+
