Mass spectrum: Norfenfluramine; LC-ESI-QTOF; MS2; CE: 20 eV; R=35000; [M+H]+
Name: Norfenfluramine
Name: 1-[3-(trifluoromethyl)phenyl]propan-2-amine
Formula: C10H12F3N
Exact mass: 203.0921840
SMILES: CC(N)CC1=CC(=CC=C1)C(F)(F)F
InChI: InChI=1S/C10H12F3N/c1-7(14)5-8-3-2-4-9(6-8)10(11,12)13/h2-4,6-7H,5,14H2,1H3
Instrument: Bruker maXis Impact
Instrument type: LC-ESI-QTOF
Ms type: MS2
Ion mode: POSITIVE
Ionization: ESI
Fragmentation mode: CID
Collision energy: 20 eV
Resolution: 35000
Column name: Acclaim RSLC C18 2.2um, 2.1x100mm, Thermo
Retention time: 5.9 min
Base peak: 204.0988
Precursor m/z: 204.0995
Precursor type: [M+H]+
m/z	relative intensity	assigned
139.035	3	C8H5F2+
147.0603	2	C10H8F+
159.0406	999	C8H6F3+
160.0441	67	C7[13]CH6F3+
187.0715	51	C10H10F3+
188.0748	6	C9[13]CH10F3+
204.0986	5	C10H13F3N+
