Mass spectrum: 2,2`-Methylenebis(6-tert-butyl-1,4-ethylphenol); GC-APCI-QTOF; MS2; CE: 10 eV; R=35000; [M]+
Name: 2,2`-Methylenebis(6-tert-butyl-1,4-ethylphenol)
Formula: C25H36O2
Exact mass: 368.2715
SMILES: CCC1=CC(=C(C(=C1)C(C)(C)C)O)CC2=C(C(=CC(=C2)CC)C(C)(C)C)O
InChI: InChI=1S/C25H36O2/c1-9-16-11-18(22(26)20(13-16)24(3,4)5)15-19-12-17(10-2)14-21(23(19)27)25(6,7)8/h11-14,26-27H,9-10,15H2,1-8H3
Instrument: Bruker 450 GC coupled to maXis Impact
Instrument type: GC-APCI-QTOF
Ms type: MS2
Ion mode: POSITIVE
Ionization: APCI
Fragmentation mode: CID
Collision energy: 10 eV
Resolution: 35000
Column name: Rxi-5Sil MS column, 30m, 0.25mm i.d., 0.25Âµm film thickness, Restek
Retention time: 24.322 min
Base peak: 368.2716
Precursor m/z: 368.271
Precursor type: [M]+
m/z	relative intensity	assigned
163.113	21	C11H15O+
178.1382	87	C12H18O+
179.1435	32	C12H19O+
191.1453	147	C13H19O+
192.1487	21	C13H20O+
312.2107	173	C21H28O2+
313.2191	40	C21H29O2+
366.2643	40	C25H34O2+
367.2619	56	C25H35O2+
368.2715	999	C25H36O2+
