Mass spectrum: Propamocarb; LC-ESI-QTOF; MS2; CE: Ramp 17.6-26.4 eV; R=35000; [M+H]+
Name: Propamocarb
Name: propyl N-[3-(dimethylamino)propyl]carbamate
Formula: C9H20N2O2
Exact mass: 188.15247788
SMILES: CCCOC(=O)NCCCN(C)C
InChI: InChI=1S/C9H20N2O2/c1-4-8-13-9(12)10-6-5-7-11(2)3/h4-8H2,1-3H3,(H,10,12)
Instrument: Bruker maXis Impact
Instrument type: LC-ESI-QTOF
Ms type: MS2
Ion mode: POSITIVE
Ionization: ESI
Fragmentation mode: CID
Collision energy: Ramp 17.6-26.4 eV
Resolution: 35000
Column name: Acclaim RSLC C18 2.2um, 2.1x100mm, Thermo
Retention time: 3.302 min
Base peak: 189.159
Precursor m/z: 189.1598
Precursor type: [M+H]+
m/z	relative intensity	assigned
58.0645	78	C3H8N+
74.0232	328	C2H4NO2+
75.0261	7	C[13]CH4NO2+
86.0963	31	C5H12N+
102.0561	999	C4H8NO2+
103.059	31	C3[13]CH8NO2+
129.1016	12	C6H13N2O+
144.101	153	C7H14NO2+
145.1043	9	C6[13]CH14NO2+
147.1115	12	C6H15N2O2+
189.159	226	C9H21N2O2+
190.1624	16	C8[13]CH21N2O2+
