Mass spectrum: Tetramethylene glycol dimethacrylate; GC-APCI-QTOF; MS2; CE: 10 eV; R=35000; [M]+
Name: Tetramethylene glycol dimethacrylate
Formula: C12H18O4
Exact mass: 226.1205
SMILES: CC(=C)C(=O)OCCCCOC(=O)C(=C)C
InChI: InChI=1S/C12H18O4/c1-9(2)11(13)15-7-5-6-8-16-12(14)10(3)4/h1,3,5-8H2,2,4H3
Instrument: Bruker 450 GC coupled to maXis Impact
Instrument type: GC-APCI-QTOF
Ms type: MS2
Ion mode: POSITIVE
Ionization: APCI
Fragmentation mode: CID
Collision energy: 10 eV
Resolution: 35000
Column name: Rxi-5Sil MS column, 30m, 0.25mm i.d., 0.25Âµm film thickness, Restek
Retention time: 12.635 min
Base peak: 141.0917
Precursor m/z: 226.12
Precursor type: [M]+
m/z	relative intensity	assigned
55.0543	5	C4H7+
126.0679	28	C7H10O2+
140.0847	29	C8H12O2+
141.0918	999	C8H13O2+
142.0957	66	C8H14O2+
153.058	6	C8H9O3+
154.0641	61	C8H10O3+
155.0709	9	C8H11O3+
171.0677	17	C8H11O4+
172.0746	24	C8H12O4+
173.0836	20	C8H13O4+
181.1257	5	C11H17O2+
198.1272	7	C11H18O3+
208.1107	10	C12H16O3+
225.1102	9	C12H17O4+
226.1198	233	C12H18O4+
