Mass spectrum: ZON; LC-ESI-QTOF; MS2; CE: 10 eV; R=35000; [M+H]+
Name: ZON
Name: 15,17-Dihydroxy-11-methyl-12-oxabicyclo[12.4.0]octadeca-1(14),2,15,17-tetraene-7,13-dione
Name: 16,18-dihydroxy-4-methyl-3-oxabicyclo[12.4.0]octadeca-1(14),12,15,17-tetraene-2,8-dione
Class: Natural Product; Fungal metabolite
Formula: C18H22O5
Exact mass: 318.1467
SMILES: CC1CCCC(=O)CCCC=CC2=C(C(=CC(=C2)O)O)C(=O)O1
InChI: InChI=1S/C18H22O5/c1-12-6-5-9-14(19)8-4-2-3-7-13-10-15(20)11-16(21)17(13)18(22)23-12/h3,7,10-12,20-21H,2,4-6,8-9H2,1H3
Instrument: Bruker maXis Impact
Instrument type: LC-ESI-QTOF
Ms type: MS2
Ion mode: POSITIVE
Ionization: ESI
Fragmentation mode: CID
Collision energy: 10 eV
Resolution: 35000
Column name: Acclaim RSLC C18 2.2um, 2.1x100mm, Thermo
Retention time: 9.896 min
Base peak: 319.1541
Precursor m/z: 319.154
Precursor type: [M+H]+
m/z	relative intensity	assigned
165.0181	43	C8H5O4+
187.0755	96	C12H11O2+
189.0558	15	C11H9O3+
203.0703	24	C12H11O3+
205.0868	16	C12H13O3+
215.0695	29	C13H11O3+
217.086	72	C13H13O3+
229.0861	40	C14H13O3+
231.0654	75	C13H11O4+
232.0688	18	C13H12O4+
245.0808	18	C14H13O4+
249.0754	22	C13H13O5+
255.1377	27	C17H19O2+
257.1552	55	C17H21O2+
259.0963	19	C15H15O4+
265.1232	45	C18H17O2+
266.1275	20	C18H18O2+
275.1644	16	C17H23O3+
283.1334	460	C18H19O3+
284.1351	104	C18H20O3+
301.1437	999	C18H21O4+
302.1474	244	C18H22O4+
319.1535	982	C18H23O5+
