Mass spectrum: N4-Acetylsulfamethazine; LC-ESI-QTOF; MS2; CE: 30 eV; R=35000; [M+H]+
Name: N4-Acetylsulfamethazine
Name: N-Acetyl Sulfamethazine
Name: N-[4-[(4,6-dimethylpyrimidin-2-yl)sulfamoyl]phenyl]acetamide
Formula: C14H16N4O3S
Exact mass: 320.0943114
SMILES: Cc1cc(nc(n1)NS(=O)(=O)c2ccc(cc2)/N=C(\C)/O)C
InChI: InChI=1S/C14H16N4O3S/c1-9-8-10(2)16-14(15-9)18-22(20,21)13-6-4-12(5-7-13)17-11(3)19/h4-8H,1-3H3,(H,17,19)(H,15,16,18)
Instrument: Bruker maXis Impact
Instrument type: LC-ESI-QTOF
Ms type: MS2
Ion mode: POSITIVE
Ionization: ESI
Fragmentation mode: CID
Collision energy: 30 eV
Resolution: 35000
Column name: Acclaim RSLC C18 2.2um, 2.1x100mm, Thermo
Retention time: 4.4 min
Base peak: 321.1013
Precursor m/z: 321.1016
Precursor type: [M+H]+
m/z	relative intensity	assigned
118.0646	22	H12N3O2S+
122.0703	53	C6H8N3+
123.0782	196	C6H9N3+
124.0859	624	C6H10N3+
125.0699	13	C6H9N2O+
125.0892	41	C4H15NOS+
134.059	999	C6H6N4+
135.0621	72	C5[13]CH6N4+
136.0756	84	C8H10NO+
150.0536	89	C6H6N4O+
152.0695	15	C6H8N4O+
156.0106	97	C4H4N4OS+
162.0656	103	C8H8N3O+
186.0318	238	C11H6O3+
187.0365	21	C9H5N3O2+
198.0212	410	C14H2N2+
199.0233	52	C13[13]CH2N2+
200.0199	14	C10H4N2O3+
204.043	805	C12H4N4+
205.0459	70	C11[13]CH4N4+
206.0395	24	C11H10O2S+
212.1066	19	C14H14NO+
213.1127	83	C12H13N4+
214.0975	39	C12H12N3O+
214.1169	20	C9H16N3O3+
215.1243	24	C9H17N3O3+
237.1134	15	C14H13N4+
255.1229	439	C14H15N4O+
256.1269	84	C13[13]CH15N4O+
321.1017	334	C14H17N4O3S+
