Mass spectrum: Clobetasol; LC-ESI-QTOF; MS2; CE: 10 eV; R=35000; [M+H]+
Name: Clobetasol
Name: (8S,9R,10S,11S,13S,14S,16S,17R)-17-(2-chloroacetyl)-9-fluoro-11,17-dihydroxy-10,13,16-trimethyl-6,7,8,11,12,14,15,16-octahydrocyclopenta[a]phenanthren-3-one
Formula: C22H28ClFO4
Exact mass: 410.1660153
SMILES: [H][C@@]12C[C@H](C)[C@](O)(C(=O)CCl)[C@@]1(C)C[C@H](O)[C@@]1(F)[C@@]2([H])CCC2=CC(=O)C=C[C@]12C
InChI: InChI=1S/C22H28ClFO4/c1-12-8-16-15-5-4-13-9-14(25)6-7-19(13,2)21(15,24)17(26)10-20(16,3)22(12,28)18(27)11-23/h6-7,9,12,15-17,26,28H,4-5,8,10-11H2,1-3H3/t12-,15-,16-,17-,19-,20-,21-,22-/m0/s1
Instrument: Bruker maXis Impact
Instrument type: LC-ESI-QTOF
Ms type: MS2
Ion mode: POSITIVE
Ionization: ESI
Fragmentation mode: CID
Collision energy: 10 eV
Resolution: 35000
Column name: Acclaim RSLC C18 2.2um, 2.1x100mm, Thermo
Retention time: 9.437 min
Base peak: 297.1845
Precursor m/z: 411.1733
Precursor type: [M+H]+
m/z	relative intensity	assigned
133.0398	13	C6H10ClO+
147.08	45	C10H11O+
159.0776	5	C5H16ClO3+
161.0947	16	C2H19ClFO4+
171.0554	17	C9H12ClO+
171.0794	27	C3H17ClFO4+
173.0513	6	C9H12[37]ClO+
173.0952	12	C3H19ClFO4+
185.0711	9	C10H14ClO+
185.0932	17	C7H18ClO3+
187.0527	7	C6H13ClFO3+
187.075	8	C12H11O2+
187.1107	8	C4H21ClFO4+
195.0559	6	C11H12ClO+
197.0982	6	C11H14FO2+
199.1099	5	C8H20ClO3+
203.1059	12	C13H15O2+
211.1089	5	C9H20ClO3+
213.0663	13	C11H14ClO2+
213.1274	14	C15H17O+
215.1022	6	C8H20ClO4+
223.1101	19	C7H21ClFO4+
225.1253	6	C10H22ClO3+
231.0785	6	C11H16ClO3+
235.1129	5	C14H16FO2+
237.1265	45	C17H17O+
238.1303	9	C16[13]CH17O+
239.1419	15	C8H25ClFO4+
241.1226	6	C16H17O2+
249.1258	6	C12H22ClO3+
253.1223	12	C17H17O2+
253.1569	7	C12H26ClO3+
263.1431	27	C19H19O+
267.1379	8	C18H19O2+
275.1454	8	C17H20FO2+
277.1589	23	C20H21O+
278.1651	15	C11H28ClFO4+
279.1743	29	C20H23O+
280.1773	6	C19[13]CH23O+
281.1571	5	C16H22FO3+
291.1753	10	C18H24FO2+
295.1679	8	C14H28ClO4+
301.158	14	C13H27ClFO4+
309.1845	21	C18H26FO3+
310.1908	5	C17[13]CH26FO3+
313.1282	5	C20H22ClO+
313.1384	7	C20H22ClO+
319.1703	29	C22H23O2+
320.1743	11	C21[13]CH23O2+
327.1509	20	C21H24ClO+
329.1294	39	C20H22ClO2+
330.1352	8	C19[13]CH22ClO2+
331.1274	9	C20H22[37]ClO2+
331.1473	8	C17H25ClFO3+
337.1368	26	C22H22ClO+
337.1816	35	C19H26FO4+
339.1318	9	C22H22[37]ClO+
339.1909	6	C20H29ClFO+
345.1623	22	C18H27ClFO3+
346.1668	6	C17[13]CH27ClFO3+
347.1572	8	C18H27[37]ClFO3+
349.1573	18	C17H27ClFO4+
350.1602	6	C20H27ClO3+
350.9862	5	C19H5ClFO4+
355.145	136	C22H24ClO2+
355.1913	32	C22H27O4+
356.1476	47	C21[13]CH24ClO2+
356.1967	10	C21[13]CH27O4+
357.1448	33	C22H24[37]ClO2+
357.1701	5	C19H27ClFO3+
358.15	6	C22H24ClFO+
373.156	393	C22H26ClO3+
374.1609	115	C21[13]CH26ClO3+
375.1543	131	C22H26[37]ClO3+
376.1575	24	C22H26ClFO2+
377.153	5	C21H26ClO4+
391.167	999	C22H28ClO4+
392.1696	268	C21[13]CH28ClO4+
393.1642	296	C22H28[37]ClO4+
394.167	48	C22H28ClFO3+
411.1735	762	C22H29ClFO4+
412.1764	225	C21[13]CH29ClFO4+
413.1705	245	C22H29[37]ClFO4+
