Mass spectrum: Ketoconazole; LC-ESI-QTOF; MS2; CE: 40 eV; R=35000; [M+H]+
Name: Ketoconazole
Name: Xolegel
Name: 1-[4-[4-[[(2R,4S)-2-(2,4-dichlorophenyl)-2-(imidazol-1-ylmethyl)-1,3-dioxolan-4-yl]methoxy]phenyl]piperazin-1-yl]ethanone
Formula: C26H28Cl2N4O4
Exact mass: 530.1487607
SMILES: CC(=O)N1CCN(CC1)C1=CC=C(OC[C@H]2CO[C@@](CN3C=CN=C3)(O2)C2=CC=C(Cl)C=C2Cl)C=C1
InChI: InChI=1S/C26H28Cl2N4O4/c1-19(33)31-10-12-32(13-11-31)21-3-5-22(6-4-21)34-15-23-16-35-26(36-23,17-30-9-8-29-18-30)24-7-2-20(27)14-25(24)28/h2-9,14,18,23H,10-13,15-17H2,1H3/t23-,26-/m0/s1
Instrument: Bruker maXis Impact
Instrument type: LC-ESI-QTOF
Ms type: MS2
Ion mode: POSITIVE
Ionization: ESI
Fragmentation mode: CID
Collision energy: 40 eV
Resolution: 35000
Column name: Acclaim RSLC C18 2.2um, 2.1x100mm, Thermo
Retention time: 9.404 min
Base peak: 531.1548
Precursor m/z: 531.156
Precursor type: [M+H]+
m/z	relative intensity	assigned
112.0755	5	C6H10NO+
120.043	6	C5H4N4+
135.0666	50	C6H7N4+
136.0734	10	C2H15ClNO3+
144.0789	6	CH18Cl2N2O+
146.0948	7	CH20Cl2N2O+
148.0742	35	Cl2H18N2O2+
158.9742	8	C8ClN2+
163.1218	7	CH23Cl2N3O+
167.0801	36	C2H16ClN2O4+
172.0742	11	C9H8N4+
172.9543	5	C5HCl2N3+
174.09	43	C9H10N4+
177.1009	57	CH21Cl2N3O2+
178.1075	18	C7H16NO4+
184.9902	8	C10H2ClN2+
185.9614	17	C6H2Cl2N3+
187.9585	9	C6H2Cl[37]ClN3+
189.1366	12	C6H22ClN2O2+
192.1009	8	C9H12N4O+
200.1058	8	C11H12N4+
204.1004	5	C10H12N4O+
205.1313	6	C6H22ClN2O3+
209.0347	11	C12H5N2O2+
215.1167	6	C4H23Cl2N3O2+
216.1005	35	C11H12N4O+
216.1248	8	C6H26Cl2O3+
217.1324	118	C10H19NO4+
218.1354	15	C9[13]CH19NO4+
219.1118	182	C5H25Cl2O4+
220.1191	130	C7H16N4O4+
221.1223	15	C6[13]CH16N4O4+
233.1273	6	C4H25Cl2N3O3+
234.1111	21	C11H14N4O2+
234.1338	5	C7H23ClN2O4+
235.1429	50	C7H24ClN2O4+
236.1456	6	C6[13]CH24ClN2O4+
238.0049	21	C8H10Cl2NO3+
239.0097	5	C6H9Cl2N4O2+
240.0016	13	C8H10Cl[37]ClNO3+
244.0042	122	C9H8Cl2N3O+
245.008	12	C8[13]CH8Cl2N3O+
246.0014	58	C9H8Cl[37]ClN3O+
247.004	5	C9H9Cl2N2O2+
247.0623	6	C16H9NO2+
247.1428	7	C5H27Cl2N3O3+
255.0075	87	C12H4ClN4O+
256.0106	9	C11[13]CH4ClN4O+
257.0047	46	C12H4[37]ClN4O+
259.1438	29	C8H29Cl2O4+
267.0075	24	C13H4ClN4O+
268.0138	9	C9H12Cl2NO4+
269.0048	12	C13H4[37]ClN4O+
270.011	6	C18H5ClN+
277.1533	12	C6H29Cl2N3O4+
282.0311	19	C14H7ClN4O+
284.0278	10	C14H7[37]ClN4O+
311.0345	10	C14H13Cl2N2O2+
313.0307	6	C14H13Cl[37]ClN2O2+
378.0652	7	C22H15ClO4+
420.0756	8	C19H18Cl2N4O3+
421.106	18	C24H20ClNO4+
423.1051	9	C24H20[37]ClNO4+
446.1028	12	C22H22Cl2N3O3+
448.0988	7	C22H22Cl[37]ClN3O3+
489.1446	194	C24H27Cl2N4O3+
490.1473	53	C23[13]CH27Cl2N4O3+
491.1422	111	C24H27Cl[37]ClN4O3+
492.1448	19	C24H28Cl2N3O4+
493.1395	5	C23H27Cl2N4O4+
531.1555	999	C26H29Cl2N4O4+
532.1585	292	C25[13]CH29Cl2N4O4+
533.1533	589	C26H29Cl[37]ClN4O4+
