Mass spectrum: 7-amino-flunitrazepam; LC-ESI-QTOF; MS2; CE: 20 eV; R=35000; [M+H]+
Name: 7-amino-flunitrazepam
Name: 7-Aminoflunitrazepam
Name: 7-amino-5-(2-fluorophenyl)-1-methyl-3H-1,4-benzodiazepin-2-one
Formula: C16H14FN3O
Exact mass: 283.1120903
SMILES: CN1C2=CC=C(N)C=C2C(=NCC1=O)C1=CC=CC=C1F
InChI: InChI=1S/C16H14FN3O/c1-20-14-7-6-10(18)8-12(14)16(19-9-15(20)21)11-4-2-3-5-13(11)17/h2-8H,9,18H2,1H3
Instrument: Bruker maXis Impact
Instrument type: LC-ESI-QTOF
Ms type: MS2
Ion mode: POSITIVE
Ionization: ESI
Fragmentation mode: CID
Collision energy: 20 eV
Resolution: 35000
Column name: Acclaim RSLC C18 2.2um, 2.1x100mm, Thermo
Retention time: 5.2 min
Base peak: 284.1193
Precursor m/z: 284.1194
Precursor type: [M+H]+
m/z	relative intensity	assigned
123.0232	3	C10H3+
135.0908	28	C8H11N2+
163.0854	14	C9H11N2O+
227.0968	22	C14H12FN2+
236.1173	7	C15H14N3+
256.124	34	C15H15FN3+
257.1268	5	C14[13]CH15FN3+
264.1123	14	C16H14N3O+
284.1198	999	C16H15FN3O+
285.1225	197	C15[13]CH15FNO3+
286.1252	11	C14[13]C2H15FNO3+
