Mass spectrum: Ametryn; LC-ESI-QTOF; MS2; CE: 50 eV; R=35000; [M+H]+
Name: Ametryn
Name: 4-N-ethyl-6-methylsulfanyl-2-N-propan-2-yl-1,3,5-triazine-2,4-diamine
Formula: C9H17N5S
Exact mass: 227.1204665
SMILES: CCNC1=NC(SC)=NC(NC(C)C)=N1
InChI: InChI=1S/C9H17N5S/c1-5-10-7-12-8(11-6(2)3)14-9(13-7)15-4/h6H,5H2,1-4H3,(H2,10,11,12,13,14)
Instrument: Bruker maXis Impact
Instrument type: LC-ESI-QTOF
Ms type: MS2
Ion mode: POSITIVE
Ionization: ESI
Fragmentation mode: CID
Collision energy: 50 eV
Resolution: 35000
Column name: Acclaim RSLC C18 2.2um, 2.1x100mm, Thermo
Retention time: 9.171 min
Base peak: 228.129
Precursor m/z: 228.1277
Precursor type: [M+H]+
m/z	relative intensity	assigned
113.0822	32	C4H9N4+
116.0271	999	C6H2N3+
117.0297	45	C5[13]CH2N3+
125.067	30	C4H7N5+
127.0057	28	C3H3N4S+
128.0138	33	C3H4N4S+
128.0269	68	C4H6N3S+
130.0443	32	C4H8N3S+
131.038	28	C3H7N4S+
132.0811	24	C9H10N+
138.0762	733	C5H8N5+
140.093	37	C5H10N5+
141.0208	28	C7HN4+
143.0247	77	C3H5N5S+
144.0575	639	C5H10N3S+
145.0606	49	C4[13]CH10N3S+
146.0547	31	C5H10N3[34]S+
153.0241	33	C5H5N4S+
155.036	67	C8H3N4+
156.032	75	C7H2N5+
158.0482	748	C4H8N5S+
160.0462	25	C4H8N5[34]S+
169.0518	25	C9H5N4+
170.049	63	C5H8N5S+
171.0561	47	C5H9N5S+
184.065	43	C6H10N5S+
186.0792	460	C6H12N5S+
187.082	83	C9H9N5+
212.0965	24	C8H14N5S+
