Mass spectrum: Iminostilbene; LC-ESI-QTOF; MS2; CE: 40 eV; R=35000; [M+H]+
Name: Iminostilbene
Name: 11H-benzo[b][1]benzazepine
Formula: C14H11N
Exact mass: 193.0891494
SMILES: N1C2=C(C=CC=C2)C=CC2=C1C=CC=C2
InChI: InChI=1S/C14H11N/c1-3-7-13-11(5-1)9-10-12-6-2-4-8-14(12)15-13/h1-10,15H
Instrument: Bruker maXis Impact
Instrument type: LC-ESI-QTOF
Ms type: MS2
Ion mode: POSITIVE
Ionization: ESI
Fragmentation mode: CID
Collision energy: 40 eV
Resolution: 35000
Column name: Acclaim RSLC C18 2.2um, 2.1x100mm, Thermo
Retention time: 10.0 min
Base peak: 194.0954
Precursor m/z: 194.0964
Precursor type: [M+H]+
m/z	relative intensity	assigned
117.0561	35	C8H7N+
126.0457	27	C10H6+
128.062	25	C10H8+
139.0538	75	C11H7+
150.0446	44	C12H6+
151.0531	67	C12H7+
152.0607	252	C12H8+
153.0583	75	C11H7N+
163.0526	28	C13H7+
164.0616	31	C13H8+
165.0683	460	C13H9+
166.0667	133	C12H8N+
167.0712	391	C12H9N+
169.063	119	C10H7N3+
176.0622	80	C14H8+
177.0558	102	C13H7N+
177.0695	43	C14H9+
179.0715	999	C13H9N+
190.0638	65	C14H8N+
191.0719	406	C14H9N+
194.0939	768	C14H12N+
