Mass spectrum: Hydrocortisonacetate; LC-ESI-QTOF; MS2; CE: 40 eV; R=35000; [M+H]+
Name: Hydrocortisonacetate
Name: Hydrocortisone acetate
Name: [2-[(8S,9S,10R,11S,13S,14S,17R)-11,17-dihydroxy-10,13-dimethyl-3-oxo-2,6,7,8,9,11,12,14,15,16-decahydro-1H-cyclopenta[a]phenanthren-17-yl]-2-oxoethyl] acetate
Formula: C23H32O6
Exact mass: 404.2198887
SMILES: [H][C@@]12CC[C@](O)(C(=O)COC(C)=O)[C@@]1(C)C[C@H](O)[C@@]1([H])[C@@]2([H])CCC2=CC(=O)CC[C@]12C
InChI: InChI=1S/C23H32O6/c1-13(24)29-12-19(27)23(28)9-7-17-16-5-4-14-10-15(25)6-8-21(14,2)20(16)18(26)11-22(17,23)3/h10,16-18,20,26,28H,4-9,11-12H2,1-3H3/t16-,17-,18-,20+,21-,22-,23-/m0/s1
Instrument: Bruker maXis Impact
Instrument type: LC-ESI-QTOF
Ms type: MS2
Ion mode: POSITIVE
Ionization: ESI
Fragmentation mode: CID
Collision energy: 40 eV
Resolution: 35000
Column name: Acclaim RSLC C18 2.2um, 2.1x100mm, Thermo
Retention time: 8.774 min
Base peak: 453.2077
Precursor m/z: 405.2272
Precursor type: [M+H]+
m/z	relative intensity	assigned
115.0531	70	C9H7+
119.0848	330	C9H11+
121.0641	711	C8H9O+
123.0792	270	C8H11O+
125.0595	88	C7H9O2+
128.0612	136	C10H8+
129.0695	158	C10H9+
131.0849	343	C10H11+
133.0649	90	C9H9O+
133.101	222	C10H13+
135.0791	268	C9H11O+
137.0943	61	C9H13O+
141.0687	136	C11H9+
142.0754	100	C11H10+
143.0851	409	C11H11+
145.0646	73	C10H9O+
145.1	541	C11H13+
146.1032	62	C10[13]CH13+
147.079	215	C10H11O+
147.1149	235	C11H15+
149.0937	94	C10H13O+
151.0746	66	C9H11O2+
154.0752	62	C12H10+
155.0835	208	C12H11+
156.0906	113	C12H12+
157.0999	565	C12H13+
158.1031	96	C11[13]CH13+
159.0788	250	C11H11O+
159.115	382	C12H15+
160.119	63	C11[13]CH15+
161.0944	244	C11H13O+
161.1323	71	C12H17+
163.0746	96	C10H11O2+
163.1094	458	C11H15O+
164.1129	83	C10[13]CH15O+
167.0827	172	C13H11+
168.0899	80	C13H12+
169.0999	444	C13H13+
170.1034	93	C12[13]CH13+
171.0805	113	C12H11O+
171.1156	401	C13H15+
172.1204	89	C12[13]CH15+
173.0943	325	C12H13O+
173.1321	146	C13H17+
174.1001	85	C12H14O+
175.1093	233	C12H15O+
177.1264	67	C12H17O+
179.0825	63	C14H11+
180.0895	63	C14H12+
181.0991	195	C14H13+
182.1045	68	C14H14+
183.1164	324	C14H15+
185.0954	251	C13H13O+
185.1309	293	C14H17+
186.1005	72	C13H14O+
187.1104	280	C13H15O+
189.1258	142	C13H17O+
192.0909	61	C15H12+
193.0999	107	C15H13+
194.1083	64	C15H14+
195.115	177	C15H15+
196.1218	78	C15H16+
197.0955	104	C14H13O+
197.1324	207	C15H17+
199.1116	145	C14H15O+
199.146	172	C15H19+
200.1522	70	C15H20+
201.1263	136	C14H17O+
203.1033	88	C13H15O2+
205.1214	117	C13H17O2+
207.114	166	C16H15+
208.1259	83	C16H16+
209.1304	228	C16H17+
211.1115	179	C15H15O+
211.146	117	C16H19+
212.1177	123	C15H16O+
213.1267	310	C15H17O+
213.163	83	C16H21+
214.1283	61	C14[13]CH17O+
215.1435	69	C15H19O+
221.1333	142	C17H17+
223.1094	92	C16H15O+
223.1481	214	C17H19+
224.1509	61	C16[13]CH19+
225.1263	264	C16H17O+
225.1604	121	C17H21+
226.1336	157	C16H18O+
227.142	148	C16H19O+
231.1387	72	C15H19O2+
233.1285	127	C18H17+
235.1481	88	C18H19+
237.1252	80	C17H17O+
239.1422	281	C17H19O+
240.1462	71	C16[13]CH19O+
241.1569	999	C17H21O+
242.1615	124	C16[13]CH21O+
243.1368	68	C16H19O2+
243.172	103	C17H23O+
247.1481	70	C19H19+
249.1636	103	C19H21+
250.1696	72	C19H22+
251.1417	182	C18H19O+
251.1773	94	C19H23+
253.1553	134	C18H21O+
263.1419	87	C19H19O+
265.1582	69	C19H21O+
267.1733	259	C19H23O+
268.1788	167	C19H24O+
269.1538	80	C18H21O2+
269.1899	129	C19H25O+
279.175	78	C20H23O+
281.1551	119	C19H21O2+
281.1897	144	C20H25O+
286.1906	67	C19H26O2+
291.1724	145	C21H23O+
292.1769	76	C21H24O+
309.1833	276	C21H25O2+
310.1868	79	C20[13]CH25O2+
312.1718	74	C20H24O3+
327.1946	221	C21H27O3+
345.207	71	C21H29O4+
