Mass spectrum: Alachlor; LC-ESI-QTOF; MS2; CE: 20 eV; R=35000; [M+H]+
Name: Alachlor
Name: 2-chloro-N-(2,6-diethylphenyl)-N-(methoxymethyl)acetamide
Formula: C14H20ClNO2
Exact mass: 269.1182566
SMILES: CCC1=CC=CC(CC)=C1N(COC)C(=O)CCl
InChI: InChI=1S/C14H20ClNO2/c1-4-11-7-6-8-12(5-2)14(11)16(10-18-3)13(17)9-15/h6-8H,4-5,9-10H2,1-3H3
Instrument: Bruker maXis Impact
Instrument type: LC-ESI-QTOF
Ms type: MS2
Ion mode: POSITIVE
Ionization: ESI
Fragmentation mode: CID
Collision energy: 20 eV
Resolution: 35000
Column name: Acclaim RSLC C18 2.2um, 2.1x100mm, Thermo
Retention time: 10.2 min
Base peak: 238.099
Precursor m/z: 270.1255
Precursor type: [M+H]+
m/z	relative intensity	assigned
118.0646	6	C8H8N+
131.0714	6	C3H14ClNO2+
132.0796	24	C3H15ClNO2+
134.0952	19	C3H17ClNO2+
145.1009	14	C11H13+
146.0954	31	C10H12N+
148.11	10	C4H19ClNO2+
149.0946	11	C10H13O+
158.0955	6	C11H12N+
160.1117	21	C11H14N+
161.1197	36	C11H15N+
162.1269	999	C11H16N+
163.1104	29	C11H15O+
163.1297	126	C6H17N3O2+
164.1301	7	C9H21Cl+
171.1036	5	C12H13N+
172.1115	6	C12H14N+
174.0897	11	C11H12NO+
174.1278	7	C12H16N+
184.1108	6	C7H19ClNO2+
202.1214	19	C13H16NO+
206.0735	8	C12H13ClN+
208.0877	22	C12H15ClN+
210.0686	11	C11H13ClNO+
220.0876	38	C13H15ClN+
221.0915	6	C12[13]CH15ClN+
222.0843	10	C13H15[37]ClN+
224.0828	20	C12H15ClNO+
238.0987	852	C13H17ClNO+
239.1022	124	C12[13]CH17ClNO+
240.0954	241	C13H17[37]ClNO+
241.0977	26	C12[13]CH17[37]ClNO+
