Mass spectrum: N-ethylperfluorooctane sulfonamidoacetic acid (N-EtFOSAA); LC-ESI-QTOF; MS2; CE: 40 eV; R=35000; [M-H]-
Name: N-ethylperfluorooctane sulfonamidoacetic acid (N-EtFOSAA)
Name: N-Ethyl-N-[(heptadecafluorooctyl)sulphonyl]glycine
Name: 2-[ethyl(1,1,2,2,3,3,4,4,5,5,6,6,7,7,8,8,8-heptadecafluorooctylsulfonyl)amino]acetic acid
Formula: C12H8F17NO4S
Exact mass: 584.9903
SMILES: CCN(CC(=O)O)S(=O)(=O)C(C(C(C(C(C(C(C(F)(F)F)(F)F)(F)F)(F)F)(F)F)(F)F)(F)F)(F)F
InChI: InChI=1S/C12H8F17NO4S/c1-2-30(3-4(31)32)35(33,34)12(28,29)10(23,24)8(19,20)6(15,16)5(13,14)7(17,18)9(21,22)11(25,26)27/h2-3H2,1H3,(H,31,32)
Instrument: Bruker maXis Impact
Instrument type: LC-ESI-QTOF
Ms type: MS2
Ion mode: NEGATIVE
Ionization: ESI
Fragmentation mode: CID
Collision energy: 40 eV
Resolution: 35000
Column name: Acclaim RSLC C18 2.2um, 2.1x100mm, Thermo
Retention time: 11.674 min
Base peak: 583.9817
Precursor m/z: 583.983
Precursor type: [M-H]-
m/z	relative intensity
168.9894	939
218.9837	999
