Mass spectrum: O-Desmethyltramadol; LC-ESI-QTOF; MS2; CE: 10 eV; R=35000; [M+H]+
Name: O-Desmethyltramadol
Name: Tramadol, O-desmethyl
Name: 3-[(1R,2R)-2-[(dimethylamino)methyl]-6-hydroxycyclohexyl]phenol
Formula: C15H23NO2
Exact mass: 249.1728790
SMILES: CN(C)C[C@@H]1CCCC([C@H]1C2=CC(=CC=C2)O)O
InChI: InChI=1S/C15H23NO2/c1-16(2)10-12-6-4-8-14(18)15(12)11-5-3-7-13(17)9-11/h3,5,7,9,12,14-15,17-18H,4,6,8,10H2,1-2H3/t12-,14?,15-/m0/s1
Instrument: Bruker maXis Impact
Instrument type: LC-ESI-QTOF
Ms type: MS2
Ion mode: POSITIVE
Ionization: ESI
Fragmentation mode: CID
Collision energy: 10 eV
Resolution: 35000
Column name: Acclaim RSLC C18 2.2um, 2.1x100mm, Thermo
Retention time: 3.958 min
Base peak: 250.1799
Precursor m/z: 250.1802
Precursor type: [M+H]+
m/z	relative intensity	assigned
232.1689	9	C15H22NO+
250.18	999	C15H24NO2+
251.1831	135	C14[13]CH24NO2+
252.1852	10	C13[13]C2H24NO2+
