Mass spectrum: Chlorothalonil-4-hydroxy; LC-ESI-QTOF; MS2; CE: 30 eV; R=35000; [M-H]-
Name: Chlorothalonil-4-hydroxy
Name: 4-Hydroxy-2,5,6-trichloroisophthalonitrile
Name: 2,4,5-trichloro-6-hydroxybenzene-1,3-dicarbonitrile
Formula: C8HCl3N2O
Exact mass: 245.9154457
SMILES: OC1=C(Cl)C(Cl)=C(C#N)C(Cl)=C1C#N
InChI: InChI=1S/C8HCl3N2O/c9-5-3(1-12)6(10)7(11)8(14)4(5)2-13/h14H
Instrument: Bruker maXis Impact
Instrument type: LC-ESI-QTOF
Ms type: MS2
Ion mode: NEGATIVE
Ionization: ESI
Fragmentation mode: CID
Collision energy: 30 eV
Resolution: 35000
Column name: Acclaim RSLC C18 2.2um, 2.1x100mm, Thermo
Retention time: 7.474 min
Base peak: 244.9082
Precursor m/z: 244.9082
Precursor type: [M-H]-
m/z	relative intensity	assigned
134.9753	41	C6ClN2-
146.9767	229	C7ClN2-
147.9801	22	C6[13]CClN2-
148.973	42	C7[37]ClN2-
150.97	116	C6ClN2O-
152.965	41	C6[37]ClN2O-
174.9704	588	C8ClN2O-
175.9741	75	C7[13]CClN2O-
176.9671	143	C8[37]ClN2O-
181.9432	222	C7Cl2N2-
183.9423	104	C7Cl[37]ClN2-
197.9391	97	C7Cl2N2O-
199.934	50	C7Cl[37]ClN2O-
209.9386	136	C8Cl2N2O-
210.9443	20	C7[13]CCl2N2O-
211.9376	70	C8Cl[37]ClN2O-
216.9089	27	C7Cl3N2-
244.9074	999	C8Cl3N2O-
245.9131	125	C7[13]CCl3N2O-
246.9041	960	C8Cl2[37]ClN2O-
