Mass spectrum: Chlorpromazine; LC-ESI-QTOF; MS2; CE: 50 eV; R=35000; [M+H]+
Name: Chlorpromazine
Name: 3-(2-chlorophenothiazin-10-yl)-N,N-dimethylpropan-1-amine
Formula: C17H19ClN2S
Exact mass: 318.0957473
SMILES: CN(C)CCCN1c2ccccc2Sc3c1cc(cc3)Cl
InChI: InChI=1S/C17H19ClN2S/c1-19(2)10-5-11-20-14-6-3-4-7-16(14)21-17-9-8-13(18)12-15(17)20/h3-4,6-9,12H,5,10-11H2,1-2H3
Instrument: Bruker maXis Impact
Instrument type: LC-ESI-QTOF
Ms type: MS2
Ion mode: POSITIVE
Ionization: ESI
Fragmentation mode: CID
Collision energy: 50 eV
Resolution: 35000
Column name: Acclaim RSLC C18 2.2um, 2.1x100mm, Thermo
Retention time: 9.4 min
Base peak: 319.1029
Precursor m/z: 319.103
Precursor type: [M+H]+
m/z	relative intensity	assigned
152.0616	26	C12H8+
154.0637	20	C11H8N+
166.0631	13	C12H8N+
167.0721	36	C12H9N+
177.0569	27	C13H7N+
178.0653	32	C13H8N+
179.0712	24	C13H9N+
184.034	23	C12H8S+
198.0377	127	C12H8NS+
201.0346	39	C12H8ClN+
204.0805	28	C15H10N+
205.0901	23	C15H11N+
206.0954	75	C15H12N+
207.1021	25	C15H13N+
210.0376	68	C13H8NS+
211.0448	376	C13H9NS+
212.0294	15	C10H11ClNS+
212.0493	63	C12[13]CH9NS+
214.0416	999	C13H9ClN+
215.0448	129	C12[13]CH9ClN+
216.0392	198	C13H9[37]ClN+
217.0415	21	C12[13]CH9[37]ClN+
223.0455	15	C14H9NS+
224.0529	41	C14H10NS+
233.0059	71	C12H8ClNS+
234.0093	17	C15H5ClN+
235.0038	18	C14H4ClN2+
238.0687	61	C15H12NS+
239.0763	88	C15H13NS+
246.0142	114	C13H9ClNS+
248.0106	39	C15H5ClN2+
