Mass spectrum: Norbuprenorphine; LC-ESI-QTOF; MS2; CE: 40 eV; R=35000; [M+H]+
Name: Norbuprenorphine
Formula: C25H35NO4
Exact mass: 413.2566086
SMILES: C[C@]([C@H]1C[C@@]23CC[C@@]1([C@H]4[C@@]25CCN[C@@H]3Cc6c5c(c(cc6)O)O4)OC)(C(C)(C)C)O
InChI: InChI=1S/C25H35NO4/c1-21(2,3)22(4,28)16-13-23-8-9-25(16,29-5)20-24(23)10-11-26-17(23)12-14-6-7-15(27)19(30-20)18(14)24/h6-7,16-17,20,26-28H,8-13H2,1-5H3/t16-,17-,20-,22+,23-,24+,25-/m1/s1
Instrument: Bruker maXis Impact
Instrument type: LC-ESI-QTOF
Ms type: MS2
Ion mode: POSITIVE
Ionization: ESI
Fragmentation mode: CID
Collision energy: 40 eV
Resolution: 35000
Column name: Acclaim RSLC C18 2.2um, 2.1x100mm, Thermo
Retention time: 6.291 min
Base peak: 150.1125
Precursor m/z: 414.2639
Precursor type: [M+H]+
m/z	relative intensity	assigned
137.0956	30	C9H13O+
161.0598	25	C10H9O2+
187.0769	74	C12H11O2+
188.0801	26	C12H12O2+
190.0869	29	C11H12NO2+
199.0755	30	C13H11O2+
209.0945	24	C15H13O+
211.0783	49	C14H11O2+
213.0896	31	C14H13O2+
214.0876	26	C13H12NO2+
217.0867	25	C13H13O3+
223.0757	38	C15H11O2+
225.0917	49	C15H13O2+
237.0933	50	C16H13O2+
239.1056	38	C16H15O2+
241.0882	33	C18H11N+
243.1044	40	C18H13N+
251.1066	37	C17H15O2+
265.1227	55	C18H17O2+
267.1041	37	C20H13N+
269.1203	29	C20H15N+
283.1331	44	C18H19O3+
295.1365	28	C22H17N+
297.1521	43	C22H19N+
311.1696	24	C23H21N+
312.1645	54	C19H22NO3+
326.1797	53	C20H24NO3+
340.192	72	C21H26NO3+
341.1953	29	C21H27NO3+
342.1688	30	C20H24NO4+
364.228	40	C24H30NO2+
382.2356	32	C24H32NO3+
396.2533	64	C25H34NO3+
397.2609	33	C25H35NO3+
414.2664	999	C25H36NO4+
415.2701	265	C24[13]CH36NO4+
