Mass spectrum: Tylosin; LC-ESI-QTOF; MS2; CE: Ramp 34.3-51.4 eV; R=35000; [M+H]+
Name: Tylosin
Name: 2-[(4R,5S,6S,7R,9R,11E,13E,15R,16R)-6-[(2R,3R,4R,5S,6R)-5-[(2S,4R,5S,6S)-4,5-dihydroxy-4,6-dimethyloxan-2-yl]oxy-4-(dimethylamino)-3-hydroxy-6-methyloxan-2-yl]oxy-16-ethyl-4-hydroxy-15-[[(2R,3R,4R,5R,6R)-5-hydroxy-3,4-dimethoxy-6-methyloxan-2-yl]oxymethyl]-5,9,13-trimethyl-2,10-dioxo-1-oxacyclohexadeca-11,13-dien-7-yl]acetaldehyde
Formula: C46H77NO17
Exact mass: 915.5191500
SMILES: CC[C@H]1OC(=O)C[C@@H](O)[C@H](C)[C@@H](O[C@@H]2O[C@H](C)[C@@H](O[C@H]3C[C@@](C)(O)[C@@H](O)[C@H](C)O3)[C@@H]([C@H]2O)N(C)C)[C@@H](CC=O)C[C@@H](C)C(=O)\C=C\C(\C)=C\[C@@H]1CO[C@@H]1O[C@H](C)[C@@H](O)[C@@H](OC)[C@H]1OC
InChI: InChI=1S/C46H77NO17/c1-13-33-30(22-58-45-42(57-12)41(56-11)37(52)26(5)60-45)18-23(2)14-15-31(49)24(3)19-29(16-17-48)39(25(4)32(50)20-34(51)62-33)64-44-38(53)36(47(9)10)40(27(6)61-44)63-35-21-46(8,55)43(54)28(7)59-35/h14-15,17-18,24-30,32-33,35-45,50,52-55H,13,16,19-22H2,1-12H3/b15-14+,23-18+/t24-,25+,26-,27-,28+,29+,30-,32-,33-,35+,36-,37-,38-,39-,40-,41-,42-,43+,44+,45-,46-/m1/s1
Instrument: Bruker maXis Impact
Instrument type: LC-ESI-QTOF
Ms type: MS2
Ion mode: POSITIVE
Ionization: ESI
Fragmentation mode: CID
Collision energy: Ramp 34.3-51.4 eV
Resolution: 35000
Column name: Acclaim RSLC C18 2.2um, 2.1x100mm, Thermo
Retention time: 7.623 min
Base peak: 102.1284
Precursor m/z: 916.5264
Precursor type: [M+H]+
m/z	relative intensity	assigned
83.0484	11	C5H7O+
101.0592	17	C5H9O2+
116.0691	5	C2H12O5+
127.0745	63	C7H11O2+
132.1008	76	C6H14NO2+
143.0694	6	C7H11O3+
145.0849	83	C7H13O3+
156.101	48	C8H14NO2+
157.1038	7	C7[13]CH14NO2+
158.1176	7	C8H16NO2+
172.0965	7	C8H14NO3+
174.1115	999	C5H18O6+
175.1143	85	C4[13]CH18O6+
176.1146	12	C5H18O5[18]O+
232.1538	8	C11H22NO4+
276.18	24	C20H22N+
277.1841	5	C19[13]CH22N+
318.1906	46	C12H30O9+
319.1936	6	C11[13]CH30O9+
389.2307	14	C8H39NO15+
391.2519	5	C26H33NO2+
407.2426	13	C23H35O6+
409.2636	5	C16H41O11+
598.3646	7	C24H56NO15+
599.3622	8	C28H55O13+
772.4499	48	C39H66NO14+
773.4515	27	C38[13]CH66NO14+
774.455	12	C36H70O17+
774.4784	10	C39H68NO14+
916.5272	96	C46H78NO17+
917.5297	53	C45[13]CH78NO17+
