Mass spectrum: Tylosin; LC-ESI-QTOF; MS2; CE: 50 eV; R=35000; [M+H]+
Name: Tylosin
Name: 2-[(4R,5S,6S,7R,9R,11E,13E,15R,16R)-6-[(2R,3R,4R,5S,6R)-5-[(2S,4R,5S,6S)-4,5-dihydroxy-4,6-dimethyloxan-2-yl]oxy-4-(dimethylamino)-3-hydroxy-6-methyloxan-2-yl]oxy-16-ethyl-4-hydroxy-15-[[(2R,3R,4R,5R,6R)-5-hydroxy-3,4-dimethoxy-6-methyloxan-2-yl]oxymethyl]-5,9,13-trimethyl-2,10-dioxo-1-oxacyclohexadeca-11,13-dien-7-yl]acetaldehyde
Formula: C46H77NO17
Exact mass: 915.5191500
SMILES: CC[C@@H]1[C@H](/C=C(/C=C/C(=O)[C@@H](C[C@@H]([C@@H]([C@H]([C@@H](CC(=O)O1)O)C)O[C@H]2[C@@H]([C@H]([C@@H]([C@H](O2)C)O[C@H]3C[C@@]([C@H]([C@@H](O3)C)O)(C)O)N(C)C)O)CC=O)C)\C)CO[C@H]4[C@@H]([C@@H]([C@@H]([C@H](O4)C)O)OC)OC
InChI: InChI=1S/C46H77NO17/c1-13-33-30(22-58-45-42(57-12)41(56-11)37(52)26(5)60-45)18-23(2)14-15-31(49)24(3)19-29(16-17-48)39(25(4)32(50)20-34(51)62-33)64-44-38(53)36(47(9)10)40(27(6)61-44)63-35-21-46(8,55)43(54)28(7)59-35/h14-15,17-18,24-30,32-33,35-45,50,52-55H,13,16,19-22H2,1-12H3/b15-14+,23-18+/t24-,25+,26-,27-,28+,29+,30-,32-,33-,35+,36-,37-,38-,39-,40-,41-,42-,43+,44+,45-,46-/m1/s1
Instrument: Bruker maXis Impact
Instrument type: LC-ESI-QTOF
Ms type: MS2
Ion mode: POSITIVE
Ionization: ESI
Fragmentation mode: CID
Collision energy: 50 eV
Resolution: 35000
Column name: Acclaim RSLC C18 2.2um, 2.1x100mm, Thermo
Retention time: 7.903 min
Base peak: 313.1256
Precursor m/z: 916.5264
Precursor type: [M+H]+
m/z	relative intensity	assigned
116.0713	6	C5H10NO2+
127.0764	37	C7H11O2+
132.1031	64	C6H14NO2+
133.1062	5	C3H17O5+
143.0719	7	C10H9N+
145.0871	74	C7H13O3+
146.0908	5	C7H14O3+
156.1039	44	C8H14NO2+
157.1069	5	C5H17O5+
172.0984	5	C8H14NO3+
174.1145	999	C8H16NO3+
175.1173	89	C7[13]CH16NO3+
176.1187	6	C12H16O+
232.1571	16	CH28O12+
276.183	13	C3H32O13+
318.1945	22	C5H34O14+
389.2364	9	C26H31NO2+
407.2446	14	C26H33NO3+
598.3662	8	C39H50O5+
772.458	29	C40H68O14+
773.4649	13	C39[13]CH68O14+
774.4606	5	C36H70O17+
774.4781	7	C43H68NO11+
916.543	8	C46H78NO17+
