Mass spectrum: Terbutylazine-desethyl-2-hydroxy; LC-ESI-QTOF; MS2; CE: 20 eV; R=35000; [M+H]+
Name: Terbutylazine-desethyl-2-hydroxy
Name: 4-Amino-2-hydroxy-6-tert-butylamino-1,3,5-triazine
Name: 2-amino-6-(tert-butylamino)-1H-1,3,5-triazin-4-one
Formula: C7H13N5O
Exact mass: 183.1120100
SMILES: CC(C)(C)NC1=NC(=O)N=C(N)N1
InChI: InChI=1S/C7H13N5O/c1-7(2,3)12-5-9-4(8)10-6(13)11-5/h1-3H3,(H4,8,9,10,11,12,13)
Instrument: Bruker maXis Impact
Instrument type: LC-ESI-QTOF
Ms type: MS2
Ion mode: POSITIVE
Ionization: ESI
Fragmentation mode: CID
Collision energy: 20 eV
Resolution: 35000
Column name: Acclaim RSLC C18 2.2um, 2.1x100mm, Thermo
Retention time: 3.8 min
Base peak: 184.1181
Precursor m/z: 184.1193
Precursor type: [M+H]+
m/z	relative intensity	assigned
128.0561	999	C3H6N5O+
129.0578	36	C2[13]CH6N5O+
184.1179	2	C7H14N5O+
