Mass spectrum: Galaxolide; LC-ESI-QTOF; MS2; CE: 30 eV; R=35000; [M+H]+
Name: Galaxolide
Name: Cyclopenta[g]-2-benzopyran, 1,3,4,6,7,8-hexahydro-4,6,6,7,8,8-hexamethyl-
Name: 4,6,6,7,8,8-hexamethyl-1,3,4,7-tetrahydrocyclopenta[g]isochromene
Formula: C18H26O
Exact mass: 258.1983655
SMILES: CC1C(C)(C)C2=CC3=C(C=C2C1(C)C)C(C)COC3
InChI: InChI=1S/C18H26O/c1-11-9-19-10-13-7-15-16(8-14(11)13)18(5,6)12(2)17(15,3)4/h7-8,11-12H,9-10H2,1-6H3
Instrument: Bruker maXis Impact
Instrument type: LC-ESI-QTOF
Ms type: MS2
Ion mode: POSITIVE
Ionization: ESI
Fragmentation mode: CID
Collision energy: 30 eV
Resolution: 35000
Column name: Acclaim RSLC C18 2.2um, 2.1x100mm, Thermo
Retention time: 13.493 min
Base peak: 259.2048
Precursor m/z: 259.2056
Precursor type: [M+H]+
m/z	relative intensity	assigned
119.0849	43	C9H11+
129.0686	14	C10H9+
133.0999	89	C10H13+
134.1038	10	C9[13]CH13+
141.0696	8	C11H9+
142.0769	8	C11H10+
145.099	11	C11H13+
146.0703	7	C10H10O+
147.0791	179	C10H11O+
147.1155	15	C11H15+
148.0829	30	C9[13]CH11O+
157.0988	21	C12H13+
159.0821	6	C11H11O+
159.1188	10	C12H15+
161.0944	153	C11H13O+
162.0989	15	C10[13]CH13O+
169.0994	20	C13H13+
170.1056	7	C13H14+
171.1146	6	C13H15+
173.1297	7	C13H17+
175.1104	999	C12H15O+
176.1137	144	C11[13]CH15O+
177.1166	10	C10[13]C2H15O+
187.1108	37	C13H15O+
189.1239	26	C13H17O+
197.1309	7	C15H17+
210.1364	6	C16H18+
224.1544	25	C17H20+
225.0384	11	C17H5O+
227.1418	57	C16H19O+
228.1479	14	C15[13]CH19O+
239.18	19	C18H23+
242.1667	24	C17H22O+
243.1686	9	C17H23O+
257.1896	43	C18H25O+
258.1917	11	C17[13]CH25O+
259.2046	8	C18H27O+
