Mass spectrum: 1-(3-carboxypropyl)-3,7-dimethylxanthine; LC-ESI-QTOF; MS2; CE: Ramp 20.4-30.6 eV; R=35000; [M+H]+
Name: 1-(3-carboxypropyl)-3,7-dimethylxanthine
Name: 4-(3,7-dimethyl-2,6-dioxopurin-1-yl)butanoic acid
Formula: C11H14N4O4
Exact mass: 266.10150493
SMILES: CN1C=NC2=C1C(=O)N(CCCC(O)=O)C(=O)N2C
InChI: InChI=1S/C11H14N4O4/c1-13-6-12-9-8(13)10(18)15(11(19)14(9)2)5-3-4-7(16)17/h6H,3-5H2,1-2H3,(H,16,17)
Instrument: Bruker maXis Impact
Instrument type: LC-ESI-QTOF
Ms type: MS2
Ion mode: POSITIVE
Ionization: ESI
Fragmentation mode: CID
Collision energy: Ramp 20.4-30.6 eV
Resolution: 35000
Column name: Acclaim RSLC C18 2.2um, 2.1x100mm, Thermo
Retention time: 4.456 min
Base peak: 267.1094
Precursor m/z: 267.1088
Precursor type: [M+H]+
m/z	relative intensity	assigned
138.0648	25	C3H10N2O4+
149.0797	11	C4H11N3O3+
150.1009	16	C5H14N2O3+
154.0596	9	C6H8N3O2+
163.0591	7	C4H9N3O4+
165.0745	17	C4H11N3O4+
175.0599	10	C5H9N3O4+
176.0688	5	C8H8N4O+
180.0634	14	C7H8N4O2+
181.0701	135	C7H9N4O2+
182.0748	11	C6[13]CH9N4O2+
193.0711	426	C8H9N4O2+
194.074	45	C7[13]CH9N4O2+
195.0744	5	C9H11N2O3+
205.1062	25	C7H15N3O4+
207.0853	12	C9H11N4O2+
209.0473	6	C11H5N4O+
209.1132	7	C10H15N3O2+
211.0817	368	C8H11N4O3+
212.0863	30	C7[13]CH11N4O3+
221.1026	999	C10H13N4O2+
222.105	78	C9[13]CH13N4O2+
223.1106	8	C8[13]C2H13N4O2+
225.0968	6	C9H13N4O3+
249.0971	188	C11H13N4O3+
250.1002	29	C10[13]CH13N4O3+
267.1078	26	C11H15N4O4+
