Mass spectrum: Flutamide; LC-ESI-QTOF; MS2; CE: 10 eV; R=35000; [M-H]-
Name: Flutamide
Name: 2-methyl-N-[4-nitro-3-(trifluoromethyl)phenyl]propanamide
Formula: C11H11F3N2O3
Exact mass: 276.0721769
SMILES: CC(C)C(=O)NC1=CC(=C(C=C1)[N+]([O-])=O)C(F)(F)F
InChI: InChI=1S/C11H11F3N2O3/c1-6(2)10(17)15-7-3-4-9(16(18)19)8(5-7)11(12,13)14/h3-6H,1-2H3,(H,15,17)
Instrument: Bruker maXis Impact
Instrument type: LC-ESI-QTOF
Ms type: MS2
Ion mode: NEGATIVE
Ionization: ESI
Fragmentation mode: CID
Collision energy: 10 eV
Resolution: 35000
Column name: Acclaim RSLC C18 2.2um, 2.1x100mm, Thermo
Retention time: 9.445 min
Base peak: 275.0657
Precursor m/z: 275.0649
Precursor type: [M-H]-
m/z	relative intensity	assigned
202.0116	11	C8H3F3NO2-
205.0219	9	C10H3F2N2O-
275.0658	999	C11H10F3N2O3-
276.0684	95	C10[13]CH10F3N2O3-
277.0686	8	C9[13]C2H10F3N2O3-
