Mass spectrum: Tri-isobutylphosphate; LC-ESI-QTOF; MS2; CE: Ramp 20.4-30.6 eV; R=35000; [M+H]+
Name: Tri-isobutylphosphate
Name: Triisobutyl phosphate
Name: tris(2-methylpropyl) phosphate
Formula: C12H27O4P
Exact mass: 266.1646960
SMILES: CC(C)COP(=O)(OCC(C)C)OCC(C)C
InChI: InChI=1S/C12H27O4P/c1-10(2)7-14-17(13,15-8-11(3)4)16-9-12(5)6/h10-12H,7-9H2,1-6H3
Instrument: Bruker maXis Impact
Instrument type: LC-ESI-QTOF
Ms type: MS2
Ion mode: POSITIVE
Ionization: ESI
Fragmentation mode: CID
Collision energy: Ramp 20.4-30.6 eV
Resolution: 35000
Column name: Acclaim RSLC C18 2.2um, 2.1x100mm, Thermo
Retention time: 11.539 min
Base peak: 267.172
Precursor m/z: 267.172
Precursor type: [M+H]+
m/z	relative intensity	assigned
57.0694	376	C4H9+
59.0487	32	C3H7O+
98.9848	999	H4O4P+
116.9952	253	C7HO2+
140.01	142	C6H4O4+
155.0453	171	C4H12O4P+
157.0251	31	C10H5O2+
159.0439	26	C10H7O2+
211.1065	33	C8H20O4P+
