Mass spectrum: Cyprodinil; LC-ESI-QTOF; MS2; CE: 50 eV; R=35000; [M+H]+
Name: Cyprodinil
Name: 4-cyclopropyl-6-methyl-N-phenylpyrimidin-2-amine
Formula: C14H15N3
Exact mass: 225.1265975
SMILES: CC1=NC(NC2=CC=CC=C2)=NC(=C1)C1CC1
InChI: InChI=1S/C14H15N3/c1-10-9-13(11-7-8-11)17-14(15-10)16-12-5-3-2-4-6-12/h2-6,9,11H,7-8H2,1H3,(H,15,16,17)
Instrument: Bruker maXis Impact
Instrument type: LC-ESI-QTOF
Ms type: MS2
Ion mode: POSITIVE
Ionization: ESI
Fragmentation mode: CID
Collision energy: 50 eV
Resolution: 35000
Column name: Acclaim RSLC C18 2.2um, 2.1x100mm, Thermo
Retention time: 11.103 min
Base peak: 226.1345
Precursor m/z: 226.1339
Precursor type: [M+H]+
m/z	relative intensity	assigned
114.0447	11	C9H6+
115.0415	5	C8H5N+
115.0533	103	C9H7+
116.0377	11	C7H4N2+
116.049	108	C8H6N+
117.0443	48	C7H5N2+
117.0564	139	C8H7N+
118.0518	678	C7H6N2+
119.0593	299	C7H7N2+
120.0625	25	C6[13]CH7N2+
120.079	5	C8H10N+
121.0756	6	C7H9N2+
122.0835	10	C7H10N2+
126.046	11	C10H6+
127.0534	25	C10H7+
128.0487	67	C9H6N+
128.0606	37	C10H8+
129.0447	37	C8H5N2+
129.0548	26	C9H7N+
129.0684	19	C10H9+
130.0504	10	C8H6N2+
130.0638	73	C9H8N+
131.0595	921	C8H7N2+
132.0667	405	C8H8N2+
133.074	165	C8H9N2+
134.0702	43	C7H8N3+
138.0447	5	C11H6+
139.0534	113	C11H7+
140.0486	195	C10H6N+
141.0559	87	C10H7N+
141.0678	31	C11H9+
142.0527	44	C9H6N2+
142.0643	84	C10H8N+
143.0596	243	C9H7N2+
143.0698	90	C10H9N+
144.0575	29	C8H6N3+
144.0653	38	C8[13]CH7N2+
144.0793	99	C10H10N+
145.0747	107	C9H9N2+
146.0766	14	C8[13]CH9N2+
147.0795	5	C8H9N3+
148.0853	59	C8H10N3+
149.0892	7	C7[13]CH10N3+
150.0453	7	C12H6+
150.104	16	C8H12N3+
151.0526	5	C12H7+
152.0492	20	C11H6N+
152.0607	38	C12H8+
153.0562	32	C11H7N+
154.0639	100	C11H8N+
155.0597	108	C10H7N2+
156.0669	131	C10H8N2+
157.0742	72	C10H9N2+
158.0722	20	C9H8N3+
158.0812	28	C10H10N2+
159.0905	47	C10H11N2+
160.0924	9	C9[13]CH11N2+
163.0525	10	C13H7+
164.0476	17	C12H6N+
164.0604	28	C13H8+
165.0563	20	C12H7N+
165.0685	96	C13H9+
166.0641	292	C12H8N+
167.0719	583	C12H9N+
168.0684	255	C11H8N2+
169.0747	263	C11H9N2+
170.0791	51	C10[13]CH9N2+
171.0799	15	C10H9N3+
171.0901	33	C11H11N2+
172.0881	6	C10H10N3+
172.098	6	C10[13]CH11N2+
177.0563	18	C13H7N+
178.0625	14	C13H8N+
179.0592	41	C12H7N2+
180.08	125	C13H10N+
181.0754	351	C12H9N2+
182.0812	178	C12H10N2+
183.0792	151	C11H9N3+
183.0882	154	C12H11N2+
184.0866	152	C11H10N3+
185.0896	29	C10[13]CH10N3+
185.1067	36	C12H13N2+
186.1056	8	C11H12N3+
190.0644	48	C14H8N+
191.0713	76	C14H9N+
192.0678	217	C13H8N2+
193.0753	999	C13H9N2+
194.0816	333	C13H10N2+
195.0865	53	C12[13]CH10N2+
196.0866	76	C12H10N3+
197.0934	67	C12H11N3+
198.1015	97	C12H12N3+
199.1074	27	C12H13N3+
200.1149	5	C12H14N3+
205.075	63	C14H9N2+
206.0828	201	C14H10N2+
207.0909	589	C14H11N2+
208.0958	141	C13[13]CH11N2+
209.1043	63	C14H13N2+
210.102	543	C13H12N3+
211.106	91	C12[13]CH12N3+
222.1012	21	C14H12N3+
223.1094	8	C14H13N3+
224.1177	186	C14H14N3+
225.1216	44	C13[13]CH14N3+
226.1335	134	C14H16N3+
227.1357	25	C13[13]CH16N3+
