Mass spectrum: Dimethoate; LC-ESI-QTOF; MS2; CE: 10 eV; R=35000; [M+H]+
Name: Dimethoate
Name: 2-dimethoxyphosphinothioylsulfanyl-N-methylacetamide
Formula: C5H12NO3PS2
Exact mass: 228.9996219
SMILES: P(SCC(NC)=O)(OC)(OC)=S
InChI: InChI=1S/C5H12NO3PS2/c1-6-5(7)4-12-10(11,8-2)9-3/h4H2,1-3H3,(H,6,7)
Instrument: Bruker maXis Impact
Instrument type: LC-ESI-QTOF
Ms type: MS2
Ion mode: POSITIVE
Ionization: ESI
Fragmentation mode: CID
Collision energy: 10 eV
Resolution: 35000
Column name: Acclaim RSLC C18 2.2um, 2.1x100mm, Thermo
Retention time: 5.113 min
Base peak: 230.0084
Precursor m/z: 230.0069
Precursor type: [M+H]+
m/z	relative intensity	assigned
124.9822	56	C2H6O2PS+
142.9928	34	C2H8O3PS+
156.9543	5	C2H6O2PS2+
170.9703	147	C3H8O2PS2+
171.9721	5	C2[13]CH8O2PS2+
172.9661	10	C3H8O2PS[34]S+
197.9814	34	C4H9NO2PS2+
198.9657	999	C4H8O3PS2+
199.9682	36	C3[13]CH8O3PS2+
200.9614	57	C4H8O3PS[34]S+
230.0081	150	C5H13NO3PS2+
231.0105	8	C4[13]CH13NO3PS2+
232.0037	10	C5H13NO3PS[34]S+
