Mass spectrum: Atenolol; LC-ESI-QTOF; MS2; CE: 40 eV; R=35000; [M+H]+
Name: Atenolol
Name: 2-[4-[2-hydroxy-3-(propan-2-ylamino)propoxy]phenyl]acetamide
Formula: C14H22N2O3
Exact mass: 266.1630426
SMILES: CC(C)NCC(COc1ccc(cc1)CC(=O)N)O
InChI: InChI=1S/C14H22N2O3/c1-10(2)16-8-12(17)9-19-13-5-3-11(4-6-13)7-14(15)18/h3-6,10,12,16-17H,7-9H2,1-2H3,(H2,15,18)
Instrument: Bruker maXis Impact
Instrument type: LC-ESI-QTOF
Ms type: MS2
Ion mode: POSITIVE
Ionization: ESI
Fragmentation mode: CID
Collision energy: 40 eV
Resolution: 35000
Column name: Acclaim RSLC C18 2.2um, 2.1x100mm, Thermo
Retention time: 3.1 min
Base peak: 267.1701
Precursor m/z: 267.1703
Precursor type: [M+H]+
m/z	relative intensity	assigned
116.0486	17	C8H6N+
116.0562	12	C4H8N2O2+
116.1059	8	C6H14NO+
117.0324	11	C8H5O+
117.0573	8	C8H7N+
117.0691	46	C9H9+
118.0719	7	C4H10N2O2+
119.0483	42	C8H7O+
122.0597	13	C7H8NO+
127.0532	8	C10H7+
131.0481	16	C9H7O+
134.0593	76	C8H8NO+
135.0615	6	C3H9N3O3+
136.0752	6	C8H10NO+
144.0558	15	C10H8O+
144.0788	7	C7H12O3+
145.0638	999	C10H9O+
146.067	98	C9[13]CH9O+
147.0428	50	C9H7O2+
147.0787	8	C10H11O+
148.0455	5	C4H8N2O4+
152.0693	20	C8H10NO2+
155.059	11	C7H9NO3+
161.0585	7	C10H9O2+
162.0654	44	C10H10O2+
162.09	25	C10H12NO+
163.0736	15	C10H11O2+
164.0697	41	C9H10NO2+
173.0589	16	C11H9O2+
178.0849	44	C10H12NO2+
179.0878	5	C14H11+
182.0792	7	C9H12NO3+
190.0856	32	C11H12NO2+
191.0884	6	C6H13N3O4+
208.0965	6	C11H14NO3+
