Mass spectrum: Vardenafil; LC-ESI-QTOF; MS2; CE: 40 eV; R=35000; [M-H]-
Name: Vardenafil
Name: CID 110634
Name: 2-[2-ethoxy-5-(4-ethylpiperazin-1-yl)sulfonylphenyl]-5-methyl-7-propyl-1H-imidazo[5,1-f][1,2,4]triazin-4-one
Formula: C23H32N6O4S
Exact mass: 488.2205745
SMILES: CCCC1=NC(C)=C2N1NC(=NC2=O)C1=C(OCC)C=CC(=C1)S(=O)(=O)N1CCN(CC)CC1
InChI: InChI=1S/C23H32N6O4S/c1-5-8-20-24-16(4)21-23(30)25-22(26-29(20)21)18-15-17(9-10-19(18)33-7-3)34(31,32)28-13-11-27(6-2)12-14-28/h9-10,15H,5-8,11-14H2,1-4H3,(H,25,26,30)
Instrument: Bruker maXis Impact
Instrument type: LC-ESI-QTOF
Ms type: MS2
Ion mode: NEGATIVE
Ionization: ESI
Fragmentation mode: CID
Collision energy: 40 eV
Resolution: 35000
Column name: Acclaim RSLC C18 2.2um, 2.1x100mm, Thermo
Retention time: 9.856 min
Base peak: 487.2118
Precursor m/z: 487.2133
Precursor type: [M-H]-
m/z	relative intensity	assigned
164.0237	113	C7H4N2O3-
225.0329	872	C12H5N2O3-
226.0331	98	C11[13]CH5N2O3-
229.0753	53	C13H11NO3-
244.0934	108	C15H16OS-
271.0829	51	C13H11N4O3-
282.1096	829	C15H14N4O2-
283.1152	148	C14[13]CH14N4O2-
285.0981	999	C16H15NO4-
286.1033	203	C15[13]CH15NO4-
310.1409	79	C20H22OS-
313.0982	53	C20H13N2O2-
314.1032	191	C15H14N4O4-
318.0977	57	C20H16NOS-
342.1375	62	C22H18N2O2-
459.1791	814	C21H27N6O4S-
460.1813	171	C20[13]CH27N6O4S-
461.1898	71	C21H29N6O4S-
