Mass spectrum: Simetryn; LC-ESI-QTOF; MS2; CE: Ramp 18.5-27.8 eV; R=35000; [M+H]+
Name: Simetryn
Name: 2-N,4-N-diethyl-6-methylsulfanyl-1,3,5-triazine-2,4-diamine
Formula: C8H15N5S
Exact mass: 213.1048165
SMILES: CCNC1=NC(SC)=NC(NCC)=N1
InChI: InChI=1S/C8H15N5S/c1-4-9-6-11-7(10-5-2)13-8(12-6)14-3/h4-5H2,1-3H3,(H2,9,10,11,12,13)
Instrument: Bruker maXis Impact
Instrument type: LC-ESI-QTOF
Ms type: MS2
Ion mode: POSITIVE
Ionization: ESI
Fragmentation mode: CID
Collision energy: Ramp 18.5-27.8 eV
Resolution: 35000
Column name: Acclaim RSLC C18 2.2um, 2.1x100mm, Thermo
Retention time: 9.755 min
Base peak: 102.1286
Precursor m/z: 214.1121
Precursor type: [M+H]+
m/z	relative intensity	assigned
124.0863	84	C6H10N3+
126.0096	999	C7N3+
127.0124	49	C6[13]CN3+
128.0253	54	C7H2N3+
129.0101	38	C2H3N5S+
139.0044	92	C4H3N4S+
144.0581	70	C5H10N3S+
166.1094	41	C7H12N5+
174.0121	552	C8H4N3S+
175.0139	28	C7[13]CH4N3S+
186.0797	25	C6H12N5S+
214.1116	374	C8H16N5S+
215.1145	49	C7[13]CH16N5S+
