Mass spectrum: Dihydrotestosterone; LC-ESI-QTOF; MS2; CE: 30 eV; R=35000; [M+H]+
Name: Dihydrotestosterone
Name: Androstanolone
Name: (5S,8R,9S,10S,13S,14S,17S)-17-hydroxy-10,13-dimethyl-1,2,4,5,6,7,8,9,11,12,14,15,16,17-tetradecahydrocyclopenta[a]phenanthren-3-one
Formula: C19H30O2
Exact mass: 290.2245802
SMILES: [H][C@@]12CC[C@H](O)[C@@]1(C)CC[C@@]1([H])[C@@]2([H])CC[C@@]2([H])CC(=O)CC[C@]12C
InChI: InChI=1S/C19H30O2/c1-18-9-7-13(20)11-12(18)3-4-14-15-5-6-17(21)19(15,2)10-8-16(14)18/h12,14-17,21H,3-11H2,1-2H3/t12-,14-,15-,16-,17-,18-,19-/m0/s1
Instrument: Bruker maXis Impact
Instrument type: LC-ESI-QTOF
Ms type: MS2
Ion mode: POSITIVE
Ionization: ESI
Fragmentation mode: CID
Collision energy: 30 eV
Resolution: 35000
Column name: Acclaim RSLC C18 2.2um, 2.1x100mm, Thermo
Retention time: 10.748 min
Base peak: 345.2425
Precursor m/z: 291.2319
Precursor type: [M+H]+
m/z	relative intensity	assigned
119.0853	223	C9H11+
121.1025	164	C9H13+
129.0685	138	C10H9+
131.0845	328	C10H11+
133.1003	477	C10H13+
135.1162	205	C10H15+
143.0857	195	C11H11+
145.1002	449	C11H13+
147.1155	397	C11H15+
157.0986	168	C12H13+
159.1157	834	C12H15+
160.1189	126	C11[13]CH15+
161.0947	999	C11H13O+
161.1313	476	C12H17+
171.1152	169	C13H15+
173.1313	533	C13H17+
174.1346	113	C12[13]CH17+
175.1109	269	C12H15O+
175.1455	172	C13H19+
177.1262	100	C12H17O+
179.1054	554	C11H15O2+
185.1316	195	C14H17+
186.1418	137	C14H18+
187.1497	142	C14H19+
189.1638	170	C14H21+
199.1468	453	C15H19+
200.155	122	C15H20+
201.1629	218	C15H21+
203.1047	313	C13H15O2+
213.1628	245	C16H21+
215.1788	671	C16H23+
216.1813	160	C15[13]CH23+
255.2095	814	C19H27+
