Mass spectrum: Metolachlor OA; LC-ESI-QTOF; MS2; CE: 30 eV; R=35000; [M+H]+
Name: Metolachlor OA
Name: 2-[2-ethyl-N-(1-methoxypropan-2-yl)-6-methylanilino]-2-oxoacetic acid
Formula: C15H21NO4
Exact mass: 279.1470582
SMILES: CCC1=C(N(C(C)COC)C(=O)C(O)=O)C(C)=CC=C1
InChI: InChI=1S/C15H21NO4/c1-5-12-8-6-7-10(2)13(12)16(11(3)9-20-4)14(17)15(18)19/h6-8,11H,5,9H2,1-4H3,(H,18,19)
Instrument: Bruker maXis Impact
Instrument type: LC-ESI-QTOF
Ms type: MS2
Ion mode: POSITIVE
Ionization: ESI
Fragmentation mode: CID
Collision energy: 30 eV
Resolution: 35000
Column name: Acclaim RSLC C18 2.2um, 2.1x100mm, Thermo
Retention time: 7.763 min
Base peak: 280.1537
Precursor m/z: 280.1543
Precursor type: [M+H]+
m/z	relative intensity	assigned
117.0547	23	C5H9O3+
117.0707	30	C9H9+
118.0642	25	C8H8N+
119.0716	23	C8H9N+
119.0853	32	C9H11+
120.0777	22	C5H12O3+
129.0695	27	C10H9+
130.0637	83	C6H10O3+
131.0719	236	C9H9N+
132.0795	168	C9H10N+
133.0867	88	C6H13O3+
134.0601	45	C8H8NO+
134.0951	310	C9H12N+
135.0992	34	C8[13]CH12N+
144.0797	233	C10H10N+
145.0859	71	C7H13O3+
146.0952	569	C10H12N+
147.0997	92	C9[13]CH12N+
148.1109	481	C7H16O3+
149.0216	39	C8H5O3+
149.1142	58	C6[13]CH16O3+
159.1022	58	C8H15O3+
160.0727	79	C7H12O4+
160.1113	123	C11H14N+
161.1163	33	C8H17O3+
162.0899	185	C10H12NO+
163.0938	23	C9[13]CH12NO+
174.091	26	C11H12NO+
174.1274	112	C12H16N+
176.1427	286	C9H20O3+
177.1451	41	C8[13]CH20O3+
184.111	25	C13H14N+
202.1223	73	C13H16NO+
204.1362	32	C10H20O4+
219.0571	29	C11H9NO4+
220.1318	101	C13H18NO2+
248.1274	999	C14H18NO3+
249.1308	168	C13[13]CH18NO3+
250.1331	22	C12[13]C2H18NO3+
