Mass spectrum: 2,4-Diaminobenzenesulfonic acid; LC-ESI-QTOF; MS2; CE: Ramp 17.6-26.4 eV; R=35000; [M+H]+
Name: 2,4-Diaminobenzenesulfonic acid
Formula: C6H8N2O3S
Exact mass: 188.02556312
SMILES: NC1=CC(N)=C(C=C1)S(O)(=O)=O
InChI: InChI=1S/C6H8N2O3S/c7-4-1-2-6(5(8)3-4)12(9,10)11/h1-3H,7-8H2,(H,9,10,11)
Instrument: Bruker maXis Impact
Instrument type: LC-ESI-QTOF
Ms type: MS2
Ion mode: POSITIVE
Ionization: ESI
Fragmentation mode: CID
Collision energy: Ramp 17.6-26.4 eV
Resolution: 35000
Column name: Acclaim RSLC C18 2.2um, 2.1x100mm, Thermo
Retention time: 1.345 min
Base peak: 85.0507
Precursor m/z: 189.0328
Precursor type: [M+H]+
m/z	relative intensity	assigned
123.055	999	C6H7N2O+
