Mass spectrum: Ethylene glycol dimethacrylate; GC-APCI-QTOF; MS2; CE: 10 eV; R=35000; [M+H]+
Name: Ethylene glycol dimethacrylate
Formula: C10H14O4
Exact mass: 198.0892
SMILES: CC(=C)C(=O)OCCOC(=O)C(=C)C
InChI: InChI=1S/C10H14O4/c1-7(2)9(11)13-5-6-14-10(12)8(3)4/h1,3,5-6H2,2,4H3
Instrument: Bruker 450 GC coupled to maXis Impact
Instrument type: GC-APCI-QTOF
Ms type: MS2
Ion mode: POSITIVE
Ionization: APCI
Fragmentation mode: CID
Collision energy: 10 eV
Resolution: 35000
Column name: Rxi-5Sil MS column, 30m, 0.25mm i.d., 0.25Âµm film thickness, Restek
Retention time: 11.227 min
Base peak: 257.2466
Precursor m/z: 199.0965
Precursor type: [M+H]+
m/z	relative intensity	assigned
135.1175	999	C10H15+
151.1135	396	C10H15O+
