Mass spectrum: Paramethasone; LC-ESI-QTOF; MS2; CE: 30 eV; R=35000; [M+H]+
Name: Paramethasone
Name: (6S,8S,9S,10R,11S,13S,14S,16R,17R)-6-fluoro-11,17-dihydroxy-17-(2-hydroxyacetyl)-10,13,16-trimethyl-7,8,9,11,12,14,15,16-octahydro-6H-cyclopenta[a]phenanthren-3-one
Formula: C22H29FO5
Exact mass: 392.1999022
SMILES: [H][C@@]12C[C@@H](C)[C@](O)(C(=O)CO)[C@@]1(C)C[C@H](O)[C@@]1([H])[C@@]2([H])C[C@H](F)C2=CC(=O)C=C[C@]12C
InChI: InChI=1S/C22H29FO5/c1-11-6-14-13-8-16(23)15-7-12(25)4-5-20(15,2)19(13)17(26)9-21(14,3)22(11,28)18(27)10-24/h4-5,7,11,13-14,16-17,19,24,26,28H,6,8-10H2,1-3H3/t11-,13+,14+,16+,17+,19-,20+,21+,22+/m1/s1
Instrument: Bruker maXis Impact
Instrument type: LC-ESI-QTOF
Ms type: MS2
Ion mode: POSITIVE
Ionization: ESI
Fragmentation mode: CID
Collision energy: 30 eV
Resolution: 35000
Column name: Acclaim RSLC C18 2.2um, 2.1x100mm, Thermo
Retention time: 8.507 min
Base peak: 393.2069
Precursor m/z: 393.2072
Precursor type: [M+H]+
m/z	relative intensity	assigned
115.0533	21	C9H7+
117.0688	13	C9H9+
119.0849	71	C9H11+
121.0641	199	C8H9O+
121.0999	43	C9H13+
122.0672	18	C7[13]CH9O+
123.08	62	C8H11O+
123.1165	11	C9H15+
125.059	46	C7H9O2+
125.0956	16	C8H13O+
128.0607	26	C10H8+
129.0688	23	C10H9+
130.0773	13	C10H10+
131.0849	107	C10H11+
132.0555	20	C9H8O+
133.0637	73	C9H9O+
133.1012	65	C10H13+
135.0796	289	C9H11O+
136.0825	23	C8[13]CH11O+
137.0569	23	C8H9O2+
137.0947	81	C9H13O+
138.0999	9	C8[13]CH13O+
139.0747	17	C8H11O2+
139.1105	14	C9H15O+
141.0684	27	C11H9+
142.0753	12	C11H10+
143.0709	13	C4H12FO4+
143.0843	74	C11H11+
145.064	73	C10H9O+
145.0998	58	C11H13+
146.0702	21	C10H10O+
147.0795	999	C10H11O+
148.0828	107	C9[13]CH11O+
149.0229	26	C8H5O3+
149.095	147	C10H13O+
150.0987	16	C9[13]CH13O+
151.0742	54	C9H11O2+
151.1098	15	C10H15O+
153.09	148	C9H13O2+
154.0926	15	C8[13]CH13O2+
155.0829	19	C12H11+
157.0647	14	C11H9O+
157.0998	44	C12H13+
158.0709	31	C11H10O+
158.1053	12	C12H14+
159.0795	266	C11H11O+
161.0596	13	C10H9O2+
161.0951	223	C11H13O+
162.0996	37	C10[13]CH13O+
163.0748	52	C10H11O2+
163.1103	17	C11H15O+
165.0686	13	C13H9+
165.0891	30	C10H13O2+
167.0859	12	C13H11+
167.1059	70	C10H15O2+
169.0634	27	C12H9O+
169.0994	23	C13H13+
170.0692	12	C12H10O+
171.0798	520	C12H11O+
171.1166	43	C13H15+
172.0829	84	C11[13]CH11O+
173.0953	306	C12H13O+
174.098	49	C11[13]CH13O+
175.075	30	C11H11O2+
175.1103	52	C12H15O+
177.0901	96	C11H13O2+
178.0781	12	C14H10+
178.0936	15	C10[13]CH13O2+
179.0849	21	C14H11+
181.1019	22	C11H14FO+
182.0709	9	C13H10O+
183.0788	34	C13H11O+
183.1158	11	C14H15+
185.0952	304	C13H13O+
186.0994	38	C12[13]CH13O+
187.0746	152	C12H11O2+
187.1105	163	C13H15O+
188.0777	27	C11[13]CH11O2+
188.1147	32	C12[13]CH15O+
189.0706	12	C12H10FO+
189.0901	41	C12H13O2+
189.1281	18	C10H18FO2+
190.0941	10	C11[13]CH13O2+
191.1053	9	C12H15O2+
193.0834	16	C11H13O3+
193.1011	26	C15H13+
194.1087	12	C15H14+
195.0799	24	C14H11O+
195.1012	16	C11H15O3+
195.115	39	C12H16FO+
196.0888	33	C14H12O+
196.1233	10	C11[13]CH16FO+
197.0955	170	C14H13O+
197.1303	18	C15H17+
198.1016	35	C13[13]CH13O+
199.0742	20	C13H11O2+
199.1099	123	C14H15O+
200.115	15	C13[13]CH15O+
201.0883	30	C13H13O2+
201.1277	27	C14H17O+
203.1066	33	C13H15O2+
204.0911	16	C16H12+
205.1015	24	C16H13+
206.1055	10	C16H14+
207.1167	22	C16H15+
208.0864	28	C15H12O+
209.0958	111	C15H13O+
209.1332	53	C16H17+
210.1029	67	C15H14O+
210.1354	13	C15[13]CH17+
211.1107	358	C15H15O+
212.1162	88	C14[13]CH15O+
213.0907	43	C14H13O2+
213.1273	187	C15H17O+
214.1288	37	C14[13]CH17O+
215.1065	147	C14H15O2+
215.1423	18	C15H19O+
216.1103	35	C13[13]CH15O2+
217.1001	13	C17H13+
218.1064	11	C17H14+
219.1168	53	C17H15+
220.0885	11	C16H12O+
220.1217	13	C16[13]CH15+
221.0951	93	C16H13O+
221.1341	28	C14H18FO+
222.1029	99	C16H14O+
222.1366	13	C17H18+
223.1108	245	C16H15O+
224.1163	77	C16H16O+
225.0917	13	C12H14FO3+
225.1271	134	C16H17O+
226.0966	13	C15H14O2+
226.133	38	C15[13]CH17O+
227.1055	40	C15H15O2+
227.1411	73	C16H19O+
228.1119	12	C15H16O2+
228.146	21	C15[13]CH19O+
229.1227	9	C15H17O2+
231.1131	14	C18H15+
231.1204	17	C15H16FO+
232.122	9	C18H16+
233.0952	18	C17H13O+
233.1299	15	C18H17+
234.1023	27	C17H14O+
235.1116	193	C17H15O+
235.1482	29	C18H19+
236.1165	56	C16[13]CH15O+
236.1545	12	C18H20+
237.1269	547	C17H17O+
237.1637	31	C18H21+
238.0966	12	C16H14O2+
238.1304	119	C16[13]CH17O+
239.1046	66	C16H15O2+
239.1421	319	C17H19O+
240.109	22	C16H16O2+
240.1461	72	C16[13]CH19O+
241.1213	55	C16H17O2+
241.1573	14	C17H21O+
242.1244	17	C16H18O2+
244.1262	11	C16H17FO+
245.0959	16	C18H13O+
245.1315	21	C19H17+
246.103	15	C18H14O+
246.138	14	C19H18+
247.1111	25	C18H15O+
247.1482	16	C19H19+
248.1177	73	C18H16O+
248.1512	10	C19H20+
249.1261	163	C18H17O+
249.164	27	C19H21+
250.1329	52	C17[13]CH17O+
250.1691	15	C19H22+
251.1069	22	C17H15O2+
251.1424	83	C18H19O+
251.1791	18	C19H23+
252.1503	53	C18H20O+
253.1212	112	C17H17O2+
253.1583	119	C18H21O+
254.1251	23	C16[13]CH17O2+
254.1616	27	C17[13]CH21O+
255.1364	61	C17H19O2+
256.1397	25	C17H20O2+
257.1322	23	C20H17+
258.1395	14	C20H18+
259.1089	24	C19H15O+
259.1484	22	C20H19+
260.1172	45	C19H16O+
261.1256	84	C19H17O+
261.1621	30	C20H21+
262.1345	101	C19H18O+
262.1663	10	C19[13]CH21+
263.1067	15	C18H15O2+
263.1423	289	C19H19O+
263.1798	18	C20H23+
264.1132	10	C18H16O2+
264.1482	90	C18[13]CH19O+
265.1228	14	C18H17O2+
265.157	74	C19H21O+
266.1626	22	C18[13]CH21O+
267.1369	71	C18H19O2+
267.1733	39	C19H23O+
268.1405	18	C17[13]CH19O2+
269.1509	14	C18H21O2+
271.1102	13	C20H15O+
271.1517	11	C14H23O5+
272.1179	29	C20H16O+
273.1274	26	C20H17O+
273.1637	18	C21H21+
274.1345	40	C20H18O+
274.167	10	C21H22+
275.1433	90	C20H19O+
276.1489	71	C20H20O+
277.1217	27	C19H17O2+
277.1586	265	C20H21O+
278.1653	248	C20H22O+
279.1383	42	C16H20FO3+
279.1739	735	C20H23O+
280.1437	9	C15[13]CH20FO3+
280.1777	181	C19[13]CH23O+
281.1538	41	C19H21O2+
281.1895	30	C20H25O+
282.1572	10	C18[13]CH21O2+
282.1942	9	C20H26O+
284.1557	9	C22H20+
286.135	44	C18H19FO2+
287.1421	16	C17[13]CH19FO2+
288.143	11	C14H21FO5+
289.1212	9	C20H17O2+
289.1577	123	C18H22FO2+
290.1308	19	C17H19FO3+
290.1648	32	C17[13]CH22FO2+
291.1384	23	C20H19O2+
291.1739	280	C21H23O+
292.1417	11	C20H20O2+
292.1778	86	C20[13]CH23O+
293.1531	47	C20H21O2+
293.1849	10	C19[13]C2H23O+
294.1556	21	C20H22O2+
295.1337	14	C16H20FO4+
295.1689	121	C20H23O2+
296.1765	58	C20H24O2+
297.1838	63	C20H25O2+
298.188	13	C19[13]CH25O2+
301.1579	101	C22H21O+
302.1613	27	C21[13]CH21O+
304.1455	23	C21H20O2+
306.1651	26	C18H23FO3+
307.168	94	C21H23O2+
308.1733	35	C20[13]CH23O2+
309.184	95	C21H25O2+
310.1853	23	C20[13]CH25O2+
311.1645	66	C20H23O3+
312.1679	25	C20H24O3+
319.1684	157	C22H23O2+
320.1702	41	C21[13]CH23O2+
325.1789	41	C21H25O3+
326.1825	16	C20[13]CH25O3+
327.1967	14	C18H28FO4+
337.1795	142	C22H25O3+
338.1838	38	C21[13]CH25O3+
355.1894	135	C19H28FO5+
356.197	33	C18[13]CH28FO5+
