Mass spectrum: 8-hydroxy Mirtazapine; LC-ESI-QTOF; MS2; CE: 40 eV; R=35000; [M+H]+
Name: 8-hydroxy Mirtazapine
Formula: C17H19N3O
Exact mass: 281.1528122
SMILES: CN1CCN2C(C1)C1=CC=CC=C1CC1=CC(O)=CN=C21
InChI: InChI=1S/C17H19N3O/c1-19-6-7-20-16(11-19)15-5-3-2-4-12(15)8-13-9-14(21)10-18-17(13)20/h2-5,9-10,16,21H,6-8,11H2,1H3
Instrument: Bruker maXis Impact
Instrument type: LC-ESI-QTOF
Ms type: MS2
Ion mode: POSITIVE
Ionization: ESI
Fragmentation mode: CID
Collision energy: 40 eV
Resolution: 35000
Column name: Acclaim RSLC C18 2.2um, 2.1x100mm, Thermo
Retention time: 4.6 min
Base peak: 282.1599
Precursor m/z: 282.1601
Precursor type: [M+H]+
m/z	relative intensity	assigned
115.0534	9	C9H7+
129.0687	6	C10H9+
130.0642	6	C9H8N+
131.0713	5	C9H9N+
141.0691	6	C11H9+
147.0541	6	C8H7N2O+
149.0702	10	C8H9N2O+
156.0795	7	C11H10N+
168.0789	5	C12H10N+
169.0746	5	C11H9N2+
181.0752	5	C12H9N2+
183.0902	10	C12H11N2+
184.0738	7	C12H10NO+
194.0828	6	C13H10N2+
208.0744	5	C14H10NO+
211.0861	999	C13H11N2O+
212.0891	111	C12[13]CH11N2O+
213.0921	6	C11[13]C2H11N2O+
222.0777	6	C14H10N2O+
224.0929	7	C14H12N2O+
225.1017	91	C14H13N2O+
226.1045	14	C13[13]CH13N2O+
237.1008	6	C15H13N2O+
239.1172	44	C15H15N2O+
251.1175	76	C16H15N2O+
