Mass spectrum: Diazinon; LC-ESI-QTOF; MS2; CE: 40 eV; R=35000; [M+H]+
Name: Diazinon
Name: diethoxy-(6-methyl-2-propan-2-ylpyrimidin-4-yl)oxy-sulfanylidene-$l^{5}-phosphane
Formula: C12H21N2O3PS
Exact mass: 304.1010502
SMILES: CCOP(=S)(OCC)OC1=NC(=NC(C)=C1)C(C)C
InChI: InChI=1S/C12H21N2O3PS/c1-6-15-18(19,16-7-2)17-11-8-10(5)13-12(14-11)9(3)4/h8-9H,6-7H2,1-5H3
Instrument: Bruker maXis Impact
Instrument type: LC-ESI-QTOF
Ms type: MS2
Ion mode: POSITIVE
Ionization: ESI
Fragmentation mode: CID
Collision energy: 40 eV
Resolution: 35000
Column name: Acclaim RSLC C18 2.2um, 2.1x100mm, Thermo
Retention time: 10.9 min
Base peak: 305.1094
Precursor m/z: 305.1083
Precursor type: [M+H]+
m/z	relative intensity	assigned
124.9814	7	C2H6O2PS+
135.0907	27	C8H11N2+
137.07	5	C7H9N2O+
138.0774	7	C7H10N2O+
153.1013	684	C8H13N2O+
167.0623	5	C9H12OP+
169.0787	999	C8H13N2S+
231.0345	8	C8H12N2O2PS+
249.0451	5	C8H14N2O3PS+
