Mass spectrum: Fluocinolone acetonide; LC-ESI-QTOF; MS2; CE: 20 eV; R=35000; [M+H]+
Name: Fluocinolone acetonide
Name: (1S,2S,4R,8S,9S,11S,12R,13S,19S)-12,19-difluoro-11-hydroxy-8-(2-hydroxyacetyl)-6,6,9,13-tetramethyl-5,7-dioxapentacyclo[10.8.0.02,9.04,8.013,18]icosa-14,17-dien-16-one
Formula: C24H30F2O6
Exact mass: 452.2010451
SMILES: CC1(C)O[C@@H]2C[C@H]3[C@@H]4C[C@H](F)C5=CC(=O)C=C[C@]5(C)[C@@]4(F)[C@@H](O)C[C@]3(C)[C@@]2(O1)C(=O)CO
InChI: InChI=1S/C24H30F2O6/c1-20(2)31-19-9-13-14-8-16(25)15-7-12(28)5-6-21(15,3)23(14,26)17(29)10-22(13,4)24(19,32-20)18(30)11-27/h5-7,13-14,16-17,19,27,29H,8-11H2,1-4H3/t13-,14-,16-,17-,19+,21-,22-,23-,24+/m0/s1
Instrument: Bruker maXis Impact
Instrument type: LC-ESI-QTOF
Ms type: MS2
Ion mode: POSITIVE
Ionization: ESI
Fragmentation mode: CID
Collision energy: 20 eV
Resolution: 35000
Column name: Acclaim RSLC C18 2.2um, 2.1x100mm, Thermo
Retention time: 8.740 min
Base peak: 435.2178
Precursor m/z: 453.2083
Precursor type: [M+H]+
m/z	relative intensity	assigned
121.0638	400	C8H9O+
122.0671	48	C7[13]CH9O+
123.0801	7	C8H11O+
125.0596	15	C7H9O2+
127.075	8	C7H11O2+
131.0846	5	C10H11+
133.064	35	C9H9O+
135.0434	9	C8H7O2+
135.0789	78	C9H11O+
137.0579	29	C8H9O2+
137.0749	8	C9H10F+
139.054	14	C11H7+
139.0747	17	C8H11O2+
141.0537	14	C7H9O3+
145.0635	29	C10H9O+
147.0798	66	C10H11O+
148.082	8	C9[13]CH11O+
149.0577	10	C9H9O2+
151.0373	10	C8H7O3+
151.0739	49	C9H11O2+
152.0773	6	C8[13]CH11O2+
153.0535	22	C8H9O3+
153.068	9	C12H9+
153.0908	16	C9H13O2+
155.0693	59	C8H11O3+
156.0738	5	C7[13]CH11O3+
157.064	5	C11H9O+
159.0635	7	C7H11O4+
159.0789	80	C11H11O+
160.0825	12	C10[13]CH11O+
161.0591	34	C10H9O2+
161.0943	16	C11H13O+
163.056	5	C7H9F2O2+
163.0747	24	C10H11O2+
165.07	29	C13H9+
165.0925	5	C7H14FO3+
167.0695	9	C9H11O3+
167.0855	10	C13H11+
169.0491	8	C8H9O4+
169.0637	16	C12H9O+
171.0789	87	C12H11O+
172.0839	10	C11[13]CH11O+
173.0594	7	C11H9O2+
173.095	21	C12H13O+
175.0752	29	C11H11O2+
177.0536	8	C10H9O3+
177.0722	9	C8H11F2O2+
177.0877	5	C11H13O2+
179.0526	6	C7H9F2O3+
179.0686	32	C10H11O3+
179.0856	35	C14H11+
179.1054	5	C11H15O2+
181.0641	13	C13H9O+
181.0834	9	C11H11F2+
181.0967	5	C14H13+
183.0799	37	C13H11O+
184.0836	6	C12[13]CH11O+
185.0593	50	C12H9O2+
185.0742	7	C13H10F+
185.0951	38	C13H13O+
186.0642	5	C11[13]CH9O2+
187.0743	37	C12H11O2+
187.1098	12	C13H15O+
188.0774	7	C11[13]CH11O2+
189.0693	24	C15H9+
189.0907	9	C12H13O2+
191.0699	6	C11H11O3+
191.0864	21	C12H12FO+
193.0642	7	C14H9O+
193.0837	7	C12H11F2+
193.0995	9	C15H13+
195.08	32	C14H11O+
195.1023	7	C8H16FO4+
195.1168	5	C15H15+
196.0853	9	C14H12O+
197.0594	5	C13H9O2+
197.081	12	C10H13O4+
197.0952	70	C14H13O+
198.0994	6	C13[13]CH13O+
199.0739	12	C13H11O2+
199.0931	6	C11H13F2O+
199.1106	22	C14H15O+
201.0904	17	C13H13O2+
203.0717	14	C9H12FO4+
203.0846	8	C16H11+
205.0647	52	C15H9O+
205.0846	5	C12H13O3+
205.1034	6	C10H15F2O2+
206.0678	9	C14[13]CH9O+
207.0788	11	C15H11O+
208.0853	6	C15H12O+
209.0784	5	C12H11F2O+
209.0953	59	C15H13O+
210.1003	14	C14[13]CH13O+
211.0739	14	C14H11O2+
211.1105	116	C15H15O+
212.1163	32	C15H16O+
213.0733	8	C11H11F2O2+
213.0907	35	C14H13O2+
213.1253	46	C9H19F2O3+
214.0925	5	C13[13]CH13O2+
214.1349	7	C8[13]CH19F2O3+
215.086	10	C17H11+
215.1042	8	C14H15O2+
217.0863	5	C13H13O3+
217.0986	6	C17H13+
219.0996	5	C14H13F2+
219.1147	7	C17H15+
221.0949	43	C16H13O+
222.1016	31	C16H14O+
223.0749	67	C15H11O2+
223.1108	280	C16H15O+
224.0794	9	C14[13]CH11O2+
224.114	50	C15[13]CH15O+
225.0902	24	C15H13O2+
225.1264	43	C16H17O+
226.1305	12	C15[13]CH17O+
227.0685	7	C15H9F2+
227.0841	5	C18H11+
227.1071	20	C15H15O2+
227.1432	9	C16H19O+
229.0835	11	C15H11F2+
229.1027	10	C15H14FO+
231.0818	8	C14H12FO2+
231.118	33	C18H15+
232.1183	6	C17[13]CH15+
233.0957	18	C17H13O+
233.1288	10	C18H17+
234.1008	8	C17H14O+
235.1103	117	C17H15O+
236.1159	25	C16[13]CH15O+
237.0906	19	C16H13O2+
237.1268	143	C17H17O+
238.0963	9	C16H14O2+
238.1296	24	C16[13]CH17O+
239.106	169	C16H15O2+
239.1309	12	C7H21F2O6+
239.1426	23	C17H19O+
240.1098	35	C15[13]CH15O2+
241.087	79	C12H14FO4+
241.1215	169	C16H17O2+
242.0917	14	C11[13]CH14FO4+
242.1238	31	C15[13]CH17O2+
243.0802	6	C18H11O+
243.1175	31	C16H16FO+
244.1214	7	C15[13]CH16FO+
245.0959	9	C18H13O+
245.1313	14	C19H17+
246.1012	5	C18H14O+
246.1356	5	C19H18+
247.1108	69	C18H15O+
248.1153	23	C17[13]CH15O+
249.0909	24	C17H13O2+
249.1268	110	C18H17O+
250.0929	5	C16[13]CH13O2+
250.1313	17	C17[13]CH17O+
251.105	134	C17H15O2+
251.1416	101	C18H19O+
252.109	28	C16[13]CH15O2+
252.1467	26	C17[13]CH19O+
253.1214	430	C17H17O2+
254.1248	83	C16[13]CH17O2+
255.1162	27	C14H17F2O2+
255.1363	30	C17H19O2+
256.1229	7	C13[13]CH17F2O2+
256.1389	9	C16[13]CH19O2+
257.0957	7	C19H13O+
257.1331	26	C14H19F2O2+
258.1018	9	C19H14O+
258.1383	5	C13[13]CH19F2O2+
259.1114	54	C19H15O+
260.1162	25	C19H16O+
261.1264	226	C19H17O+
262.0945	6	C18H14O2+
262.1304	52	C18[13]CH17O+
263.1053	62	C18H15O2+
263.1421	109	C19H19O+
264.1107	16	C17[13]CH15O2+
264.1457	24	C18[13]CH19O+
265.1216	67	C18H17O2+
266.1243	20	C17[13]CH17O2+
267.1027	22	C14H16FO4+
267.1366	58	C15H20FO3+
268.1429	8	C14[13]CH20FO3+
269.0974	7	C17H14FO2+
269.1146	16	C18H15F2+
269.1293	19	C21H17+
269.153	16	C18H21O2+
270.121	5	C18H16F2+
271.1116	16	C20H15O+
271.1491	17	C18H20FO+
272.1127	6	C10H18F2O6+
273.1272	159	C20H17O+
274.1299	33	C19[13]CH17O+
275.1061	32	C19H15O2+
275.1429	23	C20H19O+
276.1128	26	C19H16O2+
276.1489	8	C20H20O+
277.1212	213	C19H17O2+
277.1575	20	C20H21O+
278.1266	59	C18[13]CH17O2+
278.1621	6	C19[13]CH21O+
279.1366	339	C19H19O2+
279.1718	31	C20H23O+
280.1399	66	C18[13]CH19O2+
281.1336	85	C22H17+
281.1511	86	C19H21O2+
282.1324	22	C21[13]CH17+
282.1557	17	C18[13]CH21O2+
283.111	10	C21H15O+
283.1476	20	C22H19+
285.1291	13	C18H18FO2+
287.1065	9	C20H15O2+
287.1427	13	C21H19O+
288.1129	5	C20H16O2+
289.1216	70	C17H18FO3+
289.1571	8	C21H21O+
290.1274	15	C16[13]CH18FO3+
291.1374	352	C20H19O2+
291.1745	19	C21H23O+
292.1412	80	C19[13]CH19O2+
293.1182	68	C20H15F2+
294.1235	25	C19[13]CH15F2+
295.1327	162	C19H19O3+
296.1363	36	C18[13]CH19O3+
296.1719	6	C20H24O2+
297.131	43	C22H17O+
297.1463	69	C20H19F2+
297.1846	11	C20H25O2+
298.1324	17	C21[13]CH17O+
298.1507	15	C19[13]CH19F2+
299.1432	120	C22H19O+
300.1458	21	C21[13]CH19O+
301.1227	122	C21H17O2+
301.1531	18	C22H21O+
302.1259	24	C20[13]CH17O2+
303.1189	7	C18H17F2O2+
303.1364	5	C21H19O2+
304.1122	14	C14H18F2O5+
305.1243	9	C14H19F2O5+
307.132	103	C20H19O3+
307.1688	8	C21H23O2+
308.1354	27	C19[13]CH19O3+
309.1475	283	C21H19F2+
310.1506	67	C20[13]CH19F2+
310.1902	5	C21H26O2+
311.1434	87	C23H19O+
312.1469	15	C22[13]CH19O+
313.1205	14	C22H17O2+
313.1411	19	C19H21O4+
314.149	5	C18[13]CH21O4+
315.138	29	C22H19O2+
316.141	5	C21[13]CH19O2+
317.1371	24	C18H21O5+
319.1325	458	C21H19O3+
320.1364	102	C20[13]CH19O3+
321.1287	49	C18H19F2O3+
321.1592	7	C22H22FO+
322.1336	11	C17[13]CH19F2O3+
323.1367	6	C24H19O+
325.1441	28	C14H23F2O6+
325.1802	7	C21H25O3+
326.1508	7	C13[13]CH23F2O6+
327.1414	29	C17H21F2O4+
327.1562	63	C21H21F2O+
327.1972	8	C15H29F2O5+
328.1611	21	C20[13]CH21F2O+
329.155	99	C23H21O2+
330.1568	18	C22[13]CH21O2+
331.1512	51	C20H21F2O2+
332.1553	10	C19[13]CH21F2O2+
333.1291	8	C19H19F2O3+
335.1418	10	C22H20FO2+
337.1431	999	C21H21O4+
337.1779	52	C23H23F2+
338.1474	230	C20[13]CH21O4+
338.1805	17	C22[13]CH23F2+
339.1396	194	C24H19O2+
340.1423	50	C23[13]CH19O2+
341.1379	23	C20H21O5+
342.1409	6	C19[13]CH21O5+
345.1503	22	C23H21O3+
346.1529	7	C22[13]CH21O3+
347.164	41	C17H25F2O5+
348.1703	11	C16[13]CH25F2O5+
349.1611	46	C23H22FO2+
350.1641	10	C22[13]CH22FO2+
351.1729	5	C23H24FO2+
353.139	7	C18H22FO6+
355.1541	581	C21H23O5+
355.1886	82	C23H25F2O+
356.1564	144	C20[13]CH23O5+
356.1914	18	C22[13]CH25F2O+
357.1499	319	C21H22FO4+
358.1535	88	C20[13]CH22FO4+
359.1467	83	C21H21F2O3+
360.1489	17	C20[13]CH21F2O3+
361.1443	19	C20H22FO5+
365.1557	40	C23H22FO3+
366.1561	8	C22[13]CH22FO3+
367.175	14	C20H25F2O4+
373.201	10	C22H29O5+
374.2042	6	C23H28F2O2+
375.1593	267	C18H25F2O6+
375.1953	64	C22H28FO4+
376.165	63	C17[13]CH25F2O6+
376.1935	14	C21[13]CH28FO4+
377.1556	129	C24H22FO3+
378.1606	31	C23[13]CH22FO3+
379.1565	5	C22[13]C2H22FO3+
381.1507	10	C20H23F2O5+
387.1979	8	C20H29F2O5+
393.2074	143	C22H30FO5+
394.2113	44	C21[13]CH30FO5+
395.1706	50	C21H25F2O5+
396.1781	13	C20[13]CH25F2O5+
397.1882	6	C21H27F2O5+
413.1954	763	C24H29O6+
414.199	215	C23[13]CH29O6+
415.1916	254	C24H28FO5+
416.1948	70	C23[13]CH28FO5+
417.1977	9	C22[13]C2H28FO5+
433.2014	388	C24H30FO6+
434.2044	109	C23[13]CH30FO6+
435.2036	32	C24H29F2O5+
436.1998	13	C24H30F2O5+
453.2078	337	C24H31F2O6+
454.2119	104	C23[13]CH31F2O6+
