Mass spectrum: Nonanal; GC-APCI-QTOF; MS2; CE: 10 eV; R=35000; [M+H]+
Name: Nonanal
Formula: C9H18O
Exact mass: 142.1358
SMILES: CCCCCCCCC=O
InChI: InChI=1S/C9H18O/c1-2-3-4-5-6-7-8-9-10/h9H,2-8H2,1H3
Instrument: Bruker 450 GC coupled to maXis Impact
Instrument type: GC-APCI-QTOF
Ms type: MS2
Ion mode: POSITIVE
Ionization: APCI
Fragmentation mode: CID
Collision energy: 10 eV
Resolution: 35000
Column name: Rxi-5Sil MS column, 30m, 0.25mm i.d., 0.25Âµm film thickness, Restek
Retention time: 8.507 min
Base peak: 263.988
Precursor m/z: 143.143
Precursor type: [M+H]+
m/z	relative intensity	assigned
57.0702	724	C4H9+
69.0695	999	C5H9+
