Mass spectrum: ZON; LC-ESI-QTOF; MS2; CE: 30 eV; R=35000; [M+H]+
Name: ZON
Name: 15,17-Dihydroxy-11-methyl-12-oxabicyclo[12.4.0]octadeca-1(14),2,15,17-tetraene-7,13-dione
Name: 16,18-dihydroxy-4-methyl-3-oxabicyclo[12.4.0]octadeca-1(14),12,15,17-tetraene-2,8-dione
Class: Natural Product; Fungal metabolite
Formula: C18H22O5
Exact mass: 318.1467
SMILES: CC1CCCC(=O)CCCC=CC2=C(C(=CC(=C2)O)O)C(=O)O1
InChI: InChI=1S/C18H22O5/c1-12-6-5-9-14(19)8-4-2-3-7-13-10-15(20)11-16(21)17(13)18(22)23-12/h3,7,10-12,20-21H,2,4-6,8-9H2,1H3
Instrument: Bruker maXis Impact
Instrument type: LC-ESI-QTOF
Ms type: MS2
Ion mode: POSITIVE
Ionization: ESI
Fragmentation mode: CID
Collision energy: 30 eV
Resolution: 35000
Column name: Acclaim RSLC C18 2.2um, 2.1x100mm, Thermo
Retention time: 9.895 min
Base peak: 319.1533
Precursor m/z: 319.154
Precursor type: [M+H]+
m/z	relative intensity	assigned
128.0602	46	C10H8+
129.0699	55	C10H9+
131.0852	72	C10H11+
141.0696	76	C11H9+
145.0656	35	C10H9O+
147.0431	70	C9H7O2+
147.0822	36	C10H11O+
157.064	317	C11H9O+
159.081	35	C11H11O+
161.0585	108	C10H9O2+
163.0394	64	C9H7O3+
165.0175	64	C8H5O4+
169.0649	132	C12H9O+
173.0593	51	C11H9O2+
175.0393	166	C10H7O3+
175.0749	184	C11H11O2+
177.0532	107	C10H9O3+
177.0918	75	C11H13O2+
185.0594	921	C12H9O2+
187.075	999	C12H11O2+
188.0786	120	C12H12O2+
189.0548	337	C11H9O3+
190.0596	49	C11H10O3+
197.0595	58	C13H9O2+
199.0742	111	C13H11O2+
201.09	78	C13H13O2+
203.0699	786	C12H11O3+
204.0731	146	C12H12O3+
205.0471	61	C11H9O4+
205.0857	110	C12H13O3+
211.0744	55	C14H11O2+
213.0544	96	C13H9O3+
213.0908	94	C14H13O2+
214.0631	42	C13H10O3+
215.0699	97	C13H11O3+
217.0854	36	C13H13O3+
219.1727	51	C15H23O+
227.0708	64	C14H11O3+
229.0848	148	C14H13O3+
231.0634	65	C13H11O4+
241.0855	135	C15H13O3+
250.0964	40	C17H14O2+
265.121	61	C18H17O2+
283.1318	45	C18H19O3+
