Mass spectrum: Butyl methacrylate; GC-APCI-QTOF; MS2; CE: 30 eV; R=35000; [M]+
Name: Butyl methacrylate
Formula: C8H14O2
Exact mass: 142.0994
SMILES: CCCCOC(=O)C(=C)C
InChI: InChI=1S/C8H14O2/c1-4-5-6-10-8(9)7(2)3/h2,4-6H2,1,3H3
Instrument: Bruker 450 GC coupled to maXis Impact
Instrument type: GC-APCI-QTOF
Ms type: MS2
Ion mode: POSITIVE
Ionization: APCI
Fragmentation mode: CID
Collision energy: 30 eV
Resolution: 35000
Column name: Rxi-5Sil MS column, 30m, 0.25mm i.d., 0.25Âµm film thickness, Restek
Retention time: 7.079 min
Base peak: 142.1001
Precursor m/z: 142.0988
Precursor type: [M]+
m/z	relative intensity	assigned
59.0506	999	C3H7O+
