Mass spectrum: Perfluorotetradecanoic acid; LC-ESI-QTOF; MS2; CE: 40 eV; R=35000; [M-H]-
Name: Perfluorotetradecanoic acid
Name: Perfluoromyristic acid
Name: 2,2,3,3,4,4,5,5,6,6,7,7,8,8,9,9,10,10,11,11,12,12,13,13,14,14,14-heptacosafluorotetradecanoic acid
Formula: C14HF27O2
Exact mass: 713.9545412
SMILES: OC(=O)C(F)(F)C(F)(F)C(F)(F)C(F)(F)C(F)(F)C(F)(F)C(F)(F)C(F)(F)C(F)(F)C(F)(F)C(F)(F)C(F)(F)C(F)(F)F
InChI: InChI=1S/C14HF27O2/c15-2(16,1(42)43)3(17,18)4(19,20)5(21,22)6(23,24)7(25,26)8(27,28)9(29,30)10(31,32)11(33,34)12(35,36)13(37,38)14(39,40)41/h(H,42,43)
Instrument: Bruker maXis Impact
Instrument type: LC-ESI-QTOF
Ms type: MS2
Ion mode: NEGATIVE
Ionization: ESI
Fragmentation mode: CID
Collision energy: 40 eV
Resolution: 35000
Column name: Acclaim RSLC C18 2.2um, 2.1x100mm, Thermo
Retention time: 12.851 min
Base peak: 712.9476
Precursor m/z: 712.9473
Precursor type: [M-H]-
m/z	relative intensity	assigned
118.9931	41	C2F5-
168.9897	999	C3F7-
169.9914	27	C2[13]CF7-
196.9852	28	C9F3O2-
218.9854	417	C4F9-
268.9827	179	C5F11-
318.9762	118	C6F13-
368.9749	52	C7F15-
418.9721	24	C8F17-
