Mass spectrum: Dibutyl phthalate; GC-APCI-QTOF; MS2; CE: 30 eV; R=35000; [M+H]+
Name: Dibutyl phthalate
Formula: C16H22O4
Exact mass: 278.1518
SMILES: CCCCOC(=O)C1=CC=CC=C1C(=O)OCCCC
InChI: InChI=1S/C16H22O4/c1-3-5-11-19-15(17)13-9-7-8-10-14(13)16(18)20-12-6-4-2/h7-10H,3-6,11-12H2,1-2H3
Instrument: Bruker 450 GC coupled to maXis Impact
Instrument type: GC-APCI-QTOF
Ms type: MS2
Ion mode: POSITIVE
Ionization: APCI
Fragmentation mode: CID
Collision energy: 30 eV
Resolution: 35000
Column name: Rxi-5Sil MS column, 30m, 0.25mm i.d., 0.25Âµm film thickness, Restek
Retention time: 17.572 min
Base peak: 149.0252
Precursor m/z: 279.1591
Precursor type: [M+H]+
m/z	relative intensity	assigned
55.055	30	C4H7+
67.0555	15	C5H7+
69.0685	19	C5H9+
81.071	17	C6H9+
91.0532	7	C7H7+
93.0681	7	C7H9+
95.0836	22	C7H11+
109.0997	18	C8H13+
119.0854	46	C9H11+
121.0297	32	C7H5O2+
121.1018	29	C9H13+
123.0813	18	C8H11O+
123.1165	32	C9H15+
127.0773	9	C7H11O2+
131.0877	7	C10H11+
133.1017	82	C10H13+
135.117	37	C10H15+
137.0978	24	C9H13O+
137.1349	16	C10H17+
149.0255	999	C8H5O3+
150.0289	87	C8H6O3+
151.1146	20	C10H15O+
153.1283	9	C10H17O+
161.1355	36	C12H17+
161.1536	7	C9H21O2+
163.1505	10	C12H19+
167.036	13	C8H7O4+
175.1499	7	C13H19+
191.1815	7	C14H23+
