Mass spectrum: Diflubenzuron; LC-ESI-QTOF; MS2; CE: 20 eV; R=35000; [M-H]-
Name: Diflubenzuron
Name: N-[(4-chlorophenyl)carbamoyl]-2,6-difluorobenzamide
Formula: C14H9ClF2N2O2
Exact mass: 310.0320616
SMILES: FC1=CC=CC(F)=C1C(=O)NC(=O)NC1=CC=C(Cl)C=C1
InChI: InChI=1S/C14H9ClF2N2O2/c15-8-4-6-9(7-5-8)18-14(21)19-13(20)12-10(16)2-1-3-11(12)17/h1-7H,(H2,18,19,20,21)
Instrument: Bruker maXis Impact
Instrument type: LC-ESI-QTOF
Ms type: MS2
Ion mode: NEGATIVE
Ionization: ESI
Fragmentation mode: CID
Collision energy: 20 eV
Resolution: 35000
Column name: Acclaim RSLC C18 2.2um, 2.1x100mm, Thermo
Retention time: 10.578 min
Base peak: 309.0243
Precursor m/z: 309.0248
Precursor type: [M-H]-
m/z	relative intensity	assigned
126.0108	253	C9H2O-
151.0062	999	C7H4ClN2-
153.0035	314	C7H4[37]ClN2-
156.0304	179	C9H4N2O-
