Mass spectrum: Flusilazole; LC-ESI-QTOF; MS2; CE: 20 eV; R=35000; [M+H]+
Name: Flusilazole
Name: bis(4-fluorophenyl)-methyl-(1,2,4-triazol-1-ylmethyl)silane
Formula: C16H15F2N3Si
Exact mass: 315.1003305
SMILES: C[Si](CN1C=NC=N1)(C1=CC=C(F)C=C1)C1=CC=C(F)C=C1
InChI: InChI=1S/C16H15F2N3Si/c1-22(12-21-11-19-10-20-21,15-6-2-13(17)3-7-15)16-8-4-14(18)5-9-16/h2-11H,12H2,1H3
Instrument: Bruker maXis Impact
Instrument type: LC-ESI-QTOF
Ms type: MS2
Ion mode: POSITIVE
Ionization: ESI
Fragmentation mode: CID
Collision energy: 20 eV
Resolution: 35000
Column name: Acclaim RSLC C18 2.2um, 2.1x100mm, Thermo
Retention time: 12.022 min
Base peak: 252.1417
Precursor m/z: 316.1076
Precursor type: [M+H]+
m/z	relative intensity	assigned
166.096	999	C7H16F2Si+
186.0524	434	C8H10F2NSi+
187.0599	716	C8H11F2NSi+
272.1046	570	C14H15FN3Si+
316.106	507	C16H16F2N3Si+
