Mass spectrum: 3,4-Dichlorophenylurea; LC-ESI-QTOF; MS2; CE: 20 eV; R=35000; [M+H]+
Name: 3,4-Dichlorophenylurea
Name: 1-(3,4-Dichlorophenyl)urea
Name: (3,4-dichlorophenyl)urea
Formula: C7H6Cl2N2O
Exact mass: 203.9857182
SMILES: NC(=O)NC1=CC(Cl)=C(Cl)C=C1
InChI: InChI=1S/C7H6Cl2N2O/c8-5-2-1-4(3-6(5)9)11-7(10)12/h1-3H,(H3,10,11,12)
Instrument: Bruker maXis Impact
Instrument type: LC-ESI-QTOF
Ms type: MS2
Ion mode: POSITIVE
Ionization: ESI
Fragmentation mode: CID
Collision energy: 20 eV
Resolution: 35000
Column name: Acclaim RSLC C18 2.2um, 2.1x100mm, Thermo
Retention time: 7.945 min
Base peak: 204.9925
Precursor m/z: 204.993
Precursor type: [M+H]+
m/z	relative intensity	assigned
127.0174	999	C6H6ClN+
128.0211	76	C5[13]CH6ClN+
129.0141	247	C6H6[37]ClN+
159.9702	180	C6H4Cl2N+
161.9665	113	C6H4Cl[37]ClN+
161.986	602	C6H6Cl2N+
162.9903	58	C5[13]CH6Cl2N+
163.9829	370	C6H6Cl[37]ClN+
164.9854	15	C7H2ClN2O+
187.9663	83	C7H4Cl2NO+
189.9623	49	C7H4Cl[37]ClNO+
204.9922	202	C7H7Cl2N2O+
205.9959	16	C6[13]CH7Cl2N2O+
206.9896	136	C7H7Cl[37]ClN2O+
