Mass spectrum: Genistein; LC-ESI-QTOF; MS2; CE: Ramp 20-30 eV; R=35000; [M+H]+
Name: Genistein
Name: 5,7-dihydroxy-3-(4-hydroxyphenyl)chromen-4-one
Formula: C15H10O5
Exact mass: 270.0528234
SMILES: OC1=CC=C(C=C1)C1=COC2=CC(O)=CC(O)=C2C1=O
InChI: InChI=1S/C15H10O5/c16-9-3-1-8(2-4-9)11-7-20-13-6-10(17)5-12(18)14(13)15(11)19/h1-7,16-18H
Instrument: Bruker maXis Impact
Instrument type: LC-ESI-QTOF
Ms type: MS2
Ion mode: POSITIVE
Ionization: ESI
Fragmentation mode: CID
Collision energy: Ramp 20-30 eV
Resolution: 35000
Column name: Acclaim RSLC C18 2.2um, 2.1x100mm, Thermo
Retention time: 7.691 min
Base peak: 102.1289
Precursor m/z: 271.0601
Precursor type: [M+H]+
m/z	relative intensity	assigned
119.0483	7	C8H7O+
131.048	9	C9H7O+
145.0258	11	C9H5O2+
149.0228	28	C8H5O3+
153.0175	77	C7H5O4+
159.043	12	C10H7O2+
169.0632	12	C12H9O+
173.0586	11	C11H9O2+
187.0346	6	C11H7O3+
197.0604	18	C13H9O2+
201.0552	8	C12H9O3+
215.07	97	C13H11O3+
216.0728	17	C12[13]CH11O3+
225.0567	7	C14H9O3+
243.0649	66	C14H11O4+
244.0663	16	C13[13]CH11O4+
253.0476	30	C15H9O4+
254.0526	8	C15H10O4+
271.0598	999	C15H11O5+
272.0632	133	C14[13]CH11O5+
