Mass spectrum: Acesulfame; LC-ESI-QTOF; MS2; CE: Ramp 18.5-27.7 eV; R=35000; [M-H]-
Name: Acesulfame
Name: 6-methyl-2,2-dioxooxathiazin-4-one
Formula: C4H5NO4S
Exact mass: 162.9939286
SMILES: CC1=CC(=O)NS(=O)(=O)O1
InChI: InChI=1S/C4H5NO4S/c1-3-2-4(6)5-10(7,8)9-3/h2H,1H3,(H,5,6)
Instrument: Bruker maXis Impact
Instrument type: LC-ESI-QTOF
Ms type: MS2
Ion mode: NEGATIVE
Ionization: ESI
Fragmentation mode: CID
Collision energy: Ramp 18.5-27.7 eV
Resolution: 35000
Column name: Acclaim RSLC C18 2.2um, 2.1x100mm, Thermo
Retention time: 2.342 min
Base peak: 59.013
Precursor m/z: 161.9867
Precursor type: [M-H]-
m/z	relative intensity	assigned
82.0288	999	C4H4NO-
