Mass spectrum: Simetryn; LC-ESI-QTOF; MS2; CE: 40 eV; R=35000; [M+H]+
Name: Simetryn
Name: 2-N,4-N-diethyl-6-methylsulfanyl-1,3,5-triazine-2,4-diamine
Formula: C8H15N5S
Exact mass: 213.1048165
SMILES: CCNC1=NC(SC)=NC(NCC)=N1
InChI: InChI=1S/C8H15N5S/c1-4-9-6-11-7(10-5-2)13-8(12-6)14-3/h4-5H2,1-3H3,(H2,9,10,11,12,13)
Instrument: Bruker maXis Impact
Instrument type: LC-ESI-QTOF
Ms type: MS2
Ion mode: POSITIVE
Ionization: ESI
Fragmentation mode: CID
Collision energy: 40 eV
Resolution: 35000
Column name: Acclaim RSLC C18 2.2um, 2.1x100mm, Thermo
Retention time: 8.142 min
Base peak: 214.1121
Precursor m/z: 214.1121
Precursor type: [M+H]+
m/z	relative intensity	assigned
113.0813	20	C4H9N4+
116.0264	731	C6H2N3+
117.0295	54	C5[13]CH2N3+
124.0857	705	C6H10N3+
125.0888	61	C5[13]CH10N3+
128.0266	33	C4H6N3S+
138.0757	329	C5H8N5+
141.0209	51	C7HN4+
141.1111	37	C6H13N4+
143.0235	30	C6HN5+
144.0573	999	C5H10N3S+
145.06	59	C4[13]CH10N3S+
146.0526	55	C5H10N3[34]S+
153.0994	19	C6H11N5+
155.0377	45	C5H7N4S+
156.0328	25	C4H6N5S+
156.0433	22	C8H4N4+
158.0479	113	C4H8N5S+
166.1072	281	C7H12N5+
167.1104	33	C6[13]CH12N5+
170.0474	61	C8H4N5+
171.0557	30	C5H9N5S+
184.0626	55	C6H10N5S+
186.0799	190	C6H12N5S+
198.0788	54	C7H12N5S+
212.0929	19	C8H14N5S+
214.1111	198	C8H16N5S+
215.1131	29	C7[13]CH16N5S+
