Mass spectrum: 7-(Ethylamino)-4-methylcoumarin; LC-ESI-QTOF; MS2; CE: 30 eV; R=35000; [M+H]+
Name: 7-(Ethylamino)-4-methylcoumarin
Name: 2H-1-Benzopyran-2-one, 7-(ethylamino)-4-methyl-
Name: 7-(ethylamino)-4-methylchromen-2-one
Formula: C12H13NO2
Exact mass: 203.0946287
SMILES: CCNC1=CC=C2C(C)=CC(=O)OC2=C1
InChI: InChI=1S/C12H13NO2/c1-3-13-9-4-5-10-8(2)6-12(14)15-11(10)7-9/h4-7,13H,3H2,1-2H3
Instrument: Bruker maXis Impact
Instrument type: LC-ESI-QTOF
Ms type: MS2
Ion mode: POSITIVE
Ionization: ESI
Fragmentation mode: CID
Collision energy: 30 eV
Resolution: 35000
Column name: Acclaim RSLC C18 2.2um, 2.1x100mm, Thermo
Retention time: 7.707 min
Base peak: 391.2289
Precursor m/z: 204.1019
Precursor type: [M+H]+
m/z	relative intensity	assigned
115.0538	64	C9H7+
118.0648	153	C8H8N+
119.0723	79	C8H9N+
120.0818	171	C8H10N+
130.0649	459	C9H8N+
131.073	120	C9H9N+
132.0803	258	C9H10N+
133.0868	101	C9H11N+
134.0965	63	C9H12N+
143.0757	56	C10H9N+
144.0789	358	C10H10N+
145.0863	74	C10H11N+
146.0589	406	C9H8NO+
146.0952	66	C10H12N+
147.067	171	C9H9NO+
148.0514	89	C9H8O2+
148.0739	92	C9H10NO+
148.1112	992	C10H14N+
149.1136	174	C9[13]CH14N+
158.0959	117	C11H12N+
160.0509	113	C10H8O2+
160.0751	86	C10H10NO+
160.1114	148	C11H14N+
161.082	175	C10H11NO+
162.0885	55	C10H12NO+
164.0702	83	C9H10NO2+
175.0619	270	C10H9NO2+
176.0689	59	C9[13]CH9NO2+
176.1063	196	C11H14NO+
189.0763	208	C11H11NO2+
204.1013	999	C12H14NO2+
205.1032	162	C11[13]CH14NO2+
