Mass spectrum: N,N-Dimethyl-N'-phenylsulfamide; LC-ESI-QTOF; MS2; CE: 20 eV; R=35000; [M-H]-
Name: N,N-Dimethyl-N'-phenylsulfamide
Name: (dimethylsulfamoylamino)benzene
Formula: C8H12N2O2S
Exact mass: 200.0619486
SMILES: CN(C)S(=O)(=O)NC1=CC=CC=C1
InChI: InChI=1S/C8H12N2O2S/c1-10(2)13(11,12)9-8-6-4-3-5-7-8/h3-7,9H,1-2H3
Instrument: Bruker maXis Impact
Instrument type: LC-ESI-QTOF
Ms type: MS2
Ion mode: NEGATIVE
Ionization: ESI
Fragmentation mode: CID
Collision energy: 20 eV
Resolution: 35000
Column name: Acclaim RSLC C18 2.2um, 2.1x100mm, Thermo
Retention time: 6.103 min
Base peak: 199.054
Precursor m/z: 199.0547
Precursor type: [M-H]-
m/z	relative intensity	assigned
155.0043	999	C6H5NO2S-
199.0536	864	C8H11N2O2S-
