Mass spectrum: Tris(1-chloro-2-propyl)phosphate; LC-ESI-QTOF; MS2; CE: 30 eV; R=35000; [M+H]+
Name: Tris(1-chloro-2-propyl)phosphate
Name: Tris(1-chloro-2-propyl) phosphate
Name: tris(1-chloropropan-2-yl) phosphate
Formula: C9H18Cl3O4P
Exact mass: 326.0008287
SMILES: CC(CCl)OP(=O)(OC(C)CCl)OC(C)CCl
InChI: InChI=1S/C9H18Cl3O4P/c1-7(4-10)14-17(13,15-8(2)5-11)16-9(3)6-12/h7-9H,4-6H2,1-3H3
Instrument: Bruker maXis Impact
Instrument type: LC-ESI-QTOF
Ms type: MS2
Ion mode: POSITIVE
Ionization: ESI
Fragmentation mode: CID
Collision energy: 30 eV
Resolution: 35000
Column name: Acclaim RSLC C18 2.2um, 2.1x100mm, Thermo
Retention time: 11.019 min
Base peak: 327.0773
Precursor m/z: 327.0081
Precursor type: [M+H]+
m/z	relative intensity	assigned
138.9952	10	C7H4ClO+
141.0686	7	C5H14ClO2+
150.0458	9	C6H11ClO2+
151.0543	17	C6H12ClO2+
152.0609	545	C6H13ClO2+
153.0687	748	C6H14ClO2+
154.0725	97	C5H15O3P+
155.0596	8	C2H17ClO3P+
157.0046	7	C6H6O3P+
168.0564	62	C6H13ClO3+
169.0627	72	C6H14ClO3+
170.0696	24	C5H15O4P+
171.0794	97	C6H16ClO3+
172.0845	12	C5H17O4P+
175.0145	59	C6H8O4P+
179.0593	30	C4H17ClO3P+
180.0626	7	C5H19Cl2P+
181.0749	13	C4H19ClO3P+
187.0293	16	C6H13Cl2O2+
202.0752	22	C9H15O3P+
203.0833	11	C9H16O3P+
205.042	7	C6H15Cl2O3+
215.0244	221	C7H13Cl2O3+
216.0305	46	C6H14ClO4P+
233.0355	999	C7H15Cl2O4+
234.0381	146	C8H17Cl3O+
235.0396	16	C7[13]CH17Cl3O+
252.0486	100	C8H19Cl3O2+
253.0532	13	C7[13]CH19Cl3O2+
