Mass spectrum: Perfluorohexylperfluorooctylphosphinate (6:8PFPi); LC-ESI-QTOF; MS2; CE: 31.9-47.8 eV; R=35000; [M-H]-
Name: Perfluorohexylperfluorooctylphosphinate (6:8PFPi)
Formula: C14HF30O2P
Exact mass: 801.9235
SMILES: C(C(C(C(C(F)(F)P(=O)(C(C(C(C(C(C(F)(F)F)(F)F)(F)F)(F)F)(F)F)(F)F)O)(F)F)(F)F)(F)F)(C(C(C(F)(F)F)(F)F)(F)F)(F)F
InChI: InChI=1S/C14HF30O2P/c15-1(16,3(19,20)7(27,28)11(35,36)37)2(17,18)5(23,24)9(31,32)13(41,42)47(45,46)14(43,44)10(33,34)6(25,26)4(21,22)8(29,30)12(38,39)40/h(H,45,46)
Instrument: Bruker maXis Impact
Instrument type: LC-ESI-QTOF
Ms type: MS2
Ionization: ESI
Fragmentation mode: CID
Collision energy: 31.9-47.8 eV
Resolution: 35000
Column name: Acclaim RSLC C18 2.2um, 2.1x100mm, Thermo
Retention time: 12.808 min
Base peak: 800.913
Precursor m/z: 800.9162
Precursor type: [M-H]-
m/z	relative intensity	assigned
62.9632	7	O2P-
400.9406	14	CF18OP-
500.9306	13	C3F22OP-
800.9122	999	C14F30O2P-
