Mass spectrum: 2,2`-Methylenebis(6-tert-butyl-p-cresol); GC-APCI-QTOF; MS2; CE: 40 eV; R=35000; [M]+
Name: 2,2`-Methylenebis(6-tert-butyl-p-cresol)
Formula: C23H32O2
Exact mass: 340.2402
SMILES: CC1=CC(=C(C(=C1)C(C)(C)C)O)CC2=C(C(=CC(=C2)C)C(C)(C)C)O
InChI: InChI=1S/C23H32O2/c1-14-9-16(20(24)18(11-14)22(3,4)5)13-17-10-15(2)12-19(21(17)25)23(6,7)8/h9-12,24-25H,13H2,1-8H3
Instrument: Bruker 450 GC coupled to maXis Impact
Instrument type: GC-APCI-QTOF
Ms type: MS2
Ion mode: POSITIVE
Ionization: APCI
Fragmentation mode: CID
Collision energy: 40 eV
Resolution: 35000
Column name: Rxi-5Sil MS column, 30m, 0.25mm i.d., 0.25Âµm film thickness, Restek
Retention time: 19.974 min
Base peak: 309.2769
Precursor m/z: 340.2397
Precursor type: [M]+
m/z	relative intensity	assigned
53.0391	26	C4H5+
55.019	125	C3H3O+
55.0551	999	C4H7+
57.0707	222	C4H9+
59.0504	24	C3H7O+
60.0217	23	C2H4O2+
61.0288	45	C2H5O2+
65.0393	29	C5H5+
67.0547	477	C5H7+
68.0608	78	C5H8+
69.0329	46	C4H5O+
69.07	372	C5H9+
70.0424	22	C4H6O+
71.0495	41	C4H7O+
71.0856	79	C5H11+
73.0282	27	C3H5O2+
79.0541	264	C6H7+
80.0609	22	C6H8+
81.0699	326	C6H9+
82.0764	22	C6H10+
83.0483	66	C5H7O+
83.0863	137	C6H11+
84.0561	17	C5H8O+
87.0429	19	C4H7O2+
91.0541	70	C7H7+
93.0694	104	C7H9+
95.05	28	C6H7O+
95.0851	188	C7H11+
97.1	95	C7H13+
105.0682	27	C8H9+
107.0845	73	C8H11+
109.101	107	C8H13+
113.0594	17	C6H9O2+
117.0693	36	C9H9+
119.0861	190	C9H11+
121.0656	30	C8H9O+
121.1002	147	C9H13+
123.0809	95	C8H11O+
123.1176	55	C9H15+
125.0606	20	C7H9O2+
125.0958	67	C8H13O+
127.0748	33	C7H11O2+
129.0701	39	C10H9+
131.0855	87	C10H11+
133.0678	19	C9H9O+
133.102	151	C10H13+
135.0812	56	C9H11O+
135.117	157	C10H15+
136.0899	90	C9H12O+
137.0965	156	C9H13O+
138.101	28	C9H14O+
139.1128	40	C9H15O+
143.1088	17	C8H15O2+
145.1036	65	C11H13+
147.0829	38	C10H11O+
147.1203	84	C11H15+
149.134	71	C11H17+
150.1076	24	C10H14O+
151.1154	28	C10H15O+
155.1086	23	C9H15O2+
159.1206	35	C12H15+
160.1217	18	C12H16+
163.1152	20	C11H15O+
174.1364	21	C13H18+
195.1349	17	C12H19O2+
