Mass spectrum: Bifonazol; LC-ESI-QTOF; MS2; CE: 10 eV; R=35000; [M+H]+
Name: Bifonazol
Name: Bifonazole
Name: 1-[phenyl-(4-phenylphenyl)methyl]imidazole
Formula: C22H18N2
Exact mass: 310.1469986
SMILES: C1=CN(C=N1)C(C1=CC=CC=C1)C1=CC=C(C=C1)C1=CC=CC=C1
InChI: InChI=1S/C22H18N2/c1-3-7-18(8-4-1)19-11-13-21(14-12-19)22(24-16-15-23-17-24)20-9-5-2-6-10-20/h1-17,22H
Instrument: Bruker maXis Impact
Instrument type: LC-ESI-QTOF
Ms type: MS2
Ion mode: POSITIVE
Ionization: ESI
Fragmentation mode: CID
Collision energy: 10 eV
Resolution: 35000
Column name: Acclaim RSLC C18 2.2um, 2.1x100mm, Thermo
Retention time: 10.555 min
Base peak: 311.1542
Precursor m/z: 311.1543
Precursor type: [M+H]+
m/z	relative intensity	assigned
243.1172	999	C19H15+
244.1198	398	C19H16+
245.1232	23	C17[13]C2H15+
311.154	28	C22H19N2+
312.1571	7	C21[13]CH19N2+
