Mass spectrum: Phenylethylmalonamide; LC-ESI-QTOF; MS2; CE: 30 eV; R=35000; [M+H]+
Name: Phenylethylmalonamide
Name: 2-Ethyl-2-phenylmalonamide
Name: 2-ethyl-2-phenylpropanediamide
Formula: C11H14N2O2
Exact mass: 206.1055277
SMILES: CCC(C(N)=O)(C(N)=O)C1=CC=CC=C1
InChI: InChI=1S/C11H14N2O2/c1-2-11(9(12)14,10(13)15)8-6-4-3-5-7-8/h3-7H,2H2,1H3,(H2,12,14)(H2,13,15)
Instrument: Bruker maXis Impact
Instrument type: LC-ESI-QTOF
Ms type: MS2
Ion mode: POSITIVE
Ionization: ESI
Fragmentation mode: CID
Collision energy: 30 eV
Resolution: 35000
Column name: Acclaim RSLC C18 2.2um, 2.1x100mm, Thermo
Retention time: 4.211 min
Base peak: 146.0591
Precursor m/z: 207.1128
Precursor type: [M+H]+
m/z	relative intensity	assigned
115.0534	581	C9H7+
117.069	890	C9H9+
134.0955	999	C9H12N+
162.0902	916	C10H12NO+
