Mass spectrum: Simazine-2-Hydroxy; LC-ESI-QTOF; MS2; CE: Ramp 17.4-26.1 eV; R=35000; [M+H]+
Name: Simazine-2-Hydroxy
Name: CID 17448
Name: 2,6-bis(ethylamino)-1H-1,3,5-triazin-4-one
Formula: C7H13N5O
Exact mass: 183.1120100
SMILES: CCNC1=NC(NCC)=NC(O)=N1
InChI: InChI=1S/C7H13N5O/c1-3-8-5-10-6(9-4-2)12-7(13)11-5/h3-4H2,1-2H3,(H3,8,9,10,11,12,13)
Instrument: Bruker maXis Impact
Instrument type: LC-ESI-QTOF
Ms type: MS2
Ion mode: POSITIVE
Ionization: ESI
Fragmentation mode: CID
Collision energy: Ramp 17.4-26.1 eV
Resolution: 35000
Column name: Acclaim RSLC C18 2.2um, 2.1x100mm, Thermo
Retention time: 4.005 min
Base peak: 184.1188
Precursor m/z: 184.1193
Precursor type: [M+H]+
m/z	relative intensity	assigned
69.0077	34	C2HN2O+
71.061	14	C3H7N2+
97.0393	10	C4H5N2O+
114.0662	180	C4H8N3O+
124.0858	6	C6H10N3+
139.0624	6	C5H7N4O+
141.1106	7	C6H13N4+
156.0866	30	C5H10N5O+
167.0912	8	C7H11N4O+
184.1183	999	C7H14N5O+
185.1212	56	C6[13]CH14N5O+
