Mass spectrum: 7-Diethylamino-4-methylcoumarin; LC-ESI-QTOF; MS2; CE: 30 eV; R=35000; [M+H]+
Name: 7-Diethylamino-4-methylcoumarin
Name: 7-(diethylamino)-4-methylchromen-2-one
Formula: C14H17NO2
Exact mass: 231.1259288
SMILES: CCN(CC)C1=CC=C2C(C)=CC(=O)OC2=C1
InChI: InChI=1S/C14H17NO2/c1-4-15(5-2)11-6-7-12-10(3)8-14(16)17-13(12)9-11/h6-9H,4-5H2,1-3H3
Instrument: Bruker maXis Impact
Instrument type: LC-ESI-QTOF
Ms type: MS2
Ion mode: POSITIVE
Ionization: ESI
Fragmentation mode: CID
Collision energy: 30 eV
Resolution: 35000
Column name: Acclaim RSLC C18 2.2um, 2.1x100mm, Thermo
Retention time: 9.798 min
Base peak: 232.1325
Precursor m/z: 232.1332
Precursor type: [M+H]+
m/z	relative intensity	assigned
115.0549	21	C9H7+
117.0552	8	C8H7N+
117.0687	13	C9H9+
118.0627	14	C8H8N+
120.0782	5	C8H10N+
130.0642	16	C9H8N+
131.0479	15	C9H7O+
131.0715	15	C9H9N+
132.0559	19	C9H8O+
132.0798	81	C9H10N+
133.0626	7	C9H9O+
133.0858	6	C8[13]CH10N+
134.0588	7	C8H8NO+
134.0948	14	C9H12N+
143.0721	6	C10H9N+
144.0796	131	C10H10N+
145.0849	22	C9[13]CH10N+
146.0609	11	C9H8NO+
146.0953	32	C10H12N+
147.0702	6	C9H9NO+
147.1018	10	C10H13N+
148.0748	6	C9H10NO+
148.1116	26	C10H14N+
157.0856	7	C11H11N+
158.0961	38	C11H12N+
159.1034	28	C11H13N+
160.0518	13	C10H8O2+
160.0751	84	C10H10NO+
160.1109	42	C11H14N+
161.0581	11	C10H9O2+
161.0802	16	C10H11NO+
161.1181	22	C11H15N+
162.1256	10	C11H16N+
172.1114	41	C12H14N+
173.1197	20	C12H15N+
174.0662	27	C11H10O2+
174.0905	152	C11H12NO+
174.1265	9	C12H16N+
175.0668	6	C10H9NO2+
175.0969	58	C11H13NO+
176.1041	24	C11H14NO+
176.1424	233	C12H18N+
177.1455	42	C11[13]CH18N+
186.127	17	C13H16N+
188.0697	785	C11H10NO2+
188.1424	105	C13H18N+
189.0732	107	C10[13]CH10NO2+
189.114	31	C12H15NO+
189.146	13	C12[13]CH18N+
190.0748	8	C9[13]C2H10NO2+
190.1224	13	C12H16NO+
192.0416	6	C13H6NO+
192.1026	10	C11H14NO2+
202.0857	164	C12H12NO2+
202.1217	12	C13H16NO+
203.0925	82	C12H13NO2+
204.1006	56	C12H14NO2+
204.1375	93	C13H18NO+
205.1044	7	C11[13]CH14NO2+
205.1399	9	C12[13]CH18NO+
216.1006	44	C13H14NO2+
217.1075	35	C13H15NO2+
218.1106	6	C12[13]CH15NO2+
232.1326	999	C14H18NO2+
233.1355	173	C13[13]CH18NO2+
234.1391	14	C12[13]C2H18NO2+
