Mass spectrum: Metalaxyl; LC-ESI-QTOF; MS2; CE: Ramp 20.9-31.3 eV; R=35000; [M+H]+
Name: Metalaxyl
Name: methyl 2-(N-(2-methoxyacetyl)-2,6-dimethylanilino)propanoate
Formula: C15H21NO4
Exact mass: 279.1470582
SMILES: COCC(=O)N(C(C)C(=O)OC)C1=C(C)C=CC=C1C
InChI: InChI=1S/C15H21NO4/c1-10-7-6-8-11(2)14(10)16(13(17)9-19-4)12(3)15(18)20-5/h6-8,12H,9H2,1-5H3
Instrument: Bruker maXis Impact
Instrument type: LC-ESI-QTOF
Ms type: MS2
Ion mode: POSITIVE
Ionization: ESI
Fragmentation mode: CID
Collision energy: Ramp 20.9-31.3 eV
Resolution: 35000
Column name: Acclaim RSLC C18 2.2um, 2.1x100mm, Thermo
Retention time: 8.277 min
Base peak: 280.1549
Precursor m/z: 280.1543
Precursor type: [M+H]+
m/z	relative intensity	assigned
45.0339	36	C2H5O+
105.0705	5	C8H9+
121.0887	6	C8H11N+
130.0644	6	C9H8N+
131.0725	5	C9H9N+
132.0799	24	C9H10N+
133.0881	45	C9H11N+
134.0957	72	C9H12N+
135.1004	7	C8[13]CH12N+
144.0795	6	C10H10N+
145.0875	40	C10H11N+
146.095	50	C10H12N+
147.0994	5	C9[13]CH12N+
148.1113	143	C10H14N+
149.1147	15	C9[13]CH14N+
150.09	6	C9H12NO+
160.1112	673	C8H16O3+
161.1144	67	C7[13]CH16O3+
162.1264	111	C11H16N+
163.13	13	C10[13]CH16N+
165.1137	33	C10H15NO+
188.1056	9	C9H16O4+
192.1376	999	C12H18NO+
193.1409	115	C11[13]CH18NO+
194.143	7	C10[13]C2H18NO+
220.1328	663	C13H18NO2+
221.1361	84	C12[13]CH18NO2+
222.1382	6	C11[13]C2H18NO2+
248.1275	35	C14H18NO3+
280.153	6	C15H22NO4+
