Mass spectrum: Phenylphosphate; LC-ESI-QTOF; MS2; CE: 10 eV; R=35000; [M+H]+
Name: Phenylphosphate
Name: Phosphoric acid, monophenyl ester
Name: phenyl dihydrogen phosphate
Formula: C6H7O4P
Exact mass: 174.0081953
SMILES: OP(O)(=O)OC1=CC=CC=C1
InChI: InChI=1S/C6H7O4P/c7-11(8,9)10-6-4-2-1-3-5-6/h1-5H,(H2,7,8,9)
Instrument: Bruker maXis Impact
Instrument type: LC-ESI-QTOF
Ms type: MS2
Ion mode: POSITIVE
Ionization: ESI
Fragmentation mode: CID
Collision energy: 10 eV
Resolution: 35000
Column name: Acclaim RSLC C18 2.2um, 2.1x100mm, Thermo
Retention time: 2.853 min
Base peak: 139.1223
Precursor m/z: 175.0155
Precursor type: [M+H]+
m/z	relative intensity	assigned
175.0142	999	C6H8O4P+
