Mass spectrum: 2-Aminobenzothiazole; LC-ESI-QTOF; MS2; CE: RAMP 16.2-24.4 eV; R=35000; [M+H]+
Name: 2-Aminobenzothiazole
Name: 1,3-benzothiazol-2-amine
Formula: C7H6N2S
Exact mass: 150.0251692
SMILES: c1ccc2c(c1)nc(s2)N
InChI: InChI=1S/C7H6N2S/c8-7-9-5-3-1-2-4-6(5)10-7/h1-4H,(H2,8,9)
Instrument: Bruker maXis Impact
Instrument type: LC-ESI-QTOF
Ms type: MS2
Ion mode: POSITIVE
Ionization: ESI
Fragmentation mode: CID
Collision energy: RAMP 16.2-24.4 eV
Resolution: 35000
Column name: Acclaim RSLC C18 2.2um, 2.1x100mm, Thermo
Retention time: 6.018 min
Base peak: 151.0319
Precursor m/z: 151.0324
Precursor type: [M+H]+
m/z	relative intensity	assigned
65.0376	12	C5H5+
80.0485	14	C5H6N+
92.0489	66	C6H6N+
93.0551	6	C5[13]CH6N+
109.0116	119	C6H5S+
110.0146	6	C5[13]CH5S+
118.0517	14	C7H6N2+
124.0209	120	C6H6NS+
125.0238	7	C5[13]CH6NS+
151.032	999	C7H7N2S+
152.0342	82	C6[13]CH7N2S+
153.0274	39	C7H7N2[34]S+
