Mass spectrum: Ethyl 2-Cyano-3,3-diphenylacrylate; GC-APCI-QTOF; MS2; CE: 50 eV; R=35000; [M]+
Name: Ethyl 2-Cyano-3,3-diphenylacrylate
Formula: C18H15NO2
Exact mass: 277.1103
SMILES: CCOC(=O)C(=C(C1=CC=CC=C1)C2=CC=CC=C2)C#N
InChI: InChI=1S/C18H15NO2/c1-2-21-18(20)16(13-19)17(14-9-5-3-6-10-14)15-11-7-4-8-12-15/h3-12H,2H2,1H3
Instrument: Bruker 450 GC coupled to maXis Impact
Instrument type: GC-APCI-QTOF
Ms type: MS2
Ion mode: POSITIVE
Ionization: APCI
Fragmentation mode: CID
Collision energy: 50 eV
Resolution: 35000
Column name: Rxi-5Sil MS column, 30m, 0.25mm i.d., 0.25Âµm film thickness, Restek
Retention time: 20.373 min
Base peak: 277.1077
Precursor m/z: 277.1097
Precursor type: [M]+
m/z	relative intensity	assigned
53.0386	7	C4H5+
81.0693	6	C6H9+
95.0471	21	C6H7O+
105.0319	19	C7H5O+
115.0517	6	C9H7+
116.0498	18	C8H6N+
119.086	6	C9H11+
121.0294	6	C7H5O2+
126.0454	6	C10H6+
127.0411	6	C9H5N+
128.049	32	C9H6N+
129.0329	23	C9H5O+
139.0565	11	C11H7+
140.0518	6	C10H6N+
140.0644	6	C11H8+
144.0458	8	C9H6NO+
150.0489	23	C12H6+
151.0574	46	C12H7+
152.0644	117	C12H8+
153.0693	19	C12H9+
154.0663	7	C11H8N+
154.0742	6	C12H10+
164.0645	10	C13H8+
165.0721	455	C13H9+
166.0773	60	C13H10+
167.0878	6	C13H11+
168.082	6	C12H10N+
169.0669	204	C12H9O+
170.0716	18	C12H10O+
172.0426	17	C10H6NO2+
174.046	12	C14H6+
175.0576	21	C14H7+
176.0638	999	C14H8+
177.0712	449	C14H9+
178.0789	276	C14H10+
179.0819	55	C14H11+
181.0679	28	C13H9O+
189.0714	12	C15H9+
190.0672	98	C14H8N+
191.0738	93	C14H9N+
192.0822	64	C14H10N+
193.0656	62	C14H9O+
194.0635	16	C13H8NO+
195.0822	36	C14H11O+
196.0777	7	C13H10NO+
201.0586	78	C15H7N+
202.0664	130	C15H8N+
203.0735	966	C15H9N+
204.0804	398	C15H10N+
206.0676	7	C15H10O+
206.0965	14	C15H12N+
216.0815	7	C16H10N+
217.0892	15	C16H11N+
218.0992	7	C16H12N+
219.0668	16	C15H9NO+
219.0768	14	C16H11O+
220.0761	181	C15H10NO+
221.0652	10	C15H9O2+
221.0802	32	C15H11NO+
222.086	5	C15H12NO+
228.0788	15	C17H10N+
229.087	7	C17H11N+
230.0608	21	C16H8NO+
230.0964	20	C17H12N+
231.1005	7	C17H13N+
232.0765	18	C16H10NO+
248.07	36	C16H10NO2+
