Mass spectrum: 4-Hydroxybenzotriazole; LC-ESI-QTOF; MS2; CE: Ramp 17.4-26.0 eV; R=35000; [M-H]-
Name: 4-Hydroxybenzotriazole
Name: 1,2-dihydrobenzotriazol-4-one
Name: 2H-benzotriazol-4-ol
Name: 4-Hydroxy-1H-benzotriazole
Formula: C6H5N3O
Exact mass: 135.04326178
SMILES: C1=CC2=NNN=C2C(=C1)O
InChI: InChI=1S/C6H5N3O/c10-5-3-1-2-4-6(5)8-9-7-4/h1-3,10H,(H,7,8,9)
Instrument: Bruker maXis Impact
Instrument type: LC-ESI-QTOF
Ms type: MS2
Ion mode: NEGATIVE
Ionization: ESI
Fragmentation mode: CID
Collision energy: Ramp 17.4-26.0 eV
Resolution: 35000
Column name: Acclaim RSLC C18 2.2um, 2.1x100mm, Thermo
Retention time: 3.938 min
Base peak: 59.0131
Precursor m/z: 134.036
Precursor type: [M-H]-
m/z	relative intensity	assigned
78.0337	999	C5H4N-
105.0198	146	C6H3NO-
106.0273	100	C6H4NO-
134.0363	275	C6H4N3O-
