Mass spectrum: Dodemorph; LC-ESI-QTOF; MS2; CE: 20 eV; R=35000; [M+H]+
Name: Dodemorph
Name: 4-cyclododecyl-2,6-dimethylmorpholine
Formula: C18H35NO
Exact mass: 281.2718647
SMILES: CC1CN(CC(C)O1)C1CCCCCCCCCCC1
InChI: InChI=1S/C18H35NO/c1-16-14-19(15-17(2)20-16)18-12-10-8-6-4-3-5-7-9-11-13-18/h16-18H,3-15H2,1-2H3
Instrument: Bruker maXis Impact
Instrument type: LC-ESI-QTOF
Ms type: MS2
Ion mode: POSITIVE
Ionization: ESI
Fragmentation mode: CID
Collision energy: 20 eV
Resolution: 35000
Column name: Acclaim RSLC C18 2.2um, 2.1x100mm, Thermo
Retention time: 8.811 min
Base peak: 282.2789
Precursor m/z: 282.2791
Precursor type: [M+H]+
m/z	relative intensity	assigned
116.1064	62	C6H14NO+
117.1096	6	C5[13]CH14NO+
192.137	11	C12H18NO+
282.279	999	C18H36NO+
283.2823	169	C17[13]CH36NO+
284.2855	16	C16[13]C2H36NO+
