Mass spectrum: 10,11-Dihydro-10,11-dihydroxycarbamazepine; LC-ESI-QTOF; MS2; CE: 50 eV; R=35000; [M+H]+
Name: 10,11-Dihydro-10,11-dihydroxycarbamazepine
Name: Carbazepine 10,11-diol
Name: 5,6-dihydroxy-5,6-dihydrobenzo[b][1]benzazepine-11-carboxamide
Formula: C15H14N2O3
Exact mass: 270.1004423
SMILES: NC(=O)N1C2=CC=CC=C2C(O)C(O)C2=CC=CC=C12
InChI: InChI=1S/C15H14N2O3/c16-15(20)17-11-7-3-1-5-9(11)13(18)14(19)10-6-2-4-8-12(10)17/h1-8,13-14,18-19H,(H2,16,20)
Instrument: Bruker maXis Impact
Instrument type: LC-ESI-QTOF
Ms type: MS2
Ion mode: POSITIVE
Ionization: ESI
Fragmentation mode: CID
Collision energy: 50 eV
Resolution: 35000
Column name: Acclaim RSLC C18 2.2um, 2.1x100mm, Thermo
Retention time: 5.764 min
Base peak: 326.233
Precursor m/z: 271.1077
Precursor type: [M+H]+
m/z	relative intensity	assigned
151.0523	6	C12H7+
152.0607	61	C12H8+
153.0677	19	C7H9N2O2+
154.0649	7	C11H8N+
154.0729	5	C7H10N2O2+
165.0685	21	C13H9+
166.0646	14	C12H8N+
166.0767	6	C13H10+
167.0714	128	C12H9N+
168.0753	21	C11[13]CH9N+
169.0633	10	C12H9O+
178.0637	29	C10H10O3+
179.0716	78	C10H11O3+
180.0795	999	C13H10N+
181.0832	150	C12[13]CH10N+
182.0948	60	C13H12N+
183.0999	9	C12[13]CH12N+
191.0729	8	C14H9N+
192.0781	9	C11H12O3+
193.0877	16	C14H11N+
