Mass spectrum: Norfloxacin; LC-ESI-QTOF; MS2; CE: 50 eV; R=35000; [M+H]+
Name: Norfloxacin
Name: 1-ethyl-6-fluoro-4-oxo-7-piperazin-4-ium-1-ylquinoline-3-carboxylate
Formula: C16H18FN3O3
Exact mass: 319.1332197
SMILES: CCn1cc(c(=O)c2c1cc(c(c2)F)N3CCNCC3)C(=O)O
InChI: InChI=1S/C16H18FN3O3/c1-2-19-9-11(16(22)23)15(21)10-7-12(17)14(8-13(10)19)20-5-3-18-4-6-20/h7-9,18H,2-6H2,1H3,(H,22,23)
Instrument: Bruker maXis Impact
Instrument type: LC-ESI-QTOF
Ms type: MS2
Ion mode: POSITIVE
Ionization: ESI
Fragmentation mode: CID
Collision energy: 50 eV
Resolution: 35000
Column name: Acclaim RSLC C18 2.2um, 2.1x100mm, Thermo
Retention time: 4.6 min
Base peak: 254.0592
Precursor m/z: 320.1405
Precursor type: [M+H]+
m/z	relative intensity	assigned
136.0555	16	C8H7FN+
148.0553	24	C9H7FN+
152.0755	16	C8H9FN2+
161.0509	17	C9H6FN2+
161.062	20	C7H10FO3+
162.0694	12	C7H11FO3+
163.0648	28	C6H10FNO3+
165.082	21	C9H10FN2+
171.091	19	C11H11N2+
174.0582	12	C10H7FN2+
175.0655	33	C10H8FN2+
176.0733	87	C10H9FN2+
177.0797	12	C7H12FNO3+
179.0609	15	C12H7N2+
179.0956	13	C7H14FNO3+
187.0654	11	C11H8FN2+
188.0386	17	C10H5FN2O+
189.0816	226	C11H10FN2+
190.0874	25	C8H13FNO3+
197.0932	19	C9H13N2O3+
198.0654	15	C11H8N3O+
198.103	22	C12H12N3+
203.0613	88	C11H8FN2O+
203.0975	29	C12H12FN2+
204.0671	26	C14H8N2+
204.1055	187	C12H13FN2+
205.0742	22	C11H11NO3+
205.1097	24	C12H15NO2+
211.1113	36	C10H14FN3O+
217.0417	19	C11H6FN2O2+
217.0764	11	C15H9N2+
219.089	12	C12H13NO3+
225.0867	12	C13H11N3O+
226.0982	33	C10H13FN3O2+
226.1331	11	C14H16N3+
231.0559	999	C12H8FN2O2+
232.0598	115	C11[13]CH8FN2O2+
233.0626	15	C16H8FN+
235.0513	13	C11H8FN2O3+
244.0712	16	C12H10N3O3+
245.072	17	C13H10FN2O2+
249.067	61	C12H10FN2O3+
253.0857	11	C11H12FN3O3+
254.092	41	C14H12N3O2+
254.1295	20	C12H17FN3O2+
258.1396	11	C15H17FN3+
259.0848	11	C14H12FN2O2+
263.0836	12	C13H12FN2O3+
272.1026	41	C14H14N3O3+
274.0987	15	C14H13FN3O2+
274.1368	12	C15H17FN3O+
282.1236	18	C16H16N3O2+
292.1095	42	C14H15FN3O3+
300.1347	42	C16H18N3O3+
301.1378	11	C16H19N3O3+
302.1291	51	C16H17FN3O2+
320.1413	111	C16H19FN3O3+
321.1444	17	C14H19N5O4+
