Mass spectrum: N-desmethylpheniramine; LC-ESI-QTOF; MS2; CE: 40 eV; R=35000; [M+H]+
Name: N-desmethylpheniramine
Name: N-methyl-3-phenyl-3-pyridin-2-ylpropan-1-amine
Formula: C15H18N2
Exact mass: 226.1469986
SMILES: CNCCC(C1=CC=CC=C1)C2=CC=CC=N2
InChI: InChI=1S/C15H18N2/c1-16-12-10-14(13-7-3-2-4-8-13)15-9-5-6-11-17-15/h2-9,11,14,16H,10,12H2,1H3
Instrument: Bruker maXis Impact
Instrument type: LC-ESI-QTOF
Ms type: MS2
Ion mode: POSITIVE
Ionization: ESI
Fragmentation mode: CID
Collision energy: 40 eV
Resolution: 35000
Column name: Acclaim RSLC C18 2.2um, 2.1x100mm, Thermo
Retention time: 5.1 min
Base peak: 227.1539
Precursor m/z: 227.1543
Precursor type: [M+H]+
m/z	relative intensity	assigned
117.0565	27	C8H7N+
118.0645	56	C8H8N+
119.0693	8	C7[13]CH8N+
167.0721	999	C12H9N+
168.0796	844	C12H10N+
180.0797	21	C13H10N+
181.0866	10	C12[13]CH10N+
194.0956	39	C14H12N+
195.1014	13	C14H13N+
196.1116	327	C14H14N+
197.1149	40	C13[13]CH14N+
