Mass spectrum: Sulfamethoxypyridazine; LC-ESI-QTOF; MS2; CE: 10 eV; R=35000; [M+H]+
Name: Sulfamethoxypyridazine
Name: 4-amino-n-(6-methoxypyridazin-3-yl)benzenesulfonamide
Formula: C11H12N4O3S
Exact mass: 280.0630112
SMILES: COc1ccc(nn1)NS(=O)(=O)c2ccc(cc2)N
InChI: InChI=1S/C11H12N4O3S/c1-18-11-7-6-10(13-14-11)15-19(16,17)9-4-2-8(12)3-5-9/h2-7H,12H2,1H3,(H,13,15)
Instrument: Bruker maXis Impact
Instrument type: LC-ESI-QTOF
Ms type: MS2
Ion mode: POSITIVE
Ionization: ESI
Fragmentation mode: CID
Collision energy: 10 eV
Resolution: 35000
Column name: Acclaim RSLC C18 2.2um, 2.1x100mm, Thermo
Retention time: 4.3 min
Base peak: 281.0702
Precursor m/z: 281.0703
Precursor type: [M+H]+
m/z	relative intensity	assigned
126.0657	8	C5H8N3O+
156.0104	56	C4H4N4OS+
204.0433	20	C6H10N3O3S+
215.0921	5	C11H11N4O+
279.0906	332	C11H13N5O4+
281.0702	999	C11H13N4O3S+
282.0735	83	C10[13]CH13N4O3S+
283.0673	22	C11H13N4O3[34]S+
