Mass spectrum: Diuron; LC-ESI-QTOF; MS2; CE: 40 eV; R=35000; [M+H]+
Name: Diuron
Name: 3-(3,4-dichlorophenyl)-1,1-dimethylurea
Formula: C9H10Cl2N2O
Exact mass: 232.0170183
SMILES: CN(C)C(=O)NC1=CC(Cl)=C(Cl)C=C1
InChI: InChI=1S/C9H10Cl2N2O/c1-13(2)9(14)12-6-3-4-7(10)8(11)5-6/h3-5H,1-2H3,(H,12,14)
Instrument: Bruker maXis Impact
Instrument type: LC-ESI-QTOF
Ms type: MS2
Ion mode: POSITIVE
Ionization: ESI
Fragmentation mode: CID
Collision energy: 40 eV
Resolution: 35000
Column name: Acclaim RSLC C18 2.2um, 2.1x100mm, Thermo
Retention time: 8.4 min
Base peak: 233.024
Precursor m/z: 233.0243
Precursor type: [M+H]+
m/z	relative intensity	assigned
123.9941	98	C9O+
125.0019	297	C9HO+
125.9923	19	ClH3N4O2+
126.0052	15	CH5ClN3O2+
126.9994	63	ClH4N4O2+
132.9598	510	C5H3Cl2+
133.9635	38	C4[13]CH3Cl2+
134.9567	281	C5H3[37]Cl[35]Cl+
144.9586	21	C6H3Cl2+
152.9965	105	C7H4ClNO+
159.9703	999	C9HClO+
160.9737	79	C8[13]CHClO+
161.9672	588	C9H[37]ClO+
162.9703	42	C8[13]CH[37]ClO+
172.9656	122	C6H3Cl2N2+
173.9692	13	C5[13]CH3Cl2N2+
174.963	72	C6CH3[37]Cl2N2+
187.9657	30	C7H4Cl2NO+
