Mass spectrum: Clopidol; LC-ESI-QTOF; MS2; CE: 50 eV; R=35000; [M+H]+
Name: Clopidol
Name: 3,5-dichloro-2,6-dimethyl-1H-pyridin-4-one
Formula: C7H7Cl2NO
Exact mass: 190.9904692
SMILES: Cc1c(c(c(c(n1)C)Cl)O)Cl
InChI: InChI=1S/C7H7Cl2NO/c1-3-5(8)7(11)6(9)4(2)10-3/h1-2H3,(H,10,11)
Instrument: Bruker maXis Impact
Instrument type: LC-ESI-QTOF
Ms type: MS2
Ion mode: POSITIVE
Ionization: ESI
Fragmentation mode: CID
Collision energy: 50 eV
Resolution: 35000
Column name: Acclaim RSLC C18 2.2um, 2.1x100mm, Thermo
Retention time: 4.1 min
Base peak: 191.9974
Precursor m/z: 191.9977
Precursor type: [M+H]+
m/z	relative intensity	assigned
120.9598	426	C4H3Cl2+
122.0591	169	C7H8NO+
128.0256	941	C6H7ClN+
138.0116	179	C7H5ClN+
156.0204	999	C7H7ClNO+
157.0291	548	C7H8ClNO+
190.9897	378	C7H7Cl2NO+
191.9998	245	C7H8Cl2NO+
193.992	195	C7H8Cl2O2+
