Mass spectrum: 2H-Perfluoro-2-dodecenoic acid (10:2) (FDUEA); LC-ESI-QTOF; MS2; CE: 40 eV; R=35000; [M-H]-
Name: 2H-Perfluoro-2-dodecenoic acid (10:2) (FDUEA)
Name: 2H-Perfluoro-2-dodecenoic acid
Name: 3,4,4,5,5,6,6,7,7,8,8,9,9,10,10,11,11,12,12,12-icosafluorododec-2-enoic acid
Formula: C12H2F20O2
Exact mass: 557.9735
SMILES: C(=C(C(C(C(C(C(C(C(C(C(F)(F)F)(F)F)(F)F)(F)F)(F)F)(F)F)(F)F)(F)F)(F)F)F)C(=O)O
InChI: InChI=1S/C12H2F20O2/c13-2(1-3(33)34)4(14,15)5(16,17)6(18,19)7(20,21)8(22,23)9(24,25)10(26,27)11(28,29)12(30,31)32/h1H,(H,33,34)
Instrument: Bruker maXis Impact
Instrument type: LC-ESI-QTOF
Ms type: MS2
Ionization: ESI
Fragmentation mode: CID
Collision energy: 40 eV
Resolution: 35000
Column name: Acclaim RSLC C18 2.2um, 2.1x100mm, Thermo
Retention time: 11.814 min
Base peak: 492.9681
Precursor m/z: 556.9663
Precursor type: [M-H]-
m/z	relative intensity	assigned
492.9678	999	C11F19-
493.9699	657	C11HF19-
