Mass spectrum: Clotrimazole; LC-ESI-QTOF; MS2; CE: 50 eV; R=35000; [M+H]+
Name: Clotrimazole
Name: 1-[(2-chlorophenyl)-diphenylmethyl]imidazole
Formula: C22H17ClN2
Exact mass: 344.1080262
SMILES: ClC1=CC=CC=C1C(N1C=CN=C1)(C1=CC=CC=C1)C1=CC=CC=C1
InChI: InChI=1S/C22H17ClN2/c23-21-14-8-7-13-20(21)22(25-16-15-24-17-25,18-9-3-1-4-10-18)19-11-5-2-6-12-19/h1-17H
Instrument: Bruker maXis Impact
Instrument type: LC-ESI-QTOF
Ms type: MS2
Ion mode: POSITIVE
Ionization: ESI
Fragmentation mode: CID
Collision energy: 50 eV
Resolution: 35000
Column name: Acclaim RSLC C18 2.2um, 2.1x100mm, Thermo
Retention time: 11.194 min
Base peak: 277.0781
Precursor m/z: 345.1153
Precursor type: [M+H]+
m/z	relative intensity	assigned
125.0141	9	C8HN2+
163.0528	9	C13H7+
164.0603	16	C13H8+
165.0688	999	C13H9+
166.0721	104	C12[13]CH9+
167.0756	5	C11[13]C2H9+
199.03	149	C13H8Cl+
200.0332	19	C12[13]CH8Cl+
201.027	43	C13H8[37]Cl+
215.0843	24	C17H11+
226.0767	32	C18H10+
227.0825	12	C18H11+
239.0848	71	C19H11+
240.0918	51	C19H12+
241.1006	372	C19H13+
242.1065	142	C19H14+
243.1106	19	C18[13]CH14+
249.0454	5	C18H5N2+
262.0534	11	C19H6N2+
