Mass spectrum: 2-Ethylhexyl 2-Cyano-3,3-diphenylacrylate; GC-APCI-QTOF; MS2; CE: 10 eV; R=35000; [M+H]+
Name: 2-Ethylhexyl 2-Cyano-3,3-diphenylacrylate
Formula: C24H27NO2
Exact mass: 361.2042
SMILES: CCCCC(CC)COC(=O)C(=C(C1=CC=CC=C1)C2=CC=CC=C2)C#N
InChI: InChI=1S/C24H27NO2/c1-3-5-12-19(4-2)18-27-24(26)22(17-25)23(20-13-8-6-9-14-20)21-15-10-7-11-16-21/h6-11,13-16,19H,3-5,12,18H2,1-2H3
Instrument: Bruker 450 GC coupled to maXis Impact
Instrument type: GC-APCI-QTOF
Ms type: MS2
Ion mode: POSITIVE
Ionization: APCI
Fragmentation mode: CID
Collision energy: 10 eV
Resolution: 35000
Column name: Rxi-5Sil MS column, 30m, 0.25mm i.d., 0.25Âµm film thickness, Restek
Retention time: 24.555 min
Base peak: 283.2618
Precursor m/z: 362.2115
Precursor type: [M+H]+
m/z	relative intensity	assigned
124.1222	499	C9H16+
138.1415	531	C10H18+
152.158	999	C11H20+
153.1625	483	C11H21+
166.175	644	C12H22+
167.1867	418	C8H25NO2+
180.1902	805	C13H24+
195.2154	402	C14H27+
207.2092	402	C15H27+
208.2204	451	C15H28+
