Mass spectrum: Desloratadine; LC-ESI-QTOF; MS2; CE: 30 eV; R=35000; [M+H]+
Name: Desloratadine
Name: 13-chloro-2-piperidin-4-ylidene-4-azatricyclo[9.4.0.03,8]pentadeca-1(11),3(8),4,6,12,14-hexaene
Formula: C19H19ClN2
Exact mass: 310.1236763
SMILES: ClC1=CC2=C(C=C1)C(=C1CCNCC1)C1=C(CC2)C=CC=N1
InChI: InChI=1S/C19H19ClN2/c20-16-5-6-17-15(12-16)4-3-14-2-1-9-22-19(14)18(17)13-7-10-21-11-8-13/h1-2,5-6,9,12,21H,3-4,7-8,10-11H2
Instrument: Bruker maXis Impact
Instrument type: LC-ESI-QTOF
Ms type: MS2
Ion mode: POSITIVE
Ionization: ESI
Fragmentation mode: CID
Collision energy: 30 eV
Resolution: 35000
Column name: Acclaim RSLC C18 2.2um, 2.1x100mm, Thermo
Retention time: 7.314 min
Base peak: 311.1318
Precursor m/z: 311.131
Precursor type: [M+H]+
m/z	relative intensity	assigned
228.0566	6	C14H11ClN+
229.0638	5	C14H12ClN+
231.1039	9	C17H13N+
232.1101	5	C17H14N+
243.1039	16	C18H13N+
244.1109	14	C18H14N+
245.1169	5	C18H15N+
246.1271	7	C18H16N+
247.1346	16	C18H17N+
253.0647	16	C16H12ClN+
257.1189	6	C19H15N+
258.1277	152	C19H16N+
259.1357	999	C19H17N+
260.1386	237	C18[13]CH17N+
261.1417	12	C17[13]C2H17N+
266.0726	18	C17H13ClN+
267.0806	82	C17H14ClN+
268.0847	20	C16[13]CH14ClN+
269.0782	22	C17H14[37]ClN+
278.0727	7	C18H13ClN+
279.0809	107	C18H14ClN+
280.087	48	C18H15ClN+
281.0789	24	C18H14[37]ClN+
281.0941	29	C18H16ClN+
282.1042	258	C18H17ClN+
283.1073	46	C17[13]CH17ClN+
284.1017	68	C18H17[37]ClN+
292.0885	29	C19H15ClN+
293.0931	9	C18[13]CH15ClN+
294.1044	358	C19H17ClN+
295.1077	61	C18[13]CH17ClN+
296.1019	86	C19H17[37]ClN+
311.1309	20	C19H20ClN2+
313.1283	5	C19H20[37]ClN2+
