Mass spectrum: Atenolol-desisopropyl; LC-ESI-QTOF; MS2; CE: 10 eV; R=35000; [M+H]+
Name: Atenolol-desisopropyl
Name: 4-(3-AMINO-2-HYDROXYPROPOXY)PHENYLACETAMIDE
Name: 2-[4-(3-amino-2-hydroxypropoxy)phenyl]acetamide
Formula: C11H16N2O3
Exact mass: 224.1160924
SMILES: NCC(O)COC1=CC=C(CC(N)=O)C=C1
InChI: InChI=1S/C11H16N2O3/c12-6-9(14)7-16-10-3-1-8(2-4-10)5-11(13)15/h1-4,9,14H,5-7,12H2,(H2,13,15)
Instrument: Bruker maXis Impact
Instrument type: LC-ESI-QTOF
Ms type: MS2
Ion mode: POSITIVE
Ionization: ESI
Fragmentation mode: CID
Collision energy: 10 eV
Resolution: 35000
Column name: Acclaim RSLC C18 2.2um, 2.1x100mm, Thermo
Retention time: 2.0 min
Base peak: 150.1114
Precursor m/z: 225.1234
Precursor type: [M+H]+
m/z	relative intensity	assigned
145.064	6	C10H9O+
162.0891	10	C10H12NO+
178.0855	15	C10H12NO2+
180.1005	37	C10H14NO2+
181.1039	5	C9[13]CH14NO2+
190.0854	56	C11H12NO2+
191.0891	8	C10[13]CH12NO2+
208.0955	54	C11H14NO3+
225.1228	999	C11H17N2O3+
226.1263	98	C10[13]CH17N2O3+
