Mass spectrum: Dronedarone; LC-ESI-QTOF; MS2; CE: 50 eV; R=35000; [M+H]+
Name: Dronedarone
Name: N-[2-butyl-3-[4-[3-(dibutylamino)propoxy]benzoyl]-1-benzofuran-5-yl]methanesulfonamide
Formula: C31H44N2O5S
Exact mass: 556.2970935
SMILES: CCCCc1c(c2cc(ccc2o1)NS(=O)(=O)C)C(=O)c3ccc(cc3)OCCCN(CCCC)CCCC
InChI: InChI=1S/C31H44N2O5S/c1-5-8-12-29-30(27-23-25(32-39(4,35)36)15-18-28(27)38-29)31(34)24-13-16-26(17-14-24)37-22-11-21-33(19-9-6-2)20-10-7-3/h13-18,23,32H,5-12,19-22H2,1-4H3
Instrument: Bruker maXis Impact
Instrument type: LC-ESI-QTOF
Ms type: MS2
Ion mode: POSITIVE
Ionization: ESI
Fragmentation mode: CID
Collision energy: 50 eV
Resolution: 35000
Column name: Acclaim RSLC C18 2.2um, 2.1x100mm, Thermo
Retention time: 10.332 min
Base peak: 557.3093
Precursor m/z: 557.3044
Precursor type: [M+H]+
m/z	relative intensity	assigned
114.1279	35	C7H16N+
121.0284	14	C7H5O2+
126.1274	5	C8H16N+
128.1436	95	C8H18N+
129.1469	7	C7[13]CH18N+
130.1586	10	C8H20N+
142.1595	999	C3H26O3S+
147.0442	6	C9H7O2+
161.0599	52	C10H9O2+
170.191	299	C5H30O3S+
214.087	12	C7H18O5S+
215.0947	53	C7H19O5S+
216.1019	25	C13H14NO2+
238.0865	5	C15H12NO2+
252.0341	23	C14H8N2OS+
266.0822	6	C16H12NO3+
278.0823	12	C17H12NO3+
279.0892	12	C17H13NO3+
280.0974	10	C17H14NO3+
292.135	5	C13H24O5S+
294.0812	213	C17H14N2OS+
295.0838	33	C16[13]CH14N2OS+
305.1063	6	C22H13N2+
306.113	6	C19H16NO3+
308.1289	23	C19H18NO3+
309.1367	34	C19H19NO3+
310.1439	34	C19H20NO3+
311.1483	6	C18[13]CH20NO3+
320.1302	9	C23H16N2+
321.1373	13	C20H19NO3+
321.1733	7	C15H29O5S+
322.1436	6	C20H20NO3+
324.1605	30	C20H22NO3+
325.1642	6	C19[13]CH22NO3+
336.1615	72	C24H20N2+
337.1631	20	C23[13]CH20N2+
348.1623	7	C25H20N2+
349.1694	5	C25H21N2+
350.1769	9	C25H22N2+
366.1964	10	C19H30N2O3S+
379.2034	49	C20H31N2O3S+
380.2077	12	C19[13]CH31N2O3S+
388.1231	23	C23H20N2O2S+
393.2193	25	C21H33N2O3S+
394.2231	6	C20[13]CH33N2O3S+
421.2524	10	C31H33O+
422.2565	5	C30[13]CH33O+
435.2674	535	C24H39N2O3S+
436.2704	137	C27H36N2O3+
437.2745	17	C26[13]CH36N2O3+
449.2858	5	C30H41OS+
501.245	55	C27H37N2O5S+
502.249	18	C26[13]CH37N2O5S+
557.3086	459	C31H45N2O5S+
558.3113	158	C30[13]CH45N2O5S+
559.3099	37	C29[13]C2H45N2O5S+
