Mass spectrum: Dimethyl-5-sulfoisophthalate; LC-ESI-QTOF; MS2; CE: 10 eV; R=35000; [M-H]-
Name: Dimethyl-5-sulfoisophthalate
Name: 1,3-Benzenedicarboxylic acid, 5-sulfo-, 1,3-dimethyl ester
Name: 3,5-bis(methoxycarbonyl)benzenesulfonic acid
Formula: C10H10O7S
Exact mass: 274.0147237
SMILES: COC(=O)C1=CC(=CC(=C1)C(=O)OC)S(O)(=O)=O
InChI: InChI=1S/C10H10O7S/c1-16-9(11)6-3-7(10(12)17-2)5-8(4-6)18(13,14)15/h3-5H,1-2H3,(H,13,14,15)
Instrument: Bruker maXis Impact
Instrument type: LC-ESI-QTOF
Ms type: MS2
Ion mode: NEGATIVE
Ionization: ESI
Fragmentation mode: CID
Collision energy: 10 eV
Resolution: 35000
Column name: Acclaim RSLC C18 2.2um, 2.1x100mm, Thermo
Retention time: 4.485 min
Base peak: 273.0068
Precursor m/z: 273.0074
Precursor type: [M-H]-
m/z	relative intensity	assigned
209.042	15	C10H9O5-
273.008	999	C10H9O7S-
274.0114	130	C9[13]CH9O7S-
275.0049	66	C10H9O7[34]S-
