Mass spectrum: Corticosterone; LC-ESI-QTOF; MS2; CE: 40 eV; R=35000; [M+H]+
Name: Corticosterone
Name: (8S,9S,10R,11S,13S,14S,17S)-11-hydroxy-17-(2-hydroxyacetyl)-10,13-dimethyl-1,2,6,7,8,9,11,12,14,15,16,17-dodecahydrocyclopenta[a]phenanthren-3-one
Formula: C21H30O4
Exact mass: 346.2144094
SMILES: C[C@]12CCC(=O)C=C1CC[C@@H]3[C@@H]2[C@H](C[C@]4([C@H]3CC[C@@H]4C(=O)CO)C)O
InChI: InChI=1S/C21H30O4/c1-20-8-7-13(23)9-12(20)3-4-14-15-5-6-16(18(25)11-22)21(15,2)10-17(24)19(14)20/h9,14-17,19,22,24H,3-8,10-11H2,1-2H3/t14-,15-,16+,17-,19+,20-,21-/m0/s1
Instrument: Bruker maXis Impact
Instrument type: LC-ESI-QTOF
Ms type: MS2
Ion mode: POSITIVE
Ionization: ESI
Fragmentation mode: CID
Collision energy: 40 eV
Resolution: 35000
Column name: Acclaim RSLC C18 2.2um, 2.1x100mm, Thermo
Retention time: 8.642 min
Base peak: 347.2241
Precursor m/z: 347.2217
Precursor type: [M+H]+
m/z	relative intensity	assigned
115.0546	90	C9H7+
117.0698	134	C9H9+
118.0749	31	C9H10+
119.0857	334	C9H11+
121.0651	999	C8H9O+
121.1022	104	C9H13+
123.0807	511	C8H11O+
124.0855	54	C8H12O+
127.0547	26	C10H7+
128.0629	121	C10H8+
129.0704	250	C10H9+
130.0765	74	C10H10+
131.0857	560	C10H11+
133.065	94	C9H9O+
133.1013	480	C10H13+
134.1058	48	C10H14+
135.0814	275	C9H11O+
135.1171	128	C10H15+
137.0966	91	C9H13O+
141.0693	123	C11H9+
142.0789	147	C11H10+
143.0857	523	C11H11+
144.0908	113	C11H12+
145.0644	58	C10H9O+
145.1018	966	C11H13+
146.0721	33	C10H10O+
146.1048	85	C10[13]CH13+
147.0804	278	C10H11O+
147.1169	410	C11H15+
148.0868	99	C10H12O+
149.096	151	C10H13O+
149.1328	56	C11H17+
151.113	37	C10H15O+
153.0715	32	C12H9+
153.091	35	C9H13O2+
154.0781	72	C12H10+
155.0859	189	C12H11+
156.0934	297	C12H12+
157.1017	449	C12H13+
158.0729	34	C11H10O+
158.1063	90	C12H14+
159.0809	174	C11H11O+
159.1171	519	C12H15+
160.0861	41	C11H12O+
160.1207	88	C12H16+
161.0963	326	C11H13O+
161.1328	169	C12H17+
162.1007	51	C11H14O+
162.1365	29	C12H18+
163.1123	662	C11H15O+
165.0694	28	C13H9+
165.0906	27	C10H13O2+
166.0778	27	C13H10+
167.0847	86	C13H11+
168.092	74	C13H12+
169.1017	324	C13H13+
170.108	74	C13H14+
171.0812	46	C12H11O+
171.1174	496	C13H15+
172.1217	107	C13H16+
173.097	155	C12H13O+
173.1331	176	C13H17+
174.104	50	C12H14O+
174.1367	34	C13H18+
175.1132	263	C12H15O+
175.1499	47	C13H19+
176.1174	53	C12H16O+
177.1287	62	C12H17O+
179.0855	66	C14H11+
180.0943	30	C14H12+
181.1016	188	C14H13+
182.1081	118	C14H14+
183.1174	301	C14H15+
184.1225	60	C14H16+
185.096	79	C13H13O+
185.1328	262	C14H17+
186.1402	33	C14H18+
187.1129	141	C13H15O+
187.1478	117	C14H19+
188.116	34	C13H16O+
189.1278	221	C13H17O+
190.1337	27	C13H18O+
191.0869	26	C15H11+
193.102	88	C15H13+
194.1092	50	C15H14+
195.1176	223	C15H15+
196.1244	104	C15H16+
197.0977	42	C14H13O+
197.1337	179	C15H17+
198.1382	38	C15H18+
199.1132	61	C14H15O+
199.151	85	C15H19+
200.122	25	C14H16O+
201.1285	102	C14H17O+
202.1331	33	C14H18O+
203.1427	54	C14H19O+
205.1016	36	C16H13+
206.1109	39	C16H14+
207.1189	88	C16H15+
208.1246	56	C16H16+
209.0978	27	C15H13O+
209.1341	154	C16H17+
210.1054	25	C15H14O+
210.1422	64	C16H18+
211.114	70	C15H15O+
211.148	143	C16H19+
212.1173	43	C15H16O+
212.1547	39	C16H20+
213.1293	47	C15H17O+
213.1649	49	C16H21+
214.1353	25	C15H18O+
215.1424	75	C15H19O+
216.1499	26	C15H20O+
219.1185	41	C17H15+
220.1238	23	C17H16+
221.1342	43	C17H17+
222.1425	28	C17H18+
223.1131	35	C16H15O+
223.1487	113	C17H19+
224.1186	25	C16H16O+
224.1525	32	C17H20+
225.1288	47	C16H17O+
225.1656	106	C17H21+
226.17	35	C17H22+
227.1452	105	C16H19O+
227.1796	37	C17H23+
228.151	57	C16H20O+
229.1592	131	C16H21O+
232.1219	27	C18H16+
233.1343	47	C18H17+
235.1505	122	C18H19+
236.1565	27	C18H20+
237.1287	41	C17H17O+
237.1623	49	C18H21+
238.136	23	C17H18O+
239.1449	83	C17H19O+
240.152	23	C17H20O+
241.1595	78	C17H21O+
243.174	46	C17H23O+
245.152	39	C16H21O2+
247.1491	39	C19H19+
251.1454	30	C18H19O+
251.18	66	C19H23+
253.1605	105	C18H21O+
253.1951	29	C19H25+
254.1657	30	C18H22O+
255.1733	40	C18H23O+
260.1584	26	C20H20+
263.1821	26	C20H23+
265.1621	41	C19H21O+
265.1958	32	C20H25+
267.1724	63	C19H23O+
268.1812	34	C19H24O+
269.1902	47	C19H25O+
271.1691	33	C18H23O2+
272.175	23	C18H24O2+
275.1796	37	C21H23+
278.1696	27	C20H22O+
281.1916	28	C20H25O+
283.172	30	C19H23O2+
293.1908	34	C21H25O+
299.1664	30	C19H23O3+
311.204	31	C21H27O2+
312.2038	23	C21H28O2+
314.1886	40	C20H26O3+
329.212	66	C21H29O3+
