Mass spectrum: p-Toluenesulfonamide; LC-ESI-QTOF; MS2; CE: 10 eV; R=35000; [M+H]+
Name: p-Toluenesulfonamide
Name: 4-methylbenzenesulfonamide
Formula: C7H9NO2S
Exact mass: 171.0353995
SMILES: CC1=CC=C(C=C1)S(N)(=O)=O
InChI: InChI=1S/C7H9NO2S/c1-6-2-4-7(5-3-6)11(8,9)10/h2-5H,1H3,(H2,8,9,10)
Instrument: Bruker maXis Impact
Instrument type: LC-ESI-QTOF
Ms type: MS2
Ion mode: POSITIVE
Ionization: ESI
Fragmentation mode: CID
Collision energy: 10 eV
Resolution: 35000
Column name: Acclaim RSLC C18 2.2um, 2.1x100mm, Thermo
Retention time: 4.735 min
Base peak: 183.091
Precursor m/z: 172.0427
Precursor type: [M+H]+
m/z	relative intensity	assigned
155.015	999	C7H7O2S+
172.0414	183	C7H10NO2S+
