Mass spectrum: Bis(2-ethylhexyl) phthalate; GC-APCI-QTOF; MS2; CE: 30 eV; R=35000; [M+H]+
Name: Bis(2-ethylhexyl) phthalate
Formula: C24H38O4
Exact mass: 390.2770
SMILES: CCCCC(CC)COC(=O)C1=CC=CC=C1C(=O)OCC(CC)CCCC
InChI: InChI=1S/C24H38O4/c1-5-9-13-19(7-3)17-27-23(25)21-15-11-12-16-22(21)24(26)28-18-20(8-4)14-10-6-2/h11-12,15-16,19-20H,5-10,13-14,17-18H2,1-4H3
Instrument: Bruker 450 GC coupled to maXis Impact
Instrument type: GC-APCI-QTOF
Ms type: MS2
Ion mode: POSITIVE
Ionization: APCI
Fragmentation mode: CID
Collision energy: 30 eV
Resolution: 35000
Column name: Rxi-5Sil MS column, 30m, 0.25mm i.d., 0.25Âµm film thickness, Restek
Retention time: 24.632 min
Base peak: 149.0249
Precursor m/z: 391.2843
Precursor type: [M+H]+
m/z	relative intensity	assigned
121.0296	6	C7H5O2+
149.025	999	C8H5O3+
150.0291	73	C8H6O3+
167.0364	34	C8H7O4+
