Mass spectrum: Mometasone fuorate; LC-ESI-QTOF; MS2; CE: 30 eV; R=35000; [M+H]+
Name: Mometasone fuorate
Name: Mometasone furoate
Name: [(8S,9R,10S,11S,13S,14S,16R,17R)-9-chloro-17-(2-chloroacetyl)-11-hydroxy-10,13,16-trimethyl-3-oxo-6,7,8,11,12,14,15,16-octahydrocyclopenta[a]phenanthren-17-yl] furan-2-carboxylate
Formula: C27H30Cl2O6
Exact mass: 520.1419440
SMILES: C[C@@H]1C[C@H]2[C@@H]3CCC4=CC(=O)C=C[C@]4(C)[C@@]3(Cl)[C@@H](O)C[C@]2(C)[C@@]1(OC(=O)C1=CC=CO1)C(=O)CCl
InChI: InChI=1S/C27H30Cl2O6/c1-15-11-19-18-7-6-16-12-17(30)8-9-24(16,2)26(18,29)21(31)13-25(19,3)27(15,22(32)14-28)35-23(33)20-5-4-10-34-20/h4-5,8-10,12,15,18-19,21,31H,6-7,11,13-14H2,1-3H3/t15-,18+,19+,21+,24+,25+,26+,27+/m1/s1
Instrument: Bruker maXis Impact
Instrument type: LC-ESI-QTOF
Ms type: MS2
Ion mode: POSITIVE
Ionization: ESI
Fragmentation mode: CID
Collision energy: 30 eV
Resolution: 35000
Column name: Acclaim RSLC C18 2.2um, 2.1x100mm, Thermo
Retention time: 10.664 min
Base peak: 313.216
Precursor m/z: 521.1492
Precursor type: [M+H]+
m/z	relative intensity	assigned
117.069	11	C9H9+
119.0855	30	C9H11+
121.0645	131	C8H9O+
121.1018	18	C9H13+
131.0255	12	C6H8ClO+
131.0838	19	C4H16ClO2+
133.0403	71	Cl2H15O3+
133.0643	19	C9H9O+
133.1	31	C4H18ClO2+
135.0793	365	C9H11O+
136.0815	24	C8[13]CH11O+
137.095	17	C3H18ClO3+
143.0248	9	C7H8ClO+
143.0629	13	C8H12Cl+
143.0848	23	C11H11+
145.0411	15	C7H10ClO+
145.063	25	C4H14ClO3+
145.0989	27	C5H18ClO2+
147.079	431	C10H11O+
148.083	36	C9[13]CH11O+
149.0969	16	C10H13O+
153.0451	12	C3H15Cl2O2+
155.0621	17	C9H12Cl+
155.0839	10	C6H16ClO2+
157.0405	20	C8H10ClO+
157.1001	29	C12H13+
158.0726	13	C11H10O+
159.0579	8	C8H12ClO+
159.0795	101	C11H11O+
160.0826	18	C10[13]CH11O+
161.0585	9	C4H14ClO4+
161.095	81	C11H13O+
162.099	9	C10[13]CH13O+
163.0747	15	C10H11O2+
163.1106	10	C5H20ClO3+
167.0623	28	C4H17Cl2O2+
169.0389	21	C3H15Cl2O3+
169.0602	17	C4H17Cl[37]ClO2+
169.0765	15	C4H19Cl2O2+
169.099	14	C7H18ClO2+
170.0693	9	Cl2H20O5+
171.0557	157	C9H12ClO+
171.0793	296	C12H11O+
171.1154	32	C7H20ClO2+
172.0609	19	C8[13]CH12ClO+
172.0824	41	C11[13]CH11O+
173.0544	38	C9H12[37]ClO+
173.0955	266	C6H18ClO3+
174.0981	22	C5[13]CH18ClO3+
175.1103	11	C6H20ClO3+
177.0896	10	C5H18ClO4+
179.0619	16	C11H12Cl+
180.0921	9	C8H17ClO2+
181.0376	10	C4H15Cl2O3+
182.0708	9	C7H15ClO3+
183.056	57	C10H12ClO+
183.0778	30	C7H16ClO3+
183.1142	9	C8H20ClO2+
184.0874	13	C13H12O+
185.0555	16	C10H12[37]ClO+
185.0721	65	C10H14ClO+
185.0951	227	C13H13O+
186.0994	45	C12[13]CH13O+
187.0522	42	C3H17Cl2O4+
187.0734	118	C12H11O2+
187.1107	34	C13H15O+
188.0785	12	C11[13]CH11O2+
189.0476	10	C3H17Cl[37]ClO4+
189.0889	24	C6H18ClO4+
191.0612	65	C6H17Cl2O2+
192.0658	16	C6H18Cl2O2+
193.058	21	C6H17Cl[37]ClO2+
193.0769	31	C12H14Cl+
193.1	13	C9H18ClO2+
195.0551	43	C5H17Cl2O3+
195.0799	21	C14H11O+
196.0876	14	C14H12O+
197.0518	14	C5H17Cl[37]ClO3+
197.072	39	C11H14ClO+
197.0944	61	C8H18ClO3+
198.1012	19	C8H19ClO3+
199.0743	36	C13H11O2+
199.1108	21	C14H15O+
200.0779	11	CH22Cl2O6+
201.0883	13	C7H18ClO4+
203.1061	15	C13H15O2+
205.0393	16	C6H15Cl2O3+
205.0813	15	C6H18ClO5+
207.0567	41	C12H12ClO+
207.0749	14	C3H21Cl2O5+
208.0863	20	C9H17ClO3+
209.0533	9	C12H12[37]ClO+
209.0734	16	C12H14ClO+
209.0945	47	C9H18ClO3+
210.1007	15	C9H19ClO3+
211.0534	10	C17H7+
211.1113	92	C15H15O+
212.1171	17	C14[13]CH15O+
213.0667	11	C11H14ClO2+
213.09	13	C14H13O2+
213.1267	31	C15H17O+
217.0786	11	C14H14Cl+
219.0581	11	C13H12ClO+
219.0868	9	C8H21Cl2O2+
219.0955	8	C8H21Cl2O2+
221.0715	33	C13H14ClO+
221.0949	67	C10H18ClO3+
221.1311	10	C11H22ClO2+
222.0732	8	C12[13]CH14ClO+
222.1024	25	C10H19ClO3+
223.0505	14	C6H17Cl2O4+
223.1114	216	C16H15O+
224.1184	112	C10H21ClO3+
225.1245	42	C16H17O+
226.1316	9	C15[13]CH17O+
227.104	9	C9H20ClO4+
227.1398	12	C10H24ClO3+
229.077	13	C9H19Cl2O2+
231.0328	9	C11H13Cl2O+
231.0525	10	C8H17Cl2O3+
231.0702	10	C9H19Cl[37]ClO2+
233.0272	9	C11H13Cl[37]ClO+
233.0729	22	C14H14ClO+
233.0946	24	C11H18ClO3+
234.1035	27	C17H14O+
235.111	69	C17H15O+
235.1472	35	C18H19+
236.115	24	C5H26Cl2O5+
237.0863	9	C4H23Cl2O6+
237.1267	149	C17H17O+
238.1308	36	C16[13]CH17O+
239.1428	44	C17H19O+
240.1423	14	C12H26Cl2+
241.0825	12	C9H18ClO5+
241.1219	38	C16H17O2+
241.1583	20	C17H21O+
243.0587	14	C15H12ClO+
245.073	12	C15H14ClO+
245.0976	8	C18H13O+
245.1316	19	C19H17+
246.1016	8	C12H19ClO3+
246.1368	9	C7H28Cl2O4+
247.0535	20	C20H7+
247.0888	39	C9H21Cl2O3+
247.112	24	C18H15O+
248.1187	69	C18H16O+
249.084	13	C9H21Cl[37]ClO3+
249.126	97	C18H17O+
249.1593	11	C7H31Cl2O4+
250.0975	15	C11H19ClO4+
250.1325	23	C17[13]CH17O+
250.1722	11	C19H22+
251.1059	11	C17H15O2+
251.1417	21	C12H24ClO3+
251.1776	10	C13H28ClO2+
253.1582	30	C18H21O+
255.1021	13	C16H15O3+
257.0712	38	C10H19Cl2O3+
257.1336	11	C20H17+
259.0882	37	C16H16ClO+
259.1088	34	C13H20ClO3+
259.1503	9	C20H19+
260.0925	13	C10H22Cl2O3+
260.1176	49	C13H21ClO3+
260.1525	21	C8H30Cl2O4+
261.0681	14	C15H14ClO2+
261.1263	94	C19H17O+
261.1625	25	C14H26ClO2+
262.1334	55	C13H23ClO3+
262.1669	10	C14H27ClO2+
263.1423	999	C19H19O+
264.1463	159	C18[13]CH19O+
265.0892	9	C17H13O3+
265.118	10	C6H27Cl2O6+
265.1508	23	C17[13]C2H19O+
267.098	9	C11H20ClO5+
267.1382	15	C18H19O2+
267.1731	23	C13H28ClO3+
271.0862	58	C17H16ClO+
271.1132	16	C8H25Cl2O5+
272.0943	12	C16[13]CH16ClO+
272.1229	15	C13H20O6+
273.0996	16	C8H25Cl[37]ClO5+
273.1259	52	C14H22ClO3+
273.1619	32	C21H21+
274.1339	27	C14H23ClO3+
274.1672	11	C20[13]CH21+
275.0784	8	C10H21Cl2O4+
275.1425	132	C20H19O+
276.1485	57	C14H25ClO3+
277.1225	23	C19H17O2+
277.1577	411	C20H21O+
278.1659	870	C20H22O+
279.1729	741	C20H23O+
280.1781	141	C19[13]CH23O+
281.154	61	C13H26ClO4+
281.1843	11	C18[13]C2H23O+
283.0666	16	C15H17Cl2O+
283.1484	9	C13H26[37]ClO4+
285.0672	21	C17H14ClO2+
285.1079	17	C11H22ClO6+
286.1052	8	C12H24Cl2O3+
286.1353	45	C21H18O+
287.0895	11	C16H15O5+
287.119	10	C18H20ClO+
287.1445	16	C20[13]CH18O+
288.1506	144	C21H20O+
289.1539	37	C20[13]CH20O+
291.1375	27	C20H19O2+
291.1738	190	C21H23O+
292.1484	12	C20H20O2+
292.1777	50	C20[13]CH23O+
295.0854	26	C13H21Cl2O3+
295.1675	34	C14H28ClO4+
296.0946	10	C13H22Cl2O3+
296.1751	24	C14H29ClO4+
297.1042	11	C19H18ClO+
297.1854	23	C20H25O2+
299.0841	24	C18H16ClO2+
299.1185	38	C19H20ClO+
300.1249	10	C18[13]CH20ClO+
301.1579	370	C22H21O+
302.1627	104	C21[13]CH21O+
303.1683	22	C16H28ClO3+
304.1441	12	C15H25ClO4+
305.1549	21	C21H21O2+
306.1608	173	C21H22O2+
307.1647	36	C20[13]CH22O2+
308.0973	16	C20H17ClO+
309.1028	28	C20H18ClO+
309.1428	14	C21H22Cl+
309.1837	16	C15H30ClO4+
310.1058	15	C14H24Cl2O3+
311.1007	11	C20H18[37]ClO+
311.1206	14	C20H20ClO+
313.0981	38	C19H18ClO2+
313.1346	50	C14H27Cl2O3+
314.1036	10	C18[13]CH18ClO2+
314.1425	93	C20H23ClO+
315.1268	19	C14H27Cl[37]ClO3+
315.1452	28	C19[13]CH23ClO+
316.1396	24	C20H23[37]ClO+
316.1564	11	C14H30Cl2O3+
317.1302	10	C19H22ClO2+
317.147	14	C10H31Cl2O6+
319.1233	16	C16H25Cl2O2+
319.1682	212	C22H23O2+
320.1718	66	C21[13]CH23O2+
321.1777	10	C17H31Cl2O+
322.1095	16	C15H24Cl2O3+
323.1641	12	C21H23O3+
325.1417	10	C14H26ClO6+
327.1177	10	C26H15+
327.151	111	C21H24ClO+
328.1515	31	C20[13]CH24ClO+
329.149	31	C21H24[37]ClO+
331.1399	13	C14H29Cl2O4+
337.1357	266	C22H22ClO+
337.1788	19	C22H25O3+
338.1389	80	C21[13]CH22ClO+
338.1848	9	C21[13]CH25O3+
339.1326	83	C22H22[37]ClO+
340.131	9	C20H20O5+
342.1405	9	C27H18+
345.1573	24	C21H26ClO2+
347.161	8	C21H26[37]ClO2+
355.1457	726	C22H24ClO2+
356.1478	176	C21[13]CH24ClO2+
357.1424	196	C22H24[37]ClO2+
358.1445	27	C19H28Cl2O2+
363.095	16	C26H16Cl+
364.0968	9	C25[13]CH16Cl+
365.087	15	C23H19Cl2+
373.1112	17	C22H23Cl2O+
373.178	61	C25H25O3+
374.1609	9	C22H27ClO3+
374.1851	14	C24[13]CH25O3+
375.1109	15	C22H23Cl[37]ClO+
375.1504	14	C25H24ClO+
391.1223	123	C22H25Cl2O2+
392.125	49	C23H20O6+
393.1184	98	C22H25Cl[37]ClO2+
394.1262	10	C25H24Cl2+
415.1437	17	C21H29Cl2O4+
457.183	22	C26H30ClO5+
503.1379	85	C27H29Cl2O5+
504.1408	23	C26[13]CH29Cl2O5+
505.1379	60	C27H29Cl[37]ClO5+
506.1369	8	C26H28Cl2O6+
