Mass spectrum: Arprinocid; LC-ESI-QTOF; MS2; CE: 50 eV; R=35000; [M+H]+
Name: Arprinocid
Name: 9-[(2-chloro-6-fluorophenyl)methyl]purin-6-amine
Formula: C12H9ClFN5
Exact mass: 277.0530512
SMILES: c1cc(c(c(c1)Cl)Cn2cnc3c2ncnc3N)F
InChI: InChI=1S/C12H9ClFN5/c13-8-2-1-3-9(14)7(8)4-19-6-18-10-11(15)16-5-17-12(10)19/h1-3,5-6H,4H2,(H2,15,16,17)
Instrument: Bruker maXis Impact
Instrument type: LC-ESI-QTOF
Ms type: MS2
Ion mode: POSITIVE
Ionization: ESI
Fragmentation mode: CID
Collision energy: 50 eV
Resolution: 35000
Column name: Acclaim RSLC C18 2.2um, 2.1x100mm, Thermo
Retention time: 6.6 min
Base peak: 278.0602
Precursor m/z: 278.0603
Precursor type: [M+H]+
m/z	relative intensity	assigned
116.9903	23	C5H3ClF+
118.9868	6	ClN6+
122.999	7	C2H3ClFN3+
143.0049	999	C7H5ClF+
144.0088	43	C3H3ClN5+
146.0054	5	C3H3[37]ClN5+
