Mass spectrum: Metamitron; LC-ESI-QTOF; MS2; CE: 30 eV; R=35000; [M+H]+
Name: Metamitron
Name: 4-amino-3-methyl-6-phenyl-1,2,4-triazin-5-one
Formula: C10H10N4O
Exact mass: 202.0854609
SMILES: CC1=NN=C(C(=O)N1N)C1=CC=CC=C1
InChI: InChI=1S/C10H10N4O/c1-7-12-13-9(10(15)14(7)11)8-5-3-2-4-6-8/h2-6H,11H2,1H3
Instrument: Bruker maXis Impact
Instrument type: LC-ESI-QTOF
Ms type: MS2
Ion mode: POSITIVE
Ionization: ESI
Fragmentation mode: CID
Collision energy: 30 eV
Resolution: 35000
Column name: Acclaim RSLC C18 2.2um, 2.1x100mm, Thermo
Retention time: 5.2 min
Base peak: 203.0918
Precursor m/z: 203.0927
Precursor type: [M+H]+
m/z	relative intensity	assigned
118.0524	36	C7H6N2+
130.064	76	C9H8N+
134.0699	43	C7H8N3+
145.0376	144	C8H5N2O+
158.0706	52	C9H8N3+
159.0771	130	C9H9N3+
160.0801	36	C4H10N5O2+
173.0696	48	C10H9N2O+
174.0772	244	C10H10N2O+
175.0964	999	C9H11N4+
203.0911	289	C10H11N4O+
