Mass spectrum: Dioctyl Adipate; GC-APCI-QTOF; MS2; CE: 40 eV; R=35000; [M+H]+
Name: Dioctyl Adipate
Formula: C22H42O4
Exact mass: 370.3083
SMILES: CCCCC(CC)COC(=O)CCCCC(=O)OCC(CC)CCCC
InChI: InChI=1S/C22H42O4/c1-5-9-13-19(7-3)17-25-21(23)15-11-12-16-22(24)26-18-20(8-4)14-10-6-2/h19-20H,5-18H2,1-4H3
Instrument: Bruker 450 GC coupled to maXis Impact
Instrument type: GC-APCI-QTOF
Ms type: MS2
Ion mode: POSITIVE
Ionization: APCI
Fragmentation mode: CID
Collision energy: 40 eV
Resolution: 35000
Column name: Rxi-5Sil MS column, 30m, 0.25mm i.d., 0.25Âµm film thickness, Restek
Retention time: 22.742 min
Base peak: 371.3151
Precursor m/z: 371.3156
Precursor type: [M+H]+
m/z	relative intensity	assigned
55.0552	343	C4H7+
57.0706	724	C4H9+
59.0503	72	C3H7O+
69.0701	51	C5H9+
71.0858	344	C5H11+
83.0491	176	C5H7O+
83.3305	23	C2H43O+
101.0592	428	C5H9O2+
111.0439	253	C6H7O2+
129.0542	999	C6H9O3+
147.0672	751	C6H11O4+
148.0707	63	C6H12O4+
161.0845	12	C7H13O4+
