Mass spectrum: Fosinopril; LC-ESI-QTOF; MS2; CE: 50 eV; R=35000; [M+Na]+
Name: Fosinopril
Name: (2S,4S)-4-cyclohexyl-1-[2-[(2-methyl-1-propanoyloxypropoxy)-(4-phenylbutyl)phosphoryl]acetyl]pyrrolidine-2-carboxylic acid
Formula: C30H46NO7P
Exact mass: 563.3011894
SMILES: O=C(CP(=O)(CCCCc1ccccc1)OC(OC(=O)CC)C(C)C)N2C[C@@H](C[C@H]2C(O)=O)C3CCCCC3
InChI: InChI=1S/C30H46NO7P/c1-4-28(33)37-30(22(2)3)38-39(36,18-12-11-15-23-13-7-5-8-14-23)21-27(32)31-20-25(19-26(31)29(34)35)24-16-9-6-10-17-24/h5,7-8,13-14,22,24-26,30H,4,6,9-12,15-21H2,1-3H3,(H,34,35)/t25-,26+,30?,39?/m1/s1
Instrument: Bruker maXis Impact
Instrument type: LC-ESI-QTOF
Ms type: MS2
Ion mode: POSITIVE
Ionization: ESI
Fragmentation mode: CID
Collision energy: 50 eV
Resolution: 35000
Column name: Acclaim RSLC C18 2.2um, 2.1x100mm, Thermo
Retention time: 12.263 min
Base peak: 453.278
Precursor m/z: 586.2904
Precursor type: [M+Na]+
m/z	relative intensity	assigned
219.0549	70	C10H13NaO2P+
220.1321	216	C13H18NO2+
237.0666	287	C17H10Na+
244.1331	73	C15H18NO2+
261.0655	122	C12H15NaO3P+
262.1445	228	C15H20NO3+
279.0773	777	C19H12NaO+
280.0818	76	C18[13]CH12NaO+
458.2093	999	C25H33NO5P+
459.212	324	C24[13]CH33NO5P+
