Mass spectrum: ZON; LC-ESI-QTOF; MS2; CE: 50 eV; R=35000; [M+H]+
Name: ZON
Name: 15,17-Dihydroxy-11-methyl-12-oxabicyclo[12.4.0]octadeca-1(14),2,15,17-tetraene-7,13-dione
Name: 16,18-dihydroxy-4-methyl-3-oxabicyclo[12.4.0]octadeca-1(14),12,15,17-tetraene-2,8-dione
Class: Natural Product; Fungal metabolite
Formula: C18H22O5
Exact mass: 318.1467
SMILES: CC1CCCC(=O)CCCC=CC2=C(C(=CC(=C2)O)O)C(=O)O1
InChI: InChI=1S/C18H22O5/c1-12-6-5-9-14(19)8-4-2-3-7-13-10-15(20)11-16(21)17(13)18(22)23-12/h3,7,10-12,20-21H,2,4-6,8-9H2,1H3
Instrument: Bruker maXis Impact
Instrument type: LC-ESI-QTOF
Ms type: MS2
Ion mode: POSITIVE
Ionization: ESI
Fragmentation mode: CID
Collision energy: 50 eV
Resolution: 35000
Column name: Acclaim RSLC C18 2.2um, 2.1x100mm, Thermo
Retention time: 9.896 min
Base peak: 319.1537
Precursor m/z: 319.154
Precursor type: [M+H]+
m/z	relative intensity	assigned
115.0548	232	C9H7+
123.0436	75	C7H7O2+
127.0547	98	C10H7+
128.0611	669	C10H8+
129.0692	497	C10H9+
131.05	189	C9H7O+
132.0549	107	C9H8O+
133.0647	126	C9H9O+
139.0539	151	C11H7+
141.0694	495	C11H9+
143.0505	154	C10H7O+
145.0654	95	C10H9O+
147.0431	609	C9H7O2+
147.0797	141	C10H11O+
149.0584	126	C9H9O2+
152.0614	96	C12H8+
153.0699	80	C12H9+
157.0645	999	C11H9O+
160.0517	487	C10H8O2+
161.0595	486	C10H9O2+
168.0555	153	C12H8O+
169.0635	237	C12H9O+
173.0584	70	C11H9O2+
174.0672	95	C11H10O2+
175.0384	646	C10H7O3+
175.0747	325	C11H11O2+
177.0556	68	C10H9O3+
184.052	77	C12H8O2+
185.0599	532	C12H9O2+
186.0644	121	C12H10O2+
187.0745	192	C12H11O2+
189.0538	220	C11H9O3+
197.0578	123	C13H9O2+
203.0708	142	C12H11O3+
213.0533	86	C13H9O3+
