Mass spectrum: Dodecyl acrylate; GC-APCI-QTOF; MS2; CE: 10 eV; R=35000; [M]+
Name: Dodecyl acrylate
Formula: C15H28O2
Exact mass: 240.2089
SMILES: CCCCCCCCCCCCOC(=O)C=C
InChI: InChI=1S/C15H28O2/c1-3-5-6-7-8-9-10-11-12-13-14-17-15(16)4-2/h4H,2-3,5-14H2,1H3
Instrument: Bruker 450 GC coupled to maXis Impact
Instrument type: GC-APCI-QTOF
Ms type: MS2
Ion mode: POSITIVE
Ionization: APCI
Fragmentation mode: CID
Collision energy: 10 eV
Resolution: 35000
Column name: Rxi-5Sil MS column, 30m, 0.25mm i.d., 0.25Âµm film thickness, Restek
Retention time: 14.222 min
Base peak: 270.205
Precursor m/z: 240.2084
Precursor type: [M]+
m/z	relative intensity	assigned
71.0849	62	C5H11+
73.0284	64	C3H5O2+
99.0427	55	C5H7O2+
113.0595	242	C6H9O2+
127.0754	999	C7H11O2+
129.0908	47	C7H13O2+
139.112	49	C9H15O+
141.0923	118	C8H13O2+
143.1081	55	C8H15O2+
151.1135	52	C10H15O+
155.108	89	C9H15O2+
156.1161	45	C9H16O2+
177.1655	71	C13H21+
193.1969	52	C14H25+
211.1661	94	C13H23O2+
215.2001	69	C13H27O2+
221.19	64	C15H25O+
239.1998	138	C15H27O2+
240.2078	253	C15H28O2+
