Mass spectrum: Perfluorodecanoic acid; LC-ESI-QTOF; MS2; CE: Ramp 32.3-48.5 eV; R=35000; [M-H]-
Name: Perfluorodecanoic acid
Name: 2,2,3,3,4,4,5,5,6,6,7,7,8,8,9,9,10,10,10-nonadecafluorodecanoic acid
Formula: C10HF19O2
Exact mass: 513.9673155
SMILES: OC(=O)C(F)(F)C(F)(F)C(F)(F)C(F)(F)C(F)(F)C(F)(F)C(F)(F)C(F)(F)C(F)(F)F
InChI: InChI=1S/C10HF19O2/c11-2(12,1(30)31)3(13,14)4(15,16)5(17,18)6(19,20)7(21,22)8(23,24)9(25,26)10(27,28)29/h(H,30,31)
Instrument: Bruker maXis Impact
Instrument type: LC-ESI-QTOF
Ms type: MS2
Ion mode: NEGATIVE
Ionization: ESI
Fragmentation mode: CID
Collision energy: Ramp 32.3-48.5 eV
Resolution: 35000
Column name: Acclaim RSLC C18 2.2um, 2.1x100mm, Thermo
Retention time: 11.086 min
Base peak: 59.0133
Precursor m/z: 512.96
Precursor type: [M-H]-
m/z	relative intensity	assigned
118.9937	220	C7FO-
168.9884	999	C8F3O-
169.9904	80	C7[13]CF3O-
196.9835	112	C4F7O-
218.987	303	C9F5O-
268.9813	163	C5F11-
