Mass spectrum: Idaverine; LC-ESI-QTOF; MS2; CE: 40 eV; R=35000; [M+H]+
Name: Idaverine
Name: 1-[4-[ethyl-[(2S)-1-(4-methoxyphenyl)propan-2-yl]amino]butanoyl]-N,N-dimethylpiperidine-4-carboxamide
Formula: C24H39N3O3
Exact mass: 417.2991421
SMILES: CCN(CCCC(=O)N1CCC(CC1)C(=O)N(C)C)[C@@H](C)CC2=CC=C(C=C2)OC
InChI: InChI=1S/C24H39N3O3/c1-6-26(19(2)18-20-9-11-22(30-5)12-10-20)15-7-8-23(28)27-16-13-21(14-17-27)24(29)25(3)4/h9-12,19,21H,6-8,13-18H2,1-5H3/t19-/m0/s1
Instrument: Bruker maXis Impact
Instrument type: LC-ESI-QTOF
Ms type: MS2
Ion mode: POSITIVE
Ionization: ESI
Fragmentation mode: CID
Collision energy: 40 eV
Resolution: 35000
Column name: Acclaim RSLC C18 2.2um, 2.1x100mm, Thermo
Retention time: 13.2 min
Base peak: 404.2438
Precursor m/z: 418.3064
Precursor type: [M+H]+
m/z	relative intensity	assigned
222.0402	657	C13H6N2O2+
242.1743	670	C13H24NO3+
250.0705	999	C15H10N2O2+
