Mass spectrum: N,N-Dimethyltetradecylamine-N-oxide; LC-ESI-QTOF; MS2; CE: 20 eV; R=35000; [M+H]+
Name: N,N-Dimethyltetradecylamine-N-oxide
Name: Myristamine oxide
Name: N,N-dimethyltetradecan-1-amine oxide
Formula: C16H35NO
Exact mass: 257.2718647
SMILES: CCCCCCCCCCCCCC[N+](C)(C)[O-]
InChI: InChI=1S/C16H35NO/c1-4-5-6-7-8-9-10-11-12-13-14-15-16-17(2,3)18/h4-16H2,1-3H3
Instrument: Bruker maXis Impact
Instrument type: LC-ESI-QTOF
Ms type: MS2
Ion mode: POSITIVE
Ionization: ESI
Fragmentation mode: CID
Collision energy: 20 eV
Resolution: 35000
Column name: Acclaim RSLC C18 2.2um, 2.1x100mm, Thermo
Retention time: 12.547 min
Base peak: 258.2791
Precursor m/z: 258.2791
Precursor type: [M+H]+
m/z	relative intensity	assigned
240.2678	78	C16H34N+
241.2712	11	C15[13]CH34N+
258.2789	999	C16H36NO+
259.2821	195	C15[13]CH36NO+
260.2847	11	C14[13]C2H36NO+
