Mass spectrum: Flufenacet-OXA; LC-ESI-QTOF; MS2; CE: 10 eV; R=35000; [M+H]+
Name: Flufenacet-OXA
Name: Flufenacet OA
Name: 2-(4-fluoro-N-propan-2-ylanilino)-2-oxoacetic acid
Formula: C11H12FNO3
Exact mass: 225.0801215
SMILES: CC(C)N(C(=O)C(O)=O)C1=CC=C(F)C=C1
InChI: InChI=1S/C11H12FNO3/c1-7(2)13(10(14)11(15)16)9-5-3-8(12)4-6-9/h3-7H,1-2H3,(H,15,16)
Instrument: Bruker maXis Impact
Instrument type: LC-ESI-QTOF
Ms type: MS2
Ion mode: POSITIVE
Ionization: ESI
Fragmentation mode: CID
Collision energy: 10 eV
Resolution: 35000
Column name: Acclaim RSLC C18 2.2um, 2.1x100mm, Thermo
Retention time: 5.2 min
Base peak: 150.1113
Precursor m/z: 226.0874
Precursor type: [M+H]+
m/z	relative intensity	assigned
138.0339	754	C10H4N+
165.0551	139	C9H9O3+
180.0806	863	C10H11FNO+
184.0397	999	C11H6NO2+
226.0859	672	C11H13FNO3+
