Mass spectrum: delta9-Tetrahydrocannabinol; LC-ESI-QTOF; MS2; CE: 40 eV; R=35000; [M+H]+
Name: delta9-Tetrahydrocannabinol
Name: 6,6,9-trimethyl-3-pentyl-6a,7,8,10a-tetrahydrobenzo[c]chromen-1-ol
Formula: C21H30O2
Exact mass: 314.2245802
SMILES: CCCCCC1=CC2=C(C3C=C(CCC3C(O2)(C)C)C)C(=C1)O
InChI: InChI=1S/C21H30O2/c1-5-6-7-8-15-12-18(22)20-16-11-14(2)9-10-17(16)21(3,4)23-19(20)13-15/h11-13,16-17,22H,5-10H2,1-4H3
Instrument: Bruker maXis Impact
Instrument type: LC-ESI-QTOF
Ms type: MS2
Ion mode: POSITIVE
Ionization: ESI
Fragmentation mode: CID
Collision energy: 40 eV
Resolution: 35000
Column name: Acclaim RSLC C18 2.2um, 2.1x100mm, Thermo
Retention time: 13.784 min
Base peak: 315.2345
Precursor m/z: 315.2319
Precursor type: [M+H]+
m/z	relative intensity	assigned
117.0712	22	C9H9+
119.0865	57	C9H11+
121.0647	55	C8H9O+
121.1021	36	C9H13+
123.0445	668	C7H7O2+
123.1178	38	C9H15+
131.0507	22	C9H7O+
131.0865	57	C10H11+
133.0654	33	C9H9O+
133.1003	43	C10H13+
135.0449	65	C8H7O2+
135.0809	53	C9H11O+
135.1181	70	C10H15+
137.06	230	C8H9O2+
138.066	28	C8H10O2+
143.0839	22	C11H11+
145.1005	28	C11H13+
147.046	52	C9H7O2+
147.0827	37	C10H11O+
149.0603	47	C9H9O2+
149.0957	31	C10H13O+
151.0754	42	C9H11O2+
159.082	60	C11H11O+
161.0596	70	C10H9O2+
161.0983	41	C11H13O+
163.0766	59	C10H11O2+
165.0926	84	C10H13O2+
171.0805	25	C12H11O+
174.0714	36	C11H10O2+
175.0748	34	C11H11O2+
177.0918	73	C11H13O2+
177.1282	128	C12H17O+
185.0949	28	C13H13O+
188.0848	28	C12H12O2+
189.0923	33	C12H13O2+
191.147	29	C13H19O+
193.1236	999	C12H17O2+
194.127	159	C11[13]CH17O2+
201.0939	25	C13H13O2+
202.1008	28	C13H14O2+
203.1444	23	C14H19O+
205.1241	32	C13H17O2+
207.1374	78	C13H19O2+
217.1235	99	C14H17O2+
218.1305	27	C14H18O2+
221.1585	27	C14H21O2+
231.1383	165	C15H19O2+
232.1434	30	C15H20O2+
233.1553	64	C15H21O2+
235.172	24	C15H23O2+
247.1707	64	C16H23O2+
259.171	129	C17H23O2+
