Mass spectrum: Diflufenican; LC-ESI-QTOF; MS2; CE: 10 eV; R=35000; [M-H]-
Name: Diflufenican
Name: N-(2,4-difluorophenyl)-2-[3-(trifluoromethyl)phenoxy]pyridine-3-carboxamide
Formula: C19H11F5N2O2
Exact mass: 394.0740687
SMILES: FC1=CC=C(NC(=O)C2=CC=CN=C2OC2=CC=CC(=C2)C(F)(F)F)C(F)=C1
InChI: InChI=1S/C19H11F5N2O2/c20-12-6-7-16(15(21)10-12)26-17(27)14-5-2-8-25-18(14)28-13-4-1-3-11(9-13)19(22,23)24/h1-10H,(H,26,27)
Instrument: Bruker maXis Impact
Instrument type: LC-ESI-QTOF
Ms type: MS2
Ion mode: NEGATIVE
Ionization: ESI
Fragmentation mode: CID
Collision energy: 10 eV
Resolution: 35000
Column name: Acclaim RSLC C18 2.2um, 2.1x100mm, Thermo
Retention time: 11.745 min
Base peak: 393.0658
Precursor m/z: 393.0668
Precursor type: [M-H]-
m/z	relative intensity	assigned
161.0202	52	C10H3F2-
185.0541	24	C5H8F3N2O2-
252.0437	62	C13H6F4N-
272.0505	999	C18H7FNO-
273.0545	98	C17[13]CH7FNO-
309.066	90	C17H10F5-
310.0727	17	C16[13]CH10F5-
325.0577	23	C18H8F3N2O-
329.0689	522	C18H9F4N2-
330.074	105	C17[13]CH9F4N2-
331.0792	17	C16[13]C2H9F4N2-
353.0569	94	C19H8F3N2O2-
373.0622	374	C19H9F4N2O2-
374.0585	55	C18[13]CH9F4N2O2-
393.0658	805	C19H10F5N2O2-
394.0701	150	C18[13]CH10F5N2O2-
395.0687	24	C17[13]C2H10F5N2O2-
