Mass spectrum: Flumequine; LC-ESI-QTOF; MS2; CE: 40 eV; R=35000; [M+H]+
Name: Flumequine
Formula: C14H12FNO3
Exact mass: 261.0801215
SMILES: CC1CCc2cc(cc3c2n1cc(c3=O)C(=O)O)F
InChI: InChI=1S/C14H12FNO3/c1-7-2-3-8-4-9(15)5-10-12(8)16(7)6-11(13(10)17)14(18)19/h4-7H,2-3H2,1H3,(H,18,19)
Instrument: Bruker maXis Impact
Instrument type: LC-ESI-QTOF
Ms type: MS2
Ion mode: POSITIVE
Ionization: ESI
Fragmentation mode: CID
Collision energy: 40 eV
Resolution: 35000
Column name: Acclaim RSLC C18 2.2um, 2.1x100mm, Thermo
Retention time: 7.3 min
Base peak: 262.0871
Precursor m/z: 262.0874
Precursor type: [M+H]+
m/z	relative intensity	assigned
126.0332	14	C9H4N+
144.0426	5	C9H6NO+
146.0395	43	C9H5FN+
148.0553	7	C9H7FN+
154.0392	22	C11H6O+
174.0343	222	C13H4N+
175.0384	20	C9[13]CH5FNO+
176.0869	11	C11H11FN+
192.0455	6	C10H7FNO2+
200.0876	7	C13H11FN+
202.0296	999	C11H5FNO2+
203.0331	78	C13[13]CH4NO+
216.0469	5	C12H7FNO2+
216.0817	6	C13H11FNO+
220.04	772	C11H7FNO3+
221.0439	59	C10[13]CH7FNO3+
238.0508	395	C14H8NO3+
239.0538	26	C13[13]CH8NO3+
244.0765	231	C14H11FNO2+
245.0798	28	C13[13]CH11FNO2+
262.0875	311	C14H13FNO3+
263.0909	30	C13[13]CH13FNO3+
