Mass spectrum: Pyrazophos; LC-ESI-QTOF; MS2; CE: 30 eV; R=35000; [M+H]+
Name: Pyrazophos
Name: ethyl 2-diethoxyphosphinothioyloxy-5-methylpyrazolo[1,5-a]pyrimidine-6-carboxylate
Formula: C14H20N3O5PS
Exact mass: 373.0861284
SMILES: CCOC(=O)C1=CN2N=C(OP(=S)(OCC)OCC)C=C2N=C1C
InChI: InChI=1S/C14H20N3O5PS/c1-5-19-14(18)11-9-17-12(15-10(11)4)8-13(16-17)22-23(24,20-6-2)21-7-3/h8-9H,5-7H2,1-4H3
Instrument: Bruker maXis Impact
Instrument type: LC-ESI-QTOF
Ms type: MS2
Ion mode: POSITIVE
Ionization: ESI
Fragmentation mode: CID
Collision energy: 30 eV
Resolution: 35000
Column name: Acclaim RSLC C18 2.2um, 2.1x100mm, Thermo
Retention time: 11.469 min
Base peak: 374.0932
Precursor m/z: 374.0934
Precursor type: [M+H]+
m/z	relative intensity	assigned
141.9831	9	C4H2N2O2S+
142.9913	6	H6N3O2PS+
170.0148	11	C2H9N3O2PS+
176.044	42	CH11N3O5P+
177.0515	21	CH12N3O5P+
183.0209	13	C8H8O3P+
192.0216	8	C3H13O5PS+
194.0551	354	C7H15O2PS+
195.0579	25	C6[13]CH15O2PS+
204.9367	5	C5H2O5PS+
205.0834	34	C3H16N3O5P+
206.0892	8	C9H19OPS+
208.0164	8	C9H7NO3P+
210.0322	48	C9H9NO3P+
211.0528	32	C9H11N2O2S+
222.0867	999	C10H12N3O3+
223.0896	75	C9[13]CH12N3O3+
224.0914	6	C8[13]C2H12N3O3+
236.0481	30	C10H10N3O2S+
238.064	148	C10H12N3O2S+
239.0664	15	C9[13]CH12N3O2S+
240.0603	5	C10H12N3O2[34]S+
271.9884	6	C12H4N2O4S+
300.0196	19	C14H8N2O4S+
318.0304	20	C14H10N2O5S+
328.0515	6	C12H15N3O4PS+
346.0614	25	C12H17N3O5PS+
374.093	21	C14H21N3O5PS+
