Mass spectrum: Octocrylene; LC-ESI-QTOF; MS2; CE: 50 eV; R=35000; [M+H]+
Name: Octocrylene
Name: 2-ethylhexyl 2-cyano-3,3-diphenylprop-2-enoate
Formula: C24H27NO2
Exact mass: 361.2041791
SMILES: CCCCC(CC)COC(=O)C(C#N)=C(C1=CC=CC=C1)C1=CC=CC=C1
InChI: InChI=1S/C24H27NO2/c1-3-5-12-19(4-2)18-27-24(26)22(17-25)23(20-13-8-6-9-14-20)21-15-10-7-11-16-21/h6-11,13-16,19H,3-5,12,18H2,1-2H3
Instrument: Bruker maXis Impact
Instrument type: LC-ESI-QTOF
Ms type: MS2
Ion mode: POSITIVE
Ionization: ESI
Fragmentation mode: CID
Collision energy: 50 eV
Resolution: 35000
Column name: Acclaim RSLC C18 2.2um, 2.1x100mm, Thermo
Retention time: 13.240 min
Base peak: 379.2377
Precursor m/z: 362.2115
Precursor type: [M+H]+
m/z	relative intensity	assigned
129.0317	56	C9H5O+
147.0436	43	C9H7O2+
165.0677	33	C13H9+
169.0637	48	C12H9O+
176.0605	284	C14H8+
177.0682	534	C14H9+
178.0761	222	C14H10+
179.0837	86	C14H11+
182.0949	33	C13H12N+
195.0806	34	C14H11O+
202.0639	44	C15H8N+
203.0713	637	C15H9N+
204.0794	999	C15H10N+
205.0803	230	C14[13]CH10N+
206.0932	60	C15H12N+
222.0905	33	C15H12NO+
232.0743	446	C16H10NO+
233.0768	110	C15[13]CH10NO+
250.0852	33	C16H12NO2+
