Mass spectrum: 4-Methylbenzylidene camphor; LC-ESI-QTOF; MS2; CE: 10 eV; R=35000; [M+H]+
Name: 4-Methylbenzylidene camphor
Name: 1,7,7-Trimethyl-3-(4-methylbenzylidene)bicyclo[2.2.1]heptan-2-one
Name: 1,7,7-trimethyl-3-[(4-methylphenyl)methylidene]bicyclo[2.2.1]heptan-2-one
Formula: C18H22O
Exact mass: 254.1670653
SMILES: CC1=CC=C(C=C2C3CCC(C)(C2=O)C3(C)C)C=C1
InChI: InChI=1S/C18H22O/c1-12-5-7-13(8-6-12)11-14-15-9-10-18(4,16(14)19)17(15,2)3/h5-8,11,15H,9-10H2,1-4H3
Instrument: Bruker maXis Impact
Instrument type: LC-ESI-QTOF
Ms type: MS2
Ion mode: POSITIVE
Ionization: ESI
Fragmentation mode: CID
Collision energy: 10 eV
Resolution: 35000
Column name: Acclaim RSLC C18 2.2um, 2.1x100mm, Thermo
Retention time: 12.670 min
Base peak: 255.1742
Precursor m/z: 255.1743
Precursor type: [M+H]+
m/z	relative intensity	assigned
157.1	11	C12H13+
171.1155	8	C13H15+
183.1156	5	C14H15+
185.0946	5	C13H13O+
197.1309	5	C15H17+
199.1107	7	C14H15O+
212.1181	7	C15H16O+
213.126	12	C15H17O+
237.1629	27	C18H21+
255.1742	999	C18H23O+
256.1773	134	C17[13]CH23O+
257.1801	10	C16[13]C2H23O+
