Mass spectrum: 2,4-dimethylphenylformamid; LC-ESI-QTOF; MS2; CE: 40 eV; R=35000; [M+H]+
Name: 2,4-dimethylphenylformamid
Name: N-(2,4-dimethylphenyl)formamide
Formula: C9H11NO
Exact mass: 149.084064
SMILES: CC1=CC(C)=C(NC=O)C=C1
InChI: InChI=1S/C9H11NO/c1-7-3-4-9(10-6-11)8(2)5-7/h3-6H,1-2H3,(H,10,11)
Instrument: Bruker maXis Impact
Instrument type: LC-ESI-QTOF
Ms type: MS2
Ion mode: POSITIVE
Ionization: ESI
Fragmentation mode: CID
Collision energy: 40 eV
Resolution: 35000
Column name: Acclaim RSLC C18 2.2um, 2.1x100mm, Thermo
Retention time: 6.4 min
Base peak: 150.0905
Precursor m/z: 150.0913
Precursor type: [M+H]+
m/z	relative intensity	assigned
106.0657	419	C7H8N+
107.0703	169	C2H9N3O2+
117.0567	999	C8H7N+
120.0801	446	C8H10N+
