Mass spectrum: Oxfendazole; LC-ESI-QTOF; MS2; CE: 10 eV; R=35000; [M+H]+
Name: Oxfendazole
Name: methyl N-[6-(benzenesulfinyl)-1H-benzimidazol-2-yl]carbamate
Formula: C15H13N3O3S
Exact mass: 315.0677623
SMILES: COC(=O)Nc1[nH]c2ccc(cc2n1)S(=O)c3ccccc3
InChI: InChI=1S/C15H13N3O3S/c1-21-15(19)18-14-16-12-8-7-11(9-13(12)17-14)22(20)10-5-3-2-4-6-10/h2-9H,1H3,(H2,16,17,18,19)
Instrument: Bruker maXis Impact
Instrument type: LC-ESI-QTOF
Ms type: MS2
Ion mode: POSITIVE
Ionization: ESI
Fragmentation mode: CID
Collision energy: 10 eV
Resolution: 35000
Column name: Acclaim RSLC C18 2.2um, 2.1x100mm, Thermo
Retention time: 6.5 min
Base peak: 278.0601
Precursor m/z: 316.075
Precursor type: [M+H]+
m/z	relative intensity	assigned
284.048	14	C14H10N3O2S+
316.0746	999	C15H14N3O3S+
317.0779	128	C14[13]CH14N3O3S+
318.0731	37	C15H14N3O3[34]S+
