Mass spectrum: Phenazone; LC-ESI-QTOF; MS2; CE: 50 eV; R=35000; [M+H]+
Name: Phenazone
Name: Antipyrine
Name: 1,5-dimethyl-2-phenylpyrazol-3-one
Formula: C11H12N2O
Exact mass: 188.0949630
SMILES: CN1N(C(=O)C=C1C)C1=CC=CC=C1
InChI: InChI=1S/C11H12N2O/c1-9-8-11(14)13(12(9)2)10-6-4-3-5-7-10/h3-8H,1-2H3
Instrument: Bruker maXis Impact
Instrument type: LC-ESI-QTOF
Ms type: MS2
Ion mode: POSITIVE
Ionization: ESI
Fragmentation mode: CID
Collision energy: 50 eV
Resolution: 35000
Column name: Acclaim RSLC C18 2.2um, 2.1x100mm, Thermo
Retention time: 4.710 min
Base peak: 264.196
Precursor m/z: 189.1022
Precursor type: [M+H]+
m/z	relative intensity	assigned
115.054	273	C9H7+
117.0564	232	C8H7N+
118.0638	160	C8H8N+
119.0613	20	C7H7N2+
120.0792	24	C8H10N+
127.0539	19	C10H7+
128.0483	257	C9H6N+
129.0558	151	C9H7N+
130.064	997	C9H8N+
131.0593	999	C8H7N2+
132.0433	66	C8H6NO+
132.0663	357	C8H8N2+
133.0516	46	C8H7NO+
133.0707	34	C7[13]CH8N2+
134.0457	25	C7H6N2O+
142.0644	17	C10H8N+
143.0718	96	C10H9N+
144.0792	183	C10H10N+
145.0748	476	C9H9N2+
146.059	80	C9H8NO+
146.0816	111	C9H10N2+
147.065	15	C8[13]CH8NO+
147.0907	114	C9H11N2+
155.0585	59	C10H7N2+
156.0426	17	C10H6NO+
158.0466	32	C9H6N2O+
159.0899	42	C10H11N2+
173.0705	34	C10H9N2O+
