Mass spectrum: Diazinon; LC-ESI-QTOF; MS2; CE: 10 eV; R=35000; [M+H]+
Name: Diazinon
Name: diethoxy-(6-methyl-2-propan-2-ylpyrimidin-4-yl)oxy-sulfanylidene-$l^{5}-phosphane
Formula: C12H21N2O3PS
Exact mass: 304.1010502
SMILES: CCOP(=S)(OCC)OC1=NC(=NC(C)=C1)C(C)C
InChI: InChI=1S/C12H21N2O3PS/c1-6-15-18(19,16-7-2)17-11-8-10(5)13-12(14-11)9(3)4/h8-9H,6-7H2,1-5H3
Instrument: Bruker maXis Impact
Instrument type: LC-ESI-QTOF
Ms type: MS2
Ion mode: POSITIVE
Ionization: ESI
Fragmentation mode: CID
Collision energy: 10 eV
Resolution: 35000
Column name: Acclaim RSLC C18 2.2um, 2.1x100mm, Thermo
Retention time: 10.8 min
Base peak: 305.1091
Precursor m/z: 305.1083
Precursor type: [M+H]+
m/z	relative intensity	assigned
169.0786	62	C8H13N2S+
305.1119	999	C12H22N2O3PS+
306.1116	36	C11[13]CH22N2O3PS+
307.1064	81	C12H22N2O3P[34]S+
308.1078	4	C11[13]CH22N2O3P[34]S+
