Mass spectrum: Orlistat; LC-ESI-QTOF; MS2; CE: 10 eV; R=35000; [M-H]-
Name: Orlistat
Name: [(2S)-1-[(2S,3S)-3-hexyl-4-oxooxetan-2-yl]tridecan-2-yl] (2S)-2-formamido-4-methylpentanoate
Formula: C29H53NO5
Exact mass: 495.3923738
SMILES: CCCCCCCCCCC[C@@H](C[C@@H]1OC(=O)[C@H]1CCCCCC)OC(=O)[C@H](CC(C)C)NC=O
InChI: InChI=1S/C29H53NO5/c1-5-7-9-11-12-13-14-15-16-18-24(34-29(33)26(30-22-31)20-23(3)4)21-27-25(28(32)35-27)19-17-10-8-6-2/h22-27H,5-21H2,1-4H3,(H,30,31)/t24-,25-,26-,27-/m0/s1
Instrument: Bruker maXis Impact
Instrument type: LC-ESI-QTOF
Ms type: MS2
Ion mode: NEGATIVE
Ionization: ESI
Fragmentation mode: CID
Collision energy: 10 eV
Resolution: 35000
Column name: Acclaim RSLC C18 2.2um, 2.1x100mm, Thermo
Retention time: 14.496 min
Base peak: 283.2648
Precursor m/z: 494.3851
Precursor type: [M-H]-
m/z	relative intensity	assigned
140.0711	471	C7H10NO2-
141.0724	45	C6[13]CH10NO2-
158.0823	999	C7H12NO3-
159.0854	90	C6[13]CH12NO3-
266.1767	103	C15H24NO3-
450.3965	38	C28H52NO3-
494.3784	47	C29H52NO5-
