Mass spectrum: Ethion; LC-ESI-QTOF; MS2; CE: 20 eV; R=35000; [M+H]+
Name: Ethion
Name: diethoxyphosphinothioylsulfanylmethylsulfanyl-diethoxy-sulfanylidene-lambda5-phosphane
Formula: C9H22O4P2S4
Exact mass: 383.9876164
SMILES: CCOP(=S)(OCC)SCSP(=S)(OCC)OCC
InChI: InChI=1S/C9H22O4P2S4/c1-5-10-14(16,11-6-2)18-9-19-15(17,12-7-3)13-8-4/h5-9H2,1-4H3
Instrument: Bruker maXis Impact
Instrument type: LC-ESI-QTOF
Ms type: MS2
Ion mode: POSITIVE
Ionization: ESI
Fragmentation mode: CID
Collision energy: 20 eV
Resolution: 35000
Column name: Acclaim RSLC C18 2.2um, 2.1x100mm, Thermo
Retention time: 12.474 min
Base peak: 384.995
Precursor m/z: 384.9949
Precursor type: [M+H]+
m/z	relative intensity	assigned
114.9606	12	H4O3PS+
124.9811	54	C2H6O2PS+
126.9428	12	CH4OPS2+
142.9375	878	CH4O2PS2+
143.9381	13	CH4O2PS[33]S+
144.9333	51	CH4O2PS[34]S+
153.0124	311	C4H10O2PS+
154.0155	14	C3[13]CH10O2PS+
154.9735	22	C3H8OPS2+
155.0081	12	C4H10O2P[34]S+
170.9688	999	C6H4O2PS+
171.0231	134	C4H12O3PS+
171.9709	36	C5[13]CH4O2PS+
172.026	7	C3[13]CH12O3PS+
172.9644	65	C6H4O2P[34]S+
173.0182	6	C4H12O3P[34]S+
174.9095	8	CH4O2PS3+
184.9848	8	C4H10O2PS2+
187.0001	6	C4H12O2PS2+
199.0004	658	C5H12O2PS2+
200.0029	36	C4[13]CH12O2PS2+
200.9962	38	C5H12O2PS[34]S+
202.9415	18	C3H8O2PS3+
215.0317	32	C6H16O2PS2+
230.9725	59	C8H8O2PS2+
231.9747	5	C7[13]CH8O2PS2+
232.9679	7	C8H8O2PS[34]S+
292.965	6	C6H15O3P2S3+
