Mass spectrum: Chlordiazepoxide; LC-ESI-QTOF; MS2; CE: RAMP 21.6-32.4 eV; R=35000; [M+H]+
Name: Chlordiazepoxide
Formula: C16H14ClN3O
Exact mass: 299.0825397
SMILES: C/N=C\1/C[N+](=C(c2cc(ccc2N1)Cl)c3ccccc3)[O-]
InChI: InChI=1S/C16H14ClN3O/c1-18-15-10-20(21)16(11-5-3-2-4-6-11)13-9-12(17)7-8-14(13)19-15/h2-9H,10H2,1H3,(H,18,19)
Instrument: Bruker maXis Impact
Instrument type: LC-ESI-QTOF
Ms type: MS2
Ion mode: POSITIVE
Ionization: ESI
Fragmentation mode: CID
Collision energy: RAMP 21.6-32.4 eV
Resolution: 35000
Column name: Acclaim RSLC C18 2.2um, 2.1x100mm, Thermo
Retention time: 8.949 min
Base peak: 300.0905
Precursor m/z: 300.0898
Precursor type: [M+H]+
m/z	relative intensity	assigned
57.0437	27	C2H5N2+
60.0547	19	CH6N3+
105.0339	11	C4H8ClN+
168.0203	5	C8H7ClNO+
180.0441	13	C12H6NO+
192.081	6	C14H10N+
193.0881	12	C14H11N+
218.0835	5	C15H10N2+
219.0911	14	C15H11N2+
220.0987	13	C15H12N2+
227.0498	380	C14H10ClN+
229.0472	102	C16H7NO+
230.0514	6	C15[13]CH7NO+
241.0528	74	C14H10ClN2+
242.0577	22	C14H11ClN2+
243.0502	20	C14H10[37]ClN2+
246.0666	5	C15H8N3O+
246.102	13	C16H12N3+
247.11	64	C16H13N3+
248.1155	16	C15[13]CH13N3+
251.0367	7	C15H8ClN2+
252.0446	13	C15H9ClN2+
253.0537	8	C15H10ClN2+
254.0593	6	C15H11ClN2+
255.0684	75	C15H12ClN2+
256.0735	13	C14[13]CH12ClN2+
257.0653	15	C15H12[37]ClN2+
266.061	16	C16H11ClN2+
267.0579	7	C15H10ClN3+
268.061	13	C15H11ClN3+
269.0494	5	C15H10ClN2O+
269.0842	12	C16H14ClN2+
282.08	999	C16H13ClN3+
283.0866	436	C16H14ClN3+
284.0779	260	C16H13[37]ClN3+
285.0841	114	C16H14ClN2O+
286.0879	7	C15[13]CH14ClN2O+
300.0902	167	C16H15ClN3O+
301.0928	24	C15[13]CH15ClN3O+
302.088	33	C16H15[37]ClN3O+
