Mass spectrum: 2-(4-Morpholinyl)benzothiazole; LC-ESI-QTOF; MS2; CE: 20 eV; R=35000; [M+H]+
Name: 2-(4-Morpholinyl)benzothiazole
Name: 4-(1,3-benzothiazol-2-yl)morpholine
Formula: C11H12N2OS
Exact mass: 220.0670340
SMILES: C1CN(CCO1)C1=NC2=CC=CC=C2S1
InChI: InChI=1S/C11H12N2OS/c1-2-4-10-9(3-1)12-11(15-10)13-5-7-14-8-6-13/h1-4H,5-8H2
Instrument: Bruker maXis Impact
Instrument type: LC-ESI-QTOF
Ms type: MS2
Ion mode: POSITIVE
Ionization: ESI
Fragmentation mode: CID
Collision energy: 20 eV
Resolution: 35000
Column name: Acclaim RSLC C18 2.2um, 2.1x100mm, Thermo
Retention time: 8.497 min
Base peak: 221.0741
Precursor m/z: 221.0743
Precursor type: [M+H]+
m/z	relative intensity	assigned
136.0206	19	C7H6NS+
149.0224	23	C11H3N+
150.0362	35	C8H8NS+
177.0474	220	C9H9N2S+
178.05	16	C8[13]CH9N2S+
179.0428	6	C9H9N2[34]S+
221.0746	999	C11H13N2OS+
222.0769	131	C10[13]CH13N2OS+
223.0705	40	C11H13N2O[34]S+
