Mass spectrum: N-Phenyl-1-naphthylamine; LC-ESI-QTOF; MS2; CE: 30 eV; R=35000; [M+H]+
Name: N-Phenyl-1-naphthylamine
Formula: C16H13N
Exact mass: 219.1047994
SMILES: N(C1=CC=CC=C1)C1=CC=CC2=C1C=CC=C2
InChI: InChI=1S/C16H13N/c1-2-9-14(10-3-1)17-16-12-6-8-13-7-4-5-11-15(13)16/h1-12,17H
Instrument: Bruker maXis Impact
Instrument type: LC-ESI-QTOF
Ms type: MS2
Ion mode: POSITIVE
Ionization: ESI
Fragmentation mode: CID
Collision energy: 30 eV
Resolution: 35000
Column name: Acclaim RSLC C18 2.2um, 2.1x100mm, Thermo
Retention time: 11.642 min
Base peak: 220.1112
Precursor m/z: 220.1121
Precursor type: [M+H]+
m/z	relative intensity	assigned
115.0537	80	C9H7+
116.0605	15	C9H8+
126.0455	5	C10H6+
127.0532	11	C10H7+
128.0612	102	C10H8+
129.0644	16	C9[13]CH8+
142.0642	48	C10H8N+
143.0718	999	C10H9N+
144.075	135	C9[13]CH9N+
145.0795	8	C8[13]C2H9N+
165.0695	5	C13H9+
178.0748	14	C14H10+
191.0839	7	C15H11+
192.091	7	C15H12+
193.0977	9	C15H13+
202.077	34	C16H10+
203.0844	40	C16H11+
204.0806	29	C15H10N+
205.0866	21	C15H11N+
206.0914	5	C14[13]CH11N+
217.087	46	C16H11N+
218.0954	128	C16H12N+
219.1025	99	C16H13N+
220.1106	154	C16H14N+
221.115	29	C15[13]CH14N+
