Mass spectrum: Ethyl 4-(dimethylamino)benzoate; LC-ESI-QTOF; MS2; CE: 50 eV; R=35000; [M+H]+
Name: Ethyl 4-(dimethylamino)benzoate
Name: Ethyl 4-dimethylaminobenzoate
Formula: C11H15NO2
Exact mass: 193.1102787
SMILES: CCOC(=O)C1=CC=C(C=C1)N(C)C
InChI: InChI=1S/C11H15NO2/c1-4-14-11(13)9-5-7-10(8-6-9)12(2)3/h5-8H,4H2,1-3H3
Instrument: Bruker maXis Impact
Instrument type: LC-ESI-QTOF
Ms type: MS2
Ion mode: POSITIVE
Ionization: ESI
Fragmentation mode: CID
Collision energy: 50 eV
Resolution: 35000
Column name: Acclaim RSLC C18 2.2um, 2.1x100mm, Thermo
Retention time: 10.557 min
Base peak: 223.063
Precursor m/z: 194.1176
Precursor type: [M+H]+
m/z	relative intensity	assigned
134.059	925	C8H8NO+
150.0548	999	C8H8NO2+
