Mass spectrum: Diuron-desdimethyl; LC-ESI-QTOF; MS2; CE: 40 eV; R=35000; [M+H]+
Name: Diuron-desdimethyl
Name: 1-(3,4-Dichlorophenyl)urea
Name: (3,4-dichlorophenyl)urea
Formula: C7H6Cl2N2O
Exact mass: 203.9857182
SMILES: NC(=O)NC1=CC(Cl)=C(Cl)C=C1
InChI: InChI=1S/C7H6Cl2N2O/c8-5-2-1-4(3-6(5)9)11-7(10)12/h1-3H,(H3,10,11,12)
Instrument: Bruker maXis Impact
Instrument type: LC-ESI-QTOF
Ms type: MS2
Ion mode: POSITIVE
Ionization: ESI
Fragmentation mode: CID
Collision energy: 40 eV
Resolution: 35000
Column name: Acclaim RSLC C18 2.2um, 2.1x100mm, Thermo
Retention time: 7.9 min
Base peak: 204.9925
Precursor m/z: 204.993
Precursor type: [M+H]+
m/z	relative intensity	assigned
123.9953	12	C6H3ClN+
125.0019	45	C6H4ClN+
126.0072	10	CH5ClN3O2+
127.0173	999	C6H6ClN+
128.0201	60	C5[13]CH6ClN+
129.0139	289	C6CH6[37]ClN+
130.0186	13	C5[13]CH6[37]ClN+
132.96	89	C5H3Cl2+
144.96	9	C6H3Cl2+
159.9701	38	C6H4Cl2N+
161.9673	31	Cl2H4N4O2+
172.9651	24	C6H3Cl2N2+
174.9618	11	C6H13[37]Cl[35]ClN2+
