Mass spectrum: N,N-Dimethyldodecylamine N-oxide; LC-ESI-QTOF; MS2; CE: 30 eV; R=35000; [M+H]+
Name: N,N-Dimethyldodecylamine N-oxide
Name: Dodecyldimethylamine oxide
Name: N,N-dimethyldodecan-1-amine oxide
Formula: C14H31NO
Exact mass: 229.2405646
SMILES: CCCCCCCCCCCC[N+](C)(C)[O-]
InChI: InChI=1S/C14H31NO/c1-4-5-6-7-8-9-10-11-12-13-14-15(2,3)16/h4-14H2,1-3H3
Instrument: Bruker maXis Impact
Instrument type: LC-ESI-QTOF
Ms type: MS2
Ion mode: POSITIVE
Ionization: ESI
Fragmentation mode: CID
Collision energy: 30 eV
Resolution: 35000
Column name: Acclaim RSLC C18 2.2um, 2.1x100mm, Thermo
Retention time: 11.142 min
Base peak: 230.2475
Precursor m/z: 230.2478
Precursor type: [M+H]+
m/z	relative intensity	assigned
114.1263	10	C7H16N+
128.1429	33	C8H18N+
142.1587	26	C9H20N+
156.1735	16	C10H22N+
170.1876	19	C11H24N+
184.2036	10	C12H26N+
198.2201	64	C13H28N+
212.2361	999	C14H30N+
213.2397	159	C13[13]CH30N+
214.2423	15	C12[13]C2H30N+
230.2468	569	C14H32NO+
231.2504	88	C13[13]CH32NO+
