Mass spectrum: Dimethenamid-OXA; LC-ESI-QTOF; MS2; CE: 10 eV; R=35000; [M+H]+
Name: Dimethenamid-OXA
Name: 2-[(2,4-dimethylthiophen-3-yl)-(1-methoxypropan-2-yl)amino]-2-oxoacetic acid
Formula: C12H17NO4S
Exact mass: 271.0878290
SMILES: COCC(C)N(C(=O)C(O)=O)c1c(C)csc1C
InChI: InChI=1S/C12H17NO4S/c1-7-6-18-9(3)10(7)13(8(2)5-17-4)11(14)12(15)16/h6,8H,5H2,1-4H3,(H,15,16)
Instrument: Bruker maXis Impact
Instrument type: LC-ESI-QTOF
Ms type: MS2
Ion mode: POSITIVE
Ionization: ESI
Fragmentation mode: CID
Collision energy: 10 eV
Resolution: 35000
Column name: Acclaim RSLC C18 2.2um, 2.1x100mm, Thermo
Retention time: 6.2 min
Base peak: 150.1117
Precursor m/z: 272.0951
Precursor type: [M+H]+
m/z	relative intensity	assigned
168.0856	5	C9H14NS+
196.0781	20	C10H14NOS+
200.1086	22	C10H18NOS+
226.0898	34	C11H16NO2S+
240.0689	999	C11H14NO3S+
241.0718	125	C10[13]CH14NO3S+
242.0653	35	C11H14NO3[34]S+
272.0953	341	C12H18NO4S+
273.0984	55	C11[13]CH18NO4S+
274.0944	20	C12H18NO4[34]S+
