Mass spectrum: Benzidine; LC-ESI-QTOF; MS2; CE: 40 eV; R=35000; [M+H]+
Name: Benzidine
Name: 4-(4-aminophenyl)aniline
Formula: C12H12N2
Exact mass: 184.1000484
SMILES: NC1=CC=C(C=C1)C1=CC=C(N)C=C1
InChI: InChI=1S/C12H12N2/c13-11-5-1-9(2-6-11)10-3-7-12(14)8-4-10/h1-8H,13-14H2
Instrument: Bruker maXis Impact
Instrument type: LC-ESI-QTOF
Ms type: MS2
Ion mode: POSITIVE
Ionization: ESI
Fragmentation mode: CID
Collision energy: 40 eV
Resolution: 35000
Column name: Acclaim RSLC C18 2.2um, 2.1x100mm, Thermo
Retention time: 3.981 min
Base peak: 199.0971
Precursor m/z: 185.1073
Precursor type: [M+H]+
m/z	relative intensity	assigned
115.0534	89	C9H7+
116.0576	13	C8[13]CH7+
117.0565	54	C8H7N+
118.0606	6	C7[13]CH7N+
125.038	6	C10H5+
126.0445	16	C10H6+
127.0525	14	C10H7+
128.0488	14	C9H6N+
128.0608	60	C10H8+
129.0684	46	C10H9+
130.064	115	C9H8N+
131.0682	18	C8[13]CH8N+
132.0784	5	C9H10N+
139.053	217	C11H7+
140.0488	73	C10H6N+
140.0591	90	C11H8+
141.0561	32	C10H7N+
141.0684	127	C11H9+
142.0651	28	C10H8N+
143.0713	61	C10H9N+
150.0452	74	C12H6+
151.052	65	C12H7+
152.0604	76	C12H8+
153.0558	48	C11H7N+
154.0636	35	C11H8N+
155.0591	31	C10H7N2+
156.0793	394	C11H10N+
157.0846	67	C10[13]CH10N+
158.0834	24	C10H10N2+
165.0556	7	C12H7N+
166.0638	367	C12H8N+
167.0715	999	C12H9N+
168.0762	171	C11[13]CH9N+
170.0869	7	C11H10N2+
179.059	45	C12H7N2+
181.0748	34	C12H9N2+
182.0824	160	C12H10N2+
183.0899	219	C12H11N2+
184.0976	263	C12H12N2+
185.1013	34	C11[13]CH12N2+
