Mass spectrum: N-Methyl-2-pyrrolidone; LC-ESI-QTOF; MS2; CE: Ramp 14.4-21.6 eV; R=35000; [M+H]+
Name: N-Methyl-2-pyrrolidone
Name: 1-Methyl-2-pyrrolidinone
Name: 1-methylpyrrolidin-2-one
Formula: C5H9NO
Exact mass: 99.06841391
SMILES: CN1CCCC1=O
InChI: InChI=1S/C5H9NO/c1-6-4-2-3-5(6)7/h2-4H2,1H3
Instrument: Bruker maXis Impact
Instrument type: LC-ESI-QTOF
Ms type: MS2
Ion mode: POSITIVE
Ionization: ESI
Fragmentation mode: CID
Collision energy: Ramp 14.4-21.6 eV
Resolution: 35000
Column name: Acclaim RSLC C18 2.2um, 2.1x100mm, Thermo
Retention time: 3.101 min
Base peak: 315.1486
Precursor m/z: 100.0757
Precursor type: [M+H]+
m/z	relative intensity	assigned
55.0537	22	C4H7+
56.0487	37	C3H6N+
58.0281	999	C2H4NO+
58.0644	90	C3H8N+
67.0427	24	C4H5N+
69.0329	254	C4H5O+
71.0493	23	C4H7O+
72.0792	34	C4H10N+
82.0652	28	C5H8N+
100.0763	832	C5H10NO+
