Mass spectrum: Oseltamivir; LC-ESI-QTOF; MS2; CE: 30 eV; R=35000; [M+H]+
Name: Oseltamivir
Name: ethyl (3R,4R,5S)-4-acetamido-5-amino-3-pentan-3-yloxycyclohexene-1-carboxylate
Formula: C16H28N2O4
Exact mass: 312.2049074
SMILES: CCOC(=O)C1=C[C@@H](OC(CC)CC)[C@H](NC(C)=O)[C@@H](N)C1
InChI: InChI=1S/C16H28N2O4/c1-5-12(6-2)22-14-9-11(16(20)21-7-3)8-13(17)15(14)18-10(4)19/h9,12-15H,5-8,17H2,1-4H3,(H,18,19)/t13-,14+,15+/m0/s1
Instrument: Bruker maXis Impact
Instrument type: LC-ESI-QTOF
Ms type: MS2
Ion mode: POSITIVE
Ionization: ESI
Fragmentation mode: CID
Collision energy: 30 eV
Resolution: 35000
Column name: Acclaim RSLC C18 2.2um, 2.1x100mm, Thermo
Retention time: 6.8 min
Base peak: 313.2119
Precursor m/z: 313.2122
Precursor type: [M+H]+
m/z	relative intensity	assigned
119.0601	14	C7H7N2+
120.0437	334	C7H6NO+
121.0281	6	C7H5O2+
121.0465	29	C6[13]CH6NO+
122.0959	21	C8H12N+
123.0794	10	C8H11O+
133.0758	9	C8H9N2+
134.0585	5	C5H10O4+
136.0748	81	C8H10NO+
137.0699	230	C7H9N2O+
138.0538	138	C7H8NO2+
138.0731	15	C2H10N4O3+
138.0905	13	C8H12NO+
139.0367	22	C7H7O3+
139.0559	12	C11H7+
139.0743	23	C8H11O2+
140.0702	20	C7H10NO2+
151.0855	19	C8H11N2O+
152.0693	5	C8H10NO2+
154.0851	9	C8H12NO2+
155.081	6	C7H11N2O2+
161.0702	24	C9H9N2O+
162.0536	72	C9H8NO2+
163.0577	9	C4H9N3O4+
164.1076	5	C10H14NO+
166.0853	999	C9H12NO2+
167.0691	14	C9H11O3+
167.0889	101	C8[13]CH12NO2+
168.0906	10	C8H12N2O2+
179.0804	32	C9H11N2O2+
180.0648	31	C9H10NO3+
183.1122	25	C9H15N2O2+
184.0957	7	C9H14NO3+
207.1141	5	C11H15N2O2+
208.0956	61	C11H14NO3+
209.101	7	C11H15NO3+
225.1218	13	C11H17N2O3+
226.1068	23	C11H16NO4+
227.1092	7	C15H15O2+
