Mass spectrum: Fosinopril; LC-ESI-QTOF; MS2; CE: 20 eV; R=35000; [M+H]+
Name: Fosinopril
Name: (2S,4S)-4-cyclohexyl-1-[2-[(2-methyl-1-propanoyloxypropoxy)-(4-phenylbutyl)phosphoryl]acetyl]pyrrolidine-2-carboxylic acid
Formula: C30H46NO7P
Exact mass: 563.3011894
SMILES: O=C(CP(=O)(CCCCc1ccccc1)OC(OC(=O)CC)C(C)C)N2C[C@@H](C[C@H]2C(O)=O)C3CCCCC3
InChI: InChI=1S/C30H46NO7P/c1-4-28(33)37-30(22(2)3)38-39(36,18-12-11-15-23-13-7-5-8-14-23)21-27(32)31-20-25(19-26(31)29(34)35)24-16-9-6-10-17-24/h5,7-8,13-14,22,24-26,30H,4,6,9-12,15-21H2,1-3H3,(H,34,35)/t25-,26+,30?,39?/m1/s1
Instrument: Bruker maXis Impact
Instrument type: LC-ESI-QTOF
Ms type: MS2
Ion mode: POSITIVE
Ionization: ESI
Fragmentation mode: CID
Collision energy: 20 eV
Resolution: 35000
Column name: Acclaim RSLC C18 2.2um, 2.1x100mm, Thermo
Retention time: 12.296 min
Base peak: 564.3122
Precursor m/z: 564.3085
Precursor type: [M+H]+
m/z	relative intensity	assigned
152.1431	7	C10H18N+
390.222	82	C29H28N+
391.2246	20	C28[13]CH28N+
418.2173	379	C30H28NO+
419.2202	92	C20H36O7P+
420.222	14	C19[13]CH36O7P+
436.2287	999	C30H30NO2+
437.2315	199	C27H33O5+
438.2348	24	C26[13]CH33O5+
492.2573	9	C27H41O6P+
