Mass spectrum: Dioctyl Adipate; GC-APCI-QTOF; MS2; CE: 10 eV; R=35000; [M+H]+
Name: Dioctyl Adipate
Formula: C22H42O4
Exact mass: 370.3083
SMILES: CCCCC(CC)COC(=O)CCCCC(=O)OCC(CC)CCCC
InChI: InChI=1S/C22H42O4/c1-5-9-13-19(7-3)17-25-21(23)15-11-12-16-22(24)26-18-20(8-4)14-10-6-2/h19-20H,5-18H2,1-4H3
Instrument: Bruker 450 GC coupled to maXis Impact
Instrument type: GC-APCI-QTOF
Ms type: MS2
Ion mode: POSITIVE
Ionization: APCI
Fragmentation mode: CID
Collision energy: 10 eV
Resolution: 35000
Column name: Rxi-5Sil MS column, 30m, 0.25mm i.d., 0.25Âµm film thickness, Restek
Retention time: 22.756 min
Base peak: 371.315
Precursor m/z: 371.3156
Precursor type: [M+H]+
m/z	relative intensity	assigned
57.0703	5	C4H9+
71.0856	9	C5H11+
111.0446	14	C6H7O2+
129.0545	494	C6H9O3+
147.0661	999	C6H11O4+
148.07	60	C6H12O4+
241.1785	395	C14H25O3+
242.1833	45	C14H26O3+
257.1744	5	C14H25O4+
259.1889	516	C14H27O4+
369.3009	24	C22H41O4+
370.3086	9	C22H42O4+
371.3158	200	C22H43O4+
