Mass spectrum: Chlorfenvinphos; LC-ESI-QTOF; MS2; CE: 50 eV; R=35000; [M+H]+
Name: Chlorfenvinphos
Name: Phosphoric acid, 2-chloro-1-(2,4-dichlorophenyl)ethenyl diethyl ester
Name: [2-chloro-1-(2,4-dichlorophenyl)ethenyl] diethyl phosphate
Formula: C12H14Cl3O4P
Exact mass: 357.9695286
SMILES: CCOP(=O)(OCC)OC(=CCl)C1=C(Cl)C=C(Cl)C=C1
InChI: InChI=1S/C12H14Cl3O4P/c1-3-17-20(16,18-4-2)19-12(8-13)10-6-5-9(14)7-11(10)15/h5-8H,3-4H2,1-2H3
Instrument: Bruker maXis Impact
Instrument type: LC-ESI-QTOF
Ms type: MS2
Ion mode: POSITIVE
Ionization: ESI
Fragmentation mode: CID
Collision energy: 50 eV
Resolution: 35000
Column name: Acclaim RSLC C18 2.2um, 2.1x100mm, Thermo
Retention time: 11.027 min
Base peak: 326.1752
Precursor m/z: 358.9768
Precursor type: [M+H]+
m/z	relative intensity	assigned
122.9993	5	C6H4OP+
127.0149	14	C2H8O4P+
132.9829	29	CH7ClO3P+
133.9897	8	C2H8Cl2O2+
134.9799	8	CH7[37]ClO3P+
150.9931	5	C2H9Cl2O3+
163.0044	6	Cl2H14O3P+
168.9591	52	CH8Cl2O3P+
169.9673	999	C7H4ClOP+
170.957	27	CH8Cl[37]ClO3P+
170.9705	84	C6[13]CH4ClOP+
171.9644	414	C7H4[37]ClOP+
172.9677	27	C4H8Cl2OP+
196.9646	21	Cl3H13O3P+
198.9634	10	H13Cl2[37]ClO3P+
204.936	73	C8H4Cl3+
205.9396	7	C7[13]CH4Cl3+
206.9329	57	C8H4Cl2[37]Cl+
