Mass spectrum: Carbamazepine; LC-ESI-QTOF; MS2; CE: 50 eV; R=35000; [M+H]+
Name: Carbamazepine
Name: benzo[b][1]benzazepine-11-carboxamide
Formula: C15H12N2O
Exact mass: 236.0949630
SMILES: c1ccc2c(c1)C=Cc3ccccc3N2C(=O)N
InChI: InChI=1S/C15H12N2O/c16-15(18)17-13-7-3-1-5-11(13)9-10-12-6-2-4-8-14(12)17/h1-10H,(H2,16,18)
Instrument: Bruker maXis Impact
Instrument type: LC-ESI-QTOF
Ms type: MS2
Ion mode: POSITIVE
Ionization: ESI
Fragmentation mode: CID
Collision energy: 50 eV
Resolution: 35000
Column name: Acclaim RSLC C18 2.2um, 2.1x100mm, Thermo
Retention time: 7.3 min
Base peak: 237.1023
Precursor m/z: 237.1022
Precursor type: [M+H]+
m/z	relative intensity	assigned
117.0566	8	C8H7N+
139.0534	11	C11H7+
140.0499	7	C10H6N+
150.0455	5	C12H6+
151.0539	15	C12H7+
152.0614	119	C12H8+
153.0647	11	C11[13]CH8+
163.0532	8	C13H7+
164.0613	23	C13H8+
165.0693	437	C13H9+
166.0724	41	C12[13]CH9+
167.0724	152	C12H9N+
168.0768	16	C11[13]CH9N+
169.0641	12	C12H9O+
176.0615	18	C14H8+
177.057	35	C13H7N+
178.0645	147	C13H8N+
179.0724	431	C13H9N+
180.0758	36	C12[13]CH9N+
190.0648	88	C14H8N+
191.0728	343	C14H9N+
192.0803	627	C14H10N+
193.088	999	C14H11N+
194.0946	257	C14H12N+
195.099	24	C13[13]CH12N+
