Mass spectrum: Nornicotine; LC-ESI-QTOF; MS2; CE: 50 eV; R=35000; [M+H]+
Name: Nornicotine
Name: 3-(pyrrolidin-2-yl)pyridine
Name: 3-pyrrolidin-2-ylpyridine
Formula: C9H12N2
Exact mass: 148.1000484
SMILES: C1CNC(C1)C1=CC=CN=C1
InChI: InChI=1S/C9H12N2/c1-3-8(7-10-5-1)9-4-2-6-11-9/h1,3,5,7,9,11H,2,4,6H2
Instrument: Bruker maXis Impact
Instrument type: LC-ESI-QTOF
Ms type: MS2
Ion mode: POSITIVE
Ionization: ESI
Fragmentation mode: CID
Collision energy: 50 eV
Resolution: 35000
Column name: Acclaim RSLC C18 2.2um, 2.1x100mm, Thermo
Retention time: 2.7 min
Base peak: 149.1064
Precursor m/z: 149.1073
Precursor type: [M+H]+
m/z	relative intensity	assigned
117.0568	977	C8H7N+
118.063	338	C8H8N+
130.064	999	C9H8N+
