Mass spectrum: Ritonavir; LC-ESI-QTOF; MS2; CE: 30 eV; R=35000; [M+H]+
Name: Ritonavir
Name: 1,3-thiazol-5-ylmethyl N-[(2S,3S,5S)-3-hydroxy-5-[[(2S)-3-methyl-2-[[methyl-[(2-propan-2-yl-1,3-thiazol-4-yl)methyl]carbamoyl]amino]butanoyl]amino]-1,6-diphenylhexan-2-yl]carbamate
Formula: C37H48N6O5S2
Exact mass: 720.3127606
SMILES: CC(C)c1nc(cs1)CN(C)/C(=N\[C@@H](C(C)C)/C(=N\[C@@H](Cc2ccccc2)C[C@@H]([C@H](Cc3ccccc3)/N=C(\O)/OCc4cncs4)O)/O)/O
InChI: InChI=1S/C37H48N6O5S2/c1-24(2)33(42-36(46)43(5)20-29-22-49-35(40-29)25(3)4)34(45)39-28(16-26-12-8-6-9-13-26)18-32(44)31(17-27-14-10-7-11-15-27)41-37(47)48-21-30-19-38-23-50-30/h6-15,19,22-25,28,31-33,44H,16-18,20-21H2,1-5H3,(H,39,45)(H,41,47)(H,42,46)/t28-,31-,32-,33-/m0/s1
Instrument: Bruker maXis Impact
Instrument type: LC-ESI-QTOF
Ms type: MS2
Ion mode: POSITIVE
Ionization: ESI
Fragmentation mode: CID
Collision energy: 30 eV
Resolution: 35000
Column name: Acclaim RSLC C18 2.2um, 2.1x100mm, Thermo
Retention time: 11.000 min
Base peak: 721.3219
Precursor m/z: 721.32
Precursor type: [M+H]+
m/z	relative intensity	assigned
140.0528	55	C7H10NS+
171.0953	284	C8H15N2S+
172.0983	20	C7[13]CH15N2S+
197.075	107	C3H19NO4S2+
250.1588	5	C18H20N+
268.1489	793	C7H20N6O5+
269.1521	91	C7[13]CH24N6S2+
296.1441	999	C16H24O3S+
297.147	131	C15[13]CH24O3S+
311.1758	5	C13H29NO5S+
382.1963	7	C24H30O2S+
426.1865	153	C18H30N6O2S2+
427.1892	44	C26H25N3O3+
428.1878	8	C25[13]CH25N3O3+
507.2444	19	C30H37NO4S+
508.2475	6	C29[13]CH37NO4S+
533.2229	5	C31H35NO5S+
