Mass spectrum: 3-Perfluoropropyl propanoic acid (3:3) (FPrPA); LC-ESI-QTOF; MS2; CE: 19.5-29.2 eV; R=35000; [M-H]-
Name: 3-Perfluoropropyl propanoic acid (3:3) (FPrPA)
Formula: C6H5F7O2
Exact mass: 242.0178
SMILES: C(CC(C(C(F)(F)F)(F)F)(F)F)C(=O)O
InChI: InChI=1S/C6H5F7O2/c7-4(8,2-1-3(14)15)5(9,10)6(11,12)13/h1-2H2,(H,14,15)
Instrument: Bruker maXis Impact
Instrument type: LC-ESI-QTOF
Ms type: MS2
Ionization: ESI
Fragmentation mode: CID
Collision energy: 19.5-29.2 eV
Resolution: 35000
Column name: Acclaim RSLC C18 2.2um, 2.1x100mm, Thermo
Retention time: 6.439 min
Base peak: 59.0129
Precursor m/z: 241.0105
Precursor type: [M-H]-
m/z	relative intensity	assigned
62.9873	348	CFO2-
116.996	999	C5F3-
137.0013	320	C5HF4-
