Mass spectrum: Tramadol; LC-ESI-QTOF; MS2; CE: 40 eV; R=35000; [M+H]+
Name: Tramadol
Name: (1R,2R)-2-[(dimethylamino)methyl]-1-(3-methoxyphenyl)cyclohexan-1-ol
Formula: C16H25NO2
Exact mass: 263.1885290
SMILES: COC1=CC(=CC=C1)[C@@]1(O)CCCC[C@@H]1CN(C)C
InChI: InChI=1S/C16H25NO2/c1-17(2)12-14-7-4-5-10-16(14,18)13-8-6-9-15(11-13)19-3/h6,8-9,11,14,18H,4-5,7,10,12H2,1-3H3/t14-,16+/m1/s1
Instrument: Bruker maXis Impact
Instrument type: LC-ESI-QTOF
Ms type: MS2
Ion mode: POSITIVE
Ionization: ESI
Fragmentation mode: CID
Collision energy: 40 eV
Resolution: 35000
Column name: Acclaim RSLC C18 2.2um, 2.1x100mm, Thermo
Retention time: 4.8 min
Base peak: 264.1955
Precursor m/z: 264.1958
Precursor type: [M+H]+
m/z	relative intensity	assigned
121.0644	999	C8H9O+
133.0632	221	C9H9O+
135.0786	200	C9H11O+
144.0561	480	C10H8O+
145.0638	432	C10H9O+
147.0801	219	C10H11O+
158.0716	387	C11H10O+
159.0795	694	C11H11O+
160.0863	323	C11H12O+
172.0864	384	C12H12O+
173.0955	291	C12H13O+
