Mass spectrum: Ochratoxin A; LC-ESI-QTOF; MS2; CE: 30 eV; R=35000; [M+H]+
Name: Ochratoxin A
Name: Alanine, (-)-
Name: 2-[(5-chloro-8-hydroxy-3-methyl-1-oxo-3,4-dihydroisochromene-7-carbonyl)amino]-3-phenylpropanoic acid
Class: Natural Product; Fungal metabolite
Formula: C20H18ClNO6
Exact mass: 403.0823
SMILES: CC1CC2=C(C=C(C(=C2C(=O)O1)O)C(=O)NC(CC3=CC=CC=C3)C(=O)O)Cl
InChI: InChI=1S/C20H18ClNO6/c1-10-7-12-14(21)9-13(17(23)16(12)20(27)28-10)18(24)22-15(19(25)26)8-11-5-3-2-4-6-11/h2-6,9-10,15,23H,7-8H2,1H3,(H,22,24)(H,25,26)
Instrument: Bruker maXis Impact
Instrument type: LC-ESI-QTOF
Ms type: MS2
Ion mode: POSITIVE
Ionization: ESI
Fragmentation mode: CID
Collision energy: 30 eV
Resolution: 35000
Column name: Acclaim RSLC C18 2.2um, 2.1x100mm, Thermo
Retention time: 9.142 min
Base peak: 404.0891
Precursor m/z: 404.0895
Precursor type: [M+H]+
m/z	relative intensity	assigned
120.0814	36	C8H10N+
137.0138	11	C8H6Cl+
165.0097	16	C9H6ClO+
193.0054	29	C10H6ClO2+
211.0157	28	C10H8ClO3+
220.9997	74	C11H6ClO3+
222.9988	23	C7H8ClO6+
239.0105	906	C11H8ClO4+
240.0141	125	C11H9ClO4+
241.0074	323	C20H+
242.0108	21	C14H7ClO2+
257.0208	999	C11H10ClO5+
258.0237	156	C18H7Cl+
259.0181	282	C17H6ClN+
260.022	32	C14H9ClO3+
271.0333	32	C19H8Cl+
341.0582	56	C19H14ClO4+
342.0626	12	C19H15ClO4+
343.0524	18	C20H9NO5+
358.086	22	C19H17ClNO4+
