Mass spectrum: Flurtamone; LC-ESI-QTOF; MS2; CE: 40 eV; R=35000; [M-H]-
Name: Flurtamone
Name: 5-(methylamino)-2-phenyl-4-[3-(trifluoromethyl)phenyl]furan-3-one
Formula: C18H14F3NO2
Exact mass: 333.0976633
SMILES: CNC1=C(C(=O)C(O1)C1=CC=CC=C1)C1=CC=CC(=C1)C(F)(F)F
InChI: InChI=1S/C18H14F3NO2/c1-22-17-14(12-8-5-9-13(10-12)18(19,20)21)15(23)16(24-17)11-6-3-2-4-7-11/h2-10,16,22H,1H3
Instrument: Bruker maXis Impact
Instrument type: LC-ESI-QTOF
Ms type: MS2
Ion mode: NEGATIVE
Ionization: ESI
Fragmentation mode: CID
Collision energy: 40 eV
Resolution: 35000
Column name: Acclaim RSLC C18 2.2um, 2.1x100mm, Thermo
Retention time: 9.136 min
Base peak: 332.0905
Precursor m/z: 332.0904
Precursor type: [M-H]-
m/z	relative intensity	assigned
131.0377	7	C8H5NO-
134.0603	41	C8H8NO-
137.0254	7	C10H3N-
143.0191	7	C6H3F2NO-
145.0091	31	C9H2FO-
145.0268	272	C7H4F3-
146.0287	28	C6[13]CH4F3-
149.0195	9	C9H3F2-
156.0188	61	C8H3F3-
158.0407	8	C10H5FN-
159.0444	14	C10H7O2-
160.0118	11	C10H2F2-
161.0213	70	C10H3F2-
162.0268	16	C10H4F2-
163.0233	15	C9H3F2N-
165.0153	55	C6H4F3O2-
166.0204	6	C5[13]CH4F3O2-
169.0263	227	C9H4F3-
170.0304	28	C8[13]CH4F3-
171.0416	26	C9H6F3-
182.0217	63	C9H3F3N-
183.0301	675	C11H5NO2-
184.0347	74	C10[13]CH5NO2-
185.0214	999	C12H3F2-
186.0248	91	C11[13]CH3F2-
186.0575	6	C11H8NO2-
187.0302	10	C10[13]C2H3F2-
189.0163	59	C14H2F-
190.0189	11	C13[13]CH2F-
196.037	7	C10H5F3N-
198.0526	146	C10H7F3N-
199.0568	17	C9[13]CH7F3N-
207.0601	25	C15H8F-
210.0525	15	C11H7F3N-
214.0122	27	C9H3F3NO2-
215.03	9	C16H4F-
215.0415	6	C12H6FNO2-
226.046	7	C14H6F2N-
227.0192	27	C13H3F2NO-
227.0662	47	C15H9F2-
228.0772	11	C12H11F3O-
235.0561	11	C16H8FO-
239.0219	9	C11H4F3NO2-
240.0275	160	C17H3FN-
241.0284	22	C16[13]CH3FN-
242.042	10	C14H6F2NO-
242.0554	6	C15H8F2O-
245.0536	8	C15H8F3-
247.0735	148	C15H10F3-
248.0779	29	C14[13]CH10F3-
254.0423	15	C15H6F2NO-
255.0476	14	C18H6FN-
255.0625	16	C16H9F2O-
259.0751	7	C16H10F3-
263.0634	10	C18H9F2-
263.0724	10	C15H10F3O-
274.0615	15	C16H9F3O-
275.0688	21	C16H10F3O-
277.0842	13	C16H12F3O-
284.0753	6	C17H9F3N-
286.0827	26	C17H12F2O2-
287.0903	12	C17H13F2O2-
288.0637	44	C16H9F3NO-
291.06	29	C16H10F3O2-
292.0678	10	C16H11F3O2-
302.0455	7	C16H7F3NO2-
304.0966	17	C17H13F3NO-
314.0768	28	C18H11F3NO-
315.0866	6	C17[13]CH11F3NO-
316.0571	127	C17H9F3NO2-
317.0661	39	C16[13]CH9F3NO2-
330.0739	6	C18H11F3NO2-
332.0889	143	C18H13F3NO2-
333.0918	34	C17[13]CH13F3NO2-
