Mass spectrum: Dimoxystrobin; LC-ESI-QTOF; MS2; CE: 50 eV; R=35000; [M+H]+
Name: Dimoxystrobin
Name: Benzeneacetamide, 2-((2,5-dimethylphenoxy)methyl)-alpha-(methoxyimino)-N-methyl-, (alphaE)-
Name: (2E)-2-[2-[(2,5-dimethylphenoxy)methyl]phenyl]-2-methoxyimino-N-methylacetamide
Formula: C19H22N2O3
Exact mass: 326.1630426
SMILES: CNC(=O)C(=N\OC)\C1=CC=CC=C1COC1=CC(C)=CC=C1C
InChI: InChI=1S/C19H22N2O3/c1-13-9-10-14(2)17(11-13)24-12-15-7-5-6-8-16(15)18(21-23-4)19(22)20-3/h5-11H,12H2,1-4H3,(H,20,22)/b21-18+
Instrument: Bruker maXis Impact
Instrument type: LC-ESI-QTOF
Ms type: MS2
Ion mode: POSITIVE
Ionization: ESI
Fragmentation mode: CID
Collision energy: 50 eV
Resolution: 35000
Column name: Acclaim RSLC C18 2.2um, 2.1x100mm, Thermo
Retention time: 10.702 min
Base peak: 327.1711
Precursor m/z: 327.1703
Precursor type: [M+H]+
m/z	relative intensity	assigned
116.049	999	C8H6N+
117.0544	120	C7[13]CH6N+
118.0624	18	C5H10O3+
121.0638	5	C8H9O+
128.0486	7	C9H6N+
132.0433	7	C8H6NO+
133.0509	5	C8H7NO+
144.0431	7	C9H6NO+
145.0748	36	C9H9N2+
146.0582	6	C9H8NO+
146.0805	6	C6H12NO3+
148.0741	9	C9H10NO+
161.0456	10	C9H7NO2+
165.0689	8	C13H9+
178.0765	26	C14H10+
179.083	11	C9H11N2O2+
180.0797	58	C13H10N+
181.0844	11	C12[13]CH10N+
193.0878	8	C14H11N+
193.0991	8	C10H13N2O2+
194.0955	29	C14H12N+
195.1023	19	C11H15O3+
204.0799	5	C15H10N+
208.0753	6	C14H10NO+
221.0949	5	C16H13O+
222.0918	9	C15H12NO+
223.0984	35	C15H13NO+
224.101	6	C14[13]CH13NO+
