Mass spectrum: Dimethenamid; LC-ESI-QTOF; MS2; CE: 50 eV; R=35000; [M+H]+
Name: Dimethenamid
Name: 2-chloro-N-(2,4-dimethylthiophen-3-yl)-N-(1-methoxypropan-2-yl)acetamide
Formula: C12H18ClNO2S
Exact mass: 275.0746775
SMILES: COCC(C)N(C(=O)CCl)C1=C(C)SC=C1C
InChI: InChI=1S/C12H18ClNO2S/c1-8-7-17-10(3)12(8)14(11(15)5-13)9(2)6-16-4/h7,9H,5-6H2,1-4H3
Instrument: Bruker maXis Impact
Instrument type: LC-ESI-QTOF
Ms type: MS2
Ion mode: POSITIVE
Ionization: ESI
Fragmentation mode: CID
Collision energy: 50 eV
Resolution: 35000
Column name: Acclaim RSLC C18 2.2um, 2.1x100mm, Thermo
Retention time: 9.2 min
Base peak: 404.2071
Precursor m/z: 276.082
Precursor type: [M+H]+
m/z	relative intensity	assigned
111.0258	108	C6H7S+
112.0308	15	C9H4+
113.0243	15	C2H8ClNO2+
113.0401	16	ClH14O2S+
115.0537	20	C9H7+
117.0567	56	C8H7N+
117.0688	23	C9H9+
118.0644	94	C8H8N+
119.0722	73	C8H9N+
120.08	148	C8H10N+
121.0849	24	C2H16ClNO2+
122.0955	14	C8H12N+
123.0126	49	C6H5NS+
123.0258	50	C7H7S+
124.0208	97	C6H6NS+
124.0328	60	CH13ClO2S+
125.0286	72	C6H7NS+
125.0415	121	C7H9S+
126.0368	999	C6H8NS+
127.0207	42	C6H7OS+
127.0426	94	C5[13]CH8NS+
128.0523	167	C6H10NS+
129.0368	24	C6H9OS+
129.0546	20	C3H12ClNO2+
132.0805	29	C9H10N+
133.0508	16	C8H7NO+
133.0851	15	C3H16ClNO2+
134.0181	17	C8H6S+
134.0957	165	C9H12N+
135.0251	62	C2H12ClO2S+
135.1034	140	C9H13N+
136.021	189	C7H6NS+
138.0003	71	C6H4NOS+
138.0363	730	C7H8NS+
139.0402	53	C6[13]CH8NS+
139.0576	21	C8H11S+
140.0332	35	C6H6NO3+
140.0514	47	CH15ClNO2S+
144.987	30	C6H6ClS+
148.02	19	C2H11ClNO2S+
149.0257	18	C11H3N+
149.0404	22	C3H14ClO2S+
150.0365	301	C8H8NS+
151.0434	80	C2H14ClNO2S+
151.0568	66	C9H11S+
153.023	251	C7H7NOS+
154.0114	17	C4H9ClNOS+
154.0305	101	C7H8NOS+
154.0481	19	C5H13ClNS+
154.0672	45	C2H17ClNO2S+
155.036	13	C10H5NO+
159.0027	15	C7H8ClS+
166.0313	93	C8H8NOS+
166.0676	60	C9H12NS+
167.0754	40	C9H13NS+
168.0462	25	C8H10NOS+
168.0831	382	C9H14NS+
170.079	19	C6H17ClNS+
186.0136	40	C11H6OS+
203.0145	14	C11H6ClNO+
244.0553	13	C11H15ClNOS+
245.0582	2	C10[13]CH15ClNOS+
246.0523	14	C11H15[37]ClNOS+
247.0549	2	C10[13]CH15[37]ClNOS+
