Mass spectrum: Iminostilbene; LC-ESI-QTOF; MS2; CE: 30 eV; R=35000; [M+H]+
Name: Iminostilbene
Name: 11H-benzo[b][1]benzazepine
Formula: C14H11N
Exact mass: 193.0891494
SMILES: N1C2=C(C=CC=C2)C=CC2=C1C=CC=C2
InChI: InChI=1S/C14H11N/c1-3-7-13-11(5-1)9-10-12-6-2-4-8-14(12)15-13/h1-10,15H
Instrument: Bruker maXis Impact
Instrument type: LC-ESI-QTOF
Ms type: MS2
Ion mode: POSITIVE
Ionization: ESI
Fragmentation mode: CID
Collision energy: 30 eV
Resolution: 35000
Column name: Acclaim RSLC C18 2.2um, 2.1x100mm, Thermo
Retention time: 10.0 min
Base peak: 194.0953
Precursor m/z: 194.0964
Precursor type: [M+H]+
m/z	relative intensity	assigned
117.0573	6	C8H7N+
128.0491	6	C9H6N+
135.0426	6	C6H5N3O+
151.0528	6	C12H7+
152.0613	38	C12H8+
165.0681	55	C13H9+
167.0714	74	C12H9N+
169.0653	10	C12H9O+
176.0611	13	C14H8+
177.0696	21	C14H9+
178.0651	32	C13H8N+
179.0711	298	C13H9N+
190.0658	6	C14H8N+
191.0721	29	C14H9N+
194.0957	999	C14H12N+
195.0991	158	C13[13]CH12N+
196.1008	6	C12[13]C2H12N+
