Mass spectrum: Aceclofenac; LC-ESI-QTOF; MS2; CE: 10 eV; R=35000; [M+H]+
Name: Aceclofenac
Name: 2-[2-[2-(2,6-dichloroanilino)phenyl]acetyl]oxyacetic acid
Formula: C16H13Cl2NO4
Exact mass: 353.0221633
SMILES: c1ccc(c(c1)CC(=O)OCC(=O)O)Nc2c(cccc2Cl)Cl
InChI: InChI=1S/C16H13Cl2NO4/c17-11-5-3-6-12(18)16(11)19-13-7-2-1-4-10(13)8-15(22)23-9-14(20)21/h1-7,19H,8-9H2,(H,20,21)
Instrument: Bruker maXis Impact
Instrument type: LC-ESI-QTOF
Ms type: MS2
Ion mode: POSITIVE
Ionization: ESI
Fragmentation mode: CID
Collision energy: 10 eV
Resolution: 35000
Column name: Acclaim RSLC C18 2.2um, 2.1x100mm, Thermo
Retention time: 9.2 min
Base peak: 297.0753
Precursor m/z: 354.0294
Precursor type: [M+H]+
m/z	relative intensity	assigned
250.0104	486	C14H4NO4+
252.0072	218	C11H7ClNO4+
278.0061	806	C11H12Cl2O4+
280.0043	431	C14H10Cl2O2+
354.029	999	
