Mass spectrum: Ranitidine; LC-ESI-QTOF; MS2; CE: 30 eV; R=35000; [M+H]+
Name: Ranitidine
Name: (E)-1-N`-[2-[[5-[(dimethylamino)methyl]furan-2-yl]methylsulfanyl]ethyl]-1-N-methyl-2-nitroethene-1,1-diamine
Formula: C13H22N4O3S
Exact mass: 314.1412616
SMILES: CN\C(NCCSCC1=CC=C(CN(C)C)O1)=C/[N+]([O-])=O
InChI: InChI=1S/C13H22N4O3S/c1-14-13(9-17(18)19)15-6-7-21-10-12-5-4-11(20-12)8-16(2)3/h4-5,9,14-15H,6-8,10H2,1-3H3/b13-9+
Instrument: Bruker maXis Impact
Instrument type: LC-ESI-QTOF
Ms type: MS2
Ion mode: POSITIVE
Ionization: ESI
Fragmentation mode: CID
Collision energy: 30 eV
Resolution: 35000
Column name: Acclaim RSLC C18 2.2um, 2.1x100mm, Thermo
Retention time: 3.2 min
Base peak: 315.1484
Precursor m/z: 315.1485
Precursor type: [M+H]+
m/z	relative intensity	assigned
117.047	8	C4H9N2S+
118.0312	15	C2H6N4S+
121.0752	20	C7H9N2+
125.0048	786	C4H3N3S+
127.0004	26	C6H5O[34]S+
129.047	30	C5H9N2S+
130.0551	999	C5H10N2S+
131.0579	47	C4[13]CH10N2S+
133.0515	11	H11N3O3S+
135.0257	8	C8H7S+
135.0903	57	H15N4O2S+
136.0739	5	C6H8N4+
137.0824	6	C6H9N4+
138.0904	38	H16N3O3S+
144.0757	24	C5H10N3O2+
145.0419	14	C5H9N2OS+
146.05	7	C5H10N2OS+
147.0666	10	C7H7N4+
147.0903	7	CH15N4O2S+
149.0703	23	H13N4O3S+
151.0199	6	C6H5N3S+
152.0273	7	C6H6N3S+
154.0546	14	C7H10N2S+
159.045	8	C10H7O2+
163.0855	39	CH15N4O3S+
163.1219	5	C2H19N4O2S+
165.1009	156	CH17N4O3S+
170.0623	57	C6H10N4S+
171.0656	5	C5[13]CH10N4S+
176.048	864	C5H10N3O2S+
178.0315	20	C9H8NOS+
178.0432	27	C5H10N3O2[34]S+
178.1078	41	C2H18N4O3S+
181.0783	115	C9H13N2S+
182.082	13	C8[13]CH13N2S+
191.1171	271	C3H19N4O3S+
193.0546	68	C8H9N4S+
195.07	8	C8H11N4S+
196.0407	5	C7H8N4OS+
207.0941	6	C11H15N2S+
209.0729	9	C10H13N2OS+
223.0893	19	C11H15N2OS+
224.097	109	C11H16N2OS+
225.1003	15	C10[13]CH16N2OS+
