Mass spectrum: Atorvastatin; LC-ESI-QTOF; MS2; CE: 20 eV; R=35000; [M+H]+
Name: Atorvastatin
Name: atorvastatin
Name: (3R,5R)-7-[2-(4-fluorophenyl)-3-phenyl-4-(phenylcarbamoyl)-5-propan-2-ylpyrrol-1-yl]-3,5-dihydroxyheptanoic acid
Formula: C33H35FN2O5
Exact mass: 558.2530004
SMILES: CC(C)c1c(c(c(n1CC[C@H](C[C@H](CC(=O)O)O)O)c2ccc(cc2)F)c3ccccc3)/C(=N/c4ccccc4)/O
InChI: InChI=1S/C33H35FN2O5/c1-21(2)31-30(33(41)35-25-11-7-4-8-12-25)29(22-9-5-3-6-10-22)32(23-13-15-24(34)16-14-23)36(31)18-17-26(37)19-27(38)20-28(39)40/h3-16,21,26-27,37-38H,17-20H2,1-2H3,(H,35,41)(H,39,40)/t26-,27-/m1/s1
Instrument: Bruker maXis Impact
Instrument type: LC-ESI-QTOF
Ms type: MS2
Ion mode: POSITIVE
Ionization: ESI
Fragmentation mode: CID
Collision energy: 20 eV
Resolution: 35000
Column name: Acclaim RSLC C18 2.2um, 2.1x100mm, Thermo
Retention time: 10.045 min
Base peak: 559.2633
Precursor m/z: 559.2603
Precursor type: [M+H]+
m/z	relative intensity	assigned
292.1468	9	C17H21FO3+
380.1655	5	C23H23FNO3+
404.2077	6	C25H28N2O3+
422.2156	40	C29H27FN2+
423.2179	10	C28[13]CH27FN2+
430.1836	5	C30H23FN2+
440.2268	873	C29H29FN2O+
441.2296	249	C29H31NO3+
442.2331	39	C28[13]CH31NO3+
448.1954	25	C30H25FN2O+
449.1987	8	C29[13]CH25FN2O+
466.207	161	C30H27FN2O2+
467.2074	37	C30H29NO4+
468.2114	8	C29[13]CH29NO4+
517.2126	6	C33H29N2O4+
541.2523	9	C33H34FN2O4+
559.2646	999	C33H36FN2O5+
560.2674	341	C32[13]CH36FN2O5+
561.272	68	C31[13]C2H36FN2O5+
