Mass spectrum: Metoclopramide; LC-ESI-QTOF; MS2; CE: 40 eV; R=35000; [M+H]+
Name: Metoclopramide
Name: 4-amino-5-chloro-N-[2-(diethylamino)ethyl]-2-methoxybenzamide
Formula: C14H22ClN3O2
Exact mass: 299.1400546
SMILES: CCN(CC)CCNC(=O)c1cc(c(cc1OC)N)Cl
InChI: InChI=1S/C14H22ClN3O2/c1-4-18(5-2)7-6-17-14(19)10-8-11(15)12(16)9-13(10)20-3/h8-9H,4-7,16H2,1-3H3,(H,17,19)
Instrument: Bruker maXis Impact
Instrument type: LC-ESI-QTOF
Ms type: MS2
Ion mode: POSITIVE
Ionization: ESI
Fragmentation mode: CID
Collision energy: 40 eV
Resolution: 35000
Column name: Acclaim RSLC C18 2.2um, 2.1x100mm, Thermo
Retention time: 4.250 min
Base peak: 300.1475
Precursor m/z: 300.1473
Precursor type: [M+H]+
m/z	relative intensity	assigned
126.0096	10	C9H2O+
128.0253	7	C9H4O+
140.9967	48	C6H4ClNO+
142.9935	13	C6H4[37]ClNO+
148.062	19	C8H8N2O+
154.0043	10	C10H2O2+
156.02	37	C7H7ClNO+
158.017	9	C7H7[37]ClNO+
168.0076	48	C7H5ClN2O+
168.9915	19	C7H4ClNO2+
170.0021	20	C7H5[37]ClN2O+
170.9886	5	C7H4[37]ClNO2+
182.023	6	C11H4NO2+
183.0313	199	C11H5NO2+
184.0152	999	C8H7ClNO2+
185.0218	51	C7[13]CH7ClNO2+
186.0125	239	C8H7[37]ClNO2+
187.0022	16	C13HNO+
211.0261	5	C9H8ClN2O2+
212.0343	228	C9H9ClN2O2+
213.0373	18	C8[13]CH9ClN2O2+
214.0313	59	C9H9[37]ClN2O2+
227.058	334	C10H12ClN2O2+
228.0608	27	C9[13]CH12ClN2O2+
229.055	82	C10H12[37]ClN2O2+
