Mass spectrum: 4-Aminoantipyrine; LC-ESI-QTOF; MS2; CE: 20 eV; R=35000; [M+H]+
Name: 4-Aminoantipyrine
Name: O-Desmethyltramadol
Name: 3-[(1R,2R)-2-[(dimethylamino)methyl]-1-hydroxycyclohexyl]phenol
Formula: C15H23NO2
Exact mass: 249.1728790
SMILES: CN(C)C[C@H]1CCCC[C@@]1(C2=CC(=CC=C2)O)O
InChI: InChI=1S/C15H23NO2/c1-16(2)11-13-6-3-4-9-15(13,18)12-7-5-8-14(17)10-12/h5,7-8,10,13,17-18H,3-4,6,9,11H2,1-2H3/t13-,15+/m1/s1
Instrument: Bruker maXis Impact
Instrument type: LC-ESI-QTOF
Ms type: MS2
Ion mode: POSITIVE
Ionization: ESI
Fragmentation mode: CID
Collision energy: 20 eV
Resolution: 35000
Column name: Acclaim RSLC C18 2.2um, 2.1x100mm, Thermo
Retention time: 3.999 min
Base peak: 250.18
Precursor m/z: 250.1802
Precursor type: [M+H]+
m/z	relative intensity	assigned
145.0638	11	C10H9O+
187.1102	34	C13H15O+
232.1687	146	C15H22NO+
233.1721	24	C14[13]CH22NO+
250.1795	999	C15H24NO2+
251.1824	170	C14[13]CH24NO2+
252.1862	14	C13[13]C2H24NO2+
