Mass spectrum: Cyclophosphamide; LC-ESI-QTOF; MS2; CE: Ramp 20.2-30.3 eV; R=35000; [M+H]+
Name: Cyclophosphamide
Name: N,N-bis(2-chloroethyl)-2-oxo-1,3,2lambda5-oxazaphosphinan-2-amine
Formula: C7H15Cl2N2O2P
Exact mass: 260.0248197
SMILES: ClCCN(CCCl)P1(=O)NCCCO1
InChI: InChI=1S/C7H15Cl2N2O2P/c8-2-5-11(6-3-9)14(12)10-4-1-7-13-14/h1-7H2,(H,10,12)
Instrument: Bruker maXis Impact
Instrument type: LC-ESI-QTOF
Ms type: MS2
Ion mode: POSITIVE
Ionization: ESI
Fragmentation mode: CID
Collision energy: Ramp 20.2-30.3 eV
Resolution: 35000
Column name: Acclaim RSLC C18 2.2um, 2.1x100mm, Thermo
Retention time: 6.214 min
Base peak: 278.1909
Precursor m/z: 261.0321
Precursor type: [M+H]+
m/z	relative intensity	assigned
56.049	136	C3H6N+
58.0647	191	C3H8N+
59.0679	6	C2[13]CH8N+
62.9991	97	C2H4Cl+
64.996	22	C2H4[37]Cl+
70.0646	40	C4H8N+
78.0099	27	C2H5ClN+
80.0073	6	C2H5[37]ClN+
106.043	294	C4H9ClN+
107.0467	7	C3[13]CH9ClN+
108.0399	58	C4H9[37]ClN+
110.0015	64	C2H5ClNO2+
112.0171	10	C2H7ClNO2+
120.0203	80	C7H4O2+
138.0309	174	C4H9ClNO2+
140.0021	820	C4H8Cl2N+
141.0046	35	C3[13]CH8Cl2N+
141.9809	27	C6H3ClO2+
141.999	488	C4H8Cl[37]ClN+
142.0175	234	C4H10Cl2N+
143.0023	12	C3H9ClO2P+
143.0208	13	C3[13]CH10Cl2N+
144.0147	161	C4H10Cl[37]ClN+
155.996	7	C7H5ClO2+
167.9957	6	C4H8ClNO2P+
171.0073	11	C7H6ClNO2+
174.0074	6	C4H10Cl2NO2+
185.0227	23	C4H11ClN2O2P+
197.0237	7	C5H11ClN2O2P+
199.0387	21	C5H13ClN2O2P+
233.0002	425	C5H12Cl2N2O2P+
234.0031	20	C4[13]CH12Cl2N2O2P+
234.9975	225	C5H12Cl[37]ClN2O2P+
261.0321	999	C7H16Cl2N2O2P+
262.0348	94	C6[13]CH16Cl2N2O2P+
263.0293	628	C7H16Cl[37]ClN2O2P+
