Mass spectrum: Azithromycin; LC-ESI-QTOF; MS2; CE: Ramp 30.8-46.2 eV; R=35000; [M+H]+
Name: Azithromycin
Name: (2R,3S,4R,5R,8R,10R,11R,12S,13S,14R)-11-[(2S,3R,4S,6R)-4-(dimethylamino)-3-hydroxy-6-methyloxan-2-yl]oxy-2-ethyl-3,4,10-trihydroxy-13-[(2R,4R,5S,6S)-5-hydroxy-4-methoxy-4,6-dimethyloxan-2-yl]oxy-3,5,6,8,10,12,14-heptamethyl-1-oxa-6-azacyclopentadecan-15-one
Formula: C38H72N2O12
Exact mass: 748.5085
SMILES: CC[C@@H]1[C@@]([C@@H]([C@H](N(C[C@@H](C[C@@]([C@@H]([C@H]([C@@H]([C@H](C(=O)O1)C)O[C@H]2C[C@@]([C@H]([C@@H](O2)C)O)(C)OC)C)O[C@H]3[C@@H]([C@H](C[C@H](O3)C)N(C)C)O)(C)O)C)C)C)O)(C)O
InChI: InChI=1S/C38H72N2O12/c1-15-27-38(10,46)31(42)24(6)40(13)19-20(2)17-36(8,45)33(52-35-29(41)26(39(11)12)16-21(3)48-35)22(4)30(23(5)34(44)50-27)51-28-18-37(9,47-14)32(43)25(7)49-28/h20-33,35,41-43,45-46H,15-19H2,1-14H3/t20-,21-,22+,23-,24-,25+,26+,27-,28+,29-,30+,31-,32+,33-,35+,36-,37-,38-/m1/s1
Instrument: Bruker maXis Impact
Instrument type: LC-ESI-QTOF
Ms type: MS2
Ion mode: POSITIVE
Ionization: ESI
Fragmentation mode: CID
Collision energy: Ramp 30.8-46.2 eV
Resolution: 35000
Column name: Acclaim RSLC C18 2.2um, 2.1x100mm, Thermo
Retention time: 6.2 min
Base peak: 375.2634
Precursor m/z: 749.5158
Precursor type: [M+H]+
m/z	relative intensity	assigned
55.0541	12	C4H7+
72.0803	32	C4H10N+
83.049	156	C5H7O+
84.0522	20	H8N2O3+
98.0956	8	C6H12N+
115.0753	16	C6H11O2+
116.0709	18	C5H10NO2+
116.1071	173	C6H14NO+
117.1109	12	C6H15NO+
127.0748	36	C7H11O2+
158.118	693	C8H16NO2+
159.1207	57	C12H15+
176.128	6	C8H18NO3+
186.149	29	C10H20NO2+
398.2924	55	C25H38N2O2+
399.2949	9	C29H37N+
416.3002	27	C22H42NO6+
417.3052	6	C29H39NO+
434.3143	83	C25H42N2O4+
435.3177	26	C22H45NO7+
457.3281	8	C24H45N2O6+
573.4153	203	C35H57O6+
574.4194	79	C30H58N2O8+
575.4232	12	C37H55N2O3+
591.4265	999	C35H59O7+
592.4284	308	C30H60N2O9+
593.4292	72	C34H59NO7+
594.4396	9	C37H58N2O4+
731.5072	5	C38H71N2O11+
731.5249	7	C38H71N2O11+
749.523	738	C38H73N2O12+
750.5253	324	C37H72N3O12+
751.5286	67	C37H73N3O12+
752.5326	11	C36H72N4O12+
