Mass spectrum: Fenpropimorph; LC-ESI-QTOF; MS2; CE: 20 eV; R=35000; [M+H]+
Name: Fenpropimorph
Name: (2S,6R)-4-[3-(4-tert-butylphenyl)-2-methylpropyl]-2,6-dimethylmorpholine
Formula: C20H33NO
Exact mass: 303.2562147
SMILES: CC(CN1C[C@H](C)O[C@H](C)C1)CC1=CC=C(C=C1)C(C)(C)C
InChI: InChI=1S/C20H33NO/c1-15(12-21-13-16(2)22-17(3)14-21)11-18-7-9-19(10-8-18)20(4,5)6/h7-10,15-17H,11-14H2,1-6H3/t15?,16-,17+
Instrument: Bruker maXis Impact
Instrument type: LC-ESI-QTOF
Ms type: MS2
Ion mode: POSITIVE
Ionization: ESI
Fragmentation mode: CID
Collision energy: 20 eV
Resolution: 35000
Column name: Acclaim RSLC C18 2.2um, 2.1x100mm, Thermo
Retention time: 10.216 min
Base peak: 304.2635
Precursor m/z: 304.2635
Precursor type: [M+H]+
m/z	relative intensity	assigned
130.1217	11	C7H16NO+
147.1158	24	C11H15+
189.1627	5	C14H21+
304.2648	999	C20H34NO+
306.27	23	C18[13]C2H34NO+
