Mass spectrum: 3-(4-Isopropylphenyl)isobutyraldehyde; GC-APCI-QTOF; MS2; CE: 10 eV; R=35000; [M]+
Name: 3-(4-Isopropylphenyl)isobutyraldehyde
Formula: C13H18O
Exact mass: 190.1358
SMILES: CC(C)C1=CC=C(C=C1)CC(C)C=O
InChI: InChI=1S/C13H18O/c1-10(2)13-6-4-12(5-7-13)8-11(3)9-14/h4-7,9-11H,8H2,1-3H3
Instrument: Bruker 450 GC coupled to maXis Impact
Instrument type: GC-APCI-QTOF
Ms type: MS2
Ion mode: POSITIVE
Ionization: APCI
Fragmentation mode: CID
Collision energy: 10 eV
Resolution: 35000
Column name: Rxi-5Sil MS column, 30m, 0.25mm i.d., 0.25Âµm film thickness, Restek
Retention time: 12.017 min
Base peak: 190.1358
Precursor m/z: 190.1352
Precursor type: [M]+
m/z	relative intensity	assigned
105.0697	13	C8H9+
115.0549	9	C9H7+
117.072	8	C9H9+
119.0863	9	C9H11+
120.0935	67	C9H12+
121.0987	6	C9H13+
129.0705	49	C10H9+
130.0789	12	C10H10+
131.086	25	C10H11+
132.0938	198	C10H12+
133.1016	681	C10H13+
134.0694	5	C9H10O+
134.1066	51	C10H14+
135.114	6	C10H15+
146.076	13	C10H10O+
146.1075	5	C11H14+
147.0815	999	C10H11O+
148.0859	100	C10H12O+
148.1217	6	C11H16+
157.1031	12	C12H13+
172.1274	9	C13H16+
175.1129	653	C12H15O+
176.1169	50	C12H16O+
189.1296	24	C13H17O+
190.1362	116	C13H18O+
