Mass spectrum: 3,3`-Dimethylbenzidine; LC-ESI-QTOF; MS2; CE: 40 eV; R=35000; [M+H]+
Name: 3,3`-Dimethylbenzidine
Name: 4-(4-amino-3-methylphenyl)-2-methylaniline
Formula: C14H16N2
Exact mass: 212.1313485
SMILES: CC1=CC(=CC=C1N)C1=CC=C(N)C(C)=C1
InChI: InChI=1S/C14H16N2/c1-9-7-11(3-5-13(9)15)12-4-6-14(16)10(2)8-12/h3-8H,15-16H2,1-2H3
Instrument: Bruker maXis Impact
Instrument type: LC-ESI-QTOF
Ms type: MS2
Ion mode: POSITIVE
Ionization: ESI
Fragmentation mode: CID
Collision energy: 40 eV
Resolution: 35000
Column name: Acclaim RSLC C18 2.2um, 2.1x100mm, Thermo
Retention time: 5.637 min
Base peak: 213.1378
Precursor m/z: 213.1386
Precursor type: [M+H]+
m/z	relative intensity	assigned
120.0796	7	C8H10N+
128.0609	9	C10H8+
130.0643	17	C9H8N+
131.0712	7	C9H9N+
139.0534	5	C11H7+
141.0687	7	C11H9+
143.0717	9	C10H9N+
144.0794	12	C10H10N+
151.0526	5	C12H7+
152.0607	65	C12H8+
153.0684	60	C12H9+
154.0671	13	C11H8N+
155.0589	5	C10H7N2+
155.0707	6	C11H9N+
156.0797	23	C11H10N+
157.087	9	C11H11N+
163.053	16	C13H7+
164.0603	18	C13H8+
165.0685	66	C13H9+
166.0706	10	C12[13]CH9+
167.072	17	C12H9N+
167.0833	9	C13H11+
168.0791	27	C12H10N+
169.0873	47	C12H11N+
170.0948	41	C12H12N+
171.0996	7	C11[13]CH12N+
176.0608	9	C14H8+
177.068	11	C14H9+
178.0764	72	C14H10+
179.0826	28	C14H11+
180.08	999	C13H10N+
181.0866	347	C13H11N+
182.0883	57	C12[13]CH11N+
183.0905	17	C12H11N2+
184.1111	25	C13H14N+
193.0873	15	C14H11N+
194.0955	62	C14H12N+
195.0913	102	C13H11N2+
196.0988	138	C13H12N2+
197.1063	132	C13H13N2+
198.1135	79	C13H14N2+
199.1169	12	C12[13]CH14N2+
210.1131	7	C14H14N2+
211.1223	148	C14H15N2+
212.129	94	C14H16N2+
213.1331	15	C13[13]CH16N2+
