Mass spectrum: Metribuzin-desamino; LC-ESI-QTOF; MS2; CE: 20 eV; R=35000; [M+H]+
Name: Metribuzin-desamino
Name: Deaminated sencor
Name: 6-tert-butyl-3-methylsulfanyl-2H-1,2,4-triazin-5-one
Formula: C8H13N3OS
Exact mass: 199.0779330
SMILES: CSC1=NC(=O)C(=NN1)C(C)(C)C
InChI: InChI=1S/C8H13N3OS/c1-8(2,3)5-6(12)9-7(13-4)11-10-5/h1-4H3,(H,9,11,12)
Instrument: Bruker maXis Impact
Instrument type: LC-ESI-QTOF
Ms type: MS2
Ion mode: POSITIVE
Ionization: ESI
Fragmentation mode: CID
Collision energy: 20 eV
Resolution: 35000
Column name: Acclaim RSLC C18 2.2um, 2.1x100mm, Thermo
Retention time: 7.1 min
Base peak: 200.0846
Precursor m/z: 200.0852
Precursor type: [M+H]+
m/z	relative intensity	assigned
116.0273	52	C3H6N3S+
127.0865	5	C6H11N2O+
130.0424	55	C4H8N3S+
142.0421	15	C5H8N3S+
144.0211	9	C4H6N3OS+
156.0575	22	C6H10N3S+
157.0658	117	C6H11N3S+
158.0681	9	C5[13]CH11N3S+
172.0896	867	C7H14N3S+
173.0921	64	C6[13]CH14N3S+
174.0851	35	C7H14N3[34]S+
185.061	15	C7H11N3OS+
200.0846	999	C8H14N3OS+
201.0874	90	C7[13]CH14N3OS+
202.0814	39	C8H14N3O[34]S+
