Mass spectrum: 5-Carboline; LC-ESI-QTOF; MS2; CE: 10 eV; R=35000; [M+H]+
Name: 5-Carboline
Name: 5H-pyrido[4,3-b]indole
Formula: C11H8N2
Exact mass: 168.0687483
SMILES: N1C2=C(C=CC=C2)C2=C1C=CN=C2
InChI: InChI=1S/C11H8N2/c1-2-4-10-8(3-1)9-7-12-6-5-11(9)13-10/h1-7,13H
Instrument: Bruker maXis Impact
Instrument type: LC-ESI-QTOF
Ms type: MS2
Ion mode: POSITIVE
Ionization: ESI
Fragmentation mode: CID
Collision energy: 10 eV
Resolution: 35000
Column name: Acclaim RSLC C18 2.2um, 2.1x100mm, Thermo
Retention time: 8.699 min
Base peak: 169.0752
Precursor m/z: 169.076
Precursor type: [M+H]+
m/z	relative intensity	assigned
169.0757	999	C11H9N2+
170.0783	125	C10[13]CH9N2+
171.0814	5	C9[13]C2H9N2+
