Mass spectrum: Ofloxacin; LC-ESI-QTOF; MS2; CE: 20 eV; R=35000; [M+H]+
Name: Ofloxacin
Name: 7-fluoro-2-methyl-6-(4-methylpiperazin-1-yl)-10-oxo-4-oxa-1-azatricyclo[7.3.1.05,13]trideca-5(13),6,8,11-tetraene-11-carboxylic acid
Formula: C18H20FN3O4
Exact mass: 361.1437843
SMILES: CC1COC2=C3N1C=C(C(O)=O)C(=O)C3=CC(F)=C2N1CCN(C)CC1
InChI: InChI=1S/C18H20FN3O4/c1-10-9-26-17-14-11(16(23)12(18(24)25)8-22(10)14)7-13(19)15(17)21-5-3-20(2)4-6-21/h7-8,10H,3-6,9H2,1-2H3,(H,24,25)
Instrument: Bruker maXis Impact
Instrument type: LC-ESI-QTOF
Ms type: MS2
Ion mode: POSITIVE
Ionization: ESI
Fragmentation mode: CID
Collision energy: 20 eV
Resolution: 35000
Column name: Acclaim RSLC C18 2.2um, 2.1x100mm, Thermo
Retention time: 4.163 min
Base peak: 362.1505
Precursor m/z: 362.1511
Precursor type: [M+H]+
m/z	relative intensity	assigned
261.1024	93	C17H13N2O+
262.1056	12	C16[13]CH13N2O+
316.1445	11	C17H19FN3O2+
318.1611	895	C17H21FN3O2+
319.1641	146	C16[13]CH21FN3O2+
320.167	14	C15[13]C2H21FN3O2+
344.1403	30	C18H19FN3O3+
345.1428	5	C17[13]CH19FN3O3+
362.1509	999	C18H21FN3O4+
363.1541	166	C17[13]CH21FN3O4+
364.1558	19	C16[13]C2H21FN3O4+
