Mass spectrum: Fipronil; LC-ESI-QTOF; MS2; CE: 30 eV; R=35000; [M-H]-
Name: Fipronil
Name: 5-amino-1-[2,6-dichloro-4-(trifluoromethyl)phenyl]-4-(trifluoromethylsulfinyl)pyrazole-3-carbonitrile
Formula: C12H4Cl2F6N4OS
Exact mass: 435.9387064
SMILES: c1c(cc(c(c1Cl)n2c(c(c(n2)C#N)S(=O)C(F)(F)F)N)Cl)C(F)(F)F
InChI: InChI=1S/C12H4Cl2F6N4OS/c13-5-1-4(11(15,16)17)2-6(14)8(5)24-10(22)9(7(3-21)23-24)26(25)12(18,19)20/h1-2H,22H2
Instrument: Bruker maXis Impact
Instrument type: LC-ESI-QTOF
Ms type: MS2
Ion mode: NEGATIVE
Ionization: ESI
Fragmentation mode: CID
Collision energy: 30 eV
Resolution: 35000
Column name: Acclaim RSLC C18 2.2um, 2.1x100mm, Thermo
Retention time: 10.400 min
Base peak: 434.9319
Precursor m/z: 434.9314
Precursor type: [M-H]-
m/z	relative intensity	assigned
170.0099	306	C7HF3N2-
183.0182	145	C5H3F4N2O-
243.9889	157	C9H2ClF3N3-
249.958	999	C10H2Cl2N3O-
277.9541	562	C9H2ClF3N2OS-
281.9937	175	C8H3ClF4N4O-
317.9689	660	C12F6N2S-
329.9604	943	C11H2ClF3N4OS-
331.9546	182	C11H2[37]ClF3N4OS-
