Mass spectrum: Pipamperone; LC-ESI-QTOF; MS2; CE: 50 eV; R=35000; [M+H]+
Name: Pipamperone
Name: 1-[4-(4-fluorophenyl)-4-oxobutyl]-4-piperidin-1-ylpiperidine-4-carboxamide
Formula: C21H30FN3O2
Exact mass: 375.2322054
SMILES: NC(=O)C1(CCN(CCCC(=O)C2=CC=C(F)C=C2)CC1)N1CCCCC1
InChI: InChI=1S/C21H30FN3O2/c22-18-8-6-17(7-9-18)19(26)5-4-12-24-15-10-21(11-16-24,20(23)27)25-13-2-1-3-14-25/h6-9H,1-5,10-16H2,(H2,23,27)
Instrument: Bruker maXis Impact
Instrument type: LC-ESI-QTOF
Ms type: MS2
Ion mode: POSITIVE
Ionization: ESI
Fragmentation mode: CID
Collision energy: 50 eV
Resolution: 35000
Column name: Acclaim RSLC C18 2.2um, 2.1x100mm, Thermo
Retention time: 5.762 min
Base peak: 376.2392
Precursor m/z: 376.2395
Precursor type: [M+H]+
m/z	relative intensity	assigned
123.0235	999	C5H2FN3+
124.0263	54	C4[13]CH2FN3+
138.1266	36	C9H16N+
165.0698	970	C13H9+
166.0731	86	C12[13]CH9+
167.0757	6	C11[13]C2H9+
194.0966	14	C14H12N+
