Mass spectrum: Nitrendipin; LC-ESI-QTOF; MS2; CE: Ramp 22.8-34.2 eV; R=35000; [M+H]+
Name: Nitrendipin
Name: Nitrendipine
Name: 5-O-ethyl 3-O-methyl 2,6-dimethyl-4-(3-nitrophenyl)-1,4-dihydropyridine-3,5-dicarboxylate
Formula: C18H20N2O6
Exact mass: 360.1321364
SMILES: CCOC(=O)C1=C(C)NC(C)=C(C1C1=CC=CC(=C1)[N+]([O-])=O)C(=O)OC
InChI: InChI=1S/C18H20N2O6/c1-5-26-18(22)15-11(3)19-10(2)14(17(21)25-4)16(15)12-7-6-8-13(9-12)20(23)24/h6-9,16,19H,5H2,1-4H3
Instrument: Bruker maXis Impact
Instrument type: LC-ESI-QTOF
Ms type: MS2
Ion mode: POSITIVE
Ionization: ESI
Fragmentation mode: CID
Collision energy: Ramp 22.8-34.2 eV
Resolution: 35000
Column name: Acclaim RSLC C18 2.2um, 2.1x100mm, Thermo
Retention time: 9.790 min
Base peak: 361.1394
Precursor m/z: 361.1394
Precursor type: [M+H]+
m/z	relative intensity	assigned
67.0171	19	C4H3O+
140.0699	7	C7H10NO2+
166.0845	11	C6H14O5+
168.0793	13	C9H12O3+
171.102	5	C9H15O3+
176.0325	5	C6H8O6+
181.0871	7	C10H13O3+
182.0945	9	C10H14O3+
183.1029	16	C13H13N+
196.0757	5	C13H10NO+
198.0912	6	C13H12NO+
200.0335	11	C11H6NO3+
208.0744	6	C14H10NO+
209.0821	22	C11H13O4+
210.0903	62	C14H12NO+
211.097	33	C11H15O4+
212.0688	6	C10H12O5+
212.1011	7	C10[13]CH15O4+
214.0494	5	C12H8NO3+
214.0838	5	C10H14O5+
217.0609	11	C11H9N2O3+
225.0771	5	C11H13O5+
226.0858	108	C14H12NO2+
227.0847	31	C13H11N2O2+
228.0863	6	C12[13]CH11N2O2+
229.1	5	C18H13+
236.07	9	C15H10NO2+
237.077	7	C12H13O5+
238.0726	7	C14H10N2O2+
238.1056	5	C12H16NO4+
239.0806	19	C14H11N2O2+
240.0918	11	C14H12N2O2+
241.0718	14	C11H13O6+
241.108	5	C12H17O5+
242.0789	16	C11H14O6+
243.087	21	C11H15O6+
253.0726	25	C15H11NO3+
254.0807	111	C15H12NO3+
255.0858	116	C12H15O6+
256.0911	20	C11[13]CH15O6+
257.0922	26	C14H13N2O3+
266.0681	5	C15H10N2O3+
267.0882	21	C16H13NO3+
268.0956	68	C16H14NO3+
269.104	158	C13H17O6+
270.0704	7	C15H12NO4+
270.1052	31	C12[13]CH17O6+
273.0858	9	C14H13N2O4+
281.0989	7	C14H17O6+
282.1104	7	C14H18O6+
283.0714	141	C15H11N2O4+
283.1204	25	C14H19O6+
284.0773	71	C15H12N2O4+
284.1186	5	C13[13]CH19O6+
285.0625	27	C15H11NO5+
285.0961	6	C16H15NO4+
287.0782	32	C15H13NO5+
287.1005	6	C15H15N2O4+
288.0831	5	C14[13]CH13NO5+
297.0881	7	C16H13N2O4+
298.0945	59	C16H14N2O4+
299.0789	34	C16H13NO5+
299.0974	13	C15[13]CH14N2O4+
300.0799	7	C15[13]CH13NO5+
301.0838	206	C15H13N2O5+
302.0864	31	C14[13]CH13N2O5+
312.1099	16	C17H16N2O4+
313.0884	6	C17H15NO5+
315.0976	999	C16H15N2O5+
316.1007	207	C15[13]CH15N2O5+
317.1022	26	C17H17O6+
329.1133	716	C17H17N2O5+
330.1163	150	C16[13]CH17N2O5+
331.0922	20	C16H15N2O6+
331.1178	14	C15[13]C2H17N2O5+
359.1242	12	C18H19N2O6+
361.1396	6	C18H21N2O6+
