Mass spectrum: JWH-018; LC-ESI-QTOF; MS2; CE: 20 eV; R=35000; [M+H]+
Name: JWH-018
Name: 1-Pentyl-3-(1-naphthoyl)indole
Name: naphthalen-1-yl-(1-pentylindol-3-yl)methanone
Formula: C24H23NO
Exact mass: 341.1779644
SMILES: CCCCCN1C=C(C2=CC=CC=C21)C(=O)C3=CC=CC4=CC=CC=C43
InChI: InChI=1S/C24H23NO/c1-2-3-8-16-25-17-22(20-13-6-7-15-23(20)25)24(26)21-14-9-11-18-10-4-5-12-19(18)21/h4-7,9-15,17H,2-3,8,16H2,1H3
Instrument: Bruker maXis Impact
Instrument type: LC-ESI-QTOF
Ms type: MS2
Ion mode: POSITIVE
Ionization: ESI
Fragmentation mode: CID
Collision energy: 20 eV
Resolution: 35000
Column name: Acclaim RSLC C18 2.2um, 2.1x100mm, Thermo
Retention time: 12.692 min
Base peak: 342.1878
Precursor m/z: 342.1852
Precursor type: [M+H]+
m/z	relative intensity	assigned
145.0651	6	C10H9O+
155.05	355	C11H7O+
156.0532	33	C10[13]CH7O+
214.1241	72	C14H16NO+
215.1268	10	C13[13]CH16NO+
342.1886	999	C24H24NO+
343.1914	243	C23[13]CH24NO+
344.1942	23	C22[13]C2H24NO+
