Mass spectrum: Butylparaben; LC-ESI-QTOF; MS2; CE: Ramp 17.8-26.7 eV; R=35000; [M+H]+
Name: Butylparaben
Name: butyl 4-hydroxybenzoate
Formula: C11H14O3
Exact mass: 194.0942943
SMILES: CCCCOC(=O)C1=CC=C(O)C=C1
InChI: InChI=1S/C11H14O3/c1-2-3-8-14-11(13)9-4-6-10(12)7-5-9/h4-7,12H,2-3,8H2,1H3
Instrument: Bruker maXis Impact
Instrument type: LC-ESI-QTOF
Ms type: MS2
Ion mode: POSITIVE
Ionization: ESI
Fragmentation mode: CID
Collision energy: Ramp 17.8-26.7 eV
Resolution: 35000
Column name: Acclaim RSLC C18 2.2um, 2.1x100mm, Thermo
Retention time: 9.469 min
Base peak: 102.1289
Precursor m/z: 195.1016
Precursor type: [M+H]+
m/z	relative intensity	assigned
57.0695	70	C4H9+
95.0492	59	C6H7O+
121.0278	342	C7H5O2+
139.0378	999	C7H7O3+
140.0411	55	C6[13]CH7O3+
