Mass spectrum: Pendimethalin; LC-ESI-QTOF; MS2; CE: 50 eV; R=35000; [M+H]+
Name: Pendimethalin
Name: 3,4-dimethyl-2,6-dinitro-N-pentan-3-ylaniline
Formula: C13H19N3O4
Exact mass: 281.1375561
SMILES: CCC(CC)NC1=C(C(C)=C(C)C=C1[N+]([O-])=O)[N+]([O-])=O
InChI: InChI=1S/C13H19N3O4/c1-5-10(6-2)14-12-11(15(17)18)7-8(3)9(4)13(12)16(19)20/h7,10,14H,5-6H2,1-4H3
Instrument: Bruker maXis Impact
Instrument type: LC-ESI-QTOF
Ms type: MS2
Ion mode: POSITIVE
Ionization: ESI
Fragmentation mode: CID
Collision energy: 50 eV
Resolution: 35000
Column name: Acclaim RSLC C18 2.2um, 2.1x100mm, Thermo
Retention time: 12.838 min
Base peak: 308.0036
Precursor m/z: 282.1448
Precursor type: [M+H]+
m/z	relative intensity	assigned
118.0509	199	C4H8NO3+
119.0588	598	C4H9NO3+
120.0673	187	C7H8N2+
129.0443	269	C8H5N2+
131.0593	229	C8H7N2+
132.0555	151	C7H6N3+
134.0946	153	C6H14O3+
136.0379	173	C7H6NO2+
144.0778	167	C7H12O3+
147.054	467	C8H7N2O+
148.0614	999	C5H10NO4+
149.0211	259	C6H3N3O2+
163.0484	249	C8H7N2O2+
176.143	151	C12H18N+
178.0595	332	C8H8N3O2+
