Mass spectrum: Isoproturon; LC-ESI-QTOF; MS2; CE: 30 eV; R=35000; [M+H]+
Name: Isoproturon
Name: 1,1-dimethyl-3-(4-propan-2-ylphenyl)urea
Formula: C12H18N2O
Exact mass: 206.1419132
SMILES: CC(C)C1=CC=C(NC(=O)N(C)C)C=C1
InChI: InChI=1S/C12H18N2O/c1-9(2)10-5-7-11(8-6-10)13-12(15)14(3)4/h5-9H,1-4H3,(H,13,15)
Instrument: Bruker maXis Impact
Instrument type: LC-ESI-QTOF
Ms type: MS2
Ion mode: POSITIVE
Ionization: ESI
Fragmentation mode: CID
Collision energy: 30 eV
Resolution: 35000
Column name: Acclaim RSLC C18 2.2um, 2.1x100mm, Thermo
Retention time: 8.2 min
Base peak: 207.1489
Precursor m/z: 207.1492
Precursor type: [M+H]+
m/z	relative intensity	assigned
115.0542	55	C9H7+
117.07	54	C9H9+
118.0645	72	C8H8N+
119.0728	127	C8H9N+
120.0438	71	C7H6NO+
132.08	56	C9H10N+
134.0957	999	C9H12N+
135.0993	105	C4H13N3O2+
137.0812	28	C8H11NO+
162.0891	155	C10H12NO+
164.092	100	C9H12N2O+
165.1014	276	C9H13N2O+
207.149	89	C12H19N2O+
