Mass spectrum: Colchicine; LC-ESI-QTOF; MS2; CE: 50 eV; R=35000; [M+H]+
Name: Colchicine
Name: N-[(7S)-1,2,3,10-tetramethoxy-9-oxo-6,7-dihydro-5H-benzo[a]heptalen-7-yl]acetamide
Formula: C22H25NO6
Exact mass: 399.1681875
SMILES: C/C(=N\[C@H]1CCc2cc(c(c(c2-c3c1cc(=O)c(cc3)OC)OC)OC)OC)/O
InChI: InChI=1S/C22H25NO6/c1-12(24)23-16-8-6-13-10-19(27-3)21(28-4)22(29-5)20(13)14-7-9-18(26-2)17(25)11-15(14)16/h7,9-11,16H,6,8H2,1-5H3,(H,23,24)/t16-/m0/s1
Instrument: Bruker maXis Impact
Instrument type: LC-ESI-QTOF
Ms type: MS2
Ion mode: POSITIVE
Ionization: ESI
Fragmentation mode: CID
Collision energy: 50 eV
Resolution: 35000
Column name: Acclaim RSLC C18 2.2um, 2.1x100mm, Thermo
Retention time: 6.2 min
Base peak: 400.1628
Precursor m/z: 400.1755
Precursor type: [M+H]+
m/z	relative intensity	assigned
133.0482	57	C5H9O4+
137.0542	72	C3H9N2O4+
145.0595	21	C2H11NO6+
147.0321	20	C8H5NO2+
148.0453	29	C4H8N2O4+
150.0485	44	C12H6+
151.064	20	C8H9NO2+
152.0593	43	C12H8+
153.0633	19	C4H11NO5+
160.0706	24	C7H12O4+
161.0488	23	C9H7NO2+
165.0657	41	C5H11NO5+
166.069	20	C5H12NO5+
167.0604	22	C8H9NO3+
167.0785	21	C5H13NO5+
169.0576	21	C4H11NO6+
173.0575	23	C11H9O2+
174.056	19	C10H8NO2+
175.0558	22	C14H7+
176.0675	56	C10H10NO2+
177.0524	37	C10H9O3+
177.0629	25	C6H11NO5+
178.072	40	C6H12NO5+
179.0611	39	C9H9NO3+
179.0782	39	C6H13NO5+
181.0577	50	C5H11NO6+
181.0758	98	C9H11NO3+
182.0639	40	C5H12NO6+
183.0737	29	C5H13NO6+
188.0642	30	C15H8+
189.065	25	C7H11NO5+
190.0792	53	C15H10+
191.0601	45	C10H9NO3+
191.0789	21	C7H13NO5+
192.0571	35	C14H8O+
192.0752	19	C11H12O3+
193.058	33	C6H11NO6+
194.0653	46	C6H12NO6+
194.0912	22	C11H14O3+
195.0728	82	C6H13NO6+
196.0808	49	C6H14NO6+
197.0501	43	C12H7NO2+
197.0875	39	C6H15NO6+
198.0581	33	C12H8NO2+
199.0659	38	C12H9NO2+
203.0863	32	C16H11+
204.0607	42	C8H12O6+
204.0688	38	C11H10NO3+
204.0816	22	C15H10N+
205.059	63	C7H11NO6+
205.0761	20	C11H11NO3+
206.0691	44	C15H10O+
207.0726	108	C7H13NO6+
207.0916	51	C11H13NO3+
208.0791	58	C7H14NO6+
209.0504	42	C13H7NO2+
209.0878	68	C7H15NO6+
209.1086	19	C11H15NO3+
210.0591	52	C13H8NO2+
211.0656	97	C13H9NO2+
211.1025	26	C7H17NO6+
212.0745	81	C13H10NO2+
213.0815	50	C13H11NO2+
216.0681	20	C12H10NO3+
217.0602	24	C8H11NO6+
218.0703	45	C16H10O+
219.0729	56	C8H13NO6+
220.0495	20	C15H8O2+
220.0809	45	C8H14NO6+
221.0568	40	C15H9O2+
221.088	46	C8H15NO6+
222.0582	45	C14H8NO2+
222.0848	47	C12H14O4+
223.0668	191	C14H9NO2+
224.0747	215	C14H10NO2+
224.101	27	
225.0457	26	C13H7NO3+
225.081	94	C14H11NO2+
226.054	39	C13H8NO3+
226.088	69	C14H12NO2+
227.0614	172	C13H9NO3+
227.0966	44	C14H13NO2+
228.0655	53	C13H10NO3+
228.0929	18	C18H12+
229.0768	21	C13H11NO3+
232.0695	19	C13H12O4+
233.0515	39	C15H7NO2+
234.0589	49	C15H8NO2+
234.0852	24	C13H14O4+
234.1031	27	C17H14O+
235.0669	208	C15H9NO2+
235.0928	19	C13H15O4+
236.0389	19	C14H6NO3+
236.0737	121	C15H10NO2+
236.1013	40	C13H16O4+
237.0504	45	C15H9O3+
237.083	182	C15H11NO2+
237.1081	26	C13H17O4+
238.0527	29	C14H8NO3+
238.0877	91	C15H12NO2+
239.0616	62	C14H9NO3+
239.0984	242	C15H13NO2+
240.0694	156	C14H10NO3+
240.0995	73	C12H16O5+
241.0774	216	C14H11NO3+
242.085	108	C14H12NO3+
243.056	54	C13H9NO4+
243.0904	47	C14H13NO3+
244.0626	21	C13H10NO4+
247.0665	47	C16H9NO2+
248.074	74	C16H10NO2+
249.0454	23	C15H7NO3+
249.082	72	C16H11NO2+
250.0523	50	C15H8NO3+
250.0862	121	C16H12NO2+
251.0621	318	C15H9NO3+
251.0978	140	C16H13NO2+
252.069	300	C15H10NO3+
252.0957	103	C20H12+
253.0407	50	C14H7NO4+
253.0747	138	C15H11NO3+
253.1024	39	C20H13+
254.0468	27	C14H8NO4+
254.0798	97	C15H12NO3+
254.1053	24	C12H16NO5+
255.0567	154	C14H9NO4+
255.0931	178	C15H13NO3+
256.0614	77	C14H10NO4+
256.0945	75	C12H16O6+
257.0713	35	C14H11NO4+
257.1055	20	C12H17O6+
258.1042	20	C19H14O+
259.0875	24	C14H13NO4+
262.0766	27	C21H10+
263.0595	123	C16H9NO3+
263.0845	36	C21H11+
264.0666	97	C16H10NO3+
264.0935	71	C21H12+
265.0385	29	C15H7NO4+
265.0764	198	C16H11NO3+
266.0823	153	C16H12NO3+
266.1101	47	C21H14+
267.092	999	C16H13NO3+
268.064	132	C15H10NO4+
268.0919	239	C15[13]CH13NO3+
269.071	144	C15H11NO4+
269.0976	76	C20H13O+
270.078	127	C15H12NO4+
270.1073	46	C13H18O6+
271.0862	87	C15H13NO4+
272.0612	19	C22H8+
272.0884	38	C15H14NO4+
272.1194	45	C20H16O+
276.0689	24	C17H10NO3+
276.0919	25	C22H12+
277.0761	44	C17H11NO3+
277.1001	26	C22H13+
278.0801	107	C17H12NO3+
278.1077	26	C22H14+
279.0557	168	C16H9NO4+
279.0895	106	C17H13NO3+
280.0621	125	C16H10NO4+
280.0874	127	C21H12O+
281.0721	70	C16H11NO4+
281.1053	86	C17H15NO3+
282.074	58	C16H12NO4+
282.1121	201	C17H16NO3+
283.0867	412	C16H13NO4+
283.113	71	C21H15O+
284.0903	106	C15[13]CH13NO4+
285.0686	45	C15H11NO5+
285.1017	115	C16H15NO4+
286.0999	97	C20H14O2+
287.0824	127	C15H13NO5+
287.1113	21	C16H17NO4+
288.0861	29	C15H14NO5+
292.0895	63	C22H12O+
293.071	89	C17H11NO4+
293.0931	74	C22H13O+
294.0769	66	C17H12NO4+
294.1013	123	C22H14O+
296.0842	212	C20[13]CH11O2+
297.0625	25	C16H11NO5+
297.1004	115	C17H15NO4+
297.125	26	C22H17O+
298.0731	23	C16H12NO5+
298.1075	84	C17H16NO4+
298.1334	42	C22H18O+
299.0809	34	C16H13NO5+
299.1086	60	C21H15O2+
300.0822	40	C20H12O3+
300.113	253	C21H16O2+
301.1184	102	C20[13]CH16O2+
302.108	22	C17H18O5+
302.1221	21	C20H16NO2+
306.101	32	C15H16NO6+
308.0848	36	C22H12O2+
308.1188	47	C15H18NO6+
309.1006	106	C18H15NO4+
310.0729	21	C17H12NO5+
310.1019	179	C22H14O2+
311.0853	359	C18H15O5+
312.0837	67	C16[13]CH13NO5+
313.0891	29	C21H13O3+
313.1177	23	C22H17O2+
314.0918	59	C21H14O3+
314.1295	51	C22H18O2+
315.0939	37	C20H13NO3+
320.0862	20	C19H14NO4+
321.0947	25	C19H15NO4+
322.0913	22	C22H12NO2+
323.1094	22	C19H17NO4+
324.1172	131	C19H18NO4+
325.1012	47	C19H17O5+
327.1077	26	C18H17NO5+
327.1305	19	C22H17NO2+
328.1095	117	C22H16O3+
329.1126	39	C22H17O3+
338.1341	18	C20H20NO4+
339.1405	24	C20H21NO4+
340.1357	24	C20H20O5+
342.1188	69	C22H16NO3+
343.1251	32	C22H17NO3+
