Mass spectrum: Acetochlor; LC-ESI-QTOF; MS2; CE: 30 eV; R=35000; [M+H]+
Name: Acetochlor
Name: 2-chloro-N-(ethoxymethyl)-N-(2-ethyl-6-methylphenyl)acetamide
Formula: C14H20ClNO2
Exact mass: 269.1182566
SMILES: CCOCN(C(=O)CCl)C1=C(CC)C=CC=C1C
InChI: InChI=1S/C14H20ClNO2/c1-4-12-8-6-7-11(3)14(12)16(10-18-5-2)13(17)9-15/h6-8H,4-5,9-10H2,1-3H3
Instrument: Bruker maXis Impact
Instrument type: LC-ESI-QTOF
Ms type: MS2
Ion mode: POSITIVE
Ionization: ESI
Fragmentation mode: CID
Collision energy: 30 eV
Resolution: 35000
Column name: Acclaim RSLC C18 2.2um, 2.1x100mm, Thermo
Retention time: 10.1 min
Base peak: 224.0834
Precursor m/z: 270.1255
Precursor type: [M+H]+
m/z	relative intensity	assigned
117.0564	10	C8H7N+
118.0636	8	C2H13ClNO2+
120.0796	10	C2H15ClNO2+
131.0711	7	C3H14ClNO2+
132.0799	83	C9H10N+
133.0878	470	C9H11N+
134.091	43	C4H12N3O2+
144.0796	7	C4H15ClNO2+
145.0888	11	C10H11N+
146.0955	8	C10H12N+
147.1036	24	C10H13N+
148.1112	999	C10H14N+
149.0941	15	C10H13O+
158.0967	6	C11H12N+
159.1161	6	C12H15+
160.1096	9	C5H19ClNO2+
171.1021	13	C6H18ClNO2+
173.0832	10	C11H11NO+
188.1068	10	C12H14NO+
206.0731	12	C12H13ClN+
224.0828	53	C12H15ClNO+
225.0856	12	C11[13]CH15ClNO+
226.0801	17	C12H15[37]ClNO+
