Mass spectrum: Isoproturon; LC-ESI-QTOF; MS2; CE: 20 eV; R=35000; [M+H]+
Name: Isoproturon
Name: 1,1-dimethyl-3-(4-propan-2-ylphenyl)urea
Formula: C12H18N2O
Exact mass: 206.1419132
SMILES: CC(C)C1=CC=C(NC(=O)N(C)C)C=C1
InChI: InChI=1S/C12H18N2O/c1-9(2)10-5-7-11(8-6-10)13-12(15)14(3)4/h5-9H,1-4H3,(H,13,15)
Instrument: Bruker maXis Impact
Instrument type: LC-ESI-QTOF
Ms type: MS2
Ion mode: POSITIVE
Ionization: ESI
Fragmentation mode: CID
Collision energy: 20 eV
Resolution: 35000
Column name: Acclaim RSLC C18 2.2um, 2.1x100mm, Thermo
Retention time: 8.2 min
Base peak: 207.1488
Precursor m/z: 207.1492
Precursor type: [M+H]+
m/z	relative intensity	assigned
119.0707	12	C8H9N+
120.0442	17	C7H6NO+
132.0793	6	C9H10N+
134.0955	237	C9H12N+
135.0989	23	C4H13N3O2+
137.0803	7	C6H9N4+
162.0905	112	C10H12NO+
163.0943	14	C8H11N4+
164.0922	20	C9H12N2O+
165.1013	856	C9H13N2O+
167.1076	9	C10H15O2+
192.1233	6	C11H16N2O+
193.1303	14	C11H17N2O+
207.1486	999	C12H19N2O+
208.1516	163	C11[13]CH19N2O+
209.1543	9	C10[13]C2H19N2O+
