Mass spectrum: Warfarin; LC-ESI-QTOF; MS2; CE: Ramp 24.3-36.4 eV; R=35000; [M-H]-
Name: Warfarin
Name: 4-hydroxy-3-(3-oxo-1-phenylbutyl)chromen-2-one
Formula: C19H16O4
Exact mass: 308.1048590
SMILES: CC(=O)CC(C1=CC=CC=C1)C1=C(O)C2=CC=CC=C2OC1=O
InChI: InChI=1S/C19H16O4/c1-12(20)11-15(13-7-3-2-4-8-13)17-18(21)14-9-5-6-10-16(14)23-19(17)22/h2-10,15,21H,11H2,1H3
Instrument: Bruker maXis Impact
Instrument type: LC-ESI-QTOF
Ms type: MS2
Ion mode: NEGATIVE
Ionization: ESI
Fragmentation mode: CID
Collision energy: Ramp 24.3-36.4 eV
Resolution: 35000
Column name: Acclaim RSLC C18 2.2um, 2.1x100mm, Thermo
Retention time: 6.664 min
Base peak: 59.0129
Precursor m/z: 307.0976
Precursor type: [M-H]-
m/z	relative intensity	assigned
57.0337	283	C3H5O-
58.0365	12	C2[13]CH5O-
83.012	15	C4H3O2-
117.0345	115	C8H5O-
118.0376	8	C7[13]CH5O-
130.0442	8	C9H6O-
133.0663	9	C9H9O-
157.0666	10	C11H9O-
161.0252	781	C9H5O3-
162.028	72	C8[13]CH5O3-
187.075	5	C12H11O2-
195.0815	6	C14H11O-
206.073	41	C15H10O-
207.0742	7	C14[13]CH10O-
219.08	7	C16H11O-
221.0581	6	C15H9O2-
221.0965	9	C16H13O-
222.0697	10	C15H10O2-
223.0755	35	C15H11O2-
224.0775	6	C14[13]CH11O2-
248.0827	5	C17H12O2-
249.0517	5	C16H9O3-
250.0634	999	C16H10O3-
251.0658	169	C15[13]CH10O3-
252.0705	10	C14[13]C2H10O3-
263.1103	6	C18H15O2-
289.0851	5	C19H13O3-
307.0952	177	C19H15O4-
308.0997	41	C18[13]CH15O4-
