Mass spectrum: Lopinavir; LC-ESI-QTOF; MS2; CE: Ramp 28.3-42.4 eV; R=35000; [M+H]+
Name: Lopinavir
Name: (2S)-N-[(2S,4S,5S)-5-[[2-(2,6-dimethylphenoxy)acetyl]amino]-4-hydroxy-1,6-diphenylhexan-2-yl]-3-methyl-2-(2-oxo-1,3-diazinan-1-yl)butanamide
Formula: C37H48N4O5
Exact mass: 628.3624706
SMILES: Cc1cccc(c1OCC(=O)N[C@@H](Cc2ccccc2)[C@H](C[C@H](Cc3ccccc3)NC(=O)[C@H](C(C)C)N4CCCNC4=O)O)C
InChI: InChI=1S/C37H48N4O5/c1-25(2)34(41-20-12-19-38-37(41)45)36(44)39-30(21-28-15-7-5-8-16-28)23-32(42)31(22-29-17-9-6-10-18-29)40-33(43)24-46-35-26(3)13-11-14-27(35)4/h5-11,13-18,25,30-32,34,42H,12,19-24H2,1-4H3,(H,38,45)(H,39,44)(H,40,43)/t30-,31-,32-,34-/m0/s1
Instrument: Bruker maXis Impact
Instrument type: LC-ESI-QTOF
Ms type: MS2
Ion mode: POSITIVE
Ionization: ESI
Fragmentation mode: CID
Collision energy: Ramp 28.3-42.4 eV
Resolution: 35000
Column name: Acclaim RSLC C18 2.2um, 2.1x100mm, Thermo
Retention time: 11.818 min
Base peak: 629.3688
Precursor m/z: 629.3697
Precursor type: [M+H]+
m/z	relative intensity	assigned
120.0799	60	C5H12O3+
121.083	5	C4[13]CH12O3+
155.1168	622	C5H17NO4+
156.1197	45	C4[13]CH17NO4+
183.1119	999	C9H15N2O2+
184.115	86	C8[13]CH15N2O2+
185.1168	6	C7[13]C2H15N2O2+
250.1582	19	C18H20N+
310.1799	54	C18H22N4O+
311.1823	12	C17[13]CH22N4O+
384.2314	8	C25H28N4+
412.227	18	C26H28N4O+
413.2297	5	C25[13]CH28N4O+
429.2538	418	C28H33N2O2+
430.2569	117	C27[13]CH33N2O2+
431.2593	13	C26[13]C2H33N2O2+
447.2645	230	C28H35N2O3+
448.2674	72	C27[13]CH35N2O3+
449.27	8	C26[13]C2H35N2O3+
611.3586	10	C37H47N4O4+
612.3614	5	C36[13]CH47N4O4+
