Mass spectrum: Fipronil sulfone; LC-ESI-QTOF; MS2; CE: 40 eV; R=35000; [M-H]-
Name: Fipronil sulfone
Name: 5-amino-1-[2,6-dichloro-4-(trifluoromethyl)phenyl]-4-(trifluoromethylsulfonyl)pyrazole-3-carbonitrile
Formula: C12H4Cl2F6N4O2S
Exact mass: 451.9336210
SMILES: NC1=C(C(=NN1C1=C(Cl)C=C(C=C1Cl)C(F)(F)F)C#N)S(=O)(=O)C(F)(F)F
InChI: InChI=1S/C12H4Cl2F6N4O2S/c13-5-1-4(11(15,16)17)2-6(14)8(5)24-10(22)9(7(3-21)23-24)27(25,26)12(18,19)20/h1-2H,22H2
Instrument: Bruker maXis Impact
Instrument type: LC-ESI-QTOF
Ms type: MS2
Ion mode: NEGATIVE
Ionization: ESI
Fragmentation mode: CID
Collision energy: 40 eV
Resolution: 35000
Column name: Acclaim RSLC C18 2.2um, 2.1x100mm, Thermo
Retention time: 10.886 min
Base peak: 450.9257
Precursor m/z: 450.9263
Precursor type: [M-H]-
m/z	relative intensity	assigned
132.9572	22	CH2ClF2NS-
170.0092	50	C7HF3N2-
182.0095	16	C8HF3N2-
183.0171	111	C8H2F3N2-
184.0193	8	C7[13]CH2F3N2-
198.0014	6	C6H3FN4OS-
217.9849	44	C8H2ClF3N2-
218.009	170	C11HF3N2-
219.0113	14	C10[13]CHF3N2-
219.9816	11	C8H2[37]ClF3N2-
227.0163	13	C11HF2N4-
233.9801	61	C8H2ClF3N2O-
235.9781	14	C8H2[37]ClF3N2O-
241.9778	8	C6H2F4N2O2S-
243.9892	535	C9H2ClF3N3-
244.9923	34	C8[13]CH2ClF3N3-
245.9853	100	C9H2[37]ClF3N3-
246.0153	249	C11HF3N4-
246.9872	7	C12H2ClF2N2-
247.0182	26	C10[13]CHF3N4-
253.9862	10	C11H2ClF3N2-
257.988	5	C10H2F4N2S-
259.9831	11	C12HClF2N3-
261.9853	133	C8H3ClF6N-
262.987	10	C7[13]CH3ClF6N-
263.9822	29	C8H3[37]ClF6N-
271.9844	5	C10H2ClF3N3O-
281.9922	999	C11H2ClF3N4-
282.994	87	C10[13]CH2ClF3N4-
283.9888	214	C11H2[37]ClF3N4-
284.9914	15	C11H3ClF3N3O-
297.9859	31	C11H2ClF3N4O-
299.9844	8	C11H2[37]ClF3N4O-
300.9902	7	C11H2ClF4N4-
313.9803	13	C9HClF6N4-
414.9483	12	C12H2ClF6N4O2S-
