Mass spectrum: N,N-Dimethyltetradecylamine-N-oxide; LC-ESI-QTOF; MS2; CE: 40 eV; R=35000; [M+H]+
Name: N,N-Dimethyltetradecylamine-N-oxide
Name: Myristamine oxide
Name: N,N-dimethyltetradecan-1-amine oxide
Formula: C16H35NO
Exact mass: 257.2718647
SMILES: CCCCCCCCCCCCCC[N+](C)(C)[O-]
InChI: InChI=1S/C16H35NO/c1-4-5-6-7-8-9-10-11-12-13-14-15-16-17(2,3)18/h4-16H2,1-3H3
Instrument: Bruker maXis Impact
Instrument type: LC-ESI-QTOF
Ms type: MS2
Ion mode: POSITIVE
Ionization: ESI
Fragmentation mode: CID
Collision energy: 40 eV
Resolution: 35000
Column name: Acclaim RSLC C18 2.2um, 2.1x100mm, Thermo
Retention time: 12.531 min
Base peak: 258.2796
Precursor m/z: 258.2791
Precursor type: [M+H]+
m/z	relative intensity	assigned
128.1422	57	C8H18N+
142.1596	66	C9H20N+
156.1721	66	C10H22N+
170.1903	71	C11H24N+
184.2045	54	C12H26N+
226.2523	93	C15H32N+
240.268	999	C16H34N+
241.2715	169	C15[13]CH34N+
258.2794	48	C16H36NO+
