Mass spectrum: Clomipramine; LC-ESI-QTOF; MS2; CE: RAMP 21.9-32.9 eV; R=35000; [M+H]+
Name: Clomipramine
Name: 3-(2-chloro-5,6-dihydrobenzo[b][1]benzazepin-11-yl)-N,N-dimethylpropan-1-amine
Formula: C19H23ClN2
Exact mass: 314.1549764
SMILES: CN(C)CCCN1c2ccccc2CCc3c1cc(cc3)Cl
InChI: InChI=1S/C19H23ClN2/c1-21(2)12-5-13-22-18-7-4-3-6-15(18)8-9-16-10-11-17(20)14-19(16)22/h3-4,6-7,10-11,14H,5,8-9,12-13H2,1-2H3
Instrument: Bruker maXis Impact
Instrument type: LC-ESI-QTOF
Ms type: MS2
Ion mode: POSITIVE
Ionization: ESI
Fragmentation mode: CID
Collision energy: RAMP 21.9-32.9 eV
Resolution: 35000
Column name: Acclaim RSLC C18 2.2um, 2.1x100mm, Thermo
Retention time: 9.244 min
Base peak: 315.1629
Precursor m/z: 315.1623
Precursor type: [M+H]+
m/z	relative intensity	assigned
58.0644	769	C3H8N+
59.0676	21	C2[13]CH8N+
86.0966	999	C5H12N+
87.0992	65	C4[13]CH12N+
220.1115	14	C16H14N+
227.0492	26	C14H10ClN+
229.0462	5	C14H10[37]ClN+
235.1353	20	C17H17N+
242.0732	109	C15H13ClN+
243.0764	20	C14[13]CH13ClN+
244.0701	33	C15H13[37]ClN+
270.1046	49	C17H17ClN+
271.1074	9	C16[13]CH17ClN+
272.1016	15	C17H17[37]ClN+
315.1633	95	C19H24ClN2+
316.1658	25	C18[13]CH24ClN2+
317.1601	33	C19H24[37]ClN2+
