Mass spectrum: Difloxacin; LC-ESI-QTOF; MS2; CE: 20 eV; R=35000; [M+H]+
Name: Difloxacin
Name: 6-fluoro-1-(4-fluorophenyl)-7-(4-methylpiperazin-1-yl)-4-oxoquinoline-3-carboxylic acid
Name: 6-fluoro-1-(4-fluorophenyl)-7-(4-methylpiperazin-4-ium-1-yl)-4-oxoquinoline-3-carboxylate
Formula: C21H19F2N3O3
Exact mass: 399.1394479
SMILES: CN1CCN(CC1)C2=C(C=C3C(=C2)N(C=C(C3=O)C(=O)O)C4=CC=C(C=C4)F)F
InChI: InChI=1S/C21H19F2N3O3/c1-24-6-8-25(9-7-24)19-11-18-15(10-17(19)23)20(27)16(21(28)29)12-26(18)14-4-2-13(22)3-5-14/h2-5,10-12H,6-9H2,1H3,(H,28,29)
Instrument: Bruker maXis Impact
Instrument type: LC-ESI-QTOF
Ms type: MS2
Ion mode: POSITIVE
Ionization: ESI
Fragmentation mode: CID
Collision energy: 20 eV
Resolution: 35000
Column name: Acclaim RSLC C18 2.2um, 2.1x100mm, Thermo
Retention time: 5.753 min
Base peak: 183.0795
Precursor m/z: 400.1467
Precursor type: [M+H]+
m/z	relative intensity	assigned
199.0748	6	C8H10FN3O2+
299.1018	12	C17H13F2N2O+
299.1622	5	C18H20FN2O+
356.1603	130	C20H20F2N3O+
357.1656	31	C19[13]CH20F2N3O+
382.1409	70	C21H18F2N3O2+
383.1457	21	C20[13]CH18F2N3O2+
400.1507	999	C21H20F2N3O3+
401.154	273	C20[13]CH20F2N3O3+
402.158	32	C19[13]C2H20F2N3O3+
