Mass spectrum: Ethylparaben; LC-ESI-QTOF; MS2; CE: Ramp 16.8-25.2 eV; R=35000; [M+H]+
Name: Ethylparaben
Name: ethyl 4-hydroxybenzoate
Formula: C9H10O3
Exact mass: 166.0629942
SMILES: CCOC(=O)C1=CC=C(O)C=C1
InChI: InChI=1S/C9H10O3/c1-2-12-9(11)7-3-5-8(10)6-4-7/h3-6,10H,2H2,1H3
Instrument: Bruker maXis Impact
Instrument type: LC-ESI-QTOF
Ms type: MS2
Ion mode: POSITIVE
Ionization: ESI
Fragmentation mode: CID
Collision energy: Ramp 16.8-25.2 eV
Resolution: 35000
Column name: Acclaim RSLC C18 2.2um, 2.1x100mm, Thermo
Retention time: 7.125 min
Base peak: 102.1286
Precursor m/z: 167.0703
Precursor type: [M+H]+
m/z	relative intensity	assigned
53.0391	24	C4H5+
59.0485	21	C3H7O+
95.0501	94	C6H7O+
121.0278	752	C7H5O2+
122.0298	47	C6[13]CH5O2+
139.0381	999	C7H7O3+
140.0412	75	C6[13]CH7O3+
