Mass spectrum: Metolachlor-Morpholinone; LC-ESI-QTOF; MS2; CE: 20 eV; R=35000; [M+H]+
Name: Metolachlor-Morpholinone
Name: 4-(2-ethyl-6-methylphenyl)-5-methylmorpholin-3-one
Formula: C14H19NO2
Exact mass: 233.1415788
SMILES: CCC1=CC=CC(C)=C1N1C(C)COCC1=O
InChI: InChI=1S/C14H19NO2/c1-4-12-7-5-6-10(2)14(12)15-11(3)8-17-9-13(15)16/h5-7,11H,4,8-9H2,1-3H3
Instrument: Bruker maXis Impact
Instrument type: LC-ESI-QTOF
Ms type: MS2
Ion mode: POSITIVE
Ionization: ESI
Fragmentation mode: CID
Collision energy: 20 eV
Resolution: 35000
Column name: Acclaim RSLC C18 2.2um, 2.1x100mm, Thermo
Retention time: 7.6 min
Base peak: 234.1486
Precursor m/z: 234.1489
Precursor type: [M+H]+
m/z	relative intensity	assigned
206.1172	49	C12H16NO2+
234.149	999	C14H20NO2+
235.1521	139	C13[13]CH20NO2+
236.1547	11	C12[13]C2H20NO2+
