Mass spectrum: 4-Hydroxycoumarin; LC-ESI-QTOF; MS2; CE: 10 eV; R=35000; [M+H]+
Name: 4-Hydroxycoumarin
Name: 4-hydroxychromen-2-one
Formula: C9H6O3
Exact mass: 162.0316941
SMILES: OC1=CC(=O)OC2=CC=CC=C12
InChI: InChI=1S/C9H6O3/c10-7-5-9(11)12-8-4-2-1-3-6(7)8/h1-5,10H
Instrument: Bruker maXis Impact
Instrument type: LC-ESI-QTOF
Ms type: MS2
Ion mode: POSITIVE
Ionization: ESI
Fragmentation mode: CID
Collision energy: 10 eV
Resolution: 35000
Column name: Acclaim RSLC C18 2.2um, 2.1x100mm, Thermo
Retention time: 5.989 min
Base peak: 376.2389
Precursor m/z: 163.039
Precursor type: [M+H]+
m/z	relative intensity	assigned
121.0278	19	C7H5O2+
163.0378	999	C9H7O3+
164.041	76	C8[13]CH7O3+
165.043	7	C9H7O2[18]O+
