Mass spectrum: 7-Amino-4-methylcoumarin; LC-ESI-QTOF; MS2; CE: 30 eV; R=35000; [M+H]+
Name: 7-Amino-4-methylcoumarin
Name: 7-amino-4-methylchromen-2-one
Formula: C10H9NO2
Exact mass: 175.0633285
SMILES: CC1=CC(=O)OC2=CC(N)=CC=C12
InChI: InChI=1S/C10H9NO2/c1-6-4-10(12)13-9-5-7(11)2-3-8(6)9/h2-5H,11H2,1H3
Instrument: Bruker maXis Impact
Instrument type: LC-ESI-QTOF
Ms type: MS2
Ion mode: POSITIVE
Ionization: ESI
Fragmentation mode: CID
Collision energy: 30 eV
Resolution: 35000
Column name: Acclaim RSLC C18 2.2um, 2.1x100mm, Thermo
Retention time: 5.215 min
Base peak: 277.1135
Precursor m/z: 176.0706
Precursor type: [M+H]+
m/z	relative intensity	assigned
118.0664	214	C8H8N+
120.0801	999	C8H10N+
130.0653	407	C9H8N+
133.0522	349	C8H7NO+
148.0752	209	C9H10NO+
176.0698	421	C10H10NO2+
