Mass spectrum: Dodecyl acrylate; GC-APCI-QTOF; MS2; CE: 20 eV; R=35000; [M]+
Name: Dodecyl acrylate
Formula: C15H28O2
Exact mass: 240.2089
SMILES: CCCCCCCCCCCCOC(=O)C=C
InChI: InChI=1S/C15H28O2/c1-3-5-6-7-8-9-10-11-12-13-14-17-15(16)4-2/h4H,2-3,5-14H2,1H3
Instrument: Bruker 450 GC coupled to maXis Impact
Instrument type: GC-APCI-QTOF
Ms type: MS2
Ion mode: POSITIVE
Ionization: APCI
Fragmentation mode: CID
Collision energy: 20 eV
Resolution: 35000
Column name: Rxi-5Sil MS column, 30m, 0.25mm i.d., 0.25Âµm film thickness, Restek
Retention time: 14.219 min
Base peak: 270.2047
Precursor m/z: 240.2084
Precursor type: [M]+
m/z	relative intensity	assigned
55.0548	81	C4H7+
57.0712	110	C4H9+
71.0871	84	C5H11+
73.0283	105	C3H5O2+
109.0654	53	C7H9O+
113.0594	185	C6H9O2+
123.08	103	C8H11O+
123.1174	58	C9H15+
127.0746	999	C7H11O2+
137.0979	105	C9H13O+
139.0756	53	C8H11O2+
155.1104	77	C9H15O2+
177.1646	71	C13H21+
211.1713	69	C13H23O2+
