Mass spectrum: Pentoxifylline; LC-ESI-QTOF; MS2; CE: 10 eV; R=35000; [M+H]+
Name: Pentoxifylline
Name: 3,7-dimethyl-1-(5-oxohexyl)purine-2,6-dione
Formula: C13H18N4O3
Exact mass: 278.1378904
SMILES: CC(=O)CCCCn1c(=O)c2c(ncn2C)n(c1=O)C
InChI: InChI=1S/C13H18N4O3/c1-9(18)6-4-5-7-17-12(19)10-11(14-8-15(10)2)16(3)13(17)20/h8H,4-7H2,1-3H3
Instrument: Bruker maXis Impact
Instrument type: LC-ESI-QTOF
Ms type: MS2
Ion mode: POSITIVE
Ionization: ESI
Fragmentation mode: CID
Collision energy: 10 eV
Resolution: 35000
Column name: Acclaim RSLC C18 2.2um, 2.1x100mm, Thermo
Retention time: 5.362 min
Base peak: 279.1455
Precursor m/z: 279.1452
Precursor type: [M+H]+
m/z	relative intensity	assigned
181.0709	77	C7H9N4O2+
182.0738	5	C6[13]CH9N4O2+
279.1455	999	C13H19N4O3+
280.1479	178	C12[13]CH19N4O3+
281.1497	15	C11[13]C2H19N4O3+
