Mass spectrum: Epiandrosterone; LC-ESI-QTOF; MS2; CE: 30 eV; R=35000; [M+H]+
Name: Epiandrosterone
Name: (3S,5S,8R,9S,10S,13S,14S)-3-hydroxy-10,13-dimethyl-1,2,3,4,5,6,7,8,9,11,12,14,15,16-tetradecahydrocyclopenta[a]phenanthren-17-one
Formula: C19H30O2
Exact mass: 290.2245802
SMILES: C[C@]12CC[C@H]3[C@@H](CC[C@H]4C[C@@H](O)CC[C@]34C)[C@@H]1CCC2=O
InChI: InChI=1S/C19H30O2/c1-18-9-7-13(20)11-12(18)3-4-14-15-5-6-17(21)19(15,2)10-8-16(14)18/h12-16,20H,3-11H2,1-2H3/t12-,13-,14-,15-,16-,18-,19-/m0/s1
Instrument: Bruker maXis Impact
Instrument type: LC-ESI-QTOF
Ms type: MS2
Ion mode: POSITIVE
Ionization: ESI
Fragmentation mode: CID
Collision energy: 30 eV
Resolution: 35000
Column name: Acclaim RSLC C18 2.2um, 2.1x100mm, Thermo
Retention time: 10.514 min
Base peak: 308.258
Precursor m/z: 291.2319
Precursor type: [M+H]+
m/z	relative intensity	assigned
133.1007	522	C10H13+
135.1162	507	C10H15+
145.1004	479	C11H13+
147.1152	999	C11H15+
159.1161	410	C12H15+
161.1325	667	C12H17+
173.1319	604	C13H17+
185.1314	338	C14H17+
187.1461	238	C14H19+
199.1472	485	C15H19+
213.162	313	C16H21+
215.1808	316	C16H23+
255.2101	688	C19H27+
