Mass spectrum: 5-Chlorobenzotriazole; LC-ESI-QTOF; MS2; CE: Ramp 16.3-24.5 eV; R=35000; [M+H]+
Name: 5-Chlorobenzotriazole
Name: 5-chloro-2H-benzotriazole
Formula: C6H4ClN3
Exact mass: 153.0093748
SMILES: ClC1=CC2=NNN=C2C=C1
InChI: InChI=1S/C6H4ClN3/c7-4-1-2-5-6(3-4)9-10-8-5/h1-3H,(H,8,9,10)
Instrument: Bruker maXis Impact
Instrument type: LC-ESI-QTOF
Ms type: MS2
Ion mode: POSITIVE
Ionization: ESI
Fragmentation mode: CID
Collision energy: Ramp 16.3-24.5 eV
Resolution: 35000
Column name: Acclaim RSLC C18 2.2um, 2.1x100mm, Thermo
Retention time: 6.519 min
Base peak: 154.0158
Precursor m/z: 154.0167
Precursor type: [M+H]+
m/z	relative intensity	assigned
63.022	11	C5H3+
72.9834	9	C3H2Cl+
90.0339	11	C6H4N+
91.0408	5	C6H5N+
99.0004	40	C5H4Cl+
100.9968	5	C5H4[37]Cl+
126.0098	58	C6H5ClN+
128.0072	22	C6H5[37]ClN+
154.0161	999	C6H5ClN3+
155.0188	58	C5[13]CH5ClN3+
156.0129	203	C6H5[37]ClN3+
