Mass spectrum: Acenapthylene; GC-APCI-QTOF; MS2; CE: 40 eV; R=35000; [M]+
Name: Acenapthylene
Name: acenaphthylene
Formula: C12H8
Exact mass: 152.0626
SMILES: C1=CC2=C3C1=CC=CC3=CC=C2
InChI: InChI=1S/C12H8/c1-3-9-4-2-6-11-8-7-10(5-1)12(9)11/h1-8H
Instrument: Bruker 450 GC coupled to maXis Impact
Instrument type: GC-APCI-QTOF
Ms type: MS2
Ion mode: POSITIVE
Ionization: APCI
Fragmentation mode: CID
Collision energy: 40 eV
Resolution: 35000
Column name: Rxi-5Sil MS column, 30m, 0.25mm i.d., 0.25Âµm film thickness (Restek)
Retention time: 11.918 min
Base peak: 152.059
Precursor m/z: 152.0621
Precursor type: [M]+
m/z	relative intensity	assigned
76.0298	5	C6H4+
78.0454	18	C6H6+
102.0465	10	C8H6+
125.0369	16	C10H5+
126.046	286	C10H6+
127.0521	38	C10H7+
150.0431	227	C12H6+
151.0506	129	C12H7+
152.0588	999	C12H8+
