Mass spectrum: Divinylbenzene (m- and p- mixture); GC-APCI-QTOF; MS2; CE: 30 eV; R=35000; [M]+
Name: Divinylbenzene (m- and p- mixture)
Formula: C10H10
Exact mass: 130.0783
SMILES: C=CC1=CC=CC=C1C=C
InChI: InChI=1S/C10H10/c1-3-9-7-5-6-8-10(9)4-2/h3-8H,1-2H2
Instrument: Bruker 450 GC coupled to maXis Impact
Instrument type: GC-APCI-QTOF
Ms type: MS2
Ion mode: POSITIVE
Ionization: APCI
Fragmentation mode: CID
Collision energy: 30 eV
Resolution: 35000
Column name: Rxi-5Sil MS column, 30m, 0.25mm i.d., 0.25Âµm film thickness, Restek
Retention time: 8.685 min
Base peak: 130.0771
Precursor m/z: 130.0777
Precursor type: [M]+
m/z	relative intensity	assigned
51.0234	13	C4H3+
52.0319	9	C4H4+
65.0397	16	C5H5+
77.0382	9	C6H5+
78.046	25	C6H6+
89.0368	14	C7H5+
91.0539	19	C7H7+
103.0528	28	C8H7+
115.0538	409	C9H7+
126.0491	31	C10H6+
127.0531	78	C10H7+
128.0614	999	C10H8+
129.0674	138	C10H9+
