Mass spectrum: Acetochlor; LC-ESI-QTOF; MS2; CE: 40 eV; R=35000; [M+H]+
Name: Acetochlor
Name: 2-chloro-N-(ethoxymethyl)-N-(2-ethyl-6-methylphenyl)acetamide
Formula: C14H20ClNO2
Exact mass: 269.1182566
SMILES: CCOCN(C(=O)CCl)C1=C(CC)C=CC=C1C
InChI: InChI=1S/C14H20ClNO2/c1-4-12-8-6-7-11(3)14(12)16(10-18-5-2)13(17)9-15/h6-8H,4-5,9-10H2,1-3H3
Instrument: Bruker maXis Impact
Instrument type: LC-ESI-QTOF
Ms type: MS2
Ion mode: POSITIVE
Ionization: ESI
Fragmentation mode: CID
Collision energy: 40 eV
Resolution: 35000
Column name: Acclaim RSLC C18 2.2um, 2.1x100mm, Thermo
Retention time: 10.1 min
Base peak: 224.0833
Precursor m/z: 270.1255
Precursor type: [M+H]+
m/z	relative intensity	assigned
115.0537	7	C9H7+
117.056	28	C2H12ClNO2+
118.0643	21	C8H8N+
120.0815	10	C8H10N+
130.0647	9	C9H8N+
131.0711	12	C3H14ClNO2+
133.0878	999	C9H11N+
134.0909	81	C8[13]CH11N+
144.0796	13	C4H15ClNO2+
145.0882	8	C10H11N+
146.0959	14	C10H12N+
147.1021	10	C4H18ClNO2+
148.1111	544	C10H14N+
149.1145	51	C9[13]CH14N+
171.1032	7	C12H13N+
173.0808	7	C11H11NO+
