Mass spectrum: Phenanthrene; GC-APCI-QTOF; MS2; CE: 40 eV; R=35000; [M]+
Name: Phenanthrene
Formula: C14H10
Exact mass: 178.0783
SMILES: C1=CC2=C(C=C1)C1=C(C=CC=C1)C=C2
InChI: InChI=1S/C14H10/c1-3-7-13-11(5-1)9-10-12-6-2-4-8-14(12)13/h1-10H
Instrument: Bruker 450 GC coupled to maXis Impact
Instrument type: GC-APCI-QTOF
Ms type: MS2
Ion mode: POSITIVE
Ionization: APCI
Fragmentation mode: CID
Collision energy: 40 eV
Resolution: 35000
Column name: Rxi-5Sil MS column, 30m, 0.25mm i.d., 0.25Âµm film thickness (Restek)
Retention time: 15.468 min
Base peak: 178.0736
Precursor m/z: 178.0777
Precursor type: [M]+
m/z	relative intensity	assigned
115.0546	5	C9H7+
126.0454	6	C10H6+
128.0607	66	C10H8+
139.0519	21	C11H7+
150.0435	22	C12H6+
152.0587	647	C12H8+
176.058	567	C14H8+
178.0735	999	C14H10+
