Mass spectrum: 3,3`-Dichlorobenzidine; LC-ESI-QTOF; MS2; CE: 10 eV; R=35000; [M+H]+
Name: 3,3`-Dichlorobenzidine
Name: 4-(4-amino-3-chlorophenyl)-2-chloroaniline
Formula: C12H10Cl2N2
Exact mass: 252.0221037
SMILES: NC1=CC=C(C=C1Cl)C1=CC=C(N)C(Cl)=C1
InChI: InChI=1S/C12H10Cl2N2/c13-9-5-7(1-3-11(9)15)8-2-4-12(16)10(14)6-8/h1-6H,15-16H2
Instrument: Bruker maXis Impact
Instrument type: LC-ESI-QTOF
Ms type: MS2
Ion mode: POSITIVE
Ionization: ESI
Fragmentation mode: CID
Collision energy: 10 eV
Resolution: 35000
Column name: Acclaim RSLC C18 2.2um, 2.1x100mm, Thermo
Retention time: 8.892 min
Base peak: 244.1901
Precursor m/z: 253.0294
Precursor type: [M+H]+
m/z	relative intensity	assigned
217.0489	8	C12H10ClN2+
251.0136	245	C12H9Cl2N2+
252.0208	999	C12H10Cl2N2+
253.0275	768	C12H11Cl2N2+
254.0179	593	C12H10Cl[37]ClN2+
255.0252	488	C12H11Cl[37]ClN2+
