Mass spectrum: Octyl-methoxycinnamate; LC-ESI-QTOF; MS2; CE: 50 eV; R=35000; [M+H]+
Name: Octyl-methoxycinnamate
Name: Octinoxate
Name: 2-ethylhexyl (E)-3-(4-methoxyphenyl)prop-2-enoate
Formula: C18H26O3
Exact mass: 290.1881947
SMILES: CCCCC(CC)COC(=O)\C=C\C1=CC=C(OC)C=C1
InChI: InChI=1S/C18H26O3/c1-4-6-7-15(5-2)14-21-18(19)13-10-16-8-11-17(20-3)12-9-16/h8-13,15H,4-7,14H2,1-3H3/b13-10+
Instrument: Bruker maXis Impact
Instrument type: LC-ESI-QTOF
Ms type: MS2
Ion mode: POSITIVE
Ionization: ESI
Fragmentation mode: CID
Collision energy: 50 eV
Resolution: 35000
Column name: Acclaim RSLC C18 2.2um, 2.1x100mm, Thermo
Retention time: 13.843 min
Base peak: 291.1947
Precursor m/z: 291.1955
Precursor type: [M+H]+
m/z	relative intensity	assigned
115.0542	7	C9H7+
118.0405	207	C8H6O+
119.0441	23	C7[13]CH6O+
131.048	9	C9H7O+
132.057	8	C9H8O+
133.0639	999	C9H9O+
134.0673	115	C8[13]CH9O+
135.0706	5	C7[13]C2H9O+
137.0591	13	C8H9O2+
146.0353	10	C9H6O2+
161.0582	388	C10H9O2+
162.0619	49	C9[13]CH9O2+
