Mass spectrum: Fipronil; LC-ESI-QTOF; MS2; CE: Ramp 29.4-44.1 eV; R=35000; [M-H]-
Name: Fipronil
Name: 5-amino-1-[2,6-dichloro-4-(trifluoromethyl)phenyl]-4-(trifluoromethylsulfinyl)pyrazole-3-carbonitrile
Formula: C12H4Cl2F6N4OS
Exact mass: 435.9387064
SMILES: NC1=C(C(=NN1C1=C(Cl)C=C(C=C1Cl)C(F)(F)F)C#N)S(=O)C(F)(F)F
InChI: InChI=1S/C12H4Cl2F6N4OS/c13-5-1-4(11(15,16)17)2-6(14)8(5)24-10(22)9(7(3-21)23-24)26(25)12(18,19)20/h1-2H,22H2
Instrument: Bruker maXis Impact
Instrument type: LC-ESI-QTOF
Ms type: MS2
Ion mode: NEGATIVE
Ionization: ESI
Fragmentation mode: CID
Collision energy: Ramp 29.4-44.1 eV
Resolution: 35000
Column name: Acclaim RSLC C18 2.2um, 2.1x100mm, Thermo
Retention time: 10.475 min
Base peak: 434.9313
Precursor m/z: 434.9314
Precursor type: [M-H]-
m/z	relative intensity	assigned
50.0025	6	C3N-
76.0055	7	C4N2-
81.9748	12	ClFN2-
84.9892	20	CF3O-
88.0052	18	C5N2-
113.0127	10	C7HN2-
143.0058	17	C5HF2N2O-
148.9899	5	C2F5NO-
150.0007	7	C5H2N4S-
163.0111	50	C8HF2N2-
170.0097	242	C7HF3N2-
171.0124	15	C6[13]CHF3N2-
182.0099	97	C8HF3N2-
183.0177	715	C8H2F3N2-
184.0199	39	C7[13]CH2F3N2-
201.9964	6	C5F6N2-
208.9585	8	C8H2ClN2OS-
212.9498	25	C8HClFNOS-
214.9433	8	C8H[37]ClFNOS-
216.9764	15	C6H3ClFN4S-
217.9858	108	C8H2ClF3N2-
218.9861	11	C7[13]CH2ClF3N2-
219.9817	18	C8H2[37]ClF3N2-
233.98	72	C8H2ClF3N2O-
235.9778	8	C8H2[37]ClF3N2O-
242.9842	14	C9H2F3N2OS-
243.988	195	C9H2ClF3N3-
244.9231	6	C4H3Cl2F4OS-
244.9895	21	C8[13]CH2ClF3N3-
245.9843	33	C9H2[37]ClF3N3-
246.0145	5	C11HF3N4-
249.9582	999	C8H2ClF3N2S-
250.9604	92	C7[13]CH2ClF3N2S-
251.955	226	C8H2[37]ClF3N2S-
252.9561	13	C5H3Cl2F4N2O-
253.9865	72	C11H2ClF3N2-
254.9853	7	C10[13]CH2ClF3N2-
255.9862	17	C11H2[37]ClF3N2-
262.9493	9	C11HClFN2OS-
267.9891	129	C11H2ClF3N3-
268.989	14	C10[13]CH2ClF3N3-
269.9849	20	C11H2[37]ClF3N3-
271.9831	9	C10H3ClF6-
277.9527	815	C9H2ClF3N2OS-
278.9557	59	C8[13]CH2ClF3N2OS-
279.9495	124	C9H2[37]ClF3N2OS-
280.9571	45	C9H2ClF4N2S-
281.9916	305	C11H2ClF3N4-
282.9525	9	C8H3Cl2F6-
282.9966	40	C10[13]CH2ClF3N4-
283.9884	53	C11H2[37]ClF3N4-
284.994	6	C9H3F6N2S-
287.9604	53	C10H2ClF3N3S-
288.9616	6	C9[13]CH2ClF3N3S-
288.968	5	C9[13]CH2ClF3N3S-
289.9591	9	C10H2[37]ClF3N3S-
303.9546	14	C7H2Cl2F4N4O-
317.9684	562	C11H3Cl2F3N4-
318.971	66	C10[13]CH3Cl2F3N4-
319.9656	250	C11H3Cl[37]ClF3N4-
320.972	12	C11HClF5N3O-
321.9607	6	C11H3ClF4N2OS-
329.9584	622	C11H3ClF6NS-
330.96	67	C10[13]CH3ClF6NS-
331.9558	101	C11H3[37]ClF6NS-
332.9532	18	C12H2ClF4N2OS-
334.9492	5	C9H2ClF6N2OS-
348.9301	10	C10HCl2F6N2O-
348.9458	5	C10HCl2F6N2O-
350.9267	5	C10HCl[37]ClF6N2O-
350.9866	12	C12H2ClF6N4-
364.9199	5	C12HCl2F4N3S-
365.9357	6	C11H3Cl2F3N4OS-
