Mass spectrum: Flunixin; LC-ESI-QTOF; MS2; CE: 30 eV; R=35000; [M+H]+
Name: Flunixin
Name: 2-[2-methyl-3-(trifluoromethyl)anilino]pyridine-3-carboxylic acid
Formula: C14H11F3N2O2
Exact mass: 296.0772623
SMILES: Cc1c(cccc1Nc2c(cccn2)C(=O)O)C(F)(F)F
InChI: InChI=1S/C14H11F3N2O2/c1-8-10(14(15,16)17)5-2-6-11(8)19-12-9(13(20)21)4-3-7-18-12/h2-7H,1H3,(H,18,19)(H,20,21)
Instrument: Bruker maXis Impact
Instrument type: LC-ESI-QTOF
Ms type: MS2
Ion mode: POSITIVE
Ionization: ESI
Fragmentation mode: CID
Collision energy: 30 eV
Resolution: 35000
Column name: Acclaim RSLC C18 2.2um, 2.1x100mm, Thermo
Retention time: 9.2 min
Base peak: 297.0744
Precursor m/z: 297.0845
Precursor type: [M+H]+
m/z	relative intensity	assigned
211.0593	5	C11H8F3N+
257.0632	6	C12H10F3NO2+
264.0414	84	C14H7F3O2+
265.0454	7	C13[13]CH7F3O2+
277.0731	6	C14H11F2N2O2+
279.0687	999	C14H10F3N2O+
280.0728	130	C13[13]CH10F3N2O+
281.0761	5	C12[13]C2H10F3N2O+
297.0787	82	C14H12F3N2O2+
298.0832	10	C13[13]CH12F3N2O2+
