Mass spectrum: Metolachlor-OXA; LC-ESI-QTOF; MS2; CE: 40 eV; R=35000; [M+H]+
Name: Metolachlor-OXA
Name: Metolachlor OA
Name: 2-[2-ethyl-N-(1-methoxypropan-2-yl)-6-methylanilino]-2-oxoacetic acid
Formula: C15H21NO4
Exact mass: 279.1470582
SMILES: CCC1=CC=CC(C)=C1N(C(C)COC)C(=O)C(O)=O
InChI: InChI=1S/C15H21NO4/c1-5-12-8-6-7-10(2)13(12)16(11(3)9-20-4)14(17)15(18)19/h6-8,11H,5,9H2,1-4H3,(H,18,19)
Instrument: Bruker maXis Impact
Instrument type: LC-ESI-QTOF
Ms type: MS2
Ion mode: POSITIVE
Ionization: ESI
Fragmentation mode: CID
Collision energy: 40 eV
Resolution: 35000
Column name: Acclaim RSLC C18 2.2um, 2.1x100mm, Thermo
Retention time: 7.2 min
Base peak: 280.1533
Precursor m/z: 280.1543
Precursor type: [M+H]+
m/z	relative intensity	assigned
115.054	106	C9H7+
117.0569	117	C8H7N+
117.069	146	C9H9+
118.0639	262	C8H8N+
119.0723	220	C8H9N+
119.0844	141	C9H11+
120.0797	84	C8H10N+
121.027	112	C7H5O2+
129.0671	92	C5H9N2O2+
130.0639	502	C9H8N+
131.0719	999	C9H9N+
132.0784	709	C6H12O3+
133.0879	348	C9H11N+
134.0575	93	C5H10O4+
134.0959	554	C9H12N+
144.0792	827	C7H12O3+
145.0864	216	C7H13O3+
146.0596	82	C9H8NO+
146.0949	829	C7H14O3+
147.0993	126	C7H15O3+
148.1107	584	C7H16O3+
149.0221	515	C8H5O3+
159.1025	107	C8H15O3+
160.0739	66	C7H12O4+
160.1104	319	C8H16O3+
161.1155	78	C8H17O3+
162.0893	150	C7H14O4+
174.1273	89	C12H16N+
176.1424	269	C12H18N+
202.1217	76	C13H16NO+
219.0549	80	C11H9NO4+
248.127	115	C14H18NO3+
