Mass spectrum: Cocaine; LC-ESI-QTOF; MS2; CE: 50 eV; R=35000; [M+H]+
Name: Cocaine
Name: methyl (1S,3S,4R,5R)-3-benzoyloxy-8-methyl-8-azabicyclo[3.2.1]octane-4-carboxylate
Formula: C17H21NO4
Exact mass: 303.1470582
SMILES: CN1[C@H]2CC[C@@H]1[C@H]([C@H](C2)OC(=O)c3ccccc3)C(=O)OC
InChI: InChI=1S/C17H21NO4/c1-18-12-8-9-13(18)15(17(20)21-2)14(10-12)22-16(19)11-6-4-3-5-7-11/h3-7,12-15H,8-10H2,1-2H3/t12-,13+,14-,15+/m0/s1
Instrument: Bruker maXis Impact
Instrument type: LC-ESI-QTOF
Ms type: MS2
Ion mode: POSITIVE
Ionization: ESI
Fragmentation mode: CID
Collision energy: 50 eV
Resolution: 35000
Column name: Acclaim RSLC C18 2.2um, 2.1x100mm, Thermo
Retention time: 5.0 min
Base peak: 304.1549
Precursor m/z: 304.1543
Precursor type: [M+H]+
m/z	relative intensity	assigned
115.0555	9	C9H7+
117.0566	110	C8H7N+
118.0406	163	C8H6O+
118.0641	44	C8H8N+
119.0482	681	C8H7O+
120.0513	60	C3H8N2O3+
120.0799	53	C8H10N+
121.0643	27	C8H9O+
121.0877	30	C8H11N+
122.0592	110	C7H8NO+
122.0953	579	C8H12N+
123.0629	10	C4H11O4+
123.0792	45	C8H11O+
123.0992	68	C7[13]CH12N+
124.0758	11	C7H10NO+
125.0585	102	C7H9O2+
126.0626	10	C2H10N2O4+
128.0716	6	C6H10NO2+
130.064	29	C9H8N+
131.0707	20	C6H11O3+
132.0798	122	C9H10N+
133.0654	11	C9H9O+
133.0861	21	C6H13O3+
134.059	78	C8H8NO+
135.0666	341	C8H9NO+
136.0706	31	C7[13]CH9NO+
138.0541	29	C7H8NO2+
139.0634	8	C7H9NO2+
148.0757	25	C9H10NO+
149.0831	21	C9H11NO+
150.0901	615	C9H12NO+
151.0736	42	C9H11O2+
151.0936	67	C8[13]CH12NO+
152.0694	66	C8H10NO2+
154.085	378	C8H12NO2+
155.0886	33	C7[13]CH12NO2+
164.106	18	C10H14NO+
167.0911	11	C9H13NO2+
180.1017	15	C10H14NO2+
182.1164	999	C10H16NO2+
183.1199	114	C9[13]CH16NO2+
