Mass spectrum: 5-Aminonaphthalene-2-sulfonic acid; LC-ESI-QTOF; MS2; CE: 40 eV; R=35000; [M-H]-
Name: 5-Aminonaphthalene-2-sulfonic acid
Name: 2-Naphthalenesulfonic acid, 5-amino-
Formula: C10H9NO3S
Exact mass: 223.0303141
SMILES: NC1=C2C=CC(=CC2=CC=C1)S(O)(=O)=O
InChI: InChI=1S/C10H9NO3S/c11-10-3-1-2-7-6-8(15(12,13)14)4-5-9(7)10/h1-6H,11H2,(H,12,13,14)
Instrument: Bruker maXis Impact
Instrument type: LC-ESI-QTOF
Ms type: MS2
Ion mode: NEGATIVE
Ionization: ESI
Fragmentation mode: CID
Collision energy: 40 eV
Resolution: 35000
Column name: Acclaim RSLC C18 2.2um, 2.1x100mm, Thermo
Retention time: 3.057 min
Base peak: 222.0221
Precursor m/z: 222.023
Precursor type: [M-H]-
m/z	relative intensity	assigned
158.0614	999	C10H8NO-
