Mass spectrum: Acetochlor-ESA; LC-ESI-QTOF; MS2; CE: 20 eV; R=35000; [M+H]+
Name: Acetochlor-ESA
Name: Acetochlor esa
Name: 2-[N-(ethoxymethyl)-2-ethyl-6-methylanilino]-2-oxoethanesulfonic acid
Formula: C14H21NO5S
Exact mass: 315.1140438
SMILES: CCOCN(C(=O)CS(O)(=O)=O)C1=C(C)C=CC=C1CC
InChI: InChI=1S/C14H21NO5S/c1-4-12-8-6-7-11(3)14(12)15(10-20-5-2)13(16)9-21(17,18)19/h6-8H,4-5,9-10H2,1-3H3,(H,17,18,19)
Instrument: Bruker maXis Impact
Instrument type: LC-ESI-QTOF
Ms type: MS2
Ion mode: POSITIVE
Ionization: ESI
Fragmentation mode: CID
Collision energy: 20 eV
Resolution: 35000
Column name: Acclaim RSLC C18 2.2um, 2.1x100mm, Thermo
Retention time: 6.9 min
Base peak: 150.1116
Precursor m/z: 316.1213
Precursor type: [M+H]+
m/z	relative intensity	assigned
120.0803	137	C8H10N+
148.1127	999	C4H20O3S+
188.1064	217	C12H14NO+
242.0470	48	C10H12NO4S+
270.0793	601	C12H16NO4S+
