Mass spectrum: Dichlormid; LC-ESI-QTOF; MS2; CE: 20 eV; R=35000; [M+H]+
Name: Dichlormid
Formula: C8H11Cl2NO
Exact mass: 207.0217693
SMILES: C=CCN(CC=C)C(=O)C(Cl)Cl
InChI: InChI=1S/C8H11Cl2NO/c1-3-5-11(6-4-2)8(12)7(9)10/h3-4,7H,1-2,5-6H2
Instrument: Bruker maXis Impact
Instrument type: LC-ESI-QTOF
Ms type: MS2
Ion mode: POSITIVE
Ionization: ESI
Fragmentation mode: CID
Collision energy: 20 eV
Resolution: 35000
Column name: Acclaim RSLC C18 2.2um, 2.1x100mm, Thermo
Retention time: 7.069 min
Base peak: 208.0298
Precursor m/z: 208.029
Precursor type: [M+H]+
m/z	relative intensity	assigned
127.9665	151	C2H4Cl2NO+
139.9664	999	C3H4Cl2NO+
141.9624	721	C3H4Cl[37]ClNO+
165.9818	211	C5H6Cl2NO+
208.0296	817	C8H12Cl2NO+
210.0258	607	C8H12Cl[37]ClNO+
