Mass spectrum: Normianserin; LC-ESI-QTOF; MS2; CE: 40 eV; R=35000; [M+H]+
Name: Normianserin
Name: Desmethylmianserin
Formula: C17H18N2
Exact mass: 250.1469986
SMILES: c1ccc2c(c1)Cc3ccccc3N4C2CNCC4
InChI: InChI=1S/C17H18N2/c1-3-7-15-13(5-1)11-14-6-2-4-8-16(14)19-10-9-18-12-17(15)19/h1-8,17-18H,9-12H2
Instrument: Bruker maXis Impact
Instrument type: LC-ESI-QTOF
Ms type: MS2
Ion mode: POSITIVE
Ionization: ESI
Fragmentation mode: CID
Collision energy: 40 eV
Resolution: 35000
Column name: Acclaim RSLC C18 2.2um, 2.1x100mm, Thermo
Retention time: 7.3 min
Base peak: 251.154
Precursor m/z: 251.1543
Precursor type: [M+H]+
m/z	relative intensity	assigned
116.0513	27	C8H6N+
116.06	36	C9H8+
117.0565	143	C8H7N+
117.0689	56	C9H9+
118.0643	393	C8H8N+
119.0847	9	C9H11+
120.0801	287	C8H10N+
127.0526	11	C10H7+
128.0486	12	C9H6N+
128.0615	76	C10H8+
129.0688	83	C10H9+
131.0494	6	C9H7O+
131.0705	76	C9H9N+
131.083	14	C10H11+
132.0685	30	C8H8N2+
132.0798	355	C9H10N+
134.0945	15	C9H12N+
141.0679	27	C11H9+
142.064	10	C10H8N+
143.0717	105	C10H9N+
144.0793	133	C10H10N+
145.0742	27	C9H9N2+
146.0836	9	C9H10N2+
146.0948	67	C10H12N+
147.0907	254	C9H11N2+
152.0608	44	C12H8+
153.0675	11	C12H9+
155.059	13	C10H7N2+
156.08	14	C11H10N+
157.0869	17	C11H11N+
158.0952	91	C11H12N+
159.0904	29	C10H11N2+
160.0993	18	C10H12N2+
165.0688	92	C13H9+
166.0759	103	C13H10+
167.0843	64	C13H11+
176.0629	9	C14H8+
177.0705	11	C14H9+
180.0821	36	C13H10N+
181.0856	10	C13H11N+
181.0995	70	C14H13+
190.0763	7	C15H10+
191.0844	29	C15H11+
192.0808	45	C14H10N+
193.0878	863	C14H11N+
194.0936	180	C13[13]CH11N+
196.111	35	C14H14N+
202.0761	19	C16H10+
203.0852	9	C16H11+
205.0871	51	C15H11N+
208.1115	999	C15H14N+
210.119	17	C14H14N2+
217.0886	41	C16H11N+
219.1016	55	C16H13N+
220.111	53	C16H14N+
221.1067	22	C15H13N2+
222.1271	46	C16H16N+
223.1273	11	C15H15N2+
231.1011	5	C17H13N+
232.1107	23	C17H14N+
233.1164	10	C17H15N+
234.1267	34	C17H16N+
235.1243	16	C16H15N2+
249.138	54	C17H17N2+
251.1535	30	C17H19N2+
