Mass spectrum: Quinoxyfen; LC-ESI-QTOF; MS2; CE: 30 eV; R=35000; [M+H]+
Name: Quinoxyfen
Name: 5,7-dichloro-4-(4-fluorophenoxy)quinoline
Formula: C15H8Cl2FNO
Exact mass: 306.9966975
SMILES: FC1=CC=C(OC2=C3C(Cl)=CC(Cl)=CC3=NC=C2)C=C1
InChI: InChI=1S/C15H8Cl2FNO/c16-9-7-12(17)15-13(8-9)19-6-5-14(15)20-11-3-1-10(18)2-4-11/h1-8H
Instrument: Bruker maXis Impact
Instrument type: LC-ESI-QTOF
Ms type: MS2
Ion mode: POSITIVE
Ionization: ESI
Fragmentation mode: CID
Collision energy: 30 eV
Resolution: 35000
Column name: Acclaim RSLC C18 2.2um, 2.1x100mm, Thermo
Retention time: 12.831 min
Base peak: 308.0038
Precursor m/z: 308.004
Precursor type: [M+H]+
m/z	relative intensity	assigned
150.0092	8	C11H2O+
162.0095	9	C12H2O+
196.9787	108	C12H2ClO+
197.9815	9	C11[13]CH2ClO+
198.9755	56	C12H2[37]ClO+
213.9815	51	C9H6Cl2NO+
214.9841	5	C8[13]CH6Cl2NO+
215.9786	28	C9H6Cl[37]ClNO+
228.9683	24	C15ClN+
230.9653	13	C15[37]ClN+
237.0579	7	C15H8FNO+
244.0315	17	C14H8ClFN+
245.0394	29	C14H9ClFN+
247.0363	6	C14H9[37]ClFN+
272.0271	140	C15H8ClFNO+
273.031	21	C14[13]CH8ClFNO+
274.0241	27	C15H8[37]ClFNO+
280.0085	15	C14H9Cl2FN+
282.0057	8	C14H9Cl[37]ClFN+
287.9971	6	C15H8Cl2NO+
308.0041	999	C15H9Cl2FNO+
309.0073	159	C14[13]CH9Cl2FNO+
310.0012	679	C15H9Cl[37]ClFNO+
