Mass spectrum: Acetochlor; LC-ESI-QTOF; MS2; CE: 20 eV; R=35000; [M+H]+
Name: Acetochlor
Name: 2-chloro-N-(ethoxymethyl)-N-(2-ethyl-6-methylphenyl)acetamide
Formula: C14H20ClNO2
Exact mass: 269.1182566
SMILES: CCOCN(C(=O)CCl)C1=C(CC)C=CC=C1C
InChI: InChI=1S/C14H20ClNO2/c1-4-12-8-6-7-11(3)14(12)16(10-18-5-2)13(17)9-15/h6-8H,4-5,9-10H2,1-3H3
Instrument: Bruker maXis Impact
Instrument type: LC-ESI-QTOF
Ms type: MS2
Ion mode: POSITIVE
Ionization: ESI
Fragmentation mode: CID
Collision energy: 20 eV
Resolution: 35000
Column name: Acclaim RSLC C18 2.2um, 2.1x100mm, Thermo
Retention time: 10.1 min
Base peak: 224.0833
Precursor m/z: 270.1255
Precursor type: [M+H]+
m/z	relative intensity	assigned
120.0794	7	C2H15ClNO2+
131.0844	12	C4H16ClO2+
132.0806	27	C9H10N+
133.0877	89	C9H11N+
134.0902	7	C8[13]CH11N+
146.0949	20	C4H17ClNO2+
147.1026	17	C4H18ClNO2+
148.1111	999	C10H14N+
149.095	17	C10H13O+
161.13	14	C12H17+
188.1077	10	C12H14NO+
206.0736	11	C12H13ClN+
210.069	8	C11H13ClNO+
224.0828	527	C12H15ClNO+
225.0856	72	C11[13]CH15ClNO+
226.0801	199	C12H15[37]ClNO+
227.0843	11	C11[13]CH15[37]ClNO+
