Mass spectrum: Novobiocin; LC-ESI-QTOF; MS2; CE: 40 eV; R=35000; [M+H]+
Name: Novobiocin
Name: novobiocin
Name: [(3R,4S,5R,6R)-5-hydroxy-6-[4-hydroxy-3-[[4-hydroxy-3-(3-methylbut-2-enyl)benzoyl]amino]-8-methyl-2-oxochromen-7-yl]oxy-3-methoxy-2,2-dimethyloxan-4-yl] carbamate
Formula: C31H36N2O11
Exact mass: 612.2319100
SMILES: Cc1c(ccc2c1oc(=O)c(c2O)NC(=O)c3ccc(c(c3)CC=C(C)C)O)O[C@H]4[C@@H]([C@@H]([C@H](C(O4)(C)C)OC)OC(=O)N)O
InChI: InChI=1S/C31H36N2O11/c1-14(2)7-8-16-13-17(9-11-19(16)34)27(37)33-21-22(35)18-10-12-20(15(3)24(18)42-28(21)38)41-29-23(36)25(43-30(32)39)26(40-6)31(4,5)44-29/h7,9-13,23,25-26,29,34-36H,8H2,1-6H3,(H2,32,39)(H,33,37)/t23-,25+,26-,29-/m1/s1
Instrument: Bruker maXis Impact
Instrument type: LC-ESI-QTOF
Ms type: MS2
Ion mode: POSITIVE
Ionization: ESI
Fragmentation mode: CID
Collision energy: 40 eV
Resolution: 35000
Column name: Acclaim RSLC C18 2.2um, 2.1x100mm, Thermo
Retention time: 11.141 min
Base peak: 150.1138
Precursor m/z: 613.2392
Precursor type: [M+H]+
m/z	relative intensity	assigned
125.0608	42	C7H9O2+
133.0298	99	C8H5O2+
134.0333	9	C3H6N2O4+
143.0708	36	C7H11O3+
147.0452	9	C9H7O2+
151.0408	9	C11H5N+
157.0877	19	C11H11N+
186.0777	21	C11H10N2O+
189.0928	999	H17N2O9+
191.0988	11	C4H17NO7+
218.1072	10	C2H20NO10+
378.1348	18	C18H22N2O7+
378.1492	8	C18H22N2O7+
