Mass spectrum: Diacetylmorphine (Heroin); LC-ESI-QTOF; MS2; CE: 50 eV; R=35000; [M+H]+
Name: Diacetylmorphine (Heroin)
Name: Diacetylmorphine
Name: [(4R,4aR,7S,7aR,12bS)-9-acetyloxy-3-methyl-2,4,4a,7,7a,13-hexahydro-1H-4,12-methanobenzofuro[3,2-e]isoquinoline-7-yl] acetate
Formula: C21H23NO5
Exact mass: 369.1576228
SMILES: CC(=O)Oc1ccc2c3c1O[C@@H]4[C@]35CCN([C@H](C2)[C@@H]5C=C[C@@H]4OC(=O)C)C
InChI: InChI=1S/C21H23NO5/c1-11(23)25-16-6-4-13-10-15-14-5-7-17(26-12(2)24)20-21(14,8-9-22(15)3)18(13)19(16)27-20/h4-7,14-15,17,20H,8-10H2,1-3H3/t14-,15+,17-,20-,21-/m0/s1
Instrument: Bruker maXis Impact
Instrument type: LC-ESI-QTOF
Ms type: MS2
Ion mode: POSITIVE
Ionization: ESI
Fragmentation mode: CID
Collision energy: 50 eV
Resolution: 35000
Column name: Acclaim RSLC C18 2.2um, 2.1x100mm, Thermo
Retention time: 4.820 min
Base peak: 370.166
Precursor m/z: 370.1649
Precursor type: [M+H]+
m/z	relative intensity	assigned
117.0694	33	C9H9+
141.0699	63	C11H9+
145.0638	77	C10H9O+
147.0432	45	C9H7O2+
152.062	57	C12H8+
153.0697	225	C12H9+
154.0718	47	C4H12NO5+
155.0863	158	C12H11+
157.0645	89	C11H9O+
159.0815	33	C11H11O+
161.0601	40	C10H9O2+
165.0699	999	C13H9+
166.0745	152	C12[13]CH9+
167.0811	43	C5H13NO5+
168.0562	54	C12H8O+
169.0647	81	C12H9O+
171.0438	35	C11H7O2+
173.0576	84	C11H9O2+
174.0642	34	C11H10O2+
178.0801	67	C14H10+
179.0853	104	C14H11+
181.0649	456	C13H9O+
181.1026	53	C14H13+
182.0688	84	C13H10O+
183.0801	328	C13H11O+
185.0605	87	C12H9O2+
186.0655	55	C12H10O2+
187.0749	94	C12H11O2+
189.0713	45	C15H9+
190.0765	102	C15H10+
191.0851	564	C15H11+
192.0883	78	C7H14NO5+
193.0655	407	C14H9O+
193.1026	54	C15H13+
194.0713	105	C14H10O+
195.0801	35	C14H11O+
197.0584	45	C13H9O2+
199.0762	91	C13H11O2+
201.0905	207	C13H13O2+
202.0806	50	C16H10+
203.0868	45	C16H11+
207.0786	79	C15H11O+
208.0514	41	C14H8O2+
209.06	421	C14H9O2+
209.094	116	C15H13O+
211.0755	483	C14H11O2+
212.0817	107	C14H12O2+
218.0728	34	C16H10O+
219.081	266	C16H11O+
220.0861	53	C16H12O+
221.0972	45	C16H13O+
222.0688	37	C15H10O2+
222.1282	55	C16H16N+
225.0865	49	C15H13O2+
227.0717	152	C17H9N+
229.0856	134	C14H13O3+
237.0919	149	C16H13O2+
238.096	32	C16H14O2+
239.1047	39	C16H15O2+
240.1019	34	C15H14NO2+
240.1395	42	C16H18NO+
250.124	36	C17H16NO+
252.1006	46	C16H14NO2+
253.1102	33	C16H15NO2+
254.1151	33	C13H18O5+
266.1204	58	C17H16NO2+
268.1326	333	C17H18NO2+
269.1379	91	C14H21O5+
286.1453	47	C17H20NO3+
328.1552	136	C19H22NO4+
329.1585	56	C19H23NO4+
370.1652	46	C21H24NO5+
