Mass spectrum: Metoprolol; LC-ESI-QTOF; MS2; CE: 20 eV; R=35000; [M+H]+
Name: Metoprolol
Name: 1-[4-(2-methoxyethyl)phenoxy]-3-(propan-2-ylamino)propan-2-ol
Formula: C15H25NO3
Exact mass: 267.1834437
SMILES: COCCC1=CC=C(OCC(O)CNC(C)C)C=C1
InChI: InChI=1S/C15H25NO3/c1-12(2)16-10-14(17)11-19-15-6-4-13(5-7-15)8-9-18-3/h4-7,12,14,16-17H,8-11H2,1-3H3
Instrument: Bruker maXis Impact
Instrument type: LC-ESI-QTOF
Ms type: MS2
Ion mode: POSITIVE
Ionization: ESI
Fragmentation mode: CID
Collision energy: 20 eV
Resolution: 35000
Column name: Acclaim RSLC C18 2.2um, 2.1x100mm, Thermo
Retention time: 4.737 min
Base peak: 264.1959
Precursor m/z: 268.1907
Precursor type: [M+H]+
m/z	relative intensity	assigned
116.1065	29	C6H14NO+
121.0639	33	C8H9O+
131.0841	5	C10H11+
133.0637	30	C9H9O+
147.0795	6	C10H11O+
148.0746	9	C9H10NO+
159.0793	66	C11H11O+
160.0824	7	C10[13]CH11O+
161.094	5	C11H13O+
165.0899	26	C10H13O2+
176.1058	34	C11H14NO+
177.0896	23	C11H13O2+
179.1052	6	C11H15O2+
191.1058	108	C12H15O2+
192.1091	12	C11[13]CH15O2+
194.1161	25	C11H16NO2+
218.1529	27	C14H20NO+
226.1429	48	C12H20NO3+
227.1465	6	C11[13]CH20NO3+
250.1792	17	C15H24NO2+
268.1903	999	C15H26NO3+
269.1937	143	C14[13]CH26NO3+
270.1959	13	C13[13]C2H26NO3+
