Mass spectrum: Pregabalin; LC-ESI-QTOF; MS2; CE: 10 eV; R=35000; [M+Na]+
Name: Pregabalin
Name: (3S)-3-(aminomethyl)-5-methylhexanoic acid
Formula: C8H17NO2
Exact mass: 159.1259288
SMILES: CC(C)C[C@H](CN)CC(O)=O
InChI: InChI=1S/C8H17NO2/c1-6(2)3-7(5-9)4-8(10)11/h6-7H,3-5,9H2,1-2H3,(H,10,11)/t7-/m0/s1
Instrument: Bruker maXis Impact
Instrument type: LC-ESI-QTOF
Ms type: MS2
Ion mode: POSITIVE
Ionization: ESI
Fragmentation mode: CID
Collision energy: 10 eV
Resolution: 35000
Column name: Acclaim RSLC C18 2.2um, 2.1x100mm, Thermo
Retention time: 2.938 min
Base peak: 286.1446
Precursor m/z: 182.1151
Precursor type: [M+Na]+
m/z	relative intensity	assigned
182.1183	999	C8H17NNaO2+
