Mass spectrum: Albendazole; LC-ESI-QTOF; MS2; CE: 20 eV; R=35000; [M+H]+
Name: Albendazole
Name: methyl N-(6-propylsulfanyl-1H-benzimidazol-2-yl)carbamate
Formula: C12H15N3O2S
Exact mass: 265.0884977
SMILES: CCCSC1=CC2=C(NC(NC(=O)OC)=N2)C=C1
InChI: InChI=1S/C12H15N3O2S/c1-3-6-18-8-4-5-9-10(7-8)14-11(13-9)15-12(16)17-2/h4-5,7H,3,6H2,1-2H3,(H2,13,14,15,16)
Instrument: Bruker maXis Impact
Instrument type: LC-ESI-QTOF
Ms type: MS2
Ion mode: POSITIVE
Ionization: ESI
Fragmentation mode: CID
Collision energy: 20 eV
Resolution: 35000
Column name: Acclaim RSLC C18 2.2um, 2.1x100mm, Thermo
Retention time: 9.389 min
Base peak: 266.0957
Precursor m/z: 266.0958
Precursor type: [M+H]+
m/z	relative intensity	assigned
191.0139	17	C8H5N3OS+
192.0213	17	C8H6N3OS+
234.0693	999	C11H12N3OS+
235.0718	100	C10[13]CH12N3OS+
236.0657	31	C11H12N3O[34]S+
266.0956	380	C12H16N3O2S+
267.0985	45	C11[13]CH16N3O2S+
268.0921	11	C12H16N3O2[34]S+
