Mass spectrum: Mometasone fuorate; LC-ESI-QTOF; MS2; CE: 50 eV; R=35000; [M+H]+
Name: Mometasone fuorate
Name: Mometasone furoate
Name: [(8S,9R,10S,11S,13S,14S,16R,17R)-9-chloro-17-(2-chloroacetyl)-11-hydroxy-10,13,16-trimethyl-3-oxo-6,7,8,11,12,14,15,16-octahydrocyclopenta[a]phenanthren-17-yl] furan-2-carboxylate
Formula: C27H30Cl2O6
Exact mass: 520.1419440
SMILES: C[C@@H]1C[C@H]2[C@@H]3CCC4=CC(=O)C=C[C@]4(C)[C@@]3(Cl)[C@@H](O)C[C@]2(C)[C@@]1(OC(=O)C1=CC=CO1)C(=O)CCl
InChI: InChI=1S/C27H30Cl2O6/c1-15-11-19-18-7-6-16-12-17(30)8-9-24(16,2)26(18,29)21(31)13-25(19,3)27(15,22(32)14-28)35-23(33)20-5-4-10-34-20/h4-5,8-10,12,15,18-19,21,31H,6-7,11,13-14H2,1-3H3/t15-,18+,19+,21+,24+,25+,26+,27+/m1/s1
Instrument: Bruker maXis Impact
Instrument type: LC-ESI-QTOF
Ms type: MS2
Ion mode: POSITIVE
Ionization: ESI
Fragmentation mode: CID
Collision energy: 50 eV
Resolution: 35000
Column name: Acclaim RSLC C18 2.2um, 2.1x100mm, Thermo
Retention time: 10.632 min
Base peak: 467.1996
Precursor m/z: 521.1492
Precursor type: [M+H]+
m/z	relative intensity	assigned
115.0539	46	C9H7+
116.0584	12	C3H13ClO2+
117.0692	28	C9H9+
119.0848	62	C9H11+
120.0549	7	C2H13ClO3+
121.0639	202	C8H9O+
121.1006	14	C9H13+
122.0668	16	C7[13]CH9O+
128.0623	58	C10H8+
129.0679	40	C4H14ClO2+
130.0754	17	C4H15ClO2+
131.025	7	C6H8ClO+
131.0482	17	C9H7O+
131.0843	57	C4H16ClO2+
132.0556	24	C3H13ClO3+
132.0899	16	C4H17ClO2+
133.0405	16	C6H10ClO+
133.0647	28	C9H9O+
133.1007	45	C10H13+
134.0697	7	C3H15ClO3+
135.0797	330	C9H11O+
136.0832	38	C8[13]CH11O+
137.0959	7	C9H13O+
141.069	35	C11H9+
142.0771	35	C11H10+
143.0261	14	C7H8ClO+
143.0616	17	C8H12Cl+
143.0846	100	C11H11+
144.0557	19	C4H13ClO3+
144.0905	20	C5H17ClO2+
145.0634	88	C4H14ClO3+
145.1003	85	C11H13+
146.0714	27	C4H15ClO3+
146.1047	10	C10[13]CH13+
147.0794	442	C10H11O+
148.0829	56	C9[13]CH11O+
149.0945	13	C4H18ClO3+
151.0744	7	C9H11O2+
152.0621	11	C12H8+
153.0471	10	C9H10Cl+
153.0693	24	Cl2H19O4+
154.0741	11	Cl2H20O4+
155.0597	16	H19Cl[37]ClO4+
155.084	58	C6H16ClO2+
156.0556	10	C5H13ClO3+
156.0916	45	C6H17ClO2+
157.0403	16	C2H15Cl2O3+
157.0642	29	C11H9O+
157.1002	77	C12H13+
158.0715	56	C5H15ClO3+
158.1052	19	Cl2H24O4+
159.0793	187	C11H11O+
159.115	10	C6H20ClO2+
160.0839	31	C10[13]CH11O+
161.0587	20	C10H9O2+
161.0946	105	C11H13O+
162.0994	15	C10[13]CH13O+
163.0301	7	C10H8Cl+
163.0738	12	C4H16ClO4+
163.1138	7	C11H15O+
165.0476	10	C10H10Cl+
165.0694	28	C13H9+
166.0763	13	C7H15ClO2+
167.0608	33	C4H17Cl2O2+
167.086	22	C13H11+
168.059	8	C12H8O+
168.0913	20	C7H17ClO2+
169.0391	18	C3H15Cl2O3+
169.064	36	C12H9O+
169.1009	33	C13H13+
170.0711	33	C6H15ClO3+
170.1069	23	C7H19ClO2+
171.0555	49	C3H17Cl2O3+
171.0795	343	C12H11O+
171.1152	38	C7H20ClO2+
172.0851	55	C11[13]CH11O+
172.1192	9	CH26Cl2O4+
173.0952	225	C12H13O+
174.0991	34	C11[13]CH13O+
175.1111	17	C12H15O+
177.0463	9	C11H10Cl+
178.076	26	C8H15ClO2+
179.0624	14	C11H12Cl+
179.0841	44	C8H16ClO2+
180.09	22	C2H22Cl2O4+
181.0423	8	C10H10ClO+
181.063	37	CH19Cl2O5+
181.1007	32	C14H13+
182.0708	24	C7H15ClO3+
183.0547	18	CH19Cl[37]ClO5+
183.0795	45	CH21Cl2O5+
183.1174	14	C14H15+
184.0869	34	C7H17ClO3+
185.0716	30	CH21Cl[37]ClO5+
185.0951	238	C13H13O+
186.1004	41	C12[13]CH13O+
187.0504	9	C3H17Cl2O4+
187.0748	63	C12H11O2+
187.1104	45	C7H20ClO3+
188.0778	10	C11[13]CH11O2+
188.1164	14	C7H21ClO3+
189.0666	13	C3H19Cl2O4+
190.0751	13	C9H15ClO2+
191.0605	40	C12H12Cl+
191.0858	21	C3H21Cl2O4+
192.0634	7	C11[13]CH12Cl+
192.0938	18	C15H12+
193.0416	7	C11H10ClO+
193.059	8	C12H12[37]Cl+
193.0759	13	C3H21Cl[37]ClO4+
193.1006	40	C15H13+
194.0726	17	C14H10O+
194.1071	27	C9H19ClO2+
195.0564	19	C11H12ClO+
195.0784	48	C8H16ClO3+
195.1158	45	C15H15+
196.0855	38	C8H17ClO3+
196.1211	14	C3H26Cl2O4+
197.0564	7	C11H12[37]ClO+
197.0723	7	C8H16[37]ClO3+
197.0955	86	C14H13O+
198.1038	43	C14H14O+
199.0737	34	C13H11O2+
199.1106	47	C14H15O+
200.0809	7	C12[13]CH11O2+
200.1109	8	C13[13]CH15O+
203.0841	16	C4H21Cl2O4+
204.091	16	C10H17ClO2+
205.0439	12	C12H10ClO+
205.0767	13	C4H21Cl[37]ClO4+
205.1007	53	C16H13+
206.0726	15	C15H10O+
206.1067	28	C10H19ClO2+
207.0559	34	C12H12ClO+
207.0801	32	C3H21Cl2O5+
207.1154	42	C16H15+
208.0558	7	C14H8O2+
208.0874	115	C15H12O+
208.1232	8	C15[13]CH15+
209.0551	13	C12H12[37]ClO+
209.0709	9	C3H21Cl[37]ClO5+
209.095	174	C9H18ClO3+
209.1321	14	C16H17+
210.102	52	C9H19ClO3+
211.0732	7	C8H16ClO4+
211.1104	77	C9H20ClO3+
212.0837	7	C14H12O2+
212.1166	21	C9H21ClO3+
213.0913	14	C14H13O2+
213.1257	24	C9H22ClO3+
215.0849	23	C17H11+
216.0664	9	C8H18Cl2O2+
216.0917	22	C11H17ClO2+
217.0995	24	C11H18ClO2+
218.0733	10	C16H10O+
218.1089	11	C17H14+
219.055	12	C7H17Cl2O3+
219.079	35	C10H16ClO3+
219.1158	20	C17H15+
220.0879	39	C16H12O+
220.1239	30	C17H16+
221.0948	195	C10H18ClO3+
221.1319	26	C17H17+
222.1027	126	C10H19ClO3+
223.1107	243	C16H15O+
224.1178	174	C10H21ClO3+
225.1259	61	C16H17O+
226.0998	11	C3H24Cl2O6+
226.132	9	C15[13]CH17O+
227.1056	7	C15H15O2+
227.1394	8	C4H29Cl2O5+
228.0907	8	C3H24Cl[37]ClO6+
229.0421	14	C14H10ClO+
229.0801	10	C15H14Cl+
229.0997	42	C12H18ClO2+
230.1078	64	C12H19ClO2+
231.0838	10	C10H15O6+
231.1139	44	C12H20ClO2+
232.0873	22	C17H12O+
232.1231	23	C12H21ClO2+
233.0699	13	C8H19Cl2O3+
233.0951	101	C17H13O+
233.1318	16	C18H17+
234.1026	109	C11H19ClO3+
235.0717	15	C8H19Cl[37]ClO3+
235.1105	189	C11H20ClO3+
235.1495	36	C18H19+
236.1172	90	C11H21ClO3+
236.1502	10	C17[13]CH19+
237.1266	149	C17H17O+
238.1309	30	C16[13]CH17O+
239.1026	10	C4H25Cl2O6+
239.1428	22	C17H19O+
240.1463	9	C5H30Cl2O5+
241.1207	13	C10H22ClO4+
242.1073	10	C13H19ClO2+
243.0571	18	C15H12ClO+
243.1147	31	C13H20ClO2+
244.0623	9	C9H18Cl2O3+
244.0864	8	C12H17ClO3+
244.1257	27	C19H16+
245.0719	26	C9H19Cl2O3+
245.0957	43	C6H23Cl2O5+
245.1323	98	C19H17+
246.1023	48	C12H19ClO3+
246.1373	30	C18[13]CH17+
247.0668	11	C9H19Cl[37]ClO3+
247.0877	12	C6H23Cl[37]ClO5+
247.1119	91	C18H15O+
247.147	15	C13H24ClO2+
248.1187	315	C18H16O+
249.0906	30	C17H13O2+
249.1262	176	C12H22ClO3+
249.1622	8	C13H26ClO2+
250.097	33	C11H19ClO4+
250.1339	63	C12H23ClO3+
250.1718	8	C19H22+
251.1085	16	C5H25Cl2O6+
251.1424	36	C18H19O+
251.1748	14	C13H28ClO2+
252.1468	11	C6H30Cl2O5+
253.1011	10	C5H25Cl[37]ClO6+
253.1222	8	C17H17O2+
253.1557	17	C12H26ClO3+
255.1169	7	C20H15+
257.0715	18	C10H19Cl2O3+
257.0868	7	C7H23Cl2O5+
257.0972	7	C7H23Cl2O5+
257.1325	15	C20H17+
258.0786	9	C10H20Cl2O3+
258.1031	33	C19H14O+
258.1391	26	C14H23ClO2+
259.1109	73	C19H15O+
259.1476	24	C20H19+
260.1195	115	C19H16O+
260.1539	25	C14H25ClO2+
261.0678	8	C15H14ClO2+
261.1263	128	C13H22ClO3+
261.1629	76	C20H21+
262.0962	14	C12H19ClO4+
262.1343	173	C19H18O+
262.168	16	C19[13]CH21+
263.1426	999	C19H19O+
264.113	21	C12H21ClO4+
264.1463	216	C18[13]CH19O+
265.1185	8	C6H27Cl2O6+
265.1523	29	C17[13]C2H19O+
266.162	8	C13H27ClO3+
268.1246	7	C21H16+
269.1276	14	C15H22ClO2+
269.1366	7	C21H17+
270.1359	7	C9H28Cl2O4+
271.0866	22	C11H21Cl2O3+
271.1124	53	C20H15O+
271.1488	8	C21H19+
272.1178	53	C14H21ClO3+
273.1265	155	C20H17O+
273.1619	16	C21H21+
274.1323	56	C14H23ClO3+
274.1686	7	C20[13]CH21+
275.1079	8	C19H15O2+
275.142	50	C20H19O+
276.1142	14	C19H16O2+
276.1485	69	C14H25ClO3+
277.1218	35	C19H17O2+
277.158	180	C20H21O+
278.1258	23	C7H28Cl2O6+
278.1659	400	C20H22O+
279.1392	10	C19H19O2+
279.1728	204	C14H28ClO3+
280.1767	46	C13[13]CH28ClO3+
281.0674	7	C12H19Cl2O3+
281.1526	18	C7H31Cl2O6+
283.1475	7	C7H31Cl[37]ClO6+
285.128	18	C21H17O+
286.1347	103	C21H18O+
287.142	81	C21H19O+
288.1506	105	C21H20O+
289.1235	16	C20H17O2+
289.1546	34	C20[13]CH20O+
290.1317	8	C20H18O2+
291.1375	129	C14H24ClO4+
291.1755	47	C15H28ClO3+
292.1401	28	C13[13]CH24ClO4+
292.1751	9	C14[13]CH28ClO3+
295.0853	7	C19H16ClO+
295.0939	8	C19H16ClO+
296.0956	12	C19H17ClO+
296.1748	9	C14H29ClO4+
297.1034	8	C19H18ClO+
299.0812	11	C12H21Cl2O4+
299.1192	26	C19H20ClO+
300.1241	8	C13H26Cl2O3+
301.1185	12	C19H20[37]ClO+
301.1587	118	C22H21O+
302.166	48	C22H22O+
303.1731	22	C16H28ClO3+
304.1476	15	C21H20O2+
305.151	22	C15H26ClO4+
306.1615	117	C15H27ClO4+
307.089	9	C20H16ClO+
307.1632	19	C14[13]CH27ClO4+
309.1025	10	C14H23Cl2O3+
310.0981	8	C22H14O2+
311.1014	7	C14H23Cl[37]ClO3+
313.0984	11	C19H18ClO2+
314.141	16	C14H28Cl2O3+
315.1417	7	C22H19O2+
319.1698	32	C22H23O2+
320.1725	8	C21[13]CH23O2+
322.1159	11	C14H23ClO6+
327.1497	13	C15H29Cl2O3+
337.1385	16	C22H22ClO+
339.1325	7	C22H22[37]ClO+
355.1437	16	C16H29Cl2O4+
356.1477	8	C16H30Cl2O4+
