Mass spectrum: D617; LC-ESI-QTOF; MS2; CE: 30 eV; R=35000; [M+H]+
Name: D617
Name: 2-(3,4-dimethoxyphenyl)-5-(methylamino)-2-propan-2-ylpentanenitrile
Formula: C17H26N2O2
Exact mass: 290.1994281
SMILES: CNCCCC(C#N)(C(C)C)C1=CC(OC)=C(OC)C=C1
InChI: InChI=1S/C17H26N2O2/c1-13(2)17(12-18,9-6-10-19-3)14-7-8-15(20-4)16(11-14)21-5/h7-8,11,13,19H,6,9-10H2,1-5H3
Instrument: Bruker maXis Impact
Instrument type: LC-ESI-QTOF
Ms type: MS2
Ion mode: POSITIVE
Ionization: ESI
Fragmentation mode: CID
Collision energy: 30 eV
Resolution: 35000
Column name: Acclaim RSLC C18 2.2um, 2.1x100mm, Thermo
Retention time: 6.1 min
Base peak: 291.2065
Precursor m/z: 291.2067
Precursor type: [M+H]+
m/z	relative intensity	assigned
121.0642	25	C8H9O+
122.0956	73	C8H12N+
123.0434	14	C7H7O2+
123.1012	6	C3H13N3O2+
124.051	42	C7H8O2+
126.1274	12	C8H16N+
131.0479	16	C9H7O+
133.0642	14	C9H9O+
134.0709	13	C9H10O+
135.0433	29	C8H7O2+
135.0794	10	C9H11O+
139.074	89	C8H11O2+
144.0558	9	C10H8O+
145.0639	17	C10H9O+
147.078	20	C10H11O+
148.0866	5	C10H12O+
149.0581	12	C9H9O2+
149.0946	9	C10H13O+
151.0744	999	C9H11O2+
153.0798	6	C8H11NO2+
153.1378	30	C9H17N2+
159.0794	27	C11H11O+
160.0874	23	C11H12O+
161.0594	5	C10H9O2+
161.0941	11	C11H13O+
162.0661	19	C10H10O2+
163.0744	31	C10H11O2+
164.0817	46	C10H12O2+
165.0902	528	C10H13O2+
172.0752	13	C11H10NO+
173.0816	5	C11H11NO+
173.0938	5	C12H13O+
174.0675	5	C11H10O2+
174.0901	27	C11H12NO+
175.0742	21	C11H11O2+
176.071	26	C10H10NO2+
176.0794	20	C9H10N3O+
177.0901	674	C11H13O2+
179.1054	42	C11H15O2+
185.0842	5	C12H11NO+
186.0903	33	C12H12NO+
188.0697	19	C11H10NO2+
188.103	18	C7H14N3O3+
189.0784	14	C11H11NO2+
189.0881	16	C12H13O2+
193.1211	24	C12H17O2+
196.0865	5	C14H12O+
197.0959	16	C14H13O+
201.0903	18	C13H13O2+
201.1243	5	C14H17O+
204.1002	30	C12H14NO2+
205.1193	9	C13H17O2+
211.1126	6	C15H15O+
212.1189	28	C15H16O+
213.0896	12	C14H13O2+
213.1224	5	C10H17N2O3+
214.1221	43	C14H16NO+
215.1062	9	C14H15O2+
215.1241	8	C9H17N3O3+
216.102	18	C13H14NO2+
216.1383	5	C14H18NO+
218.1163	211	C13H16NO2+
220.1324	18	C13H18NO2+
221.1372	5	C13H19NO2+
228.1133	24	C15H16O2+
228.1372	9	C15H18NO+
229.1178	6	C15H17O2+
229.1452	13	C15H19NO+
230.1166	32	C14H16NO2+
231.1262	6	C14H17NO2+
232.1326	11	C14H18NO2+
233.1281	200	C13H17N2O2+
233.1529	49	C15H21O2+
244.1343	32	C15H18NO2+
245.1402	72	C15H19NO2+
246.1433	16	C13H18N4O+
248.1514	267	C14H20N2O2+
249.1552	41	C13[13]CH20N2O2+
250.1598	5	C12[13]C2H20N2O2+
260.1642	284	C16H22NO2+
261.1679	57	C15[13]CH22NO2+
262.1694	5	C15H22N2O2+
264.1954	28	C16H26NO2+
291.2063	196	C17H27N2O2+
