Mass spectrum: 4,4`-Difluorobenzophenonen; GC-APCI-QTOF; MS2; CE: 50 eV; R=35000; [M+H]+
Name: 4,4`-Difluorobenzophenonen
Formula: C13H8F2O
Exact mass: 218.0543
SMILES: C1=CC(=CC=C1C(=O)C2=CC=C(C=C2)F)F
InChI: InChI=1S/C13H8F2O/c14-11-5-1-9(2-6-11)13(16)10-3-7-12(15)8-4-10/h1-8H
Instrument: Bruker 450 GC coupled to maXis Impact
Instrument type: GC-APCI-QTOF
Ms type: MS2
Ion mode: POSITIVE
Ionization: APCI
Fragmentation mode: CID
Collision energy: 50 eV
Resolution: 35000
Column name: Rxi-5Sil MS column, 30m, 0.25mm i.d., 0.25Âµm film thickness, Restek
Retention time: 13.370 min
Base peak: 218.0538
Precursor m/z: 219.0616
Precursor type: [M+H]+
m/z	relative intensity	assigned
113.038	349	C9H5+
123.0236	999	C7H4FO+
170.0558	146	C9H8F2O+
188.045	433	C12H6F2+
189.0474	138	C12H7F2+
