Mass spectrum: Pentoxifylline; LC-ESI-QTOF; MS2; CE: Ramp 20.8-31.3 eV; R=35000; [M+H]+
Name: Pentoxifylline
Name: 3,7-dimethyl-1-(5-oxohexyl)purine-2,6-dione
Formula: C13H18N4O3
Exact mass: 278.1378904
SMILES: CC(=O)CCCCn1c(=O)c2c(ncn2C)n(c1=O)C
InChI: InChI=1S/C13H18N4O3/c1-9(18)6-4-5-7-17-12(19)10-11(14-8-15(10)2)16(3)13(17)20/h8H,4-7H2,1-3H3
Instrument: Bruker maXis Impact
Instrument type: LC-ESI-QTOF
Ms type: MS2
Ion mode: POSITIVE
Ionization: ESI
Fragmentation mode: CID
Collision energy: Ramp 20.8-31.3 eV
Resolution: 35000
Column name: Acclaim RSLC C18 2.2um, 2.1x100mm, Thermo
Retention time: 5.346 min
Base peak: 279.1452
Precursor m/z: 279.1452
Precursor type: [M+H]+
m/z	relative intensity	assigned
135.0652	8	C3H9N3O3+
137.0811	16	C6H9N4+
138.0651	230	C6H8N3O+
139.0679	11	C5[13]CH8N3O+
156.0754	16	C6H10N3O2+
163.0601	22	C7H7N4O+
181.0709	999	C7H9N4O2+
182.0737	50	C6[13]CH9N4O2+
193.0707	15	C8H9N4O2+
279.1446	8	C13H19N4O3+
