Mass spectrum: Metolachlor; LC-ESI-QTOF; MS2; CE: 30 eV; R=35000; [M+H]+
Name: Metolachlor
Name: 2-chloro-N-(2-ethyl-6-methylphenyl)-N-(1-methoxypropan-2-yl)acetamide
Formula: C15H22ClNO2
Exact mass: 283.1339066
SMILES: CCC1=C(N(C(C)COC)C(=O)CCl)C(C)=CC=C1
InChI: InChI=1S/C15H22ClNO2/c1-5-13-8-6-7-11(2)15(13)17(14(18)9-16)12(3)10-19-4/h6-8,12H,5,9-10H2,1-4H3
Instrument: Bruker maXis Impact
Instrument type: LC-ESI-QTOF
Ms type: MS2
Ion mode: POSITIVE
Ionization: ESI
Fragmentation mode: CID
Collision energy: 30 eV
Resolution: 35000
Column name: Acclaim RSLC C18 2.2um, 2.1x100mm, Thermo
Retention time: 10.2 min
Base peak: 284.1413
Precursor m/z: 284.1412
Precursor type: [M+H]+
m/z	relative intensity	assigned
119.0724	7	C8H9N+
119.085	5	C9H11+
130.0643	5	C9H8N+
132.0798	10	C9H10N+
134.0954	75	C9H12N+
135.0988	7	C4H13N3O2+
143.0719	7	C10H9N+
160.1109	47	C5H19ClNO2+
162.0901	10	C10H12NO+
176.1428	999	C12H18N+
177.1458	101	C11[13]CH18N+
184.0517	33	C12H8O2+
194.0721	23	C14H10O+
212.0829	34	C14H12O2+
252.1148	846	C14H19ClNO+
253.1177	96	C13[13]CH19ClNO+
254.112	187	C14H19[37]ClNO+
