Mass spectrum: Lidocaine-N-Oxide; LC-ESI-QTOF; MS2; CE: 20 eV; R=35000; [M+H]+
Name: Lidocaine-N-Oxide
Name: Lidocaine N-oxide
Name: 2-(2,6-dimethylanilino)-N,N-diethyl-2-oxoethanamine oxide
Formula: C14H22N2O2
Exact mass: 250.1681279
SMILES: CC[N+]([O-])(CC)CC(=O)NC1=C(C)C=CC=C1C
InChI: InChI=1S/C14H22N2O2/c1-5-16(18,6-2)10-13(17)15-14-11(3)8-7-9-12(14)4/h7-9H,5-6,10H2,1-4H3,(H,15,17)
Instrument: Bruker maXis Impact
Instrument type: LC-ESI-QTOF
Ms type: MS2
Ion mode: POSITIVE
Ionization: ESI
Fragmentation mode: CID
Collision energy: 20 eV
Resolution: 35000
Column name: Acclaim RSLC C18 2.2um, 2.1x100mm, Thermo
Retention time: 5.2 min
Base peak: 251.1749
Precursor m/z: 251.1754
Precursor type: [M+H]+
m/z	relative intensity	assigned
120.0799	114	C8H10N+
121.0863	9	C7[13]CH10N+
122.0954	42	C8H12N+
130.0851	190	C6H12NO2+
132.0808	6	C9H10N+
134.0946	12	C9H12N+
148.0747	193	C9H10NO+
149.0777	17	C8[13]CH10NO+
150.0909	5	C9H12NO+
162.0902	11	C10H12NO+
163.0619	8	C9H9NO2+
163.0977	36	C10H13NO+
164.1057	195	C10H14NO+
165.1085	24	C9[13]CH14NO+
178.0848	18	C10H12NO2+
180.1011	5	C10H14NO2+
205.1323	9	C12H17N2O+
223.1428	26	C12H19N2O2+
233.1635	33	C14H21N2O+
234.1673	9	C13[13]CH21N2O+
251.1749	999	C14H23N2O2+
252.1782	153	C13[13]CH23N2O2+
253.1794	15	C12[13]C2H23N2O2+
