Mass spectrum: DINCH; LC-ESI-QTOF; MS2; CE: 20 eV; R=35000; [M+H]+
Name: DINCH
Name: bis(7-methyloctyl) cyclohexane-1,2-dicarboxylate
Formula: C26H48O4
Exact mass: 424.3552600
SMILES: CC(C)CCCCCCOC(=O)C1CCCCC1C(=O)OCCCCCCC(C)C
InChI: InChI=1S/C26H48O4/c1-21(2)15-9-5-7-13-19-29-25(27)23-17-11-12-18-24(23)26(28)30-20-14-8-6-10-16-22(3)4/h21-24H,5-20H2,1-4H3
Instrument: Bruker maXis Impact
Instrument type: LC-ESI-QTOF
Ms type: MS2
Ion mode: POSITIVE
Ionization: ESI
Fragmentation mode: CID
Collision energy: 20 eV
Resolution: 35000
Column name: Acclaim RSLC C18 2.2um, 2.1x100mm, Thermo
Retention time: 14.963 min
Base peak: 508.1866
Precursor m/z: 425.3625
Precursor type: [M+H]+
m/z	relative intensity	assigned
133.0852	728	C6H13O3+
177.113	491	C8H17O4+
195.1215	335	C15H15+
239.1474	999	C17H19O+
309.2821	327	C20H37O2+
324.3263	515	C18H44O4+
423.3504	507	C26H47O4+
425.3633	356	C26H49O4+
