Mass spectrum: 2-Isopropylthioxanthone; LC-ESI-QTOF; MS2; CE: 40 eV; R=35000; [M+H]+
Name: 2-Isopropylthioxanthone
Name: 2-propan-2-ylthioxanthen-9-one
Formula: C16H14OS
Exact mass: 254.0765361
SMILES: CC(C)C1=CC=C2SC3=C(C=CC=C3)C(=O)C2=C1
InChI: InChI=1S/C16H14OS/c1-10(2)11-7-8-15-13(9-11)16(17)12-5-3-4-6-14(12)18-15/h3-10H,1-2H3
Instrument: Bruker maXis Impact
Instrument type: LC-ESI-QTOF
Ms type: MS2
Ion mode: POSITIVE
Ionization: ESI
Fragmentation mode: CID
Collision energy: 40 eV
Resolution: 35000
Column name: Acclaim RSLC C18 2.2um, 2.1x100mm, Thermo
Retention time: 12.976 min
Base peak: 255.0834
Precursor m/z: 255.0838
Precursor type: [M+H]+
m/z	relative intensity	assigned
139.0538	7	C11H7+
141.0689	9	C11H9+
152.0611	28	C12H8+
183.0265	7	C12H7S+
184.0334	560	C12H8S+
185.0388	136	C15H5+
186.0293	23	C12H8[34]S+
186.0433	15	C15H6+
197.0408	17	C13H9S+
212.029	18	C13H8OS+
213.0364	999	C13H9OS+
214.039	163	C12[13]CH9OS+
215.0327	40	C13H9O[34]S+
225.0369	14	C14H9OS+
239.0516	83	C15H11OS+
240.0575	22	C14[13]CH11OS+
