Mass spectrum: Fluoxetine; LC-ESI-QTOF; MS2; CE: 50 eV; R=35000; [M+H]+
Name: Fluoxetine
Name: N-methyl-3-phenyl-3-[4-(trifluoromethyl)phenoxy]propan-1-amine
Formula: C17H18F3NO
Exact mass: 309.1340489
SMILES: CNCCC(c1ccccc1)Oc2ccc(cc2)C(F)(F)F
InChI: InChI=1S/C17H18F3NO/c1-21-12-11-16(13-5-3-2-4-6-13)22-15-9-7-14(8-10-15)17(18,19)20/h2-10,16,21H,11-12H2,1H3
Instrument: Bruker maXis Impact
Instrument type: LC-ESI-QTOF
Ms type: MS2
Ion mode: POSITIVE
Ionization: ESI
Fragmentation mode: CID
Collision energy: 50 eV
Resolution: 35000
Column name: Acclaim RSLC C18 2.2um, 2.1x100mm, Thermo
Retention time: 8.6 min
Base peak: 310.1413
Precursor m/z: 310.1413
Precursor type: [M+H]+
m/z	relative intensity	assigned
115.0537	358	C9H7+
117.0694	555	C9H9+
128.0609	282	C10H8+
129.0702	282	C10H9+
145.0261	340	C7H4F3+
152.0599	178	C12H8+
165.0687	334	C13H9+
166.0766	168	C13H10+
167.0847	565	C13H11+
178.0765	263	C14H10+
183.0582	160	C13H8F+
190.0776	180	C15H10+
191.0849	164	C15H11+
194.071	671	C14H10O+
202.0775	350	C16H10+
203.0848	561	C16H11+
204.0923	999	C16H12+
205.0979	263	C16H13+
217.1001	458	C17H13+
218.1078	406	C17H14+
219.1152	183	C17H15+
