Mass spectrum: N-Phenyl-1-naphthylamine; LC-ESI-QTOF; MS2; CE: 40 eV; R=35000; [M+H]+
Name: N-Phenyl-1-naphthylamine
Name: N-phenylnaphthalen-1-amine
Formula: C16H13N
Exact mass: 219.1047994
SMILES: N(C1=CC=CC=C1)C1=CC=CC2=C1C=CC=C2
InChI: InChI=1S/C16H13N/c1-2-9-14(10-3-1)17-16-12-6-8-13-7-4-5-11-15(13)16/h1-12,17H
Instrument: Bruker maXis Impact
Instrument type: LC-ESI-QTOF
Ms type: MS2
Ion mode: POSITIVE
Ionization: ESI
Fragmentation mode: CID
Collision energy: 40 eV
Resolution: 35000
Column name: Acclaim RSLC C18 2.2um, 2.1x100mm, Thermo
Retention time: 11.658 min
Base peak: 220.1115
Precursor m/z: 220.1121
Precursor type: [M+H]+
m/z	relative intensity	assigned
115.0538	169	C9H7+
116.0606	62	C9H8+
117.0559	7	C8H7N+
117.0661	7	C8[13]CH8+
126.0451	23	C10H6+
127.0537	17	C10H7+
128.0608	130	C10H8+
129.0644	19	C9[13]CH8+
142.0632	27	C10H8N+
143.072	999	C10H9N+
144.0749	107	C9[13]CH9N+
145.0796	6	C8[13]C2H9N+
165.0675	6	C13H9+
171.013	5	C13HN+
178.0767	16	C14H10+
191.0839	23	C15H11+
192.0901	8	C15H12+
193.0905	5	C14H11N+
202.0765	68	C16H10+
203.0826	19	C15[13]CH10+
204.0797	29	C15H10N+
205.085	15	C15H11N+
216.0795	11	C16H10N+
217.0874	163	C16H11N+
218.0943	99	C16H12N+
219.1	35	C16H13N+
220.1109	11	C16H14N+
