Mass spectrum: Fipronil sulfide; LC-ESI-QTOF; MS2; CE: 20 eV; R=35000; [M-H]-
Name: Fipronil sulfide
Name: 5-amino-1-[2,6-dichloro-4-(trifluoromethyl)phenyl]-4-(trifluoromethylsulfanyl)pyrazole-3-carbonitrile
Formula: C12H4Cl2F6N4S
Exact mass: 419.9437918
SMILES: NC1=C(SC(F)(F)F)C(=NN1C1=C(Cl)C=C(C=C1Cl)C(F)(F)F)C#N
InChI: InChI=1S/C12H4Cl2F6N4S/c13-5-1-4(11(15,16)17)2-6(14)8(5)24-10(22)9(7(3-21)23-24)25-12(18,19)20/h1-2H,22H2
Instrument: Bruker maXis Impact
Instrument type: LC-ESI-QTOF
Ms type: MS2
Ion mode: NEGATIVE
Ionization: ESI
Fragmentation mode: CID
Collision energy: 20 eV
Resolution: 35000
Column name: Acclaim RSLC C18 2.2um, 2.1x100mm, Thermo
Retention time: 10.624 min
Base peak: 418.9364
Precursor m/z: 418.9365
Precursor type: [M-H]-
m/z	relative intensity	assigned
150.0036	11	C7F2N2-
170.01	221	C7HF3N2-
171.0125	12	C6[13]CHF3N2-
217.986	144	C8H2ClF3N2-
218.9884	9	C7[13]CH2ClF3N2-
219.9832	26	C8H2[37]ClF3N2-
233.9818	40	C11HClF2N2-
235.9769	11	C11H[37]ClF2N2-
245.9796	12	C12HClF2N2-
249.9576	19	C8H2ClF3N2S-
251.9547	5	C8H2[37]ClF3N2S-
261.9586	508	C9H2ClF3N2S-
262.9603	31	C8[13]CH2ClF3N2S-
263.9547	116	C9H2[37]ClF3N2S-
264.9566	6	C7HClF3N4S-
313.9646	999	C11H2ClF3N4S-
314.9662	82	C10[13]CH2ClF3N4S-
315.9613	237	C11H2[37]ClF3N4S-
316.9622	15	C11H2Cl2F3N4-
330.9521	20	C10H2ClF6N2S-
332.9519	5	C10H2[37]ClF6N2S-
382.9602	929	C12H2ClF6N4S-
383.9616	74	C11[13]CH2ClF6N4S-
384.9565	216	C12H2[37]ClF6N4S-
385.9567	16	C12H2Cl2F6N4-
