Mass spectrum: Lopinavir; LC-ESI-QTOF; MS2; CE: 40 eV; R=35000; [M+H]+
Name: Lopinavir
Name: (2S)-N-[(2S,4S,5S)-5-[[2-(2,6-dimethylphenoxy)acetyl]amino]-4-hydroxy-1,6-diphenylhexan-2-yl]-3-methyl-2-(2-oxo-1,3-diazinan-1-yl)butanamide
Formula: C37H48N4O5
Exact mass: 628.3624706
SMILES: Cc1cccc(c1OCC(=O)N[C@@H](Cc2ccccc2)[C@H](C[C@H](Cc3ccccc3)NC(=O)[C@H](C(C)C)N4CCCNC4=O)O)C
InChI: InChI=1S/C37H48N4O5/c1-25(2)34(41-20-12-19-38-37(41)45)36(44)39-30(21-28-15-7-5-8-16-28)23-32(42)31(22-29-17-9-6-10-18-29)40-33(43)24-46-35-26(3)13-11-14-27(35)4/h5-11,13-18,25,30-32,34,42H,12,19-24H2,1-4H3,(H,38,45)(H,39,44)(H,40,43)/t30-,31-,32-,34-/m0/s1
Instrument: Bruker maXis Impact
Instrument type: LC-ESI-QTOF
Ms type: MS2
Ion mode: POSITIVE
Ionization: ESI
Fragmentation mode: CID
Collision energy: 40 eV
Resolution: 35000
Column name: Acclaim RSLC C18 2.2um, 2.1x100mm, Thermo
Retention time: 11.826 min
Base peak: 629.3696
Precursor m/z: 629.3697
Precursor type: [M+H]+
m/z	relative intensity	assigned
120.0799	141	C5H12O3+
121.0832	11	C4[13]CH12O3+
131.0842	6	C10H11+
135.0791	5	C7H9N3+
155.1167	999	C5H17NO4+
156.1198	75	C4[13]CH17NO4+
180.1007	15	C8H12N4O+
183.1118	418	C6H17NO5+
184.1149	38	C5[13]CH17NO5+
233.1322	6	C18H17+
250.1585	40	C15H22O3+
251.1613	9	C14[13]CH22O3+
310.18	80	C17H26O5+
311.1819	19	C16[13]CH26O5+
384.2316	17	C25H28N4+
385.2344	5	C24[13]CH28N4+
412.2272	13	C28H30NO2+
429.2537	87	C25H35NO5+
430.2561	26	C24[13]CH35NO5+
447.2635	10	C28H35N2O3+
