Mass spectrum: 2-Perfluorobutyl ethanol (4:2) (FBET); LC-ESI-QTOF; MS2; CE: 24.1-36.1 eV; R=35000; [M+HCOOH-H]-
Name: 2-Perfluorobutyl ethanol (4:2) (FBET)
Name: 1-Hexanol, 3,3,4,4,5,5,6,6,6-nonafluoro-
Name: 3,3,4,4,5,5,6,6,6-nonafluorohexan-1-ol
Formula: C6H5F9O
Exact mass: 264.0197
SMILES: C(CO)C(C(C(C(F)(F)F)(F)F)(F)F)(F)F
InChI: InChI=1S/C6H5F9O/c7-3(8,1-2-16)4(9,10)5(11,12)6(13,14)15/h16H,1-2H2
Instrument: Bruker maXis Impact
Instrument type: LC-ESI-QTOF
Ms type: MS2
Ionization: ESI
Fragmentation mode: CID
Collision energy: 24.1-36.1 eV
Resolution: 35000
Column name: Acclaim RSLC C18 2.2um, 2.1x100mm, Thermo
Retention time: 14.572 min
Base peak: 283.2647
Precursor m/z: 309.0179
Precursor type: [M+HCOOH-H]-
m/z	relative intensity	assigned
183.0121	999	C3H4F5O3-
