Mass spectrum: Ethyl 4-(dimethylamino)benzoate; LC-ESI-QTOF; MS2; CE: 10 eV; R=35000; [M+H]+
Name: Ethyl 4-(dimethylamino)benzoate
Name: Ethyl 4-dimethylaminobenzoate
Formula: C11H15NO2
Exact mass: 193.1102787
SMILES: CCOC(=O)C1=CC=C(C=C1)N(C)C
InChI: InChI=1S/C11H15NO2/c1-4-14-11(13)9-5-7-10(8-6-9)12(2)3/h5-8H,4H2,1-3H3
Instrument: Bruker maXis Impact
Instrument type: LC-ESI-QTOF
Ms type: MS2
Ion mode: POSITIVE
Ionization: ESI
Fragmentation mode: CID
Collision energy: 10 eV
Resolution: 35000
Column name: Acclaim RSLC C18 2.2um, 2.1x100mm, Thermo
Retention time: 9.830 min
Base peak: 232.1329
Precursor m/z: 194.1176
Precursor type: [M+H]+
m/z	relative intensity	assigned
148.0752	8	C9H10NO+
151.0618	13	C8H9NO2+
166.085	103	C9H12NO2+
167.0872	9	C8[13]CH12NO2+
179.093	49	C10H13NO2+
180.0968	6	C9[13]CH13NO2+
194.117	999	C11H16NO2+
195.1201	120	C10[13]CH16NO2+
