Mass spectrum: Difenoconazole; LC-ESI-QTOF; MS2; CE: 20 eV; R=35000; [M+H]+
Name: Difenoconazole
Name: 1-[[2-[2-chloro-4-(4-chlorophenoxy)phenyl]-4-methyl-1,3-dioxolan-2-yl]methyl]-1,2,4-triazole
Formula: C19H17Cl2N3O3
Exact mass: 405.0646968
SMILES: CC1COC(CN2C=NC=N2)(O1)C1=C(Cl)C=C(OC2=CC=C(Cl)C=C2)C=C1
InChI: InChI=1S/C19H17Cl2N3O3/c1-13-9-25-19(27-13,10-24-12-22-11-23-24)17-7-6-16(8-18(17)21)26-15-4-2-14(20)3-5-15/h2-8,11-13H,9-10H2,1H3
Instrument: Bruker maXis Impact
Instrument type: LC-ESI-QTOF
Ms type: MS2
Ion mode: POSITIVE
Ionization: ESI
Fragmentation mode: CID
Collision energy: 20 eV
Resolution: 35000
Column name: Acclaim RSLC C18 2.2um, 2.1x100mm, Thermo
Retention time: 11.570 min
Base peak: 306.1033
Precursor m/z: 406.072
Precursor type: [M+H]+
m/z	relative intensity	assigned
116.0486	5	C8H6N+
131.0713	5	Cl2H17N2O+
162.0893	5	C4H17ClNO3+
186.0511	70	C2H16Cl2N2O3+
206.0798	16	C11H12NO3+
251.002	899	C11H7Cl2N3+
252.005	116	C10[13]CH7Cl2N3+
252.999	495	C11H7Cl[37]ClN3+
254.0019	36	C11H8Cl2N2O+
254.9956	8	C13H4ClN2O2+
291.0332	47	C14H11Cl2N3+
292.0344	9	C13[13]CH11Cl2N3+
293.03	33	C14H11Cl[37]ClN3+
323.0235	23	C14H11Cl2N3O2+
325.0202	10	C14H11Cl[37]ClN3O2+
337.0392	441	C15H13Cl2N3O2+
338.042	95	C14[13]CH13Cl2N3O2+
339.0362	264	C15H13Cl[37]ClN3O2+
340.0395	28	C18H12Cl2N3+
348.0302	5	C16H12Cl2N3O2+
406.0719	999	C19H18Cl2N3O3+
407.0744	226	C18[13]CH18Cl2N3O3+
408.0691	515	C19H18Cl[37]ClN3O3+
