Mass spectrum: 4-Hydroxybenzenesulfonic acid; LC-ESI-QTOF; MS2; CE: 20 eV; R=35000; [M-H]-
Name: 4-Hydroxybenzenesulfonic acid
Formula: C6H6O4S
Exact mass: 173.9986797
SMILES: c1cc(ccc1O)S(=O)(=O)O
InChI: InChI=1S/C6H6O4S/c7-5-1-3-6(4-2-5)11(8,9)10/h1-4,7H,(H,8,9,10)
Instrument: Bruker maXis Impact
Instrument type: LC-ESI-QTOF
Ms type: MS2
Ion mode: NEGATIVE
Ionization: ESI
Fragmentation mode: CID
Collision energy: 20 eV
Resolution: 35000
Column name: Acclaim RSLC C18 2.2um, 2.1x100mm, Thermo
Retention time: 1.3 min
Base peak: 172.9901
Precursor m/z: 172.9914
Precursor type: [M-H]-
m/z	relative intensity	assigned
172.99	999	C6H5O4S-
