Mass spectrum: Sulpiride; LC-ESI-QTOF; MS2; CE: 30 eV; R=35000; [M+H]+
Name: Sulpiride
Name: N-[(1-ethylpyrrolidin-2-yl)methyl]-2-methoxy-5-sulfamoylbenzamide
Formula: C15H23N3O4S
Exact mass: 341.1409272
SMILES: CCN1CCCC1CNC(=O)C1=C(OC)C=CC(=C1)S(N)(=O)=O
InChI: InChI=1S/C15H23N3O4S/c1-3-18-8-4-5-11(18)10-17-15(19)13-9-12(23(16,20)21)6-7-14(13)22-2/h6-7,9,11H,3-5,8,10H2,1-2H3,(H,17,19)(H2,16,20,21)
Instrument: Bruker maXis Impact
Instrument type: LC-ESI-QTOF
Ms type: MS2
Ion mode: POSITIVE
Ionization: ESI
Fragmentation mode: CID
Collision energy: 30 eV
Resolution: 35000
Column name: Acclaim RSLC C18 2.2um, 2.1x100mm, Thermo
Retention time: 3.0 min
Base peak: 342.1485
Precursor m/z: 342.1482
Precursor type: [M+H]+
m/z	relative intensity	assigned
112.112	93	C7H14N+
113.115	9	C6[13]CH14N+
214.0166	590	C8H8NO4S+
231.0435	9	C8H11N2O4S+
285.0901	11	C12H17N2O4S+
297.0897	14	C13H17N2O4S+
342.149	999	C15H24N3O4S+
343.1514	150	C14[13]CH24N3O4S+
344.1468	36	C13[13]CH24N3O4S+
