Mass spectrum: Dioctyl Adipate; GC-APCI-QTOF; MS2; CE: 50 eV; R=35000; [M+H]+
Name: Dioctyl Adipate
Formula: C22H42O4
Exact mass: 370.3083
SMILES: CCCCC(CC)COC(=O)CCCCC(=O)OCC(CC)CCCC
InChI: InChI=1S/C22H42O4/c1-5-9-13-19(7-3)17-25-21(23)15-11-12-16-22(24)26-18-20(8-4)14-10-6-2/h19-20H,5-18H2,1-4H3
Instrument: Bruker 450 GC coupled to maXis Impact
Instrument type: GC-APCI-QTOF
Ms type: MS2
Ion mode: POSITIVE
Ionization: APCI
Fragmentation mode: CID
Collision energy: 50 eV
Resolution: 35000
Column name: Rxi-5Sil MS column, 30m, 0.25mm i.d., 0.25Âµm film thickness, Restek
Retention time: 22.735 min
Base peak: 371.315
Precursor m/z: 371.3156
Precursor type: [M+H]+
m/z	relative intensity	assigned
55.0549	999	C4H7+
57.0705	812	C4H9+
59.0497	235	C3H7O+
69.0703	51	C5H9+
71.0855	261	C5H11+
83.0493	272	C5H7O+
83.3318	43	C2H43O+
101.0592	769	C5H9O2+
111.0436	150	C6H7O2+
129.0544	641	C6H9O3+
147.0682	396	C6H11O4+
148.0714	30	C6H12O4+
