Mass spectrum: Olopatadine; LC-ESI-QTOF; MS2; CE: 20 eV; R=35000; [M+H]+
Name: Olopatadine
Name: 2-[(11Z)-11-[3-(dimethylazaniumyl)propylidene]-6H-benzo[c][1]benzoxepin-2-yl]acetate
Formula: C21H23NO3
Exact mass: 337.1677936
SMILES: CN(C)CC/C=C\1/c2ccccc2COc3c1cc(cc3)CC(=O)O
InChI: InChI=1S/C21H23NO3/c1-22(2)11-5-8-18-17-7-4-3-6-16(17)14-25-20-10-9-15(12-19(18)20)13-21(23)24/h3-4,6-10,12H,5,11,13-14H2,1-2H3,(H,23,24)/b18-8-
Instrument: Bruker maXis Impact
Instrument type: LC-ESI-QTOF
Ms type: MS2
Ion mode: POSITIVE
Ionization: ESI
Fragmentation mode: CID
Collision energy: 20 eV
Resolution: 35000
Column name: Acclaim RSLC C18 2.2um, 2.1x100mm, Thermo
Retention time: 7.028 min
Base peak: 338.1776
Precursor m/z: 338.1751
Precursor type: [M+H]+
m/z	relative intensity	assigned
141.07	8	C11H9+
165.0554	58	C9H9O3+
166.0587	5	C8[13]CH9O3+
247.1135	80	C18H15O+
248.1166	13	C17[13]CH15O+
293.1196	52	C19H17O3+
294.1222	9	C18[13]CH17O3+
338.1783	999	C21H24NO3+
339.1812	219	C20[13]CH24NO3+
340.1835	22	C19[13]C2H24NO3+
