Mass spectrum: Dibutyl phthalate; GC-APCI-QTOF; MS2; CE: 40 eV; R=35000; [M+H]+
Name: Dibutyl phthalate
Formula: C16H22O4
Exact mass: 278.1518
SMILES: CCCCOC(=O)C1=CC=CC=C1C(=O)OCCCC
InChI: InChI=1S/C16H22O4/c1-3-5-11-19-15(17)13-9-7-8-10-14(13)16(18)20-12-6-4-2/h7-10H,3-6,11-12H2,1-2H3
Instrument: Bruker 450 GC coupled to maXis Impact
Instrument type: GC-APCI-QTOF
Ms type: MS2
Ion mode: POSITIVE
Ionization: APCI
Fragmentation mode: CID
Collision energy: 40 eV
Resolution: 35000
Column name: Rxi-5Sil MS column, 30m, 0.25mm i.d., 0.25Âµm film thickness, Restek
Retention time: 17.556 min
Base peak: 149.0253
Precursor m/z: 279.1591
Precursor type: [M+H]+
m/z	relative intensity	assigned
55.0555	34	C4H7+
57.0709	10	C4H9+
67.0555	22	C5H7+
69.0709	14	C5H9+
79.0532	6	C6H7+
81.069	27	C6H9+
95.0852	16	C7H11+
105.0693	5	C8H9+
109.102	5	C8H13+
119.085	14	C9H11+
121.0279	93	C7H5O2+
121.101	8	C9H13+
123.1176	7	C9H15+
131.0877	6	C10H11+
133.1016	14	C10H13+
135.1192	6	C10H15+
137.0984	5	C9H13O+
149.0255	999	C8H5O3+
150.029	61	C8H6O3+
167.0368	8	C8H7O4+
