Mass spectrum: Lapatinib; LC-ESI-QTOF; MS2; CE: 40 eV; R=35000; [M+H]+
Name: Lapatinib
Name: N-[3-chloro-4-[(3-fluorophenyl)methoxy]phenyl]-6-[5-[(2-methylsulfonylethylamino)methyl]furan-2-yl]quinazolin-4-amine
Formula: C29H26ClFN4O4S
Exact mass: 580.1347322
SMILES: CS(=O)(=O)CCNCC1=CC=C(O1)C1=CC2=C(C=C1)N=CN=C2NC1=CC(Cl)=C(OCC2=CC(F)=CC=C2)C=C1
InChI: InChI=1S/C29H26ClFN4O4S/c1-40(36,37)12-11-32-16-23-7-10-27(39-23)20-5-8-26-24(14-20)29(34-18-33-26)35-22-6-9-28(25(30)15-22)38-17-19-3-2-4-21(31)13-19/h2-10,13-15,18,32H,11-12,16-17H2,1H3,(H,33,34,35)
Instrument: Bruker maXis Impact
Instrument type: LC-ESI-QTOF
Ms type: MS2
Ion mode: POSITIVE
Ionization: ESI
Fragmentation mode: CID
Collision energy: 40 eV
Resolution: 35000
Column name: Acclaim RSLC C18 2.2um, 2.1x100mm, Thermo
Retention time: 11.097 min
Base peak: 581.1422
Precursor m/z: 581.142
Precursor type: [M+H]+
m/z	relative intensity	assigned
239.0918	7	C9H18ClNO4+
335.0814	6	C22H11N2O2+
349.061	97	C19H12ClN3O2+
350.0685	266	C19H13ClN3O2+
351.0705	79	C18[13]CH13ClN3O2+
352.0662	82	C19H13[37]ClN3O2+
353.07	13	C16H15ClFN2O4+
364.0818	8	C18H18ClFN2OS+
365.0804	999	C19H14ClN4O2+
366.0834	230	C18[13]CH14ClN4O2+
367.0778	278	C19H14[37]ClN4O2+
368.0805	48	C16H16ClFN3O4+
379.0954	264	C20H16ClN4O2+
380.0996	60	C19[13]CH16ClN4O2+
381.0942	66	C20H16[37]ClN4O2+
382.0981	10	C20H18N2O4S+
393.1113	121	C21H18ClN4O2+
394.1152	37	C20[13]CH18ClN4O2+
395.1082	43	C21H18[37]ClN4O2+
396.1117	7	C18H20ClFN3O4+
422.1285	10	C29H16N3O+
458.107	80	C28H20ClFO3+
459.1109	33	C27[13]CH20ClFO3+
460.1077	22	C28H20[37]ClFO3+
461.1107	8	C23H23ClFN2O3S+
471.0859	7	C25H16ClN4O4+
472.0972	20	C27H21ClN2O2S+
473.1055	8	C26[13]CH21ClN2O2S+
474.0957	10	C27H21[37]ClN2O2S+
475.1337	8	C26H21ClFN4O2+
476.1346	5	C27H24ClFN3S+
487.1368	5	C29H26ClNO2S+
581.1427	378	C29H27ClFN4O4S+
582.1454	142	C28[13]CH27ClFN4O4S+
583.1411	144	C29H27[37]ClFN4O4S+
