Mass spectrum: Galaxolide; LC-ESI-QTOF; MS2; CE: 20 eV; R=35000; [M+H]+
Name: Galaxolide
Name: Cyclopenta[g]-2-benzopyran, 1,3,4,6,7,8-hexahydro-4,6,6,7,8,8-hexamethyl-
Name: 4,6,6,7,8,8-hexamethyl-1,3,4,7-tetrahydrocyclopenta[g]isochromene
Formula: C18H26O
Exact mass: 258.1983655
SMILES: CC1C(C)(C)C2=CC3=C(C=C2C1(C)C)C(C)COC3
InChI: InChI=1S/C18H26O/c1-11-9-19-10-13-7-15-16(8-14(11)13)18(5,6)12(2)17(15,3)4/h7-8,11-12H,9-10H2,1-6H3
Instrument: Bruker maXis Impact
Instrument type: LC-ESI-QTOF
Ms type: MS2
Ion mode: POSITIVE
Ionization: ESI
Fragmentation mode: CID
Collision energy: 20 eV
Resolution: 35000
Column name: Acclaim RSLC C18 2.2um, 2.1x100mm, Thermo
Retention time: 13.483 min
Base peak: 259.2051
Precursor m/z: 259.2056
Precursor type: [M+H]+
m/z	relative intensity	assigned
133.1	45	C10H13+
147.0785	34	C10H11O+
148.0836	5	C9[13]CH11O+
159.1146	7	C12H15+
161.0944	76	C11H13O+
162.0972	10	C10[13]CH13O+
175.1103	999	C12H15O+
176.1137	123	C11[13]CH15O+
177.1165	13	C10[13]C2H15O+
187.1095	10	C13H15O+
189.1263	41	C13H17O+
190.1285	5	C12[13]CH17O+
203.1412	17	C14H19O+
239.1765	7	C18H23+
257.1897	97	C18H25O+
258.1927	24	C17[13]CH25O+
259.2045	254	C18H27O+
260.2076	48	C17[13]CH27O+
261.2105	5	C16[13]C2H27O+
