Mass spectrum: Prochloraz BTS40348; LC-ESI-QTOF; MS2; CE: 10 eV; R=35000; [M+H]+
Name: Prochloraz BTS40348
Name: N-(2-(2,4,6-Trichlorophenoxy)ethyl)propan-1-amine
Name: N-[2-(2,4,6-trichlorophenoxy)ethyl]propan-1-amine
Formula: C11H14Cl3NO
Exact mass: 281.0140971
SMILES: CCCNCCOC1=C(Cl)C=C(Cl)C=C1Cl
InChI: InChI=1S/C11H14Cl3NO/c1-2-3-15-4-5-16-11-9(13)6-8(12)7-10(11)14/h6-7,15H,2-5H2,1H3
Instrument: Bruker maXis Impact
Instrument type: LC-ESI-QTOF
Ms type: MS2
Ion mode: POSITIVE
Ionization: ESI
Fragmentation mode: CID
Collision energy: 10 eV
Resolution: 35000
Column name: Acclaim RSLC C18 2.2um, 2.1x100mm, Thermo
Retention time: 6.993 min
Base peak: 282.0211
Precursor m/z: 282.0214
Precursor type: [M+H]+
m/z	relative intensity	assigned
282.0213	999	C11H15Cl3NO+
283.0243	86	C10[13]CH15Cl3NO+
284.0184	776	C11H15Cl2[37]ClNO+
