Mass spectrum: Fipronil sulfone; LC-ESI-QTOF; MS2; CE: 10 eV; R=35000; [M-H]-
Name: Fipronil sulfone
Name: 5-amino-1-[2,6-dichloro-4-(trifluoromethyl)phenyl]-4-(trifluoromethylsulfonyl)pyrazole-3-carbonitrile
Formula: C12H4Cl2F6N4O2S
Exact mass: 451.9336210
SMILES: NC1=C(C(=NN1C1=C(Cl)C=C(C=C1Cl)C(F)(F)F)C#N)S(=O)(=O)C(F)(F)F
InChI: InChI=1S/C12H4Cl2F6N4O2S/c13-5-1-4(11(15,16)17)2-6(14)8(5)24-10(22)9(7(3-21)23-24)27(25,26)12(18,19)20/h1-2H,22H2
Instrument: Bruker maXis Impact
Instrument type: LC-ESI-QTOF
Ms type: MS2
Ion mode: NEGATIVE
Ionization: ESI
Fragmentation mode: CID
Collision energy: 10 eV
Resolution: 35000
Column name: Acclaim RSLC C18 2.2um, 2.1x100mm, Thermo
Retention time: 10.876 min
Base peak: 450.9267
Precursor m/z: 450.9263
Precursor type: [M-H]-
m/z	relative intensity	assigned
281.9928	5	C11H2ClF3N4-
414.95	999	C12H2ClF6N4O2S-
415.9522	87	C11[13]CH2ClF6N4O2S-
416.9468	223	C12H2[37]ClF6N4O2S-
417.9485	14	C12H2Cl2F6N4O2-
450.9267	613	C12H3Cl2F6N4O2S-
451.9293	61	C11[13]CH3Cl2F6N4O2S-
452.9236	379	C12H3Cl[37]ClF6N4O2S-
