Mass spectrum: Cilastatin; LC-ESI-QTOF; MS2; CE: 20 eV; R=35000; [M+H]+
Name: Cilastatin
Name: (Z)-7-[(2R)-2-amino-2-carboxyethyl]sulfanyl-2-[[(1S)-2,2-dimethylcyclopropanecarbonyl]amino]hept-2-enoic acid
Formula: C16H26N2O5S
Exact mass: 358.1562429
SMILES: CC1(C[C@@H]1/C(=N/C(=C\CCCCSC[C@@H](C(=O)O)N)/C(=O)O)/O)C
InChI: InChI=1S/C16H26N2O5S/c1-16(2)8-10(16)13(19)18-12(15(22)23)6-4-3-5-7-24-9-11(17)14(20)21/h6,10-11H,3-5,7-9,17H2,1-2H3,(H,18,19)(H,20,21)(H,22,23)/b12-6-/t10-,11+/m1/s1
Instrument: Bruker maXis Impact
Instrument type: LC-ESI-QTOF
Ms type: MS2
Ion mode: POSITIVE
Ionization: ESI
Fragmentation mode: CID
Collision energy: 20 eV
Resolution: 35000
Column name: Acclaim RSLC C18 2.2um, 2.1x100mm, Thermo
Retention time: 4.803 min
Base peak: 359.1652
Precursor m/z: 359.1635
Precursor type: [M+H]+
m/z	relative intensity	assigned
115.0587	45	C6H11S+
130.0687	357	C6H12NS+
142.0875	57	CH18O5S+
156.0847	188	C8H14NS+
166.0858	76	C9H12NO2+
174.06	161	C7H12NO2S+
184.0968	128	C9H14NO3+
194.1529	41	C12H20NO+
200.0743	202	C9H14NO2S+
202.0904	999	C9H16NO2S+
203.092	134	C9H15O5+
204.0863	58	C8H14NO5+
217.1002	158	C9H17N2O2S+
219.1175	851	C9H19N2O2S+
220.1197	69	C12H16N2O2+
221.1105	78	C12H17N2S+
226.1252	50	C12H20NOS+
238.1442	158	C13H20NO3+
239.1467	47	C14H23OS+
245.0987	103	C15H17OS+
246.0876	46	C14H14O4+
252.1036	48	C10H20O5S+
263.1067	330	C10H19N2O4S+
264.1074	55	C14H18NO2S+
313.1632	84	C15H25N2O3S+
315.1736	260	C15H27N2O3S+
341.153	55	C16H25N2O4S+
342.1413	154	C16H24NO5S+
359.1651	397	C16H27N2O5S+
