Mass spectrum: Cetirizine; LC-ESI-QTOF; MS2; CE: 50 eV; R=35000; [M+H]+
Name: Cetirizine
Name: Levocetirizine
Name: 2-[2-[4-[(R)-(4-chlorophenyl)-phenylmethyl]piperazin-1-ium-1-yl]ethoxy]acetate
Formula: C21H25ClN2O3
Exact mass: 388.1553703
SMILES: N1([C@@H](c2ccc(Cl)cc2)c2ccccc2)CCN(CCOCC(O)=O)CC1
InChI: InChI=1S/C21H25ClN2O3/c22-19-8-6-18(7-9-19)21(17-4-2-1-3-5-17)24-12-10-23(11-13-24)14-15-27-16-20(25)26/h1-9,21H,10-16H2,(H,25,26)/t21-/m1/s1
Instrument: Bruker maXis Impact
Instrument type: LC-ESI-QTOF
Ms type: MS2
Ion mode: POSITIVE
Ionization: ESI
Fragmentation mode: CID
Collision energy: 50 eV
Resolution: 35000
Column name: Acclaim RSLC C18 2.2um, 2.1x100mm, Thermo
Retention time: 8.8 min
Base peak: 389.1624
Precursor m/z: 389.1626
Precursor type: [M+H]+
m/z	relative intensity	assigned
165.0692	498	C13H9+
166.0769	999	C13H10+
167.0796	115	C8H11N2O2+
168.0833	6	C7[13]CH11N2O2+
183.0798	17	C13H11O+
193.0751	37	C13H9N2+
201.0462	334	C13H10Cl+
202.0491	42	C12[13]CH10Cl+
203.0425	78	C13H10[37]Cl+
204.0464	6	C12[13]CH10[37]Cl+
