Mass spectrum: Labetalol; LC-ESI-QTOF; MS2; CE: 50 eV; R=35000; [M+H]+
Name: Labetalol
Name: 2-hydroxy-5-[1-hydroxy-2-(4-phenylbutan-2-ylamino)ethyl]benzamide
Formula: C19H24N2O3
Exact mass: 328.1786926
SMILES: CC(CCC1=CC=CC=C1)NCC(O)C1=CC(C(N)=O)=C(O)C=C1
InChI: InChI=1S/C19H24N2O3/c1-13(7-8-14-5-3-2-4-6-14)21-12-18(23)15-9-10-17(22)16(11-15)19(20)24/h2-6,9-11,13,18,21-23H,7-8,12H2,1H3,(H2,20,24)
Instrument: Bruker maXis Impact
Instrument type: LC-ESI-QTOF
Ms type: MS2
Ion mode: POSITIVE
Ionization: ESI
Fragmentation mode: CID
Collision energy: 50 eV
Resolution: 35000
Column name: Acclaim RSLC C18 2.2um, 2.1x100mm, Thermo
Retention time: 5.586 min
Base peak: 411.2192
Precursor m/z: 329.186
Precursor type: [M+H]+
m/z	relative intensity	assigned
116.0491	88	C8H6N+
117.0317	13	C8H5O+
117.0556	37	C5H9O3+
118.0644	8	C8H8N+
119.0491	23	C8H7O+
120.0442	36	C7H6NO+
121.0271	5	C7H5O2+
133.0266	6	C8H5O2+
133.0514	74	C8H7NO+
134.0589	532	C8H8NO+
135.0428	113	C8H7O2+
135.0622	54	C7[13]CH8NO+
136.0472	14	C7[13]CH7O2+
136.0754	6	C8H10NO+
144.0432	130	C9H6NO+
145.0266	36	C9H5O2+
145.0467	12	C8[13]CH6NO+
146.0585	7	C9H8NO+
147.0426	78	C9H7O2+
148.046	10	C8[13]CH7O2+
160.0381	8	C9H6NO2+
161.045	7	C9H7NO2+
162.0537	999	C9H8NO2+
163.0372	13	C9H7O3+
163.0569	133	C8[13]CH8NO2+
164.0608	14	C13H8+
164.0668	17	C9H10NO2+
165.0536	157	C9H9O3+
166.0579	14	C8[13]CH9O3+
172.0742	9	C11H10NO+
180.065	51	C12H8N2+
181.0684	8	C11[13]CH8N2+
190.0855	5	C11H12NO2+
