Mass spectrum: Norfenfluramine; LC-ESI-QTOF; MS2; CE: 30 eV; R=35000; [M+H]+
Name: Norfenfluramine
Name: 1-[3-(trifluoromethyl)phenyl]propan-2-amine
Formula: C10H12F3N
Exact mass: 203.0921840
SMILES: CC(N)CC1=CC(=CC=C1)C(F)(F)F
InChI: InChI=1S/C10H12F3N/c1-7(14)5-8-3-2-4-9(6-8)10(11,12)13/h2-4,6-7H,5,14H2,1H3
Instrument: Bruker maXis Impact
Instrument type: LC-ESI-QTOF
Ms type: MS2
Ion mode: POSITIVE
Ionization: ESI
Fragmentation mode: CID
Collision energy: 30 eV
Resolution: 35000
Column name: Acclaim RSLC C18 2.2um, 2.1x100mm, Thermo
Retention time: 5.9 min
Base peak: 204.0991
Precursor m/z: 204.0995
Precursor type: [M+H]+
m/z	relative intensity	assigned
109.0448	5	C7H6F+
119.0281	3	C8H4F+
139.0347	17	C8H5F2+
147.0348	6	C8H4FN2+
159.0409	999	C8H6F3+
160.0441	73	C7[13]CH6F3+
