Mass spectrum: Corticosterone; LC-ESI-QTOF; MS2; CE: 20 eV; R=35000; [M+H]+
Name: Corticosterone
Name: (8S,9S,10R,11S,13S,14S,17S)-11-hydroxy-17-(2-hydroxyacetyl)-10,13-dimethyl-1,2,6,7,8,9,11,12,14,15,16,17-dodecahydrocyclopenta[a]phenanthren-3-one
Formula: C21H30O4
Exact mass: 346.2144094
SMILES: C[C@]12CCC(=O)C=C1CC[C@@H]3[C@@H]2[C@H](C[C@]4([C@H]3CC[C@@H]4C(=O)CO)C)O
InChI: InChI=1S/C21H30O4/c1-20-8-7-13(23)9-12(20)3-4-14-15-5-6-16(18(25)11-22)21(15,2)10-17(24)19(14)20/h9,14-17,19,22,24H,3-8,10-11H2,1-2H3/t14-,15-,16+,17-,19+,20-,21-/m0/s1
Instrument: Bruker maXis Impact
Instrument type: LC-ESI-QTOF
Ms type: MS2
Ion mode: POSITIVE
Ionization: ESI
Fragmentation mode: CID
Collision energy: 20 eV
Resolution: 35000
Column name: Acclaim RSLC C18 2.2um, 2.1x100mm, Thermo
Retention time: 8.633 min
Base peak: 347.2243
Precursor m/z: 347.2217
Precursor type: [M+H]+
m/z	relative intensity	assigned
119.0855	17	C9H11+
121.0652	148	C8H9O+
121.1012	7	C9H13+
123.081	50	C8H11O+
129.0701	7	C10H9+
131.0858	16	C10H11+
133.101	25	C10H13+
135.081	43	C9H11O+
135.1174	13	C10H15+
136.0851	6	C9H12O+
137.0963	16	C9H13O+
143.0844	15	C11H11+
145.1013	30	C11H13+
147.0808	29	C10H11O+
147.1177	20	C11H15+
149.0963	16	C10H13O+
149.134	11	C11H17+
151.1114	5	C10H15O+
153.091	9	C9H13O2+
155.0856	6	C12H11+
157.1013	29	C12H13+
159.0808	11	C11H11O+
159.1167	27	C12H15+
161.0964	37	C11H13O+
161.1332	9	C12H17+
162.1002	5	C11H14O+
163.1122	58	C11H15O+
164.1157	6	C11H16O+
169.1014	18	C13H13+
171.0823	6	C12H11O+
171.1173	41	C13H15+
173.097	20	C12H13O+
173.1327	15	C13H17+
174.101	5	C12H14O+
175.112	52	C12H15O+
176.1153	5	C12H16O+
177.1283	20	C12H17O+
179.109	7	C11H15O2+
181.1012	5	C14H13+
183.1175	15	C14H15+
185.0983	8	C13H13O+
185.1334	24	C14H17+
186.136	7	C14H18+
187.112	42	C13H15O+
187.1491	12	C14H19+
188.1162	8	C13H16O+
189.1281	38	C13H17O+
191.1446	5	C13H19O+
193.1229	49	C12H17O2+
194.1267	8	C12H18O2+
195.1184	13	C15H15+
195.1389	12	C12H19O2+
197.0971	6	C14H13O+
197.1339	23	C15H17+
199.1131	12	C14H15O+
199.1474	5	C15H19+
201.1279	23	C14H17O+
201.1671	5	C15H21+
203.107	6	C13H15O2+
203.1439	13	C14H19O+
205.1232	6	C13H17O2+
207.1383	17	C13H19O2+
209.1334	16	C16H17+
210.1363	5	C16H18+
211.1132	7	C15H15O+
211.149	31	C16H19+
213.1294	9	C15H17O+
213.1646	5	C16H21+
215.1445	21	C15H19O+
219.1398	10	C14H19O2+
223.1484	19	C17H19+
225.1305	10	C16H17O+
225.1647	7	C17H21+
227.144	17	C16H19O+
229.1241	11	C15H17O2+
229.159	44	C16H21O+
230.1621	8	C16H22O+
233.1349	5	C18H17+
233.1546	22	C15H21O2+
234.158	7	C15H22O2+
235.1482	16	C18H19+
237.1297	11	C17H17O+
237.1637	5	C18H21+
239.1441	17	C17H19O+
239.2408	8	C16H31O+
241.1599	36	C17H21O+
242.1647	7	C17H22O+
243.1753	20	C17H23O+
245.1543	16	C16H21O2+
247.1694	19	C16H23O2+
249.1646	11	C19H21+
251.148	12	C18H19O+
251.1804	20	C19H23+
252.1841	8	C19H24+
253.1595	47	C18H21O+
253.1963	9	C19H25+
254.1644	9	C18H22O+
254.2061	7	C19H26+
255.1755	15	C18H23O+
256.1795	6	C18H24O+
259.1728	7	C17H23O2+
263.1795	10	C20H23+
265.1607	14	C19H21O+
265.1966	33	C20H25+
266.2006	6	C20H26+
267.1766	26	C19H23O+
269.1555	7	C18H21O2+
269.1925	88	C19H25O+
270.1944	16	C18[13]CH25O+
271.1702	21	C18H23O2+
271.2084	32	C19H27O+
272.1733	6	C18H24O2+
272.2108	8	C19H28O+
275.1798	28	C21H23+
276.1883	9	C21H24+
281.1909	45	C20H25O+
282.1924	7	C20H26O+
283.1712	20	C19H23O2+
283.2067	20	C20H27O+
284.2082	6	C20H28O+
285.1859	8	C19H25O2+
287.2046	7	C19H27O2+
293.1915	166	C21H25O+
294.1948	39	C20[13]CH25O+
295.1974	6	C17H27O4+
299.202	22	C20H27O2+
300.2071	5	C20H28O2+
301.1861	6	C19H25O3+
303.1986	6	C19H27O3+
311.2028	228	C21H27O2+
312.2059	61	C21H28O2+
313.2096	7	C20[13]CH28O2+
329.2134	568	C21H29O3+
330.2169	109	C21H30O3+
331.2208	15	C20[13]CH30O3+
347.2242	999	C21H31O4+
348.2273	230	C20[13]CH31O4+
349.2296	34	C19[13]C2H31O4+
