Mass spectrum: Diphenhydramine; LC-ESI-QTOF; MS2; CE: 50 eV; R=35000; [M+H]+
Name: Diphenhydramine
Name: 2-benzhydryloxy-N,N-dimethylethanamine
Formula: C17H21NO
Exact mass: 255.1623143
SMILES: CN(C)CCOC(C1=CC=CC=C1)C1=CC=CC=C1
InChI: InChI=1S/C17H21NO/c1-18(2)13-14-19-17(15-9-5-3-6-10-15)16-11-7-4-8-12-16/h3-12,17H,13-14H2,1-2H3
Instrument: Bruker maXis Impact
Instrument type: LC-ESI-QTOF
Ms type: MS2
Ion mode: POSITIVE
Ionization: ESI
Fragmentation mode: CID
Collision energy: 50 eV
Resolution: 35000
Column name: Acclaim RSLC C18 2.2um, 2.1x100mm, Thermo
Retention time: 6.467 min
Base peak: 256.1693
Precursor m/z: 256.1696
Precursor type: [M+H]+
m/z	relative intensity	assigned
115.0537	9	C9H7+
128.0611	43	C10H8+
139.0528	7	C11H7+
141.0688	42	C11H9+
150.0452	5	C12H6+
151.053	19	C12H7+
152.0611	805	C12H8+
153.0645	82	C11[13]CH8+
163.0529	7	C13H7+
164.0604	12	C13H8+
165.069	999	C13H9+
166.0753	262	C13H10+
167.0839	135	C13H11+
168.0874	14	C12[13]CH11+
169.0636	23	C12H9O+
