Mass spectrum: Risperidone; LC-ESI-QTOF; MS2; CE: 30 eV; R=35000; [M+H]+
Name: Risperidone
Name: risperidone
Name: 3-[2-[4-(6-fluoro-1,2-benzoxazol-3-yl)piperidin-1-yl]ethyl]-2-methyl-6,7,8,9-tetrahydropyrido[1,2-a]pyrimidin-4-one
Formula: C23H27FN4O2
Exact mass: 410.2118043
SMILES: Cc1c(c(=O)n2c(n1)CCCC2)CCN3CCC(CC3)c4c5ccc(cc5on4)F
InChI: InChI=1S/C23H27FN4O2/c1-15-18(23(29)28-10-3-2-4-21(28)25-15)9-13-27-11-7-16(8-12-27)22-19-6-5-17(24)14-20(19)30-26-22/h5-6,14,16H,2-4,7-13H2,1H3
Instrument: Bruker maXis Impact
Instrument type: LC-ESI-QTOF
Ms type: MS2
Ion mode: POSITIVE
Ionization: ESI
Fragmentation mode: CID
Collision energy: 30 eV
Resolution: 35000
Column name: Acclaim RSLC C18 2.2um, 2.1x100mm, Thermo
Retention time: 6.098 min
Base peak: 411.2249
Precursor m/z: 411.2191
Precursor type: [M+H]+
m/z	relative intensity	assigned
191.1214	999	C13H16F+
192.1233	552	C11H16N2O+
193.1261	21	C10[13]CH16N2O+
411.2246	830	C23H28FN4O2+
412.2272	207	C22[13]CH28FN4O2+
413.2299	16	C21[13]C2H28FN4O2+
