Mass spectrum: Hydrocortisonacetate; LC-ESI-QTOF; MS2; CE: 50 eV; R=35000; [M+H]+
Name: Hydrocortisonacetate
Name: Hydrocortisone acetate
Name: [2-[(8S,9S,10R,11S,13S,14S,17R)-11,17-dihydroxy-10,13-dimethyl-3-oxo-2,6,7,8,9,11,12,14,15,16-decahydro-1H-cyclopenta[a]phenanthren-17-yl]-2-oxoethyl] acetate
Formula: C23H32O6
Exact mass: 404.2198887
SMILES: [H][C@@]12CC[C@](O)(C(=O)COC(C)=O)[C@@]1(C)C[C@H](O)[C@@]1([H])[C@@]2([H])CCC2=CC(=O)CC[C@]12C
InChI: InChI=1S/C23H32O6/c1-13(24)29-12-19(27)23(28)9-7-17-16-5-4-14-10-15(25)6-8-21(14,2)20(16)18(26)11-22(17,23)3/h10,16-18,20,26,28H,4-9,11-12H2,1-3H3/t16-,17-,18-,20+,21-,22-,23-/m0/s1
Instrument: Bruker maXis Impact
Instrument type: LC-ESI-QTOF
Ms type: MS2
Ion mode: POSITIVE
Ionization: ESI
Fragmentation mode: CID
Collision energy: 50 eV
Resolution: 35000
Column name: Acclaim RSLC C18 2.2um, 2.1x100mm, Thermo
Retention time: 8.775 min
Base peak: 453.2083
Precursor m/z: 405.2272
Precursor type: [M+H]+
m/z	relative intensity	assigned
115.0531	231	C9H7+
117.071	163	C9H9+
119.0851	582	C9H11+
121.0635	999	C8H9O+
123.0797	460	C8H11O+
128.0614	533	C10H8+
129.0685	333	C10H9+
130.0796	179	C10H10+
131.0843	673	C10H11+
133.0621	128	C9H9O+
133.1008	355	C10H13+
135.0798	374	C9H11O+
135.1154	123	C10H15+
137.0945	132	C9H13O+
141.0678	528	C11H9+
142.0772	530	C11H10+
143.0838	827	C11H11+
145.0634	264	C10H9O+
145.0999	856	C11H13+
146.1064	156	C11H14+
147.0799	452	C10H11O+
147.1161	368	C11H15+
153.0685	140	C12H9+
154.0746	335	C12H10+
155.0844	554	C12H11+
156.0914	171	C12H12+
157.1002	890	C12H13+
158.1063	146	C11[13]CH13+
159.0798	383	C11H11O+
159.1158	558	C12H15+
160.118	138	C11[13]CH15+
161.0954	292	C11H13O+
163.111	736	C11H15O+
166.0737	125	C13H10+
167.084	424	C13H11+
168.0904	313	C13H12+
169.0998	655	C13H13+
171.0793	293	C12H11O+
171.1153	574	C13H15+
172.1204	155	C13H16+
173.0951	435	C12H13O+
173.1296	148	C13H17+
174.1008	208	C12H14O+
175.1114	292	C12H15O+
179.0854	222	C14H11+
181.0991	414	C14H13+
182.1046	133	C13[13]CH13+
183.0806	142	C13H11O+
183.116	809	C14H15+
184.0888	186	C13H12O+
184.1206	227	C14H16+
185.094	284	C13H13O+
185.131	442	C14H17+
186.1368	130	C13[13]CH17+
187.1081	285	C13H15O+
189.125	214	C13H17O+
192.0903	132	C15H12+
193.0998	264	C15H13+
194.1091	236	C15H14+
195.1149	325	C15H15+
197.0938	194	C14H13O+
197.1312	353	C15H17+
198.1003	130	C14H14O+
199.1109	184	C14H15O+
199.145	221	C15H19+
205.0985	135	C16H13+
206.1069	183	C16H14+
207.1143	231	C16H15+
208.1233	173	C16H16+
209.1305	353	C16H17+
210.1399	171	C16H18+
211.1108	421	C15H15O+
211.147	257	C16H19+
212.1194	133	C14[13]CH15O+
213.1273	482	C15H17O+
221.1324	173	C17H17+
223.147	259	C17H19+
224.1201	137	C16H16O+
225.1275	313	C16H17O+
225.1645	156	C17H21+
226.1353	355	C16H18O+
227.1384	201	C16H19O+
228.1493	156	C16H20O+
234.1371	151	C18H18+
239.1391	150	C17H19O+
239.1481	135	C17H19O+
241.1591	488	C17H21O+
242.1628	155	C17H22O+
243.1723	140	C17H23O+
249.1622	181	C19H21+
251.1468	198	C11H23O6+
253.1577	277	C18H21O+
255.1696	140	C18H23O+
267.1729	270	C19H23O+
268.1813	151	C19H24O+
281.1862	168	C20H25O+
286.1895	128	C19H26O2+
312.175	145	C20H24O3+
