Mass spectrum: 2-Hydroxy-2-methylpropiophenone; GC-APCI-QTOF; MS2; CE: 30 eV; R=35000; [M+H]+
Name: 2-Hydroxy-2-methylpropiophenone
Formula: C10H12O2
Exact mass: 164.0837
SMILES: CC(C)(C(=O)C1=CC=CC=C1)O
InChI: InChI=1S/C10H12O2/c1-10(2,12)9(11)8-6-4-3-5-7-8/h3-7,12H,1-2H3
Instrument: Bruker 450 GC coupled to maXis Impact
Instrument type: GC-APCI-QTOF
Ms type: MS2
Ion mode: POSITIVE
Ionization: APCI
Fragmentation mode: CID
Collision energy: 30 eV
Resolution: 35000
Column name: Rxi-5Sil MS column, 30m, 0.25mm i.d., 0.25Âµm film thickness, Restek
Retention time: 10.430 min
Base peak: 147.0817
Precursor m/z: 165.091
Precursor type: [M+H]+
m/z	relative intensity	assigned
65.0376	43	C5H5+
79.0542	40	C6H7+
91.0542	712	C7H7+
95.0475	24	C6H7O+
105.0351	23	C7H5O+
115.0545	78	C9H7+
117.0702	67	C9H9+
119.0856	444	C9H11+
127.0545	55	C10H7+
128.0623	999	C10H8+
129.0687	660	C10H9+
130.0757	60	C10H10+
131.0499	51	C9H7O+
132.059	96	C9H8O+
145.0667	164	C10H9O+
146.069	24	C10H10O+
147.083	32	C10H11O+
