Mass spectrum: Ranitidine-S-oxide; LC-ESI-QTOF; MS2; CE: 20 eV; R=35000; [M+H]+
Name: Ranitidine-S-oxide
Formula: C13H22N4O4S
Exact mass: 330.1361762
SMILES: CN\C(NCCS(=O)CC1=CC=C(CN(C)C)O1)=C/[N+]([O-])=O
InChI: InChI=1S/C13H22N4O4S/c1-14-13(9-17(18)19)15-6-7-22(20)10-12-5-4-11(21-12)8-16(2)3/h4-5,9,14-15H,6-8,10H2,1-3H3/b13-9+
Instrument: Bruker maXis Impact
Instrument type: LC-ESI-QTOF
Ms type: MS2
Ion mode: POSITIVE
Ionization: ESI
Fragmentation mode: CID
Collision energy: 20 eV
Resolution: 35000
Column name: Acclaim RSLC C18 2.2um, 2.1x100mm, Thermo
Retention time: 1.8 min
Base peak: 331.1431
Precursor m/z: 331.1435
Precursor type: [M+H]+
m/z	relative intensity	assigned
110.0961	6	C7H12N+
130.0556	26	C5H10N2S+
138.0903	999	C6H10N4+
139.0934	123	C5[13]CH10N4+
140.1006	9	C4[13]CH15O4+
143.015	23	C4H5N3OS+
144.0749	8	C5H10N3O2+
146.0503	7	C5H10N2OS+
156.1008	20	C6H12N4O+
176.0478	43	C5H10N3O2S+
188.0725	30	C6H12N4OS+
192.0423	98	C10H8O4+
194.0571	8	C10H10O4+
222.0807	25	C8H16NO4S+
223.0855	5	C6H15N4O3S+
240.0936	7	C11H16N2O2S+
268.0732	5	C11H14N3O3S+
286.085	17	C11H16N3O4S+
331.1435	43	C13H23N4O4S+
