Mass spectrum: Darunavir; LC-ESI-QTOF; MS2; CE: 40 eV; R=35000; [M+H]+
Name: Darunavir
Name: [(3aS,4R,6aR)-2,3,3a,4,5,6a-hexahydrofuro[2,3-b]furan-4-yl] N-[(2S,3R)-4-[(4-aminophenyl)sulfonyl-(2-methylpropyl)amino]-3-hydroxy-1-phenylbutan-2-yl]carbamate
Formula: C27H37N3O7S
Exact mass: 547.2352215
SMILES: CC(C)CN(C[C@H]([C@H](Cc1ccccc1)NC(=O)O[C@H]2CO[C@@H]3[C@H]2CCO3)O)S(=O)(=O)c4ccc(cc4)N
InChI: InChI=1S/C27H37N3O7S/c1-18(2)15-30(38(33,34)21-10-8-20(28)9-11-21)16-24(31)23(14-19-6-4-3-5-7-19)29-27(32)37-25-17-36-26-22(25)12-13-35-26/h3-11,18,22-26,31H,12-17,28H2,1-2H3,(H,29,32)/t22-,23-,24+,25-,26+/m0/s1
Instrument: Bruker maXis Impact
Instrument type: LC-ESI-QTOF
Ms type: MS2
Ion mode: POSITIVE
Ionization: ESI
Fragmentation mode: CID
Collision energy: 40 eV
Resolution: 35000
Column name: Acclaim RSLC C18 2.2um, 2.1x100mm, Thermo
Retention time: 8.161 min
Base peak: 548.2467
Precursor m/z: 548.2425
Precursor type: [M+H]+
m/z	relative intensity	assigned
120.0806	49	C8H10N+
129.0699	53	C10H9+
146.0979	52	C4H18O3S+
156.0124	999	C6H6NO2S+
157.0172	49	C3H9O5S+
158.0079	46	C5H4NO5+
158.0979	19	C5H18O3S+
164.1092	43	C7H18NOS+
200.1452	53	C2H22N3O7+
201.1519	34	C8H25O3S+
202.1602	129	C8H26O3S+
203.1671	24	C14H21N+
218.1549	26	C8H26O4S+
218.1769	18	C14H22N2+
220.1693	23	C14H22NO+
237.1983	53	C11H29N2OS+
241.1024	239	C7H17N2O7+
242.1068	31	C8H20NO5S+
243.1021	20	C15H15O3+
245.1667	18	C9H27NO4S+
392.2017	132	C22H32O4S+
393.2052	26	C17H33N2O6S+
