Mass spectrum: Sulfamethoxypyridazine; LC-ESI-QTOF; MS2; CE: 40 eV; R=35000; [M+H]+
Name: Sulfamethoxypyridazine
Name: 4-amino-n-(6-methoxypyridazin-3-yl)benzenesulfonamide
Formula: C11H12N4O3S
Exact mass: 280.0630112
SMILES: COc1ccc(nn1)NS(=O)(=O)c2ccc(cc2)N
InChI: InChI=1S/C11H12N4O3S/c1-18-11-7-6-10(13-14-11)15-19(16,17)9-4-2-8(12)3-5-9/h2-7H,12H2,1H3,(H,13,15)
Instrument: Bruker maXis Impact
Instrument type: LC-ESI-QTOF
Ms type: MS2
Ion mode: POSITIVE
Ionization: ESI
Fragmentation mode: CID
Collision energy: 40 eV
Resolution: 35000
Column name: Acclaim RSLC C18 2.2um, 2.1x100mm, Thermo
Retention time: 4.3 min
Base peak: 281.0703
Precursor m/z: 281.0703
Precursor type: [M+H]+
m/z	relative intensity	assigned
122.0701	63	C6H8N3+
124.0495	59	C5H6N3O+
124.0864	687	C6H10N3+
125.0903	71	C3H13N2O3+
126.066	999	C5H8N3O+
156.0111	270	C6H6NO2S+
172.0749	115	C9H8N4+
204.0441	102	C6H10N3O3S+
213.113	136	C7H13N6O2+
