Mass spectrum: Chlorotoluron; LC-ESI-QTOF; MS2; CE: 30 eV; R=35000; [M+H]+
Name: Chlorotoluron
Name: 3-(3-chloro-4-methylphenyl)-1,1-dimethylurea
Formula: C10H13ClN2O
Exact mass: 212.0716407
SMILES: CN(C)C(=O)NC1=CC(Cl)=C(C)C=C1
InChI: InChI=1S/C10H13ClN2O/c1-7-4-5-8(6-9(7)11)12-10(14)13(2)3/h4-6H,1-3H3,(H,12,14)
Instrument: Bruker maXis Impact
Instrument type: LC-ESI-QTOF
Ms type: MS2
Ion mode: POSITIVE
Ionization: ESI
Fragmentation mode: CID
Collision energy: 30 eV
Resolution: 35000
Column name: Acclaim RSLC C18 2.2um, 2.1x100mm, Thermo
Retention time: 8.014 min
Base peak: 213.079
Precursor m/z: 213.0789
Precursor type: [M+H]+
m/z	relative intensity	assigned
113.0156	10	C6H6Cl+
125.0146	131	C7H6Cl+
126.0182	11	C6[13]CH6Cl+
127.011	39	C7H6[37]Cl+
132.0434	27	C8H6NO+
133.051	56	C8H7NO+
140.0252	999	C7H7ClN+
141.0283	87	C6[13]CH7ClN+
142.0218	266	C7H7[37]ClN+
143.025	23	C7H8ClO+
152.9978	6	C7H4ClNO+
153.0205	24	C10H3NO+
168.0203	160	C8H7ClNO+
169.0228	19	C7[13]CH7ClNO+
170.0167	53	C8H7[37]ClNO+
213.0781	24	C10H14ClN2O+
215.077	9	C10H14[37]ClN2O+
