Mass spectrum: Diallyl phthalate; GC-APCI-QTOF; MS2; CE: 30 eV; R=35000; [M+H]+
Name: Diallyl phthalate
Formula: C14H14O4
Exact mass: 246.0892
SMILES: C=CCOC(=O)C1=CC=CC=C1C(=O)OCC=C
InChI: InChI=1S/C14H14O4/c1-3-9-17-13(15)11-7-5-6-8-12(11)14(16)18-10-4-2/h3-8H,1-2,9-10H2
Instrument: Bruker 450 GC coupled to maXis Impact
Instrument type: GC-APCI-QTOF
Ms type: MS2
Ion mode: POSITIVE
Ionization: APCI
Fragmentation mode: CID
Collision energy: 30 eV
Resolution: 35000
Column name: Rxi-5Sil MS column, 30m, 0.25mm i.d., 0.25Âµm film thickness, Restek
Retention time: 15.007 min
Base peak: 189.0555
Precursor m/z: 247.0965
Precursor type: [M+H]+
m/z	relative intensity	assigned
149.0257	999	C8H5O3+
