Mass spectrum: 4,4`-Thiodianiline; LC-ESI-QTOF; MS2; CE: 50 eV; R=35000; [M+H]+
Name: 4,4`-Thiodianiline
Name: 4-(4-aminophenyl)sulfanylaniline
Formula: C12H12N2S
Exact mass: 216.0721194
SMILES: NC1=CC=C(SC2=CC=C(N)C=C2)C=C1
InChI: InChI=1S/C12H12N2S/c13-9-1-5-11(6-2-9)15-12-7-3-10(14)4-8-12/h1-8H,13-14H2
Instrument: Bruker maXis Impact
Instrument type: LC-ESI-QTOF
Ms type: MS2
Ion mode: POSITIVE
Ionization: ESI
Fragmentation mode: CID
Collision energy: 50 eV
Resolution: 35000
Column name: Acclaim RSLC C18 2.2um, 2.1x100mm, Thermo
Retention time: 6.216 min
Base peak: 217.0786
Precursor m/z: 217.0794
Precursor type: [M+H]+
m/z	relative intensity	assigned
115.0528	24	C9H7+
117.0563	21	C8H7N+
122.0053	12	C6H4NS+
123.013	146	C6H5NS+
124.0204	910	C6H6NS+
125.0241	80	C5[13]CH6NS+
126.0161	40	C6H6N[34]S+
126.0451	10	C10H6+
127.0532	31	C10H7+
128.061	139	C10H8+
129.0679	48	C10H9+
130.0641	108	C9H8N+
131.0671	13	C8[13]CH8N+
134.0169	19	C8H6S+
136.0198	9	C10H2N+
137.0381	10	C11H5+
138.0443	26	C11H6+
139.0529	999	C11H7+
140.0561	190	C10[13]CH7+
141.0584	18	C10H7N+
142.0629	14	C10H8N+
143.072	33	C10H9N+
144.0808	8	C10H10N+
146.0166	19	C12H2+
147.0244	48	C12H3+
149.0287	26	C8H7NS+
150.0446	24	C12H6+
151.0525	13	C12H7+
152.0607	128	C12H8+
153.0575	16	C11H7N+
153.0656	22	C11[13]CH8+
154.0632	119	C11H8N+
155.059	44	C10H7N2+
156.0789	215	C11H10N+
157.0839	36	C10[13]CH10N+
158.0158	22	C10H6S+
158.0836	14	C10H10N2+
162.0361	8	C9H8NS+
164.0519	9	C9H10NS+
165.0559	23	C12H7N+
166.0637	210	C12H8N+
167.0711	277	C12H9N+
168.075	40	C11[13]CH9N+
170.0165	9	C11H6S+
171.0246	528	C11H7S+
172.0317	187	C11H8S+
173.0201	22	C11H7[34]S+
173.0348	32	C10[13]CH8S+
174.0336	9	C11H8[34]S+
179.0612	9	C12H7N2+
181.0751	38	C12H9N2+
182.0173	96	C12H6S+
182.081	57	C12H10N2+
183.0246	80	C12H7S+
183.0902	91	C12H11N2+
184.0325	224	C12H8S+
184.0979	256	C12H12N2+
185.0197	8	C10H5N2S+
185.036	36	C11[13]CH8S+
185.101	34	C11[13]CH12N2+
187.0414	8	C11H9NS+
196.0203	13	C12H6NS+
197.0277	23	C12H7NS+
198.0357	199	C12H8NS+
199.0433	343	C12H9NS+
200.0461	64	C11[13]CH9NS+
201.0397	19	C12H9N[34]S+
213.0476	8	C12H9N2S+
214.0537	48	C12H10N2S+
