Mass spectrum: Betamethasone 21-Acetate; LC-ESI-QTOF; MS2; CE: 50 eV; R=35000; [M+H]+
Name: Betamethasone 21-Acetate
Name: [2-[(8S,9R,10S,11S,13S,14S,16S,17R)-9-fluoro-11,17-dihydroxy-10,13,16-trimethyl-3-oxo-6,7,8,11,12,14,15,16-octahydrocyclopenta[a]phenanthren-17-yl]-2-oxoethyl] acetate
Formula: C24H31FO6
Exact mass: 434.2104669
SMILES: C[C@H]1C[C@H]2[C@@H]3CCC4=CC(=O)C=C[C@]4(C)[C@@]3(F)[C@@H](O)C[C@]2(C)[C@@]1(O)C(=O)COC(C)=O
InChI: InChI=1S/C24H31FO6/c1-13-9-18-17-6-5-15-10-16(27)7-8-21(15,3)23(17,25)19(28)11-22(18,4)24(13,30)20(29)12-31-14(2)26/h7-8,10,13,17-19,28,30H,5-6,9,11-12H2,1-4H3/t13-,17-,18-,19-,21-,22-,23-,24-/m0/s1
Instrument: Bruker maXis Impact
Instrument type: LC-ESI-QTOF
Ms type: MS2
Ion mode: POSITIVE
Ionization: ESI
Fragmentation mode: CID
Collision energy: 50 eV
Resolution: 35000
Column name: Acclaim RSLC C18 2.2um, 2.1x100mm, Thermo
Retention time: 9.1 min
Base peak: 404.206
Precursor m/z: 435.2177
Precursor type: [M+H]+
m/z	relative intensity	assigned
119.0845	172	C9H11+
121.0651	348	C8H9O+
121.0998	85	C9H13+
128.0612	151	C10H8+
129.0664	130	C5H9N2O2+
131.0847	135	C10H11+
132.0562	96	C9H8O+
133.0635	122	C9H9O+
133.1	113	C10H13+
135.0791	204	C9H11O+
141.0708	95	C8H10FO+
143.0841	188	C11H11+
144.056	80	C10H8O+
145.064	243	C10H9O+
145.1016	105	C11H13+
147.0795	999	C10H11O+
148.0828	119	C5H12N2O3+
149.0963	138	C10H13O+
155.0846	128	C12H11+
157.1022	112	C9H14FO+
158.0718	111	C11H10O+
159.0792	591	C11H11O+
160.0834	113	C6H12N2O3+
161.0951	165	C11H13O+
165.0685	109	C13H9+
167.084	86	C13H11+
169.063	127	C12H9O+
170.0711	77	C12H10O+
171.0799	489	C12H11O+
172.0844	98	C7H12N2O3+
173.0952	433	C12H13O+
178.0742	86	C14H10+
179.0839	120	C14H11+
181.0995	108	C14H13+
182.0723	85	C13H10O+
183.0779	77	C13H11O+
185.0948	270	C13H13O+
187.0743	96	C12H11O2+
187.1107	78	C13H15O+
193.1008	80	C15H13+
194.1061	81	C15H14+
195.0797	106	C14H11O+
195.1147	103	C15H15+
196.0861	118	C14H12O+
197.0955	223	C14H13O+
198.1024	105	C14H14O+
204.096	85	C13H13FO+
205.1008	99	C16H13+
208.0869	104	C15H12O+
209.095	228	C15H13O+
209.1316	100	C16H17+
210.1	162	C15H14O+
211.1106	307	C15H15O+
212.1184	163	C15H16O+
215.1043	78	C14H15O2+
219.1134	156	C17H15+
221.096	180	C16H13O+
222.104	237	C16H14O+
223.1111	226	C16H15O+
224.1181	117	C16H16O+
225.1241	117	C16H17O+
227.1431	77	C16H19O+
233.0954	129	C17H13O+
234.1043	125	C17H14O+
235.113	248	C14H16FO2+
236.1185	111	C17H16O+
237.1248	234	C17H17O+
238.1344	81	C17H18O+
239.1426	107	C17H19O+
244.1278	85	C16H17FO+
245.0968	95	C15H14FO2+
246.1008	88	C18H14O+
247.1099	119	C18H15O+
248.1196	182	C18H16O+
249.1258	141	C18H17O+
250.1436	86	C11H22O6+
261.1283	156	C16H18FO2+
262.134	270	C19H18O+
263.142	311	C19H19O+
276.1518	136	C17H21FO2+
277.1591	109	C20H21O+
278.1644	115	C20H22O+
279.1741	82	C20H23O+
286.1334	118	C21H18O+
291.1683	85	C13H25NO6+
