Mass spectrum: Progesterone; LC-ESI-QTOF; MS2; CE: 30 eV; R=35000; [M+H]+
Name: Progesterone
Name: progesterone
Name: (8S,9S,10R,13S,14S,17S)-17-acetyl-10,13-dimethyl-1,2,6,7,8,9,11,12,14,15,16,17-dodecahydrocyclopenta[a]phenanthren-3-one
Formula: C21H30O2
Exact mass: 314.2245802
SMILES: CC(=O)[C@H]1CC[C@@H]2[C@@]1(CC[C@H]3[C@H]2CCC4=CC(=O)CC[C@]34C)C
InChI: InChI=1S/C21H30O2/c1-13(22)17-6-7-18-16-5-4-14-12-15(23)8-10-20(14,2)19(16)9-11-21(17,18)3/h12,16-19H,4-11H2,1-3H3/t16-,17+,18-,19-,20-,21+/m0/s1
Instrument: Bruker maXis Impact
Instrument type: LC-ESI-QTOF
Ms type: MS2
Ion mode: POSITIVE
Ionization: ESI
Fragmentation mode: CID
Collision energy: 30 eV
Resolution: 35000
Column name: Acclaim RSLC C18 2.2um, 2.1x100mm, Thermo
Retention time: 11.074 min
Base peak: 315.2348
Precursor m/z: 315.2319
Precursor type: [M+H]+
m/z	relative intensity	assigned
109.0652	102	C7H9O+
110.0709	17	C7H10O+
117.071	45	C9H9+
119.0864	209	C9H11+
120.0906	24	C9H12+
121.0655	78	C8H9O+
121.1017	208	C9H13+
122.1074	25	C9H14+
123.0811	617	C8H11O+
123.1177	54	C9H15+
124.0844	83	C7[13]CH11O+
128.0617	17	C10H8+
129.0707	46	C10H9+
131.0862	267	C10H11+
133.1018	368	C10H13+
134.1061	69	C10H14+
135.0803	45	C9H11O+
135.1173	176	C10H15+
136.1215	20	C10H16+
137.0962	153	C9H13O+
137.1332	44	C10H17+
138.1012	22	C9H14O+
143.0867	101	C11H11+
144.0921	18	C11H12+
145.1014	425	C11H13+
146.1063	49	C10[13]CH13+
147.0807	27	C10H11O+
147.1177	393	C11H15+
148.1203	58	C10[13]CH15+
149.0971	93	C10H13O+
149.1331	142	C11H17+
150.1384	22	C11H18+
151.1125	77	C10H15O+
155.0851	50	C12H11+
156.0922	23	C12H12+
157.1019	162	C12H13+
158.1073	38	C12H14+
159.1179	439	C12H15+
160.121	72	C11[13]CH15+
161.0968	39	C11H13O+
161.1331	244	C12H17+
162.137	19	C11[13]CH17+
163.1126	274	C11H15O+
163.1484	90	C12H19+
164.1173	32	C10[13]CH15O+
165.1274	33	C11H17O+
167.0851	26	C13H11+
169.1022	66	C13H13+
171.1178	299	C13H15+
172.1212	38	C12[13]CH15+
173.0976	29	C12H13O+
173.1338	399	C13H17+
174.1371	72	C12[13]CH17+
175.1128	81	C12H15O+
175.1498	188	C13H19+
177.1284	311	C12H17O+
177.1652	27	C13H21+
178.132	43	C11[13]CH17O+
179.1449	42	C12H19O+
181.1032	25	C14H13+
183.118	125	C14H15+
184.1233	30	C14H16+
185.1337	169	C14H17+
186.1388	44	C14H18+
187.1137	57	C13H15O+
187.1498	186	C14H19+
188.1531	36	C14H20+
189.1281	171	C13H17O+
189.1652	129	C14H21+
190.1345	23	C13H18O+
190.1675	20	C14H22+
191.144	145	C13H19O+
195.1166	22	C15H15+
197.1331	142	C15H17+
198.1405	27	C15H18+
199.1493	162	C15H19+
200.1544	29	C15H20+
201.1297	34	C14H17O+
201.1642	193	C15H21+
202.1701	37	C15H22+
203.1435	44	C14H19O+
203.1815	27	C15H23+
205.1594	21	C14H21O+
207.1752	22	C14H23O+
209.1334	69	C16H17+
210.1417	22	C16H18+
211.1512	80	C16H19+
212.1579	21	C16H20+
213.1305	18	C15H17O+
213.1653	203	C16H21+
214.1695	41	C15[13]CH21+
215.0533	17	C16H7O+
215.1461	54	C15H19O+
215.1807	194	C16H23+
216.1838	57	C15[13]CH23+
217.1624	29	C15H21O+
219.1757	27	C15H23O+
222.1071	20	C16H14O+
223.1126	23	C16H15O+
223.1497	111	C17H19+
224.1539	36	C17H20+
225.1666	34	C17H21+
227.145	33	C16H19O+
227.1827	121	C17H23+
228.1838	40	C17H24+
229.1598	54	C16H21O+
231.1752	54	C16H23O+
233.192	47	C16H25O+
237.1665	59	C18H21+
238.1693	20	C18H22+
239.181	231	C18H23+
240.1848	49	C17[13]CH23+
241.1601	97	C17H21O+
245.1914	80	C17H25O+
246.1928	18	C17H26O+
251.1815	37	C19H23+
253.1983	94	C19H25+
254.2019	33	C19H26+
255.1764	65	C18H23O+
255.2119	294	C19H27+
256.0921	999	C19H12O+
256.2183	70	C18[13]CH27+
257.0952	340	C18[13]CH12O+
257.1924	60	C18H25O+
264.1881	26	C20H24+
269.1918	21	C19H25O+
271.2094	72	C19H27O+
273.2223	118	C19H29O+
274.2226	22	C19H30O+
279.2125	273	C21H27+
280.2161	49	C20[13]CH27+
282.1094	185	C21H14O+
283.1129	62	C20[13]CH14O+
297.2232	509	C21H29O+
298.2255	129	C20[13]CH29O+
315.2342	541	C21H31O2+
316.2384	135	C20[13]CH31O2+
