Mass spectrum: Fenuron; LC-ESI-QTOF; MS2; CE: Ramp 16.7-25.1 eV; R=35000; [M+H]+
Name: Fenuron
Name: 1,1-dimethyl-3-phenylurea
Formula: C9H12N2O
Exact mass: 164.0949630
SMILES: CN(C)C(=O)NC1=CC=CC=C1
InChI: InChI=1S/C9H12N2O/c1-11(2)9(12)10-8-6-4-3-5-7-8/h3-7H,1-2H3,(H,10,12)
Instrument: Bruker maXis Impact
Instrument type: LC-ESI-QTOF
Ms type: MS2
Ion mode: POSITIVE
Ionization: ESI
Fragmentation mode: CID
Collision energy: Ramp 16.7-25.1 eV
Resolution: 35000
Column name: Acclaim RSLC C18 2.2um, 2.1x100mm, Thermo
Retention time: 5.110 min
Base peak: 165.1024
Precursor m/z: 165.1022
Precursor type: [M+H]+
m/z	relative intensity	assigned
46.0651	70	C2H8N+
56.0125	5	C2H2NO+
72.0445	999	C3H6NO+
73.0473	38	C2[13]CH6NO+
92.0497	23	C6H6N+
95.0494	5	C6H7O+
120.044	29	C7H6NO+
165.1015	122	C9H13N2O+
166.1042	14	C8[13]CH13N2O+
