Mass spectrum: N,N,N`,N`-Tetrakis(2-hydroxyethyl)hexanediamide; LC-ESI-QTOF; MS2; CE: 40 eV; R=35000; [M+H]+
Name: N,N,N`,N`-Tetrakis(2-hydroxyethyl)hexanediamide
Formula: C14H28N2O6
Exact mass: 320.1947366
SMILES: C(CCC(=O)N(CCO)CCO)CC(=O)N(CCO)CCO
InChI: InChI=1S/C14H28N2O6/c17-9-5-15(6-10-18)13(21)3-1-2-4-14(22)16(7-11-19)8-12-20/h17-20H,1-12H2
Instrument: Bruker maXis Impact
Instrument type: LC-ESI-QTOF
Ms type: MS2
Ion mode: POSITIVE
Ionization: ESI
Fragmentation mode: CID
Collision energy: 40 eV
Resolution: 35000
Column name: Acclaim RSLC C18 2.2um, 2.1x100mm, Thermo
Retention time: 2.6 min
Base peak: 321.2019
Precursor m/z: 321.202
Precursor type: [M+H]+
m/z	relative intensity	assigned
114.0545	31	C5H8NO2+
126.0905	80	C7H12NO+
127.0748	82	C7H11O2+
130.0861	91	C6H12NO2+
137.0581	37	C8H9O2+
154.0852	497	C8H12NO2+
155.0695	540	C8H11O3+
155.0886	34	C5H15O5+
156.0735	64	C3H12N2O5+
156.101	38	C8H14NO2+
170.1169	68	C9H16NO2+
173.08	497	C8H13O4+
174.0844	41	C3H14N2O6+
174.1117	401	C8H16NO3+
180.1023	39	C10H14NO2+
188.1273	546	C9H18NO3+
189.1301	46	C13H17O+
198.1114	999	C10H16NO3+
199.1143	126	C9[13]CH16NO3+
216.1227	604	C10H18NO4+
303.1911	227	C14H27N2O5+
304.1928	46	C14H28N2O5+
