Mass spectrum: Clopidol; LC-ESI-QTOF; MS2; CE: Ramp 17.7-26.6 eV; R=35000; [M+H]+
Name: Clopidol
Name: 3,5-dichloro-2,6-dimethyl-1H-pyridin-4-one
Formula: C7H7Cl2NO
Exact mass: 190.9905
SMILES: Cc1c(c(c(c(n1)C)Cl)O)Cl
InChI: InChI=1S/C7H7Cl2NO/c1-3-5(8)7(11)6(9)4(2)10-3/h1-2H3,(H,10,11)
Instrument: Bruker maXis Impact
Instrument type: LC-ESI-QTOF
Ms type: MS2
Ion mode: POSITIVE
Ionization: ESI
Fragmentation mode: CID
Collision energy: Ramp 17.7-26.6 eV
Resolution: 35000
Column name: Acclaim RSLC C18 2.2um, 2.1x100mm, Thermo
Retention time: 4.3 min
Base peak: 79.0214
Precursor m/z: 191.9977
Precursor type: [M+H]+
m/z	relative intensity	assigned
51.0229	9	C4H3+
58.0286	34	C2H4NO+
65.0382	11	C5H5+
76.0391	7	C2H6NO2+
87	72	C4H4Cl+
92.0493	5	C6H6N+
93.0578	6	C6H7N+
101.0168	91	C5H6Cl+
102.0197	28	C5H7Cl+
103.0136	17	C5HN3+
120.9616	6	C4H3Cl2+
128.027	14	C6H7ClN+
129.0344	5	C6H8ClN+
145.0156	11	C5H6ClN2O+
145.0257	12	C6H8ClNO+
156.0214	16	C7H7ClNO+
157.0292	19	C7H8ClNO+
174.024	18	C6H7ClN2O2+
190.9811	5	C6H5Cl2N2O+
190.9935	9	C7H7Cl2NO+
192.0003	999	C7H8Cl2NO+
193.9971	435	C6H8Cl2N2O+
195.0006	16	C5H7Cl2N3O+
