Mass spectrum: Trimethoprim; LC-ESI-QTOF; MS2; CE: Ramp 21.3-31.9 eV; R=35000; [M+H]+
Name: Trimethoprim
Name: 5-[(3,4,5-trimethoxyphenyl)methyl]pyrimidine-2,4-diamine
Formula: C14H18N4O3
Exact mass: 290.1378904
SMILES: COC1=CC(CC2=C(N)N=C(N)N=C2)=CC(OC)=C1OC
InChI: InChI=1S/C14H18N4O3/c1-19-10-5-8(6-11(20-2)12(10)21-3)4-9-7-17-14(16)18-13(9)15/h5-7H,4H2,1-3H3,(H4,15,16,17,18)
Instrument: Bruker maXis Impact
Instrument type: LC-ESI-QTOF
Ms type: MS2
Ion mode: POSITIVE
Ionization: ESI
Fragmentation mode: CID
Collision energy: Ramp 21.3-31.9 eV
Resolution: 35000
Column name: Acclaim RSLC C18 2.2um, 2.1x100mm, Thermo
Retention time: 3.914 min
Base peak: 291.1459
Precursor m/z: 291.1452
Precursor type: [M+H]+
m/z	relative intensity	assigned
81.0442	28	C4H5N2+
110.0596	25	C6H8NO+
111.0669	11	C4H7N4+
123.0668	264	C7H9NO+
124.0713	20	C6[13]CH9NO+
181.0848	16	C8H11N3O2+
187.0967	10	C10H11N4+
201.078	7	C12H11NO2+
201.1129	23	C11H13N4+
202.1204	19	C11H14N4+
216.0996	5	C11H12N4O+
217.1075	6	C11H13N4O+
229.1079	65	C12H13N4O+
230.1158	338	C12H14N4O+
231.1187	44	C11[13]CH14N4O+
232.0954	15	C11H12N4O2+
233.1029	49	C11H13N4O2+
234.1059	5	C10[13]CH13N4O2+
245.1032	158	C12H13N4O2+
246.1084	52	C12H14N4O2+
247.1183	57	C12H15N4O2+
248.121	6	C11[13]CH15N4O2+
257.1031	111	C13H13N4O2+
258.1102	81	C13H14N4O2+
259.0822	6	C12H11N4O3+
259.1154	18	C12[13]CH14N4O2+
260.126	6	C13H16N4O2+
261.0982	471	C12H13N4O3+
262.1017	74	C11[13]CH13N4O3+
263.104	5	C10[13]C2H13N4O3+
275.114	299	C13H15N4O3+
276.1194	82	C13H16N4O3+
277.1229	10	C12[13]CH16N4O3+
291.1455	999	C14H19N4O3+
292.1485	230	C13[13]CH19N4O3+
