Mass spectrum: Ethyl azinphos; LC-ESI-QTOF; MS2; CE: 40 eV; R=35000; [M+H]+
Name: Ethyl azinphos
Name: Azinphos-ethyl
Name: 3-(diethoxyphosphinothioylsulfanylmethyl)-1,2,3-benzotriazin-4-one
Formula: C12H16N3O3PS2
Exact mass: 345.0370700
SMILES: CCOP(=S)(OCC)SCN1N=NC2=CC=CC=C2C1=O
InChI: InChI=1S/C12H16N3O3PS2/c1-3-17-19(20,18-4-2)21-9-15-12(16)10-7-5-6-8-11(10)13-14-15/h5-8H,3-4,9H2,1-2H3
Instrument: Bruker maXis Impact
Instrument type: LC-ESI-QTOF
Ms type: MS2
Ion mode: POSITIVE
Ionization: ESI
Fragmentation mode: CID
Collision energy: 40 eV
Resolution: 35000
Column name: Acclaim RSLC C18 2.2um, 2.1x100mm, Thermo
Retention time: 10.249 min
Base peak: 346.044
Precursor m/z: 346.0443
Precursor type: [M+H]+
m/z	relative intensity	assigned
124.9803	12	C4HN2OS+
132.0434	999	C8H6NO+
133.0463	78	C7[13]CH6NO+
134.0483	5	C6[13]C2H6NO+
136.0216	6	C7H6NS+
137.0042	191	C7H5OS+
138.0072	19	C6[13]CH5OS+
139.0011	8	C7H5O[34]S+
142.9368	98	CH4O2PS2+
144.9332	7	CH4O2PS[34]S+
148.0201	8	H10N3O2S2+
150.0539	41	C2H17NPS2+
151.0558	5	C2H16O3PS+
152.9811	8	H10O3PS2+
152.9989	20	C5H3N3OS+
153.0114	12	C6H5N2OS+
154.9705	7	C2H5NO3S2+
160.049	114	C7H13PS+
161.0519	9	C6[13]CH13PS+
170.9475	6	C6H4PS2+
170.97	12	C3H8O2PS2+
171.0222	9	C6H7N2O2S+
172.9803	8	C8HN2OS+
198.0122	11	C10H4N3S+
214.9368	10	C5H2N3OPS2+
232.9495	7	C7H6O3PS2+
