Mass spectrum: Loratadine; LC-ESI-QTOF; MS2; CE: 20 eV; R=35000; [M+H]+
Name: Loratadine
Name: ethyl 4-(8-chloro-5,6-dihydrobenzo[1,2]cyclohepta[2,4-b]pyridin-11-ylidene)piperidine-1-carboxylate
Formula: C22H23ClN2O2
Exact mass: 382.1448057
SMILES: CCOC(=O)N1CCC(=C2c3ccc(cc3CCc4c2nccc4)Cl)CC1
InChI: InChI=1S/C22H23ClN2O2/c1-2-27-22(26)25-12-9-15(10-13-25)20-19-8-7-18(23)14-17(19)6-5-16-4-3-11-24-21(16)20/h3-4,7-8,11,14H,2,5-6,9-10,12-13H2,1H3
Instrument: Bruker maXis Impact
Instrument type: LC-ESI-QTOF
Ms type: MS2
Ion mode: POSITIVE
Ionization: ESI
Fragmentation mode: CID
Collision energy: 20 eV
Resolution: 35000
Column name: Acclaim RSLC C18 2.2um, 2.1x100mm, Thermo
Retention time: 11.726 min
Base peak: 383.1521
Precursor m/z: 383.1521
Precursor type: [M+H]+
m/z	relative intensity	assigned
259.1352	6	C19H17N+
282.1035	5	C21H14O+
294.1041	7	C22H14O+
337.1103	276	C20H18ClN2O+
338.1134	45	C19[13]CH18ClN2O+
339.1075	64	C20H18[37]ClN2O+
340.1104	7	C20H19ClNO2+
383.1532	999	C22H24ClN2O2+
