Mass spectrum: Fenbendazole; LC-ESI-QTOF; MS2; CE: 30 eV; R=35000; [M+H]+
Name: Fenbendazole
Name: methyl N-(6-phenylsulfanyl-1H-benzimidazol-2-yl)carbamate
Formula: C15H13N3O2S
Exact mass: 299.0728477
SMILES: CO/C(=N/c1[nH]c2cc(ccc2n1)Sc3ccccc3)/O
InChI: InChI=1S/C15H13N3O2S/c1-20-15(19)18-14-16-12-8-7-11(9-13(12)17-14)21-10-5-3-2-4-6-10/h2-9H,1H3,(H2,16,17,18,19)
Instrument: Bruker maXis Impact
Instrument type: LC-ESI-QTOF
Ms type: MS2
Ion mode: POSITIVE
Ionization: ESI
Fragmentation mode: CID
Collision energy: 30 eV
Resolution: 35000
Column name: Acclaim RSLC C18 2.2um, 2.1x100mm, Thermo
Retention time: 10.1 min
Base peak: 300.0799
Precursor m/z: 300.0801
Precursor type: [M+H]+
m/z	relative intensity	assigned
159.0419	158	C8H5N3O+
160.0457	12	C7[13]CH5N3O+
190.0066	27	C8H4N3OS+
268.0541	999	C14H10N3OS+
269.0569	112	C14H11N3OS+
270.0526	26	C14[13]CH11NO2S+
300.0805	14	C15H14N3O2S+
