Mass spectrum: Alachlor-OXA; LC-ESI-QTOF; MS2; CE: 10 eV; R=35000; [M+H]+
Name: Alachlor-OXA
Name: Alachlor OA
Name: 2-[2,6-diethyl-N-(methoxymethyl)anilino]-2-oxoacetic acid
Formula: C14H19NO4
Exact mass: 265.1314081
SMILES: CCC1=CC=CC(CC)=C1N(COC)C(=O)C(O)=O
InChI: InChI=1S/C14H19NO4/c1-4-10-7-6-8-11(5-2)12(10)15(9-19-3)13(16)14(17)18/h6-8H,4-5,9H2,1-3H3,(H,17,18)
Instrument: Bruker maXis Impact
Instrument type: LC-ESI-QTOF
Ms type: MS2
Ion mode: POSITIVE
Ionization: ESI
Fragmentation mode: CID
Collision energy: 10 eV
Resolution: 35000
Column name: Acclaim RSLC C18 2.2um, 2.1x100mm, Thermo
Retention time: 6.6 min
Base peak: 150.1115
Precursor m/z: 266.1387
Precursor type: [M+H]+
m/z	relative intensity	assigned
188.1069	333	C12H14NO+
223.0361	432	C14H7O3+
234.1131	999	C13H16NO3+
