Mass spectrum: Pyriproxyfen; LC-ESI-QTOF; MS2; CE: Ramp 22.0-33.1 eV; R=35000; [M+H]+
Name: Pyriproxyfen
Name: 2-[1-(4-phenoxyphenoxy)propan-2-yloxy]pyridine
Formula: C20H19NO3
Exact mass: 321.1364935
SMILES: CC(COC1=CC=C(OC2=CC=CC=C2)C=C1)OC1=CC=CC=N1
InChI: InChI=1S/C20H19NO3/c1-16(23-20-9-5-6-14-21-20)15-22-17-10-12-19(13-11-17)24-18-7-3-2-4-8-18/h2-14,16H,15H2,1H3
Instrument: Bruker maXis Impact
Instrument type: LC-ESI-QTOF
Ms type: MS2
Ion mode: POSITIVE
Ionization: ESI
Fragmentation mode: CID
Collision energy: Ramp 22.0-33.1 eV
Resolution: 35000
Column name: Acclaim RSLC C18 2.2um, 2.1x100mm, Thermo
Retention time: 12.590 min
Base peak: 322.1451
Precursor m/z: 322.1438
Precursor type: [M+H]+
m/z	relative intensity	assigned
77.0378	10	C6H5+
78.0333	22	C5H4N+
91.0544	17	C7H7+
95.0492	13	C6H7O+
96.0456	999	C5H6NO+
105.0705	48	C8H9+
106.075	5	C7[13]CH9+
107.0494	8	C7H7O+
115.054	9	C9H7+
119.0493	168	C8H7O+
120.0524	12	C7[13]CH7O+
128.0613	16	C10H8+
129.0694	145	C10H9+
130.0727	13	C9[13]CH9+
133.0645	63	C9H9O+
134.0724	278	C9H10O+
135.0754	22	C8[13]CH10O+
136.0755	29	C8H10NO+
141.0692	32	C11H9+
153.0684	5	C12H9+
157.0639	34	C11H9O+
170.0715	15	C12H10O+
171.0788	14	C12H11O+
181.0636	10	C13H9O+
185.059	703	C12H9O2+
186.0628	104	C11[13]CH9O2+
187.0683	7	C10[13]C2H9O2+
194.0716	9	C14H10O+
198.0662	6	C13H10O2+
199.0743	61	C13H11O2+
199.1112	13	C14H15O+
200.0775	8	C12[13]CH11O2+
209.0952	17	C15H13O+
212.082	5	C14H12O2+
227.1062	326	C15H15O2+
228.1095	60	C14[13]CH15O2+
322.1437	11	C20H20NO3+
