Mass spectrum: Norclozapine; LC-ESI-QTOF; MS2; CE: 40 eV; R=35000; [M+H]+
Name: Norclozapine
Name: 3-chloro-6-piperazin-1-yl-5H-benzo[b][1,4]benzodiazepine
Formula: C17H17ClN4
Exact mass: 312.1141742
SMILES: C1CN(CCN1)C2=NC3=C(C=CC(=C3)Cl)NC4=CC=CC=C42
InChI: InChI=1S/C17H17ClN4/c18-12-5-6-15-16(11-12)21-17(22-9-7-19-8-10-22)13-3-1-2-4-14(13)20-15/h1-6,11,19-20H,7-10H2
Instrument: Bruker maXis Impact
Instrument type: LC-ESI-QTOF
Ms type: MS2
Ion mode: POSITIVE
Ionization: ESI
Fragmentation mode: CID
Collision energy: 40 eV
Resolution: 35000
Column name: Acclaim RSLC C18 2.2um, 2.1x100mm, Thermo
Retention time: 7.3 min
Base peak: 313.1214
Precursor m/z: 313.1215
Precursor type: [M+H]+
m/z	relative intensity	assigned
164.0484	8	C12H6N+
165.0562	7	C12H7N+
191.0596	16	C13H7N2+
192.0675	999	C13H8N2+
193.0707	105	C5H12ClN5O+
194.0763	5	C11[13]C2H8N2+
218.0832	8	C15H10N2+
219.066	7	C13H7N4+
220.0863	6	C14H10N3+
227.0366	280	C13H8ClN2+
228.0399	40	C12[13]CH8ClN2+
229.0338	73	C13H8[37]ClN2+
230.0375	6	C12[13]CH8[37C]ClN2+
231.0498	6	C13H5N5+
234.1014	9	C15H12N3+
235.1091	7	C15H13N3+
244.063	21	C13H11ClN3+
245.0656	4	C12[13]CH11ClN3+
246.0609	6	C13H11[37]ClN3+
253.0518	27	C15H10ClN2+
254.0563	7	C14[13]CH10ClN2+
255.0518	11	C15H10[37]ClN2+
270.079	332	C15H13ClN3+
271.0823	53	C14[13]CH13ClN3+
272.0761	77	C15H13[37]ClN3+
273.0787	9	C14[13]CH13[37]ClN3+
296.0945	58	C17H15ClN3+
297.0970	10	C16[13]CH15ClN3+
298.0913	18	C17H15[37]ClN3+
