Mass spectrum: Benzyl methacrylate; GC-APCI-QTOF; MS2; CE: 40 eV; R=35000; [M]+
Name: Benzyl methacrylate
Formula: C11H12O2
Exact mass: 176.0837
SMILES: CC(=C)C(=O)OCC1=CC=CC=C1
InChI: InChI=1S/C11H12O2/c1-9(2)11(12)13-8-10-6-4-3-5-7-10/h3-7H,1,8H2,2H3
Instrument: Bruker 450 GC coupled to maXis Impact
Instrument type: GC-APCI-QTOF
Ms type: MS2
Ion mode: POSITIVE
Ionization: APCI
Fragmentation mode: CID
Collision energy: 40 eV
Resolution: 35000
Column name: Rxi-5Sil MS column, 30m, 0.25mm i.d., 0.25Âµm film thickness, Restek
Retention time: 10.810 min
Base peak: 176.0855
Precursor m/z: 176.0832
Precursor type: [M]+
m/z	relative intensity	assigned
91.0534	552	C7H7+
115.0551	869	C9H7+
116.0617	345	C9H8+
127.0542	124	C10H7+
128.0627	999	C10H8+
129.0689	710	C10H9+
131.0842	331	C10H11+
145.0679	201	C10H9O+
