Mass spectrum: Triethyl citrate; GC-APCI-QTOF; MS2; CE: 20 eV; R=35000; [M+H]+
Name: Triethyl citrate
Formula: C12H20O7
Exact mass: 276.1209
SMILES: CCOC(=O)CC(CC(=O)OCC)(C(=O)OCC)O
InChI: InChI=1S/C12H20O7/c1-4-17-9(13)7-12(16,11(15)19-6-3)8-10(14)18-5-2/h16H,4-8H2,1-3H3
Instrument: Bruker 450 GC coupled to maXis Impact
Instrument type: GC-APCI-QTOF
Ms type: MS2
Ion mode: POSITIVE
Ionization: APCI
Fragmentation mode: CID
Collision energy: 20 eV
Resolution: 35000
Column name: Rxi-5Sil MS column, 30m, 0.25mm i.d., 0.25Âµm film thickness, Restek
Retention time: 20.384 min
Base peak: 277.1077
Precursor m/z: 277.1282
Precursor type: [M+H]+
m/z	relative intensity	assigned
105.0328	24	C7H5O+
133.1023	10	C10H13+
135.1179	14	C10H15+
147.0477	17	C2H11O7+
147.1193	9	C11H15+
172.0597	14	C4H12O7+
173.0445	14	C7H9O5+
176.0639	12	C7H12O5+
178.0807	134	C7H14O5+
179.0891	23	C7H15O5+
180.0823	10	C10H12O3+
181.0705	14	C6H13O6+
182.0976	13	C10H14O3+
183.083	17	C6H15O6+
190.0669	21	C11H10O3+
200.0692	11	C9H12O5+
203.0731	226	C12H11O3+
204.0811	999	C12H12O3+
205.0864	203	C12H13O3+
206.0945	27	C12H14O3+
207.0832	22	C8H15O6+
218.0593	41	C12H10O4+
220.0755	50	C12H12O4+
221.0855	20	C12H13O4+
222.09	47	C12H14O4+
231.0914	17	C10H15O6+
233.1028	12	C10H17O6+
235.0648	9	C12H11O5+
249.0446	19	C12H9O6+
