Mass spectrum: Fumonisin B1; LC-ESI-QTOF; MS2; CE: 40 eV; R=35000; [M+H]+
Name: Fumonisin B1
Name: 2-[2-[19-amino-6-(3,4-dicarboxybutanoyloxy)-11,16,18-trihydroxy-5,9-dimethylicosan-7-yl]oxy-2-oxoethyl]butanedioic acid
Class: Natural Product; Fungal metabolite
Formula: C34H59NO15
Exact mass: 721.3885
SMILES: CCCCC(C)C(C(CC(C)CC(CCCCC(CC(C(C)N)O)O)O)OC(=O)CC(CC(=O)O)C(=O)O)OC(=O)CC(CC(=O)O)C(=O)O
InChI: InChI=1S/C34H59NO15/c1-5-6-9-20(3)32(50-31(44)17-23(34(47)48)15-29(41)42)27(49-30(43)16-22(33(45)46)14-28(39)40)13-19(2)12-24(36)10-7-8-11-25(37)18-26(38)21(4)35/h19-27,32,36-38H,5-18,35H2,1-4H3,(H,39,40)(H,41,42)(H,45,46)(H,47,48)
Instrument: Bruker maXis Impact
Instrument type: LC-ESI-QTOF
Ms type: MS2
Ion mode: POSITIVE
Ionization: ESI
Fragmentation mode: CID
Collision energy: 40 eV
Resolution: 35000
Column name: Acclaim RSLC C18 2.2um, 2.1x100mm, Thermo
Retention time: 8.691 min
Base peak: 722.3954
Precursor m/z: 722.3957
Precursor type: [M+H]+
m/z	relative intensity	assigned
133.0985	50	C10H13+
135.1153	105	C10H15+
149.1342	49	C11H17+
151.148	56	C11H19+
159.0283	67	C6H7O5+
165.1628	67	C12H21+
186.1483	177	C10H20NO2+
201.1631	63	H27NO10+
204.1581	52	C10H22NO3+
210.1874	52	C3H30O9+
236.203	45	C5H32O9+
245.225	52	C3H35NO10+
254.213	76	C15H28NO2+
263.2365	54	C3H37NO11+
272.2213	71	C15H30NO3+
279.2697	50	C19H35O+
316.2994	193	C22H38N+
317.2824	98	C7H43NO11+
334.3095	783	C22H40NO+
335.3128	184	C4H49NO14+
352.3209	999	C22H42NO2+
353.3226	309	C26H41+
370.331	481	C22H44NO3+
371.337	115	C19H47O6+
388.3435	63	C22H46NO4+
492.3329	51	C28H46NO6+
510.3408	204	C25H50O10+
511.3525	93	C18H55O15+
528.3523	285	C28H50NO8+
529.3533	119	C32H49O6+
546.3643	184	C28H52NO9+
547.3646	58	C32H51O7+
668.3614	44	C31H56O15+
668.3847	47	C31H58NO14+
686.3736	222	C34H56NO13+
687.375	76	C34H57NO13+
688.3735	54	C34H56O14+
704.3815	395	C34H58NO14+
705.3887	269	C34H59NO14+
706.3945	59	C34H60NO14+
722.3922	607	C34H60NO15+
