Mass spectrum: Metribuzin; LC-ESI-QTOF; MS2; CE: 50 eV; R=35000; [M+H]+
Name: Metribuzin
Name: 4-amino-6-tert-butyl-3-methylsulfanyl-1,2,4-triazin-5-one
Formula: C8H14N4OS
Exact mass: 214.0888321
SMILES: CSC1=NN=C(C(=O)N1N)C(C)(C)C
InChI: InChI=1S/C8H14N4OS/c1-8(2,3)5-6(13)12(9)7(14-4)11-10-5/h9H2,1-4H3
Instrument: Bruker maXis Impact
Instrument type: LC-ESI-QTOF
Ms type: MS2
Ion mode: POSITIVE
Ionization: ESI
Fragmentation mode: CID
Collision energy: 50 eV
Resolution: 35000
Column name: Acclaim RSLC C18 2.2um, 2.1x100mm, Thermo
Retention time: 6.9 min
Base peak: 215.0957
Precursor m/z: 215.0961
Precursor type: [M+H]+
m/z	relative intensity	assigned
130.0302	404	C3H6N4S+
139.0325	411	C6H7N2S+
140.039	514	C6H8N2S+
141.0357	728	C5H7N3S+
156.0577	999	C6H10N3S+
