Mass spectrum: Vomitoxin; LC-ESI-QTOF; MS2; CE: 10 eV; R=35000; [M+H]+
Name: Vomitoxin
Name: Rd toxin
Name: 3,10-dihydroxy-2-(hydroxymethyl)-1,5-dimethylspiro[8-oxatricyclo[7.2.1.02,7]dodec-5-ene-12,2`-oxirane]-4-one
Class: Natural Product; Fungal metabolite
Formula: C15H20O6
Exact mass: 296.126
SMILES: CC1=CC2C(C(C1=O)O)(C3(CC(C(C34CO4)O2)O)C)CO
InChI: InChI=1S/C15H20O6/c1-7-3-9-14(5-16,11(19)10(7)18)13(2)4-8(17)12(21-9)15(13)6-20-15/h3,8-9,11-12,16-17,19H,4-6H2,1-2H3
Instrument: Bruker maXis Impact
Instrument type: LC-ESI-QTOF
Ms type: MS2
Ion mode: POSITIVE
Ionization: ESI
Fragmentation mode: CID
Collision energy: 10 eV
Resolution: 35000
Column name: Acclaim RSLC C18 2.2um, 2.1x100mm, Thermo
Retention time: 3.875 min
Base peak: 297.1328
Precursor m/z: 297.1333
Precursor type: [M+H]+
m/z	relative intensity	assigned
137.059	78	C8H9O2+
187.1129	86	C13H15O+
203.1057	184	C13H15O2+
219.1031	79	C13H15O3+
231.0996	299	C14H15O3+
249.1115	476	C14H17O4+
261.1118	135	C15H17O4+
279.1229	126	C15H19O5+
297.1325	999	C15H21O6+
