Mass spectrum: Fenpropidin; LC-ESI-QTOF; MS2; CE: 40 eV; R=35000; [M+H]+
Name: Fenpropidin
Name: 1-[3-(4-tert-butylphenyl)-2-methylpropyl]piperidine
Formula: C19H31N
Exact mass: 273.2456500
SMILES: CC(CN1CCCCC1)CC1=CC=C(C=C1)C(C)(C)C
InChI: InChI=1S/C19H31N/c1-16(15-20-12-6-5-7-13-20)14-17-8-10-18(11-9-17)19(2,3)4/h8-11,16H,5-7,12-15H2,1-4H3
Instrument: Bruker maXis Impact
Instrument type: LC-ESI-QTOF
Ms type: MS2
Ion mode: POSITIVE
Ionization: ESI
Fragmentation mode: CID
Collision energy: 40 eV
Resolution: 35000
Column name: Acclaim RSLC C18 2.2um, 2.1x100mm, Thermo
Retention time: 8.402 min
Base peak: 207.1485
Precursor m/z: 274.2529
Precursor type: [M+H]+
m/z	relative intensity	assigned
115.0536	25	C9H7+
117.0692	85	C9H9+
118.0724	10	C8[13]CH9+
119.0848	158	C9H11+
120.0879	18	C8[13]CH11+
131.0843	20	C10H11+
132.0924	344	C10H12+
133.0955	35	C9[13]CH12+
145.0998	18	C11H13+
146.1066	8	C11H14+
147.1158	999	C11H15+
148.119	114	C10[13]CH15+
149.1214	6	C9[13]C2H15+
159.1156	8	C12H15+
161.1311	30	C12H17+
162.1344	5	C11[13]CH17+
189.1622	10	C14H21+
218.1876	5	C15H24N+
274.2519	168	C19H32N+
275.2552	36	C18[13]CH32N+
