Mass spectrum: Bromhexine; LC-ESI-QTOF; MS2; CE: 50 eV; R=35000; [M+H]+
Name: Bromhexine
Name: 2,4-dibromo-6-[[cyclohexyl(methyl)amino]methyl]aniline
Formula: C14H20Br2N2
Exact mass: 373.9993228
SMILES: CN(Cc1cc(cc(c1N)Br)Br)C2CCCCC2
InChI: InChI=1S/C14H20Br2N2/c1-18(12-5-3-2-4-6-12)9-10-7-11(15)8-13(16)14(10)17/h7-8,12H,2-6,9,17H2,1H3
Instrument: Bruker maXis Impact
Instrument type: LC-ESI-QTOF
Ms type: MS2
Ion mode: POSITIVE
Ionization: ESI
Fragmentation mode: CID
Collision energy: 50 eV
Resolution: 35000
Column name: Acclaim RSLC C18 2.2um, 2.1x100mm, Thermo
Retention time: 10.4 min
Base peak: 376.9925
Precursor m/z: 375.0066
Precursor type: [M+H]+
m/z	relative intensity	assigned
181.9574	72	C7H5BrN+
182.9583	348	C6H4BrN2+
184.9573	158	C6H4[81]BrN2+
261.8776	660	C6H4Br2N2+
263.8745	999	C5H4Br2N3+
