Mass spectrum: Tricresylphosphate; LC-ESI-QTOF; MS2; CE: 50 eV; R=35000; [M+H]+
Name: Tricresylphosphate
Name: Tri-P-cresyl phosphate
Name: tris(4-methylphenyl) phosphate
Formula: C21H21O4P
Exact mass: 368.1177458
SMILES: CC1=CC=C(OP(=O)(OC2=CC=C(C)C=C2)OC2=CC=C(C)C=C2)C=C1
InChI: InChI=1S/C21H21O4P/c1-16-4-10-19(11-5-16)23-26(22,24-20-12-6-17(2)7-13-20)25-21-14-8-18(3)9-15-21/h4-15H,1-3H3
Instrument: Bruker maXis Impact
Instrument type: LC-ESI-QTOF
Ms type: MS2
Ion mode: POSITIVE
Ionization: ESI
Fragmentation mode: CID
Collision energy: 50 eV
Resolution: 35000
Column name: Acclaim RSLC C18 2.2um, 2.1x100mm, Thermo
Retention time: 12.712 min
Base peak: 369.1242
Precursor m/z: 369.125
Precursor type: [M+H]+
m/z	relative intensity	assigned
115.055	10	C9H7+
128.0603	6	C3H13O3P+
129.07	7	C10H9+
139.0533	5	C11H7+
141.069	38	C11H9+
142.0727	5	C10[13]CH9+
152.0625	22	C12H8+
153.0092	14	C7H6O2P+
153.0689	39	C12H9+
154.0159	23	C7H7O2P+
154.0727	13	C5H15O3P+
163.0527	11	C6H12O3P+
164.061	14	C13H8+
165.0688	999	C13H9+
166.0762	635	C13H10+
167.0803	92	C12[13]CH10+
168.0567	7	C12H8O+
169.0987	5	C6H18O3P+
171.0205	6	C7H8O3P+
177.0672	5	C7H14O3P+
178.076	54	C7H15O3P+
179.0837	69	C7H16O3P+
180.0912	32	C7H17O3P+
181.0626	14	C6H14O4P+
181.1005	31	C14H13+
182.1039	8	C7H19O3P+
183.0774	8	C6H16O4P+
184.0862	5	C6H17O4P+
189.0311	16	C7H10O4P+
195.08	55	C14H11O+
196.0867	175	C14H12O+
197.0917	28	C13[13]CH12O+
198.1013	7	C7H19O4P+
200.0367	13	C12H9OP+
215.0605	29	C13H12OP+
226.0766	6	C18H10+
229.0994	8	C11H18O3P+
233.0723	6	C13H14O2P+
239.0859	14	C19H11+
240.0925	23	C19H12+
241.0992	63	C19H13+
242.1061	14	C18[13]CH13+
243.0552	110	C14H12O2P+
244.0598	13	C13[13]CH12O2P+
255.1166	38	C20H15+
256.1252	27	C20H16+
257.1246	6	C19[13]CH16+
261.0668	126	C14H14O3P+
262.0679	16	C13[13]CH14O3P+
279.0773	58	C14H16O4P+
280.0818	8	C13[13]CH16O4P+
