Mass spectrum: Roxithromycin; LC-ESI-QTOF; MS2; CE: 20 eV; R=35000; [M+H]+
Name: Roxithromycin
Name: (3R,4S,5S,6R,7R,9R,10E,11S,12R,13S,14R)-6-[(2S,3R,4S,6R)-4-(dimethylamino)-3-hydroxy-6-methyloxan-2-yl]oxy-14-ethyl-7,12,13-trihydroxy-4-[(2R,4R,5S,6S)-5-hydroxy-4-methoxy-4,6-dimethyloxan-2-yl]oxy-10-(2-methoxyethoxymethoxyimino)-3,5,7,9,11,13-hexamethyl-oxacyclotetradecan-2-one
Formula: C41H76N2O15
Exact mass: 836.5245697
SMILES: CC[C@@H]1[C@@]([C@@H]([C@H](/C(=N/OCOCCOC)/[C@@H](C[C@@]([C@@H]([C@H]([C@@H]([C@H](C(=O)O1)C)O[C@H]2C[C@@]([C@H]([C@@H](O2)C)O)(C)OC)C)O[C@H]3[C@@H]([C@H](C[C@H](O3)C)N(C)C)O)(C)O)C)C)O)(C)O
InChI: InChI=1S/C41H76N2O15/c1-15-29-41(10,49)34(45)24(4)31(42-53-21-52-17-16-50-13)22(2)19-39(8,48)36(58-38-32(44)28(43(11)12)18-23(3)54-38)25(5)33(26(6)37(47)56-29)57-30-20-40(9,51-14)35(46)27(7)55-30/h22-30,32-36,38,44-46,48-49H,15-21H2,1-14H3/b42-31+/t22-,23-,24+,25+,26-,27+,28+,29-,30+,32-,33+,34-,35+,36-,38+,39-,40-,41-/m1/s1
Instrument: Bruker maXis Impact
Instrument type: LC-ESI-QTOF
Ms type: MS2
Ion mode: POSITIVE
Ionization: ESI
Fragmentation mode: CID
Collision energy: 20 eV
Resolution: 35000
Column name: Acclaim RSLC C18 2.2um, 2.1x100mm, Thermo
Retention time: 9.386 min
Base peak: 419.2725
Precursor m/z: 837.5318
Precursor type: [M+H]+
m/z	relative intensity	assigned
116.1067	10	C6H14NO+
158.1179	161	C8H16NO2+
159.1215	13	C7[13]CH16NO2+
316.2134	26	C19H28N2O2+
317.2151	6	C23H27N+
522.3384	19	C26H50O10+
540.359	10	C22H54NO13+
558.3663	59	C32H50N2O6+
559.3711	17	C31[13]CH50N2O6+
603.3936	6	C41H51N2O2+
661.4385	8	C34H63NO11+
679.443	797	C41H61NO7+
680.4459	279	C33H64N2O12+
681.4492	60	C30H67NO15+
682.447	12	C29[13]CH67NO15+
716.4685	19	C33H68N2O14+
837.5402	999	C41H77N2O15+
838.5426	557	C40[13]CH77N2O15+
839.5463	106	C39[13]C2H77N2O15+
