Mass spectrum: Norclozapine; LC-ESI-QTOF; MS2; CE: 30 eV; R=35000; [M+H]+
Name: Norclozapine
Name: 3-chloro-6-piperazin-1-yl-5H-benzo[b][1,4]benzodiazepine
Formula: C17H17ClN4
Exact mass: 312.1141742
SMILES: C1CN(CCN1)C2=NC3=C(C=CC(=C3)Cl)NC4=CC=CC=C42
InChI: InChI=1S/C17H17ClN4/c18-12-5-6-15-16(11-12)21-17(22-9-7-19-8-10-22)13-3-1-2-4-14(13)20-15/h1-6,11,19-20H,7-10H2
Instrument: Bruker maXis Impact
Instrument type: LC-ESI-QTOF
Ms type: MS2
Ion mode: POSITIVE
Ionization: ESI
Fragmentation mode: CID
Collision energy: 30 eV
Resolution: 35000
Column name: Acclaim RSLC C18 2.2um, 2.1x100mm, Thermo
Retention time: 7.4 min
Base peak: 313.1212
Precursor m/z: 313.1215
Precursor type: [M+H]+
m/z	relative intensity	assigned
192.0677	285	C13H8N2+
193.0704	31	C12[13]CH8N2+
227.0366	438	C13H8ClN2+
228.0399	57	C12[13]CH8ClN2+
229.0338	117	C13H8[37]ClN2+
230.0367	9	C12[13]CH8[37]ClN2+
244.0629	149	C13H11ClN3+
245.0659	20	C12[13]CH11ClN3+
246.0602	38	C13H11[37]ClN3+
253.0522	117	C15H10ClN2+
254.0550	19	C14[13]CH10ClN2+
255.0494	40	C15H10[37]ClN2+
270.079	999	C15H13ClN3+
271.0823	162	C14[13]CH13ClN3+
272.0761	266	C15H13[37]ClN3+
273.0787	25	C14[13]CH13[37]ClN3+
296.0948	171	C17H15ClN3+
311.107	9	C17H16ClN4+
313.1215	606	C17H18ClN4+
314.1244	98	C16[13]CH18ClN4+
315.1188	163	C17H18[37]ClN4+
316.1214	19	C16[13]CH18[37]ClN4+
