Mass spectrum: Cyclophosphamide; LC-ESI-QTOF; MS2; CE: 20 eV; R=35000; [M+H]+
Name: Cyclophosphamide
Name: N,N-bis(2-chloroethyl)-2-oxo-1,3,2lambda5-oxazaphosphinan-2-amine
Formula: C7H15Cl2N2O2P
Exact mass: 260.0248197
SMILES: ClCCN(CCCl)P1(=O)NCCCO1
InChI: InChI=1S/C7H15Cl2N2O2P/c8-2-5-11(6-3-9)14(12)10-4-1-7-13-14/h1-7H2,(H,10,12)
Instrument: Bruker maXis Impact
Instrument type: LC-ESI-QTOF
Ms type: MS2
Ion mode: POSITIVE
Ionization: ESI
Fragmentation mode: CID
Collision energy: 20 eV
Resolution: 35000
Column name: Acclaim RSLC C18 2.2um, 2.1x100mm, Thermo
Retention time: 6.228 min
Base peak: 278.1905
Precursor m/z: 261.0321
Precursor type: [M+H]+
m/z	relative intensity	assigned
120.02	39	C7H4O2+
138.0302	32	C4H9ClNO2+
140.0019	390	C7H5ClO+
141.0051	16	C6[13]CH5ClO+
141.9988	201	C7H5[37]ClO+
142.0175	127	C4H10Cl2N+
143.0019	7	C3H9ClO2P+
143.0204	5	C3[13]CH10Cl2N+
144.0144	82	C4H10Cl[37]ClN+
185.023	13	C4H11ClN2O2P+
199.0384	10	C5H13ClN2O2P+
233.0001	283	C5H12Cl2N2O2P+
234.0025	15	C4[13]CH12Cl2N2O2P+
234.9969	153	C5H12Cl[37]ClN2O2P+
261.0315	999	C7H16Cl2N2O2P+
262.0342	68	C6[13]CH16Cl2N2O2P+
263.0286	566	C7H16Cl[37]ClN2O2P+
