Mass spectrum: Enalapril; LC-ESI-QTOF; MS2; CE: 10 eV; R=35000; [M+H]+
Name: Enalapril
Name: (2S)-1-[(2S)-2-[[(2S)-1-ethoxy-1-oxo-4-phenylbutan-2-yl]amino]propanoyl]pyrrolidine-2-carboxylic acid
Formula: C20H28N2O5
Exact mass: 376.1998220
SMILES: CCOC(=O)[C@H](CCC1=CC=CC=C1)N[C@@H](C)C(=O)N1CCC[C@H]1C(O)=O
InChI: InChI=1S/C20H28N2O5/c1-3-27-20(26)16(12-11-15-8-5-4-6-9-15)21-14(2)18(23)22-13-7-10-17(22)19(24)25/h4-6,8-9,14,16-17,21H,3,7,10-13H2,1-2H3,(H,24,25)/t14-,16-,17-/m0/s1
Instrument: Bruker maXis Impact
Instrument type: LC-ESI-QTOF
Ms type: MS2
Ion mode: POSITIVE
Ionization: ESI
Fragmentation mode: CID
Collision energy: 10 eV
Resolution: 35000
Column name: Acclaim RSLC C18 2.2um, 2.1x100mm, Thermo
Retention time: 6.838 min
Base peak: 377.2066
Precursor m/z: 377.2071
Precursor type: [M+H]+
m/z	relative intensity	assigned
234.1477	54	C14H20NO2+
235.1519	8	C13[13]CH20NO2+
303.1696	18	C17H23N2O3+
377.2071	999	C20H29N2O5+
378.21	228	C19[13]CH29N2O5+
379.2111	31	C18[13]C2H29N2O5+
