Mass spectrum: Methyl laurate; GC-APCI-QTOF; MS2; CE: 40 eV; R=35000; [M+H]+
Name: Methyl laurate
Formula: C13H26O2
Exact mass: 214.1933
SMILES: CCCCCCCCCCCC(=O)OC
InChI: InChI=1S/C13H26O2/c1-3-4-5-6-7-8-9-10-11-12-13(14)15-2/h3-12H2,1-2H3
Instrument: Bruker 450 GC coupled to maXis Impact
Instrument type: GC-APCI-QTOF
Ms type: MS2
Ion mode: POSITIVE
Ionization: APCI
Fragmentation mode: CID
Collision energy: 40 eV
Resolution: 35000
Column name: Rxi-5Sil MS column, 30m, 0.25mm i.d., 0.25Âµm film thickness, Restek
Retention time: 12.442 min
Base peak: 215.201
Precursor m/z: 215.2006
Precursor type: [M+H]+
m/z	relative intensity	assigned
55.0534	999	C4H7+
57.0713	864	C4H9+
