Mass spectrum: Verapamil; LC-ESI-QTOF; MS2; CE: Ramp 24.7-37.1 eV; R=35000; [M+H]+
Name: Verapamil
Name: 2-(3,4-dimethoxyphenyl)-5-[2-(3,4-dimethoxyphenyl)ethyl-methylamino]-2-propan-2-ylpentanenitrile
Formula: C27H38N2O4
Exact mass: 454.2831577
SMILES: COC1=CC=C(CCN(C)CCCC(C#N)(C(C)C)C2=CC(OC)=C(OC)C=C2)C=C1OC
InChI: InChI=1S/C27H38N2O4/c1-20(2)27(19-28,22-10-12-24(31-5)26(18-22)33-7)14-8-15-29(3)16-13-21-9-11-23(30-4)25(17-21)32-6/h9-12,17-18,20H,8,13-16H2,1-7H3
Instrument: Bruker maXis Impact
Instrument type: LC-ESI-QTOF
Ms type: MS2
Ion mode: POSITIVE
Ionization: ESI
Fragmentation mode: CID
Collision energy: Ramp 24.7-37.1 eV
Resolution: 35000
Column name: Acclaim RSLC C18 2.2um, 2.1x100mm, Thermo
Retention time: 6.926 min
Base peak: 455.2909
Precursor m/z: 455.2904
Precursor type: [M+H]+
m/z	relative intensity	assigned
58.0648	12	C3H8N+
105.0703	17	C8H9+
122.096	5	C8H12N+
133.0644	19	C9H9O+
134.072	13	C9H10O+
135.0432	10	C8H7O2+
135.0796	12	C9H11O+
150.0669	134	C9H10O2+
151.0729	21	C8[13]CH10O2+
165.0906	999	C10H13O2+
166.0936	111	C9[13]CH13O2+
167.0953	7	C8[13]C2H13O2+
177.0899	10	C11H13O2+
218.1164	6	C13H16NO2+
260.1642	81	C16H22NO2+
261.1612	37	C15H21N2O2+
303.2069	384	C18H27N2O2+
304.21	75	C17[13]CH27N2O2+
305.2128	5	C16[13]C2H27N2O2+
455.2909	745	C27H39N2O4+
456.2941	293	C26[13]CH39N2O4+
457.2963	45	C25[13]C2H39N2O4+
