Mass spectrum: Divinylbenzene (m- and p- mixture); GC-APCI-QTOF; MS2; CE: 40 eV; R=35000; [M]+
Name: Divinylbenzene (m- and p- mixture)
Formula: C10H10
Exact mass: 130.0783
SMILES: C=CC1=CC=CC=C1C=C
InChI: InChI=1S/C10H10/c1-3-9-7-5-6-8-10(9)4-2/h3-8H,1-2H2
Instrument: Bruker 450 GC coupled to maXis Impact
Instrument type: GC-APCI-QTOF
Ms type: MS2
Ion mode: POSITIVE
Ionization: APCI
Fragmentation mode: CID
Collision energy: 40 eV
Resolution: 35000
Column name: Rxi-5Sil MS column, 30m, 0.25mm i.d., 0.25Âµm film thickness, Restek
Retention time: 8.675 min
Base peak: 130.0773
Precursor m/z: 130.0777
Precursor type: [M]+
m/z	relative intensity	assigned
52.0318	35	C4H4+
63.024	33	C5H3+
65.0397	82	C5H5+
75.0239	25	C6H3+
77.039	31	C6H5+
78.0462	25	C6H6+
89.0393	29	C7H5+
102.0445	70	C8H6+
103.0543	31	C8H7+
115.0544	330	C9H7+
116.0607	53	C9H8+
126.0477	98	C10H6+
127.0543	213	C10H7+
128.0619	999	C10H8+
