Mass spectrum: 2-Hydroxyquinoline; LC-ESI-QTOF; MS2; CE: 20 eV; R=35000; [M+H]+
Name: 2-Hydroxyquinoline
Name: 1H-quinolin-2-one
Formula: C9H7NO
Exact mass: 145.0527638
SMILES: OC1=NC2=CC=CC=C2C=C1
InChI: InChI=1S/C9H7NO/c11-9-6-5-7-3-1-2-4-8(7)10-9/h1-6H,(H,10,11)
Instrument: Bruker maXis Impact
Instrument type: LC-ESI-QTOF
Ms type: MS2
Ion mode: POSITIVE
Ionization: ESI
Fragmentation mode: CID
Collision energy: 20 eV
Resolution: 35000
Column name: Acclaim RSLC C18 2.2um, 2.1x100mm, Thermo
Retention time: 4.133 min
Base peak: 146.0598
Precursor m/z: 146.06
Precursor type: [M+H]+
m/z	relative intensity	assigned
117.0566	11	C8H7N+
118.0647	19	C8H8N+
128.049	16	C9H6N+
146.0599	999	C9H8NO+
147.0627	117	C8[13]CH8NO+
