Mass spectrum: Metolachlor-OXA; LC-ESI-QTOF; MS2; CE: 30 eV; R=35000; [M+H]+
Name: Metolachlor-OXA
Name: Metolachlor OA
Name: 2-[2-ethyl-N-(1-methoxypropan-2-yl)-6-methylanilino]-2-oxoacetic acid
Formula: C15H21NO4
Exact mass: 279.1470582
SMILES: CCC1=CC=CC(C)=C1N(C(C)COC)C(=O)C(O)=O
InChI: InChI=1S/C15H21NO4/c1-5-12-8-6-7-10(2)13(12)16(11(3)9-20-4)14(17)15(18)19/h6-8,11H,5,9H2,1-4H3,(H,18,19)
Instrument: Bruker maXis Impact
Instrument type: LC-ESI-QTOF
Ms type: MS2
Ion mode: POSITIVE
Ionization: ESI
Fragmentation mode: CID
Collision energy: 30 eV
Resolution: 35000
Column name: Acclaim RSLC C18 2.2um, 2.1x100mm, Thermo
Retention time: 7.2 min
Base peak: 280.154
Precursor m/z: 280.1543
Precursor type: [M+H]+
m/z	relative intensity	assigned
118.0637	54	C5H10O3+
119.0726	49	C8H9N+
119.0843	58	C9H11+
120.0799	33	C8H10N+
130.0646	79	C9H8N+
131.0719	272	C9H9N+
132.0792	160	C6H12O3+
133.0883	78	C9H11N+
134.0591	54	C8H8NO+
134.0959	256	C9H12N+
144.0794	249	C7H12O3+
145.0864	107	C7H13O3+
146.096	580	C10H12N+
147.1011	102	C7H15O3+
148.1115	506	C10H14N+
149.0218	201	C8H5O3+
149.115	58	C7H17O3+
159.1036	36	C11H13N+
160.0744	78	C10H10NO+
160.1111	150	C11H14N+
162.0902	173	C10H12NO+
163.0942	40	C7H15O4+
174.1272	87	C12H16N+
176.1423	347	C12H18N+
177.1462	60	C9H21O3+
202.1223	100	C13H16NO+
204.1396	44	C13H18NO+
220.1326	104	C13H18NO2+
248.1276	999	C14H18NO3+
249.131	139	C13[13]CH18NO3+
250.1357	30	C12[13]C2H18NO3+
279.0945	30	C13H15N2O5+
