Mass spectrum: Metolachlor; LC-ESI-QTOF; MS2; CE: Ramp 21.0-31.5 eV; R=35000; [M+H]+
Name: Metolachlor
Name: 2-chloro-N-(2-ethyl-6-methylphenyl)-N-(1-methoxypropan-2-yl)acetamide
Formula: C15H22ClNO2
Exact mass: 283.1339066
SMILES: CCC1=CC=CC(C)=C1N(C(C)COC)C(=O)CCl
InChI: InChI=1S/C15H22ClNO2/c1-5-13-8-6-7-11(2)15(13)17(14(18)9-16)12(3)10-19-4/h6-8,12H,5,9-10H2,1-4H3
Instrument: Bruker maXis Impact
Instrument type: LC-ESI-QTOF
Ms type: MS2
Ion mode: POSITIVE
Ionization: ESI
Fragmentation mode: CID
Collision energy: Ramp 21.0-31.5 eV
Resolution: 35000
Column name: Acclaim RSLC C18 2.2um, 2.1x100mm, Thermo
Retention time: 10.399 min
Base peak: 284.1417
Precursor m/z: 284.1412
Precursor type: [M+H]+
m/z	relative intensity	assigned
73.0644	82	C4H9O+
76.9785	14	C2H2ClO+
91.0537	7	C7H7+
119.0858	11	C9H11+
120.0813	10	C8H10N+
131.0731	5	C9H9N+
132.0808	8	C9H10N+
133.0889	20	C9H11N+
134.0969	62	C9H12N+
135.1008	5	C8[13]CH12N+
143.0729	5	C10H9N+
144.0806	7	C10H10N+
145.0886	8	C10H11N+
146.0969	35	C10H12N+
147.1027	6	C9[13]CH12N+
148.1119	10	C10H14N+
158.0964	21	C11H12N+
159.1037	9	C11H13N+
160.1122	30	C11H14N+
162.0915	6	C10H12NO+
174.1273	6	C12H16N+
176.1437	543	C12H18N+
177.147	63	C11[13]CH18N+
184.0525	25	C9H11ClNO+
186.0498	6	C9H11[37]ClNO+
194.0733	14	C11H13ClN+
212.084	33	C11H15ClNO+
214.0804	8	C11H15[37]ClNO+
252.1156	999	C14H19ClNO+
253.1186	196	C13[13]CH19ClNO+
254.1126	340	C14H19[37]ClNO+
255.1154	26	C14H20ClO2+
284.1413	7	C15H23ClNO2+
