Mass spectrum: Divinylbenzene (m- and p- mixture); GC-APCI-QTOF; MS2; CE: 40 eV; R=35000; [M+H]+
Name: Divinylbenzene (m- and p- mixture)
Formula: C10H10
Exact mass: 130.0783
SMILES: C=CC1=CC=CC=C1C=C
InChI: InChI=1S/C10H10/c1-3-9-7-5-6-8-10(9)4-2/h3-8H,1-2H2
Instrument: Bruker 450 GC coupled to maXis Impact
Instrument type: GC-APCI-QTOF
Ms type: MS2
Ion mode: POSITIVE
Ionization: APCI
Fragmentation mode: CID
Collision energy: 40 eV
Resolution: 35000
Column name: Rxi-5Sil MS column, 30m, 0.25mm i.d., 0.25Âµm film thickness, Restek
Retention time: 12.002 min
Base peak: 190.1368
Precursor m/z: 131.0855
Precursor type: [M+H]+
m/z	relative intensity	assigned
65.0394	241	C5H5+
91.0547	396	C7H7+
115.0549	999	C9H7+
116.0618	271	C9H8+
117.0699	189	C9H9+
127.0541	124	C10H7+
128.0625	516	C10H8+
129.068	176	C10H9+
