Mass spectrum: Lovastatin; LC-ESI-QTOF; MS2; CE: 40 eV; R=35000; [M+H]+
Name: Lovastatin
Name: [(1S,3R,7S,8S,8aR)-8-[2-[(2R,4R)-4-hydroxy-6-oxooxan-2-yl]ethyl]-3,7-dimethyl-1,2,3,7,8,8a-hexahydronaphthalen-1-yl] (2S)-2-methylbutanoate
Formula: C24H36O5
Exact mass: 404.2562743
SMILES: CC[C@H](C)C(=O)O[C@H]1C[C@H](C=C2[C@H]1[C@H]([C@H](C=C2)C)CC[C@@H]3C[C@H](CC(=O)O3)O)C
InChI: InChI=1S/C24H36O5/c1-5-15(3)24(27)29-21-11-14(2)10-17-7-6-16(4)20(23(17)21)9-8-19-12-18(25)13-22(26)28-19/h6-7,10,14-16,18-21,23,25H,5,8-9,11-13H2,1-4H3/t14-,15-,16-,18+,19+,20-,21-,23-/m0/s1
Instrument: Bruker maXis Impact
Instrument type: LC-ESI-QTOF
Ms type: MS2
Ion mode: POSITIVE
Ionization: ESI
Fragmentation mode: CID
Collision energy: 40 eV
Resolution: 35000
Column name: Acclaim RSLC C18 2.2um, 2.1x100mm, Thermo
Retention time: 12.159 min
Base peak: 405.2663
Precursor m/z: 405.2636
Precursor type: [M+H]+
m/z	relative intensity	assigned
115.0543	41	C9H7+
117.0702	25	C9H9+
119.0856	74	C9H11+
121.1015	32	C9H13+
128.0623	119	C10H8+
129.07	70	C10H9+
130.0767	37	C10H10+
131.0858	276	C10H11+
133.1009	73	C10H13+
135.0831	19	C9H11O+
135.1171	21	C10H15+
141.0714	44	C11H9+
142.078	88	C11H10+
143.0856	604	C11H11+
144.0913	98	C10[13]CH11+
145.101	304	C11H13+
147.1163	65	C11H15+
149.0959	28	C10H13O+
151.0747	23	C9H11O2+
153.0692	18	C12H9+
154.0782	18	C12H10+
155.0857	116	C12H11+
156.094	94	C12H12+
157.1017	305	C12H13+
158.1082	142	C12H14+
159.1175	457	C12H15+
160.1218	62	C12H16+
161.1326	25	C12H17+
163.109	20	C11H15O+
167.0861	29	C13H11+
168.0932	21	C13H12+
169.1012	341	C13H13+
170.1067	50	C13H14+
171.1173	366	C13H15+
172.1204	53	C13H16+
173.133	746	C13H17+
174.1368	143	C12[13]CH17+
181.1015	49	C14H13+
182.109	31	C14H14+
183.117	232	C14H15+
184.121	64	C14H16+
185.1334	78	C14H17+
186.1378	17	C14H18+
191.1084	64	C12H15O2+
192.1121	24	C12H16O2+
193.1041	47	C15H13+
194.0737	17	C14H10O+
195.1181	60	C15H15+
196.1241	21	C15H16+
197.1327	166	C15H17+
198.138	39	C15H18+
199.1484	999	C15H19+
200.1523	172	C14[13]CH19+
201.1642	157	C15H21+
202.1686	22	C15H22+
205.1005	25	C16H13+
205.1223	33	C13H17O2+
207.1178	69	C16H15+
208.1232	23	C16H16+
210.1422	49	C16H18+
211.1112	45	C15H15O+
211.1483	65	C16H19+
215.1802	48	C16H23+
220.1256	28	C17H16+
221.1295	20	C17H17+
223.0632	39	C11H11O5+
223.1484	152	C17H19+
224.154	18	C17H20+
225.1643	605	C17H21+
226.0445	24	C17H6O+
226.1685	122	C16[13]CH21+
229.1232	39	C15H17O2+
234.141	40	C18H18+
239.1431	21	C17H19O+
239.1803	103	C18H23+
240.185	33	C18H24+
243.1751	98	C17H23O+
244.1794	26	C17H24O+
249.1647	111	C19H21+
250.1697	19	C19H22+
267.1755	26	C19H23O+
283.0342	17	C19H7O3+
285.1894	48	C19H25O2+
299.0632	35	C20H11O3+
