Mass spectrum: Diflufenican; LC-ESI-QTOF; MS2; CE: 50 eV; R=35000; [M+H]+
Name: Diflufenican
Name: N-(2,4-difluorophenyl)-2-[3-(trifluoromethyl)phenoxy]pyridine-3-carboxamide
Formula: C19H11F5N2O2
Exact mass: 394.0740687
SMILES: FC1=CC=C(NC(=O)C2=CC=CN=C2OC2=CC=CC(=C2)C(F)(F)F)C(F)=C1
InChI: InChI=1S/C19H11F5N2O2/c20-12-6-7-16(15(21)10-12)26-17(27)14-5-2-8-25-18(14)28-13-4-1-3-11(9-13)19(22,23)24/h1-10H,(H,26,27)
Instrument: Bruker maXis Impact
Instrument type: LC-ESI-QTOF
Ms type: MS2
Ion mode: POSITIVE
Ionization: ESI
Fragmentation mode: CID
Collision energy: 50 eV
Resolution: 35000
Column name: Acclaim RSLC C18 2.2um, 2.1x100mm, Thermo
Retention time: 11.733 min
Base peak: 395.0809
Precursor m/z: 395.0813
Precursor type: [M+H]+
m/z	relative intensity	assigned
122.0216	6	C4H3F3N+
128.0309	5	C6H4F2N+
133.0419	17	C4H6FN2O2+
140.0306	9	C7H4F2N+
140.0485	22	C2H7F5N+
141.0552	45	C10H7N+
142.0617	5	C9[13]CH7N+
145.0248	45	C7H4F3+
151.0335	6	C9H5F2+
153.0556	5	C3H8F5N+
158.039	30	C10H5FN+
159.0427	5	C9[13]CH5FN+
163.0346	12	C10H5F2+
164.042	12	C10H6F2+
165.0406	8	C3H7F4NO2+
166.0456	6	C9H6F2N+
168.0431	16	C6H6F4N+
169.0507	149	C11H7NO+
170.0383	10	C11H5FN+
170.0545	18	C10[13]CH7NO+
171.0475	7	C11H6FN+
172.0364	18	C8H5F3N+
172.0543	16	C11H7FN+
173.0284	7	C7H5F2NO2+
178.0246	8	C7H5F3O2+
178.0445	6	C10H6F2N+
181.0484	6	C7H8F3O2+
182.0338	10	C10H5F3+
183.0402	291	C10H6F3+
184.0433	39	C9[13]CH6F3+
185.0496	60	C11H6FN2+
186.0332	6	C6H5F5N+
186.0523	16	C9H7F3N+
188.0486	25	C6H7F5N+
189.0403	7	C5H7F4NO2+
189.0531	6	C6H9F4O2+
190.0453	240	C14H6O+
191.0482	51	C13[13]CH6O+
192.0582	6	C11H9FO2+
193.0397	5	C12H5N2O+
196.0357	20	C10H5F3N+
197.0447	10	C10H6F3N+
198.0146	6	C12H2F2N+
198.036	12	C9H6F2NO2+
198.0485	11	C10H8F2O2+
200.0482	9	C7H7F5N+
201.0426	5	C6H7F4NO2+
202.0446	10	C12H6F2N+
203.0611	11	C11H8FN2O+
204.0493	17	C11H6F2N2+
205.0578	21	C8H8F3N2O+
206.0419	8	C8H7F3NO2+
208.054	9	C14H7FN+
210.0517	142	C11H7F3N+
211.0546	22	C10[13]CH7F3N+
213.0455	18	C12H6FN2O+
214.048	31	C7H8F4NO2+
215.0414	8	C12H5F2N2+
216.0443	23	C15H6NO+
217.0465	7	C13H7F2O+
218.0402	342	C15H5FN+
219.046	77	C14[13]CH5FN+
220.0515	19	C7H9F5O2+
222.0506	9	C12H8F2O2+
232.0443	9	C12H6F2N2O+
233.0509	110	C15H6FN2+
234.054	22	C14[13]CH6FN2+
236.0515	15	C12H8F2NO2+
238.0464	630	C15H6F2N+
239.0502	102	C14[13]CH6F2N+
246.0356	545	C16H5FNO+
247.0387	78	C15[13]CH5FNO+
248.0409	7	C14[13]C2H5FNO+
265.0535	11	C16H8FNO2+
266.0419	999	C16H6F2NO+
267.0451	154	C15[13]CH6F2NO+
268.0474	15	C14[13]C2H6F2NO+
284.0524	149	C16H8F2NO2+
285.0553	23	C15[13]CH8F2NO2+
307.069	5	C15H10F3N2O2+
309.0638	5	C18H8F3N2+
335.0626	7	C19H9F2N2O2+
337.0547	7	C17H8F5NO+
357.062	12	C19H9F4N2O+
358.0673	5	C18[13]CH9F4N2O+
377.0682	19	C19H10F5N2O+
378.0703	8	C19H11F5N2O+
