Mass spectrum: Vinyltriethoxysilane; GC-APCI-QTOF; MS2; CE: 30 eV; R=35000; [M+H]+
Name: Vinyltriethoxysilane
Formula: C8H18O3Si
Exact mass: 190.1025
SMILES: CCO[Si](C=C)(OCC)OCC
InChI: InChI=1S/C8H18O3Si/c1-5-9-12(8-4,10-6-2)11-7-3/h8H,4-7H2,1-3H3
Instrument: Bruker 450 GC coupled to maXis Impact
Instrument type: GC-APCI-QTOF
Ms type: MS2
Ion mode: POSITIVE
Ionization: APCI
Fragmentation mode: CID
Collision energy: 30 eV
Resolution: 35000
Column name: Rxi-5Sil MS column, 30m, 0.25mm i.d., 0.25Âµm film thickness, Restek
Retention time: 6.806 min
Base peak: 163.0807
Precursor m/z: 191.1098
Precursor type: [M+H]+
m/z	relative intensity	assigned
62.9908	847	H3O2Si+
80.9998	650	H5O3Si+
91.02	189	C2H7O2Si+
96.994	999	C4HO3+
101.0415	189	C4H9OSi+
107.0163	249	C2H7O3Si+
119.0516	196	C4H11O2Si+
135.0477	333	C4H11O3Si+
163.0821	438	C6H15O3Si+
