Mass spectrum: Propachlor-ESA; LC-ESI-QTOF; MS2; CE: 20 eV; R=35000; [M+H]+
Name: Propachlor-ESA
Name: 2-oxo-2-(N-propan-2-ylanilino)ethanesulfonic acid
Formula: C11H15NO4S
Exact mass: 257.0721790
SMILES: CC(C)N(C(=O)CS(O)(=O)=O)C1=CC=CC=C1
InChI: InChI=1S/C11H15NO4S/c1-9(2)12(10-6-4-3-5-7-10)11(13)8-17(14,15)16/h3-7,9H,8H2,1-2H3,(H,14,15,16)
Instrument: Bruker maXis Impact
Instrument type: LC-ESI-QTOF
Ms type: MS2
Ion mode: POSITIVE
Ionization: ESI
Fragmentation mode: CID
Collision energy: 20 eV
Resolution: 35000
Column name: Acclaim RSLC C18 2.2um, 2.1x100mm, Thermo
Retention time: 5.1 min
Base peak: 150.1116
Precursor m/z: 258.0795
Precursor type: [M+H]+
m/z	relative intensity	assigned
133.0856	106	C6H13O3+
134.0586	106	C5H10O4+
136.0744	146	C8H10NO+
198.021	387	C8H8NO3S+
216.0316	999	C8H10NO4S+
258.0792	96	C11H16NO4S+
