Mass spectrum: Tetracaine; LC-ESI-QTOF; MS2; CE: 20 eV; R=35000; [M+H]+
Name: Tetracaine
Name: 2-(dimethylamino)ethyl 4-(butylamino)benzoate
Formula: C15H24N2O2
Exact mass: 264.1837780
SMILES: CCCCNC1=CC=C(C=C1)C(=O)OCCN(C)C
InChI: InChI=1S/C15H24N2O2/c1-4-5-10-16-14-8-6-13(7-9-14)15(18)19-12-11-17(2)3/h6-9,16H,4-5,10-12H2,1-3H3
Instrument: Bruker maXis Impact
Instrument type: LC-ESI-QTOF
Ms type: MS2
Ion mode: POSITIVE
Ionization: ESI
Fragmentation mode: CID
Collision energy: 20 eV
Resolution: 35000
Column name: Acclaim RSLC C18 2.2um, 2.1x100mm, Thermo
Retention time: 6.270 min
Base peak: 265.1915
Precursor m/z: 265.1911
Precursor type: [M+H]+
m/z	relative intensity	assigned
176.107	999	C11H14NO+
178.1118	11	C10H14N2O+
220.1327	155	C13H18NO2+
221.1356	21	C12[13]CH18NO2+
265.1903	9	C15H25N2O2+
