Mass spectrum: Mirtazapine; LC-ESI-QTOF; MS2; CE: 20 eV; R=35000; [M+H]+
Name: Mirtazapine
Formula: C17H19N3
Exact mass: 265.1578976
SMILES: CN1CCN2C(C1)C1=C(CC3=C2N=CC=C3)C=CC=C1
InChI: InChI=1S/C17H19N3/c1-19-9-10-20-16(12-19)15-7-3-2-5-13(15)11-14-6-4-8-18-17(14)20/h2-8,16H,9-12H2,1H3
Instrument: Bruker maXis Impact
Instrument type: LC-ESI-QTOF
Ms type: MS2
Ion mode: POSITIVE
Ionization: ESI
Fragmentation mode: CID
Collision energy: 20 eV
Resolution: 35000
Column name: Acclaim RSLC C18 2.2um, 2.1x100mm, Thermo
Retention time: 5.4 min
Base peak: 266.1649
Precursor m/z: 266.1652
Precursor type: [M+H]+
m/z	relative intensity	assigned
194.0826	5	C13H10N2+
195.0912	617	C13H11N2+
209.1069	106	C14H13N2+
266.1651	999	C17H20N3+
267.1683	149	C16[13]CH20N3+
268.1708	10	C16H20N4+
