Mass spectrum: Alprazolam; LC-ESI-QTOF; MS2; CE: RAMP 21.8-32.7 eV; R=35000; [M+H]+
Name: Alprazolam
Name: 8-chloro-1-methyl-6-phenyl-4H-[1,2,4]triazolo[4,3-a][1,4]benzodiazepine
Formula: C17H13ClN4
Exact mass: 308.0828741
SMILES: Cc1nnc2n1-c3ccc(cc3C(=NC2)c4ccccc4)Cl
InChI: InChI=1S/C17H13ClN4/c1-11-20-21-16-10-19-17(12-5-3-2-4-6-12)14-9-13(18)7-8-15(14)22(11)16/h2-9H,10H2,1H3
Instrument: Bruker maXis Impact
Instrument type: LC-ESI-QTOF
Ms type: MS2
Ion mode: POSITIVE
Ionization: ESI
Fragmentation mode: CID
Collision energy: RAMP 21.8-32.7 eV
Resolution: 35000
Column name: Acclaim RSLC C18 2.2um, 2.1x100mm, Thermo
Retention time: 8.396 min
Base peak: 278.191
Precursor m/z: 309.0902
Precursor type: [M+H]+
m/z	relative intensity	assigned
131.0595	5	C8H7N2+
138.01	11	C7H5ClN+
165.0206	27	C8H6ClN2+
167.0185	7	C8H6[37]ClN2+
171.0783	5	C10H9N3+
172.0862	9	C10H10N3+
204.08	8	C15H10N+
205.0759	44	C14H9N2+
206.0477	21	C10H9ClN3+
206.0796	6	C13[13]CH9N2+
208.0449	5	C10H9[37]ClN3+
216.0682	5	C15H8N2+
224.0261	9	C14H7ClN+
226.0419	9	C14H9ClN+
227.0495	13	C14H10ClN+
233.0942	5	C15H11N3+
240.0515	8	C16H6N3+
241.0526	48	C14H10ClN2+
243.0498	10	C14H10[37]ClN2+
245.1069	10	C17H13N2+
251.0373	27	C15H8ClN2+
252.0425	5	C14[13]CH8ClN2+
253.0345	6	C15H8[37]ClN2+
255.068	17	C15H12ClN2+
257.0647	5	C15H12[37]ClN2+
274.1218	121	C17H14N4+
275.1251	20	C16[13]CH14N4+
280.0645	15	C16H11ClN3+
281.0721	524	C16H12ClN3+
282.0755	104	C15[13]CH12ClN3+
283.0695	136	C16H12[37]ClN3+
308.0827	7	C17H13ClN4+
309.091	999	C17H14ClN4+
310.094	185	C16[13]CH14ClN4+
311.0886	256	C17H14[37]ClN4+
