Mass spectrum: Vinyl laurate; GC-APCI-QTOF; MS2; CE: 10 eV; R=35000; [M+H]+
Name: Vinyl laurate
Formula: C14H26O2
Exact mass: 226.1933
SMILES: CCCCCCCCCCCC(=O)OC=C
InChI: InChI=1S/C14H26O2/c1-3-5-6-7-8-9-10-11-12-13-14(15)16-4-2/h4H,2-3,5-13H2,1H3
Instrument: Bruker 450 GC coupled to maXis Impact
Instrument type: GC-APCI-QTOF
Ms type: MS2
Ion mode: POSITIVE
Ionization: APCI
Fragmentation mode: CID
Collision energy: 10 eV
Resolution: 35000
Column name: Rxi-5Sil MS column, 30m, 0.25mm i.d., 0.25Âµm film thickness, Restek
Retention time: 12.864 min
Base peak: 183.1759
Precursor m/z: 227.2006
Precursor type: [M+H]+
m/z	relative intensity	assigned
57.0702	153	C4H9+
71.0849	51	C5H11+
95.0863	47	C7H11+
109.1008	64	C8H13+
123.1164	84	C9H15+
139.1123	30	C9H15O+
163.1519	115	C12H19+
164.154	22	C12H20+
165.1666	97	C12H21+
181.1613	94	C12H21O+
183.1765	999	C12H23O+
184.1796	74	C12H24O+
225.1898	39	C14H25O2+
227.2019	64	C14H27O2+
