Mass spectrum: Bifonazol; LC-ESI-QTOF; MS2; CE: Ramp 21.8-32.7 eV; R=35000; [M+H]+
Name: Bifonazol
Name: Bifonazole
Name: 1-[phenyl-(4-phenylphenyl)methyl]imidazole
Formula: C22H18N2
Exact mass: 310.1469986
SMILES: C1=CN(C=N1)C(C1=CC=CC=C1)C1=CC=C(C=C1)C1=CC=CC=C1
InChI: InChI=1S/C22H18N2/c1-3-7-18(8-4-1)19-11-13-21(14-12-19)22(24-16-15-23-17-24)20-9-5-2-6-10-20/h1-17,22H
Instrument: Bruker maXis Impact
Instrument type: LC-ESI-QTOF
Ms type: MS2
Ion mode: POSITIVE
Ionization: ESI
Fragmentation mode: CID
Collision energy: Ramp 21.8-32.7 eV
Resolution: 35000
Column name: Acclaim RSLC C18 2.2um, 2.1x100mm, Thermo
Retention time: 10.585 min
Base peak: 311.1547
Precursor m/z: 311.1543
Precursor type: [M+H]+
m/z	relative intensity	assigned
91.0542	92	C7H7+
92.0575	7	C6[13]CH7+
115.0545	61	C9H7+
116.0576	6	C8[13]CH7+
141.0687	11	C11H9+
165.0692	125	C13H9+
166.073	17	C12[13]CH9+
202.0768	10	C16H10+
215.085	39	C17H11+
216.089	8	C16[13]CH11+
227.0848	6	C18H11+
228.0932	144	C18H12+
229.0965	23	C17[13]CH12+
241.101	50	C19H13+
242.1067	23	C19H14+
243.1173	999	C19H15+
244.1201	436	C19H16+
245.1239	28	C18[13]CH16+
