Mass spectrum: Paramethasone; LC-ESI-QTOF; MS2; CE: 50 eV; R=35000; [M+H]+
Name: Paramethasone
Name: (6S,8S,9S,10R,11S,13S,14S,16R,17R)-6-fluoro-11,17-dihydroxy-17-(2-hydroxyacetyl)-10,13,16-trimethyl-7,8,9,11,12,14,15,16-octahydro-6H-cyclopenta[a]phenanthren-3-one
Formula: C22H29FO5
Exact mass: 392.1999022
SMILES: [H][C@@]12C[C@@H](C)[C@](O)(C(=O)CO)[C@@]1(C)C[C@H](O)[C@@]1([H])[C@@]2([H])C[C@H](F)C2=CC(=O)C=C[C@]12C
InChI: InChI=1S/C22H29FO5/c1-11-6-14-13-8-16(23)15-7-12(25)4-5-20(15,2)19(13)17(26)9-21(14,3)22(11,28)18(27)10-24/h4-5,7,11,13-14,16-17,19,24,26,28H,6,8-10H2,1-3H3/t11-,13+,14+,16+,17+,19-,20+,21+,22+/m1/s1
Instrument: Bruker maXis Impact
Instrument type: LC-ESI-QTOF
Ms type: MS2
Ion mode: POSITIVE
Ionization: ESI
Fragmentation mode: CID
Collision energy: 50 eV
Resolution: 35000
Column name: Acclaim RSLC C18 2.2um, 2.1x100mm, Thermo
Retention time: 8.675 min
Base peak: 435.2175
Precursor m/z: 393.2072
Precursor type: [M+H]+
m/z	relative intensity	assigned
115.0534	117	C9H7+
117.07	96	C9H9+
119.084	123	C9H11+
120.0879	20	C8[13]CH11+
121.0641	510	C8H9O+
122.0678	57	C7[13]CH9O+
123.0789	26	C8H11O+
127.053	25	C10H7+
128.0614	244	C10H8+
129.0683	157	C10H9+
130.0758	49	C10H10+
131.0484	43	C9H7O+
131.0841	127	C10H11+
132.0558	76	C9H8O+
132.0864	18	C9[13]CH11+
133.0633	45	C9H9O+
133.1002	59	C10H13+
135.0799	93	C9H11O+
135.1167	15	C10H15+
136.0831	13	C8[13]CH11O+
137.0938	18	C9H13O+
139.0543	160	C8H8FO+
140.0596	21	C7[13]CH8FO+
141.0685	99	C11H9+
142.0759	117	C11H10+
143.084	208	C11H11+
144.0558	41	C10H8O+
144.0881	40	C10[13]CH11+
145.0635	244	C10H9O+
145.1	171	C11H13+
146.0714	63	C10H10O+
146.1037	21	C10[13]CH13+
147.0797	434	C10H11O+
147.117	33	C11H15+
148.0821	52	C9[13]CH11O+
149.023	20	C8H5O3+
149.0948	35	C10H13O+
151.0753	20	C9H11O2+
152.06	71	C12H8+
153.0683	79	C12H9+
154.0744	50	C12H10+
155.0843	126	C12H11+
156.055	14	C11H8O+
156.0913	50	C12H12+
157.0636	46	C11H9O+
157.0987	96	C12H13+
158.0713	138	C11H10O+
159.0794	280	C11H11O+
159.115	33	C12H15+
160.0845	48	C10[13]CH11O+
161.0939	90	C11H13O+
163.1101	39	C11H15O+
165.0687	207	C13H9+
166.0749	75	C13H10+
167.0842	114	C13H11+
168.0544	15	C12H8O+
168.091	52	C13H12+
169.0632	128	C12H9O+
169.0997	84	C13H13+
170.0702	59	C12H10O+
171.0794	999	C12H11O+
172.0832	162	C11[13]CH11O+
173.0937	119	C12H13O+
174.0986	28	C11[13]CH13O+
175.1109	31	C12H15O+
176.1185	14	C12H16O+
177.0659	17	C14H9+
178.077	95	C14H10+
179.0838	203	C14H11+
180.0906	67	C14H12+
181.0641	126	C13H9O+
181.0993	102	C11H14FO+
182.0711	111	C13H10O+
182.1062	21	C10[13]CH14FO+
183.0796	110	C13H11O+
183.1171	26	C14H15+
184.0865	62	C13H12O+
185.0943	147	C13H13O+
186.0988	17	C12[13]CH13O+
187.0733	20	C12H11O2+
187.1108	24	C13H15O+
189.0693	66	C15H9+
189.088	16	C12H13O2+
190.0757	68	C15H10+
191.0844	162	C15H11+
192.0915	108	C15H12+
193.0997	132	C15H13+
194.0723	94	C14H10O+
194.1066	78	C15H14+
195.0794	205	C14H11O+
195.1142	85	C15H15+
196.0862	179	C14H12O+
196.1209	17	C14[13]CH15+
197.095	253	C14H13O+
197.1277	13	C15H17+
198.1	60	C13[13]CH13O+
199.1116	53	C14H15O+
202.077	31	C16H10+
203.0842	62	C16H11+
204.0906	56	C16H12+
205.0619	31	C15H9O+
205.1003	131	C16H13+
206.0701	34	C15H10O+
206.1064	57	C16H14+
207.0798	85	C15H11O+
207.1158	66	C16H15+
208.0872	257	C15H12O+
208.1235	19	C15[13]CH15+
209.095	252	C15H13O+
209.1314	38	C16H17+
210.1007	175	C15H14O+
211.1099	142	C15H15O+
212.1171	60	C15H16O+
213.094	16	C11H14FO3+
213.1276	26	C15H17O+
215.0841	46	C17H11+
215.1068	33	C14H15O2+
216.0905	49	C17H12+
217.0999	72	C17H13+
218.0681	21	C16H10O+
218.1068	30	C17H14+
219.0803	69	C16H11O+
219.1157	69	C17H15+
220.0871	110	C16H12O+
220.1215	31	C17H16+
221.0951	182	C16H13O+
221.1308	39	C17H17+
222.1027	401	C16H14O+
223.1088	209	C16H15O+
224.0817	13	C15H12O2+
224.1177	116	C16H16O+
225.0906	21	C15H13O2+
225.1239	59	C16H17O+
226.1297	14	C15[13]CH17O+
227.0832	21	C18H11+
227.1078	14	C12H16FO3+
229.1015	52	C18H13+
230.1065	43	C18H14+
231.0805	27	C17H11O+
231.1178	41	C15H16FO+
232.089	42	C14H13FO2+
233.0946	115	C17H13O+
233.1289	20	C18H17+
234.103	177	C17H14O+
234.1362	15	C18H18+
235.1102	287	C17H15O+
236.1161	93	C17H16O+
237.1265	133	C17H17O+
238.1279	28	C16[13]CH17O+
239.142	58	C17H19O+
240.1467	15	C17H20O+
241.0993	19	C19H13+
242.1089	16	C19H14+
243.117	56	C19H15+
244.088	21	C18H12O+
244.1234	30	C19H16+
245.0951	101	C18H13O+
245.1342	29	C16H18FO+
246.1039	74	C18H14O+
246.1365	24	C19H18+
247.1101	210	C18H15O+
248.1173	141	C18H16O+
249.1247	124	C15H18FO2+
250.1324	31	C14[13]CH18FO2+
251.1067	19	C17H15O2+
251.1411	28	C18H19O+
256.1261	15	C17H17FO+
257.0935	16	C19H13O+
257.13	16	C20H17+
258.1412	15	C17H19FO+
259.111	54	C19H15O+
259.1548	13	C13H23O5+
260.1166	61	C19H16O+
261.0873	13	C18H13O2+
261.0961	17	C15H14FO3+
261.1266	90	C19H17O+
261.1601	18	C20H21+
262.096	20	C18H14O2+
262.1338	85	C19H18O+
263.105	18	C18H15O2+
263.1412	86	C19H19O+
264.113	17	C18H16O2+
264.1467	35	C19H20O+
271.1098	66	C20H15O+
272.1174	43	C20H16O+
273.1275	22	C20H17O+
274.1355	35	C20H18O+
275.1075	13	C16H16FO3+
275.1413	22	C20H19O+
276.1492	23	C20H20O+
277.1235	14	C16H18FO3+
277.1587	26	C20H21O+
278.1619	13	C20H22O+
279.1749	14	C20H23O+
283.1531	13	C15H23O5+
285.1301	21	C18H18FO2+
286.1323	32	C21H18O+
287.1359	20	C14H20FO5+
289.1228	15	C20H17O2+
