Mass spectrum: Ethyl methacrylate; GC-APCI-QTOF; MS2; CE: 10 eV; R=35000; [M]+
Name: Ethyl methacrylate
Formula: C6H10O2
Exact mass: 114.0681
SMILES: CCOC(=O)C(=C)C
InChI: InChI=1S/C6H10O2/c1-4-8-6(7)5(2)3/h2,4H2,1,3H3
Instrument: Bruker 450 GC coupled to maXis Impact
Instrument type: GC-APCI-QTOF
Ms type: MS2
Ion mode: POSITIVE
Ionization: APCI
Fragmentation mode: CID
Collision energy: 10 eV
Resolution: 35000
Column name: Rxi-5Sil MS column, 30m, 0.25mm i.d., 0.25Âµm film thickness, Restek
Retention time: 10.575 min
Base peak: 158.1564
Precursor m/z: 114.0675
Precursor type: [M]+
m/z	relative intensity	assigned
113.0596	999	C6H9O2+
