Mass spectrum: 2-Trifluoromethyl-benzenesulfonamide; LC-ESI-QTOF; MS2; CE: 20 eV; R=35000; [M-H]-
Name: 2-Trifluoromethyl-benzenesulfonamide
Name: 2-(trifluoromethyl)benzenesulfonamide
Formula: C7H6F3NO2S
Exact mass: 225.0071341
SMILES: NS(=O)(=O)C1=C(C=CC=C1)C(F)(F)F
InChI: InChI=1S/C7H6F3NO2S/c8-7(9,10)5-3-1-2-4-6(5)14(11,12)13/h1-4H,(H2,11,12,13)
Instrument: Bruker maXis Impact
Instrument type: LC-ESI-QTOF
Ms type: MS2
Ion mode: NEGATIVE
Ionization: ESI
Fragmentation mode: CID
Collision energy: 20 eV
Resolution: 35000
Column name: Acclaim RSLC C18 2.2um, 2.1x100mm, Thermo
Retention time: 4.986 min
Base peak: 168.9695
Precursor m/z: 223.9999
Precursor type: [M-H]-
m/z	relative intensity	assigned
120.0299	108	CH5F3NO2-
140.0321	251	C7H4F2N-
145.0264	302	C7H4F3-
160.0374	999	C7H5F3N-
224.0023	442	C7H5F3NO2S-
