Mass spectrum: Nordiazepam; LC-ESI-QTOF; MS2; CE: 50 eV; R=35000; [M+H]+
Name: Nordiazepam
Name: 7-chloro-5-phenyl-1,3-dihydro-1,4-benzodiazepin-2-one
Formula: C15H11ClN2O
Exact mass: 270.0559907
SMILES: ClC1=CC2=C(NC(=O)CN=C2C2=CC=CC=C2)C=C1
InChI: InChI=1S/C15H11ClN2O/c16-11-6-7-13-12(8-11)15(17-9-14(19)18-13)10-4-2-1-3-5-10/h1-8H,9H2,(H,18,19)
Instrument: Bruker maXis Impact
Instrument type: LC-ESI-QTOF
Ms type: MS2
Ion mode: POSITIVE
Ionization: ESI
Fragmentation mode: CID
Collision energy: 50 eV
Resolution: 35000
Column name: Acclaim RSLC C18 2.2um, 2.1x100mm, Thermo
Retention time: 9.0 min
Base peak: 271.063
Precursor m/z: 271.0633
Precursor type: [M+H]+
m/z	relative intensity	assigned
116.049	66	C8H6N+
117.0558	42	C8H7N+
122.9986	46	C7H4Cl+
123.9942	28	C9O+
127.0171	95	C9H3O+
129.0145	45	ClH6N4O2+
129.0439	153	C8H5N2+
130.0512	162	C8H6N2+
131.059	54	C8H7N2+
137.0033	18	C7H4ClN+
138.0094	399	C10H2O+
139.0127	43	C2H6ClN3O2+
140.025	999	C10H4O+
141.0281	87	C2H8ClN3O2+
142.0222	327	CH7ClN4O2+
143.0264	20	C7H8ClO+
150.01	44	C11H2O+
151.0536	50	C12H7+
152.0607	102	C12H8+
153.0678	47	C12H9+
158.0465	110	C9H6N2O+
163.0053	60	C11HNO+
163.0538	52	C13H7+
164.0131	21	C11H2NO+
164.0606	91	C13H8+
165.0203	720	C11H3NO+
165.069	137	C13H9+
166.0045	75	C8H5ClNO+
166.023	67	C3H7ClN4O2+
166.0721	30	C8H10N2O2+
167.0723	23	C12H9N+
168.0009	30	C14+
169.0632	49	C12H9O+
177.9904	18	C8H3ClN2O+
178.0653	85	C13H8N+
179.0718	156	C13H9N+
180.0796	672	C13H10N+
181.086	148	C13H11N+
182.0807	18	C12H10N2+
190.0645	575	C14H8N+
191.0715	405	C14H9N+
192.0779	104	C14H10N+
193.0169	23	C9H6ClN2O+
193.0856	110	C14H11N+
194.0812	18	C13H10N2+
194.0899	30	C9H12N3O2+
199.0288	108	C14H3N2+
200.0338	21	C14H4N2+
201.0284	39	C7H8ClN3O2+
205.0749	52	C14H9N2+
206.0586	27	C14H8NO+
206.0825	213	C14H10N2+
207.0672	77	C14H9NO+
207.0898	653	C14H11N2+
208.0983	893	C14H12N2+
214.0413	188	C13H9ClN+
215.0463	28	C13H10ClN+
216.0375	59	C13H9ClO+
216.0589	18	C13H11ClN+
217.0749	51	C15H9N2+
218.0824	77	C15H10N2+
219.0662	40	C15H9NO+
220.0719	22	C15H10NO+
226.04	79	C14H9ClN+
227.0479	65	C14H10ClN+
228.0401	29	C13H9ClN2+
228.0491	22	C13H9ClN2+
229.0464	27	C14H10ClO+
235.0851	33	C15H11N2O+
241.0522	187	C14H10ClN2+
242.0567	48	C14H11ClN2+
243.0491	64	C14H10ClNO+
243.0643	28	C14H12ClN2+
