Mass spectrum: Sotalol; LC-ESI-QTOF; MS2; CE: 50 eV; R=35000; [M+H]+
Name: Sotalol
Name: N-[4-[1-hydroxy-2-(propan-2-ylamino)ethyl]phenyl]methanesulfonamide
Formula: C12H20N2O3S
Exact mass: 272.1194635
SMILES: CC(C)NCC(O)C1=CC=C(NS(C)(=O)=O)C=C1
InChI: InChI=1S/C12H20N2O3S/c1-9(2)13-8-12(15)10-4-6-11(7-5-10)14-18(3,16)17/h4-7,9,12-15H,8H2,1-3H3
Instrument: Bruker maXis Impact
Instrument type: LC-ESI-QTOF
Ms type: MS2
Ion mode: POSITIVE
Ionization: ESI
Fragmentation mode: CID
Collision energy: 50 eV
Resolution: 35000
Column name: Acclaim RSLC C18 2.2um, 2.1x100mm, Thermo
Retention time: 2.831 min
Base peak: 273.126
Precursor m/z: 273.1267
Precursor type: [M+H]+
m/z	relative intensity	assigned
116.0488	60	C8H6N+
117.0562	84	C8H7N+
118.0531	17	CH12NO3S+
118.0641	54	C8H8N+
119.0595	38	C7H7N2+
120.0639	5	C4H10NO3+
131.0597	23	C8H7N2+
132.0669	207	C8H8N2+
133.0749	999	C8H9N2+
134.0595	18	C8H8NO+
134.0803	138	C7[13]CH9N2+
135.0855	11	C6H15OS+
144.0549	6	C2H12N2O3S+
