Mass spectrum: Pirimiphos-methyl; LC-ESI-QTOF; MS2; CE: 40 eV; R=35000; [M+H]+
Name: Pirimiphos-methyl
Name: 4-dimethoxyphosphinothioyloxy-N,N-diethyl-6-methylpyrimidin-2-amine
Formula: C11H20N3O3PS
Exact mass: 305.0962991
SMILES: CCN(CC)C1=NC(C)=CC(OP(=S)(OC)OC)=N1
InChI: InChI=1S/C11H20N3O3PS/c1-6-14(7-2)11-12-9(3)8-10(13-11)17-18(19,15-4)16-5/h8H,6-7H2,1-5H3
Instrument: Bruker maXis Impact
Instrument type: LC-ESI-QTOF
Ms type: MS2
Ion mode: POSITIVE
Ionization: ESI
Fragmentation mode: CID
Collision energy: 40 eV
Resolution: 35000
Column name: Acclaim RSLC C18 2.2um, 2.1x100mm, Thermo
Retention time: 11.413 min
Base peak: 306.1039
Precursor m/z: 306.1036
Precursor type: [M+H]+
m/z	relative intensity	assigned
108.0555	17	C5H6N3+
109.0755	5	C6H9N2+
118.0048	5	C7H2O2+
119.0591	19	H12N2O3P+
121.0621	9	C6H7N3+
123.0544	18	C6H7N2O+
123.0908	70	C7H11N2+
124.0944	6	C6[13]CH11N2+
124.9812	583	C4HN2OS+
125.9841	14	C3[13]CHN2OS+
126.9767	24	C4HN2O[34]S+
127.0147	8	H6N3O3P+
134.0701	13	C7H8N3+
134.9654	39	CH2N3OPS+
135.0774	8	H14N3O3P+
136.086	724	C7H10N3+
137.0106	11	C6H3NO3+
137.0697	5	C7H9N2O+
137.0891	56	C6[13]CH10N3+
137.1061	8	CH18N2O3P+
138.0655	6	C6H8N3O+
140.0272	5	C5H6N3S+
140.0807	48	C6H10N3O+
142.9916	320	C4H3N2O2S+
143.9944	10	C3[13]CH3N2O2S+
144.9868	14	C4H3N2O2[34]S+
147.0306	8	C8H5NO2+
147.115	11	C4H20O3P+
149.0349	10	C3H8N3O2P+
150.0306	16	C8H6O3+
151.0255	263	C7H5NO3+
152.0288	12	C6[13]CH5NO3+
152.0804	21	C7H10N3O+
152.9754	18	C5HN2O2S+
153.0464	7	C8H10OP+
154.0417	10	C7H9NOP+
156.0579	16	C7H11NOP+
159.0306	27	C9H5NO2+
163.0074	8	C8H5NOS+
164.1172	999	C6H16N2O3+
165.0409	43	C8H7NO3+
165.1206	87	C5[13]CH16N2O3+
166.0426	17	C7H8N3S+
166.096	12	C8H12N3O+
166.9916	5	C10H2NP+
167.9865	16	C5H2N3O2S+
168.058	44	C8H11NOP+
168.1118	182	C8H14N3O+
169.0621	6	C7[13]CH11NOP+
169.1155	20	C7[13]CH14N3O+
175.9911	11	C7H2N3OS+
177.0411	5	C9H7NO3+
179.057	209	C9H9NO3+
180.0595	15	C8[13]CH9NO3+
182.0726	17	CH17N3O3PS+
184.0888	14	C9H15NOP+
191.0553	6	C10H9NO3+
194.1283	6	C10H16N3O+
196.0881	6	C2H19N3O3PS+
196.1432	46	C10H18N3O+
197.1463	7	C9[13]CH18N3O+
207.0884	46	C11H13NO3+
208.0197	11	C6H11NO3PS+
218.0135	31	C11H7O3P+
233.0149	16	C7H10N2O3PS+
236.0247	44	C10H8N2O3S+
244.0858	5	C9H15N3O3P+
246.0452	67	C8H13N3O2PS+
247.0485	5	C7[13]CH13N3O2PS+
250.04	19	C11H10N2O3S+
264.0573	11	C8H15N3O3PS+
274.0768	18	C10H17N3O2PS+
278.0714	44	C9H17N3O3PS+
279.0747	6	C8[13]CH17N3O3PS+
306.1028	39	C11H21N3O3PS+
307.1063	6	C10[13]CH21N3O3PS+
