Mass spectrum: Venlafaxine N-Oxide; LC-ESI-QTOF; MS2; CE: 20 eV; R=35000; [M+H]+
Name: Venlafaxine N-Oxide
Name: SCHEMBL3276808
Name: 2-(1-hydroxycyclohexyl)-2-(4-methoxyphenyl)-N,N-dimethylethanamine oxide
Formula: C17H27NO3
Exact mass: 293.1990937
SMILES: OC1(C(C2=CC=C(OC)C=C2)C[N+](C)(C)[O-])CCCCC1
InChI: InChI=1S/C17H27NO3/c1-18(2,20)13-16(17(19)11-5-4-6-12-17)14-7-9-15(21-3)10-8-14/h7-10,16,19H,4-6,11-13H2,1-3H3
Instrument: Bruker maXis Impact
Instrument type: LC-ESI-QTOF
Ms type: MS2
Ion mode: POSITIVE
Ionization: ESI
Fragmentation mode: CID
Collision energy: 20 eV
Resolution: 35000
Column name: Acclaim RSLC C18 2.2um, 2.1x100mm, Thermo
Retention time: 6.8 min
Base peak: 294.2066
Precursor m/z: 294.2064
Precursor type: [M+H]+
m/z	relative intensity	assigned
121.0643	999	C8H9O+
122.0678	74	C7[13]CH9O+
135.0796	23	C9H11O+
147.0796	10	C10H11O+
163.0982	5	C10H13NO+
178.1221	90	C11H16NO+
179.1251	11	C6H17N3O3+
215.1427	70	C15H19O+
216.1457	10	C10H20N2O3+
233.1531	27	C15H21O2+
294.2068	324	C17H28NO3+
295.2097	51	C16[13]CH28NO3+
296.2124	5	C15[13]C2H28NO3+
