Mass spectrum: 2-Amino-1-methyl-6-phenylimidazo[4,5-b]pyridine (PhIP); LC-ESI-QTOF; MS2; CE: 40 eV; R=35000; [M+H]+
Name: 2-Amino-1-methyl-6-phenylimidazo[4,5-b]pyridine (PhIP)
Name: 2-Amino-1-methyl-6-phenylimidazo[4,5-b]pyridine
Name: 1-methyl-6-phenylimidazo[4,5-b]pyridin-2-amine
Formula: C13H12N4
Exact mass: 224.1061964
SMILES: CN1C(N)=NC2=NC=C(C=C12)C1=CC=CC=C1
InChI: InChI=1S/C13H12N4/c1-17-11-7-10(9-5-3-2-4-6-9)8-15-12(11)16-13(17)14/h2-8H,1H3,(H2,14,15,16)
Instrument: Bruker maXis Impact
Instrument type: LC-ESI-QTOF
Ms type: MS2
Ion mode: POSITIVE
Ionization: ESI
Fragmentation mode: CID
Collision energy: 40 eV
Resolution: 35000
Column name: Acclaim RSLC C18 2.2um, 2.1x100mm, Thermo
Retention time: 5.687 min
Base peak: 225.1132
Precursor m/z: 225.1135
Precursor type: [M+H]+
m/z	relative intensity	assigned
115.0534	14	C9H7+
127.0533	6	C10H7+
128.0486	5	C9H6N+
130.0641	28	C9H8N+
140.0484	53	C10H6N+
141.0557	24	C10H7N+
142.0637	15	C10H8N+
143.0713	14	C10H9N+
147.0653	8	C7H7N4+
154.0639	20	C11H8N+
155.0593	26	C10H7N2+
156.0663	13	C10H8N2+
156.079	8	C11H10N+
157.075	32	C10H9N2+
158.0802	5	C9[13]CH9N2+
167.0591	31	C11H7N2+
168.0671	75	C11H8N2+
169.0741	24	C11H9N2+
170.0812	6	C11H10N2+
181.0747	13	C12H9N2+
182.0703	20	C11H8N3+
183.0783	69	C11H9N3+
184.0841	14	C11H10N3+
193.0621	5	C12H7N3+
198.1016	5	C12H12N3+
208.086	14	C13H10N3+
209.0817	66	C12H9N4+
210.0896	999	C12H10N4+
211.0924	103	C11[13]CH10N4+
212.0952	5	C10[13]C2H10N4+
223.097	5	C13H11N4+
225.1132	221	C13H13N4+
226.1162	35	C12[13]CH13N4+
