Mass spectrum: Metolachlor-ESA; LC-ESI-QTOF; MS2; CE: 50 eV; R=35000; [M+H]+
Name: Metolachlor-ESA
Name: Metolachlor esa
Name: 2-[2-ethyl-N-(1-methoxypropan-2-yl)-6-methylanilino]-2-oxoethanesulfonic acid
Formula: C15H23NO5S
Exact mass: 329.1296938
SMILES: CCC1=CC=CC(C)=C1N(C(C)COC)C(=O)CS(O)(=O)=O
InChI: InChI=1S/C15H23NO5S/c1-5-13-8-6-7-11(2)15(13)16(12(3)9-21-4)14(17)10-22(18,19)20/h6-8,12H,5,9-10H2,1-4H3,(H,18,19,20)
Instrument: Bruker maXis Impact
Instrument type: LC-ESI-QTOF
Ms type: MS2
Ion mode: POSITIVE
Ionization: ESI
Fragmentation mode: CID
Collision energy: 50 eV
Resolution: 35000
Column name: Acclaim RSLC C18 2.2um, 2.1x100mm, Thermo
Retention time: 7.0 min
Base peak: 330.1363
Precursor m/z: 330.137
Precursor type: [M+H]+
m/z	relative intensity	assigned
115.0519	30	CH11N2O2S+
117.0567	44	C8H7N+
117.0686	39	C9H9+
118.0641	42	C8H8N+
119.0721	37	C8H9N+
119.0856	37	C9H11+
120.0785	71	C5H12O3+
128.06	44	C10H8+
129.0681	33	C10H9+
130.0637	116	C6H10O3+
131.0726	116	C9H9N+
132.0796	307	C9H10N+
133.0873	111	C9H11N+
134.0952	184	C9H12N+
135.1015	52	C6H15O3+
136.1119	36	C9H14N+
143.0746	49	C4H15O3S+
143.0827	66	H17NO5S+
144.0795	356	C10H10N+
145.0874	547	C10H11N+
146.0949	441	C7H14O3+
147.0994	56	C7H15O3+
148.1116	39	C10H14N+
158.0951	198	C8H14O3+
159.1028	308	C8H15O3+
160.075	82	C10H10NO+
160.1106	999	C8H16O3+
161.0797	27	C7H13O4+
162.0899	42	C7H14O4+
174.1267	869	C12H16N+
175.1298	123	C11[13]CH16N+
176.1417	118	C9H20O3+
188.105	56	C9H16O4+
202.1217	755	C13H16NO+
203.1243	109	C12[13]CH16NO+
