Mass spectrum: Dioctyl Adipate; GC-APCI-QTOF; MS2; CE: 10 eV; R=35000; [M]+
Name: Dioctyl Adipate
Formula: C22H42O4
Exact mass: 370.3083
SMILES: CCCCC(CC)COC(=O)CCCCC(=O)OCC(CC)CCCC
InChI: InChI=1S/C22H42O4/c1-5-9-13-19(7-3)17-25-21(23)15-11-12-16-22(24)26-18-20(8-4)14-10-6-2/h19-20H,5-18H2,1-4H3
Instrument: Bruker 450 GC coupled to maXis Impact
Instrument type: GC-APCI-QTOF
Ms type: MS2
Ion mode: POSITIVE
Ionization: APCI
Fragmentation mode: CID
Collision energy: 10 eV
Resolution: 35000
Column name: Rxi-5Sil MS column, 30m, 0.25mm i.d., 0.25Âµm film thickness, Restek
Retention time: 22.597 min
Base peak: 283.2621
Precursor m/z: 370.3078
Precursor type: [M]+
m/z	relative intensity	assigned
123.1183	47	C9H15+
151.1472	59	C11H19+
167.179	50	C12H23+
247.2448	52	C18H31+
249.2583	96	C18H33+
265.2527	59	C18H33O+
267.2673	999	C18H35O+
268.2727	286	C18H36O+
338.2773	63	C21H38O3+
369.2929	61	C22H41O4+
