Mass spectrum: DCOIT; LC-ESI-QTOF; MS2; CE: 50 eV; R=35000; [M+H]+
Name: DCOIT
Name: Kathon 930
Name: 4,5-dichloro-2-octyl-1,2-thiazol-3-one
Formula: C11H17Cl2NOS
Exact mass: 281.0407905
SMILES: CCCCCCCCN1SC(Cl)=C(Cl)C1=O
InChI: InChI=1S/C11H17Cl2NOS/c1-2-3-4-5-6-7-8-14-11(15)9(12)10(13)16-14/h2-8H2,1H3
Instrument: Bruker maXis Impact
Instrument type: LC-ESI-QTOF
Ms type: MS2
Ion mode: POSITIVE
Ionization: ESI
Fragmentation mode: CID
Collision energy: 50 eV
Resolution: 35000
Column name: Acclaim RSLC C18 2.2um, 2.1x100mm, Thermo
Retention time: 12.451 min
Base peak: 282.0481
Precursor m/z: 282.0481
Precursor type: [M+H]+
m/z	relative intensity	assigned
116.9441	7	C3ClNS+
122.9384	23	C3HCl2O+
124.9379	8	C3HCl[37]ClO+
126.9158	136	C2HCl2S+
128.9136	80	C2HCl[37]ClS+
134.9529	641	C3H2ClNOS+
135.9556	25	C2[13]CH2ClNOS+
136.9498	162	C3H2[37]ClNOS+
142.9107	6	C2HCl2OS+
149.0226	9	C11H3N+
150.0272	10	C6H11ClS+
151.9109	120	C3Cl2NS+
153.9076	74	C3Cl[37]ClNS+
169.9218	999	C3H2Cl2NOS+
170.9245	43	C2[13]CH2Cl2NOS+
171.9188	651	C3H2Cl[37]ClNOS+
