Mass spectrum: Methimazole; LC-ESI-QTOF; MS2; CE: Ramp 14.9-22.4 eV; R=35000; [M+H]+
Name: Methimazole
Name: 3-methyl-1H-imidazole-2-thione
Formula: C4H6N2S
Exact mass: 114.0252
SMILES: Cn1ccnc1S
InChI: InChI=1S/C4H6N2S/c1-6-3-2-5-4(6)7/h2-3H,1H3,(H,5,7)
Instrument: Bruker maXis Impact
Instrument type: LC-ESI-QTOF
Ms type: MS2
Ion mode: POSITIVE
Ionization: ESI
Fragmentation mode: CID
Collision energy: Ramp 14.9-22.4 eV
Resolution: 35000
Column name: Acclaim RSLC C18 2.2um, 2.1x100mm, Thermo
Retention time: 2.7 min
Base peak: 79.0219
Precursor m/z: 115.0324
Precursor type: [M+H]+
m/z	relative intensity	assigned
56.049	192	C3H6N+
57.0568	499	C3H7N+
58.9946	30	C2H3S+
69.0441	17	C3H5N2+
71.0598	21	C3H7N2+
74.0049	79	C2H4NS+
81.0435	11	C4H5N2+
82.0522	15	C4H6N2+
83.0602	33	C4H7N2+
88.0214	90	C3H6NS+
100.0091	19	C3H4N2S+
114.0239	13	C4H6N2S+
115.0327	999	C4H7N2S+
117.0285	59	C4H7NOS+
