Mass spectrum: Linuron; LC-ESI-QTOF; MS2; CE: 10 eV; R=35000; [M-H]-
Name: Linuron
Name: 3-(3,4-dichlorophenyl)-1-methoxy-1-methylurea
Formula: C9H10Cl2N2O2
Exact mass: 248.0119329
SMILES: CON(C)C(=O)NC1=CC=C(Cl)C(Cl)=C1
InChI: InChI=1S/C9H10Cl2N2O2/c1-13(15-2)9(14)12-6-3-4-7(10)8(11)5-6/h3-5H,1-2H3,(H,12,14)
Instrument: Bruker maXis Impact
Instrument type: LC-ESI-QTOF
Ms type: MS2
Ion mode: NEGATIVE
Ionization: ESI
Fragmentation mode: CID
Collision energy: 10 eV
Resolution: 35000
Column name: Acclaim RSLC C18 2.2um, 2.1x100mm, Thermo
Retention time: 9.251 min
Base peak: 159.9718
Precursor m/z: 247.0047
Precursor type: [M-H]-
m/z	relative intensity	assigned
123.9953	15	C9O-
159.9721	999	C6H4Cl2N-
160.9753	100	C5[13]CH4Cl2N-
161.9689	588	C6H4Cl[37]ClN-
162.9746	31	C6H5Cl2O-
185.9548	37	C7H2Cl2NO-
187.9507	16	C7H2Cl[37]ClNO-
214.9782	110	C8H5Cl2N2O-
216.9756	53	C8H5Cl[37]ClN2O-
231.9788	112	C8H6Cl2N2O2-
232.985	18	C8H7Cl2N2O2-
233.9773	76	C8H6Cl[37]ClN2O2-
247.0042	114	C9H9Cl2N2O2-
248.9994	61	C9H9Cl[37]ClN2O2-
