Mass spectrum: Glibenclamide; LC-ESI-QTOF; MS2; CE: 10 eV; R=35000; [M-H]-
Name: Glibenclamide
Name: Glyburide
Name: 5-chloro-N-[2-[4-(cyclohexylcarbamoylsulfamoyl)phenyl]ethyl]-2-methoxybenzamide
Formula: C23H28ClN3O5S
Exact mass: 493.1438197
SMILES: COC1=C(C=C(Cl)C=C1)C(=O)NCCC1=CC=C(C=C1)S(=O)(=O)NC(=O)NC1CCCCC1
InChI: InChI=1S/C23H28ClN3O5S/c1-32-21-12-9-17(24)15-20(21)22(28)25-14-13-16-7-10-19(11-8-16)33(30,31)27-23(29)26-18-5-3-2-4-6-18/h7-12,15,18H,2-6,13-14H2,1H3,(H,25,28)(H2,26,27,29)
Instrument: Bruker maXis Impact
Instrument type: LC-ESI-QTOF
Ms type: MS2
Ion mode: NEGATIVE
Ionization: ESI
Fragmentation mode: CID
Collision energy: 10 eV
Resolution: 35000
Column name: Acclaim RSLC C18 2.2um, 2.1x100mm, Thermo
Retention time: 9.361 min
Base peak: 492.134
Precursor m/z: 492.1365
Precursor type: [M-H]-
m/z	relative intensity	assigned
367.0547	143	C21H16ClO2S-
368.0596	36	C20[13]CH16ClO2S-
369.0549	55	C21H16[37]ClO2S-
492.1351	999	C23H27ClN3O5S-
493.1361	216	C22[13]CH27ClN3O5S-
494.1311	375	C23H27[37]ClN3O5S-
