Mass spectrum: 4-Aminobenzamide; LC-ESI-QTOF; MS2; CE: Ramp 15.7-23.6 eV; R=35000; [M+H]+
Name: 4-Aminobenzamide
Formula: C7H8N2O
Exact mass: 136.06366288
SMILES: NC(=O)C1=CC=C(N)C=C1
InChI: InChI=1S/C7H8N2O/c8-6-3-1-5(2-4-6)7(9)10/h1-4H,8H2,(H2,9,10)
Instrument: Bruker maXis Impact
Instrument type: LC-ESI-QTOF
Ms type: MS2
Ion mode: POSITIVE
Ionization: ESI
Fragmentation mode: CID
Collision energy: Ramp 15.7-23.6 eV
Resolution: 35000
Column name: Acclaim RSLC C18 2.2um, 2.1x100mm, Thermo
Retention time: 2.381 min
Base peak: 137.0706
Precursor m/z: 137.0709
Precursor type: [M+H]+
m/z	relative intensity	assigned
53.0382	6	C4H5+
65.0381	66	C5H5+
68.0487	20	C4H6N+
92.0496	60	C6H6N+
93.0547	6	C5[13]CH6N+
94.0656	140	C6H8N+
95.0498	5	C6H7O+
95.0678	7	C5[13]CH8N+
105.0452	10	C6H5N2+
110.061	28	C6H8NO+
119.0604	7	C7H7N2+
120.044	999	C7H6NO+
121.0476	108	C6[13]CH6NO+
137.0704	194	C7H9N2O+
138.0736	19	C6[13]CH9N2O+
