Mass spectrum: Lidocaine-N-Oxide; LC-ESI-QTOF; MS2; CE: 10 eV; R=35000; [M+H]+
Name: Lidocaine-N-Oxide
Name: Lidocaine N-oxide
Name: 2-(2,6-dimethylanilino)-N,N-diethyl-2-oxoethanamine oxide
Formula: C14H22N2O2
Exact mass: 250.1681279
SMILES: CC[N+]([O-])(CC)CC(=O)NC1=C(C)C=CC=C1C
InChI: InChI=1S/C14H22N2O2/c1-5-16(18,6-2)10-13(17)15-14-11(3)8-7-9-12(14)4/h7-9H,5-6,10H2,1-4H3,(H,15,17)
Instrument: Bruker maXis Impact
Instrument type: LC-ESI-QTOF
Ms type: MS2
Ion mode: POSITIVE
Ionization: ESI
Fragmentation mode: CID
Collision energy: 10 eV
Resolution: 35000
Column name: Acclaim RSLC C18 2.2um, 2.1x100mm, Thermo
Retention time: 5.2 min
Base peak: 251.1754
Precursor m/z: 251.1754
Precursor type: [M+H]+
m/z	relative intensity	assigned
130.0851	2	C6H12NO2+
148.0745	2	C9H10NO+
164.1063	2	C10H14NO+
251.1754	999	C14H23N2O2+
252.1782	117	C13[13]CH23N2O2+
