Mass spectrum: Medroxyprogesteroneacetate; LC-ESI-QTOF; MS2; CE: 50 eV; R=35000; [M+H]+
Name: Medroxyprogesteroneacetate
Name: Medroxyprogesterone acetate
Name: [(6S,8R,9S,10R,13S,14S,17R)-17-acetyl-6,10,13-trimethyl-3-oxo-2,6,7,8,9,11,12,14,15,16-decahydro-1H-cyclopenta[a]phenanthren-17-yl] acetate
Formula: C24H34O4
Exact mass: 386.2457096
SMILES: C[C@H]1C[C@H]2[C@@H]3CC[C@](OC(C)=O)(C(C)=O)[C@@]3(C)CC[C@@H]2[C@@]2(C)CCC(=O)C=C12
InChI: InChI=1S/C24H34O4/c1-14-12-18-19(22(4)9-6-17(27)13-21(14)22)7-10-23(5)20(18)8-11-24(23,15(2)25)28-16(3)26/h13-14,18-20H,6-12H2,1-5H3/t14-,18+,19-,20-,22+,23-,24-/m0/s1
Instrument: Bruker maXis Impact
Instrument type: LC-ESI-QTOF
Ms type: MS2
Ion mode: POSITIVE
Ionization: ESI
Fragmentation mode: CID
Collision energy: 50 eV
Resolution: 35000
Column name: Acclaim RSLC C18 2.2um, 2.1x100mm, Thermo
Retention time: 10.943 min
Base peak: 387.2533
Precursor m/z: 387.253
Precursor type: [M+H]+
m/z	relative intensity	assigned
115.0536	39	C9H7+
116.0601	9	C9H8+
117.069	50	C9H9+
118.0734	7	C8[13]CH9+
119.0848	161	C9H11+
120.0882	14	C8[13]CH11+
121.0641	29	C8H9O+
121.1003	39	C9H13+
123.0797	999	C8H11O+
124.0829	86	C7[13]CH11O+
127.0548	5	C10H7+
128.0611	65	C10H8+
129.0688	102	C10H9+
130.076	44	C10H10+
131.0846	217	C10H11+
132.0892	33	C9[13]CH11+
133.0634	18	C9H9O+
133.1002	209	C10H13+
134.1041	29	C9[13]CH13+
135.0792	47	C9H11O+
135.1157	30	C10H15+
136.0834	6	C8[13]CH11O+
137.0953	237	C9H13O+
138.0983	24	C8[13]CH13O+
141.0685	60	C11H9+
142.0764	88	C11H10+
143.0843	168	C11H11+
144.0909	53	C11H12+
145.0638	19	C10H9O+
145.1003	342	C11H13+
146.0704	10	C10H10O+
146.1036	55	C10[13]CH13+
147.0793	34	C10H11O+
147.1158	297	C11H15+
148.0847	5	C9[13]CH11O+
148.1192	38	C10[13]CH15+
149.0946	23	C10H13O+
149.1316	17	C11H17+
151.1108	11	C10H15O+
152.0612	8	C12H8+
153.0684	25	C12H9+
154.0764	28	C12H10+
155.0843	102	C12H11+
156.0916	85	C12H12+
157.0998	204	C12H13+
158.0711	9	C11H10O+
158.1059	41	C11[13]CH13+
159.0792	36	C11H11O+
159.1155	193	C12H15+
160.0863	24	C11H12O+
160.1212	48	C12H16+
161.0946	70	C11H13O+
161.1313	163	C12H17+
162.1006	17	C11H14O+
162.1347	25	C11[13]CH17+
163.1108	26	C11H15O+
163.1472	11	C12H19+
164.1126	5	C10[13]CH15O+
165.069	21	C13H9+
166.0755	14	C13H10+
167.0841	62	C13H11+
168.0912	41	C13H12+
169.0999	186	C13H13+
170.1057	57	C13H14+
171.0788	23	C12H11O+
171.1154	193	C13H15+
172.0866	28	C12H12O+
172.1203	37	C12[13]CH15+
173.0949	60	C12H13O+
173.1313	184	C13H17+
174.1002	17	C12H14O+
174.1368	45	C13H18+
175.1107	120	C12H15O+
175.1472	206	C13H19+
176.1136	22	C11[13]CH15O+
176.1505	33	C12[13]CH19+
177.1269	33	C12H17O+
178.0769	11	C14H10+
179.0842	61	C14H11+
180.0914	34	C14H12+
181.1	75	C14H13+
182.1068	47	C14H14+
183.1157	242	C14H15+
184.1208	59	C13[13]CH15+
185.0946	21	C13H13O+
185.1312	121	C14H17+
186.1009	9	C13H14O+
186.1352	27	C13[13]CH17+
187.1107	85	C13H15O+
187.1469	48	C14H19+
188.1519	9	C13[13]CH19+
189.1264	43	C13H17O+
189.1622	9	C14H21+
190.1328	7	C12[13]CH17O+
191.1419	22	C13H19O+
192.0923	15	C15H12+
193.1	58	C15H13+
194.108	87	C15H14+
195.1153	119	C15H15+
196.1219	65	C15H16+
197.1316	173	C15H17+
198.1024	7	C14H14O+
198.1373	73	C15H18+
199.1103	31	C14H15O+
199.1466	119	C15H19+
200.1169	18	C14H16O+
200.1513	26	C14[13]CH19+
201.1263	15	C14H17O+
201.1619	24	C15H21+
202.1665	5	C14[13]CH21+
203.1421	11	C14H19O+
205.0999	11	C16H13+
205.1579	6	C14H21O+
206.1073	19	C16H14+
207.1161	50	C16H15+
208.1231	54	C16H16+
209.1317	558	C16H17+
210.1364	161	C15[13]CH17+
211.1112	32	C15H15O+
211.1472	228	C16H19+
212.1163	12	C15H16O+
212.1516	49	C15[13]CH19+
213.1264	43	C15H17O+
213.1625	34	C16H21+
214.1345	454	C15H18O+
215.1395	111	C14[13]CH18O+
215.179	6	C16H23+
216.1475	14	C15H20O+
217.1588	6	C15H21O+
219.1166	23	C17H15+
220.1227	19	C17H16+
221.1311	42	C17H17+
222.139	31	C17H18+
223.1473	169	C17H19+
224.1547	259	C17H20+
225.1259	22	C16H17O+
225.1614	154	C17H21+
226.1349	13	C16H18O+
226.1671	35	C16[13]CH21+
227.1422	11	C16H19O+
227.1789	60	C17H23+
228.1482	6	C16H20O+
228.1819	13	C16[13]CH23+
229.1575	6	C16H21O+
232.1222	5	C18H16+
233.1316	16	C18H17+
233.1525	5	C15H21O2+
234.1392	36	C18H18+
235.1463	38	C18H19+
236.1537	18	C18H20+
237.1252	12	C17H17O+
237.1631	45	C18H21+
238.133	11	C17H18O+
238.1693	26	C18H22+
239.1426	30	C17H19O+
239.1784	22	C18H23+
240.1485	14	C17H20O+
240.1823	6	C17[13]CH23+
241.157	14	C17H21O+
241.1926	8	C18H25+
242.1615	5	C17H22O+
243.1735	8	C17H23O+
247.1471	6	C19H19+
248.154	8	C19H20+
249.1631	80	C19H21+
250.1678	34	C19H22+
251.1432	37	C18H19O+
251.1786	98	C19H23+
252.1489	18	C18H20O+
252.1836	27	C18[13]CH23+
253.1579	25	C18H21O+
253.1897	7	C19H25+
254.1656	9	C18H22O+
255.1728	5	C18H23O+
259.147	6	C20H19+
261.1605	5	C20H21+
263.1793	9	C20H23+
264.1859	7	C20H24+
265.157	16	C19H21O+
265.194	30	C20H25+
266.1653	10	C19H22O+
266.2015	53	C20H26+
267.174	306	C19H23O+
267.2091	48	C20H27+
268.1772	82	C18[13]CH23O+
268.2133	8	C19[13]CH27+
269.189	52	C19H25O+
270.1945	12	C18[13]CH25O+
277.1597	6	C20H21O+
279.1745	6	C20H23O+
281.1896	19	C20H25O+
282.1968	46	C20H26O+
283.2021	22	C20H27O+
284.2109	15	C20H28O+
285.2205	13	C20H29O+
295.1706	6	C20H23O2+
