Mass spectrum: Acetyl-sulfamethoxazole; LC-ESI-QTOF; MS2; CE: 10 eV; R=35000; [M+H]+
Name: Acetyl-sulfamethoxazole
Name: Acetylsulfamethoxazole
Name: N-[4-[(5-methyl-1,2-oxazol-3-yl)sulfamoyl]phenyl]acetamide
Formula: C12H13N3O4S
Exact mass: 295.0626769
SMILES: CC(=O)NC1=CC=C(C=C1)S(=O)(=O)NC1=NOC(C)=C1
InChI: InChI=1S/C12H13N3O4S/c1-8-7-12(14-19-8)15-20(17,18)11-5-3-10(4-6-11)13-9(2)16/h3-7H,1-2H3,(H,13,16)(H,14,15)
Instrument: Bruker maXis Impact
Instrument type: LC-ESI-QTOF
Ms type: MS2
Ion mode: POSITIVE
Ionization: ESI
Fragmentation mode: CID
Collision energy: 10 eV
Resolution: 35000
Column name: Acclaim RSLC C18 2.2um, 2.1x100mm, Thermo
Retention time: 5.231 min
Base peak: 296.0694
Precursor m/z: 296.07
Precursor type: [M+H]+
m/z	relative intensity	assigned
136.0743	19	H14N3O3S+
188.0793	16	C7H12N2O4+
190.0962	7	C10H12N3O+
194.0364	6	C5H10N2O4S+
198.0206	26	C8H8NO3S+
230.0923	6	C12H12N3O2+
232.1068	6	C12H14N3O2+
236.047	11	C10H10N3O2S+
296.0693	999	C12H14N3O4S+
297.0716	156	C11[13]CH14N3O4S+
298.0672	50	C12H14N3O4[34]S+
