Mass spectrum: Carbadox; LC-ESI-QTOF; MS2; CE: 20 eV; R=35000; [M+H]+
Name: Carbadox
Name: methyl N-[(1-hydroxy-4-oxidoquinoxalin-4-ium-2-ylidene)methylimino]carbamate
Formula: C11H10N4O4
Exact mass: 262.0702048
SMILES: COC(=O)NN=CC1=[N+](C2=CC=CC=C2[N+](=C1)[O-])[O-]
InChI: InChI=1S/C11H10N4O4/c1-19-11(16)13-12-6-8-7-14(17)9-4-2-3-5-10(9)15(8)18/h2-7H,1H3,(H,13,16)
Instrument: Bruker maXis Impact
Instrument type: LC-ESI-QTOF
Ms type: MS2
Ion mode: POSITIVE
Ionization: ESI
Fragmentation mode: CID
Collision energy: 20 eV
Resolution: 35000
Column name: Acclaim RSLC C18 2.2um, 2.1x100mm, Thermo
Retention time: 4.7 min
Base peak: 221.1031
Precursor m/z: 263.0775
Precursor type: [M+H]+
m/z	relative intensity	assigned
129.0391	19	C3H5N4O2+
130.0467	120	C3H6N4O2+
131.0549	138	C3H7N4O2+
145.0332	52	C3H5N4O3+
146.042	13	C3H6N4O3+
147.05	25	
159.0494	81	C4H7N4O3+
163.0435	136	C3H7N4O4+
164.0474	14	C9H8O3+
170.0541	24	C6H8N3O3+
175.0435	158	C4H7N4O4+
176.0492	14	C10H8O3+
184.0659	16	C11H8N2O+
187.0533	49	C10H7N2O2+
188.037	38	C10H6NO3+
191.0377	12	C11H3N4+
197.0403	18	C7H7N3O4+
203.0486	55	C10H7N2O3+
229.0678	239	C11H9N4O2+
230.0664	23	C10H8N5O2+
231.043	999	C11H7N2O4+
232.0468	85	C10[13]CH7N2O4+
263.0729	147	C11H11N4O4+
