Mass spectrum: Midazolam; LC-ESI-QTOF; MS2; CE: 50 eV; R=35000; [M+Na]+
Name: Midazolam
Name: 8-chloro-6-(2-fluorophenyl)-1-methyl-4H-imidazo[1,5-a][1,4]benzodiazepine
Formula: C18H13ClFN3
Exact mass: 325.0782033
SMILES: CC1=NC=C2N1C3=C(C=C(C=C3)Cl)C(=NC2)C4=CC=CC=C4F
InChI: InChI=1S/C18H13ClFN3/c1-11-21-9-13-10-22-18(14-4-2-3-5-16(14)20)15-8-12(19)6-7-17(15)23(11)13/h2-9H,10H2,1H3
Instrument: Bruker maXis Impact
Instrument type: LC-ESI-QTOF
Ms type: MS2
Ion mode: POSITIVE
Ionization: ESI
Fragmentation mode: CID
Collision energy: 50 eV
Resolution: 35000
Column name: Acclaim RSLC C18 2.2um, 2.1x100mm, Thermo
Retention time: 14.295 min
Base peak: 282.2819
Precursor m/z: 348.0674
Precursor type: [M+Na]+
m/z	relative intensity	assigned
149.0252	999	C3H8ClFN2Na+
