Mass spectrum: Losartan; LC-ESI-QTOF; MS2; CE: 20 eV; R=35000; [M-H]-
Name: Losartan
Name: [2-butyl-5-chloro-3-[[4-[2-(2H-tetrazol-5-yl)phenyl]phenyl]methyl]imidazol-4-yl]methanol
Formula: C22H23ClN6O
Exact mass: 422.1621870
SMILES: CCCCc1nc(c(n1Cc2ccc(cc2)c3ccccc3c4[nH]nnn4)CO)Cl
InChI: InChI=1S/C22H23ClN6O/c1-2-3-8-20-24-21(23)19(14-30)29(20)13-15-9-11-16(12-10-15)17-6-4-5-7-18(17)22-25-27-28-26-22/h4-7,9-12,30H,2-3,8,13-14H2,1H3,(H,25,26,27,28)
Instrument: Bruker maXis Impact
Instrument type: LC-ESI-QTOF
Ms type: MS2
Ion mode: NEGATIVE
Ionization: ESI
Fragmentation mode: CID
Collision energy: 20 eV
Resolution: 35000
Column name: Acclaim RSLC C18 2.2um, 2.1x100mm, Thermo
Retention time: 7.978 min
Base peak: 421.1534
Precursor m/z: 421.1549
Precursor type: [M-H]-
m/z	relative intensity	assigned
127.0071	328	C5H4ClN2-
155.0387	123	C7H8ClN2-
156.0444	187	C8H4N4-
157.0524	259	C8H5N4-
179.0867	420	C14H11-
187.0635	308	C6H10ClN5-
188.0344	136	C5H7ClN5O-
195.0825	166	C11H14ClN-
335.1288	297	C22H15N4-
363.1356	101	C22H15N6-
421.1539	999	C22H22ClN6O-
422.1586	274	C21[13]CH22ClN6O-
423.1468	372	C22H22[37]ClN6O-
