Mass spectrum: Clothianidin; LC-ESI-QTOF; MS2; CE: 40 eV; R=35000; [M+H]+
Name: Clothianidin
Name: n-[(2-Chloro-5-thiazolyl)methyl]-n`-methyl-n``-nitroguanidine
Name: 1-[(2-chloro-1,3-thiazol-5-yl)methyl]-2-methyl-3-nitroguanidine
Formula: C6H8ClN5O2S
Exact mass: 249.0087232
SMILES: CN\C(NCC1=CN=C(Cl)S1)=N/[N+]([O-])=O
InChI: InChI=1S/C6H8ClN5O2S/c1-8-6(11-12(13)14)10-3-4-2-9-5(7)15-4/h2H,3H2,1H3,(H2,8,10,11)
Instrument: Bruker maXis Impact
Instrument type: LC-ESI-QTOF
Ms type: MS2
Ion mode: POSITIVE
Ionization: ESI
Fragmentation mode: CID
Collision energy: 40 eV
Resolution: 35000
Column name: Acclaim RSLC C18 2.2um, 2.1x100mm, Thermo
Retention time: 4.840 min
Base peak: 250.0154
Precursor m/z: 250.016
Precursor type: [M+H]+
m/z	relative intensity	assigned
110.0708	20	C5H8N3+
111.0782	22	C5H9N3+
113.0159	104	C6H6Cl+
114.0205	10	C5[13]CH6Cl+
115.0117	13	C6H6[37]Cl+
118.9587	18	C3H2ClNS+
119.9654	48	C3H3ClNS+
120.9561	7	C3H2[37]ClNS+
121.9638	19	C3H3[37]ClNS+
125.0816	21	C5H9N4+
126.0108	37	C6H5ClN+
127.0183	30	C6H6ClN+
128.0266	5	C6H7ClN+
131.9658	999	C4H3ClNS+
132.9724	122	C4H4ClNS+
133.9626	353	C4H3[37]ClNS+
134.9693	39	C4H4[37]ClNS+
135.0654	8	C6H7N4+
138.0109	26	C5H4N3S+
140.0273	7	C5H6N3S+
141.0352	11	C5H7N3S+
142.0421	75	C5H8N3S+
143.0482	7	H9N5O2S+
146.9769	121	C4H4ClN2S+
147.9844	58	C4H5ClN2S+
148.9729	39	C4H4[37]ClN2S+
149.9804	21	C4H5[37]ClN2S+
152.0146	12	C5H4N4S+
152.0242	9	CH6N5O2S+
153.0216	89	C5H5N4S+
154.028	26	C5H6N4S+
167.0373	64	C6H7N4S+
168.0454	34	C6H8N4S+
169.0528	273	C6H9N4S+
170.0565	26	C5[13]CH9N4S+
171.0492	12	C6H9N4[34]S+
171.9712	27	C5H3ClN3S+
172.9806	11	C5H4ClN3S+
173.9691	10	C5H3[37]ClN3S+
173.9833	7	ClH5N5O2S+
174.9716	71	C3H2ClN5S+
176.9679	25	C3H2[37]ClN5S+
