Mass spectrum: Gabapentin; LC-ESI-QTOF; MS2; CE: Ramp 17.0-25.5 eV; R=35000; [M+H]+
Name: Gabapentin
Name: 2-[1-(aminomethyl)cyclohexyl]acetic acid
Formula: C9H17NO2
Exact mass: 171.1259288
SMILES: NCC1(CC(O)=O)CCCCC1
InChI: InChI=1S/C9H17NO2/c10-7-9(6-8(11)12)4-2-1-3-5-9/h1-7,10H2,(H,11,12)
Instrument: Bruker maXis Impact
Instrument type: LC-ESI-QTOF
Ms type: MS2
Ion mode: POSITIVE
Ionization: ESI
Fragmentation mode: CID
Collision energy: Ramp 17.0-25.5 eV
Resolution: 35000
Column name: Acclaim RSLC C18 2.2um, 2.1x100mm, Thermo
Retention time: 3.713 min
Base peak: 268.1546
Precursor m/z: 172.1332
Precursor type: [M+H]+
m/z	relative intensity	assigned
55.0175	175	C3H3O+
67.0538	75	C5H7+
69.0699	8	C5H9+
81.0702	5	C6H9+
91.0539	11	C7H7+
93.0696	16	C7H9+
95.086	43	C7H11+
109.101	23	C8H13+
119.0849	122	C9H11+
120.0883	12	C8[13]CH11+
126.127	14	C8H16N+
136.1116	46	C9H14N+
137.0956	643	C9H13O+
138.0985	54	C8[13]CH13O+
154.1221	999	C9H16NO+
155.1053	39	C9H15O2+
155.1247	84	C8[13]CH16NO+
156.1284	6	C7[13]C2H16NO+
172.1326	349	C9H18NO2+
173.1358	27	C8[13]CH18NO2+
