Mass spectrum: 2-Isopropylthioxanthone; LC-ESI-QTOF; MS2; CE: 50 eV; R=35000; [M+H]+
Name: 2-Isopropylthioxanthone
Name: 2-propan-2-ylthioxanthen-9-one
Formula: C16H14OS
Exact mass: 254.0765361
SMILES: CC(C)C1=CC=C2SC3=C(C=CC=C3)C(=O)C2=C1
InChI: InChI=1S/C16H14OS/c1-10(2)11-7-8-15-13(9-11)16(17)12-5-3-4-6-14(12)18-15/h3-10H,1-2H3
Instrument: Bruker maXis Impact
Instrument type: LC-ESI-QTOF
Ms type: MS2
Ion mode: POSITIVE
Ionization: ESI
Fragmentation mode: CID
Collision energy: 50 eV
Resolution: 35000
Column name: Acclaim RSLC C18 2.2um, 2.1x100mm, Thermo
Retention time: 12.963 min
Base peak: 255.0833
Precursor m/z: 255.0838
Precursor type: [M+H]+
m/z	relative intensity	assigned
139.0536	25	C11H7+
141.0698	20	C11H9+
152.0615	72	C12H8+
153.0657	9	C11[13]CH8+
165.0686	6	C13H9+
178.0778	11	C14H10+
183.0261	21	C12H7S+
184.0337	999	C12H8S+
185.0372	161	C11[13]CH8S+
186.029	41	C12H8[34]S+
193.0638	5	C14H9O+
196.0324	8	C16H4+
197.0412	36	C13H9S+
211.0572	5	C14H11S+
212.0283	15	C13H8OS+
213.0363	220	C13H9OS+
214.039	36	C12[13]CH9OS+
215.0347	11	C13H9O[34]S+
221.0426	6	C15H9S+
224.0283	18	C14H8OS+
225.0359	14	C14H9OS+
239.0516	68	C15H11OS+
240.0551	10	C14[13]CH11OS+
