Mass spectrum: Flufenacet; LC-ESI-QTOF; MS2; CE: 50 eV; R=35000; [M+H]+
Name: Flufenacet
Name: N-(4-fluorophenyl)-N-propan-2-yl-2-[[5-(trifluoromethyl)-1,3,4-thiadiazol-2-yl]oxy]acetamide
Formula: C14H13F4N3O2S
Exact mass: 363.0664605
SMILES: CC(C)N(C(=O)COC1=NN=C(S1)C(F)(F)F)C1=CC=C(F)C=C1
InChI: InChI=1S/C14H13F4N3O2S/c1-8(2)21(10-5-3-9(15)4-6-10)11(22)7-23-13-20-19-12(24-13)14(16,17)18/h3-6,8H,7H2,1-2H3
Instrument: Bruker maXis Impact
Instrument type: LC-ESI-QTOF
Ms type: MS2
Ion mode: POSITIVE
Ionization: ESI
Fragmentation mode: CID
Collision energy: 50 eV
Resolution: 35000
Column name: Acclaim RSLC C18 2.2um, 2.1x100mm, Thermo
Retention time: 9.9 min
Base peak: 364.0743
Precursor m/z: 364.0737
Precursor type: [M+H]+
m/z	relative intensity	assigned
109.0445	7	C2H5F2N3+
115.0544	5	C9H7+
122.0398	5	C7H5FN+
123.0235	45	C2H3F2N3O+
124.0553	999	C4H12O2S+
125.0393	10	C2H5F2N3O+
125.0585	64	C3[13]CH12O2S+
132.0441	11	C8H6NO+
133.0451	6	C9H6F+
134.039	20	FH9N3O2S+
135.0469	8	FH10N3O2S+
135.0596	6	CH12FN2O2S+
136.055	13	FH11N3O2S+
137.0626	12	FH12N3O2S+
151.0425	8	C8H6FNO+
152.0502	397	C8H7FNO+
152.0866	143	C9H11FN+
153.0532	36	C7[13]CH7FNO+
153.0893	14	C8[13]CH11FN+
