Mass spectrum: Oryzalin; LC-ESI-QTOF; MS2; CE: 30 eV; R=35000; [M-H]-
Name: Oryzalin
Name: 4-(dipropylamino)-3,5-dinitrobenzenesulfonamide
Formula: C12H18N4O6S
Exact mass: 346.0947053
SMILES: CCCN(CCC)C1=C(C=C(C=C1[N+]([O-])=O)S(N)(=O)=O)[N+]([O-])=O
InChI: InChI=1S/C12H18N4O6S/c1-3-5-14(6-4-2)12-10(15(17)18)7-9(23(13,21)22)8-11(12)16(19)20/h7-8H,3-6H2,1-2H3,(H2,13,21,22)
Instrument: Bruker maXis Impact
Instrument type: LC-ESI-QTOF
Ms type: MS2
Ion mode: NEGATIVE
Ionization: ESI
Fragmentation mode: CID
Collision energy: 30 eV
Resolution: 35000
Column name: Acclaim RSLC C18 2.2um, 2.1x100mm, Thermo
Retention time: 10.259 min
Base peak: 345.0867
Precursor m/z: 345.0874
Precursor type: [M-H]-
m/z	relative intensity	assigned
116.0245	147	C6H2N3-
121.0406	170	C6H5N2O-
129.0347	136	C9H5O-
131.0477	208	C7H5N3-
132.0323	197	C7H4N2O-
133.0301	186	C8H5O2-
133.0379	194	C4H7NO4-
134.0363	213	C6H4N3O-
135.0176	255	C3H5NO5-
135.0436	152	C6H5N3O-
136.0529	161	C8H8O2-
145.0276	134	C7H3N3O-
146.0352	202	C7H4N3O-
147.0443	854	CH11N2O4S-
148.0271	176	C7H4N2O2-
149.0352	229	C7H5N2O2-
150.0305	216	C6H4N3O2-
152.023	194	C6H4N2O3-
156.0564	124	C9H6N3-
157.0628	257	H15NO6S-
158.0708	121	H16NO6S-
159.0571	129	C3H13NO4S-
160.0593	270	C4H8N4O3-
161.073	267	C3H15NO4S-
162.0333	191	C4H8N3O2S-
163.0246	286	C5H7O6-
173.0588	187	C9H7N3O-
174.0667	783	C9H8N3O-
175.0485	168	C6H9NO5-
175.0716	239	C6H11N2O4-
176.0827	192	C9H10N3O-
180.0274	176	C3H6N3O6-
182.0195	378	C12H6S-
191.0207	260	C7H3N4O3-
191.0687	168	C9H9N3O2-
192.0285	288	C7H4N4O3-
199.0217	147	C12H7OS-
202.0477	136	C8H10O6-
203.0581	357	C3H13N3O5S-
204.0629	179	C6H10N3O5-
211.0056	247	C7H5N3O3S-
212.0105	310	C4H8N2O6S-
221.0651	215	C6H11N3O6-
222.0316	170	C6H10N2O5S-
224.0099	186	C11H2N3O3-
224.0504	137	C9H10N3O2S-
226.9868	322	C11HNO5-
228.0051	406	C10H2N3O4-
234.1241	259	C12H16N3O2-
238.0267	197	C6H10N2O6S-
240.0476	241	C12H8N4S-
241.0041	636	C7H5N4O4S-
244.0018	362	C12H4O6-
256.0396	131	C9H10N3O4S-
258.0551	127	C9H12N3O4S-
268.0242	212	C12H4N4O4-
272.9934	212	C7H5N4O6S-
281.1218	733	C12H17N4O4-
285.0354	123	C11H11NO6S-
299.0427	283	C10H11N4O5S-
345.0858	999	C12H17N4O6S-
346.0838	179	C11[13]CH17N4O6S-
