Mass spectrum: Acemetacin; LC-ESI-QTOF; MS2; CE: 20 eV; R=35000; [M+H]+
Name: Acemetacin
Name: 2-[2-[1-(4-chlorobenzoyl)-5-methoxy-2-methylindol-3-yl]acetyl]oxyacetic acid
Formula: C21H18ClNO6
Exact mass: 415.0822650
SMILES: Cc1c(c2cc(ccc2n1C(=O)c3ccc(cc3)Cl)OC)CC(=O)OCC(=O)O
InChI: InChI=1S/C21H18ClNO6/c1-12-16(10-20(26)29-11-19(24)25)17-9-15(28-2)7-8-18(17)23(12)21(27)13-3-5-14(22)6-4-13/h3-9H,10-11H2,1-2H3,(H,24,25)
Instrument: Bruker maXis Impact
Instrument type: LC-ESI-QTOF
Ms type: MS2
Ion mode: POSITIVE
Ionization: ESI
Fragmentation mode: CID
Collision energy: 20 eV
Resolution: 35000
Column name: Acclaim RSLC C18 2.2um, 2.1x100mm, Thermo
Retention time: 9.888 min
Base peak: 150.1129
Precursor m/z: 416.0895
Precursor type: [M+H]+
m/z	relative intensity	assigned
138.9948	999	C7H4ClO+
139.998	102	C5H2NO4+
140.9925	321	C7H4[37]ClO+
158.1187	30	C8H16NO2+
174.0917	158	C11H12NO+
175.0965	24	C8H15O4+
260.0938	50	C14H14NO4+
312.0801	92	C18H15ClNO2+
314.077	27	C17H14O6+
416.0922	62	C21H19ClNO6+
