Mass spectrum: 1H,1H,2H,2H-perfluorooctylphosphate (6:2PAP); LC-ESI-QTOF; MS2; CE: 24.5-36.7 eV; R=35000; [M-H]-
Name: 1H,1H,2H,2H-perfluorooctylphosphate (6:2PAP)
Name: Perfluorooctyl phosphate
Name: 3,3,4,4,5,5,6,6,7,7,8,8,8-tridecafluorooctyl dihydrogen phosphate
Formula: C8H6F13O4P
Exact mass: 443.9796
SMILES: C(COP(=O)(O)O)C(C(C(C(C(C(F)(F)F)(F)F)(F)F)(F)F)(F)F)(F)F
InChI: InChI=1S/C8H6F13O4P/c9-3(10,1-2-25-26(22,23)24)4(11,12)5(13,14)6(15,16)7(17,18)8(19,20)21/h1-2H2,(H2,22,23,24)
Instrument: Bruker maXis Impact
Instrument type: LC-ESI-QTOF
Ms type: MS2
Ionization: ESI
Fragmentation mode: CID
Collision energy: 24.5-36.7 eV
Resolution: 35000
Column name: Acclaim RSLC C18 2.2um, 2.1x100mm, Thermo
Retention time: 9.275 min
Base peak: 59.0081
Precursor m/z: 442.9723
Precursor type: [M-H]-
m/z	relative intensity	assigned
96.9668	999	CF2OP-
