Mass spectrum: 2-Amino-3,8-dimethylimidazo-[4,5-f]quinoxaline (MeIQx); LC-ESI-QTOF; MS2; CE: 10 eV; R=35000; [M+H]+
Name: 2-Amino-3,8-dimethylimidazo-[4,5-f]quinoxaline (MeIQx)
Name: MeIQx
Name: 3,8-dimethylimidazo[4,5-f]quinoxalin-2-amine
Formula: C11H11N5
Exact mass: 213.1014454
SMILES: CN1C(N)=NC2=C1C=CC1=NC=C(C)N=C21
InChI: InChI=1S/C11H11N5/c1-6-5-13-7-3-4-8-10(9(7)14-6)15-11(12)16(8)2/h3-5H,1-2H3,(H2,12,15)
Instrument: Bruker maXis Impact
Instrument type: LC-ESI-QTOF
Ms type: MS2
Ion mode: POSITIVE
Ionization: ESI
Fragmentation mode: CID
Collision energy: 10 eV
Resolution: 35000
Column name: Acclaim RSLC C18 2.2um, 2.1x100mm, Thermo
Retention time: 4.075 min
Base peak: 214.1081
Precursor m/z: 214.1087
Precursor type: [M+H]+
m/z	relative intensity	assigned
214.1085	999	C11H12N5+
215.111	125	C10[13]CH12N5+
216.113	7	C9[13]C2H12N5+
