Mass spectrum: Benzhydrol; GC-APCI-QTOF; MS2; CE: 40 eV; R=35000; [M]+
Name: Benzhydrol
Formula: C13H12O
Exact mass: 184.0888
SMILES: C1=CC=C(C=C1)C(C2=CC=CC=C2)O
InChI: InChI=1S/C13H12O/c14-13(11-7-3-1-4-8-11)12-9-5-2-6-10-12/h1-10,13-14H
Instrument: Bruker 450 GC coupled to maXis Impact
Instrument type: GC-APCI-QTOF
Ms type: MS2
Ion mode: POSITIVE
Ionization: APCI
Fragmentation mode: CID
Collision energy: 40 eV
Resolution: 35000
Column name: Rxi-5Sil MS column, 30m, 0.25mm i.d., 0.25Âµm film thickness, Restek
Retention time: 13.909 min
Base peak: 167.088
Precursor m/z: 184.0883
Precursor type: [M]+
m/z	relative intensity	assigned
95.0512	278	C6H7O+
105.0348	504	C7H5O+
165.0738	999	C13H9+
166.0776	350	C13H10+
