Mass spectrum: Fenpropidin; LC-ESI-QTOF; MS2; CE: 30 eV; R=35000; [M+H]+
Name: Fenpropidin
Name: 1-[3-(4-tert-butylphenyl)-2-methylpropyl]piperidine
Formula: C19H31N
Exact mass: 273.2456500
SMILES: CC(CN1CCCCC1)CC1=CC=C(C=C1)C(C)(C)C
InChI: InChI=1S/C19H31N/c1-16(15-20-12-6-5-7-13-20)14-17-8-10-18(11-9-17)19(2,3)4/h8-11,16H,5-7,12-15H2,1-4H3
Instrument: Bruker maXis Impact
Instrument type: LC-ESI-QTOF
Ms type: MS2
Ion mode: POSITIVE
Ionization: ESI
Fragmentation mode: CID
Collision energy: 30 eV
Resolution: 35000
Column name: Acclaim RSLC C18 2.2um, 2.1x100mm, Thermo
Retention time: 8.426 min
Base peak: 207.1485
Precursor m/z: 274.2529
Precursor type: [M+H]+
m/z	relative intensity	assigned
117.0688	6	C9H9+
119.0845	18	C9H11+
132.092	27	C10H12+
147.1157	369	C11H15+
148.1188	40	C10[13]CH15+
161.1308	10	C12H17+
189.1625	17	C14H21+
218.1895	6	C15H24N+
274.2524	999	C19H32N+
275.2559	188	C18[13]CH32N+
276.2589	13	C17[13]C2H32N+
