Mass spectrum: 4,4`-Difluorobenzophenonen; GC-APCI-QTOF; MS2; CE: 40 eV; R=35000; [M]+
Name: 4,4`-Difluorobenzophenonen
Formula: C13H8F2O
Exact mass: 218.0543
SMILES: C1=CC(=CC=C1C(=O)C2=CC=C(C=C2)F)F
InChI: InChI=1S/C13H8F2O/c14-11-5-1-9(2-6-11)13(16)10-3-7-12(15)8-4-10/h1-8H
Instrument: Bruker 450 GC coupled to maXis Impact
Instrument type: GC-APCI-QTOF
Ms type: MS2
Ion mode: POSITIVE
Ionization: APCI
Fragmentation mode: CID
Collision energy: 40 eV
Resolution: 35000
Column name: Rxi-5Sil MS column, 30m, 0.25mm i.d., 0.25Âµm film thickness, Restek
Retention time: 13.362 min
Base peak: 218.0534
Precursor m/z: 218.0538
Precursor type: [M]+
m/z	relative intensity	assigned
51.024	18	CH4FO+
71.0319	9	CH5F2O+
75.0232	14	C6H3+
95.0292	17	C6H4F+
113.0396	151	C6H6FO+
114.0442	7	C9H6+
123.0235	999	C7H4FO+
168.0389	8	C9H6F2O+
169.0471	13	C9H7F2O+
170.0555	20	C9H8F2O+
171.062	7	C12H8F+
187.0562	39	C12H8FO+
188.0458	179	C12H6F2+
189.0531	72	C12H7F2+
201.0528	8	C13H7F2+
217.0474	24	C13H7F2O+
