Mass spectrum: Trimethylolpropane trimethacrylate; GC-APCI-QTOF; MS2; CE: 30 eV; R=35000; [M]+
Name: Trimethylolpropane trimethacrylate
Formula: C18H26O6
Exact mass: 338.1729
SMILES: CCC(COC(=O)C(=C)C)(COC(=O)C(=C)C)COC(=O)C(=C)C
InChI: InChI=1S/C18H26O6/c1-8-18(9-22-15(19)12(2)3,10-23-16(20)13(4)5)11-24-17(21)14(6)7/h2,4,6,8-11H2,1,3,5,7H3
Instrument: Bruker 450 GC coupled to maXis Impact
Instrument type: GC-APCI-QTOF
Ms type: MS2
Ion mode: POSITIVE
Ionization: APCI
Fragmentation mode: CID
Collision energy: 30 eV
Resolution: 35000
Column name: Rxi-5Sil MS column, 30m, 0.25mm i.d., 0.25Âµm film thickness, Restek
Retention time: 18.217 min
Base peak: 253.1427
Precursor m/z: 338.1724
Precursor type: [M]+
m/z	relative intensity	assigned
67.054	5	C5H7+
68.0257	6	C4H4O+
69.0324	623	C4H5O+
79.054	15	C6H7+
81.0689	107	C6H9+
98.0715	9	C6H10O+
99.0792	6	C6H11O+
108.0585	9	C7H8O+
121.1012	10	C9H13+
125.0597	16	C7H9O2+
126.0667	6	C7H10O2+
131.086	5	C10H11+
133.064	87	C9H9O+
134.0697	6	C9H10O+
147.0809	22	C10H11O+
148.0879	97	C10H12O+
149.0957	30	C10H13O+
153.0549	5	C8H9O3+
161.0612	9	C10H9O2+
167.1066	20	C10H15O2+
175.0789	5	C11H11O2+
176.0837	38	C11H12O2+
177.0874	7	C11H13O2+
185.118	23	C10H17O3+
193.0871	5	C11H13O3+
224.1407	25	C13H20O3+
240.1382	5	C13H20O4+
252.1366	22	C14H20O4+
253.1427	999	C14H21O4+
254.1294	48	C17H18O2+
254.1466	85	C14H22O4+
267.1596	12	C15H23O4+
293.1757	9	C17H25O4+
