Mass spectrum: N,N-Didesvenlafaxine; LC-ESI-QTOF; MS2; CE: 10 eV; R=35000; [M+H]+
Name: N,N-Didesvenlafaxine
Name: Dinorvenlafaxine
Formula: C15H23NO2
Exact mass: 249.1728790
SMILES: COC1=CC=C(C=C1)C(CN)C1(O)CCCCC1
InChI: InChI=1S/C15H23NO2/c1-18-13-7-5-12(6-8-13)14(11-16)15(17)9-3-2-4-10-15/h5-8,14,17H,2-4,9-11,16H2,1H3
Instrument: Bruker maXis Impact
Instrument type: LC-ESI-QTOF
Ms type: MS2
Ion mode: POSITIVE
Ionization: ESI
Fragmentation mode: CID
Collision energy: 10 eV
Resolution: 35000
Column name: Acclaim RSLC C18 2.2um, 2.1x100mm, Thermo
Retention time: 6.2 min
Base peak: 250.18
Precursor m/z: 250.1802
Precursor type: [M+H]+
m/z	relative intensity	assigned
121.0636	35	C8H9O+
124.1099	7	C8H14N+
131.0474	5	C9H7O+
147.0784	17	C10H11O+
159.042	14	C10H7O2+
159.0791	5	C11H11O+
173.0957	5	C12H13O+
201.1262	10	C14H17O+
203.1417	83	C14H19O+
204.1452	12	C9H20N2O3+
215.1425	901	C15H19O+
216.145	128	C14[13]CH19O+
217.1482	13	C13[13]C2H19O+
232.169	999	C15H22NO+
233.1721	132	C14[13]CH22NO+
234.176	11	C13[13]C2H22NO+
250.1795	332	C15H24NO2+
251.1826	62	C14[13]CH24NO2+
