Mass spectrum: 2-(Piperazin-1-yl)ethanamine; LC-ESI-QTOF; MS2; CE: Ramp 15.5-23.2 eV; R=35000; [M+H]+
Name: 2-(Piperazin-1-yl)ethanamine
Name: 1-Piperazineethanamine
Name: 2-piperazin-1-ylethanamine
Formula: C6H15N3
Exact mass: 129.1265975
SMILES: NCCN1CCNCC1
InChI: InChI=1S/C6H15N3/c7-1-4-9-5-2-8-3-6-9/h8H,1-7H2
Instrument: Bruker maXis Impact
Instrument type: LC-ESI-QTOF
Ms type: MS2
Ion mode: POSITIVE
Ionization: ESI
Fragmentation mode: CID
Collision energy: Ramp 15.5-23.2 eV
Resolution: 35000
Column name: Acclaim RSLC C18 2.2um, 2.1x100mm, Thermo
Retention time: 1.254 min
Base peak: 130.1334
Precursor m/z: 130.1339
Precursor type: [M+H]+
m/z	relative intensity	assigned
56.0488	157	C3H6N+
58.0645	95	C3H8N+
70.0645	76	C4H8N+
84.0688	33	C4H8N2+
84.0802	107	C5H10N+
87.0919	33	C4H11N2+
113.1069	999	C6H13N2+
114.1099	67	C5[13]CH13N2+
130.133	483	C6H16N3+
