Mass spectrum: Sotalol; LC-ESI-QTOF; MS2; CE: Ramp 20.6-30.9 eV; R=35000; [M+H]+
Name: Sotalol
Name: N-[4-[1-hydroxy-2-(propan-2-ylamino)ethyl]phenyl]methanesulfonamide
Formula: C12H20N2O3S
Exact mass: 272.11946350
SMILES: CC(C)NCC(O)C1=CC=C(NS(C)(=O)=O)C=C1
InChI: InChI=1S/C12H20N2O3S/c1-9(2)13-8-12(15)10-4-6-11(7-5-10)14-18(3,16)17/h4-7,9,12-15H,8H2,1-3H3
Instrument: Bruker maXis Impact
Instrument type: LC-ESI-QTOF
Ms type: MS2
Ion mode: POSITIVE
Ionization: ESI
Fragmentation mode: CID
Collision energy: Ramp 20.6-30.9 eV
Resolution: 35000
Column name: Acclaim RSLC C18 2.2um, 2.1x100mm, Thermo
Retention time: 2.808 min
Base peak: 273.1262
Precursor m/z: 273.1267
Precursor type: [M+H]+
m/z	relative intensity	assigned
106.0662	25	CH14O3S+
107.0734	12	CH15O3S+
116.0486	9	C8H6N+
117.0564	16	C8H7N+
118.0645	13	C8H8N+
119.0603	8	C7H7N2+
132.0672	19	C8H8N2+
133.0753	715	C8H9N2+
134.0826	305	C8H10N2+
135.0863	27	C7[13]CH10N2+
161.1061	6	C10H13N2+
175.1216	8	C8H17NO3+
176.1301	224	C8H18NO3+
177.1329	27	C7[13]CH18NO3+
198.0575	6	C9H12NO2S+
213.0687	999	C9H13N2O2S+
214.072	118	C8[13]CH13N2O2S+
215.0653	47	C9H13N2O2[34]S+
255.1161	790	C12H19N2O2S+
256.1193	113	C11[13]CH19N2O2S+
257.1126	30	C12H19N2O2[34]S+
273.1266	5	C12H21N2O3S+
