Mass spectrum: Carbamazepine-10,11-epoxide; LC-ESI-QTOF; MS2; CE: 10 eV; R=35000; [M+H]+
Name: Carbamazepine-10,11-epoxide
Name: Carbamazepine epoxide
Formula: C15H12N2O2
Exact mass: 252.0898776
SMILES: NC(=O)N1C2=C(C=CC=C2)C2OC2C2=C1C=CC=C2
InChI: InChI=1S/C15H12N2O2/c16-15(18)17-11-7-3-1-5-9(11)13-14(19-13)10-6-2-4-8-12(10)17/h1-8,13-14H,(H2,16,18)
Instrument: Bruker maXis Impact
Instrument type: LC-ESI-QTOF
Ms type: MS2
Ion mode: POSITIVE
Ionization: ESI
Fragmentation mode: CID
Collision energy: 10 eV
Resolution: 35000
Column name: Acclaim RSLC C18 2.2um, 2.1x100mm, Thermo
Retention time: 5.9 min
Base peak: 253.0972
Precursor m/z: 253.0972
Precursor type: [M+H]+
m/z	relative intensity	assigned
180.08	197	C13H10N+
181.0829	34	C12[13]CH10N+
208.0751	40	C14H10NO+
209.0785	8	C9H11N3O3+
210.0911	999	C14H12NO+
211.0943	120	C13[13]CH12NO+
212.0974	9	C12[13]C2H12NO+
236.0705	322	C15H10NO2+
237.0734	53	C14[13]CH10NO2+
253.0971	945	C15H13N2O2+
