Mass spectrum: Diclofenac; LC-ESI-QTOF; MS2; CE: 10 eV; R=35000; [M+H]+
Name: Diclofenac
Name: 2-[2-(2,6-dichloroanilino)phenyl]acetic acid
Formula: C14H11Cl2NO2
Exact mass: 295.0166840
SMILES: c1ccc(c(c1)CC(=O)O)Nc2c(cccc2Cl)Cl
InChI: InChI=1S/C14H11Cl2NO2/c15-10-5-3-6-11(16)14(10)17-12-7-2-1-4-9(12)8-13(18)19/h1-7,17H,8H2,(H,18,19)
Instrument: Bruker maXis Impact
Instrument type: LC-ESI-QTOF
Ms type: MS2
Ion mode: POSITIVE
Ionization: ESI
Fragmentation mode: CID
Collision energy: 10 eV
Resolution: 35000
Column name: Acclaim RSLC C18 2.2um, 2.1x100mm, Thermo
Retention time: 10.2 min
Base peak: 376.993
Precursor m/z: 296.024
Precursor type: [M+H]+
m/z	relative intensity	assigned
215.0464	367	C13H10ClN+
250.0152	999	C13H10Cl2N+
251.0148	207	C12H9Cl2N2+
252.0139	546	C13H10Cl[37]ClN+
278.0098	639	C14H10Cl2NO+
280.0006	404	C14H10Cl2O2+
296.019	909	C14H12Cl2NO2+
