Mass spectrum: Methyltriphenylphosphonium; LC-ESI-QTOF; MS2; CE: Ramp 20.8-31.2 eV; R=35000; [M+H]+
Name: Methyltriphenylphosphonium
Name: methyl(triphenyl)phosphanium
Formula: [C19H18P]+
Exact mass: 277.1146122
SMILES: C[P+](C1=CC=CC=C1)(C1=CC=CC=C1)C1=CC=CC=C1
InChI: InChI=1S/C19H18P/c1-20(17-11-5-2-6-12-17,18-13-7-3-8-14-18)19-15-9-4-10-16-19/h2-16H,1H3/q+1
Instrument: Bruker maXis Impact
Instrument type: LC-ESI-QTOF
Ms type: MS2
Ion mode: POSITIVE
Ionization: ESI
Fragmentation mode: CID
Collision energy: Ramp 20.8-31.2 eV
Resolution: 35000
Column name: Acclaim RSLC C18 2.2um, 2.1x100mm, Thermo
Retention time: 11.639 min
Base peak: 267.1721
Precursor m/z: 278.1219
Precursor type: [M+H]+
m/z	relative intensity	assigned
57.0701	999	C4H9+
