Mass spectrum: Denatonium; LC-ESI-QTOF; MS2; CE: 30 eV; R=35000; [M+H]+
Name: Denatonium
Name: benzyl-[2-(2,6-dimethylanilino)-2-oxoethyl]-diethylazanium
Formula: [C21H29N2O]+
Exact mass: 325.2279885
SMILES: CC[N+](CC)(CC(=O)NC1=C(C)C=CC=C1C)CC1=CC=CC=C1
InChI: InChI=1S/C21H28N2O/c1-5-23(6-2,15-19-13-8-7-9-14-19)16-20(24)22-21-17(3)11-10-12-18(21)4/h7-14H,5-6,15-16H2,1-4H3/p+1
Instrument: Bruker maXis Impact
Instrument type: LC-ESI-QTOF
Ms type: MS2
Ion mode: POSITIVE
Ionization: ESI
Fragmentation mode: CID
Collision energy: 30 eV
Resolution: 35000
Column name: Acclaim RSLC C18 2.2um, 2.1x100mm, Thermo
Retention time: 10.821 min
Base peak: 233.11
Precursor m/z: 326.2353
Precursor type: [M+H]+
m/z	relative intensity	assigned
175.1104	648	C12H15O+
221.1161	999	C16H15N+
