Mass spectrum: Azoxystrobin; LC-ESI-QTOF; MS2; CE: 50 eV; R=35000; [M+H]+
Name: Azoxystrobin
Name: Methyl (E)-2-[2-[6-(2-cyanophenoxy)pyrimidin-4-YL]oxyphenyl]-3-methoxy-prop-2-enoate
Formula: C22H17N3O5
Exact mass: 403.1168206
SMILES: CO/C=C(\C1=CC=CC=C1OC2=NC=NC(=C2)OC3=CC=CC=C3C#N)/C(=O)OC
InChI: InChI=1S/C22H17N3O5/c1-27-13-17(22(26)28-2)16-8-4-6-10-19(16)30-21-11-20(24-14-25-21)29-18-9-5-3-7-15(18)12-23/h3-11,13-14H,1-2H3/b17-13+
Instrument: Bruker maXis Impact
Instrument type: LC-ESI-QTOF
Ms type: MS2
Ion mode: POSITIVE
Ionization: ESI
Fragmentation mode: CID
Collision energy: 50 eV
Resolution: 35000
Column name: Acclaim RSLC C18 2.2um, 2.1x100mm, Thermo
Retention time: 9.0 min
Base peak: 404.1242
Precursor m/z: 404.1241
Precursor type: [M+H]+
m/z	relative intensity	assigned
114.0331	12	C8H4N+
116.0487	15	C8H6N+
117.0566	7	C8H7N+
119.0352	8	C4H7O4+
120.0432	22	C7H6NO+
121.0645	7	C8H9O+
127.0413	16	C9H5N+
128.0479	16	C6H8O3+
129.033	15	C9H5O+
129.0438	51	C8H5N2+
130.0275	19	C8H4NO+
130.0483	9	C5H8NO3+
130.0638	5	C9H8N+
131.0486	8	C9H7O+
131.0591	6	C8H7N2+
132.0437	14	C8H6NO+
133.0282	9	C8H5O2+
134.0353	10	C6H4N3O+
134.059	137	C8H8NO+
135.0624	9	C7[13]CH8NO+
140.0488	5	C10H6N+
141.0436	37	C9H5N2+
142.0489	6	C6H8NO3+
143.0358	21	C9H5NO+
143.059	64	C6H9NO3+
144.0433	34	C9H6NO+
145.0272	28	C7H3N3O+
145.0511	88	C9H7NO+
146.0233	13	C8H4NO2+
146.0572	14	C8[13]CH7NO+
147.0427	8	C7H5N3O+
154.0282	5	C10H4NO+
154.0515	9	C10H6N2+
155.0352	12	C7H7O4+
155.0588	33	C7H9NO3+
156.0435	443	C10H6NO+
157.0273	25	C8H3N3O+
157.047	47	C9[13]CH6NO+
158.0331	5	C5H6N2O4+
159.0308	6	C9H5NO2+
159.0542	12	C9H7N2O+
160.0382	13	C9H6NO2+
161.0697	7	C9H9N2O+
162.03	12	C7H4N3O2+
162.0538	5	C9H8NO2+
169.0383	47	C7H7NO4+
170.0227	8	C10H4NO2+
170.046	32	C7H8NO4+
171.0298	28	C7H7O5+
172.0384	569	C10H6NO2+
173.044	73	C7H9O5+
174.0493	7	C6[13]CH9O5+
175.0379	6	C8H5N3O2+
177.0536	22	C8H7N3O2+
181.0386	7	C11H5N2O+
182.0707	23	C11H8N3+
183.0544	595	C11H7N2O+
184.0386	18	C11H6NO2+
185.0351	7	C10H5N2O2+
186.0539	18	C11H8NO2+
187.0491	16	C10H7N2O2+
197.0341	8	C11H5N2O2+
197.0701	7	C12H9N2O+
198.0397	8	C8H8NO5+
201.0409	203	C11H7NO3+
201.0649	24	C11H9N2O2+
202.0447	24	C10[13]CH7NO3+
204.0804	5	C15H10N+
207.0544	8	C13H7N2O+
210.0654	16	C12H8N3O+
211.0485	68	C9H9NO5+
212.0516	10	C8[13]CH9NO5+
216.0651	44	C12H10NO3+
217.0687	7	C11[13]CH10NO3+
218.0837	12	C15H10N2+
219.0892	5	C12H13NO3+
220.0754	5	C15H10NO+
227.0442	12	C12H7N2O3+
229.0749	6	C16H9N2+
231.0923	10	C16H11N2+
232.0772	8	C16H10NO+
233.0716	9	C15H9N2O+
233.088	5	C12H13N2O3+
236.0691	6	C12H12O5+
242.0318	35	C12H6N2O4+
244.0864	25	C16H10N3+
245.093	15	C13H13N2O3+
246.0786	28	C16H10N2O+
247.0842	13	C13H13NO4+
256.0879	8	C19H12O+
257.0697	11	C17H9N2O+
258.0772	14	C14H12NO4+
259.0845	16	C14H13NO4+
260.0729	7	C17H10NO2+
260.0872	6	C18H12O2+
261.0787	12	C17H11NO2+
261.1011	5	C17H13N2O+
262.0847	10	C14H14O5+
271.0826	8	C15H13NO4+
275.0797	42	C14H13NO5+
276.0836	9	C13[13]CH13NO5+
284.0805	14	C18H10N3O+
285.0639	6	C15H11NO5+
285.0884	6	C18H11N3O+
286.0949	5	C15H14N2O4+
287.0809	19	C18H11N2O2+
288.065	10	C18H10NO3+
288.0857	7	C15H14NO5+
288.1093	5	C15H16N2O4+
289.096	6	C18H13N2O2+
301.0841	305	C18H11N3O2+
302.0877	63	C17[13]CH11N3O2+
312.0778	13	C21H12O3+
314.0907	8	C16H14N2O5+
315.0992	7	C19H13N3O2+
316.1062	8	C16H16N2O5+
329.0793	999	C19H11N3O3+
330.0817	189	C20H12NO4+
331.0851	19	C19[13]CH12NO4+
344.1024	57	C20H14N3O3+
345.1066	15	C19[13]CH14N3O3+
