Mass spectrum: Fipronil desulfinyl; LC-ESI-QTOF; MS2; CE: 40 eV; R=35000; [M-H]-
Name: Fipronil desulfinyl
Name: Desulfinylfipronil
Name: 5-amino-1-[2,6-dichloro-4-(trifluoromethyl)phenyl]-4-(trifluoromethyl)pyrazole-3-carbonitrile
Formula: C12H4Cl2F6N4
Exact mass: 387.9717208
SMILES: NC1=C(C(=NN1C1=C(Cl)C=C(C=C1Cl)C(F)(F)F)C#N)C(F)(F)F
InChI: InChI=1S/C12H4Cl2F6N4/c13-5-1-4(11(15,16)17)2-6(14)9(5)24-10(22)8(12(18,19)20)7(3-21)23-24/h1-2H,22H2
Instrument: Bruker maXis Impact
Instrument type: LC-ESI-QTOF
Ms type: MS2
Ion mode: NEGATIVE
Ionization: ESI
Fragmentation mode: CID
Collision energy: 40 eV
Resolution: 35000
Column name: Acclaim RSLC C18 2.2um, 2.1x100mm, Thermo
Retention time: 10.233 min
Base peak: 350.987
Precursor m/z: 386.9644
Precursor type: [M-H]-
m/z	relative intensity	assigned
133.0011	9	C4F3N2-
135.0106	56	C5FN4-
183.0161	10	C8H2F3N2-
185.0067	18	C6F3N4-
193.0019	18	C9F3N2-
193.9915	6	ClF6H3N3-
194.0029	5	C2F6N4-
203.9829	121	C8H2ClF3N-
204.9861	7	C7[13]CH2ClF3N-
205.9807	33	C8H2[37]ClF3N-
207.0098	11	C3HF6N4-
216.9774	14	C8HClF3N2-
226.0097	6	C8H2F6N-
227.0156	23	C11HF2N4-
228.0198	9	C9H2F4N3-
228.9779	33	C9HClF3N2-
229.9803	5	C8[13]CHClF3N2-
230.9743	7	C9H[37]ClF3N2-
231.9942	9	C2H3ClF6N4-
236.9842	106	C8H2ClF4N2-
237.9881	7	C7[13]CH2ClF4N2-
238.9815	25	C8H2[37]ClF4N2-
242.9964	10	C10H3ClF3N2-
243.9873	8	C9H2ClF3N3-
245.0064	5	C11F3N4-
246.0157	22	C11HF3N4-
247.024	15	C11H2F3N4-
250.003	5	C11F4N3-
258.9692	5	C10ClF4N2-
260.9773	6	C11ClF2N4-
261.9823	69	C11HClF2N4-
262.9899	13	C10[13]CHClF2N4-
263.9787	15	C11H[37]ClF2N4-
266.0213	13	C11H2F4N4-
270.0092	6	C11HF5N3-
274.9857	22	C10H2ClF4N3-
276.0057	19	C12F4N4-
277.0116	9	C12HF4N4-
278.9741	14	C10HClF5N2-
280.9809	12	C9HClF5N3-
281.9922	999	C11H2ClF3N4-
282.9946	81	C10[13]CH2ClF3N4-
283.9885	223	C11H2[37]ClF3N4-
284.9911	12	C8H3ClF5N4-
285.9781	10	C11HClF4N3-
290.0161	6	C11H2F6N3-
295.0033	145	C12F5N4-
296.0103	47	C12HF5N4-
297.0163	12	C12H2F5N4-
298.9918	7	C12H2ClF4N3-
305.9851	124	C11H2ClF5N3-
306.9867	12	C10[13]CH2ClF5N3-
307.9818	28	C11H2[37]ClF5N3-
310.9735	68	C12ClF4N4-
311.9805	12	C11[13]CClF4N4-
312.971	17	C12[37]ClF4N4-
315.0075	9	C12HF6N4-
316.0184	44	C12H2F6N4-
324.9837	255	C11H2ClF6N3-
325.9854	27	C10[13]CH2ClF6N3-
326.9796	64	C11H2[37]ClF6N3-
330.9805	225	C12HClF5N4-
331.9824	20	C11[13]CHClF5N4-
332.9762	45	C12H[37]ClF5N4-
349.9768	9	C12HClF6N4-
350.9865	334	C12H2ClF6N4-
351.99	37	C11[13]CH2ClF6N4-
352.9837	71	C12H2[37]ClF6N4-
