Mass spectrum: Prochloraz BTS40348; LC-ESI-QTOF; MS2; CE: 30 eV; R=35000; [M+H]+
Name: Prochloraz BTS40348
Name: N-(2-(2,4,6-Trichlorophenoxy)ethyl)propan-1-amine
Name: N-[2-(2,4,6-trichlorophenoxy)ethyl]propan-1-amine
Formula: C11H14Cl3NO
Exact mass: 281.0140971
SMILES: CCCNCCOC1=C(Cl)C=C(Cl)C=C1Cl
InChI: InChI=1S/C11H14Cl3NO/c1-2-3-15-4-5-16-11-9(13)6-8(12)7-10(11)14/h6-7,15H,2-5H2,1H3
Instrument: Bruker maXis Impact
Instrument type: LC-ESI-QTOF
Ms type: MS2
Ion mode: POSITIVE
Ionization: ESI
Fragmentation mode: CID
Collision energy: 30 eV
Resolution: 35000
Column name: Acclaim RSLC C18 2.2um, 2.1x100mm, Thermo
Retention time: 7.000 min
Base peak: 282.0207
Precursor m/z: 282.0214
Precursor type: [M+H]+
m/z	relative intensity	assigned
132.9594	55	C5H3Cl2+
134.0939	95	C9H12N+
152.0011	43	C8H5ClO+
158.9747	297	C7H5Cl2+
159.9819	120	C7H6Cl2+
160.9549	82	C6H3Cl2O+
160.9725	165	C7H5Cl[37]Cl+
161.9618	212	C6H4Cl2O+
161.9825	58	C7H6Cl[37]Cl+
163.9579	93	C6H4Cl[37]ClO+
166.92	136	C5H2Cl3+
168.9167	87	C5H2Cl2[37]Cl+
179.9276	126	C6H3Cl3+
181.9245	117	C6H3Cl2[37]Cl+
182.035	55	C9H9ClNO+
186.9703	107	C5H8Cl3N+
187.9774	265	C8H6Cl2O+
188.9682	90	C5H8Cl2[37]ClN+
188.9832	58	C8H7Cl2O+
189.978	159	C8H6Cl[37]ClO+
190.9822	42	C8H7Cl[37]ClO+
191.9775	79	C4H9Cl3NO+
194.9153	557	C6H2Cl3O+
194.9531	100	C7H6Cl3+
195.9189	44	C5[13]CH2Cl3O+
196.9119	446	C6H2Cl2[37]ClO+
196.93	421	C6H4Cl3O+
196.9489	82	C7H6Cl2[37]Cl+
198.9275	403	C6H4Cl2[37]ClO+
202.9896	41	C8H7Cl2NO+
220.0061	41	C6H13Cl3NO+
222.9471	541	C8H6Cl3O+
223.9528	56	C7[13]CH6Cl3O+
224.9436	417	C8H6Cl2[37]ClO+
239.9729	167	C8H9Cl3NO+
241.9714	144	C8H9Cl2[37]ClNO+
246.044	50	C11H14Cl2NO+
282.0198	999	C11H15Cl3NO+
283.0237	100	C10[13]CH15Cl3NO+
284.0172	871	C11H15Cl2[37]ClNO+
