Mass spectrum: Coumaphos; LC-ESI-QTOF; MS2; CE: 40 eV; R=35000; [M+H]+
Name: Coumaphos
Name: 3-chloro-7-diethoxyphosphinothioyloxy-4-methylchromen-2-one
Formula: C14H16ClO5PS
Exact mass: 362.0144589
SMILES: CCOP(=S)(OCC)Oc1ccc2c(c(c(=O)oc2c1)Cl)C
InChI: InChI=1S/C14H16ClO5PS/c1-4-17-21(22,18-5-2)20-10-6-7-11-9(3)13(15)14(16)19-12(11)8-10/h6-8H,4-5H2,1-3H3
Instrument: Bruker maXis Impact
Instrument type: LC-ESI-QTOF
Ms type: MS2
Ion mode: POSITIVE
Ionization: ESI
Fragmentation mode: CID
Collision energy: 40 eV
Resolution: 35000
Column name: Acclaim RSLC C18 2.2um, 2.1x100mm, Thermo
Retention time: 11.0 min
Base peak: 363.0219
Precursor m/z: 363.0217
Precursor type: [M+H]+
m/z	relative intensity	assigned
115.0552	9	ClH16O2S+
131.0484	14	C9H7O+
132.0562	12	C9H8O+
147.0267	19	C9H7S+
150.0233	12	C9H7Cl+
163.0201	13	C9H7OS+
164.0285	17	C9H8OS+
165.0101	8	C9H6ClO+
166.0186	6	C9H7ClO+
191.0189	9	C10H7O2S+
192.0217	7	C4H13ClO4S+
194.0134	36	ClH16O5PS+
196.0089	7	C3H14ClO3PS+
196.9828	7	C9H6ClOS+
208.9994	9	C9H6O4P+
210.0069	19	C9H7O4P+
211.0155	221	C9H8O4P+
212.0188	22	C8[13]CH8O4P+
213.0128	44	C10H8[37]ClO3+
224.9766	28	C9H6O3PS+
225.9857	70	C10H7ClO2S+
226.9926	999	C9H8O3PS+
227.9952	70	C6H10ClO5P+
228.9897	223	C9H6ClO5+
229.9942	11	C9[13]CH8[37]ClO2S+
256.9774	6	C10H7ClO4P+
270.9396	14	C10H5ClO3PS+
272.9362	7	C13H3ClOPS+
272.9714	9	C10H7ClO5P+
288.9493	122	C10H7ClO4PS+
289.9549	17	C10H8ClO4PS+
290.9451	33	C10H7[37]ClO4PS+
290.9838	17	C13H8O4PS+
292.9826	7	C10H11ClO4PS+
306.9618	17	C10H9ClO5PS+
