Mass spectrum: 1,6-Bis(acryloyloxy)hexane; GC-APCI-QTOF; MS2; CE: 20 eV; R=35000; [M+H]+
Name: 1,6-Bis(acryloyloxy)hexane
Formula: C12H18O4
Exact mass: 226.1205
SMILES: C=CC(=O)OCCCCCCOC(=O)C=C
InChI: InChI=1S/C12H18O4/c1-3-11(13)15-9-7-5-6-8-10-16-12(14)4-2/h3-4H,1-2,5-10H2
Instrument: Bruker 450 GC coupled to maXis Impact
Instrument type: GC-APCI-QTOF
Ms type: MS2
Ion mode: POSITIVE
Ionization: APCI
Fragmentation mode: CID
Collision energy: 20 eV
Resolution: 35000
Column name: Rxi-5Sil MS column, 30m, 0.25mm i.d., 0.25Âµm film thickness, Restek
Retention time: 13.111 min
Base peak: 256.116
Precursor m/z: 227.1278
Precursor type: [M+H]+
m/z	relative intensity	assigned
53.0395	24	C4H5+
55.0185	100	C3H3O+
55.055	999	C4H7+
73.0277	141	C3H5O2+
83.0852	391	C6H11+
113.0619	32	C6H9O2+
125.0251	20	C6H5O3+
143.0374	21	C6H7O4+
161.1365	21	C12H17+
