Mass spectrum: Amidosulfuron; LC-ESI-QTOF; MS2; CE: 30 eV; R=35000; [M+H]+
Name: Amidosulfuron
Name: 1-(4,6-dimethoxypyrimidin-2-yl)-3-[methyl(methylsulfonyl)sulfamoyl]urea
Formula: C9H15N5O7S2
Exact mass: 369.0412898
SMILES: COC1=CC(OC)=NC(NC(=O)NS(=O)(=O)N(C)S(C)(=O)=O)=N1
InChI: InChI=1S/C9H15N5O7S2/c1-14(22(4,16)17)23(18,19)13-9(15)12-8-10-6(20-2)5-7(11-8)21-3/h5H,1-4H3,(H2,10,11,12,13,15)
Instrument: Bruker maXis Impact
Instrument type: LC-ESI-QTOF
Ms type: MS2
Ion mode: POSITIVE
Ionization: ESI
Fragmentation mode: CID
Collision energy: 30 eV
Resolution: 35000
Column name: Acclaim RSLC C18 2.2um, 2.1x100mm, Thermo
Retention time: 6.960 min
Base peak: 370.0482
Precursor m/z: 370.0486
Precursor type: [M+H]+
m/z	relative intensity	assigned
124.05	50	C5H6N3O+
126.0654	11	C5H8N3O+
127.049	47	C3H5N5O+
139.0361	152	C3H11N2S2+
142.0604	33	C5H8N3O2+
154.06	205	C6H8N3O2+
155.0632	18	C5[13]CH8N3O2+
156.0748	10	C4H16N2S2+
157.0595	10	C4H7N5O2+
181.0703	27	C5H15N3S2+
182.0551	105	C7H8N3O3+
183.058	12	C6[13]CH8N3O3+
199.0825	8	C7H11N4O3+
218.0219	335	C8H10O5S+
219.0228	46	C7[13]CH10O5S+
220.0179	21	C8H10O5[34]S+
236.0326	999	C6H10N3O5S+
237.0348	81	C5[13]CH10N3O5S+
238.0298	41	C6H10N3O5[34]S+
261.028	409	C7H9N4O5S+
262.0307	40	C6[13]CH9N4O5S+
263.0244	18	C7H9N4O5[34]S+
279.039	111	C7H11N4O6S+
281.0355	8	C7H11N4O6[34]S+
