Mass spectrum: Cyclohexylamine; LC-ESI-QTOF; MS2; CE: Ramp 14.4-21.6 eV; R=35000; [M+H]+
Name: Cyclohexylamine
Name: cyclohexanamine
Formula: C6H13N
Exact mass: 99.10479942
SMILES: NC1CCCCC1
InChI: InChI=1S/C6H13N/c7-6-4-2-1-3-5-6/h6H,1-5,7H2
Instrument: Bruker maXis Impact
Instrument type: LC-ESI-QTOF
Ms type: MS2
Ion mode: POSITIVE
Ionization: ESI
Fragmentation mode: CID
Collision energy: Ramp 14.4-21.6 eV
Resolution: 35000
Column name: Acclaim RSLC C18 2.2um, 2.1x100mm, Thermo
Retention time: 2.827 min
Base peak: 100.1129
Precursor m/z: 100.1121
Precursor type: [M+H]+
m/z	relative intensity	assigned
53.0381	36	C4H5+
55.0537	999	C4H7+
56.0576	58	C3[13]CH7+
58.0646	70	C3H8N+
74.0948	38	C4H12N+
83.0852	296	C6H11+
100.1118	50	C6H14N+
