Mass spectrum: Galaxolidone; LC-ESI-QTOF; MS2; CE: 40 eV; R=35000; [M+H]+
Name: Galaxolidone
Name: SCHEMBL4657606
Name: 4,6,6,7,8,8-hexamethyl-4,7-dihydro-3H-cyclopenta[g]isochromen-1-one
Formula: C18H24O2
Exact mass: 272.1776300
SMILES: CC1C(C)(C)c2cc3C(C)COC(=O)c3cc2C1(C)C
InChI: InChI=1S/C18H24O2/c1-10-9-20-16(19)13-8-15-14(7-12(10)13)17(3,4)11(2)18(15,5)6/h7-8,10-11H,9H2,1-6H3
Instrument: Bruker maXis Impact
Instrument type: LC-ESI-QTOF
Ms type: MS2
Ion mode: POSITIVE
Ionization: ESI
Fragmentation mode: CID
Collision energy: 40 eV
Resolution: 35000
Column name: Acclaim RSLC C18 2.2um, 2.1x100mm, Thermo
Retention time: 12.0 min
Base peak: 279.1588
Precursor m/z: 273.1849
Precursor type: [M+H]+
m/z	relative intensity	assigned
129.0695	229	C10H9+
142.0766	118	C11H10+
157.1004	295	C12H13+
169.1009	115	C13H13+
183.1159	128	C14H15+
185.0936	142	C13H13O+
197.1312	394	C15H17+
198.137	128	C15H18+
211.11	232	C15H15O+
212.1555	407	C16H20+
213.1585	109	C11H21N2O2+
225.1262	999	C16H17O+
226.1321	300	C16H18O+
240.1504	344	C17H20O+
255.1751	202	C18H23O+
