Mass spectrum: alpha-Hydroxymidazolam; LC-ESI-QTOF; MS2; CE: 50 eV; R=35000; [M+H]+
Name: alpha-Hydroxymidazolam
Name: 1-Hydroxymidazolam
Name: [8-chloro-6-(2-fluorophenyl)-4H-imidazo[1,5-a][1,4]benzodiazepin-1-yl]methanol
Formula: C18H13ClFN3O
Exact mass: 341.0731179
SMILES: C1C2=CN=C(N2C3=C(C=C(C=C3)Cl)C(=N1)C4=CC=CC=C4F)CO
InChI: InChI=1S/C18H13ClFN3O/c19-11-5-6-16-14(7-11)18(13-3-1-2-4-15(13)20)22-9-12-8-21-17(10-24)23(12)16/h1-8,24H,9-10H2
Instrument: Bruker maXis Impact
Instrument type: LC-ESI-QTOF
Ms type: MS2
Ion mode: POSITIVE
Ionization: ESI
Fragmentation mode: CID
Collision energy: 50 eV
Resolution: 35000
Column name: Acclaim RSLC C18 2.2um, 2.1x100mm, Thermo
Retention time: 8.576 min
Base peak: 342.0801
Precursor m/z: 342.0804
Precursor type: [M+H]+
m/z	relative intensity	assigned
114.046	8	C4H5FN3+
117.0565	7	C8H7N+
121.0447	6	C8H6F+
122.0393	5	C7H5FN+
125.0144	45	C2H5ClFN3+
127.0114	10	C2H5[37]ClFN3+
127.0407	7	C9H5N+
128.048	9	C9H6N+
133.044	13	C9H6F+
134.0399	7	C8H5FN+
136.0063	25	C3H4ClFN3+
138.0038	6	C3H4[37]ClFN3+
140.0485	141	C10H6N+
141.0562	198	C10H7N+
142.0582	16	C9[13]CH7N+
149.0143	88	C4H5ClFN3+
150.0102	20	C8H5ClN+
151.0113	26	C4H5[37]ClFN3+
152.007	9	C8H5[37]ClN+
160.055	7	C10H7FN+
162.0094	43	C9H5ClN+
163.0061	8	C8H4ClN2+
163.0152	10	C10HN3+
164.0058	13	C9H5[37]ClN+
166.0518	6	C11H6N2+
167.0591	20	C11H7N2+
168.0672	999	C11H8N2+
169.0705	87	C10[13]CH8N2+
174.0096	12	C8HFN3O+
176.0248	191	C10H7ClN+
177.0269	24	C9[13]CH7ClN+
178.0221	58	C10H7[37]ClN+
180.0196	15	C10H2N3O+
183.0599	8	C13H8F+
187.0055	11	C13HNO+
187.0654	5	C11H8FN2+
193.0619	26	C12H7N3+
194.0695	8	C12H8N3+
201.0201	6	C14H3NO+
201.0564	6	C15H7N+
202.0281	13	C14H4NO+
203.0363	197	C11H8ClN2+
204.0389	20	C10[13]CH8ClN2+
205.033	51	C11H8[37]ClN2+
208.055	14	C14H7FN+
209.0621	35	C14H8FN+
210.0675	7	C13[13]CH8FN+
214.063	9	C16H8N+
215.0712	5	C16H9N+
221.0627	37	C15H8FN+
222.0701	24	C15H9FN+
223.0675	6	C14H8FN2+
228.0313	8	C15H4N2O+
228.0673	5	C16H8N2+
229.0746	5	C16H9N2+
230.029	5	C14H8ClF+
234.0708	25	C16H9FN+
235.0784	97	C16H10FN+
236.0256	5	C13H3FN3O+
236.0745	59	C15H9FN2+
237.0783	8	C14[13]CH9FN2+
241.0749	11	C17H9N2+
242.083	82	C17H10N2+
243.0898	33	C17H11N2+
244.0942	5	C16[13]CH11N2+
245.0388	7	C15H4FN3+
247.067	16	C16H8FN2+
248.0724	12	C13H13ClN2O+
249.0817	81	C16H10FN2+
250.0397	9	C17H4N3+
250.085	15	C15[13]CH10FN2+
256.0314	33	C15H8ClFN+
257.0283	26	C14H7ClFN2+
258.0313	14	C15H8[37]ClFN+
259.0247	7	C14H7[37]ClFN2+
259.0404	5	C17H6FNO+
260.0738	19	C17H9FN2+
261.0817	109	C17H10FN2+
262.0889	139	C17H11FN2+
263.0386	5	C13H9ClFN2O+
263.0935	21	C16[13]CH11FN2+
265.0515	7	C16H10ClN2+
268.0859	15	C18H10N3+
269.0395	11	C16H9ClFN+
269.0936	24	C18H11N3+
270.047	28	C16H10ClFN+
270.0999	7	C17[13]CH11N3+
271.0438	10	C15H9ClFN2+
272.0445	9	C16H10[37]ClFN+
274.0774	6	C17H9FN3+
276.0441	12	C17H9ClN2+
277.0521	79	C17H10ClN2+
277.1007	5	C17H12FN3+
278.054	16	C16[13]CH10ClN2+
279.05	22	C17H10[37]ClN2+
283.0427	97	C16H9ClFN2+
284.0476	25	C15[13]CH9ClFN2+
285.0398	33	C16H9[37]ClFN2+
286.0446	6	C16H10ClFNO+
287.0839	5	C18H10FN3+
288.0926	89	C18H11FN3+
289.0998	97	C18H12FN3+
290.103	16	C17[13]CH12FN3+
295.0427	31	C17H9ClFN2+
296.0503	115	C17H10ClFN2+
297.0576	125	C17H11ClFN2+
298.0515	39	C17H10[37]ClFN2+
299.055	35	C17H11[37]ClFN2+
300.055	5	C18H7FN3O+
303.0544	8	C18H10ClN3+
304.0627	59	C18H11ClN3+
305.0674	13	C17[13]CH11ClN3+
306.0599	16	C18H11[37]ClN3+
307.041	7	C18H9ClFN2+
308.0375	22	C17H8ClFN3+
309.0437	8	C17H9ClFN3+
310.0348	6	C17H8[37]ClFN3+
322.0533	25	C18H10ClFN3+
323.0598	11	C18H11ClFN3+
324.0686	39	C18H12ClFN3+
325.0715	7	C17[13]CH12ClFN3+
326.067	12	C18H12[37]ClFN3+
