Mass spectrum: Flecainide; LC-ESI-QTOF; MS2; CE: 40 eV; R=35000; [M+H]+
Name: Flecainide
Name: N-(piperidin-2-ylmethyl)-2,5-bis(2,2,2-trifluoroethoxy)benzamide
Formula: C17H20F6N2O3
Exact mass: 414.1378118
SMILES: c1cc(c(cc1OCC(F)(F)F)C(=O)NCC2CCCCN2)OCC(F)(F)F
InChI: InChI=1S/C17H20F6N2O3/c18-16(19,20)9-27-12-4-5-14(28-10-17(21,22)23)13(7-12)15(26)25-8-11-3-1-2-6-24-11/h4-5,7,11,24H,1-3,6,8-10H2,(H,25,26)
Instrument: Bruker maXis Impact
Instrument type: LC-ESI-QTOF
Ms type: MS2
Ion mode: POSITIVE
Ionization: ESI
Fragmentation mode: CID
Collision energy: 40 eV
Resolution: 35000
Column name: Acclaim RSLC C18 2.2um, 2.1x100mm, Thermo
Retention time: 6.307 min
Base peak: 415.1457
Precursor m/z: 415.1451
Precursor type: [M+H]+
m/z	relative intensity	assigned
209.0207	11	C11H4F3O+
232.0963	72	C8H14F4NO2+
233.0994	9	C7[13]CH14F4NO2+
236.0283	15	C12H6F2O3+
237.0163	18	C12H4F3O2+
253.0274	9	C13H5F4O+
281.0225	8	C14H5F4O2+
287.0495	7	C14H8F5O+
298.1047	8	C15H15F3NO2+
301.0293	999	C11H7F6O3+
302.0325	76	C10[13]CH7F6O3+
303.0344	6	C9[13]C2H7F6O3+
315.1073	32	C15H16F3NO3+
316.1107	5	C14[13]CH16F3NO3+
318.0554	11	C11H10F6NO3+
398.1189	560	C17H18F6NO3+
399.122	83	C16[13]CH18F6NO3+
400.1239	6	C15[13]C2H18F6NO3+
415.1449	18	C17H21F6N2O3+
