Mass spectrum: N-Phenyl-1-naphthylamine; LC-ESI-QTOF; MS2; CE: 10 eV; R=35000; [M+H]+
Name: N-Phenyl-1-naphthylamine
Name: N-phenylnaphthalen-1-amine
Formula: C16H13N
Exact mass: 219.1047994
SMILES: N(C1=CC=CC=C1)C1=CC=CC2=C1C=CC=C2
InChI: InChI=1S/C16H13N/c1-2-9-14(10-3-1)17-16-12-6-8-13-7-4-5-11-15(13)16/h1-12,17H
Instrument: Bruker maXis Impact
Instrument type: LC-ESI-QTOF
Ms type: MS2
Ion mode: POSITIVE
Ionization: ESI
Fragmentation mode: CID
Collision energy: 10 eV
Resolution: 35000
Column name: Acclaim RSLC C18 2.2um, 2.1x100mm, Thermo
Retention time: 11.652 min
Base peak: 220.1114
Precursor m/z: 220.1121
Precursor type: [M+H]+
m/z	relative intensity	assigned
143.071	11	C10H9N+
177.0531	6	C13H7N+
219.1034	112	C16H13N+
220.1116	999	C16H14N+
221.1146	171	C15[13]CH14N+
222.1167	17	C14[13]C2H14N+
