Mass spectrum: Picolinafen; LC-ESI-QTOF; MS2; CE: 40 eV; R=35000; [M+H]+
Name: Picolinafen
Name: N-(4-fluorophenyl)-6-[3-(trifluoromethyl)phenoxy]pyridine-2-carboxamide
Formula: C19H12F4N2O2
Exact mass: 376.0834905
SMILES: FC1=CC=C(NC(=O)C2=NC(OC3=CC=CC(=C3)C(F)(F)F)=CC=C2)C=C1
InChI: InChI=1S/C19H12F4N2O2/c20-13-7-9-14(10-8-13)24-18(26)16-5-2-6-17(25-16)27-15-4-1-3-12(11-15)19(21,22)23/h1-11H,(H,24,26)
Instrument: Bruker maXis Impact
Instrument type: LC-ESI-QTOF
Ms type: MS2
Ion mode: POSITIVE
Ionization: ESI
Fragmentation mode: CID
Collision energy: 40 eV
Resolution: 35000
Column name: Acclaim RSLC C18 2.2um, 2.1x100mm, Thermo
Retention time: 12.338 min
Base peak: 377.0909
Precursor m/z: 377.0908
Precursor type: [M+H]+
m/z	relative intensity	assigned
145.0246	45	C7H4F3+
173.0307	23	C7H4F3N2+
183.0402	13	C10H6F3+
190.0449	22	C11H6F2N+
210.0511	37	C11H7F3N+
218.04	9	C15H5FN+
236.0512	14	C15H7FNO+
238.0467	999	C15H6F2N+
239.0499	104	C14[13]CH6F2N+
240.0522	7	C13[13]C2H6F2N+
256.0575	460	C15H8F2NO+
257.0605	58	C14[13]CH8F2NO+
258.0623	5	C13[13]C2H8F2NO+
289.0754	5	C18H10FN2O+
359.0799	169	C19H11F4N2O+
360.0824	34	C18[13]CH11F4N2O+
