Mass spectrum: Ketamine; LC-ESI-QTOF; MS2; CE: 20 eV; R=35000; [M+H]+
Name: Ketamine
Name: 2-(2-chlorophenyl)-2-(methylamino)cyclohexan-1-one
Formula: C13H16ClNO
Exact mass: 237.0920418
SMILES: CNC1(CCCCC1=O)C1=CC=CC=C1Cl
InChI: InChI=1S/C13H16ClNO/c1-15-13(9-5-4-8-12(13)16)10-6-2-3-7-11(10)14/h2-3,6-7,15H,4-5,8-9H2,1H3
Instrument: Bruker maXis Impact
Instrument type: LC-ESI-QTOF
Ms type: MS2
Ion mode: POSITIVE
Ionization: ESI
Fragmentation mode: CID
Collision energy: 20 eV
Resolution: 35000
Column name: Acclaim RSLC C18 2.2um, 2.1x100mm, Thermo
Retention time: 4.514 min
Base peak: 238.099
Precursor m/z: 238.0993
Precursor type: [M+H]+
m/z	relative intensity	assigned
125.0145	999	C7H6Cl+
126.0178	58	C6[13]CH6Cl+
127.0115	240	C7H6[37]Cl+
128.0145	10	C8H2NO+
128.061	11	C10H8+
129.0688	6	C10H9+
138.9934	9	C7H4ClO+
141.0088	25	C7H6ClO+
143.0061	6	C7H6[37]ClO+
143.0848	9	C11H11+
144.0921	14	C11H12+
149.0138	8	C9H6Cl+
151.0297	40	C9H8Cl+
152.0249	67	C8H7ClN+
153.0272	16	C9H8[37]Cl+
153.0685	20	C12H9+
154.0221	18	C8H7[37]ClN+
154.0762	26	C12H10+
156.0918	5	C12H12+
157.0872	5	C11H11N+
163.0298	172	C10H8Cl+
164.0329	14	C9[13]CH8Cl+
165.0087	50	C9H6ClO+
165.0268	46	C10H8[37]Cl+
165.0453	26	C10H10Cl+
167.0062	14	C9H6[37]ClO+
167.0425	6	C10H10[37]Cl+
172.0874	5	C12H12O+
177.0452	5	C11H10Cl+
179.0613	931	C11H12Cl+
180.0647	84	C10[13]CH12Cl+
181.0583	200	C11H12[37]Cl+
182.0609	14	C12H8NO+
185.1187	12	C13H15N+
189.0454	106	C12H10Cl+
190.0486	14	C11[13]CH10Cl+
191.0424	35	C12H10[37]Cl+
191.0603	10	C12H12Cl+
192.0555	6	C11H11ClN+
207.0564	648	C12H12ClO+
208.0596	67	C11[13]CH12ClO+
209.0535	161	C12H12[37]ClO+
220.0881	589	C13H15ClN+
221.0912	65	C12[13]CH15ClN+
222.0851	142	C13H15[37]ClN+
223.0887	13	C13H16ClO+
238.0987	298	C13H17ClNO+
239.1015	39	C12[13]CH17ClNO+
240.0957	85	C13H17[37]ClNO+
