Mass spectrum: Desacetyldiltiazem; LC-ESI-QTOF; MS2; CE: Ramp 23.1-34.6 eV; R=35000; [M+H]+
Name: Desacetyldiltiazem
Name: (2S,3S)-5-[2-(dimethylamino)ethyl]-3-hydroxy-2-(4-methoxyphenyl)-2,3-dihydro-1,5-benzothiazepin-4-one
Formula: C20H24N2O3S
Exact mass: 372.1507636
SMILES: CN(C)CCN1c2ccccc2S[C@H]([C@H](C1=O)O)c3ccc(cc3)OC
InChI: InChI=1S/C20H24N2O3S/c1-21(2)12-13-22-16-6-4-5-7-17(16)26-19(18(23)20(22)24)14-8-10-15(25-3)11-9-14/h4-11,18-19,23H,12-13H2,1-3H3/t18-,19+/m1/s1
Instrument: Bruker maXis Impact
Instrument type: LC-ESI-QTOF
Ms type: MS2
Ion mode: POSITIVE
Ionization: ESI
Fragmentation mode: CID
Collision energy: Ramp 23.1-34.6 eV
Resolution: 35000
Column name: Acclaim RSLC C18 2.2um, 2.1x100mm, Thermo
Retention time: 6.249 min
Base peak: 373.1583
Precursor m/z: 373.158
Precursor type: [M+H]+
m/z	relative intensity	assigned
148.0495	9	C9H8O2+
150.0362	159	C5H10O3S+
151.0389	11	C4[13]CH10O3S+
176.0808	36	C11H12O2+
178.032	999	C9H8NOS+
179.0344	178	C12H5NO+
180.0274	51	C9H8NO[34]S+
197.1095	5	C10H17N2S+
223.0895	34	C11H15N2OS+
328.1004	31	C18H18NO3S+
329.1028	5	C17[13]CH18NO3S+
372.1586	5	C20H24N2O3S+
373.1584	14	C20H25N2O3S+
374.16	5	C19[13]CH25N2O3S+
