Mass spectrum: Flunisolide; LC-ESI-QTOF; MS2; CE: Ramp 24.3-36.5 eV; R=35000; [M+H]+
Name: Flunisolide
Name: (1S,2S,4R,8S,9S,11S,12S,13R,19S)-19-fluoro-11-hydroxy-8-(2-hydroxyacetyl)-6,6,9,13-tetramethyl-5,7-dioxapentacyclo[10.8.0.02,9.04,8.013,18]icosa-14,17-dien-16-one
Formula: C24H31FO6
Exact mass: 434.2104669
SMILES: [H][C@@]12C[C@H]3OC(C)(C)O[C@@]3(C(=O)CO)[C@@]1(C)C[C@H](O)[C@@]1([H])[C@@]2([H])C[C@H](F)C2=CC(=O)C=C[C@]12C
InChI: InChI=1S/C24H31FO6/c1-21(2)30-19-9-14-13-8-16(25)15-7-12(27)5-6-22(15,3)20(13)17(28)10-23(14,4)24(19,31-21)18(29)11-26/h5-7,13-14,16-17,19-20,26,28H,8-11H2,1-4H3/t13-,14-,16-,17-,19+,20+,22-,23-,24+/m0/s1
Instrument: Bruker maXis Impact
Instrument type: LC-ESI-QTOF
Ms type: MS2
Ion mode: POSITIVE
Ionization: ESI
Fragmentation mode: CID
Collision energy: Ramp 24.3-36.5 eV
Resolution: 35000
Column name: Acclaim RSLC C18 2.2um, 2.1x100mm, Thermo
Retention time: 8.996 min
Base peak: 435.2175
Precursor m/z: 435.2177
Precursor type: [M+H]+
m/z	relative intensity	assigned
45.0331	5	C2H5O+
55.0174	29	C3H3O+
55.0538	13	C4H7+
57.0331	8	C3H5O+
59.0484	95	C3H7O+
60.0531	5	C2[13]CH7O+
67.0537	13	C5H7+
69.0327	47	C4H5O+
69.0687	10	C5H9+
71.0117	5	C3H3O2+
71.0486	16	C4H7O+
73.0281	5	C3H5O2+
79.0538	19	C6H7+
81.0328	15	C5H5O+
81.0693	55	C6H9+
83.0491	31	C5H7O+
85.0278	6	C4H5O2+
85.065	6	C5H9O+
87.0443	30	C4H7O2+
91.0542	16	C7H7+
93.0701	41	C7H9+
95.0498	18	C3H8FO2+
95.0854	18	C7H11+
97.0287	30	C5H5O2+
97.0656	17	C3H10FO2+
99.044	23	C5H7O2+
101.0238	37	C4H5O3+
105.0707	33	C5H10FO+
107.0495	5	C7H7O+
107.0867	17	C5H12FO+
109.0663	24	C4H10FO2+
111.0446	17	C3H8FO3+
113.0597	9	C6H9O2+
115.0394	90	C5H7O3+
116.0463	6	C5H8O3+
117.069	22	C9H9+
119.0843	30	C9H11+
121.0643	397	C8H9O+
122.0673	39	C7[13]CH9O+
123.0441	11	C7H7O2+
123.0805	23	C8H11O+
125.0591	11	C7H9O2+
127.038	6	C6H7O3+
127.0745	7	C7H11O2+
128.0623	12	C10H8+
129.0692	15	C10H9+
131.0491	5	C9H7O+
131.0845	34	C10H11+
132.0564	5	C9H8O+
133.0643	41	C9H9O+
133.0996	12	C10H13+
134.0675	6	C8[13]CH9O+
135.043	13	C8H7O2+
135.0794	126	C9H11O+
136.0826	13	C8[13]CH11O+
137.0588	41	C8H9O2+
137.094	6	C9H13O+
139.0544	29	C11H7+
139.0746	29	C8H11O2+
141.0534	20	C7H9O3+
141.0676	9	C11H9+
143.0839	31	C11H11+
144.0554	8	C10H8O+
145.0638	137	C10H9O+
145.0993	16	C11H13+
146.0676	19	C9[13]CH9O+
147.0793	348	C10H11O+
148.0839	33	C9[13]CH11O+
149.058	26	C9H9O2+
149.0948	21	C10H13O+
151.0741	32	C9H11O2+
153.0524	6	C8H9O3+
153.0691	10	C12H9+
153.0879	8	C9H13O2+
155.0693	119	C8H11O3+
156.0719	11	C7[13]CH11O3+
157.0636	15	C11H9O+
157.0999	22	C12H13+
158.0722	13	C11H10O+
159.0788	247	C11H11O+
160.0826	21	C10[13]CH11O+
161.0575	25	C10H9O2+
161.0947	82	C11H13O+
162.0972	12	C10[13]CH13O+
163.0745	104	C10H11O2+
163.1086	6	C11H15O+
164.0774	15	C9[13]CH11O2+
165.0697	109	C13H9+
165.0895	9	C10H13O2+
166.0726	11	C12[13]CH9+
167.0839	32	C13H11+
167.1046	6	C10H15O2+
168.0898	8	C13H12+
169.0632	23	C12H9O+
169.0996	12	C13H13+
170.0703	12	C12H10O+
171.0793	743	C12H11O+
172.0827	96	C11[13]CH11O+
173.0578	9	C11H9O2+
173.095	127	C12H13O+
174.099	19	C11[13]CH13O+
175.0747	26	C11H11O2+
175.1098	16	C12H15O+
177.0682	6	C14H9+
177.0904	21	C11H13O2+
178.076	5	C14H10+
179.0683	14	C10H11O3+
179.0844	25	C14H11+
180.0753	5	C10H12O3+
180.0925	8	C14H12+
181.0633	10	C13H9O+
181.0851	37	C10H13O3+
181.0979	28	C14H13+
182.0704	12	C13H10O+
182.089	7	C9[13]CH13O3+
183.0788	53	C13H11O+
183.1178	5	C11H16FO+
184.0842	18	C13H12O+
185.0577	10	C12H9O2+
185.0947	168	C13H13O+
186.0979	22	C12[13]CH13O+
187.0745	39	C12H11O2+
187.1101	17	C13H15O+
189.0703	23	C15H9+
189.0907	19	C12H13O2+
190.0741	9	C15H10+
191.0847	64	C15H11+
191.1056	11	C12H15O2+
192.0908	33	C15H12+
193.0849	35	C11H13O3+
193.0994	36	C15H13+
194.0706	6	C14H10O+
194.0875	5	C10[13]CH13O3+
194.1039	8	C14[13]CH13+
195.0794	53	C14H11O+
195.1002	9	C11H15O3+
195.1156	52	C15H15+
196.0875	42	C14H12O+
196.1165	11	C14[13]CH15+
197.0951	469	C14H13O+
198.0991	76	C13[13]CH13O+
199.074	19	C13H11O2+
199.1101	61	C14H15O+
200.1133	13	C13[13]CH15O+
201.0898	19	C13H13O2+
201.1276	7	C14H17O+
203.086	10	C16H11+
203.107	10	C13H15O2+
204.1095	5	C13H16O2+
205.0999	59	C16H13+
206.1055	25	C16H14+
207.0825	15	C12H12FO2+
207.1153	50	C16H15+
208.0872	76	C15H12O+
208.1201	10	C15[13]CH15+
209.095	289	C15H13O+
210.1011	85	C15H14O+
211.0747	12	C14H11O2+
211.1107	248	C15H15O+
212.0782	5	C14H12O2+
212.1152	42	C14[13]CH15O+
213.09	80	C11H14FO3+
213.1264	308	C15H17O+
214.0957	7	C10[13]CH14FO3+
214.1308	38	C14[13]CH17O+
215.0841	8	C17H11+
215.1044	6	C14H15O2+
215.1415	28	C15H19O+
216.0914	7	C17H12+
217.0838	7	C13H13O3+
217.1001	33	C17H13+
218.0718	5	C16H10O+
218.1084	14	C17H14+
219.0804	13	C16H11O+
219.115	26	C17H15+
220.0871	21	C16H12O+
220.1225	6	C16[13]CH15+
221.095	151	C16H13O+
221.1311	16	C17H17+
222.102	83	C16H14O+
223.1108	999	C16H15O+
224.1173	347	C16H16O+
225.1266	889	C16H17O+
226.0954	13	C15H14O2+
226.1297	146	C15[13]CH17O+
227.0709	5	C11H12FO4+
227.1064	16	C15H15O2+
227.1403	39	C16H19O+
228.0907	5	C18H12+
228.1056	5	C14[13]CH15O2+
228.1476	8	C16H20O+
229.0998	16	C18H13+
229.1544	5	C16H21O+
230.1106	10	C15H15FO+
231.0794	17	C17H11O+
231.1154	30	C18H15+
232.0881	22	C17H12O+
232.1224	14	C18H16+
233.0945	54	C17H13O+
233.1324	30	C18H17+
234.1023	77	C17H14O+
234.134	9	C17[13]CH17+
235.1108	406	C17H15O+
235.1472	32	C18H19+
236.0812	6	C16H12O2+
236.1152	82	C16[13]CH15O+
236.1526	7	C17[13]CH19+
237.0893	55	C16H13O2+
237.1271	364	C17H17O+
238.0959	22	C16H14O2+
238.1298	60	C16[13]CH17O+
239.1061	37	C16H15O2+
239.1427	202	C17H19O+
240.1103	8	C15[13]CH15O2+
240.1453	48	C16[13]CH19O+
241.0853	8	C15H13O3+
241.1021	12	C16H14FO+
241.1205	25	C16H17O2+
241.157	13	C17H21O+
242.1097	13	C16H15FO+
243.1164	41	C19H15+
244.0858	9	C18H12O+
244.1239	49	C19H16+
245.0958	69	C18H13O+
245.1318	60	C19H17+
246.1035	104	C18H14O+
246.136	14	C18[13]CH17+
247.1112	142	C18H15O+
247.1472	34	C19H19+
248.1185	145	C18H16O+
249.0899	20	C17H13O2+
249.1262	312	C18H17O+
250.0979	14	C17H14O2+
250.1321	81	C17[13]CH17O+
251.1059	59	C17H15O2+
251.1426	196	C18H19O+
252.1092	25	C17H16O2+
252.147	49	C17[13]CH19O+
253.1209	47	C17H17O2+
253.1565	53	C18H21O+
254.127	15	C17H18O2+
254.1629	11	C17[13]CH21O+
255.1158	22	C20H15+
255.1348	9	C17H19O2+
255.1703	5	C18H23O+
256.1237	9	C20H16+
256.1352	6	C10H21FO6+
257.1319	40	C20H17+
258.1053	22	C16H15FO2+
258.1375	14	C19[13]CH17+
259.1112	101	C19H15O+
259.1492	10	C17H20FO+
260.1187	201	C19H16O+
261.0902	24	C18H13O2+
261.1266	431	C19H17O+
262.0951	31	C18H14O2+
262.1328	227	C19H18O+
263.1425	777	C19H19O+
264.1124	27	C18H16O2+
264.1463	154	C18[13]CH19O+
265.1214	97	C18H17O2+
265.1586	176	C19H21O+
266.088	5	C17H14O3+
266.1244	26	C17[13]CH17O2+
266.1621	37	C18[13]CH21O+
267.1153	5	C21H15+
267.1368	53	C15H20FO3+
268.1438	10	C14[13]CH20FO3+
269.1163	13	C17H17O3+
269.1366	11	C14H21O5+
269.1536	9	C18H21O2+
270.1042	33	C20H14O+
271.1081	8	C19[13]CH14O+
271.1371	5	C14H20FO4+
271.149	9	C18H20FO+
272.1191	7	C20H16O+
273.1262	96	C17H18FO2+
274.1011	7	C16H15FO3+
274.1333	28	C16[13]CH18FO2+
275.1427	570	C20H19O+
276.1127	29	C19H16O2+
276.1466	111	C19[13]CH19O+
277.1223	85	C19H17O2+
277.1556	35	C20H21O+
278.1283	96	C19H18O2+
278.164	8	C20H22O+
279.1015	16	C18H15O3+
279.1371	318	C19H19O2+
279.1742	18	C20H23O+
280.105	10	C18H16O3+
280.1433	104	C18[13]CH19O2+
281.1528	221	C19H21O2+
282.1551	50	C18[13]CH21O2+
283.1484	134	C22H19+
284.151	34	C21[13]CH19+
284.1724	5	C19H24O2+
285.1272	98	C21H17O+
286.1316	23	C20[13]CH17O+
288.1132	60	C20H16O2+
289.1173	18	C19[13]CH16O2+
290.128	11	C20H18O2+
291.1378	125	C17H20FO3+
292.1442	28	C16[13]CH20FO3+
293.118	27	C16H18FO4+
293.1531	350	C20H21O2+
294.1236	8	C15[13]CH18FO4+
294.1568	67	C19[13]CH21O2+
295.1308	33	C19H19O3+
295.1499	26	C20H20FO+
296.1359	16	C19H20O3+
297.1109	11	C18H17O4+
297.1465	18	C19H21O3+
298.1493	7	C19H22O3+
299.1435	8	C22H19O+
299.1679	9	C16H24FO4+
300.1526	7	C19H21FO2+
301.127	5	C18H18FO3+
301.1605	70	C19H22FO2+
302.1645	15	C18[13]CH22FO2+
303.1377	364	C21H19O2+
304.1413	80	C20[13]CH19O2+
305.1458	10	C19[13]C2H19O2+
306.1241	13	C20H18O3+
307.1346	6	C17H20FO4+
309.1474	55	C20H21O3+
310.1526	11	C19[13]CH21O3+
311.1642	128	C20H23O3+
312.168	25	C19[13]CH23O3+
313.1601	22	C20H22FO2+
314.1644	6	C19[13]CH22FO2+
319.1338	7	C18H20FO4+
319.1698	6	C22H23O2+
321.1487	692	C21H21O3+
322.152	166	C20[13]CH21O3+
323.1486	31	C24H19O+
324.1471	10	C23[13]CH19O+
324.1641	5	C17H24O6+
325.1524	7	C24H21O+
327.1597	7	C17H24FO5+
329.1752	5	C20H25O4+
331.1697	34	C23H23O2+
339.1593	489	C21H23O4+
340.1627	109	C20[13]CH23O4+
341.1565	62	C24H21O2+
342.157	18	C23[13]CH21O2+
343.1649	6	C24H23O2+
357.1707	10	C18H26FO6+
357.2055	6	C22H29O4+
359.1642	17	C21H24FO4+
360.1649	8	C24H24O3+
360.1775	5	C20[13]CH24FO4+
361.1759	7	C24H25O3+
379.1906	7	C24H27O4+
397.2012	76	C24H29O5+
398.2042	29	C23[13]CH29O5+
399.1981	5	C24H28FO4+
415.2104	8	C24H31O6+
417.2068	93	C24H30FO5+
418.209	27	C23[13]CH30FO5+
435.2158	21	C24H32FO6+
