Mass spectrum: 5-Methyl-1H-benzotriazole; LC-ESI-QTOF; MS2; CE: 20 eV; R=35000; [M+H]+
Name: 5-Methyl-1H-benzotriazole
Formula: C7H7N3
Exact mass: 133.0639972
SMILES: c12c(cc(C)cc2)nn[nH]1
InChI: InChI=1S/C7H7N3/c1-5-2-3-6-7(4-5)9-10-8-6/h2-4H,1H3,(H,8,9,10)
Instrument: Bruker maXis Impact
Instrument type: LC-ESI-QTOF
Ms type: MS2
Ion mode: POSITIVE
Ionization: ESI
Fragmentation mode: CID
Collision energy: 20 eV
Resolution: 35000
Column name: Acclaim RSLC C18 2.2um, 2.1x100mm, Thermo
Retention time: 5.706 min
Base peak: 134.0715
Precursor m/z: 134.0713
Precursor type: [M+H]+
m/z	relative intensity	assigned
134.0713	999	C7H8N3+
135.0742	59	C6[13]CH8N3+
