Mass spectrum: Sulfadimethoxine; LC-ESI-QTOF; MS2; CE: 40 eV; R=35000; [M+H]+
Name: Sulfadimethoxine
Name: 4-amino-n-(2,6-dimethoxypyrimidin-4-yl)benzenesulfonamide
Formula: C12H14N4O4S
Exact mass: 310.0735759
SMILES: COc1cc(nc(n1)OC)NS(=O)(=O)c2ccc(cc2)N
InChI: InChI=1S/C12H14N4O4S/c1-19-11-7-10(14-12(15-11)20-2)16-21(17,18)9-5-3-8(13)4-6-9/h3-7H,13H2,1-2H3,(H,14,15,16)
Instrument: Bruker maXis Impact
Instrument type: LC-ESI-QTOF
Ms type: MS2
Ion mode: POSITIVE
Ionization: ESI
Fragmentation mode: CID
Collision energy: 40 eV
Resolution: 35000
Column name: Acclaim RSLC C18 2.2um, 2.1x100mm, Thermo
Retention time: 4.7 min
Base peak: 311.0808
Precursor m/z: 311.0809
Precursor type: [M+H]+
m/z	relative intensity	assigned
112.0515	21	C6H8O2+
123.0436	21	C7H7O2+
124.0205	18	C6H6NS+
124.0508	21	C5H6N3O+
126.0666	57	C5H8N3O+
127.0502	20	C5H7N2O2+
132.0558	19	C7H6N3+
138.0295	48	C5H4N3O2+
140.045	777	C5H6N3O2+
141.0524	389	C5H7N3O2+
142.058	24	C6H10N2S+
154.0604	999	C6H8N3O2+
155.0634	53	C5[13]CH8N3O2+
156.0104	200	C4H4N4OS+
156.0407	42	C5H6N3O3+
156.0761	546	C6H10N3O2+
157.0639	18	C3H13N2O3S+
160.049	19	C5H8N2O4+
178.0597	34	C8H8N3O2+
201.077	82	C10H9N4O+
202.0789	17	C8H14N2O2S+
212.0697	150	C5H14N3O4S+
213.0728	25	C8H11N3O4+
229.0713	22	C11H9N4O2+
230.0797	64	C11H10N4O2+
231.0852	19	C11H11N4O2+
245.1026	19	C12H13N4O2+
