Mass spectrum: Carbamazepine-10,11-epoxide; LC-ESI-QTOF; MS2; CE: 20 eV; R=35000; [M+H]+
Name: Carbamazepine-10,11-epoxide
Name: Carbamazepine epoxide
Formula: C15H12N2O2
Exact mass: 252.0898776
SMILES: NC(=O)N1C2=C(C=CC=C2)C2OC2C2=C1C=CC=C2
InChI: InChI=1S/C15H12N2O2/c16-15(18)17-11-7-3-1-5-9(11)13-14(19-13)10-6-2-4-8-12(10)17/h1-8,13-14H,(H2,16,18)
Instrument: Bruker maXis Impact
Instrument type: LC-ESI-QTOF
Ms type: MS2
Ion mode: POSITIVE
Ionization: ESI
Fragmentation mode: CID
Collision energy: 20 eV
Resolution: 35000
Column name: Acclaim RSLC C18 2.2um, 2.1x100mm, Thermo
Retention time: 5.9 min
Base peak: 253.097
Precursor m/z: 253.0972
Precursor type: [M+H]+
m/z	relative intensity	assigned
167.0715	5	C12H9N+
180.08	999	C13H10N+
181.0829	162	C12[13]CH10N+
182.0953	234	C13H12N+
183.0987	27	C8H13N3O2+
192.0795	8	C14H10N+
208.075	44	C14H10NO+
209.0781	6	C9H11N3O3+
210.0908	874	C14H12NO+
211.0943	94	C13[13]CH12NO+
212.0974	6	C12[13]C2H12NO+
236.07	41	C15H10NO2+
237.0734	7	C14[13]CH10NO2+
