Mass spectrum: Atorvastatin; LC-ESI-QTOF; MS2; CE: 40 eV; R=35000; [M+H]+
Name: Atorvastatin
Name: atorvastatin
Name: (3R,5R)-7-[2-(4-fluorophenyl)-3-phenyl-4-(phenylcarbamoyl)-5-propan-2-ylpyrrol-1-yl]-3,5-dihydroxyheptanoic acid
Formula: C33H35FN2O5
Exact mass: 558.2530004
SMILES: CC(C)c1c(c(c(n1CC[C@H](C[C@H](CC(=O)O)O)O)c2ccc(cc2)F)c3ccccc3)/C(=N/c4ccccc4)/O
InChI: InChI=1S/C33H35FN2O5/c1-21(2)31-30(33(41)35-25-11-7-4-8-12-25)29(22-9-5-3-6-10-22)32(23-13-15-24(34)16-14-23)36(31)18-17-26(37)19-27(38)20-28(39)40/h3-16,21,26-27,37-38H,17-20H2,1-2H3,(H,35,41)(H,39,40)/t26-,27-/m1/s1
Instrument: Bruker maXis Impact
Instrument type: LC-ESI-QTOF
Ms type: MS2
Ion mode: POSITIVE
Ionization: ESI
Fragmentation mode: CID
Collision energy: 40 eV
Resolution: 35000
Column name: Acclaim RSLC C18 2.2um, 2.1x100mm, Thermo
Retention time: 10.096 min
Base peak: 559.2643
Precursor m/z: 559.2603
Precursor type: [M+H]+
m/z	relative intensity	assigned
120.0448	8	C7H6NO+
237.0983	5	C12H15NO4+
238.1047	36	C16H13FN+
239.1087	6	C13H16FO3+
248.0901	6	C13H14NO4+
249.097	21	C17H12FN+
250.1043	618	C17H13FN+
251.1078	98	C16[13]CH13FN+
262.1055	19	C14H16NO4+
263.1131	6	C14H17NO4+
264.1152	7	C15H17FO3+
276.0853	16	C14H14NO5+
276.1206	199	C19H15FN+
277.0859	8	C18H13O3+
277.1244	44	C16H18FO3+
278.128	8	C15[13]CH18FO3+
279.145	22	C15H21NO4+
280.1514	49	C19H19FN+
281.1517	10	C18[13]CH19FN+
290.1358	11	C20H17FN+
292.1519	649	C20H19FN+
293.1546	146	C19[13]CH19FN+
294.0933	10	C18H13FNO2+
294.1325	11	C15H20NO5+
294.1668	99	C20H21FN+
295.1715	17	C19[13]CH21FN+
302.0999	10	C20H13FNO+
302.1366	23	C17H20NO4+
303.1396	5	C18H20FO3+
304.1523	13	C17H22NO4+
306.13	23	C20H17FNO+
307.1319	7	C20H19O3+
316.1528	10	C18H22NO4+
318.1319	21	C17H20NO5+
318.1687	66	C18H24NO4+
319.1343	5	C18H20FO4+
319.1726	17	C17[13]CH24NO4+
320.1474	36	C17H22NO5+
334.197	8	C23H25FN+
336.1434	9	C20H20N2O3+
336.1779	27	C22H23FNO+
344.1497	21	C19H22NO5+
344.1838	6	C20H26NO4+
345.1517	5	C26H19N+
346.1267	5	C22H17FNO2+
360.1389	17	C26H18NO+
360.2142	6	C25H27FN+
361.1491	11	C23H20FNO2+
362.1581	154	C23H21FNO2+
363.1612	40	C22[13]CH21FNO2+
363.1969	7	C21H28FO4+
369.1416	10	C24H18FN2O+
378.2252	17	C21H32NO5+
379.1603	41	C26H20FN2+
379.233	6	C25H30FNO+
380.1689	340	C26H21FN2+
380.2033	35	C24H27FNO2+
381.1721	82	C26H23NO2+
381.2048	11	C23[13]CH27FNO2+
382.172	9	C25[13]CH23NO2+
388.1403	11	C23H20N2O4+
398.1787	90	C26H23FN2O+
399.1841	26	C25[13]CH23FN2O+
402.1905	8	C25H26N2O3+
404.2048	75	C26H27FNO2+
405.2068	24	C25[13]CH27FNO2+
406.1485	16	C27H19FN2O+
406.1868	10	C24H26N2O4+
411.1902	8	C23H27N2O5+
412.1755	7	C26H24N2O3+
422.216	253	C29H27FN2+
423.2184	73	C29H29NO2+
424.1601	28	C27H21FN2O2+
424.2206	11	C28[13]CH29NO2+
425.1646	6	C26[13]CH21FN2O2+
430.1811	15	C27H25FNO3+
440.2266	999	C29H29FN2O+
441.2294	304	C29H31NO3+
442.2317	41	C28[13]CH31NO3+
448.1961	10	C30H25FN2O+
466.2068	193	C30H27FN2O2+
467.2094	69	C30H29NO4+
468.2099	11	C29[13]CH29NO4+
