Mass spectrum: o-Dianisidine; LC-ESI-QTOF; MS2; CE: 20 eV; R=35000; [M+H]+
Name: o-Dianisidine
Name: 3,3`-Dimethoxybenzidine
Name: 4-(4-amino-3-methoxyphenyl)-2-methoxyaniline
Formula: C14H16N2O2
Exact mass: 244.1211778
SMILES: COC1=CC(=CC=C1N)C1=CC(OC)=C(N)C=C1
InChI: InChI=1S/C14H16N2O2/c1-17-13-7-9(3-5-11(13)15)10-4-6-12(16)14(8-10)18-2/h3-8H,15-16H2,1-2H3
Instrument: Bruker maXis Impact
Instrument type: LC-ESI-QTOF
Ms type: MS2
Ion mode: POSITIVE
Ionization: ESI
Fragmentation mode: CID
Collision energy: 20 eV
Resolution: 35000
Column name: Acclaim RSLC C18 2.2um, 2.1x100mm, Thermo
Retention time: 5.505 min
Base peak: 245.1275
Precursor m/z: 245.1285
Precursor type: [M+H]+
m/z	relative intensity	assigned
158.0825	9	C10H10N2+
170.082	8	C11H10N2+
181.0745	5	C12H9N2+
182.0823	8	C12H10N2+
183.0901	6	C12H11N2+
184.0979	9	C12H12N2+
186.0773	14	C11H10N2O+
187.0854	36	C11H11N2O+
198.0773	51	C12H10N2O+
199.0828	10	C11[13]CH10N2O+
200.093	7	C12H12N2O+
201.1014	424	C12H13N2O+
202.104	45	C11[13]CH13N2O+
213.1015	316	C13H13N2O+
214.1063	58	C12[13]CH13N2O+
215.0805	63	C12H11N2O2+
215.1129	9	C13H15N2O+
216.084	8	C11[13]CH11N2O2+
228.0886	22	C13H12N2O2+
229.0965	375	C13H13N2O2+
230.104	999	C13H14N2O2+
231.1073	108	C12[13]CH14N2O2+
232.1099	8	C11[13]C2H14N2O2+
244.1201	630	C14H16N2O2+
245.1274	606	C14H17N2O2+
246.1308	79	C13[13]CH17N2O2+
247.1317	8	C12[13]C2H17N2O2+
