Mass spectrum: 2-Oxindole; LC-ESI-QTOF; MS2; CE: 10 eV; R=35000; [M+H]+
Name: 2-Oxindole
Name: Oxindole
Name: 1,3-dihydroindol-2-one
Formula: C8H7NO
Exact mass: 133.0527638
SMILES: O=C1CC2=CC=CC=C2N1
InChI: InChI=1S/C8H7NO/c10-8-5-6-3-1-2-4-7(6)9-8/h1-4H,5H2,(H,9,10)
Instrument: Bruker maXis Impact
Instrument type: LC-ESI-QTOF
Ms type: MS2
Ion mode: POSITIVE
Ionization: ESI
Fragmentation mode: CID
Collision energy: 10 eV
Resolution: 35000
Column name: Acclaim RSLC C18 2.2um, 2.1x100mm, Thermo
Retention time: 5.186 min
Base peak: 264.176
Precursor m/z: 134.06
Precursor type: [M+H]+
m/z	relative intensity	assigned
134.0592	999	C8H8NO+
135.0625	100	C7[13]CH8NO+
