Mass spectrum: Propyzamide; LC-ESI-QTOF; MS2; CE: Ramp 20.0-30.0 eV; R=35000; [M+H]+
Name: Propyzamide
Name: 3,5-dichloro-N-(2-methylbut-3-yn-2-yl)benzamide
Formula: C12H11Cl2NO
Exact mass: 255.0217693
SMILES: CC(C)(NC(=O)C1=CC(Cl)=CC(Cl)=C1)C#C
InChI: InChI=1S/C12H11Cl2NO/c1-4-12(2,3)15-11(16)8-5-9(13)7-10(14)6-8/h1,5-7H,2-3H3,(H,15,16)
Instrument: Bruker maXis Impact
Instrument type: LC-ESI-QTOF
Ms type: MS2
Ion mode: POSITIVE
Ionization: ESI
Fragmentation mode: CID
Collision energy: Ramp 20.0-30.0 eV
Resolution: 35000
Column name: Acclaim RSLC C18 2.2um, 2.1x100mm, Thermo
Retention time: 9.755 min
Base peak: 256.0292
Precursor m/z: 256.029
Precursor type: [M+H]+
m/z	relative intensity	assigned
65.0381	45	C5H5+
67.0539	204	C5H7+
68.057	13	C4[13]CH7+
146.9764	52	C6H5Cl2+
148.9733	24	C6H5Cl[37]Cl+
162.9709	10	C6H5Cl2O+
172.9561	588	C7H3Cl2O+
173.9594	42	C6[13]CH3Cl2O+
174.9533	366	C7H3Cl[37]ClO+
189.9825	999	C7H6Cl2NO+
190.9857	75	C6[13]CH6Cl2NO+
191.9799	548	C7H6Cl[37]ClNO+
256.0294	26	C12H12Cl2NO+
258.0272	20	C12H12Cl[37]ClNO+
