Mass spectrum: Metolachlor-OXA; LC-ESI-QTOF; MS2; CE: 50 eV; R=35000; [M+H]+
Name: Metolachlor-OXA
Name: Metolachlor OA
Name: 2-[2-ethyl-N-(1-methoxypropan-2-yl)-6-methylanilino]-2-oxoacetic acid
Formula: C15H21NO4
Exact mass: 279.1470582
SMILES: CCC1=CC=CC(C)=C1N(C(C)COC)C(=O)C(O)=O
InChI: InChI=1S/C15H21NO4/c1-5-12-8-6-7-10(2)13(12)16(11(3)9-20-4)14(17)15(18)19/h6-8,11H,5,9H2,1-4H3,(H,18,19)
Instrument: Bruker maXis Impact
Instrument type: LC-ESI-QTOF
Ms type: MS2
Ion mode: POSITIVE
Ionization: ESI
Fragmentation mode: CID
Collision energy: 50 eV
Resolution: 35000
Column name: Acclaim RSLC C18 2.2um, 2.1x100mm, Thermo
Retention time: 7.2 min
Base peak: 280.1541
Precursor m/z: 280.1543
Precursor type: [M+H]+
m/z	relative intensity	assigned
115.0535	83	C9H7+
117.0561	168	C8H7N+
117.0696	150	C9H9+
118.0645	226	C8H8N+
119.0721	264	C8H9N+
120.0808	96	C8H10N+
130.064	999	C9H8N+
131.0717	743	C9H9N+
132.0801	483	C9H10N+
133.0876	176	C9H11N+
134.0956	203	C9H12N+
143.0709	116	C7H11O3+
144.0801	678	C10H10N+
145.0866	162	C7H13O3+
146.0953	337	C10H12N+
148.1106	163	C7H16O3+
149.0223	121	C8H5O3+
158.0948	90	C8H14O3+
160.1122	157	C11H14N+
