Mass spectrum: Ochratoxin A; LC-ESI-QTOF; MS2; CE: 40 eV; R=35000; [M+H]+
Name: Ochratoxin A
Name: Alanine, (-)-
Name: 2-[(5-chloro-8-hydroxy-3-methyl-1-oxo-3,4-dihydroisochromene-7-carbonyl)amino]-3-phenylpropanoic acid
Class: Natural Product; Fungal metabolite
Formula: C20H18ClNO6
Exact mass: 403.0823
SMILES: CC1CC2=C(C=C(C(=C2C(=O)O1)O)C(=O)NC(CC3=CC=CC=C3)C(=O)O)Cl
InChI: InChI=1S/C20H18ClNO6/c1-10-7-12-14(21)9-13(17(23)16(12)20(27)28-10)18(24)22-15(19(25)26)8-11-5-3-2-4-6-11/h2-6,9-10,15,23H,7-8H2,1H3,(H,22,24)(H,25,26)
Instrument: Bruker maXis Impact
Instrument type: LC-ESI-QTOF
Ms type: MS2
Ion mode: POSITIVE
Ionization: ESI
Fragmentation mode: CID
Collision energy: 40 eV
Resolution: 35000
Column name: Acclaim RSLC C18 2.2um, 2.1x100mm, Thermo
Retention time: 9.143 min
Base peak: 404.0883
Precursor m/z: 404.0895
Precursor type: [M+H]+
m/z	relative intensity	assigned
120.0795	15	C2H15ClNO2+
137.0148	43	C8H6Cl+
165.0099	41	C9H6ClO+
193.0046	157	C10H6ClO2+
194.0074	21	C8H4NO5+
195.0016	40	C13H4Cl+
211.0153	117	C10H8ClO3+
212.0195	22	C8H6NO6+
213.0141	40	C6H10ClO6+
220.9992	207	C11H6ClO3+
222.0037	23	C9H4NO6+
222.9966	82	C14H4ClO+
239.0101	999	C11H8ClO4+
240.0134	141	C11H9ClO4+
241.0073	399	C20H+
242.0123	32	C14H7ClO2+
257.0206	683	C11H10ClO5+
258.0246	89	C18H7Cl+
259.018	187	C20H3O+
271.0373	21	C12H12ClO5+
341.0559	19	C19H14ClO4+
