Mass spectrum: Chloridazon-methyl-desphenyl; LC-ESI-QTOF; MS2; CE: 40 eV; R=35000; [M+H]+
Name: Chloridazon-methyl-desphenyl
Name: 5-Amino-4-chloro-2-methyl-3(2H)-pyridazinone
Name: 5-amino-4-chloro-2-methylpyridazin-3-one
Formula: C5H6ClN3O
Exact mass: 159.0199395
SMILES: CN1N=CC(N)=C(Cl)C1=O
InChI: InChI=1S/C5H6ClN3O/c1-9-5(10)4(6)3(7)2-8-9/h2H,7H2,1H3
Instrument: Bruker maXis Impact
Instrument type: LC-ESI-QTOF
Ms type: MS2
Ion mode: POSITIVE
Ionization: ESI
Fragmentation mode: CID
Collision energy: 40 eV
Resolution: 35000
Column name: Acclaim RSLC C18 2.2um, 2.1x100mm, Thermo
Retention time: 3.2 min
Base peak: 160.0263
Precursor m/z: 160.0272
Precursor type: [M+H]+
m/z	relative intensity	assigned
115.9907	27	C4H3ClNO+
116.997	525	C4H4ClNO+
117.9995	32	C3[13]CH4ClNO+
119.0012	170	C4H4[37]ClNO+
124.0488	80	C5H6N3O+
125.0571	26	C5H7N3O+
128.9841	37	C4H2ClN2O+
130.0043	999	C5H5ClNO+
131.0096	118	C4[13]CH5ClNO+
132.0017	373	C5H5[37]ClNO+
145.0024	352	C4H4ClN3O+
146.0062	52	C3[13]CH4ClN3O+
147.0002	104	C4H4[37]ClN3O+
158.0109	23	C5H5ClN3O+
160.026	839	C5H7ClN3O+
161.029	40	C4[13]CH7ClN3O+
162.0283	239	C5H7[37]ClN3O+
