Mass spectrum: Flutamide; LC-ESI-QTOF; MS2; CE: 40 eV; R=35000; [M-H]-
Name: Flutamide
Name: 2-methyl-N-[4-nitro-3-(trifluoromethyl)phenyl]propanamide
Formula: C11H11F3N2O3
Exact mass: 276.0721769
SMILES: CC(C)C(=O)NC1=CC(=C(C=C1)[N+]([O-])=O)C(F)(F)F
InChI: InChI=1S/C11H11F3N2O3/c1-6(2)10(17)15-7-3-4-9(16(18)19)8(5-7)11(12,13)14/h3-6H,1-2H3,(H,15,17)
Instrument: Bruker maXis Impact
Instrument type: LC-ESI-QTOF
Ms type: MS2
Ion mode: NEGATIVE
Ionization: ESI
Fragmentation mode: CID
Collision energy: 40 eV
Resolution: 35000
Column name: Acclaim RSLC C18 2.2um, 2.1x100mm, Thermo
Retention time: 9.421 min
Base peak: 275.0653
Precursor m/z: 275.0649
Precursor type: [M-H]-
m/z	relative intensity	assigned
113.9983	12	C7NO-
118.011	13	C4H2F2NO-
126.0154	82	C6H2F2N-
127.0189	10	C9H3O-
134.0046	113	C10N-
135.0094	17	C9[13]CN-
136.0171	5	C7H3FNO-
136.0238	8	C7H3FNO-
138.0148	15	C7H2F2N-
138.9987	8	C10F-
140.0332	14	C4H5F3NO-
143.0111	70	C7H2F3-
144.0121	5	C6[13]CH2F3-
146.005	9	C8HFNO-
146.0209	19	C3H5F3O3-
154.0103	172	C10HFN-
155.0166	42	C7H3F2NO-
156.0241	5	C6[13]CH3F2NO-
159.0291	80	C7H4F3N-
160.0376	978	C7H5F3N-
161.0405	71	C6[13]CH5F3N-
161.9989	134	C11NO-
163.0017	14	C10[13]CNO-
165.013	9	C4H3F2N2O3-
166.0112	44	C8H2F2NO-
171.0107	5	C10H2FNO-
174.0204	10	C9H4NO3-
175.0235	133	C10H3F2N-
176.0091	31	C10H2F2O-
177.013	5	C9[13]CH2F2O-
182.0053	864	C8H2F2NO2-
183.0084	91	C7[13]CH2F2NO2-
185.0592	14	C10H8F3-
186.0165	757	C11H3FO2-
187.0202	68	C11H4FO2-
188.0177	5	C9[13]C2H3FO2-
190.0123	11	C7H3F3NO2-
191.0186	10	C10H3F2NO-
202.012	999	C11H2F2NO-
203.0136	98	C10[13]CH2F2NO-
204.0216	11	C9[13]C2H2F2NO-
205.0223	239	C10H4FNO3-
206.0068	29	C7H3F3NO3-
206.0211	28	C9[13]CH4FNO3-
213.0389	9	C10H6F3NO-
214.0492	9	C10H7F3NO-
229.0311	11	C10H6F3NO2-
229.072	23	C11H10F3NO-
230.0049	11	C9H3F3NO3-
244.0209	6	C10H5F3NO3-
259.0357	32	C10H6F3N2O3-
260.0413	6	C10H7F3N2O3-
275.0659	20	C11H10F3N2O3-
