Mass spectrum: Dimethenamid; LC-ESI-QTOF; MS2; CE: 10 eV; R=35000; [M+H]+
Name: Dimethenamid
Name: 2-chloro-N-(2,4-dimethylthiophen-3-yl)-N-(1-methoxypropan-2-yl)acetamide
Formula: C12H18ClNO2S
Exact mass: 275.0746775
SMILES: COCC(C)N(C(=O)CCl)C1=C(C)SC=C1C
InChI: InChI=1S/C12H18ClNO2S/c1-8-7-17-10(3)12(8)14(11(15)5-13)9(2)6-16-4/h7,9H,5-6H2,1-4H3
Instrument: Bruker maXis Impact
Instrument type: LC-ESI-QTOF
Ms type: MS2
Ion mode: POSITIVE
Ionization: ESI
Fragmentation mode: CID
Collision energy: 10 eV
Resolution: 35000
Column name: Acclaim RSLC C18 2.2um, 2.1x100mm, Thermo
Retention time: 9.2 min
Base peak: 404.2069
Precursor m/z: 276.082
Precursor type: [M+H]+
m/z	relative intensity	assigned
168.0829	8	C3H19ClNO2S+
244.0556	999	C11H15ClNOS+
245.0581	126	C10[13]CH15ClNOS+
246.0522	295	C11H15[37]ClNOS+
247.0552	21	C10[13]CH15[37]ClNOS+
276.082	671	C12H19ClNO2S+
277.0848	83	C11[13]CH19ClNO2S+
278.0789	186	C12H19[37]ClNO2S+
279.0815	16	C11[13]CH19[37]ClNO2S+
