Mass spectrum: Butyl lactate; GC-APCI-QTOF; MS2; CE: 50 eV; R=35000; [M]+
Name: Butyl lactate
Formula: C7H14O3
Exact mass: 146.0943
SMILES: CCCCOC(=O)C(C)O
InChI: InChI=1S/C7H14O3/c1-3-4-5-10-7(9)6(2)8/h6,8H,3-5H2,1-2H3
Instrument: Bruker 450 GC coupled to maXis Impact
Instrument type: GC-APCI-QTOF
Ms type: MS2
Ion mode: POSITIVE
Ionization: APCI
Fragmentation mode: CID
Collision energy: 50 eV
Resolution: 35000
Column name: Rxi-5Sil MS column, 30m, 0.25mm i.d., 0.25Âµm film thickness, Restek
Retention time: 7.605 min
Base peak: 145.9702
Precursor m/z: 146.0937
Precursor type: [M]+
m/z	relative intensity	assigned
74.0146	479	C6H2+
75.0242	999	C6H3+
