Mass spectrum: Tri(butoxyethyl)phosphate; LC-ESI-QTOF; MS2; CE: Ramp 23.6-35.4 eV; R=35000; [M+H]+
Name: Tri(butoxyethyl)phosphate
Name: tris(2-butoxyethyl) phosphate
Formula: C18H39O7P
Exact mass: 398.2433402
SMILES: CCCCOCCOP(=O)(OCCOCCCC)OCCOCCCC
InChI: InChI=1S/C18H39O7P/c1-4-7-10-20-13-16-23-26(19,24-17-14-21-11-8-5-2)25-18-15-22-12-9-6-3/h4-18H2,1-3H3
Instrument: Bruker maXis Impact
Instrument type: LC-ESI-QTOF
Ms type: MS2
Ion mode: POSITIVE
Ionization: ESI
Fragmentation mode: CID
Collision energy: Ramp 23.6-35.4 eV
Resolution: 35000
Column name: Acclaim RSLC C18 2.2um, 2.1x100mm, Thermo
Retention time: 12.041 min
Base peak: 399.2505
Precursor m/z: 399.2506
Precursor type: [M+H]+
m/z	relative intensity	assigned
45.0337	165	C2H5O+
55.0535	149	C4H7+
57.0692	406	C4H9+
58.0724	28	C3[13]CH9+
59.0484	23	C3H7O+
83.0853	65	C6H11+
84.0901	6	C5[13]CH11+
98.9843	15	H4O4P+
101.0959	58	C6H13O+
124.9987	67	C2H6O4P+
142.1221	11	C5H18O4+
143.0093	207	C2H8O5P+
144.0124	8	C9H5P+
145.1228	7	C8H17O2+
187.0366	8	C4H12O6P+
199.0721	999	C6H16O5P+
200.0753	88	C5[13]CH16O5P+
201.0769	11	C6H16O4[18]OP+
225.0875	21	C8H18O5P+
226.0928	6	C15H15P+
243.0987	37	C8H20O6P+
255.1335	7	C10H24O5P+
299.1603	235	C12H28O6P+
300.1646	48	C11[13]CH28O6P+
301.1669	12	C15H25O6+
399.2496	34	C18H40O7P+
400.256	6	C17[13]CH40O7P+
