Mass spectrum: Michler`s ketone; LC-ESI-QTOF; MS2; CE: 50 eV; R=35000; [M+H]+
Name: Michler`s ketone
Name: bis[4-(dimethylamino)phenyl]methanone
Formula: C17H20N2O
Exact mass: 268.1575633
SMILES: CN(C)C1=CC=C(C=C1)C(=O)C1=CC=C(C=C1)N(C)C
InChI: InChI=1S/C17H20N2O/c1-18(2)15-9-5-13(6-10-15)17(20)14-7-11-16(12-8-14)19(3)4/h5-12H,1-4H3
Instrument: Bruker maXis Impact
Instrument type: LC-ESI-QTOF
Ms type: MS2
Ion mode: POSITIVE
Ionization: ESI
Fragmentation mode: CID
Collision energy: 50 eV
Resolution: 35000
Column name: Acclaim RSLC C18 2.2um, 2.1x100mm, Thermo
Retention time: 10.532 min
Base peak: 269.1654
Precursor m/z: 269.1648
Precursor type: [M+H]+
m/z	relative intensity	assigned
117.0564	9	C8H7N+
118.0645	55	C8H8N+
119.0713	26	C8H9N+
120.08	119	C8H10N+
121.0831	14	C7[13]CH10N+
132.043	11	C8H6NO+
148.0745	999	C9H10NO+
149.0777	81	C8[13]CH10NO+
227.0215	7	C15H3N2O+
