Mass spectrum: Lopinavir; LC-ESI-QTOF; MS2; CE: 10 eV; R=35000; [M+H]+
Name: Lopinavir
Name: (2S)-N-[(2S,4S,5S)-5-[[2-(2,6-dimethylphenoxy)acetyl]amino]-4-hydroxy-1,6-diphenylhexan-2-yl]-3-methyl-2-(2-oxo-1,3-diazinan-1-yl)butanamide
Formula: C37H48N4O5
Exact mass: 628.3624706
SMILES: Cc1cccc(c1OCC(=O)N[C@@H](Cc2ccccc2)[C@H](C[C@H](Cc3ccccc3)NC(=O)[C@H](C(C)C)N4CCCNC4=O)O)C
InChI: InChI=1S/C37H48N4O5/c1-25(2)34(41-20-12-19-38-37(41)45)36(44)39-30(21-28-15-7-5-8-16-28)23-32(42)31(22-29-17-9-6-10-18-29)40-33(43)24-46-35-26(3)13-11-14-27(35)4/h5-11,13-18,25,30-32,34,42H,12,19-24H2,1-4H3,(H,38,45)(H,39,44)(H,40,43)/t30-,31-,32-,34-/m0/s1
Instrument: Bruker maXis Impact
Instrument type: LC-ESI-QTOF
Ms type: MS2
Ion mode: POSITIVE
Ionization: ESI
Fragmentation mode: CID
Collision energy: 10 eV
Resolution: 35000
Column name: Acclaim RSLC C18 2.2um, 2.1x100mm, Thermo
Retention time: 11.785 min
Base peak: 629.369
Precursor m/z: 629.3697
Precursor type: [M+H]+
m/z	relative intensity	assigned
155.1168	16	C8H15N2O+
183.1118	113	C6H17NO5+
184.1149	9	C5[13]CH17NO5+
429.2526	8	C28H33N2O2+
447.2642	416	C28H35N2O3+
448.2672	103	C27[13]CH35N2O3+
449.2701	12	C26[13]C2H35N2O3+
611.3589	33	C37H47N4O4+
612.3622	11	C36[13]CH47N4O4+
629.3706	999	C37H49N4O5+
630.3737	358	C36[13]CH49N4O5+
631.3758	61	C35[13]C2H49N4O5+
