Mass spectrum: 1H-Benzotriazole; LC-ESI-QTOF; MS2; CE: 20 eV; R=35000; [M-H]-
Name: 1H-Benzotriazole
Name: 2H-benzotriazole
Formula: C6H5N3
Exact mass: 119.0483472
SMILES: N1N=NC2=CC=CC=C12
InChI: InChI=1S/C6H5N3/c1-2-4-6-5(3-1)7-9-8-6/h1-4H,(H,7,8,9)
Instrument: Bruker maXis Impact
Instrument type: LC-ESI-QTOF
Ms type: MS2
Ion mode: NEGATIVE
Ionization: ESI
Fragmentation mode: CID
Collision energy: 20 eV
Resolution: 35000
Column name: Acclaim RSLC C18 2.2um, 2.1x100mm, Thermo
Retention time: 4.701 min
Base peak: 118.0414
Precursor m/z: 118.0411
Precursor type: [M-H]-
m/z	relative intensity	assigned
118.0423	999	C6H4N3-
