Mass spectrum: Cyromazine; LC-ESI-QTOF; MS2; CE: 40 eV; R=35000; [M+H]+
Name: Cyromazine
Name: 2-N-cyclopropyl-1,3,5-triazine-2,4,6-triamine
Formula: C6H10N6
Exact mass: 166.0966943
SMILES: C1CC1Nc2nc(nc(n2)N)N
InChI: InChI=1S/C6H10N6/c7-4-10-5(8)12-6(11-4)9-3-1-2-3/h3H,1-2H2,(H5,7,8,9,10,11,12)
Instrument: Bruker maXis Impact
Instrument type: LC-ESI-QTOF
Ms type: MS2
Ion mode: POSITIVE
Ionization: ESI
Fragmentation mode: CID
Collision energy: 40 eV
Resolution: 35000
Column name: Acclaim RSLC C18 2.2um, 2.1x100mm, Thermo
Retention time: 2.830 min
Base peak: 167.1048
Precursor m/z: 167.104
Precursor type: [M+H]+
m/z	relative intensity	assigned
125.0827	562	C5H9N4+
126.0658	139	C3H6N6+
127.0724	332	C3H7N6+
134.0449	142	C5H4N5+
139.074	292	C4H7N6+
151.0727	999	C5H7N6+
152.0775	130	C5H8N6+
167.1045	176	C6H11N6+
