Mass spectrum: Albendazole Sulfoxide; LC-ESI-QTOF; MS2; CE: 20 eV; R=35000; [M+H]+
Name: Albendazole Sulfoxide
Name: methyl N-(6-propylsulfinyl-1H-benzimidazol-2-yl)carbamate
Formula: C12H15N3O3S
Exact mass: 281.0834123
SMILES: CCCS(=O)c1ccc2c(c1)nc([nH]2)NC(=O)OC
InChI: InChI=1S/C12H15N3O3S/c1-3-6-19(17)8-4-5-9-10(7-8)14-11(13-9)15-12(16)18-2/h4-5,7H,3,6H2,1-2H3,(H2,13,14,15,16)
Instrument: Bruker maXis Impact
Instrument type: LC-ESI-QTOF
Ms type: MS2
Ion mode: POSITIVE
Ionization: ESI
Fragmentation mode: CID
Collision energy: 20 eV
Resolution: 35000
Column name: Acclaim RSLC C18 2.2um, 2.1x100mm, Thermo
Retention time: 5.6 min
Base peak: 282.0903
Precursor m/z: 282.0907
Precursor type: [M+H]+
m/z	relative intensity	assigned
159.0425	25	C8H5N3O+
160.0498	11	C8H6N3O+
190.0065	55	C8H4N3OS+
192.0749	78	C9H10N3O2+
193.0792	8	C10H13N2S+
204.0773	7	C10H10N3O2+
207.01	29	C8H5N3O2S+
208.0172	361	C8H6N3O2S+
209.0187	23	C10[13]CH2N3O2+
210.0132	13	C11H4N3S+
218.0922	7	C11H12N3O2+
222.0331	359	C9H8N3O2S+
223.0385	44	C10[13]CH10O3S+
224.0307	11	C12H6N3S+
233.1155	11	C12H15N3O2+
239.0355	214	C9H9N3O3S+
240.0433	999	C9H10N3O3S+
241.046	77	C8[13]CH10N3O3S+
242.0415	24	C9H10N3O3[34]S+
250.0645	23	C11H12N3O2S+
265.0903	32	C12H15N3O2S+
282.0907	247	C12H16N3O3S+
283.0936	33	C11[13]CH16N3O3S+
284.0864	11	C12H16N2O4S+
