Mass spectrum: Alachlor; LC-ESI-QTOF; MS2; CE: 50 eV; R=35000; [M+H]+
Name: Alachlor
Name: 2-chloro-N-(2,6-diethylphenyl)-N-(methoxymethyl)acetamide
Formula: C14H20ClNO2
Exact mass: 269.1182566
SMILES: CCC1=CC=CC(CC)=C1N(COC)C(=O)CCl
InChI: InChI=1S/C14H20ClNO2/c1-4-11-7-6-8-12(5-2)14(11)16(10-18-3)13(17)9-15/h6-8H,4-5,9-10H2,1-3H3
Instrument: Bruker maXis Impact
Instrument type: LC-ESI-QTOF
Ms type: MS2
Ion mode: POSITIVE
Ionization: ESI
Fragmentation mode: CID
Collision energy: 50 eV
Resolution: 35000
Column name: Acclaim RSLC C18 2.2um, 2.1x100mm, Thermo
Retention time: 10.2 min
Base peak: 238.099
Precursor m/z: 270.1255
Precursor type: [M+H]+
m/z	relative intensity	assigned
115.0514	16	C3H12ClO2+
117.0567	175	C8H7N+
118.0632	59	C2H13ClNO2+
119.0712	23	C2H14ClNO2+
120.0788	11	C2H15ClNO2+
130.064	69	C3H13ClNO2+
131.071	36	C3H14ClNO2+
132.0798	999	C9H10N+
134.0947	25	C3H17ClNO2+
143.0709	13	C4H14ClNO2+
144.0793	35	C4H15ClNO2+
147.1031	587	C4H18ClNO2+
156.0797	13	C11H10N+
158.0952	13	C5H17ClNO2+
160.1116	11	C11H14N+
162.1263	75	C5H21ClNO2+
163.1317	11	C6H17N3O2+
170.0941	14	C6H17ClNO2+
