Mass spectrum: Perfluorooctanoic acid; LC-ESI-QTOF; MS2; CE: 20 eV; R=35000; [M-H]-
Name: Perfluorooctanoic acid
Name: 2,2,3,3,4,4,5,5,6,6,7,7,8,8,8-pentadecafluorooctanoic acid
Formula: C8HF15O2
Exact mass: 413.9737026
SMILES: OC(=O)C(F)(F)C(F)(F)C(F)(F)C(F)(F)C(F)(F)C(F)(F)C(F)(F)F
InChI: InChI=1S/C8HF15O2/c9-2(10,1(24)25)3(11,12)4(13,14)5(15,16)6(17,18)7(19,20)8(21,22)23/h(H,24,25)
Instrument: Bruker maXis Impact
Instrument type: LC-ESI-QTOF
Ms type: MS2
Ion mode: NEGATIVE
Ionization: ESI
Fragmentation mode: CID
Collision energy: 20 eV
Resolution: 35000
Column name: Acclaim RSLC C18 2.2um, 2.1x100mm, Thermo
Retention time: 9.695 min
Base peak: 368.976
Precursor m/z: 412.9664
Precursor type: [M-H]-
m/z	relative intensity	assigned
118.9942	20	C7FO-
168.9895	999	C3F7-
169.9923	31	C2[13]CF7-
196.9835	23	C4F7O-
218.9854	278	C4F9-
219.9902	12	C3[13]CF9-
368.976	261	C7F15-
369.9745	15	C6[13]CF15-
