Mass spectrum: N4-Acetylsulfamethazine; LC-ESI-QTOF; MS2; CE: 20 eV; R=35000; [M+H]+
Name: N4-Acetylsulfamethazine
Name: N-Acetyl Sulfamethazine
Name: N-[4-[(4,6-dimethylpyrimidin-2-yl)sulfamoyl]phenyl]acetamide
Formula: C14H16N4O3S
Exact mass: 320.0943114
SMILES: Cc1cc(nc(n1)NS(=O)(=O)c2ccc(cc2)/N=C(\C)/O)C
InChI: InChI=1S/C14H16N4O3S/c1-9-8-10(2)16-14(15-9)18-22(20,21)13-6-4-12(5-7-13)17-11(3)19/h4-8H,1-3H3,(H,17,19)(H,15,16,18)
Instrument: Bruker maXis Impact
Instrument type: LC-ESI-QTOF
Ms type: MS2
Ion mode: POSITIVE
Ionization: ESI
Fragmentation mode: CID
Collision energy: 20 eV
Resolution: 35000
Column name: Acclaim RSLC C18 2.2um, 2.1x100mm, Thermo
Retention time: 4.5 min
Base peak: 321.1009
Precursor m/z: 321.1016
Precursor type: [M+H]+
m/z	relative intensity	assigned
118.0637	18	C8H8N+
122.0709	5	C6H8N3+
123.0784	10	C6H9N3+
124.086	94	C6H10N3+
125.0893	8	C4H15NOS+
134.0594	53	C8H8NO+
136.0749	24	C8H10NO+
150.0541	13	C6H6N4O+
156.011	6	C6H6NO2S+
162.0653	14	C8H8N3O+
186.0314	54	C11H6O3+
198.0205	147	C6H6N4O2S+
200.0178	7	C11H6NOS+
204.0429	242	C12H4N4+
205.045	20	C11[13]CH4N4+
206.0415	11	C11H10O2S+
255.1232	82	C14H15N4O+
256.1264	10	C13[13]CH15N4O
321.1014	999	C14H17N4O3S+
322.1037	153	C13[13]CH17N4O3S+
323.1013	51	C14H17N4O3[34]S+
