Mass spectrum: 2-Hydroxycarbamazepine; LC-ESI-QTOF; MS2; CE: 40 eV; R=35000; [M-H]-
Name: 2-Hydroxycarbamazepine
Name: 3-hydroxybenzo[b][1]benzazepine-11-carboxamide
Formula: C15H12N2O2
Exact mass: 252.0898776
SMILES: NC(=O)N1C2=CC=CC=C2C=CC2=CC(O)=CC=C12
InChI: InChI=1S/C15H12N2O2/c16-15(19)17-13-4-2-1-3-10(13)5-6-11-9-12(18)7-8-14(11)17/h1-9,18H,(H2,16,19)
Instrument: Bruker maXis Impact
Instrument type: LC-ESI-QTOF
Ms type: MS2
Ion mode: NEGATIVE
Ionization: ESI
Fragmentation mode: CID
Collision energy: 40 eV
Resolution: 35000
Column name: Acclaim RSLC C18 2.2um, 2.1x100mm, Thermo
Retention time: 5.994 min
Base peak: 251.0818
Precursor m/z: 251.0826
Precursor type: [M-H]-
m/z	relative intensity	assigned
165.0704	283	C13H9-
166.0653	999	C12H8N-
167.0692	179	C11[13]CH8N-
180.079	438	C13H10N-
181.0541	154	C12H7NO-
207.068	697	C14H9NO-
208.0751	415	C14H10NO-
