Mass spectrum: Moclobemide; LC-ESI-QTOF; MS2; CE: 40 eV; R=35000; [M+H]+
Name: Moclobemide
Name: 4-chloro-N-(2-morpholin-4-ylethyl)benzamide
Formula: C13H17ClN2O2
Exact mass: 268.0978555
SMILES: c1cc(ccc1C(=O)NCCN2CCOCC2)Cl
InChI: InChI=1S/C13H17ClN2O2/c14-12-3-1-11(2-4-12)13(17)15-5-6-16-7-9-18-10-8-16/h1-4H,5-10H2,(H,15,17)
Instrument: Bruker maXis Impact
Instrument type: LC-ESI-QTOF
Ms type: MS2
Ion mode: POSITIVE
Ionization: ESI
Fragmentation mode: CID
Collision energy: 40 eV
Resolution: 35000
Column name: Acclaim RSLC C18 2.2um, 2.1x100mm, Thermo
Retention time: 4.701 min
Base peak: 189.1022
Precursor m/z: 269.1051
Precursor type: [M+H]+
m/z	relative intensity	assigned
110.9994	8	C6H4Cl+
138.9936	999	C7H4ClO+
139.9969	46	C6[13]CH4ClO+
140.9907	221	C7H4[37]ClO+
141.9942	7	C5H3ClN2O+
182.036	330	C9H9ClNO+
183.039	22	C8[13]CH9ClNO+
184.0331	67	C9H9[37]ClNO+
