Mass spectrum: N4-Acetyl-Sulfamethoxazole; LC-ESI-QTOF; MS2; CE: 30 eV; R=35000; [M+H]+
Name: N4-Acetyl-Sulfamethoxazole
Name: N4-Acetylsulfamethoxazole
Name: N-[4-[(5-methyl-1,2-oxazol-3-yl)sulfamoyl]phenyl]acetamide
Formula: C12H13N3O4S
Exact mass: 295.0626769
SMILES: CC(=O)NC1=CC=C(C=C1)S(=O)(=O)NC1=NOC(C)=C1
InChI: InChI=1S/C12H13N3O4S/c1-8-7-12(14-19-8)15-20(17,18)11-5-3-10(4-6-11)13-9(2)16/h3-7H,1-2H3,(H,13,16)(H,14,15)
Instrument: Bruker maXis Impact
Instrument type: LC-ESI-QTOF
Ms type: MS2
Ion mode: POSITIVE
Ionization: ESI
Fragmentation mode: CID
Collision energy: 30 eV
Resolution: 35000
Column name: Acclaim RSLC C18 2.2um, 2.1x100mm, Thermo
Retention time: 5.1 min
Base peak: 296.0694
Precursor m/z: 296.07
Precursor type: [M+H]+
m/z	relative intensity	assigned
132.0674	23	C8H8N2+
134.0591	999	C8H8NO+
140.0148	17	C3H8O4S+
146.0706	117	C8H8N3+
147.0784	126	C8H9N3+
148.0842	34	C5H12N2O3+
150.0535	60	C8H8NO2+
150.0785	15	C8H10N2O+
156.0103	143	C6H6NO2S+
160.086	247	C9H10N3+
161.0006	21	C4H5N2O3S+
161.0879	34	CH13N4O5+
162.0652	88	C8H8N3O+
163.0675	18	C6H13NO2S+
176.0258	56	C5H8N2O3S+
188.0804	135	C7H12N2O4+
189.086	50	C7H13N2O4+
190.0962	44	C10H12N3O+
194.0369	68	C5H10N2O4S+
195.0393	16	C8H7N2O4+
198.0207	319	C8H8NO3S+
199.0239	27	C11H5NO3+
200.0182	18	C11H6NOS+
201.0651	27	C11H9N2O2+
296.0717	24	C12H14N3O4S+
