Mass spectrum: N-(2,4-Dimethylphenyl)-N-methylimidoformamide; LC-ESI-QTOF; MS2; CE: 50 eV; R=35000; [M+H]+
Name: N-(2,4-Dimethylphenyl)-N-methylimidoformamide
Name: SCHEMBL11046767
Name: N-(2,4-dimethylphenyl)-N-methylmethanimidamide
Formula: C10H14N2
Exact mass: 162.1156984
SMILES: Cc1ccc(c(c1)C)N(C)C=N
InChI: InChI=1S/C10H14N2/c1-8-4-5-10(9(2)6-8)12(3)7-11/h4-7,11H,1-3H3
Instrument: Bruker maXis Impact
Instrument type: LC-ESI-QTOF
Ms type: MS2
Ion mode: POSITIVE
Ionization: ESI
Fragmentation mode: CID
Collision energy: 50 eV
Resolution: 35000
Column name: Acclaim RSLC C18 2.2um, 2.1x100mm, Thermo
Retention time: 4.4 min
Base peak: 163.1221
Precursor m/z: 163.123
Precursor type: [M+H]+
m/z	relative intensity	assigned
106.0663	58	C7H8N+
116.0486	88	C8H6N+
117.0568	999	C8H7N+
119.0726	45	C8H9N+
120.0799	246	C8H10N+
130.064	471	C9H8N+
131.0592	97	C8H7N2+
132.0669	88	C8H8N2+
133.0746	58	C8H9N2+
147.0911	39	C9H11N2+
