Mass spectrum: Lopinavir; LC-ESI-QTOF; MS2; CE: 50 eV; R=35000; [M+H]+
Name: Lopinavir
Name: (2S)-N-[(2S,4S,5S)-5-[[2-(2,6-dimethylphenoxy)acetyl]amino]-4-hydroxy-1,6-diphenylhexan-2-yl]-3-methyl-2-(2-oxo-1,3-diazinan-1-yl)butanamide
Formula: C37H48N4O5
Exact mass: 628.3624706
SMILES: Cc1cccc(c1OCC(=O)N[C@@H](Cc2ccccc2)[C@H](C[C@H](Cc3ccccc3)NC(=O)[C@H](C(C)C)N4CCCNC4=O)O)C
InChI: InChI=1S/C37H48N4O5/c1-25(2)34(41-20-12-19-38-37(41)45)36(44)39-30(21-28-15-7-5-8-16-28)23-32(42)31(22-29-17-9-6-10-18-29)40-33(43)24-46-35-26(3)13-11-14-27(35)4/h5-11,13-18,25,30-32,34,42H,12,19-24H2,1-4H3,(H,38,45)(H,39,44)(H,40,43)/t30-,31-,32-,34-/m0/s1
Instrument: Bruker maXis Impact
Instrument type: LC-ESI-QTOF
Ms type: MS2
Ion mode: POSITIVE
Ionization: ESI
Fragmentation mode: CID
Collision energy: 50 eV
Resolution: 35000
Column name: Acclaim RSLC C18 2.2um, 2.1x100mm, Thermo
Retention time: 11.788 min
Base peak: 629.37
Precursor m/z: 629.3697
Precursor type: [M+H]+
m/z	relative intensity	assigned
117.0692	6	C9H9+
120.0803	141	C8H10N+
121.0836	11	C7[13]CH10N+
129.0692	5	C10H9+
131.0848	13	C10H11+
132.0806	5	C9H10N+
135.0797	14	C7H9N3+
155.1175	999	C8H15N2O+
156.1204	104	C7[13]CH15N2O+
172.1112	7	C12H14N+
180.101	15	C8H12N4O+
183.1122	147	C9H15N2O2+
184.1154	13	C8[13]CH15N2O2+
233.1319	5	C18H17+
250.1592	46	C18H20N+
251.162	9	C17[13]CH20N+
310.1804	26	C17H26O5+
311.1809	7	C16[13]CH26O5+
384.2322	9	C27H30NO+
429.254	6	C28H33N2O2+
