Mass spectrum: Fipronil sulfide; LC-ESI-QTOF; MS2; CE: Ramp 20-30 eV; R=35000; [M+H]+
Name: Fipronil sulfide
Name: 5-amino-1-[2,6-dichloro-4-(trifluoromethyl)phenyl]-4-(trifluoromethylsulfanyl)pyrazole-3-carbonitrile
Formula: C12H4Cl2F6N4S
Exact mass: 419.9437918
SMILES: NC1=C(SC(F)(F)F)C(=NN1C1=C(Cl)C=C(C=C1Cl)C(F)(F)F)C#N
InChI: InChI=1S/C12H4Cl2F6N4S/c13-5-1-4(11(15,16)17)2-6(14)8(5)24-10(22)9(7(3-21)23-24)25-12(18,19)20/h1-2H,22H2
Instrument: Bruker maXis Impact
Instrument type: LC-ESI-QTOF
Ms type: MS2
Ion mode: POSITIVE
Ionization: ESI
Fragmentation mode: CID
Collision energy: Ramp 20-30 eV
Resolution: 35000
Column name: Acclaim RSLC C18 2.2um, 2.1x100mm, Thermo
Retention time: 10.703 min
Base peak: 102.1284
Precursor m/z: 420.9511
Precursor type: [M+H]+
m/z	relative intensity	assigned
149.0222	89	C9H3F2+
154.9877	70	C5H3ClF3+
264.9824	131	C6H2ClF6N3+
316.9861	859	C11H5ClF3N4S+
317.9903	160	C12H2ClF5N3+
318.9833	245	C11H5[37]ClF3N4S+
319.984	221	C11H5Cl2F3N4+
321.9816	85	C11H5Cl[37]ClF3N4+
351.9516	78	C9H5Cl2F5N3S+
420.9496	999	C12H5Cl2F6N4S+
421.9567	214	C11[13]CH5Cl2F6N4S+
422.9463	581	C12H5Cl[37]ClF6N4S+
