Mass spectrum: Octyl-3,5-di-tert-butyl-4-hydroxyhydrocinnamate; LC-ESI-QTOF; MS2; CE: 20 eV; R=35000; [M+H]+
Name: Octyl-3,5-di-tert-butyl-4-hydroxyhydrocinnamate
Name: Octyl-3,5-di-tert-butyl-4-hydroxy-hydrocinnamate
Name: octyl 3-(3,5-ditert-butyl-4-hydroxyphenyl)propanoate
Formula: C25H42O3
Exact mass: 390.3133952
SMILES: CCCCCCCCOC(=O)CCC1=CC(=C(O)C(=C1)C(C)(C)C)C(C)(C)C
InChI: InChI=1S/C25H42O3/c1-8-9-10-11-12-13-16-28-22(26)15-14-19-17-20(24(2,3)4)23(27)21(18-19)25(5,6)7/h17-18,27H,8-16H2,1-7H3
Instrument: Bruker maXis Impact
Instrument type: LC-ESI-QTOF
Ms type: MS2
Ion mode: POSITIVE
Ionization: ESI
Fragmentation mode: CID
Collision energy: 20 eV
Resolution: 35000
Column name: Acclaim RSLC C18 2.2um, 2.1x100mm, Thermo
Retention time: 14.661 min
Base peak: 408.3469
Precursor m/z: 391.3207
Precursor type: [M+H]+
m/z	relative intensity	assigned
133.0837	47	C6H13O3+
149.0221	992	C8H5O3+
149.0584	901	C9H9O2+
150.0619	85	C8[13]CH9O2+
167.0689	999	C9H11O3+
168.0714	148	C8[13]CH11O3+
195.121	141	C15H15+
313.2711	42	C19H37O3+
