Mass spectrum: Tiapride; LC-ESI-QTOF; MS2; CE: 10 eV; R=35000; [M+H]+
Name: Tiapride
Name: N-[2-(diethylamino)ethyl]-2-methoxy-5-methylsulfonylbenzamide
Formula: C15H24N2O4S
Exact mass: 328.1456782
SMILES: CCN(CC)CCNC(=O)c1cc(ccc1OC)S(=O)(=O)C
InChI: InChI=1S/C15H24N2O4S/c1-5-17(6-2)10-9-16-15(18)13-11-12(22(4,19)20)7-8-14(13)21-3/h7-8,11H,5-6,9-10H2,1-4H3,(H,16,18)
Instrument: Bruker maXis Impact
Instrument type: LC-ESI-QTOF
Ms type: MS2
Ion mode: POSITIVE
Ionization: ESI
Fragmentation mode: CID
Collision energy: 10 eV
Resolution: 35000
Column name: Acclaim RSLC C18 2.2um, 2.1x100mm, Thermo
Retention time: 3.155 min
Base peak: 329.1528
Precursor m/z: 329.153
Precursor type: [M+H]+
m/z	relative intensity	assigned
256.0631	43	C11H14NO4S+
329.1532	999	C15H25N2O4S+
330.156	194	C14[13]CH25N2O4S+
331.1511	44	C15H25N2O4[34]S+
