Mass spectrum: Bisoprolol; LC-ESI-QTOF; MS2; CE: 10 eV; R=35000; [M+H]+
Name: Bisoprolol
Name: 1-(propan-2-ylamino)-3-[4-(2-propan-2-yloxyethoxymethyl)phenoxy]propan-2-ol
Formula: C18H31NO4
Exact mass: 325.2253085
SMILES: CC(C)NCC(O)COC1=CC=C(COCCOC(C)C)C=C1
InChI: InChI=1S/C18H31NO4/c1-14(2)19-11-17(20)13-23-18-7-5-16(6-8-18)12-21-9-10-22-15(3)4/h5-8,14-15,17,19-20H,9-13H2,1-4H3
Instrument: Bruker maXis Impact
Instrument type: LC-ESI-QTOF
Ms type: MS2
Ion mode: POSITIVE
Ionization: ESI
Fragmentation mode: CID
Collision energy: 10 eV
Resolution: 35000
Column name: Acclaim RSLC C18 2.2um, 2.1x100mm, Thermo
Retention time: 5.733 min
Base peak: 326.2322
Precursor m/z: 326.2326
Precursor type: [M+H]+
m/z	relative intensity	assigned
116.1062	16	C6H14NO+
222.148	14	C13H20NO2+
326.2333	999	C18H32NO4+
