Mass spectrum: Lamotrigine; LC-ESI-QTOF; MS2; CE: 50 eV; R=35000; [M+H]+
Name: Lamotrigine
Name: 6-(2,3-dichlorophenyl)-1,2,4-triazine-3,5-diamine
Formula: C9H7Cl2N5
Exact mass: 255.0078506
SMILES: NC1=NC(N)=C(N=N1)C1=C(Cl)C(Cl)=CC=C1
InChI: InChI=1S/C9H7Cl2N5/c10-5-3-1-2-4(6(5)11)7-8(12)14-9(13)16-15-7/h1-3H,(H4,12,13,14,16)
Instrument: Bruker maXis Impact
Instrument type: LC-ESI-QTOF
Ms type: MS2
Ion mode: POSITIVE
Ionization: ESI
Fragmentation mode: CID
Collision energy: 50 eV
Resolution: 35000
Column name: Acclaim RSLC C18 2.2um, 2.1x100mm, Thermo
Retention time: 5.135 min
Base peak: 256.0149
Precursor m/z: 256.0151
Precursor type: [M+H]+
m/z	relative intensity	assigned
108.9846	14	C6H2Cl+
114.0325	23	C8H4N+
115.0287	20	C7H3N2+
115.04	16	C8H5N+
116.0359	10	C7H4N2+
116.0492	28	C8H6N+
117.044	7	C7H5N2+
120.9602	9	C4H3Cl2+
121.9916	11	C7H3Cl+
122.9987	232	C7H4Cl+
123.994	267	C6H3ClN+
124.9984	86	C7H4[37]Cl+
125.9908	57	C6H3[37]ClN+
126.9959	27	C4H2ClN3+
127.0174	10	C7HN3+
128.0015	29	C4H3ClN3+
128.9918	5	C4H2[37]ClN3+
129.0438	23	C8H5N2+
129.9978	5	C4H3[37]ClN3+
130.0523	8	C8H6N2+
131.0593	234	C8H7N2+
132.0625	14	C7[13]CH7N2+
132.9596	260	C5H3Cl2+
134.9564	142	C5H3Cl[37]Cl+
135.9614	5	C3H2Cl2N2+
135.9937	60	C7H3ClN+
137.0011	20	C7H4ClN+
137.9905	16	C7H3[37]ClN+
138.0091	202	C7H5ClN+
138.9991	6	C7H4[37]ClN+
139.0159	34	C7H6ClN+
140.0065	47	C7H5[37]ClN+
140.0361	16	C9H4N2+
141.014	8	C7H6[37]ClN+
141.043	8	C9H5N2+
142.0053	6	C3H8Cl2N2+
142.0396	6	C8H4N3+
143.0464	22	C8H5N3+
144.0541	10	C8H6N3+
144.9593	207	C6H3Cl2+
145.9648	16	C5[13]CH3Cl2+
146.9566	104	C6H3Cl[37]Cl+
146.9745	10	C6H5Cl2+
147.9622	9	C4H2Cl2N2+
147.9935	78	C8H3ClN+
148.971	10	C6H5Cl[37]Cl+
149.0008	48	C8H4ClN+
149.9917	25	C8H3[37]ClN+
150.009	49	C9N3+
151.0049	68	C7H4ClN2+
151.0169	387	C8H6ClN+
152.0124	523	C7H5ClN2+
153.0144	123	C8H6[37]ClN+
154.0087	135	C7H5[37]ClN2+
154.9996	15	C4H2ClN5+
155.014	6	C5H4ClN4+
156.9594	638	C7H3Cl2+
157.963	47	C6[13]CH3Cl2+
158.0561	14	C8H6N4+
158.9564	395	C7H3Cl[37]Cl+
158.9751	365	C7H5Cl2+
159.9705	251	C6H4Cl2N+
160.9723	257	C7H5Cl[37]Cl+
161.9672	159	C6H4Cl[37]ClN+
162.9699	78	C4H3Cl2N3+
163.0048	21	C8H4ClN2+
163.9996	209	C7H3ClN3+
164.9673	47	C4H3Cl[37]ClN3+
165.003	20	C6[13]CH3ClN3+
165.0202	194	C8H6ClN2+
165.9971	51	C7H3[37]ClN3+
166.028	280	C8H7ClN2+
167.0176	55	C8H6[37]ClN2+
167.0295	21	C7[13]CH7ClN2+
168.0249	68	C8H7[37]ClN2+
169.0162	9	C5H4ClN5+
170.9624	312	C7H3Cl2N+
171.9699	261	C7H4Cl2N+
172.9651	999	C6H3Cl2N2+
173.9672	203	C7H4Cl[37]ClN+
173.9856	33	C7H6Cl2N+
174.9627	544	C6H3Cl[37]ClN2+
175.9665	23	C4H2Cl2N4+
175.9832	24	C7H6Cl[37]ClN+
176.0114	23	C9H5ClN2+
177.0077	22	C8H4ClN3+
178.0147	71	C8H5ClN3+
179.0229	31	C8H6ClN3+
180.0138	13	C8H5[37]ClN3+
180.0299	9	C9H2N5+
181.0192	9	C8H6[37]ClN3+
182.9634	5	C8H3Cl2N+
183.9702	259	C8H4Cl2N+
184.9773	90	C9ClN3+
185.9676	161	C8H4Cl[37]ClN+
186.0753	9	C9H8N5+
186.9807	196	C7H5Cl2N2+
187.9836	19	C6[13]CH5Cl2N2+
187.9997	6	C9H3ClN3+
188.9782	113	C7H5Cl[37]ClN2+
189.9811	26	C5H4Cl2N4+
191.9792	11	C5H4Cl[37]ClN4+
194.0348	19	C8H7ClN4+
194.9628	150	C9H3Cl2N+
195.9667	17	C8[13]CH3Cl2N+
196.031	7	C8H7[37]ClN4+
196.9605	92	C9H3Cl[37]ClN+
198.9797	8	C9ClN4+
199.9908	5	C8H6Cl2N2+
201.9841	6	C6H4Cl2N4+
209.9742	6	C9H4Cl2N2+
210.9816	212	C9H5Cl2N2+
211.9777	78	C8H4Cl2N3+
212.9784	147	C9H5Cl[37]ClN2+
213.974	56	C8H4Cl[37]ClN3+
214.9801	6	C6H3Cl2N5+
220.0379	31	C9H7ClN5+
221.0392	5	C8[13]CH7ClN5+
222.0352	12	C9H7[37]ClN5+
229.0039	19	C8H7Cl2N4+
231.0016	11	C8H7Cl[37]ClN4+
256.0148	41	C9H8Cl2N5+
257.0166	5	C8[13]CH8Cl2N5+
258.0107	32	C9H8Cl[37]ClN5+
