Mass spectrum: Cotinine; LC-ESI-QTOF; MS2; CE: 40 eV; R=35000; [M+H]+
Name: Cotinine
Name: (5S)-1-methyl-5-pyridin-3-ylpyrrolidin-2-one
Formula: C10H12N2O
Exact mass: 176.0949630
SMILES: CN1[C@@H](CCC1=O)c2cccnc2
InChI: InChI=1S/C10H12N2O/c1-12-9(4-5-10(12)13)8-3-2-6-11-7-8/h2-3,6-7,9H,4-5H2,1H3/t9-/m0/s1
Instrument: Bruker maXis Impact
Instrument type: LC-ESI-QTOF
Ms type: MS2
Ion mode: POSITIVE
Ionization: ESI
Fragmentation mode: CID
Collision energy: 40 eV
Resolution: 35000
Column name: Acclaim RSLC C18 2.2um, 2.1x100mm, Thermo
Retention time: 3.598 min
Base peak: 177.1018
Precursor m/z: 177.1022
Precursor type: [M+H]+
m/z	relative intensity	assigned
116.0488	40	C8H6N+
117.0564	853	C8H7N+
118.064	999	C8H8N+
119.0583	37	C7H7N2+
119.0692	78	C7[13]CH8N+
120.0797	536	C8H10N+
128.0486	124	C9H6N+
130.0636	137	C9H8N+
131.0619	43	C8H7N2+
132.0796	62	C9H10N+
133.0744	87	C8H9N2+
134.0589	156	C8H8NO+
143.0594	72	C9H7N2+
144.0671	188	C9H8N2+
145.0733	76	C9H9N2+
146.059	612	C9H8NO+
149.0691	144	C8H9N2O+
157.0753	35	C10H9N2+
159.092	72	C10H11N2+
177.1013	329	C10H13N2O+
