Mass spectrum: Prothioconazole-desthio; LC-ESI-QTOF; MS2; CE: Ramp 21.8-32.8 eV; R=35000; [M+H]+
Name: Prothioconazole-desthio
Name: 2-(1-Chlorocyclopropyl)-1-(2-chlorophenyl)-3-(1H-1,2,4-triazol-1-yl)propan-2-ol
Name: 2-(1-chlorocyclopropyl)-1-(2-chlorophenyl)-3-(1,2,4-triazol-1-yl)propan-2-ol
Formula: C14H15Cl2N3O
Exact mass: 311.0592175
SMILES: OC(CN1C=NC=N1)(CC1=CC=CC=C1Cl)C1(Cl)CC1
InChI: InChI=1S/C14H15Cl2N3O/c15-12-4-2-1-3-11(12)7-14(20,13(16)5-6-13)8-19-10-17-9-18-19/h1-4,9-10,20H,5-8H2
Instrument: Bruker maXis Impact
Instrument type: LC-ESI-QTOF
Ms type: MS2
Ion mode: POSITIVE
Ionization: ESI
Fragmentation mode: CID
Collision energy: Ramp 21.8-32.8 eV
Resolution: 35000
Column name: Acclaim RSLC C18 2.2um, 2.1x100mm, Thermo
Retention time: 10.486 min
Base peak: 316.1075
Precursor m/z: 312.0665
Precursor type: [M+H]+
m/z	relative intensity	assigned
65.0381	6	C5H5+
70.0397	999	C2H4N3+
71.0368	10	C2H4N2[15]N+
71.0426	22	C[13]CH4N3+
115.0539	5	C9H7+
125.0147	400	C7H6Cl+
126.0177	28	C6[13]CH6Cl+
127.0115	98	C7H6[37]Cl+
130.1222	8	C7H16NO+
139.0299	36	C8H8Cl+
141.027	8	C8H8[37]Cl+
142.0765	15	C11H10+
143.0847	6	C11H11+
144.0913	6	C3H15ClN3O+
149.0142	5	C10HN2+
151.0299	33	C9H8Cl+
152.0612	7	C3H16Cl2NO+
153.0271	6	C9H8[37]Cl+
153.0689	23	C12H9+
154.0759	42	C12H10+
155.0258	6	C8H8ClO+
155.0797	5	C11[13]CH10+
158.9746	6	C8ClN2+
163.0294	14	C11H3N2+
165.0687	63	C13H9+
166.0762	9	C12[13]CH9+
171.042	6	C9H5N3O+
177.0457	14	C11H10Cl+
179.0612	7	C12H7N2+
185.0745	14	C10H14ClO+
189.0456	35	C12H10Cl+
190.0491	7	C11[13]CH10Cl+
191.042	10	C12H10[37]Cl+
205.068	7	C12H12ClN+
247.0728	8	C14H14ClNO+
312.0669	585	C14H16Cl2N3O+
313.0693	105	C13[13]CH16Cl2N3O+
314.0639	467	C14H16Cl[37]ClN3O+
