Mass spectrum: Lapatinib; LC-ESI-QTOF; MS2; CE: Ramp 27.3-40.9 eV; R=35000; [M+H]+
Name: Lapatinib
Name: N-[3-chloro-4-[(3-fluorophenyl)methoxy]phenyl]-6-[5-[(2-methylsulfonylethylamino)methyl]furan-2-yl]quinazolin-4-amine
Formula: C29H26ClFN4O4S
Exact mass: 580.1347322
SMILES: CS(=O)(=O)CCNCC1=CC=C(O1)C1=CC2=C(C=C1)N=CN=C2NC1=CC(Cl)=C(OCC2=CC(F)=CC=C2)C=C1
InChI: InChI=1S/C29H26ClFN4O4S/c1-40(36,37)12-11-32-16-23-7-10-27(39-23)20-5-8-26-24(14-20)29(34-18-33-26)35-22-6-9-28(25(30)15-22)38-17-19-3-2-4-21(31)13-19/h2-10,13-15,18,32H,11-12,16-17H2,1H3,(H,33,34,35)
Instrument: Bruker maXis Impact
Instrument type: LC-ESI-QTOF
Ms type: MS2
Ion mode: POSITIVE
Ionization: ESI
Fragmentation mode: CID
Collision energy: Ramp 27.3-40.9 eV
Resolution: 35000
Column name: Acclaim RSLC C18 2.2um, 2.1x100mm, Thermo
Retention time: 11.071 min
Base peak: 102.1284
Precursor m/z: 581.142
Precursor type: [M+H]+
m/z	relative intensity	assigned
349.0614	72	C19H12ClN3O2+
350.0695	187	C19H13ClN3O2+
351.0726	46	C18[13]CH13ClN3O2+
352.067	41	C19H13[37]ClN3O2+
353.0722	9	C16H18ClN2O3S+
365.0806	803	C19H14ClN4O2+
366.0839	151	C18[13]CH14ClN4O2+
367.0776	188	C19H14[37]ClN4O2+
368.0808	30	C16H16ClFN3O4+
379.0958	191	C20H16ClN4O2+
380.0972	38	C19[13]CH16ClN4O2+
381.0932	43	C20H16[37]ClN4O2+
382.1	9	C19H23ClO4S+
393.1109	86	C21H18ClN4O2+
394.1173	18	C20[13]CH18ClN4O2+
395.1084	21	C21H18[37]ClN4O2+
396.1133	5	C27H14N3O+
422.1299	7	C26H17FN3O2+
458.1059	58	C23H23ClN2O4S+
459.1103	21	C22[13]CH23ClN2O4S+
460.1036	21	C23H23[37]ClN2O4S+
461.1108	5	C29H18FN2OS+
471.0911	7	C28H15N4O2S+
472.0986	20	C27H18ClFN2O3+
473.0998	5	C26[13]CH18ClFN2O3+
474.0995	8	C27H18[37]ClFN2O3+
475.1329	6	C23H26ClN3O4S+
501.1522	5	C25H27ClFN4O2S+
581.1431	999	C29H27ClFN4O4S+
582.1459	308	C28[13]CH27ClFN4O4S+
583.1408	333	C29H27[37]ClFN4O4S+
