Mass spectrum: Morantel; LC-ESI-QTOF; MS2; CE: Ramp 18.8-28.1 eV; R=35000; [M+H]+
Name: Morantel
Name: 1-methyl-2-[(E)-2-(3-methylthiophen-2-yl)ethenyl]-5,6-dihydro-4H-pyrimidine
Formula: C12H16N2S
Exact mass: 220.1034
SMILES: Cc1ccsc1/C=C/C2=NCCCN2C
InChI: InChI=1S/C12H16N2S/c1-10-6-9-15-11(10)4-5-12-13-7-3-8-14(12)2/h4-6,9H,3,7-8H2,1-2H3/b5-4+
Instrument: Bruker maXis Impact
Instrument type: LC-ESI-QTOF
Ms type: MS2
Ion mode: POSITIVE
Ionization: ESI
Fragmentation mode: CID
Collision energy: Ramp 18.8-28.1 eV
Resolution: 35000
Column name: Acclaim RSLC C18 2.2um, 2.1x100mm, Thermo
Retention time: 4.5 min
Base peak: 221.1115
Precursor m/z: 221.1107
Precursor type: [M+H]+
m/z	relative intensity	assigned
69.0442	13	C3H5N2+
70.0645	26	C4H8N+
72.0801	33	C4H10N+
111.0275	90	C6H7S+
111.0928	9	C6H11N2+
112.0295	6	C9H4+
123.0266	29	C7H7S+
136.1	6	C8H12N2+
149.0291	8	C8H7NS+
150.037	50	C8H8NS+
164.0529	98	C9H10NS+
165.0558	9	C12H7N+
173.107	12	C11H13N2+
187.1229	15	C12H15N2+
188.1308	33	C12H16N2+
189.1356	5	C12H17N2+
205.0792	12	C11H13N2S+
206.0872	11	C11H14N2S+
221.1118	999	C12H17N2S+
222.1141	142	C11H16N3S+
223.1075	49	C12H17NOS+
