Mass spectrum: Dimethenamid-OA; LC-ESI-QTOF; MS2; CE: Ramp 20.6-30.9 eV; R=35000; [M+H]+
Name: Dimethenamid-OA
Name: [(2,4-Dimethylthiophen-3-yl)(1-methoxypropan-2-yl)amino](oxo)acetic acid
Name: 2-[(2,4-dimethylthiophen-3-yl)-(1-methoxypropan-2-yl)amino]-2-oxoacetic acid
Formula: C12H17NO4S
Exact mass: 271.0878290
SMILES: COCC(C)N(C(=O)C(O)=O)C1=C(C)SC=C1C
InChI: InChI=1S/C12H17NO4S/c1-7-6-18-9(3)10(7)13(8(2)5-17-4)11(14)12(15)16/h6,8H,5H2,1-4H3,(H,15,16)
Instrument: Bruker maXis Impact
Instrument type: LC-ESI-QTOF
Ms type: MS2
Ion mode: POSITIVE
Ionization: ESI
Fragmentation mode: CID
Collision energy: Ramp 20.6-30.9 eV
Resolution: 35000
Column name: Acclaim RSLC C18 2.2um, 2.1x100mm, Thermo
Retention time: 6.385 min
Base peak: 102.1286
Precursor m/z: 272.0951
Precursor type: [M+H]+
m/z	relative intensity	assigned
73.0647	34	C4H9O+
125.0409	34	C7H9S+
126.037	136	C6H8NS+
128.0515	31	C3H12O3S+
135.1029	48	C6H15O3+
138.0361	171	C7H8NS+
152.052	44	C8H10NS+
154.0296	170	C4H10O4S+
166.0677	85	C9H12NS+
167.0752	34	C9H13NS+
168.0819	214	C6H16O3S+
169.0892	38	C6H17O3S+
196.0782	102	C10H14NOS+
198.0937	36	C10H16NOS+
211.0921	37	C11H15O4+
240.0676	999	C11H14NO3S+
241.0712	126	C10[13]CH14NO3S+
242.0665	60	C11H14NO3[34]S+
