Mass spectrum: Promethazin; LC-ESI-QTOF; MS2; CE: 30 eV; R=35000; [M+H]+
Name: Promethazin
Name: Promethazine
Name: N,N-dimethyl-1-phenothiazin-10-ylpropan-2-amine
Formula: C17H20N2S
Exact mass: 284.1347196
SMILES: CC(CN1C2=CC=CC=C2SC2=CC=CC=C12)N(C)C
InChI: InChI=1S/C17H20N2S/c1-13(18(2)3)12-19-14-8-4-6-10-16(14)20-17-11-7-5-9-15(17)19/h4-11,13H,12H2,1-3H3
Instrument: Bruker maXis Impact
Instrument type: LC-ESI-QTOF
Ms type: MS2
Ion mode: POSITIVE
Ionization: ESI
Fragmentation mode: CID
Collision energy: 30 eV
Resolution: 35000
Column name: Acclaim RSLC C18 2.2um, 2.1x100mm, Thermo
Retention time: 7.324 min
Base peak: 285.1418
Precursor m/z: 285.142
Precursor type: [M+H]+
m/z	relative intensity	assigned
136.0201	6	C7H6NS+
154.0643	12	C11H8N+
162.0355	56	C9H8NS+
163.0397	6	C8[13]CH8NS+
171.0246	6	C11H7S+
198.0362	999	C12H8NS+
199.0393	168	C11[13]CH8NS+
200.032	50	C12H8N[34]S+
206.095	18	C15H12N+
207.1028	29	C15H13N+
208.1084	13	C15H14N+
224.0515	12	C14H10NS+
225.0595	56	C17H7N+
226.0621	7	C16[13]CH7N+
239.0746	7	C15H13NS+
240.0832	184	C15H14NS+
241.0866	30	C14[13]CH14NS+
242.08	7	C15H14N[34]S+
