Mass spectrum: Atenolol; LC-ESI-QTOF; MS2; CE: 20 eV; R=35000; [M+H]+
Name: Atenolol
Name: 2-[4-[2-hydroxy-3-(propan-2-ylamino)propoxy]phenyl]acetamide
Formula: C14H22N2O3
Exact mass: 266.1630426
SMILES: CC(C)NCC(COc1ccc(cc1)CC(=O)N)O
InChI: InChI=1S/C14H22N2O3/c1-10(2)16-8-12(17)9-19-13-5-3-11(4-6-13)7-14(15)18/h3-6,10,12,16-17H,7-9H2,1-2H3,(H2,15,18)
Instrument: Bruker maXis Impact
Instrument type: LC-ESI-QTOF
Ms type: MS2
Ion mode: POSITIVE
Ionization: ESI
Fragmentation mode: CID
Collision energy: 20 eV
Resolution: 35000
Column name: Acclaim RSLC C18 2.2um, 2.1x100mm, Thermo
Retention time: 3.1 min
Base peak: 267.17
Precursor m/z: 267.1703
Precursor type: [M+H]+
m/z	relative intensity	assigned
133.064	5	C9H9O+
145.0638	62	C10H9O+
146.067	6	C9[13]CH9O+
190.0857	213	C11H12NO2+
191.0889	18	C6H13N3O4+
208.0964	54	C11H14NO3+
209.099	5	C13H11N3+
225.123	127	C11H17N2O3+
267.1703	999	C14H23N2O3+
269.1753	9	C13H23N3O3+
