Mass spectrum: Norfludiazepam; LC-ESI-QTOF; MS2; CE: 30 eV; R=35000; [M+H]+
Name: Norfludiazepam
Name: Norflurazepam
Name: 7-chloro-5-(2-fluorophenyl)-1,3-dihydro-1,4-benzodiazepin-2-one
Formula: C15H10ClFN2O
Exact mass: 288.0465688
SMILES: c1ccc(c(c1)C2=NCC(=O)Nc3c2cc(cc3)Cl)F
InChI: InChI=1S/C15H10ClFN2O/c16-9-5-6-13-11(7-9)15(18-8-14(20)19-13)10-3-1-2-4-12(10)17/h1-7H,8H2,(H,19,20)
Instrument: Bruker maXis Impact
Instrument type: LC-ESI-QTOF
Ms type: MS2
Ion mode: POSITIVE
Ionization: ESI
Fragmentation mode: CID
Collision energy: 30 eV
Resolution: 35000
Column name: Acclaim RSLC C18 2.2um, 2.1x100mm, Thermo
Retention time: 8.607 min
Base peak: 289.0535
Precursor m/z: 289.0538
Precursor type: [M+H]+
m/z	relative intensity	assigned
122.0387	5	C7H5FN+
123.0226	9	C10H3+
124.0543	7	C7H7FN+
133.0508	8	C8H7NO+
134.0386	14	C8H5FN+
138.0097	6	C10H2O+
140.0249	469	C7H7ClN+
141.0284	33	C6[13]CH7ClN+
142.0219	116	C7H7[37]ClN+
143.0248	6	C8H3N2O+
150.0096	9	C11H2O+
158.0455	28	C9H6N2O+
162.0335	11	C12H4N+
165.02	135	C8H6ClN2+
166.0038	56	C8H5ClNO+
166.0234	13	C7[13]CH6ClN2+
167.0165	37	C8H6[37]ClN2+
168.0006	12	C8H5[37]ClNO+
168.0197	19	C8H7ClNO+
170.0163	5	C8H7[37]ClNO+
179.0715	7	C13H9N+
193.015	14	C9H6ClN2O+
198.0692	7	C13H9FN+
205.0744	13	C14H9N2+
206.0824	28	C14H10N2+
209.0626	5	C14H8FN+
211.0781	53	C14H10FN+
212.0818	9	C13[13]CH10FN+
214.0406	85	C13H9ClN+
215.0442	13	C12[13]CH9ClN+
216.0377	22	C13H9[37]ClN+
224.0735	5	C14H9FN2+
225.0563	12	C14H8FNO+
225.0809	33	C14H10FN2+
226.0891	394	C14H11FN2+
227.0737	10	C14H10FNO+
227.0921	56	C13[13]CH11FN2+
232.0313	17	C13H8ClFN+
234.0466	15	C13H10ClFN+
236.0724	8	C15H9FN2+
237.0567	9	C15H8FNO+
241.0515	12	C14H10ClN2+
244.0308	13	C14H8ClFN+
245.0391	15	C14H9ClFN+
246.046	5	C14H10ClFN+
247.0384	5	C14H9[37]ClFN+
254.0838	9	C15H11FN2O+
259.0421	13	C14H9ClFN2+
260.0261	11	C14H8ClFNO+
260.0499	34	C14H10ClFN2+
261.0581	168	C14H11ClFN2+
262.0611	26	C13[13]CH11ClFN2+
263.0554	42	C14H11[37]ClFN2+
271.042	14	C15H9ClFN2+
289.0535	999	C15H11ClFN2O+
290.0561	175	C14[13]CH11ClFN2O+
291.0505	288	C15H11[37]ClFN2O+
