Mass spectrum: Pindolol; LC-ESI-QTOF; MS2; CE: 50 eV; R=35000; [M+H]+
Name: Pindolol
Name: 1-(1H-indol-4-yloxy)-3-(propan-2-ylamino)propan-2-ol
Formula: C14H20N2O2
Exact mass: 248.1524779
SMILES: CC(C)NCC(O)COC1=CC=CC2=C1C=CN2
InChI: InChI=1S/C14H20N2O2/c1-10(2)16-8-11(17)9-18-14-5-3-4-13-12(14)6-7-15-13/h3-7,10-11,15-17H,8-9H2,1-2H3
Instrument: Bruker maXis Impact
Instrument type: LC-ESI-QTOF
Ms type: MS2
Ion mode: POSITIVE
Ionization: ESI
Fragmentation mode: CID
Collision energy: 50 eV
Resolution: 35000
Column name: Acclaim RSLC C18 2.2um, 2.1x100mm, Thermo
Retention time: 3.807 min
Base peak: 249.1599
Precursor m/z: 249.1598
Precursor type: [M+H]+
m/z	relative intensity	assigned
115.0535	378	C9H7+
116.049	477	C8H6N+
117.0565	670	C8H7N+
117.0685	225	C9H9+
118.0641	435	C8H8N+
119.0668	40	C7[13]CH8N+
126.0452	25	C10H6+
127.0533	129	C10H7+
128.049	59	C9H6N+
128.0601	53	C10H8+
129.056	67	C9H7N+
130.0641	167	C9H8N+
131.0356	18	C8H5NO+
131.0476	10	C9H7O+
131.0692	20	C8[13]CH8N+
132.0435	115	C8H6NO+
132.0797	61	C9H10N+
133.051	341	C8H7NO+
134.0588	999	C8H8NO+
135.0615	105	C7[13]CH8NO+
140.0486	14	C10H6N+
141.0568	28	C10H7N+
142.064	170	C10H8N+
143.0717	838	C10H9N+
144.0551	128	C10H8O+
144.0794	893	C10H10N+
145.0636	161	C10H9O+
145.0828	111	C9[13]CH10N+
146.059	190	C9H8NO+
147.0618	20	C8[13]CH8NO+
153.0558	10	C11H7N+
154.0637	135	C11H8N+
155.0593	181	C10H7N2+
156.0641	29	C9[13]CH7N2+
157.0512	77	C10H7NO+
157.0724	10	C10H9N2+
158.054	12	C9[13]CH7NO+
159.0666	13	C10H9NO+
160.0748	36	C10H10NO+
161.0472	11	C9H7NO2+
167.0591	21	C11H7N2+
168.0671	14	C11H8N2+
170.0579	97	C11H8NO+
171.0654	37	C11H9NO+
172.0745	64	C11H10NO+
173.0769	10	C10[13]CH10NO+
183.0786	14	C13H11O+
184.086	13	C13H12O+
