Mass spectrum: Clothianidin; LC-ESI-QTOF; MS2; CE: 50 eV; R=35000; [M+H]+
Name: Clothianidin
Name: n-[(2-Chloro-5-thiazolyl)methyl]-n`-methyl-n``-nitroguanidine
Name: 1-[(2-chloro-1,3-thiazol-5-yl)methyl]-2-methyl-3-nitroguanidine
Formula: C6H8ClN5O2S
Exact mass: 249.0087232
SMILES: CN\C(NCC1=CN=C(Cl)S1)=N/[N+]([O-])=O
InChI: InChI=1S/C6H8ClN5O2S/c1-8-6(11-12(13)14)10-3-4-2-9-5(7)15-4/h2H,3H2,1H3,(H2,8,10,11)
Instrument: Bruker maXis Impact
Instrument type: LC-ESI-QTOF
Ms type: MS2
Ion mode: POSITIVE
Ionization: ESI
Fragmentation mode: CID
Collision energy: 50 eV
Resolution: 35000
Column name: Acclaim RSLC C18 2.2um, 2.1x100mm, Thermo
Retention time: 4.880 min
Base peak: 250.0156
Precursor m/z: 250.016
Precursor type: [M+H]+
m/z	relative intensity	assigned
110.0706	30	C5H8N3+
111.0779	23	C5H9N3+
113.0157	122	C6H6Cl+
118.9603	41	C3H2ClNS+
119.9664	87	C6OS+
121.9618	62	C3H3ClOS+
125.0044	26	C4H3N3S+
126.0117	99	C4H4N3S+
131.966	999	C4H3ClNS+
132.9731	258	C4H4ClNS+
133.9626	395	C4H3[37]ClNS+
134.9698	66	C4H4[37]ClNS+
138.0105	48	C5H4N3S+
142.0413	43	H8N5O2S+
144.9618	28	C4H2ClN2S+
146.9543	20	C4H2ClNOS+
146.9762	139	C4H4ClN2S+
147.9839	27	C5N4S+
148.9745	36	C4H4[37]ClN2S+
152.0138	43	C5H4N4S+
153.0212	90	C5H5N4S+
154.0265	25	C2H7ClN4O2+
167.0367	58	C6H7N4S+
168.0455	20	C6H8N4S+
169.0524	74	C6H9N4S+
171.9726	50	C5H3ClN3S+
174.9697	41	C3H2ClN5S+
