Mass spectrum: Pipamperone; LC-ESI-QTOF; MS2; CE: 20 eV; R=35000; [M+H]+
Name: Pipamperone
Name: 1-[4-(4-fluorophenyl)-4-oxobutyl]-4-piperidin-1-ylpiperidine-4-carboxamide
Formula: C21H30FN3O2
Exact mass: 375.2322054
SMILES: NC(=O)C1(CCN(CCCC(=O)C2=CC=C(F)C=C2)CC1)N1CCCCC1
InChI: InChI=1S/C21H30FN3O2/c22-18-8-6-17(7-9-18)19(26)5-4-12-24-15-10-21(11-16-24,20(23)27)25-13-2-1-3-14-25/h6-9H,1-5,10-16H2,(H2,23,27)
Instrument: Bruker maXis Impact
Instrument type: LC-ESI-QTOF
Ms type: MS2
Ion mode: POSITIVE
Ionization: ESI
Fragmentation mode: CID
Collision energy: 20 eV
Resolution: 35000
Column name: Acclaim RSLC C18 2.2um, 2.1x100mm, Thermo
Retention time: 5.780 min
Base peak: 376.2389
Precursor m/z: 376.2395
Precursor type: [M+H]+
m/z	relative intensity	assigned
165.0696	158	C8H8FN3+
166.073	17	C7[13]CH8FN3+
194.0958	12	C14H12N+
262.1225	20	C18H16NO+
291.1499	577	C19H19N2O+
292.1528	97	C18[13]CH19N2O+
293.1554	10	C17[13]C2H19N2O+
331.217	78	C20H28FN2O+
332.2201	19	C19[13]CH28FN2O+
376.239	999	C21H31FN3O2+
377.2424	185	C20[13]CH31FN3O2+
378.244	22	C19[13]C2H31FN3O2+
