Mass spectrum: Acetamiprid; LC-ESI-QTOF; MS2; CE: 10 eV; R=35000; [M-H]-
Name: Acetamiprid
Name: N-[(6-chloropyridin-3-yl)methyl]-N`-cyano-N-methylethanimidamide
Formula: C10H11ClN4
Exact mass: 222.0672240
SMILES: CN(CC1=CN=C(Cl)C=C1)C(\C)=N\C#N
InChI: InChI=1S/C10H11ClN4/c1-8(14-7-12)15(2)6-9-3-4-10(11)13-5-9/h3-5H,6H2,1-2H3/b14-8+
Instrument: Bruker maXis Impact
Instrument type: LC-ESI-QTOF
Ms type: MS2
Ion mode: NEGATIVE
Ionization: ESI
Fragmentation mode: CID
Collision energy: 10 eV
Resolution: 35000
Column name: Acclaim RSLC C18 2.2um, 2.1x100mm, Thermo
Retention time: 5.116 min
Base peak: 221.0591
Precursor m/z: 221.0599
Precursor type: [M-H]-
m/z	relative intensity	assigned
140.0266	999	C7H7ClN-
142.0239	272	C7H7[37]ClN-
221.0625	331	C10H10ClN4-
