Mass spectrum: Lauric isopropanolamide; LC-ESI-QTOF; MS2; CE: 20 eV; R=35000; [M+H]+
Name: Lauric isopropanolamide
Name: N-(2-hydroxypropyl)dodecanamide
Formula: C15H31NO2
Exact mass: 257.2354792
SMILES: CCCCCCCCCCCC(=O)NCC(C)O
InChI: InChI=1S/C15H31NO2/c1-3-4-5-6-7-8-9-10-11-12-15(18)16-13-14(2)17/h14,17H,3-13H2,1-2H3,(H,16,18)
Instrument: Bruker maXis Impact
Instrument type: LC-ESI-QTOF
Ms type: MS2
Ion mode: POSITIVE
Ionization: ESI
Fragmentation mode: CID
Collision energy: 20 eV
Resolution: 35000
Column name: Acclaim RSLC C18 2.2um, 2.1x100mm, Thermo
Retention time: 12.095 min
Base peak: 332.3311
Precursor m/z: 258.2428
Precursor type: [M+H]+
m/z	relative intensity	assigned
123.1161	11	C9H15+
165.1628	19	C12H21+
183.1728	143	C12H23O+
184.1772	18	C11[13]CH23O+
200.2015	11	C12H26NO+
240.2314	999	C15H30NO+
241.2152	152	C15H29O2+
241.2342	155	C14[13]CH30NO+
242.2191	28	C14[13]CH29O2+
242.2363	19	C13[13]C2H30NO+
258.2415	135	C15H32NO2+
259.2457	23	C14[13]CH32NO2+
