Mass spectrum: Napropamide; LC-ESI-QTOF; MS2; CE: 50 eV; R=35000; [M+H]+
Name: Napropamide
Name: N,N-diethyl-2-naphthalen-1-yloxypropanamide
Formula: C17H21NO2
Exact mass: 271.1572289
SMILES: CCN(CC)C(=O)C(C)OC1=C2C=CC=CC2=CC=C1
InChI: InChI=1S/C17H21NO2/c1-4-18(5-2)17(19)13(3)20-16-12-8-10-14-9-6-7-11-15(14)16/h6-13H,4-5H2,1-3H3
Instrument: Bruker maXis Impact
Instrument type: LC-ESI-QTOF
Ms type: MS2
Ion mode: POSITIVE
Ionization: ESI
Fragmentation mode: CID
Collision energy: 50 eV
Resolution: 35000
Column name: Acclaim RSLC C18 2.2um, 2.1x100mm, Thermo
Retention time: 10.1 min
Base peak: 272.1646
Precursor m/z: 272.1645
Precursor type: [M+H]+
m/z	relative intensity	assigned
115.0537	123	C9H7+
116.0602	34	C9H8+
117.068	14	C9H9+
126.0447	46	C10H6+
127.0533	214	C10H7+
128.0611	999	C10H8+
129.0653	145	C5H9N2O2+
129.1157	20	C7H15NO+
131.0475	21	C9H7O+
141.0684	89	C11H9+
142.0768	34	C11H10+
143.0497	19	C10H7O+
143.0845	196	C11H11+
144.0559	102	C10H8O+
144.0881	33	C6H12N2O2+
145.064	132	C10H9O+
146.0678	28	C5H10N2O3+
150.0455	16	C12H6+
151.0536	42	C12H7+
153.0681	360	C12H9+
154.0725	72	C7H10N2O2+
155.0594	179	C10H7N2+
156.0623	33	C7H10NO3+
169.0632	80	C12H9O+
170.0697	32	C12H10O+
171.0796	124	C12H11O+
172.0834	24	C7H12N2O3+
179.0592	41	C12H7N2+
181.0749	56	C12H9N2+
