Mass spectrum: Cefazolin; LC-ESI-QTOF; MS2; CE: 30 eV; R=35000; [M+H]+
Name: Cefazolin
Name: cefazolin
Name: (6R,7R)-3-[(5-methyl-1,3,4-thiadiazol-2-yl)sulfanylmethyl]-8-oxo-7-[[2-(tetrazol-1-yl)acetyl]amino]-5-thia-1-azabicyclo[4.2.0]oct-2-ene-2-carboxylic acid
Formula: C14H14N8O4S3
Exact mass: 454.0300139
SMILES: Cc1nnc(s1)SCC2=C(N3[C@@H]([C@@H](C3=O)NC(=O)Cn4cnnn4)SC2)C(=O)O
InChI: InChI=1S/C14H14N8O4S3/c1-6-17-18-14(29-6)28-4-7-3-27-12-9(11(24)22(12)10(7)13(25)26)16-8(23)2-21-5-15-19-20-21/h5,9,12H,2-4H2,1H3,(H,16,23)(H,25,26)/t9-,12-/m1/s1
Instrument: Bruker maXis Impact
Instrument type: LC-ESI-QTOF
Ms type: MS2
Ion mode: POSITIVE
Ionization: ESI
Fragmentation mode: CID
Collision energy: 30 eV
Resolution: 35000
Column name: Acclaim RSLC C18 2.2um, 2.1x100mm, Thermo
Retention time: 4.041 min
Base peak: 344.2316
Precursor m/z: 455.0373
Precursor type: [M+H]+
m/z	relative intensity	assigned
119.0614	89	CH13NO3S+
120.0692	70	CH14NO3S+
124.0229	220	H4N4O4+
124.051	99	C5H6N3O+
125.0267	39	C3H9O3S+
126.0015	70	C5H4NOS+
126.0382	47	H6N4O4+
128.0284	80	C4H6N3S+
132.0566	39	CH12N2O3S+
132.9899	276	C3H5N2S2+
136.0221	36	CH12O3S2+
139.0342	259	H5N5O4+
140.0171	59	H12O4S2+
141.0497	144	H7N5O4+
144.011	41	C5H6NO2S+
147.0795	34	C2H15N2O3S+
151.0335	183	CH5N5O4+
152.0187	89	C2H8N4S2+
153.0492	628	CH7N5O4+
154.0519	67	C2H10N4O2S+
155.0457	39	C6H7N2O3+
156.0127	999	CH8N4OS2+
157.0191	124	C6H7NO2S+
157.0304	106	C5H7N3OS+
158.0292	49	CH10N4OS2+
161.084	76	C10H11NO+
162.0679	103	C3H10N6S+
162.0905	42	C8H10N4+
163.0336	50	C2H5N5O4+
166.0447	491	C9H10OS+
167.0298	101	C2H9N5S2+
167.0448	52	C7H7N2O3+
168.0124	63	H6N7S2+
168.0387	35	C4H12N2OS2+
178.045	252	C10H10OS+
179.0282	126	C2H13NO4S2+
179.0461	38	CH7N8OS+
180.06	111	C2H8N6O4+
181.0459	45	C5H13N2OS2+
189.0803	71	C6H13N4OS+
190.086	52	C11H12NO2+
192.0251	40	C3H8N6S2+
193.0553	56	C2H7N7O4+
194.0407	46	C3H10N6S2+
195.0243	86	C3H9N5OS2+
195.0724	77	C5H15N4S2+
196.0561	37	C3H12N6S2+
197.0387	52	CH9N8S2+
206.0389	112	C3H14N2O4S2+
207.0249	56	C4H9N5OS2+
208.0545	66	C9H10N3OS+
210.0344	90	C10H10O3S+
221.0513	67	C4H11N7S2+
223.0682	101	C6H15N4OS2+
225.0402	36	C11H13OS2+
252.0452	307	C12H12O4S+
253.0458	39	C3H9N8O4S+
267.0564	57	C5H13N7O2S2+
295.0616	219	C12H13N3O4S+
296.0697	43	C12H14N3O4S+
323.0592	57	C8H15N6O4S2+
