Mass spectrum: Phenylethylmalonamide; LC-ESI-QTOF; MS2; CE: 10 eV; R=35000; [M+H]+
Name: Phenylethylmalonamide
Name: 2-Ethyl-2-phenylmalonamide
Name: 2-ethyl-2-phenylpropanediamide
Formula: C11H14N2O2
Exact mass: 206.1055277
SMILES: CCC(C(N)=O)(C(N)=O)C1=CC=CC=C1
InChI: InChI=1S/C11H14N2O2/c1-2-11(9(12)14,10(13)15)8-6-4-3-5-7-8/h3-7H,2H2,1H3,(H2,12,14)(H2,13,15)
Instrument: Bruker maXis Impact
Instrument type: LC-ESI-QTOF
Ms type: MS2
Ion mode: POSITIVE
Ionization: ESI
Fragmentation mode: CID
Collision energy: 10 eV
Resolution: 35000
Column name: Acclaim RSLC C18 2.2um, 2.1x100mm, Thermo
Retention time: 4.215 min
Base peak: 207.1126
Precursor m/z: 207.1128
Precursor type: [M+H]+
m/z	relative intensity	assigned
119.0844	21	C9H11+
134.0963	11	C9H12N+
162.0907	999	C10H12NO+
163.0939	129	C9[13]CH12NO+
164.097	10	C9H12N2O+
190.0854	24	C11H12NO2+
207.1123	613	C11H15N2O2+
208.1148	72	C10[13]CH15N2O2+
