Mass spectrum: Ranitidine; LC-ESI-QTOF; MS2; CE: 40 eV; R=35000; [M+H]+
Name: Ranitidine
Name: (E)-1-N`-[2-[[5-[(dimethylamino)methyl]furan-2-yl]methylsulfanyl]ethyl]-1-N-methyl-2-nitroethene-1,1-diamine
Formula: C13H22N4O3S
Exact mass: 314.1412616
SMILES: CN\C(NCCSCC1=CC=C(CN(C)C)O1)=C/[N+]([O-])=O
InChI: InChI=1S/C13H22N4O3S/c1-14-13(9-17(18)19)15-6-7-21-10-12-5-4-11(20-12)8-16(2)3/h4-5,9,14-15H,6-8,10H2,1-3H3/b13-9+
Instrument: Bruker maXis Impact
Instrument type: LC-ESI-QTOF
Ms type: MS2
Ion mode: POSITIVE
Ionization: ESI
Fragmentation mode: CID
Collision energy: 40 eV
Resolution: 35000
Column name: Acclaim RSLC C18 2.2um, 2.1x100mm, Thermo
Retention time: 3.2 min
Base peak: 315.1485
Precursor m/z: 315.1485
Precursor type: [M+H]+
m/z	relative intensity	assigned
115.0322	9	C4H7N2S+
117.0476	18	C4H9N2S+
118.0316	14	C4H8NOS+
118.0648	16	C8H8N+
120.0676	5	C7H8N2+
120.0793	12	H14N3O2S+
122.0587	12	C5H6N4+
122.0816	17	C4H12NO3+
123.0252	9	C7H7S+
123.091	6	C7H11N2+
124.0747	49	C5H8N4+
125.0048	999	C4H3N3S+
127.0004	39	C6H5O[34]S+
127.0198	6	C4H5N3S+
129.0474	53	C5H9N2S+
130.0551	690	C5H10N2S+
131.0587	46	C4[13]CH10N2S+
132.0435	74	H10N3O3S+
132.0795	7	CH14N3O2S+
133.0511	78	C6H5N4+
133.0748	18	H13N4O2S+
134.0571	21	C3H8N3O3+
134.0823	12	H14N4O2S+
135.0249	21	C8H7S+
135.0907	237	H15N4O2S+
136.0745	19	C6H8N4+
137.0048	7	C5H3N3S+
137.0822	14	C6H9N4+
137.1061	13	H17N4O2S+
138.0125	9	C5H4N3S+
138.0355	4	C4H10O3S+
138.0903	23	C6H10N4+
139.0318	8	C6H7N2S+
140.0523	7	C7H10NS+
143.0628	5	C6H11N2S+
145.042	18	C5H9N2OS+
145.0753	5	CH13N4O2S+
146.0587	8	C7H6N4+
146.0817	9	C6H12NO3+
147.0669	58	CH13N3O3S+
147.09	27	CH15N4O2S+
148.0747	376	C7H8N4+
149.0705	109	H13N4O3S+
149.1057	14	CH17N4O2S+
150.0361	17	C8H8NS+
150.0902	10	C7H10N4+
151.0201	35	C6H5N3S+
152.0263	9	C11H4O+
152.0513	10	C5H12O3S+
153.0358	20	C6H7N3S+
153.0452	11	C4H11NO3S+
154.054	12	C4H12NO3S+
159.0454	27	C5H9N3OS+
159.0905	9	C2H15N4O2S+
160.0748	20	C2H14N3O3S+
160.098	6	C2H16N4O2S+
161.1056	7	C7H15NO3+
163.1219	17	C2H19N4O2S+
164.0516	5	C9H10NS+
164.0928	70	CH16N4O3S+
165.1009	174	CH17N4O3S+
167.0628	76	C8H11N2S+
168.0665	5	C7[13]CH11N2S+
170.0612	17	C6H10N4S+
177.1013	277	C2H17N4O3S+
178.0311	80	C7H6N4S+
179.1155	7	C5H15N4O3+
180.0462	5	C7H8N4S+
181.0782	92	C9H13N2S+
182.0802	11	C8[13]CH13N2S+
191.1169	207	C3H19N4O3S+
193.0537	30	C8H9N4S+
194.0615	31	C8H10N4S+
195.0938	5	C10H15N2S+
207.0923	5	C8H17NO3S+
209.0732	22	C10H13N2OS+
223.0894	25	C11H15N2OS+
224.0963	10	C11H16N2OS+
