Mass spectrum: Diacetylmorphine (Heroin); LC-ESI-QTOF; MS2; CE: 10 eV; R=35000; [M+H]+
Name: Diacetylmorphine (Heroin)
Name: Diacetylmorphine
Name: [(4R,4aR,7S,7aR,12bS)-9-acetyloxy-3-methyl-2,4,4a,7,7a,13-hexahydro-1H-4,12-methanobenzofuro[3,2-e]isoquinoline-7-yl] acetate
Formula: C21H23NO5
Exact mass: 369.1576228
SMILES: CC(=O)Oc1ccc2c3c1O[C@@H]4[C@]35CCN([C@H](C2)[C@@H]5C=C[C@@H]4OC(=O)C)C
InChI: InChI=1S/C21H23NO5/c1-11(23)25-16-6-4-13-10-15-14-5-7-17(26-12(2)24)20-21(14,8-9-22(15)3)18(13)19(16)27-20/h4-7,14-15,17,20H,8-10H2,1-3H3/t14-,15+,17-,20-,21-/m0/s1
Instrument: Bruker maXis Impact
Instrument type: LC-ESI-QTOF
Ms type: MS2
Ion mode: POSITIVE
Ionization: ESI
Fragmentation mode: CID
Collision energy: 10 eV
Resolution: 35000
Column name: Acclaim RSLC C18 2.2um, 2.1x100mm, Thermo
Retention time: 4.803 min
Base peak: 370.1669
Precursor m/z: 370.1649
Precursor type: [M+H]+
m/z	relative intensity	assigned
370.1678	999	C21H24NO5+
371.17	233	C20[13]CH24NO5+
372.1723	32	C19[13]C2H24NO5+
