Mass spectrum: 6-Monoacetylmorphine; LC-ESI-QTOF; MS2; CE: RAMP 22.2-33.2 eV; R=35000; [M+H]+
Name: 6-Monoacetylmorphine
Name: (9-hydroxy-3-methyl-2,4,4a,7,7a,13-hexahydro-1H-4,12-methanobenzofuro[3,2-e]isoquinoline-7-yl) acetate
Formula: C19H21NO4
Exact mass: 327.1470582
SMILES: CC(=O)OC(C=5)C(O2)C(C4)(c13)C([H])(C5)C(N(C)C4)Cc(ccc(O)c23)1
InChI: InChI=1S/C19H21NO4/c1-10(21)23-15-6-4-12-13-9-11-3-5-14(22)17-16(11)19(12,18(15)24-17)7-8-20(13)2/h3-6,12-13,15,18,22H,7-9H2,1-2H3
Instrument: Bruker maXis Impact
Instrument type: LC-ESI-QTOF
Ms type: MS2
Ion mode: POSITIVE
Ionization: ESI
Fragmentation mode: CID
Collision energy: RAMP 22.2-33.2 eV
Resolution: 35000
Column name: Acclaim RSLC C18 2.2um, 2.1x100mm, Thermo
Retention time: 3.928 min
Base peak: 328.1557
Precursor m/z: 328.1543
Precursor type: [M+H]+
m/z	relative intensity	assigned
58.0645	39	C3H8N+
91.0536	7	C7H7+
165.0696	49	C13H9+
166.0732	5	C12[13]CH9+
181.0648	12	C13H9O+
183.0802	30	C13H11O+
185.0592	6	C12H9O2+
191.0854	30	C15H11+
193.0649	64	C14H9O+
194.0686	9	C13[13]CH9O+
201.0907	16	C13H13O2+
209.0598	35	C14H9O2+
209.0957	7	C15H13O+
210.0643	5	C13[13]CH9O2+
211.0755	135	C14H11O2+
212.0789	17	C13[13]CH11O2+
219.0805	20	C16H11O+
221.0958	8	C16H13O+
227.0699	8	C14H11O3+
229.0857	20	C14H13O3+
237.0913	17	C16H13O2+
239.1067	7	C16H15O2+
255.1022	5	C16H15O3+
268.1339	56	C17H18NO2+
269.1374	9	C16[13]CH18NO2+
286.1445	13	C17H20NO3+
328.1559	999	C19H22NO4+
329.1592	212	C18[13]CH22NO4+
330.1616	28	C17[13]C2H22NO4+
