Mass spectrum: Prednisone; LC-ESI-QTOF; MS2; CE: 20 eV; R=35000; [M+H]+
Name: Prednisone
Name: (8S,9S,10R,13S,14S,17R)-17-hydroxy-17-(2-hydroxyacetyl)-10,13-dimethyl-6,7,8,9,12,14,15,16-octahydrocyclopenta[a]phenanthrene-3,11-dione
Formula: C21H26O5
Exact mass: 358.1780239
SMILES: [H][C@@]12CC[C@](O)(C(=O)CO)[C@@]1(C)CC(=O)[C@@]1([H])[C@@]2([H])CCC2=CC(=O)C=C[C@]12C
InChI: InChI=1S/C21H26O5/c1-19-7-5-13(23)9-12(19)3-4-14-15-6-8-21(26,17(25)11-22)20(15,2)10-16(24)18(14)19/h5,7,9,14-15,18,22,26H,3-4,6,8,10-11H2,1-2H3/t14-,15-,18+,19-,20-,21-/m0/s1
Instrument: Bruker maXis Impact
Instrument type: LC-ESI-QTOF
Ms type: MS2
Ion mode: POSITIVE
Ionization: ESI
Fragmentation mode: CID
Collision energy: 20 eV
Resolution: 35000
Column name: Acclaim RSLC C18 2.2um, 2.1x100mm, Thermo
Retention time: 7.185 min
Base peak: 359.1846
Precursor m/z: 359.1853
Precursor type: [M+H]+
m/z	relative intensity	assigned
117.0689	14	C9H9+
119.085	27	C9H11+
121.0634	85	C8H9O+
123.0788	41	C8H11O+
125.0573	15	C7H9O2+
125.093	16	C8H13O+
127.0734	12	C7H11O2+
131.0845	21	C10H11+
133.0636	19	C9H9O+
135.0793	201	C9H11O+
136.082	20	C8[13]CH11O+
137.0584	15	C8H9O2+
137.0953	79	C9H13O+
139.0739	71	C8H11O2+
141.0529	11	C7H9O3+
145.063	17	C10H9O+
145.1015	11	C11H13+
147.0787	866	C10H11O+
148.0827	88	C9[13]CH11O+
149.0944	19	C10H13O+
151.0739	27	C9H11O2+
153.0894	141	C9H13O2+
154.0924	17	C8[13]CH13O2+
155.0686	15	C8H11O3+
157.1015	20	C12H13+
158.0691	16	C11H10O+
159.0785	254	C11H11O+
160.0819	26	C10[13]CH11O+
161.0946	199	C11H13O+
162.0987	27	C10[13]CH13O+
163.0737	117	C10H11O2+
165.09	53	C10H13O2+
167.069	28	C9H11O3+
169.1009	12	C13H13+
171.0792	484	C12H11O+
172.0825	57	C11[13]CH11O+
173.0944	272	C12H13O+
174.0983	41	C11[13]CH13O+
175.0744	17	C11H11O2+
175.109	20	C12H15O+
177.0892	23	C11H13O2+
181.0842	95	C10H13O3+
182.0885	15	C9[13]CH13O3+
183.0784	21	C13H11O+
183.0999	106	C10H15O3+
184.1023	14	C9[13]CH15O3+
185.0596	35	C12H9O2+
185.0948	83	C13H13O+
186.0972	18	C12[13]CH13O+
187.0741	176	C12H11O2+
187.1105	167	C13H15O+
188.077	20	C11[13]CH11O2+
188.1116	21	C12[13]CH15O+
189.0893	54	C12H13O2+
195.0786	37	C14H11O+
195.1019	16	C11H15O3+
196.0845	12	C14H12O+
197.0944	332	C14H13O+
198.0985	63	C13[13]CH13O+
199.111	226	C14H15O+
200.1146	39	C13[13]CH15O+
201.0891	17	C13H13O2+
201.1253	18	C14H17O+
203.1047	30	C13H15O2+
208.0856	24	C15H12O+
209.094	129	C15H13O+
210.1021	25	C14[13]CH13O+
211.1106	121	C15H15O+
212.1135	21	C14[13]CH15O+
213.0884	39	C14H13O2+
213.126	185	C15H17O+
214.0898	12	C13[13]CH13O2+
214.1291	38	C14[13]CH17O+
215.106	92	C14H15O2+
215.1419	14	C15H19O+
216.1086	12	C13[13]CH15O2+
221.0968	73	C16H13O+
222.101	39	C16H14O+
223.1104	145	C16H15O+
224.1163	29	C15[13]CH15O+
225.0892	21	C15H13O2+
225.126	164	C16H17O+
226.1315	37	C15[13]CH17O+
227.105	56	C15H15O2+
227.1423	98	C16H19O+
228.1455	18	C15[13]CH19O+
234.0998	16	C17H14O+
235.1101	129	C17H15O+
236.1151	27	C16[13]CH15O+
237.126	741	C17H17O+
238.0963	14	C16H14O2+
238.1292	153	C16[13]CH17O+
239.1045	138	C16H15O2+
239.1413	175	C17H19O+
240.1124	19	C15[13]CH15O2+
240.1463	38	C16[13]CH19O+
241.1207	54	C16H17O2+
242.1269	30	C16H18O2+
243.1341	22	C16H19O2+
247.1121	41	C18H15O+
247.1472	19	C19H19+
248.1191	24	C18H16O+
249.1258	90	C18H17O+
250.1311	25	C17[13]CH17O+
251.1431	76	C18H19O+
252.1482	31	C18H20O+
253.1215	301	C17H17O2+
253.1579	134	C18H21O+
254.1245	69	C16[13]CH17O2+
254.1593	31	C17[13]CH21O+
255.1367	380	C17H19O2+
255.1731	52	C18H23O+
256.1403	51	C16[13]CH19O2+
257.1455	12	C15[13]C2H19O2+
259.1124	13	C19H15O+
261.1262	191	C19H17O+
262.1332	81	C19H18O+
263.1418	426	C19H19O+
264.1483	193	C19H20O+
265.1215	52	C18H17O2+
265.1577	715	C19H21O+
266.1227	14	C17[13]CH17O2+
266.1625	128	C18[13]CH21O+
267.1367	564	C18H19O2+
267.1729	129	C19H23O+
268.1401	113	C17[13]CH19O2+
268.1766	23	C18[13]CH23O+
269.1534	27	C18H21O2+
272.1184	12	C20H16O+
275.1425	92	C20H19O+
276.1452	22	C19[13]CH19O+
277.1199	24	C19H17O2+
277.1579	409	C20H21O+
278.1619	89	C19[13]CH21O+
279.1363	76	C19H19O2+
279.1653	18	C16H23O4+
280.1447	24	C18[13]CH19O2+
281.1527	242	C19H21O2+
282.1575	65	C18[13]CH21O2+
283.1351	19	C18H19O3+
283.1669	151	C19H23O2+
284.1695	25	C18[13]CH23O2+
285.1459	16	C18H21O3+
285.1859	14	C19H25O2+
287.143	156	C21H19O+
288.1484	37	C20[13]CH19O+
289.1481	12	C17H21O4+
290.1305	15	C20H18O2+
292.145	31	C20H20O2+
293.1522	213	C20H21O2+
294.1569	40	C19[13]CH21O2+
295.1684	759	C20H23O2+
296.1716	175	C19[13]CH23O2+
297.1471	180	C19H21O3+
297.1773	25	C18[13]C2H23O2+
298.1535	41	C18[13]CH21O3+
299.1636	41	C19H23O3+
305.1524	478	C21H21O2+
306.1558	81	C20[13]CH21O2+
307.1569	12	C19[13]C2H21O2+
311.1624	137	C20H23O3+
312.1657	40	C19[13]CH23O3+
313.179	655	C20H25O3+
314.1813	171	C19[13]CH25O3+
315.1925	67	C20H27O3+
323.1639	708	C21H23O3+
324.1669	187	C20[13]CH23O3+
325.174	31	C19[13]C2H23O3+
341.174	999	C21H25O4+
342.177	247	C20[13]CH25O4+
343.1876	179	C21H27O4+
344.1951	20	C20[13]CH27O4+
359.1843	228	C21H27O5+
360.1883	70	C20[13]CH27O5+
