Mass spectrum: Omeprazole; LC-ESI-QTOF; MS2; CE: 50 eV; R=35000; [M+H]+
Name: Omeprazole
Name: 6-methoxy-2-[(4-methoxy-3,5-dimethylpyridin-2-yl)methylsulfinyl]-1H-benzimidazole
Formula: C17H19N3O3S
Exact mass: 345.1147125
SMILES: Cc1cnc(c(c1OC)C)CS(=O)c2[nH]c3ccc(cc3n2)OC
InChI: InChI=1S/C17H19N3O3S/c1-10-8-18-15(11(2)16(10)23-4)9-24(21)17-19-13-6-5-12(22-3)7-14(13)20-17/h5-8H,9H2,1-4H3,(H,19,20)
Instrument: Bruker maXis Impact
Instrument type: LC-ESI-QTOF
Ms type: MS2
Ion mode: POSITIVE
Ionization: ESI
Fragmentation mode: CID
Collision energy: 50 eV
Resolution: 35000
Column name: Acclaim RSLC C18 2.2um, 2.1x100mm, Thermo
Retention time: 7.5 min
Base peak: 376.1481
Precursor m/z: 346.122
Precursor type: [M+H]+
m/z	relative intensity	assigned
120.0804	81	H14N3O2S+
121.0878	144	H15N3O2S+
122.0957	83	H16N3O2S+
134.0465	60	C7H6N2O+
136.075	999	H14N3O3S+
137.0784	52	C7[13]CH10NO+
149.0703	57	C8H9N2O+
150.0908	326	CH16N3O3S+
151.0977	102	CH17N3O3S+
152.0162	69	C7H6NOS+
165.0242	101	C8H7NOS+
166.0301	46	C11H4NO+
168.1011	22	C9H14NO2+
179.0274	39	C8H7N2OS+
180.0473	253	C9H10NOS+
181.0539	108	C9H11NOS+
198.0579	20	C9H12NO2S+
