Mass spectrum: Fenthion-sulfoxide; LC-ESI-QTOF; MS2; CE: 30 eV; R=35000; [M+H]+
Name: Fenthion-sulfoxide
Formula: C10H15O4PS2
Exact mass: 294.0149376
SMILES: Cc1cc(ccc1S(=O)C)OP(=S)(OC)OC
InChI: InChI=1S/C10H15O4PS2/c1-8-7-9(5-6-10(8)17(4)11)14-15(16,12-2)13-3/h5-7H,1-4H3
Instrument: Bruker maXis Impact
Instrument type: LC-ESI-QTOF
Ms type: MS2
Ion mode: POSITIVE
Ionization: ESI
Fragmentation mode: CID
Collision energy: 30 eV
Resolution: 35000
Column name: Acclaim RSLC C18 2.2um, 2.1x100mm, Thermo
Retention time: 7.2 min
Base peak: 295.0227
Precursor m/z: 295.0222
Precursor type: [M+H]+
m/z	relative intensity	assigned
109.0052	17	C2H6O3P+
121.0096	23	C7H5S+
121.0638	11	C8H9O+
122.0176	22	C7H6S+
122.0714	7	CH15O4P+
123.0254	19	C7H7S+
124.0339	12	C7H8S+
124.9815	161	C2H6O2PS+
125.9842	4	C5H3O2P+
126.9768	5	C5H4PS+
127.0149	52	C2H8O4P+
134.0184	12	C8H6S+
135.0256	49	C8H7S+
136.0329	40	CH13O3PS+
137.0047	41	C7H5OS+
137.0412	61	C8H9S+
138.0122	42	C7H6OS+
138.0482	26	CH15O3PS+
139.0202	110	C7H7OS+
140.9823	7	C6H5S2+
141.0161	5	H14O2PS2+
141.9889	23	C6H6S2+
142.9921	71	C2H8O3PS+
143.9922	6	C2H8O3S2+
151.0567	42	C9H11S+
151.9736	10	H9O3PS2+
152.9819	167	C7H5S2+
153.0355	16	CH14O4PS+
153.9895	193	C7H6S2+
154.0439	30	C8H10OS+
154.9762	13	C7H5S[34]S+
155.0159	8	C7H7O2S+
155.048	5	C4H12O4P+
155.9846	17	C7H6S[34]S+
165.9894	12	C8H6S2+
166.9974	29	C8H7S2+
167.9762	5	C10HOP+
168.0056	19	C8H8S2+
168.0587	8	C9H12OS+
168.9843	29	C10H2OP+
169.0132	103	C8H9S2+
169.9846	188	C7H6OS2+
170.0207	78	C8H10S2+
170.0391	10	C8H10O2S+
170.9913	65	H12O4PS2+
171.0074	6	C10H3O3+
171.0243	9	C4H12O3PS+
171.9807	13	C7H6OS[34]S+
171.9952	7	C3H9O4PS+
172.9868	5	C9HO4+
184.036	19	C9H12S2+
185.007	14	CH14O4PS2+
186.0159	32	C8H10OS2+
199.0511	46	C9H12O3P+
200.0048	166	C8H9O2PS+
201.0101	18	C7[13]CH9O2PS+
201.0394	8	C9H13OS2+
214.9919	7	C8H8O3PS+
215.9461	10	C7H5O2PS2+
215.9991	8	C8H9O3PS+
217.0073	17	C8H10O3PS+
218.0144	7	C8H11O3PS+
219.0231	5	C8H12O3PS+
229.0078	11	C9H10O3PS+
229.9601	12	C8H7O2PS2+
230.9694	12	C8H8O2PS2+
231.0232	28	C9H12O3PS+
231.9773	17	C8H9O2PS2+
232.0315	327	C9H13O3PS+
232.9831	9	C8H10O2PS2+
233.0363	41	C8[13]CH13O3PS+
234.0299	15	C9H13O3P[34]S+
245.0391	41	C10H14O3PS+
245.9944	26	C9H11O2PS2+
246.0409	7	C10H14O3S2+
246.9639	40	C8H8O3PS2+
247.0177	13	C9H12O4PS+
247.9717	47	C8H9O3PS2+
248.9783	17	C8H10O3PS2+
249.9855	14	C8H11O3PS2+
264.0019	48	C9H13O3PS2+
264.9758	33	C8H10O4PS2+
265.9823	14	C8H11O4PS2+
278.0191	435	C10H15O3PS2+
279.0228	46	C9[13]CH15O3PS2+
279.9987	999	C9H13O4PS2+
281.0018	117	C8[13]CH13O4PS2+
281.9957	89	C8H13NO4PS2+
282.996	5	C7H12N2O4PS2+
295.0226	57	C10H16O4PS2+
296.051	9	
297.0184	5	C10H16O4P[34]S[32]S+
