Mass spectrum: Dimethenamid-ESA; LC-ESI-QTOF; MS2; CE: 50 eV; R=35000; [M+H]+
Name: Dimethenamid-ESA
Name: AC1O52R5
Name: 2-[(2,4-dimethylthiophen-3-yl)-(1-methoxypropan-2-yl)amino]-2-oxoethanesulfonic acid
Formula: C12H19NO5S2
Exact mass: 321.0704647
SMILES: COCC(C)N(C(=O)CS(O)(=O)=O)c1c(C)csc1C
InChI: InChI=1S/C12H19NO5S2/c1-8-6-19-10(3)12(8)13(9(2)5-18-4)11(14)7-20(15,16)17/h6,9H,5,7H2,1-4H3,(H,15,16,17)
Instrument: Bruker maXis Impact
Instrument type: LC-ESI-QTOF
Ms type: MS2
Ion mode: POSITIVE
Ionization: ESI
Fragmentation mode: CID
Collision energy: 50 eV
Resolution: 35000
Column name: Acclaim RSLC C18 2.2um, 2.1x100mm, Thermo
Retention time: 6.0 min
Base peak: 242.2836
Precursor m/z: 322.0777
Precursor type: [M+H]+
m/z	relative intensity	assigned
111.0245	100	C9H3+
118.0649	70	C8H8N+
119.0725	78	C8H9N+
125.0275	74	C3H9O3S+
125.0413	216	C7H9S+
126.0357	410	C3H10O3S+
127.0412	113	C9H5N+
128.0529	90	C6H10NS+
132.0797	75	C9H10N+
133.0867	118	C6H13O3+
134.0956	317	C9H12N+
135.0254	76	C8H7S+
135.1	51	C6H15O3+
137.0272	71	C4H9O3S+
138.0362	338	C7H8NS+
139.0415	78	C10H5N+
149.0405	109	C9H9S+
150.0362	140	C8H8NS+
151.0432	166	C5H11O3S+
152.0147	382	C4H8O4S+
152.0514	999	C5H12O3S+
153.0551	114	C8H9O3+
166.0318	162	C8H8NOS+
166.0663	663	C6H14O3S+
167.0735	116	C6H15O3S+
168.0458	94	C5H12O4S+
168.0837	121	C9H14NS+
176.1066	73	C11H14NO+
194.0626	101	C10H12NOS+
210.0918	85	C8H18O4S+
