Mass spectrum: Glimepiride; LC-ESI-QTOF; MS2; CE: 20 eV; R=35000; [M-H]-
Name: Glimepiride
Name: 4-ethyl-3-methyl-N-[2-[4-[(4-methylcyclohexyl)carbamoylsulfamoyl]phenyl]ethyl]-5-oxo-2H-pyrrole-1-carboxamide
Formula: C24H34N4O5S
Exact mass: 490.2249912
SMILES: CCC1=C(C)CN(C(=O)NCCC2=CC=C(C=C2)S(=O)(=O)NC(=O)NC2CCC(C)CC2)C1=O
InChI: InChI=1S/C24H34N4O5S/c1-4-21-17(3)15-28(22(21)29)24(31)25-14-13-18-7-11-20(12-8-18)34(32,33)27-23(30)26-19-9-5-16(2)6-10-19/h7-8,11-12,16,19H,4-6,9-10,13-15H2,1-3H3,(H,25,31)(H2,26,27,30)
Instrument: Bruker maXis Impact
Instrument type: LC-ESI-QTOF
Ms type: MS2
Ion mode: NEGATIVE
Ionization: ESI
Fragmentation mode: CID
Collision energy: 20 eV
Resolution: 35000
Column name: Acclaim RSLC C18 2.2um, 2.1x100mm, Thermo
Retention time: 9.746 min
Base peak: 489.2152
Precursor m/z: 489.2177
Precursor type: [M-H]-
m/z	relative intensity	assigned
225.0335	999	C12H5N2O3-
226.0347	141	C11[13]CH5N2O3-
350.1157	594	C19H16N3O4-
351.1153	165	C18[13]CH16N3O4-
351.1328	86	C20H19N2O4-
364.1324	976	C17H22N3O4S-
365.1319	216	C16[13]CH22N3O4S-
366.1286	77	C17H22N3O4[34]S-
366.1381	99	C24H18N2O2-
376.0911	264	C20H14N3O5-
376.1018	246	C20H16N4O2S-
489.213	829	C24H33N4O5S-
490.2171	210	C23[13]CH33N4O5S-
