Mass spectrum: Propanil; LC-ESI-QTOF; MS2; CE: Ramp 18.6-28.0 eV; R=35000; [M+H]+
Name: Propanil
Name: N-(3,4-dichlorophenyl)propanamide
Formula: C9H9Cl2NO
Exact mass: 217.0061193
SMILES: CCC(=O)NC1=CC(Cl)=C(Cl)C=C1
InChI: InChI=1S/C9H9Cl2NO/c1-2-9(13)12-6-3-4-7(10)8(11)5-6/h3-5H,2H2,1H3,(H,12,13)
Instrument: Bruker maXis Impact
Instrument type: LC-ESI-QTOF
Ms type: MS2
Ion mode: POSITIVE
Ionization: ESI
Fragmentation mode: CID
Collision energy: Ramp 18.6-28.0 eV
Resolution: 35000
Column name: Acclaim RSLC C18 2.2um, 2.1x100mm, Thermo
Retention time: 9.428 min
Base peak: 218.0131
Precursor m/z: 218.0134
Precursor type: [M+H]+
m/z	relative intensity	assigned
57.0328	98	C3H5O+
127.0177	609	C6H6ClN+
128.0214	44	C5[13]CH6ClN+
129.0145	167	C6H6[37]ClN+
130.0178	7	C6H7ClO+
161.9862	999	C6H6Cl2N+
162.9896	65	C5[13]CH6Cl2N+
163.9834	636	C6H6Cl[37]ClN+
164.9861	19	C6H7Cl2O+
218.0129	419	C9H10Cl2NO+
219.0152	23	C8[13]CH10Cl2NO+
220.0099	171	C9H10Cl[37]ClNO+
