Mass spectrum: Diazepam; LC-ESI-QTOF; MS2; CE: 20 eV; R=35000; [M+H]+
Name: Diazepam
Name: 7-chloro-1-methyl-5-phenyl-3H-1,4-benzodiazepin-2-one
Formula: C16H13ClN2O
Exact mass: 284.0716407
SMILES: CN1C2=C(C=C(Cl)C=C2)C(=NCC1=O)C1=CC=CC=C1
InChI: InChI=1S/C16H13ClN2O/c1-19-14-8-7-12(17)9-13(14)16(18-10-15(19)20)11-5-3-2-4-6-11/h2-9H,10H2,1H3
Instrument: Bruker maXis Impact
Instrument type: LC-ESI-QTOF
Ms type: MS2
Ion mode: POSITIVE
Ionization: ESI
Fragmentation mode: CID
Collision energy: 20 eV
Resolution: 35000
Column name: Acclaim RSLC C18 2.2um, 2.1x100mm, Thermo
Retention time: 9.3 min
Base peak: 285.0786
Precursor m/z: 285.0789
Precursor type: [M+H]+
m/z	relative intensity	assigned
154.0407	21	C11H6O+
156.0377	6	C2H9ClN4O2+
182.0358	8	C9H9ClNO+
193.0877	10	C14H11N+
222.1145	16	C15H14N2+
228.0569	15	C14H11ClN+
257.0838	42	C15H14ClN2+
258.087	5	C16H10N4+
259.0806	10	C15H14ClNO+
285.0793	999	C16H14ClN2O+
286.0819	163	C15[13]CH14ClN2O+
287.0763	256	C16H14[37]ClNO2+
288.0792	19	C15[13]CH13[37]ClN4O+
