Mass spectrum: Octyl-methoxycinnamate; LC-ESI-QTOF; MS2; CE: 30 eV; R=35000; [M+H]+
Name: Octyl-methoxycinnamate
Name: Octinoxate
Name: 2-ethylhexyl (E)-3-(4-methoxyphenyl)prop-2-enoate
Formula: C18H26O3
Exact mass: 290.1881947
SMILES: CCCCC(CC)COC(=O)\C=C\C1=CC=C(OC)C=C1
InChI: InChI=1S/C18H26O3/c1-4-6-7-15(5-2)14-21-18(19)13-10-16-8-11-17(20-3)12-9-16/h8-13,15H,4-7,14H2,1-3H3/b13-10+
Instrument: Bruker maXis Impact
Instrument type: LC-ESI-QTOF
Ms type: MS2
Ion mode: POSITIVE
Ionization: ESI
Fragmentation mode: CID
Collision energy: 30 eV
Resolution: 35000
Column name: Acclaim RSLC C18 2.2um, 2.1x100mm, Thermo
Retention time: 13.847 min
Base peak: 179.0693
Precursor m/z: 291.1955
Precursor type: [M+H]+
m/z	relative intensity	assigned
118.0402	14	C8H6O+
133.0635	207	C9H9O+
134.067	22	C8[13]CH9O+
137.0589	6	C8H9O2+
161.0584	999	C10H9O2+
162.0614	111	C9[13]CH9O2+
163.0648	8	C8[13]C2H9O2+
179.0687	81	C10H11O3+
180.0724	10	C9[13]CH11O3+
