Mass spectrum: Terbutaline; LC-ESI-QTOF; MS2; CE: 10 eV; R=35000; [M+H]+
Name: Terbutaline
Name: 5-[2-(tert-butylamino)-1-hydroxyethyl]benzene-1,3-diol
Formula: C12H19NO3
Exact mass: 225.1364935
SMILES: CC(C)(C)NCC(c1cc(cc(c1)O)O)O
InChI: InChI=1S/C12H19NO3/c1-12(2,3)13-7-11(16)8-4-9(14)6-10(15)5-8/h4-6,11,13-16H,7H2,1-3H3
Instrument: Bruker maXis Impact
Instrument type: LC-ESI-QTOF
Ms type: MS2
Ion mode: POSITIVE
Ionization: ESI
Fragmentation mode: CID
Collision energy: 10 eV
Resolution: 35000
Column name: Acclaim RSLC C18 2.2um, 2.1x100mm, Thermo
Retention time: 3.0 min
Base peak: 220.1439
Precursor m/z: 226.1438
Precursor type: [M+H]+
m/z	relative intensity	assigned
152.0703	290	C8H10NO2+
170.0807	85	C8H12NO3+
208.1339	33	C12H18NO2+
224.1273	26	C12H18NO3+
226.1439	999	C12H20NO3+
227.1481	97	C11[13]CH20NO3+
