Mass spectrum: Benzenesulfonic acid; LC-ESI-QTOF; MS2; CE: Ramp 18.3-27.4 eV; R=35000; [M-H]-
Name: Benzenesulfonic acid
Formula: C6H6O3S
Exact mass: 158.0037651
SMILES: OS(=O)(=O)C1=CC=CC=C1
InChI: InChI=1S/C6H6O3S/c7-10(8,9)6-4-2-1-3-5-6/h1-5H,(H,7,8,9)
Instrument: Bruker maXis Impact
Instrument type: LC-ESI-QTOF
Ms type: MS2
Ion mode: NEGATIVE
Ionization: ESI
Fragmentation mode: CID
Collision energy: Ramp 18.3-27.4 eV
Resolution: 35000
Column name: Acclaim RSLC C18 2.2um, 2.1x100mm, Thermo
Retention time: 2.618 min
Base peak: 59.0131
Precursor m/z: 156.9965
Precursor type: [M-H]-
m/z	relative intensity	assigned
59.0125	441	C2H3O2-
79.9556	581	O3S-
156.9963	999	C6H5O3S-
