Mass spectrum: 4-Hydroxyquinoline; LC-ESI-QTOF; MS2; CE: 40 eV; R=35000; [M+H]+
Name: 4-Hydroxyquinoline
Name: 1H-quinolin-4-one
Formula: C9H7NO
Exact mass: 145.0527638
SMILES: OC1=CC=NC2=CC=CC=C12
InChI: InChI=1S/C9H7NO/c11-9-5-6-10-8-4-2-1-3-7(8)9/h1-6H,(H,10,11)
Instrument: Bruker maXis Impact
Instrument type: LC-ESI-QTOF
Ms type: MS2
Ion mode: POSITIVE
Ionization: ESI
Fragmentation mode: CID
Collision energy: 40 eV
Resolution: 35000
Column name: Acclaim RSLC C18 2.2um, 2.1x100mm, Thermo
Retention time: 4.094 min
Base peak: 146.0595
Precursor m/z: 146.06
Precursor type: [M+H]+
m/z	relative intensity	assigned
117.0572	633	C8H7N+
118.0636	168	C8H8N+
128.0488	196	C9H6N+
146.0596	999	C9H8NO+
147.0629	119	C8[13]CH8NO+
