Mass spectrum: N4-Acetyl-Sulfamethoxazole; LC-ESI-QTOF; MS2; CE: 10 eV; R=35000; [M+H]+
Name: N4-Acetyl-Sulfamethoxazole
Name: N4-Acetylsulfamethoxazole
Name: N-[4-[(5-methyl-1,2-oxazol-3-yl)sulfamoyl]phenyl]acetamide
Formula: C12H13N3O4S
Exact mass: 295.0626769
SMILES: CC(=O)NC1=CC=C(C=C1)S(=O)(=O)NC1=NOC(C)=C1
InChI: InChI=1S/C12H13N3O4S/c1-8-7-12(14-19-8)15-20(17,18)11-5-3-10(4-6-11)13-9(2)16/h3-7H,1-2H3,(H,13,16)(H,14,15)
Instrument: Bruker maXis Impact
Instrument type: LC-ESI-QTOF
Ms type: MS2
Ion mode: POSITIVE
Ionization: ESI
Fragmentation mode: CID
Collision energy: 10 eV
Resolution: 35000
Column name: Acclaim RSLC C18 2.2um, 2.1x100mm, Thermo
Retention time: 5.1 min
Base peak: 296.0694
Precursor m/z: 296.07
Precursor type: [M+H]+
m/z	relative intensity	assigned
136.0739	20	C5H12O4+
188.0809	15	C10H10N3O+
190.0982	8	C12H14O2+
194.0365	7	C5H10N2O4S+
198.0213	27	C8H8NO3S+
230.0918	5	C12H12N3O2+
232.1091	6	C12H14N3O2+
236.0489	10	C10H10N3O2S+
296.0707	999	C12H14N3O4S+
297.072	149	C11[13]CH14N3O4S+
298.0664	49	C12H14N3O4[34]S+
