Mass spectrum: Venlafaxine; LC-ESI-QTOF; MS2; CE: 10 eV; R=35000; [M+H]+
Name: Venlafaxine
Name: 1-[2-(dimethylamino)-1-(4-methoxyphenyl)ethyl]cyclohexan-1-ol
Formula: C17H27NO2
Exact mass: 277.2041791
SMILES: CN(C)CC(c1ccc(cc1)OC)C2(CCCCC2)O
InChI: InChI=1S/C17H27NO2/c1-18(2)13-16(17(19)11-5-4-6-12-17)14-7-9-15(20-3)10-8-14/h7-10,16,19H,4-6,11-13H2,1-3H3
Instrument: Bruker maXis Impact
Instrument type: LC-ESI-QTOF
Ms type: MS2
Ion mode: POSITIVE
Ionization: ESI
Fragmentation mode: CID
Collision energy: 10 eV
Resolution: 35000
Column name: Acclaim RSLC C18 2.2um, 2.1x100mm, Thermo
Retention time: 6.1 min
Base peak: 278.2124
Precursor m/z: 278.2115
Precursor type: [M+H]+
m/z	relative intensity	assigned
260.2011	389	C17H26NO+
278.2126	999	C17H28NO2+
279.2154	263	C16[13]CH28NO2+
280.2179	19	C15[13]C2H28NO2+
