Mass spectrum: alpha-Hydroxymidazolam; LC-ESI-QTOF; MS2; CE: 40 eV; R=35000; [M+H]+
Name: alpha-Hydroxymidazolam
Name: 1-Hydroxymidazolam
Name: [8-chloro-6-(2-fluorophenyl)-4H-imidazo[1,5-a][1,4]benzodiazepin-1-yl]methanol
Formula: C18H13ClFN3O
Exact mass: 341.0731179
SMILES: C1C2=CN=C(N2C3=C(C=C(C=C3)Cl)C(=N1)C4=CC=CC=C4F)CO
InChI: InChI=1S/C18H13ClFN3O/c19-11-5-6-16-14(7-11)18(13-3-1-2-4-15(13)20)22-9-12-8-21-17(10-24)23(12)16/h1-8,24H,9-10H2
Instrument: Bruker maXis Impact
Instrument type: LC-ESI-QTOF
Ms type: MS2
Ion mode: POSITIVE
Ionization: ESI
Fragmentation mode: CID
Collision energy: 40 eV
Resolution: 35000
Column name: Acclaim RSLC C18 2.2um, 2.1x100mm, Thermo
Retention time: 8.565 min
Base peak: 342.08
Precursor m/z: 342.0804
Precursor type: [M+H]+
m/z	relative intensity	assigned
121.0439	5	C8H6F+
122.0389	8	C7H5FN+
125.0144	18	C2H5ClFN3+
127.0113	7	C2H5[37]ClFN3+
133.0431	7	C6H10ClO+
134.0384	6	C8H5FN+
136.0065	10	C6HFN2O+
140.0484	66	C10H6N+
141.056	115	C10H7N+
142.0593	12	C9[13]CH7N+
149.0141	55	C4H5ClFN3+
150.0108	9	C8H5ClN+
151.0113	15	C4H5[37]ClFN3+
160.0546	9	C10H7FN+
162.0093	29	C9H5ClN+
163.0146	8	C10HN3+
164.0062	8	C9H5[37]ClN+
167.0591	10	C11H7N2+
168.0671	948	C11H8N2+
169.0699	86	C10[13]CH8N2+
174.0087	5	C11N3+
176.025	486	C10H7ClN+
177.0279	55	C9[13]CH7ClN+
178.0219	118	C10H7[37]ClN+
179.0238	8	C11H3N2O+
180.0196	13	C10H2N3O+
187.0041	8	C13HNO+
187.0657	8	C11H8FN2+
191.0368	7	C13H5NO+
193.0617	24	C12H7N3+
194.035	6	C11H4N3O+
194.069	7	C12H8N3+
202.0283	10	C14H4NO+
203.0362	999	C11H8ClN2+
204.039	103	C10[13]CH8ClN2+
205.0331	250	C11H8[37]ClN2+
206.035	19	C12H4N3O+
209.0624	27	C14H8FN+
221.0625	12	C15H8FN+
222.0687	9	C12H13ClNO+
228.0317	31	C12H7ClN3+
229.037	6	C11[13]CH7ClN3+
230.0288	10	C12H7[37]ClN3+
234.0709	10	C16H9FN+
235.078	76	C16H10FN+
236.0772	21	C14H14ClF+
242.0826	36	C17H10N2+
243.0895	18	C17H11N2+
244.0317	12	C17H5FO+
245.0388	9	C15H4FN3+
247.0667	5	C16H8FN2+
248.0734	7	C16H9FN2+
249.0816	70	C16H10FN2+
250.0848	14	C15[13]CH10FN2+
256.0314	24	C15H8ClFN+
257.0308	12	C14H7ClFN2+
258.0297	10	C15H8[37]ClFN+
258.0465	5	C16H5FN3+
259.0434	5	C14H9ClFN2+
260.0734	7	C17H9FN2+
261.0816	61	C17H10FN2+
262.0893	165	C17H11FN2+
263.0364	5	C16H8ClN2+
263.0932	29	C16[13]CH11FN2+
264.0435	5	C16H9ClN2+
265.0521	11	C16H10ClN2+
268.087	7	C18H10N3+
269.0395	8	C16H9ClFN+
269.0939	24	C18H11N3+
270.0473	69	C16H10ClFN+
270.1006	7	C17[13]CH11N3+
271.0478	17	C15[13]CH10ClFN+
272.0443	25	C16H10[37]ClFN+
275.0381	6	C14H9ClFN2O+
276.0442	5	C17H9ClN2+
277.0521	87	C17H10ClN2+
277.1003	10	C17H12FN3+
278.0547	15	C16[13]CH10ClN2+
279.0496	24	C17H10[37]ClN2+
280.0515	5	C17H11ClNO+
283.0425	121	C16H9ClFN2+
284.0478	33	C15[13]CH9ClFN2+
285.0394	35	C16H9[37]ClFN2+
286.0459	10	C16H10ClFNO+
288.0924	105	C18H11FN3+
289.1003	319	C18H12FN3+
290.1039	51	C17[13]CH12FN3+
291.1059	5	C16[13]C2H12FN3+
295.0428	13	C17H9ClFN2+
296.0506	240	C17H10ClFN2+
297.0581	397	C17H11ClFN2+
298.0537	83	C17H10[37]ClFN2+
299.0558	114	C17H11[37]ClFN2+
300.0586	12	C17H12ClFNO+
303.0537	7	C18H10ClN3+
304.0632	135	C18H11ClN3+
305.0672	26	C17[13]CH11ClN3+
306.0601	34	C18H11[37]ClN3+
307.0422	8	C18H9ClFN2+
307.0598	5	C18H12ClN2O+
308.0379	19	C17H8ClFN3+
309.0431	12	C17H9ClFN3+
310.0408	5	C17H8[37]ClFN3+
312.0704	7	C17H12ClFN3+
322.0537	26	C18H10ClFN3+
323.06	22	C18H11ClFN3+
324.0696	651	C18H12ClFN3+
325.0726	116	C17[13]CH12ClFN3+
326.0668	167	C18H12[37]ClFN3+
327.0693	22	C18H13ClFN2O+
342.0797	14	C18H14ClFN3O+
344.0794	5	C18H14[37]ClFN3O+
