Mass spectrum: Benzidine; LC-ESI-QTOF; MS2; CE: 30 eV; R=35000; [M+H]+
Name: Benzidine
Formula: C12H12N2
Exact mass: 184.1000484
SMILES: NC1=CC=C(C=C1)C1=CC=C(N)C=C1
InChI: InChI=1S/C12H12N2/c13-11-5-1-9(2-6-11)10-3-7-12(14)8-4-10/h1-8H,13-14H2
Instrument: Bruker maXis Impact
Instrument type: LC-ESI-QTOF
Ms type: MS2
Ion mode: POSITIVE
Ionization: ESI
Fragmentation mode: CID
Collision energy: 30 eV
Resolution: 35000
Column name: Acclaim RSLC C18 2.2um, 2.1x100mm, Thermo
Retention time: 4.015 min
Base peak: 214.1079
Precursor m/z: 185.1073
Precursor type: [M+H]+
m/z	relative intensity	assigned
115.0529	21	C9H7+
117.0565	17	C8H7N+
127.0537	5	C10H7+
128.0604	18	C10H8+
129.0683	13	C10H9+
130.0642	55	C9H8N+
131.0709	7	C8[13]CH8N+
132.0799	5	C9H10N+
139.0529	39	C11H7+
140.0493	17	C10H6N+
140.0604	19	C11H8+
141.0686	102	C11H9+
142.0675	9	C10H8N+
143.0716	42	C10H9N+
144.0783	14	C10H10N+
150.0452	12	C12H6+
151.0529	30	C12H7+
152.0601	28	C12H8+
153.0557	31	C11H7N+
154.0635	12	C11H8N+
155.0589	11	C10H7N2+
156.0794	181	C11H10N+
157.0859	66	C11H11N+
158.0837	26	C10H10N2+
166.0638	119	C12H8N+
167.0717	674	C12H9N+
168.0786	282	C12H10N+
169.0849	73	C12H11N+
170.0874	11	C11H10N2+
179.0591	30	C12H7N2+
181.0763	7	C12H9N2+
182.0825	65	C12H10N2+
183.0904	283	C12H11N2+
184.0983	999	C12H12N2+
185.102	148	C11[13]CH12N2+
186.1062	10	C10[13]C2H12N2+
