Mass spectrum: Chlorpromazine; LC-ESI-QTOF; MS2; CE: 30 eV; R=35000; [M+H]+
Name: Chlorpromazine
Name: 3-(2-chlorophenothiazin-10-yl)-N,N-dimethylpropan-1-amine
Formula: C17H19ClN2S
Exact mass: 318.0957473
SMILES: CN(C)CCCN1c2ccccc2Sc3c1cc(cc3)Cl
InChI: InChI=1S/C17H19ClN2S/c1-19(2)10-5-11-20-14-6-3-4-7-16(14)21-17-9-8-13(18)12-15(17)20/h3-4,6-9,12H,5,10-11H2,1-2H3
Instrument: Bruker maXis Impact
Instrument type: LC-ESI-QTOF
Ms type: MS2
Ion mode: POSITIVE
Ionization: ESI
Fragmentation mode: CID
Collision energy: 30 eV
Resolution: 35000
Column name: Acclaim RSLC C18 2.2um, 2.1x100mm, Thermo
Retention time: 9.4 min
Base peak: 319.1027
Precursor m/z: 319.103
Precursor type: [M+H]+
m/z	relative intensity	assigned
211.0455	63	C13H9NS+
214.0417	207	C13H9ClN+
215.0473	37	C13H10ClN+
216.0398	50	C13H9[37]ClN+
233.0066	111	C12H8ClNS+
234.01	25	C15H5ClN+
235.0043	37	C14H4ClN2+
238.0694	29	C15H12NS+
239.0766	570	C15H13NS+
240.0803	74	C14[13]CH13NS+
241.0673	71	C12H16ClNS+
246.014	999	C13H9ClNS+
247.0172	139	C12[13]CH9ClNS+
248.0111	289	C13H9[37]ClNS+
274.0463	148	C15H13ClNS+
276.0433	43	C17H9ClN2+
319.1039	121	C17H20ClN2S+
320.0989	27	C16H19ClN3S+
