Mass spectrum: Paracetamol; LC-ESI-QTOF; MS2; CE: Ramp 16.3-24.4 eV; R=35000; [M+H]+
Name: Paracetamol
Name: N-(4-hydroxyphenyl)acetamide
Formula: C8H9NO2
Exact mass: 151.0633
SMILES: C/C(=N\c1ccc(cc1)O)/O
InChI: InChI=1S/C8H9NO2/c1-6(10)9-7-2-4-8(11)5-3-7/h2-5,11H,1H3,(H,9,10)
Instrument: Bruker maXis Impact
Instrument type: LC-ESI-QTOF
Ms type: MS2
Ion mode: POSITIVE
Ionization: ESI
Fragmentation mode: CID
Collision energy: Ramp 16.3-24.4 eV
Resolution: 35000
Column name: Acclaim RSLC C18 2.2um, 2.1x100mm, Thermo
Retention time: 3.6 min
Base peak: 152.0723
Precursor m/z: 152.0706
Precursor type: [M+H]+
m/z	relative intensity	assigned
59.0489	49	C3H7O+
65.0389	133	C5H5+
66.0427	8	H6N2O2+
67.055	15	C5H7+
70.0659	6	C4H8N+
73.0762	9	C3H9N2+
82.0658	32	C5H8N+
92.0498	74	C6H6N+
93.0355	12	C6H5O+
93.0569	8	C6H7N+
109.0523	6	C6H7NO+
110.0622	470	C6H8NO+
111.0452	130	C6H7O2+
111.0647	52	C6H9NO+
112.0476	7	C6H8O2+
121.0408	12	C6H5N2O+
134.0611	68	C8H8NO+
136.0762	5	C8H10NO+
152.0716	999	C8H10NO2+
154.0781	7	C7H10N2O2+
