Mass spectrum: Methylparaben; LC-ESI-QTOF; MS2; CE: Ramp 18.0-27.1 eV; R=35000; [M-H]-
Name: Methylparaben
Name: methyl 4-hydroxybenzoate
Formula: C8H8O3
Exact mass: 152.0473441
SMILES: COC(=O)C1=CC=C(O)C=C1
InChI: InChI=1S/C8H8O3/c1-11-8(10)6-2-4-7(9)5-3-6/h2-5,9H,1H3
Instrument: Bruker maXis Impact
Instrument type: LC-ESI-QTOF
Ms type: MS2
Ion mode: NEGATIVE
Ionization: ESI
Fragmentation mode: CID
Collision energy: Ramp 18.0-27.1 eV
Resolution: 35000
Column name: Acclaim RSLC C18 2.2um, 2.1x100mm, Thermo
Retention time: 6.004 min
Base peak: 59.0131
Precursor m/z: 151.0401
Precursor type: [M-H]-
m/z	relative intensity	assigned
91.0175	89	C6H3O-
92.0245	434	C6H4O-
95.012	385	C5H3O2-
108.0196	251	C6H4O2-
121.0291	78	C7H5O2-
123.0084	85	C6H3O3-
136.0168	999	C7H4O3-
137.0194	111	C6[13]CH4O3-
151.0401	653	C8H7O3-
