Mass spectrum: Genistein; LC-ESI-QTOF; MS2; CE: 30 eV; R=35000; [M-H]-
Name: Genistein
Name: 5,7-dihydroxy-3-(4-hydroxyphenyl)chromen-4-one
Formula: C15H10O5
Exact mass: 270.0528234
SMILES: OC1=CC=C(C=C1)C1=COC2=CC(O)=CC(O)=C2C1=O
InChI: InChI=1S/C15H10O5/c16-9-3-1-8(2-4-9)11-7-20-13-6-10(17)5-12(18)14(13)15(11)19/h1-7,16-18H
Instrument: Bruker maXis Impact
Instrument type: LC-ESI-QTOF
Ms type: MS2
Ion mode: NEGATIVE
Ionization: ESI
Fragmentation mode: CID
Collision energy: 30 eV
Resolution: 35000
Column name: Acclaim RSLC C18 2.2um, 2.1x100mm, Thermo
Retention time: 7.498 min
Base peak: 269.0454
Precursor m/z: 269.0455
Precursor type: [M-H]-
m/z	relative intensity	assigned
132.0213	104	C8H4O2-
133.0294	326	C8H5O2-
134.0352	51	C8H6O2-
135.007	41	C7H3O3-
135.0454	104	C8H7O2-
151.0031	22	C7H3O4-
154.0433	19	C11H6O-
155.049	60	C11H7O-
156.0578	33	C11H8O-
157.0292	79	C10H5O2-
157.065	23	C11H9O-
158.036	29	C10H6O2-
159.0437	218	C10H7O2-
160.0479	22	C9[13]CH7O2-
169.0646	69	C12H9O-
171.0437	41	C11H7O2-
173.0612	32	C11H9O2-
180.057	68	C13H8O-
181.0662	98	C13H9O-
182.0718	22	C12[13]CH9O-
183.0441	111	C12H7O2-
184.0497	28	C12H8O2-
195.0473	20	C13H7O2-
196.0518	67	C13H8O2-
197.0612	53	C13H9O2-
199.0382	50	C12H7O3-
201.0538	105	C12H9O3-
211.0379	20	C13H7O3-
213.0552	35	C13H9O3-
223.0395	34	C14H7O3-
224.0463	94	C14H8O3-
225.0541	90	C14H9O3-
227.0331	47	C13H7O4-
240.0413	34	C14H8O4-
241.0489	38	C14H9O4-
268.0393	22	C15H8O5-
269.0446	999	C15H9O5-
270.0487	161	C14[13]CH9O5-
