Mass spectrum: Robenidine; LC-ESI-QTOF; MS2; CE: 30 eV; R=35000; [M+H]+
Name: Robenidine
Name: 1,2-bis[(E)-(4-chlorophenyl)methylideneamino]guanidine
Formula: C15H13Cl2N5
Exact mass: 333.0548008
SMILES: C1=CC(=CC=C1/C=N/NC(=N)N/N=C/C2=CC=C(C=C2)Cl)Cl
InChI: InChI=1S/C15H13Cl2N5/c16-13-5-1-11(2-6-13)9-19-21-15(18)22-20-10-12-3-7-14(17)8-4-12/h1-10H,(H3,18,21,22)/b19-9+,20-10+
Instrument: Bruker maXis Impact
Instrument type: LC-ESI-QTOF
Ms type: MS2
Ion mode: POSITIVE
Ionization: ESI
Fragmentation mode: CID
Collision energy: 30 eV
Resolution: 35000
Column name: Acclaim RSLC C18 2.2um, 2.1x100mm, Thermo
Retention time: 11.8 min
Base peak: 279.1587
Precursor m/z: 334.0621
Precursor type: [M+H]+
m/z	relative intensity	assigned
125.015	260	C7H6Cl+
138.0097	999	C7H5ClN+
140.0069	168	C7H5[37]ClN+
140.0254	313	C7H7ClN+
142.0223	67	C7H7[37]ClN+
143.0468	110	C8H5N3+
151.0045	170	C7H4ClN2+
153.0023	35	C6H9Cl[37]Cl+
153.0209	79	C7H6ClN2+
155.0362	852	C7H8ClN2+
157.0329	211	C7H8[37]ClN2+
171.0664	32	C9H7N4+
178.0162	674	C8H5ClN3+
179.0226	126	C9HN5+
180.0126	156	C8H5[37]ClN3+
182.0296	53	C7H12Cl[37]ClN+
195.0432	244	C8H8ClN4+
196.0503	38	C8H9ClN4+
197.0409	61	C7H13Cl[37]ClN2+
262.0156	36	C15H5ClN3+
263.0224	38	C15H6ClN3+
334.0634	41	C15H14Cl2N5+
