Mass spectrum: Propyl 4-hydroxybenzoate; GC-APCI-QTOF; MS2; CE: 10 eV; R=35000; [M+H]+
Name: Propyl 4-hydroxybenzoate
Formula: C10H12O3
Exact mass: 180.0786
SMILES: CCCOC(=O)C1=CC=C(C=C1)O
InChI: InChI=1S/C10H12O3/c1-2-7-13-10(12)8-3-5-9(11)6-4-8/h3-6,11H,2,7H2,1H3
Instrument: Bruker 450 GC coupled to maXis Impact
Instrument type: GC-APCI-QTOF
Ms type: MS2
Ion mode: POSITIVE
Ionization: APCI
Fragmentation mode: CID
Collision energy: 10 eV
Resolution: 35000
Column name: Rxi-5Sil MS column, 30m, 0.25mm i.d., 0.25Âµm film thickness, Restek
Retention time: 13.254 min
Base peak: 181.0812
Precursor m/z: 181.0859
Precursor type: [M+H]+
m/z	relative intensity	assigned
152.0447	806	C8H8O3+
181.0816	999	C10H13O3+
