Mass spectrum: Dihydrocodeine; LC-ESI-QTOF; MS2; CE: 30 eV; R=35000; [M+H]+
Name: Dihydrocodeine
Name: (4R,4aR,7S,7aR,12bS)-9-methoxy-3-methyl-2,4,4a,5,6,7,7a,13-octahydro-1H-4,12-methanobenzofuro[3,2-e]isoquinoline-7-ol
Formula: C18H23NO3
Exact mass: 301.1677936
SMILES: CN1CC[C@]23c4c5ccc(c4O[C@H]2[C@H](CC[C@H]3[C@H]1C5)O)OC
InChI: InChI=1S/C18H23NO3/c1-19-8-7-18-11-4-5-13(20)17(18)22-16-14(21-2)6-3-10(15(16)18)9-12(11)19/h3,6,11-13,17,20H,4-5,7-9H2,1-2H3/t11-,12+,13-,17-,18-/m0/s1
Instrument: Bruker maXis Impact
Instrument type: LC-ESI-QTOF
Ms type: MS2
Ion mode: POSITIVE
Ionization: ESI
Fragmentation mode: CID
Collision energy: 30 eV
Resolution: 35000
Column name: Acclaim RSLC C18 2.2um, 2.1x100mm, Thermo
Retention time: 3.504 min
Base peak: 302.1773
Precursor m/z: 302.1751
Precursor type: [M+H]+
m/z	relative intensity	assigned
137.0599	7	C8H9O2+
161.0599	7	C10H9O2+
167.086	7	C13H11+
171.0806	15	C12H11O+
173.0966	9	C12H13O+
175.0752	5	C11H11O2+
183.0809	22	C13H11O+
185.0964	14	C13H13O+
187.0754	10	C12H11O2+
189.0914	23	C12H13O2+
195.0811	33	C14H11O+
196.0867	8	C13[13]CH11O+
199.0763	150	C13H11O2+
199.1125	12	C14H15O+
200.0798	19	C12[13]CH11O2+
201.092	100	C13H13O2+
202.0951	12	C12[13]CH13O2+
211.0763	8	C14H11O2+
213.092	21	C14H13O2+
215.1073	5	C14H15O2+
217.1232	21	C14H17O2+
225.0916	9	C15H13O2+
227.1079	82	C15H15O2+
228.1108	11	C14[13]CH15O2+
243.1026	35	C15H15O3+
244.1061	6	C14[13]CH15O3+
245.1186	114	C15H17O3+
246.1216	16	C14[13]CH17O3+
284.1654	10	C18H22NO2+
302.1771	999	C18H24NO3+
303.1803	139	C17[13]CH24NO3+
304.1827	11	C16[13]C2H24NO3+
