Mass spectrum: 2,4-Di-tert-butyl-phenol; GC-APCI-QTOF; MS2; CE: 20 eV; R=35000; [M]+
Name: 2,4-Di-tert-butyl-phenol
Formula: C14H22O
Exact mass: 206.1671
SMILES: CC(C)(C)C1=CC(=C(C=C1)O)C(C)(C)C
InChI: InChI=1S/C14H22O/c1-13(2,3)10-7-8-12(15)11(9-10)14(4,5)6/h7-9,15H,1-6H3
Instrument: Bruker 450 GC coupled to maXis Impact
Instrument type: GC-APCI-QTOF
Ms type: MS2
Ion mode: POSITIVE
Ionization: APCI
Fragmentation mode: CID
Collision energy: 20 eV
Resolution: 35000
Column name: Rxi-5Sil MS column, 30m, 0.25mm i.d., 0.25Âµm film thickness, Restek
Retention time: 12.523 min
Base peak: 206.1668
Precursor m/z: 206.1665
Precursor type: [M]+
m/z	relative intensity	assigned
163.1147	22	C11H15O+
175.114	10	C12H15O+
191.1441	999	C13H19O+
192.1481	107	C13H20O+
