Mass spectrum: Citalopram; LC-ESI-QTOF; MS2; CE: 10 eV; R=35000; [M+H]+
Name: Citalopram
Name: 1-[3-(dimethylamino)propyl]-1-(4-fluorophenyl)-3H-2-benzofuran-5-carbonitrile
Formula: C20H21FN2O
Exact mass: 324.1637915
SMILES: CN(C)CCCC1(OCC2=C1C=CC(=C2)C#N)C1=CC=C(F)C=C1
InChI: InChI=1S/C20H21FN2O/c1-23(2)11-3-10-20(17-5-7-18(21)8-6-17)19-9-4-15(13-22)12-16(19)14-24-20/h4-9,12H,3,10-11,14H2,1-2H3
Instrument: Bruker maXis Impact
Instrument type: LC-ESI-QTOF
Ms type: MS2
Ion mode: POSITIVE
Ionization: ESI
Fragmentation mode: CID
Collision energy: 10 eV
Resolution: 35000
Column name: Acclaim RSLC C18 2.2um, 2.1x100mm, Thermo
Retention time: 6.6 min
Base peak: 278.2115
Precursor m/z: 325.1711
Precursor type: [M+H]+
m/z	relative intensity	assigned
262.1026	6	C18H13FN+
280.1126	5	C18H15FNO+
325.1715	999	C20H22FN2O+
326.1748	174	C18H22N4O2+
327.1772	19	C19H22FN3O+
