Mass spectrum: 17alpha-Methyltestosterone; LC-ESI-QTOF; MS2; CE: 30 eV; R=35000; [M+H]+
Name: 17alpha-Methyltestosterone
Name: Methyltestosterone
Name: (8R,9S,10R,13S,14S,17S)-17-hydroxy-10,13,17-trimethyl-2,6,7,8,9,11,12,14,15,16-decahydro-1H-cyclopenta[a]phenanthren-3-one
Formula: C20H30O2
Exact mass: 302.2245802
SMILES: C[C@]1(O)CC[C@H]2[C@@H]3CCC4=CC(=O)CC[C@]4(C)[C@H]3CC[C@]12C
InChI: InChI=1S/C20H30O2/c1-18-9-6-14(21)12-13(18)4-5-15-16(18)7-10-19(2)17(15)8-11-20(19,3)22/h12,15-17,22H,4-11H2,1-3H3/t15-,16+,17+,18+,19+,20+/m1/s1
Instrument: Bruker maXis Impact
Instrument type: LC-ESI-QTOF
Ms type: MS2
Ion mode: POSITIVE
Ionization: ESI
Fragmentation mode: CID
Collision energy: 30 eV
Resolution: 35000
Column name: Acclaim RSLC C18 2.2um, 2.1x100mm, Thermo
Retention time: 10.346 min
Base peak: 303.2321
Precursor m/z: 303.2319
Precursor type: [M+H]+
m/z	relative intensity	assigned
109.064	58	C7H9O+
110.0676	6	C6[13]CH9O+
115.0551	17	C9H7+
117.0692	32	C9H9+
119.0845	308	C9H11+
120.088	35	C8[13]CH11+
121.0637	174	C8H9O+
121.1003	358	C9H13+
122.067	18	C7[13]CH9O+
122.1044	42	C8[13]CH13+
123.0796	561	C8H11O+
123.1158	44	C9H15+
124.0828	59	C7[13]CH11O+
125.0946	21	C8H13O+
128.0612	9	C10H8+
129.0693	44	C10H9+
130.076	13	C10H10+
131.0847	143	C10H11+
132.0875	20	C9[13]CH11+
133.1001	567	C10H13+
134.1028	51	C9[13]CH13+
135.0794	56	C9H11O+
135.1159	344	C10H15+
136.1201	38	C9[13]CH15+
137.095	108	C9H13O+
137.1315	109	C10H17+
138.0976	12	C8[13]CH13O+
138.1339	8	C9[13]CH17+
139.1108	8	C9H15O+
141.0686	21	C11H9+
142.077	21	C11H10+
143.0839	107	C11H11+
144.0914	20	C10[13]CH11+
145.1002	308	C11H13+
146.1048	48	C10[13]CH13+
147.079	52	C10H11O+
147.1155	415	C11H15+
148.0868	8	C9[13]CH11O+
148.1188	48	C10[13]CH15+
149.095	201	C10H13O+
149.1312	323	C11H17+
150.0989	25	C9[13]CH13O+
150.134	38	C10[13]CH17+
151.1106	57	C10H15O+
151.1452	13	C11H19+
152.1153	6	C9[13]CH15O+
155.0835	59	C12H11+
156.0908	22	C12H12+
157.0999	218	C12H13+
158.1041	26	C11[13]CH13+
159.1153	615	C12H15+
160.1192	78	C11[13]CH15+
161.095	75	C11H13O+
161.1312	451	C12H17+
162.0962	8	C10[13]CH13O+
162.1037	6	C10[13]CH13O+
162.135	57	C11[13]CH17+
163.1102	242	C11H15O+
163.147	135	C12H19+
164.1136	27	C10[13]CH15O+
164.1519	20	C11[13]CH19+
165.127	17	C11H17O+
168.0915	5	C13H12+
169.0991	107	C13H13+
170.1045	20	C12[13]CH13+
171.1156	310	C13H15+
172.1185	50	C12[13]CH15+
173.0955	17	C12H13O+
173.1311	245	C13H17+
174.1016	7	C12H14O+
174.1344	46	C12[13]CH17+
175.1104	141	C12H15O+
175.1469	390	C13H19+
176.1138	18	C11[13]CH15O+
176.1499	57	C12[13]CH19+
177.1261	442	C12H17O+
177.1626	352	C13H21+
178.1303	53	C11[13]CH17O+
178.1657	56	C12[13]CH21+
179.1406	16	C12H19O+
182.1065	11	C14H14+
183.1146	86	C14H15+
184.1203	20	C13[13]CH15+
185.131	326	C14H17+
186.1353	69	C13[13]CH17+
187.1088	17	C13H15O+
187.147	318	C14H19+
188.1152	10	C13H16O+
188.1507	44	C13[13]CH19+
189.1259	162	C13H17O+
189.1628	755	C14H21+
190.1301	22	C12[13]CH17O+
190.1663	137	C13[13]CH21+
191.1415	107	C13H19O+
191.1698	7	C12[13]C2H21+
192.1447	21	C12[13]CH19O+
193.1579	11	C13H21O+
196.1234	14	C15H16+
197.132	125	C15H17+
198.1359	27	C14[13]CH17+
199.147	173	C15H19+
200.151	37	C14[13]CH19+
201.1254	46	C14H17O+
201.1624	271	C15H21+
202.1308	10	C13[13]CH17O+
202.1656	52	C14[13]CH21+
203.1413	55	C14H19O+
203.1782	186	C15H23+
204.1453	9	C13[13]CH19O+
204.1816	33	C14[13]CH23+
205.1584	13	C14H21O+
207.1735	10	C14H23O+
211.147	359	C16H19+
212.1519	70	C15[13]CH19+
213.1614	45	C16H21+
214.1667	14	C16H22+
215.1417	110	C15H19O+
215.1783	199	C16H23+
216.1488	21	C14[13]CH19O+
216.1825	35	C15[13]CH23+
217.1574	44	C15H21O+
217.1918	17	C16H25+
218.1622	7	C14[13]CH21O+
219.175	8	C15H23O+
223.1469	8	C17H19+
224.1547	9	C17H20+
225.1638	166	C17H21+
226.1668	39	C16[13]CH21+
227.1787	927	C17H23+
228.1821	170	C16[13]CH23+
229.1575	177	C16H21O+
229.1852	10	C15[13]C2H23+
230.1624	45	C15[13]CH21O+
233.1882	25	C16H25O+
234.1935	6	C15[13]CH25O+
237.1604	6	C18H21+
238.1729	10	C18H22+
239.178	81	C18H23+
240.183	13	C17[13]CH23+
241.1946	56	C18H25+
242.1983	12	C17[13]CH25+
243.1736	85	C17H23O+
243.2101	34	C18H27+
244.1776	16	C16[13]CH23O+
244.213	9	C17[13]CH27+
245.1891	555	C17H25O+
246.1929	109	C16[13]CH25O+
247.1707	9	C16H23O2+
247.2001	14	C15[13]C2H25O+
252.1865	26	C19H24+
253.191	9	C18[13]CH24+
257.191	21	C18H25O+
257.224	23	C19H29+
265.1981	5	C20H25+
267.2102	773	C20H27+
268.2134	172	C19[13]CH27+
269.2155	14	C18[13]C2H27+
270.1981	23	C19H26O+
285.221	974	C20H29O+
286.224	229	C19[13]CH29O+
287.2281	25	C18[13]C2H29O+
303.2312	999	C20H31O2+
304.2345	223	C19[13]CH31O2+
305.2397	26	C18[13]C2H31O2+
