Mass spectrum: N-methylperfluorooctane sulfonamidoacetic acid (N-MeFOSAA); LC-ESI-QTOF; MS2; CE: 30 eV; R=35000; [M-H]-
Name: N-methylperfluorooctane sulfonamidoacetic acid (N-MeFOSAA)
Name: N-Methylperfluorooctane sulfonamidoacetic acid
Name: 2-[1,1,2,2,3,3,4,4,5,5,6,6,7,7,8,8,8-heptadecafluorooctylsulfonyl(methyl)amino]acetic acid
Formula: C11H6F17NO4S
Exact mass: 570.9746
SMILES: CN(CC(=O)O)S(=O)(=O)C(C(C(C(C(C(C(C(F)(F)F)(F)F)(F)F)(F)F)(F)F)(F)F)(F)F)(F)F
InChI: InChI=1S/C11H6F17NO4S/c1-29(2-3(30)31)34(32,33)11(27,28)9(22,23)7(18,19)5(14,15)4(12,13)6(16,17)8(20,21)10(24,25)26/h2H2,1H3,(H,30,31)
Instrument: Bruker maXis Impact
Instrument type: LC-ESI-QTOF
Ms type: MS2
Ion mode: NEGATIVE
Ionization: ESI
Fragmentation mode: CID
Collision energy: 30 eV
Resolution: 35000
Column name: Acclaim RSLC C18 2.2um, 2.1x100mm, Thermo
Retention time: 11.399 min
Base peak: 569.9682
Precursor m/z: 569.9673
Precursor type: [M-H]-
m/z	relative intensity
168.9892	814
218.9869	819
418.9773	999
