Mass spectrum: Atenolol-desisopropyl; LC-ESI-QTOF; MS2; CE: 30 eV; R=35000; [M+H]+
Name: Atenolol-desisopropyl
Name: 4-(3-AMINO-2-HYDROXYPROPOXY)PHENYLACETAMIDE
Name: 2-[4-(3-amino-2-hydroxypropoxy)phenyl]acetamide
Formula: C11H16N2O3
Exact mass: 224.1160924
SMILES: NCC(O)COC1=CC=C(CC(N)=O)C=C1
InChI: InChI=1S/C11H16N2O3/c12-6-9(14)7-16-10-3-1-8(2-4-10)5-11(13)15/h1-4,9,14H,5-7,12H2,(H2,13,15)
Instrument: Bruker maXis Impact
Instrument type: LC-ESI-QTOF
Ms type: MS2
Ion mode: POSITIVE
Ionization: ESI
Fragmentation mode: CID
Collision energy: 30 eV
Resolution: 35000
Column name: Acclaim RSLC C18 2.2um, 2.1x100mm, Thermo
Retention time: 2.0 min
Base peak: 150.1115
Precursor m/z: 225.1234
Precursor type: [M+H]+
m/z	relative intensity	assigned
115.0538	67	C9H7+
116.0489	47	C8H6N+
117.0695	64	C9H9+
119.0485	52	C8H7O+
121.0639	84	C8H9O+
131.0481	38	C9H7O+
133.0637	501	C9H9O+
134.0593	123	C8H8NO+
145.0636	999	C10H9O+
146.0675	147	C9[13]CH9O+
147.043	114	C9H7O2+
162.0659	88	C10H10O2+
162.0899	81	C10H12NO+
164.07	99	C9H10NO2+
173.0618	40	C11H9O2+
178.085	161	C10H12NO2+
190.0856	76	C11H12NO2+
