Mass spectrum: 10,11-trans-Dihydroxy-10,11-dihydrocarbamazepine; LC-ESI-QTOF; MS2; CE: 30 eV; R=35000; [M+H]+
Name: 10,11-trans-Dihydroxy-10,11-dihydrocarbamazepine
Name: (10s,11s)-10,11-dihydroxy-10,11-dihydro-5h-dibenzo[b,f]azepine-5-carboxamide
Name: (5S,6S)-5,6-dihydroxy-5,6-dihydrobenzo[b][1]benzazepine-11-carboxamide
Formula: C15H14N2O3
Exact mass: 270.1004423
SMILES: c1ccc2c(c1)[C@@H]([C@H](c3ccccc3N2C(=N)O)O)O
InChI: InChI=1S/C15H14N2O3/c16-15(20)17-11-7-3-1-5-9(11)13(18)14(19)10-6-2-4-8-12(10)17/h1-8,13-14,18-19H,(H2,16,20)/t13-,14-/m0/s1
Instrument: Bruker maXis Impact
Instrument type: LC-ESI-QTOF
Ms type: MS2
Ion mode: POSITIVE
Ionization: ESI
Fragmentation mode: CID
Collision energy: 30 eV
Resolution: 35000
Column name: Acclaim RSLC C18 2.2um, 2.1x100mm, Thermo
Retention time: 5.6 min
Base peak: 150.1116
Precursor m/z: 271.1077
Precursor type: [M+H]+
m/z	relative intensity	assigned
152.0612	11	C12H8+
165.0684	8	C13H9+
167.0716	47	C12H9N+
180.0796	999	C13H10N+
181.084	183	C12[13]CH10N+
182.095	343	C10H14O3+
183.0978	51	C9[13]CH14O3+
192.0817	17	C14H10N+
208.0767	17	C14H10NO+
209.0785	6	C13[13]CH10NO+
210.0902	314	C14H12NO+
211.0939	48	C13[13]CH12NO+
