Mass spectrum: Benzyldimethylhexadecylammonium; LC-ESI-QTOF; MS2; CE: 10 eV; R=35000; [M+H]+
Name: Benzyldimethylhexadecylammonium
Name: Cetalkonium
Name: benzyl-hexadecyl-dimethylazanium
Formula: [C25H46N]+
Exact mass: 360.3630255
SMILES: CCCCCCCCCCCCCCCC[N+](C)(C)CC1=CC=CC=C1
InChI: InChI=1S/C25H46N/c1-4-5-6-7-8-9-10-11-12-13-14-15-16-20-23-26(2,3)24-25-21-18-17-19-22-25/h17-19,21-22H,4-16,20,23-24H2,1-3H3/q+1
Instrument: Bruker maXis Impact
Instrument type: LC-ESI-QTOF
Ms type: MS2
Ion mode: POSITIVE
Ionization: ESI
Fragmentation mode: CID
Collision energy: 10 eV
Resolution: 35000
Column name: Acclaim RSLC C18 2.2um, 2.1x100mm, Thermo
Retention time: 13.107 min
Base peak: 360.3625
Precursor m/z: 361.3703
Precursor type: [M+H]+
m/z	relative intensity	assigned
269.1375	14	C21H17+
360.3626	999	C25H46N+
361.3655	248	C24[13]CH46N+
362.3681	39	C23[13]C2H46N+
