Mass spectrum: Mefenamic acid; LC-ESI-QTOF; MS2; CE: 40 eV; R=35000; [M+H]+
Name: Mefenamic acid
Name: 2-(2,3-dimethylanilino)benzoic acid
Formula: C15H15NO2
Exact mass: 241.1102787
SMILES: Cc1cccc(c1C)Nc2ccccc2C(=O)O
InChI: InChI=1S/C15H15NO2/c1-10-6-5-9-13(11(10)2)16-14-8-4-3-7-12(14)15(17)18/h3-9,16H,1-2H3,(H,17,18)
Instrument: Bruker maXis Impact
Instrument type: LC-ESI-QTOF
Ms type: MS2
Ion mode: POSITIVE
Ionization: ESI
Fragmentation mode: CID
Collision energy: 40 eV
Resolution: 35000
Column name: Acclaim RSLC C18 2.2um, 2.1x100mm, Thermo
Retention time: 11.5 min
Base peak: 288.2438
Precursor m/z: 242.1176
Precursor type: [M+H]+
m/z	relative intensity	assigned
179.0696	83	C13H9N+
180.0734	353	C8H10N3O2+
181.078	99	C12H9N2+
208.0663	512	C13H8N2O+
209.0799	999	C14H11NO+
210.0786	193	C13H10N2O+
222.0821	115	C14H10N2O+
224.1028	179	C15H14NO+
225.1006	87	C14H13N2O+
