Mass spectrum: Boscalid; LC-ESI-QTOF; MS2; CE: 50 eV; R=35000; [M+H]+
Name: Boscalid
Name: 2-chloro-N-[2-(4-chlorophenyl)phenyl]pyridine-3-carboxamide
Formula: C18H12Cl2N2O
Exact mass: 342.0326684
SMILES: ClC1=CC=C(C=C1)C1=CC=CC=C1NC(=O)C1=CC=CN=C1Cl
InChI: InChI=1S/C18H12Cl2N2O/c19-13-9-7-12(8-10-13)14-4-1-2-6-16(14)22-18(23)15-5-3-11-21-17(15)20/h1-11H,(H,22,23)
Instrument: Bruker maXis Impact
Instrument type: LC-ESI-QTOF
Ms type: MS2
Ion mode: POSITIVE
Ionization: ESI
Fragmentation mode: CID
Collision energy: 50 eV
Resolution: 35000
Column name: Acclaim RSLC C18 2.2um, 2.1x100mm, Thermo
Retention time: 9.447 min
Base peak: 333.181
Precursor m/z: 343.0399
Precursor type: [M+H]+
m/z	relative intensity	assigned
111.9949	21	C5H3ClN+
113.9917	10	C5H3[37]ClN+
114.0083	8	C8H2O+
130.0047	10	C2H8Cl2N2+
132.0006	5	C2H8Cl[37]ClN2+
139.9887	159	C6H3ClNO+
140.049	12	C10H6N+
140.9916	9	C5[13]CH3ClNO+
141.9859	28	C6H3[37]ClNO+
152.0607	56	C12H8+
153.0641	5	C11[13]CH8+
166.0529	5	C11H6N2+
167.0601	18	C11H7N2+
168.065	7	C11H8N2+
177.0558	31	C13H7N+
178.0595	5	C12[13]CH7N+
189.0676	11	C15H9+
190.0643	6	C14H8N+
195.0533	10	C12H7N2O+
196.0625	16	C12H8N2O+
202.0759	21	C16H10+
203.0725	12	C15H9N+
204.0797	17	C15H10N+
214.0661	5	C16H8N+
215.0724	12	C16H9N+
216.0798	38	C16H10N+
217.0871	43	C16H11N+
218.0867	11	C15H10N2+
226.0646	18	C17H8N+
227.072	62	C17H9N+
228.0792	63	C17H10N+
229.0867	43	C17H11N+
230.036	12	C13H9ClNO+
230.091	8	C16[13]CH11N+
238.0399	16	C18H6O+
240.055	7	C18H8O+
241.0748	7	C17H9N2+
242.0825	107	C17H10N2+
243.0908	261	C17H11N2+
244.0739	18	C14H13ClN2+
244.0975	143	C17H12N2+
245.081	19	C17H11NO+
245.102	21	C16[13]CH12N2+
246.0786	8	C14H13[37]ClN2+
252.0658	17	C18H8N2+
253.0757	147	C18H9N2+
254.0823	168	C18H10N2+
255.0866	31	C17[13]CH10N2+
257.0703	5	C17H9N2O+
262.0407	17	C17H9ClN+
263.039	5	C15H13Cl2+
264.0564	17	C17H11ClN+
265.0579	5	C16H10ClN2+
266.0527	5	C17H11[37]ClN+
269.0703	11	C18H9N2O+
270.0782	64	C18H10N2O+
271.0862	999	C18H11N2O+
272.0933	844	C18H12N2O+
273.0967	124	C17[13]CH12N2O+
274.0972	9	C16[13]C2H12N2O+
278.0629	7	C17H11ClN2+
279.066	10	C17H12ClN2+
289.0523	106	C18H10ClN2+
290.055	20	C17[13]CH10ClN2+
291.0491	28	C18H10[37]ClN2+
292.0512	5	C18H11ClNO+
305.0467	15	C18H10ClN2O+
306.0557	15	C18H11ClN2O+
307.0628	99	C18H12ClN2O+
308.0656	20	C17[13]CH12ClN2O+
309.0595	25	C18H12[37]ClN2O+
