Mass spectrum: Lapatinib; LC-ESI-QTOF; MS2; CE: 30 eV; R=35000; [M+H]+
Name: Lapatinib
Name: N-[3-chloro-4-[(3-fluorophenyl)methoxy]phenyl]-6-[5-[(2-methylsulfonylethylamino)methyl]furan-2-yl]quinazolin-4-amine
Formula: C29H26ClFN4O4S
Exact mass: 580.1347322
SMILES: CS(=O)(=O)CCNCC1=CC=C(O1)C1=CC2=C(C=C1)N=CN=C2NC1=CC(Cl)=C(OCC2=CC(F)=CC=C2)C=C1
InChI: InChI=1S/C29H26ClFN4O4S/c1-40(36,37)12-11-32-16-23-7-10-27(39-23)20-5-8-26-24(14-20)29(34-18-33-26)35-22-6-9-28(25(30)15-22)38-17-19-3-2-4-21(31)13-19/h2-10,13-15,18,32H,11-12,16-17H2,1H3,(H,33,34,35)
Instrument: Bruker maXis Impact
Instrument type: LC-ESI-QTOF
Ms type: MS2
Ion mode: POSITIVE
Ionization: ESI
Fragmentation mode: CID
Collision energy: 30 eV
Resolution: 35000
Column name: Acclaim RSLC C18 2.2um, 2.1x100mm, Thermo
Retention time: 11.087 min
Base peak: 581.141
Precursor m/z: 581.142
Precursor type: [M+H]+
m/z	relative intensity	assigned
349.0594	13	C22H9N2O3+
350.0685	45	C16H14ClFN3O3+
351.0726	7	C15[13]CH14ClFN3O3+
352.0679	9	C16H14[37]ClFN3O3+
365.0792	166	C19H19ClFO2S+
366.0819	32	C18[13]CH19ClFO2S+
367.0765	42	C19H19[37]ClFO2S+
368.079	9	C22H12N2O4+
379.0947	27	C22H18ClNO3+
380.0982	9	C21[13]CH18ClNO3+
381.0923	7	C22H18[37]ClNO3+
393.1107	39	C21H18ClN4O2+
394.1153	10	C20[13]CH18ClN4O2+
395.1078	15	C21H18[37]ClN4O2+
458.1076	37	C26H18ClFN3O2+
459.1084	10	C25[13]CH18ClFN3O2+
460.1054	11	C26H18[37]ClFN3O2+
472.0943	20	C22H21ClN4O4S+
473.1007	6	C21[13]CH21ClN4O4S+
474.0942	7	C22H21[37]ClN4O4S+
581.1421	999	C29H27ClFN4O4S+
582.1449	337	C28[13]CH27ClFN4O4S+
583.14	351	C29H27[37]ClFN4O4S+
