Mass spectrum: Metribuzin; LC-ESI-QTOF; MS2; CE: 30 eV; R=35000; [M+H]+
Name: Metribuzin
Name: 4-amino-6-tert-butyl-3-methylsulfanyl-1,2,4-triazin-5-one
Formula: C8H14N4OS
Exact mass: 214.0888321
SMILES: CSC1=NN=C(C(=O)N1N)C(C)(C)C
InChI: InChI=1S/C8H14N4OS/c1-8(2,3)5-6(13)12(9)7(14-4)11-10-5/h9H2,1-4H3
Instrument: Bruker maXis Impact
Instrument type: LC-ESI-QTOF
Ms type: MS2
Ion mode: POSITIVE
Ionization: ESI
Fragmentation mode: CID
Collision energy: 30 eV
Resolution: 35000
Column name: Acclaim RSLC C18 2.2um, 2.1x100mm, Thermo
Retention time: 6.9 min
Base peak: 215.0954
Precursor m/z: 215.0961
Precursor type: [M+H]+
m/z	relative intensity	assigned
114.0358	11	C5H8NS+
114.9954	13	C3H3N2OS+
116.0146	9	C2H4N4S+
122.0705	9	C6H8N3+
123.055	17	C6H7N2O+
123.0778	10	C6H9N3+
124.0867	13	C6H10N3+
125.0688	21	C6H9N2O+
125.0815	33	C5H9N4+
127.0851	25	C6H11N2O+
130.0292	33	C8H4NO+
130.069	12	C6H12NS+
131.0376	297	C3H7N4S+
132.0388	19	CH4N6O2+
133.0343	17	C5H9O2S+
136.0485	18	C6H6N3O+
137.0557	8	C6H7N3O+
138.0661	15	C6H8N3O+
139.0314	16	C6H7N2S+
139.0962	23	C6H11N4+
140.0388	49	C6H8N2S+
140.1043	10	C6H12N4+
143.0619	19	C6H11N2S+
145.0529	241	C4H9N4S+
146.0564	23	C7H6N4+
147.0486	12	C4H9N3OS+
150.0641	20	C7H8N3O+
152.0799	8	C7H10N3O+
153.076	79	C6H9N4O+
154.0419	18	C6H8N3S+
155.0503	40	C6H9N3S+
155.0621	50	C7H11N2S+
156.0576	91	C6H10N3S+
156.0732	9	C7H12N2S+
157.0437	22	C6H9N2OS+
157.0561	14	C7H11NOS+
159.0313	17	C7H3N4O+
167.0908	17	C7H11N4O+
168.0208	16	C6H6N3OS+
171.0571	187	C7H11N2OS+
171.0824	18	C7H13N3S+
172.0614	23	C8H6N5+
172.0771	54	C6H12N4S+
173.0546	10	C7H5N6+
173.0814	11	CH13N6O2S+
182.0354	17	C7H8N3OS+
183.0449	63	C7H9N3OS+
184.0525	296	C7H10N3OS+
185.0547	36	C8H5N6+
186.0809	28	C8H14N2OS+
187.1	999	C7H15N4S+
188.1025	85	C5H12N6O2+
189.096	59	C7H15N3OS+
200.0726	27	C7H12N4OS+
215.095	368	C8H15N4OS+
