Mass spectrum: Perfluoroundecanoic acid (PFUnDA); LC-ESI-QTOF; MS2; CE: 40 eV; R=35000; [M-H]-
Name: Perfluoroundecanoic acid (PFUnDA)
Name: Perfluoroundecanoic acid
Name: 2,2,3,3,4,4,5,5,6,6,7,7,8,8,9,9,10,10,11,11,11-henicosafluoroundecanoic acid
Formula: C11HF21O2
Exact mass: 563.9641
SMILES: C(=O)(C(C(C(C(C(C(C(C(C(C(F)(F)F)(F)F)(F)F)(F)F)(F)F)(F)F)(F)F)(F)F)(F)F)(F)F)O
InChI: InChI=1S/C11HF21O2/c12-2(13,1(33)34)3(14,15)4(16,17)5(18,19)6(20,21)7(22,23)8(24,25)9(26,27)10(28,29)11(30,31)32/h(H,33,34)
Instrument: Bruker maXis Impact
Instrument type: LC-ESI-QTOF
Ms type: MS2
Ion mode: NEGATIVE
Ionization: ESI
Fragmentation mode: CID
Collision energy: 40 eV
Resolution: 35000
Column name: Acclaim RSLC C18 2.2um, 2.1x100mm, Thermo
Retention time: 11.624 min
Base peak: 562.9559
Precursor m/z: 562.9568
Precursor type: [M-H]-
m/z	relative intensity
168.9879	999
