Mass spectrum: Losartan; LC-ESI-QTOF; MS2; CE: Ramp 24.1-36.1 eV; R=35000; [M+H]+
Name: Losartan
Name: [2-butyl-5-chloro-3-[[4-[2-(2H-tetrazol-5-yl)phenyl]phenyl]methyl]imidazol-4-yl]methanol
Formula: C22H23ClN6O
Exact mass: 422.1621870
SMILES: CCCCc1nc(c(n1Cc2ccc(cc2)c3ccccc3c4[nH]nnn4)CO)Cl
InChI: InChI=1S/C22H23ClN6O/c1-2-3-8-20-24-21(23)19(14-30)29(20)13-15-9-11-16(12-10-15)17-6-4-5-7-18(17)22-25-27-28-26-22/h4-7,9-12,30H,2-3,8,13-14H2,1H3,(H,25,26,27,28)
Instrument: Bruker maXis Impact
Instrument type: LC-ESI-QTOF
Ms type: MS2
Ion mode: POSITIVE
Ionization: ESI
Fragmentation mode: CID
Collision energy: Ramp 24.1-36.1 eV
Resolution: 35000
Column name: Acclaim RSLC C18 2.2um, 2.1x100mm, Thermo
Retention time: 8.506 min
Base peak: 423.1687
Precursor m/z: 423.1695
Precursor type: [M+H]+
m/z	relative intensity	assigned
153.0686	5	C12H9+
171.0671	70	C8H12ClN2+
172.0702	7	C7[13]CH12ClN2+
173.0642	20	C8H12[37]ClN2+
178.0768	8	C14H10+
180.0794	49	C13H10N+
181.0824	6	C12[13]CH10N+
189.0775	8	C6H12ClN5+
190.0639	20	C14H8N+
191.0712	6	C6H12ClN4O+
192.0792	78	C14H10N+
193.0828	10	C13[13]CH10N+
196.0747	5	C11H8N4+
205.0743	10	C14H9N2+
206.0827	36	C14H10N2+
207.0907	999	C14H11N2+
208.0937	121	C13[13]CH11N2+
209.0965	7	C12[13]C2H11N2+
235.0971	76	C14H11N4+
236.1005	12	C13[13]CH11N4+
258.1017	25	C17H12N3+
259.0852	8	C15H9N5+
259.1065	5	C16[13]CH12N3+
294.0791	5	C17H13ClN3+
324.148	6	C22H18N3+
341.1748	16	C22H21N4+
362.1402	9	C22H21ClN3+
377.152	18	C22H22ClN4+
378.1554	6	C21[13]CH22ClN4+
379.1496	5	C22H22[37]ClN4+
