Mass spectrum: O-Desvenlafaxine; LC-ESI-QTOF; MS2; CE: 50 eV; R=35000; [M+H]+
Name: O-Desvenlafaxine
Name: Desvenlafaxine
Name: 4-[2-(dimethylamino)-1-(1-hydroxycyclohexyl)ethyl]phenol
Formula: C16H25NO2
Exact mass: 263.1885290
SMILES: CN(C)CC(C1=CC=C(O)C=C1)C1(O)CCCCC1
InChI: InChI=1S/C16H25NO2/c1-17(2)12-15(13-6-8-14(18)9-7-13)16(19)10-4-3-5-11-16/h6-9,15,18-19H,3-5,10-12H2,1-2H3
Instrument: Bruker maXis Impact
Instrument type: LC-ESI-QTOF
Ms type: MS2
Ion mode: POSITIVE
Ionization: ESI
Fragmentation mode: CID
Collision energy: 50 eV
Resolution: 35000
Column name: Acclaim RSLC C18 2.2um, 2.1x100mm, Thermo
Retention time: 4.8 min
Base peak: 264.1959
Precursor m/z: 264.1958
Precursor type: [M+H]+
m/z	relative intensity	assigned
107.0502	21	C7H7O+
115.0539	314	C9H7+
116.0608	78	C9H8+
117.0694	54	C9H9+
120.0561	29	C8H8O+
121.0638	122	C8H9O+
127.0538	158	C10H7+
128.0614	43	C10H8+
129.0691	66	C10H9+
131.0484	238	C9H7O+
131.0844	111	C10H11+
132.0556	94	C9H8O+
133.0639	999	C9H9O+
134.0674	126	C4H10N2O3+
141.0692	217	C11H9+
142.0721	30	C6H10N2O2+
144.056	449	C10H8O+
145.0635	468	C10H9O+
146.0677	45	C5H10N2O3+
147.0791	62	C10H11O+
148.0759	37	C9H10NO+
149.0822	192	C9H11NO+
150.0875	26	C4H12N3O3+
153.0694	32	C12H9+
155.0595	153	C10H7N2+
157.063	63	C11H9O+
158.0713	24	C11H10O+
159.0795	302	C11H11O+
160.0843	47	C6H12N2O3+
162.0908	24	C10H12NO+
163.0982	36	C10H13NO+
164.1048	28	C10H14NO+
169.0742	77	C8H11NO3+
