Mass spectrum: N-Nitrosofenfluramine; LC-ESI-QTOF; MS2; CE: 30 eV; R=35000; [M+H]+
Name: N-Nitrosofenfluramine
Formula: C12H15F3N2O
Exact mass: 260.1136478
SMILES: C1=C(C=C(C=C1)CC(C)N(N=O)CC)C(F)(F)F
InChI: InChI=1S/C12H15F3N2O/c1-3-17(16-18)9(2)7-10-5-4-6-11(8-10)12(13,14)15/h4-6,8-9H,3,7H2,1-2H3
Instrument: Bruker maXis Impact
Instrument type: LC-ESI-QTOF
Ms type: MS2
Ion mode: POSITIVE
Ionization: ESI
Fragmentation mode: CID
Collision energy: 30 eV
Resolution: 35000
Column name: Acclaim RSLC C18 2.2um, 2.1x100mm, Thermo
Retention time: 9.2 min
Base peak: 261.1205
Precursor m/z: 261.1209
Precursor type: [M+H]+
m/z	relative intensity	assigned
109.0447	2	C7H6F+
119.0282	2	C8H4F+
127.0343	1	C7H5F2+
139.0347	5	C8H5F2+
146.0951	2	C10H12N+
147.0592	3	C10H8F+
159.0408	999	C8H6F3+
160.0435	66	C7[13]CH6F3+
167.066	3	C10H9F2+
187.0717	10	C10H10F3+
188.0753	1	C9[13]CH10F3+
210.1083	10	C12H14F2N+
211.1128	1	C11[13]CH14F2N+
