Mass spectrum: 2,2`-Methylenebis(6-tert-butyl-1,4-ethylphenol); GC-APCI-QTOF; MS2; CE: 30 eV; R=35000; [M]+
Name: 2,2`-Methylenebis(6-tert-butyl-1,4-ethylphenol)
Formula: C25H36O2
Exact mass: 368.2715
SMILES: CCC1=CC(=C(C(=C1)C(C)(C)C)O)CC2=C(C(=CC(=C2)CC)C(C)(C)C)O
InChI: InChI=1S/C25H36O2/c1-9-16-11-18(22(26)20(13-16)24(3,4)5)15-19-12-17(10-2)14-21(23(19)27)25(6,7)8/h11-14,26-27H,9-10,15H2,1-8H3
Instrument: Bruker 450 GC coupled to maXis Impact
Instrument type: GC-APCI-QTOF
Ms type: MS2
Ion mode: POSITIVE
Ionization: APCI
Fragmentation mode: CID
Collision energy: 30 eV
Resolution: 35000
Column name: Rxi-5Sil MS column, 30m, 0.25mm i.d., 0.25Âµm film thickness, Restek
Retention time: 24.305 min
Base peak: 368.2718
Precursor m/z: 368.271
Precursor type: [M]+
m/z	relative intensity	assigned
119.0849	24	C9H11+
121.1025	13	C9H13+
122.0725	29	C8H10O+
123.0796	17	C8H11O+
133.102	31	C10H13+
135.0816	236	C9H11O+
135.1171	46	C10H15+
136.0853	21	C9H12O+
145.1024	35	C11H13+
146.1056	15	C11H14+
147.0807	20	C10H11O+
147.1174	52	C11H15+
149.0998	33	C10H13O+
149.1353	29	C11H17+
151.1132	30	C10H15O+
157.1032	13	C12H13+
161.0988	53	C11H13O+
161.1358	28	C12H17+
163.1134	818	C11H15O+
164.117	100	C11H16O+
165.1295	17	C11H17O+
175.1135	541	C12H15O+
176.117	94	C12H16O+
178.1372	442	C12H18O+
179.1428	50	C12H19O+
187.1107	18	C13H15O+
188.1206	13	C13H16O+
190.1373	58	C13H18O+
191.1442	999	C13H19O+
192.1474	158	C13H20O+
255.1381	16	C17H19O2+
256.1448	50	C17H20O2+
257.1532	16	C17H21O2+
295.1686	12	C20H23O2+
297.187	30	C20H25O2+
298.193	14	C20H26O2+
311.2003	60	C21H27O2+
312.209	33	C21H28O2+
313.2199	18	C21H29O2+
