Mass spectrum: Flumioxazin; LC-ESI-QTOF; MS2; CE: 20 eV; R=35000; [M+H]+
Name: Flumioxazin
Name: 2-(7-fluoro-3-oxo-4-prop-2-ynyl-1,4-benzoxazin-6-yl)-4,5,6,7-tetrahydroisoindole-1,3-dione
Formula: C19H15FN2O4
Exact mass: 354.1015852
SMILES: FC1=CC2=C(C=C1N1C(=O)C3=C(CCCC3)C1=O)N(CC#C)C(=O)CO2
InChI: InChI=1S/C19H15FN2O4/c1-2-7-21-15-9-14(13(20)8-16(15)26-10-17(21)23)22-18(24)11-5-3-4-6-12(11)19(22)25/h1,8-9H,3-7,10H2
Instrument: Bruker maXis Impact
Instrument type: LC-ESI-QTOF
Ms type: MS2
Ion mode: POSITIVE
Ionization: ESI
Fragmentation mode: CID
Collision energy: 20 eV
Resolution: 35000
Column name: Acclaim RSLC C18 2.2um, 2.1x100mm, Thermo
Retention time: 8.760 min
Base peak: 420.0948
Precursor m/z: 355.1089
Precursor type: [M+H]+
m/z	relative intensity	assigned
176.0493	37	C13H6N+
204.0433	70	C14H6NO+
236.1269	96	C16H16N2+
299.0812	44	C19H11N2O2+
299.1188	29	C17H16FN2O2+
301.0975	34	C19H13N2O2+
307.107	47	C18H15N2O3+
313.0975	39	C17H14FN2O3+
327.1139	364	C18H16FN2O3+
328.1156	97	C17[13]CH16FN2O3+
355.1092	999	C19H16FN2O4+
356.1125	209	C18[13]CH16FN2O4+
357.1194	32	C17[13]C2H16FN2O4+
