Mass spectrum: Decoquinate; LC-ESI-QTOF; MS2; CE: 40 eV; R=35000; [M+H]+
Name: Decoquinate
Name: ethyl 6-decoxy-7-ethoxy-4-oxo-1H-quinoline-3-carboxylate
Formula: C24H35NO5
Exact mass: 417.2515232
SMILES: CCCCCCCCCCOc1cc2c(cc1OCC)ncc(c2O)C(=O)OCC
InChI: InChI=1S/C24H35NO5/c1-4-7-8-9-10-11-12-13-14-30-21-15-18-20(16-22(21)28-5-2)25-17-19(23(18)26)24(27)29-6-3/h15-17H,4-14H2,1-3H3,(H,25,26)
Instrument: Bruker maXis Impact
Instrument type: LC-ESI-QTOF
Ms type: MS2
Ion mode: POSITIVE
Ionization: ESI
Fragmentation mode: CID
Collision energy: 40 eV
Resolution: 35000
Column name: Acclaim RSLC C18 2.2um, 2.1x100mm, Thermo
Retention time: 13.4 min
Base peak: 418.2597
Precursor m/z: 418.2588
Precursor type: [M+H]+
m/z	relative intensity	assigned
148.0388	9	C8H6NO2+
176.0337	16	C9H6NO3+
203.0218	15	C10H5NO4+
204.0288	231	C10H6NO4+
205.0327	19	C9[13]CH6NO4+
206.0446	78	C10H8NO4+
207.0469	8	C14H7O2+
221.0334	11	C10H7NO5+
222.0394	274	C10H8NO5+
223.0435	21	C9[13]CH8NO5+
232.0605	318	C12H10NO4+
233.064	27	C11[13]CH10NO4+
234.0391	7	C11H8NO5+
234.0758	62	C12H12NO4+
250.0711	525	C12H12NO5+
251.075	40	C11[13]CH12NO5+
252.0757	5	C17[13]C2H8N+
344.1862	23	C20H26NO4+
345.1906	8	C20H27NO4+
362.1972	33	C20H28NO5+
363.2013	5	C20H29NO5+
372.2176	363	C22H30NO4+
373.2204	58	C22H31NO4+
374.2257	8	C20[13]C2H30NO4+
390.2284	999	C22H32NO5+
391.2309	180	C22H33NO5+
392.2335	19	C20[13]C2H32NO5+
