Mass spectrum: Imipramine; LC-ESI-QTOF; MS2; CE: RAMP 20.9-31.3 eV; R=35000; [M+H]+
Name: Imipramine
Name: 3-(5,6-dihydrobenzo[b][1]benzazepin-11-yl)-N,N-dimethylpropan-1-amine
Formula: C19H24N2
Exact mass: 280.1939488
SMILES: CN(C)CCCN1c2ccccc2CCc3c1cccc3
InChI: InChI=1S/C19H24N2/c1-20(2)14-7-15-21-18-10-5-3-8-16(18)12-13-17-9-4-6-11-19(17)21/h3-6,8-11H,7,12-15H2,1-2H3
Instrument: Bruker maXis Impact
Instrument type: LC-ESI-QTOF
Ms type: MS2
Ion mode: POSITIVE
Ionization: ESI
Fragmentation mode: CID
Collision energy: RAMP 20.9-31.3 eV
Resolution: 35000
Column name: Acclaim RSLC C18 2.2um, 2.1x100mm, Thermo
Retention time: 8.180 min
Base peak: 281.2021
Precursor m/z: 281.2012
Precursor type: [M+H]+
m/z	relative intensity	assigned
58.0645	763	C3H8N+
59.0677	22	C2[13]CH8N+
86.0966	999	C5H12N+
87.0993	70	C4[13]CH12N+
193.0882	32	C14H11N+
208.1122	139	C15H14N+
209.1151	24	C14[13]CH14N+
236.143	51	C17H18N+
237.1466	6	C16[13]CH18N+
281.2012	78	C19H25N2+
282.2051	15	C18[13]CH25N2+
