Mass spectrum: Napropamide; LC-ESI-QTOF; MS2; CE: 40 eV; R=35000; [M+H]+
Name: Napropamide
Name: N,N-diethyl-2-naphthalen-1-yloxypropanamide
Formula: C17H21NO2
Exact mass: 271.1572289
SMILES: CCN(CC)C(=O)C(C)OC1=C2C=CC=CC2=CC=C1
InChI: InChI=1S/C17H21NO2/c1-4-18(5-2)17(19)13(3)20-16-12-8-10-14-9-6-7-11-15(14)16/h6-13H,4-5H2,1-3H3
Instrument: Bruker maXis Impact
Instrument type: LC-ESI-QTOF
Ms type: MS2
Ion mode: POSITIVE
Ionization: ESI
Fragmentation mode: CID
Collision energy: 40 eV
Resolution: 35000
Column name: Acclaim RSLC C18 2.2um, 2.1x100mm, Thermo
Retention time: 10.1 min
Base peak: 272.1647
Precursor m/z: 272.1645
Precursor type: [M+H]+
m/z	relative intensity	assigned
114.0903	18	C6H12NO+
115.054	100	C9H7+
116.0592	25	C4H8N2O2+
126.0466	21	C10H6+
127.0531	117	C10H7+
128.1057	97	C7H14NO+
129.0664	267	C5H9N2O2+
129.114	325	C7H15NO+
130.1179	40	C2H16N3O3+
141.0691	94	C11H9+
142.0765	38	C11H10+
143.0847	871	C11H11+
144.0564	145	C10H8O+
144.0881	78	C6H12N2O2+
145.0638	157	C10H9O+
146.0663	33	C5H10N2O3+
151.0532	32	C12H7+
153.0686	640	C12H9+
154.0724	77	C7H10N2O2+
155.0599	235	C10H7N2+
169.0645	63	C12H9O+
170.0709	42	C12H10O+
171.0797	999	C12H11O+
172.0832	140	C7H12N2O3+
173.0852	15	C11H11NO+
179.0592	31	C12H7N2+
181.0755	130	C12H9N2+
182.0787	24	C9H12NO3+
