Mass spectrum: Normianserin; LC-ESI-QTOF; MS2; CE: 30 eV; R=35000; [M+H]+
Name: Normianserin
Name: Desmethylmianserin
Formula: C17H18N2
Exact mass: 250.1469986
SMILES: c1ccc2c(c1)Cc3ccccc3N4C2CNCC4
InChI: InChI=1S/C17H18N2/c1-3-7-15-13(5-1)11-14-6-2-4-8-16(14)19-10-9-18-12-17(15)19/h1-8,17-18H,9-12H2
Instrument: Bruker maXis Impact
Instrument type: LC-ESI-QTOF
Ms type: MS2
Ion mode: POSITIVE
Ionization: ESI
Fragmentation mode: CID
Collision energy: 30 eV
Resolution: 35000
Column name: Acclaim RSLC C18 2.2um, 2.1x100mm, Thermo
Retention time: 7.2 min
Base peak: 251.154
Precursor m/z: 251.1543
Precursor type: [M+H]+
m/z	relative intensity	assigned
115.0536	30	C9H7+
116.0604	5	C9H8+
117.0567	18	C8H7N+
117.0696	21	C9H9+
118.0646	152	C8H8N+
120.08	168	C8H10N+
128.062	7	C10H8+
129.0688	30	C10H9+
131.0705	14	C9H9N+
131.0849	6	C10H11+
132.0799	233	C9H10N+
134.095	16	C9H12N+
143.072	20	C10H9N+
145.086	11	C10H11N+
146.0954	24	C10H12N+
147.0906	148	C9H11N2+
156.0793	7	C11H10N+
160.0972	9	C10H12N2+
166.0751	5	C13H10+
167.0843	5	C13H11+
178.0759	17	C14H10+
179.0842	39	C14H11+
181.0992	12	C14H13+
191.0847	5	C15H11+
194.0942	43	C14H12N+
196.1111	29	C14H14N+
204.0797	19	C15H10N+
205.0868	18	C15H11N+
207.1015	21	C15H13N+
208.1118	999	C15H14N+
209.1147	141	C14[13]CH14N+
210.1183	9	C13[13]C2H14N+
218.0959	21	C16H12N+
219.103	25	C16H13N+
220.1111	18	C16H14N+
221.1096	8	C15H13N2+
223.1243	13	C15H15N2+
224.1278	5	C15H16N2+
232.1114	8	C17H14N+
234.1267	58	C17H16N+
249.1382	54	C17H17N2+
251.1536	196	C17H19N2+
