Mass spectrum: Isoxaben; LC-ESI-QTOF; MS2; CE: 30 eV; R=35000; [M+H]+
Name: Isoxaben
Name: 2,6-dimethoxy-N-[3-(3-methylpentan-3-yl)-1,2-oxazol-5-yl]benzamide
Formula: C18H24N2O4
Exact mass: 332.1736072
SMILES: CCC(C)(CC)C1=NOC(NC(=O)C2=C(OC)C=CC=C2OC)=C1
InChI: InChI=1S/C18H24N2O4/c1-6-18(3,7-2)14-11-15(24-20-14)19-17(21)16-12(22-4)9-8-10-13(16)23-5/h8-11H,6-7H2,1-5H3,(H,19,21)
Instrument: Bruker maXis Impact
Instrument type: LC-ESI-QTOF
Ms type: MS2
Ion mode: POSITIVE
Ionization: ESI
Fragmentation mode: CID
Collision energy: 30 eV
Resolution: 35000
Column name: Acclaim RSLC C18 2.2um, 2.1x100mm, Thermo
Retention time: 9.480 min
Base peak: 333.1814
Precursor m/z: 333.1809
Precursor type: [M+H]+
m/z	relative intensity	assigned
122.0354	13	C7H6O2+
150.03	79	C8H6O3+
151.0333	6	C7[13]CH6O3+
165.0543	999	C9H9O3+
166.057	133	C8[13]CH9O3+
167.0586	11	C8H9NO3+
168.0403	10	C8H8O4+
