Mass spectrum: Propyzamide; LC-ESI-QTOF; MS2; CE: 10 eV; R=35000; [M+H]+
Name: Propyzamide
Name: 3,5-dichloro-N-(2-methylbut-3-yn-2-yl)benzamide
Formula: C12H11Cl2NO
Exact mass: 255.0217693
SMILES: CC(C)(NC(=O)C1=CC(Cl)=CC(Cl)=C1)C#C
InChI: InChI=1S/C12H11Cl2NO/c1-4-12(2,3)15-11(16)8-5-9(13)7-10(14)6-8/h1,5-7H,2-3H3,(H,15,16)
Instrument: Bruker maXis Impact
Instrument type: LC-ESI-QTOF
Ms type: MS2
Ion mode: POSITIVE
Ionization: ESI
Fragmentation mode: CID
Collision energy: 10 eV
Resolution: 35000
Column name: Acclaim RSLC C18 2.2um, 2.1x100mm, Thermo
Retention time: 9.743 min
Base peak: 256.0289
Precursor m/z: 256.029
Precursor type: [M+H]+
m/z	relative intensity	assigned
172.9547	79	C7H3Cl2O+
173.9576	6	C6[13]CH3Cl2O+
174.9517	47	C7H3Cl[37]ClO+
189.9818	945	C7H6Cl2NO+
190.9845	50	C6[13]CH6Cl2NO+
191.9785	478	C7H6Cl[37]ClNO+
256.0288	999	C12H12Cl2NO+
257.0319	97	C11[13]CH12Cl2NO+
258.026	466	C12H12Cl[37]ClNO+
