Mass spectrum: IQ; LC-ESI-QTOF; MS2; CE: 30 eV; R=35000; [M-H]-
Name: IQ
Name: 2-Amino-3-methylimidazo[4,5-f]quinoline
Name: 3-methylimidazo[4,5-f]quinolin-2-amine
Formula: C11H10N4
Exact mass: 198.0905463
SMILES: CN1C(N)=NC2=C1C=CC1=NC=CC=C21
InChI: InChI=1S/C11H10N4/c1-15-9-5-4-8-7(3-2-6-13-8)10(9)14-11(15)12/h2-6H,1H3,(H2,12,14)
Instrument: Bruker maXis Impact
Instrument type: LC-ESI-QTOF
Ms type: MS2
Ion mode: NEGATIVE
Ionization: ESI
Fragmentation mode: CID
Collision energy: 30 eV
Resolution: 35000
Column name: Acclaim RSLC C18 2.2um, 2.1x100mm, Thermo
Retention time: 5.051 min
Base peak: 197.082
Precursor m/z: 197.0833
Precursor type: [M-H]-
m/z	relative intensity	assigned
182.0624	999	C10H6N4-
