Mass spectrum: Dimethenamid-OXA; LC-ESI-QTOF; MS2; CE: 30 eV; R=35000; [M+H]+
Name: Dimethenamid-OXA
Name: 2-[(2,4-dimethylthiophen-3-yl)-(1-methoxypropan-2-yl)amino]-2-oxoacetic acid
Formula: C12H17NO4S
Exact mass: 271.0878290
SMILES: COCC(C)N(C(=O)C(O)=O)c1c(C)csc1C
InChI: InChI=1S/C12H17NO4S/c1-7-6-18-9(3)10(7)13(8(2)5-17-4)11(14)12(15)16/h6,8H,5H2,1-4H3,(H,15,16)
Instrument: Bruker maXis Impact
Instrument type: LC-ESI-QTOF
Ms type: MS2
Ion mode: POSITIVE
Ionization: ESI
Fragmentation mode: CID
Collision energy: 30 eV
Resolution: 35000
Column name: Acclaim RSLC C18 2.2um, 2.1x100mm, Thermo
Retention time: 6.0 min
Base peak: 150.1114
Precursor m/z: 272.0951
Precursor type: [M+H]+
m/z	relative intensity	assigned
111.0264	121	C6H7S+
125.0402	73	C10H5+
126.036	937	C6H8NS+
127.0399	74	C6H7O3+
128.0516	76	C6H10NS+
129.0366	56	C6H9OS+
132.08	54	C9H10N+
133.0872	107	C6H13O3+
134.0936	58	C6H14O3+
135.1038	186	C9H13N+
136.0222	51	C7H6NS+
138.0358	553	C4H10O3S+
139.0389	63	C7H7O3+
151.056	56	C9H11S+
152.0166	111	C7H6NOS+
152.0511	220	C5H12O3S+
153.0233	73	C7H7NOS+
153.0584	157	C5H13O3S+
154.0312	602	C7H8NOS+
155.0346	58	C7H7O4+
156.0487	51	C7H10NOS+
166.067	246	C6H14O3S+
167.0738	160	C6H15O3S+
168.0826	721	C6H16O3S+
169.0867	91	C9H13O3+
194.0631	79	C10H12NOS+
196.078	174	C10H14NOS+
212.0716	66	C10H14NO2S+
240.0683	999	C11H14NO3S+
241.0718	121	C10[13]CH14NO3S+
242.0651	80	C11H14NO3[34]S+
