Mass spectrum: Tri-isobutylphosphate; LC-ESI-QTOF; MS2; CE: 30 eV; R=35000; [M+H]+
Name: Tri-isobutylphosphate
Name: Triisobutyl phosphate
Name: tris(2-methylpropyl) phosphate
Formula: C12H27O4P
Exact mass: 266.1646960
SMILES: CC(C)COP(=O)(OCC(C)C)OCC(C)C
InChI: InChI=1S/C12H27O4P/c1-10(2)7-14-17(13,15-8-11(3)4)16-9-12(5)6/h10-12H,7-9H2,1-6H3
Instrument: Bruker maXis Impact
Instrument type: LC-ESI-QTOF
Ms type: MS2
Ion mode: POSITIVE
Ionization: ESI
Fragmentation mode: CID
Collision energy: 30 eV
Resolution: 35000
Column name: Acclaim RSLC C18 2.2um, 2.1x100mm, Thermo
Retention time: 11.571 min
Base peak: 267.1715
Precursor m/z: 267.172
Precursor type: [M+H]+
m/z	relative intensity	assigned
155.0464	999	C4H12O4P+
