Mass spectrum: Nitrazepam; LC-ESI-QTOF; MS2; CE: RAMP 21.0-31.4 eV; R=35000; [M+H]+
Name: Nitrazepam
Name: 7-nitro-5-phenyl-1,3-dihydro-1,4-benzodiazepin-2-one
Formula: C15H11N3O3
Exact mass: 281.0800412
SMILES: c1ccc(cc1)C2=NCC(=Nc3c2cc(cc3)[N+](=O)[O-])O
InChI: InChI=1S/C15H11N3O3/c19-14-9-16-15(10-4-2-1-3-5-10)12-8-11(18(20)21)6-7-13(12)17-14/h1-8H,9H2,(H,17,19)
Instrument: Bruker maXis Impact
Instrument type: LC-ESI-QTOF
Ms type: MS2
Ion mode: POSITIVE
Ionization: ESI
Fragmentation mode: CID
Collision energy: RAMP 21.0-31.4 eV
Resolution: 35000
Column name: Acclaim RSLC C18 2.2um, 2.1x100mm, Thermo
Retention time: 7.894 min
Base peak: 314.0949
Precursor m/z: 282.0873
Precursor type: [M+H]+
m/z	relative intensity	assigned
60.0545	22	CH6N3+
158.0474	11	C9H6N2O+
176.0456	18	C8H6N3O2+
180.0797	68	C13H10N+
181.0822	12	C8H11N3O2+
193.0853	16	C9H11N3O2+
195.0937	12	C13H11N2+
196.076	15	C13H10NO+
207.0912	69	C14H11N2+
208.0975	42	C14H12N2+
235.0857	35	C15H11N2O+
236.0947	363	C15H12N2O+
237.0972	54	C14[13]CH12N2O+
240.0905	32	C14H12N2O2+
251.0794	24	C15H11N2O2+
254.0951	25	C14H12N3O2+
268.0854	656	C15H12N2O3+
269.0871	89	C14[13]CH12N2O3+
270.086	12	C14H12N3O3+
282.0883	999	C15H12N3O3+
283.092	165	C14[13]CH12N3O3+
