Mass spectrum: Butylparaben; LC-ESI-QTOF; MS2; CE: 30 eV; R=35000; [M+H]+
Name: Butylparaben
Name: butyl 4-hydroxybenzoate
Formula: C11H14O3
Exact mass: 194.0942943
SMILES: CCCCOC(=O)C1=CC=C(O)C=C1
InChI: InChI=1S/C11H14O3/c1-2-3-8-14-11(13)9-4-6-10(12)7-5-9/h4-7,12H,2-3,8H2,1H3
Instrument: Bruker maXis Impact
Instrument type: LC-ESI-QTOF
Ms type: MS2
Ion mode: POSITIVE
Ionization: ESI
Fragmentation mode: CID
Collision energy: 30 eV
Resolution: 35000
Column name: Acclaim RSLC C18 2.2um, 2.1x100mm, Thermo
Retention time: 9.453 min
Base peak: 195.1009
Precursor m/z: 195.1016
Precursor type: [M+H]+
m/z	relative intensity	assigned
121.0278	999	C7H5O2+
139.0381	500	C7H7O3+
