Mass spectrum: Metoprolol; LC-ESI-QTOF; MS2; CE: 30 eV; R=35000; [M+H]+
Name: Metoprolol
Name: 1-[4-(2-methoxyethyl)phenoxy]-3-(propan-2-ylamino)propan-2-ol
Formula: C15H25NO3
Exact mass: 267.1834437
SMILES: COCCC1=CC=C(OCC(O)CNC(C)C)C=C1
InChI: InChI=1S/C15H25NO3/c1-12(2)16-10-14(17)11-19-15-6-4-13(5-7-15)8-9-18-3/h4-7,12,14,16-17H,8-11H2,1-3H3
Instrument: Bruker maXis Impact
Instrument type: LC-ESI-QTOF
Ms type: MS2
Ion mode: POSITIVE
Ionization: ESI
Fragmentation mode: CID
Collision energy: 30 eV
Resolution: 35000
Column name: Acclaim RSLC C18 2.2um, 2.1x100mm, Thermo
Retention time: 4.762 min
Base peak: 268.1908
Precursor m/z: 268.1907
Precursor type: [M+H]+
m/z	relative intensity	assigned
115.0535	25	C9H7+
116.0617	15	C9H8+
116.1063	91	C6H14NO+
117.069	16	C9H9+
117.1095	8	C5[13]CH14NO+
119.0847	20	C9H11+
120.0562	13	C8H8O+
121.0641	455	C8H9O+
122.0671	40	C7[13]CH9O+
128.0613	8	C10H8+
129.0689	45	C10H9+
130.0722	6	C9[13]CH9+
131.0478	31	C9H7O+
131.0846	159	C10H11+
132.0877	18	C9[13]CH11+
133.0639	999	C9H9O+
134.0672	88	C8[13]CH9O+
135.0793	71	C9H11O+
141.0684	59	C11H9+
142.0739	6	C10[13]CH9+
144.0558	101	C10H8O+
145.0597	11	C9[13]CH8O+
147.0791	104	C10H11O+
148.0746	232	C9H10NO+
149.0587	13	C9H9O2+
149.0775	22	C8[13]CH10NO+
149.0955	9	C10H13O+
151.0741	44	C9H11O2+
152.0785	5	C8[13]CH11O2+
157.0632	5	C11H9O+
158.0714	5	C11H10O+
158.0958	7	C11H12N+
159.0793	689	C11H11O+
160.0827	80	C10[13]CH11O+
161.0944	25	C11H13O+
163.1105	31	C11H15O+
165.0897	240	C10H13O2+
166.0935	26	C9[13]CH13O2+
169.0745	23	C8H11NO3+
175.1099	5	C12H15O+
176.106	122	C11H14NO+
177.0898	126	C11H13O2+
177.1089	18	C10[13]CH14NO+
178.0928	15	C10[13]CH13O2+
179.1049	41	C11H15O2+
191.1056	337	C12H15O2+
192.1086	41	C11[13]CH15O2+
194.1161	37	C11H16NO2+
195.1216	5	C10[13]CH16NO2+
201.1277	6	C14H17O+
218.1529	31	C14H20NO+
219.1563	7	C13[13]CH20NO+
226.143	49	C12H20NO3+
227.1452	6	C11[13]CH20NO3+
250.1787	9	C15H24NO2+
268.1899	249	C15H26NO3+
269.1933	34	C14[13]CH26NO3+
