Mass spectrum: Tepraloxydim; LC-ESI-QTOF; MS2; CE: 20 eV; R=35000; [M-H]-
Name: Tepraloxydim
Name: Tepraloxydim [ISO]
Name: 2-[N-[(E)-3-chloroprop-2-enoxy]-C-ethylcarbonimidoyl]-3-hydroxy-5-(oxan-4-yl)cyclohex-2-en-1-one
Formula: C17H24ClNO4
Exact mass: 341.1393859
SMILES: [H]\C(Cl)=C(\[H])CON=C(CC)C1=C(O)CC(CC1=O)C1CCOCC1
InChI: InChI=1S/C17H24ClNO4/c1-2-14(19-23-7-3-6-18)17-15(20)10-13(11-16(17)21)12-4-8-22-9-5-12/h3,6,12-13,20H,2,4-5,7-11H2,1H3/b6-3+,19-14?
Instrument: Bruker maXis Impact
Instrument type: LC-ESI-QTOF
Ms type: MS2
Ion mode: NEGATIVE
Ionization: ESI
Fragmentation mode: CID
Collision energy: 20 eV
Resolution: 35000
Column name: Acclaim RSLC C18 2.2um, 2.1x100mm, Thermo
Retention time: 5.256 min
Base peak: 340.131
Precursor m/z: 340.1321
Precursor type: [M-H]-
m/z	relative intensity	assigned
126.0193	26	C5H4NO3-
134.0254	17	C7H4NO2-
139.0281	13	C6H5NO3-
152.0367	14	C7H6NO3-
153.0427	101	C7H7NO3-
153.0912	7	C9H13O2-
154.0492	13	C6[13]CH7NO3-
180.0661	207	C9H10NO3-
181.0696	23	C8[13]CH10NO3-
185.0314	89	C14H3N-
186.033	9	C13[13]CH3N-
195.1018	107	C8H18ClNO2-
196.106	12	C7[13]CH18ClNO2-
208.0984	8	C11H14NO3-
213.0649	12	C11H14ClO2-
214.0654	7	C16H8N-
220.0973	999	C12H14NO3-
221.0994	91	C11[13]CH14NO3-
222.1041	19	C16H14O-
233.122	8	C17H15N-
248.1298	38	C14H18NO3-
249.1293	6	C13[13]CH18NO3-
249.1367	6	C13[13]CH18NO3-
250.1441	709	C14H20NO3-
251.1492	92	C13[13]CH20NO3-
252.1467	11	C12[13]C2H20NO3-
265.1307	13	C14H19NO4-
340.13	323	C17H23ClNO4-
341.1348	61	C16[13]CH23ClNO4-
342.1276	111	C17H23[37]ClNO4-
