Mass spectrum: Ethyl azinphos; LC-ESI-QTOF; MS2; CE: 30 eV; R=35000; [M+H]+
Name: Ethyl azinphos
Name: Azinphos-ethyl
Name: 3-(diethoxyphosphinothioylsulfanylmethyl)-1,2,3-benzotriazin-4-one
Formula: C12H16N3O3PS2
Exact mass: 345.0370700
SMILES: CCOP(=S)(OCC)SCN1N=NC2=CC=CC=C2C1=O
InChI: InChI=1S/C12H16N3O3PS2/c1-3-17-19(20,18-4-2)21-9-15-12(16)10-7-5-6-8-11(10)13-14-15/h5-8H,3-4,9H2,1-2H3
Instrument: Bruker maXis Impact
Instrument type: LC-ESI-QTOF
Ms type: MS2
Ion mode: POSITIVE
Ionization: ESI
Fragmentation mode: CID
Collision energy: 30 eV
Resolution: 35000
Column name: Acclaim RSLC C18 2.2um, 2.1x100mm, Thermo
Retention time: 10.265 min
Base peak: 346.0442
Precursor m/z: 346.0443
Precursor type: [M+H]+
m/z	relative intensity	assigned
124.9807	15	H4N3OPS+
132.0436	999	C8H6NO+
133.0468	80	C7[13]CH6NO+
134.0483	5	C6[13]C2H6NO+
136.0217	6	C7H6NS+
137.0043	204	C5H3N3S+
138.0077	16	C4[13]CH3N3S+
139	8	C5H3N3[34]S+
142.9371	106	CH4O2PS2+
144.9335	11	CH4O2PS[34]S+
148.0199	10	CH11NO3PS+
150.0538	49	C6H14S2+
151.0569	5	C5[13]CH14S2+
152.9813	6	H10O3PS2+
152.9991	16	C5H3N3OS+
153.0116	7	C6H5N2OS+
160.0493	68	C8H6N3O+
161.0535	6	C7[13]CH6N3O+
166.0321	7	C8H8NOS+
168.9773	5	C7H5OS2+
170.9687	15	CH6N3OPS2+
171.0225	8	C2H10N3O2PS+
172.9801	6	C8HN2OS+
198.0129	13	C4H10N2O3S2+
199.0003	5	C3H10N3OPS2+
214.9382	14	C7H4O2PS2+
216.9701	12	C9HN2O3S+
232.9486	56	C9HN2O2S2+
234.9431	7	C9HN2O2S[34]S+
240.0614	11	C11H15NOPS+
245.9816	9	C8H9NO2PS2+
247.0137	5	C10H6N3O3P+
259.0141	6	C11H6N3O3P+
288.0278	10	C11H15NO2PS2+
