Mass spectrum: Cetirizine N-Oxide; LC-ESI-QTOF; MS2; CE: 50 eV; R=35000; [M+H]+
Name: Cetirizine N-Oxide
Name: (R)-Cetirizine N-Oxide
Name: 2-[2-[4-[(4-chlorophenyl)-phenylmethyl]-1-oxidopiperazin-1-ium-1-yl]ethoxy]acetic acid
Formula: C21H25ClN2O4
Exact mass: 404.1502850
SMILES: OC(=O)COCC[N+]1([O-])CCN(CC1)C(C1=CC=CC=C1)C1=CC=C(Cl)C=C1
InChI: InChI=1S/C21H25ClN2O4/c22-19-8-6-18(7-9-19)21(17-4-2-1-3-5-17)23-10-12-24(27,13-11-23)14-15-28-16-20(25)26/h1-9,21H,10-16H2,(H,25,26)
Instrument: Bruker maXis Impact
Instrument type: LC-ESI-QTOF
Ms type: MS2
Ion mode: POSITIVE
Ionization: ESI
Fragmentation mode: CID
Collision energy: 50 eV
Resolution: 35000
Column name: Acclaim RSLC C18 2.2um, 2.1x100mm, Thermo
Retention time: 8.9 min
Base peak: 150.1116
Precursor m/z: 405.1576
Precursor type: [M+H]+
m/z	relative intensity	assigned
132.0649	50	C5H10NO3+
138.0222	21	C8H7Cl+
146.0808	18	C6H12NO3+
153.069	13	C12H9+
164.062	14	C13H8+
166.0768	945	C13H10+
179.0852	37	C14H11+
183.0793	30	C7H16ClO3+
187.1063	45	C8H15N2O3+
193.0747	52	C7H14ClN2O2+
194.0749	14	C11H13ClN+
199.0335	14	C13H8Cl+
201.0459	999	C13H10Cl+
203.0433	263	C13H10[37]Cl+
206.0956	35	C15H12N+
228.0573	151	C14H11ClN+
229.0599	25	C12H9N2O3+
230.0537	45	C14H11[37]ClN+
240.058	49	C15H11ClN+
241.0602	19	C13H9N2O3+
242.0563	17	C14H10O4+
242.0732	60	C15H13ClN+
244.07	21	C14H12O4+
299.128	18	C18H19O4+
