Mass spectrum: Citalopram; LC-ESI-QTOF; MS2; CE: Ramp 22.1-33.2 eV; R=35000; [M+H]+
Name: Citalopram
Name: 1-[3-(dimethylamino)propyl]-1-(4-fluorophenyl)-3H-2-benzofuran-5-carbonitrile
Formula: C20H21FN2O
Exact mass: 324.1637915
SMILES: CN(C)CCCC1(OCC2=CC(=CC=C12)C#N)C1=CC=C(F)C=C1
InChI: InChI=1S/C20H21FN2O/c1-23(2)11-3-10-20(17-5-7-18(21)8-6-17)19-9-4-15(13-22)12-16(19)14-24-20/h4-9,12H,3,10-11,14H2,1-2H3
Instrument: Bruker maXis Impact
Instrument type: LC-ESI-QTOF
Ms type: MS2
Ion mode: POSITIVE
Ionization: ESI
Fragmentation mode: CID
Collision energy: Ramp 22.1-33.2 eV
Resolution: 35000
Column name: Acclaim RSLC C18 2.2um, 2.1x100mm, Thermo
Retention time: 6.324 min
Base peak: 325.1717
Precursor m/z: 325.1711
Precursor type: [M+H]+
m/z	relative intensity	assigned
58.0647	85	C3H8N+
72.0801	5	C4H10N+
84.0803	18	C5H10N+
109.0463	999	C7H6F+
110.0492	87	C6[13]CH6F+
116.0502	145	C8H6N+
117.0532	11	C7[13]CH6N+
121.0445	8	C8H6F+
123.0241	14	C7H4FO+
123.0608	5	C8H8F+
129.0694	7	C10H9+
130.0653	7	C9H8N+
140.049	12	C10H6N+
142.0648	5	C10H8N+
144.0441	10	C9H6NO+
154.0644	7	C11H8N+
156.0801	29	C11H10N+
166.0645	79	C12H8N+
167.0676	9	C11[13]CH8N+
184.0747	6	C12H10NO+
215.085	11	C17H11+
218.0593	6	C15H8NO+
220.0681	5	C16H9F+
221.0632	50	C15H8FN+
222.0703	38	C15H9FN+
223.0744	5	C14[13]CH9FN+
227.073	30	C17H9N+
228.0764	5	C16[13]CH9N+
233.0755	6	C17H10F+
234.0714	191	C16H9FN+
235.0748	33	C15[13]CH9FN+
235.09	25	C17H12F+
236.0874	20	C16H11FN+
238.066	42	C18H8N+
239.0689	5	C17[13]CH8N+
240.0798	7	C18H10N+
241.0883	10	C18H11N+
242.096	53	C18H12N+
243.0993	8	C17[13]CH12N+
246.0721	10	C17H9FN+
247.0792	135	C17H10FN+
248.082	23	C16[13]CH10FN+
250.1021	32	C17H13FN+
251.1052	5	C16[13]CH13FN+
260.0871	14	C18H11FN+
261.0941	12	C18H12FN+
262.1031	626	C18H13FN+
263.1061	109	C17[13]CH13FN+
264.1097	9	C16[13]C2H13FN+
280.1129	39	C18H15FNO+
281.1164	8	C17[13]CH15FNO+
307.1606	56	C20H20FN2+
308.1637	11	C19[13]CH20FN2+
325.1719	762	C20H22FN2O+
326.1749	223	C19[13]CH22FN2O+
327.1775	20	C18[13]C2H22FN2O+
