Mass spectrum: Theophyllin; LC-ESI-QTOF; MS2; CE: 20 eV; R=35000; [M+H]+
Name: Theophyllin
Name: Theophylline
Name: 1,3-dimethyl-7H-purine-2,6-dione
Formula: C7H8N4O2
Exact mass: 180.0647255
SMILES: CN1C2=C(NC=N2)C(=O)N(C)C1=O
InChI: InChI=1S/C7H8N4O2/c1-10-5-4(8-3-9-5)6(12)11(2)7(10)13/h3H,1-2H3,(H,8,9)
Instrument: Bruker maXis Impact
Instrument type: LC-ESI-QTOF
Ms type: MS2
Ion mode: POSITIVE
Ionization: ESI
Fragmentation mode: CID
Collision energy: 20 eV
Resolution: 35000
Column name: Acclaim RSLC C18 2.2um, 2.1x100mm, Thermo
Retention time: 3.929 min
Base peak: 181.0708
Precursor m/z: 181.072
Precursor type: [M+H]+
m/z	relative intensity	assigned
120.0526	7	C6H6N3+
124.0494	724	C5H6N3O+
125.0526	41	C4[13]CH6N3O+
126.0539	6	C4H6N4O+
137.0808	46	C6H9N4+
142.0612	11	C5H8N3O2+
149.0447	8	C6H5N4O+
163.0581	7	C7H7N4O+
181.0707	999	C7H9N4O2+
182.0742	91	C6[13]CH9N4O2+
