Mass spectrum: Chlorpropham; LC-ESI-QTOF; MS2; CE: Ramp 18.5-27.8 eV; R=35000; [M+H]+
Name: Chlorpropham
Name: propan-2-yl N-(3-chlorophenyl)carbamate
Formula: C10H12ClNO2
Exact mass: 213.0556563
SMILES: CC(C)OC(=O)NC1=CC(Cl)=CC=C1
InChI: InChI=1S/C10H12ClNO2/c1-7(2)14-10(13)12-9-5-3-4-8(11)6-9/h3-7H,1-2H3,(H,12,13)
Instrument: Bruker maXis Impact
Instrument type: LC-ESI-QTOF
Ms type: MS2
Ion mode: POSITIVE
Ionization: ESI
Fragmentation mode: CID
Collision energy: Ramp 18.5-27.8 eV
Resolution: 35000
Column name: Acclaim RSLC C18 2.2um, 2.1x100mm, Thermo
Retention time: 9.805 min
Base peak: 102.1286
Precursor m/z: 214.0629
Precursor type: [M+H]+
m/z	relative intensity	assigned
116.0263	10	C5H7ClN+
124.0858	41	C8H12O+
126.0097	321	C6H5ClN+
127.0136	12	C5[13]CH5ClN+
128.0067	83	C6H5[37]ClN+
128.0259	25	C6H7ClN+
129.0085	16	C6H6ClO+
130.0223	10	C6H7[37]ClN+
139.0053	25	C9HNO+
144.0572	30	C10H8O+
154.0042	999	C7H5ClNO+
155.0073	38	C6[13]CH5ClNO+
156.0012	196	C7H5[37]ClNO+
157.0045	20	C7H6ClO2+
172.0147	798	C7H7ClNO2+
173.019	60	C6[13]CH7ClNO2+
174.0116	162	C7H7[37]ClNO2+
175.015	11	C10H6ClN+
