Mass spectrum: 2-Hydroxy-2-methylpropiophenone; GC-APCI-QTOF; MS2; CE: 10 eV; R=35000; [M+H]+
Name: 2-Hydroxy-2-methylpropiophenone
Formula: C10H12O2
Exact mass: 164.0837
SMILES: CC(C)(C(=O)C1=CC=CC=C1)O
InChI: InChI=1S/C10H12O2/c1-10(2,12)9(11)8-6-4-3-5-7-8/h3-7,12H,1-2H3
Instrument: Bruker 450 GC coupled to maXis Impact
Instrument type: GC-APCI-QTOF
Ms type: MS2
Ion mode: POSITIVE
Ionization: APCI
Fragmentation mode: CID
Collision energy: 10 eV
Resolution: 35000
Column name: Rxi-5Sil MS column, 30m, 0.25mm i.d., 0.25Âµm film thickness, Restek
Retention time: 10.450 min
Base peak: 147.0813
Precursor m/z: 165.091
Precursor type: [M+H]+
m/z	relative intensity	assigned
119.0849	999	C9H11+
128.0634	6	C10H8+
129.0702	77	C10H9+
130.0767	9	C10H10+
147.0818	440	C10H11O+
148.0858	25	C10H12O+
163.0769	9	C10H11O2+
165.0918	31	C10H13O2+
