Mass spectrum: Dibutylhydroxytoluene; LC-ESI-QTOF; MS2; CE: 40 eV; R=35000; [M+H]+
Name: Dibutylhydroxytoluene
Name: 2,6-Di-tert-butyl-4-methylphenol
Name: 2,6-ditert-butyl-4-methylphenol
Formula: C15H24O
Exact mass: 220.1827154
SMILES: CC1=CC(=C(O)C(=C1)C(C)(C)C)C(C)(C)C
InChI: InChI=1S/C15H24O/c1-10-8-11(14(2,3)4)13(16)12(9-10)15(5,6)7/h8-9,16H,1-7H3
Instrument: Bruker maXis Impact
Instrument type: LC-ESI-QTOF
Ms type: MS2
Ion mode: POSITIVE
Ionization: ESI
Fragmentation mode: CID
Collision energy: 40 eV
Resolution: 35000
Column name: Acclaim RSLC C18 2.2um, 2.1x100mm, Thermo
Retention time: 11.176 min
Base peak: 223.0623
Precursor m/z: 221.19
Precursor type: [M+H]+
m/z	relative intensity	assigned
133.0106	999	C11H+
