Mass spectrum: Marbofloxacin; LC-ESI-QTOF; MS2; CE: Ramp 22.8-34.3 eV; R=35000; [M+H]+
Name: Marbofloxacin
Name: 9-Fluoro-3-methyl-10-(4-methyl-1-piperazinyl)-7-oxo-2,3-dihydro-7H-[1,3,4]oxadiazino[6,5,4-ij]quinoline-6-carboxylic acid
Formula: C17H19FN4O4
Exact mass: 362.1390
SMILES: CN1CCN(CC1)c2c(cc3c4c2OCN(n4cc(c3=O)C(=O)O)C)F
InChI: InChI=1S/C17H19FN4O4/c1-19-3-5-21(6-4-19)14-12(18)7-10-13-16(14)26-9-20(2)22(13)8-11(15(10)23)17(24)25/h7-8H,3-6,9H2,1-2H3,(H,24,25)
Instrument: Bruker maXis Impact
Instrument type: LC-ESI-QTOF
Ms type: MS2
Ion mode: POSITIVE
Ionization: ESI
Fragmentation mode: CID
Collision energy: Ramp 22.8-34.3 eV
Resolution: 35000
Column name: Acclaim RSLC C18 2.2um, 2.1x100mm, Thermo
Retention time: 4.2 min
Base peak: 102.1289
Precursor m/z: 363.1463
Precursor type: [M+H]+
m/z	relative intensity	assigned
70.0647	168	C4H8N+
72.0808	944	C4H10N+
149.0241	41	C5H6FO4+
192.0446	89	C13H6NO+
204.0448	66	C14H6NO+
205.0422	179	C10H6FN2O2+
206.0444	39	C5H7FN4O4+
213.0673	39	C9H10FN2O3+
219.0565	63	C11H8FN2O2+
233.0729	171	C12H10FN2O2+
248.0343	41	C15H6NO3+
249.0334	70	C14H4FN3O+
261.1042	212	C14H14FN2O2+
262.1042	65	C12H14N4O3+
274.0679	36	C12H10N4O4+
276.1155	78	C16H17FO3+
277.0634	233	C16H8FN3O+
278.0681	50	C16H10N2O3+
318.1624	230	C15H19FN6O+
319.1697	51	C15H20FN6O+
320.1064	703	C15H15FN3O4+
321.1092	120	C15H16FN3O4+
345.1411	70	C17H18FN4O3+
361.1513	65	C17H20FN5O3+
363.1499	999	C17H20FN4O4+
364.1532	262	C15H20N6O5+
365.1623	62	C16H20FN5O4+
