Mass spectrum: Azoxystrobin acid; LC-ESI-QTOF; MS2; CE: Ramp 23.4-35.1 eV; R=35000; [M+H]+
Name: Azoxystrobin acid
Name: (E)-2-[2-[6-(2-cyanophenoxy)pyrimidin-4-yl]oxyphenyl]-3-methoxyprop-2-enoic acid
Formula: C21H15N3O5
Exact mass: 389.1011706
SMILES: CO\C=C(\C(O)=O)c1ccccc1Oc1cc(Oc2ccccc2C#N)ncn1
InChI: InChI=1S/C21H15N3O5/c1-27-12-16(21(25)26)15-7-3-5-9-18(15)29-20-10-19(23-13-24-20)28-17-8-4-2-6-14(17)11-22/h2-10,12-13H,1H3,(H,25,26)/b16-12+
Instrument: Bruker maXis Impact
Instrument type: LC-ESI-QTOF
Ms type: MS2
Ion mode: POSITIVE
Ionization: ESI
Fragmentation mode: CID
Collision energy: Ramp 23.4-35.1 eV
Resolution: 35000
Column name: Acclaim RSLC C18 2.2um, 2.1x100mm, Thermo
Retention time: 8.101 min
Base peak: 390.108
Precursor m/z: 390.1084
Precursor type: [M+H]+
m/z	relative intensity	assigned
129.0445	5	C8H5N2+
134.059	29	C8H8NO+
143.0589	17	C6H9NO3+
145.027	10	C7H3N3O+
156.0428	7	C7H8O4+
162.0536	6	C9H8NO2+
169.0378	13	C7H7NO4+
171.0539	12	C7H9NO4+
172.0376	30	C7H8O5+
173.0431	6	C5H7N3O4+
177.0526	12	C8H7N3O2+
182.0699	5	C8H10N2O3+
183.0538	35	C8H9NO4+
186.0529	5	C8H10O5+
187.0491	7	C10H7N2O2+
199.0491	5	C11H7N2O2+
200.0323	6	C11H6NO3+
201.0404	23	C11H7NO3+
201.0645	25	C8H11NO5+
202.046	6	C6H8N3O5+
210.0409	11	C9H8NO5+
210.065	22	C12H8N3O+
211.0699	6	C9H11N2O4+
216.0647	51	C12H10NO3+
217.0677	6	C11[13]CH10NO3+
242.0312	8	C12H6N2O4+
272.0805	9	C14H12N2O4+
273.0672	7	C17H9N2O2+
273.0889	10	C17H11N3O+
287.0808	16	C18H11N2O2+
288.0633	5	C13H10N3O5+
288.0857	6	C15H14NO5+
288.1128	5	C18H14N3O+
289.0971	8	C18H13N2O2+
300.0766	11	C18H10N3O2+
301.0837	66	C18H11N3O2+
302.0879	13	C17[13]CH11N3O2+
303.0758	14	C18H11N2O3+
312.0762	7	C19H10N3O2+
314.0922	11	C19H12N3O2+
315.0971	15	C16H15N2O5+
316.1074	55	C16H16N2O5+
317.0969	11	C15H15N3O5+
317.1065	11	C15[13]CH16N2O5+
328.0701	31	C19H10N3O3+
329.0791	577	C19H11N3O3+
330.0821	141	C18[13]CH11N3O3+
331.0835	15	C17[13]C2H11N3O3+
340.0702	6	C20H10N3O3+
344.103	699	C20H14N3O3+
345.1051	165	C19[13]CH14N3O3+
346.113	34	C21H16NO4+
372.098	999	C21H14N3O4+
373.1008	286	C20[13]CH14N3O4+
374.1034	33	C19[13]C2H14N3O4+
