Mass spectrum: Pyraclostrobin; LC-ESI-QTOF; MS2; CE: 20 eV; R=35000; [M+H]+
Name: Pyraclostrobin
Name: methyl N-[2-[[1-(4-chlorophenyl)pyrazol-3-yl]oxymethyl]phenyl]-N-methoxycarbamate
Formula: C19H18ClN3O4
Exact mass: 387.0985837
SMILES: CON(C(=O)OC)C1=C(COC2=NN(C=C2)C2=CC=C(Cl)C=C2)C=CC=C1
InChI: InChI=1S/C19H18ClN3O4/c1-25-19(24)23(26-2)17-6-4-3-5-14(17)13-27-18-11-12-22(21-18)16-9-7-15(20)8-10-16/h3-12H,13H2,1-2H3
Instrument: Bruker maXis Impact
Instrument type: LC-ESI-QTOF
Ms type: MS2
Ion mode: POSITIVE
Ionization: ESI
Fragmentation mode: CID
Collision energy: 20 eV
Resolution: 35000
Column name: Acclaim RSLC C18 2.2um, 2.1x100mm, Thermo
Retention time: 11.219 min
Base peak: 388.1068
Precursor m/z: 388.1059
Precursor type: [M+H]+
m/z	relative intensity	assigned
118.0644	10	C8H8N+
119.0358	7	C7H5NO+
120.0433	5	CH11ClNO3+
132.0434	32	C8H6NO+
133.051	28	C2H12ClNO3+
134.059	52	C8H8NO+
149.0462	109	C8H7NO2+
150.0493	7	C7[13]CH7NO2+
162.054	139	C9H8NO2+
163.0618	999	C9H9NO2+
164.0693	775	C4H10N3O4+
165.0725	47	C3[13]CH10N3O4+
166.085	16	C3H17ClNO4+
174.0535	5	C4H13ClNO4+
179.0564	10	C9H9NO3+
191.0804	5	C4H16ClN2O4+
194.0805	894	C7H15ClN2O2+
195.0837	55	C6[13]CH15ClN2O2+
216.0647	8	C12H10NO3+
261.089	8	C12H18ClO4+
296.0585	206	C16H11ClN3O+
297.0615	33	C15[13]CH11ClN3O+
298.0556	51	C16H11[37]ClN3O+
299.0587	6	C16H12ClN2O2+
324.0535	25	C17H11ClN3O2+
326.051	6	C17H11[37]ClN3O2+
356.0795	7	C18H15ClN3O3+
