Mass spectrum: Imidocarb; LC-ESI-QTOF; MS2; CE: 40 eV; R=35000; [M+H]+
Name: Imidocarb
Name: 1,3-bis[3-(4,5-dihydro-1H-imidazol-2-yl)phenyl]urea
Formula: C19H20N6O
Exact mass: 348.1698593
SMILES: c1cc(cc(c1)NC(=O)Nc2cccc(c2)C3=NCCN3)C4=NCCN4
InChI: InChI=1S/C19H20N6O/c26-19(24-15-5-1-3-13(11-15)17-20-7-8-21-17)25-16-6-2-4-14(12-16)18-22-9-10-23-18/h1-6,11-12H,7-10H2,(H,20,21)(H,22,23)(H2,24,25,26)
Instrument: Bruker maXis Impact
Instrument type: LC-ESI-QTOF
Ms type: MS2
Ion mode: POSITIVE
Ionization: ESI
Fragmentation mode: CID
Collision energy: 40 eV
Resolution: 35000
Column name: Acclaim RSLC C18 2.2um, 2.1x100mm, Thermo
Retention time: 6.308 min
Base peak: 175.0939
Precursor m/z: 349.1771
Precursor type: [M+H]+
m/z	relative intensity	assigned
145.0395	31	C8H5N2O+
162.1037	341	C11H14O+
163.1076	37	C10[13]CH14O+
188.0836	999	C10H10N3O+
189.0865	128	C9[13]CH10N3O+
306.1324	26	C17H16N5O+
