Mass spectrum: Temazepam; LC-ESI-QTOF; MS2; CE: 20 eV; R=35000; [M+H]+
Name: Temazepam
Name: 7-chloro-3-hydroxy-1-methyl-5-phenyl-3H-1,4-benzodiazepin-2-one
Formula: C16H13ClN2O2
Exact mass: 300.0665553
SMILES: CN1C2=C(C=C(Cl)C=C2)C(=NC(O)C1=O)C1=CC=CC=C1
InChI: InChI=1S/C16H13ClN2O2/c1-19-13-8-7-11(17)9-12(13)14(18-15(20)16(19)21)10-5-3-2-4-6-10/h2-9,15,20H,1H3
Instrument: Bruker maXis Impact
Instrument type: LC-ESI-QTOF
Ms type: MS2
Ion mode: POSITIVE
Ionization: ESI
Fragmentation mode: CID
Collision energy: 20 eV
Resolution: 35000
Column name: Acclaim RSLC C18 2.2um, 2.1x100mm, Thermo
Retention time: 8.4 min
Base peak: 301.0739
Precursor m/z: 301.0738
Precursor type: [M+H]+
m/z	relative intensity	assigned
180.0208	34	C12H4O2+
193.0883	9	C14H11N+
216.0572	18	C16H8O+
228.0571	53	C14H11ClN+
229.0597	7	C12H9N2O3+
230.0545	14	C14H11[37]ClN+
245.0839	11	C14H14ClN2+
255.0685	999	C15H12ClN2+
256.0713	157	C15H13ClN2+
257.0653	280	C15H12ClNO+
283.0632	341	C16H12ClN2O+
284.0662	55	C16H13ClN2O+
285.0602	93	C16H12ClNO2+
286.0641	12	C15[13]CH12ClNO2+
301.0738	164	C16H14ClN2O2+
302.0765	34	C15[13]CH14ClN2O2+
303.0714	49	C16H14[37]ClN2O2+
304.0737	8	C15[13]CH14[37]ClN2O2+
