Mass spectrum: Amisulpride N-Oxide; LC-ESI-QTOF; MS2; CE: 20 eV; R=35000; [M+H]+
Name: Amisulpride N-Oxide
Name: 4-amino-N-[(1-ethyl-1-oxidopyrrolidin-1-ium-2-yl)methyl]-5-ethylsulfonyl-2-methoxybenzamide
Formula: C17H27N3O5S
Exact mass: 385.1671420
SMILES: CC[N+]1([O-])CCCC1CNC(=O)C1=CC(=C(N)C=C1OC)S(=O)(=O)CC
InChI: InChI=1S/C17H27N3O5S/c1-4-20(22)8-6-7-12(20)11-19-17(21)13-9-16(26(23,24)5-2)14(18)10-15(13)25-3/h9-10,12H,4-8,11,18H2,1-3H3,(H,19,21)
Instrument: Bruker maXis Impact
Instrument type: LC-ESI-QTOF
Ms type: MS2
Ion mode: POSITIVE
Ionization: ESI
Fragmentation mode: CID
Collision energy: 20 eV
Resolution: 35000
Column name: Acclaim RSLC C18 2.2um, 2.1x100mm, Thermo
Retention time: 4.3 min
Base peak: 386.1747
Precursor m/z: 386.1744
Precursor type: [M+H]+
m/z	relative intensity	assigned
127.1221	9	C7H15N2+
128.1061	28	C7H14NO+
242.0479	517	C10H12NO4S+
243.0502	41	C9[13]CH12NO4S+
244.0447	13	C10H12NO4[34]S+
259.0738	7	C10H15N2O4S+
368.1633	13	C17H26N3O4S+
386.175	999	C17H28N3O5S+
387.1782	165	C16[13]CH28N3O5S+
388.1745	29	C17H28N3O5[34]S+
