Mass spectrum: 4-Amino-N,N-dimethylbenzenesulfonamide; LC-ESI-QTOF; MS2; CE: 20 eV; R=35000; [M+H]+
Name: 4-Amino-N,N-dimethylbenzenesulfonamide
Name: 4-amino-N,N-dimethylbenzenesulfonamide
Formula: C8H12N2O2S
Exact mass: 200.0619486
SMILES: CN(C)S(=O)(=O)C1=CC=C(N)C=C1
InChI: InChI=1S/C8H12N2O2S/c1-10(2)13(11,12)8-5-3-7(9)4-6-8/h3-6H,9H2,1-2H3
Instrument: Bruker maXis Impact
Instrument type: LC-ESI-QTOF
Ms type: MS2
Ion mode: POSITIVE
Ionization: ESI
Fragmentation mode: CID
Collision energy: 20 eV
Resolution: 35000
Column name: Acclaim RSLC C18 2.2um, 2.1x100mm, Thermo
Retention time: 4.383 min
Base peak: 201.0688
Precursor m/z: 201.0692
Precursor type: [M+H]+
m/z	relative intensity	assigned
108.045	10	C6H6NO+
156.0107	999	C6H6NO2S+
157.0136	77	C5[13]CH6NO2S+
158.0071	38	C6H6NO2[34]S+
201.0674	5	C8H13N2O2S+
