Mass spectrum: Aflatoxin G1; LC-ESI-QTOF; MS2; CE: 10 eV; R=35000; [M+Na]+
Name: Aflatoxin G1
Name: 11-methoxy-6,8,16,20-tetraoxapentacyclo[10.8.0.02,9.03,7.013,18]icosa-1,4,9,11,13(18)-pentaene-17,19-dione
Class: Natural Product; Fungal metabolite
Formula: C17H12O7
Exact mass: 328.0583
SMILES: COC1=C2C3=C(C(=O)OCC3)C(=O)OC2=C4C5C=COC5OC4=C1
InChI: InChI=1S/C17H12O7/c1-20-9-6-10-12(8-3-5-22-17(8)23-10)14-11(9)7-2-4-21-15(18)13(7)16(19)24-14/h3,5-6,8,17H,2,4H2,1H3
Instrument: Bruker maXis Impact
Instrument type: LC-ESI-QTOF
Ms type: MS2
Ion mode: POSITIVE
Ionization: ESI
Fragmentation mode: CID
Collision energy: 10 eV
Resolution: 35000
Column name: Acclaim RSLC C18 2.2um, 2.1x100mm, Thermo
Retention time: 6.082 min
Base peak: 351.047
Precursor m/z: 351.0475
Precursor type: [M+Na]+
m/z	relative intensity	assigned
122.0676	7	C6H11NaO+
351.0469	999	C17H12NaO7+
