Mass spectrum: N-isopropyl-N'-phenyl-p-phenylenediamine; LC-ESI-QTOF; MS2; CE: 10 eV; R=35000; [M+H]+
Name: N-isopropyl-N'-phenyl-p-phenylenediamine
Name: N-Isopropyl-N`-phenyl-p-phenylenediamine
Name: 1-N-phenyl-4-N-propan-2-ylbenzene-1,4-diamine
Formula: C15H18N2
Exact mass: 226.1469986
SMILES: CC(C)NC1=CC=C(NC2=CC=CC=C2)C=C1
InChI: InChI=1S/C15H18N2/c1-12(2)16-14-8-10-15(11-9-14)17-13-6-4-3-5-7-13/h3-12,16-17H,1-2H3
Instrument: Bruker maXis Impact
Instrument type: LC-ESI-QTOF
Ms type: MS2
Ion mode: POSITIVE
Ionization: ESI
Fragmentation mode: CID
Collision energy: 10 eV
Resolution: 35000
Column name: Acclaim RSLC C18 2.2um, 2.1x100mm, Thermo
Retention time: 6.584 min
Base peak: 227.1537
Precursor m/z: 227.1543
Precursor type: [M+H]+
m/z	relative intensity	assigned
120.0798	6	C8H10N+
226.1449	5	C15H18N2+
227.1541	999	C15H19N2+
228.157	141	C14[13]CH19N2+
229.1596	10	C13[13]C2H19N2+
