Mass spectrum: Triamcinolone acetonide; LC-ESI-QTOF; MS2; CE: 10 eV; R=35000; [M+H]+
Name: Triamcinolone acetonide
Name: (1S,2S,4R,8S,9S,11S,12R,13S)-12-fluoro-11-hydroxy-8-(2-hydroxyacetyl)-6,6,9,13-tetramethyl-5,7-dioxapentacyclo[10.8.0.02,9.04,8.013,18]icosa-14,17-dien-16-one
Formula: C24H31FO6
Exact mass: 434.2104669
SMILES: [H][C@@]12C[C@H]3OC(C)(C)O[C@@]3(C(=O)CO)[C@@]1(C)C[C@H](O)[C@@]1(F)[C@@]2([H])CCC2=CC(=O)C=C[C@]12C
InChI: InChI=1S/C24H31FO6/c1-20(2)30-19-10-16-15-6-5-13-9-14(27)7-8-21(13,3)23(15,25)17(28)11-22(16,4)24(19,31-20)18(29)12-26/h7-9,15-17,19,26,28H,5-6,10-12H2,1-4H3/t15-,16-,17-,19+,21-,22-,23-,24+/m0/s1
Instrument: Bruker maXis Impact
Instrument type: LC-ESI-QTOF
Ms type: MS2
Ion mode: POSITIVE
Ionization: ESI
Fragmentation mode: CID
Collision energy: 10 eV
Resolution: 35000
Column name: Acclaim RSLC C18 2.2um, 2.1x100mm, Thermo
Retention time: 8.685 min
Base peak: 435.2176
Precursor m/z: 435.2177
Precursor type: [M+H]+
m/z	relative intensity	assigned
147.0792	6	C10H11O+
187.0747	5	C12H11O2+
213.1265	8	C15H17O+
223.1113	6	C16H15O+
225.1266	13	C16H17O+
237.1257	5	C17H17O+
253.1581	5	C18H21O+
263.1426	5	C19H19O+
275.1418	6	C20H19O+
279.1375	10	C19H19O2+
281.1534	11	C19H21O2+
293.1534	20	C20H21O2+
294.1569	5	C19[13]CH21O2+
297.1472	9	C19H21O3+
303.1373	9	C21H19O2+
309.1473	7	C20H21O3+
311.1641	44	C20H23O3+
312.1675	9	C19[13]CH23O3+
321.1478	45	C21H21O3+
322.1505	9	C20[13]CH21O3+
327.1589	8	C20H23O4+
329.1739	8	C20H25O4+
339.1589	128	C21H23O4+
340.1619	27	C20[13]CH23O4+
341.1577	11	C21H22FO3+
343.1527	8	C20H23O5+
355.1546	5	C21H23O5+
357.1694	125	C21H25O5+
358.1725	30	C20[13]CH25O5+
359.1683	10	C21H24FO4+
397.201	157	C24H29O5+
398.2037	44	C23[13]CH29O5+
399.206	6	C22[13]C2H29O5+
415.2118	941	C24H31O6+
416.2151	207	C23[13]CH31O6+
417.2164	36	C22[13]C2H31O6+
435.2182	999	C24H32FO6+
436.2212	228	C23[13]CH32FO6+
437.2246	33	C22[13]C2H32FO6+
