Mass spectrum: Flubendazole; LC-ESI-QTOF; MS2; CE: 40 eV; R=35000; [M+H]+
Name: Flubendazole
Name: methyl N-[6-(4-fluorobenzoyl)-1H-benzimidazol-2-yl]carbamate
Formula: C16H12FN3O3
Exact mass: 313.0862695
SMILES: COC(=O)Nc1[nH]c2ccc(cc2n1)C(=O)c3ccc(cc3)F
InChI: InChI=1S/C16H12FN3O3/c1-23-16(22)20-15-18-12-7-4-10(8-13(12)19-15)14(21)9-2-5-11(17)6-3-9/h2-8H,1H3,(H2,18,19,20,22)
Instrument: Bruker maXis Impact
Instrument type: LC-ESI-QTOF
Ms type: MS2
Ion mode: POSITIVE
Ionization: ESI
Fragmentation mode: CID
Collision energy: 40 eV
Resolution: 35000
Column name: Acclaim RSLC C18 2.2um, 2.1x100mm, Thermo
Retention time: 8.5 min
Base peak: 314.0936
Precursor m/z: 314.0935
Precursor type: [M+H]+
m/z	relative intensity	assigned
123.0239	345	C7H4FO+
124.0276	21	C9[13]CH3+
160.0512	21	C5H7FN3O2+
226.0781	12	C13H9FN3+
254.0751	12	C16H11FO2+
282.068	999	C15H9FN3O2+
283.0712	106	C14[13]CH9FN3O2+
