Mass spectrum: Fipronil sulfide; LC-ESI-QTOF; MS2; CE: 10 eV; R=35000; [M-H]-
Name: Fipronil sulfide
Name: 5-amino-1-[2,6-dichloro-4-(trifluoromethyl)phenyl]-4-(trifluoromethylsulfanyl)pyrazole-3-carbonitrile
Formula: C12H4Cl2F6N4S
Exact mass: 419.9437918
SMILES: NC1=C(SC(F)(F)F)C(=NN1C1=C(Cl)C=C(C=C1Cl)C(F)(F)F)C#N
InChI: InChI=1S/C12H4Cl2F6N4S/c13-5-1-4(11(15,16)17)2-6(14)8(5)24-10(22)9(7(3-21)23-24)25-12(18,19)20/h1-2H,22H2
Instrument: Bruker maXis Impact
Instrument type: LC-ESI-QTOF
Ms type: MS2
Ion mode: NEGATIVE
Ionization: ESI
Fragmentation mode: CID
Collision energy: 10 eV
Resolution: 35000
Column name: Acclaim RSLC C18 2.2um, 2.1x100mm, Thermo
Retention time: 10.625 min
Base peak: 418.9363
Precursor m/z: 418.9365
Precursor type: [M-H]-
m/z	relative intensity	assigned
261.9584	5	C9H2ClF3N2S-
313.964	63	C11H2ClF3N4S-
315.9615	12	C11H2[37]ClF3N4S-
382.9605	999	C12H2ClF6N4S-
383.9622	82	C11[13]CH2ClF6N4S-
384.957	209	C12H2[37]ClF6N4S-
385.958	11	C12H2Cl2F6N4-
418.9365	79	C12H3Cl2F6N4S-
419.9377	8	C11[13]CH3Cl2F6N4S-
420.9336	46	C12H3Cl[37]ClF6N4S-
