Mass spectrum: Fluorometholone; LC-ESI-QTOF; MS2; CE: 20 eV; R=35000; [M+H]+
Name: Fluorometholone
Name: (6S,8S,9R,10S,11S,13S,14S,17R)-17-acetyl-9-fluoro-11,17-dihydroxy-6,10,13-trimethyl-6,7,8,11,12,14,15,16-octahydrocyclopenta[a]phenanthren-3-one
Formula: C22H29FO4
Exact mass: 376.2049876
SMILES: [H][C@@]12CC[C@](O)(C(C)=O)[C@@]1(C)C[C@H](O)[C@@]1(F)[C@@]2([H])C[C@H](C)C2=CC(=O)C=C[C@]12C
InChI: InChI=1S/C22H29FO4/c1-12-9-17-15-6-8-21(27,13(2)24)20(15,4)11-18(26)22(17,23)19(3)7-5-14(25)10-16(12)19/h5,7,10,12,15,17-18,26-27H,6,8-9,11H2,1-4H3/t12-,15-,17-,18-,19-,20-,21-,22-/m0/s1
Instrument: Bruker maXis Impact
Instrument type: LC-ESI-QTOF
Ms type: MS2
Ion mode: POSITIVE
Ionization: ESI
Fragmentation mode: CID
Collision energy: 20 eV
Resolution: 35000
Column name: Acclaim RSLC C18 2.2um, 2.1x100mm, Thermo
Retention time: 8.899 min
Base peak: 377.2122
Precursor m/z: 377.2123
Precursor type: [M+H]+
m/z	relative intensity	assigned
119.086	10	C9H11+
121.0638	29	C8H9O+
123.0797	29	C8H11O+
125.0587	16	C7H9O2+
133.1	8	C10H13+
135.0796	207	C9H11O+
136.0835	25	C8[13]CH11O+
137.0955	23	C9H13O+
139.0743	21	C8H11O2+
143.0847	9	C11H11+
145.0632	14	C10H9O+
145.1006	29	C11H13+
147.0799	44	C10H11O+
147.1164	7	C11H15+
148.0848	5	C9[13]CH11O+
149.0953	44	C10H13O+
150.0982	7	C9[13]CH13O+
151.0742	8	C9H11O2+
151.1106	10	C10H15O+
157.1	7	C12H13+
159.0791	32	C11H11O+
159.1162	5	C12H15+
161.095	226	C11H13O+
162.0987	25	C10[13]CH13O+
163.0725	5	C10H11O2+
163.0903	5	C11H12F+
163.1101	20	C11H15O+
165.0899	92	C10H13O2+
166.0937	9	C9[13]CH13O2+
167.0861	9	C13H11+
167.1088	6	C7H16FO3+
171.0773	5	C12H11O+
171.1155	27	C13H15+
173.0957	55	C12H13O+
173.1337	5	C10H18FO+
174.0977	7	C11[13]CH13O+
175.0732	5	C11H11O2+
175.1106	56	C12H15O+
176.1152	7	C11[13]CH15O+
177.0903	29	C11H13O2+
177.1254	5	C12H17O+
179.0844	8	C14H11+
179.1046	7	C11H15O2+
183.0797	10	C13H11O+
185.0953	99	C13H13O+
186.0989	20	C12[13]CH13O+
187.1116	53	C13H15O+
189.0912	6	C12H13O2+
189.1055	10	C13H14F+
189.1265	56	C13H17O+
190.1306	13	C13H18O+
191.1048	8	C12H15O2+
191.1243	6	C13H16F+
193.102	13	C12H14FO+
195.1175	5	C12H16FO+
197.094	17	C14H13O+
199.1105	32	C14H15O+
201.0903	25	C13H13O2+
201.1249	20	C14H17O+
203.1057	23	C13H15O2+
205.097	5	C16H13+
205.1219	9	C13H17O2+
207.1351	6	C13H19O2+
209.0959	17	C15H13O+
209.1342	15	C13H18FO+
210.1026	7	C15H14O+
211.1103	34	C15H15O+
212.1143	6	C14[13]CH15O+
213.09	6	C14H13O2+
213.1265	48	C15H17O+
214.1294	8	C14[13]CH17O+
215.1428	13	C15H19O+
217.1224	27	C14H17O2+
218.1244	6	C13[13]CH17O2+
223.1112	31	C16H15O+
224.1162	9	C16H16O+
225.1269	37	C16H17O+
226.1326	12	C16H18O+
227.105	26	C15H15O2+
227.1438	16	C16H19O+
228.1459	5	C15[13]CH19O+
229.1208	54	C15H17O2+
230.1238	11	C14[13]CH17O2+
231.1372	34	C15H19O2+
233.1327	23	C18H17+
234.1344	5	C17[13]CH17+
235.1116	15	C17H15O+
236.1164	12	C17H16O+
237.1259	179	C17H17O+
238.1298	28	C16[13]CH17O+
239.1422	50	C17H19O+
240.1483	15	C16[13]CH19O+
241.1229	6	C13H18FO3+
241.1581	10	C17H21O+
243.1421	6	C13H20FO3+
249.1284	32	C18H17O+
249.1526	5	C12H22FO4+
250.1304	7	C17[13]CH17O+
251.1425	244	C18H19O+
252.1462	54	C17[13]CH19O+
253.1231	9	C14H18FO3+
253.1574	63	C15H22FO2+
254.1634	8	C14[13]CH22FO2+
255.1369	15	C17H19O2+
257.1526	9	C17H21O2+
259.1095	5	C19H15O+
261.1266	11	C19H17O+
261.1634	12	C20H21+
262.1366	5	C16H19FO2+
263.1433	29	C19H19O+
264.1477	10	C19H20O+
265.1223	6	C18H17O2+
265.1612	10	C16H22FO2+
267.1373	54	C18H19O2+
267.1755	7	C16H24FO2+
268.1412	15	C17[13]CH19O2+
269.1534	61	C18H21O2+
269.1888	7	C19H25O+
270.1577	16	C17[13]CH21O2+
274.1338	9	C20H18O+
275.1493	6	C17H20FO2+
275.1811	6	C18H24FO+
277.1585	56	C20H21O+
278.1655	50	C20H22O+
279.1741	999	C20H23O+
280.1424	13	C19H20O2+
280.1775	207	C19[13]CH23O+
281.1526	27	C19H21O2+
281.1816	27	C18[13]C2H23O+
282.1559	8	C18[13]CH21O2+
285.1627	5	C22H21+
288.1534	10	C18H21FO2+
293.1524	7	C20H21O2+
293.1901	77	C21H25O+
294.1936	19	C20[13]CH25O+
295.1692	70	C20H23O2+
296.176	26	C20H24O2+
297.1497	20	C16H22FO4+
297.1838	169	C20H25O2+
298.1875	40	C19[13]CH25O2+
299.185	10	C20H24FO+
303.174	156	C22H23O+
304.1772	40	C21[13]CH23O+
305.1798	5	C20[13]C2H23O+
306.1621	5	C18H23FO3+
309.184	8	C21H25O2+
311.2018	52	C21H27O2+
312.2052	15	C20[13]CH27O2+
315.1592	5	C19H23O4+
317.1913	14	C20H26FO2+
321.1852	480	C22H25O2+
322.1886	133	C21[13]CH25O2+
323.191	13	C20[13]C2H25O2+
339.1959	432	C22H27O3+
340.1987	106	C21[13]CH27O3+
341.1937	36	C22H26FO2+
342.1935	5	C21[13]CH26FO2+
357.2043	100	C22H29O4+
358.208	19	C21[13]CH29O4+
359.2031	12	C22H28FO3+
377.2148	25	C22H30FO4+
