Mass spectrum: Nicosulfuron; LC-ESI-QTOF; MS2; CE: 50 eV; R=35000; [M+H]+
Name: Nicosulfuron
Name: 2-[(4,6-dimethoxypyrimidin-2-yl)carbamoylsulfamoyl]-N,N-dimethylpyridine-3-carboxamide
Formula: C15H18N6O6S
Exact mass: 410.1008533
SMILES: COC1=CC(OC)=NC(NC(=O)NS(=O)(=O)C2=NC=CC=C2C(=O)N(C)C)=N1
InChI: InChI=1S/C15H18N6O6S/c1-21(2)13(22)9-6-5-7-16-12(9)28(24,25)20-15(23)19-14-17-10(26-3)8-11(18-14)27-4/h5-8H,1-4H3,(H2,17,18,19,20,23)
Instrument: Bruker maXis Impact
Instrument type: LC-ESI-QTOF
Ms type: MS2
Ion mode: POSITIVE
Ionization: ESI
Fragmentation mode: CID
Collision energy: 50 eV
Resolution: 35000
Column name: Acclaim RSLC C18 2.2um, 2.1x100mm, Thermo
Retention time: 6.714 min
Base peak: 411.1077
Precursor m/z: 411.1081
Precursor type: [M+H]+
m/z	relative intensity	assigned
124.0497	8	C3H4N6+
126.0174	6	C3H2N4O2+
138.0278	5	C3H2N6O+
138.0655	5	C4H6N6+
139.0489	276	C6H7N2O2+
140.0521	24	C5[13]CH7N2O2+
141.0515	10	C3H5N6O+
147.0161	6	C4H5NO5+
150.0283	7	C4H2N6O+
156.075	132	C4H8N6O+
157.0593	315	C6H9N2O3+
158.0625	28	C5[13]CH9N2O3+
167.0317	6	C4H3N6O2+
178.0598	5	C6H6N6O+
182.0547	999	C7H8N3O3+
183.0577	87	C6[13]CH8N3O3+
184.06	8	C7H8N3O2[18]O+
213.031	41	C14H3N3+
214.036	7	C13[13]CH3N3+
259.0823	13	C12H11N4O3+
