Mass spectrum: Chloridazon; LC-ESI-QTOF; MS2; CE: 50 eV; R=35000; [M+H]+
Name: Chloridazon
Name: 5-amino-4-chloro-2-phenylpyridazin-3-one
Formula: C10H8ClN3O
Exact mass: 221.0355896
SMILES: NC1=C(Cl)C(=O)N(N=C1)C1=CC=CC=C1
InChI: InChI=1S/C10H8ClN3O/c11-9-8(12)6-13-14(10(9)15)7-4-2-1-3-5-7/h1-6H,12H2
Instrument: Bruker maXis Impact
Instrument type: LC-ESI-QTOF
Ms type: MS2
Ion mode: POSITIVE
Ionization: ESI
Fragmentation mode: CID
Collision energy: 50 eV
Resolution: 35000
Column name: Acclaim RSLC C18 2.2um, 2.1x100mm, Thermo
Retention time: 5.3 min
Base peak: 222.0425
Precursor m/z: 222.0429
Precursor type: [M+H]+
m/z	relative intensity	assigned
114.0334	94	C8H4N+
116.0479	61	C8H6N+
116.9965	118	C4H4ClNO+
117.0556	71	C8H7N+
122.9992	272	C7H4Cl+
128.0477	89	C9H6N+
128.9838	212	C4H2ClN2O+
130.0642	551	C9H8N+
131.0595	212	C8H7N2+
132.0421	138	C8H6NO+
133.0497	61	C8H7NO+
142.0526	75	C9H6N2+
146.0105	999	C4H5ClN3O+
148.0073	388	C4H5[37]ClN3O+
149.0144	85	C9H6Cl+
150.0095	396	C9N3+
151.0125	71	C4HN5O2+
158.068	72	C9H8N3+
159.054	81	C9H7N2O+
