Mass spectrum: o-Dianisidine; LC-ESI-QTOF; MS2; CE: 10 eV; R=35000; [M+H]+
Name: o-Dianisidine
Name: 3,3`-Dimethoxybenzidine
Name: 4-(4-amino-3-methoxyphenyl)-2-methoxyaniline
Formula: C14H16N2O2
Exact mass: 244.1211778
SMILES: COC1=CC(=CC=C1N)C1=CC(OC)=C(N)C=C1
InChI: InChI=1S/C14H16N2O2/c1-17-13-7-9(3-5-11(13)15)10-4-6-12(16)14(8-10)18-2/h3-8H,15-16H2,1-2H3
Instrument: Bruker maXis Impact
Instrument type: LC-ESI-QTOF
Ms type: MS2
Ion mode: POSITIVE
Ionization: ESI
Fragmentation mode: CID
Collision energy: 10 eV
Resolution: 35000
Column name: Acclaim RSLC C18 2.2um, 2.1x100mm, Thermo
Retention time: 5.530 min
Base peak: 245.1276
Precursor m/z: 245.1285
Precursor type: [M+H]+
m/z	relative intensity	assigned
201.1015	6	C12H13N2O+
213.1011	7	C13H13N2O+
229.0961	13	C13H13N2O2+
230.1042	26	C13H14N2O2+
243.1119	21	C14H15N2O2+
244.1203	748	C14H16N2O2+
245.1279	999	C14H17N2O2+
246.1311	127	C13[13]CH17N2O2+
247.1336	11	C12[13]C2H17N2O2+
