Mass spectrum: Glibenclamide; LC-ESI-QTOF; MS2; CE: 50 eV; R=35000; [M+H]+
Name: Glibenclamide
Name: Glyburide
Name: 5-chloro-N-[2-[4-(cyclohexylcarbamoylsulfamoyl)phenyl]ethyl]-2-methoxybenzamide
Formula: C23H28ClN3O5S
Exact mass: 493.1438197
SMILES: COC1=C(C=C(Cl)C=C1)C(=O)NCCC1=CC=C(C=C1)S(=O)(=O)NC(=O)NC1CCCCC1
InChI: InChI=1S/C23H28ClN3O5S/c1-32-21-12-9-17(24)15-20(21)22(28)25-14-13-16-7-10-19(11-8-16)33(30,31)27-23(29)26-18-5-3-2-4-6-18/h7-12,15,18H,2-6,13-14H2,1H3,(H,25,28)(H2,26,27,29)
Instrument: Bruker maXis Impact
Instrument type: LC-ESI-QTOF
Ms type: MS2
Ion mode: POSITIVE
Ionization: ESI
Fragmentation mode: CID
Collision energy: 50 eV
Resolution: 35000
Column name: Acclaim RSLC C18 2.2um, 2.1x100mm, Thermo
Retention time: 10.153 min
Base peak: 494.1506
Precursor m/z: 494.1511
Precursor type: [M+H]+
m/z	relative intensity	assigned
125.9858	11	CH4NO4S+
134.0355	6	H10N2O4S+
167.015	16	C6H5N3OS+
168.0193	6	C9H2N3O+
169.0041	999	C6H4ClN3O+
170.0075	68	C5[13]CH4ClN3O+
171.0014	221	C6H4[37]ClN3O+
171.992	6	C7H5ClO3+
172.0038	9	ClH11NO5S+
198.0307	10	C4H10N2O5S+
210.1029	8	C13H12N3+
259.0516	32	C13H10ClN3O+
260.0547	5	C12[13]CH10ClN3O+
261.0484	8	C13H10[37]ClN3O+
262.0623	14	C6H17ClN3O4S+
288.0783	10	C16H15ClNO2+
304.0734	18	C8H19ClN3O5S+
306.0698	5	C8H19[37]ClN3O5S+
