Mass spectrum: Pantoprazole; LC-ESI-QTOF; MS2; CE: 10 eV; R=35000; [M+H]+
Name: Pantoprazole
Name: 6-(difluoromethoxy)-2-[(3,4-dimethoxypyridin-2-yl)methylsulfinyl]-1H-benzimidazole
Formula: C16H15F2N3O4S
Exact mass: 383.0751334
SMILES: COc1ccnc(c1OC)CS(=O)c2[nH]c3ccc(cc3n2)OC(F)F
InChI: InChI=1S/C16H15F2N3O4S/c1-23-13-5-6-19-12(14(13)24-2)8-26(22)16-20-10-4-3-9(25-15(17)18)7-11(10)21-16/h3-7,15H,8H2,1-2H3,(H,20,21)
Instrument: Bruker maXis Impact
Instrument type: LC-ESI-QTOF
Ms type: MS2
Ion mode: POSITIVE
Ionization: ESI
Fragmentation mode: CID
Collision energy: 10 eV
Resolution: 35000
Column name: Acclaim RSLC C18 2.2um, 2.1x100mm, Thermo
Retention time: 7.420 min
Base peak: 384.0828
Precursor m/z: 384.0824
Precursor type: [M+H]+
m/z	relative intensity	assigned
138.054	72	C7H8NO2+
153.0774	253	C8H11NO2+
154.0804	15	C7[13]CH11NO2+
168.0643	11	C6H12F2NS+
170.08	8	C6H14F2NS+
185.0508	5	C11H6FN2+
200.037	973	C8H10NO3S+
201.0397	89	C7[13]CH10NO3S+
202.0332	32	C8H10NO3[34]S+
384.0826	999	C16H16F2N3O4S+
385.085	147	C15[13]CH16F2N3O4S+
386.0814	31	C16H16F2N3O4[34]S+
