Mass spectrum: 2-Amino-1-methyl-6-phenylimidazo[4,5-b]pyridine (PhIP); LC-ESI-QTOF; MS2; CE: 30 eV; R=35000; [M+H]+
Name: 2-Amino-1-methyl-6-phenylimidazo[4,5-b]pyridine (PhIP)
Name: 2-Amino-1-methyl-6-phenylimidazo[4,5-b]pyridine
Name: 1-methyl-6-phenylimidazo[4,5-b]pyridin-2-amine
Formula: C13H12N4
Exact mass: 224.1061964
SMILES: CN1C(N)=NC2=NC=C(C=C12)C1=CC=CC=C1
InChI: InChI=1S/C13H12N4/c1-17-11-7-10(9-5-3-2-4-6-9)8-15-12(11)16-13(17)14/h2-8H,1H3,(H2,14,15,16)
Instrument: Bruker maXis Impact
Instrument type: LC-ESI-QTOF
Ms type: MS2
Ion mode: POSITIVE
Ionization: ESI
Fragmentation mode: CID
Collision energy: 30 eV
Resolution: 35000
Column name: Acclaim RSLC C18 2.2um, 2.1x100mm, Thermo
Retention time: 5.721 min
Base peak: 225.1128
Precursor m/z: 225.1135
Precursor type: [M+H]+
m/z	relative intensity	assigned
130.064	6	C9H8N+
140.048	12	C10H6N+
142.0637	6	C10H8N+
143.071	5	C10H9N+
154.0639	6	C11H8N+
157.0746	18	C10H9N2+
167.059	13	C11H7N2+
168.0664	12	C11H8N2+
181.0749	8	C12H9N2+
183.0791	11	C11H9N3+
183.0898	17	C12H11N2+
184.0859	9	C11H10N3+
208.0857	17	C13H10N3+
209.0817	12	C12H9N4+
210.0891	499	C12H10N4+
211.0922	55	C11[13]CH10N4+
225.1131	999	C13H13N4+
226.1158	165	C12[13]CH13N4+
227.1181	7	C11[13]C2H13N4+
