Mass spectrum: Methylprednisolone; LC-ESI-QTOF; MS2; CE: 30 eV; R=35000; [M+H]+
Name: Methylprednisolone
Name: methylprednisolone
Name: (6S,8S,9S,10R,11S,13S,14S,17R)-11,17-dihydroxy-17-(2-hydroxyacetyl)-6,10,13-trimethyl-7,8,9,11,12,14,15,16-octahydro-6H-cyclopenta[a]phenanthren-3-one
Formula: C22H30O5
Exact mass: 374.2093241
SMILES: C[C@H]1C[C@H]2[C@@H]3CC[C@@]([C@]3(C[C@@H]([C@@H]2[C@@]4(C1=CC(=O)C=C4)C)O)C)(C(=O)CO)O
InChI: InChI=1S/C22H30O5/c1-12-8-14-15-5-7-22(27,18(26)11-23)21(15,3)10-17(25)19(14)20(2)6-4-13(24)9-16(12)20/h4,6,9,12,14-15,17,19,23,25,27H,5,7-8,10-11H2,1-3H3/t12-,14-,15-,17-,19+,20-,21-,22-/m0/s1
Instrument: Bruker maXis Impact
Instrument type: LC-ESI-QTOF
Ms type: MS2
Ion mode: POSITIVE
Ionization: ESI
Fragmentation mode: CID
Collision energy: 30 eV
Resolution: 35000
Column name: Acclaim RSLC C18 2.2um, 2.1x100mm, Thermo
Retention time: 8.565 min
Base peak: 375.2199
Precursor m/z: 375.2166
Precursor type: [M+H]+
m/z	relative intensity	assigned
115.0545	20	C9H7+
116.0603	7	C9H8+
117.0706	13	C9H9+
119.0861	37	C9H11+
121.0655	175	C8H9O+
121.1012	11	C9H13+
122.0693	20	C7[13]CH9O+
123.0809	16	C8H11O+
125.0605	17	C7H9O2+
128.0627	12	C10H8+
129.0707	24	C10H9+
131.0485	7	C9H7O+
131.0865	54	C10H11+
133.0657	13	C9H9O+
133.1016	75	C10H13+
134.1064	14	C10H14+
135.0811	545	C9H11O+
136.0842	48	C8[13]CH11O+
137.0605	23	C8H9O2+
137.0969	19	C9H13O+
139.0749	21	C8H11O2+
141.0705	11	C11H9+
142.0795	9	C11H10+
143.086	36	C11H11+
144.0587	5	C10H8O+
144.0911	6	C11H12+
145.0656	61	C10H9O+
145.1021	67	C11H13+
146.0736	26	C10H10O+
146.1053	9	C10[13]CH13+
147.0813	126	C10H11O+
147.1178	30	C11H15+
148.0843	13	C9[13]CH11O+
149.0965	77	C10H13O+
149.1324	7	C11H17+
150.1003	7	C9[13]CH13O+
151.0759	16	C9H11O2+
151.1131	8	C10H15O+
153.0716	5	C12H9+
153.0921	6	C9H13O2+
155.071	9	C8H11O3+
155.0862	13	C12H11+
157.0657	7	C11H9O+
157.1017	29	C12H13+
158.0727	29	C11H10O+
159.0813	197	C11H11O+
159.117	25	C12H15+
160.0868	40	C11H12O+
161.0969	999	C11H13O+
162.1	117	C10[13]CH13O+
163.0755	6	C10H11O2+
163.1123	19	C11H15O+
165.0703	5	C13H9+
165.0919	58	C10H13O2+
165.1277	5	C11H17O+
166.0948	7	C10H14O2+
167.0858	10	C13H11+
167.1062	7	C10H15O2+
169.1021	19	C13H13+
170.0746	5	C12H10O+
170.1101	7	C13H14+
171.081	45	C12H11O+
171.1177	41	C13H15+
172.089	26	C12H12O+
172.1229	5	C13H16+
173.0967	205	C12H13O+
173.1338	28	C13H17+
174.1005	25	C11[13]CH13O+
175.0787	9	C11H11O2+
175.1124	82	C12H15O+
176.1133	12	C11[13]CH15O+
177.0918	46	C11H13O2+
177.129	8	C12H17O+
178.0778	10	C14H10+
178.0975	7	C11H14O2+
179.0864	5	C14H11+
179.1077	16	C11H15O2+
180.0939	5	C14H12+
181.101	14	C14H13+
183.0805	14	C13H11O+
183.1028	8	C10H15O3+
183.1175	12	C14H15+
184.0871	9	C13H12O+
185.0972	662	C13H13O+
186.1008	94	C12[13]CH13O+
187.1129	465	C13H15O+
188.1166	60	C12[13]CH15O+
189.0922	82	C12H13O2+
189.1284	19	C13H17O+
190.0951	15	C11[13]CH13O2+
191.1071	15	C12H15O2+
191.1442	11	C13H19O+
193.1011	18	C15H13+
194.1103	5	C15H14+
195.0822	25	C14H11O+
195.118	23	C15H15+
196.0897	19	C14H12O+
196.1255	8	C15H16+
197.0975	55	C14H13O+
197.1304	5	C15H17+
198.1026	14	C14H14O+
199.1133	131	C14H15O+
200.1167	20	C13[13]CH15O+
201.0924	7	C13H13O2+
201.129	46	C14H17O+
202.1339	6	C14H18O+
203.1074	8	C13H15O2+
203.1447	13	C14H19O+
205.1017	6	C16H13+
205.123	11	C13H17O2+
207.1178	13	C16H15+
208.0903	12	C15H12O+
208.1262	6	C16H16+
209.0972	76	C15H13O+
209.1332	12	C16H17+
210.1042	39	C15H14O+
211.1128	428	C15H15O+
212.1164	83	C14[13]CH15O+
213.0923	8	C14H13O2+
213.1292	164	C15H17O+
214.1326	26	C14[13]CH17O+
215.142	20	C15H19O+
217.1012	8	C17H13+
218.1097	6	C17H14+
219.118	13	C17H15+
219.1403	8	C14H19O2+
220.1254	11	C17H16+
221.1315	16	C17H17+
222.1067	29	C16H14O+
223.1126	95	C16H15O+
223.1496	7	C17H19+
224.1205	54	C16H16O+
225.1285	118	C16H17O+
226.1333	27	C15[13]CH17O+
227.1078	16	C15H15O2+
227.1439	60	C16H19O+
228.112	7	C15H16O2+
228.1504	11	C15[13]CH19O+
229.1207	6	C15H17O2+
229.1613	6	C16H21O+
231.1399	68	C15H19O2+
232.1248	7	C18H16+
232.143	12	C14[13]CH19O2+
233.0985	8	C17H13O+
233.1343	15	C18H17+
234.1068	9	C17H14O+
234.1369	5	C18H18+
235.1127	66	C17H15O+
235.1509	16	C18H19+
236.1203	42	C17H16O+
236.1549	5	C18H20+
237.1292	232	C17H17O+
238.1356	107	C17H18O+
239.1075	11	C16H15O2+
239.1439	145	C17H19O+
240.1504	38	C16[13]CH19O+
241.1257	7	C16H17O2+
241.1592	38	C17H21O+
242.1638	6	C17H22O+
245.0983	7	C18H13O+
245.1202	5	C15H17O3+
246.1051	14	C18H14O+
247.1129	21	C18H15O+
247.1496	7	C19H19+
248.1217	21	C18H16O+
249.1286	90	C18H17O+
250.1351	26	C17[13]CH17O+
251.1443	238	C18H19O+
252.1133	7	C17H16O2+
252.1487	49	C17[13]CH19O+
253.1605	553	C18H21O+
254.1638	98	C17[13]CH21O+
255.1427	14	C17H19O2+
255.1752	57	C18H23O+
256.1411	6	C17H20O2+
256.1783	12	C17[13]CH23O+
259.1133	14	C19H15O+
259.1493	6	C20H19+
260.12	10	C19H16O+
261.1291	54	C19H17O+
261.1672	5	C13H25O5+
262.1355	35	C19H18O+
263.1445	79	C19H19O+
263.1817	24	C20H23+
264.1171	15	C18H16O2+
264.1506	34	C19H20O+
264.1855	7	C20H24+
265.1232	20	C18H17O2+
265.1606	138	C19H21O+
266.1282	7	C18H18O2+
266.1642	29	C18[13]CH21O+
267.14	53	C18H19O2+
267.1749	13	C19H23O+
268.1471	13	C17[13]CH19O2+
269.1559	22	C18H21O2+
273.1283	15	C20H17O+
274.137	29	C20H18O+
275.1443	35	C20H19O+
275.1827	8	C14H27O5+
276.1494	12	C19[13]CH19O+
277.1608	81	C20H21O+
278.1328	5	C19H18O2+
278.1668	44	C20H22O+
279.1401	84	C19H19O2+
279.176	204	C20H23O+
280.1441	17	C18[13]CH19O2+
280.1836	333	C20H24O+
281.1525	9	C19H21O2+
281.1894	129	C20H25O+
282.1934	26	C19[13]CH25O+
285.1488	9	C18H21O3+
286.1649	6	C22H22+
287.1639	5	C18H23O3+
288.1528	40	C21H20O+
289.1567	12	C20[13]CH20O+
290.168	15	C21H22O+
291.1758	57	C21H23O+
292.1478	7	C20H20O2+
292.1811	22	C21H24O+
293.1548	21	C20H21O2+
293.1925	93	C21H25O+
294.1961	22	C20[13]CH25O+
295.1704	17	C20H23O2+
296.1766	6	C20H24O2+
297.1512	69	C19H21O3+
297.1883	7	C20H25O2+
298.1549	18	C18[13]CH21O3+
299.205	7	C20H27O2+
303.1759	117	C22H23O+
304.1811	36	C22H24O+
305.1816	7	C21[13]CH24O+
306.1654	13	C21H22O2+
308.1791	16	C21H24O2+
309.1869	59	C21H25O2+
310.1893	17	C20[13]CH25O2+
311.1656	13	C20H23O3+
311.2001	12	C21H27O2+
312.2036	5	C21H28O2+
315.1627	9	C19H23O4+
321.1871	95	C22H25O2+
322.1904	27	C21[13]CH25O2+
339.1977	67	C22H27O3+
340.2021	16	C21[13]CH27O3+
357.2085	45	C22H29O4+
358.2122	15	C21[13]CH29O4+
