Mass spectrum: Thiacloprid-amide; LC-ESI-QTOF; MS2; CE: 10 eV; R=35000; [M+H]+
Name: Thiacloprid-amide
Name: SCHEMBL2190770
Name: [3-[(6-chloropyridin-3-yl)methyl]-1,3-thiazolidin-2-ylidene]urea
Formula: C10H11ClN4OS
Exact mass: 270.0342097
SMILES: NC(=O)N=C1SCCN1CC1=CN=C(Cl)C=C1
InChI: InChI=1S/C10H11ClN4OS/c11-8-2-1-7(5-13-8)6-15-3-4-17-10(15)14-9(12)16/h1-2,5H,3-4,6H2,(H2,12,16)
Instrument: Bruker maXis Impact
Instrument type: LC-ESI-QTOF
Ms type: MS2
Ion mode: POSITIVE
Ionization: ESI
Fragmentation mode: CID
Collision energy: 10 eV
Resolution: 35000
Column name: Acclaim RSLC C18 2.2um, 2.1x100mm, Thermo
Retention time: 4.7 min
Base peak: 271.0409
Precursor m/z: 271.0415
Precursor type: [M+H]+
m/z	relative intensity	assigned
126.0095	36	C9H2O+
186.0118	8	C9H4N3S+
192.0594	5	C9H10N3S+
228.0346	494	C9H11ClN3S+
229.0378	44	C8[13]CH11ClN3S+
230.0315	143	C9H11[37]ClN3S+
231.0347	9	C8[13]CH11[37]ClN3S+
254.0143	841	C10H9ClN3OS+
255.0163	91	C9[13]CH9ClN3OS+
256.0112	244	C10H9[37]ClN3OS+
257.0134	15	C9[13]CH9[37]ClN3OS+
271.0413	999	C10H12ClN4OS+
272.0436	170	C9[13]CH12ClN4OS+
273.038	309	C10H12[37]ClN4OS+
274.0406	18	C9[13]CH12[37]ClN4OS+
