Mass spectrum: Exemestane; LC-ESI-QTOF; MS2; CE: 10 eV; R=35000; [M+H]+
Name: Exemestane
Name: (8R,9S,10R,13S,14S)-10,13-dimethyl-6-methylidene-7,8,9,11,12,14,15,16-octahydrocyclopenta[a]phenanthrene-3,17-dione
Formula: C20H24O2
Exact mass: 296.1776300
SMILES: C[C@]12CC[C@H]3[C@H]([C@@H]1CCC2=O)CC(=C)C4=CC(=O)C=C[C@]34C
InChI: InChI=1S/C20H24O2/c1-12-10-14-15-4-5-18(22)20(15,3)9-7-16(14)19(2)8-6-13(21)11-17(12)19/h6,8,11,14-16H,1,4-5,7,9-10H2,2-3H3/t14-,15-,16-,19+,20-/m0/s1
Instrument: Bruker maXis Impact
Instrument type: LC-ESI-QTOF
Ms type: MS2
Ion mode: POSITIVE
Ionization: ESI
Fragmentation mode: CID
Collision energy: 10 eV
Resolution: 35000
Column name: Acclaim RSLC C18 2.2um, 2.1x100mm, Thermo
Retention time: 9.244 min
Base peak: 297.1867
Precursor m/z: 297.1849
Precursor type: [M+H]+
m/z	relative intensity	assigned
121.065	7	C8H9O+
121.1012	14	C9H13+
135.0804	14	C9H11O+
145.1015	13	C11H13+
149.0963	76	C10H13O+
150.1	7	C9[13]CH13O+
163.1125	9	C11H15O+
171.117	7	C13H15+
185.0962	8	C13H13O+
189.1281	10	C13H17O+
239.1445	7	C17H19O+
253.1603	5	C18H21O+
279.1757	115	C20H23O+
280.1784	23	C19[13]CH23O+
297.1869	999	C20H25O2+
298.1901	174	C19[13]CH25O2+
299.1932	16	C18[13]C2H25O2+
