Mass spectrum: 4-Androstene-3,17-dione; LC-ESI-QTOF; MS2; CE: 40 eV; R=35000; [M+H]+
Name: 4-Androstene-3,17-dione
Name: Androstenedione
Name: (8R,9S,10R,13S,14S)-10,13-dimethyl-2,6,7,8,9,11,12,14,15,16-decahydro-1H-cyclopenta[a]phenanthrene-3,17-dione
Formula: C19H26O2
Exact mass: 286.1932801
SMILES: C[C@]12CC[C@H]3[C@@H](CCC4=CC(=O)CC[C@]34C)[C@@H]1CCC2=O
InChI: InChI=1S/C19H26O2/c1-18-9-7-13(20)11-12(18)3-4-14-15-5-6-17(21)19(15,2)10-8-16(14)18/h11,14-16H,3-10H2,1-2H3/t14-,15-,16-,18-,19-/m0/s1
Instrument: Bruker maXis Impact
Instrument type: LC-ESI-QTOF
Ms type: MS2
Ion mode: POSITIVE
Ionization: ESI
Fragmentation mode: CID
Collision energy: 40 eV
Resolution: 35000
Column name: Acclaim RSLC C18 2.2um, 2.1x100mm, Thermo
Retention time: 9.392 min
Base peak: 299.2001
Precursor m/z: 287.2006
Precursor type: [M+H]+
m/z	relative intensity	assigned
109.0635	39	C7H9O+
115.0534	102	C9H7+
117.0688	129	C9H9+
119.0846	223	C9H11+
121.0637	75	C8H9O+
121.1009	105	C9H13+
123.0795	999	C8H11O+
124.0827	81	C7[13]CH11O+
128.061	142	C10H8+
129.0678	213	C10H9+
130.075	140	C10H10+
131.0837	529	C10H11+
132.0883	86	C9[13]CH11+
133.1005	406	C10H13+
134.1035	58	C9[13]CH13+
135.0779	71	C9H11O+
135.1146	99	C10H15+
137.0951	78	C9H13O+
141.0677	96	C11H9+
142.0763	131	C11H10+
143.0845	298	C11H11+
144.0919	126	C11H12+
145.1	615	C11H13+
146.1036	107	C10[13]CH13+
147.0792	42	C10H11O+
147.1146	152	C11H15+
149.0941	96	C10H13O+
153.0681	41	C12H9+
154.0759	83	C12H10+
155.0826	146	C12H11+
156.0913	107	C12H12+
157.0996	305	C12H13+
158.1064	95	C12H14+
159.0789	60	C11H11O+
159.1154	354	C12H15+
160.1213	98	C12H16+
161.0945	57	C11H13O+
161.1309	85	C12H17+
163.1108	109	C11H15O+
165.0694	47	C13H9+
167.0835	122	C13H11+
168.0912	74	C13H12+
169.0992	282	C13H13+
170.1054	93	C13H14+
171.1153	254	C13H15+
172.1221	50	C12[13]CH15+
173.1304	362	C13H17+
174.1364	73	C12[13]CH17+
175.109	44	C12H15O+
180.0927	57	C14H12+
181.1003	127	C14H13+
182.1089	64	C14H14+
183.1158	226	C14H15+
184.1198	57	C13[13]CH15+
185.1307	255	C14H17+
186.1351	59	C13[13]CH17+
187.1104	38	C13H15O+
187.1465	160	C14H19+
195.1137	120	C15H15+
196.1225	94	C15H16+
197.1314	63	C15H17+
199.1466	86	C15H19+
207.1153	39	C16H15+
209.1313	87	C16H17+
211.1454	194	C16H19+
212.1515	49	C15[13]CH19+
213.1248	46	C15H17O+
225.1631	63	C17H21+
227.1775	53	C17H23+
229.1591	88	C16H21O+
269.1924	52	C19H25O+
287.1993	54	C19H27O2+
