Mass spectrum: Cefazolin; LC-ESI-QTOF; MS2; CE: 40 eV; R=35000; [M+H]+
Name: Cefazolin
Name: cefazolin
Name: (6R,7R)-3-[(5-methyl-1,3,4-thiadiazol-2-yl)sulfanylmethyl]-8-oxo-7-[[2-(tetrazol-1-yl)acetyl]amino]-5-thia-1-azabicyclo[4.2.0]oct-2-ene-2-carboxylic acid
Formula: C14H14N8O4S3
Exact mass: 454.0300139
SMILES: Cc1nnc(s1)SCC2=C(N3[C@@H]([C@@H](C3=O)NC(=O)Cn4cnnn4)SC2)C(=O)O
InChI: InChI=1S/C14H14N8O4S3/c1-6-17-18-14(29-6)28-4-7-3-27-12-9(11(24)22(12)10(7)13(25)26)16-8(23)2-21-5-15-19-20-21/h5,9,12H,2-4H2,1H3,(H,16,23)(H,25,26)/t9-,12-/m1/s1
Instrument: Bruker maXis Impact
Instrument type: LC-ESI-QTOF
Ms type: MS2
Ion mode: POSITIVE
Ionization: ESI
Fragmentation mode: CID
Collision energy: 40 eV
Resolution: 35000
Column name: Acclaim RSLC C18 2.2um, 2.1x100mm, Thermo
Retention time: 4.066 min
Base peak: 455.0419
Precursor m/z: 455.0373
Precursor type: [M+H]+
m/z	relative intensity	assigned
119.0619	209	CH13NO3S+
120.0697	192	CH14NO3S+
124.0223	445	H12O3S2+
127.0224	73	CH9N3S2+
128.0289	169	C6H8OS+
132.9897	469	C3H5N2S2+
134.0731	63	C9H10O+
139.0337	506	H5N5O4+
140.0385	77	C3H10NO3S+
141.0491	121	H7N5O4+
151.0335	365	CH5N5O4+
152.0187	94	C2N8O+
152.0338	71	C7H6NO3+
153.0495	564	CH7N5O4+
154.0539	61	C4H12NO3S+
156.0125	999	CH8N4OS2+
157.0208	129	CH9N4OS2+
157.0322	110	H9N6S2+
158.0283	103	CH10N4OS2+
161.0837	144	C10H11NO+
162.0924	100	C5H14N4S+
163.032	70	H11N4O2S2+
166.0451	489	C9H10OS+
167.0319	60	C6H5N3O3+
168.0122	75	H6N7S2+
178.0447	254	C10H10OS+
179.029	87	C3H9N5S2+
180.0602	138	C2H8N6O4+
182.0408	73	C2H10N6S2+
193.0556	68	C10H11NOS+
195.0251	102	C5H11N2O2S2+
197.0416	64	C5H5N6O3+
208.0577	93	C6H6N7O2+
210.0354	62	C3H10N6OS2+
252.0447	114	C12H12O4S+
