Mass spectrum: 3-Perfluoroheptyl propanoic acid (7:3) (FHpPA); LC-ESI-QTOF; MS2; CE: 30 eV; R=35000; [M-H]-
Name: 3-Perfluoroheptyl propanoic acid (7:3) (FHpPA)
Name: 4,4,5,5,6,6,7,7,8,8,9,9,10,10,10-pentadecafluorodecanoic acid
Formula: C10H5F15O2
Exact mass: 442.0050
SMILES: C(CC(C(C(C(C(C(C(F)(F)F)(F)F)(F)F)(F)F)(F)F)(F)F)(F)F)C(=O)O
InChI: InChI=1S/C10H5F15O2/c11-4(12,2-1-3(26)27)5(13,14)6(15,16)7(17,18)8(19,20)9(21,22)10(23,24)25/h1-2H2,(H,26,27)
Instrument: Bruker maXis Impact
Instrument type: LC-ESI-QTOF
Ms type: MS2
Ionization: ESI
Fragmentation mode: CID
Collision energy: 30 eV
Resolution: 35000
Column name: Acclaim RSLC C18 2.2um, 2.1x100mm, Thermo
Retention time: 10.642 min
Base peak: 393.9801
Precursor m/z: 440.9977
Precursor type: [M-H]-
m/z	relative intensity	assigned
316.9819	999	C9F11-
