Mass spectrum: Fipronil sulfone; LC-ESI-QTOF; MS2; CE: 30 eV; R=35000; [M-H]-
Name: Fipronil sulfone
Name: 5-amino-1-[2,6-dichloro-4-(trifluoromethyl)phenyl]-4-(trifluoromethylsulfonyl)pyrazole-3-carbonitrile
Formula: C12H4Cl2F6N4O2S
Exact mass: 451.9336210
SMILES: NC1=C(C(=NN1C1=C(Cl)C=C(C=C1Cl)C(F)(F)F)C#N)S(=O)(=O)C(F)(F)F
InChI: InChI=1S/C12H4Cl2F6N4O2S/c13-5-1-4(11(15,16)17)2-6(14)8(5)24-10(22)9(7(3-21)23-24)27(25,26)12(18,19)20/h1-2H,22H2
Instrument: Bruker maXis Impact
Instrument type: LC-ESI-QTOF
Ms type: MS2
Ion mode: NEGATIVE
Ionization: ESI
Fragmentation mode: CID
Collision energy: 30 eV
Resolution: 35000
Column name: Acclaim RSLC C18 2.2um, 2.1x100mm, Thermo
Retention time: 10.893 min
Base peak: 450.9259
Precursor m/z: 450.9263
Precursor type: [M-H]-
m/z	relative intensity	assigned
132.9569	17	CH2ClF2NS-
170.0093	61	C7HF3N2-
182.009	18	C8HF3N2-
183.0173	114	C8H2F3N2-
184.0197	7	C7[13]CH2F3N2-
217.986	55	C5H3ClF4N2O-
219.984	12	C5H3[37]ClF4N2O-
233.9805	67	C8H2ClF3N2O-
235.9778	14	C8H2[37]ClF3N2O-
243.9889	78	C9H2ClF3N3-
244.9915	5	C8[13]CH2ClF3N3-
245.986	19	C9H2[37]ClF3N3-
246.0152	32	C11HF3N4-
257.9902	6	C12H3FN2O2S-
259.9834	10	C9H3ClF6-
261.9848	25	C8H3ClF6N-
263.9829	5	C8H3[37]ClF6N-
271.984	6	C10H2ClF3N3O-
281.9925	999	C11H2ClF3N4-
282.9957	82	C10[13]CH2ClF3N4-
283.9896	205	C11H2[37]ClF3N4-
284.9907	16	C11H3ClF3N3O-
297.9862	41	C11H3ClF6N-
299.9828	9	C11H3[37]ClF6N-
300.9903	6	C11H2ClF4N4-
345.9534	12	C11H3ClF6NOS-
414.9489	214	C12H2ClF6N4O2S-
415.9497	19	C11[13]CH2ClF6N4O2S-
416.9456	54	C12H2[37]ClF6N4O2S-
