Mass spectrum: Dimoxystrobin; LC-ESI-QTOF; MS2; CE: 20 eV; R=35000; [M+H]+
Name: Dimoxystrobin
Name: Benzeneacetamide, 2-((2,5-dimethylphenoxy)methyl)-alpha-(methoxyimino)-N-methyl-, (alphaE)-
Name: (2E)-2-[2-[(2,5-dimethylphenoxy)methyl]phenyl]-2-methoxyimino-N-methylacetamide
Formula: C19H22N2O3
Exact mass: 326.1630426
SMILES: CNC(=O)C(=N\OC)\C1=CC=CC=C1COC1=CC(C)=CC=C1C
InChI: InChI=1S/C19H22N2O3/c1-13-9-10-14(2)17(11-13)24-12-15-7-5-6-8-16(15)18(21-23-4)19(22)20-3/h5-11H,12H2,1-4H3,(H,20,22)/b21-18+
Instrument: Bruker maXis Impact
Instrument type: LC-ESI-QTOF
Ms type: MS2
Ion mode: POSITIVE
Ionization: ESI
Fragmentation mode: CID
Collision energy: 20 eV
Resolution: 35000
Column name: Acclaim RSLC C18 2.2um, 2.1x100mm, Thermo
Retention time: 10.717 min
Base peak: 327.1711
Precursor m/z: 327.1703
Precursor type: [M+H]+
m/z	relative intensity	assigned
116.0491	371	C8H6N+
117.0524	34	C7[13]CH6N+
148.0744	8	C9H10NO+
193.0989	5	C10H13N2O2+
205.0968	999	C11H13N2O2+
206.0999	106	C10[13]CH13N2O2+
207.1028	6	C9[13]C2H13N2O2+
210.1268	16	C15H16N+
223.0986	23	C15H13NO+
238.1223	77	C16H16NO+
239.1252	12	C15[13]CH16NO+
280.1326	5	C18H18NO2+
