Mass spectrum: Bifonazol; LC-ESI-QTOF; MS2; CE: 40 eV; R=35000; [M+H]+
Name: Bifonazol
Name: Bifonazole
Name: 1-[phenyl-(4-phenylphenyl)methyl]imidazole
Formula: C22H18N2
Exact mass: 310.1469986
SMILES: C1=CN(C=N1)C(C1=CC=CC=C1)C1=CC=C(C=C1)C1=CC=CC=C1
InChI: InChI=1S/C22H18N2/c1-3-7-18(8-4-1)19-11-13-21(14-12-19)22(24-16-15-23-17-24)20-9-5-2-6-10-20/h1-17,22H
Instrument: Bruker maXis Impact
Instrument type: LC-ESI-QTOF
Ms type: MS2
Ion mode: POSITIVE
Ionization: ESI
Fragmentation mode: CID
Collision energy: 40 eV
Resolution: 35000
Column name: Acclaim RSLC C18 2.2um, 2.1x100mm, Thermo
Retention time: 10.595 min
Base peak: 311.1544
Precursor m/z: 311.1543
Precursor type: [M+H]+
m/z	relative intensity	assigned
115.0537	105	C9H7+
116.0569	10	C8[13]CH7+
141.069	82	C11H9+
142.0722	9	C10[13]CH9+
152.061	6	C12H8+
164.0607	6	C13H8+
165.069	689	C13H9+
166.0732	104	C12[13]CH9+
167.0773	6	C11[13]C2H9+
178.0766	16	C14H10+
193.0749	8	C13H9N2+
202.0768	64	C16H10+
203.0817	14	C15[13]CH10+
215.085	175	C17H11+
216.0888	32	C16[13]CH11+
226.0773	10	C18H10+
227.0846	54	C18H11+
228.0929	808	C18H12+
229.0961	114	C17[13]CH12+
230.0993	9	C16[13]C2H12+
239.0847	11	C19H11+
240.0919	10	C19H12+
241.1009	274	C19H13+
242.1073	136	C19H14+
243.1164	999	C19H15+
244.1199	158	C18[13]CH15+
245.1232	11	C17[13]C2H15+
