Mass spectrum: 2-Perfluorooctyl ethanoic acid (8:2) (FOEA); LC-ESI-QTOF; MS2; CE: 25.1-37.7 eV; R=35000; [M-H]-
Name: 2-Perfluorooctyl ethanoic acid (8:2) (FOEA)
Formula: C10H3F17O2
Exact mass: 477.9862
SMILES: C(C(=O)O)C(C(C(C(C(C(C(C(F)(F)F)(F)F)(F)F)(F)F)(F)F)(F)F)(F)F)(F)F
InChI: InChI=1S/C10H3F17O2/c11-3(12,1-2(28)29)4(13,14)5(15,16)6(17,18)7(19,20)8(21,22)9(23,24)10(25,26)27/h1H2,(H,28,29)
Instrument: Bruker maXis Impact
Instrument type: LC-ESI-QTOF
Ms type: MS2
Ionization: ESI
Fragmentation mode: CID
Collision energy: 25.1-37.7 eV
Resolution: 35000
Column name: Acclaim RSLC C18 2.2um, 2.1x100mm, Thermo
Retention time: 10.682 min
Base peak: 59.0129
Precursor m/z: 476.9789
Precursor type: [M-H]-
m/z	relative intensity	assigned
242.9812	79	C6F9-
392.9748	999	C9F15-
393.9799	572	C9HF15-
