Mass spectrum: Fenoxycarb; LC-ESI-QTOF; MS2; CE: 20 eV; R=35000; [M+H]+
Name: Fenoxycarb
Name: ethyl N-[2-(4-phenoxyphenoxy)ethyl]carbamate
Formula: C17H19NO4
Exact mass: 301.1314081
SMILES: CCOC(=O)NCCOC1=CC=C(OC2=CC=CC=C2)C=C1
InChI: InChI=1S/C17H19NO4/c1-2-20-17(19)18-12-13-21-14-8-10-16(11-9-14)22-15-6-4-3-5-7-15/h3-11H,2,12-13H2,1H3,(H,18,19)
Instrument: Bruker maXis Impact
Instrument type: LC-ESI-QTOF
Ms type: MS2
Ion mode: POSITIVE
Ionization: ESI
Fragmentation mode: CID
Collision energy: 20 eV
Resolution: 35000
Column name: Acclaim RSLC C18 2.2um, 2.1x100mm, Thermo
Retention time: 10.617 min
Base peak: 317.1647
Precursor m/z: 302.1387
Precursor type: [M+H]+
m/z	relative intensity	assigned
116.0699	54	C5H10NO2+
120.0553	5	C8H8O+
163.0613	49	C9H9NO2+
164.0647	6	C8[13]CH9NO2+
183.0794	21	C13H11O+
185.0583	21	C12H9O2+
185.0948	14	C13H13O+
186.0658	23	C12H10O2+
187.0735	26	C12H11O2+
188.0776	5	C11[13]CH11O2+
195.0799	18	C14H11O+
211.0746	76	C14H11O2+
212.0783	15	C13[13]CH11O2+
213.0533	56	C13H9O3+
213.0899	48	C14H13O2+
214.0564	9	C12[13]CH9O3+
214.0932	7	C13[13]CH13O2+
230.1166	11	C14H16NO2+
238.0854	15	C15H12NO2+
256.0966	999	C15H14NO3+
257.0995	178	C14[13]CH14NO3+
258.1018	16	C13[13]C2H14NO3+
302.1382	10	C17H20NO4+
