Mass spectrum: Dioctyl Adipate; GC-APCI-QTOF; MS2; CE: 40 eV; R=35000; [M]+
Name: Dioctyl Adipate
Formula: C22H42O4
Exact mass: 370.3083
SMILES: CCCCC(CC)COC(=O)CCCCC(=O)OCC(CC)CCCC
InChI: InChI=1S/C22H42O4/c1-5-9-13-19(7-3)17-25-21(23)15-11-12-16-22(24)26-18-20(8-4)14-10-6-2/h19-20H,5-18H2,1-4H3
Instrument: Bruker 450 GC coupled to maXis Impact
Instrument type: GC-APCI-QTOF
Ms type: MS2
Ion mode: POSITIVE
Ionization: APCI
Fragmentation mode: CID
Collision energy: 40 eV
Resolution: 35000
Column name: Rxi-5Sil MS column, 30m, 0.25mm i.d., 0.25Âµm film thickness, Restek
Retention time: 22.579 min
Base peak: 283.262
Precursor m/z: 370.3078
Precursor type: [M]+
m/z	relative intensity	assigned
57.0707	999	C4H9+
129.0544	841	C6H9O3+
133.1036	736	C10H13+
135.1162	920	C10H15+
143.0858	814	C11H11+
145.1046	893	C11H13+
