Mass spectrum: 3,6,9,12-Tetraoxatetracosan-1-ol; LC-ESI-QTOF; MS2; CE: 50 eV; R=35000; [M+H]+
Name: 3,6,9,12-Tetraoxatetracosan-1-ol
Name: Tetraethylene glycol monododecyl ether
Name: 2-[2-[2-(2-dodecoxyethoxy)ethoxy]ethoxy]ethanol
Formula: C20H42O5
Exact mass: 362.3032244
SMILES: CCCCCCCCCCCCOCCOCCOCCOCCO
InChI: InChI=1S/C20H42O5/c1-2-3-4-5-6-7-8-9-10-11-13-22-15-17-24-19-20-25-18-16-23-14-12-21/h21H,2-20H2,1H3
Instrument: Bruker maXis Impact
Instrument type: LC-ESI-QTOF
Ms type: MS2
Ion mode: POSITIVE
Ionization: ESI
Fragmentation mode: CID
Collision energy: 50 eV
Resolution: 35000
Column name: Acclaim RSLC C18 2.2um, 2.1x100mm, Thermo
Retention time: 13.5 min
Base peak: 380.3382
Precursor m/z: 363.3105
Precursor type: [M+H]+
m/z	relative intensity	assigned
133.0854	999	C6H13O3+
