Mass spectrum: Fumonisin B2; LC-ESI-QTOF; MS2; CE: 40 eV; R=35000; [M+H]+
Name: Fumonisin B2
Name: Fumonisin B2, Fusarium moniliforme
Name: 2-[2-[19-amino-6-(3,4-dicarboxybutanoyloxy)-16,18-dihydroxy-5,9-dimethylicosan-7-yl]oxy-2-oxoethyl]butanedioic acid
Class: Natural Product; Fungal metabolite
Formula: C34H59NO14
Exact mass: 705.3936
SMILES: CCCCC(C)C(C(CC(C)CCCCCCC(CC(C(C)N)O)O)OC(=O)CC(CC(=O)O)C(=O)O)OC(=O)CC(CC(=O)O)C(=O)O
InChI: InChI=1S/C34H59NO14/c1-5-6-12-21(3)32(49-31(43)18-24(34(46)47)16-29(40)41)27(48-30(42)17-23(33(44)45)15-28(38)39)14-20(2)11-9-7-8-10-13-25(36)19-26(37)22(4)35/h20-27,32,36-37H,5-19,35H2,1-4H3,(H,38,39)(H,40,41)(H,44,45)(H,46,47)
Instrument: Bruker maXis Impact
Instrument type: LC-ESI-QTOF
Ms type: MS2
Ion mode: POSITIVE
Ionization: ESI
Fragmentation mode: CID
Collision energy: 40 eV
Resolution: 35000
Column name: Acclaim RSLC C18 2.2um, 2.1x100mm, Thermo
Retention time: 10.397 min
Base peak: 706.3998
Precursor m/z: 706.4008
Precursor type: [M+H]+
m/z	relative intensity	assigned
141.0196	66	C9H3NO+
159.0275	109	C6H7O5+
203.18	99	C15H23+
318.315	468	C22H40N+
319.2973	79	C4H47O14+
319.3162	137	C11H45NO8+
336.3262	999	C22H42NO+
337.3287	246	C4H51NO14+
354.3355	577	C22H44NO2+
355.3368	134	C26H43+
372.3474	104	C22H46NO3+
512.3545	185	C25H52O10+
513.3661	74	C28H51NO7+
530.3674	144	C28H52NO8+
531.3643	101	C24H53NO11+
670.3827	75	C34H56NO12+
688.3953	168	C34H58NO13+
689.4006	116	C34H59NO13+
706.4107	294	C34H60NO14+
