Mass spectrum: 4-Acetamidoantipyrin; LC-ESI-QTOF; MS2; CE: 50 eV; R=35000; [M+H]+
Name: 4-Acetamidoantipyrin
Name: 4-Acetamidoantipyrine
Name: N-(1,5-dimethyl-3-oxo-2-phenylpyrazol-4-yl)acetamide
Formula: C13H15N3O2
Exact mass: 245.1164267
SMILES: CN1N(C(=O)C(NC(C)=O)=C1C)C1=CC=CC=C1
InChI: InChI=1S/C13H15N3O2/c1-9-12(14-10(2)17)13(18)16(15(9)3)11-7-5-4-6-8-11/h4-8H,1-3H3,(H,14,17)
Instrument: Bruker maXis Impact
Instrument type: LC-ESI-QTOF
Ms type: MS2
Ion mode: POSITIVE
Ionization: ESI
Fragmentation mode: CID
Collision energy: 50 eV
Resolution: 35000
Column name: Acclaim RSLC C18 2.2um, 2.1x100mm, Thermo
Retention time: 3.9 min
Base peak: 246.1238
Precursor m/z: 246.1237
Precursor type: [M+H]+
m/z	relative intensity	assigned
115.0539	131	C9H7+
116.0504	108	C8H6N+
117.0564	491	C8H7N+
118.052	140	C7H6N2+
118.0637	273	C8H8N+
119.0592	420	C7H7N2+
128.0484	947	C9H6N+
129.0431	140	C8H5N2+
129.0527	154	C4H7N3O2+
130.0641	709	C9H8N+
131.0596	570	C8H7N2+
131.0716	240	C9H9N+
132.0436	274	C8H6NO+
132.0679	172	C8H8N2+
132.0797	624	C9H10N+
133.0747	237	C8H9N2+
140.0486	74	C10H6N+
142.0504	67	C9H6N2+
142.0636	61	C10H8N+
143.0588	993	C9H7N2+
144.0667	582	C9H8N2+
144.0794	999	C10H10N+
145.0369	61	C8H5N2O+
145.0744	535	C9H9N2+
146.0595	494	C9H8NO+
147.0545	57	C8H7N2O+
155.0604	79	C10H7N2+
157.0742	339	C10H9N2+
158.0462	91	C9H6N2O+
158.0831	196	C10H10N2+
159.055	106	C9H7N2O+
159.0906	774	C10H11N2+
160.0877	246	C11H12O+
170.0703	120	C10H8N3+
171.0539	966	C10H7N2O+
172.0605	340	C10H8N2O+
184.0848	163	C11H10N3+
185.0698	212	C11H9N2O+
188.0808	148	C10H10N3O+
189.085	74	C5H11N5O3+
