Mass spectrum: Loratadine; LC-ESI-QTOF; MS2; CE: 40 eV; R=35000; [M+H]+
Name: Loratadine
Name: ethyl 4-(8-chloro-5,6-dihydrobenzo[1,2]cyclohepta[2,4-b]pyridin-11-ylidene)piperidine-1-carboxylate
Formula: C22H23ClN2O2
Exact mass: 382.1448057
SMILES: CCOC(=O)N1CCC(=C2c3ccc(cc3CCc4c2nccc4)Cl)CC1
InChI: InChI=1S/C22H23ClN2O2/c1-2-27-22(26)25-12-9-15(10-13-25)20-19-8-7-18(23)14-17(19)6-5-16-4-3-11-24-21(16)20/h3-4,7-8,11,14H,2,5-6,9-10,12-13H2,1H3
Instrument: Bruker maXis Impact
Instrument type: LC-ESI-QTOF
Ms type: MS2
Ion mode: POSITIVE
Ionization: ESI
Fragmentation mode: CID
Collision energy: 40 eV
Resolution: 35000
Column name: Acclaim RSLC C18 2.2um, 2.1x100mm, Thermo
Retention time: 11.726 min
Base peak: 383.1523
Precursor m/z: 383.1521
Precursor type: [M+H]+
m/z	relative intensity	assigned
126.0536	5	C6H8NO2+
154.0846	6	C8H12NO2+
214.0408	22	C13H9ClN+
216.0375	6	C13H9[37]ClN+
228.0565	41	C14H11ClN+
229.0639	48	C14H12ClN+
230.0541	11	C14H11[37]ClN+
230.066	8	C13[13]CH12ClN+
231.061	11	C14H12[37]ClN+
231.103	21	C11H18ClNO2+
232.1102	18	C11H19ClNO2+
233.1181	11	C11H20ClNO2+
243.1028	20	C12H18ClNO2+
244.1109	26	C12H19ClNO2+
245.118	24	C12H20ClNO2+
246.1264	43	C12H21ClNO2+
247.1337	23	C12H22ClNO2+
248.0932	18	C16H12N2O+
252.0568	22	C19H8O+
253.0642	58	C16H12ClN+
254.0682	14	C15[13]CH12ClN+
255.0616	14	C16H12[37]ClN+
257.1189	13	C19H15N+
258.1271	171	C19H16N+
259.1347	646	C13H22ClNO2+
260.1384	103	C12[13]CH22ClNO2+
261.1415	7	C11[13]C2H22ClNO2+
265.0637	5	C20H9O+
266.0726	177	C20H10O+
267.0803	999	C17H14ClN+
268.0832	137	C16[13]CH14ClN+
269.0777	192	C17H14[37]ClN+
270.0544	19	C15H11ClN2O+
270.0815	21	C17H15ClO+
272.0517	5	C15H11[37]ClN2O+
278.0722	13	C21H10O+
279.0804	145	C18H14ClN+
280.0877	208	C18H15ClN+
281.0754	26	C18H14[37]ClN+
281.0955	432	C18H16ClN+
282.0854	31	C18H15[37]ClN+
282.1024	211	C18H17ClN+
283.0624	21	C16H12ClN2O+
283.0941	82	C18H16[37]ClN+
284.1005	48	C18H17[37]ClN+
285.0593	5	C16H12[37]ClN2O+
292.0881	54	C19H15ClN+
293.0927	13	C18[13]CH15ClN+
294.104	325	C19H17ClN+
295.107	59	C18[13]CH17ClN+
296.1012	75	C19H17[37]ClN+
297.1039	7	C19H18ClO+
301.1335	5	C20H17N2O+
302.1406	48	C20H18N2O+
303.144	9	C19[13]CH18N2O+
311.1304	14	C22H17NO+
322.086	43	C19H15ClN2O+
323.0889	9	C18[13]CH15ClN2O+
324.0835	11	C19H15[37]ClN2O+
335.0946	6	C20H16ClN2O+
337.1099	745	C20H18ClN2O+
338.1132	137	C19[13]CH18ClN2O+
339.1074	191	C20H18[37]ClN2O+
339.1623	29	C21H24ClN2+
340.1101	19	C20H19ClNO2+
340.1658	8	C20[13]CH24ClN2+
341.1589	10	C21H24[37]ClN2+
355.1204	9	C20H20ClN2O2+
383.1517	38	C22H24ClN2O2+
384.1551	10	C21[13]CH24ClN2O2+
385.1492	11	C22H24[37]ClN2O2+
