Mass spectrum: Napropamide; LC-ESI-QTOF; MS2; CE: 10 eV; R=35000; [M+H]+
Name: Napropamide
Name: N,N-diethyl-2-naphthalen-1-yloxypropanamide
Formula: C17H21NO2
Exact mass: 271.1572289
SMILES: CCN(CC)C(=O)C(C)OC1=C2C=CC=CC2=CC=C1
InChI: InChI=1S/C17H21NO2/c1-4-18(5-2)17(19)13(3)20-16-12-8-10-14-9-6-7-11-15(14)16/h6-13H,4-5H2,1-3H3
Instrument: Bruker maXis Impact
Instrument type: LC-ESI-QTOF
Ms type: MS2
Ion mode: POSITIVE
Ionization: ESI
Fragmentation mode: CID
Collision energy: 10 eV
Resolution: 35000
Column name: Acclaim RSLC C18 2.2um, 2.1x100mm, Thermo
Retention time: 10.1 min
Base peak: 272.1643
Precursor m/z: 272.1645
Precursor type: [M+H]+
m/z	relative intensity	assigned
129.114	75	C7H15NO+
130.1168	5	C2H16N3O3+
171.0791	40	C12H11O+
172.0823	5	C11[13]CH11O+
199.0746	158	C13H11O2+
200.0779	19	C12[13]CH11O2+
272.1643	999	C17H22NO2+
273.1675	143	C16[13]C7H22NO2+
274.1697	14	C15[13]C2H22NO2+
