Mass spectrum: Perfluorotridecanoic acid (PFTrDA); LC-ESI-QTOF; MS2; CE: 30 eV; R=35000; [M-H]-
Name: Perfluorotridecanoic acid (PFTrDA)
Name: Perfluorotridecanoic acid
Name: 2,2,3,3,4,4,5,5,6,6,7,7,8,8,9,9,10,10,11,11,12,12,13,13,13-pentacosafluorotridecanoic acid
Formula: C13HF25O2
Exact mass: 663.9577
SMILES: C(=O)(C(C(C(C(C(C(C(C(C(C(C(C(F)(F)F)(F)F)(F)F)(F)F)(F)F)(F)F)(F)F)(F)F)(F)F)(F)F)(F)F)(F)F)O
InChI: InChI=1S/C13HF25O2/c14-2(15,1(39)40)3(16,17)4(18,19)5(20,21)6(22,23)7(24,25)8(26,27)9(28,29)10(30,31)11(32,33)12(34,35)13(36,37)38/h(H,39,40)
Instrument: Bruker maXis Impact
Instrument type: LC-ESI-QTOF
Ms type: MS2
Ion mode: NEGATIVE
Ionization: ESI
Fragmentation mode: CID
Collision energy: 30 eV
Resolution: 35000
Column name: Acclaim RSLC C18 2.2um, 2.1x100mm, Thermo
Retention time: 12.502 min
Base peak: 662.9505
Precursor m/z: 662.9505
Precursor type: [M-H]-
m/z	relative intensity
168.9895	999
218.9865	558
268.9826	432
318.979	277
368.9749	175
418.976	81
618.9592	103
