Mass spectrum: LSD; LC-ESI-QTOF; MS2; CE: 20 eV; R=35000; [M+H]+
Name: LSD
Name: D-Lysergic acid N,N-diethylamide
Name: N,N-diethyl-7-methyl-6,6a,8,9-tetrahydro-4H-indolo[4,3-fg]quinoline-9-carboxamide
Formula: C20H25N3O
Exact mass: 323.1997624
SMILES: CCN(CC)C(=O)C1CN(C2CC3=CNC4=CC=CC(=C34)C2=C1)C
InChI: InChI=1S/C20H25N3O/c1-4-23(5-2)20(24)14-9-16-15-7-6-8-17-19(15)13(11-21-17)10-18(16)22(3)12-14/h6-9,11,14,18,21H,4-5,10,12H2,1-3H3
Instrument: Bruker maXis Impact
Instrument type: LC-ESI-QTOF
Ms type: MS2
Ion mode: POSITIVE
Ionization: ESI
Fragmentation mode: CID
Collision energy: 20 eV
Resolution: 35000
Column name: Acclaim RSLC C18 2.2um, 2.1x100mm, Thermo
Retention time: 5.680 min
Base peak: 324.2092
Precursor m/z: 324.207
Precursor type: [M+H]+
m/z	relative intensity	assigned
128.107	5	C7H14NO+
192.0813	5	C14H10N+
197.108	40	C13H13N2+
198.1106	5	C12[13]CH13N2+
208.0763	22	C14H10NO+
208.0998	5	C14H12N2+
223.1242	275	C15H15N2+
224.1272	37	C14[13]CH15N2+
251.1189	23	C16H15N2O+
281.1665	93	C18H21N2O+
282.1693	16	C17[13]CH21N2O+
309.1849	8	C19H23N3O+
324.2094	999	C20H26N3O+
325.2122	207	C19[13]CH26N3O+
326.2147	16	C18[13]C2H26N3O+
