Mass spectrum: Difloxacin; LC-ESI-QTOF; MS2; CE: 40 eV; R=35000; [M+H]+
Name: Difloxacin
Name: 6-fluoro-1-(4-fluorophenyl)-7-(4-methylpiperazin-1-yl)-4-oxoquinoline-3-carboxylic acid
Name: 6-fluoro-1-(4-fluorophenyl)-7-(4-methylpiperazin-4-ium-1-yl)-4-oxoquinoline-3-carboxylate
Formula: C21H19F2N3O3
Exact mass: 399.1394479
SMILES: CN1CCN(CC1)C2=C(C=C3C(=C2)N(C=C(C3=O)C(=O)O)C4=CC=C(C=C4)F)F
InChI: InChI=1S/C21H19F2N3O3/c1-24-6-8-25(9-7-24)19-11-18-15(10-17(19)23)20(27)16(21(28)29)12-26(18)14-4-2-13(22)3-5-14/h2-5,10-12H,6-9H2,1H3,(H,28,29)
Instrument: Bruker maXis Impact
Instrument type: LC-ESI-QTOF
Ms type: MS2
Ion mode: POSITIVE
Ionization: ESI
Fragmentation mode: CID
Collision energy: 40 eV
Resolution: 35000
Column name: Acclaim RSLC C18 2.2um, 2.1x100mm, Thermo
Retention time: 5.602 min
Base peak: 400.1496
Precursor m/z: 400.1467
Precursor type: [M+H]+
m/z	relative intensity	assigned
149.0249	11	C11H3N+
185.1088	25	C9H14FN2O+
196.101	10	C10H13FN2O+
225.0806	9	C11H12FNO3+
227.0567	10	C13H9NO3+
241.0762	9	C17H9N2+
242.0745	16	C12H12F2O3+
264.1032	8	C14H15FNO3+
268.082	8	C16H10F2N2+
269.0917	8	C15H13N2O3+
278.1108	17	C16H16F2O2+
278.1259	9	C17H16N3O+
279.0922	19	C17H12FN2O+
280.1275	9	C16H18F2O2+
281.0882	11	C17H11F2N2+
282.0567	16	C16H9FNO3+
285.0858	33	C16H11F2N2O+
291.1223	16	C19H17NO2+
292.0927	9	C19H12F2N+
297.0855	9	C17H11F2N2O+
299.1011	326	C17H13F2N2O+
300.1045	61	C16[13]CH13F2N2O+
301.1099	10	C20H15NO2+
305.0771	11	C20H11F2O+
305.1378	13	C18H19F2O2+
306.0717	11	C19H10F2NO+
306.1055	37	C20H15FO2+
306.1426	126	C18H20F2O2+
307.108	10	C18H15N2O3+
307.1444	27	C19H19N2O2+
311.0872	20	C21H13NO2+
311.0994	14	C21H13NO2+
313.1194	8	C20H15N3O+
324.0809	12	C19H12F2NO2+
324.1176	20	C20H16F2NO+
325.0784	14	C18H11F2N2O2+
326.1483	14	C21H20F2O+
329.0748	11	C20H9F2N3+
334.1022	19	C21H14F2NO+
334.1381	48	C19H20F2O3+
335.105	9	C19H14FN3O2+
335.1375	12	C20H19N2O3+
336.1549	10	C17H20F2N3O2+
337.0982	11	C19H14FN2O3+
338.1493	10	C19H20N3O3+
339.0826	30	C20H13F2O3+
339.1603	9	C20H19F2N3+
340.0865	16	C21H11FN3O+
343.092	11	C21H11F2N3+
352.1111	25	C19H15FN3O3+
354.1084	53	C21H16F2O3+
354.1445	20	C20H18F2N3O+
355.1073	16	C19H15F2N3O2+
356.1596	29	C20H20F2N3O+
362.1323	21	C18H18F2N3O3+
380.1449	36	C21H19FN3O3+
381.1473	10	C21H20FN3O3+
382.1399	201	C21H18F2N3O2+
383.1453	56	C20[13]CH18F2N3O2+
384.1443	11	C21H20F2N3O2+
400.1501	999	C21H20F2N3O3+
401.1519	291	C20[13]CH20F2N3O3+
