Mass spectrum: Pirimiphos-methyl; LC-ESI-QTOF; MS2; CE: Ramp 21.7-32.6 eV; R=35000; [M+H]+
Name: Pirimiphos-methyl
Name: 4-dimethoxyphosphinothioyloxy-N,N-diethyl-6-methylpyrimidin-2-amine
Formula: C11H20N3O3PS
Exact mass: 305.0962991
SMILES: CCN(CC)C1=NC(C)=CC(OP(=S)(OC)OC)=N1
InChI: InChI=1S/C11H20N3O3PS/c1-6-14(7-2)11-12-9(3)8-10(13-11)17-18(19,15-4)16-5/h8H,6-7H2,1-5H3
Instrument: Bruker maXis Impact
Instrument type: LC-ESI-QTOF
Ms type: MS2
Ion mode: POSITIVE
Ionization: ESI
Fragmentation mode: CID
Collision energy: Ramp 21.7-32.6 eV
Resolution: 35000
Column name: Acclaim RSLC C18 2.2um, 2.1x100mm, Thermo
Retention time: 11.440 min
Base peak: 306.1053
Precursor m/z: 306.1036
Precursor type: [M+H]+
m/z	relative intensity	assigned
67.0288	158	C3H3N2+
68.0319	5	C2[13]CH3N2+
70.0395	12	C2H4N3+
70.0647	8	C4H8N+
78.994	19	CH4O2P+
84.0441	5	C4H6NO+
88.0214	5	C3H6NS+
95.0607	224	C5H7N2+
96.0646	11	C4[13]CH7N2+
100.0222	16	H9N2PS+
108.0569	696	C5H6N3+
109.0595	34	C4[13]CH6N3+
109.077	47	H15NO3S+
116.0536	6	CH13N2PS+
119.06	7	C7H7N2+
123.0923	32	CH17NO3S+
124.9822	92	C2H6O2PS+
127.0162	11	C7HN3+
136.0871	252	C7H10N3+
137.0899	17	C6[13]CH10N3+
142.9928	72	C2H8O3PS+
151.0262	23	C7H5NO3+
164.1177	816	C9H14N3+
165.1207	73	C8[13]CH14N3+
168.1123	20	C8H14N3O+
179.0574	35	C9H9NO3+
196.144	28	C10H18N3O+
207.089	59	C11H13NO3+
223.066	5	C11H13NO2S+
233.0145	20	C7H10N2O3PS+
236.0251	9	C10H8N2O3S+
246.0459	31	C8H13N3O2PS+
250.0408	15	C11H10N2O3S+
274.0771	54	C10H17N3O2PS+
275.0801	7	C9[13]CH17N3O2PS+
278.0726	156	C9H17N3O3PS+
279.0754	17	C8[13]CH17N3O3PS+
280.0684	6	C9H17N3O3P[34]S+
306.104	999	C11H21N3O3PS+
308.1013	67	C11H21N3O3P[34]S+
