Mass spectrum: Ochratoxin A; LC-ESI-QTOF; MS2; CE: 10 eV; R=35000; [M+H]+
Name: Ochratoxin A
Name: Alanine, (-)-
Name: 2-[(5-chloro-8-hydroxy-3-methyl-1-oxo-3,4-dihydroisochromene-7-carbonyl)amino]-3-phenylpropanoic acid
Class: Natural Product; Fungal metabolite
Formula: C20H18ClNO6
Exact mass: 403.0823
SMILES: CC1CC2=C(C=C(C(=C2C(=O)O1)O)C(=O)NC(CC3=CC=CC=C3)C(=O)O)Cl
InChI: InChI=1S/C20H18ClNO6/c1-10-7-12-14(21)9-13(17(23)16(12)20(27)28-10)18(24)22-15(19(25)26)8-11-5-3-2-4-6-11/h2-6,9-10,15,23H,7-8H2,1H3,(H,22,24)(H,25,26)
Instrument: Bruker maXis Impact
Instrument type: LC-ESI-QTOF
Ms type: MS2
Ion mode: POSITIVE
Ionization: ESI
Fragmentation mode: CID
Collision energy: 10 eV
Resolution: 35000
Column name: Acclaim RSLC C18 2.2um, 2.1x100mm, Thermo
Retention time: 9.143 min
Base peak: 404.0886
Precursor m/z: 404.0895
Precursor type: [M+H]+
m/z	relative intensity	assigned
120.0803	27	C8H10N+
239.0099	52	C11H8ClO4+
241.0063	18	C20H+
257.0204	56	C11H10ClO5+
259.0172	20	C20H3O+
341.0593	12	C19H14ClO4+
358.0834	247	C19H17ClNO4+
359.0866	64	C19H18ClNO4+
360.0819	89	C19H17ClO5+
361.0856	14	C19H18ClO5+
386.0768	67	C20H17ClNO5+
387.0843	14	C20H18ClNO5+
388.0765	28	C20H17ClO6+
404.0877	999	C20H19ClNO6+
