Mass spectrum: Cortisone; LC-ESI-QTOF; MS2; CE: 30 eV; R=35000; [M+H]+
Name: Cortisone
Name: (8S,9S,10R,13S,14S,17R)-17-hydroxy-17-(2-hydroxyacetyl)-10,13-dimethyl-1,2,6,7,8,9,12,14,15,16-decahydrocyclopenta[a]phenanthrene-3,11-dione
Formula: C21H28O5
Exact mass: 360.1936740
SMILES: C[C@]12CC(=O)[C@H]3[C@@H](CCC4=CC(=O)CC[C@]34C)[C@@H]1CC[C@]2(O)C(=O)CO
InChI: InChI=1S/C21H28O5/c1-19-7-5-13(23)9-12(19)3-4-14-15-6-8-21(26,17(25)11-22)20(15,2)10-16(24)18(14)19/h9,14-15,18,22,26H,3-8,10-11H2,1-2H3/t14-,15-,18+,19-,20-,21-/m0/s1
Instrument: Bruker maXis Impact
Instrument type: LC-ESI-QTOF
Ms type: MS2
Ion mode: POSITIVE
Ionization: ESI
Fragmentation mode: CID
Collision energy: 30 eV
Resolution: 35000
Column name: Acclaim RSLC C18 2.2um, 2.1x100mm, Thermo
Retention time: 7.336 min
Base peak: 361.2007
Precursor m/z: 361.201
Precursor type: [M+H]+
m/z	relative intensity	assigned
115.0527	9	C9H7+
117.0694	5	C9H9+
119.0854	41	C9H11+
120.0896	6	C8[13]CH11+
121.0638	121	C8H9O+
121.1006	20	C9H13+
122.0659	13	C7[13]CH9O+
123.0795	27	C8H11O+
128.061	8	C10H8+
129.0675	11	C10H9+
131.0839	23	C10H11+
133.0644	16	C9H9O+
133.1004	25	C10H13+
135.079	64	C9H11O+
135.1151	54	C10H15+
136.0836	8	C8[13]CH11O+
136.1179	7	C9[13]CH15+
137.0581	5	C8H9O2+
137.0939	11	C9H13O+
139.0744	42	C8H11O2+
143.0845	33	C11H11+
144.0878	5	C10[13]CH11+
145.064	18	C10H9O+
145.0995	130	C11H13+
146.1034	21	C10[13]CH13+
147.0795	67	C10H11O+
147.1152	15	C11H15+
148.0857	23	C10H12O+
149.0944	30	C10H13O+
151.0742	12	C9H11O2+
151.1109	6	C10H15O+
153.0886	13	C9H13O2+
155.0833	15	C12H11+
157.0999	35	C12H13+
159.0795	31	C11H11O+
159.1154	21	C12H15+
161.0581	6	C10H9O2+
161.0949	72	C11H13O+
161.1314	7	C12H17+
162.099	14	C10[13]CH13O+
163.1106	999	C11H15O+
164.1144	130	C10[13]CH15O+
165.089	12	C10H13O2+
167.0832	7	C13H11+
169.0999	24	C13H13+
171.0797	22	C12H11O+
171.1158	35	C13H15+
172.121	6	C12[13]CH15+
173.0949	46	C12H13O+
173.1317	11	C13H17+
174.1004	7	C11[13]CH13O+
175.0742	6	C11H11O2+
175.1106	29	C12H15O+
177.0891	15	C11H13O2+
177.1254	7	C12H17O+
179.0896	5	C7H15O5+
179.1054	13	C11H15O2+
181.0841	6	C10H13O3+
181.0983	23	C14H13+
182.105	6	C14H14+
183.0791	10	C13H11O+
183.1158	31	C14H15+
184.1194	6	C13[13]CH15+
185.0941	22	C13H13O+
185.1317	19	C14H17+
186.0998	8	C13H14O+
187.0739	7	C12H11O2+
187.1108	35	C13H15O+
187.1456	6	C14H19+
188.1146	7	C12[13]CH15O+
189.0896	31	C12H13O2+
189.1263	33	C13H17O+
190.093	5	C11[13]CH13O2+
191.1065	21	C12H15O2+
193.1017	6	C15H13+
194.1052	6	C15H14+
195.1159	29	C15H15+
196.1173	5	C14[13]CH15+
197.0957	14	C14H13O+
197.132	24	C15H17+
198.1001	5	C14H14O+
199.1109	35	C14H15O+
199.1481	8	C15H19+
200.1114	5	C13[13]CH15O+
201.0913	8	C13H13O2+
201.126	18	C14H17O+
203.1055	17	C13H15O2+
203.142	12	C14H19O+
205.1015	9	C16H13+
205.1201	11	C13H17O2+
207.102	11	C12H15O3+
207.1153	19	C16H15+
209.0971	6	C15H13O+
209.1323	19	C16H17+
210.1357	6	C16H18+
211.1112	25	C15H15O+
211.1469	16	C16H19+
212.1124	6	C14[13]CH15O+
213.1267	25	C15H17O+
213.1633	6	C16H21+
214.1298	5	C14[13]CH17O+
215.1052	12	C14H15O2+
215.1411	20	C15H19O+
217.1229	12	C14H17O2+
219.1172	5	C17H15+
221.1312	24	C17H17+
223.1101	18	C16H15O+
223.1463	26	C17H19+
224.154	7	C16[13]CH19+
225.1262	38	C16H17O+
225.1637	21	C17H21+
226.1313	9	C15[13]CH17O+
226.1667	6	C16[13]CH21+
227.1046	7	C15H15O2+
227.142	28	C16H19O+
228.1476	7	C16H20O+
229.1211	11	C15H17O2+
229.1577	6	C16H21O+
231.1361	9	C15H19O2+
232.1247	6	C18H16+
233.1338	6	C18H17+
235.1473	14	C18H19+
237.1257	25	C17H17O+
237.1627	21	C18H21+
238.1666	9	C18H22+
239.1421	71	C17H19O+
239.1789	15	C18H23+
240.1463	12	C16[13]CH19O+
240.1856	5	C17[13]CH23+
241.1211	29	C16H17O2+
241.1579	65	C17H21O+
242.1285	5	C15[13]CH17O2+
242.1639	21	C17H22O+
243.137	24	C16H19O2+
243.1757	32	C17H23O+
244.1423	5	C15[13]CH19O2+
244.1733	8	C16[13]CH23O+
245.1535	5	C16H21O2+
247.1487	12	C19H19+
249.1288	10	C18H17O+
249.1628	11	C19H21+
250.133	5	C18H18O+
251.1419	9	C18H19O+
251.1771	10	C19H23+
252.1494	6	C18H20O+
253.1586	25	C18H21O+
255.1356	15	C17H19O2+
255.1742	35	C18H23O+
256.181	24	C18H24O+
257.152	32	C17H21O2+
257.1882	25	C18H25O+
258.1601	67	C17H22O2+
259.1648	9	C16[13]CH22O2+
261.1489	12	C16H21O3+
261.1653	10	C20H21+
263.1408	13	C19H19O+
264.1554	6	C19H20O+
265.1579	75	C19H21O+
266.162	32	C19H22O+
267.1401	21	C18H19O2+
267.1729	85	C19H23O+
268.1421	8	C18H20O2+
268.1782	14	C18[13]CH23O+
269.1544	19	C18H21O2+
269.1918	7	C19H25O+
271.1697	14	C18H23O2+
277.1589	11	C20H21O+
279.173	39	C20H23O+
280.1761	10	C19[13]CH23O+
281.1543	16	C19H21O2+
282.1609	5	C19H22O2+
283.1689	80	C19H23O2+
284.1751	68	C19H24O2+
285.1498	17	C18H21O3+
285.1832	54	C19H25O2+
286.1875	9	C18[13]CH25O2+
289.157	9	C21H21O+
295.1693	25	C20H23O2+
296.1725	10	C20H24O2+
297.1842	30	C20H25O2+
298.1905	8	C19[13]CH25O2+
299.1628	82	C19H23O3+
300.1698	40	C19H24O3+
301.1791	86	C19H25O3+
302.1835	21	C18[13]CH25O3+
303.1592	11	C18H23O4+
307.1702	34	C21H23O2+
308.1742	9	C20[13]CH23O2+
313.1792	39	C20H25O3+
314.1812	9	C19[13]CH25O3+
315.1947	12	C20H27O3+
316.1972	5	C20H28O3+
317.1754	11	C19H25O4+
325.1795	52	C21H25O3+
326.1831	9	C20[13]CH25O3+
343.1895	69	C21H27O4+
344.1932	21	C20[13]CH27O4+
345.1998	5	C21H29O4+
361.2004	261	C21H29O5+
362.2039	75	C20[13]CH29O5+
