Mass spectrum: Triclocarban; LC-ESI-QTOF; MS2; CE: 10 eV; R=35000; [M-H]-
Name: Triclocarban
Name: 1-(4-chlorophenyl)-3-(3,4-dichlorophenyl)urea
Formula: C13H9Cl3N2O
Exact mass: 313.9780459
SMILES: ClC1=CC=C(NC(=O)NC2=CC(Cl)=C(Cl)C=C2)C=C1
InChI: InChI=1S/C13H9Cl3N2O/c14-8-1-3-9(4-2-8)17-13(19)18-10-5-6-11(15)12(16)7-10/h1-7H,(H2,17,18,19)
Instrument: Bruker maXis Impact
Instrument type: LC-ESI-QTOF
Ms type: MS2
Ion mode: NEGATIVE
Ionization: ESI
Fragmentation mode: CID
Collision energy: 10 eV
Resolution: 35000
Column name: Acclaim RSLC C18 2.2um, 2.1x100mm, Thermo
Retention time: 11.829 min
Base peak: 312.9706
Precursor m/z: 312.9708
Precursor type: [M-H]-
m/z	relative intensity	assigned
126.0116	35	C6H5ClN-
128.0097	8	C6H5[37]ClN-
159.9735	999	C6H4Cl2N-
160.9755	77	C5[13]CH4Cl2N-
161.9701	497	C6H4Cl[37]ClN-
162.9727	18	C3H8Cl3N-
163.966	18	C5H4Cl2NO-
312.9683	28	C13H8Cl3N2O-
314.9673	23	C13H8Cl2[37]ClN2O-
