Mass spectrum: Mebeverine; LC-ESI-QTOF; MS2; CE: 20 eV; R=35000; [M+H]+
Name: Mebeverine
Name: 4-[ethyl-[1-(4-methoxyphenyl)propan-2-yl]amino]butyl 3,4-dimethoxybenzoate
Formula: C25H35NO5
Exact mass: 429.2515232
SMILES: CCN(CCCCOC(=O)C1=CC(OC)=C(OC)C=C1)C(C)CC1=CC=C(OC)C=C1
InChI: InChI=1S/C25H35NO5/c1-6-26(19(2)17-20-9-12-22(28-3)13-10-20)15-7-8-16-31-25(27)21-11-14-23(29-4)24(18-21)30-5/h9-14,18-19H,6-8,15-17H2,1-5H3
Instrument: Bruker maXis Impact
Instrument type: LC-ESI-QTOF
Ms type: MS2
Ion mode: POSITIVE
Ionization: ESI
Fragmentation mode: CID
Collision energy: 20 eV
Resolution: 35000
Column name: Acclaim RSLC C18 2.2um, 2.1x100mm, Thermo
Retention time: 6.680 min
Base peak: 430.2589
Precursor m/z: 430.2588
Precursor type: [M+H]+
m/z	relative intensity	assigned
121.0641	50	C8H9O+
149.0951	738	C10H13O+
150.0984	57	C9[13]CH13O+
165.0534	5	C9H9O3+
248.2	8	C16H26NO+
282.1695	5	C15H24NO4+
430.2594	999	C25H36NO5+
431.2621	397	C24[13]CH36NO5+
432.2647	43	C23[13]C2H36NO5+
