Mass spectrum: Octocrylene; LC-ESI-QTOF; MS2; CE: 40 eV; R=35000; [M+H]+
Name: Octocrylene
Name: 2-ethylhexyl 2-cyano-3,3-diphenylprop-2-enoate
Formula: C24H27NO2
Exact mass: 361.2041791
SMILES: CCCCC(CC)COC(=O)C(C#N)=C(C1=CC=CC=C1)C1=CC=CC=C1
InChI: InChI=1S/C24H27NO2/c1-3-5-12-19(4-2)18-27-24(26)22(17-25)23(20-13-8-6-9-14-20)21-15-10-7-11-16-21/h6-11,13-16,19H,3-5,12,18H2,1-2H3
Instrument: Bruker maXis Impact
Instrument type: LC-ESI-QTOF
Ms type: MS2
Ion mode: POSITIVE
Ionization: ESI
Fragmentation mode: CID
Collision energy: 40 eV
Resolution: 35000
Column name: Acclaim RSLC C18 2.2um, 2.1x100mm, Thermo
Retention time: 13.255 min
Base peak: 379.2387
Precursor m/z: 362.2115
Precursor type: [M+H]+
m/z	relative intensity	assigned
147.0449	36	C9H7O2+
149.0229	45	C11H3N+
157.0266	27	C10H5O2+
176.0622	37	C14H8+
177.0695	150	C14H9+
178.0741	88	C14H10+
179.0851	44	C14H11+
182.0949	28	C13H12N+
203.0734	90	C15H9N+
204.0802	732	C15H10N+
205.0816	163	C14[13]CH10N+
206.0922	63	C15H12N+
222.0895	88	C15H12NO+
223.0636	66	C14H9NO2+
224.0659	31	C18H8+
226.044	29	C17H6O+
232.0749	999	C16H10NO+
233.0786	179	C15[13]CH10NO+
237.0804	120	C15H11NO2+
238.0803	40	C19H10+
239.0774	26	C18H9N+
250.0853	172	C16H12NO2+
251.0882	27	C15[13]CH12NO2+
