Mass spectrum: Benzyl methacrylate; GC-APCI-QTOF; MS2; CE: 20 eV; R=35000; [M]+
Name: Benzyl methacrylate
Formula: C11H12O2
Exact mass: 176.0837
SMILES: CC(=C)C(=O)OCC1=CC=CC=C1
InChI: InChI=1S/C11H12O2/c1-9(2)11(12)13-8-10-6-4-3-5-7-10/h3-7H,1,8H2,2H3
Instrument: Bruker 450 GC coupled to maXis Impact
Instrument type: GC-APCI-QTOF
Ms type: MS2
Ion mode: POSITIVE
Ionization: APCI
Fragmentation mode: CID
Collision energy: 20 eV
Resolution: 35000
Column name: Rxi-5Sil MS column, 30m, 0.25mm i.d., 0.25Âµm film thickness, Restek
Retention time: 10.826 min
Base peak: 176.0822
Precursor m/z: 176.0832
Precursor type: [M]+
m/z	relative intensity	assigned
115.0565	33	C9H7+
116.0645	39	C9H8+
129.0699	160	C10H9+
130.0776	63	C10H10+
131.0854	999	C10H11+
158.0719	106	C11H10O+
