Mass spectrum: Butyl stearate; GC-APCI-QTOF; MS2; CE: 40 eV; R=35000; [M+H]+
Name: Butyl stearate
Formula: C22H44O2
Exact mass: 340.3341
SMILES: CCCCCCCCCCCCCCCCCC(=O)OCCCC
InChI: InChI=1S/C22H44O2/c1-3-5-7-8-9-10-11-12-13-14-15-16-17-18-19-20-22(23)24-21-6-4-2/h3-21H2,1-2H3
Instrument: Bruker 450 GC coupled to maXis Impact
Instrument type: GC-APCI-QTOF
Ms type: MS2
Ion mode: POSITIVE
Ionization: APCI
Fragmentation mode: CID
Collision energy: 40 eV
Resolution: 35000
Column name: Rxi-5Sil MS column, 30m, 0.25mm i.d., 0.25Âµm film thickness, Restek
Retention time: 22.579 min
Base peak: 283.262
Precursor m/z: 341.3414
Precursor type: [M+H]+
m/z	relative intensity	assigned
57.0711	999	C4H9+
71.0864	308	C5H11+
125.0963	298	C8H13O+
135.1183	463	C10H15+
