Mass spectrum: Sudan III; LC-ESI-QTOF; MS2; CE: 30 eV; R=35000; [M+H]+
Name: Sudan III
Formula: C22H16N4O
Exact mass: 352.1324111
SMILES: c1ccc(cc1)/N=N\c2ccc(cc2)/N=N/c3c4ccccc4ccc3O
InChI: InChI=1S/C22H16N4O/c27-21-15-10-16-6-4-5-9-20(16)22(21)26-25-19-13-11-18(12-14-19)24-23-17-7-2-1-3-8-17/h1-15,27H/b24-23-,26-25+
Instrument: Bruker maXis Impact
Instrument type: LC-ESI-QTOF
Ms type: MS2
Ion mode: POSITIVE
Ionization: ESI
Fragmentation mode: CID
Collision energy: 30 eV
Resolution: 35000
Column name: Acclaim RSLC C18 2.2um, 2.1x100mm, Thermo
Retention time: 15.461 min
Base peak: 338.3446
Precursor m/z: 353.1397
Precursor type: [M+H]+
m/z	relative intensity	assigned
115.0547	38	C9H7+
120.0557	106	C6H6N3+
121.1007	54	C9H13+
123.1177	37	C9H15+
125.0963	43	C8H13O+
128.05	254	C9H6N+
128.1078	46	C7H14NO+
129.0536	23	C8[13]CH6N+
130.0424	15	C9H6O+
135.1171	102	C10H15+
137.1329	12	C10H17+
139.1127	41	C9H15O+
141.0701	138	C11H9+
142.1239	33	C8H16NO+
143.0498	177	C10H7O+
143.0845	10	C11H11+
144.0525	24	C8H6N3+
146.0605	24	C9H8NO+
149.1336	76	C11H17+
153.058	13	C11H7N+
153.128	20	C10H17O+
156.0451	771	C10H6NO+
157.0487	103	C9[13]CH6NO+
167.0736	87	C12H9N+
167.1445	22	C9H17N3+
168.0816	106	C12H10N+
169.0793	30	C11H9N2+
171.0559	103	C10H7N2O+
174.0553	65	C8H6N4O+
179.0615	12	C12H7N2+
180.0676	18	C12H8N2+
181.0764	10	C12H9N2+
182.087	19	C12H10N2+
183.0949	15	C12H11N2+
196.0878	942	C14H12O+
197.0955	999	C14H13O+
198.1021	322	C12H12N3+
199.106	39	C11[13]CH12N3+
204.0818	11	C15H10N+
219.0908	17	C15H11N2+
220.1012	29	C15H12N2+
231.0932	10	C16H11N2+
232.0907	34	C17H12O+
233.0712	11	C15H9N2O+
233.0896	10	C15H11N3+
247.0901	68	C16H11N2O+
248.096	55	C16H12N2O+
249.0994	36	C16H13N2O+
261.0912	23	C16H11N3O+
262.1002	12	C16H12N3O+
317.0558	14	C21H7N3O+
336.1377	21	C22H16N4+
353.1427	532	C22H17N4O+
354.1449	133	C21[13]CH17N4O+
