Mass spectrum: Metribuzin; LC-ESI-QTOF; MS2; CE: 40 eV; R=35000; [M+H]+
Name: Metribuzin
Name: 4-amino-6-tert-butyl-3-methylsulfanyl-1,2,4-triazin-5-one
Formula: C8H14N4OS
Exact mass: 214.0888321
SMILES: CSC1=NN=C(C(=O)N1N)C(C)(C)C
InChI: InChI=1S/C8H14N4OS/c1-8(2,3)5-6(13)12(9)7(14-4)11-10-5/h9H2,1-4H3
Instrument: Bruker maXis Impact
Instrument type: LC-ESI-QTOF
Ms type: MS2
Ion mode: POSITIVE
Ionization: ESI
Fragmentation mode: CID
Collision energy: 40 eV
Resolution: 35000
Column name: Acclaim RSLC C18 2.2um, 2.1x100mm, Thermo
Retention time: 6.9 min
Base peak: 215.0958
Precursor m/z: 215.0961
Precursor type: [M+H]+
m/z	relative intensity	assigned
125.0688	163	C6H9N2O+
130.0294	361	C8H4NO+
131.0378	873	C3H7N4S+
139.032	262	C6H7N2S+
139.0981	157	C6H11N4+
140.0398	422	C6H8N2S+
141.0355	244	C5H7N3S+
143.0623	142	C6H11N2S+
145.0533	651	C4H9N4S+
153.0767	201	C6H9N4O+
154.0425	287	C6H8N3S+
155.053	129	C8H11OS+
155.0657	159	C7H11N2S+
156.0581	999	C6H10N3S+
157.056	150	C7H11NOS+
170.0717	125	C7H12N3S+
171.0588	550	C7H11N2OS+
172.0613	120	C8H6N5+
172.0771	157	C6H12N4S+
182.0365	174	C7H8N3OS+
183.0424	151	C7H9N3OS+
184.0531	737	C7H10N3OS+
185.0575	120	C7H11N3OS+
187.101	641	C7H15N4S+
215.0948	129	C8H15N4OS+
