Mass spectrum: Cilastatin; LC-ESI-QTOF; MS2; CE: 10 eV; R=35000; [M+H]+
Name: Cilastatin
Name: (Z)-7-[(2R)-2-amino-2-carboxyethyl]sulfanyl-2-[[(1S)-2,2-dimethylcyclopropanecarbonyl]amino]hept-2-enoic acid
Formula: C16H26N2O5S
Exact mass: 358.1562429
SMILES: CC1(C[C@@H]1/C(=N/C(=C\CCCCSC[C@@H](C(=O)O)N)/C(=O)O)/O)C
InChI: InChI=1S/C16H26N2O5S/c1-16(2)8-10(16)13(19)18-12(15(22)23)6-4-3-5-7-24-9-11(17)14(20)21/h6,10-11H,3-5,7-9,17H2,1-2H3,(H,18,19)(H,20,21)(H,22,23)/b12-6-/t10-,11+/m1/s1
Instrument: Bruker maXis Impact
Instrument type: LC-ESI-QTOF
Ms type: MS2
Ion mode: POSITIVE
Ionization: ESI
Fragmentation mode: CID
Collision energy: 10 eV
Resolution: 35000
Column name: Acclaim RSLC C18 2.2um, 2.1x100mm, Thermo
Retention time: 4.752 min
Base peak: 520.3351
Precursor m/z: 359.1635
Precursor type: [M+H]+
m/z	relative intensity	assigned
130.0691	6	C6H12NS+
156.0843	7	C8H14NS+
202.0913	53	C9H16NO2S+
203.0939	8	C12H13NO2+
217.1029	12	C14H17S+
219.1164	24	C9H19N2O2S+
263.1056	31	C10H19N2O4S+
315.1745	53	C15H27N2O3S+
341.1569	16	C16H25N2O4S+
342.138	30	C16H24NO5S+
359.1657	999	C16H27N2O5S+
360.1686	187	C15[13]CH27N2O5S+
361.1645	52	C16H27N2O5[34]S+
