Mass spectrum: Roxithromycin; LC-ESI-QTOF; MS2; CE: Ramp 32.6-48.9 eV; R=35000; [M+H]+
Name: Roxithromycin
Name: (3R,4S,5S,6R,7R,9R,11S,12R,13S,14R)-6-[(2S,3R,4S,6R)-4-(dimethylamino)-3-hydroxy-6-methyloxan-2-yl]oxy-14-ethyl-7,12,13-trihydroxy-4-[(2R,4R,5S,6S)-5-hydroxy-4-methoxy-4,6-dimethyloxan-2-yl]oxy-10-(2-methoxyethoxymethoxyimino)-3,5,7,9,11,13-hexamethyl-oxacyclotetradecan-2-one
Formula: C41H76N2O15
Exact mass: 836.5245697
SMILES: CC[C@H]1OC(=O)[C@H](C)[C@@H](O[C@H]2C[C@@](C)(OC)[C@@H](O)[C@H](C)O2)[C@H](C)[C@@H](O[C@@H]2O[C@H](C)C[C@@H]([C@H]2O)N(C)C)[C@](C)(O)C[C@@H](C)C(=NOCOCCOC)[C@H](C)[C@@H](O)[C@]1(C)O
InChI: InChI=1S/C41H76N2O15/c1-15-29-41(10,49)34(45)24(4)31(42-53-21-52-17-16-50-13)22(2)19-39(8,48)36(58-38-32(44)28(43(11)12)18-23(3)54-38)25(5)33(26(6)37(47)56-29)57-30-20-40(9,51-14)35(46)27(7)55-30/h22-30,32-36,38,44-46,48-49H,15-21H2,1-14H3/t22-,23-,24+,25+,26-,27+,28+,29-,30+,32-,33+,34-,35+,36-,38+,39-,40-,41-/m1/s1
Instrument: Bruker maXis Impact
Instrument type: LC-ESI-QTOF
Ms type: MS2
Ion mode: POSITIVE
Ionization: ESI
Fragmentation mode: CID
Collision energy: Ramp 32.6-48.9 eV
Resolution: 35000
Column name: Acclaim RSLC C18 2.2um, 2.1x100mm, Thermo
Retention time: 9.010 min
Base peak: 419.2695
Precursor m/z: 837.5318
Precursor type: [M+H]+
m/z	relative intensity	assigned
55.0537	6	C4H7+
72.0804	61	C4H10N+
83.0491	397	C5H7O+
84.0524	17	C4[13]CH7O+
87.0441	10	C4H7O2+
88.0753	11	C4H10NO+
98.0973	42	C6H12N+
99.0807	5	C6H11O+
113.0608	12	C6H9O2+
115.0767	18	C6H11O2+
116.0713	40	C5H10NO2+
116.1081	168	C6H14NO+
117.1111	10	C5[13]CH14NO+
127.0751	17	C7H11O2+
158.1167	999	C8H16NO2+
159.1198	92	C7[13]CH16NO2+
160.122	5	C6[13]C2H16NO2+
176.127	6	C8H18NO3+
316.211	8	CH36N2O15+
380.24	7	C18H36O8+
398.2532	17	C21H36NO6+
416.2646	6	C21H38NO7+
446.2756	7	C22H40NO8+
522.3301	36	C25H48NO10+
523.3311	9	C24[13]CH48NO10+
540.3513	10	C26H52O11+
555.3647	9	C29H51N2O8+
558.3644	29	C29H52NO9+
559.3683	7	C28[13]CH52NO9+
573.3745	9	C29H53N2O9+
603.3845	12	C30H55N2O10+
661.4274	14	C33H61N2O11+
679.4382	304	C33H63N2O12+
680.4415	113	C32[13]CH63N2O12+
681.4445	25	C31[13]C2H63N2O12+
837.5349	19	C41H77N2O15+
838.5381	9	C40[13]CH77N2O15+
