Mass spectrum: N4-Acetyl-Sulfamethoxazole; LC-ESI-QTOF; MS2; CE: 20 eV; R=35000; [M+H]+
Name: N4-Acetyl-Sulfamethoxazole
Name: N4-Acetylsulfamethoxazole
Name: N-[4-[(5-methyl-1,2-oxazol-3-yl)sulfamoyl]phenyl]acetamide
Formula: C12H13N3O4S
Exact mass: 295.0626769
SMILES: CC(=O)NC1=CC=C(C=C1)S(=O)(=O)NC1=NOC(C)=C1
InChI: InChI=1S/C12H13N3O4S/c1-8-7-12(14-19-8)15-20(17,18)11-5-3-10(4-6-11)13-9(2)16/h3-7H,1-2H3,(H,13,16)(H,14,15)
Instrument: Bruker maXis Impact
Instrument type: LC-ESI-QTOF
Ms type: MS2
Ion mode: POSITIVE
Ionization: ESI
Fragmentation mode: CID
Collision energy: 20 eV
Resolution: 35000
Column name: Acclaim RSLC C18 2.2um, 2.1x100mm, Thermo
Retention time: 5.1 min
Base peak: 296.0692
Precursor m/z: 296.07
Precursor type: [M+H]+
m/z	relative intensity	assigned
134.0591	470	C8H8NO+
135.064	57	C3H9N3O3+
136.0747	293	C8H10NO+
137.077	31	C3H11N3O3+
146.07	88	C8H8N3+
147.0778	58	C8H9N3+
148.0857	31	C8H10N3+
150.0535	81	C8H8NO2+
152.0695	26	C8H10NO2+
156.0104	71	C6H6NO2S+
160.0856	144	C9H10N3+
160.9983	36	C7HN2O3+
162.0652	101	C8H8N3O+
174.0195	33	C9H4NO3+
188.0807	442	C10H10N3O+
190.0959	166	C7H14N2O4+
191.1001	26	C5H13N5O3+
194.037	205	C8H8N3OS+
195.0401	17	C8H7N2O4+
198.0209	999	C8H8NO3S+
199.0241	101	C7[13]CH8NO3S+
200.0165	66	C11H6NOS+
202.0976	28	C11H12N3O+
214.0956	34	C9H14N2O4+
218.0365	16	C7H10N2O4S+
230.0932	46	C12H12N3O2+
232.1067	32	C12H14N3O2+
236.0472	119	C10H10N3O2S+
237.0515	24	C10H9N2O5+
254.0593	22	C10H12N3O3S+
278.0611	15	C12H12N3O3S+
296.0696	988	C12H14N3O4S+
297.0714	139	C11[13]CH14N3O4S+
298.066	39	C12H14N3O4[34]S+
