Mass spectrum: Quinmerac; LC-ESI-QTOF; MS2; CE: 20 eV; R=35000; [M+H]+
Name: Quinmerac
Name: 7-chloro-3-methylquinoline-8-carboxylic acid
Formula: C11H8ClNO2
Exact mass: 221.0243562
SMILES: CC1=CC2=C(N=C1)C(C(O)=O)=C(Cl)C=C2
InChI: InChI=1S/C11H8ClNO2/c1-6-4-7-2-3-8(12)9(11(14)15)10(7)13-5-6/h2-5H,1H3,(H,14,15)
Instrument: Bruker maXis Impact
Instrument type: LC-ESI-QTOF
Ms type: MS2
Ion mode: POSITIVE
Ionization: ESI
Fragmentation mode: CID
Collision energy: 20 eV
Resolution: 35000
Column name: Acclaim RSLC C18 2.2um, 2.1x100mm, Thermo
Retention time: 4.891 min
Base peak: 222.0312
Precursor m/z: 222.0316
Precursor type: [M+H]+
m/z	relative intensity	assigned
140.0485	7	C10H6N+
141.0561	13	C10H7N+
149.0142	6	C9H6Cl+
176.0257	13	C10H7ClN+
194.0359	8	C10H9ClNO+
204.0207	999	C11H7ClNO+
205.0237	95	C10[13]CH7ClNO+
206.0177	214	C11H7[37]ClNO+
207.0206	14	C11H8ClO2+
222.0313	113	C11H9ClNO2+
223.0348	14	C10[13]CH9ClNO2+
224.0281	34	C11H9[37]ClNO2+
