Mass spectrum: Torasemide; LC-ESI-QTOF; MS2; CE: 30 eV; R=35000; [M-H]-
Name: Torasemide
Name: Torsemide
Name: 1-[4-(3-methylanilino)pyridin-3-yl]sulfonyl-3-propan-2-ylurea
Formula: C16H20N4O3S
Exact mass: 348.1256115
SMILES: CC(C)NC(=O)NS(=O)(=O)C1=CN=CC=C1NC1=CC=CC(C)=C1
InChI: InChI=1S/C16H20N4O3S/c1-11(2)18-16(21)20-24(22,23)15-10-17-8-7-14(15)19-13-6-4-5-12(3)9-13/h4-11H,1-3H3,(H,17,19)(H2,18,20,21)
Instrument: Bruker maXis Impact
Instrument type: LC-ESI-QTOF
Ms type: MS2
Ion mode: NEGATIVE
Ionization: ESI
Fragmentation mode: CID
Collision energy: 30 eV
Resolution: 35000
Column name: Acclaim RSLC C18 2.2um, 2.1x100mm, Thermo
Retention time: 7.163 min
Base peak: 347.1164
Precursor m/z: 347.1183
Precursor type: [M-H]-
m/z	relative intensity	assigned
150.9959	17	C6H3N2OS-
155.9991	31	C5H4N2O2S-
181.0752	22	C9H11NO3-
183.0921	14	C4H15N4O2S-
194.0697	16	C9H10N2O3-
195.0797	115	C12H9N3-
196.086	107	C14H12O-
197.0942	13	C13[13]CH12O-
198.1021	42	C9H14N2O3-
210.0684	27	C14H10O2-
226.0447	19	C12H8N3S-
228.0741	17	C14H12O3-
228.0841	10	C14H12O3-
244.056	43	C14H12O2S-
262.0641	999	C12H12N3O2S-
263.0668	152	C11[13]CH12N3O2S-
264.0619	59	C12H12N3O2[34]S-
