Mass spectrum: Ethion; LC-ESI-QTOF; MS2; CE: 40 eV; R=35000; [M+H]+
Name: Ethion
Name: diethoxyphosphinothioylsulfanylmethylsulfanyl-diethoxy-sulfanylidene-lambda5-phosphane
Formula: C9H22O4P2S4
Exact mass: 383.9876164
SMILES: CCOP(=S)(OCC)SCSP(=S)(OCC)OCC
InChI: InChI=1S/C9H22O4P2S4/c1-5-10-14(16,11-6-2)18-9-19-15(17,12-7-3)13-8-4/h5-9H2,1-4H3
Instrument: Bruker maXis Impact
Instrument type: LC-ESI-QTOF
Ms type: MS2
Ion mode: POSITIVE
Ionization: ESI
Fragmentation mode: CID
Collision energy: 40 eV
Resolution: 35000
Column name: Acclaim RSLC C18 2.2um, 2.1x100mm, Thermo
Retention time: 12.508 min
Base peak: 384.9944
Precursor m/z: 384.9949
Precursor type: [M+H]+
m/z	relative intensity	assigned
114.9602	15	H4O3PS+
124.981	49	C2H6O2PS+
126.9424	16	CH4OPS2+
128.9217	15	H2O2PS2+
142.9372	999	CH4O2PS2+
143.9381	21	CH4O2PS[33]S+
144.9329	63	CH4O2PS[34]S+
153.0117	51	C4H10O2PS+
156.9533	10	C2H6O2PS2+
170.9682	177	C6H4O2PS+
171.0226	32	C4H12O3PS+
171.9703	9	C5[13]CH4O2PS+
172.964	12	C6H4O2P[34]S+
174.9087	20	C4O2PS2+
184.9831	6	C7H6O2PS+
198.9995	62	C5H12O2PS2+
200.9952	5	C5H12O2PS[34]S+
202.9409	5	C3H8O2PS3+
