Mass spectrum: 3,3`-Dichlorobenzidine; LC-ESI-QTOF; MS2; CE: Ramp 19.9-29.9 eV; R=35000; [M+H]+
Name: 3,3`-Dichlorobenzidine
Name: 4-(4-amino-3-chlorophenyl)-2-chloroaniline
Formula: C12H10Cl2N2
Exact mass: 252.02210368
SMILES: NC1=CC=C(C=C1Cl)C1=CC=C(N)C(Cl)=C1
InChI: InChI=1S/C12H10Cl2N2/c13-9-5-7(1-3-11(9)15)8-2-4-12(16)10(14)6-8/h1-6H,15-16H2
Instrument: Bruker maXis Impact
Instrument type: LC-ESI-QTOF
Ms type: MS2
Ion mode: POSITIVE
Ionization: ESI
Fragmentation mode: CID
Collision energy: Ramp 19.9-29.9 eV
Resolution: 35000
Column name: Acclaim RSLC C18 2.2um, 2.1x100mm, Thermo
Retention time: 8.869 min
Base peak: 102.1286
Precursor m/z: 253.0294
Precursor type: [M+H]+
m/z	relative intensity	assigned
127.0168	6	C6H6ClN+
154.0634	31	C11H8N+
155.07	9	C11H9N+
181.0749	91	C12H9N2+
182.0829	213	C12H10N2+
183.0855	26	C11[13]CH10N2+
188.0233	6	C11H7ClN+
189.0311	7	C11H8ClN+
190.0405	52	C11H9ClN+
191.045	7	C10[13]CH9ClN+
192.0384	14	C11H9[37]ClN+
201.0323	9	C12H8ClN+
215.0349	21	C12H8ClN2+
216.0444	49	C12H9ClN2+
217.0517	291	C12H10ClN2+
218.0597	112	C12H11ClN2+
219.049	56	C12H10[37]ClN2+
220.0536	20	C12H11[37]ClN2+
224.0021	70	C11H8Cl2N+
225.0051	9	C10[13]CH8Cl2N+
225.999	54	C11H8Cl[37]ClN+
251.0129	153	C12H9Cl2N2+
252.021	999	C12H10Cl2N2+
253.0107	138	C12H9Cl[37]ClN2+
253.0264	338	C12H11Cl2N2+
254.0181	532	C12H10Cl[37]ClN2+
255.024	166	C12H11Cl[37]ClN2+
