Mass spectrum: Temazepam; LC-ESI-QTOF; MS2; CE: 30 eV; R=35000; [M+H]+
Name: Temazepam
Name: 7-chloro-3-hydroxy-1-methyl-5-phenyl-3H-1,4-benzodiazepin-2-one
Formula: C16H13ClN2O2
Exact mass: 300.0665553
SMILES: CN1C2=C(C=C(Cl)C=C2)C(=NC(O)C1=O)C1=CC=CC=C1
InChI: InChI=1S/C16H13ClN2O2/c1-19-13-8-7-11(17)9-12(13)14(18-15(20)16(19)21)10-5-3-2-4-6-10/h2-9,15,20H,1H3
Instrument: Bruker maXis Impact
Instrument type: LC-ESI-QTOF
Ms type: MS2
Ion mode: POSITIVE
Ionization: ESI
Fragmentation mode: CID
Collision energy: 30 eV
Resolution: 35000
Column name: Acclaim RSLC C18 2.2um, 2.1x100mm, Thermo
Retention time: 8.5 min
Base peak: 301.0737
Precursor m/z: 301.0738
Precursor type: [M+H]+
m/z	relative intensity	assigned
177.021	11	C12H3NO+
180.0201	29	C12H4O2+
182.0171	7	C15H2+
193.0879	69	C14H11N+
194.0906	9	C9H12N3O2+
216.0563	15	C16H8O+
218.0543	5	C10H8N3O3+
228.0572	76	C14H11ClN+
229.0602	11	C14H12ClN+
230.0542	19	C14H11ClO+
245.0828	8	C14H14ClN2+
255.0679	999	C15H12ClN2+
256.071	150	C15H13ClN2+
257.0652	262	C15H12ClNO+
258.068	25	C15H13ClNO+
283.0626	13	C16H12ClN2O+
285.0589	6	C16H12ClNO2+
