Mass spectrum: N-Phenyl-1-naphthylamine; LC-ESI-QTOF; MS2; CE: 20 eV; R=35000; [M+H]+
Name: N-Phenyl-1-naphthylamine
Name: N-phenylnaphthalen-1-amine
Formula: C16H13N
Exact mass: 219.1047994
SMILES: N(C1=CC=CC=C1)C1=CC=CC2=C1C=CC=C2
InChI: InChI=1S/C16H13N/c1-2-9-14(10-3-1)17-16-12-6-8-13-7-4-5-11-15(13)16/h1-12,17H
Instrument: Bruker maXis Impact
Instrument type: LC-ESI-QTOF
Ms type: MS2
Ion mode: POSITIVE
Ionization: ESI
Fragmentation mode: CID
Collision energy: 20 eV
Resolution: 35000
Column name: Acclaim RSLC C18 2.2um, 2.1x100mm, Thermo
Retention time: 11.677 min
Base peak: 220.1113
Precursor m/z: 220.1121
Precursor type: [M+H]+
m/z	relative intensity	assigned
115.054	17	C9H7+
128.0605	37	C10H8+
142.0635	57	C10H8N+
143.0714	327	C10H9N+
144.0746	46	C9[13]CH9N+
192.0907	6	C15H12+
193.0993	7	C15H13+
203.083	30	C16H11+
204.0793	10	C15H10N+
204.089	5	C15[13]CH11+
205.0883	18	C15H11N+
218.0948	50	C16H12N+
219.1032	169	C16H13N+
220.1111	999	C16H14N+
221.1142	175	C15[13]CH14N+
222.1171	16	C14[13]C2H14N+
