Mass spectrum: Chloramphenicol; LC-ESI-QTOF; MS2; CE: 20 eV; R=35000; [M+H]+
Name: Chloramphenicol
Name: 2,2-Dichloro-N-[1,3-dihydroxy-1-(4-nitrophenyl)propan-2-yl]acetamide
Name: 2,2-dichloro-N-[1,3-dihydroxy-1-(4-nitrophenyl)propan-2-yl]acetamide
Formula: C11H12Cl2N2O5
Exact mass: 322.0123268
SMILES: OCC(NC(=O)C(Cl)Cl)C(O)C1=CC=C(C=C1)[N+]([O-])=O
InChI: InChI=1S/C11H12Cl2N2O5/c12-10(13)11(18)14-8(5-16)9(17)6-1-3-7(4-2-6)15(19)20/h1-4,8-10,16-17H,5H2,(H,14,18)
Instrument: Bruker maXis Impact
Instrument type: LC-ESI-QTOF
Ms type: MS2
Ion mode: POSITIVE
Ionization: ESI
Fragmentation mode: CID
Collision energy: 20 eV
Resolution: 35000
Column name: Acclaim RSLC C18 2.2um, 2.1x100mm, Thermo
Retention time: 5.729 min
Base peak: 376.2389
Precursor m/z: 323.0196
Precursor type: [M+H]+
m/z	relative intensity	assigned
161.0708	72	C9H9N2O+
162.0541	85	C9H8NO2+
165.0636	361	C5H11NO5+
241.0045	179	C11H9Cl2NO+
243.0035	67	C11H9Cl[37]ClNO+
257.9937	94	C7H10Cl2NO5+
274.9977	999	C10H9Cl2N2O3+
276.0005	108	C9[13]CH9Cl2N2O3+
276.9935	624	C10H9Cl[37]ClN2O3+
