Mass spectrum: Bisphenol S; LC-ESI-QTOF; MS2; CE: 10 eV; R=35000; [M-H]-
Name: Bisphenol S
Name: Phenol, 4,4`-sulfonylbis-
Name: 4-(4-hydroxyphenyl)sulfonylphenol
Formula: C12H10O4S
Exact mass: 250.0299798
SMILES: OC1=CC=C(C=C1)S(=O)(=O)C1=CC=C(O)C=C1
InChI: InChI=1S/C12H10O4S/c13-9-1-5-11(6-2-9)17(15,16)12-7-3-10(14)4-8-12/h1-8,13-14H
Instrument: Bruker maXis Impact
Instrument type: LC-ESI-QTOF
Ms type: MS2
Ion mode: NEGATIVE
Ionization: ESI
Fragmentation mode: CID
Collision energy: 10 eV
Resolution: 35000
Column name: Acclaim RSLC C18 2.2um, 2.1x100mm, Thermo
Retention time: 5.219 min
Base peak: 249.0223
Precursor m/z: 249.0227
Precursor type: [M-H]-
m/z	relative intensity	assigned
155.9878	9	C6H4O3S-
185.0591	5	C12H9O2-
249.0223	999	C12H9O4S-
250.0242	151	C11[13]CH9O4S-
251.0206	49	C12H9O4[34]S-
