Mass spectrum: Chlorfenvinphos; LC-ESI-QTOF; MS2; CE: Ramp 22.8-34.1 eV; R=35000; [M+H]+
Name: Chlorfenvinphos
Name: Phosphoric acid, 2-chloro-1-(2,4-dichlorophenyl)ethenyl diethyl ester
Name: [2-chloro-1-(2,4-dichlorophenyl)ethenyl] diethyl phosphate
Formula: C12H14Cl3O4P
Exact mass: 357.9695286
SMILES: CCOP(=O)(OCC)OC(=CCl)C1=C(Cl)C=C(Cl)C=C1
InChI: InChI=1S/C12H14Cl3O4P/c1-3-17-20(16,18-4-2)19-12(8-13)10-6-5-9(14)7-11(10)15/h5-8H,3-4H2,1-2H3
Instrument: Bruker maXis Impact
Instrument type: LC-ESI-QTOF
Ms type: MS2
Ion mode: POSITIVE
Ionization: ESI
Fragmentation mode: CID
Collision energy: Ramp 22.8-34.1 eV
Resolution: 35000
Column name: Acclaim RSLC C18 2.2um, 2.1x100mm, Thermo
Retention time: 14.799 min
Base peak: 102.1281
Precursor m/z: 358.9768
Precursor type: [M+H]+
m/z	relative intensity	assigned
57.0694	999	C4H9+
67.0535	220	C5H7+
71.0843	539	C5H11+
81.069	180	C6H9+
85.0996	208	C6H13+
123.1158	182	C9H15+
129.0527	160	C6H9O3+
149.0224	273	C8H5O3+
155.0439	192	C4H12O4P+
176.9502	196	C5H3ClO3P+
219.9559	204	C10HClO4+
225.0415	566	C8H15ClO3P+
238.0806	620	C12H15O3P+
241.0387	182	C8H15ClO4P+
