Mass spectrum: 4-Androstene-3,17-dione; LC-ESI-QTOF; MS2; CE: Ramp 21.1-31.7 eV; R=35000; [M+H]+
Name: 4-Androstene-3,17-dione
Name: Androstenedione
Name: (8R,9S,10R,13S,14S)-10,13-dimethyl-2,6,7,8,9,11,12,14,15,16-decahydro-1H-cyclopenta[a]phenanthrene-3,17-dione
Formula: C19H26O2
Exact mass: 286.1932801
SMILES: C[C@]12CC[C@H]3[C@@H](CCC4=CC(=O)CC[C@]34C)[C@@H]1CCC2=O
InChI: InChI=1S/C19H26O2/c1-18-9-7-13(20)11-12(18)3-4-14-15-5-6-17(21)19(15,2)10-8-16(14)18/h11,14-16H,3-10H2,1-2H3/t14-,15-,16-,18-,19-/m0/s1
Instrument: Bruker maXis Impact
Instrument type: LC-ESI-QTOF
Ms type: MS2
Ion mode: POSITIVE
Ionization: ESI
Fragmentation mode: CID
Collision energy: Ramp 21.1-31.7 eV
Resolution: 35000
Column name: Acclaim RSLC C18 2.2um, 2.1x100mm, Thermo
Retention time: 9.398 min
Base peak: 299.2004
Precursor m/z: 287.2006
Precursor type: [M+H]+
m/z	relative intensity	assigned
55.0173	6	C3H3O+
67.0545	6	C5H7+
69.0694	12	C5H9+
79.0541	16	C6H7+
81.0691	14	C6H9+
83.0488	39	C5H7O+
93.0694	5	C7H9+
97.0654	303	C6H9O+
98.0683	31	C5[13]CH9O+
109.0657	139	C7H9O+
117.0683	5	C9H9+
119.0846	24	C9H11+
121.0635	9	C8H9O+
121.1	12	C9H13+
123.0795	111	C8H11O+
124.0843	5	C7[13]CH11O+
125.0947	5	C8H13O+
129.0688	7	C10H9+
131.0842	29	C10H11+
133.0997	46	C10H13+
134.1043	5	C9[13]CH13+
135.0785	6	C9H11O+
135.1165	12	C10H15+
137.095	6	C9H13O+
143.0839	17	C11H11+
145.1	55	C11H13+
147.079	5	C10H11O+
147.1155	37	C11H15+
149.0937	6	C10H13O+
149.1301	10	C11H17+
153.0887	5	C9H13O2+
155.0847	5	C12H11+
157.0987	24	C12H13+
159.0787	5	C11H11O+
159.1156	35	C12H15+
161.0938	12	C11H13O+
161.131	21	C12H17+
163.1104	12	C11H15O+
169.0989	19	C13H13+
171.1166	20	C13H15+
173.0942	6	C12H13O+
173.1313	74	C13H17+
175.1101	10	C12H15O+
177.1254	14	C12H17O+
181.1002	9	C14H13+
183.1153	16	C14H15+
185.1304	46	C14H17+
186.1347	5	C13[13]CH17+
187.1092	7	C13H15O+
187.1469	31	C14H19+
189.128	5	C13H17O+
191.1422	11	C13H19O+
195.1159	11	C15H15+
197.1306	8	C15H17+
199.1098	8	C14H15O+
199.1471	20	C15H19+
201.1244	6	C14H17O+
203.1434	6	C14H19O+
205.1581	6	C14H21O+
209.1315	26	C16H17+
210.1371	6	C15[13]CH17+
211.1473	66	C16H19+
212.1509	15	C15[13]CH19+
213.1259	11	C15H17O+
213.1639	5	C16H21+
215.1449	5	C15H19O+
217.1563	22	C15H21O+
223.1474	9	C17H19+
225.162	18	C17H21+
227.1421	7	C16H19O+
227.1776	19	C17H23+
228.1847	6	C17H24+
229.1581	40	C16H21O+
230.1594	8	C15[13]CH21O+
241.1959	9	C18H25+
243.1729	5	C17H23O+
245.1864	6	C17H25O+
251.178	43	C19H23+
252.183	9	C18[13]CH23+
269.1896	104	C19H25O+
270.1927	28	C18[13]CH25O+
287.2002	999	C19H27O2+
288.2037	217	C18[13]CH27O2+
289.2068	21	C17[13]C2H27O2+
