Mass spectrum: Mefenamic acid; LC-ESI-QTOF; MS2; CE: 20 eV; R=35000; [M-H]-
Name: Mefenamic acid
Name: 2-(2,3-dimethylanilino)benzoic acid
Formula: C15H15NO2
Exact mass: 241.1102787
SMILES: CC1=C(C)C(NC2=CC=CC=C2C(O)=O)=CC=C1
InChI: InChI=1S/C15H15NO2/c1-10-6-5-9-13(11(10)2)16-14-8-4-3-7-12(14)15(17)18/h3-9,16H,1-2H3,(H,17,18)
Instrument: Bruker maXis Impact
Instrument type: LC-ESI-QTOF
Ms type: MS2
Ion mode: NEGATIVE
Ionization: ESI
Fragmentation mode: CID
Collision energy: 20 eV
Resolution: 35000
Column name: Acclaim RSLC C18 2.2um, 2.1x100mm, Thermo
Retention time: 9.348 min
Base peak: 240.1027
Precursor m/z: 240.103
Precursor type: [M-H]-
m/z	relative intensity	assigned
179.0869	15	C14H11-
180.0826	39	C13H10N-
181.0876	6	C12[13]CH10N-
192.0818	32	C14H10N-
194.0986	24	C14H12N-
195.0994	5	C13[13]CH12N-
196.1135	999	C14H14N-
197.1158	191	C13[13]CH14N-
198.1215	9	C12[13]C2H14N-
240.101	31	C15H14NO2-
241.1042	7	C14[13]CH14NO2-
