Mass spectrum: Warfarin; LC-ESI-QTOF; MS2; CE: Ramp 20-30 eV; R=35000; [M+H]+
Name: Warfarin
Name: 4-hydroxy-3-(3-oxo-1-phenylbutyl)chromen-2-one
Formula: C19H16O4
Exact mass: 308.1048590
SMILES: CC(=O)CC(C1=CC=CC=C1)C1=C(O)C2=CC=CC=C2OC1=O
InChI: InChI=1S/C19H16O4/c1-12(20)11-15(13-7-3-2-4-8-13)17-18(21)14-9-5-6-10-16(14)23-19(17)22/h2-10,15,21H,11H2,1H3
Instrument: Bruker maXis Impact
Instrument type: LC-ESI-QTOF
Ms type: MS2
Ion mode: POSITIVE
Ionization: ESI
Fragmentation mode: CID
Collision energy: Ramp 20-30 eV
Resolution: 35000
Column name: Acclaim RSLC C18 2.2um, 2.1x100mm, Thermo
Retention time: 9.373 min
Base peak: 309.1127
Precursor m/z: 309.1121
Precursor type: [M+H]+
m/z	relative intensity	assigned
91.0543	5	C7H7+
121.0282	34	C7H5O2+
129.0693	18	C10H9+
131.0488	17	C9H7O+
147.0798	88	C10H11O+
148.0829	8	C9[13]CH11O+
155.0846	22	C12H11+
163.038	698	C9H7O3+
164.0415	67	C8[13]CH7O3+
165.0432	5	C9H7O2[18]O+
167.0845	5	C13H11+
171.08	6	C12H11O+
173.0225	22	C10H5O3+
175.0383	6	C10H7O3+
178.0767	5	C14H10+
183.08	59	C13H11O+
184.0835	8	C12[13]CH11O+
189.0537	12	C11H9O3+
191.0334	89	C10H7O4+
192.0369	9	C9[13]CH7O4+
205.0637	5	C15H9O+
223.075	34	C15H11O2+
224.0783	5	C14[13]CH11O2+
233.0591	11	C16H9O2+
251.0699	999	C16H11O3+
252.0736	170	C15[13]CH11O3+
253.0763	14	C14[13]C2H11O3+
291.1016	11	C19H15O3+
309.1138	13	C19H17O4+
