Mass spectrum: Picolinafen; LC-ESI-QTOF; MS2; CE: 20 eV; R=35000; [M-H]-
Name: Picolinafen
Name: N-(4-fluorophenyl)-6-[3-(trifluoromethyl)phenoxy]pyridine-2-carboxamide
Formula: C19H12F4N2O2
Exact mass: 376.0834905
SMILES: FC1=CC=C(NC(=O)C2=NC(OC3=CC=CC(=C3)C(F)(F)F)=CC=C2)C=C1
InChI: InChI=1S/C19H12F4N2O2/c20-13-7-9-14(10-8-13)24-18(26)16-5-2-6-17(25-16)27-15-4-1-3-12(11-15)19(21,22)23/h1-11H,(H,24,26)
Instrument: Bruker maXis Impact
Instrument type: LC-ESI-QTOF
Ms type: MS2
Ion mode: NEGATIVE
Ionization: ESI
Fragmentation mode: CID
Collision energy: 20 eV
Resolution: 35000
Column name: Acclaim RSLC C18 2.2um, 2.1x100mm, Thermo
Retention time: 12.322 min
Base peak: 375.0746
Precursor m/z: 375.0762
Precursor type: [M-H]-
m/z	relative intensity	assigned
136.0199	94	C7H3FNO-
188.0512	92	C11H7FNO-
210.0536	843	C11H7F3N-
211.0549	109	C10[13]CH7F3N-
218.0396	44	C15H5FN-
231.0584	212	C15H7N2O-
232.0601	68	C14[13]CH7N2O-
238.0476	981	C15H6F2N-
239.0501	181	C14[13]CH6F2N-
282.0406	94	C16H5F3N2-
375.0736	999	C19H11F4N2O2-
376.0767	286	C18[13]CH11F4N2O2-
