Mass spectrum: Cyclamate; LC-ESI-QTOF; MS2; CE: 20 eV; R=35000; [M-H]-
Name: Cyclamate
Name: Cyclamic acid
Name: cyclohexylsulfamic acid
Formula: C6H13NO3S
Exact mass: 179.0616143
SMILES: OS(=O)(=O)NC1CCCCC1
InChI: InChI=1S/C6H13NO3S/c8-11(9,10)7-6-4-2-1-3-5-6/h6-7H,1-5H2,(H,8,9,10)
Instrument: Bruker maXis Impact
Instrument type: LC-ESI-QTOF
Ms type: MS2
Ion mode: NEGATIVE
Ionization: ESI
Fragmentation mode: CID
Collision energy: 20 eV
Resolution: 35000
Column name: Acclaim RSLC C18 2.2um, 2.1x100mm, Thermo
Retention time: 3.932 min
Base peak: 134.0359
Precursor m/z: 178.0543
Precursor type: [M-H]-
m/z	relative intensity	assigned
164.0358	539	C5H10NO3S-
178.0535	999	C6H12NO3S-
