Mass spectrum: Metalaxyl; LC-ESI-QTOF; MS2; CE: 50 eV; R=35000; [M+H]+
Name: Metalaxyl
Name: methyl 2-(N-(2-methoxyacetyl)-2,6-dimethylanilino)propanoate
Formula: C15H21NO4
Exact mass: 279.1470582
SMILES: COCC(=O)N(C(C)C(=O)OC)C1=C(C)C=CC=C1C
InChI: InChI=1S/C15H21NO4/c1-10-7-6-8-11(2)14(10)16(13(17)9-19-4)12(3)15(18)20-5/h6-8,12H,9H2,1-5H3
Instrument: Bruker maXis Impact
Instrument type: LC-ESI-QTOF
Ms type: MS2
Ion mode: POSITIVE
Ionization: ESI
Fragmentation mode: CID
Collision energy: 50 eV
Resolution: 35000
Column name: Acclaim RSLC C18 2.2um, 2.1x100mm, Thermo
Retention time: 8.242 min
Base peak: 280.1549
Precursor m/z: 280.1543
Precursor type: [M+H]+
m/z	relative intensity	assigned
115.0539	34	C9H7+
117.0563	176	C8H7N+
118.0638	100	C5H10O3+
119.0715	27	C5H11O3+
119.0846	26	C9H11+
120.0796	48	C8H10N+
121.0865	21	C5H13O3+
122.0953	5	C8H12N+
128.0608	28	C10H8+
129.0677	7	C10H9+
130.064	523	C9H8N+
131.0706	130	C6H11O3+
132.0797	999	C9H10N+
133.0864	235	C6H13O3+
134.0953	723	C9H12N+
135.0665	32	C5H11O4+
135.0988	79	C8[13]CH12N+
142.0644	6	C10H8N+
143.0715	23	C7H11O3+
144.0796	509	C10H10N+
145.0871	624	C7H13O3+
146.0938	141	C7H14O3+
147.1008	31	C7H15O3+
148.074	29	C6H12O4+
148.1105	358	C7H16O3+
149.0819	30	C6H13O4+
149.114	37	C6[13]CH16O3+
150.0899	57	C9H12NO+
151.0934	6	C8[13]CH12NO+
155.058	5	C7H9NO3+
158.0949	24	C8H14O3+
159.1006	11	C8H15O3+
160.1107	633	C8H16O3+
161.1142	77	C7[13]CH16O3+
162.1262	122	C8H18O3+
163.1296	16	C7[13]CH18O3+
164.1054	40	C10H14NO+
165.1097	5	C9[13]CH14NO+
192.1374	12	C12H18NO+
