Mass spectrum: Chloramphenicol; LC-ESI-QTOF; MS2; CE: 20 eV; R=35000; [M-H]-
Name: Chloramphenicol
Name: 2,2-Dichloro-N-[1,3-dihydroxy-1-(4-nitrophenyl)propan-2-yl]acetamide
Name: 2,2-dichloro-N-[1,3-dihydroxy-1-(4-nitrophenyl)propan-2-yl]acetamide
Formula: C11H12Cl2N2O5
Exact mass: 322.0123268
SMILES: OCC(NC(=O)C(Cl)Cl)C(O)C1=CC=C(C=C1)[N+]([O-])=O
InChI: InChI=1S/C11H12Cl2N2O5/c12-10(13)11(18)14-8(5-16)9(17)6-1-3-7(4-2-6)15(19)20/h1-4,8-10,16-17H,5H2,(H,14,18)
Instrument: Bruker maXis Impact
Instrument type: LC-ESI-QTOF
Ms type: MS2
Ion mode: NEGATIVE
Ionization: ESI
Fragmentation mode: CID
Collision energy: 20 eV
Resolution: 35000
Column name: Acclaim RSLC C18 2.2um, 2.1x100mm, Thermo
Retention time: 5.677 min
Base peak: 321.0047
Precursor m/z: 321.0051
Precursor type: [M-H]-
m/z	relative intensity	assigned
121.0302	253	C4H8ClNO-
122.0306	35	C2H6N2O4-
148.0397	78	C8H6NO2-
151.0274	692	C7H5NO3-
152.0351	999	C7H6NO3-
153.0389	96	C6[13]CH6NO3-
159.0345	41	C6H8ClN2O-
176.0352	197	C9H6NO3-
179.0469	33	C8H7N2O3-
194.0451	53	C9H8NO4-
249.0517	48	C11H9N2O5-
257.0338	48	C10H10ClN2O4-
