Mass spectrum: PCB 101; GC-APCI-QTOF; MS2; CE: 40 eV; R=35000; [M]+
Name: PCB 101
Name: 2,2`,4,5,5`-Pentachlorobiphenyl
Name: 1,2,4-trichloro-5-(2,5-dichlorophenyl)benzene
Formula: C12H5Cl5
Exact mass: 323.8834
SMILES: ClC1=CC(=C(Cl)C=C1)C1=C(Cl)C=C(Cl)C(Cl)=C1
InChI: InChI=1S/C12H5Cl5/c13-6-1-2-9(14)7(3-6)8-4-11(16)12(17)5-10(8)15/h1-5H
Instrument: Bruker 450 GC coupled to maXis Impact
Instrument type: GC-APCI-QTOF
Ms type: MS2
Ion mode: POSITIVE
Ionization: APCI
Fragmentation mode: CID
Collision energy: 40 eV
Resolution: 35000
Column name: Rxi-5Sil MS column, 30m, 0.25mm i.d., 0.25Âµm film thickness (Restek)
Retention time: 19.456 min
Base peak: 323.8831
Precursor m/z: 323.8828
Precursor type: [M]+
m/z	relative intensity	assigned
253.9438	999	C12H5Cl3+
288.9143	33	C12H5Cl4+
