Mass spectrum: Atorvastatin; LC-ESI-QTOF; MS2; CE: 10 eV; R=35000; [M+H]+
Name: Atorvastatin
Name: atorvastatin
Name: (3R,5R)-7-[2-(4-fluorophenyl)-3-phenyl-4-(phenylcarbamoyl)-5-propan-2-ylpyrrol-1-yl]-3,5-dihydroxyheptanoic acid
Formula: C33H35FN2O5
Exact mass: 558.2530004
SMILES: CC(C)c1c(c(c(n1CC[C@H](C[C@H](CC(=O)O)O)O)c2ccc(cc2)F)c3ccccc3)/C(=N/c4ccccc4)/O
InChI: InChI=1S/C33H35FN2O5/c1-21(2)31-30(33(41)35-25-11-7-4-8-12-25)29(22-9-5-3-6-10-22)32(23-13-15-24(34)16-14-23)36(31)18-17-26(37)19-27(38)20-28(39)40/h3-16,21,26-27,37-38H,17-20H2,1-2H3,(H,35,41)(H,39,40)/t26-,27-/m1/s1
Instrument: Bruker maXis Impact
Instrument type: LC-ESI-QTOF
Ms type: MS2
Ion mode: POSITIVE
Ionization: ESI
Fragmentation mode: CID
Collision energy: 10 eV
Resolution: 35000
Column name: Acclaim RSLC C18 2.2um, 2.1x100mm, Thermo
Retention time: 10.054 min
Base peak: 559.2627
Precursor m/z: 559.2603
Precursor type: [M+H]+
m/z	relative intensity	assigned
440.226	33	C29H29FN2O+
441.2307	9	C28[13]CH29FN2O+
466.2091	27	C30H27FN2O2+
467.2121	5	C29[13]CH27FN2O2+
559.2646	999	C33H36FN2O5+
560.2674	364	C32[13]CH36FN2O5+
561.2694	72	C31[13]C2H36FN2O5+
