Mass spectrum: Methylchloroisothiazolinone; LC-ESI-QTOF; MS2; CE: 20 eV; R=35000; [M+H]+
Name: Methylchloroisothiazolinone
Name: 5-Chloro-2-methyl-4-isothiazolin-3-one
Name: 5-chloro-2-methyl-1,2-thiazol-3-one
Formula: C4H4ClNOS
Exact mass: 148.9702124
SMILES: CN1SC(Cl)=CC1=O
InChI: InChI=1S/C4H4ClNOS/c1-6-4(7)2-3(5)8-6/h2H,1H3
Instrument: Bruker maXis Impact
Instrument type: LC-ESI-QTOF
Ms type: MS2
Ion mode: POSITIVE
Ionization: ESI
Fragmentation mode: CID
Collision energy: 20 eV
Resolution: 35000
Column name: Acclaim RSLC C18 2.2um, 2.1x100mm, Thermo
Retention time: 4.433 min
Base peak: 153.1015
Precursor m/z: 149.9775
Precursor type: [M+H]+
m/z	relative intensity	assigned
118.9341	37	C3ClOS+
134.9526	88	C3H2ClNOS+
149.9765	999	C4H5ClNOS+
150.9792	52	C3[13]CH5ClNOS+
151.9734	345	C4H5[37]ClNOS+
