Mass spectrum: Dimoxystrobin; LC-ESI-QTOF; MS2; CE: 30 eV; R=35000; [M+H]+
Name: Dimoxystrobin
Name: Benzeneacetamide, 2-((2,5-dimethylphenoxy)methyl)-alpha-(methoxyimino)-N-methyl-, (alphaE)-
Name: (2E)-2-[2-[(2,5-dimethylphenoxy)methyl]phenyl]-2-methoxyimino-N-methylacetamide
Formula: C19H22N2O3
Exact mass: 326.1630426
SMILES: CNC(=O)C(=N\OC)\C1=CC=CC=C1COC1=CC(C)=CC=C1C
InChI: InChI=1S/C19H22N2O3/c1-13-9-10-14(2)17(11-13)24-12-15-7-5-6-8-16(15)18(21-23-4)19(22)20-3/h5-11H,12H2,1-4H3,(H,20,22)/b21-18+
Instrument: Bruker maXis Impact
Instrument type: LC-ESI-QTOF
Ms type: MS2
Ion mode: POSITIVE
Ionization: ESI
Fragmentation mode: CID
Collision energy: 30 eV
Resolution: 35000
Column name: Acclaim RSLC C18 2.2um, 2.1x100mm, Thermo
Retention time: 10.734 min
Base peak: 327.1705
Precursor m/z: 327.1703
Precursor type: [M+H]+
m/z	relative intensity	assigned
116.0491	999	C8H6N+
117.053	101	C7[13]CH6N+
118.0634	11	C5H10O3+
121.0648	7	C8H9O+
134.059	6	C8H8NO+
135.0794	6	C9H11O+
145.0747	12	C9H9N2+
146.0589	5	C9H8NO+
146.0826	9	C9H10N2+
148.0744	40	C9H10NO+
174.0776	9	C10H10N2O+
180.0804	5	C13H10N+
193.1001	16	C15H13+
195.1033	24	C14H13N+
196.1101	9	C11H16O3+
205.0967	738	C11H13N2O2+
206.0998	72	C10[13]CH13N2O2+
207.1024	5	C9[13]C2H13N2O2+
210.1268	18	C15H16N+
221.0953	10	C16H13O+
222.1021	10	C16H14O+
223.0989	85	C15H13NO+
224.1021	13	C14[13]CH13NO+
238.1223	36	C16H16NO+
239.1258	7	C15[13]CH16NO+
252.1375	5	C17H18NO+
