Mass spectrum: Triethyl citrate; GC-APCI-QTOF; MS2; CE: 40 eV; R=35000; [M+H]+
Name: Triethyl citrate
Formula: C12H20O7
Exact mass: 276.1209
SMILES: CCOC(=O)CC(CC(=O)OCC)(C(=O)OCC)O
InChI: InChI=1S/C12H20O7/c1-4-17-9(13)7-12(16,11(15)19-6-3)8-10(14)18-5-2/h16H,4-8H2,1-3H3
Instrument: Bruker 450 GC coupled to maXis Impact
Instrument type: GC-APCI-QTOF
Ms type: MS2
Ion mode: POSITIVE
Ionization: APCI
Fragmentation mode: CID
Collision energy: 40 eV
Resolution: 35000
Column name: Rxi-5Sil MS column, 30m, 0.25mm i.d., 0.25Âµm film thickness, Restek
Retention time: 20.377 min
Base peak: 277.1078
Precursor m/z: 277.1282
Precursor type: [M+H]+
m/z	relative intensity	assigned
55.0183	7	C3H3O+
55.0542	6	C4H7+
67.0538	9	C5H7+
105.0328	42	C7H5O+
116.0494	10	C5H8O3+
121.0278	13	C7H5O2+
128.0495	40	C6H8O3+
129.0344	14	C9H5O+
151.059	16	C5H11O5+
152.065	42	C5H12O5+
153.0712	19	C12H9+
165.0734	243	C6H13O5+
169.069	53	C5H13O6+
170.0764	11	C5H14O6+
173.0435	9	C7H9O5+
175.0411	5	C10H7O3+
175.0585	7	C7H11O5+
176.0643	405	C7H12O5+
177.0721	496	C7H13O5+
178.0797	341	C7H14O5+
181.0662	49	C6H13O6+
190.0669	61	C11H10O3+
191.0732	59	C11H11O3+
192.0826	88	C11H12O3+
192.1035	6	C8H16O5+
193.0661	37	C7H13O6+
193.0877	23	C11H13O3+
194.0752	16	C7H14O6+
195.0828	40	C7H15O6+
202.0662	69	C12H10O3+
203.0739	934	C12H11O3+
204.0813	999	C12H12O3+
207.1022	5	C12H15O3+
215.0911	9	C10H15O5+
220.0756	316	C12H12O4+
221.0659	16	C8H13O7+
221.0804	49	C12H13O4+
222.0905	14	C12H14O4+
