Mass spectrum: Cilastatin; LC-ESI-QTOF; MS2; CE: 50 eV; R=35000; [M+Na]+
Name: Cilastatin
Name: (Z)-7-[(2R)-2-amino-2-carboxyethyl]sulfanyl-2-[[(1S)-2,2-dimethylcyclopropanecarbonyl]amino]hept-2-enoic acid
Formula: C16H26N2O5S
Exact mass: 358.1562429
SMILES: CC1(C[C@@H]1/C(=N/C(=C\CCCCSC[C@@H](C(=O)O)N)/C(=O)O)/O)C
InChI: InChI=1S/C16H26N2O5S/c1-16(2)8-10(16)13(19)18-12(15(22)23)6-4-3-5-7-24-9-11(17)14(20)21/h6,10-11H,3-5,7-9,17H2,1-2H3,(H,18,19)(H,20,21)(H,22,23)/b12-6-/t10-,11+/m1/s1
Instrument: Bruker maXis Impact
Instrument type: LC-ESI-QTOF
Ms type: MS2
Ion mode: POSITIVE
Ionization: ESI
Fragmentation mode: CID
Collision energy: 50 eV
Resolution: 35000
Column name: Acclaim RSLC C18 2.2um, 2.1x100mm, Thermo
Retention time: 14.748 min
Base peak: 391.2865
Precursor m/z: 381.1455
Precursor type: [M+Na]+
m/z	relative intensity	assigned
177.0703	518	C14H9+
203.0754	579	C12H13NS+
204.0819	900	C10H15NNaS+
205.0773	487	C9H14N2NaS+
232.0769	999	C11H15NNaOS+
