Mass spectrum: (+/-)-Camphor; GC-APCI-QTOF; MS2; CE: 30 eV; R=35000; [M+H]+
Name: (+/-)-Camphor
Formula: C10H16O
Exact mass: 152.1201
SMILES: CC1(C2CCC1(C(=O)C2)C)C
InChI: InChI=1S/C10H16O/c1-9(2)7-4-5-10(9,3)8(11)6-7/h7H,4-6H2,1-3H3
Instrument: Bruker 450 GC coupled to maXis Impact
Instrument type: GC-APCI-QTOF
Ms type: MS2
Ion mode: POSITIVE
Ionization: APCI
Fragmentation mode: CID
Collision energy: 30 eV
Resolution: 35000
Column name: Rxi-5Sil MS column, 30m, 0.25mm i.d., 0.25Âµm film thickness, Restek
Retention time: 9.039 min
Base peak: 153.1288
Precursor m/z: 153.1274
Precursor type: [M+H]+
m/z	relative intensity	assigned
57.0702	482	C4H9+
69.0697	999	C5H9+
97.0636	533	C6H9O+
119.0839	620	C9H11+
135.1177	533	C10H15+
137.0956	585	C9H13O+
