Mass spectrum: 3-(4-Isopropylphenyl)isobutyraldehyde; GC-APCI-QTOF; MS2; CE: 30 eV; R=35000; [M+H]+
Name: 3-(4-Isopropylphenyl)isobutyraldehyde
Formula: C13H18O
Exact mass: 190.1358
SMILES: CC(C)C1=CC=C(C=C1)CC(C)C=O
InChI: InChI=1S/C13H18O/c1-10(2)13-6-4-12(5-7-13)8-11(3)9-14/h4-7,9-11H,8H2,1-3H3
Instrument: Bruker 450 GC coupled to maXis Impact
Instrument type: GC-APCI-QTOF
Ms type: MS2
Ion mode: POSITIVE
Ionization: APCI
Fragmentation mode: CID
Collision energy: 30 eV
Resolution: 35000
Column name: Rxi-5Sil MS column, 30m, 0.25mm i.d., 0.25Âµm film thickness, Restek
Retention time: 24.299 min
Base peak: 368.2722
Precursor m/z: 191.143
Precursor type: [M+H]+
m/z	relative intensity	assigned
119.0846	699	C9H11+
120.0917	579	C9H12+
123.0804	739	C8H11O+
129.0676	539	C10H9+
133.1007	999	C10H13+
161.0967	619	C11H13O+
