Mass spectrum: Dodemorph; LC-ESI-QTOF; MS2; CE: 30 eV; R=35000; [M+H]+
Name: Dodemorph
Name: 4-cyclododecyl-2,6-dimethylmorpholine
Formula: C18H35NO
Exact mass: 281.2718647
SMILES: CC1CN(CC(C)O1)C1CCCCCCCCCCC1
InChI: InChI=1S/C18H35NO/c1-16-14-19(15-17(2)20-16)18-12-10-8-6-4-3-5-7-9-11-13-18/h16-18H,3-15H2,1-2H3
Instrument: Bruker maXis Impact
Instrument type: LC-ESI-QTOF
Ms type: MS2
Ion mode: POSITIVE
Ionization: ESI
Fragmentation mode: CID
Collision energy: 30 eV
Resolution: 35000
Column name: Acclaim RSLC C18 2.2um, 2.1x100mm, Thermo
Retention time: 8.777 min
Base peak: 282.2787
Precursor m/z: 282.2791
Precursor type: [M+H]+
m/z	relative intensity	assigned
116.1063	829	C6H14NO+
123.1161	10	C9H15+
132.0785	9	C9H10N+
133.0874	8	C9H11N+
134.0953	16	C9H12N+
144.082	6	C10H10N+
145.0871	14	C10H11N+
146.0942	12	C10H12N+
148.1099	25	C10H14N+
160.1103	99	C11H14N+
162.1258	26	C11H16N+
163.1328	6	C11H17N+
165.1623	7	C12H21+
192.1371	61	C12H18NO+
221.1353	6	C17H17+
282.2785	999	C18H36NO+
283.2816	250	C17[13]CH36NO+
284.2848	19	C16[13]C2H36NO+
