Mass spectrum: Perfluorononane sulfonic acid (PFNS); LC-ESI-QTOF; MS2; CE: 30 eV; R=35000; [M-H]-
Name: Perfluorononane sulfonic acid (PFNS)
Name: 1-Nonanesulfonic acid, 1,1,2,2,3,3,4,4,5,5,6,6,7,7,8,8,9,9,9-nonadecafluoro-
Name: 1,1,2,2,3,3,4,4,5,5,6,6,7,7,8,8,9,9,9-nonadecafluorononane-1-sulfonic acid
Formula: C9HF19O3S
Exact mass: 549.9343
SMILES: OS(=O)(=O)C(F)(F)C(F)(F)C(F)(F)C(F)(F)C(F)(F)C(F)(F)C(F)(F)C(F)(F)C(F)(F)F
InChI: InChI=1S/C9HF19O3S/c10-1(11,2(12,13)4(16,17)6(20,21)8(24,25)26)3(14,15)5(18,19)7(22,23)9(27,28)32(29,30)31/h(H,29,30,31)
Instrument: Bruker maXis Impact
Instrument type: LC-ESI-QTOF
Ms type: MS2
Ion mode: NEGATIVE
Ionization: ESI
Fragmentation mode: CID
Collision energy: 30 eV
Resolution: 35000
Column name: Acclaim RSLC C18 2.2um, 2.1x100mm, Thermo
Retention time: 11.069 min
Base peak: 548.9276
Precursor m/z: 548.927
Precursor type: [M-H]-
m/z	relative intensity
548.9273	999
