Mass spectrum: Butyl stearate; GC-APCI-QTOF; MS2; CE: 50 eV; R=35000; [M+H]+
Name: Butyl stearate
Formula: C22H44O2
Exact mass: 340.3341
SMILES: CCCCCCCCCCCCCCCCCC(=O)OCCCC
InChI: InChI=1S/C22H44O2/c1-3-5-7-8-9-10-11-12-13-14-15-16-17-18-19-20-22(23)24-21-6-4-2/h3-21H2,1-2H3
Instrument: Bruker 450 GC coupled to maXis Impact
Instrument type: GC-APCI-QTOF
Ms type: MS2
Ion mode: POSITIVE
Ionization: APCI
Fragmentation mode: CID
Collision energy: 50 eV
Resolution: 35000
Column name: Rxi-5Sil MS column, 30m, 0.25mm i.d., 0.25Âµm film thickness, Restek
Retention time: 22.568 min
Base peak: 285.2781
Precursor m/z: 341.3414
Precursor type: [M+H]+
m/z	relative intensity	assigned
55.0555	999	C4H7+
57.07	949	C4H9+
