Mass spectrum: N-(2,4-Dimethylphenyl)-N-methylimidoformamide; LC-ESI-QTOF; MS2; CE: 20 eV; R=35000; [M+H]+
Name: N-(2,4-Dimethylphenyl)-N-methylimidoformamide
Name: SCHEMBL11046767
Name: N-(2,4-dimethylphenyl)-N-methylmethanimidamide
Formula: C10H14N2
Exact mass: 162.1156984
SMILES: Cc1ccc(c(c1)C)N(C)C=N
InChI: InChI=1S/C10H14N2/c1-8-4-5-10(9(2)6-8)12(3)7-11/h4-7,11H,1-3H3
Instrument: Bruker maXis Impact
Instrument type: LC-ESI-QTOF
Ms type: MS2
Ion mode: POSITIVE
Ionization: ESI
Fragmentation mode: CID
Collision energy: 20 eV
Resolution: 35000
Column name: Acclaim RSLC C18 2.2um, 2.1x100mm, Thermo
Retention time: 4.4 min
Base peak: 163.1222
Precursor m/z: 163.123
Precursor type: [M+H]+
m/z	relative intensity	assigned
117.0567	160	C8H7N+
121.0868	7	C8H11N+
122.0959	507	C8H12N+
130.064	8	C9H8N+
131.0721	10	C9H9N+
132.0801	470	C9H10N+
136.1116	8	C9H14N+
163.1221	999	C10H15N2+
164.1253	69	C9[13]CH15N2+
