Mass spectrum: 1H,1H,2H,2H-perfluorohexanesulfonate (4:2) (4:2 Fluorotelomer sulfonic acid); LC-ESI-QTOF; MS2; CE: 20 eV; R=35000; [M-H]-
Name: 1H,1H,2H,2H-perfluorohexanesulfonate (4:2) (4:2 Fluorotelomer sulfonic acid)
Name: 1,1,2,2,3,3,4,4,5-nonafluorohexane-1-sulfonic acid
Formula: C6H5F9O3S
Exact mass: 327.9816
SMILES: CC(F)C(F)(F)C(F)(F)C(F)(F)C(F)(F)S(O)(=O)=O
InChI: InChI=1S/C6H5F9O3S/c1-2(7)3(8,9)4(10,11)5(12,13)6(14,15)19(16,17)18/h2H,1H3,(H,16,17,18)
Instrument: Bruker maXis Impact
Instrument type: LC-ESI-QTOF
Ms type: MS2
Ion mode: NEGATIVE
Ionization: ESI
Fragmentation mode: CID
Collision energy: 20 eV
Resolution: 35000
Column name: Acclaim RSLC C18 2.2um, 2.1x100mm, Thermo
Retention time: 7.638 min
Base peak: 326.9734
Precursor m/z: 326.9743
Precursor type: [M-H]-
m/z	relative intensity
306.9693	474
326.9739	999
