Mass spectrum: Triphenylphosphate; LC-ESI-QTOF; MS2; CE: 40 eV; R=35000; [M+H]+
Name: Triphenylphosphate
Name: triphenyl phosphate
Formula: C18H15O4P
Exact mass: 326.0707956
SMILES: O=P(OC1=CC=CC=C1)(OC1=CC=CC=C1)OC1=CC=CC=C1
InChI: InChI=1S/C18H15O4P/c19-23(20-16-10-4-1-5-11-16,21-17-12-6-2-7-13-17)22-18-14-8-3-9-15-18/h1-15H
Instrument: Bruker maXis Impact
Instrument type: LC-ESI-QTOF
Ms type: MS2
Ion mode: POSITIVE
Ionization: ESI
Fragmentation mode: CID
Collision energy: 40 eV
Resolution: 35000
Column name: Acclaim RSLC C18 2.2um, 2.1x100mm, Thermo
Retention time: 11.069 min
Base peak: 327.0775
Precursor m/z: 327.0781
Precursor type: [M+H]+
m/z	relative intensity	assigned
138.994	31	C6H4O2P+
139.0523	8	C4H12O3P+
141.0684	15	C4H14O3P+
145.0643	7	C10H9O+
150.0458	11	C12H6+
151.0533	39	C12H7+
152.0612	999	C12H8+
153.0682	483	C12H9+
154.0716	63	C11[13]CH9+
155.0597	17	C8H12OP+
157.0027	13	C6H6O3P+
168.056	291	C12H8O+
169.0631	140	C12H9O+
170.0686	18	C11[13]CH9O+
171.0789	20	C5H16O4P+
175.0145	74	C6H8O4P+
179.0601	47	C10H12OP+
180.0659	8	C10H13OP+
181.0765	8	C10H14OP+
187.0299	63	C11H8OP+
188.0376	8	C10[13]CH8OP+
189.0438	8	C11H10OP+
193.0266	7	C13H5O2+
202.0767	27	C16H10+
203.0845	9	C16H11+
215.0249	230	C12H8O2P+
216.0294	35	C11[13]CH8O2P+
226.0762	15	C11H15O3P+
227.085	60	C18H11+
228.0927	223	C18H12+
229.0982	71	C17[13]CH12+
233.0353	517	C12H10O3P+
234.0399	68	C11[13]CH10O3P+
244.091	10	C18H12O+
251.0459	413	C12H12O4P+
252.0495	53	C11[13]CH12O4P+
291.0603	10	C18H12O2P+
327.078	44	C18H16O4P+
328.0801	12	C17[13]CH16O4P+
