Mass spectrum: Aniline Yellow; LC-ESI-QTOF; MS2; CE: 20 eV; R=35000; [M+H]+
Name: Aniline Yellow
Formula: C12H11N3
Exact mass: 197.0952974
SMILES: NC1=CC=C(C=C1)\N=N\C1=CC=CC=C1
InChI: InChI=1S/C12H11N3/c13-10-6-8-12(9-7-10)15-14-11-4-2-1-3-5-11/h1-9H,13H2/b15-14+
Instrument: Bruker maXis Impact
Instrument type: LC-ESI-QTOF
Ms type: MS2
Ion mode: POSITIVE
Ionization: ESI
Fragmentation mode: CID
Collision energy: 20 eV
Resolution: 35000
Column name: Acclaim RSLC C18 2.2um, 2.1x100mm, Thermo
Retention time: 9.268 min
Base peak: 198.1015
Precursor m/z: 198.1026
Precursor type: [M+H]+
m/z	relative intensity	assigned
128.0613	8	C10H8+
152.0604	33	C12H8+
153.0682	23	C12H9+
155.07	5	C11H9N+
169.0869	29	C12H11N+
170.094	9	C12H12N+
181.0727	23	C12H9N2+
182.0803	5	C12H10N2+
196.085	8	C12H10N3+
198.1015	999	C12H12N3+
199.1039	139	C11[13]CH12N3+
200.1071	11	C10[13]C2H12N3+
