Mass spectrum: Simazine-2-hydroxy; LC-ESI-QTOF; MS2; CE: 30 eV; R=35000; [M+H]+
Name: Simazine-2-hydroxy
Name: Hydroxysimazine
Name: 2,6-bis(ethylamino)-1H-1,3,5-triazin-4-one
Formula: C7H13N5O
Exact mass: 183.1120100
SMILES: CCNC1=NC(=O)N=C(NCC)N1
InChI: InChI=1S/C7H13N5O/c1-3-8-5-10-6(9-4-2)12-7(13)11-5/h3-4H2,1-2H3,(H3,8,9,10,11,12,13)
Instrument: Bruker maXis Impact
Instrument type: LC-ESI-QTOF
Ms type: MS2
Ion mode: POSITIVE
Ionization: ESI
Fragmentation mode: CID
Collision energy: 30 eV
Resolution: 35000
Column name: Acclaim RSLC C18 2.2um, 2.1x100mm, Thermo
Retention time: 4.0 min
Base peak: 184.1186
Precursor m/z: 184.1193
Precursor type: [M+H]+
m/z	relative intensity	assigned
114.0659	967	C4H8N3O+
115.0687	80	C3[13]CH8N3O+
124.0859	92	C6H10N3+
128.0558	54	C3H6N5O+
138.0756	20	C5H8N5+
139.0608	89	C5H7N4O+
140.0659	27	C3H6N7+
141.1128	41	C6H13N4+
142.0968	44	C6H12N3O+
156.0868	405	C5H10N5O+
166.1066	46	C7H12N5+
167.0914	28	C7H11N4O+
182.102	25	C7H12N5O+
184.1186	999	C7H14N5O+
185.1215	116	C6[13]CH14N5O+
