Mass spectrum: Picolinafen; LC-ESI-QTOF; MS2; CE: 40 eV; R=35000; [M-H]-
Name: Picolinafen
Name: N-(4-fluorophenyl)-6-[3-(trifluoromethyl)phenoxy]pyridine-2-carboxamide
Formula: C19H12F4N2O2
Exact mass: 376.0834905
SMILES: FC1=CC=C(NC(=O)C2=NC(OC3=CC=CC(=C3)C(F)(F)F)=CC=C2)C=C1
InChI: InChI=1S/C19H12F4N2O2/c20-13-7-9-14(10-8-13)24-18(26)16-5-2-6-17(25-16)27-15-4-1-3-12(11-15)19(21,22)23/h1-11H,(H,24,26)
Instrument: Bruker maXis Impact
Instrument type: LC-ESI-QTOF
Ms type: MS2
Ion mode: NEGATIVE
Ionization: ESI
Fragmentation mode: CID
Collision energy: 40 eV
Resolution: 35000
Column name: Acclaim RSLC C18 2.2um, 2.1x100mm, Thermo
Retention time: 12.307 min
Base peak: 375.0746
Precursor m/z: 375.0762
Precursor type: [M-H]-
m/z	relative intensity	assigned
150.0377	94	C5H6F2NO2-
155.0368	118	C5H5F4N-
161.0215	787	C7H4F3O-
170.0394	217	C11H5FN-
184.0372	126	C9H5F3N-
189.0379	70	C11H5F2N-
190.0473	357	C11H6F2N-
198.0334	96	C15H4N-
210.0525	999	C14H7FO-
211.0548	212	C13[13]CH7FO-
218.0413	78	C15H5FN-
231.0608	124	C17H8F-
238.0473	405	C15H6F2N-
