Mass spectrum: Bupirimate; LC-ESI-QTOF; MS2; CE: 20 eV; R=35000; [M+H]+
Name: Bupirimate
Name: [5-butyl-2-(ethylamino)-6-methylpyrimidin-4-yl] N,N-dimethylsulfamate
Formula: C13H24N4O3S
Exact mass: 316.1569116
SMILES: CCCCC1=C(C)N=C(NCC)N=C1OS(=O)(=O)N(C)C
InChI: InChI=1S/C13H24N4O3S/c1-6-8-9-11-10(3)15-13(14-7-2)16-12(11)20-21(18,19)17(4)5/h6-9H2,1-5H3,(H,14,15,16)
Instrument: Bruker maXis Impact
Instrument type: LC-ESI-QTOF
Ms type: MS2
Ion mode: POSITIVE
Ionization: ESI
Fragmentation mode: CID
Collision energy: 20 eV
Resolution: 35000
Column name: Acclaim RSLC C18 2.2um, 2.1x100mm, Thermo
Retention time: 10.567 min
Base peak: 317.1649
Precursor m/z: 317.1642
Precursor type: [M+H]+
m/z	relative intensity	assigned
140.106	5	H18N3O3S+
150.1014	53	C8H12N3+
151.1217	5	CH19N4O2S+
165.0686	24	C5H13N2O2S+
166.0965	216	C10H14O2+
167.1025	31	C9[13]CH14O2+
169.0468	37	C6H7N3O3+
180.1483	10	C10H18N3+
187.0577	102	C12H11S+
188.0596	11	C11[13]CH11S+
192.1487	24	C11H18N3+
193.1326	10	C3H21N4O3S+
194.1278	14	C10H16N3O+
208.1438	82	C11H18N3O+
209.151	83	C11H19N3O+
210.1592	157	C11H20N3O+
211.1623	13	C10[13]CH20N3O+
224.175	6	C12H22N3O+
237.2071	113	C13H25N4+
238.2101	15	C12[13]CH25N4+
247.0742	30	C12H13N3OS+
248.0772	5	C11[13]CH13N3OS+
272.1061	190	C11H18N3O3S+
273.1088	19	C10[13]CH18N3O3S+
274.1031	8	C11H18N3O3[34]S+
317.1653	999	C13H25N4O3S+
318.1672	221	C12[13]CH25N4O3S+
319.162	53	C13H25N4O3[34]S+
