Mass spectrum: Bisphenol A diglycidyl ether; LC-ESI-QTOF; MS2; CE: 30 eV; R=35000; [M+NH4]+
Name: Bisphenol A diglycidyl ether
Name: 2-[[4-[2-[4-(oxiran-2-ylmethoxy)phenyl]propan-2-yl]phenoxy]methyl]oxirane
Formula: C21H24O4
Exact mass: 340.1675
SMILES: CC(C)(C1=CC=C(C=C1)OCC2CO2)C3=CC=C(C=C3)OCC4CO4
InChI: InChI=1S/C21H24O4/c1-21(2,15-3-7-17(8-4-15)22-11-19-13-24-19)16-5-9-18(10-6-16)23-12-20-14-25-20/h3-10,19-20H,11-14H2,1-2H3
Instrument: Bruker maXis Impact
Instrument type: LC-ESI-QTOF
Ms type: MS2
Ion mode: POSITIVE
Ionization: ESI
Fragmentation mode: CID
Collision energy: 30 eV
Resolution: 35000
Column name: Acclaim RSLC C18 2.2um, 2.1x100mm, Thermo
Retention time: 10.822 min
Base peak: 358.2016
Precursor m/z: 358.2024
Precursor type: [M+NH4]+
m/z	relative intensity	assigned
133.0635	10	C9H9O+
135.0798	275	C9H11O+
147.0431	7	C9H7O2+
147.0789	9	C10H11O+
161.095	264	C11H13O+
173.0952	8	C12H13O+
191.1062	999	C12H15O2+
193.1113	8	C11H15NO2+
281.1542	12	C19H21O2+
