Mass spectrum: Benzyl butyl phthalate; GC-APCI-QTOF; MS2; CE: 40 eV; R=35000; [M]+
Name: Benzyl butyl phthalate
Formula: C19H20O4
Exact mass: 312.1362
SMILES: CCCCOC(=O)C1=CC=CC=C1C(=O)OCC2=CC=CC=C2
InChI: InChI=1S/C19H20O4/c1-2-3-13-22-18(20)16-11-7-8-12-17(16)19(21)23-14-15-9-5-4-6-10-15/h4-12H,2-3,13-14H2,1H3
Instrument: Bruker 450 GC coupled to maXis Impact
Instrument type: GC-APCI-QTOF
Ms type: MS2
Ion mode: POSITIVE
Ionization: APCI
Fragmentation mode: CID
Collision energy: 40 eV
Resolution: 35000
Column name: Rxi-5Sil MS column, 30m, 0.25mm i.d., 0.25Âµm film thickness, Restek
Retention time: 20.165 min
Base peak: 264.2431
Precursor m/z: 312.1356
Precursor type: [M]+
m/z	relative intensity	assigned
55.0553	999	C4H7+
57.0708	363	C4H9+
69.07	402	C5H9+
121.1009	869	C9H13+
125.0936	402	C8H13O+
135.119	518	C10H15+
149.1343	324	C11H17+
