Mass spectrum: Betamethasone 21-Acetate; LC-ESI-QTOF; MS2; CE: 20 eV; R=35000; [M+H]+
Name: Betamethasone 21-Acetate
Name: [2-[(8S,9R,10S,11S,13S,14S,16S,17R)-9-fluoro-11,17-dihydroxy-10,13,16-trimethyl-3-oxo-6,7,8,11,12,14,15,16-octahydrocyclopenta[a]phenanthren-17-yl]-2-oxoethyl] acetate
Formula: C24H31FO6
Exact mass: 434.2104669
SMILES: C[C@H]1C[C@H]2[C@@H]3CCC4=CC(=O)C=C[C@]4(C)[C@@]3(F)[C@@H](O)C[C@]2(C)[C@@]1(O)C(=O)COC(C)=O
InChI: InChI=1S/C24H31FO6/c1-13-9-18-17-6-5-15-10-16(27)7-8-21(15,3)23(17,25)19(28)11-22(18,4)24(13,30)20(29)12-31-14(2)26/h7-8,10,13,17-19,28,30H,5-6,9,11-12H2,1-4H3/t13-,17-,18-,19-,21-,22-,23-,24-/m0/s1
Instrument: Bruker maXis Impact
Instrument type: LC-ESI-QTOF
Ms type: MS2
Ion mode: POSITIVE
Ionization: ESI
Fragmentation mode: CID
Collision energy: 20 eV
Resolution: 35000
Column name: Acclaim RSLC C18 2.2um, 2.1x100mm, Thermo
Retention time: 9.1 min
Base peak: 404.2064
Precursor m/z: 435.2177
Precursor type: [M+H]+
m/z	relative intensity	assigned
133.0999	116	C10H13+
135.0795	147	C9H11O+
147.0803	434	C10H11O+
153.0896	139	C9H13O2+
159.0802	147	C11H11O+
161.0939	122	C11H13O+
167.1057	102	C10H15O2+
171.0787	137	C12H11O+
173.0951	160	C12H13O+
177.0907	197	C11H13O2+
185.0965	186	C13H13O+
187.0735	151	C12H11O2+
187.112	121	C13H15O+
211.1095	177	C15H15O+
215.1056	150	C14H15O2+
225.1263	115	C16H17O+
227.142	208	C16H19O+
228.1456	104	C11H20N2O3+
235.1067	111	C12H15N2O3+
237.1254	477	C17H17O+
239.1454	158	C14H20FO2+
253.1626	131	C11H25O6+
263.1425	112	C19H19O+
275.1413	129	C20H19O+
276.1484	146	C20H20O+
277.1608	353	C17H22FO2+
278.1657	116	C20H22O+
279.1732	825	C20H23O+
280.1752	221	C12H26NO6+
281.1919	153	C17H26FO2+
291.1745	595	C21H23O+
292.1748	142	C13H26NO6+
295.1676	153	C20H23O2+
301.1584	352	C22H21O+
307.164	126	C21H23O2+
309.1842	602	C21H25O2+
310.1913	121	C21H26O2+
319.169	999	C22H23O2+
320.1742	219	C22H24O2+
327.1946	207	C21H27O3+
337.179	750	C22H25O3+
338.1831	186	C22H26O3+
353.178	153	C19H26FO5+
355.1903	497	C22H27O4+
356.1906	142	C21H25FN2O2+
379.1917	311	C21H28FO5+
397.2007	767	C24H29O5+
398.2049	255	C24H30O5+
415.2116	204	C24H31O6+
