Mass spectrum: Ranitidine-S-oxide; LC-ESI-QTOF; MS2; CE: 40 eV; R=35000; [M+H]+
Name: Ranitidine-S-oxide
Formula: C13H22N4O4S
Exact mass: 330.1361762
SMILES: CN\C(NCCS(=O)CC1=CC=C(CN(C)C)O1)=C/[N+]([O-])=O
InChI: InChI=1S/C13H22N4O4S/c1-14-13(9-17(18)19)15-6-7-22(20)10-12-5-4-11(21-12)8-16(2)3/h4-5,9,14-15H,6-8,10H2,1-3H3/b13-9+
Instrument: Bruker maXis Impact
Instrument type: LC-ESI-QTOF
Ms type: MS2
Ion mode: POSITIVE
Ionization: ESI
Fragmentation mode: CID
Collision energy: 40 eV
Resolution: 35000
Column name: Acclaim RSLC C18 2.2um, 2.1x100mm, Thermo
Retention time: 1.8 min
Base peak: 331.1435
Precursor m/z: 331.1435
Precursor type: [M+H]+
m/z	relative intensity	assigned
108.0813	21	CH16O3S+
110.0954	73	C7H12N+
111.0981	17	C2H13N3O2+
123.0671	23	C5H7N4+
125.0045	47	C4H3N3S+
129.0467	19	C2H11NO3S+
130.0568	162	C5H10N2S+
131.0613	55	C2H13NO3S+
135.0902	30	H15N4O2S+
138.0901	999	C6H10N4+
143.0143	62	C4H5N3OS+
146.0495	136	C5H10N2OS+
147.0574	45	C5H11N2OS+
149.1061	32	CH17N4O2S+
176.0468	26	C10H8O3+
177.0532	21	C8H7N3O2+
177.1011	20	C2H17N4O3S+
191.1166	37	C3H19N4O3S+
192.0431	83	C11H4N4+
192.1232	16	C8H18NO4+
193.0499	26	C10H9O4+
223.0895	52	C11H15N2OS+
