Mass spectrum: 4-Methylbenzylidene camphor; LC-ESI-QTOF; MS2; CE: Ramp 20.0-30.0 eV; R=35000; [M+H]+
Name: 4-Methylbenzylidene camphor
Name: 1,7,7-Trimethyl-3-(4-methylbenzylidene)bicyclo[2.2.1]heptan-2-one
Name: 1,7,7-trimethyl-3-[(4-methylphenyl)methylidene]bicyclo[2.2.1]heptan-2-one
Formula: C18H22O
Exact mass: 254.1670653
SMILES: CC1=CC=C(C=C2C3CCC(C)(C2=O)C3(C)C)C=C1
InChI: InChI=1S/C18H22O/c1-12-5-7-13(8-6-12)11-14-15-9-10-18(4,16(14)19)17(15,2)3/h5-8,11,15H,9-10H2,1-4H3
Instrument: Bruker maXis Impact
Instrument type: LC-ESI-QTOF
Ms type: MS2
Ion mode: POSITIVE
Ionization: ESI
Fragmentation mode: CID
Collision energy: Ramp 20.0-30.0 eV
Resolution: 35000
Column name: Acclaim RSLC C18 2.2um, 2.1x100mm, Thermo
Retention time: 12.683 min
Base peak: 255.174
Precursor m/z: 255.1743
Precursor type: [M+H]+
m/z	relative intensity	assigned
55.0171	15	C3H3O+
55.0539	38	C4H7+
57.0328	9	C3H5O+
57.0693	15	C4H9+
59.0489	8	C3H7O+
67.0537	32	C5H7+
69.0325	55	C4H5O+
69.0695	84	C5H9+
71.0483	21	C4H7O+
79.0534	44	C6H7+
81.0696	39	C6H9+
83.0487	25	C5H7O+
83.0853	40	C6H11+
85.0646	44	C5H9O+
91.0543	23	C7H7+
93.0698	65	C7H9+
95.0499	6	C6H7O+
95.0861	49	C7H11+
97.0654	477	C6H9O+
98.0682	30	C5[13]CH9O+
99.0816	16	C6H11O+
105.071	384	C8H9+
106.0747	24	C7[13]CH9+
107.0865	31	C8H11+
109.066	9	C7H9O+
109.1023	37	C8H13+
111.0818	180	C7H11O+
112.0862	15	C6[13]CH11O+
115.0535	10	C9H7+
117.0694	18	C9H9+
119.0489	102	C8H7O+
119.0852	222	C9H11+
120.052	8	C7[13]CH7O+
120.0886	14	C8[13]CH11+
121.0642	23	C8H9O+
121.1012	37	C9H13+
123.0806	41	C8H11O+
123.1166	9	C9H15+
125.096	6	C8H13O+
128.061	25	C10H8+
129.0694	35	C10H9+
130.0771	21	C10H10+
131.0847	146	C10H11+
132.0874	11	C9[13]CH11+
133.1001	33	C10H13+
135.079	17	C9H11O+
135.1163	38	C10H15+
137.0952	39	C9H13O+
139.112	6	C9H15O+
141.0691	22	C11H9+
142.0766	65	C11H10+
143.0843	185	C11H11+
144.0885	23	C10[13]CH11+
145.1002	289	C11H13+
146.1037	25	C10[13]CH13+
147.0794	14	C10H11O+
147.1159	43	C11H15+
148.1198	5	C10[13]CH15+
149.0944	14	C10H13O+
150.1022	10	C10H14O+
153.0679	11	C12H9+
154.0752	7	C12H10+
155.0846	91	C12H11+
156.0918	89	C12H12+
157.1003	506	C12H13+
158.1033	60	C11[13]CH13+
159.0788	31	C11H11O+
159.1158	125	C12H15+
160.1192	13	C11[13]CH15+
161.0958	6	C11H13O+
163.1108	130	C11H15O+
164.1136	10	C10[13]CH15O+
165.0688	38	C13H9+
166.0763	35	C13H10+
167.084	28	C13H11+
168.0918	24	C13H12+
169.1001	135	C13H13+
170.1039	24	C12[13]CH13+
171.0793	157	C12H11O+
171.1158	548	C13H15+
172.0822	16	C11[13]CH11O+
172.1191	58	C12[13]CH15+
173.0951	42	C12H13O+
173.1288	8	C13H17+
174.0978	7	C11[13]CH13O+
175.1101	5	C12H15O+
178.075	5	C14H10+
179.0848	36	C14H11+
180.0922	86	C14H12+
181.0994	100	C14H13+
182.1072	41	C14H14+
183.116	244	C14H15+
184.0883	6	C13H12O+
184.1196	28	C13[13]CH15+
185.0951	207	C13H13O+
185.1317	44	C14H17+
186.1009	39	C12[13]CH13O+
186.1357	8	C13[13]CH17+
187.11	33	C13H15O+
193.1004	59	C15H13+
194.108	63	C15H14+
195.1161	495	C15H15+
196.0876	12	C14H12O+
196.1205	67	C14[13]CH15+
197.0951	92	C14H13O+
197.1315	188	C15H17+
198.1015	22	C13[13]CH13O+
198.135	19	C14[13]CH17+
199.1112	364	C14H15O+
200.1145	45	C13[13]CH15O+
207.1159	62	C16H15+
208.1238	60	C16H16+
209.1319	104	C16H17+
210.136	14	C15[13]CH17+
211.1107	106	C15H15O+
211.1471	81	C16H19+
212.1191	686	C15H16O+
213.1256	478	C15H17O+
213.1647	30	C16H21+
214.129	52	C14[13]CH17O+
214.1649	6	C15[13]CH21+
222.139	70	C17H18+
223.1422	12	C16[13]CH18+
225.1277	13	C16H17O+
226.1348	21	C16H18O+
227.1421	119	C16H19O+
227.1792	30	C17H23+
228.1452	14	C15[13]CH19O+
228.1814	5	C16[13]CH23+
235.1477	7	C18H19+
237.1633	363	C18H21+
238.167	51	C17[13]CH21+
240.1497	31	C17H20O+
255.1745	999	C18H23O+
256.1773	171	C17[13]CH23O+
257.1819	18	C16[13]C2H23O+
