Mass spectrum: N,N-Dimethyl-N'-phenylsulfamide; LC-ESI-QTOF; MS2; CE: 20 eV; R=35000; [M+H]+
Name: N,N-Dimethyl-N'-phenylsulfamide
Name: N-(Dimethylsulfamoyl)aniline
Name: (dimethylsulfamoylamino)benzene
Formula: C8H12N2O2S
Exact mass: 200.0619486
SMILES: CN(C)S(=O)(=O)NC1=CC=CC=C1
InChI: InChI=1S/C8H12N2O2S/c1-10(2)13(11,12)9-8-6-4-3-5-7-8/h3-7,9H,1-2H3
Instrument: Bruker maXis Impact
Instrument type: LC-ESI-QTOF
Ms type: MS2
Ion mode: POSITIVE
Ionization: ESI
Fragmentation mode: CID
Collision energy: 20 eV
Resolution: 35000
Column name: Acclaim RSLC C18 2.2um, 2.1x100mm, Thermo
Retention time: 6.1 min
Base peak: 201.0688
Precursor m/z: 201.0692
Precursor type: [M+H]+
m/z	relative intensity	assigned
120.0804	112	C8H10N+
121.0738	51	C7H9N2+
121.088	151	C8H11N+
122.0827	474	C7H10N2+
123.0866	55	C2H11N4O2+
135.0906	90	C8H11N2+
136.0998	125	C8H12N2+
137.1066	999	C8H13N2+
201.0684	119	C8H13N2O2S+
