Mass spectrum: N,N,N`,N`-Tetrakis(2-hydroxyethyl)hexanediamide; LC-ESI-QTOF; MS2; CE: 30 eV; R=35000; [M+H]+
Name: N,N,N`,N`-Tetrakis(2-hydroxyethyl)hexanediamide
Formula: C14H28N2O6
Exact mass: 320.1947366
SMILES: C(CCC(=O)N(CCO)CCO)CC(=O)N(CCO)CCO
InChI: InChI=1S/C14H28N2O6/c17-9-5-15(6-10-18)13(21)3-1-2-4-14(22)16(7-11-19)8-12-20/h17-20H,1-12H2
Instrument: Bruker maXis Impact
Instrument type: LC-ESI-QTOF
Ms type: MS2
Ion mode: POSITIVE
Ionization: ESI
Fragmentation mode: CID
Collision energy: 30 eV
Resolution: 35000
Column name: Acclaim RSLC C18 2.2um, 2.1x100mm, Thermo
Retention time: 2.6 min
Base peak: 321.2022
Precursor m/z: 321.202
Precursor type: [M+H]+
m/z	relative intensity	assigned
127.0735	9	C7H11O2+
129.0542	12	C6H9O3+
154.0853	65	C8H12NO2+
154.1205	18	C6H18O4+
155.0693	196	C8H11O3+
156.0738	25	C3H12N2O5+
156.0995	8	C5H16O5+
170.1164	15	C9H16NO2+
172.0975	10	C8H14NO3+
172.1316	12	C6H20O5+
173.08	353	C8H13O4+
174.0837	34	C7[13]CH13O4+
174.1116	110	C8H16NO3+
175.1155	8	C5H19O6+
180.1003	11	C7H16O5+
188.1276	114	C9H18NO3+
189.1301	11	C13H17O+
198.1115	621	C10H16NO3+
199.1148	86	C9[13]CH16NO3+
216.1222	999	C10H18NO4+
217.1249	121	C9[13]CH18NO4+
218.1286	17	C14H18O2+
234.1348	9	C10H20NO5+
260.1481	8	C12H22NO5+
303.1911	827	C14H27N2O5+
304.1955	148	C13[13]CH27N2O5+
305.196	26	C13H27N3O5+
321.2008	9	C14H29N2O6+
