Mass spectrum: Dichlormid; LC-ESI-QTOF; MS2; CE: 10 eV; R=35000; [M+H]+
Name: Dichlormid
Formula: C8H11Cl2NO
Exact mass: 207.0217693
SMILES: C=CCN(CC=C)C(=O)C(Cl)Cl
InChI: InChI=1S/C8H11Cl2NO/c1-3-5-11(6-4-2)8(12)7(9)10/h3-4,7H,1-2,5-6H2
Instrument: Bruker maXis Impact
Instrument type: LC-ESI-QTOF
Ms type: MS2
Ion mode: POSITIVE
Ionization: ESI
Fragmentation mode: CID
Collision energy: 10 eV
Resolution: 35000
Column name: Acclaim RSLC C18 2.2um, 2.1x100mm, Thermo
Retention time: 7.061 min
Base peak: 208.0301
Precursor m/z: 208.029
Precursor type: [M+H]+
m/z	relative intensity	assigned
127.9655	8	C2H4Cl2NO+
132.0216	7	C5H7ClNO+
137.9885	7	C4H6Cl2N+
139.9668	115	C3H4Cl2NO+
141.964	63	C3H4Cl[37]ClNO+
149.9854	7	C8H3ClO+
153.9821	13	C4H6Cl2NO+
165.9833	12	C5H6Cl2NO+
208.0303	999	C8H12Cl2NO+
209.0335	96	C7[13]CH12Cl2NO+
210.0271	621	C8H12Cl[37]ClNO+
