Mass spectrum: Bendiocarb; LC-ESI-QTOF; MS2; CE: Ramp 18.9-28.3 eV; R=35000; [M+H]+
Name: Bendiocarb
Name: (2,2-dimethyl-1,3-benzodioxol-4-yl) N-methylcarbamate
Formula: C11H13NO4
Exact mass: 223.0844579
SMILES: CNC(=O)OC1=CC=CC2=C1OC(C)(C)O2
InChI: InChI=1S/C11H13NO4/c1-11(2)15-8-6-4-5-7(9(8)16-11)14-10(13)12-3/h4-6H,1-3H3,(H,12,13)
Instrument: Bruker maXis Impact
Instrument type: LC-ESI-QTOF
Ms type: MS2
Ion mode: POSITIVE
Ionization: ESI
Fragmentation mode: CID
Collision energy: Ramp 18.9-28.3 eV
Resolution: 35000
Column name: Acclaim RSLC C18 2.2um, 2.1x100mm, Thermo
Retention time: 7.018 min
Base peak: 224.0914
Precursor m/z: 224.0917
Precursor type: [M+H]+
m/z	relative intensity	assigned
53.0381	15	C4H5+
58.0287	5	C2H4NO+
59.0486	494	C3H7O+
60.052	14	C2[13]CH7O+
81.0332	510	C5H5O+
82.0361	24	C4[13]CH5O+
109.0298	999	C6H5O2+
110.0327	63	C5[13]CH5O2+
121.0639	10	C8H9O+
127.015	182	C9H3O+
127.0387	128	C6H7O3+
128.041	5	C5[13]CH7O3+
139.038	5	C7H7O3+
139.075	6	C8H11O2+
149.0582	16	C9H9O2+
167.0695	625	C9H11O3+
168.0728	62	C8[13]CH11O3+
169.0734	6	C8H11NO3+
