Mass spectrum: Linuron; LC-ESI-QTOF; MS2; CE: 20 eV; R=35000; [M-H]-
Name: Linuron
Name: 3-(3,4-dichlorophenyl)-1-methoxy-1-methylurea
Formula: C9H10Cl2N2O2
Exact mass: 248.0119329
SMILES: CON(C)C(=O)NC1=CC=C(Cl)C(Cl)=C1
InChI: InChI=1S/C9H10Cl2N2O2/c1-13(15-2)9(14)12-6-3-4-7(10)8(11)5-6/h3-5H,1-2H3,(H,12,14)
Instrument: Bruker maXis Impact
Instrument type: LC-ESI-QTOF
Ms type: MS2
Ion mode: NEGATIVE
Ionization: ESI
Fragmentation mode: CID
Collision energy: 20 eV
Resolution: 35000
Column name: Acclaim RSLC C18 2.2um, 2.1x100mm, Thermo
Retention time: 9.265 min
Base peak: 159.9725
Precursor m/z: 247.0047
Precursor type: [M-H]-
m/z	relative intensity	assigned
123.9964	58	C6H3ClN-
158.9634	43	C9ClO-
159.9723	999	C6H4Cl2N-
160.9737	111	C5[13]CH4Cl2N-
161.9691	646	C6H4Cl[37]ClN-
185.9532	45	C7H2Cl2NO-
187.9465	58	C7H2Cl2O2-
199.9542	68	C7H2Cl2N2O-
214.9773	586	C8H5Cl2N2O-
215.9787	88	C7[13]CH5Cl2N2O-
216.9743	268	C8H5Cl[37]ClN2O-
231.9809	88	C8H6Cl2N2O2-
