Mass spectrum: Omethoate; LC-ESI-QTOF; MS2; CE: 20 eV; R=35000; [M+H]+
Name: Omethoate
Name: 2-dimethoxyphosphorylsulfanyl-N-methylacetamide
Formula: C5H12NO4PS
Exact mass: 213.0224655
SMILES: CNC(=O)CSP(=O)(OC)OC
InChI: InChI=1S/C5H12NO4PS/c1-6-5(7)4-12-11(8,9-2)10-3/h4H2,1-3H3,(H,6,7)
Instrument: Bruker maXis Impact
Instrument type: LC-ESI-QTOF
Ms type: MS2
Ion mode: POSITIVE
Ionization: ESI
Fragmentation mode: CID
Collision energy: 20 eV
Resolution: 35000
Column name: Acclaim RSLC C18 2.2um, 2.1x100mm, Thermo
Retention time: 3.248 min
Base peak: 214.0312
Precursor m/z: 214.0297
Precursor type: [M+H]+
m/z	relative intensity	assigned
109.0052	5	C2H6O3P+
124.9823	999	C2H6O2PS+
125.9848	20	C[13]CH6O2PS+
126.9779	29	C2H6O2P[34]S+
127.0155	15	C2H8O4P+
140.9771	5	C2H6O3PS+
142.993	586	C2H8O3PS+
144.9888	23	C5H6NP[34]S+
150.0322	5	C4H9NO3P+
154.9931	800	C3H8O3PS+
155.9958	21	C2[13]CH8O3PS+
156.9889	24	C3H8O3P[34]S+
173.0036	36	C3H10O4PS+
182.0039	22	C4H9NO3PS+
182.9883	270	C4H8O4PS+
183.9908	12	C3[13]CH8O4PS+
184.9847	11	C4H8O4P[34]S+
196.0197	96	C5H11NO3PS+
197.0228	6	C4[13]CH11NO3PS+
214.0303	18	C5H13NO4PS+
