Mass spectrum: Chloridazon-methyl-desphenyl; LC-ESI-QTOF; MS2; CE: 50 eV; R=35000; [M+H]+
Name: Chloridazon-methyl-desphenyl
Name: 5-Amino-4-chloro-2-methyl-3(2H)-pyridazinone
Name: 5-amino-4-chloro-2-methylpyridazin-3-one
Formula: C5H6ClN3O
Exact mass: 159.0199395
SMILES: CN1N=CC(N)=C(Cl)C1=O
InChI: InChI=1S/C5H6ClN3O/c1-9-5(10)4(6)3(7)2-8-9/h2H,7H2,1H3
Instrument: Bruker maXis Impact
Instrument type: LC-ESI-QTOF
Ms type: MS2
Ion mode: POSITIVE
Ionization: ESI
Fragmentation mode: CID
Collision energy: 50 eV
Resolution: 35000
Column name: Acclaim RSLC C18 2.2um, 2.1x100mm, Thermo
Retention time: 3.2 min
Base peak: 160.0263
Precursor m/z: 160.0272
Precursor type: [M+H]+
m/z	relative intensity	assigned
116.997	341	C4H4ClNO+
117.9995	38	C3[13]CH4ClNO+
119.0012	148	C4H4[37]ClNO+
130.0043	999	C5H5ClNO+
131.0096	80	C4[13]CH5ClNO+
132.0017	362	C5H5[37]ClNO+
145.0018	135	C4H4ClN3O+
160.0258	267	C5H7ClN3O+
