Mass spectrum: Tramadol; LC-ESI-QTOF; MS2; CE: 50 eV; R=35000; [M+H]+
Name: Tramadol
Name: (1R,2R)-2-[(dimethylamino)methyl]-1-(3-methoxyphenyl)cyclohexan-1-ol
Formula: C16H25NO2
Exact mass: 263.1885290
SMILES: COC1=CC(=CC=C1)[C@@]1(O)CCCC[C@@H]1CN(C)C
InChI: InChI=1S/C16H25NO2/c1-17(2)12-14-7-4-5-10-16(14,18)13-8-6-9-15(11-13)19-3/h6,8-9,11,14,18H,4-5,7,10,12H2,1-3H3/t14-,16+/m1/s1
Instrument: Bruker maXis Impact
Instrument type: LC-ESI-QTOF
Ms type: MS2
Ion mode: POSITIVE
Ionization: ESI
Fragmentation mode: CID
Collision energy: 50 eV
Resolution: 35000
Column name: Acclaim RSLC C18 2.2um, 2.1x100mm, Thermo
Retention time: 4.9 min
Base peak: 264.1962
Precursor m/z: 264.1958
Precursor type: [M+H]+
m/z	relative intensity	assigned
115.0533	395	C9H7+
121.0648	999	C8H9O+
128.0611	827	C10H8+
129.0688	534	C10H9+
144.0569	958	C10H8O+
145.0632	420	C10H9O+
157.0636	457	C11H9O+
158.0706	457	C11H10O+
159.0786	746	C11H11O+
160.0859	292	C11H12O+
