Mass spectrum: Omeprazole; LC-ESI-QTOF; MS2; CE: 20 eV; R=35000; [M+H]+
Name: Omeprazole
Name: 6-methoxy-2-[(4-methoxy-3,5-dimethylpyridin-2-yl)methylsulfinyl]-1H-benzimidazole
Formula: C17H19N3O3S
Exact mass: 345.1147125
SMILES: Cc1cnc(c(c1OC)C)CS(=O)c2[nH]c3ccc(cc3n2)OC
InChI: InChI=1S/C17H19N3O3S/c1-10-8-18-15(11(2)16(10)23-4)9-24(21)17-19-13-6-5-12(22-3)7-14(13)20-17/h5-8H,9H2,1-4H3,(H,19,20)
Instrument: Bruker maXis Impact
Instrument type: LC-ESI-QTOF
Ms type: MS2
Ion mode: POSITIVE
Ionization: ESI
Fragmentation mode: CID
Collision energy: 20 eV
Resolution: 35000
Column name: Acclaim RSLC C18 2.2um, 2.1x100mm, Thermo
Retention time: 7.5 min
Base peak: 376.1384
Precursor m/z: 346.122
Precursor type: [M+H]+
m/z	relative intensity	assigned
136.0711	114	C3H10N3O3+
150.0858	30	C4H12N3O3+
151.094	526	C4H13N3O3+
166.0811	17	C10H14S+
168.0963	184	C10H16S+
169.0998	14	C5H17N2O2S+
179.0223	61	C11H3N2O+
180.0418	81	C7H6N3O3+
181.0505	15	C4H11N3O3S+
198.052	999	C13H10S+
199.0553	64	C12[13]CH10S+
200.0483	27	C13H10[34]S+
