Mass spectrum: Cefoperazone; LC-ESI-QTOF; MS2; CE: 30 eV; R=35000; [M+H]+
Name: Cefoperazone
Name: AC1OFCHV
Name: (6R,7R)-7-[[(2S)-2-[(4-ethyl-2,3-dioxopiperazine-1-carbonyl)amino]-2-(4-hydroxyphenyl)acetyl]amino]-3-[(1-methyltetrazol-5-yl)sulfanylmethyl]-8-oxo-5-thia-1-azabicyclo[4.2.0]oct-2-ene-2-carboxylic acid
Formula: C25H27N9O8S2
Exact mass: 645.1424008
SMILES: O=C2N1/C(=C(\CS[C@@H]1[C@@H]2NC(=O)[C@H](c3ccc(O)cc3)NC(=O)N4C(=O)C(=O)N(CC)CC4)CSc5nnnn5C)C(=O)O
InChI: InChI=1S/C25H27N9O8S2/c1-3-32-8-9-33(21(39)20(32)38)24(42)27-15(12-4-6-14(35)7-5-12)18(36)26-16-19(37)34-17(23(40)41)13(10-43-22(16)34)11-44-25-28-29-30-31(25)2/h4-7,15-16,22,35H,3,8-11H2,1-2H3,(H,26,36)(H,27,42)(H,40,41)/t15-,16+,22+/m0/s1
Instrument: Bruker maXis Impact
Instrument type: LC-ESI-QTOF
Ms type: MS2
Ion mode: POSITIVE
Ionization: ESI
Fragmentation mode: CID
Collision energy: 30 eV
Resolution: 35000
Column name: Acclaim RSLC C18 2.2um, 2.1x100mm, Thermo
Retention time: 4.340 min
Base peak: 663.183
Precursor m/z: 646.1497
Precursor type: [M+H]+
m/z	relative intensity	assigned
143.0827	999	H17NO5S+
144.0882	84	C4H10N5O+
148.0391	98	C8H6NO2+
156.0126	129	H4N4O6+
158.0276	111	H14O5S2+
186.0891	189	C2H14N6O2S+
290.1168	650	C3H16N9O7+
345.1208	74	C3H23N9O6S2+
360.0702	136	C15H12N4O7+
