Mass spectrum: Isophorone diisocyanate; GC-APCI-QTOF; MS2; CE: 40 eV; R=35000; [M+H]+
Name: Isophorone diisocyanate
Formula: C12H18N2O2
Exact mass: 222.1368
SMILES: CC1(CC(CC(C1)(C)CN=C=O)N=C=O)C
InChI: InChI=1S/C12H18N2O2/c1-11(2)4-10(14-9-16)5-12(3,6-11)7-13-8-15/h10H,4-7H2,1-3H3
Instrument: Bruker 450 GC coupled to maXis Impact
Instrument type: GC-APCI-QTOF
Ms type: MS2
Ion mode: POSITIVE
Ionization: APCI
Fragmentation mode: CID
Collision energy: 40 eV
Resolution: 35000
Column name: Rxi-5Sil MS column, 30m, 0.25mm i.d., 0.25Âµm film thickness, Restek
Retention time: 16.322 min
Base peak: 149.0249
Precursor m/z: 223.1441
Precursor type: [M+H]+
m/z	relative intensity	assigned
65.0397	21	C5H5+
111.0441	12	C6H7O2+
121.0287	367	C7H5O2+
149.0258	999	C11H3N+
167.0389	11	C11H5NO+
