Mass spectrum: Trifloxystrobin CGA 321113; LC-ESI-QTOF; MS2; CE: 10 eV; R=35000; [M+H]+
Name: Trifloxystrobin CGA 321113
Name: ISZQNKFXNXQTTF-NACSPRHISA-N
Name: (2E)-2-methoxyimino-2-[2-[[(E)-1-[3-(trifluoromethyl)phenyl]ethylideneamino]oxymethyl]phenyl]acetic acid
Formula: C19H17F3N2O4
Exact mass: 394.1140417
SMILES: CO\N=C(\C(O)=O)C1=CC=CC=C1CO\N=C(/C)C1=CC=CC(=C1)C(F)(F)F
InChI: InChI=1S/C19H17F3N2O4/c1-12(13-7-5-8-15(10-13)19(20,21)22)23-28-11-14-6-3-4-9-16(14)17(18(25)26)24-27-2/h3-10H,11H2,1-2H3,(H,25,26)/b23-12+,24-17+
Instrument: Bruker maXis Impact
Instrument type: LC-ESI-QTOF
Ms type: MS2
Ion mode: POSITIVE
Ionization: ESI
Fragmentation mode: CID
Collision energy: 10 eV
Resolution: 35000
Column name: Acclaim RSLC C18 2.2um, 2.1x100mm, Thermo
Retention time: 10.395 min
Base peak: 330.0803
Precursor m/z: 395.1213
Precursor type: [M+H]+
m/z	relative intensity	assigned
116.0488	18	C8H6N+
117.0559	7	C2H10FO4+
134.0579	12	C5H10O4+
145.0248	14	C4H5N2O4+
148.0743	392	C9H10NO+
149.0775	45	C8[13]CH10NO+
186.0515	999	C9H7F3N+
187.0548	115	C8[13]CH7F3N+
192.0648	69	C11H8F2N+
193.0688	11	C10[13]CH8F2N+
204.063	13	C9H9F3NO+
319.1063	25	C17H14F3N2O+
320.1096	6	C16[13]CH14F3N2O+
334.0489	9	C19H9FNO4+
336.0476	5	C16H9F3NO4+
351.1308	99	C18H18F3N2O2+
352.1331	24	C17[13]CH18F3N2O2+
395.1209	926	C19H18F3N2O4+
396.1237	209	C18[13]CH18F3N2O4+
