Mass spectrum: L-Thyroxine; LC-ESI-QTOF; MS2; CE: Ramp 31.4-47.1 eV; R=35000; [M+H]+
Name: L-Thyroxine
Name: Levothyroxine
Name: (2S)-2-amino-3-[4-(4-hydroxy-3,5-diiodophenoxy)-3,5-diiodophenyl]propanoic acid
Formula: C15H11I4NO4
Exact mass: 776.6866998
SMILES: N[C@@H](CC1=CC(I)=C(OC2=CC(I)=C(O)C(I)=C2)C(I)=C1)C(O)=O
InChI: InChI=1S/C15H11I4NO4/c16-8-4-7(5-9(17)13(8)21)24-14-10(18)1-6(2-11(14)19)3-12(20)15(22)23/h1-2,4-5,12,21H,3,20H2,(H,22,23)/t12-/m0/s1
Instrument: Bruker maXis Impact
Instrument type: LC-ESI-QTOF
Ms type: MS2
Ion mode: POSITIVE
Ionization: ESI
Fragmentation mode: CID
Collision energy: Ramp 31.4-47.1 eV
Resolution: 35000
Column name: Acclaim RSLC C18 2.2um, 2.1x100mm, Thermo
Retention time: 9.394 min
Base peak: 266.0956
Precursor m/z: 777.694
Precursor type: [M+H]+
m/z	relative intensity	assigned
323.965	186	C13H9IO2+
350.9754	267	C14H10INO2+
379.9523	224	C15H9IO4+
576.7651	159	C13H8I3O2+
604.7811	380	C14H10I3NO2+
633.774	170	C15H9I3O4+
731.6904	999	C14H10I4NO2+
732.6928	166	C13[13]CH10I4NO2+
