Mass spectrum: Ethopabate; LC-ESI-QTOF; MS2; CE: 30 eV; R=35000; [M-H]-
Name: Ethopabate
Name: methyl 4-acetamido-2-ethoxybenzoate
Formula: C12H15NO4
Exact mass: 237.1001080
SMILES: CCOc1cc(ccc1C(=O)OC)NC(=O)C
InChI: InChI=1S/C12H15NO4/c1-4-17-11-7-9(13-8(2)14)5-6-10(11)12(15)16-3/h5-7H,4H2,1-3H3,(H,13,14)
Instrument: Bruker maXis Impact
Instrument type: LC-ESI-QTOF
Ms type: MS2
Ion mode: NEGATIVE
Ionization: ESI
Fragmentation mode: CID
Collision energy: 30 eV
Resolution: 35000
Column name: Acclaim RSLC C18 2.2um, 2.1x100mm, Thermo
Retention time: 6.295 min
Base peak: 236.0929
Precursor m/z: 236.0928
Precursor type: [M-H]-
m/z	relative intensity	assigned
120.0449	106	C7H6NO-
132.0088	857	C7H2NO2-
133.0159	212	C7H3NO2-
134.0247	827	C7H4NO2-
135.0297	119	C7H5NO2-
160.004	197	C8H2NO3-
162.0196	424	C8H4NO3-
192.0302	999	C9H6NO4-
193.0334	164	C9H7NO4-
