Mass spectrum: Tris(1-chloro-2-propyl)phosphate; LC-ESI-QTOF; MS2; CE: 50 eV; R=35000; [M+H]+
Name: Tris(1-chloro-2-propyl)phosphate
Name: Tris(1-chloro-2-propyl) phosphate
Name: tris(1-chloropropan-2-yl) phosphate
Formula: C9H18Cl3O4P
Exact mass: 326.0008287
SMILES: CC(CCl)OP(=O)(OC(C)CCl)OC(C)CCl
InChI: InChI=1S/C9H18Cl3O4P/c1-7(4-10)14-17(13,15-8(2)5-11)16-9(3)6-12/h7-9H,4-6H2,1-3H3
Instrument: Bruker maXis Impact
Instrument type: LC-ESI-QTOF
Ms type: MS2
Ion mode: POSITIVE
Ionization: ESI
Fragmentation mode: CID
Collision energy: 50 eV
Resolution: 35000
Column name: Acclaim RSLC C18 2.2um, 2.1x100mm, Thermo
Retention time: 11.158 min
Base peak: 327.0777
Precursor m/z: 327.0081
Precursor type: [M+H]+
m/z	relative intensity	assigned
150.0432	30	C5H11O3P+
151.0544	68	C6H12ClO2+
152.0611	999	C6H13ClO2+
153.0664	229	Cl2H19O4+
155.0607	26	C3H17Cl2O2+
168.0562	373	C6H13ClO3+
169.0623	142	C5H14O4P+
170.0698	26	C5H15O4P+
175.0149	57	C6H8O4P+
179.0584	64	C4H17ClO3P+
187.0286	82	C6H13Cl2O2+
202.0788	30	C9H15O3P+
215.0239	111	C7H13Cl2O3+
233.0345	115	C7H15Cl2O4+
234.0388	28	C7H16Cl2O4+
