Mass spectrum: Exemestane; LC-ESI-QTOF; MS2; CE: 40 eV; R=35000; [M+H]+
Name: Exemestane
Name: (8R,9S,10R,13S,14S)-10,13-dimethyl-6-methylidene-7,8,9,11,12,14,15,16-octahydrocyclopenta[a]phenanthrene-3,17-dione
Formula: C20H24O2
Exact mass: 296.1776300
SMILES: C[C@]12CC[C@H]3[C@H]([C@@H]1CCC2=O)CC(=C)C4=CC(=O)C=C[C@]34C
InChI: InChI=1S/C20H24O2/c1-12-10-14-15-4-5-18(22)20(15,3)9-7-16(14)19(2)8-6-13(21)11-17(12)19/h6,8,11,14-16H,1,4-5,7,9-10H2,2-3H3/t14-,15-,16-,19+,20-/m0/s1
Instrument: Bruker maXis Impact
Instrument type: LC-ESI-QTOF
Ms type: MS2
Ion mode: POSITIVE
Ionization: ESI
Fragmentation mode: CID
Collision energy: 40 eV
Resolution: 35000
Column name: Acclaim RSLC C18 2.2um, 2.1x100mm, Thermo
Retention time: 9.202 min
Base peak: 297.1864
Precursor m/z: 297.1849
Precursor type: [M+H]+
m/z	relative intensity	assigned
115.0543	227	C9H7+
116.0609	66	C9H8+
117.0702	123	C9H9+
119.0853	270	C9H11+
121.0647	999	C8H9O+
121.1009	298	C9H13+
122.0686	97	C7[13]CH9O+
123.0791	25	C8H11O+
127.0534	46	C10H7+
128.0622	321	C10H8+
129.0697	294	C10H9+
130.0772	153	C10H10+
131.0489	105	C9H7O+
131.0847	350	C10H11+
132.057	229	C9H8O+
132.0905	45	C10H12+
133.0641	164	C9H9O+
133.1008	118	C10H13+
135.0801	404	C9H11O+
135.1175	24	C10H15+
137.0956	25	C9H13O+
141.071	114	C11H9+
142.0771	166	C11H10+
143.0851	236	C11H11+
144.0579	73	C10H8O+
144.0914	47	C11H12+
145.0648	329	C10H9O+
145.1013	406	C11H13+
146.0713	152	C10H10O+
147.0804	554	C10H11O+
147.1166	95	C11H15+
148.1212	18	C11H16+
149.096	582	C10H13O+
152.062	52	C12H8+
153.0689	37	C12H9+
154.0772	43	C12H10+
155.0855	67	C12H11+
156.094	87	C12H12+
157.0644	54	C11H9O+
157.101	96	C12H13+
158.0729	191	C11H10O+
158.106	28	C12H14+
159.0804	299	C11H11O+
159.1173	31	C12H15+
160.0853	78	C11H12O+
161.0961	188	C11H13O+
162.1012	25	C11H14O+
163.1117	79	C11H15O+
165.0707	117	C13H9+
166.0781	62	C13H10+
167.086	79	C13H11+
168.0907	33	C13H12+
169.0638	51	C12H9O+
169.1008	39	C13H13+
170.0725	87	C12H10O+
171.0797	258	C12H11O+
171.1171	70	C13H15+
172.0872	100	C12H12O+
172.122	23	C13H16+
173.096	238	C12H13O+
174.1002	39	C12H14O+
175.0741	21	C11H11O2+
175.112	38	C12H15O+
178.0779	24	C14H10+
179.0855	70	C14H11+
180.0923	26	C14H12+
181.0645	59	C13H9O+
181.1014	59	C14H13+
182.0722	33	C13H10O+
182.1055	20	C14H14+
183.0809	79	C13H11O+
183.1164	18	C14H15+
184.0881	57	C13H12O+
185.0958	331	C13H13O+
186.1004	59	C13H14O+
187.1104	46	C13H15O+
191.0861	30	C15H11+
192.0927	32	C15H12+
193.0998	43	C15H13+
194.0727	51	C14H10O+
194.1085	20	C15H14+
195.0811	146	C14H11O+
195.1169	23	C15H15+
196.0883	89	C14H12O+
197.0953	148	C14H13O+
198.1036	70	C14H14O+
199.1117	75	C14H15O+
200.1178	24	C14H16O+
203.0867	35	C16H11+
204.0907	20	C16H12+
205.1005	37	C16H13+
206.1103	21	C16H14+
207.0827	22	C15H11O+
207.115	24	C16H15+
208.0886	97	C15H12O+
209.0958	150	C15H13O+
210.1044	74	C15H14O+
211.1117	74	C15H15O+
212.119	22	C15H16O+
213.1285	27	C15H17O+
217.1028	26	C17H13+
218.11	18	C17H14+
221.0961	61	C16H13O+
222.1037	93	C16H14O+
223.1124	117	C16H15O+
224.118	54	C16H16O+
225.1263	47	C16H17O+
235.1117	43	C17H15O+
236.1183	36	C17H16O+
237.1266	79	C17H17O+
238.1329	26	C17H18O+
239.14	37	C17H19O+
249.1288	57	C18H17O+
250.1328	20	C18H18O+
251.1423	28	C18H19O+
264.1489	32	C19H20O+
