Mass spectrum: Clobetasol; LC-ESI-QTOF; MS2; CE: 20 eV; R=35000; [M+H]+
Name: Clobetasol
Name: (8S,9R,10S,11S,13S,14S,16S,17R)-17-(2-chloroacetyl)-9-fluoro-11,17-dihydroxy-10,13,16-trimethyl-6,7,8,11,12,14,15,16-octahydrocyclopenta[a]phenanthren-3-one
Formula: C22H28ClFO4
Exact mass: 410.1660153
SMILES: [H][C@@]12C[C@H](C)[C@](O)(C(=O)CCl)[C@@]1(C)C[C@H](O)[C@@]1(F)[C@@]2([H])CCC2=CC(=O)C=C[C@]12C
InChI: InChI=1S/C22H28ClFO4/c1-12-8-16-15-5-4-13-9-14(25)6-7-19(13,2)21(15,24)17(26)10-20(16,3)22(12,28)18(27)11-23/h6-7,9,12,15-17,26,28H,4-5,8,10-11H2,1-3H3/t12-,15-,16-,17-,19-,20-,21-,22-/m0/s1
Instrument: Bruker maXis Impact
Instrument type: LC-ESI-QTOF
Ms type: MS2
Ion mode: POSITIVE
Ionization: ESI
Fragmentation mode: CID
Collision energy: 20 eV
Resolution: 35000
Column name: Acclaim RSLC C18 2.2um, 2.1x100mm, Thermo
Retention time: 9.443 min
Base peak: 311.2003
Precursor m/z: 411.1733
Precursor type: [M+H]+
m/z	relative intensity	assigned
119.0849	14	ClFH17O3+
121.0643	33	C8H9O+
121.1009	20	C9H13+
125.0589	21	C7H9O2+
131.0845	50	CH17ClFO3+
133.0399	38	C6H10ClO+
133.0648	12	C9H9O+
133.0995	13	C4H18ClO2+
135.0365	15	C6H10[37]ClO+
135.08	38	C9H11O+
137.0958	12	C9H13O+
143.0224	12	C7H8ClO+
143.0852	17	C11H11+
145.0612	10	C4H14ClO3+
145.1004	15	C2H19ClFO3+
147.0791	493	C10H11O+
148.0832	56	C9[13]CH11O+
149.0953	33	CH19ClFO4+
157.1001	11	C3H19ClFO3+
159.0787	103	C11H11O+
160.0817	18	C10[13]CH11O+
161.0946	86	C2H19ClFO4+
162.0977	28	C5H19ClO3+
163.0745	16	C10H11O2+
165.0696	11	C13H9+
167.0617	11	C10H12Cl+
169.0649	16	C12H9O+
169.0779	16	C10H14Cl+
171.0557	139	C9H12ClO+
171.0791	227	C12H11O+
172.0596	22	C8[13]CH12ClO+
172.0824	46	C11[13]CH11O+
173.0351	40	C8H10ClO2+
173.0539	45	C9H12[37]ClO+
173.0943	116	C12H13O+
174.0993	19	C11[13]CH13O+
175.0315	13	C8H10[37]ClO2+
175.1106	16	C3H21ClFO4+
177.0905	25	C11H13O2+
183.0555	32	C10H12ClO+
185.0545	15	C10H12[37]ClO+
185.0715	85	C10H14ClO+
185.0952	97	C4H19ClFO4+
186.0754	12	C9[13]CH14ClO+
187.0499	49	C6H13ClFO3+
187.0725	93	C6H16ClO4+
187.1118	72	C13H15O+
188.0762	10	C5[13]CH16ClO4+
188.114	13	C12[13]CH15O+
189.0503	11	C6H13[37]ClFO3+
189.0895	39	C6H18ClO4+
193.076	11	C12H14Cl+
195.056	27	C11H12ClO+
195.115	12	C9H20ClO2+
196.1267	11	C12H17FO+
197.0708	19	C11H14ClO+
197.094	59	C14H13O+
198.1004	11	C13[13]CH13O+
199.0717	17	C7H16ClO4+
199.1096	25	C8H20ClO3+
201.1265	14	C5H23ClFO4+
203.1053	45	C7H20ClO4+
209.073	11	C12H14ClO+
209.0944	24	C9H18ClO3+
210.0978	11	C9H19ClO3+
210.1067	13	C6H20ClFO4+
211.0512	29	C11H12ClO2+
211.1108	135	C6H21ClFO4+
212.1158	40	C9H21ClO3+
213.067	72	C11H14ClO2+
213.0893	13	C8H18ClO4+
213.1259	90	C15H17O+
214.068	11	C10[13]CH14ClO2+
214.1312	12	C14[13]CH17O+
215.0665	36	C11H14[37]ClO2+
215.0827	13	C11H16ClO2+
215.1066	63	C14H15O2+
215.1422	10	C6H25ClFO4+
221.0939	24	C10H18ClO3+
221.1302	11	C11H22ClO2+
223.1104	98	C7H21ClFO4+
224.1166	37	C10H21ClO3+
225.1258	59	C16H17O+
226.1298	13	C15[13]CH17O+
227.0874	12	C15H12FO+
227.1415	34	C7H25ClFO4+
235.1114	51	C17H15O+
235.1486	17	C18H19+
236.1177	17	C16[13]CH15O+
237.1264	298	C17H17O+
238.1296	66	C16[13]CH17O+
239.1046	16	C10H20ClO4+
239.1413	160	C17H19O+
240.1463	34	C16[13]CH19O+
241.1212	40	C16H17O2+
241.1557	13	C11H26ClO3+
242.1242	10	C15[13]CH17O2+
249.1265	53	C18H17O+
250.13	17	C17[13]CH17O+
251.1423	28	C18H19O+
252.1434	10	C17[13]CH19O+
252.1537	13	C12H25ClO3+
253.1203	75	C17H17O2+
253.1584	67	C12H26ClO3+
254.125	18	C16[13]CH17O2+
254.1612	16	C11[13]CH26ClO3+
255.1382	50	C17H19O2+
260.1164	10	C13H21ClO3+
261.1278	21	C19H17O+
261.1602	12	C14H26ClO2+
262.1353	11	C19H18O+
263.1415	185	C19H19O+
264.147	26	C18[13]CH19O+
265.1565	13	C13H26ClO3+
267.1385	78	C12H24ClO4+
267.1743	27	C19H23O+
268.1392	15	C11[13]CH24ClO4+
271.0881	15	C17H16ClO+
275.1424	44	C11H25ClFO4+
276.1472	17	C14H25ClO3+
277.1596	136	C17H22FO2+
278.1648	190	C14H27ClO3+
279.1739	157	C20H23O+
280.1779	40	C19[13]CH23O+
281.1535	19	C19H21O2+
281.1872	10	C20H25O+
285.1035	12	C18H18ClO+
286.1351	10	C21H18O+
288.147	32	C15H25ClO3+
291.174	114	C15H28ClO3+
292.1757	28	C14[13]CH28ClO3+
293.1528	13	C20H21O2+
295.133	13	C19H19O3+
295.1686	60	C20H23O2+
296.1746	52	C14H29ClO4+
297.1834	42	C20H25O2+
299.0831	11	C18H16ClO2+
301.1581	116	C22H21O+
302.1615	37	C21[13]CH21O+
306.1625	30	C18H23FO3+
309.1839	82	C21H25O2+
310.1876	24	C20[13]CH25O2+
311.1281	14	C19H19O4+
313.0988	20	C19H18ClO2+
313.1332	61	C20H22ClO+
314.1377	20	C19[13]CH22ClO+
315.1298	21	C20H22[37]ClO+
319.1673	156	C22H23O2+
320.1705	48	C21[13]CH23O2+
327.1496	112	C21H24ClO+
327.1964	11	C18H28FO4+
328.1537	20	C20[13]CH24ClO+
329.1285	198	C20H22ClO2+
330.1351	49	C19[13]CH22ClO2+
330.1555	11	C21H24ClF+
331.1256	58	C20H22[37]ClO2+
332.128	10	C20H22ClFO+
337.1359	111	C22H22ClO+
337.1785	208	C22H25O3+
338.1399	27	C21[13]CH22ClO+
338.1829	55	C21[13]CH25O3+
339.1331	35	C22H22[37]ClO+
339.1754	13	C22H24FO2+
340.1333	12	C22H22ClF+
345.1604	70	C21H26ClO2+
346.1696	18	C20[13]CH26ClO2+
347.1563	21	C21H26[37]ClO2+
350.985	12	C19H5ClFO4+
355.1447	433	C22H24ClO2+
355.1896	95	C22H27O4+
356.1481	145	C21[13]CH24ClO2+
356.1934	27	C21[13]CH27O4+
357.1431	149	C22H24[37]ClO2+
358.1484	29	C22H24ClFO+
373.1561	999	C22H26ClO3+
374.1591	293	C21[13]CH26ClO3+
375.1533	323	C22H26[37]ClO3+
376.1571	66	C22H26ClFO2+
391.166	221	C22H28ClO4+
392.1701	61	C21[13]CH28ClO4+
393.1655	75	C22H28[37]ClO4+
394.1652	23	C22H28ClFO3+
411.1714	31	C22H29ClFO4+
