Mass spectrum: Enrofloxacin; LC-ESI-QTOF; MS2; CE: 40 eV; R=35000; [M+H]+
Name: Enrofloxacin
Name: 1-cyclopropyl-7-(4-ethylpiperazin-1-yl)-6-fluoro-4-oxoquinoline-3-carboxylic acid
Formula: C19H22FN3O3
Exact mass: 359.1645198
SMILES: CCN1CCN(CC1)c2cc3c(cc2F)c(=O)c(cn3C4CC4)C(=O)O
InChI: InChI=1S/C19H22FN3O3/c1-2-21-5-7-22(8-6-21)17-10-16-13(9-15(17)20)18(24)14(19(25)26)11-23(16)12-3-4-12/h9-12H,2-8H2,1H3,(H,25,26)
Instrument: Bruker maXis Impact
Instrument type: LC-ESI-QTOF
Ms type: MS2
Ion mode: POSITIVE
Ionization: ESI
Fragmentation mode: CID
Collision energy: 40 eV
Resolution: 35000
Column name: Acclaim RSLC C18 2.2um, 2.1x100mm, Thermo
Retention time: 5.0 min
Base peak: 360.1716
Precursor m/z: 360.1718
Precursor type: [M+H]+
m/z	relative intensity	assigned
136.0548	20	C8H7FN+
176.0726	20	C7H11FNO3+
178.0293	17	C12H4NO+
179.0377	19	C9H6FNO2+
185.0721	15	C8H10FN2O2+
189.0463	31	C10H6FN2O+
189.0834	26	C11H10FN2+
191.0607	18	C13H7N2+
192.0459	17	C10H7FNO2+
193.0392	20	C12H5N2O+
199.048	19	C11H7N2O2+
202.0669	15	C12H9FNO+
203.0614	89	C11H8FN2O+
204.0457	22	C11H7FNO2+
204.0692	108	C11H9FN2O+
205.041	65	C10H6FN2O2+
205.0748	57	C14H9N2+
216.0697	21	C12H9FN2O+
217.0412	29	C11H6FN2O2+
217.0781	23	C12H10FN2O+
217.1155	15	C13H14FN2+
218.0477	45	C14H6N2O+
219.0567	89	C11H8FN2O2+
220.0641	19	C11H9FN2O2+
221.0713	105	C14H9N2O+
229.0768	29	C13H10FN2O+
230.0499	22	C12H7FN2O2+
231.0557	14	C15H7N2O+
231.0914	58	C16H11N2+
233.0701	33	C15H9N2O+
234.0834	15	C17H11F+
235.0511	15	C11H8FN2O3+
243.0564	37	C13H8FN2O2+
243.0918	17	C17H11N2+
244.0643	17	C13H9FN2O2+
245.0725	29	C13H10FN2O2+
245.1085	426	C14H14FN2O+
246.113	70	C13[13]CH14FN2O+
247.0869	35	C16H11N2O+
254.0548	14	C13H8N3O3+
255.0566	182	C14H8FN2O2+
256.062	43	C17H8N2O+
257.1101	16	C15H14FN2O+
258.067	32	C13H9FN3O2+
261.1036	999	C14H14FN2O2+
262.1065	73	C16[13]CH13N2O+
271.0874	14	C15H12FN2O2+
285.129	19	C18H18FO2+
286.0984	430	C15H13FN3O2+
287.1019	69	C17[13]CH12N3O+
300.1155	46	C18H17FO3+
301.0878	22	C15H12FN3O3+
301.1231	35	C18H18FO3+
304.1075	15	C18H14N3O2+
314.1364	14	C19H19FO3+
314.1657	36	C18H21FN3O+
316.1513	25	C19H21FO3+
316.1829	70	C18H23FN3O+
318.1627	71	C19H23FO3+
340.1462	202	C19H19FN3O2+
341.1511	57	C19H20FN3O2+
342.1617	235	C19H21FN3O2+
343.1649	28	C18[13]CH21FN3O2+
344.1425	29	C18H19FN3O3+
358.1563	656	C19H21FN3O3+
359.1606	183	C18[13]CH21FN3O3+
360.1719	606	C19H23FN3O3+
361.1766	89	C18[13]CH23FN3O3+
362.1527	61	C18H21FN3O4+
363.1494	19	C17H20FN4O4+
