Mass spectrum: Pindolol; LC-ESI-QTOF; MS2; CE: 10 eV; R=35000; [M+H]+
Name: Pindolol
Name: 1-(1H-indol-4-yloxy)-3-(propan-2-ylamino)propan-2-ol
Formula: C14H20N2O2
Exact mass: 248.1524779
SMILES: CC(C)NCC(O)COC1=CC=CC2=C1C=CN2
InChI: InChI=1S/C14H20N2O2/c1-10(2)16-8-11(17)9-18-14-5-3-4-13-12(14)6-7-15-13/h3-7,10-11,15-17H,8-9H2,1-2H3
Instrument: Bruker maXis Impact
Instrument type: LC-ESI-QTOF
Ms type: MS2
Ion mode: POSITIVE
Ionization: ESI
Fragmentation mode: CID
Collision energy: 10 eV
Resolution: 35000
Column name: Acclaim RSLC C18 2.2um, 2.1x100mm, Thermo
Retention time: 3.776 min
Base peak: 249.1594
Precursor m/z: 249.1598
Precursor type: [M+H]+
m/z	relative intensity	assigned
116.1063	11	C6H14NO+
146.0589	6	C9H8NO+
172.0743	17	C11H10NO+
249.161	999	C14H21N2O2+
