Mass spectrum: Valsartan; LC-ESI-QTOF; MS2; CE: 40 eV; R=35000; [M+H]+
Name: Valsartan
Name: (2S)-3-methyl-2-[pentanoyl-[[4-[2-(2H-tetrazol-5-yl)phenyl]phenyl]methyl]amino]butanoic acid
Formula: C24H29N5O3
Exact mass: 435.2270398
SMILES: CCCCC(=O)N(CC1=CC=C(C=C1)C1=CC=CC=C1C1=NNN=N1)[C@@H](C(C)C)C(O)=O
InChI: InChI=1S/C24H29N5O3/c1-4-5-10-21(30)29(22(16(2)3)24(31)32)15-17-11-13-18(14-12-17)19-8-6-7-9-20(19)23-25-27-28-26-23/h6-9,11-14,16,22H,4-5,10,15H2,1-3H3,(H,31,32)(H,25,26,27,28)/t22-/m0/s1
Instrument: Bruker maXis Impact
Instrument type: LC-ESI-QTOF
Ms type: MS2
Ion mode: POSITIVE
Ionization: ESI
Fragmentation mode: CID
Collision energy: 40 eV
Resolution: 35000
Column name: Acclaim RSLC C18 2.2um, 2.1x100mm, Thermo
Retention time: 9.0 min
Base peak: 150.1113
Precursor m/z: 436.2343
Precursor type: [M+H]+
m/z	relative intensity	assigned
140.0482	15	C10H6N+
152.061	13	C12H8+
153.0687	63	C12H9+
154.0718	10	C5H8N5O+
163.0536	17	C13H7+
165.067	12	C8H9N2O2+
166.0631	7	C9H10O3+
166.0734	7	C8H10N2O2+
167.0723	13	C12H9N+
178.0764	89	C14H10+
179.0808	39	C7H9N5O+
180.0796	322	C13H10N+
181.0637	7	C11H7N3+
181.0828	42	C12[13]CH10N+
190.0641	245	C14H8N+
191.0696	56	C13[13]CH8N+
192.0678	79	C13H8N2+
193.0721	8	C8H9N4O2+
193.0867	15	C11H13O3+
194.0942	58	C11H14O3+
195.0771	10	C9H11N2O3+
195.0986	14	C9H13N3O2+
196.0734	14	C11H8N4+
205.0749	41	C14H9N2+
207.0907	999	C14H11N2+
208.0746	115	C12H8N4+
208.0937	151	C13[13]CH11N2+
209.0789	12	C9H11N3O3+
209.1063	47	C14H13N2+
210.0904	80	C12H10N4+
211.0932	9	C9H13N3O3+
235.0959	201	C11H13N3O3+
291.1485	118	C17H17N5+
292.1513	30	C16[13]CH17N5+
306.1712	6	C18H20N5+
