Mass spectrum: Acebutolol; LC-ESI-QTOF; MS2; CE: 50 eV; R=35000; [M+H]+
Name: Acebutolol
Name: N-[3-acetyl-4-[2-hydroxy-3-(propan-2-ylamino)propoxy]phenyl]butanamide
Formula: C18H28N2O4
Exact mass: 336.2049074
SMILES: CCCC(=O)Nc1ccc(c(c1)C(=O)C)OCC(CNC(C)C)O
InChI: InChI=1S/C18H28N2O4/c1-5-6-18(23)20-14-7-8-17(16(9-14)13(4)21)24-11-15(22)10-19-12(2)3/h7-9,12,15,19,22H,5-6,10-11H2,1-4H3,(H,20,23)
Instrument: Bruker maXis Impact
Instrument type: LC-ESI-QTOF
Ms type: MS2
Ion mode: POSITIVE
Ionization: ESI
Fragmentation mode: CID
Collision energy: 50 eV
Resolution: 35000
Column name: Acclaim RSLC C18 2.2um, 2.1x100mm, Thermo
Retention time: 4.662 min
Base peak: 337.2129
Precursor m/z: 337.2122
Precursor type: [M+H]+
m/z	relative intensity	assigned
110.0589	39	C6H8NO+
111.0628	6	C3H11O4+
115.0533	47	C9H7+
116.1064	194	C6H14NO+
117.0565	26	C8H7N+
117.0676	14	C4H9N2O2+
117.1103	15	C5[13]CH14NO+
118.0644	64	C8H8N+
119.0481	7	C8H7O+
119.0722	57	C8H9N+
120.0799	492	C8H10N+
121.0632	5	C8H9O+
121.0833	56	C7[13]CH10N+
122.0588	162	C7H8NO+
122.0958	59	C8H12N+
123.0623	14	C6[13]CH8NO+
123.1007	6	C5H15O3+
127.0533	10	C10H7+
130.064	157	C9H8N+
131.0487	36	C9H7O+
131.0701	27	C6H11O3+
132.0448	11	C8H6NO+
132.0539	5	C4H8N2O3+
132.0793	81	C6H12O3+
133.0512	99	C8H7NO+
133.063	19	C9H9O+
133.0841	12	C6H13O3+
134.0588	118	C8H8NO+
134.0954	68	C9H12N+
135.0653	21	C5H11O4+
136.0383	39	C7H6NO2+
136.0743	122	C8H10NO+
137.0791	8	C7[13]CH10NO+
142.0637	19	C7H10O3+
143.0481	12	C10H7O+
143.071	32	C7H11O3+
144.0551	5	C10H8O+
144.0798	95	C10H10N+
145.0635	23	C10H9O+
145.0824	11	C9[13]CH10N+
146.0591	97	C9H8NO+
146.0961	7	C10H12N+
147.0422	12	C9H7O2+
147.0662	44	C6H11O4+
147.0904	6	C9H11N2+
148.0744	999	C9H10NO+
149.0601	9	C9H9O2+
149.0779	109	C8[13]CH10NO+
150.0535	36	C8H8NO2+
150.09	160	C9H12NO+
151.0611	120	C8H9NO2+
151.0928	20	C8[13]CH12NO+
152.0689	76	C8H10NO2+
153.0747	6	C8H11NO2+
155.0459	6	C6H7N2O3+
155.0596	16	C10H7N2+
158.0586	7	C7H10O4+
159.0664	14	C7H11O4+
160.0744	410	C7H12O4+
161.0583	18	C10H9O2+
161.0773	46	C6[13]CH12O4+
162.055	8	C9H8NO2+
162.0895	70	C7H14O4+
163.0941	10	C7H15O4+
164.0691	73	C9H10NO2+
165.0734	12	C13H9+
172.0752	49	C11H10NO+
173.0566	8	C6H9N2O4+
173.0783	8	C8H13O4+
174.0877	6	C8H14O4+
175.0636	6	C10H9NO2+
176.1042	6	C8H16O4+
178.0867	15	C10H12NO2+
179.0916	5	C10H13NO2+
180.1008	603	C10H14NO2+
181.1039	78	C9[13]CH14NO2+
188.0685	5	C11H10NO2+
190.0856	27	C11H12NO2+
192.0999	24	C11H14NO2+
200.1066	8	C13H14NO+
202.121	14	C10H18O4+
204.1013	15	C12H14NO2+
206.0794	5	C11H12NO3+
206.1173	37	C12H16NO2+
207.1183	8	C16H15+
216.1007	23	C13H14NO2+
218.1167	142	C13H16NO2+
219.1191	20	C12[13]CH16NO2+
220.1306	24	C13H18NO2+
222.1113	73	C12H16NO3+
223.1144	12	C11[13]CH16NO3+
230.1172	74	C14H16NO2+
231.1209	12	C13[13]CH16NO2+
234.1117	32	C13H16NO3+
248.1271	7	C14H18NO3+
260.1295	7	C18H16N2+
