Mass spectrum: Fenfluramine; LC-ESI-QTOF; MS2; CE: 40 eV; R=35000; [M+H]+
Name: Fenfluramine
Name: N-ethyl-1-[3-(trifluoromethyl)phenyl]propan-2-amine
Formula: C12H16F3N
Exact mass: 231.1234842
SMILES: CCNC(C)CC1=CC(=CC=C1)C(F)(F)F
InChI: InChI=1S/C12H16F3N/c1-3-16-9(2)7-10-5-4-6-11(8-10)12(13,14)15/h4-6,8-9,16H,3,7H2,1-2H3
Instrument: Bruker maXis Impact
Instrument type: LC-ESI-QTOF
Ms type: MS2
Ion mode: POSITIVE
Ionization: ESI
Fragmentation mode: CID
Collision energy: 40 eV
Resolution: 35000
Column name: Acclaim RSLC C18 2.2um, 2.1x100mm, Thermo
Retention time: 6.2 min
Base peak: 232.1305
Precursor m/z: 232.1308
Precursor type: [M+H]+
m/z	relative intensity	assigned
109.0444	9	C7H6F+
119.0284	7	C8H4F+
139.0346	3	C8H5F2+
147.0344	14	C8H4FN2+
159.0409	999	C8H6F3+
160.0442	80	C7[13]CH6F3+
