Mass spectrum: Ranitidine-N-oxide; LC-ESI-QTOF; MS2; CE: 10 eV; R=35000; [M+H]+
Name: Ranitidine-N-oxide
Name: Ranitidine N-oxide
Name: N,N-dimethyl-1-[5-[2-[[(E)-1-(methylamino)-2-nitroethenyl]amino]ethylsulfanylmethyl]furan-2-yl]methanamine oxide
Formula: C13H22N4O4S
Exact mass: 330.1361762
SMILES: CN\C(NCCSCC1=CC=C(C[N+](C)(C)[O-])O1)=C/[N+]([O-])=O
InChI: InChI=1S/C13H22N4O4S/c1-14-13(8-16(18)19)15-6-7-22-10-12-5-4-11(21-12)9-17(2,3)20/h4-5,8,14-15H,6-7,9-10H2,1-3H3/b13-8+
Instrument: Bruker maXis Impact
Instrument type: LC-ESI-QTOF
Ms type: MS2
Ion mode: POSITIVE
Ionization: ESI
Fragmentation mode: CID
Collision energy: 10 eV
Resolution: 35000
Column name: Acclaim RSLC C18 2.2um, 2.1x100mm, Thermo
Retention time: 3.3 min
Base peak: 331.1437
Precursor m/z: 331.1435
Precursor type: [M+H]+
m/z	relative intensity	assigned
124.075	44	C7H10NO+
144.0758	28	C5H10N3O2+
170.0625	5	C6H10N4S+
176.0481	147	C5H10N3O2S+
225.1035	7	C8H19NO4S+
270.0908	949	C11H16N3O3S+
271.0943	80	C10[13]CH16N3O3S+
272.0881	24	C11H16N3O3[34]S+
331.144	999	C13H23N4O4S+
332.1468	115	C12[13]CH23N4O4S+
333.1417	29	C13H23N4O4[34]S+
