Mass spectrum: Sudan III; LC-ESI-QTOF; MS2; CE: 40 eV; R=35000; [M+Na]+
Name: Sudan III
Formula: C22H16N4O
Exact mass: 352.1324111
SMILES: c1ccc(cc1)/N=N\c2ccc(cc2)/N=N/c3c4ccccc4ccc3O
InChI: InChI=1S/C22H16N4O/c27-21-15-10-16-6-4-5-9-20(16)22(21)26-25-19-13-11-18(12-14-19)24-23-17-7-2-1-3-8-17/h1-15,27H/b24-23-,26-25+
Instrument: Bruker maXis Impact
Instrument type: LC-ESI-QTOF
Ms type: MS2
Ion mode: POSITIVE
Ionization: ESI
Fragmentation mode: CID
Collision energy: 40 eV
Resolution: 35000
Column name: Acclaim RSLC C18 2.2um, 2.1x100mm, Thermo
Retention time: 12.328 min
Base peak: 328.172
Precursor m/z: 375.1216
Precursor type: [M+Na]+
m/z	relative intensity	assigned
189.012	999	C12HN2O+
