Mass spectrum: Flutamide; LC-ESI-QTOF; MS2; CE: 30 eV; R=35000; [M-H]-
Name: Flutamide
Name: 2-methyl-N-[4-nitro-3-(trifluoromethyl)phenyl]propanamide
Formula: C11H11F3N2O3
Exact mass: 276.0721769
SMILES: CC(C)C(=O)NC1=CC(=C(C=C1)[N+]([O-])=O)C(F)(F)F
InChI: InChI=1S/C11H11F3N2O3/c1-6(2)10(17)15-7-3-4-9(16(18)19)8(5-7)11(12,13)14/h3-6H,1-2H3,(H,15,17)
Instrument: Bruker maXis Impact
Instrument type: LC-ESI-QTOF
Ms type: MS2
Ion mode: NEGATIVE
Ionization: ESI
Fragmentation mode: CID
Collision energy: 30 eV
Resolution: 35000
Column name: Acclaim RSLC C18 2.2um, 2.1x100mm, Thermo
Retention time: 9.423 min
Base peak: 275.0653
Precursor m/z: 275.0649
Precursor type: [M-H]-
m/z	relative intensity	assigned
126.0164	7	C6H2F2N-
134.0045	10	C7HFNO-
154.0106	27	C7H2F2NO-
155.0176	9	C10H2FN-
159.0308	10	C7H4F3N-
160.0381	207	C7H5F3N-
161.041	16	C6[13]CH5F3N-
162	15	C8HFNO2-
171.0126	5	C10H2FNO-
174.0168	6	C7H3F3NO-
175.0247	41	C7H4F3NO-
176.0098	7	C7H3F3O2-
182.006	188	C8H2F2NO2-
183.0089	15	C7[13]CH2F2NO2-
186.0171	142	C8H3F3NO-
187.0196	12	C7[13]CH3F3NO-
190.0129	13	C7H3F3NO2-
191.0213	9	C7H4F3NO2-
202.0126	999	C11H2F2NO-
203.0151	75	C10[13]CH2F2NO-
204.0167	7	C9[13]C2H2F2NO-
205.023	293	C10H3F2N2O-
206.0063	22	C10H2F2NO2-
206.0237	22	C9[13]CH3F2N2O-
229.0709	42	C11H10F3NO-
230.0768	5	C10[13]CH10F3NO-
232.0093	13	C11H2F2N2O2-
259.0325	10	C10H6F3N2O3-
275.0644	177	C11H10F3N2O3-
276.0668	22	C10[13]CH10F3N2O3-
