Mass spectrum: Fluoxetine; LC-ESI-QTOF; MS2; CE: 30 eV; R=35000; [M+H]+
Name: Fluoxetine
Name: N-methyl-3-phenyl-3-[4-(trifluoromethyl)phenoxy]propan-1-amine
Formula: C17H18F3NO
Exact mass: 309.1340489
SMILES: CNCCC(c1ccccc1)Oc2ccc(cc2)C(F)(F)F
InChI: InChI=1S/C17H18F3NO/c1-21-12-11-16(13-5-3-2-4-6-13)22-15-9-7-14(8-10-15)17(18,19)20/h2-10,16,21H,11-12H2,1H3
Instrument: Bruker maXis Impact
Instrument type: LC-ESI-QTOF
Ms type: MS2
Ion mode: POSITIVE
Ionization: ESI
Fragmentation mode: CID
Collision energy: 30 eV
Resolution: 35000
Column name: Acclaim RSLC C18 2.2um, 2.1x100mm, Thermo
Retention time: 8.6 min
Base peak: 310.1409
Precursor m/z: 310.1413
Precursor type: [M+H]+
m/z	relative intensity	assigned
115.053	86	C9H7+
117.069	228	C9H9+
129.0689	199	C10H9+
143.0842	103	C11H11+
145.0627	174	C10H9O+
159.0797	121	C11H11O+
159.1157	412	C12H15+
167.0852	185	C13H11+
187.1093	150	C13H15O+
195.1156	813	C15H15+
196.1197	123	C10H16N2O2+
204.0917	175	C16H12+
205.0996	281	C16H13+
207.1164	166	C16H15+
218.1091	238	C17H14+
219.1161	999	C17H15+
220.1197	145	C17H16+
223.1112	927	C16H15O+
224.1154	199	C16H16O+
236.1193	97	C17H16O+
247.148	244	C14H18FN3+
248.153	94	C14H19FN3+
265.1574	866	C17H19N3+
