Mass spectrum: Maprotiline; LC-ESI-QTOF; MS2; CE: 40 eV; R=35000; [M+H]+
Name: Maprotiline
Formula: C20H23N
Exact mass: 277.1830497
SMILES: CNCCCC12CCC(c3c1cccc3)c4c2cccc4
InChI: InChI=1S/C20H23N/c1-21-14-6-12-20-13-11-15(16-7-2-4-9-18(16)20)17-8-3-5-10-19(17)20/h2-5,7-10,15,21H,6,11-14H2,1H3
Instrument: Bruker maXis Impact
Instrument type: LC-ESI-QTOF
Ms type: MS2
Ion mode: POSITIVE
Ionization: ESI
Fragmentation mode: CID
Collision energy: 40 eV
Resolution: 35000
Column name: Acclaim RSLC C18 2.2um, 2.1x100mm, Thermo
Retention time: 8.550 min
Base peak: 278.1922
Precursor m/z: 278.1903
Precursor type: [M+H]+
m/z	relative intensity	assigned
115.0545	66	C9H7+
116.0595	8	C8[13]CH7+
117.0702	78	C9H9+
118.0734	9	C8[13]CH9+
128.0621	40	C10H8+
129.0696	28	C10H9+
131.0856	62	C10H11+
132.0891	6	C9[13]CH11+
141.0702	154	C11H9+
142.0733	15	C10[13]CH9+
143.0858	21	C11H11+
154.0776	11	C12H10+
155.0852	14	C12H11+
165.0705	12	C13H9+
169.1016	38	C13H13+
178.0784	538	C14H10+
179.0839	113	C13[13]CH10+
180.0887	10	C13[13]CH11+
189.0707	25	C15H9+
190.0777	39	C15H10+
191.0864	999	C15H11+
192.0898	149	C14[13]CH11+
193.1016	66	C15H13+
194.1049	8	C14[13]CH13+
202.0779	15	C16H10+
203.0861	67	C16H11+
204.094	215	C16H12+
205.1002	83	C16H13+
206.1051	14	C15[13]CH13+
217.1021	23	C17H13+
218.1093	27	C17H14+
219.1179	428	C17H15+
220.1213	73	C17H16+
221.124	5	C16[13]CH16+
250.1601	64	C18H20N+
251.1639	13	C17[13]CH20N+
