Mass spectrum: O-Desvenlafaxine; LC-ESI-QTOF; MS2; CE: 10 eV; R=35000; [M+H]+
Name: O-Desvenlafaxine
Name: Desvenlafaxine
Name: 4-[2-(dimethylamino)-1-(1-hydroxycyclohexyl)ethyl]phenol
Formula: C16H25NO2
Exact mass: 263.1885290
SMILES: CN(C)CC(C1=CC=C(O)C=C1)C1(O)CCCCC1
InChI: InChI=1S/C16H25NO2/c1-17(2)12-15(13-6-8-14(18)9-7-13)16(19)10-4-3-5-11-16/h6-9,15,18-19H,3-5,10-12H2,1-2H3
Instrument: Bruker maXis Impact
Instrument type: LC-ESI-QTOF
Ms type: MS2
Ion mode: POSITIVE
Ionization: ESI
Fragmentation mode: CID
Collision energy: 10 eV
Resolution: 35000
Column name: Acclaim RSLC C18 2.2um, 2.1x100mm, Thermo
Retention time: 4.8 min
Base peak: 264.1957
Precursor m/z: 264.1958
Precursor type: [M+H]+
m/z	relative intensity	assigned
133.064	1	C9H9O+
201.1268	5	C14H17O+
246.1851	196	C16H24NO+
247.1879	28	C15[13]CH24NO+
248.1903	2	C14[13]C2H24NO+
264.196	999	C16H26NO2+
265.1992	126	C15[13]CH26NO2+
266.2019	11	
