Mass spectrum: Dodecanoic acid; GC-APCI-QTOF; MS2; CE: 20 eV; R=35000; [M+H]+
Name: Dodecanoic acid
Formula: C12H24O2
Exact mass: 200.1776
SMILES: CCCCCCCCCCCC(=O)O
InChI: InChI=1S/C12H24O2/c1-2-3-4-5-6-7-8-9-10-11-12(13)14/h2-11H2,1H3,(H,13,14)
Instrument: Bruker 450 GC coupled to maXis Impact
Instrument type: GC-APCI-QTOF
Ms type: MS2
Ion mode: POSITIVE
Ionization: APCI
Fragmentation mode: CID
Collision energy: 20 eV
Resolution: 35000
Column name: Rxi-5Sil MS column, 30m, 0.25mm i.d., 0.25Âµm film thickness, Restek
Retention time: 11.246 min
Base peak: 201.1848
Precursor m/z: 201.1849
Precursor type: [M+H]+
m/z	relative intensity	assigned
53.0022	29	C3HO+
55.0548	114	C4H7+
57.0698	140	C4H9+
59.0486	37	C3H7O+
69.0696	74	C5H9+
71.0841	52	C5H11+
81.0698	42	C6H9+
83.0862	29	C6H11+
87.043	40	C4H7O2+
89.058	94	C4H9O2+
103.0739	157	C5H11O2+
117.0909	88	C6H13O2+
125.0954	28	C8H13O+
129.0904	547	C7H13O2+
130.0961	54	C7H14O2+
131.1067	92	C7H15O2+
135.1168	172	C10H15+
136.1225	31	C10H16+
137.1349	27	C10H17+
153.1279	150	C10H17O+
157.1233	108	C9H17O2+
173.1537	999	C10H21O2+
174.1584	123	C10H22O2+
