Mass spectrum: Dimethyl-5-sulfoisophthalate; LC-ESI-QTOF; MS2; CE: Ramp 22.9-34.4 eV; R=35000; [M-H]-
Name: Dimethyl-5-sulfoisophthalate
Name: 1,3-Benzenedicarboxylic acid, 5-sulfo-, 1,3-dimethyl ester
Name: 3,5-bis(methoxycarbonyl)benzenesulfonic acid
Formula: C10H10O7S
Exact mass: 274.0147237
SMILES: COC(=O)C1=CC(=CC(=C1)C(=O)OC)S(O)(=O)=O
InChI: InChI=1S/C10H10O7S/c1-16-9(11)6-3-7(10(12)17-2)5-8(4-6)18(13,14)15/h3-5H,1-2H3,(H,13,14,15)
Instrument: Bruker maXis Impact
Instrument type: LC-ESI-QTOF
Ms type: MS2
Ion mode: NEGATIVE
Ionization: ESI
Fragmentation mode: CID
Collision energy: Ramp 22.9-34.4 eV
Resolution: 35000
Column name: Acclaim RSLC C18 2.2um, 2.1x100mm, Thermo
Retention time: 4.524 min
Base peak: 59.013
Precursor m/z: 273.0074
Precursor type: [M-H]-
m/z	relative intensity	assigned
79.9565	132	O3S-
135.0105	128	C4H7O3S-
150.0322	90	C8H6O3-
153.018	56	C7H5O4-
166.0277	58	C8H6O4-
209.045	311	C10H9O5-
210.0514	49	C9[13]CH9O5-
213.9948	67	C8H6O5S-
245.9821	151	C8H6O7S-
273.0066	999	C10H9O7S-
274.0108	105	C9[13]CH9O7S-
