Mass spectrum: Benalaxyl; LC-ESI-QTOF; MS2; CE: 50 eV; R=35000; [M+H]+
Name: Benalaxyl
Name: L-Alanine, N-(2,6-dimethylphenyl)-N-(phenylacetyl)-, methyl ester
Name: methyl (2S)-2-(2,6-dimethyl-N-(2-phenylacetyl)anilino)propanoate
Formula: C20H23NO3
Exact mass: 325.1677936
SMILES: COC(=O)[C@H](C)N(C(=O)CC1=CC=CC=C1)C1=C(C)C=CC=C1C
InChI: InChI=1S/C20H23NO3/c1-14-9-8-10-15(2)19(14)21(16(3)20(23)24-4)18(22)13-17-11-6-5-7-12-17/h5-12,16H,13H2,1-4H3/t16-/m0/s1
Instrument: Bruker maXis Impact
Instrument type: LC-ESI-QTOF
Ms type: MS2
Ion mode: POSITIVE
Ionization: ESI
Fragmentation mode: CID
Collision energy: 50 eV
Resolution: 35000
Column name: Acclaim RSLC C18 2.2um, 2.1x100mm, Thermo
Retention time: 10.977 min
Base peak: 326.1753
Precursor m/z: 326.1751
Precursor type: [M+H]+
m/z	relative intensity	assigned
118.0643	24	C8H8N+
119.0846	7	C9H11+
120.0801	76	C8H10N+
121.0879	291	C8H11N+
122.092	25	C7[13]CH11N+
131.0844	13	C10H11+
132.08	23	C9H10N+
133.0875	73	C9H11N+
134.0917	6	C8[13]CH11N+
146.0951	7	C10H12N+
148.1111	999	C7H16O3+
149.1145	85	C6[13]CH16O3+
196.111	7	C14H14N+
