Mass spectrum: 1-(3-carboxypropyl)-3,7-dimethylxanthine; LC-ESI-QTOF; MS2; CE: 40 eV; R=35000; [M+H]+
Name: 1-(3-carboxypropyl)-3,7-dimethylxanthine
Name: 4-(3,7-dimethyl-2,6-dioxopurin-1-yl)butanoic acid
Formula: C11H14N4O4
Exact mass: 266.1015049
SMILES: CN1C=NC2=C1C(=O)N(CCCC(O)=O)C(=O)N2C
InChI: InChI=1S/C11H14N4O4/c1-13-6-12-9-8(13)10(18)15(11(19)14(9)2)5-3-4-7(16)17/h6H,3-5H2,1-2H3,(H,16,17)
Instrument: Bruker maXis Impact
Instrument type: LC-ESI-QTOF
Ms type: MS2
Ion mode: POSITIVE
Ionization: ESI
Fragmentation mode: CID
Collision energy: 40 eV
Resolution: 35000
Column name: Acclaim RSLC C18 2.2um, 2.1x100mm, Thermo
Retention time: 4.462 min
Base peak: 267.1083
Precursor m/z: 267.1088
Precursor type: [M+H]+
m/z	relative intensity	assigned
121.0625	33	C6H7N3+
122.0698	56	C3H10N2O3+
124.0486	12	C2H8N2O4+
132.0539	32	C4H8N2O3+
135.0647	14	C5H11O4+
136.0495	102	C6H6N3O+
136.0859	10	C7H10N3+
137.0524	9	C5[13]CH6N3O+
137.0815	29	C6H9N4+
138.0649	109	C8H10O2+
139.0686	14	C7[13]CH10O2+
147.0643	18	C4H9N3O3+
149.0812	57	C6H13O4+
150.0643	21	C4H10N2O4+
150.1023	29	C8H12N3+
153.0206	9	C10H3NO+
154.059	60	C6H8N3O2+
161.082	10	C8H9N4+
162.0882	23	C7H14O4+
163.0603	61	C7H7N4O+
165.0757	276	C7H9N4O+
166.0799	27	C6[13]CH9N4O+
175.0605	31	C8H7N4O+
180.0637	44	C7H8N4O2+
181.0704	171	C7H9N4O2+
182.0731	11	C6[13]CH9N4O2+
193.071	999	C10H11NO3+
194.0738	105	C9[13]CH11NO3+
195.0814	8	C8[13]C2H11NO3+
205.1063	13	C7H15N3O4+
207.087	16	C9H11N4O2+
211.0811	375	C8H11N4O3+
212.0851	45	C7[13]CH11N4O3+
221.1026	70	C10H13N4O2+
222.106	9	C9[13]CH13N4O2+
