Mass spectrum: Diflufenican; LC-ESI-QTOF; MS2; CE: 30 eV; R=35000; [M+H]+
Name: Diflufenican
Name: N-(2,4-difluorophenyl)-2-[3-(trifluoromethyl)phenoxy]pyridine-3-carboxamide
Formula: C19H11F5N2O2
Exact mass: 394.0740687
SMILES: FC1=CC=C(NC(=O)C2=CC=CN=C2OC2=CC=CC(=C2)C(F)(F)F)C(F)=C1
InChI: InChI=1S/C19H11F5N2O2/c20-12-6-7-16(15(21)10-12)26-17(27)14-5-2-8-25-18(14)28-13-4-1-3-11(9-13)19(22,23)24/h1-10H,(H,26,27)
Instrument: Bruker maXis Impact
Instrument type: LC-ESI-QTOF
Ms type: MS2
Ion mode: POSITIVE
Ionization: ESI
Fragmentation mode: CID
Collision energy: 30 eV
Resolution: 35000
Column name: Acclaim RSLC C18 2.2um, 2.1x100mm, Thermo
Retention time: 11.727 min
Base peak: 279.1587
Precursor m/z: 395.0813
Precursor type: [M+H]+
m/z	relative intensity	assigned
233.0517	41	C15H6FN2+
234.0543	6	C14[13]CH6FN2+
238.0474	15	C12H7F3NO+
246.0355	64	C13H6F2NO2+
247.0408	11	C12[13]CH6F2NO2+
265.054	10	C16H8FNO2+
266.0422	999	C16H6F2NO+
267.0451	130	C15[13]CH6F2NO+
268.0475	11	C14[13]C2H6F2NO+
284.0529	51	C19H7FNO+
285.0548	8	C18[13]CH7FNO+
335.0615	6	C19H9F2N2O2+
355.066	6	C19H10F3N2O2+
375.0748	23	C19H11F4N2O2+
376.0792	6	C18[13]CH11F4N2O2+
377.0696	11	C19H10F5N2O+
395.0811	53	C19H12F5N2O2+
396.085	17	C18[13]CH12F5N2O2+
