Mass spectrum: 6a_Methylprednisolone; LC-ESI-QTOF; MS2; CE: 50 eV; R=35000; [M+H]+
Name: 6a_Methylprednisolone
Name: Methylprednisolone
Name: (6S,8S,9S,10R,11S,13S,14S,17R)-11,17-dihydroxy-17-(2-hydroxyacetyl)-6,10,13-trimethyl-7,8,9,11,12,14,15,16-octahydro-6H-cyclopenta[a]phenanthren-3-one
Formula: C22H30O5
Exact mass: 374.2093241
SMILES: [H][C@@]12CC[C@](O)(C(=O)CO)[C@@]1(C)C[C@H](O)[C@@]1([H])[C@@]2([H])C[C@H](C)C2=CC(=O)C=C[C@]12C
InChI: InChI=1S/C22H30O5/c1-12-8-14-15-5-7-22(27,18(26)11-23)21(15,3)10-17(25)19(14)20(2)6-4-13(24)9-16(12)20/h4,6,9,12,14-15,17,19,23,25,27H,5,7-8,10-11H2,1-3H3/t12-,14-,15-,17-,19+,20-,21-,22-/m0/s1
Instrument: Bruker maXis Impact
Instrument type: LC-ESI-QTOF
Ms type: MS2
Ion mode: POSITIVE
Ionization: ESI
Fragmentation mode: CID
Collision energy: 50 eV
Resolution: 35000
Column name: Acclaim RSLC C18 2.2um, 2.1x100mm, Thermo
Retention time: 8.684 min
Base peak: 375.2168
Precursor m/z: 375.2166
Precursor type: [M+H]+
m/z	relative intensity	assigned
115.0532	170	C9H7+
116.0599	32	C8[13]CH7+
117.0691	105	C9H9+
119.0846	114	C9H11+
121.0642	498	C8H9O+
122.0687	57	C7[13]CH9O+
123.0798	29	C8H11O+
127.0517	20	C10H7+
128.0612	209	C10H8+
129.0691	203	C10H9+
130.0769	84	C10H10+
131.0478	95	C9H7O+
131.0847	209	C10H11+
132.0568	52	C9H8O+
132.0897	25	C9[13]CH11+
133.0648	82	C9H9O+
133.1004	192	C10H13+
135.0796	798	C9H11O+
136.0831	92	C8[13]CH11O+
137.058	47	C8H9O2+
141.069	235	C11H9+
142.0766	199	C11H10+
143.084	186	C11H11+
144.0554	174	C10H8O+
144.0915	51	C11H12+
145.0636	357	C10H9O+
145.0998	160	C11H13+
146.0713	312	C10H10O+
146.102	21	C10[13]CH13+
147.0789	156	C10H11O+
147.1147	25	C11H15+
148.0822	32	C9[13]CH11O+
149.0947	53	C10H13O+
152.0605	59	C12H8+
153.0682	74	C12H9+
154.0764	49	C12H10+
155.0846	160	C12H11+
156.092	59	C12H12+
157.0639	113	C11H9O+
157.0999	156	C12H13+
158.0714	363	C11H10O+
159.0792	524	C11H11O+
159.1164	65	C12H15+
160.0862	120	C11H12O+
160.1225	21	C12H16+
161.0948	982	C11H13O+
162.098	127	C10[13]CH13O+
163.0737	23	C10H11O2+
165.0688	121	C13H9+
166.0768	89	C13H10+
167.084	122	C13H11+
168.0909	77	C13H12+
169.0654	50	C12H9O+
169.0988	90	C13H13+
170.071	132	C12H10O+
171.0794	273	C12H11O+
171.1153	41	C13H15+
172.087	330	C12H12O+
173.0944	288	C12H13O+
173.1329	21	C13H17+
174.0995	35	C11[13]CH13O+
175.1115	68	C12H15O+
176.1174	19	C12H16O+
177.0703	25	C14H9+
177.0905	38	C11H13O2+
178.0776	175	C14H10+
179.084	117	C14H11+
180.092	67	C14H12+
181.0637	173	C13H9O+
181.0998	95	C14H13+
182.0704	75	C13H10O+
182.1063	27	C14H14+
183.079	134	C13H11O+
183.1159	93	C14H15+
184.0853	98	C13H12O+
185.0949	999	C13H13O+
186.0993	159	C12[13]CH13O+
187.1102	351	C13H15O+
188.1149	46	C12[13]CH15O+
189.0712	25	C15H9+
189.0892	87	C12H13O2+
190.0762	55	C15H10+
191.085	49	C15H11+
192.0942	87	C15H12+
193.1009	172	C15H13+
194.0727	65	C14H10O+
194.1052	67	C15H14+
195.079	309	C14H11O+
195.115	87	C15H15+
196.0867	370	C14H12O+
196.1218	34	C15H16+
197.0942	222	C14H13O+
197.1314	20	C15H17+
198.1018	78	C14H14O+
199.1101	118	C14H15O+
200.1144	23	C13[13]CH15O+
201.1245	25	C14H17O+
202.077	37	C16H10+
203.0837	69	C16H11+
204.0926	73	C16H12+
205.1001	94	C16H13+
206.1071	121	C16H14+
207.0804	87	C15H11O+
207.1157	106	C16H15+
208.0873	208	C15H12O+
208.1211	25	C15[13]CH15+
209.0955	498	C15H13O+
209.133	39	C16H17+
210.1016	286	C15H14O+
211.1104	541	C15H15O+
212.116	123	C14[13]CH15O+
213.1262	84	C15H17O+
215.0856	23	C17H11+
216.0908	26	C17H12+
217.1003	49	C17H13+
218.1101	49	C17H14+
219.0808	39	C16H11O+
219.1146	78	C17H15+
220.0854	44	C16H12O+
220.1233	111	C17H16+
221.0956	142	C16H13O+
221.1312	45	C17H17+
222.1027	298	C16H14O+
223.1107	428	C16H15O+
224.1165	215	C16H16O+
225.1254	134	C16H17O+
226.1312	49	C16H18O+
227.1454	20	C16H19O+
229.0995	29	C18H13+
230.1062	22	C18H14+
231.0794	54	C17H11O+
231.1145	38	C18H15+
233.0971	83	C17H13O+
233.1328	37	C18H17+
234.1024	64	C17H14O+
235.11	183	C17H15O+
235.1454	35	C18H19+
236.1179	233	C17H16O+
237.0901	21	C16H13O2+
237.1252	222	C17H17O+
238.1328	154	C17H18O+
239.1401	86	C17H19O+
240.1466	20	C16[13]CH19O+
244.1208	20	C19H16+
245.0944	45	C18H13O+
246.1029	76	C18H14O+
247.109	101	C18H15O+
248.118	57	C18H16O+
249.126	105	C18H17O+
250.1345	92	C18H18O+
251.1046	32	C17H15O2+
251.1422	167	C18H19O+
252.1473	36	C17[13]CH19O+
253.1564	83	C18H21O+
257.1317	20	C20H17+
258.1014	31	C19H14O+
258.1059	25	C19H14O+
259.1118	95	C19H15O+
260.1182	33	C19H16O+
261.1258	61	C19H17O+
262.135	41	C19H18O+
263.1413	63	C19H19O+
263.179	45	C20H23+
264.1144	26	C18H16O2+
264.1523	45	C19H20O+
264.1834	21	C20H24+
265.1584	358	C19H21O+
266.1309	26	C18H18O2+
266.163	107	C18[13]CH21O+
267.1382	33	C18H19O2+
273.1264	73	C20H17O+
274.1301	20	C19[13]CH17O+
275.143	36	C20H19O+
278.1662	21	C20H22O+
279.1732	66	C20H23O+
280.1803	41	C20H24O+
287.144	26	C21H19O+
288.1521	21	C21H20O+
