Mass spectrum: Norfludiazepam; LC-ESI-QTOF; MS2; CE: 40 eV; R=35000; [M+H]+
Name: Norfludiazepam
Name: Norflurazepam
Name: 7-chloro-5-(2-fluorophenyl)-1,3-dihydro-1,4-benzodiazepin-2-one
Formula: C15H10ClFN2O
Exact mass: 288.0465688
SMILES: c1ccc(c(c1)C2=NCC(=O)Nc3c2cc(cc3)Cl)F
InChI: InChI=1S/C15H10ClFN2O/c16-9-5-6-13-11(7-9)15(18-8-14(20)19-13)10-3-1-2-4-12(10)17/h1-7H,8H2,(H,19,20)
Instrument: Bruker maXis Impact
Instrument type: LC-ESI-QTOF
Ms type: MS2
Ion mode: POSITIVE
Ionization: ESI
Fragmentation mode: CID
Collision energy: 40 eV
Resolution: 35000
Column name: Acclaim RSLC C18 2.2um, 2.1x100mm, Thermo
Retention time: 8.565 min
Base peak: 342.08
Precursor m/z: 289.0538
Precursor type: [M+H]+
m/z	relative intensity	assigned
122.0392	11	C7H5FN+
122.9982	5	C5FN2O+
123.0225	8	C10H3+
124.0557	8	C7H7FN+
129.0437	7	C8H5N2+
130.0517	17	C8H6N2+
131.0593	6	C8H7N2+
133.0509	15	C8H7NO+
134.0387	39	C8H5FN+
135.0454	7	C5H10ClNO+
136.0557	5	C8H7FN+
138.0091	46	C10H2O+
140.0252	999	C7H7ClN+
141.028	91	C6[13]CH7ClN+
142.022	274	C7H7[37]ClN+
143.0256	10	C7H8ClO+
150.0092	20	C8H5ClN+
152.0061	7	C8H5[37]ClN+
152.0615	6	C12H8+
158.0465	59	C9H6N2O+
162.0343	5	C12H4N+
163.0045	14	C11HNO+
164.012	5	C11H2NO+
165.0201	284	C8H6ClN2+
166.0039	80	C8H5ClNO+
166.0238	28	C7[13]CH6ClN2+
167.017	84	C8H6[37]ClN2+
168.0012	18	C8H5[37]ClNO+
168.0202	15	C8H7ClNO+
169.0634	5	C12H9O+
170.0512	8	C12H7F+
177.0559	19	C13H7N+
178.0633	12	C13H8N+
179.0715	75	C13H9N+
180.0762	12	C12[13]CH9N+
183.059	20	C13H8F+
193.0153	10	C9H6ClN2O+
196.0556	15	C13H7FN+
197.062	16	C13H8FN+
198.0703	53	C13H9FN+
199.0746	18	C13H10FN+
205.075	61	C14H9N2+
206.0829	174	C14H10N2+
207.0671	10	C14H9NO+
207.0867	33	C13[13]CH10N2+
208.0538	11	C11H11ClNO+
209.0622	34	C14H8FN+
210.0694	16	C14H9FN+
211.0781	101	C14H10FN+
212.0804	17	C13[13]CH10FN+
213.0329	6	C13H8ClN+
214.0411	252	C13H9ClN+
215.0444	33	C12[13]CH9ClN+
216.038	82	C13H9[37]ClN+
216.0674	5	C15H8N2+
217.0209	20	C13H7ClF+
217.042	5	C13H10ClO+
219.0171	5	C13H7[37]ClF+
224.0233	5	C14H7ClN+
224.0497	6	C14H7FNO+
224.0736	20	C14H9FN2+
225.0576	39	C14H8FNO+
225.081	77	C14H10FN2+
226.0893	920	C14H11FN2+
227.0746	18	C14H10FNO+
227.0924	125	C13[13]CH11FN2+
228.0447	17	C13H9ClN2+
228.095	6	C12[13]C2H11FN2+
230.0395	8	C13H9[37]ClN2+
232.0314	37	C13H8ClFN+
234.0282	13	C13H8[37]ClFN+
234.0469	22	C13H10ClFN+
234.0777	7	C15H10N2O+
235.0533	5	C12[13]CH10ClFN+
235.0675	7	C15H8FN2+
236.0454	8	C13H10[37]ClFN+
236.0735	18	C15H9FN2+
237.0584	13	C15H8FNO+
239.0357	7	C14H8ClN2+
240.0437	15	C14H9ClN2+
241.0515	24	C14H10ClN2+
242.0406	6	C14H9[37]ClN2+
242.0544	5	C13[13]CH10ClN2+
243.049	8	C14H10[37]ClN2+
244.0319	22	C14H8ClFN+
245.0398	38	C14H9ClFN+
246.034	7	C14H8[37]ClFN+
246.0415	9	C13[13]CH9ClFN+
247.037	13	C14H9[37]ClFN+
253.077	7	C15H10FN2O+
254.0832	5	C15H11FN2O+
259.0424	47	C14H9ClFN2+
260.0268	10	C14H8ClFNO+
260.0498	39	C14H10ClFN2+
261.0576	53	C14H11ClFN2+
262.0502	11	C14H10[37]ClFN2+
262.0603	10	C13[13]CH11ClFN2+
263.0552	19	C14H11[37]ClFN2+
271.0423	8	C15H9ClFN2+
289.0533	130	C15H11ClFN2O+
290.056	25	C14[13]CH11ClFN2O+
291.0513	42	C15H11[37]ClFN2O+
