Mass spectrum: Flurazepam; LC-ESI-QTOF; MS2; CE: 40 eV; R=35000; [M+H]+
Name: Flurazepam
Name: 7-chloro-1-[2-(diethylamino)ethyl]-5-(2-fluorophenyl)-3H-1,4-benzodiazepin-2-one
Formula: C21H23ClFN3O
Exact mass: 387.1513683
SMILES: CCN(CC)CCN1c2ccc(cc2C(=NCC1=O)c3ccccc3F)Cl
InChI: InChI=1S/C21H23ClFN3O/c1-3-25(4-2)11-12-26-19-10-9-15(22)13-17(19)21(24-14-20(26)27)16-7-5-6-8-18(16)23/h5-10,13H,3-4,11-12,14H2,1-2H3
Instrument: Bruker maXis Impact
Instrument type: LC-ESI-QTOF
Ms type: MS2
Ion mode: POSITIVE
Ionization: ESI
Fragmentation mode: CID
Collision energy: 40 eV
Resolution: 35000
Column name: Acclaim RSLC C18 2.2um, 2.1x100mm, Thermo
Retention time: 6.860 min
Base peak: 388.1616
Precursor m/z: 388.1586
Precursor type: [M+H]+
m/z	relative intensity	assigned
130.0654	8	C9H8N+
131.0733	13	C9H9N+
134.0407	12	C8H5FN+
166.0423	13	C9H9ClN+
191.0383	8	C7H9ClFN2O+
209.0646	5	C14H8FN+
224.0878	7	C15H11FN+
225.096	43	C15H12FN+
226.0996	7	C14[13]CH12FN+
236.0763	13	C14H14ClF+
244.0338	41	C14H8ClFN+
245.0405	16	C14H9ClFN+
246.031	10	C14H8[37]ClFN+
253.0912	26	C13H15ClFN2+
258.0493	14	C15H10ClFN+
259.0558	16	C15H11ClFN+
260.0649	58	C15H12ClFN+
262.0629	13	C15H12[37]ClFN+
271.0451	40	C15H9ClFN2+
272.029	42	C15H8ClFNO+
273.0391	14	C15H9[37]ClFN2+
273.0583	7	C18H8FNO+
274.0266	11	C15H8[37]ClFNO+
280.1024	6	C16H18ClFO+
285.061	15	C16H11ClFN2+
287.0525	81	C16H11ClFNO+
287.0758	27	C16H13ClFN2+
288.0599	76	C16H12ClFNO+
289.0554	33	C15H11ClFN2O+
290.0581	21	C16H12[37]ClFNO+
291.0559	6	C15H11[37]ClFN2O+
295.0648	6	C17H12ClN2O+
315.072	999	C17H13ClFN2O+
316.0751	139	C20H13ClN2+
317.0694	209	C19H12ClN3+
318.0716	18	C20H13[37]ClN2+
