Mass spectrum: Isoxaben; LC-ESI-QTOF; MS2; CE: Ramp 22.3-33.4 eV; R=35000; [M+H]+
Name: Isoxaben
Name: 2,6-dimethoxy-N-[3-(3-methylpentan-3-yl)-1,2-oxazol-5-yl]benzamide
Formula: C18H24N2O4
Exact mass: 332.1736072
SMILES: CCC(C)(CC)C1=NOC(NC(=O)C2=C(OC)C=CC=C2OC)=C1
InChI: InChI=1S/C18H24N2O4/c1-6-18(3,7-2)14-11-15(24-20-14)19-17(21)16-12(22-4)9-8-10-13(16)23-5/h8-11H,6-7H2,1-5H3,(H,19,21)
Instrument: Bruker maXis Impact
Instrument type: LC-ESI-QTOF
Ms type: MS2
Ion mode: POSITIVE
Ionization: ESI
Fragmentation mode: CID
Collision energy: Ramp 22.3-33.4 eV
Resolution: 35000
Column name: Acclaim RSLC C18 2.2um, 2.1x100mm, Thermo
Retention time: 9.482 min
Base peak: 333.1814
Precursor m/z: 333.1809
Precursor type: [M+H]+
m/z	relative intensity	assigned
57.0693	22	C4H9+
85.101	117	C6H13+
86.1042	8	C5[13]CH13+
122.0357	13	C7H6O2+
150.0302	75	C8H6O3+
165.0546	999	C9H9O3+
166.0573	156	C8[13]CH9O3+
167.0591	12	C11H7N2+
168.0407	13	C8H8O4+
333.1812	11	C18H25N2O4+
