Mass spectrum: 3-Nitrobenzenesulfonic acid; LC-ESI-QTOF; MS2; CE: 10 eV; R=35000; [M-H]-
Name: 3-Nitrobenzenesulfonic acid
Formula: C6H5NO5S
Exact mass: 202.9888433
SMILES: c1cc(cc(c1)S(=O)(=O)O)[N+](=O)[O-]
InChI: InChI=1S/C6H5NO5S/c8-7(9)5-2-1-3-6(4-5)13(10,11)12/h1-4H,(H,10,11,12)
Instrument: Bruker maXis Impact
Instrument type: LC-ESI-QTOF
Ms type: MS2
Ion mode: NEGATIVE
Ionization: ESI
Fragmentation mode: CID
Collision energy: 10 eV
Resolution: 35000
Column name: Acclaim RSLC C18 2.2um, 2.1x100mm, Thermo
Retention time: 2.99 min
Base peak: 201.9802
Precursor m/z: 201.9816
Precursor type: [M-H]-
m/z	relative intensity	assigned
138.0171	26	C6H4NO3-
171.9831	29	C6H4O4S-
201.98	999	C6H4NO5S-
202.9816	97	C5H3N2O5S-
