Mass spectrum: Chloridazon; LC-ESI-QTOF; MS2; CE: 40 eV; R=35000; [M+H]+
Name: Chloridazon
Name: 5-amino-4-chloro-2-phenylpyridazin-3-one
Formula: C10H8ClN3O
Exact mass: 221.0355896
SMILES: NC1=C(Cl)C(=O)N(N=C1)C1=CC=CC=C1
InChI: InChI=1S/C10H8ClN3O/c11-9-8(12)6-13-14(10(9)15)7-4-2-1-3-5-7/h1-6H,12H2
Instrument: Bruker maXis Impact
Instrument type: LC-ESI-QTOF
Ms type: MS2
Ion mode: POSITIVE
Ionization: ESI
Fragmentation mode: CID
Collision energy: 40 eV
Resolution: 35000
Column name: Acclaim RSLC C18 2.2um, 2.1x100mm, Thermo
Retention time: 5.3 min
Base peak: 222.0424
Precursor m/z: 222.0429
Precursor type: [M+H]+
m/z	relative intensity	assigned
119.0592	13	C7H7N2+
120.0441	7	C7H6NO+
128.9841	150	C4H2ClN2O+
130.0639	41	C9H8N+
131.0601	24	C8H7N2+
132.0433	32	C8H6NO+
132.0665	8	C8H8N2+
135.044	6	C6H5N3O+
140.0248	6	C8H2N3+
141.0432	6	C9H5N2+
142.0509	12	C9H6N2+
143.0594	6	C9H7N2+
144.0555	4	C8H6N3+
146.0104	173	C4H5ClN3O+
148.0078	56	C9H5Cl+
149.0139	25	C10HN2+
150.0093	36	C9N3+
151.0118	13	C4HN5O2+
152.0063	9	C2H5ClN4O2+
158.0589	10	C10H8NO+
158.0685	13	C9H8N3+
159.0535	33	C9H7N2O+
159.0753	9	C4H9N5O2+
160.0608	12	C9H8N2O+
169.0379	7	C10H5N2O+
177.0197	14	C9H6ClN2+
178.003	8	C10N3O+
180.0005	5	C9H5ClO2+
186.0657	56	C10H8N3O+
193.028	101	C10H8ClNO+
194.032	9	C9[13]CH8ClNO+
195.0261	31	C10H8[37]ClNO+
197.0298	6	C9H3N5O+
205.0152	23	C10H6ClN2O+
207.0111	7	C10H6[37]ClN2O+
222.0424	999	C10H9ClN3O+
223.0452	121	C9[13]CH9ClN3O+
224.0395	290	C10H9[37]ClN3O+
225.0422	20	C9[13]CH9[37]ClN3O+
