Mass spectrum: Irgarol; LC-ESI-QTOF; MS2; CE: 30 eV; R=35000; [M+H]+
Name: Irgarol
Name: Cybutryne
Name: 2-N-tert-butyl-4-N-cyclopropyl-6-methylsulfanyl-1,3,5-triazine-2,4-diamine
Formula: C11H19N5S
Exact mass: 253.1361166
SMILES: CSC1=NC(NC(C)(C)C)=NC(NC2CC2)=N1
InChI: InChI=1S/C11H19N5S/c1-11(2,3)16-9-13-8(12-7-5-6-7)14-10(15-9)17-4/h7H,5-6H2,1-4H3,(H2,12,13,14,15,16)
Instrument: Bruker maXis Impact
Instrument type: LC-ESI-QTOF
Ms type: MS2
Ion mode: POSITIVE
Ionization: ESI
Fragmentation mode: CID
Collision energy: 30 eV
Resolution: 35000
Column name: Acclaim RSLC C18 2.2um, 2.1x100mm, Thermo
Retention time: 10.2 min
Base peak: 254.1435
Precursor m/z: 254.1434
Precursor type: [M+H]+
m/z	relative intensity	assigned
116.0271	10	C3H6N3S+
125.0814	49	C5H9N4+
150.0763	41	C5H12NO4+
156.058	71	C6H10N3S+
157.0602	5	C5[13]CH10N3S+
170.0483	21	C4H12NO4S+
171.069	9	C6H11N4S+
198.0807	999	C7H12N5S+
199.0807	77	C6[13]CH12N5S+
200.0763	31	C7H12N5[34]S+
