Mass spectrum: Hexa(methoxymethyl)melamine; LC-ESI-QTOF; MS2; CE: Ramp 23.4-35.1 eV; R=35000; [M+H]+
Name: Hexa(methoxymethyl)melamine
Name: 2-N,2-N,4-N,4-N,6-N,6-N-hexakis(methoxymethyl)-1,3,5-triazine-2,4,6-triamine
Formula: C15H30N6O6
Exact mass: 390.2226827
SMILES: COCN(COC)C1=NC(=NC(=N1)N(COC)COC)N(COC)COC
InChI: InChI=1S/C15H30N6O6/c1-22-7-19(8-23-2)13-16-14(20(9-24-3)10-25-4)18-15(17-13)21(11-26-5)12-27-6/h7-12H2,1-6H3
Instrument: Bruker maXis Impact
Instrument type: LC-ESI-QTOF
Ms type: MS2
Ion mode: POSITIVE
Ionization: ESI
Fragmentation mode: CID
Collision energy: Ramp 23.4-35.1 eV
Resolution: 35000
Column name: Acclaim RSLC C18 2.2um, 2.1x100mm, Thermo
Retention time: 7.629 min
Base peak: 391.2303
Precursor m/z: 391.23
Precursor type: [M+H]+
m/z	relative intensity	assigned
177.0879	999	C6H13N2O4+
178.0903	105	C5[13]CH13N2O4+
193.1189	6	C7H17N2O4+
207.0984	858	C12H15O3+
208.1007	114	C11[13]CH15O3+
209.1026	6	C12H15O2[18]O+
209.1122	8	C10[13]C2H15O3+
225.1083	17	C7H17N2O6+
239.1228	6	C6H17N5O5+
253.1407	45	C10H17N6O2+
254.1443	5	C9[13]CH17N6O2+
283.1507	240	C11H19N6O3+
284.1537	33	C10[13]CH19N6O3+
285.1579	5	C15H19N5O+
301.1609	19	C11H21N6O4+
329.1915	13	C13H25N6O4+
