Mass spectrum: Darunavir; LC-ESI-QTOF; MS2; CE: 10 eV; R=35000; [M+H]+
Name: Darunavir
Name: [(3aS,4R,6aR)-2,3,3a,4,5,6a-hexahydrofuro[2,3-b]furan-4-yl] N-[(2S,3R)-4-[(4-aminophenyl)sulfonyl-(2-methylpropyl)amino]-3-hydroxy-1-phenylbutan-2-yl]carbamate
Formula: C27H37N3O7S
Exact mass: 547.2352215
SMILES: CC(C)CN(C[C@H]([C@H](Cc1ccccc1)NC(=O)O[C@H]2CO[C@@H]3[C@H]2CCO3)O)S(=O)(=O)c4ccc(cc4)N
InChI: InChI=1S/C27H37N3O7S/c1-18(2)15-30(38(33,34)21-10-8-20(28)9-11-21)16-24(31)23(14-19-6-4-3-5-7-19)29-27(32)37-25-17-36-26-22(25)12-13-35-26/h3-11,18,22-26,31H,12-17,28H2,1-2H3,(H,29,32)/t22-,23-,24+,25-,26+/m0/s1
Instrument: Bruker maXis Impact
Instrument type: LC-ESI-QTOF
Ms type: MS2
Ion mode: POSITIVE
Ionization: ESI
Fragmentation mode: CID
Collision energy: 10 eV
Resolution: 35000
Column name: Acclaim RSLC C18 2.2um, 2.1x100mm, Thermo
Retention time: 8.146 min
Base peak: 548.2477
Precursor m/z: 548.2425
Precursor type: [M+H]+
m/z	relative intensity	assigned
392.2041	999	C25H30NOS+
393.2076	251	C20H31N3O3S+
394.2036	72	C19[13]CH31N3O3S+
418.1808	28	C25H26N2O4+
418.1984	15	C19H32NO7S+
436.195	854	C26H30NO3S+
437.1985	200	C21H31N3O5S+
438.1986	51	C20[13]CH31N3O5S+
439.2009	15	C22H33NO6S+
504.2585	68	C26H38N3O5S+
548.248	696	C27H38N3O7S+
549.2519	262	C26[13]CH38N3O7S+
