Mass spectrum: 4-Methylmorpholine-N-oxide; LC-ESI-QTOF; MS2; CE: Ramp 15.1-22.6 eV; R=35000; [M+H]+
Name: 4-Methylmorpholine-N-oxide
Name: Morpholine, 4-methyl-, 4-oxide
Name: 4-methyl-4-oxidomorpholin-4-ium
Formula: C5H11NO2
Exact mass: 117.0789786
SMILES: C[N+]1([O-])CCOCC1
InChI: InChI=1S/C5H11NO2/c1-6(7)2-4-8-5-3-6/h2-5H2,1H3
Instrument: Bruker maXis Impact
Instrument type: LC-ESI-QTOF
Ms type: MS2
Ion mode: POSITIVE
Ionization: ESI
Fragmentation mode: CID
Collision energy: Ramp 15.1-22.6 eV
Resolution: 35000
Column name: Acclaim RSLC C18 2.2um, 2.1x100mm, Thermo
Retention time: 1.280 min
Base peak: 235.1653
Precursor m/z: 118.0863
Precursor type: [M+H]+
m/z	relative intensity	assigned
71.0728	220	C4H9N+
101.0836	183	C5H11NO+
118.0869	999	C5H12NO2+
