Mass spectrum: Fipronil sulfide; LC-ESI-QTOF; MS2; CE: 50 eV; R=35000; [M+H]+
Name: Fipronil sulfide
Name: 5-amino-1-[2,6-dichloro-4-(trifluoromethyl)phenyl]-4-(trifluoromethylsulfanyl)pyrazole-3-carbonitrile
Formula: C12H4Cl2F6N4S
Exact mass: 419.9437918
SMILES: NC1=C(SC(F)(F)F)C(=NN1C1=C(Cl)C=C(C=C1Cl)C(F)(F)F)C#N
InChI: InChI=1S/C12H4Cl2F6N4S/c13-5-1-4(11(15,16)17)2-6(14)8(5)24-10(22)9(7(3-21)23-24)25-12(18,19)20/h1-2H,22H2
Instrument: Bruker maXis Impact
Instrument type: LC-ESI-QTOF
Ms type: MS2
Ion mode: POSITIVE
Ionization: ESI
Fragmentation mode: CID
Collision energy: 50 eV
Resolution: 35000
Column name: Acclaim RSLC C18 2.2um, 2.1x100mm, Thermo
Retention time: 10.695 min
Base peak: 223.0629
Precursor m/z: 420.9511
Precursor type: [M+H]+
m/z	relative intensity	assigned
228.9667	157	C7H4Cl2F3N+
237.9688	518	C7H4Cl2F2N3+
238.9703	165	C11H4Cl2FN+
239.9603	219	C6H2ClF3N3S+
239.9721	219	C7H4Cl[37]ClF2N3+
246.0035	170	C9H4ClF3N3+
251.9691	174	C11ClF3N2+
254.9675	265	C8H4Cl2F3N2+
256.966	192	C8H4Cl[37]ClF3N2+
262.9642	497	C11H4Cl2F3+
264.9808	999	C12HClF3N2+
266.9743	336	C12H[37]ClF3N2+
274.9641	380	C12H4Cl2F3+
285.0133	172	C11H5ClF3N4+
289.9761	522	C7H4Cl2F4N4+
291.9703	149	C7H4Cl[37]ClF4N4+
316.9873	987	C11H5ClF3N4S+
318.9822	236	C11H5[37]ClF3N4S+
