Mass spectrum: Pipamperone; LC-ESI-QTOF; MS2; CE: 30 eV; R=35000; [M+H]+
Name: Pipamperone
Name: 1-[4-(4-fluorophenyl)-4-oxobutyl]-4-piperidin-1-ylpiperidine-4-carboxamide
Formula: C21H30FN3O2
Exact mass: 375.2322054
SMILES: NC(=O)C1(CCN(CCCC(=O)C2=CC=C(F)C=C2)CC1)N1CCCCC1
InChI: InChI=1S/C21H30FN3O2/c22-18-8-6-17(7-9-18)19(26)5-4-12-24-15-10-21(11-16-24,20(23)27)25-13-2-1-3-14-25/h6-9H,1-5,10-16H2,(H2,23,27)
Instrument: Bruker maXis Impact
Instrument type: LC-ESI-QTOF
Ms type: MS2
Ion mode: POSITIVE
Ionization: ESI
Fragmentation mode: CID
Collision energy: 30 eV
Resolution: 35000
Column name: Acclaim RSLC C18 2.2um, 2.1x100mm, Thermo
Retention time: 5.769 min
Base peak: 376.2391
Precursor m/z: 376.2395
Precursor type: [M+H]+
m/z	relative intensity	assigned
123.023	48	C10H3+
138.1265	27	C9H16N+
165.0699	999	C13H9+
166.0729	76	C12[13]CH9+
167.076	5	C11[13]C2H9+
194.0963	53	C14H12N+
195.0997	6	C13[13]CH12N+
220.1121	9	C16H14N+
262.1228	45	C18H16NO+
263.126	7	C17[13]CH16NO+
291.1503	305	C19H19N2O+
292.1527	59	C18[13]CH19N2O+
293.155	5	C17[13]C2H19N2O+
331.2175	53	C20H28FN2O+
332.2209	12	C19[13]CH28FN2O+
376.2394	39	C21H31FN3O2+
377.2419	10	C20[13]CH31FN3O2+
