Mass spectrum: Amcinonide; LC-ESI-QTOF; MS2; CE: 30 eV; R=35000; [M+H]+
Name: Amcinonide
Name: [2-[(1S,2S,4R,8S,9S,11S,12R,13S)-12-fluoro-11-hydroxy-9,13-dimethyl-16-oxospiro[5,7-dioxapentacyclo[10.8.0.02,9.04,8.013,18]icosa-14,17-diene-6,1`-cyclopentane]-8-yl]-2-oxoethyl] acetate
Formula: C28H35FO7
Exact mass: 502.2366817
SMILES: [H][C@@]12C[C@H]3OC4(CCCC4)O[C@@]3(C(=O)COC(C)=O)[C@@]1(C)C[C@H](O)[C@@]1(F)[C@@]2([H])CCC2=CC(=O)C=C[C@]12C
InChI: InChI=1S/C28H35FO7/c1-16(30)34-15-22(33)28-23(35-26(36-28)9-4-5-10-26)13-20-19-7-6-17-12-18(31)8-11-24(17,2)27(19,29)21(32)14-25(20,28)3/h8,11-12,19-21,23,32H,4-7,9-10,13-15H2,1-3H3/t19-,20-,21-,23+,24-,25-,27-,28+/m0/s1
Instrument: Bruker maXis Impact
Instrument type: LC-ESI-QTOF
Ms type: MS2
Ion mode: POSITIVE
Ionization: ESI
Fragmentation mode: CID
Collision energy: 30 eV
Resolution: 35000
Column name: Acclaim RSLC C18 2.2um, 2.1x100mm, Thermo
Retention time: 11.166 min
Base peak: 503.2436
Precursor m/z: 503.244
Precursor type: [M+H]+
m/z	relative intensity	assigned
121.064	61	C8H9O+
122.0693	10	C7[13]CH9O+
123.0442	14	C7H7O2+
123.0791	25	C8H11O+
125.0578	11	C7H9O2+
129.0535	11	C6H9O3+
131.0846	11	C10H11+
133.0639	51	C9H9O+
135.0797	103	C9H11O+
137.0583	54	C8H9O2+
139.0751	23	C8H11O2+
143.0846	19	C11H11+
145.0647	25	C10H9O+
145.1011	11	C11H13+
147.0791	335	C10H11O+
148.0819	34	C9[13]CH11O+
149.058	16	C9H9O2+
151.0742	121	C9H11O2+
152.0793	12	C8[13]CH11O2+
153.0531	16	C8H9O3+
153.0898	35	C9H13O2+
155.0688	26	C8H11O3+
155.0844	9	C12H11+
157.0493	15	C7H9O4+
157.0616	14	C11H9O+
159.0796	147	C11H11O+
160.0847	25	C10[13]CH11O+
161.0581	91	C10H9O2+
161.0951	109	C11H13O+
162.0644	12	C9[13]CH9O2+
162.0985	19	C10[13]CH13O+
163.0729	31	C10H11O2+
165.0703	10	C13H9+
167.0689	42	C9H11O3+
167.0846	11	C13H11+
169.0481	12	C8H9O4+
169.0634	27	C12H9O+
169.0862	10	C9H13O3+
170.0691	12	C12H10O+
171.0788	229	C12H11O+
172.0822	38	C11[13]CH11O+
173.0949	128	C12H13O+
175.0749	33	C11H11O2+
175.1086	15	C12H15O+
177.0911	10	C11H13O2+
179.0693	46	C10H11O3+
179.0855	19	C14H11+
183.0791	39	C13H11O+
184.0846	10	C12[13]CH11O+
185.0575	25	C12H9O2+
185.0951	163	C13H13O+
186.0995	24	C12[13]CH13O+
187.0743	213	C12H11O2+
187.1105	79	C10H16FO2+
188.0761	33	C11[13]CH11O2+
188.1169	11	C9[13]CH16FO2+
189.0893	39	C12H13O2+
193.0843	22	C11H13O3+
195.0787	13	C14H11O+
195.1137	10	C15H15+
196.0857	10	C14H12O+
197.0946	72	C14H13O+
197.1319	45	C15H17+
198.0991	12	C13[13]CH13O+
199.0767	20	C10H12FO3+
199.1107	53	C14H15O+
201.0878	19	C13H13O2+
201.1269	21	C14H17O+
203.1057	13	C13H15O2+
205.0648	17	C15H9O+
207.0803	11	C15H11O+
207.1165	20	C16H15+
208.088	15	C15H12O+
209.0947	86	C15H13O+
209.1336	11	C13H18FO+
210.103	24	C15H14O+
211.0148	55	C16H3O+
211.1104	121	C15H15O+
212.0174	11	C15[13]CH3O+
212.1168	31	C14[13]CH15O+
213.0909	47	C14H13O2+
213.1264	518	C15H17O+
214.0922	9	C13[13]CH13O2+
214.1297	94	C14[13]CH17O+
215.106	30	C14H15O2+
215.1388	21	C15H19O+
221.0936	40	C16H13O+
221.1339	21	C14H18FO+
222.1043	19	C16H14O+
223.1107	279	C16H15O+
224.1156	95	C16H16O+
225.0305	24	C17H5O+
225.0897	21	C15H13O2+
225.1271	336	C16H17O+
226.1307	61	C15[13]CH17O+
227.1074	33	C12H16FO3+
227.1407	51	C16H19O+
228.1449	14	C15[13]CH19O+
233.093	15	C17H13O+
233.1296	16	C18H17+
234.1031	11	C17H14O+
235.1108	138	C17H15O+
235.1457	23	C18H19+
236.1156	40	C16[13]CH15O+
237.0914	22	C16H13O2+
237.1267	207	C17H17O+
238.1285	48	C16[13]CH17O+
239.1054	44	C16H15O2+
239.1424	111	C17H19O+
240.1477	27	C16[13]CH19O+
241.1209	99	C16H17O2+
241.1577	22	C17H21O+
242.1246	21	C15[13]CH17O2+
243.1162	14	C19H15+
243.1375	18	C16H19O2+
245.1296	12	C19H17+
246.1032	18	C18H14O+
247.1112	33	C18H15O+
247.149	32	C16H20FO+
248.1171	15	C18H16O+
249.1275	109	C18H17O+
250.1333	44	C18H18O+
251.1041	41	C17H15O2+
251.1419	179	C15H20FO2+
252.1083	13	C17H16O2+
252.149	33	C14[13]CH20FO2+
253.1219	99	C17H17O2+
253.1579	173	C18H21O+
254.1256	27	C16[13]CH17O2+
254.1626	38	C17[13]CH21O+
255.1371	45	C17H19O2+
257.129	27	C20H17+
258.1345	10	C19[13]CH17+
259.111	23	C19H15O+
259.1512	14	C17H20FO+
260.1184	37	C19H16O+
261.1271	193	C19H17O+
262.1316	61	C18[13]CH17O+
263.1095	21	C15H16FO3+
263.142	354	C19H19O+
264.1125	10	C18H16O2+
264.1461	82	C18[13]CH19O+
265.1199	54	C18H17O2+
265.1584	290	C19H21O+
266.1267	13	C17[13]CH17O2+
266.1613	51	C18[13]CH21O+
267.1372	124	C15H20FO3+
267.159	10	C15H23O4+
268.1427	32	C14[13]CH20FO3+
269.1172	27	C17H17O3+
269.1533	51	C18H21O2+
270.1555	11	C17[13]CH21O2+
271.17	10	C15H24FO3+
273.1269	25	C20H17O+
275.1425	453	C20H19O+
276.1456	128	C19[13]CH19O+
277.1231	93	C16H18FO3+
277.1555	39	C20H21O+
278.1296	56	C19H18O2+
279.1378	306	C19H19O2+
279.1718	15	C20H23O+
280.142	70	C18[13]CH19O2+
281.1528	211	C19H21O2+
282.1562	46	C18[13]CH21O2+
283.1483	23	C22H19+
283.1687	79	C19H23O2+
284.1726	24	C18[13]CH23O2+
285.1268	47	C21H17O+
286.1316	22	C21H18O+
288.114	20	C20H16O2+
289.121	13	C20H17O2+
291.1362	57	C20H19O2+
292.1419	21	C19[13]CH19O2+
293.1532	664	C20H21O2+
294.1554	172	C19[13]CH21O2+
295.1325	64	C19H19O3+
295.1527	44	C23H19+
296.1484	14	C22[13]CH19+
297.1479	59	C19H21O3+
298.1537	22	C19H22O3+
299.1447	16	C19H20FO2+
299.1666	25	C16H24FO4+
301.1569	11	C22H21O+
303.1379	362	C21H19O2+
304.1408	87	C20[13]CH19O2+
305.1442	24	C14H22FO6+
309.1475	36	C20H21O3+
311.1629	376	C20H23O3+
312.1663	92	C19[13]CH23O3+
313.1621	42	C20H22FO2+
314.1684	12	C19[13]CH22FO2+
319.1336	15	C18H20FO4+
321.1478	999	C21H21O3+
322.1506	236	C20[13]CH21O3+
323.1475	37	C17H23O6+
329.1768	10	C17H26FO5+
330.175	13	C24H23F+
335.1609	27	C22H23O3+
337.1449	15	C18H22FO5+
339.1584	706	C21H23O4+
340.1628	145	C20[13]CH23O4+
341.1595	61	C17H25O7+
342.1579	14	C24H22O2+
345.1453	26	C23H21O3+
345.1862	11	C21H26FO3+
353.1736	58	C19H26FO5+
354.1828	12	C18[13]CH26FO5+
357.1684	158	C21H25O5+
358.1722	44	C20[13]CH25O5+
359.1643	40	C24H23O3+
359.2074	12	C18H31O7+
360.1675	12	C23[13]CH23O3+
363.1568	93	C20H24FO5+
364.1651	13	C19[13]CH24FO5+
371.1844	10	C22H27O5+
377.1744	11	C24H25O4+
381.1685	193	C27H22FO+
382.1706	44	C26[13]CH22FO+
383.1761	11	C27H24FO+
387.1963	14	C23H28FO4+
399.1813	81	C27H24FO2+
400.18	23	C26[13]CH24FO2+
405.2053	14	C26H29O4+
423.2172	28	C23H32FO6+
424.2227	11	C26H32O5+
442.2312	10	C26H34O6+
449.1561	14	C26H25O7+
465.2285	127	C28H33O6+
466.2317	49	C27[13]CH33O6+
467.2377	11	C28H35O6+
483.2375	9	C28H35O7+
