Mass spectrum: Acebutolol; LC-ESI-QTOF; MS2; CE: 40 eV; R=35000; [M+H]+
Name: Acebutolol
Name: N-[3-acetyl-4-[2-hydroxy-3-(propan-2-ylamino)propoxy]phenyl]butanamide
Formula: C18H28N2O4
Exact mass: 336.2049074
SMILES: CCCC(=O)Nc1ccc(c(c1)C(=O)C)OCC(CNC(C)C)O
InChI: InChI=1S/C18H28N2O4/c1-5-6-18(23)20-14-7-8-17(16(9-14)13(4)21)24-11-15(22)10-19-12(2)3/h7-9,12,15,19,22H,5-6,10-11H2,1-4H3,(H,20,23)
Instrument: Bruker maXis Impact
Instrument type: LC-ESI-QTOF
Ms type: MS2
Ion mode: POSITIVE
Ionization: ESI
Fragmentation mode: CID
Collision energy: 40 eV
Resolution: 35000
Column name: Acclaim RSLC C18 2.2um, 2.1x100mm, Thermo
Retention time: 4.651 min
Base peak: 337.2135
Precursor m/z: 337.2122
Precursor type: [M+H]+
m/z	relative intensity	assigned
110.0591	11	C6H8NO+
115.0542	7	C9H7+
116.1064	410	C6H14NO+
117.0574	5	C8H7N+
117.1095	38	C5[13]CH14NO+
118.0642	15	C8H8N+
119.0725	9	C8H9N+
120.0799	188	C8H10N+
121.083	24	C7[13]CH10N+
122.0593	58	C7H8NO+
122.0956	15	C8H12N+
130.0638	67	C9H8N+
131.0484	19	C9H7O+
131.0695	7	C8[13]CH8N+
132.0793	27	C6H12O3+
133.0514	13	C8H7NO+
133.0633	6	C9H9O+
134.0592	61	C8H8NO+
134.0952	60	C9H12N+
135.0644	7	C7[13]CH8NO+
135.098	8	C8[13]CH12N+
136.038	8	C7H6NO2+
136.0747	62	C8H10NO+
137.0793	6	C7[13]CH10NO+
144.0794	52	C10H10N+
145.0639	9	C10H9O+
145.0842	6	C9[13]CH10N+
146.059	30	C9H8NO+
146.094	6	C7H14O3+
147.0667	13	C9H9NO+
148.0746	999	C6H12O4+
149.0579	7	C9H9O2+
149.0777	94	C5[13]CH12O4+
150.0539	34	C8H8NO2+
150.0902	139	C6H14O4+
151.0613	42	C8H9NO2+
151.0936	12	C5[13]CH14O4+
152.0696	91	C8H10NO2+
153.0738	7	C7[13]CH10NO2+
160.0744	259	C7H12O4+
161.0587	10	C10H9O2+
161.0778	29	C6[13]CH12O4+
162.09	74	C10H12NO+
163.0941	7	C9[13]CH12NO+
164.069	72	C9H10NO2+
165.0733	8	C8[13]CH10NO2+
172.0745	42	C11H10NO+
173.0588	6	C11H9O2+
173.0785	5	C10[13]CH10NO+
174.0901	7	C11H12NO+
178.0853	12	C10H12NO2+
180.101	698	C10H14NO2+
181.1038	77	C9[13]CH14NO2+
182.1068	5	C9H14N2O2+
190.0852	60	C11H12NO2+
190.1234	5	C12H16NO+
191.0884	9	C10[13]CH12NO2+
192.1005	47	C11H14NO2+
193.1059	5	C10[13]CH14NO2+
200.1063	12	C13H14NO+
202.1214	10	C13H16NO+
204.1013	30	C12H14NO2+
205.1062	5	C11[13]CH14NO2+
206.1168	64	C12H16NO2+
207.1207	9	C11[13]CH16NO2+
208.0958	6	C11H14NO3+
216.1013	36	C13H14NO2+
218.1168	645	C13H16NO2+
219.1198	98	C12[13]CH16NO2+
220.1323	69	C13H18NO2+
221.1365	9	C12[13]CH18NO2+
222.1116	307	C12H16NO3+
223.1145	39	C11[13]CH16NO3+
230.1165	107	C14H16NO2+
231.12	16	C13[13]CH16NO2+
232.1332	6	C14H18NO2+
234.1112	69	C13H16NO3+
235.1146	7	C12[13]CH16NO3+
242.1168	20	C15H16NO2+
248.1276	51	C14H18NO3+
249.1309	10	C13[13]CH18NO3+
253.155	8	C13H21N2O3+
260.1271	104	C15H18NO3+
261.1304	17	C14[13]CH18NO3+
278.1384	6	C15H20NO4+
319.1991	12	C18H27N2O3+
337.2119	17	C18H29N2O4+
