Mass spectrum: Allethrin; LC-ESI-QTOF; MS2; CE: 50 eV; R=35000; [M+H]+
Name: Allethrin
Name: (2-methyl-4-oxo-3-prop-2-enylcyclopent-2-en-1-yl) 2,2-dimethyl-3-(2-methylprop-1-enyl)cyclopropane-1-carboxylate
Formula: C19H26O3
Exact mass: 302.1881947
SMILES: CC(C)=CC1C(C(=O)OC2CC(=O)C(CC=C)=C2C)C1(C)C
InChI: InChI=1S/C19H26O3/c1-7-8-13-12(4)16(10-15(13)20)22-18(21)17-14(9-11(2)3)19(17,5)6/h7,9,14,16-17H,1,8,10H2,2-6H3
Instrument: Bruker maXis Impact
Instrument type: LC-ESI-QTOF
Ms type: MS2
Ion mode: POSITIVE
Ionization: ESI
Fragmentation mode: CID
Collision energy: 50 eV
Resolution: 35000
Column name: Acclaim RSLC C18 2.2um, 2.1x100mm, Thermo
Retention time: 12.400 min
Base peak: 356.2436
Precursor m/z: 303.1955
Precursor type: [M+H]+
m/z	relative intensity	assigned
115.0533	999	C9H7+
117.0683	157	C9H9+
120.0561	82	C8H8O+
123.1166	260	C9H15+
133.0644	67	C9H9O+
135.0789	676	C9H11O+
149.0218	97	C8H5O3+
151.1133	66	C10H15O+
