Mass spectrum: Vildagliptin; LC-ESI-QTOF; MS2; CE: 20 eV; R=35000; [M+H]+
Name: Vildagliptin
Name: (2S)-1-[2-[(3-hydroxy-1-adamantyl)amino]acetyl]pyrrolidine-2-carbonitrile
Formula: C17H25N3O2
Exact mass: 303.1946770
SMILES: C1C[C@H](N(C1)C(=O)CNC23CC4CC(C2)CC(C4)(C3)O)C#N
InChI: InChI=1S/C17H25N3O2/c18-9-14-2-1-3-20(14)15(21)10-19-16-5-12-4-13(6-16)8-17(22,7-12)11-16/h12-14,19,22H,1-8,10-11H2/t12?,13?,14-,16?,17?/m0/s1
Instrument: Bruker maXis Impact
Instrument type: LC-ESI-QTOF
Ms type: MS2
Ion mode: POSITIVE
Ionization: ESI
Fragmentation mode: CID
Collision energy: 20 eV
Resolution: 35000
Column name: Acclaim RSLC C18 2.2um, 2.1x100mm, Thermo
Retention time: 3.315 min
Base peak: 304.2046
Precursor m/z: 304.202
Precursor type: [M+H]+
m/z	relative intensity	assigned
127.0871	8	C6H11N2O+
133.1016	8	C10H13+
151.1124	156	C10H15O+
152.1157	16	C9[13]CH15O+
154.0984	999	C9H14O2+
155.1014	64	C8[13]CH14O2+
304.2048	310	C17H26N3O2+
305.2074	56	C16[13]CH26N3O2+
306.2097	5	C15[13]C2H26N3O2+
