Mass spectrum: Promethazin; LC-ESI-QTOF; MS2; CE: Ramp 21.1-31.6 eV; R=35000; [M+H]+
Name: Promethazin
Name: Promethazine
Name: N,N-dimethyl-1-phenothiazin-10-ylpropan-2-amine
Formula: C17H20N2S
Exact mass: 284.1347196
SMILES: CC(CN1C2=CC=CC=C2SC2=CC=CC=C12)N(C)C
InChI: InChI=1S/C17H20N2S/c1-13(18(2)3)12-19-14-8-4-6-10-16(14)20-17-11-7-5-9-15(17)19/h4-11,13H,12H2,1-3H3
Instrument: Bruker maXis Impact
Instrument type: LC-ESI-QTOF
Ms type: MS2
Ion mode: POSITIVE
Ionization: ESI
Fragmentation mode: CID
Collision energy: Ramp 21.1-31.6 eV
Resolution: 35000
Column name: Acclaim RSLC C18 2.2um, 2.1x100mm, Thermo
Retention time: 7.322 min
Base peak: 285.1415
Precursor m/z: 285.142
Precursor type: [M+H]+
m/z	relative intensity	assigned
56.0489	10	C3H6N+
58.0643	5	C3H8N+
71.0725	59	C4H9N+
84.0805	7	C5H10N+
86.0964	999	C5H12N+
87.0997	50	C4[13]CH12N+
162.0355	22	C12H4N+
198.0364	635	C12H8NS+
199.039	122	C11[13]CH8NS+
200.032	24	C12H8N[34]S+
206.095	7	C15H12N+
207.1026	13	C15H13N+
225.0591	25	C14H11NS+
240.0833	214	C15H14NS+
241.086	30	C14[13]CH14NS+
242.0807	7	C15H14N[34]S+
285.1412	28	C17H21N2S+
