Mass spectrum: Vardenafil; LC-ESI-QTOF; MS2; CE: 20 eV; R=35000; [M-H]-
Name: Vardenafil
Name: 2-[2-ethoxy-5-(4-ethylpiperazin-1-yl)sulfonylphenyl]-5-methyl-7-propyl-1H-imidazo[5,1-f][1,2,4]triazin-4-one
Formula: C23H32N6O4S
Exact mass: 488.2205745
SMILES: CCCC1=NC(C)=C2N1NC(=NC2=O)C1=C(OCC)C=CC(=C1)S(=O)(=O)N1CCN(CC)CC1
InChI: InChI=1S/C23H32N6O4S/c1-5-8-20-24-16(4)21-23(30)25-22(26-29(20)21)18-15-17(9-10-19(18)33-7-3)34(31,32)28-13-11-27(6-2)12-14-28/h9-10,15H,5-8,11-14H2,1-4H3,(H,25,26,30)
Instrument: Bruker maXis Impact
Instrument type: LC-ESI-QTOF
Ms type: MS2
Ion mode: NEGATIVE
Ionization: ESI
Fragmentation mode: CID
Collision energy: 20 eV
Resolution: 35000
Column name: Acclaim RSLC C18 2.2um, 2.1x100mm, Thermo
Retention time: 9.896 min
Base peak: 487.2108
Precursor m/z: 487.2133
Precursor type: [M-H]-
m/z	relative intensity	assigned
225.031	48	C12H5N2O3-
350.1195	55	C19H18N4OS-
364.132	68	C15H20N6O3S-
459.1798	283	C21H27N6O4S-
460.18	64	C20[13]CH27N6O4S-
460.1936	72	C20[13]CH27N6O4S-
487.2125	999	C23H31N6O4S-
488.2163	199	C22[13]CH31N6O4S-
