Mass spectrum: Thiabendazole; LC-ESI-QTOF; MS2; CE: 10 eV; R=35000; [M+H]+
Name: Thiabendazole
Name: 4-(1H-benzimidazol-2-yl)-1,3-thiazole
Formula: C10H7N3S
Exact mass: 201.0360682
SMILES: N1C2=CC=CC=C2N=C1C1=CSC=N1
InChI: InChI=1S/C10H7N3S/c1-2-4-8-7(3-1)12-10(13-8)9-5-14-6-11-9/h1-6H,(H,12,13)
Instrument: Bruker maXis Impact
Instrument type: LC-ESI-QTOF
Ms type: MS2
Ion mode: POSITIVE
Ionization: ESI
Fragmentation mode: CID
Collision energy: 10 eV
Resolution: 35000
Column name: Acclaim RSLC C18 2.2um, 2.1x100mm, Thermo
Retention time: 6.090 min
Base peak: 202.0426
Precursor m/z: 202.0433
Precursor type: [M+H]+
m/z	relative intensity	assigned
175.0308	6	C9H7N2S+
202.0431	999	C10H8N3S+
203.0456	130	C9[13]CH8N3S+
204.0386	40	C10H8N3[34]S+
