Mass spectrum: Atazanavir; LC-ESI-QTOF; MS2; CE: 50 eV; R=35000; [M+Na]+
Name: Atazanavir
Name: methyl N-[(2S)-1-[2-[(2S,3S)-2-hydroxy-3-[[(2S)-2-(methoxycarbonylamino)-3,3-dimethylbutanoyl]amino]-4-phenylbutyl]-2-[(4-pyridin-2-ylphenyl)methyl]hydrazinyl]-3,3-dimethyl-1-oxobutan-2-yl]carbamate
Formula: C38H52N6O7
Exact mass: 704.3897480
SMILES: CC(C)(C)[C@@H](C(=O)N[C@@H](Cc1ccccc1)[C@H](CN(Cc2ccc(cc2)c3ccccn3)NC(=O)[C@H](C(C)(C)C)NC(=O)OC)O)NC(=O)OC
InChI: InChI=1S/C38H52N6O7/c1-37(2,3)31(41-35(48)50-7)33(46)40-29(22-25-14-10-9-11-15-25)30(45)24-44(43-34(47)32(38(4,5)6)42-36(49)51-8)23-26-17-19-27(20-18-26)28-16-12-13-21-39-28/h9-21,29-32,45H,22-24H2,1-8H3,(H,40,46)(H,41,48)(H,42,49)(H,43,47)/t29-,30-,31+,32+/m0/s1
Instrument: Bruker maXis Impact
Instrument type: LC-ESI-QTOF
Ms type: MS2
Ion mode: POSITIVE
Ionization: ESI
Fragmentation mode: CID
Collision energy: 50 eV
Resolution: 35000
Column name: Acclaim RSLC C18 2.2um, 2.1x100mm, Thermo
Retention time: 10.808 min
Base peak: 705.4012
Precursor m/z: 727.379
Precursor type: [M+Na]+
m/z	relative intensity	assigned
152.0705	18	C8H10NO2+
167.0924	20	C7H11N4O+
211.1064	233	C8H13N5O2+
212.1107	22	C5H19NNaO6+
237.1227	22	C10H15N5O2+
238.1178	291	C11H19NaO4+
239.1234	28	C10[13]CH19NaO4+
253.1173	614	C11H14N6Na+
254.1202	69	C10[13]CH14N6Na+
268.1288	59	C12H18N3O4+
313.1551	18	C19H20N3Na+
314.1611	53	C16H20N5O2+
329.151	28	C19H17N6+
343.1654	999	C20H22N3NaO+
344.1675	260	C14H27NNaO7+
345.1738	39	C13[13]CH27NNaO7+
357.1809	36	C20H25N2O4+
358.1828	20	C13H27N4NaO6+
372.1906	106	C20H29NaO5+
415.2021	20	C27H26N3Na+
509.2617	67	C27H38N2NaO6+
510.2564	40	C24H35N6NaO5+
523.271	29	C33H34N5Na+
541.2832	543	C35H35N5O+
542.2874	194	C32H41NNaO5+
543.2986	26	C31[13]CH41NNaO5+
695.3694	26	C38H50N5NaO6+
727.3844	211	C38H52N6NaO7+
728.3847	100	C37[13]CH52N6NaO7+
