Mass spectrum: Linuron; LC-ESI-QTOF; MS2; CE: 30 eV; R=35000; [M+H]+
Name: Linuron
Name: 3-(3,4-dichlorophenyl)-1-methoxy-1-methylurea
Formula: C9H10Cl2N2O2
Exact mass: 248.0119329
SMILES: CON(C)C(=O)NC1=CC=C(Cl)C(Cl)=C1
InChI: InChI=1S/C9H10Cl2N2O2/c1-13(15-2)9(14)12-6-3-4-7(10)8(11)5-6/h3-5H,1-2H3,(H,12,14)
Instrument: Bruker maXis Impact
Instrument type: LC-ESI-QTOF
Ms type: MS2
Ion mode: POSITIVE
Ionization: ESI
Fragmentation mode: CID
Collision energy: 30 eV
Resolution: 35000
Column name: Acclaim RSLC C18 2.2um, 2.1x100mm, Thermo
Retention time: 9.329 min
Base peak: 249.0186
Precursor m/z: 249.0192
Precursor type: [M+H]+
m/z	relative intensity	assigned
123.9937	45	C6H3ClN+
125.0015	212	C6H4ClN+
125.9906	11	C6H3[37]ClN+
126.0062	16	C5[13]CH4ClN+
126.9986	46	C6H4[37]ClN+
127.0165	7	Cl2H11NO2+
132.9594	468	C5H3Cl2+
133.9627	24	C4[13]CH3Cl2+
134.9565	281	C5H3Cl[37]Cl+
135.9614	9	C3H2Cl2N2+
140.0244	5	C7H7ClN+
142.0041	6	C9H2O2+
147.054	7	C8H7N2O+
153.0202	216	C7H6ClN2+
154.0253	23	C6[13]CH6ClN2+
155.0169	51	C7H6[37]ClN2+
159.9703	999	C6H4Cl2N+
160.9779	609	C6H5Cl2N+
161.9672	592	C6H4Cl[37]ClN+
162.9749	349	C6H5Cl[37]ClN+
163.9785	14	C6H6Cl2O+
165.0196	24	C8H6ClN2+
166.9991	10	C7H4ClN2O+
167.0175	6	C8H6[37]ClN2+
173.9851	6	C7H6Cl2N+
174.9928	7	C7H7Cl2N+
181.015	150	C8H6ClN2O+
182.023	603	C8H7ClN2O+
183.0128	36	C8H6[37]ClN2O+
183.0253	51	C7[13]CH7ClN2O+
184.0199	141	C8H7[37]ClN2O+
185.0223	8	C8H8ClNO2+
216.9921	77	C8H7Cl2N2O+
217.9956	8	C7[13]CH7Cl2N2O+
218.9891	48	C8H7Cl[37]ClN2O+
