Mass spectrum: Losartan; LC-ESI-QTOF; MS2; CE: 10 eV; R=35000; [M+H]+
Name: Losartan
Name: [2-butyl-5-chloro-3-[[4-[2-(2H-tetrazol-5-yl)phenyl]phenyl]methyl]imidazol-4-yl]methanol
Formula: C22H23ClN6O
Exact mass: 422.1621870
SMILES: CCCCc1nc(c(n1Cc2ccc(cc2)c3ccccc3c4[nH]nnn4)CO)Cl
InChI: InChI=1S/C22H23ClN6O/c1-2-3-8-20-24-21(23)19(14-30)29(20)13-15-9-11-16(12-10-15)17-6-4-5-7-18(17)22-25-27-28-26-22/h4-7,9-12,30H,2-3,8,13-14H2,1H3,(H,25,26,27,28)
Instrument: Bruker maXis Impact
Instrument type: LC-ESI-QTOF
Ms type: MS2
Ion mode: POSITIVE
Ionization: ESI
Fragmentation mode: CID
Collision energy: 10 eV
Resolution: 35000
Column name: Acclaim RSLC C18 2.2um, 2.1x100mm, Thermo
Retention time: 8.473 min
Base peak: 423.1692
Precursor m/z: 423.1695
Precursor type: [M+H]+
m/z	relative intensity	assigned
171.0672	5	C9H7N4+
192.0801	6	C14H10N+
207.0903	87	C14H11N2+
208.0946	9	C13[13]CH11N2+
235.0981	10	C14H11N4+
341.1752	6	C22H21N4+
377.1525	55	C22H22ClN4+
378.1554	14	C21[13]CH22ClN4+
379.1482	17	C22H22[37]ClN4+
405.1583	445	C22H22ClN6+
406.1615	113	C21[13]CH22ClN6+
407.1558	130	C22H22[37]ClN6+
408.1578	25	C22H23ClN5O+
423.1691	999	C22H24ClN6O+
424.1718	247	C21[13]CH24ClN6O+
425.1669	247	C22H24[37]ClN6O+
