Mass spectrum: Biphenyl; GC-APCI-QTOF; MS2; CE: 20 eV; R=35000; [M]+
Name: Biphenyl
Formula: C12H10
Exact mass: 154.0783
SMILES: C1=CC=C(C=C1)C2=CC=CC=C2
InChI: InChI=1S/C12H10/c1-3-7-11(8-4-1)12-9-5-2-6-10-12/h1-10H
Instrument: Bruker 450 GC coupled to maXis Impact
Instrument type: GC-APCI-QTOF
Ms type: MS2
Ion mode: POSITIVE
Ionization: APCI
Fragmentation mode: CID
Collision energy: 20 eV
Resolution: 35000
Column name: Rxi-5Sil MS column, 30m, 0.25mm i.d., 0.25Âµm film thickness, Restek
Retention time: 11.392 min
Base peak: 154.08
Precursor m/z: 154.0777
Precursor type: [M]+
m/z	relative intensity	assigned
115.0535	9	C9H7+
128.0616	30	C10H8+
129.0687	21	C10H9+
152.0643	62	C12H8+
153.0719	557	C12H9+
154.0795	999	C12H10+
