Mass spectrum: Benzidine; LC-ESI-QTOF; MS2; CE: 50 eV; R=35000; [M+H]+
Name: Benzidine
Name: 4-(4-aminophenyl)aniline
Formula: C12H12N2
Exact mass: 184.1000484
SMILES: NC1=CC=C(C=C1)C1=CC=C(N)C=C1
InChI: InChI=1S/C12H12N2/c13-11-5-1-9(2-6-11)10-3-7-12(14)8-4-10/h1-8H,13-14H2
Instrument: Bruker maXis Impact
Instrument type: LC-ESI-QTOF
Ms type: MS2
Ion mode: POSITIVE
Ionization: ESI
Fragmentation mode: CID
Collision energy: 50 eV
Resolution: 35000
Column name: Acclaim RSLC C18 2.2um, 2.1x100mm, Thermo
Retention time: 3.958 min
Base peak: 199.0969
Precursor m/z: 185.1073
Precursor type: [M+H]+
m/z	relative intensity	assigned
113.0388	7	C9H5+
114.0459	10	C9H6+
115.0532	206	C9H7+
116.0489	19	C8H6N+
116.0567	32	C8[13]CH7+
117.0567	61	C8H7N+
118.0611	10	C7[13]CH7N+
125.0376	37	C10H5+
126.0448	66	C10H6+
127.0403	9	C9H5N+
127.0523	51	C10H7+
128.05	41	C9H6N+
128.0606	202	C10H8+
129.0679	82	C10H9+
130.0638	255	C9H8N+
131.0671	23	C8[13]CH8N+
132.0802	6	C9H10N+
137.0378	7	C11H5+
138.0449	12	C11H6+
139.0527	999	C11H7+
140.0487	314	C10H6N+
141.0559	131	C10H7N+
141.0673	93	C11H9+
142.0632	43	C10H8N+
143.0574	12	C9H7N2+
143.0715	54	C10H9N+
144.0753	7	C9[13]CH9N+
149.0376	7	C12H5+
150.0451	289	C12H6+
151.0511	91	C12H7+
152.0604	138	C12H8+
153.0567	71	C11H7N+
154.0636	134	C11H8N+
155.0598	74	C10H7N2+
156.0792	377	C11H10N+
157.0815	58	C10[13]CH10N+
158.0823	17	C10H10N2+
164.0478	17	C12H6N+
165.0558	35	C12H7N+
166.0638	713	C12H8N+
167.071	874	C12H9N+
168.0744	153	C11[13]CH9N+
179.0589	59	C12H7N2+
180.0609	13	C11[13]CH7N2+
181.0745	112	C12H9N2+
182.0823	180	C12H10N2+
183.0895	109	C12H11N2+
184.0976	58	C12H12N2+
185.1025	8	C11[13]CH12N2+
