Mass spectrum: Iohexol; LC-ESI-QTOF; MS2; CE: 20 eV; R=35000; [M+H]+
Name: Iohexol
Name: 5-[acetyl(2,3-dihydroxypropyl)amino]-1-N,3-N-bis(2,3-dihydroxypropyl)-2,4,6-triiodobenzene-1,3-dicarboxamide
Formula: C19H26I3N3O9
Exact mass: 820.8803234
SMILES: CC(=O)N(CC(O)CO)C1=C(I)C(C(=O)NCC(O)CO)=C(I)C(C(=O)NCC(O)CO)=C1I
InChI: InChI=1S/C19H26I3N3O9/c1-8(29)25(4-11(32)7-28)17-15(21)12(18(33)23-2-9(30)5-26)14(20)13(16(17)22)19(34)24-3-10(31)6-27/h9-11,26-28,30-32H,2-7H2,1H3,(H,23,33)(H,24,34)
Instrument: Bruker maXis Impact
Instrument type: LC-ESI-QTOF
Ms type: MS2
Ion mode: POSITIVE
Ionization: ESI
Fragmentation mode: CID
Collision energy: 20 eV
Resolution: 35000
Column name: Acclaim RSLC C18 2.2um, 2.1x100mm, Thermo
Retention time: 2.725 min
Base peak: 268.1219
Precursor m/z: 821.8876
Precursor type: [M+H]+
m/z	relative intensity	assigned
821.878	999	C19H27I3N3O9+
821.8989	903	C19H27I3N3O9+
