Mass spectrum: Bicalutamide; LC-ESI-QTOF; MS2; CE: 40 eV; R=35000; [M-H]-
Name: Bicalutamide
Name: N-[4-cyano-3-(trifluoromethyl)phenyl]-3-(4-fluorophenyl)sulfonyl-2-hydroxy-2-methylpropanamide
Formula: C18H14F4N2O4S
Exact mass: 430.0610408
SMILES: CC(O)(CS(=O)(=O)C1=CC=C(F)C=C1)C(=O)NC1=CC(=C(C=C1)C#N)C(F)(F)F
InChI: InChI=1S/C18H14F4N2O4S/c1-17(26,10-29(27,28)14-6-3-12(19)4-7-14)16(25)24-13-5-2-11(9-23)15(8-13)18(20,21)22/h2-8,26H,10H2,1H3,(H,24,25)
Instrument: Bruker maXis Impact
Instrument type: LC-ESI-QTOF
Ms type: MS2
Ion mode: NEGATIVE
Ionization: ESI
Fragmentation mode: CID
Collision energy: 40 eV
Resolution: 35000
Column name: Acclaim RSLC C18 2.2um, 2.1x100mm, Thermo
Retention time: 8.595 min
Base peak: 429.0536
Precursor m/z: 429.0538
Precursor type: [M-H]-
m/z	relative intensity	assigned
158.9921	16	C6H4FO2S-
173.0076	29	C7H6FO2S-
184.0382	109	C9H5F3N-
185.0339	999	C8H4F3N2-
186.0361	46	C7[13]CH4F3N2-
227.0437	7	C10H6F3N2O-
255.0388	121	C8H11F2NO4S-
256.041	11	C7[13]CH11F2NO4S-
