Mass spectrum: Ranitidine; LC-ESI-QTOF; MS2; CE: Ramp 21.9-32.9 eV; R=35000; [M+H]+
Name: Ranitidine
Name: 1-N'-[2-[[5-[(dimethylamino)methyl]furan-2-yl]methylsulfanyl]ethyl]-1-N-methyl-2-nitroethene-1,1-diamine
Formula: C13H22N4O3S
Exact mass: 314.1413
SMILES: CNC(=C[N+](=O)[O-])NCCSCc1ccc(o1)CN(C)C
InChI: InChI=1S/C13H22N4O3S/c1-14-13(9-17(18)19)15-6-7-21-10-12-5-4-11(20-12)8-16(2)3/h4-5,9,14-15H,6-8,10H2,1-3H3
Instrument: Bruker maXis Impact
Instrument type: LC-ESI-QTOF
Ms type: MS2
Ion mode: POSITIVE
Ionization: ESI
Fragmentation mode: CID
Collision energy: Ramp 21.9-32.9 eV
Resolution: 35000
Column name: Acclaim RSLC C18 2.2um, 2.1x100mm, Thermo
Retention time: 3.3 min
Base peak: 315.1506
Precursor m/z: 315.1485
Precursor type: [M+H]+
m/z	relative intensity	assigned
55.0408	6	C3H5N+
56.0488	9	C3H6N+
71.0596	9	C3H7N2+
81.033	83	C5H5O+
83.0599	15	C4H7N2+
84.0675	25	C4H8N2+
85.0755	9	C4H9N2+
88.0211	51	C3H6NS+
95.0491	38	C6H7O+
97.0762	97	C5H9N2+
98.0842	451	C5H10N2+
99.0877	19	H11N4O2+
101.0306	9	C4H7NS+
102.0379	326	C4H8NS+
103.0408	10	C7H5N+
104.0337	8	C3H6NO3+
107.0502	10	C2H9N3S+
110.061	9	C6H8NO+
110.0978	36	C7H12N+
113.0718	7	C5H9N2O+
114.0797	11	C5H10N2O+
115.0331	6	C4H7N2S+
117.0483	19	C4H9N2S+
118.0326	12	C4H8NOS+
121.076	13	C7H9N2+
124.0761	106	C7H10NO+
125.0061	414	C6H5OS+
126.0092	27	CH6N2O3S+
127.0016	15	C3HN3O3+
129.0482	15	C5H9N2S+
130.0563	447	C5H10N2S+
131.0593	25	H11N4O2S+
132.0515	16	C4H8N2O3+
133.0525	5	C8H7NO+
135.0268	5	C8H7S+
135.0919	27	C8H11N2+
138.0917	32	C8H12NO+
144.077	70	C5H10N3O2+
145.0428	8	C5H9N2OS+
147.0226	5	C12H3+
147.068	5	C9H9NO+
148.0758	48	C9H10NO+
149.0715	9	C8H9N2O+
153.037	39	C8H9OS+
154.0558	6	C7H10N2S+
163.0865	19	C9H11N2O+
164.0945	33	C9H12N2O+
165.1024	80	C9H13N2O+
166.1052	6	C4H14N4O3+
167.0637	34	C8H11N2S+
170.0636	57	C8H12NOS+
171.0671	5	C3H13N3O3S+
176.0494	999	C13H6N+
177.0514	52	C8H7N3O2+
177.1022	60	C10H13N2O+
178.0329	9	C11H4N3+
178.0449	33	C11H4N3+
178.1097	22	C10H14N2O+
181.0797	64	C9H13N2S+
182.0826	5	C4H14N4O2S+
191.1186	136	C11H15N2O+
192.0482	20	C10H10NOS+
192.1217	13	C6H16N4O3+
193.0559	46	C10H11NOS+
194.0614	9	C8H10N4S+
195.0715	7	C10H13NOS+
209.0754	5	C10H13N2OS+
223.0912	9	C11H15N2OS+
224.099	199	C11H16N2OS+
225.1016	24	C6H17N4O3S+
226.0955	6	C13H12N3O+
270.0921	67	C11H16N3O3S+
271.0946	10	C11H17N3O3S+
315.1504	41	C13H23N4O3S+
316.1531	5	C12H22N5O3S+
