Mass spectrum: Vinyl laurate; GC-APCI-QTOF; MS2; CE: 10 eV; R=35000; [M]+
Name: Vinyl laurate
Formula: C14H26O2
Exact mass: 226.1933
SMILES: CCCCCCCCCCCC(=O)OC=C
InChI: InChI=1S/C14H26O2/c1-3-5-6-7-8-9-10-11-12-13-14(15)16-4-2/h4H,2-3,5-13H2,1H3
Instrument: Bruker 450 GC coupled to maXis Impact
Instrument type: GC-APCI-QTOF
Ms type: MS2
Ion mode: POSITIVE
Ionization: APCI
Fragmentation mode: CID
Collision energy: 10 eV
Resolution: 35000
Column name: Rxi-5Sil MS column, 30m, 0.25mm i.d., 0.25Âµm film thickness, Restek
Retention time: 19.344 min
Base peak: 228.1955
Precursor m/z: 226.1927
Precursor type: [M]+
m/z	relative intensity	assigned
119.0848	50	C9H11+
123.1165	53	C9H15+
129.0911	158	C7H13O2+
133.103	81	C10H13+
135.1177	101	C10H15+
137.0974	93	C9H13O+
141.0912	84	C8H13O2+
147.1182	92	C11H15+
149.1343	56	C11H17+
151.1139	78	C10H15O+
155.1101	39	C9H15O2+
157.1245	46	C9H17O2+
163.1516	113	C12H19+
169.1223	39	C10H17O2+
171.1417	47	C10H19O2+
173.1365	84	C13H17+
175.1511	999	C13H19+
176.1543	75	C13H20+
181.1622	44	C12H21O+
185.1549	115	C11H21O2+
191.1441	47	C13H19O+
191.1789	52	C14H23+
193.1609	622	C13H21O+
193.1928	38	C14H25+
194.1697	53	C13H22O+
197.1944	50	C13H25O+
199.1731	43	C12H23O2+
207.1378	47	C13H19O2+
207.1755	55	C14H23O+
209.1557	90	C13H21O2+
209.1951	75	C14H25O+
211.169	485	C13H23O2+
