Mass spectrum: Phenylbutazone; LC-ESI-QTOF; MS2; CE: 20 eV; R=35000; [M+H]+
Name: Phenylbutazone
Name: 4-butyl-1,2-diphenylpyrazolidine-3,5-dione
Formula: C19H20N2O2
Exact mass: 308.1524779
SMILES: CCCCC1C(=O)N(N(C1=O)c2ccccc2)c3ccccc3
InChI: InChI=1S/C19H20N2O2/c1-2-3-14-17-18(22)20(15-10-6-4-7-11-15)21(19(17)23)16-12-8-5-9-13-16/h4-13,17H,2-3,14H2,1H3
Instrument: Bruker maXis Impact
Instrument type: LC-ESI-QTOF
Ms type: MS2
Ion mode: POSITIVE
Ionization: ESI
Fragmentation mode: CID
Collision energy: 20 eV
Resolution: 35000
Column name: Acclaim RSLC C18 2.2um, 2.1x100mm, Thermo
Retention time: 3.6 min
Base peak: 309.1721
Precursor m/z: 309.1598
Precursor type: [M+H]+
m/z	relative intensity	assigned
171.0885	114	C11H11N2+
294.1489	999	C19H20NO2+
295.1542	138	C18[13]CH20NO2+
307.1573	274	C18H19N4O+
