Mass spectrum: Methyl salicylate; GC-APCI-QTOF; MS2; CE: 30 eV; R=35000; [M+H]+
Name: Methyl salicylate
Formula: C8H8O3
Exact mass: 152.0473
SMILES: COC(=O)C1=CC=CC=C1O
InChI: InChI=1S/C8H8O3/c1-11-8(10)6-4-2-3-5-7(6)9/h2-5,9H,1H3
Instrument: Bruker 450 GC coupled to maXis Impact
Instrument type: GC-APCI-QTOF
Ms type: MS2
Ion mode: POSITIVE
Ionization: APCI
Fragmentation mode: CID
Collision energy: 30 eV
Resolution: 35000
Column name: Rxi-5Sil MS column, 30m, 0.25mm i.d., 0.25Âµm film thickness, Restek
Retention time: 9.584 min
Base peak: 153.0561
Precursor m/z: 153.0546
Precursor type: [M+H]+
m/z	relative intensity	assigned
54.0472	11	C4H6+
63.0232	61	C5H3+
64.031	80	C5H4+
65.0386	484	C5H5+
81.033	6	C5H5O+
92.0245	999	C6H4O+
111.0435	23	C6H7O2+
120.0203	8	C7H4O2+
121.0274	258	C7H5O2+
138.0321	30	C7H6O3+
