Mass spectrum: Triethylcitrate; LC-ESI-QTOF; MS2; CE: Ramp 20-30 eV; R=35000; [M+H]+
Name: Triethylcitrate
Name: Triethyl citrate
Name: triethyl 2-hydroxypropane-1,2,3-tricarboxylate
Formula: C12H20O7
Exact mass: 276.1209030
SMILES: CCOC(=O)CC(O)(CC(=O)OCC)C(=O)OCC
InChI: InChI=1S/C12H20O7/c1-4-17-9(13)7-12(16,11(15)19-6-3)8-10(14)18-5-2/h16H,4-8H2,1-3H3
Instrument: Bruker maXis Impact
Instrument type: LC-ESI-QTOF
Ms type: MS2
Ion mode: POSITIVE
Ionization: ESI
Fragmentation mode: CID
Collision energy: Ramp 20-30 eV
Resolution: 35000
Column name: Acclaim RSLC C18 2.2um, 2.1x100mm, Thermo
Retention time: 6.937 min
Base peak: 277.1283
Precursor m/z: 277.1282
Precursor type: [M+H]+
m/z	relative intensity	assigned
68.9963	5	C3HO2+
105.0182	6	C3H5O4+
115.039	6	C5H7O3+
129.0177	91	C5H5O4+
133.0491	235	C5H9O4+
134.0525	12	C4[13]CH9O4+
139.0019	90	C6H3O4+
140.0042	5	C5[13]CH3O4+
157.0129	55	C6H5O5+
157.0486	999	C7H9O4+
158.0518	82	C6[13]CH9O4+
159.0529	10	C7H9O3[18]O+
167.033	10	C8H7O4+
185.0432	30	C8H9O5+
189.0748	8	C8H13O5+
203.0885	11	C9H15O5+
213.0752	9	C10H13O5+
