Mass spectrum: Indoxacarb; LC-ESI-QTOF; MS2; CE: 30 eV; R=35000; [M+H]+
Name: Indoxacarb
Name: methyl (4aS)-7-chloro-2-[methoxycarbonyl-[4-(trifluoromethoxy)phenyl]carbamoyl]-3,5-dihydroindeno[1,2-e][1,3,4]oxadiazine-4a-carboxylate
Formula: C22H17ClF3N3O7
Exact mass: 527.0707122
SMILES: COC(=O)N(C(=O)N1CO[C@]2(CC3=CC(Cl)=CC=C3C2=N1)C(=O)OC)C1=CC=C(OC(F)(F)F)C=C1
InChI: InChI=1S/C22H17ClF3N3O7/c1-33-18(30)21-10-12-9-13(23)3-8-16(12)17(21)27-28(11-35-21)19(31)29(20(32)34-2)14-4-6-15(7-5-14)36-22(24,25)26/h3-9H,10-11H2,1-2H3/t21-/m0/s1
Instrument: Bruker maXis Impact
Instrument type: LC-ESI-QTOF
Ms type: MS2
Ion mode: POSITIVE
Ionization: ESI
Fragmentation mode: CID
Collision energy: 30 eV
Resolution: 35000
Column name: Acclaim RSLC C18 2.2um, 2.1x100mm, Thermo
Retention time: 11.588 min
Base peak: 528.0775
Precursor m/z: 528.078
Precursor type: [M+H]+
m/z	relative intensity	assigned
132.0439	13	C8H6NO+
150.0092	276	C8H5ClN+
151.0125	29	C7[13]CH5ClN+
152.006	70	C8H5[37]ClN+
155.0588	10	C4H10FNO4+
160.0488	19	C2H9FN2O5+
162.0095	30	C3H8ClFO4+
163.0293	13	C2H8ClF2N3O+
164.0067	8	C3H8[37]ClFO4+
164.0255	10	C7H3FN3O+
165.0292	6	C2H8[37]ClF2N3O+
167.0247	8	C7H6ClN3+
168.0197	170	C8H7ClNO+
169.023	19	C7[13]CH7ClNO+
170.0166	46	C8H7[37]ClNO+
177.0314	5	C7H10ClO3+
178.004	13	C3H8ClFO5+
179.0261	17	C5H5F2N2O3+
180.001	6	C3H8[37]ClFO5+
180.0195	16	C3H10ClFO5+
189.0199	52	C8H6ClF2N+
190.004	233	C10H5ClNO+
190.0462	29	C11H6F2N+
191.0091	22	C8H6[37]ClF2N+
192.0012	66	C10H5[37]ClNO+
192.0211	7	C10H7ClNO+
194.0341	5	C7H11ClO4+
195.0196	21	C8H7ClF3+
196.0153	19	C3H10ClFO6+
197.0157	7	C8H7[37]ClF3+
198.0121	6	C3H10[37]ClFO6+
203.0179	395	C5H6F3O5+
204.009	14	C10H3FNO3+
204.0201	33	C4[13]CH6F3O5+
206.0355	8	F3H9N2O7+
207.0213	31	C9H6ClN3O+
208.0158	18	C10H7ClNO2+
209.0175	10	C9H6[37]ClN3O+
210.0134	7	C10H7[37]ClNO2+
214.0722	23	C6H13FNO6+
215.0408	12	C3H11ClF3N2O3+
216.0261	5	C9H7ClF2N2+
217.0147	138	C5H9ClFNO5+
218.0412	999	C6H11ClF2NO3+
219.0122	38	C5H9[37]ClFNO5+
219.0323	67	C11H8ClN2O+
219.0429	82	C5[13]CH11ClF2NO3+
220.034	11	C10[13]CH8ClN2O+
221.0267	23	C11H8[37]ClN2O+
221.0466	12	F3H10N3O7+
222.0303	7	C5H12ClFO6+
223.0142	118	C11H8ClO3+
224.0181	21	C10[13]CH8ClO3+
225.012	32	C11H8[37]ClO3+
225.0286	13	C3H11ClFN2O6+
230.9944	26	C5H7ClFNO6+
232.9921	9	C5H7[37]ClFNO6+
235.0252	17	C5H11ClFNO6+
249.0414	195	C10H9ClF3N2+
250.0452	26	C9[13]CH9ClF3N2+
251.0386	57	C10H9[37]ClF3N2+
263.0211	86	C10H7ClF3N2O+
264.0237	15	C9[13]CH7ClF3N2O+
265.0184	26	C10H7[37]ClF3N2O+
265.0336	16	C16H5F2NO+
267.0548	5	C9H11F2NO6+
293.032	40	C13H10ClN2O4+
294.0367	5	C12[13]CH10ClN2O4+
295.029	8	C13H10[37]ClN2O4+
422.0486	5	C16H14ClF3N2O6+
454.0737	5	C20H17ClF2N2O6+
