Mass spectrum: Clobetasol; LC-ESI-QTOF; MS2; CE: 40 eV; R=35000; [M+H]+
Name: Clobetasol
Name: (8S,9R,10S,11S,13S,14S,16S,17R)-17-(2-chloroacetyl)-9-fluoro-11,17-dihydroxy-10,13,16-trimethyl-6,7,8,11,12,14,15,16-octahydrocyclopenta[a]phenanthren-3-one
Formula: C22H28ClFO4
Exact mass: 410.1660153
SMILES: [H][C@@]12C[C@H](C)[C@](O)(C(=O)CCl)[C@@]1(C)C[C@H](O)[C@@]1(F)[C@@]2([H])CCC2=CC(=O)C=C[C@]12C
InChI: InChI=1S/C22H28ClFO4/c1-12-8-16-15-5-4-13-9-14(25)6-7-19(13,2)21(15,24)17(26)10-20(16,3)22(12,28)18(27)11-23/h6-7,9,12,15-17,26,28H,4-5,8,10-11H2,1-3H3/t12-,15-,16-,17-,19-,20-,21-,22-/m0/s1
Instrument: Bruker maXis Impact
Instrument type: LC-ESI-QTOF
Ms type: MS2
Ion mode: POSITIVE
Ionization: ESI
Fragmentation mode: CID
Collision energy: 40 eV
Resolution: 35000
Column name: Acclaim RSLC C18 2.2um, 2.1x100mm, Thermo
Retention time: 9.477 min
Base peak: 311.2005
Precursor m/z: 411.1733
Precursor type: [M+H]+
m/z	relative intensity	assigned
115.0526	29	C3H12ClO2+
119.0851	113	C9H11+
121.064	288	C8H9O+
121.1012	31	C9H13+
122.068	27	C7[13]CH9O+
125.0604	30	C4H10FO3+
125.0958	24	C8H13O+
128.0613	82	CH14ClFO3+
129.0688	56	CH15ClFO3+
131.0846	160	CH17ClFO3+
132.0543	66	C3H13ClO3+
132.0901	26	C4H17ClO2+
133.0644	36	C9H9O+
133.1	57	CH19ClFO3+
135.021	27	C5H8ClO2+
135.0796	165	ClFH17O4+
136.0828	31	C3H17ClO3+
141.0701	55	C11H9+
142.0768	42	C2H16ClFO3+
143.0634	26	C5H13ClFO+
143.0841	176	C2H17ClFO3+
144.0562	23	CH14ClFO4+
145.0642	172	CH15ClFO4+
145.1002	89	C2H19ClFO3+
146.0698	53	C4H15ClO3+
147.0798	999	C10H11O+
148.0826	126	C9[13]CH11O+
149.0941	47	C4H18ClO3+
151.0751	37	C9H11O2+
155.0602	34	C9H12Cl+
155.0841	48	C3H17ClFO3+
156.0891	29	C6H17ClO2+
157.1001	85	C3H19ClFO3+
158.0727	53	C11H10O+
159.0795	387	C11H11O+
160.0824	60	C10[13]CH11O+
161.0947	196	C11H13O+
162.0988	37	C10[13]CH13O+
165.0701	29	C13H9+
166.0743	26	C7H15ClO2+
167.0612	52	C10H12Cl+
167.0842	48	C4H17ClFO3+
169.041	26	C9H10ClO+
169.0642	65	C3H15ClFO4+
169.0993	52	C7H18ClO2+
171.056	131	C9H12ClO+
171.0788	537	C12H11O+
172.0829	94	C11[13]CH11O+
173.0525	43	C9H12[37]ClO+
173.0948	241	C12H13O+
174.0999	29	C11[13]CH13O+
175.0341	27	C8H9ClFO+
175.1093	41	C6H20ClO3+
178.0788	36	C11H11FO+
179.0866	52	C11H12FO+
181.0639	27	C4H15ClFO4+
181.1003	53	C5H19ClFO3+
182.0717	37	C4H16ClFO4+
182.1064	26	C8H19ClO2+
183.058	71	C7H13ClFO2+
183.08	57	C13H11O+
183.1147	53	C8H20ClO2+
184.0875	29	C4H18ClFO4+
185.0714	75	C10H14ClO+
185.0947	187	C4H19ClFO4+
186.0985	49	C7H19ClO3+
187.0521	31	C9H12ClO2+
187.0746	91	C12H11O2+
187.1108	63	C4H21ClFO4+
189.0898	25	C6H18ClO4+
191.0852	47	C15H11+
192.0902	24	C9H17ClO2+
193.0992	93	C9H18ClO2+
194.1066	38	C9H19ClO2+
195.0536	43	C11H12ClO+
195.078	67	C8H16ClO3+
195.1156	46	C6H21ClFO3+
196.0872	128	C5H18ClFO4+
197.0954	203	C5H19ClFO4+
197.1353	24	C12H18FO+
198.0991	82	C8H19ClO3+
199.1099	58	C8H20ClO3+
200.1192	27	C14H16O+
204.0914	59	C10H17ClO2+
205.0993	48	C10H18ClO2+
206.1076	33	C7H20ClFO3+
207.0868	24	C12H12FO2+
207.1155	51	C7H21ClFO3+
208.0864	123	C9H17ClO3+
209.0943	177	C9H18ClO3+
209.1308	71	C10H22ClO2+
210.1039	101	C15H14O+
210.1357	29	C10H23ClO2+
211.1106	277	C6H21ClFO4+
212.1182	274	C6H22ClFO4+
213.1256	172	C9H22ClO3+
214.1263	23	C8[13]CH22ClO3+
215.106	56	C14H15O2+
217.101	45	C17H13+
219.0789	25	C7H17ClFO4+
219.116	72	C8H21ClFO3+
220.0901	29	C13H13FO2+
220.1211	37	C11H21ClO2+
221.0955	93	C7H19ClFO4+
221.131	38	C8H23ClFO3+
222.1031	213	C7H20ClFO4+
223.1102	265	C7H21ClFO4+
224.1169	128	C10H21ClO3+
225.1271	82	C16H17O+
226.1338	28	C7H24ClFO4+
227.144	50	C13H20FO2+
230.1077	37	C9H20ClFO3+
231.1146	53	C12H20ClO2+
232.1236	29	C9H22ClFO3+
233.0964	45	C17H13O+
233.1296	28	C12H22ClO2+
234.1037	67	C17H14O+
235.11	159	C11H20ClO3+
235.1482	80	C18H19+
236.1163	63	C11H21ClO3+
236.1549	84	C15H21FO+
237.1259	378	C17H17O+
237.1609	25	C14[13]CH21FO+
238.131	89	C16[13]CH17O+
239.143	200	C14H20FO2+
240.1533	24	C13[13]CH20FO2+
244.1257	43	C16H17FO+
245.094	30	C12H18ClO3+
245.1334	49	C16H18FO+
246.1026	48	C9H20ClFO4+
247.1098	50	C12H20ClO3+
248.1183	125	C9H22ClFO4+
249.128	118	C15H18FO2+
250.133	71	C12H23ClO3+
250.1702	78	C10H28ClFO3+
251.1398	60	C12H24ClO3+
252.1488	99	C12H25ClO3+
253.1226	48	C17H17O2+
253.1591	85	C18H21O+
254.1573	23	C17[13]CH21O+
255.1368	24	C11H24ClO4+
257.1297	24	C14H22ClO2+
258.1379	35	C14H23ClO2+
259.1084	40	C13H20ClO3+
259.1463	34	C14H24ClO2+
260.1163	58	C13H21ClO3+
260.1539	60	C14H25ClO2+
261.1272	69	C19H17O+
261.1661	58	C20H21+
262.1357	95	C19H18O+
262.1677	24	C19[13]CH21+
263.1428	567	C16H20FO2+
264.148	102	C15[13]CH20FO2+
265.1556	24	C13H26ClO3+
267.1364	23	C12H24ClO4+
269.1525	24	C12H26ClO4+
271.1118	27	C20H15O+
273.1275	74	C20H17O+
274.1313	23	C19[13]CH17O+
275.1398	50	C14H24ClO3+
276.1502	69	C11H26ClFO4+
277.1216	32	C19H17O2+
277.1583	131	C20H21O+
278.1663	212	C20H22O+
279.1694	122	C14H28ClO3+
281.1531	43	C19H21O2+
286.1364	56	C18H19FO2+
287.1402	30	C15H24ClO3+
288.1495	61	C12H26ClFO4+
289.1548	50	C15H26ClO3+
291.1376	51	C20H19O2+
291.1742	42	C21H23O+
292.1423	34	C14H25ClO4+
296.1746	38	C14H29ClO4+
301.1596	78	C19H22FO2+
306.1641	57	C18H23FO3+
319.1703	33	C19H24FO3+
320.1708	26	C20H26ClF+
355.1476	37	C19H25ClFO3+
373.1581	24	C19H27ClFO4+
