Mass spectrum: Perfluoropentanoic acid (PFPeA); LC-ESI-QTOF; MS2; CE: 20 eV; R=35000; [M-H]-
Name: Perfluoropentanoic acid (PFPeA)
Name: Perfluorovaleric acid
Name: 2,2,3,3,4,4,5,5,5-nonafluoropentanoic acid
Formula: C5HF9O2
Exact mass: 263.9833
SMILES: C(=O)(C(C(C(C(F)(F)F)(F)F)(F)F)(F)F)O
InChI: InChI=1S/C5HF9O2/c6-2(7,1(15)16)3(8,9)4(10,11)5(12,13)14/h(H,15,16)
Instrument: Bruker maXis Impact
Instrument type: LC-ESI-QTOF
Ms type: MS2
Ion mode: NEGATIVE
Ionization: ESI
Fragmentation mode: CID
Collision energy: 20 eV
Resolution: 35000
Column name: Acclaim RSLC C18 2.2um, 2.1x100mm, Thermo
Retention time: 6.431 min
Base peak: 262.9758
Precursor m/z: 262.976
Precursor type: [M-H]-
m/z	relative intensity
218.9854	999
