Mass spectrum: Oxolinic acid; LC-ESI-QTOF; MS2; CE: 40 eV; R=35000; [M+H]+
Name: Oxolinic acid
Name: 5-ethyl-8-oxo-[1,3]dioxolo[4,5-g]quinoline-7-carboxylic acid
Formula: C13H11NO5
Exact mass: 261.0637225
SMILES: CCn1cc(c(=O)c2c1cc3c(c2)OCO3)C(=O)O
InChI: InChI=1S/C13H11NO5/c1-2-14-5-8(13(16)17)12(15)7-3-10-11(4-9(7)14)19-6-18-10/h3-5H,2,6H2,1H3,(H,16,17)
Instrument: Bruker maXis Impact
Instrument type: LC-ESI-QTOF
Ms type: MS2
Ion mode: POSITIVE
Ionization: ESI
Fragmentation mode: CID
Collision energy: 40 eV
Resolution: 35000
Column name: Acclaim RSLC C18 2.2um, 2.1x100mm, Thermo
Retention time: 5.9 min
Base peak: 262.0707
Precursor m/z: 262.071
Precursor type: [M+H]+
m/z	relative intensity	assigned
118.0639	95	C8H8N+
130.0644	277	C9H8N+
133.0274	74	C8H5O2+
146.0602	127	C9H8NO+
148.0385	353	C8H6NO2+
158.0232	164	C9H4NO2+
158.0591	367	C10H8NO+
159.0632	89	C7H11O4+
160.0387	999	C9H6NO2+
161.0423	60	C6H9O5+
172.0383	421	C10H6NO2+
173.0463	228	C10H7NO2+
176.0329	77	C9H6NO3+
176.0703	84	C10H10NO2+
186.0187	81	C10H4NO3+
186.0542	99	C11H8NO2+
187.0264	108	C10H5NO3+
187.0618	74	C11H9NO2+
188.0338	340	C10H6NO3+
188.0713	168	C11H10NO2+
200.0697	188	C12H10NO2+
201.0428	95	C11H7NO3+
202.03	62	C11H6O4+
214.0129	224	C11H4NO4+
215.0214	393	C11H5NO4+
216.0292	591	C11H6NO4+
216.066	262	C12H10NO3+
217.0331	80	C11H7NO4+
229.0379	136	C12H7NO4+
233.0315	152	C11H7NO5+
234.0397	837	C11H8NO5+
244.0606	761	C13H10NO4+
245.0644	99	C13H11NO4+
262.0712	990	C13H12NO5+
263.0746	124	C12[13]CH12NO5+
