Mass spectrum: Ritonavir; LC-ESI-QTOF; MS2; CE: 20 eV; R=35000; [M+H]+
Name: Ritonavir
Name: 1,3-thiazol-5-ylmethyl N-[(2S,3S,5S)-3-hydroxy-5-[[(2S)-3-methyl-2-[[methyl-[(2-propan-2-yl-1,3-thiazol-4-yl)methyl]carbamoyl]amino]butanoyl]amino]-1,6-diphenylhexan-2-yl]carbamate
Formula: C37H48N6O5S2
Exact mass: 720.3127606
SMILES: CC(C)c1nc(cs1)CN(C)/C(=N\[C@@H](C(C)C)/C(=N\[C@@H](Cc2ccccc2)C[C@@H]([C@H](Cc3ccccc3)/N=C(\O)/OCc4cncs4)O)/O)/O
InChI: InChI=1S/C37H48N6O5S2/c1-24(2)33(42-36(46)43(5)20-29-22-49-35(40-29)25(3)4)34(45)39-28(16-26-12-8-6-9-13-26)18-32(44)31(17-27-14-10-7-11-15-27)41-37(47)48-21-30-19-38-23-50-30/h6-15,19,22-25,28,31-33,44H,16-18,20-21H2,1-5H3,(H,39,45)(H,41,47)(H,42,46)/t28-,31-,32-,33-/m0/s1
Instrument: Bruker maXis Impact
Instrument type: LC-ESI-QTOF
Ms type: MS2
Ion mode: POSITIVE
Ionization: ESI
Fragmentation mode: CID
Collision energy: 20 eV
Resolution: 35000
Column name: Acclaim RSLC C18 2.2um, 2.1x100mm, Thermo
Retention time: 10.983 min
Base peak: 721.3231
Precursor m/z: 721.32
Precursor type: [M+H]+
m/z	relative intensity	assigned
140.0531	10	C7H10NS+
171.0957	104	C2H21NO3S2+
197.0748	11	C3H19NO4S2+
268.1495	97	C8H24N6S2+
269.1524	12	C7[13]CH24N6S2+
296.1447	999	C9H24N6OS2+
297.1475	120	C7[13]CH28N2O5S2+
426.1875	166	C26H26N4S+
427.1901	39	C28H27O4+
428.1888	9	C27[13]CH27O4+
551.2372	6	C34H35N2O3S+
721.3253	119	C37H49N6O5S2+
722.3276	55	C36[13]CH49N6O5S2+
723.326	17	C37H49N6O5S[34]S+
