Mass spectrum: Phenylbenzimidazole sulfonic acid; LC-ESI-QTOF; MS2; CE: 50 eV; R=35000; [M+H]+
Name: Phenylbenzimidazole sulfonic acid
Name: Ensulizole
Name: 2-phenyl-3H-benzimidazole-5-sulfonic acid
Formula: C13H10N2O3S
Exact mass: 274.0412132
SMILES: OS(=O)(=O)C1=CC=C2NC(=NC2=C1)C1=CC=CC=C1
InChI: InChI=1S/C13H10N2O3S/c16-19(17,18)10-6-7-11-12(8-10)15-13(14-11)9-4-2-1-3-5-9/h1-8H,(H,14,15)(H,16,17,18)
Instrument: Bruker maXis Impact
Instrument type: LC-ESI-QTOF
Ms type: MS2
Ion mode: POSITIVE
Ionization: ESI
Fragmentation mode: CID
Collision energy: 50 eV
Resolution: 35000
Column name: Acclaim RSLC C18 2.2um, 2.1x100mm, Thermo
Retention time: 4.623 min
Base peak: 169.0751
Precursor m/z: 275.0485
Precursor type: [M+H]+
m/z	relative intensity	assigned
139.0549	50	C11H7+
140.0583	32	C6H8N2O2+
154.0636	44	C8H10O3+
166.0638	195	C12H8N+
167.0717	156	C12H9N+
168.0704	40	C11H8N2+
168.0787	41	C12H10N+
182.0829	36	C12H10N2+
184.0764	22	C12H10NO+
192.067	77	C13H8N2+
193.0749	762	C13H9N2+
194.0819	999	C13H10N2+
195.0877	266	C13H11N2+
196.0914	27	C12[13]CH11N2+
209.0698	99	C13H9N2O+
210.0764	22	C12[13]CH9N2O+
211.0847	43	C13H11N2O+
226.0729	305	C13H10N2O2+
227.074	65	C12[13]CH10N2O2+
275.0459	26	C13H11N2O3S+
