Mass spectrum: Oxadiazone; LC-ESI-QTOF; MS2; CE: 50 eV; R=35000; [M+H]+
Name: Oxadiazone
Name: Oxadiazon
Name: 5-tert-butyl-3-(2,4-dichloro-5-propan-2-yloxyphenyl)-1,3,4-oxadiazol-2-one
Formula: C15H18Cl2N2O3
Exact mass: 344.0694478
SMILES: CC(C)OC1=CC(N2N=C(OC2=O)C(C)(C)C)=C(Cl)C=C1Cl
InChI: InChI=1S/C15H18Cl2N2O3/c1-8(2)21-12-7-11(9(16)6-10(12)17)19-14(20)22-13(18-19)15(3,4)5/h6-8H,1-5H3
Instrument: Bruker maXis Impact
Instrument type: LC-ESI-QTOF
Ms type: MS2
Ion mode: POSITIVE
Ionization: ESI
Fragmentation mode: CID
Collision energy: 50 eV
Resolution: 35000
Column name: Acclaim RSLC C18 2.2um, 2.1x100mm, Thermo
Retention time: 12.383 min
Base peak: 362.1029
Precursor m/z: 345.0767
Precursor type: [M+H]+
m/z	relative intensity	assigned
112.9778	25	C2H5Cl2N+
114.9756	22	C2H5Cl[37]ClN+
120.9597	22	C4H3Cl2+
122.0229	40	C6H4NO2+
122.9572	14	C4H3Cl[37]Cl+
127.9895	37	C8O2+
128.9961	252	C5H4ClNO+
129.9809	53	C5H3ClO2+
129.9998	22	C4[13]CH4ClNO+
130.9929	66	C5H4[37]ClNO+
131.9763	16	C5H3[37]ClO2+
139.9893	19	C9O2+
140.9725	215	C6H2ClO2+
140.9942	24	Cl2H9NO3+
141.9742	19	C5[13]CH2ClO2+
142.9699	65	C6H2[37]ClO2+
145.9538	22	C2H4Cl2O3+
147.9695	34	C2H6Cl2O3+
148.0019	28	C7H2NO3+
148.954	502	C5H3Cl2O+
149.9587	34	C4[13]CH3Cl2O+
150.9514	282	C5H3Cl[37]ClO+
155.9831	130	C6H3ClNO2+
156.9911	35	C9HO3+
157.9814	24	C6H3[37]ClNO2+
163.9648	26	C5H4Cl2NO+
165.9632	20	C5H4Cl[37]ClNO+
173.9495	159	C6H2Cl2NO+
175.9459	87	C6H2Cl[37]ClNO+
176.9488	708	C6H3Cl2O2+
177.953	51	C5[13]CH3Cl2O2+
178.9455	423	C6H3Cl[37]ClO2+
179.9498	26	C4H2Cl2N2O2+
183.9782	80	C7H3ClNO3+
184.0009	34	C10H2NO3+
184.9862	999	C7H4ClNO3+
185.9764	24	C7H3[37]ClNO3+
185.9897	104	C6[13]CH4ClNO3+
186.9833	253	C7H4[37]ClNO3+
191	15	C12HNO2+
201.944	24	C7H2Cl2NO2+
202.9518	65	C10ClO3+
204.9495	22	C10[37]ClO3+
207.0309	36	C13H5NO2+
209.01	32	C12H3NO3+
219.9566	32	C7H4Cl2NO3+
221.95	20	C7H4Cl[37]ClNO3+
223.0258	25	C13H5NO3+
223.0628	65	C14H9NO2+
225.0412	312	C13H7NO3+
226.0407	69	C12[13]CH7NO3+
227.0221	97	C14H8ClO+
228.0195	31	C7H12Cl2NO3+
229.0023	28	C14HN2O2+
229.0217	14	C14H8[37]ClO+
237.08	14	C11H19Cl2O+
248.9867	50	C13H7Cl2O+
249.9903	19	C8H8Cl2N2O3+
265.0195	44	C14H11Cl2O+
266.9974	348	C13H9Cl2O2+
267.9982	88	C14H5ClN2O2+
268.9981	28	C15H6ClO3+
281.0491	19	C15H15Cl2O+
283.0293	216	C15H8ClN2O2+
284.0291	68	C13H12Cl2NO2+
285.008	25	C13H11Cl2O3+
285.0277	27	C15H8[37]ClN2O2+
299.0638	64	C15H17Cl2O2+
300.0612	20	C14H16Cl2NO2+
