Mass spectrum: N,N-dibutylformamide; GC-APCI-QTOF; MS2; CE: 10 eV; R=35000; [M+H]+
Name: N,N-dibutylformamide
Formula: C9H19NO
Exact mass: 157.1467
SMILES: CCCCN(CCCC)C=O
InChI: InChI=1S/C9H19NO/c1-3-5-7-10(9-11)8-6-4-2/h9H,3-8H2,1-2H3
Instrument: Bruker 450 GC coupled to maXis Impact
Instrument type: GC-APCI-QTOF
Ms type: MS2
Ion mode: POSITIVE
Ionization: APCI
Fragmentation mode: CID
Collision energy: 10 eV
Resolution: 35000
Column name: Rxi-5Sil MS column, 30m, 0.25mm i.d., 0.25Âµm film thickness, Restek
Retention time: 10.575 min
Base peak: 158.1564
Precursor m/z: 158.1539
Precursor type: [M+H]+
m/z	relative intensity	assigned
102.0901	10	C5H12NO+
128.1438	17	C8H18N+
156.1418	40	C9H18NO+
157.1442	6	C9H19NO+
158.1558	999	C9H20NO+
