Mass spectrum: Triphenylphosphine oxide; LC-ESI-QTOF; MS2; CE: 40 eV; R=35000; [M+H]+
Name: Triphenylphosphine oxide
Name: diphenylphosphorylbenzene
Formula: C18H15OP
Exact mass: 278.0860517
SMILES: O=P(C1=CC=CC=C1)(C1=CC=CC=C1)C1=CC=CC=C1
InChI: InChI=1S/C18H15OP/c19-20(16-10-4-1-5-11-16,17-12-6-2-7-13-17)18-14-8-3-9-15-18/h1-15H
Instrument: Bruker maXis Impact
Instrument type: LC-ESI-QTOF
Ms type: MS2
Ion mode: POSITIVE
Ionization: ESI
Fragmentation mode: CID
Collision energy: 40 eV
Resolution: 35000
Column name: Acclaim RSLC C18 2.2um, 2.1x100mm, Thermo
Retention time: 8.945 min
Base peak: 279.0927
Precursor m/z: 279.0933
Precursor type: [M+H]+
m/z	relative intensity	assigned
122.9978	27	C6H4OP+
125.014	11	C6H6OP+
128.0608	61	C10H8+
129.0689	77	C10H9+
133.0191	39	C8H6P+
141.0687	29	C11H9+
147.0343	24	C9H8P+
153.0692	27	C12H9+
154.0769	98	C12H10+
155.0811	15	C11[13]CH10+
170.0274	11	C11H7P+
171.035	165	C11H8P+
173.0503	459	C11H10P+
174.0549	85	C10[13]CH10P+
183.0342	126	C12H8P+
184.0376	14	C11[13]CH8P+
199.0298	16	C12H8OP+
201.0455	999	C12H10OP+
202.0485	138	C11[13]CH10OP+
279.0922	125	C18H16OP+
280.0958	31	C17[13]CH16OP+
