Mass spectrum: Fenpropidin; LC-ESI-QTOF; MS2; CE: 50 eV; R=35000; [M+H]+
Name: Fenpropidin
Name: 1-[3-(4-tert-butylphenyl)-2-methylpropyl]piperidine
Formula: C19H31N
Exact mass: 273.2456500
SMILES: CC(CN1CCCCC1)CC1=CC=C(C=C1)C(C)(C)C
InChI: InChI=1S/C19H31N/c1-16(15-20-12-6-5-7-13-20)14-17-8-10-18(11-9-17)19(2,3)4/h8-11,16H,5-7,12-15H2,1-4H3
Instrument: Bruker maXis Impact
Instrument type: LC-ESI-QTOF
Ms type: MS2
Ion mode: POSITIVE
Ionization: ESI
Fragmentation mode: CID
Collision energy: 50 eV
Resolution: 35000
Column name: Acclaim RSLC C18 2.2um, 2.1x100mm, Thermo
Retention time: 8.393 min
Base peak: 207.1487
Precursor m/z: 274.2529
Precursor type: [M+H]+
m/z	relative intensity	assigned
115.0536	174	C9H7+
116.0592	26	C8[13]CH7+
117.0693	499	C9H9+
118.0727	64	C8[13]CH9+
119.0847	341	C9H11+
120.088	37	C8[13]CH11+
128.0605	5	C10H8+
129.0691	11	C10H9+
130.0759	8	C10H10+
131.0848	114	C10H11+
132.0926	999	C10H12+
133.0959	117	C9[13]CH12+
145.0999	36	C11H13+
146.1078	29	C11H14+
147.1159	644	C11H15+
148.1193	86	C10[13]CH15+
159.1159	30	C12H15+
160.1192	5	C11[13]CH15+
161.1307	18	C12H17+
258.2206	5	C18H28N+
274.2536	6	C19H32N+
