Mass spectrum: Medroxyprogesteroneacetate; LC-ESI-QTOF; MS2; CE: 10 eV; R=35000; [M+H]+
Name: Medroxyprogesteroneacetate
Name: Medroxyprogesterone acetate
Name: [(6S,8R,9S,10R,13S,14S,17R)-17-acetyl-6,10,13-trimethyl-3-oxo-2,6,7,8,9,11,12,14,15,16-decahydro-1H-cyclopenta[a]phenanthren-17-yl] acetate
Formula: C24H34O4
Exact mass: 386.2457096
SMILES: C[C@H]1C[C@H]2[C@@H]3CC[C@](OC(C)=O)(C(C)=O)[C@@]3(C)CC[C@@H]2[C@@]2(C)CCC(=O)C=C12
InChI: InChI=1S/C24H34O4/c1-14-12-18-19(22(4)9-6-17(27)13-21(14)22)7-10-23(5)20(18)8-11-24(23,15(2)25)28-16(3)26/h13-14,18-20H,6-12H2,1-5H3/t14-,18+,19-,20-,22+,23-,24-/m0/s1
Instrument: Bruker maXis Impact
Instrument type: LC-ESI-QTOF
Ms type: MS2
Ion mode: POSITIVE
Ionization: ESI
Fragmentation mode: CID
Collision energy: 10 eV
Resolution: 35000
Column name: Acclaim RSLC C18 2.2um, 2.1x100mm, Thermo
Retention time: 10.965 min
Base peak: 387.2528
Precursor m/z: 387.253
Precursor type: [M+H]+
m/z	relative intensity	assigned
267.1732	6	C19H23O+
285.2208	19	C20H29O+
325.2155	27	C22H29O2+
326.2194	8	C21[13]CH29O2+
327.2317	147	C22H31O2+
328.2349	29	C21[13]CH31O2+
385.2376	158	C24H33O4+
386.2408	52	C23[13]CH33O4+
387.2533	999	C24H35O4+
388.2564	237	C23[13]CH35O4+
389.2591	26	C22[13]C2H35O4+
