Mass spectrum: Medroxyprogesterone; LC-ESI-QTOF; MS2; CE: 50 eV; R=35000; [M+H]+
Name: Medroxyprogesterone
Name: (6S,8R,9S,10R,13S,14S,17R)-17-acetyl-17-hydroxy-6,10,13-trimethyl-2,6,7,8,9,11,12,14,15,16-decahydro-1H-cyclopenta[a]phenanthren-3-one
Formula: C22H32O3
Exact mass: 344.2351449
SMILES: [H][C@@]12CC[C@](O)(C(C)=O)[C@@]1(C)CC[C@@]1([H])[C@@]2([H])C[C@H](C)C2=CC(=O)CC[C@]12C
InChI: InChI=1S/C22H32O3/c1-13-11-16-17(20(3)8-5-15(24)12-19(13)20)6-9-21(4)18(16)7-10-22(21,25)14(2)23/h12-13,16-18,25H,5-11H2,1-4H3/t13-,16+,17-,18-,20+,21-,22-/m0/s1
Instrument: Bruker maXis Impact
Instrument type: LC-ESI-QTOF
Ms type: MS2
Ion mode: POSITIVE
Ionization: ESI
Fragmentation mode: CID
Collision energy: 50 eV
Resolution: 35000
Column name: Acclaim RSLC C18 2.2um, 2.1x100mm, Thermo
Retention time: 10.692 min
Base peak: 345.2422
Precursor m/z: 345.2424
Precursor type: [M+H]+
m/z	relative intensity	assigned
115.0536	18	C9H7+
116.0608	5	C9H8+
117.0695	27	C9H9+
119.0845	82	C9H11+
120.0883	6	C8[13]CH11+
121.064	20	C8H9O+
121.1004	18	C9H13+
122.0708	5	C8H10O+
123.0797	999	C8H11O+
124.083	96	C7[13]CH11O+
128.0609	43	C10H8+
129.0689	48	C10H9+
130.0762	19	C10H10+
131.0845	120	C10H11+
132.0887	18	C9[13]CH11+
133.0631	6	C9H9O+
133.0997	81	C10H13+
134.1046	12	C9[13]CH13+
135.0787	36	C9H11O+
135.1163	24	C10H15+
137.0952	139	C9H13O+
138.0987	12	C8[13]CH13O+
141.0684	28	C11H9+
142.0761	46	C11H10+
143.0841	79	C11H11+
144.0913	27	C11H12+
145.0628	10	C10H9O+
145.0996	114	C11H13+
146.1052	21	C10[13]CH13+
147.0791	22	C10H11O+
147.1155	72	C11H15+
148.1196	13	C10[13]CH15+
149.0945	21	C10H13O+
149.1311	11	C11H17+
151.1109	7	C10H15O+
153.0689	7	C12H9+
154.0758	14	C12H10+
155.0836	32	C12H11+
156.0914	35	C12H12+
157.1004	67	C12H13+
158.1064	18	C12H14+
159.0787	18	C11H11O+
159.1153	69	C12H15+
160.0849	10	C11H12O+
160.1206	13	C11[13]CH15+
161.0943	36	C11H13O+
161.1309	47	C12H17+
162.1007	11	C11H14O+
162.1355	7	C11[13]CH17+
163.1101	19	C11H15O+
163.1467	5	C12H19+
165.0694	8	C13H9+
166.0757	6	C13H10+
167.0834	12	C13H11+
168.0926	18	C13H12+
169.1001	46	C13H13+
170.1062	16	C13H14+
171.1158	68	C13H15+
172.0847	9	C12H12O+
172.1213	14	C12[13]CH15+
173.095	12	C12H13O+
173.1306	67	C13H17+
174.1051	6	C12H14O+
174.1376	9	C12[13]CH17+
175.1097	15	C12H15O+
175.1478	42	C13H19+
176.1173	8	C12H16O+
176.1492	7	C12[13]CH19+
177.1266	18	C12H17O+
178.077	7	C14H10+
179.0841	11	C14H11+
180.0912	7	C14H12+
181.1009	21	C14H13+
182.1073	15	C14H14+
183.1156	46	C14H15+
184.1225	15	C14H16+
185.0962	6	C13H13O+
185.1316	39	C14H17+
186.1365	12	C14H18+
187.1119	17	C13H15O+
187.1462	16	C14H19+
189.1262	22	C13H17O+
191.1439	7	C13H19O+
193.1002	6	C15H13+
194.1082	8	C15H14+
195.1152	23	C15H15+
196.1204	9	C15H16+
197.1313	51	C15H17+
198.1355	13	C14[13]CH17+
199.1105	14	C14H15O+
199.1458	40	C15H19+
200.1175	8	C14H16O+
200.1506	5	C14[13]CH19+
201.1242	7	C14H17O+
201.1635	6	C15H21+
205.1012	5	C16H13+
207.1149	9	C16H15+
209.1304	24	C16H17+
210.1375	9	C16H18+
211.1461	29	C16H19+
212.1528	14	C16H20+
213.1258	16	C15H17O+
213.1625	17	C16H21+
214.1344	71	C15H18O+
215.142	45	C15H19O+
216.1438	6	C14[13]CH19O+
221.1308	5	C17H17+
222.1395	8	C17H18+
223.1471	18	C17H19+
225.1619	16	C17H21+
226.1705	6	C17H22+
227.1797	16	C17H23+
229.1578	5	C16H21O+
236.1533	6	C18H20+
237.1604	9	C18H21+
238.168	7	C18H22+
239.1415	6	C17H19O+
239.175	6	C18H23+
241.1572	6	C17H21O+
242.1302	9	C16H18O2+
251.1797	23	C19H23+
252.1831	7	C19H24+
257.1537	7	C17H21O2+
267.2083	10	C20H27+
269.1891	11	C19H25O+
