Mass spectrum: Flufenoxuron; LC-ESI-QTOF; MS2; CE: 10 eV; R=35000; [M-H]-
Name: Flufenoxuron
Name: N-[[4-[2-chloro-4-(trifluoromethyl)phenoxy]-2-fluorophenyl]carbamoyl]-2,6-difluorobenzamide
Formula: C21H11ClF6N2O3
Exact mass: 488.0362392
SMILES: FC1=CC(OC2=CC=C(C=C2Cl)C(F)(F)F)=CC=C1NC(=O)NC(=O)C1=C(F)C=CC=C1F
InChI: InChI=1S/C21H11ClF6N2O3/c22-12-8-10(21(26,27)28)4-7-17(12)33-11-5-6-16(15(25)9-11)29-20(32)30-19(31)18-13(23)2-1-3-14(18)24/h1-9H,(H2,29,30,31,32)
Instrument: Bruker maXis Impact
Instrument type: LC-ESI-QTOF
Ms type: MS2
Ion mode: NEGATIVE
Ionization: ESI
Fragmentation mode: CID
Collision energy: 10 eV
Resolution: 35000
Column name: Acclaim RSLC C18 2.2um, 2.1x100mm, Thermo
Retention time: 12.811 min
Base peak: 487.0276
Precursor m/z: 487.029
Precursor type: [M-H]-
m/z	relative intensity	assigned
156.0265	525	C7H4F2NO-
157.0292	35	C6[13]CH4F2NO-
194.9835	74	C2F5N2O3-
269.0353	45	C9H6F5N2O2-
289.0414	137	C16H8F3O2-
290.0536	26	C15[13]CH8F3O2-
304.014	208	C16H6ClF3N-
305.0169	23	C15[13]CH6ClF3N-
306.0098	46	C16H6[37]ClF3N-
329.0071	80	C20H5ClFNO-
331.0018	23	C20H5[37]ClFNO-
411.0387	120	C21H7F4N2O3-
412.0342	20	C20[13]CH7F4N2O3-
412.0517	24	C20[13]CH7F4N2O3-
431.0476	28	C21H8F5N2O3-
447.0131	65	C20H10ClF6O3-
448.0329	20	C19[13]CH10ClF6O3-
449.0111	31	C20H10[37]ClF6O3-
449.0327	22	C21H10ClF4N2O3-
455.02	25	C20H9ClF5N2O3-
467.0193	320	C21H9ClF5N2O3-
468.0197	75	C20[13]CH9ClF5N2O3-
469.0167	87	C21H9[37]ClF5N2O3-
487.0266	999	C21H10ClF6N2O3-
488.032	169	C20[13]CH10ClF6N2O3-
489.0236	270	C21H10[37]ClF6N2O3-
