Mass spectrum: Propyphenazone; LC-ESI-QTOF; MS2; CE: 30 eV; R=35000; [M+H]+
Name: Propyphenazone
Name: 1,5-dimethyl-2-phenyl-4-propan-2-ylpyrazol-3-one
Formula: C14H18N2O
Exact mass: 230.1419132
SMILES: CC(C)C1=C(C)N(C)N(C1=O)C1=CC=CC=C1
InChI: InChI=1S/C14H18N2O/c1-10(2)13-11(3)15(4)16(14(13)17)12-8-6-5-7-9-12/h5-10H,1-4H3
Instrument: Bruker maXis Impact
Instrument type: LC-ESI-QTOF
Ms type: MS2
Ion mode: POSITIVE
Ionization: ESI
Fragmentation mode: CID
Collision energy: 30 eV
Resolution: 35000
Column name: Acclaim RSLC C18 2.2um, 2.1x100mm, Thermo
Retention time: 7.421 min
Base peak: 231.1494
Precursor m/z: 231.1492
Precursor type: [M+H]+
m/z	relative intensity	assigned
115.0533	6	C9H7+
117.0567	5	C8H7N+
117.0686	5	C9H9+
118.0642	27	C8H8N+
120.0435	10	C7H6NO+
120.0798	39	C8H10N+
124.0747	33	C7H10NO+
130.064	31	C9H8N+
131.0718	52	C9H9N+
132.0792	20	C9H10N+
133.0512	8	C8H7NO+
133.0753	14	C8H9N2+
134.0952	9	C9H12N+
138.0902	16	C8H12NO+
142.0643	8	C10H8N+
143.0712	5	C10H9N+
144.0797	72	C10H10N+
145.0635	12	C10H9O+
145.0816	10	C9[13]CH10N+
146.0826	35	C9H10N2+
146.0949	84	C10H12N+
147.0912	17	C9H11N2+
148.074	10	C9H10NO+
148.1108	12	C10H14N+
157.0873	7	C11H11N+
158.0584	6	C10H8NO+
158.0945	8	C11H12N+
159.0907	6	C10H11N2+
160.0741	7	C10H10NO+
160.098	19	C10H12N2+
161.1059	37	C10H13N2+
172.0742	18	C11H10NO+
172.1109	21	C12H14N+
174.0774	20	C10H10N2O+
186.0773	8	C11H10N2O+
187.0849	9	C11H11N2O+
188.093	18	C11H12N2O+
189.1012	741	C11H13N2O+
190.1045	79	C10[13]CH13N2O+
201.1013	307	C12H13N2O+
202.1046	35	C11[13]CH13N2O+
203.1533	14	C13H19N2+
215.1166	15	C13H15N2O+
216.1243	29	C13H16N2O+
229.1327	12	C14H17N2O+
231.1485	999	C14H19N2O+
232.1516	138	C13[13]CH19N2O+
233.1546	9	C12[13]C2H19N2O+
