Mass spectrum: Temazepam; LC-ESI-QTOF; MS2; CE: 50 eV; R=35000; [M+H]+
Name: Temazepam
Name: 7-chloro-3-hydroxy-1-methyl-5-phenyl-3H-1,4-benzodiazepin-2-one
Formula: C16H13ClN2O2
Exact mass: 300.0665553
SMILES: CN1C2=C(C=C(Cl)C=C2)C(=NC(O)C1=O)C1=CC=CC=C1
InChI: InChI=1S/C16H13ClN2O2/c1-19-13-8-7-11(17)9-12(13)14(18-15(20)16(19)21)10-5-3-2-4-6-10/h2-9,15,20H,1H3
Instrument: Bruker maXis Impact
Instrument type: LC-ESI-QTOF
Ms type: MS2
Ion mode: POSITIVE
Ionization: ESI
Fragmentation mode: CID
Collision energy: 50 eV
Resolution: 35000
Column name: Acclaim RSLC C18 2.2um, 2.1x100mm, Thermo
Retention time: 8.4 min
Base peak: 301.0737
Precursor m/z: 301.0738
Precursor type: [M+H]+
m/z	relative intensity	assigned
116.0489	7	C8H6N+
117.0572	55	C8H7N+
122.9987	20	C7H4Cl+
123.9949	5	C6H3ClN+
124.9958	8	C4HN2O3+
125.0144	129	C7H6Cl+
126.019	11	C2H7ClN2O2+
127.0131	40	C4H3N2O3+
129.014	6	C3H3N3O3+
132.0674	8	C8H8N2+
135.9936	15	C10O+
138.0096	19	C10H2O+
140.0067	6	C4H2N3O3+
140.0249	7	C10H4O+
142.0512	51	C3H11ClN2O2+
150.0096	62	C11H2O+
150.0441	6	C6H11ClO2+
151.0139	10	C6H3N2O3+
151.0539	16	C12H7+
152.0069	22	C5H2N3O3+
152.0254	70	C11H4O+
152.0612	26	C12H8+
153.0264	6	C6H5N2O3+
153.0646	5	C7H9N2O2+
154.0042	14	C10H2O2+
154.0216	20	C5H4N3O3+
163.0038	6	C11HNO+
164.0001	56	C10N2O+
164.0613	8	C13H8+
165.0021	8	C5HN4O3+
165.0686	108	C7H14ClO2+
165.9963	25	C7H3ClN2O+
166.0748	35	C8H10N2O2+
167.0728	11	C12H9N+
168.0209	14	C8H7ClNO+
169.0636	24	C12H9O+
177.0205	613	C12H3NO+
178.0239	62	C7H4N3O3+
178.0636	40	C7H13ClNO2+
178.9996	12	C11HNO2+
179.0176	165	C6H3N4O3+
179.0702	40	C7H14ClNO2+
180.0202	32	C12H4O2+
180.0792	79	C13H10N+
181.0869	28	C13H11N+
182.0197	9	C11H4NO2+
182.0936	5	C13H12N+
190.0647	6	C14H8N+
191.0717	23	C8H14ClNO2+
192.0798	66	C14H10N+
193.0876	544	C14H11N+
194.0905	94	C9H12N3O2+
195.0914	11	C13H11N2+
196.0743	6	C13H10NO+
203.0692	5	C9H14ClNO2+
204.0684	8	C14H8N2+
205.0754	192	C14H9N2+
206.0602	8	C14H8NO+
206.0783	29	C9H10N4O2+
209.1085	9	C14H13N2+
213.0332	8	C16H5O+
214.0407	39	C16H6O+
215.0456	7	C16H7O+
216.0386	15	C13H9ClO+
216.0549	8	C16H8O+
219.0911	57	C15H11N2+
220.0967	20	C15H12N2+
221.0803	14	C15H11NO+
226.0422	5	C14H9ClN+
227.049	23	C14H10ClN+
228.0556	39	C14H11ClN+
229.0531	28	C13H10ClN2+
230.0536	14	C14H11ClO+
231.0498	8	C13H10ClNO+
239.0366	230	C14H8ClN2+
240.0413	37	C14H9ClN2+
241.0336	78	C14H8ClNO+
242.04	9	C14H9ClNO+
243.0665	37	C14H12ClN2+
244.0707	11	C14H13ClN2+
245.0647	13	C14H12ClNO+
253.053	9	C15H10ClN2+
254.0625	8	C15H11ClN2+
255.068	999	C15H12ClN2+
256.0706	159	C15H13ClN2+
257.0475	39	C14H10ClN2O+
257.065	274	C15H12ClNO+
258.0517	7	C14H11ClN2O+
258.0691	28	C15H13ClNO+
259.0446	14	C14H10ClNO2+
271.0641	8	C15H12ClN2O+
