Mass spectrum: 10,11-Dihydro-10-Hydroxycarbazepine; LC-ESI-QTOF; MS2; CE: 20 eV; R=35000; [M+H]+
Name: 10,11-Dihydro-10-Hydroxycarbazepine
Name: Licarbazepine
Name: 5-hydroxy-5,6-dihydrobenzo[b][1]benzazepine-11-carboxamide
Formula: C15H14N2O2
Exact mass: 254.1055277
SMILES: c1ccc2c(c1)CC(c3ccccc3N2C(=O)N)O
InChI: InChI=1S/C15H14N2O2/c16-15(19)17-12-7-3-1-5-10(12)9-14(18)11-6-2-4-8-13(11)17/h1-8,14,18H,9H2,(H2,16,19)
Instrument: Bruker maXis Impact
Instrument type: LC-ESI-QTOF
Ms type: MS2
Ion mode: POSITIVE
Ionization: ESI
Fragmentation mode: CID
Collision energy: 20 eV
Resolution: 35000
Column name: Acclaim RSLC C18 2.2um, 2.1x100mm, Thermo
Retention time: 6.057 min
Base peak: 372.158
Precursor m/z: 255.1128
Precursor type: [M+H]+
m/z	relative intensity	assigned
192.0795	123	C14H10N+
193.0849	28	C13[13]CH10N+
194.0953	999	C14H12N+
195.0984	124	C13[13]CH12N+
196.1013	10	C12[13]C2H12N+
220.0742	18	C15H10NO+
237.1014	362	C15H13N2O+
238.1048	56	C14[13]CH13N2O+
239.1064	6	C13[13]C2H13N2O+
