Mass spectrum: Propafenone; LC-ESI-QTOF; MS2; CE: Ramp 22.4-33.7 eV; R=35000; [M+H]+
Name: Propafenone
Name: 1-[2-[2-hydroxy-3-(propylamino)propoxy]phenyl]-3-phenylpropan-1-one
Formula: C21H27NO3
Exact mass: 341.1990937
SMILES: CCCNCC(COc1ccccc1C(=O)CCc2ccccc2)O
InChI: InChI=1S/C21H27NO3/c1-2-14-22-15-18(23)16-25-21-11-7-6-10-19(21)20(24)13-12-17-8-4-3-5-9-17/h3-11,18,22-23H,2,12-16H2,1H3
Instrument: Bruker maXis Impact
Instrument type: LC-ESI-QTOF
Ms type: MS2
Ion mode: POSITIVE
Ionization: ESI
Fragmentation mode: CID
Collision energy: Ramp 22.4-33.7 eV
Resolution: 35000
Column name: Acclaim RSLC C18 2.2um, 2.1x100mm, Thermo
Retention time: 7.704 min
Base peak: 342.2062
Precursor m/z: 342.2064
Precursor type: [M+H]+
m/z	relative intensity	assigned
115.0532	13	C9H7+
116.1062	999	C6H14NO+
117.0686	10	C9H9+
117.1092	76	C5[13]CH14NO+
121.0279	6	C7H5O2+
129.0685	28	C10H9+
131.0482	19	C9H7O+
133.0636	28	C9H9O+
135.0429	12	C8H7O2+
143.0838	7	C11H11+
145.0633	9	C10H9O+
151.0386	5	C8H7O3+
161.058	78	C10H9O2+
162.0618	7	C9[13]CH9O2+
173.0576	5	C11H9O2+
176.1427	9	C12H18N+
181.0997	5	C14H13+
190.1208	9	C12H16NO+
192.1369	9	C12H18NO+
209.0948	67	C15H13O+
210.0984	11	C14[13]CH13O+
210.1478	21	C12H20NO2+
220.132	6	C13H18NO2+
221.0951	11	C16H13O+
223.1099	8	C16H15O+
227.105	19	C15H15O2+
239.1067	5	C16H15O2+
247.1097	23	C18H15O+
265.1212	227	C18H17O2+
266.1256	50	C17[13]CH17O2+
267.1289	6	C16[13]C2H17O2+
324.1952	158	C21H26NO2+
325.1986	34	C20[13]CH26NO2+
326.2014	5	C19[13]C2H26NO2+
342.2062	817	C21H28NO3+
343.2094	177	C20[13]CH28NO3+
344.2119	22	C19[13]C2H28NO3+
