Mass spectrum: Azobenzene; LC-ESI-QTOF; MS2; CE: Ramp 17.4-26.1 eV; R=35000; [M+H]+
Name: Azobenzene
Formula: C12H10N2
Exact mass: 182.08439832
SMILES: C1=CC=C(C=C1)\N=N\C1=CC=CC=C1
InChI: InChI=1S/C12H10N2/c1-3-7-11(8-4-1)13-14-12-9-5-2-6-10-12/h1-10H/b14-13+
Instrument: Bruker maXis Impact
Instrument type: LC-ESI-QTOF
Ms type: MS2
Ion mode: POSITIVE
Ionization: ESI
Fragmentation mode: CID
Collision energy: Ramp 17.4-26.1 eV
Resolution: 35000
Column name: Acclaim RSLC C18 2.2um, 2.1x100mm, Thermo
Retention time: 4.125 min
Base peak: 214.1083
Precursor m/z: 183.0917
Precursor type: [M+H]+
m/z	relative intensity	assigned
130.0647	62	C9H8N+
139.0514	37	C11H7+
141.0684	137	C11H9+
143.0705	55	C10H9N+
144.0784	81	C10H10N+
152.0614	41	C12H8+
153.0559	61	C11H7N+
156.0802	381	C11H10N+
157.0855	100	C11H11N+
158.0822	39	C10H10N2+
166.0644	110	C12H8N+
167.0717	558	C12H9N+
168.0792	999	C12H10N+
169.086	138	C11[13]CH10N+
179.0569	44	C12H7N2+
182.0825	75	C12H10N2+
183.0904	712	C12H11N2+
