Mass spectrum: Pantoprazole; LC-ESI-QTOF; MS2; CE: 20 eV; R=35000; [M-H]-
Name: Pantoprazole
Name: 6-(difluoromethoxy)-2-[(3,4-dimethoxypyridin-2-yl)methylsulfinyl]-1H-benzimidazole
Formula: C16H15F2N3O4S
Exact mass: 383.0751334
SMILES: COc1ccnc(c1OC)CS(=O)c2[nH]c3ccc(cc3n2)OC(F)F
InChI: InChI=1S/C16H15F2N3O4S/c1-23-13-5-6-19-12(14(13)24-2)8-26(22)16-20-10-4-3-9(25-15(17)18)7-11(10)21-16/h3-7,15H,8H2,1-2H3,(H,20,21)
Instrument: Bruker maXis Impact
Instrument type: LC-ESI-QTOF
Ms type: MS2
Ion mode: NEGATIVE
Ionization: ESI
Fragmentation mode: CID
Collision energy: 20 eV
Resolution: 35000
Column name: Acclaim RSLC C18 2.2um, 2.1x100mm, Thermo
Retention time: 7.383 min
Base peak: 229.9969
Precursor m/z: 382.0679
Precursor type: [M-H]-
m/z	relative intensity	assigned
229.9977	999	C8H4F2N2O2S-
230.9988	77	C7[13]CH4F2N2O2S-
231.9921	28	C8H4F2N2O2[34]S-
