Mass spectrum: Sotalol; LC-ESI-QTOF; MS2; CE: 40 eV; R=35000; [M+H]+
Name: Sotalol
Name: N-[4-[1-hydroxy-2-(propan-2-ylamino)ethyl]phenyl]methanesulfonamide
Formula: C12H20N2O3S
Exact mass: 272.1194635
SMILES: CC(C)NCC(O)C1=CC=C(NS(C)(=O)=O)C=C1
InChI: InChI=1S/C12H20N2O3S/c1-9(2)13-8-12(15)10-4-6-11(7-5-10)14-18(3,16)17/h4-7,9,12-15H,8H2,1-3H3
Instrument: Bruker maXis Impact
Instrument type: LC-ESI-QTOF
Ms type: MS2
Ion mode: POSITIVE
Ionization: ESI
Fragmentation mode: CID
Collision energy: 40 eV
Resolution: 35000
Column name: Acclaim RSLC C18 2.2um, 2.1x100mm, Thermo
Retention time: 2.856 min
Base peak: 273.1263
Precursor m/z: 273.1267
Precursor type: [M+H]+
m/z	relative intensity	assigned
116.049	34	C8H6N+
117.0562	44	C8H7N+
118.064	33	C8H8N+
119.0596	19	C7H7N2+
131.0593	5	C8H7N2+
132.0667	97	C5H10NO3+
133.0751	999	C8H9N2+
134.0818	281	C5H12NO3+
135.0859	24	C4[13]CH12NO3+
161.1063	9	C10H13N2+
175.1208	7	C8H17NO3+
176.1292	43	C8H18NO3+
177.1328	5	C7[13]CH18NO3+
213.0681	40	C12H9N2O2+
214.0705	5	C11[13]CH9N2O2+
