Mass spectrum: Fluconazole; LC-ESI-QTOF; MS2; CE: 10 eV; R=35000; [M+H]+
Name: Fluconazole
Name: 2-(2,4-difluorophenyl)-1,3-bis(1,2,4-triazol-1-yl)propan-2-ol
Formula: C13H12F2N6O
Exact mass: 306.1040654
SMILES: OC(CN1C=NC=N1)(CN1C=NC=N1)C1=C(F)C=C(F)C=C1
InChI: InChI=1S/C13H12F2N6O/c14-10-1-2-11(12(15)3-10)13(22,4-20-8-16-6-18-20)5-21-9-17-7-19-21/h1-3,6-9,22H,4-5H2
Instrument: Bruker maXis Impact
Instrument type: LC-ESI-QTOF
Ms type: MS2
Ion mode: POSITIVE
Ionization: ESI
Fragmentation mode: CID
Collision energy: 10 eV
Resolution: 35000
Column name: Acclaim RSLC C18 2.2um, 2.1x100mm, Thermo
Retention time: 5.133 min
Base peak: 266.1657
Precursor m/z: 307.1113
Precursor type: [M+H]+
m/z	relative intensity	assigned
220.0671	63	C11H8F2N3+
221.0707	8	C10[13]CH8F2N3+
238.0782	108	C9H8F2N6+
239.0812	12	C8[13]CH8F2N6+
289.0995	18	C13H11F2N6+
307.1114	999	C13H13F2N6O+
308.1138	138	C12[13]CH13F2N6O+
309.1157	10	C11[13]C2H13F2N6O+
