Mass spectrum: 10,11-trans-Dihydroxy-10,11-dihydrocarbamazepine; LC-ESI-QTOF; MS2; CE: 40 eV; R=35000; [M+H]+
Name: 10,11-trans-Dihydroxy-10,11-dihydrocarbamazepine
Name: (10s,11s)-10,11-dihydroxy-10,11-dihydro-5h-dibenzo[b,f]azepine-5-carboxamide
Name: (5S,6S)-5,6-dihydroxy-5,6-dihydrobenzo[b][1]benzazepine-11-carboxamide
Formula: C15H14N2O3
Exact mass: 270.1004423
SMILES: c1ccc2c(c1)[C@@H]([C@H](c3ccccc3N2C(=N)O)O)O
InChI: InChI=1S/C15H14N2O3/c16-15(20)17-11-7-3-1-5-9(11)13(18)14(19)10-6-2-4-8-12(10)17/h1-8,13-14,18-19H,(H2,16,20)/t13-,14-/m0/s1
Instrument: Bruker maXis Impact
Instrument type: LC-ESI-QTOF
Ms type: MS2
Ion mode: POSITIVE
Ionization: ESI
Fragmentation mode: CID
Collision energy: 40 eV
Resolution: 35000
Column name: Acclaim RSLC C18 2.2um, 2.1x100mm, Thermo
Retention time: 5.6 min
Base peak: 150.1115
Precursor m/z: 271.1077
Precursor type: [M+H]+
m/z	relative intensity	assigned
152.0609	16	C12H8+
165.0684	17	C13H9+
166.0711	6	C12[13]CH9+
167.0723	84	C12H9N+
168.0756	18	C11[13]CH9N+
178.0628	11	C10H10O3+
179.0712	33	C10H11O3+
180.0799	999	C13H10N+
181.0838	154	C12[13]CH10N+
182.0953	172	C13H12N+
183.0986	23	C12[13]CH12N+
193.0875	16	C14H11N+
210.0905	32	C14H12NO+
