Mass spectrum: Tris(1-chloro-2-propyl)phosphate; LC-ESI-QTOF; MS2; CE: 10 eV; R=35000; [M+H]+
Name: Tris(1-chloro-2-propyl)phosphate
Name: Tris(1-chloro-2-propyl) phosphate
Name: tris(1-chloropropan-2-yl) phosphate
Formula: C9H18Cl3O4P
Exact mass: 326.0008287
SMILES: CC(CCl)OP(=O)(OC(C)CCl)OC(C)CCl
InChI: InChI=1S/C9H18Cl3O4P/c1-7(4-10)14-17(13,15-8(2)5-11)16-9(3)6-12/h7-9H,4-6H2,1-3H3
Instrument: Bruker maXis Impact
Instrument type: LC-ESI-QTOF
Ms type: MS2
Ion mode: POSITIVE
Ionization: ESI
Fragmentation mode: CID
Collision energy: 10 eV
Resolution: 35000
Column name: Acclaim RSLC C18 2.2um, 2.1x100mm, Thermo
Retention time: 9.479 min
Base peak: 327.0077
Precursor m/z: 327.0081
Precursor type: [M+H]+
m/z	relative intensity	assigned
174.9909	895	C3H9ClO4P+
175.995	28	C2[13]CH9ClO4P+
176.9888	148	C3H9[37]ClO4P+
193.0019	16	C4H11Cl2O4+
250.9995	999	C6H14Cl2O4P+
252.0024	62	C5[13]CH14Cl2O4P+
252.9975	426	C6H14Cl[37]ClO4P+
254.001	15	C3H18Cl3O4P+
254.9965	7	C6H14Cl3O4+
327.0076	355	C9H19Cl3O4P+
328.0135	41	C8[13]CH19Cl3O4P+
329.0051	325	C9H19Cl2[37]ClO4P+
