Mass spectrum: Chloridazon; LC-ESI-QTOF; MS2; CE: 20 eV; R=35000; [M-H]-
Name: Chloridazon
Name: 5-amino-4-chloro-2-phenylpyridazin-3-one
Formula: C10H8ClN3O
Exact mass: 221.0355896
SMILES: NC1=C(Cl)C(=O)N(N=C1)C1=CC=CC=C1
InChI: InChI=1S/C10H8ClN3O/c11-9-8(12)6-13-14(10(9)15)7-4-2-1-3-5-7/h1-6H,12H2
Instrument: Bruker maXis Impact
Instrument type: LC-ESI-QTOF
Ms type: MS2
Ion mode: NEGATIVE
Ionization: ESI
Fragmentation mode: CID
Collision energy: 20 eV
Resolution: 35000
Column name: Acclaim RSLC C18 2.2um, 2.1x100mm, Thermo
Retention time: 5.295 min
Base peak: 220.0281
Precursor m/z: 220.0283
Precursor type: [M-H]-
m/z	relative intensity	assigned
150.0105	514	C8H5ClN-
152.0105	186	C8H5[37]ClN-
220.0277	999	C10H7ClN3O-
221.0276	172	C9[13]CH7ClN3O-
222.0217	291	C10H7[37]ClN3O-
222.0296	238	C10H7[37]ClN3O-
