Mass spectrum: Finasteride; LC-ESI-QTOF; MS2; CE: Ramp 23.1-34.6 eV; R=35000; [M+H]+
Name: Finasteride
Name: (1S,3aS,3bS,5aR,9aR,9bS,11aS)-N-tert-butyl-9a,11a-dimethyl-7-oxo-1,2,3,3a,3b,4,5,5a,6,9b,10,11-dodecahydroindeno[5,4-f]quinoline-1-carboxamide
Formula: C23H36N2O2
Exact mass: 372.2776784
SMILES: CC(C)(C)NC(=O)[C@H]1CC[C@H]2[C@@H]3CC[C@H]4NC(=O)C=C[C@]4(C)[C@H]3CC[C@]12C
InChI: InChI=1S/C23H36N2O2/c1-21(2,3)25-20(27)17-8-7-15-14-6-9-18-23(5,13-11-19(26)24-18)16(14)10-12-22(15,17)4/h11,13-18H,6-10,12H2,1-5H3,(H,24,26)(H,25,27)/t14-,15-,16-,17+,18+,22-,23+/m0/s1
Instrument: Bruker maXis Impact
Instrument type: LC-ESI-QTOF
Ms type: MS2
Ion mode: POSITIVE
Ionization: ESI
Fragmentation mode: CID
Collision energy: Ramp 23.1-34.6 eV
Resolution: 35000
Column name: Acclaim RSLC C18 2.2um, 2.1x100mm, Thermo
Retention time: 9.896 min
Base peak: 373.286
Precursor m/z: 373.285
Precursor type: [M+H]+
m/z	relative intensity	assigned
57.0695	13	C4H9+
69.0332	13	C4H5O+
72.0441	15	C3H6NO+
81.0695	7	C6H9+
95.0857	16	C7H11+
98.0603	5	C5H8NO+
121.1014	5	C9H13+
175.1471	11	C13H19+
189.1634	5	C14H21+
220.1694	6	C14H22NO+
255.1744	6	C18H23O+
272.2018	5	C18H26NO+
274.2162	5	C18H28NO+
300.1968	6	C19H26NO2+
305.2598	192	C19H33N2O+
306.2625	35	C18[13]CH33N2O+
317.2233	258	C19H29N2O2+
318.2265	52	C18[13]CH29N2O2+
319.2284	5	C17[13]C2H29N2O2+
373.2864	999	C23H37N2O2+
374.2894	395	C22[13]CH37N2O2+
375.2921	44	C21[13]C2H37N2O2+
