Mass spectrum: Pyrimidinol; LC-ESI-QTOF; MS2; CE: 30 eV; R=35000; [M+H]+
Name: Pyrimidinol
Name: 6-methyl-2-propan-2-yl-1H-pyrimidin-4-one
Formula: C8H12N2O
Exact mass: 152.0949630
SMILES: CC(C)C1=NC(=O)C=C(C)N1
InChI: InChI=1S/C8H12N2O/c1-5(2)8-9-6(3)4-7(11)10-8/h4-5H,1-3H3,(H,9,10,11)
Instrument: Bruker maXis Impact
Instrument type: LC-ESI-QTOF
Ms type: MS2
Ion mode: POSITIVE
Ionization: ESI
Fragmentation mode: CID
Collision energy: 30 eV
Resolution: 35000
Column name: Acclaim RSLC C18 2.2um, 2.1x100mm, Thermo
Retention time: 4.4 min
Base peak: 153.1017
Precursor m/z: 153.1022
Precursor type: [M+H]+
m/z	relative intensity	assigned
119.0595	10	C7H7N2+
135.0907	47	C8H11N2+
136.0747	17	C8H10NO+
137.07	999	C7H9N2O+
138.0766	232	C7H10N2O+
153.1019	915	C8H13N2O+
154.1044	120	C7[13]CH13N2O+
155.1068	10	C6[13]C2H13N2O+
