Mass spectrum: Raloxifene; LC-ESI-QTOF; MS2; CE: Ramp 25.1-37.6 eV; R=35000; [M+H]+
Name: Raloxifene
Name: [6-hydroxy-2-(4-hydroxyphenyl)-1-benzothiophen-3-yl]-[4-(2-piperidin-1-ylethoxy)phenyl]methanone
Formula: C28H27NO4S
Exact mass: 473.1660793
SMILES: OC1=CC=C(C=C1)C1=C(C(=O)C2=CC=C(OCCN3CCCCC3)C=C2)C2=C(S1)C=C(O)C=C2
InChI: InChI=1S/C28H27NO4S/c30-21-8-4-20(5-9-21)28-26(24-13-10-22(31)18-25(24)34-28)27(32)19-6-11-23(12-7-19)33-17-16-29-14-2-1-3-15-29/h4-13,18,30-31H,1-3,14-17H2
Instrument: Bruker maXis Impact
Instrument type: LC-ESI-QTOF
Ms type: MS2
Ion mode: POSITIVE
Ionization: ESI
Fragmentation mode: CID
Collision energy: Ramp 25.1-37.6 eV
Resolution: 35000
Column name: Acclaim RSLC C18 2.2um, 2.1x100mm, Thermo
Retention time: 6.415 min
Base peak: 474.1736
Precursor m/z: 474.1734
Precursor type: [M+H]+
m/z	relative intensity	assigned
55.0539	5	C4H7+
56.049	8	C3H6N+
58.0645	7	C3H8N+
69.0695	27	C5H9+
70.0647	7	C4H8N+
84.0807	96	C5H10N+
85.0886	78	C5H11N+
86.0954	7	C5H12N+
98.0969	6	H18O3S+
112.1138	368	C7H14N+
113.1165	29	C6[13]CH14N+
147.0432	19	C9H7O2+
269.0269	70	C15H9O3S+
270.03	11	C14[13]CH9O3S+
362.06	10	C27H8NO+
474.174	999	C28H28NO4S+
475.1773	367	C27[13]CH28NO4S+
