Mass spectrum: Lapatinib; LC-ESI-QTOF; MS2; CE: 50 eV; R=35000; [M+H]+
Name: Lapatinib
Name: N-[3-chloro-4-[(3-fluorophenyl)methoxy]phenyl]-6-[5-[(2-methylsulfonylethylamino)methyl]furan-2-yl]quinazolin-4-amine
Formula: C29H26ClFN4O4S
Exact mass: 580.1347322
SMILES: CS(=O)(=O)CCNCC1=CC=C(O1)C1=CC2=C(C=C1)N=CN=C2NC1=CC(Cl)=C(OCC2=CC(F)=CC=C2)C=C1
InChI: InChI=1S/C29H26ClFN4O4S/c1-40(36,37)12-11-32-16-23-7-10-27(39-23)20-5-8-26-24(14-20)29(34-18-33-26)35-22-6-9-28(25(30)15-22)38-17-19-3-2-4-21(31)13-19/h2-10,13-15,18,32H,11-12,16-17H2,1H3,(H,33,34,35)
Instrument: Bruker maXis Impact
Instrument type: LC-ESI-QTOF
Ms type: MS2
Ion mode: POSITIVE
Ionization: ESI
Fragmentation mode: CID
Collision energy: 50 eV
Resolution: 35000
Column name: Acclaim RSLC C18 2.2um, 2.1x100mm, Thermo
Retention time: 11.082 min
Base peak: 581.1407
Precursor m/z: 581.142
Precursor type: [M+H]+
m/z	relative intensity	assigned
239.0936	5	C7H17N3O4S+
322.0727	9	C13H14N4O4S+
323.0569	7	C19H7N4O2+
334.0759	5	C21H15ClO2+
335.081	9	C14H15N4O4S+
349.0606	105	C22H9N2O3+
350.0682	305	C19H13ClN3O2+
351.0744	190	C17H17ClFN2OS+
352.0672	88	C19H13[37]ClN3O2+
353.0722	50	C17H17[37]ClFN2OS+
354.0766	5	C19H15ClN2O3+
364.0834	12	C23H12N2O3+
365.0798	999	C19H14ClN4O2+
366.0826	220	C18[13]CH14ClN4O2+
367.0771	284	C19H14[37]ClN4O2+
368.0799	45	C19H15ClN3O3+
379.0956	314	C20H16ClN4O2+
380.0977	72	C19[13]CH16ClN4O2+
381.0926	83	C20H16[37]ClN4O2+
382.0949	15	C23H14N2O4+
393.1112	41	C21H23ClFO2S+
394.1131	12	C20[13]CH23ClFO2S+
395.1057	13	C21H23[37]ClFO2S+
422.1275	9	C20H22ClFN3O4+
458.106	18	C28H20ClFO3+
459.1113	12	C26H20ClN2O4+
460.1056	7	C28H20[37]ClFO3+
471.0861	10	C25H16ClN4O4+
581.1407	19	C29H27ClFN4O4S+
582.1427	8	C28[13]CH27ClFN4O4S+
583.1414	7	C29H27[37]ClFN4O4S+
