Mass spectrum: Picolinafen; LC-ESI-QTOF; MS2; CE: 30 eV; R=35000; [M-H]-
Name: Picolinafen
Name: N-(4-fluorophenyl)-6-[3-(trifluoromethyl)phenoxy]pyridine-2-carboxamide
Formula: C19H12F4N2O2
Exact mass: 376.0834905
SMILES: FC1=CC=C(NC(=O)C2=NC(OC3=CC=CC(=C3)C(F)(F)F)=CC=C2)C=C1
InChI: InChI=1S/C19H12F4N2O2/c20-13-7-9-14(10-8-13)24-18(26)16-5-2-6-17(25-16)27-15-4-1-3-12(11-15)19(21,22)23/h1-11H,(H,24,26)
Instrument: Bruker maXis Impact
Instrument type: LC-ESI-QTOF
Ms type: MS2
Ion mode: NEGATIVE
Ionization: ESI
Fragmentation mode: CID
Collision energy: 30 eV
Resolution: 35000
Column name: Acclaim RSLC C18 2.2um, 2.1x100mm, Thermo
Retention time: 12.281 min
Base peak: 375.0747
Precursor m/z: 375.0762
Precursor type: [M-H]-
m/z	relative intensity	assigned
136.0197	65	C10H2N-
160.0557	29	C10H7FN-
161.0208	118	C10H3F2-
170.0417	34	C11H5FN-
184.0364	53	C9H5F3N-
190.0477	105	C11H6F2N-
210.0522	999	C11H7F3N-
211.0561	104	C10[13]CH7F3N-
218.0385	31	C15H6O2-
218.0518	32	C16H7F-
231.0589	157	C12H8FN2O2-
238.0474	478	C9H8F4NO2-
239.0535	61	C8[13]CH8F4NO2-
282.0387	36	C16H6F2NO2-
375.0741	85	C19H11F4N2O2-
