Mass spectrum: Irgarol; LC-ESI-QTOF; MS2; CE: 40 eV; R=35000; [M+H]+
Name: Irgarol
Name: Cybutryne
Name: 2-N-tert-butyl-4-N-cyclopropyl-6-methylsulfanyl-1,3,5-triazine-2,4-diamine
Formula: C11H19N5S
Exact mass: 253.1361166
SMILES: CSC1=NC(NC(C)(C)C)=NC(NC2CC2)=N1
InChI: InChI=1S/C11H19N5S/c1-11(2,3)16-9-13-8(12-7-5-6-7)14-10(15-9)17-4/h7H,5-6H2,1-4H3,(H2,12,13,14,15,16)
Instrument: Bruker maXis Impact
Instrument type: LC-ESI-QTOF
Ms type: MS2
Ion mode: POSITIVE
Ionization: ESI
Fragmentation mode: CID
Collision energy: 40 eV
Resolution: 35000
Column name: Acclaim RSLC C18 2.2um, 2.1x100mm, Thermo
Retention time: 10.2 min
Base peak: 254.1439
Precursor m/z: 254.1434
Precursor type: [M+H]+
m/z	relative intensity	assigned
114.0367	11	C5H8NS+
116.0271	96	C3H6N3S+
117.0299	5	C6H3N3+
123.0657	16	C5H7N4+
125.0813	199	C5H9N4+
126.0106	6	C4H4N3S+
126.0844	13	C3H14N2OS+
127.0066	18	C3H3N4S+
131.063	5	C5H11N2S+
141.0215	13	C4H5N4S+
143.0374	11	C4H7N4S+
150.0763	256	C6H8N5+
151.08	15	C4H13N3OS+
152.0923	23	C6H10N5+
153.0208	7	C8HN4+
156.0328	52	C4H6N5S+
156.0581	422	C6H10N3S+
157.0398	5	C7H3N5+
157.0606	27	C5[13]CH10N3S+
158.0492	43	C4H8N5S+
168.0325	54	C5H6N5S+
170.0487	119	C5H8N5S+
171.0511	6	C4[13]CH8N5S+
171.0689	31	C6H11N4S+
172.0441	6	C5H8N4OS+
182.0491	22	C6H8N5S+
183.0571	10	C6H9N5S+
198.0807	999	C7H12N5S+
199.0807	98	C6[13]CH12N5S+
200.0763	42	C7H12N5[34]S+
