Mass spectrum: Diacetylmorphine (Heroin); LC-ESI-QTOF; MS2; CE: 40 eV; R=35000; [M+H]+
Name: Diacetylmorphine (Heroin)
Name: Diacetylmorphine
Name: [(4R,4aR,7S,7aR,12bS)-9-acetyloxy-3-methyl-2,4,4a,7,7a,13-hexahydro-1H-4,12-methanobenzofuro[3,2-e]isoquinoline-7-yl] acetate
Formula: C21H23NO5
Exact mass: 369.1576228
SMILES: CC(=O)Oc1ccc2c3c1O[C@@H]4[C@]35CCN([C@H](C2)[C@@H]5C=C[C@@H]4OC(=O)C)C
InChI: InChI=1S/C21H23NO5/c1-11(23)25-16-6-4-13-10-15-14-5-7-17(26-12(2)24)20-21(14,8-9-22(15)3)18(13)19(16)27-20/h4-7,14-15,17,20H,8-10H2,1-3H3/t14-,15+,17-,20-,21-/m0/s1
Instrument: Bruker maXis Impact
Instrument type: LC-ESI-QTOF
Ms type: MS2
Ion mode: POSITIVE
Ionization: ESI
Fragmentation mode: CID
Collision energy: 40 eV
Resolution: 35000
Column name: Acclaim RSLC C18 2.2um, 2.1x100mm, Thermo
Retention time: 4.836 min
Base peak: 370.1671
Precursor m/z: 370.1649
Precursor type: [M+H]+
m/z	relative intensity	assigned
145.0622	46	C10H9O+
152.0613	48	C12H8+
153.0701	54	C12H9+
155.0867	44	C12H11+
157.0645	41	C11H9O+
161.06	57	C10H9O2+
165.0702	391	C13H9+
166.075	82	C13H10+
173.0617	74	C11H9O2+
178.0839	36	C7H14O5+
179.0854	66	C14H11+
181.0633	182	C13H9O+
183.0802	301	C13H11O+
184.0846	37	C13H12O+
185.0612	87	C12H9O2+
187.0743	117	C12H11O2+
190.0779	47	C15H10+
191.0854	396	C15H11+
192.09	68	C14[13]CH11+
193.0644	580	C14H9O+
193.1011	48	C15H13+
194.07	112	C13[13]CH9O+
199.0768	42	C13H11O2+
201.0929	227	C13H13O2+
202.0893	41	C12H12NO2+
207.08	91	C15H11O+
208.091	35	C15H12O+
209.0604	379	C14H9O2+
209.0979	117	C15H13O+
210.0639	65	C14H10O2+
211.0758	999	C14H11O2+
212.0809	167	C13[13]CH11O2+
218.0757	33	C16H10O+
219.0809	309	C16H11O+
221.0943	76	C16H13O+
223.0726	48	C15H11O2+
225.0905	80	C15H13O2+
227.0716	77	C14H11O3+
227.1079	32	C15H15O2+
229.0867	246	C14H13O3+
229.1078	33	C11H17O5+
230.0889	52	C14H14O3+
237.0921	273	C16H13O2+
238.0935	78	C16H14O2+
239.1073	93	C16H15O2+
240.1042	81	C15H14NO2+
250.1247	49	C17H16NO+
253.0865	42	C16H13O3+
253.1094	66	C16H15NO2+
255.101	102	C16H15O3+
266.1185	52	C17H16NO2+
267.1292	45	C17H17NO2+
268.1335	962	C17H18NO2+
269.1384	190	C16[13]CH18NO2+
286.1447	119	C17H20NO3+
310.145	158	C19H20NO3+
311.1508	45	C19H21NO3+
328.1554	570	C19H22NO4+
329.158	111	C18[13]CH22NO4+
370.1673	895	C21H24NO5+
371.1699	243	C20[13]CH24NO5+
