Mass spectrum: N,O-Didesvenlafaxine; LC-ESI-QTOF; MS2; CE: 30 eV; R=35000; [M+H]+
Name: N,O-Didesvenlafaxine
Name: 4-[1-(1-hydroxycyclohexyl)-2-(methylamino)ethyl]phenol
Formula: C15H23NO2
Exact mass: 249.1728790
SMILES: CNCC(C1=CC=C(O)C=C1)C1(O)CCCCC1
InChI: InChI=1S/C15H23NO2/c1-16-11-14(12-5-7-13(17)8-6-12)15(18)9-3-2-4-10-15/h5-8,14,16-18H,2-4,9-11H2,1H3
Instrument: Bruker maXis Impact
Instrument type: LC-ESI-QTOF
Ms type: MS2
Ion mode: POSITIVE
Ionization: ESI
Fragmentation mode: CID
Collision energy: 30 eV
Resolution: 35000
Column name: Acclaim RSLC C18 2.2um, 2.1x100mm, Thermo
Retention time: 4.8 min
Base peak: 250.1798
Precursor m/z: 250.1802
Precursor type: [M+H]+
m/z	relative intensity	assigned
115.0543	24	C9H7+
117.0688	9	C9H9+
119.0485	16	C8H7O+
121.0633	66	C8H9O+
122.0667	11	C3H10N2O3+
131.0479	52	C9H7O+
131.0846	30	C10H11+
133.0639	999	C9H9O+
134.0673	88	C4H10N2O3+
135.067	52	C8H9NO+
136.0699	13	C3H10N3O3+
138.1271	15	C9H16N+
141.0681	32	C11H9+
144.0562	30	C10H8O+
145.0636	309	C10H9O+
146.068	49	C5H10N2O3+
147.0784	43	C10H11O+
148.0747	9	C9H10NO+
149.0816	25	C9H11NO+
150.0901	77	C9H12NO+
155.0588	13	C7H9NO3+
159.079	379	C11H11O+
160.0828	52	C6H12N2O3+
169.0753	16	C11H9N2+
173.0945	31	C12H13O+
201.1261	130	C14H17O+
202.1301	18	C9H18N2O3+
232.168	22	C15H22NO+
