Mass spectrum: O-Desvenlafaxine; LC-ESI-QTOF; MS2; CE: 40 eV; R=35000; [M+H]+
Name: O-Desvenlafaxine
Name: Desvenlafaxine
Name: 4-[2-(dimethylamino)-1-(1-hydroxycyclohexyl)ethyl]phenol
Formula: C16H25NO2
Exact mass: 263.1885290
SMILES: CN(C)CC(C1=CC=C(O)C=C1)C1(O)CCCCC1
InChI: InChI=1S/C16H25NO2/c1-17(2)12-15(13-6-8-14(18)9-7-13)16(19)10-4-3-5-11-16/h6-9,15,18-19H,3-5,10-12H2,1-2H3
Instrument: Bruker maXis Impact
Instrument type: LC-ESI-QTOF
Ms type: MS2
Ion mode: POSITIVE
Ionization: ESI
Fragmentation mode: CID
Collision energy: 40 eV
Resolution: 35000
Column name: Acclaim RSLC C18 2.2um, 2.1x100mm, Thermo
Retention time: 4.7 min
Base peak: 264.1958
Precursor m/z: 264.1958
Precursor type: [M+H]+
m/z	relative intensity	assigned
107.0484	14	C7H7O+
115.054	61	C9H7+
116.0615	14	C9H8+
117.0692	17	C9H9+
119.0487	10	C8H7O+
121.0639	67	C8H9O+
127.0533	21	C10H7+
128.0619	6	C10H8+
129.0687	25	C10H9+
131.0487	84	C9H7O+
131.085	72	C10H11+
132.0532	15	C4H8N2O3+
132.0869	11	C5H12N2O2+
133.064	999	C9H9O+
134.0671	99	C4H10N2O3+
135.0742	8	C4H11N2O3+
141.0686	79	C11H9+
142.0724	9	C6H10N2O2+
144.0557	141	C10H8O+
145.0637	325	C10H9O+
146.0682	41	C5H10N2O3+
147.0788	50	C10H11O+
148.0767	9	C9H10NO+
149.0823	102	C9H11NO+
150.0868	8	C4H12N3O3+
152.1427	13	C10H18N+
155.0595	47	C10H7N2+
155.0853	19	C12H11+
156.0639	6	C7H10NO3+
157.0627	20	C11H9O+
158.0701	14	C11H10O+
159.0795	361	C11H11O+
160.0832	45	C6H12N2O3+
162.0909	7	C10H12NO+
163.0979	78	C10H13NO+
164.1057	49	C10H14NO+
165.108	9	C5H15N3O3+
168.0923	6	C13H12+
169.0748	40	C11H9N2+
170.0789	8	C8H12NO3+
172.0869	9	C12H12O+
173.0951	19	C12H13O+
183.115	11	C14H15+
201.1258	15	C14H17O+
