Mass spectrum: Moclobemide; LC-ESI-QTOF; MS2; CE: 20 eV; R=35000; [M-H]-
Name: Moclobemide
Name: 4-chloro-N-(2-morpholin-4-ylethyl)benzamide
Formula: C13H17ClN2O2
Exact mass: 268.0978555
SMILES: c1cc(ccc1C(=O)NCCN2CCOCC2)Cl
InChI: InChI=1S/C13H17ClN2O2/c14-12-3-1-11(2-4-12)13(17)15-5-6-16-7-9-18-10-8-16/h1-4H,5-10H2,(H,15,17)
Instrument: Bruker maXis Impact
Instrument type: LC-ESI-QTOF
Ms type: MS2
Ion mode: NEGATIVE
Ionization: ESI
Fragmentation mode: CID
Collision energy: 20 eV
Resolution: 35000
Column name: Acclaim RSLC C18 2.2um, 2.1x100mm, Thermo
Retention time: 6.883 min
Base peak: 267.0901
Precursor m/z: 267.0906
Precursor type: [M-H]-
m/z	relative intensity	assigned
154.0067	553	C7H5ClNO-
267.0902	999	C13H16ClN2O2-
