Mass spectrum: Metazachlor OA; LC-ESI-QTOF; MS2; CE: 40 eV; R=35000; [M+H]+
Name: Metazachlor OA
Name: [(2,6-Dimethylphenyl)(1H-pyrazol-1-ylmethyl)amino](oxo)acetic acid
Name: 2-[2,6-dimethyl-N-(pyrazol-1-ylmethyl)anilino]-2-oxoacetic acid
Formula: C14H15N3O3
Exact mass: 273.1113413
SMILES: CC1=CC=CC(C)=C1N(CN1C=CC=N1)C(=O)C(O)=O
InChI: InChI=1S/C14H15N3O3/c1-10-5-3-6-11(2)12(10)17(13(18)14(19)20)9-16-8-4-7-15-16/h3-8H,9H2,1-2H3,(H,19,20)
Instrument: Bruker maXis Impact
Instrument type: LC-ESI-QTOF
Ms type: MS2
Ion mode: POSITIVE
Ionization: ESI
Fragmentation mode: CID
Collision energy: 40 eV
Resolution: 35000
Column name: Acclaim RSLC C18 2.2um, 2.1x100mm, Thermo
Retention time: 5.145 min
Base peak: 274.1175
Precursor m/z: 274.1186
Precursor type: [M+H]+
m/z	relative intensity	assigned
117.0559	41	C5H9O3+
118.0641	71	C8H8N+
119.0731	83	C8H9N+
120.074	27	C3H10N3O2+
132.0796	83	C9H10N+
133.0837	22	C4H11N3O2+
134.095	999	C6H14O3+
135.0983	103	C5[13]CH14O3+
