Mass spectrum: Decoquinate; LC-ESI-QTOF; MS2; CE: 10 eV; R=35000; [M+H]+
Name: Decoquinate
Name: ethyl 6-decoxy-7-ethoxy-4-oxo-1H-quinoline-3-carboxylate
Formula: C24H35NO5
Exact mass: 417.2515232
SMILES: CCCCCCCCCCOc1cc2c(cc1OCC)ncc(c2O)C(=O)OCC
InChI: InChI=1S/C24H35NO5/c1-4-7-8-9-10-11-12-13-14-30-21-15-18-20(16-22(21)28-5-2)25-17-19(23(18)26)24(27)29-6-3/h15-17H,4-14H2,1-3H3,(H,25,26)
Instrument: Bruker maXis Impact
Instrument type: LC-ESI-QTOF
Ms type: MS2
Ion mode: POSITIVE
Ionization: ESI
Fragmentation mode: CID
Collision energy: 10 eV
Resolution: 35000
Column name: Acclaim RSLC C18 2.2um, 2.1x100mm, Thermo
Retention time: 13.4 min
Base peak: 418.2579
Precursor m/z: 418.2588
Precursor type: [M+H]+
m/z	relative intensity	assigned
242.1738	5	C13H24NO3+
390.2314	5	C22H32NO5+
418.2593	999	C24H36NO5+
419.2634	209	C23[13]CH36NO5+
420.2673	26	C22[13]C2H36NO5+
