Mass spectrum: Iminostilbene; LC-ESI-QTOF; MS2; CE: 50 eV; R=35000; [M+H]+
Name: Iminostilbene
Name: 11H-benzo[b][1]benzazepine
Formula: C14H11N
Exact mass: 193.0891494
SMILES: N1C2=C(C=CC=C2)C=CC2=C1C=CC=C2
InChI: InChI=1S/C14H11N/c1-3-7-13-11(5-1)9-10-12-6-2-4-8-14(12)15-13/h1-10,15H
Instrument: Bruker maXis Impact
Instrument type: LC-ESI-QTOF
Ms type: MS2
Ion mode: POSITIVE
Ionization: ESI
Fragmentation mode: CID
Collision energy: 50 eV
Resolution: 35000
Column name: Acclaim RSLC C18 2.2um, 2.1x100mm, Thermo
Retention time: 10.0 min
Base peak: 194.0955
Precursor m/z: 194.0964
Precursor type: [M+H]+
m/z	relative intensity	assigned
115.0534	41	C9H7+
126.0444	76	C10H6+
128.0495	90	C9H6N+
129.0558	32	C9H7N+
139.0538	263	C11H7+
140.0495	116	C10H6N+
150.0451	163	C12H6+
151.0528	200	C12H7+
152.0605	589	C12H8+
153.0568	222	C11H7N+
163.0532	111	C13H7+
164.0613	154	C13H8+
166.0648	344	C12H8N+
167.0721	552	C12H9N+
168.0569	37	C12H8O+
169.0637	252	C10H7N3+
176.0608	106	C14H8+
177.0567	262	C13H7N+
179.0708	672	C13H9N+
190.0641	250	C14H8N+
193.0872	999	C14H11N+
194.0928	249	C13[13]CH11N+
