Mass spectrum: Pyridaben; LC-ESI-QTOF; MS2; CE: Ramp 22.9-34.4 eV; R=35000; [M+H]+
Name: Pyridaben
Name: 2-tert-butyl-5-[(4-tert-butylphenyl)methylsulfanyl]-4-chloropyridazin-3-one
Formula: C19H25ClN2OS
Exact mass: 364.1376121
SMILES: CC(C)(C)N1N=CC(SCC2=CC=C(C=C2)C(C)(C)C)=C(Cl)C1=O
InChI: InChI=1S/C19H25ClN2OS/c1-18(2,3)14-9-7-13(8-10-14)12-24-15-11-21-22(19(4,5)6)17(23)16(15)20/h7-11H,12H2,1-6H3
Instrument: Bruker maXis Impact
Instrument type: LC-ESI-QTOF
Ms type: MS2
Ion mode: POSITIVE
Ionization: ESI
Fragmentation mode: CID
Collision energy: Ramp 22.9-34.4 eV
Resolution: 35000
Column name: Acclaim RSLC C18 2.2um, 2.1x100mm, Thermo
Retention time: 13.444 min
Base peak: 365.1448
Precursor m/z: 365.1449
Precursor type: [M+H]+
m/z	relative intensity	assigned
105.0708	17	C8H9+
117.0691	12	C9H9+
119.0853	37	C9H11+
132.0925	46	C10H12+
147.1163	999	C11H15+
148.1195	130	C10[13]CH15+
149.1225	5	C9[13]C2H15+
309.0823	315	C15H18ClN2OS+
310.0854	68	C14[13]CH18ClN2OS+
311.0795	132	C15H18[37]ClN2OS+
