Mass spectrum: Thiacloprid-amide; LC-ESI-QTOF; MS2; CE: 30 eV; R=35000; [M+H]+
Name: Thiacloprid-amide
Name: SCHEMBL2190770
Name: [3-[(6-chloropyridin-3-yl)methyl]-1,3-thiazolidin-2-ylidene]urea
Formula: C10H11ClN4OS
Exact mass: 270.0342097
SMILES: NC(=O)N=C1SCCN1CC1=CN=C(Cl)C=C1
InChI: InChI=1S/C10H11ClN4OS/c11-8-2-1-7(5-13-8)6-15-3-4-17-10(15)14-9(12)16/h1-2,5H,3-4,6H2,(H2,12,16)
Instrument: Bruker maXis Impact
Instrument type: LC-ESI-QTOF
Ms type: MS2
Ion mode: POSITIVE
Ionization: ESI
Fragmentation mode: CID
Collision energy: 30 eV
Resolution: 35000
Column name: Acclaim RSLC C18 2.2um, 2.1x100mm, Thermo
Retention time: 4.7 min
Base peak: 271.0412
Precursor m/z: 271.0415
Precursor type: [M+H]+
m/z	relative intensity	assigned
126.0098	999	C6H5ClN+
127.0131	58	C5[13]CH5ClN+
128.0068	214	C6H5[37]ClN+
129.0105	16	C5[13]CH5[37]ClN+
132.0545	15	C7H6N3+
165.0468	8	C10H10Cl+
168.0306	15	C10H4N2O+
186.0128	22	C8H9ClNS+
187.0169	3	C7[13]CH9ClNS+
188.0094	7	C8H9[37]ClNS+
192.0583	22	C9H10N3S+
228.0346	84	C9H11ClN3S+
229.0378	9	C8[13]CH11ClN3S+
230.0315	25	C9H11[37]ClN3S+
254.0147	9	C10H9ClN3OS+
