Mass spectrum: 1,4-Dichlorobenzene; GC-APCI-QTOF; MS2; CE: 40 eV; R=35000; [M]+
Name: 1,4-Dichlorobenzene
Formula: C6H4Cl2
Exact mass: 145.9690
SMILES: C1=CC(=CC=C1Cl)Cl
InChI: InChI=1S/C6H4Cl2/c7-5-1-2-6(8)4-3-5/h1-4H
Instrument: Bruker 450 GC coupled to maXis Impact
Instrument type: GC-APCI-QTOF
Ms type: MS2
Ion mode: POSITIVE
Ionization: APCI
Fragmentation mode: CID
Collision energy: 40 eV
Resolution: 35000
Column name: Rxi-5Sil MS column, 30m, 0.25mm i.d., 0.25Âµm film thickness, Restek
Retention time: 7.616 min
Base peak: 145.9705
Precursor m/z: 145.9685
Precursor type: [M]+
m/z	relative intensity	assigned
75.0244	669	C6H3+
145.9703	999	C6H4Cl2+
