Mass spectrum: Diuron-desmonomethyl; LC-ESI-QTOF; MS2; CE: 10 eV; R=35000; [M+H]+
Name: Diuron-desmonomethyl
Name: Monomethyldiuron
Name: 1-(3,4-dichlorophenyl)-3-methylurea
Formula: C8H8Cl2N2O
Exact mass: 218.0013682
SMILES: CNC(=O)NC1=CC(Cl)=C(Cl)C=C1
InChI: InChI=1S/C8H8Cl2N2O/c1-11-8(13)12-5-2-3-6(9)7(10)4-5/h2-4H,1H3,(H2,11,12,13)
Instrument: Bruker maXis Impact
Instrument type: LC-ESI-QTOF
Ms type: MS2
Ion mode: POSITIVE
Ionization: ESI
Fragmentation mode: CID
Collision energy: 10 eV
Resolution: 35000
Column name: Acclaim RSLC C18 2.2um, 2.1x100mm, Thermo
Retention time: 8.4 min
Base peak: 219.008
Precursor m/z: 219.0086
Precursor type: [M+H]+
m/z	relative intensity	assigned
161.9862	192	C6H6Cl2N+
162.9893	12	C5[13]CH6Cl2N+
163.9832	111	C6H6[37]Cl[35]ClN+
164.9863	4	C5[13]CH6[37]Cl[35]ClN+
219.008	999	C8H9Cl2N2O+
220.0112	82	C7[13]CH9Cl2N2O+
221.0051	748	C8H9[37]Cl[35]ClN2O+
222.008	26	C7[13]CH9[37]Cl[35]ClN2O+
