Mass spectrum: Diflufenican; LC-ESI-QTOF; MS2; CE: 10 eV; R=35000; [M+H]+
Name: Diflufenican
Name: N-(2,4-difluorophenyl)-2-[3-(trifluoromethyl)phenoxy]pyridine-3-carboxamide
Formula: C19H11F5N2O2
Exact mass: 394.0740687
SMILES: FC1=CC=C(NC(=O)C2=CC=CN=C2OC2=CC=CC(=C2)C(F)(F)F)C(F)=C1
InChI: InChI=1S/C19H11F5N2O2/c20-12-6-7-16(15(21)10-12)26-17(27)14-5-2-8-25-18(14)28-13-4-1-3-11(9-13)19(22,23)24/h1-10H,(H,26,27)
Instrument: Bruker maXis Impact
Instrument type: LC-ESI-QTOF
Ms type: MS2
Ion mode: POSITIVE
Ionization: ESI
Fragmentation mode: CID
Collision energy: 10 eV
Resolution: 35000
Column name: Acclaim RSLC C18 2.2um, 2.1x100mm, Thermo
Retention time: 11.750 min
Base peak: 395.0816
Precursor m/z: 395.0813
Precursor type: [M+H]+
m/z	relative intensity	assigned
266.0427	23	C13H7F3NO2+
395.0821	999	C19H12F5N2O2+
396.0849	209	C18[13]CH12F5N2O2+
397.0881	23	C17[13]C2H12F5N2O2+
