Mass spectrum: Nornicotine; LC-ESI-QTOF; MS2; CE: 20 eV; R=35000; [M+H]+
Name: Nornicotine
Name: 3-(pyrrolidin-2-yl)pyridine
Name: 3-pyrrolidin-2-ylpyridine
Formula: C9H12N2
Exact mass: 148.1000484
SMILES: C1CNC(C1)C1=CC=CN=C1
InChI: InChI=1S/C9H12N2/c1-3-8(7-10-5-1)9-4-2-6-11-9/h1,3,5,7,9,11H,2,4,6H2
Instrument: Bruker maXis Impact
Instrument type: LC-ESI-QTOF
Ms type: MS2
Ion mode: POSITIVE
Ionization: ESI
Fragmentation mode: CID
Collision energy: 20 eV
Resolution: 35000
Column name: Acclaim RSLC C18 2.2um, 2.1x100mm, Thermo
Retention time: 2.7 min
Base peak: 149.1064
Precursor m/z: 149.1073
Precursor type: [M+H]+
m/z	relative intensity	assigned
114.0927	10	C6H12NO+
115.0543	27	C9H7+
117.0566	407	C8H7N+
118.0619	57	C7[13]CH7N+
120.0805	82	C8H10N+
130.0646	999	C9H8N+
131.0684	108	C8[13]CH8N+
132.0798	933	C9H10N+
132.101	217	C4H12N4O+
133.0836	86	C8[13]CH10N+
149.1065	559	C9H13N2+
150.1108	271	8[13]CH13N2+
