Mass spectrum: Benzocaine; LC-ESI-QTOF; MS2; CE: Ramp 16.8-25.2 eV; R=35000; [M+H]+
Name: Benzocaine
Name: ethyl 4-aminobenzoate
Formula: C9H11NO2
Exact mass: 165.0789786
SMILES: CCOC(=O)C1=CC=C(N)C=C1
InChI: InChI=1S/C9H11NO2/c1-2-12-9(11)7-3-5-8(10)6-4-7/h3-6H,2,10H2,1H3
Instrument: Bruker maXis Impact
Instrument type: LC-ESI-QTOF
Ms type: MS2
Ion mode: POSITIVE
Ionization: ESI
Fragmentation mode: CID
Collision energy: Ramp 16.8-25.2 eV
Resolution: 35000
Column name: Acclaim RSLC C18 2.2um, 2.1x100mm, Thermo
Retention time: 6.298 min
Base peak: 265.1918
Precursor m/z: 166.0863
Precursor type: [M+H]+
m/z	relative intensity	assigned
53.0388	20	C4H5+
59.049	10	C3H7O+
65.038	13	C5H5+
67.0533	6	C5H7+
68.0483	6	C4H6N+
73.0648	15	C4H9O+
77.0376	10	C6H5+
92.0502	25	C6H6N+
93.0572	22	C6H7N+
94.0661	381	C6H8N+
95.0495	31	C6H7O+
95.0685	23	C5[13]CH8N+
110.0604	12	C6H8NO+
120.0442	999	C7H6NO+
121.047	84	C6[13]CH6NO+
138.0546	961	C7H8NO2+
139.058	72	C6[13]CH8NO2+
140.0593	5	C7H8NO[18]O+
166.0853	35	C9H12NO2+
