Mass spectrum: Musk ketone; LC-ESI-QTOF; MS2; CE: 10 eV; R=35000; [M+H]+
Name: Musk ketone
Name: 1-(4-tert-butyl-2,6-dimethyl-3,5-dinitrophenyl)ethanone
Formula: C14H18N2O5
Exact mass: 294.1215717
SMILES: CC(=O)C1=C(C)C(=C(C(=C1C)[N+]([O-])=O)C(C)(C)C)[N+]([O-])=O
InChI: InChI=1S/C14H18N2O5/c1-7-10(9(3)17)8(2)13(16(20)21)11(14(4,5)6)12(7)15(18)19/h1-6H3
Instrument: Bruker maXis Impact
Instrument type: LC-ESI-QTOF
Ms type: MS2
Ion mode: POSITIVE
Ionization: ESI
Fragmentation mode: CID
Collision energy: 10 eV
Resolution: 35000
Column name: Acclaim RSLC C18 2.2um, 2.1x100mm, Thermo
Retention time: 9.910 min
Base peak: 241.1723
Precursor m/z: 295.1288
Precursor type: [M+H]+
m/z	relative intensity	assigned
183.0669	694	C12H9NO+
203.1049	622	C13H15O2+
221.1163	999	C13H17O3+
