Mass spectrum: Ethyl 2-Cyano-3,3-diphenylacrylate; GC-APCI-QTOF; MS2; CE: 20 eV; R=35000; [M]+
Name: Ethyl 2-Cyano-3,3-diphenylacrylate
Formula: C18H15NO2
Exact mass: 277.1103
SMILES: CCOC(=O)C(=C(C1=CC=CC=C1)C2=CC=CC=C2)C#N
InChI: InChI=1S/C18H15NO2/c1-2-21-18(20)16(13-19)17(14-9-5-3-6-10-14)15-11-7-4-8-12-15/h3-12H,2H2,1H3
Instrument: Bruker 450 GC coupled to maXis Impact
Instrument type: GC-APCI-QTOF
Ms type: MS2
Ion mode: POSITIVE
Ionization: APCI
Fragmentation mode: CID
Collision energy: 20 eV
Resolution: 35000
Column name: Rxi-5Sil MS column, 30m, 0.25mm i.d., 0.25Âµm film thickness, Restek
Retention time: 20.384 min
Base peak: 277.1077
Precursor m/z: 277.1097
Precursor type: [M]+
m/z	relative intensity	assigned
105.0328	14	C7H5O+
133.1023	6	C10H13+
135.1179	8	C10H15+
147.0477	10	C9H7O2+
147.1193	5	C11H15+
165.0714	25	C13H9+
166.0757	5	C13H10+
171.0337	6	C10H5NO2+
172.0417	98	C10H6NO2+
173.0445	8	C10H7NO2+
176.0639	7	C14H8+
177.0709	6	C14H9+
178.0807	78	C14H10+
179.0891	13	C14H11+
180.0823	6	C13H10N+
182.0976	7	C13H12N+
183.083	9	C13H11O+
190.0669	12	C14H8N+
193.0927	8	C14H11N+
200.0692	6	C12H10NO2+
203.0731	131	C15H9N+
204.0811	580	C15H10N+
205.0864	118	C15H11N+
206.0714	13	C15H10O+
206.0945	15	C15H12N+
207.0832	13	C15H11O+
218.0593	24	C15H8NO+
218.0978	11	C16H12N+
220.0755	29	C15H10NO+
221.0855	11	C15H11NO+
222.0668	9	C15H10O2+
222.09	27	C15H12NO+
230.059	39	C16H8NO+
230.0975	8	C17H12N+
231.067	52	C16H9NO+
232.0742	999	C16H10NO+
233.1154	7	C17H15N+
235.0648	5	C15H9NO2+
248.069	855	C16H10NO2+
249.074	120	C16H11NO2+
250.0842	159	C16H12NO2+
258.0923	7	C18H12NO+
276.1003	112	C18H14NO2+
277.1056	27	C18H15NO2+
