Mass spectrum: Aflatoxin B1; LC-ESI-QTOF; MS2; CE: 40 eV; R=35000; [M+H]+
Name: Aflatoxin B1
Name: 4-(Methyloxy)-2,3,6a,9a-tetrahydrocyclopenta[c]furo[3`,2`:4,5]furo[2,3-h]chromene-1,11-dione
Name: 11-methoxy-6,8,19-trioxapentacyclo[10.7.0.02,9.03,7.013,17]nonadeca-1,4,9,11,13(17)-pentaene-16,18-dione
Class: Natural Product; Fungal metabolite
Formula: C17H12O6
Exact mass: 312.0634
SMILES: COC1=C2C3=C(C(=O)CC3)C(=O)OC2=C4C5C=COC5OC4=C1
InChI: InChI=1S/C17H12O6/c1-20-10-6-11-14(8-4-5-21-17(8)22-11)15-13(10)7-2-3-9(18)12(7)16(19)23-15/h4-6,8,17H,2-3H2,1H3
Instrument: Bruker maXis Impact
Instrument type: LC-ESI-QTOF
Ms type: MS2
Ion mode: POSITIVE
Ionization: ESI
Fragmentation mode: CID
Collision energy: 40 eV
Resolution: 35000
Column name: Acclaim RSLC C18 2.2um, 2.1x100mm, Thermo
Retention time: 6.785 min
Base peak: 313.0711
Precursor m/z: 313.0707
Precursor type: [M+H]+
m/z	relative intensity	assigned
115.0541	12	C9H7+
128.0618	24	C10H8+
129.0694	14	C10H9+
131.0486	5	C9H7O+
139.0537	5	C11H7+
141.0694	36	C11H9+
142.076	12	C11H10+
143.049	6	C10H7O+
143.0846	6	C11H11+
144.0564	13	C10H8O+
145.0644	14	C10H9O+
152.0616	7	C12H8+
153.0696	10	C12H9+
155.0483	9	C11H7O+
155.085	10	C12H11+
156.0564	6	C11H8O+
157.0642	19	C11H9O+
158.0722	45	C11H10O+
159.0792	18	C11H11O+
161.059	8	C10H9O2+
168.0564	21	C12H8O+
169.0644	37	C12H9O+
170.0715	20	C12H10O+
171.0434	25	C11H7O2+
171.0789	9	C12H11O+
172.0506	15	C11H8O2+
173.0588	11	C11H9O2+
173.0958	35	C12H13O+
177.0533	7	C10H9O3+
181.0643	6	C13H9O+
183.0434	7	C12H7O2+
183.0796	8	C13H11O+
184.0515	14	C12H8O2+
185.0594	83	C12H9O2+
186.0666	78	C12H10O2+
187.0384	9	C11H7O3+
187.0748	64	C12H11O2+
188.0467	10	C11H8O3+
188.0786	10	C12H12O2+
189.0539	9	C11H9O3+
191.0703	16	C11H11O3+
195.0433	5	C13H7O2+
196.0515	32	C13H8O2+
197.0594	49	C13H9O2+
198.0663	32	C13H10O2+
199.0391	23	C12H7O3+
199.0742	15	C13H11O2+
200.0461	38	C12H8O3+
201.0535	21	C12H9O3+
201.0908	151	C13H13O2+
203.0704	10	C12H11O3+
205.0492	6	C11H9O4+
211.0392	5	C13H7O3+
211.075	11	C14H11O2+
212.0463	6	C13H8O3+
213.0544	199	C13H9O3+
214.0621	440	C13H10O3+
215.0679	111	C13H11O3+
216.0413	11	C12H8O4+
217.0486	6	C12H9O4+
219.0654	10	C12H11O4+
223.0389	11	C14H7O3+
224.0463	71	C14H8O3+
225.0537	54	C14H9O3+
226.0611	30	C14H10O3+
227.0333	55	C13H7O4+
227.0691	13	C14H11O3+
228.0405	33	C13H8O4+
228.0782	11	C14H12O3+
229.048	29	C13H9O4+
229.0855	109	C14H13O3+
230.0539	5	C13H10O4+
231.0656	11	C13H11O4+
239.0694	9	C15H11O3+
240.0417	5	C14H8O4+
241.0495	999	C14H9O4+
242.0563	481	C14H10O4+
243.063	137	C14H11O4+
244.0683	19	C14H12O4+
245.0442	9	C13H9O5+
251.0329	15	C15H7O4+
252.0411	109	C15H8O4+
253.0487	118	C15H9O4+
254.0537	27	C15H10O4+
255.0283	30	C14H7O5+
255.0652	9	C15H11O4+
256.0343	11	C14H8O5+
256.0724	10	C15H12O4+
257.0428	10	C14H9O5+
257.0803	111	C15H13O4+
259.0597	53	C14H11O5+
260.0626	5	C14H12O5+
269.0444	773	C15H9O5+
270.0512	526	C15H10O5+
271.0559	95	C15H11O5+
272.0633	16	C15H12O5+
280.0364	24	C16H8O5+
281.043	29	C16H9O5+
282.0488	7	C16H10O5+
284.0675	119	C16H12O5+
285.0752	397	C16H13O5+
297.0391	5	C16H9O6+
298.0466	99	C16H10O6+
299.0495	17	C16H11O6+
313.0702	147	C17H13O6+
