Mass spectrum: Vildagliptin; LC-ESI-QTOF; MS2; CE: 30 eV; R=35000; [M+Na]+
Name: Vildagliptin
Name: (2S)-1-[2-[(3-hydroxy-1-adamantyl)amino]acetyl]pyrrolidine-2-carbonitrile
Formula: C17H25N3O2
Exact mass: 303.1946770
SMILES: C1C[C@H](N(C1)C(=O)CNC23CC4CC(C2)CC(C4)(C3)O)C#N
InChI: InChI=1S/C17H25N3O2/c18-9-14-2-1-3-20(14)15(21)10-19-16-5-12-4-13(6-16)8-17(22,7-12)11-16/h12-14,19,22H,1-8,10-11H2/t12?,13?,14-,16?,17?/m0/s1
Instrument: Bruker maXis Impact
Instrument type: LC-ESI-QTOF
Ms type: MS2
Ion mode: POSITIVE
Ionization: ESI
Fragmentation mode: CID
Collision energy: 30 eV
Resolution: 35000
Column name: Acclaim RSLC C18 2.2um, 2.1x100mm, Thermo
Retention time: 3.323 min
Base peak: 304.2046
Precursor m/z: 326.1839
Precursor type: [M+Na]+
m/z	relative intensity	assigned
299.1786	222	C16H24N2NaO2+
326.1863	999	C17H25N3NaO2+
327.1906	240	C16[13]CH25N3NaO2+
