Mass spectrum: Dimethenamid; LC-ESI-QTOF; MS2; CE: 20 eV; R=35000; [M+H]+
Name: Dimethenamid
Name: 2-chloro-N-(2,4-dimethylthiophen-3-yl)-N-(1-methoxypropan-2-yl)acetamide
Formula: C12H18ClNO2S
Exact mass: 275.0746775
SMILES: COCC(C)N(C(=O)CCl)C1=C(C)SC=C1C
InChI: InChI=1S/C12H18ClNO2S/c1-8-7-17-10(3)12(8)14(11(15)5-13)9(2)6-16-4/h7,9H,5-6H2,1-4H3
Instrument: Bruker maXis Impact
Instrument type: LC-ESI-QTOF
Ms type: MS2
Ion mode: POSITIVE
Ionization: ESI
Fragmentation mode: CID
Collision energy: 20 eV
Resolution: 35000
Column name: Acclaim RSLC C18 2.2um, 2.1x100mm, Thermo
Retention time: 9.2 min
Base peak: 404.2067
Precursor m/z: 276.082
Precursor type: [M+H]+
m/z	relative intensity	assigned
167.0754	6	C9H13NS+
168.0829	138	C3H19ClNO2S+
186.0126	6	C11H6OS+
204.0235	5	C11H8O2S+
244.0553	999	C11H15ClNOS+
245.0582	113	C10[13]CH15ClNOS+
246.0523	286	C11H15[37]ClNOS+
247.0549	22	C10[13]CH15[37]ClNOS+
