Mass spectrum: Norfludiazepam; LC-ESI-QTOF; MS2; CE: 20 eV; R=35000; [M-H]-
Name: Norfludiazepam
Name: Norflurazepam
Name: 7-chloro-5-(2-fluorophenyl)-1,3-dihydro-1,4-benzodiazepin-2-one
Formula: C15H10ClFN2O
Exact mass: 288.0465688
SMILES: c1ccc(c(c1)C2=NCC(=O)Nc3c2cc(cc3)Cl)F
InChI: InChI=1S/C15H10ClFN2O/c16-9-5-6-13-11(7-9)15(18-8-14(20)19-13)10-3-1-2-4-12(10)17/h1-7H,8H2,(H,19,20)
Instrument: Bruker maXis Impact
Instrument type: LC-ESI-QTOF
Ms type: MS2
Ion mode: NEGATIVE
Ionization: ESI
Fragmentation mode: CID
Collision energy: 20 eV
Resolution: 35000
Column name: Acclaim RSLC C18 2.2um, 2.1x100mm, Thermo
Retention time: 8.512 min
Base peak: 287.0387
Precursor m/z: 287.0393
Precursor type: [M-H]-
m/z	relative intensity	assigned
259.0198	328	C14H7ClFNO-
260.0266	90	C14H8ClFNO-
261.0209	86	C14H7[37]ClFNO-
267.0326	999	C15H8ClN2O-
268.0383	185	C14[13]CH8ClN2O-
269.0296	256	C15H8[37]ClN2O-
287.0411	71	C15H9ClFN2O-
