Mass spectrum: Methiocarb-sulfoxide; LC-ESI-QTOF; MS2; CE: 50 eV; R=35000; [M+H]+
Name: Methiocarb-sulfoxide
Name: Mesurol sulfoxide
Name: (3,5-dimethyl-4-methylsulfinylphenyl) N-methylcarbamate
Formula: C11H15NO3S
Exact mass: 241.0772643
SMILES: CNC(=O)OC1=CC(C)=C(C(C)=C1)S(C)=O
InChI: InChI=1S/C11H15NO3S/c1-7-5-9(15-11(13)12-3)6-8(2)10(7)16(4)14/h5-6H,1-4H3,(H,12,13)
Instrument: Bruker maXis Impact
Instrument type: LC-ESI-QTOF
Ms type: MS2
Ion mode: POSITIVE
Ionization: ESI
Fragmentation mode: CID
Collision energy: 50 eV
Resolution: 35000
Column name: Acclaim RSLC C18 2.2um, 2.1x100mm, Thermo
Retention time: 4.7 min
Base peak: 242.0841
Precursor m/z: 242.0845
Precursor type: [M+H]+
m/z	relative intensity	assigned
107.0487	10	C7H7O+
109.064	16	C7H9O+
121.0641	189	C8H9O+
122.0718	473	C8H10O+
123.0247	6	C7H7S+
123.0428	11	C7H7O2+
123.0753	43	C7[13]CH10O+
125.041	17	C7H9S+
135.0246	6	C8H7S+
135.0789	5	C9H11O+
137.0044	9	C7H5OS+
137.0579	9	C8H9O2+
138.0119	6	C7H6OS+
138.0663	6	C8H10O2+
151.0198	128	C8H7OS+
152.0275	116	C8H8OS+
153.0357	999	C8H9OS+
154.0389	72	C7[13]CH9OS+
155.0318	28	C8H9O[34]S+
168.059	96	C9H12OS+
169.0625	9	C8[13]CH12OS+
170.0384	109	C8H10O2S+
171.042	9	C7[13]CH10O2S+
172.0349	6	C8H10O2[34]S+
185.0622	5	C9H13O2S+
