Mass spectrum: 7-amino-flunitrazepam; LC-ESI-QTOF; MS2; CE: 50 eV; R=35000; [M+H]+
Name: 7-amino-flunitrazepam
Name: 7-Aminoflunitrazepam
Name: 7-amino-5-(2-fluorophenyl)-1-methyl-3H-1,4-benzodiazepin-2-one
Formula: C16H14FN3O
Exact mass: 283.1120903
SMILES: CN1C2=CC=C(N)C=C2C(=NCC1=O)C1=CC=CC=C1F
InChI: InChI=1S/C16H14FN3O/c1-20-14-7-6-10(18)8-12(14)16(19-9-15(20)21)11-4-2-3-5-13(11)17/h2-8H,9,18H2,1H3
Instrument: Bruker maXis Impact
Instrument type: LC-ESI-QTOF
Ms type: MS2
Ion mode: POSITIVE
Ionization: ESI
Fragmentation mode: CID
Collision energy: 50 eV
Resolution: 35000
Column name: Acclaim RSLC C18 2.2um, 2.1x100mm, Thermo
Retention time: 5.2 min
Base peak: 284.1193
Precursor m/z: 284.1194
Precursor type: [M+H]+
m/z	relative intensity	assigned
115.0538	6	C4H6FN3+
116.0486	29	C8H6N+
117.0441	10	C7H5N2+
117.0563	27	C8H7N+
118.0518	13	C7H6N2+
118.0635	27	C8H8N+
121.0745	24	C7H9N2+
122.0391	45	C7H5FN+
123.0234	13	C10H3+
129.0432	5	C8H5N2+
132.0425	14	C8H6NO+
133.0443	22	C9H6F+
134.0388	38	C8H5FN+
134.0572	6	C8H8NO+
134.0818	21	C8H10N2+
135.0908	725	C8H11N2+
136.0546	22	C8H7FN+
136.0936	47	C3H12N4O2+
139.0536	13	C6H6FN3+
140.048	10	C10H6N+
141.0682	5	C6H8FN3+
143.0591	16	C9H7N2+
144.0542	107	C8H6N3+
145.0744	11	C9H9N2+
146.0699	136	C8H8N3+
147.0563	10	C8H7N2O+
147.0636	9	C10H8F+
149.0671	13	C6H7N5+
151.0525	15	C7H6FN3+
152.0607	46	C7H7FN3+
153.0679	52	C7H8FN3+
154.065	7	C11H8N+
158.0698	40	C9H8N3+
159.0598	11	C11H8F+
160.0859	31	C9H10N3+
161.0927	22	C9H11N3+
162.0721	12	C10H9FN+
163.053	12	C8H6FN3+
163.0853	9	C9H11N2O+
164.0504	6	C9H7FNO+
164.0585	7	C8H7FN3+
165.068	31	C8H8FN3+
168.0787	33	C12H10N+
169.0635	19	C10H7N3+
170.0516	25	C12H7F+
171.0587	30	C12H8F+
172.0552	12	C11H7FN+
173.062	8	C11H8FN+
174.0701	49	C11H9FN+
175.0744	8	C10[13]CH9FN+
177.0556	14	C13H7N+
181.0457	6	C13H6F+
181.0867	124	C13H11N+
182.0514	13	C13H7F+
182.0905	17	C8H12N3O2+
183.0593	309	C13H8F+
186.0684	18	C10H8N3O+
187.0771	23	C12H10FN+
188.0849	19	C12H11FN+
191.0699	30	C14H9N+
192.0681	34	C13H8N2+
194.0572	8	C13H8NO+
195.0902	108	C13H11N2+
196.0543	10	C13H7FN+
196.0743	9	C13H10NO+
196.0941	16	C8H12N4O2+
197.0617	17	C13H8FN+
198.0702	260	C13H9FN+
200.0853	62	C13H11FN+
201.0882	9	C12[13]CH11FN+
203.0588	8	C14H7N2+
204.0642	9	C14H8N2+
208.0545	24	C14H7FN+
211.0784	327	C14H10FN+
213.0812	89	C13H10FN2+
214.066	7	C13H9FNO+
214.0872	19	C12[13]CH10FN2+
215.0965	43	C13H12FN2+
216.1002	6	C11H12N4O+
218.0823	15	C15H10N2+
221.0711	9	C14H9N2O+
221.0919	73	C14H11N3+
222.0713	17	C15H9FN+
222.1007	14	C13[13]CH11N3+
226.0892	866	C14H11FN2+
227.0948	217	C14H12FN2+
228.0821	17	C14H11FNO+
228.099	25	C13[13]CH12FN2+
229.1125	12	C14H14FN2+
234.1019	22	C15H12N3+
235.1087	10	C15H13N3+
236.1167	20	C15H14N3+
237.0809	14	C15H10FN2+
238.0768	123	C14H9FN3+
239.0623	7	C14H8FN2O+
239.0822	26	C13[13]CH9FN3+
240.0926	999	C14H11FN3+
241.0972	196	C14H12FN3+
242.1009	19	C13[13]CH12FN3+
248.0806	7	C15H10N3O+
249.0898	8	C15H11N3O+
250.0968	7	C15H12N3O+
255.0933	5	C15H12FN2O+
255.1147	22	C15H14FN3+
256.122	12	C15H15FN3+
268.0874	17	C15H11FN3O+
