Mass spectrum: Ethyl 4-hydroxybenzoate; GC-APCI-QTOF; MS2; CE: 50 eV; R=35000; [M+H]+
Name: Ethyl 4-hydroxybenzoate
Formula: C9H10O3
Exact mass: 166.0630
SMILES: CCOC(=O)C1=CC=C(C=C1)O
InChI: InChI=1S/C9H10O3/c1-2-12-9(11)7-3-5-8(10)6-4-7/h3-6,10H,2H2,1H3
Instrument: Bruker 450 GC coupled to maXis Impact
Instrument type: GC-APCI-QTOF
Ms type: MS2
Ion mode: POSITIVE
Ionization: APCI
Fragmentation mode: CID
Collision energy: 50 eV
Resolution: 35000
Column name: Rxi-5Sil MS column, 30m, 0.25mm i.d., 0.25Âµm film thickness, Restek
Retention time: 13.910 min
Base peak: 167.0888
Precursor m/z: 167.0703
Precursor type: [M+H]+
m/z	relative intensity	assigned
115.0541	999	C9H7+
