Mass spectrum: Octyl-3,5-di-tert-butyl-4-hydroxyhydrocinnamate; LC-ESI-QTOF; MS2; CE: Ramp 23.4-35.1 eV; R=35000; [M+H]+
Name: Octyl-3,5-di-tert-butyl-4-hydroxyhydrocinnamate
Name: Octyl-3,5-di-tert-butyl-4-hydroxy-hydrocinnamate
Name: octyl 3-(3,5-ditert-butyl-4-hydroxyphenyl)propanoate
Formula: C25H42O3
Exact mass: 390.3133952
SMILES: CCCCCCCCOC(=O)CCC1=CC(=C(O)C(=C1)C(C)(C)C)C(C)(C)C
InChI: InChI=1S/C25H42O3/c1-8-9-10-11-12-13-16-28-22(26)15-14-19-17-20(24(2,3)4)23(27)21(18-19)25(5,6)7/h17-18,27H,8-16H2,1-7H3
Instrument: Bruker maXis Impact
Instrument type: LC-ESI-QTOF
Ms type: MS2
Ion mode: POSITIVE
Ionization: ESI
Fragmentation mode: CID
Collision energy: Ramp 23.4-35.1 eV
Resolution: 35000
Column name: Acclaim RSLC C18 2.2um, 2.1x100mm, Thermo
Retention time: 14.636 min
Base peak: 408.3472
Precursor m/z: 391.3207
Precursor type: [M+H]+
m/z	relative intensity	assigned
57.0691	203	C4H9+
71.085	115	C5H11+
107.0503	99	C7H7O+
149.0221	999	C8H5O3+
149.0582	944	C9H9O2+
150.0259	79	C7[13]CH5O3+
150.0611	119	C8[13]CH9O2+
167.0687	523	C9H11O3+
168.0724	56	C8[13]CH11O3+
172.1124	41	C9H16O3+
219.1745	64	C15H23O+
