Mass spectrum: Atazanavir; LC-ESI-QTOF; MS2; CE: 50 eV; R=35000; [M+H]+
Name: Atazanavir
Name: methyl N-[(2S)-1-[2-[(2S,3S)-2-hydroxy-3-[[(2S)-2-(methoxycarbonylamino)-3,3-dimethylbutanoyl]amino]-4-phenylbutyl]-2-[(4-pyridin-2-ylphenyl)methyl]hydrazinyl]-3,3-dimethyl-1-oxobutan-2-yl]carbamate
Formula: C38H52N6O7
Exact mass: 704.3897480
SMILES: CC(C)(C)[C@@H](C(=O)N[C@@H](Cc1ccccc1)[C@H](CN(Cc2ccc(cc2)c3ccccn3)NC(=O)[C@H](C(C)(C)C)NC(=O)OC)O)NC(=O)OC
InChI: InChI=1S/C38H52N6O7/c1-37(2,3)31(41-35(48)50-7)33(46)40-29(22-25-14-10-9-11-15-25)30(45)24-44(43-34(47)32(38(4,5)6)42-36(49)51-8)23-26-17-19-27(20-18-26)28-16-12-13-21-39-28/h9-21,29-32,45H,22-24H2,1-8H3,(H,40,46)(H,41,48)(H,42,49)(H,43,47)/t29-,30-,31+,32+/m0/s1
Instrument: Bruker maXis Impact
Instrument type: LC-ESI-QTOF
Ms type: MS2
Ion mode: POSITIVE
Ionization: ESI
Fragmentation mode: CID
Collision energy: 50 eV
Resolution: 35000
Column name: Acclaim RSLC C18 2.2um, 2.1x100mm, Thermo
Retention time: 10.808 min
Base peak: 705.4012
Precursor m/z: 705.397
Precursor type: [M+H]+
m/z	relative intensity	assigned
120.0811	10	C8H10N+
144.1027	116	C7H14NO2+
145.1058	7	C6[13]CH14NO2+
146.0971	6	C10H12N+
167.0736	43	C12H9N+
168.0817	999	H14N3O7+
328.1833	5	C10H26N5O7+
335.1994	149	C21H25N3O+
336.2022	26	C20[13]CH25N3O+
363.2203	5	C24H29NO2+
534.3123	11	C37H42O3+
