Mass spectrum: Flutamide; LC-ESI-QTOF; MS2; CE: 20 eV; R=35000; [M-H]-
Name: Flutamide
Name: 2-methyl-N-[4-nitro-3-(trifluoromethyl)phenyl]propanamide
Formula: C11H11F3N2O3
Exact mass: 276.0721769
SMILES: CC(C)C(=O)NC1=CC(=C(C=C1)[N+]([O-])=O)C(F)(F)F
InChI: InChI=1S/C11H11F3N2O3/c1-6(2)10(17)15-7-3-4-9(16(18)19)8(5-7)11(12,13)14/h3-6H,1-2H3,(H,15,17)
Instrument: Bruker maXis Impact
Instrument type: LC-ESI-QTOF
Ms type: MS2
Ion mode: NEGATIVE
Ionization: ESI
Fragmentation mode: CID
Collision energy: 20 eV
Resolution: 35000
Column name: Acclaim RSLC C18 2.2um, 2.1x100mm, Thermo
Retention time: 9.448 min
Base peak: 275.0652
Precursor m/z: 275.0649
Precursor type: [M-H]-
m/z	relative intensity	assigned
160.0379	15	C7H5F3N-
175.0246	5	C7H4F3NO-
182.0058	16	C8H2F2NO2-
186.0173	10	C8H3F3NO-
202.0128	394	C8H3F3NO2-
203.0159	27	C7[13]CH3F3NO2-
205.0232	177	C10H3F2N2O-
206.0064	10	C10H2F2NO2-
206.0242	12	C9[13]CH3F2N2O-
229.0711	18	C11H10F3NO-
232.0096	24	C8H3F3N2O3-
275.0651	999	C11H10F3N2O3-
276.0677	113	C10[13]CH10F3N2O3-
277.0689	9	C9[13]C2H10F3N2O3-
