Mass spectrum: Prednisone; LC-ESI-QTOF; MS2; CE: 40 eV; R=35000; [M+H]+
Name: Prednisone
Name: (8S,9S,10R,13S,14S,17R)-17-hydroxy-17-(2-hydroxyacetyl)-10,13-dimethyl-6,7,8,9,12,14,15,16-octahydrocyclopenta[a]phenanthrene-3,11-dione
Formula: C21H26O5
Exact mass: 358.1780239
SMILES: C[C@]12CC(=O)[C@H]3[C@H]([C@@H]1CC[C@@]2(C(=O)CO)O)CCC4=CC(=O)C=C[C@]34C
InChI: InChI=1S/C21H26O5/c1-19-7-5-13(23)9-12(19)3-4-14-15-6-8-21(26,17(25)11-22)20(15,2)10-16(24)18(14)19/h5,7,9,14-15,18,22,26H,3-4,6,8,10-11H2,1-2H3/t14-,15-,18+,19-,20-,21-/m0/s1
Instrument: Bruker maXis Impact
Instrument type: LC-ESI-QTOF
Ms type: MS2
Ion mode: POSITIVE
Ionization: ESI
Fragmentation mode: CID
Collision energy: 40 eV
Resolution: 35000
Column name: Acclaim RSLC C18 2.2um, 2.1x100mm, Thermo
Retention time: 7.146 min
Base peak: 359.1875
Precursor m/z: 359.1853
Precursor type: [M+H]+
m/z	relative intensity	assigned
115.0544	46	C9H7+
117.0702	43	C9H9+
119.0855	60	C9H11+
121.0656	199	C8H9O+
122.0697	30	C8H10O+
123.0816	28	C8H11O+
128.0622	60	C10H8+
129.0703	52	C10H9+
131.0489	32	C9H7O+
131.0856	96	C10H11+
132.0572	44	C9H8O+
133.0664	46	C9H9O+
135.0806	126	C9H11O+
137.0593	19	C8H9O2+
141.0698	87	C11H9+
143.0855	62	C11H11+
144.0571	51	C10H8O+
145.0649	178	C10H9O+
145.1014	31	C11H13+
146.0718	106	C10H10O+
147.0808	999	C10H11O+
148.084	129	C9[13]CH11O+
149.0958	19	C10H13O+
153.0726	35	C12H9+
154.0787	21	C12H10+
155.0872	37	C12H11+
157.0656	41	C11H9O+
157.0993	28	C12H13+
158.0725	126	C11H10O+
159.0803	496	C11H11O+
160.0857	110	C11H12O+
161.0963	193	C11H13O+
162.1019	18	C11H14O+
163.0762	42	C10H11O2+
165.0708	51	C13H9+
166.0777	28	C13H10+
167.0863	47	C13H11+
169.0654	52	C12H9O+
169.1001	30	C13H13+
170.0715	32	C12H10O+
171.0805	646	C12H11O+
172.0851	80	C11[13]CH11O+
173.0965	307	C12H13O+
174.1006	62	C12H14O+
177.0905	18	C11H13O2+
178.0769	28	C14H10+
179.0847	103	C14H11+
180.0913	34	C14H12+
181.0659	59	C13H9O+
181.1013	73	C14H13+
182.0722	74	C13H10O+
183.0806	142	C13H11O+
184.0872	90	C13H12O+
185.0584	22	C12H9O2+
185.0965	153	C13H13O+
186.1033	54	C13H14O+
187.0759	114	C12H11O2+
187.1125	158	C13H15O+
188.1157	27	C13H16O+
189.0919	47	C12H13O2+
191.0851	45	C15H11+
192.0936	23	C15H12+
193.1013	58	C15H13+
194.0728	51	C14H10O+
194.108	48	C15H14+
195.0813	117	C14H11O+
195.1194	30	C15H15+
196.0881	105	C14H12O+
197.0967	248	C14H13O+
198.1026	86	C14H14O+
199.1125	134	C14H15O+
200.1161	35	C14H16O+
204.0935	25	C16H12+
205.1	38	C16H13+
206.0732	19	C15H10O+
207.0815	41	C15H11O+
207.1156	28	C16H15+
208.0887	146	C15H12O+
209.0964	204	C15H13O+
209.132	49	C16H17+
210.1037	146	C15H14O+
211.1116	151	C15H15O+
212.1196	109	C15H16O+
213.1256	90	C15H17O+
215.0825	19	C17H11+
215.1072	36	C14H15O2+
219.0815	35	C16H11O+
219.1175	42	C17H15+
220.0883	42	C16H12O+
220.1206	26	C17H16+
221.0964	183	C16H13O+
221.1344	23	C17H17+
222.104	325	C16H14O+
223.1118	203	C16H15O+
224.0856	23	C15H12O2+
224.1196	85	C16H16O+
225.091	31	C15H13O2+
225.1282	137	C16H17O+
226.1339	40	C16H18O+
227.1058	18	C15H15O2+
227.1448	112	C16H19O+
228.1506	23	C16H20O+
230.1126	19	C11H18O5+
231.0782	22	C17H11O+
231.1176	41	C18H15+
232.0894	27	C17H12O+
232.1311	20	C11H20O5+
233.0947	56	C17H13O+
234.105	80	C17H14O+
235.1117	171	C17H15O+
236.1178	77	C17H16O+
237.0942	18	C16H13O2+
237.1282	283	C17H17O+
238.0999	24	C16H14O2+
238.1332	108	C17H18O+
239.1068	64	C16H15O2+
239.1434	121	C17H19O+
240.1176	32	C16H16O2+
240.1514	22	C17H20O+
243.1155	22	C19H15+
245.1005	31	C18H13O+
245.1311	26	C19H17+
246.1045	71	C18H14O+
247.1145	86	C18H15O+
247.1488	37	C19H19+
248.1201	128	C18H16O+
249.128	233	C18H17O+
250.136	114	C18H18O+
251.1451	76	C18H19O+
252.1496	35	C18H20O+
253.1247	62	C17H17O2+
253.1593	51	C18H21O+
254.1285	30	C17H18O2+
255.1399	46	C17H19O2+
257.0952	30	C19H13O+
259.1137	18	C19H15O+
260.1185	25	C19H16O+
261.1287	49	C19H17O+
262.1013	25	C18H14O2+
262.1365	85	C19H18O+
263.1443	112	C19H19O+
264.1524	94	C19H20O+
265.1246	27	C18H17O2+
265.1611	150	C19H21O+
266.1614	42	C19H22O+
267.1401	23	C18H19O2+
272.12	53	C20H16O+
273.1244	20	C20H17O+
275.1444	27	C20H19O+
277.1595	49	C20H21O+
280.1458	23	C19H20O2+
281.1539	21	C19H21O2+
282.1623	25	C19H22O2+
292.1454	43	C20H20O2+
293.1518	20	C20H21O2+
295.1704	18	C20H23O2+
