Mass spectrum: Imidacloprid-urea; LC-ESI-QTOF; MS2; CE: 30 eV; R=35000; [M+H]+
Name: Imidacloprid-urea
Name: 1-[(6-chloropyridin-3-yl)methyl]imidazolidin-2-one
Formula: C9H10ClN3O
Exact mass: 211.0512396
SMILES: c1cc(ncc1CN2CCN=C2O)Cl
InChI: InChI=1S/C9H10ClN3O/c10-8-2-1-7(5-12-8)6-13-4-3-11-9(13)14/h1-2,5H,3-4,6H2,(H,11,14)
Instrument: Bruker maXis Impact
Instrument type: LC-ESI-QTOF
Ms type: MS2
Ion mode: POSITIVE
Ionization: ESI
Fragmentation mode: CID
Collision energy: 30 eV
Resolution: 35000
Column name: Acclaim RSLC C18 2.2um, 2.1x100mm, Thermo
Retention time: 4.6 min
Base peak: 212.058
Precursor m/z: 212.0585
Precursor type: [M+H]+
m/z	relative intensity	assigned
114.0104	24	C5H5ClN+
116.0071	6	C5H5[37]ClN+
118.0518	5	C7H6N2+
120.0666	8	C7H8N2+
121.0752	6	C7H9N2+
123.0542	7	C6H7N2O+
126.0096	550	C6H5ClN+
127.0142	118	C5[13]CH6ClN+
128.0064	76	C6H5[37]ClN+
128.0253	999	C6H7ClN+
129.0284	60	C5[13]CH7ClN+
130.0222	138	C6H7[37]ClN+
131.0254	9	C5[13]CH7[37]ClN+
131.0599	6	C8H7N2+
132.0673	6	C8H8N2+
133.075	49	C8H9N2+
134.0787	5	C3H10N4O2+
141.02	13	C9H3NO+
142.0049	19	C6H5ClNO+
142.0277	8	C9H4NO+
144.0204	18	C6H7ClNO+
164.0926	9	C7H10N5+
167.0363	6	C8H8ClN2+
168.0207	5	C8H7ClNO+
169.0158	13	C7H6ClN2O+
169.0517	19	C8H10ClN2+
171.0484	5	C2H10ClN5O2+
176.0813	71	C9H10N3O+
194.0473	22	C9H9ClN3+
195.0309	23	C9H8ClN2O+
196.0433	9	C9H9ClN2O+
212.0577	93	C9H11ClN3O+
