Mass spectrum: Benzyl butyl phthalate; GC-APCI-QTOF; MS2; CE: 10 eV; R=35000; [M]+
Name: Benzyl butyl phthalate
Formula: C19H20O4
Exact mass: 312.1362
SMILES: CCCCOC(=O)C1=CC=CC=C1C(=O)OCC2=CC=CC=C2
InChI: InChI=1S/C19H20O4/c1-2-3-13-22-18(20)16-11-7-8-12-17(16)19(21)23-14-15-9-5-4-6-10-15/h4-12H,2-3,13-14H2,1H3
Instrument: Bruker 450 GC coupled to maXis Impact
Instrument type: GC-APCI-QTOF
Ms type: MS2
Ion mode: POSITIVE
Ionization: APCI
Fragmentation mode: CID
Collision energy: 10 eV
Resolution: 35000
Column name: Rxi-5Sil MS column, 30m, 0.25mm i.d., 0.25Âµm film thickness, Restek
Retention time: 20.184 min
Base peak: 283.2617
Precursor m/z: 312.1356
Precursor type: [M]+
m/z	relative intensity	assigned
121.1021	287	C9H13+
125.096	333	C8H13O+
135.1185	999	C10H15+
137.1349	574	C10H17+
139.1488	287	C10H19+
143.1075	780	C8H15O2+
149.1346	424	C11H17+
151.1498	424	C11H19+
153.1294	344	C10H17O+
155.1454	355	C10H19O+
162.141	310	C12H18+
163.1507	597	C12H19+
167.1421	585	C11H19O+
171.1385	367	C10H19O2+
