Mass spectrum: Prochloraz; LC-ESI-QTOF; MS2; CE: 40 eV; R=35000; [M+H]+
Name: Prochloraz
Name: N-propyl-N-[2-(2,4,6-trichlorophenoxy)ethyl]imidazole-1-carboxamide
Formula: C15H16Cl3N3O2
Exact mass: 375.0308098
SMILES: CCCN(CCOC1=C(Cl)C=C(Cl)C=C1Cl)C(=O)N1C=CN=C1
InChI: InChI=1S/C15H16Cl3N3O2/c1-2-4-20(15(22)21-5-3-19-10-21)6-7-23-14-12(17)8-11(16)9-13(14)18/h3,5,8-10H,2,4,6-7H2,1H3
Instrument: Bruker maXis Impact
Instrument type: LC-ESI-QTOF
Ms type: MS2
Ion mode: POSITIVE
Ionization: ESI
Fragmentation mode: CID
Collision energy: 40 eV
Resolution: 35000
Column name: Acclaim RSLC C18 2.2um, 2.1x100mm, Thermo
Retention time: 11.313 min
Base peak: 376.0379
Precursor m/z: 376.0381
Precursor type: [M+H]+
m/z	relative intensity	assigned
122.9988	15	C7H4Cl+
125.0141	35	C8HN2+
132.9593	48	C5H3Cl2+
134.9567	24	C5H3Cl[37]Cl+
138.0083	49	C2H5ClN3O2+
139.0166	18	C8HN3+
140.0055	14	C2H5[37]ClN3O2+
146.9743	12	CH5Cl2N2O2+
148.9707	9	CH5Cl[37]ClN2O2+
150.9914	19	Cl2H7N3O2+
152.0006	22	C9N2O+
153.0073	13	Cl2H9N3O2+
158.975	232	C8ClN2+
159.9829	108	C8HClN2+
160.9544	59	C4HCl2N3+
160.9728	116	C8[37]ClN2+
161.9622	156	C6H4Cl2O+
161.9791	40	C8H[37]ClN2+
162.9514	23	C4HCl[37]ClN3+
162.9656	15	C5[13]CH4Cl2O+
163.9586	73	C6H4Cl[37]ClO+
166.0044	97	C8H5ClNO+
166.9204	166	Cl3H2N2O2+
167.0116	141	C8H6ClNO+
167.9238	21	Cl3H3N2O2+
168.0014	24	C8H5[37]ClNO+
168.0163	12	C7[13]CH6ClNO+
168.917	164	H2Cl2[37]ClN2O2+
169.0078	28	C8H6[37]ClNO+
169.9212	8	H3Cl2[37]ClN2O2+
169.9675	17	C8H4Cl2+
172.9672	11	C6H3Cl2N2+
173.9861	180	C8HClN3+
174.9697	253	C5H3Cl2N3+
174.9885	16	C7[13]CHClN3+
175.9833	69	C8H[37]ClN3+
176.9664	130	C5H3Cl[37]ClN3+
178.9664	8	C3H8Cl3NO+
178.9988	9	C11HNO2+
179.9279	121	C6H3Cl3+
180.0201	29	C12H4O2+
180.056	9	C11H6N3+
180.9336	12	C5[13]CH3Cl3+
181.0259	22	C10H3N3O+
181.9252	98	C6H3Cl2[37]Cl+
185.9657	12	C5H7Cl3N+
186.9701	78	C6H3Cl2N3+
187.9779	158	C9HClN2O+
188.9661	42	C6H3Cl[37]ClN3+
188.9797	20	C8[13]CHClN2O+
189.9742	70	C9H[37]ClN2O+
192.9369	33	C7H4Cl3+
194.9156	999	C4Cl3N3+
194.9516	109	C8HCl2N2+
195.919	69	C3[13]CCl3N3+
195.953	10	C7[13]CHCl2N2+
196.9129	836	C4Cl2[37]ClN3+
196.9306	401	C4H2Cl3N3+
196.9489	93	C8HCl[37]ClN2+
197.9158	41	C4HCl3N2O+
197.935	26	C3[13]CH2Cl3N3+
198.9096	22	C3Cl3N3O+
198.928	346	C4H2Cl2[37]ClN3+
199.9313	18	C4H3Cl3N2O+
200.9233	8	C3H2Cl3N3O+
201.9814	197	C9HClN3O+
202.9891	65	C9H2ClN3O+
203.978	81	C9H[37]ClN3O+
204.9361	39	C3H4Cl3N2O2+
204.9838	27	C9H2[37]ClN3O+
206.93	48	C3H4Cl2[37]ClN2O2+
208.0513	13	C14H8O2+
208.9244	30	C6H2Cl3NO+
209.0598	36	C11H12ClNO+
210.0625	8	C10[13]CH12ClNO+
211.0578	11	C11H12[37]ClNO+
215.997	80	C12H5ClO2+
217.0015	15	C11[13]CH5ClO2+
217.9938	37	C12H5[37]ClO2+
219.991	8	C9H3ClN3O2+
220.9329	11	C8H4Cl3O+
222.9471	651	C9HCl2N2O+
223.9499	55	C8[13]CHCl2N2O+
224.9439	545	C9HCl[37]ClN2O+
225.9481	30	C6H5Cl3N2O+
226.9415	21	C5H4Cl3N3O+
237.9584	65	C8H7Cl3NO+
238.0445	8	C15H9ClN+
239.9562	51	C8H7Cl2[37]ClNO+
241.9699	8	C14H4Cl2+
244.0283	61	C14H9ClO2+
245.0351	84	C14H10ClO2+
246.026	23	C14H9[37]ClO2+
247.0342	37	C14H10[37]ClO2+
265.9529	42	C9H7Cl3NO2+
267.9507	50	C9H7Cl2[37]ClNO2+
280.0034	33	C12H8Cl2N3O+
282.0001	20	C12H8Cl[37]ClN3O+
283.029	29	C11H16Cl3NO+
285.0477	10	C14H15Cl2O2+
297.0449	8	C15H15Cl2O2+
307.999	58	C12H13Cl3NO2+
309.9971	50	C12H13Cl2[37]ClNO2+
