Mass spectrum: Tricresylphosphate; LC-ESI-QTOF; MS2; CE: 20 eV; R=35000; [M+H]+
Name: Tricresylphosphate
Name: Tri-P-cresyl phosphate
Name: tris(4-methylphenyl) phosphate
Formula: C21H21O4P
Exact mass: 368.1177458
SMILES: CC1=CC=C(OP(=O)(OC2=CC=C(C)C=C2)OC2=CC=C(C)C=C2)C=C1
InChI: InChI=1S/C21H21O4P/c1-16-4-10-19(11-5-16)23-26(22,24-20-12-6-17(2)7-13-20)25-21-14-8-18(3)9-15-21/h4-15H,1-3H3
Instrument: Bruker maXis Impact
Instrument type: LC-ESI-QTOF
Ms type: MS2
Ion mode: POSITIVE
Ionization: ESI
Fragmentation mode: CID
Collision energy: 20 eV
Resolution: 35000
Column name: Acclaim RSLC C18 2.2um, 2.1x100mm, Thermo
Retention time: 12.757 min
Base peak: 369.1244
Precursor m/z: 369.125
Precursor type: [M+H]+
m/z	relative intensity	assigned
166.0758	14	C6H15O3P+
181.1009	6	C14H13+
256.1224	5	C13H21O3P+
261.0666	19	C14H14O3P+
279.0769	5	C14H16O4P+
369.125	999	C21H22O4P+
370.1277	240	C20[13]CH22O4P+
371.1305	32	C19[13]C2H22O4P+
