Mass spectrum: Propyphenazone; LC-ESI-QTOF; MS2; CE: 50 eV; R=35000; [M+H]+
Name: Propyphenazone
Name: 1,5-dimethyl-2-phenyl-4-propan-2-ylpyrazol-3-one
Formula: C14H18N2O
Exact mass: 230.1419132
SMILES: CC(C)C1=C(C)N(C)N(C1=O)C1=CC=CC=C1
InChI: InChI=1S/C14H18N2O/c1-10(2)13-11(3)15(4)16(14(13)17)12-8-6-5-7-9-12/h5-10H,1-4H3
Instrument: Bruker maXis Impact
Instrument type: LC-ESI-QTOF
Ms type: MS2
Ion mode: POSITIVE
Ionization: ESI
Fragmentation mode: CID
Collision energy: 50 eV
Resolution: 35000
Column name: Acclaim RSLC C18 2.2um, 2.1x100mm, Thermo
Retention time: 7.420 min
Base peak: 231.1494
Precursor m/z: 231.1492
Precursor type: [M+H]+
m/z	relative intensity	assigned
112.11	7	C7H14N+
115.0534	248	C9H7+
116.0498	43	C8H6N+
117.0561	215	C8H7N+
117.0687	105	C9H9+
118.0638	255	C8H8N+
119.0695	30	C7[13]CH8N+
120.0432	25	C7H6NO+
120.0794	117	C8H10N+
121.0839	10	C7[13]CH10N+
122.0587	30	C7H8NO+
123.0545	9	C6H7N2O+
123.0904	15	C7H11N2+
124.0741	66	C7H10NO+
125.0769	7	C6[13]CH10NO+
125.1058	9	C7H13N2+
127.054	22	C10H7+
128.0484	115	C9H6N+
128.06	65	C10H8+
129.0557	88	C9H7N+
129.0672	55	C10H9+
130.0638	999	C9H8N+
131.071	332	C9H9N+
132.0428	34	C8H6NO+
132.0789	214	C9H10N+
133.0511	103	C8H7NO+
133.0753	84	C8H9N2+
134.0549	13	C7[13]CH7NO+
134.0954	45	C9H12N+
135.0539	15	C7H7N2O+
135.1008	5	C8[13]CH12N+
136.076	10	C8H10NO+
138.0901	12	C8H12NO+
139.0848	112	C7H11N2O+
140.0481	89	C10H6N+
140.087	9	C6[13]CH11N2O+
141.055	33	C10H7N+
141.067	24	C11H9+
142.0633	80	C10H8N+
143.0715	437	C10H9N+
144.0791	362	C10H10N+
145.0743	235	C9H9N2+
146.0587	54	C9H8NO+
146.0822	124	C9H10N2+
146.0939	95	C10H12N+
147.0655	16	C9H9NO+
147.0894	60	C9H11N2+
148.0731	10	C9H10NO+
148.0952	5	C8[13]CH11N2+
148.1116	15	C10H14N+
153.057	11	C11H7N+
154.0636	40	C11H8N+
155.0594	59	C10H7N2+
156.0427	10	C10H6NO+
156.0793	172	C11H10N+
157.0506	29	C10H7NO+
157.0762	39	C10H9N2+
157.0862	58	C11H11N+
158.0587	37	C10H8NO+
158.0828	71	C10H10N2+
158.0945	137	C11H12N+
159.0543	22	C9H7N2O+
159.0651	31	C10H9NO+
159.0903	108	C10H11N2+
160.0724	25	C10H10NO+
160.0961	37	C10H12N2+
161.1044	22	C10H13N2+
166.0631	19	C12H8N+
167.0709	13	C12H9N+
169.0501	8	C11H7NO+
169.0762	6	C11H9N2+
170.0582	25	C11H8NO+
170.0938	22	C12H12N+
171.0538	152	C10H7N2O+
171.0905	24	C11H11N2+
172.0577	26	C9[13]CH7N2O+
172.0744	37	C11H10NO+
172.0966	16	C11H12N2+
173.0691	54	C10H9N2O+
173.1057	49	C11H13N2+
174.0765	71	C10H10N2O+
175.0807	8	C9[13]CH10N2O+
180.0799	6	C13H10N+
181.0747	6	C12H9N2+
182.0831	9	C12H10N2+
183.0897	13	C12H11N2+
184.0749	28	C12H10NO+
185.0691	233	C11H9N2O+
186.0766	187	C11H10N2O+
187.0833	50	C11H11N2O+
187.1245	10	C12H15N2+
188.0902	15	C11H12N2O+
189.1014	106	C11H13N2O+
190.1029	19	C10[13]CH13N2O+
197.1067	17	C13H13N2+
199.0858	21	C12H11N2O+
200.0904	9	C12H12N2O+
201.1007	341	C12H13N2O+
202.1038	43	C11[13]CH13N2O+
215.1168	6	C13H15N2O+
231.148	28	C14H19N2O+
