Mass spectrum: Dibutyl sebacate; GC-APCI-QTOF; MS2; CE: 40 eV; R=35000; [M]+
Name: Dibutyl sebacate
Formula: C18H34O4
Exact mass: 314.2457
SMILES: CCCCOC(=O)CCCCCCCCC(=O)OCCCC
InChI: InChI=1S/C18H34O4/c1-3-5-15-21-17(19)13-11-9-7-8-10-12-14-18(20)22-16-6-4-2/h3-16H2,1-2H3
Instrument: Bruker 450 GC coupled to maXis Impact
Instrument type: GC-APCI-QTOF
Ms type: MS2
Ion mode: POSITIVE
Ionization: APCI
Fragmentation mode: CID
Collision energy: 40 eV
Resolution: 35000
Column name: Rxi-5Sil MS column, 30m, 0.25mm i.d., 0.25Âµm film thickness, Restek
Retention time: 17.732 min
Base peak: 285.2768
Precursor m/z: 314.2452
Precursor type: [M]+
m/z	relative intensity	assigned
55.0553	289	C4H7+
57.0705	999	C4H9+
67.0551	129	C5H7+
69.0705	134	C5H9+
71.0861	176	C5H11+
81.0696	147	C6H9+
83.0853	70	C6H11+
95.0857	92	C7H11+
97.1014	57	C7H13+
119.0854	77	C9H11+
121.1016	90	C9H13+
123.1161	90	C9H15+
133.1025	47	C10H13+
135.1186	123	C10H15+
