Mass spectrum: Bis(1H,1H,2H,2H-perfluorooctyl)phosphate (6:2diPAP); LC-ESI-QTOF; MS2; CE: 30 eV; R=35000; [M-H]-
Name: Bis(1H,1H,2H,2H-perfluorooctyl)phosphate (6:2diPAP)
Name: Bis(3,3,4,4,5,5,6,6,7,7,8,8,8-tridecafluoro-1-octanol) hydrogen phosphate
Name: bis(3,3,4,4,5,5,6,6,7,7,8,8,8-tridecafluorooctyl) hydrogen phosphate
Formula: C16H9F26O4P
Exact mass: 789.9823
SMILES: C(COP(=O)(O)OCCC(C(C(C(C(C(F)(F)F)(F)F)(F)F)(F)F)(F)F)(F)F)C(C(C(C(C(C(F)(F)F)(F)F)(F)F)(F)F)(F)F)(F)F
InChI: InChI=1S/C16H9F26O4P/c17-5(18,7(21,22)9(25,26)11(29,30)13(33,34)15(37,38)39)1-3-45-47(43,44)46-4-2-6(19,20)8(23,24)10(27,28)12(31,32)14(35,36)16(40,41)42/h1-4H2,(H,43,44)
Instrument: Bruker maXis Impact
Instrument type: LC-ESI-QTOF
Ms type: MS2
Ionization: ESI
Fragmentation mode: CID
Collision energy: 30 eV
Resolution: 35000
Column name: Acclaim RSLC C18 2.2um, 2.1x100mm, Thermo
Retention time: 12.747 min
Base peak: 788.9723
Precursor m/z: 788.9751
Precursor type: [M-H]-
m/z	relative intensity	assigned
422.9726	179	C14HF10O4-
442.9709	999	C3H5F17O3P-
443.9704	176	C11HF13O4-
