Mass spectrum: Salicylic acid; LC-ESI-QTOF; MS2; CE: Ramp 17.5-26.2 eV; R=35000; [M-H]-
Name: Salicylic acid
Name: 2-hydroxybenzoic acid
Formula: C7H6O3
Exact mass: 138.0316941
SMILES: OC(=O)C1=C(O)C=CC=C1
InChI: InChI=1S/C7H6O3/c8-6-4-2-1-3-5(6)7(9)10/h1-4,8H,(H,9,10)
Instrument: Bruker maXis Impact
Instrument type: LC-ESI-QTOF
Ms type: MS2
Ion mode: NEGATIVE
Ionization: ESI
Fragmentation mode: CID
Collision energy: Ramp 17.5-26.2 eV
Resolution: 35000
Column name: Acclaim RSLC C18 2.2um, 2.1x100mm, Thermo
Retention time: 3.637 min
Base peak: 59.0131
Precursor m/z: 137.0244
Precursor type: [M-H]-
m/z	relative intensity	assigned
65.0384	154	C5H5-
93.0331	999	C6H5O-
94.0358	53	C5[13]CH5O-
137.0231	35	C7H5O3-
