Mass spectrum: Benzocaine; LC-ESI-QTOF; MS2; CE: 10 eV; R=35000; [M+H]+
Name: Benzocaine
Name: ethyl 4-aminobenzoate
Formula: C9H11NO2
Exact mass: 165.0789786
SMILES: CCOC(=O)C1=CC=C(N)C=C1
InChI: InChI=1S/C9H11NO2/c1-2-12-9(11)7-3-5-8(10)6-4-7/h3-6H,2,10H2,1H3
Instrument: Bruker maXis Impact
Instrument type: LC-ESI-QTOF
Ms type: MS2
Ion mode: POSITIVE
Ionization: ESI
Fragmentation mode: CID
Collision energy: 10 eV
Resolution: 35000
Column name: Acclaim RSLC C18 2.2um, 2.1x100mm, Thermo
Retention time: 6.286 min
Base peak: 265.1917
Precursor m/z: 166.0863
Precursor type: [M+H]+
m/z	relative intensity	assigned
120.0435	130	C7H6NO+
121.0473	9	C6[13]CH6NO+
138.0541	999	C7H8NO2+
139.0573	57	C6[13]CH8NO2+
140.0586	5	C7H8NO[18]O+
166.0854	347	C9H12NO2+
167.0881	30	C8[13]CH12NO2+
