Mass spectrum: Fluconazole; LC-ESI-QTOF; MS2; CE: 40 eV; R=35000; [M-H]-
Name: Fluconazole
Name: 2-(2,4-difluorophenyl)-1,3-bis(1,2,4-triazol-1-yl)propan-2-ol
Formula: C13H12F2N6O
Exact mass: 306.1040654
SMILES: OC(CN1C=NC=N1)(CN1C=NC=N1)C1=C(F)C=C(F)C=C1
InChI: InChI=1S/C13H12F2N6O/c14-10-1-2-11(12(15)3-10)13(22,4-20-8-16-6-18-20)5-21-9-17-7-19-21/h1-3,6-9,22H,4-5H2
Instrument: Bruker maXis Impact
Instrument type: LC-ESI-QTOF
Ms type: MS2
Ion mode: NEGATIVE
Ionization: ESI
Fragmentation mode: CID
Collision energy: 40 eV
Resolution: 35000
Column name: Acclaim RSLC C18 2.2um, 2.1x100mm, Thermo
Retention time: 5.094 min
Base peak: 305.0966
Precursor m/z: 305.0968
Precursor type: [M-H]-
m/z	relative intensity	assigned
191.0663	999	C12H9F2-
