Mass spectrum: Norfenfluramine; LC-ESI-QTOF; MS2; CE: 50 eV; R=35000; [M+H]+
Name: Norfenfluramine
Name: 1-[3-(trifluoromethyl)phenyl]propan-2-amine
Formula: C10H12F3N
Exact mass: 203.0921840
SMILES: CC(N)CC1=CC(=CC=C1)C(F)(F)F
InChI: InChI=1S/C10H12F3N/c1-7(14)5-8-3-2-4-9(6-8)10(11,12)13/h2-4,6-7H,5,14H2,1H3
Instrument: Bruker maXis Impact
Instrument type: LC-ESI-QTOF
Ms type: MS2
Ion mode: POSITIVE
Ionization: ESI
Fragmentation mode: CID
Collision energy: 50 eV
Resolution: 35000
Column name: Acclaim RSLC C18 2.2um, 2.1x100mm, Thermo
Retention time: 5.9 min
Base peak: 204.0989
Precursor m/z: 204.0995
Precursor type: [M+H]+
m/z	relative intensity	assigned
109.0446	125	C7H6F+
110.0481	16	C5H6N2O+
113.0191	17	C6H3F2+
119.0284	165	C8H4F+
120.0322	26	C6H4N2O+
127.0347	9	C7H5F2+
131.0291	8	C9H4F+
132.0161	16	C6H3F3+
133.025	76	C6H4F3+
137.0394	41	C3H5F2N3O+
138.0269	37	C8H4F2+
139.0346	223	C8H5F2+
140.0386	30	C6H5FN2O+
141.0246	11	C6H3F2N2+
146.0516	37	C10H7F+
147.0341	224	C8H4FN2+
148.0374	26	C6H5F3N+
151.0342	24	C9H5F2+
158.033	44	C8H5F3+
159.0405	999	C8H6F3+
160.0441	107	C7[13]CH6F3+
