Mass spectrum: Dimethachlor-ESA; LC-ESI-QTOF; MS2; CE: 30 eV; R=35000; [M-H]-
Name: Dimethachlor-ESA
Name: 2-[N-(2-methoxyethyl)-2,6-dimethylanilino]-2-oxoethanesulfonic acid
Formula: C13H19NO5S
Exact mass: 301.0983937
SMILES: COCCN(C(=O)CS(O)(=O)=O)c1c(C)cccc1C
InChI: InChI=1S/C13H19NO5S/c1-10-5-4-6-11(2)13(10)14(7-8-19-3)12(15)9-20(16,17)18/h4-6H,7-9H2,1-3H3,(H,16,17,18)
Instrument: Bruker maXis Impact
Instrument type: LC-ESI-QTOF
Ms type: MS2
Ion mode: NEGATIVE
Ionization: ESI
Fragmentation mode: CID
Collision energy: 30 eV
Resolution: 35000
Column name: Acclaim RSLC C18 2.2um, 2.1x100mm, Thermo
Retention time: 5.083 min
Base peak: 300.0905
Precursor m/z: 300.0911
Precursor type: [M-H]-
m/z	relative intensity	assigned
120.9602	999	C2HO4S-
