Mass spectrum: ADONA; LC-ESI-QTOF; MS2; CE: 10 eV; R=35000; [M]-
Name: ADONA
Name: CID 52915299
Name: 2,2,3-Trifluoro-3-(1,1,2,2,3,3-hexafluoro-3-(trifluoromethoxy)propoxy)propanoic acid
Formula: C7H2F12O4
Exact mass: 377.9761
SMILES: C(C(C(=O)O)(F)F)(OC(C(C(OC(F)(F)F)(F)F)(F)F)(F)F)F
InChI: InChI=1S/C7H2F12O4/c8-1(3(9,10)2(20)21)22-5(13,14)4(11,12)6(15,16)23-7(17,18)19/h1H,(H,20,21)
Instrument: Bruker maXis Impact
Instrument type: LC-ESI-QTOF
Ms type: MS2
Ion mode: NEGATIVE
Ionization: ESI
Fragmentation mode: CID
Collision energy: 10 eV
Resolution: 35000
Column name: Acclaim RSLC C18 2.2um, 2.1x100mm, Thermo
Retention time: 8.887 min
Base peak: 376.9676
Precursor m/z: 376.9689
Precursor type: [M-H]-
m/z	relative intensity
250.976	999
251.9781	10
376.969	29
