Mass spectrum: Pirimiphos-methyl; LC-ESI-QTOF; MS2; CE: 20 eV; R=35000; [M+H]+
Name: Pirimiphos-methyl
Name: 4-dimethoxyphosphinothioyloxy-N,N-diethyl-6-methylpyrimidin-2-amine
Formula: C11H20N3O3PS
Exact mass: 305.0962991
SMILES: CCN(CC)C1=NC(C)=CC(OP(=S)(OC)OC)=N1
InChI: InChI=1S/C11H20N3O3PS/c1-6-14(7-2)11-12-9(3)8-10(13-11)17-18(19,15-4)16-5/h8H,6-7H2,1-5H3
Instrument: Bruker maXis Impact
Instrument type: LC-ESI-QTOF
Ms type: MS2
Ion mode: POSITIVE
Ionization: ESI
Fragmentation mode: CID
Collision energy: 20 eV
Resolution: 35000
Column name: Acclaim RSLC C18 2.2um, 2.1x100mm, Thermo
Retention time: 11.470 min
Base peak: 306.1041
Precursor m/z: 306.1036
Precursor type: [M+H]+
m/z	relative intensity	assigned
124.981	7	H4N3OPS+
136.0859	24	C7H10N3+
164.1172	341	C6H16N2O3+
165.1201	25	C5[13]CH16N2O3+
196.1437	10	C10H18N3O+
207.0885	21	C11H13NO3+
233.0138	7	C11H7NO3S+
246.0453	6	C8H13N3O2PS+
274.0772	23	C10H17N3O2PS+
278.072	63	C9H17N3O3PS+
279.0745	6	C8[13]CH17N3O3PS+
306.1043	999	C11H21N3O3PS+
307.1065	194	C10[13]CH21N3O3PS+
308.1012	46	C11H21N3O3P[34]S+
