Mass spectrum: Flumethasone; LC-ESI-QTOF; MS2; CE: 50 eV; R=35000; [M+H]+
Name: Flumethasone
Name: (6S,8S,9R,10S,11S,13S,14S,16R,17R)-6,9-difluoro-11,17-dihydroxy-17-(2-hydroxyacetyl)-10,13,16-trimethyl-6,7,8,11,12,14,15,16-octahydrocyclopenta[a]phenanthren-3-one
Formula: C22H28F2O5
Exact mass: 410.1904804
SMILES: [H][C@@]12C[C@@H](C)[C@](O)(C(=O)CO)[C@@]1(C)C[C@H](O)[C@@]1(F)[C@@]2([H])C[C@H](F)C2=CC(=O)C=C[C@]12C
InChI: InChI=1S/C22H28F2O5/c1-11-6-13-14-8-16(23)15-7-12(26)4-5-19(15,2)21(14,24)17(27)9-20(13,3)22(11,29)18(28)10-25/h4-5,7,11,13-14,16-17,25,27,29H,6,8-10H2,1-3H3/t11-,13+,14+,16+,17+,19+,20+,21+,22+/m1/s1
Instrument: Bruker maXis Impact
Instrument type: LC-ESI-QTOF
Ms type: MS2
Ion mode: POSITIVE
Ionization: ESI
Fragmentation mode: CID
Collision energy: 50 eV
Resolution: 35000
Column name: Acclaim RSLC C18 2.2um, 2.1x100mm, Thermo
Retention time: 8.324 min
Base peak: 411.1973
Precursor m/z: 411.1978
Precursor type: [M+H]+
m/z	relative intensity	assigned
115.053	213	C9H7+
116.0606	53	C9H8+
117.0684	105	C9H9+
119.0844	132	C9H11+
121.0645	999	C8H9O+
122.068	98	C7[13]CH9O+
123.0621	62	C5H9F2O+
125.0588	42	C7H9O2+
128.0613	215	C10H8+
129.0695	108	C10H9+
131.0469	68	C9H7O+
131.0849	151	C10H11+
132.0558	50	C9H8O+
133.064	90	C9H9O+
133.1003	149	C10H13+
135.0794	319	C9H11O+
137.0744	44	C9H10F+
139.0544	238	C11H7+
139.0905	100	C9H12F+
141.0689	170	C11H9+
142.0752	73	C11H10+
143.0842	232	C11H11+
144.0561	81	C10H8O+
145.0636	361	C10H9O+
145.0998	147	C11H13+
146.0514	78	C10H7F+
146.0707	102	C10H10O+
147.079	345	C10H11O+
148.0814	52	C9[13]CH11O+
149.0758	52	C10H10F+
149.0953	44	C10H13O+
151.0534	41	C12H7+
152.0622	73	C12H8+
153.0693	86	C12H9+
154.0766	70	C12H10+
155.0858	132	C12H11+
156.0925	61	C12H12+
157.063	61	C11H9O+
157.0999	102	C12H13+
158.0719	206	C11H10O+
159.0589	83	C11H8F+
159.0791	383	C8H12FO2+
160.067	70	C11H9F+
160.0864	46	C7[13]CH12FO2+
161.0583	44	C10H9O2+
161.0749	49	C11H10F+
161.095	282	C11H13O+
163.0551	49	C10H8FO+
163.0904	103	C11H12F+
165.0688	222	C13H9+
166.075	75	C13H10+
167.0832	78	C13H11+
168.057	44	C12H8O+
169.063	186	C12H9O+
169.0998	107	C13H13+
170.07	98	C12H10O+
171.0799	469	C12H11O+
172.0834	69	C11[13]CH11O+
173.0942	124	C12H13O+
175.0891	44	C12H12F+
177.0708	53	C11H10FO+
178.0776	137	C14H10+
179.0851	162	C14H11+
180.0895	60	C14H12+
181.0639	64	C13H9O+
181.1005	99	C14H13+
182.0723	113	C13H10O+
183.0796	152	C13H11O+
183.1162	42	C14H15+
184.0869	60	C13H12O+
185.0583	63	C12H9O2+
185.0936	165	C13H13O+
187.0739	88	C12H11O2+
187.1089	51	C13H15O+
189.0691	95	C15H9+
190.0786	60	C12H11FO+
191.0849	146	C15H11+
192.0924	209	C15H12+
193.1004	155	C15H13+
194.074	54	C11H11FO2+
194.1089	95	C15H14+
195.0796	301	C14H11O+
195.1175	96	C12H16FO+
196.0863	145	C14H12O+
197.0935	175	C14H13O+
198.0994	58	C14H14O+
201.0687	41	C16H9+
201.0941	45	C7H15F2O4+
202.0788	47	C13H11FO+
203.084	137	C16H11+
204.093	98	C16H12+
205.0636	92	C15H9O+
205.0996	127	C16H13+
206.1047	60	C16H14+
207.0797	79	C15H11O+
207.1153	335	C16H15+
208.0882	192	C15H12O+
208.1191	75	C15[13]CH15+
209.0951	332	C15H13O+
209.1285	57	C16H17+
210.1031	291	C15H14O+
211.1119	98	C15H15O+
213.0941	49	C8H15F2O4+
215.0844	79	C17H11+
216.09	62	C17H12+
217.0995	139	C17H13+
218.1078	63	C17H14+
219.0773	98	C16H11O+
219.1149	95	C17H15+
220.0876	295	C16H12O+
221.0961	251	C16H13O+
221.1307	46	C17H17+
222.1027	356	C16H14O+
223.1089	223	C16H15O+
225.0918	76	C12H14FO3+
225.1261	185	C16H17O+
227.0858	44	C18H11+
229.1003	135	C18H13+
230.1061	89	C18H14+
231.0812	80	C14H12FO2+
231.1148	84	C18H15+
232.0866	66	C17H12O+
232.123	63	C18H16+
233.0943	148	C17H13O+
234.1016	118	C17H14O+
235.111	635	C17H15O+
236.1156	196	C17H16O+
237.0876	42	C16H13O2+
237.1262	158	C17H17O+
238.0967	247	C16H14O2+
239.101	101	C16H15O2+
240.0928	60	C19H12+
241.1013	56	C19H13+
242.1076	69	C19H14+
243.1173	99	C19H15+
244.1255	63	C16H17FO+
245.0963	181	C18H13O+
245.1299	44	C19H17+
246.1029	207	C18H14O+
247.1113	210	C18H15O+
248.1187	138	C18H16O+
249.125	103	C18H17O+
249.1656	54	C13H23F2O2+
250.1341	45	C18H18O+
251.1407	48	C18H19O+
253.122	329	C17H17O2+
256.1211	61	C20H16+
259.1094	178	C19H15O+
259.1498	45	C17H20FO+
260.1166	146	C19H16O+
261.1249	242	C19H17O+
262.1345	242	C19H18O+
263.1041	47	C18H15O2+
263.1386	86	C18[13]CH18O+
264.1138	46	C18H16O2+
272.1147	56	C20H16O+
273.1297	64	C14H19F2O3+
274.1364	89	C17H19FO2+
275.142	64	C20H19O+
277.1181	47	C19H17O2+
277.1566	58	C20H21O+
302.1293	54	C21H18O2+
