Mass spectrum: Thiocyclam; LC-ESI-QTOF; MS2; CE: 10 eV; R=35000; [M+H]+
Name: Thiocyclam
Name: N,N-dimethyltrithian-5-amine
Formula: C5H11NS3
Exact mass: 181.0053624
SMILES: CN(C)C1CSSSC1
InChI: InChI=1S/C5H11NS3/c1-6(2)5-3-7-9-8-4-5/h5H,3-4H2,1-2H3
Instrument: Bruker maXis Impact
Instrument type: LC-ESI-QTOF
Ms type: MS2
Ion mode: POSITIVE
Ionization: ESI
Fragmentation mode: CID
Collision energy: 10 eV
Resolution: 35000
Column name: Acclaim RSLC C18 2.2um, 2.1x100mm, Thermo
Retention time: 3.599 min
Base peak: 182.0133
Precursor m/z: 182.0126
Precursor type: [M+H]+
m/z	relative intensity	assigned
136.9551	566	C3H5S3+
138.9509	68	C3H5S2[34]S+
142.9926	36	C2H9NS3+
182.0134	999	C5H12NS3+
183.0153	86	C4[13]CH12NS3+
184.0091	144	C5H12NS2[34]S+
