Mass spectrum: N4-Acetylsulfathiazole; LC-ESI-QTOF; MS2; CE: 10 eV; R=35000; [M+H]+
Name: N4-Acetylsulfathiazole
Name: Acetylsulfathiazole
Name: N-[4-(1,3-thiazol-2-ylsulfamoyl)phenyl]acetamide
Formula: C11H11N3O3S2
Exact mass: 297.0241832
SMILES: CC(=O)NC1=CC=C(C=C1)S(=O)(=O)NC1=NC=CS1
InChI: InChI=1S/C11H11N3O3S2/c1-8(15)13-9-2-4-10(5-3-9)19(16,17)14-11-12-6-7-18-11/h2-7H,1H3,(H,12,14)(H,13,15)
Instrument: Bruker maXis Impact
Instrument type: LC-ESI-QTOF
Ms type: MS2
Ion mode: POSITIVE
Ionization: ESI
Fragmentation mode: CID
Collision energy: 10 eV
Resolution: 35000
Column name: Acclaim RSLC C18 2.2um, 2.1x100mm, Thermo
Retention time: 4.2 min
Base peak: 150.1118
Precursor m/z: 298.0315
Precursor type: [M+H]+
m/z	relative intensity	assigned
134.0594	5	C8H8NO+
150.0524	6	C8H8NO2+
198.0218	85	C8H8NO3S+
199.0242	9	C7[13]C1H8NO3S+
298.0319	999	C11H12N3O3S2+
299.0345	152	C10[13]CH12N3O3S2+
300.0271	96	C11H12N3O3[34]S[32]S+
