Mass spectrum: 2,6-Dichlorobenzamide; LC-ESI-QTOF; MS2; CE: 40 eV; R=35000; [M+H]+
Name: 2,6-Dichlorobenzamide
Name: 2,6-dichlorobenzamide
Formula: C7H5Cl2NO
Exact mass: 188.9748191
SMILES: NC(=O)C1=C(Cl)C=CC=C1Cl
InChI: InChI=1S/C7H5Cl2NO/c8-4-2-1-3-5(9)6(4)7(10)11/h1-3H,(H2,10,11)
Instrument: Bruker maXis Impact
Instrument type: LC-ESI-QTOF
Ms type: MS2
Ion mode: POSITIVE
Ionization: ESI
Fragmentation mode: CID
Collision energy: 40 eV
Resolution: 35000
Column name: Acclaim RSLC C18 2.2um, 2.1x100mm, Thermo
Retention time: 4.4 min
Base peak: 189.9815
Precursor m/z: 189.9821
Precursor type: [M+H]+
m/z	relative intensity	assigned
108.9835	39	C6H2Cl+
126.9932	40	C6H4ClO+
128.002	35	C6H5ClO+
135.994	42	C7H3ClN+
144.9599	275	C6H3Cl2+
145.9632	28	C5[13]CH3Cl2+
146.9569	180	C6H3[37]Cl[35]Cl+
154.0052	22	C7H5ClNO+
154.9985	22	C6H4ClN2O+
162.9698	153	C6H5Cl2O+
163.9997	117	C7H3ClN3+
165.9965	26	C4H6Cl2N3+
171.9711	30	C7H4Cl2N+
172.9541	999	C7H3Cl2O+
173.9575	101	C6[13]CH3Cl2O+
174.9516	546	C7H3[37]Cl[35]ClO+
175.9548	33	C5H2Cl2N2O+
