Mass spectrum: Bis(perfluorooctyl)phosphinate (8:8PFPi); LC-ESI-QTOF; MS2; CE: 33.9-50.9 eV; R=35000; [M-H]-
Name: Bis(perfluorooctyl)phosphinate (8:8PFPi)
Formula: C16HF34O2P
Exact mass: 901.9171
SMILES: C(C(C(C(C(F)(F)P(=O)(C(C(C(C(C(C(C(C(F)(F)F)(F)F)(F)F)(F)F)(F)F)(F)F)(F)F)(F)F)O)(F)F)(F)F)(F)F)(C(C(C(F)(F)F)(F)F)(F)F)(F)F
InChI: InChI=1S/C16HF34O2P/c17-1(18,5(25,26)9(33,34)13(41,42)43)3(21,22)7(29,30)11(37,38)15(47,48)53(51,52)16(49,50)12(39,40)8(31,32)4(23,24)2(19,20)6(27,28)10(35,36)14(44,45)46/h(H,51,52)
Instrument: Bruker maXis Impact
Instrument type: LC-ESI-QTOF
Ms type: MS2
Ionization: ESI
Fragmentation mode: CID
Collision energy: 33.9-50.9 eV
Resolution: 35000
Column name: Acclaim RSLC C18 2.2um, 2.1x100mm, Thermo
Retention time: 13.319 min
Base peak: 900.8966
Precursor m/z: 900.9098
Precursor type: [M-H]-
m/z	relative intensity	assigned
62.9627	11	O2P-
500.9337	30	C3F22OP-
900.8956	999	C16F34O2P-
