Mass spectrum: Pirimiphos-methyl; LC-ESI-QTOF; MS2; CE: 30 eV; R=35000; [M+H]+
Name: Pirimiphos-methyl
Name: 4-dimethoxyphosphinothioyloxy-N,N-diethyl-6-methylpyrimidin-2-amine
Formula: C11H20N3O3PS
Exact mass: 305.0962991
SMILES: CCN(CC)C1=NC(C)=CC(OP(=S)(OC)OC)=N1
InChI: InChI=1S/C11H20N3O3PS/c1-6-14(7-2)11-12-9(3)8-10(13-11)17-18(19,15-4)16-5/h8H,6-7H2,1-5H3
Instrument: Bruker maXis Impact
Instrument type: LC-ESI-QTOF
Ms type: MS2
Ion mode: POSITIVE
Ionization: ESI
Fragmentation mode: CID
Collision energy: 30 eV
Resolution: 35000
Column name: Acclaim RSLC C18 2.2um, 2.1x100mm, Thermo
Retention time: 11.437 min
Base peak: 306.1042
Precursor m/z: 306.1036
Precursor type: [M+H]+
m/z	relative intensity	assigned
123.0907	14	C7H11N2+
124.9812	70	H4N3OPS+
136.0861	246	C4H12N2O3+
137.0889	15	C3[13]CH12N2O3+
142.9916	31	H6N3O2PS+
151.0255	23	C7H5NO3+
164.1172	999	C6H16N2O3+
165.1201	69	C5[13]CH16N2O3+
168.112	18	C8H14N3O+
179.0568	39	C9H9NO3+
196.1434	24	C10H18N3O+
207.0886	49	C11H13NO3+
218.0143	5	C10H6N2O2S+
233.0138	13	C11H7NO3S+
236.0246	7	C10H8N2O3S+
246.0454	30	C8H13N3O2PS+
250.0402	13	C11H10N2O3S+
264.056	5	C8H15N3O3PS+
274.0769	27	C10H17N3O2PS+
278.0721	82	C9H17N3O3PS+
279.0748	8	C8[13]CH17N3O3PS+
306.1036	294	C11H21N3O3PS+
307.1062	32	C10[13]CH21N3O3PS+
308.1011	9	C11H21N3O3P[34]S+
