Mass spectrum: Diuron; LC-ESI-QTOF; MS2; CE: 50 eV; R=35000; [M+H]+
Name: Diuron
Name: 3-(3,4-dichlorophenyl)-1,1-dimethylurea
Formula: C9H10Cl2N2O
Exact mass: 232.0170183
SMILES: CN(C)C(=O)NC1=CC=C(Cl)C(Cl)=C1
InChI: InChI=1S/C9H10Cl2N2O/c1-13(2)9(14)12-6-3-4-7(10)8(11)5-6/h3-5H,1-2H3,(H,12,14)
Instrument: Bruker maXis Impact
Instrument type: LC-ESI-QTOF
Ms type: MS2
Ion mode: POSITIVE
Ionization: ESI
Fragmentation mode: CID
Collision energy: 50 eV
Resolution: 35000
Column name: Acclaim RSLC C18 2.2um, 2.1x100mm, Thermo
Retention time: 8.587 min
Base peak: 233.0243
Precursor m/z: 233.0243
Precursor type: [M+H]+
m/z	relative intensity	assigned
123.9944	100	C6H3ClN+
125.0016	601	C6H4ClN+
125.991	27	C6H3[37]ClN+
126.005	44	C5[13]CH4ClN+
126.999	153	C6H4[37]ClN+
128.0033	24	C3H8Cl2N+
132.9596	999	C5H3Cl2+
133.9626	75	C4[13]CH3Cl2+
134.9566	628	C5H3Cl[37]Cl+
135.9602	34	C3H2Cl2N2+
144.96	33	C6H3Cl2+
146.9559	35	C6H3Cl[37]Cl+
152.9961	95	C7H4ClNO+
154.9937	30	C7H4[37]ClNO+
159.9704	453	C6H4Cl2N+
160.9746	30	C5[13]CH4Cl2N+
161.9677	271	C6H4Cl[37]ClN+
162.9688	29	C7ClN2O+
172.9657	144	C9ClNO+
174.963	68	C9[37]ClNO+
