Mass spectrum: Tamoxifen; LC-ESI-QTOF; MS2; CE: Ramp 23.0-34.6 eV; R=35000; [M+H]+
Name: Tamoxifen
Name: 2-[4-[(Z)-1,2-diphenylbut-1-enyl]phenoxy]-N,N-dimethylethanamine
Formula: C26H29NO
Exact mass: 371.2249145
SMILES: CC\C(=C(/C1=CC=CC=C1)C1=CC=C(OCCN(C)C)C=C1)C1=CC=CC=C1
InChI: InChI=1S/C26H29NO/c1-4-25(21-11-7-5-8-12-21)26(22-13-9-6-10-14-22)23-15-17-24(18-16-23)28-20-19-27(2)3/h5-18H,4,19-20H2,1-3H3/b26-25-
Instrument: Bruker maXis Impact
Instrument type: LC-ESI-QTOF
Ms type: MS2
Ion mode: POSITIVE
Ionization: ESI
Fragmentation mode: CID
Collision energy: Ramp 23.0-34.6 eV
Resolution: 35000
Column name: Acclaim RSLC C18 2.2um, 2.1x100mm, Thermo
Retention time: 10.699 min
Base peak: 372.2326
Precursor m/z: 372.2322
Precursor type: [M+H]+
m/z	relative intensity	assigned
56.0491	6	C3H6N+
57.057	8	C3H7N+
58.0646	20	C3H8N+
70.0649	33	C4H8N+
72.0808	999	C4H10N+
73.084	48	C3[13]CH10N+
91.0547	15	C7H7+
129.0693	38	C10H9+
178.0768	6	C14H10+
193.1	5	C15H13+
207.1163	14	C16H15+
209.0956	10	C15H13O+
221.0952	5	C16H13O+
249.1271	5	C18H17O+
285.1282	5	C21H17O+
298.1345	5	C22H18O+
300.1503	6	C22H20O+
327.175	11	C24H23O+
372.2326	473	C26H30NO+
373.2359	173	C25[13]CH30NO+
374.2389	25	C24[13]C2H30NO+
