Mass spectrum: Piperine; LC-ESI-QTOF; MS2; CE: Ramp 21.1-31.7 eV; R=35000; [M+H]+
Name: Piperine
Name: (2E,4E)-5-(1,3-benzodioxol-5-yl)-1-piperidin-1-ylpenta-2,4-dien-1-one
Formula: C17H19NO3
Exact mass: 285.1364935
SMILES: O=C(\C=C\C=C\C1=CC2=C(OCO2)C=C1)N1CCCCC1
InChI: InChI=1S/C17H19NO3/c19-17(18-10-4-1-5-11-18)7-3-2-6-14-8-9-15-16(12-14)21-13-20-15/h2-3,6-9,12H,1,4-5,10-11,13H2/b6-2+,7-3+
Instrument: Bruker maXis Impact
Instrument type: LC-ESI-QTOF
Ms type: MS2
Ion mode: POSITIVE
Ionization: ESI
Fragmentation mode: CID
Collision energy: Ramp 21.1-31.7 eV
Resolution: 35000
Column name: Acclaim RSLC C18 2.2um, 2.1x100mm, Thermo
Retention time: 10.042 min
Base peak: 286.1443
Precursor m/z: 286.1438
Precursor type: [M+H]+
m/z	relative intensity	assigned
69.0693	84	C5H9+
84.0805	45	C5H10N+
86.0962	42	C5H12N+
112.0771	62	C6H10NO+
115.0548	117	C9H7+
116.0578	12	C8[13]CH7+
117.07	7	C9H9+
135.0439	288	C8H7O2+
136.047	22	C7[13]CH7O2+
143.0486	123	C10H7O+
144.0517	13	C9[13]CH7O+
150.0901	7	C9H12NO+
151.0982	26	C9H13NO+
159.0431	31	C10H7O2+
171.0431	144	C11H7O2+
172.0465	13	C10[13]CH7O2+
173.0591	67	C11H9O2+
174.0624	6	C10[13]CH9O2+
185.0951	5	C13H13O+
201.0543	999	C12H9O3+
202.0575	134	C11[13]CH9O3+
203.0601	11	C10[13]C2H9O3+
286.1441	373	C17H20NO3+
287.1475	79	C16[13]CH20NO3+
288.1505	7	C15[13]C2H20NO3+
