Mass spectrum: Metazachlor OA; LC-ESI-QTOF; MS2; CE: 20 eV; R=35000; [M+H]+
Name: Metazachlor OA
Name: [(2,6-Dimethylphenyl)(1H-pyrazol-1-ylmethyl)amino](oxo)acetic acid
Name: 2-[2,6-dimethyl-N-(pyrazol-1-ylmethyl)anilino]-2-oxoacetic acid
Formula: C14H15N3O3
Exact mass: 273.1113413
SMILES: CC1=CC=CC(C)=C1N(CN1C=CC=N1)C(=O)C(O)=O
InChI: InChI=1S/C14H15N3O3/c1-10-5-3-6-11(2)12(10)17(13(18)14(19)20)9-16-8-4-7-15-16/h3-8H,9H2,1-2H3,(H,19,20)
Instrument: Bruker maXis Impact
Instrument type: LC-ESI-QTOF
Ms type: MS2
Ion mode: POSITIVE
Ionization: ESI
Fragmentation mode: CID
Collision energy: 20 eV
Resolution: 35000
Column name: Acclaim RSLC C18 2.2um, 2.1x100mm, Thermo
Retention time: 5.091 min
Base peak: 274.1178
Precursor m/z: 274.1186
Precursor type: [M+H]+
m/z	relative intensity	assigned
118.0634	11	C5H10O3+
119.0729	21	C8H9N+
132.0803	11	C9H10N+
134.0955	999	C6H14O3+
135.0987	108	C5[13]CH14O3+
148.0737	15	C9H10NO+
160.0755	15	C10H10NO+
162.0899	78	C10H12NO+
178.0853	26	C10H12NO2+
206.08	651	C11H12NO3+
207.0831	81	C10[13]CH12NO3+
208.0862	16	C13H10N3+
224.0917	24	C14H12N2O+
