Mass spectrum: Dichlorvos; GC-APCI-QTOF; MS2; CE: 40 eV; R=35000; [M+H]+
Name: Dichlorvos
Name: 2,2-dichloroethenyl dimethyl phosphate
Formula: C4H7Cl2O4P
Exact mass: 219.9459
SMILES: COP(=O)(OC)OC=C(Cl)Cl
InChI: InChI=1S/C4H7Cl2O4P/c1-8-11(7,9-2)10-3-4(5)6/h3H,1-2H3
Instrument: Bruker 450 GC coupled to maXis Impact
Instrument type: GC-APCI-QTOF
Ms type: MS2
Ion mode: POSITIVE
Ionization: APCI
Fragmentation mode: CID
Collision energy: 40 eV
Resolution: 35000
Column name: Rxi-5Sil MS column, 30m, 0.25mm i.d., 0.25Âµm film thickness (Restek)
Retention time: 9.795 min
Base peak: 220.9507
Precursor m/z: 220.9532
Precursor type: [M+H]+
m/z	relative intensity	assigned
46.968	29	OP+
62.9984	25	CH4OP+
78.9942	43	CH4O2P+
93.0097	11	C2H6O2P+
112.9995	35	CH6O4P+
127.015	999	C2H8O4P+
144.9801	19	C2H7ClO3P+
