Mass spectrum: Bisoprolol; LC-ESI-QTOF; MS2; CE: Ramp 22.1-33.2 eV; R=35000; [M+H]+
Name: Bisoprolol
Name: 1-(propan-2-ylamino)-3-[4-(2-propan-2-yloxyethoxymethyl)phenoxy]propan-2-ol
Formula: C18H31NO4
Exact mass: 325.2253085
SMILES: CC(C)NCC(O)COC1=CC=C(COCCOC(C)C)C=C1
InChI: InChI=1S/C18H31NO4/c1-14(2)19-11-17(20)13-23-18-7-5-16(6-8-18)12-21-9-10-22-15(3)4/h5-8,14-15,17,19-20H,9-13H2,1-4H3
Instrument: Bruker maXis Impact
Instrument type: LC-ESI-QTOF
Ms type: MS2
Ion mode: POSITIVE
Ionization: ESI
Fragmentation mode: CID
Collision energy: Ramp 22.1-33.2 eV
Resolution: 35000
Column name: Acclaim RSLC C18 2.2um, 2.1x100mm, Thermo
Retention time: 5.721 min
Base peak: 326.2332
Precursor m/z: 326.2326
Precursor type: [M+H]+
m/z	relative intensity	assigned
45.0339	13	C2H5O+
56.0489	176	C3H6N+
57.0523	5	C2[13]CH6N+
58.0644	22	C3H8N+
72.0802	304	C4H10N+
73.0835	11	C3[13]CH10N+
74.0595	831	C3H8NO+
75.0435	30	C3H7O2+
75.0629	20	C2[13]CH8NO+
79.0535	5	C6H7+
84.0803	7	C5H10N+
89.038	9	C7H5+
91.0542	35	C7H7+
98.0968	165	C6H12N+
99.1005	8	C5[13]CH12N+
100.112	5	C6H14N+
105.0703	6	C8H9+
107.05	53	C7H7O+
116.108	999	C6H14NO+
117.1108	52	C5[13]CH14NO+
119.0491	18	C8H7O+
121.0645	13	C8H9O+
133.0643	58	C9H9O+
134.0669	6	C8[13]CH9O+
137.0591	9	C8H9O2+
145.0642	36	C10H9O+
147.0798	63	C10H11O+
148.0832	6	C9[13]CH11O+
162.0903	44	C10H12NO+
163.0745	19	C10H11O2+
180.1008	8	C10H14NO2+
204.1383	46	C13H18NO+
205.1415	7	C12[13]CH18NO+
222.1485	28	C13H20NO2+
308.2223	9	C18H30NO3+
326.233	771	C18H32NO4+
327.2362	179	C17[13]CH32NO4+
