Mass spectrum: 3,3`-Dimethylbenzidine; LC-ESI-QTOF; MS2; CE: Ramp 18.5-27.7 eV; R=35000; [M+H]+
Name: 3,3`-Dimethylbenzidine
Name: 4-(4-amino-3-methylphenyl)-2-methylaniline
Formula: C14H16N2
Exact mass: 212.13134851
SMILES: CC1=CC(=CC=C1N)C1=CC=C(N)C(C)=C1
InChI: InChI=1S/C14H16N2/c1-9-7-11(3-5-13(9)15)12-4-6-14(16)10(2)8-12/h3-8H,15-16H2,1-2H3
Instrument: Bruker maXis Impact
Instrument type: LC-ESI-QTOF
Ms type: MS2
Ion mode: POSITIVE
Ionization: ESI
Fragmentation mode: CID
Collision energy: Ramp 18.5-27.7 eV
Resolution: 35000
Column name: Acclaim RSLC C18 2.2um, 2.1x100mm, Thermo
Retention time: 5.631 min
Base peak: 213.138
Precursor m/z: 213.1386
Precursor type: [M+H]+
m/z	relative intensity	assigned
106.0662	7	C7H8N+
107.0742	8	C7H9N+
165.0687	5	C13H9+
170.096	5	C12H12N+
178.077	9	C14H10+
179.0849	16	C14H11+
180.0808	100	C13H10N+
181.0882	247	C13H11N+
182.0915	31	C12[13]CH11N+
183.0912	5	C12H11N2+
194.0958	14	C14H12N+
195.103	14	C14H13N+
196.1116	340	C14H14N+
197.1114	61	C13[13]CH14N+
198.1151	254	C13H14N2+
199.1182	29	C12[13]CH14N2+
211.1232	116	C14H15N2+
212.1305	999	C14H16N2+
213.1375	654	C14H17N2+
214.1417	67	C13[13]CH17N2+
