Mass spectrum: Parathion-methyl; LC-ESI-QTOF; MS2; CE: 10 eV; R=35000; [M+H]+
Name: Parathion-methyl
Name: Methyl parathion
Name: dimethoxy-(4-nitrophenoxy)-sulfanylidene-lambda5-phosphane
Formula: C8H10NO5PS
Exact mass: 263.0017300
SMILES: COP(=S)(OC)OC1=CC=C(C=C1)[N+]([O-])=O
InChI: InChI=1S/C8H10NO5PS/c1-12-15(16,13-2)14-8-5-3-7(4-6-8)9(10)11/h3-6H,1-2H3
Instrument: Bruker maXis Impact
Instrument type: LC-ESI-QTOF
Ms type: MS2
Ion mode: POSITIVE
Ionization: ESI
Fragmentation mode: CID
Collision energy: 10 eV
Resolution: 35000
Column name: Acclaim RSLC C18 2.2um, 2.1x100mm, Thermo
Retention time: 9.296 min
Base peak: 228.1275
Precursor m/z: 264.009
Precursor type: [M+H]+
m/z	relative intensity	assigned
124.9814	24	C2H6O2PS+
142.9924	19	C2H8O3PS+
231.9838	21	C7H7NO4PS+
249.9938	108	C7H9NO5PS+
264.0079	999	C8H11NO5PS+
265.0116	125	C7[13]CH11NO5PS+
266.0082	46	C8H11NO5P[34]S+
