Mass spectrum: 2-Aminobenzimidazole; LC-ESI-QTOF; MS2; CE: 20 eV; R=35000; [M+H]+
Name: 2-Aminobenzimidazole
Name: 1H-benzimidazol-2-amine
Formula: C7H7N3
Exact mass: 133.0639972
SMILES: c1ccc2c(c1)[nH]c(=N)[nH]2
InChI: InChI=1S/C7H7N3/c8-7-9-5-3-1-2-4-6(5)10-7/h1-4H,(H3,8,9,10)
Instrument: Bruker maXis Impact
Instrument type: LC-ESI-QTOF
Ms type: MS2
Ion mode: POSITIVE
Ionization: ESI
Fragmentation mode: CID
Collision energy: 20 eV
Resolution: 35000
Column name: Acclaim RSLC C18 2.2um, 2.1x100mm, Thermo
Retention time: 3.908 min
Base peak: 134.0717
Precursor m/z: 134.0713
Precursor type: [M+H]+
m/z	relative intensity	assigned
117.0445	5	C7H5N2+
133.0633	13	C7H7N3+
134.0716	999	C7H8N3+
135.0746	67	C6[13]CH8N3+
