Mass spectrum: Sitagliptin; LC-ESI-QTOF; MS2; CE: 40 eV; R=35000; [M+H]+
Name: Sitagliptin
Name: (3R)-3-amino-1-[3-(trifluoromethyl)-6,8-dihydro-5H-[1,2,4]triazolo[4,3-a]pyrazin-7-yl]-4-(2,4,5-trifluorophenyl)butan-1-one
Formula: C16H15F6N5O
Exact mass: 407.1180794
SMILES: c1c(c(cc(c1F)F)F)C[C@H](CC(=O)N2CCn3c(nnc3C(F)(F)F)C2)N
InChI: InChI=1S/C16H15F6N5O/c17-10-6-12(19)11(18)4-8(10)3-9(23)5-14(28)26-1-2-27-13(7-26)24-25-15(27)16(20,21)22/h4,6,9H,1-3,5,7,23H2/t9-/m1/s1
Instrument: Bruker maXis Impact
Instrument type: LC-ESI-QTOF
Ms type: MS2
Ion mode: POSITIVE
Ionization: ESI
Fragmentation mode: CID
Collision energy: 40 eV
Resolution: 35000
Column name: Acclaim RSLC C18 2.2um, 2.1x100mm, Thermo
Retention time: 5.381 min
Base peak: 408.1275
Precursor m/z: 408.1254
Precursor type: [M+H]+
m/z	relative intensity	assigned
127.0352	123	C2H4F3N3+
128.0393	15	C5H5FN2O+
134.0412	14	C5H6F2NO+
137.0326	8	C4H4F3N2+
138.0278	55	C8H4F2+
145.0257	16	C2H3F4N3+
150.0286	6	C6H5F3O+
151.0361	19	CH5F4N3O+
153.038	8	C3H4F3N4+
154.0462	167	C8H6F2N+
155.0498	28	C11H7O+
165.0401	9	C6H6F3NO+
168.0386	22	C9H6F2O+
171.0421	78	CH6F5N3O+
172.046	8	C7H6F2N2O+
174.0533	999	F5H7N4O+
176.0438	8	C3H6F4N3O+
193.0708	693	C8H10F3NO+
194.0721	51	C7[13]CH10F3NO+
199.0406	15	C2H5F6N4+
219.0488	9	C7H6F3N4O+
235.0814	177	C13H11F2NO+
237.0614	11	C7H7F4N5+
391.1009	15	C16H13F6N4O+
