Mass spectrum: 4-Formylaminoantipyrine; LC-ESI-QTOF; MS2; CE: 50 eV; R=35000; [M+H]+
Name: 4-Formylaminoantipyrine
Name: N-(1,5-dimethyl-3-oxo-2-phenylpyrazol-4-yl)formamide
Formula: C12H13N3O2
Exact mass: 231.1007767
SMILES: Cc1c(c(=O)n(n1C)c2ccccc2)/N=C/O
InChI: InChI=1S/C12H13N3O2/c1-9-11(13-8-16)12(17)15(14(9)2)10-6-4-3-5-7-10/h3-8H,1-2H3,(H,13,16)
Instrument: Bruker maXis Impact
Instrument type: LC-ESI-QTOF
Ms type: MS2
Ion mode: POSITIVE
Ionization: ESI
Fragmentation mode: CID
Collision energy: 50 eV
Resolution: 35000
Column name: Acclaim RSLC C18 2.2um, 2.1x100mm, Thermo
Retention time: 3.9 min
Base peak: 232.1074
Precursor m/z: 232.1081
Precursor type: [M+H]+
m/z	relative intensity	assigned
115.0525	344	C9H7+
117.0564	420	C8H7N+
118.0628	280	C3H8N3O2+
119.0608	313	C7H7N2+
128.0491	728	C9H6N+
129.0437	274	C8H5N2+
130.0642	999	C9H8N+
131.0596	257	C8H7N2+
131.0677	268	C4H9N3O2+
132.0442	175	C8H6NO+
132.0798	523	C9H10N+
133.0755	239	C8H9N2+
143.0587	278	C9H7N2+
144.0679	218	C9H8N2+
144.079	165	C10H10N+
145.0747	222	C9H9N2+
146.0596	307	C9H8NO+
159.0882	198	C5H11N4O2+
160.0869	408	C9H10N3+
170.0694	272	C10H8N3+
171.0533	334	C10H7N2O+
