Mass spectrum: Pentoxifylline; LC-ESI-QTOF; MS2; CE: 40 eV; R=35000; [M+H]+
Name: Pentoxifylline
Name: 3,7-dimethyl-1-(5-oxohexyl)purine-2,6-dione
Formula: C13H18N4O3
Exact mass: 278.1378904
SMILES: CC(=O)CCCCn1c(=O)c2c(ncn2C)n(c1=O)C
InChI: InChI=1S/C13H18N4O3/c1-9(18)6-4-5-7-17-12(19)10-11(14-8-15(10)2)16(3)13(17)20/h8H,4-7H2,1-3H3
Instrument: Bruker maXis Impact
Instrument type: LC-ESI-QTOF
Ms type: MS2
Ion mode: POSITIVE
Ionization: ESI
Fragmentation mode: CID
Collision energy: 40 eV
Resolution: 35000
Column name: Acclaim RSLC C18 2.2um, 2.1x100mm, Thermo
Retention time: 5.354 min
Base peak: 279.1455
Precursor m/z: 279.1452
Precursor type: [M+H]+
m/z	relative intensity	assigned
122.0575	27	C5H6N4+
123.0422	18	C5H5N3O+
135.0655	61	C6H7N4+
137.0811	76	C6H9N4+
138.0653	503	C6H8N3O+
139.0683	28	C5[13]CH8N3O+
156.0758	6	C6H10N3O2+
163.0604	129	C7H7N4O+
164.063	8	C6[13]CH7N4O+
165.0756	8	C7H9N4O+
181.0711	999	C7H9N4O2+
182.0738	62	C6[13]CH9N4O2+
193.0713	25	C8H9N4O2+
211.082	8	C8H11N4O3+
