Mass spectrum: Flufenoxuron; LC-ESI-QTOF; MS2; CE: 30 eV; R=35000; [M-H]-
Name: Flufenoxuron
Name: N-[[4-[2-chloro-4-(trifluoromethyl)phenoxy]-2-fluorophenyl]carbamoyl]-2,6-difluorobenzamide
Formula: C21H11ClF6N2O3
Exact mass: 488.0362392
SMILES: FC1=CC(OC2=CC=C(C=C2Cl)C(F)(F)F)=CC=C1NC(=O)NC(=O)C1=C(F)C=CC=C1F
InChI: InChI=1S/C21H11ClF6N2O3/c22-12-8-10(21(26,27)28)4-7-17(12)33-11-5-6-16(15(25)9-11)29-20(32)30-19(31)18-13(23)2-1-3-14(18)24/h1-9H,(H2,29,30,31,32)
Instrument: Bruker maXis Impact
Instrument type: LC-ESI-QTOF
Ms type: MS2
Ion mode: NEGATIVE
Ionization: ESI
Fragmentation mode: CID
Collision energy: 30 eV
Resolution: 35000
Column name: Acclaim RSLC C18 2.2um, 2.1x100mm, Thermo
Retention time: 12.777 min
Base peak: 487.0281
Precursor m/z: 487.029
Precursor type: [M-H]-
m/z	relative intensity	assigned
124.0188	82	CH3F5N-
156.0278	132	C4H5F3NO2-
178.9877	470	C7H3ClF3-
179.9918	61	C6[13]CH3ClF3-
180.9828	158	C7H3[37]ClF3-
194.9836	370	C9H4ClO3-
196.9821	128	C9H4[37]ClO3-
222.9808	107	C8H2ClF4N-
248.0301	81	C10H9ClF2NO2-
269.0321	89	C6H10ClF4N2O3-
283	76	C19HF2O-
284.0053	300	C16H5ClF2N-
285.0176	73	C15[13]CH5ClF2N-
286.0078	87	C16H5[37]ClF2N-
289.0416	165	C9H7F6N2O2-
304.0133	999	C16H4F4O2-
305.0182	130	C15[13]CH4F4O2-
306.0114	533	C13H6ClF5N-
329.0098	514	C14H6ClF4N2O-
330.0142	72	C13[13]CH6ClF4N2O-
331.0043	142	C14H6[37]ClF4N2O-
348.0041	71	C20H3F3O3-
411.0373	80	C21H10ClF6-
447.0179	97	C21H8ClF4N2O3-
