Mass spectrum: Citalopram; LC-ESI-QTOF; MS2; CE: 30 eV; R=35000; [M+H]+
Name: Citalopram
Name: 1-[3-(dimethylamino)propyl]-1-(4-fluorophenyl)-3H-2-benzofuran-5-carbonitrile
Formula: C20H21FN2O
Exact mass: 324.1637915
SMILES: CN(C)CCCC1(OCC2=C1C=CC(=C2)C#N)C1=CC=C(F)C=C1
InChI: InChI=1S/C20H21FN2O/c1-23(2)11-3-10-20(17-5-7-18(21)8-6-17)19-9-4-15(13-22)12-16(19)14-24-20/h4-9,12H,3,10-11,14H2,1-2H3
Instrument: Bruker maXis Impact
Instrument type: LC-ESI-QTOF
Ms type: MS2
Ion mode: POSITIVE
Ionization: ESI
Fragmentation mode: CID
Collision energy: 30 eV
Resolution: 35000
Column name: Acclaim RSLC C18 2.2um, 2.1x100mm, Thermo
Retention time: 6.6 min
Base peak: 278.2107
Precursor m/z: 325.1711
Precursor type: [M+H]+
m/z	relative intensity	assigned
109.0443	52	C7H6F+
110.0478	10	C5H6N2O+
116.0487	116	C8H6N+
117.0512	17	C3H7N3O2+
123.0227	19	C10H3+
123.0585	13	C8H8F+
125.0372	8	C10H5+
129.0684	26	C10H9+
130.0643	14	C9H8N+
133.0444	9	C9H6F+
137.0759	10	C9H10F+
140.0474	25	C10H6N+
142.0636	23	C10H8N+
144.0427	30	C9H6NO+
147.0576	12	C8H7N2O+
154.0641	20	C11H8N+
156.0797	106	C11H10N+
157.0829	21	C6H11N3O2+
159.0594	12	C11H8F+
166.0636	225	C12H8N+
167.0654	34	C7H9N3O2+
168.0785	18	C12H10N+
184.0744	29	C12H10NO+
215.0847	34	C17H11+
216.0877	11	C12H12N2O2+
218.0603	13	C15H8NO+
220.0679	12	C16H9F+
221.0627	122	C15H8FN+
222.0689	89	C15H9FN+
223.0761	19	C15H10FN+
224.0847	10	C15H11FN+
227.0716	84	C17H9N+
229.0888	8	C17H11N+
233.075	17	C17H10F+
234.0698	416	C16H9FN+
235.0733	81	C14H9N3O+
235.09	90	C17H12F+
236.0869	65	C16H11FN+
238.065	111	C18H8N+
239.0688	29	C18H9N+
240.0806	22	C18H10N+
241.0862	20	C18H11N+
242.0953	155	C18H12N+
243.0985	26	C13H13N3O2+
245.0742	13	C18H10F+
246.0728	20	C17H9FN+
247.0779	278	C17H10FN+
248.0811	50	C15H10N3O+
249.0823	10	C16H10FN2+
250.1012	77	C17H13FN+
251.1058	14	C17H14FN+
260.0864	49	C18H11FN+
261.0934	25	C18H12FN+
262.102	999	C18H13FN+
263.1048	193	C18H14FN+
264.1085	18	C17[13]CH14FN+
268.115	12	C17H15FNO+
280.1126	34	C18H15FNO+
307.1593	92	C20H20FN2+
308.1637	17	C20H21FN2+
325.17	317	C20H22FN2O+
326.1731	91	C18H22N4O2+
327.1739	14	C19H22FN3O+
