Mass spectrum: Imidacloprid-urea; LC-ESI-QTOF; MS2; CE: 40 eV; R=35000; [M+H]+
Name: Imidacloprid-urea
Name: 1-[(6-chloropyridin-3-yl)methyl]imidazolidin-2-one
Formula: C9H10ClN3O
Exact mass: 211.0512396
SMILES: c1cc(ncc1CN2CCN=C2O)Cl
InChI: InChI=1S/C9H10ClN3O/c10-8-2-1-7(5-12-8)6-13-4-3-11-9(13)14/h1-2,5H,3-4,6H2,(H,11,14)
Instrument: Bruker maXis Impact
Instrument type: LC-ESI-QTOF
Ms type: MS2
Ion mode: POSITIVE
Ionization: ESI
Fragmentation mode: CID
Collision energy: 40 eV
Resolution: 35000
Column name: Acclaim RSLC C18 2.2um, 2.1x100mm, Thermo
Retention time: 4.5 min
Base peak: 212.0581
Precursor m/z: 212.0585
Precursor type: [M+H]+
m/z	relative intensity	assigned
114.0097	88	
116.0071	34	C5H5[37]ClN+
116.0491	9	C8H6N+
117.0571	7	C8H7N+
118.0521	40	C7H6N2+
119.0582	13	C7H7N2+
120.0674	16	C7H8N2+
121.0741	12	C7H9N2+
123.0538	25	C6H7N2O+
123.9957	5	C6H3ClN+
126.0096	945	C6H5ClN+
127.0142	478	C5[13]CH6ClN+
128.0064	312	C6H5[37]ClN+
128.0253	999	C6H7ClN+
129.0284	69	C5[13]CH7ClN+
130.0222	317	C6H7[37]ClN+
131.0254	11	C5[13]CH7[37]ClN+
131.0593	38	C8H7N2+
132.0667	27	C8H8N2+
133.0751	83	C8H9N2+
134.0461	7	C7H6N2O+
134.0809	12	C3H10N4O2+
135.0562	7	C4H10ClN3+
137.0803	7	C6H9N4+
139.0053	10	C9HNO+
140.0253	8	C7H7ClN+
141.0204	101	C9H3NO+
142.0043	41	C7N3O+
142.0266	34	C9H4NO+
143.0179	34	ClH6N5O2+
143.0336	9	CH8ClN4O2+
144.0203	72	C6H7ClNO+
151.0046	20	C7H4ClN2+
152.0096	11	C6[13]CH4ClN2+
153.004	21	C7H4[37]ClN2+
154.0281	20	C7H7ClN2+
156.0241	6	C7H7ClNO+
164.0917	16	C7H10N5+
165.0214	10	C8H6ClN2+
167.0366	10	C8H8ClN2+
168.0195	9	C9H2N3O+
169.0143	24	C7H6ClN2O+
169.0509	15	C8H10ClN2+
176.0799	45	C9H10N3O+
177.0885	5	C9H11N3O+
194.0467	35	C9H9ClN3+
195.0303	9	C9H8ClN2O+
210.0444	9	C9H9ClN3O+
212.0599	11	C9H11ClN3O+
