Mass spectrum: Betamethasone 21-Acetate; LC-ESI-QTOF; MS2; CE: 10 eV; R=35000; [M+H]+
Name: Betamethasone 21-Acetate
Name: [2-[(8S,9R,10S,11S,13S,14S,16S,17R)-9-fluoro-11,17-dihydroxy-10,13,16-trimethyl-3-oxo-6,7,8,11,12,14,15,16-octahydrocyclopenta[a]phenanthren-17-yl]-2-oxoethyl] acetate
Formula: C24H31FO6
Exact mass: 434.2104669
SMILES: C[C@H]1C[C@H]2[C@@H]3CCC4=CC(=O)C=C[C@]4(C)[C@@]3(F)[C@@H](O)C[C@]2(C)[C@@]1(O)C(=O)COC(C)=O
InChI: InChI=1S/C24H31FO6/c1-13-9-18-17-6-5-15-10-16(27)7-8-21(15,3)23(17,25)19(28)11-22(18,4)24(13,30)20(29)12-31-14(2)26/h7-8,10,13,17-19,28,30H,5-6,9,11-12H2,1-4H3/t13-,17-,18-,19-,21-,22-,23-,24-/m0/s1
Instrument: Bruker maXis Impact
Instrument type: LC-ESI-QTOF
Ms type: MS2
Ion mode: POSITIVE
Ionization: ESI
Fragmentation mode: CID
Collision energy: 10 eV
Resolution: 35000
Column name: Acclaim RSLC C18 2.2um, 2.1x100mm, Thermo
Retention time: 9.1 min
Base peak: 150.1114
Precursor m/z: 435.2177
Precursor type: [M+H]+
m/z	relative intensity	assigned
279.1727	123	C20H23O+
291.1733	92	C21H23O+
309.1851	239	C21H25O2+
319.1719	178	C19H24FO3+
327.1952	101	C21H27O3+
337.1777	244	C22H25O3+
355.192	229	C19H28FO5+
379.1918	77	C21H28FO5+
397.2008	585	C24H29O5+
398.2019	147	C23[13]CH29O5+
415.2105	999	C24H31O6+
416.2151	389	C23[13]CH31O6+
417.212	75	C24H30FO5+
435.2163	748	C24H32FO6+
