Mass spectrum: Bezafibrate; LC-ESI-QTOF; MS2; CE: 30 eV; R=35000; [M+H]+
Name: Bezafibrate
Name: 2-[4-[2-[(4-chlorobenzoyl)amino]ethyl]phenoxy]-2-methylpropanoic acid
Formula: C19H20ClNO4
Exact mass: 361.1080858
SMILES: CC(C)(OC1=CC=C(CCNC(=O)C2=CC=C(Cl)C=C2)C=C1)C(O)=O
InChI: InChI=1S/C19H20ClNO4/c1-19(2,18(23)24)25-16-9-3-13(4-10-16)11-12-21-17(22)14-5-7-15(20)8-6-14/h3-10H,11-12H2,1-2H3,(H,21,22)(H,23,24)
Instrument: Bruker maXis Impact
Instrument type: LC-ESI-QTOF
Ms type: MS2
Ion mode: POSITIVE
Ionization: ESI
Fragmentation mode: CID
Collision energy: 30 eV
Resolution: 35000
Column name: Acclaim RSLC C18 2.2um, 2.1x100mm, Thermo
Retention time: 8.977 min
Base peak: 419.2683
Precursor m/z: 362.1154
Precursor type: [M+H]+
m/z	relative intensity	assigned
120.0547	13	C2H13ClO3+
121.0638	361	C8H9O+
122.0667	40	C7[13]CH9O+
138.9933	999	C7H4ClO+
139.9965	70	C6[13]CH4ClO+
140.9906	324	C7H4[37]ClO+
141.9939	15	C8NO2+
161.0948	159	C11H13O+
162.0993	27	C10[13]CH13O+
163.0727	24	C4H16ClO4+
189.0902	20	C12H13O2+
207.1026	18	C9H18ClNO2+
276.0771	73	C15H15ClNO2+
277.0802	21	C14[13]CH15ClNO2+
278.0803	21	C15H15[37]ClNO2+
316.1077	81	C18H19ClNO2+
317.1137	25	C17[13]CH19ClNO2+
318.1064	26	C18H19[37]ClNO2+
