Mass spectrum: Sulfamerazine; LC-ESI-QTOF; MS2; CE: Ramp 20.3-30.5 eV; R=35000; [M+H]+
Name: Sulfamerazine
Name: 4-amino-N-(4-methylpyrimidin-2-yl)benzenesulfonamide
Formula: C11H12N4O2S
Exact mass: 264.0681
SMILES: Cc1ccnc(n1)NS(=O)(=O)c2ccc(cc2)N
InChI: InChI=1S/C11H12N4O2S/c1-8-6-7-13-11(14-8)15-18(16,17)10-4-2-9(12)3-5-10/h2-7H,12H2,1H3,(H,13,14,15)
Instrument: Bruker maXis Impact
Instrument type: LC-ESI-QTOF
Ms type: MS2
Ion mode: POSITIVE
Ionization: ESI
Fragmentation mode: CID
Collision energy: Ramp 20.3-30.5 eV
Resolution: 35000
Column name: Acclaim RSLC C18 2.2um, 2.1x100mm, Thermo
Retention time: 4.0 min
Base peak: 265.0767
Precursor m/z: 265.0754
Precursor type: [M+H]+
m/z	relative intensity	assigned
53.0383	7	C4H5+
54.0337	5	C3H4N+
55.017	5	CHN3+
65.0382	90	C5H5+
66.0416	7	H6N2O2+
68.0491	134	C4H6N+
69.0332	16	C4H5O+
78.0334	18	C5H4N+
79.0174	17	C5H3O+
80.0497	11	C5H6N+
81.0443	21	C4H5N2+
82.0279	7	C2H2N4+
92.0496	220	C6H6N+
93.0561	23	C6H7N+
94.0648	46	C6H8N+
96.0448	15	C5H6NO+
108.0462	327	CH8N4S+
109.0494	21	C4H5N4+
110.0727	337	C7H10O+
111.075	20	C3H13NOS+
120.0558	38	C6H6N3+
156.0119	999	C6H6NO2S+
157.0146	73	C7HN4O+
158.0079	48	C9H4NS+
172.0175	86	C5H6N3O2S+
173.0195	5	C8H3N3O2+
174.0218	46	C4H6N4O2S+
190.029	682	C11H2N4+
191.0307	40	C9H7N2OS+
192.0249	21	C10H8O2S+
199.0986	220	C11H11N4+
200.1001	20	C11H12N4+
201.1135	16	C11H13N4+
265.0768	581	C11H13N4O2S+
266.08	62	C10H12N5O2S+
267.0739	23	C10H13N5O2S+
