Mass spectrum: Telmisartan; LC-ESI-QTOF; MS2; CE: 10 eV; R=35000; [M-H]-
Name: Telmisartan
Name: 2-[4-[[4-methyl-6-(1-methylbenzimidazol-2-yl)-2-propylbenzimidazol-1-yl]methyl]phenyl]benzoic acid
Formula: C33H30N4O2
Exact mass: 514.2368762
SMILES: CCCc1nc2c(cc(cc2n1Cc3ccc(cc3)c4ccccc4C(=O)O)c5nc6ccccc6n5C)C
InChI: InChI=1S/C33H30N4O2/c1-4-9-30-35-31-21(2)18-24(32-34-27-12-7-8-13-28(27)36(32)3)19-29(31)37(30)20-22-14-16-23(17-15-22)25-10-5-6-11-26(25)33(38)39/h5-8,10-19H,4,9,20H2,1-3H3,(H,38,39)
Instrument: Bruker maXis Impact
Instrument type: LC-ESI-QTOF
Ms type: MS2
Ion mode: NEGATIVE
Ionization: ESI
Fragmentation mode: CID
Collision energy: 10 eV
Resolution: 35000
Column name: Acclaim RSLC C18 2.2um, 2.1x100mm, Thermo
Retention time: 9.597 min
Base peak: 513.2235
Precursor m/z: 513.2296
Precursor type: [M-H]-
m/z	relative intensity	assigned
513.2249	999	C33H29N4O2-
514.2258	413	C32[13]CH29N4O2-
