Mass spectrum: Flufenoxuron; LC-ESI-QTOF; MS2; CE: 20 eV; R=35000; [M-H]-
Name: Flufenoxuron
Name: N-[[4-[2-chloro-4-(trifluoromethyl)phenoxy]-2-fluorophenyl]carbamoyl]-2,6-difluorobenzamide
Formula: C21H11ClF6N2O3
Exact mass: 488.0362392
SMILES: FC1=CC(OC2=CC=C(C=C2Cl)C(F)(F)F)=CC=C1NC(=O)NC(=O)C1=C(F)C=CC=C1F
InChI: InChI=1S/C21H11ClF6N2O3/c22-12-8-10(21(26,27)28)4-7-17(12)33-11-5-6-16(15(25)9-11)29-20(32)30-19(31)18-13(23)2-1-3-14(18)24/h1-9H,(H2,29,30,31,32)
Instrument: Bruker maXis Impact
Instrument type: LC-ESI-QTOF
Ms type: MS2
Ion mode: NEGATIVE
Ionization: ESI
Fragmentation mode: CID
Collision energy: 20 eV
Resolution: 35000
Column name: Acclaim RSLC C18 2.2um, 2.1x100mm, Thermo
Retention time: 12.802 min
Base peak: 487.0283
Precursor m/z: 487.029
Precursor type: [M-H]-
m/z	relative intensity	assigned
156.0257	373	C10H3FN-
178.9881	57	C7H3ClF3-
194.9844	85	C4H4ClF4O2-
284.0032	41	C11H6ClF5O-
284.0175	55	C12H7ClF2N2O2-
289.043	114	C14H7F2N2O3-
304.0137	999	C10H8ClF5NO2-
305.022	117	C9[13]CH8ClF5NO2-
306.0109	193	C10H8[37]ClF5NO2-
307.0143	35	C16H7ClF3O-
329.0102	215	C19H6ClN2O2-
330.0158	37	C18[13]CH6ClN2O2-
331.0031	82	C19H6[37]ClN2O2-
348.0044	70	C17H6ClF3NO2-
411.0365	149	C21H10ClF2N2O3-
447.0141	103	C20H10ClF6O3-
448.0264	32	C19[13]CH10ClF6O3-
449.0112	31	C20H10[37]ClF6O3-
449.0255	44	C20H10[37]ClF6O3-
455.027	31	C20H9ClF5N2O3-
467.0226	40	C21H9ClF5N2O3-
467.034	35	C21H9ClF5N2O3-
487.033	43	C21H10ClF6N2O3-
