Mass spectrum: Lovastatin; LC-ESI-QTOF; MS2; CE: 10 eV; R=35000; [M+H]+
Name: Lovastatin
Name: [(1S,3R,7S,8S,8aR)-8-[2-[(2R,4R)-4-hydroxy-6-oxooxan-2-yl]ethyl]-3,7-dimethyl-1,2,3,7,8,8a-hexahydronaphthalen-1-yl] (2S)-2-methylbutanoate
Formula: C24H36O5
Exact mass: 404.2562743
SMILES: CC[C@H](C)C(=O)O[C@H]1C[C@H](C=C2[C@H]1[C@H]([C@H](C=C2)C)CC[C@@H]3C[C@H](CC(=O)O3)O)C
InChI: InChI=1S/C24H36O5/c1-5-15(3)24(27)29-21-11-14(2)10-17-7-6-16(4)20(23(17)21)9-8-19-12-18(25)13-22(26)28-19/h6-7,10,14-16,18-21,23,25H,5,8-9,11-13H2,1-4H3/t14-,15-,16-,18+,19+,20-,21-,23-/m0/s1
Instrument: Bruker maXis Impact
Instrument type: LC-ESI-QTOF
Ms type: MS2
Ion mode: POSITIVE
Ionization: ESI
Fragmentation mode: CID
Collision energy: 10 eV
Resolution: 35000
Column name: Acclaim RSLC C18 2.2um, 2.1x100mm, Thermo
Retention time: 12.127 min
Base peak: 405.2662
Precursor m/z: 405.2636
Precursor type: [M+H]+
m/z	relative intensity	assigned
125.0595	15	C7H9O2+
143.0716	102	C7H11O3+
145.1012	16	C11H13+
159.1175	38	C12H15+
171.1165	13	C13H15+
173.133	210	C13H17+
174.1366	39	C13H18+
199.1497	828	C15H19+
200.1523	112	C14[13]CH19+
201.1648	104	C15H21+
202.1693	21	C15H22+
209.1185	22	C12H17O3+
223.0649	68	C11H11O5+
223.1485	30	C17H19+
225.1652	215	C17H21+
226.1681	36	C17H22+
239.1807	46	C18H23+
240.1851	15	C18H24+
243.1755	431	C17H23O+
244.1789	107	C16[13]CH23O+
245.1871	13	C17H25O+
249.1655	70	C19H21+
250.1688	14	C19H22+
267.176	271	C19H23O+
268.1781	66	C18[13]CH23O+
285.1865	999	C19H25O2+
286.1899	237	C18[13]CH25O2+
297.0839	72	C21H13O2+
303.1969	702	C19H27O3+
304.2012	148	C18[13]CH27O3+
321.205	15	C19H29O4+
405.2668	571	C24H37O5+
406.2701	171	C23[13]CH37O5+
