Mass spectrum: Sarafloxacin; LC-ESI-QTOF; MS2; CE: 40 eV; R=35000; [M+H]+
Name: Sarafloxacin
Name: 6-fluoro-1-(4-fluorophenyl)-4-oxo-7-piperazin-1-ylquinoline-3-carboxylic acid
Formula: C20H17F2N3O3
Exact mass: 385.1237978
SMILES: c1cc(ccc1n2cc(c(=O)c3c2cc(c(c3)F)N4CCNCC4)C(=O)O)F
InChI: InChI=1S/C20H17F2N3O3/c21-12-1-3-13(4-2-12)25-11-15(20(27)28)19(26)14-9-16(22)18(10-17(14)25)24-7-5-23-6-8-24/h1-4,9-11,23H,5-8H2,(H,27,28)
Instrument: Bruker maXis Impact
Instrument type: LC-ESI-QTOF
Ms type: MS2
Ion mode: POSITIVE
Ionization: ESI
Fragmentation mode: CID
Collision energy: 40 eV
Resolution: 35000
Column name: Acclaim RSLC C18 2.2um, 2.1x100mm, Thermo
Retention time: 5.0 min
Base peak: 360.1716
Precursor m/z: 386.1311
Precursor type: [M+H]+
m/z	relative intensity	assigned
171.0911	15	C11H11N2+
189.0822	41	C11H10FN2+
270.0957	50	C16H12F2N2+
273.0837	12	C15H11F2N2O+
285.0866	21	C18H11N3O+
291.1153	12	C15H16FN2O3+
292.0903	17	C16H14F2O3+
292.1281	29	C17H18F2O2+
299.0991	64	C17H13F2N2O+
300.1027	22	C17H15FNO3+
312.1299	20	C18H16F2N3+
320.0852	31	C20H13FO3+
320.1212	28	C16H16F2N3O2+
338.0915	33	C18H13FN3O3+
340.123	19	C19H17FN2O3+
348.1152	56	C17H16F2N3O3+
366.1263	124	C20H17FN3O3+
367.1293	37	C20H18FN3O3+
368.1202	275	C20H16F2N3O2+
369.124	54	C19[13]CH16F2N3O2+
386.1313	999	C20H18F2N3O3+
387.1361	196	C19[13]CH18F2N3O3+
