Mass spectrum: Morantel; LC-ESI-QTOF; MS2; CE: 40 eV; R=35000; [M+H]+
Name: Morantel
Name: 1-methyl-2-[(E)-2-(3-methylthiophen-2-yl)ethenyl]-5,6-dihydro-4H-pyrimidine
Formula: C12H16N2S
Exact mass: 220.1034195
SMILES: Cc1ccsc1/C=C/C2=NCCCN2C
InChI: InChI=1S/C12H16N2S/c1-10-6-9-15-11(10)4-5-12-13-7-3-8-14(12)2/h4-6,9H,3,7-8H2,1-2H3/b5-4+
Instrument: Bruker maXis Impact
Instrument type: LC-ESI-QTOF
Ms type: MS2
Ion mode: POSITIVE
Ionization: ESI
Fragmentation mode: CID
Collision energy: 40 eV
Resolution: 35000
Column name: Acclaim RSLC C18 2.2um, 2.1x100mm, Thermo
Retention time: 4.7 min
Base peak: 221.1027
Precursor m/z: 221.1107
Precursor type: [M+H]+
m/z	relative intensity	assigned
111.0226	22	C9H3+
117.05	70	C4H9N2S+
118.058	19	C4H10N2S+
121.0052	23	C10H+
122.0002	12	C9N+
122.0131	51	C10H2+
123.0208	999	C10H3+
124.0247	57	C9[13]CH3+
125.0159	25	C5H5N2S+
130.0582	16	C5H10N2S+
131.0652	36	C5H11N2S+
133.0056	20	C11H+
134.0126	31	C11H2+
135.0078	12	C10HN+
135.0212	25	C11H3+
136.0934	33	C6H16OS+
137.0368	17	C11H5+
138.0323	42	C10H4N+
145.0695	17	C7H13OS+
148.0159	26	C11H2N+
150.0315	854	C11H4N+
151.0185	14	C11H3O+
151.0353	47	C10[13]CH4N+
152.0235	19	C7H6N2[34]S+
159.0888	24	C10H11N2+
160.0928	11	C8H16OS+
161.0117	11	C11HN2+
161.1042	12	C10H13N2+
163.0264	18	C11H3N2+
163.0346	25	C8H7N2S+
164.0468	886	C12H6N+
165.0504	73	C11[13]CH6N+
166.0395	29	C8H8N2[34]S+
173.1003	136	C9H17OS+
174.1036	16	C12H14O+
177.0423	23	C12H5N2+
187.1196	83	C12H15N2+
188.1279	66	C12H16N2+
189.1287	21	C11H15N3+
191.0559	27	C11H11OS+
192.0619	11	C11H12OS+
193.0761	13	C10H13N2S+
205.0758	87	C11H13N2S+
206.0778	28	C12H14OS+
221.1068	506	C12H17N2S+
222.1105	69	C11[13]CH17N2S+
