Mass spectrum: Trazodone; LC-ESI-QTOF; MS2; CE: 50 eV; R=35000; [M+H]+
Name: Trazodone
Name: 2-[3-[4-(3-chlorophenyl)piperazin-1-yl]propyl]-[1,2,4]triazolo[4,3-a]pyridin-3-one
Formula: C19H22ClN5O
Exact mass: 371.1512880
SMILES: c1ccn2c(c1)nn(c2=O)CCCN3CCN(CC3)c4cccc(c4)Cl
InChI: InChI=1S/C19H22ClN5O/c20-16-5-3-6-17(15-16)23-13-11-22(12-14-23)8-4-10-25-19(26)24-9-2-1-7-18(24)21-25/h1-3,5-7,9,15H,4,8,10-14H2
Instrument: Bruker maXis Impact
Instrument type: LC-ESI-QTOF
Ms type: MS2
Ion mode: POSITIVE
Ionization: ESI
Fragmentation mode: CID
Collision energy: 50 eV
Resolution: 35000
Column name: Acclaim RSLC C18 2.2um, 2.1x100mm, Thermo
Retention time: 6.016 min
Base peak: 372.1596
Precursor m/z: 372.1586
Precursor type: [M+H]+
m/z	relative intensity	assigned
118.0647	6	C8H8N+
119.0597	19	C7H7N2+
120.0311	8	C4H2N5+
120.0551	14	C6H6N3+
121.0388	9	C4H3N5+
121.0754	25	C7H9N2+
131.0593	9	C8H7N2+
132.0671	7	C8H8N2+
133.0752	62	C8H9N2+
135.0421	23	C6H5N3O+
136.0494	16	C6H6N3O+
138.0093	6	C8N3+
148.0498	999	C7H6N3O+
148.0864	217	C8H10N3+
149.0528	60	C6[13]CH6N3O+
149.0892	14	C7[13]CH10N3+
154.0409	9	C11H6O+
166.0408	17	C9H9ClN+
168.0377	5	C9H9[37]ClN+
176.0812	311	C9H10N3O+
177.0841	25	C8[13]CH10N3O+
194.0596	10	C13H8NO+
209.0833	11	C14H11NO+
