Mass spectrum: Dibutyl phthalate; GC-APCI-QTOF; MS2; CE: 10 eV; R=35000; [M+H]+
Name: Dibutyl phthalate
Formula: C16H22O4
Exact mass: 278.1518
SMILES: CCCCOC(=O)C1=CC=CC=C1C(=O)OCCCC
InChI: InChI=1S/C16H22O4/c1-3-5-11-19-15(17)13-9-7-8-10-14(13)16(18)20-12-6-4-2/h7-10H,3-6,11-12H2,1-2H3
Instrument: Bruker 450 GC coupled to maXis Impact
Instrument type: GC-APCI-QTOF
Ms type: MS2
Ion mode: POSITIVE
Ionization: APCI
Fragmentation mode: CID
Collision energy: 10 eV
Resolution: 35000
Column name: Rxi-5Sil MS column, 30m, 0.25mm i.d., 0.25Âµm film thickness, Restek
Retention time: 17.566 min
Base peak: 149.0249
Precursor m/z: 279.1591
Precursor type: [M+H]+
m/z	relative intensity	assigned
121.1012	11	C9H13+
123.1161	9	C9H15+
133.101	19	C10H13+
135.1179	16	C10H15+
137.098	8	C9H13O+
137.1339	21	C10H17+
139.113	11	C9H15O+
143.1085	12	C8H15O2+
147.1196	10	C11H15+
149.0249	999	C8H5O3+
150.0285	66	C8H6O3+
151.1126	10	C10H15O+
151.1507	33	C11H19+
153.1303	6	C10H17O+
155.1085	9	C9H15O2+
157.125	6	C9H17O2+
161.1358	16	C12H17+
163.1512	6	C12H19+
167.0365	8	C8H7O4+
169.126	6	C10H17O2+
171.142	6	C10H19O2+
175.152	8	C13H19+
179.1471	9	C12H19O+
183.1378	6	C11H19O2+
185.1557	7	C11H21O2+
189.1664	6	C14H21+
191.1825	10	C14H23+
197.1553	5	C12H21O2+
199.1694	11	C12H23O2+
205.0863	263	C12H13O3+
206.0897	29	C12H14O3+
211.168	6	C13H23O2+
279.1564	16	C16H23O4+
