Mass spectrum: Aflatoxin G2; LC-ESI-QTOF; MS2; CE: 50 eV; R=35000; [M+H]+
Name: Aflatoxin G2
Name: Dihydroaflatoxin G1
Name: 11-methoxy-6,8,16,20-tetraoxapentacyclo[10.8.0.02,9.03,7.013,18]icosa-1,9,11,13(18)-tetraene-17,19-dione
Class: Natural Product; Fungal metabolite
Formula: C17H14O7
Exact mass: 330.074
SMILES: COC1=C2C3=C(C(=O)OCC3)C(=O)OC2=C4C5CCOC5OC4=C1
InChI: InChI=1S/C17H14O7/c1-20-9-6-10-12(8-3-5-22-17(8)23-10)14-11(9)7-2-4-21-15(18)13(7)16(19)24-14/h6,8,17H,2-5H2,1H3
Instrument: Bruker maXis Impact
Instrument type: LC-ESI-QTOF
Ms type: MS2
Ion mode: POSITIVE
Ionization: ESI
Fragmentation mode: CID
Collision energy: 50 eV
Resolution: 35000
Column name: Acclaim RSLC C18 2.2um, 2.1x100mm, Thermo
Retention time: 5.731 min
Base peak: 331.0807
Precursor m/z: 331.0812
Precursor type: [M+H]+
m/z	relative intensity	assigned
115.0539	51	C9H7+
116.0596	9	C9H8+
117.0698	17	C9H9+
118.04	8	C8H6O+
119.0479	6	C8H7O+
121.065	5	C8H9O+
127.054	17	C10H7+
128.0613	96	C10H8+
129.0332	7	C9H5O+
129.0691	58	C10H9+
130.0416	7	C9H6O+
130.0765	15	C10H10+
131.0482	38	C9H7O+
131.0842	19	C10H11+
132.0557	11	C9H8O+
133.0272	5	C8H5O2+
133.0639	31	C9H9O+
135.043	13	C8H7O2+
137.0592	11	C8H9O2+
139.0534	9	C11H7+
140.061	10	C11H8+
141.0693	93	C11H9+
142.0765	40	C11H10+
143.048	43	C10H7O+
143.0843	29	C11H11+
144.0559	37	C10H8O+
145.0278	16	C9H5O2+
145.0641	96	C10H9O+
145.1007	8	C11H13+
146.0356	35	C9H6O2+
146.0697	15	C10H10O+
147.0432	46	C9H7O2+
147.0794	15	C10H11O+
148.0497	8	C9H8O2+
149.0595	11	C9H9O2+
151.0548	5	C12H7+
151.0748	5	C9H11O2+
152.0613	50	C12H8+
153.0692	68	C12H9+
154.0759	24	C12H10+
155.0488	25	C11H7O+
155.0584	26	C4H11O6+
155.0846	28	C12H11+
156.0559	16	C11H8O+
157.0278	10	C10H5O2+
157.0644	79	C11H9O+
158.0347	8	C10H6O2+
158.0718	91	C11H10O+
159.0434	50	C10H7O2+
159.079	54	C11H11O+
160.0515	30	C10H8O2+
161.0231	6	C9H5O3+
161.0591	54	C10H9O2+
161.0948	10	C11H13O+
162.0636	7	C10H10O2+
163.0385	17	C9H7O3+
163.0749	8	C10H11O2+
164.0449	12	C9H8O3+
165.054	6	C9H9O3+
165.0691	26	C13H9+
166.0742	5	C13H10+
167.0862	6	C13H11+
168.0565	34	C12H8O+
169.0284	5	C11H5O2+
169.064	81	C12H9O+
170.0711	56	C12H10O+
171.0434	90	C11H7O2+
171.0794	56	C12H11O+
172.05	37	C11H8O2+
172.085	9	C12H12O+
173.0229	39	C10H5O3+
173.0588	123	C11H9O2+
173.0951	43	C12H13O+
174.0299	13	C10H6O3+
174.0656	56	C11H10O2+
175.0382	74	C10H7O3+
175.0739	26	C11H11O2+
176.0446	17	C10H8O3+
177.0538	35	C10H9O3+
178.0609	26	C10H10O3+
179.0686	17	C10H11O3+
181.0641	38	C13H9O+
182.0711	15	C13H10O+
183.0429	19	C12H7O2+
183.0803	24	C13H11O+
184.0509	23	C12H8O2+
184.0865	5	C13H12O+
185.0591	158	C12H9O2+
185.0955	11	C13H13O+
186.0313	19	C11H6O3+
186.0665	114	C12H10O2+
187.0382	58	C11H7O3+
187.0746	83	C12H11O2+
188.0462	42	C11H8O3+
188.0812	20	C12H12O2+
189.0541	999	C11H9O3+
190.0586	143	C11H10O3+
191.0332	42	C10H7O4+
191.0685	38	C11H11O3+
192.0384	6	C10H8O4+
192.0739	6	C11H12O3+
193.0492	14	C10H9O4+
195.0448	7	C13H7O2+
195.0783	5	C14H11O+
196.0508	15	C13H8O2+
197.0229	7	C12H5O3+
197.0588	86	C13H9O2+
198.0665	97	C13H10O2+
199.0384	78	C12H7O3+
199.0742	71	C13H11O2+
200.0456	76	C12H8O3+
200.0811	20	C13H12O2+
201.0537	300	C12H9O3+
201.0904	174	C13H13O2+
202.0609	140	C12H10O3+
203.0332	63	C11H7O4+
203.0684	56	C12H11O3+
204.0381	9	C11H8O4+
204.0731	8	C12H12O3+
205.0486	12	C11H9O4+
205.0854	10	C12H13O3+
207.0657	5	C11H11O4+
207.0996	13	C12H15O3+
209.0601	12	C14H9O2+
210.0671	7	C14H10O2+
211.0371	17	C13H7O3+
211.0746	38	C14H11O2+
212.0459	102	C13H8O3+
212.0803	9	C14H12O2+
213.0538	120	C13H9O3+
213.0903	25	C14H13O2+
214.026	19	C12H6O4+
214.0616	226	C13H10O3+
215.0331	29	C12H7O4+
215.0686	162	C13H11O3+
216.0404	12	C12H8O4+
216.0768	87	C13H12O3+
217.049	66	C12H9O4+
217.0853	606	C13H13O3+
218.0533	11	C12H10O4+
218.0884	84	C13H14O3+
219.0288	6	C11H7O5+
219.0643	14	C12H11O4+
219.0908	8	C9H15O6+
221.0431	32	C11H9O5+
223.0383	5	C14H7O3+
224.0466	17	C14H8O3+
225.0181	6	C13H5O4+
225.0541	90	C14H9O3+
226.0617	86	C14H10O3+
227.0334	46	C13H7O4+
227.0696	139	C14H11O3+
228.0401	19	C13H8O4+
228.0763	57	C14H12O3+
229.0489	183	C13H9O4+
229.085	115	C14H13O3+
230.0538	35	C13H10O4+
230.0887	19	C14H14O3+
231.0267	5	C12H7O5+
231.0638	22	C13H11O4+
232.0707	9	C13H12O4+
233.044	5	C12H9O5+
235.0961	10	C13H15O4+
237.0527	8	C15H9O3+
238.0612	8	C15H10O3+
239.0331	12	C14H7O4+
239.0683	21	C15H11O3+
240.0405	7	C14H8O4+
241.0126	5	C13H5O5+
241.0493	94	C14H9O4+
241.0852	90	C15H13O3+
242.0191	8	C13H6O5+
242.0562	111	C14H10O4+
242.0879	13	C15H14O3+
243.0288	36	C13H7O5+
243.064	118	C14H11O4+
244.0325	5	C13H8O5+
244.0696	26	C14H12O4+
245.0438	32	C13H9O5+
245.0804	320	C14H13O4+
246.0841	59	C14H14O4+
247.0595	9	C13H11O5+
247.0867	7	C10H15O7+
252.041	12	C15H8O4+
253.0487	21	C15H9O4+
254.0561	20	C15H10O4+
255.0282	33	C14H7O5+
255.0637	26	C15H11O4+
256.0343	7	C14H8O5+
256.0705	13	C15H12O4+
257.0436	254	C14H9O5+
257.0802	150	C15H13O4+
258.0471	32	C14H10O5+
258.0829	26	C15H14O4+
259.058	9	C14H11O5+
261.0363	8	C13H9O6+
267.0649	10	C16H11O4+
268.0365	6	C15H8O5+
269.0431	118	C15H9O5+
269.0799	12	C16H13O4+
270.0493	42	C15H10O5+
271.023	5	C14H7O6+
271.059	16	C15H11O5+
272.0665	5	C15H12O5+
273.0742	6	C15H13O5+
275.0536	121	C14H11O6+
276.0572	22	C14H12O6+
280.0358	6	C16H8O5+
283.0219	9	C15H7O6+
283.0592	15	C16H11O5+
284.0645	9	C16H12O5+
285.0753	151	C16H13O5+
286.0785	29	C16H14O5+
287.0548	53	C15H11O6+
287.0872	7	C16H15O5+
288.0571	11	C15H12O6+
297.0387	11	C16H9O6+
298.0465	9	C16H10O6+
301.0692	8	C16H13O6+
303.0856	21	C16H15O6+
313.0699	74	C17H13O6+
314.0728	16	C17H14O6+
331.0815	37	C17H15O7+
