Mass spectrum: Tepraloxydim; LC-ESI-QTOF; MS2; CE: 30 eV; R=35000; [M-H]-
Name: Tepraloxydim
Name: Tepraloxydim [ISO]
Name: 2-[N-[(E)-3-chloroprop-2-enoxy]-C-ethylcarbonimidoyl]-3-hydroxy-5-(oxan-4-yl)cyclohex-2-en-1-one
Formula: C17H24ClNO4
Exact mass: 341.1393859
SMILES: [H]\C(Cl)=C(\[H])CON=C(CC)C1=C(O)CC(CC1=O)C1CCOCC1
InChI: InChI=1S/C17H24ClNO4/c1-2-14(19-23-7-3-6-18)17-15(20)10-13(11-16(17)21)12-4-8-22-9-5-12/h3,6,12-13,20H,2,4-5,7-11H2,1H3/b6-3+,19-14?
Instrument: Bruker maXis Impact
Instrument type: LC-ESI-QTOF
Ms type: MS2
Ion mode: NEGATIVE
Ionization: ESI
Fragmentation mode: CID
Collision energy: 30 eV
Resolution: 35000
Column name: Acclaim RSLC C18 2.2um, 2.1x100mm, Thermo
Retention time: 5.239 min
Base peak: 340.1309
Precursor m/z: 340.1321
Precursor type: [M-H]-
m/z	relative intensity	assigned
123.0799	5	C2H16ClO3-
126.0184	18	C5H4NO3-
134.0246	22	C7H4NO2-
137.0573	5	C2H14ClO4-
152.0353	11	C7H6NO3-
153.0438	19	C7H7NO3-
153.0923	28	C9H13O2-
164.0707	5	C9H10NO2-
180.0668	107	C9H10NO3-
181.0699	7	C8[13]CH10NO3-
185.0334	19	C9H10ClO2-
195.1022	141	C11H15O3-
196.1055	23	C10[13]CH15O3-
208.0988	8	C11H14NO3-
220.0973	999	C12H14NO3-
221.1001	109	C11[13]CH14NO3-
222.1046	10	C10[13]C2H14NO3-
236.091	8	C12H14NO4-
248.1267	38	C14H18NO3-
249.1295	5	C13[13]CH18NO3-
250.1437	187	C14H20NO3-
251.1465	33	C13[13]CH20NO3-
340.136	5	C17H23ClNO4-
