Mass spectrum: Sulfapyridine; LC-ESI-QTOF; MS2; CE: 10 eV; R=35000; [M+H]+
Name: Sulfapyridine
Name: 4-amino-N-pyridin-2-ylbenzenesulfonamide
Formula: C11H11N3O2S
Exact mass: 249.0571976
SMILES: NC1=CC=C(C=C1)S(=O)(=O)NC1=NC=CC=C1
InChI: InChI=1S/C11H11N3O2S/c12-9-4-6-10(7-5-9)17(15,16)14-11-3-1-2-8-13-11/h1-8H,12H2,(H,13,14)
Instrument: Bruker maXis Impact
Instrument type: LC-ESI-QTOF
Ms type: MS2
Ion mode: POSITIVE
Ionization: ESI
Fragmentation mode: CID
Collision energy: 10 eV
Resolution: 35000
Column name: Acclaim RSLC C18 2.2um, 2.1x100mm, Thermo
Retention time: 3.726 min
Base peak: 268.1537
Precursor m/z: 250.0645
Precursor type: [M+H]+
m/z	relative intensity	assigned
156.0097	48	C9H2NO2+
172.0743	23	C11H10NO+
184.0853	17	C11H10N3+
250.0636	999	C11H12N3O2S+
251.066	94	C10[13]CH12N3O2S+
252.0604	29	C11H12N3O2[34]S+
