Mass spectrum: Progesterone; LC-ESI-QTOF; MS2; CE: 40 eV; R=35000; [M+H]+
Name: Progesterone
Name: progesterone
Name: (8S,9S,10R,13S,14S,17S)-17-acetyl-10,13-dimethyl-1,2,6,7,8,9,11,12,14,15,16,17-dodecahydrocyclopenta[a]phenanthren-3-one
Formula: C21H30O2
Exact mass: 314.2245802
SMILES: CC(=O)[C@H]1CC[C@@H]2[C@@]1(CC[C@H]3[C@H]2CCC4=CC(=O)CC[C@]34C)C
InChI: InChI=1S/C21H30O2/c1-13(22)17-6-7-18-16-5-4-14-12-15(23)8-10-20(14,2)19(16)9-11-21(17,18)3/h12,16-19H,4-11H2,1-3H3/t16-,17+,18-,19-,20-,21+/m0/s1
Instrument: Bruker maXis Impact
Instrument type: LC-ESI-QTOF
Ms type: MS2
Ion mode: POSITIVE
Ionization: ESI
Fragmentation mode: CID
Collision energy: 40 eV
Resolution: 35000
Column name: Acclaim RSLC C18 2.2um, 2.1x100mm, Thermo
Retention time: 11.049 min
Base peak: 315.2349
Precursor m/z: 315.2319
Precursor type: [M+H]+
m/z	relative intensity	assigned
109.0662	94	C7H9O+
115.0549	73	C9H7+
117.0708	91	C9H9+
119.0865	336	C9H11+
121.0656	128	C8H9O+
121.1012	163	C9H13+
123.0809	837	C8H11O+
124.0837	80	C7[13]CH11O+
128.0634	69	C10H8+
129.0702	171	C10H9+
130.078	78	C10H10+
131.0865	509	C10H11+
133.1015	429	C10H13+
135.0813	66	C9H11O+
135.1178	218	C10H15+
137.0967	159	C9H13O+
137.1327	33	C10H17+
141.0708	62	C11H9+
142.0777	69	C11H10+
143.087	241	C11H11+
144.0933	122	C11H12+
145.102	602	C11H13+
147.0813	69	C10H11O+
147.1176	394	C11H15+
148.0898	41	C10H12O+
148.1225	50	C11H16+
149.0974	209	C10H13O+
149.1329	138	C11H17+
151.1132	61	C10H15O+
155.0856	110	C12H11+
156.0937	69	C12H12+
157.1018	424	C12H13+
158.1079	104	C12H14+
159.1176	550	C12H15+
160.1218	99	C11[13]CH15+
161.0967	51	C11H13O+
161.1329	188	C12H17+
163.1121	259	C11H15O+
163.1487	73	C12H19+
168.096	53	C13H12+
169.1015	127	C13H13+
171.118	271	C13H15+
172.1235	79	C13H16+
173.1332	362	C13H17+
174.1368	56	C13H18+
175.1143	45	C12H15O+
175.1496	95	C13H19+
177.1287	183	C12H17O+
178.1327	38	C12H18O+
181.1036	48	C14H13+
182.11	45	C14H14+
183.1182	154	C14H15+
184.1231	45	C14H16+
185.1329	210	C14H17+
186.1375	48	C14H18+
187.1131	34	C13H15O+
187.1484	224	C14H19+
188.1533	31	C14H20+
189.1295	66	C13H17O+
189.1646	50	C14H21+
191.1434	55	C13H19O+
194.1072	32	C15H14+
195.0803	72	C14H11O+
195.1181	73	C15H15+
196.0845	32	C14H12O+
196.1241	32	C15H16+
197.1345	95	C15H17+
198.1391	77	C15H18+
199.1489	121	C15H19+
200.0232	50	C15H4O+
200.1531	70	C15H20+
201.1634	90	C15H21+
209.1338	35	C16H17+
210.1393	39	C16H18+
211.1505	70	C16H19+
213.1662	170	C16H21+
215.0453	60	C16H7O+
215.1834	41	C16H23+
222.1029	91	C16H14O+
223.1127	66	C16H15O+
223.1506	48	C17H19+
224.1168	57	C16H16O+
224.1549	37	C17H20+
227.1818	57	C17H23+
228.0604	32	C17H8O+
237.1639	53	C18H21+
239.1806	120	C18H23+
240.0621	38	C18H8O+
241.0653	62	C18H9O+
241.1619	31	C17H21O+
242.078	34	C18H10O+
253.1985	32	C19H25+
255.2139	59	C19H27+
256.092	999	C19H12O+
257.0955	275	C18[13]CH12O+
279.214	42	C21H27+
282.1077	220	C21H14O+
283.1129	107	C21H15O+
297.2229	63	C21H29O+
315.2337	39	C21H31O2+
