Mass spectrum: Metolachlor OA; LC-ESI-QTOF; MS2; CE: 50 eV; R=35000; [M+H]+
Name: Metolachlor OA
Name: 2-[2-ethyl-N-(1-methoxypropan-2-yl)-6-methylanilino]-2-oxoacetic acid
Formula: C15H21NO4
Exact mass: 279.1470582
SMILES: CCC1=C(N(C(C)COC)C(=O)C(O)=O)C(C)=CC=C1
InChI: InChI=1S/C15H21NO4/c1-5-12-8-6-7-10(2)13(12)16(11(3)9-20-4)14(17)15(18)19/h6-8,11H,5,9H2,1-4H3,(H,18,19)
Instrument: Bruker maXis Impact
Instrument type: LC-ESI-QTOF
Ms type: MS2
Ion mode: POSITIVE
Ionization: ESI
Fragmentation mode: CID
Collision energy: 50 eV
Resolution: 35000
Column name: Acclaim RSLC C18 2.2um, 2.1x100mm, Thermo
Retention time: 7.768 min
Base peak: 280.1542
Precursor m/z: 280.1543
Precursor type: [M+H]+
m/z	relative intensity	assigned
115.0533	161	C9H7+
117.056	118	C8H7N+
117.0686	102	C9H9+
118.0649	251	C8H8N+
119.072	193	C8H9N+
119.0852	67	C9H11+
120.0803	98	C8H10N+
128.0615	93	C10H8+
130.064	999	C9H8N+
131.0713	906	C6H11O3+
132.0797	513	C9H10N+
133.0861	236	C6H13O3+
134.0952	278	C9H12N+
135.1	63	C6H15O3+
142.064	87	C10H8N+
143.0708	89	C7H11O3+
144.0788	703	C7H12O3+
145.0848	184	C7H13O3+
146.0946	399	C7H14O3+
147.0986	79	C7H15O3+
148.1118	153	C10H14N+
158.0925	91	C8H14O3+
160.1125	166	C11H14N+
