Mass spectrum: EDDP; LC-ESI-QTOF; MS2; CE: 40 eV; R=35000; [M+H]+
Name: EDDP
Name: (2Z)-2-ethylidene-1,5-dimethyl-3,3-diphenylpyrrolidine
Formula: C20H23N
Exact mass: 277.1830497
SMILES: C\C=C1/N(C)C(C)CC1(C1=CC=CC=C1)C1=CC=CC=C1
InChI: InChI=1S/C20H23N/c1-4-19-20(15-16(2)21(19)3,17-11-7-5-8-12-17)18-13-9-6-10-14-18/h4-14,16H,15H2,1-3H3/b19-4-
Instrument: Bruker maXis Impact
Instrument type: LC-ESI-QTOF
Ms type: MS2
Ion mode: POSITIVE
Ionization: ESI
Fragmentation mode: CID
Collision energy: 40 eV
Resolution: 35000
Column name: Acclaim RSLC C18 2.2um, 2.1x100mm, Thermo
Retention time: 6.4 min
Base peak: 278.1901
Precursor m/z: 278.1903
Precursor type: [M+H]+
m/z	relative intensity	assigned
156.0794	5	C11H10N+
186.1271	258	C13H16N+
207.1034	26	C15H13N+
219.1038	55	C16H13N+
234.1275	999	C17H16N+
235.1308	129	C16[13]CH16N+
236.1347	7	C16H16N2+
249.1504	88	C18H19N+
278.1899	48	C20H24N+
