Mass spectrum: Flurazepam; LC-ESI-QTOF; MS2; CE: 10 eV; R=35000; [M+H]+
Name: Flurazepam
Name: 7-chloro-1-[2-(diethylamino)ethyl]-5-(2-fluorophenyl)-3H-1,4-benzodiazepin-2-one
Formula: C21H23ClFN3O
Exact mass: 387.1513683
SMILES: CCN(CC)CCN1c2ccc(cc2C(=NCC1=O)c3ccccc3F)Cl
InChI: InChI=1S/C21H23ClFN3O/c1-3-25(4-2)11-12-26-19-10-9-15(22)13-17(19)21(24-14-20(26)27)16-7-5-6-8-18(16)23/h5-10,13H,3-4,11-12,14H2,1-2H3
Instrument: Bruker maXis Impact
Instrument type: LC-ESI-QTOF
Ms type: MS2
Ion mode: POSITIVE
Ionization: ESI
Fragmentation mode: CID
Collision energy: 10 eV
Resolution: 35000
Column name: Acclaim RSLC C18 2.2um, 2.1x100mm, Thermo
Retention time: 6.851 min
Base peak: 388.1609
Precursor m/z: 388.1586
Precursor type: [M+H]+
m/z	relative intensity	assigned
315.0704	15	C17H13ClFN2O+
317.085	5	C17H15ClFN2O+
388.1612	999	C21H24ClFN3O+
389.164	184	C20[13]CH24ClFN3O+
390.1584	230	C21H24[37]ClFN3O+
