Mass spectrum: Bezafibrate; LC-ESI-QTOF; MS2; CE: Ramp 22.8-34.3 eV; R=35000; [M+H]+
Name: Bezafibrate
Name: 2-[4-[2-[(4-chlorobenzoyl)amino]ethyl]phenoxy]-2-methylpropanoic acid
Formula: C19H20ClNO4
Exact mass: 361.1080858
SMILES: CC(C)(OC1=CC=C(CCNC(=O)C2=CC=C(Cl)C=C2)C=C1)C(O)=O
InChI: InChI=1S/C19H20ClNO4/c1-19(2,18(23)24)25-16-9-3-13(4-10-16)11-12-21-17(22)14-5-7-15(20)8-6-14/h3-10H,11-12H2,1-2H3,(H,21,22)(H,23,24)
Instrument: Bruker maXis Impact
Instrument type: LC-ESI-QTOF
Ms type: MS2
Ion mode: POSITIVE
Ionization: ESI
Fragmentation mode: CID
Collision energy: Ramp 22.8-34.3 eV
Resolution: 35000
Column name: Acclaim RSLC C18 2.2um, 2.1x100mm, Thermo
Retention time: 8.960 min
Base peak: 419.2698
Precursor m/z: 362.1154
Precursor type: [M+H]+
m/z	relative intensity	assigned
120.0575	12	C5H11ClN+
121.0642	359	C8H9O+
122.0672	36	C7[13]CH9O+
138.9939	999	C7H4ClO+
139.9966	66	C6[13]CH4ClO+
140.9905	226	C7H4[37]ClO+
141.9954	13	C8NO2+
161.0947	137	C11H13O+
162.0992	20	C10[13]CH13O+
163.0736	10	C4H16ClO4+
178.1219	20	C11H16NO+
189.0914	20	C9H16ClNO+
207.1008	53	C12H15O3+
276.0782	171	C15H15ClNO2+
277.081	37	C14[13]CH15ClNO2+
278.0765	42	C15H15[37]ClNO2+
316.109	200	C18H19ClNO2+
317.1116	45	C17[13]CH19ClNO2+
318.1059	66	C18H19[37]ClNO2+
319.1087	18	C18H20ClO3+
344.1016	13	C19H19ClNO3+
362.1148	10	C19H21ClNO4+
