Mass spectrum: Pipamperone; LC-ESI-QTOF; MS2; CE: Ramp 23.1-34.7 eV; R=35000; [M+H]+
Name: Pipamperone
Name: 1-[4-(4-fluorophenyl)-4-oxobutyl]-4-piperidin-1-ylpiperidine-4-carboxamide
Formula: C21H30FN3O2
Exact mass: 375.2322054
SMILES: NC(=O)C1(CCN(CCCC(=O)C2=CC=C(F)C=C2)CC1)N1CCCCC1
InChI: InChI=1S/C21H30FN3O2/c22-18-8-6-17(7-9-18)19(26)5-4-12-24-15-10-21(11-16-24,20(23)27)25-13-2-1-3-14-25/h6-9H,1-5,10-16H2,(H2,23,27)
Instrument: Bruker maXis Impact
Instrument type: LC-ESI-QTOF
Ms type: MS2
Ion mode: POSITIVE
Ionization: ESI
Fragmentation mode: CID
Collision energy: Ramp 23.1-34.7 eV
Resolution: 35000
Column name: Acclaim RSLC C18 2.2um, 2.1x100mm, Thermo
Retention time: 5.816 min
Base peak: 376.2393
Precursor m/z: 376.2395
Precursor type: [M+H]+
m/z	relative intensity	assigned
55.0538	6	C4H7+
70.065	6	C4H8N+
98.0607	427	C5H8NO+
99.0639	25	C4[13]CH8NO+
123.0234	90	C5H2FN3+
124.0267	7	C4[13]CH2FN3+
138.1272	34	C9H16N+
165.0702	999	C13H9+
166.0736	124	C12[13]CH9+
167.0764	5	C11[13]C2H9+
194.0972	69	C14H12N+
195.0995	8	C13[13]CH12N+
220.1135	10	C13H15FNO+
262.1236	64	C18H16NO+
263.1271	13	C17[13]CH16NO+
291.151	681	C16H20FN2O2+
292.1543	148	C15[13]CH20FN2O2+
293.1575	13	C14[13]C2H20FN2O2+
331.219	118	C20H28FN2O+
332.2221	28	C19[13]CH28FN2O+
376.2407	451	C21H31FN3O2+
377.2436	128	C20[13]CH31FN3O2+
378.2458	14	C19[13]C2H31FN3O2+
