Mass spectrum: Perfluorodecylphosphonic acid (PFDPA); LC-ESI-QTOF; MS2; CE: 30 eV; R=35000; [M-H]-
Name: Perfluorodecylphosphonic acid (PFDPA)
Name: Perfluorodecylphosphonic acid
Name: 1,1,2,2,3,3,4,4,5,5,6,6,7,7,8,8,9,9,10,10,10-henicosafluorodecylphosphonic acid
Formula: C10H2F21O3P
Exact mass: 599.9406
SMILES: C(C(C(C(C(C(F)(F)P(=O)(O)O)(F)F)(F)F)(F)F)(F)F)(C(C(C(C(F)(F)F)(F)F)(F)F)(F)F)(F)F
InChI: InChI=1S/C10H2F21O3P/c11-1(12,3(15,16)5(19,20)7(23,24)9(27,28)29)2(13,14)4(17,18)6(21,22)8(25,26)10(30,31)35(32,33)34/h(H2,32,33,34)
Instrument: Bruker maXis Impact
Instrument type: LC-ESI-QTOF
Ms type: MS2
Ionization: ESI
Fragmentation mode: CID
Collision energy: 30 eV
Resolution: 35000
Column name: Acclaim RSLC C18 2.2um, 2.1x100mm, Thermo
Retention time: 10.642 min
Base peak: 393.9801
Precursor m/z: 598.9333
Precursor type: [M-H]-
m/z	relative intensity	assigned
598.947	999	C10HF21O3P-
