Mass spectrum: Ochratoxin A; LC-ESI-QTOF; MS2; CE: 50 eV; R=35000; [M+H]+
Name: Ochratoxin A
Name: Alanine, (-)-
Name: 2-[(5-chloro-8-hydroxy-3-methyl-1-oxo-3,4-dihydroisochromene-7-carbonyl)amino]-3-phenylpropanoic acid
Class: Natural Product; Fungal metabolite
Formula: C20H18ClNO6
Exact mass: 403.0823
SMILES: CC1CC2=C(C=C(C(=C2C(=O)O1)O)C(=O)NC(CC3=CC=CC=C3)C(=O)O)Cl
InChI: InChI=1S/C20H18ClNO6/c1-10-7-12-14(21)9-13(17(23)16(12)20(27)28-10)18(24)22-15(19(25)26)8-11-5-3-2-4-6-11/h2-6,9-10,15,23H,7-8H2,1H3,(H,22,24)(H,25,26)
Instrument: Bruker maXis Impact
Instrument type: LC-ESI-QTOF
Ms type: MS2
Ion mode: POSITIVE
Ionization: ESI
Fragmentation mode: CID
Collision energy: 50 eV
Resolution: 35000
Column name: Acclaim RSLC C18 2.2um, 2.1x100mm, Thermo
Retention time: 9.143 min
Base peak: 404.0893
Precursor m/z: 404.0895
Precursor type: [M+H]+
m/z	relative intensity	assigned
130.0403	20	C9H6O+
137.0146	195	C8H6Cl+
138.0194	39	C6H4NO3+
139.0117	41	C2H5NO6+
165.0102	204	C9H6ClO+
166.012	22	CH9ClNO6+
167.0067	75	C5H8ClO4+
183.0194	25	C9H8ClO2+
193.0049	511	C10H6ClO2+
194.0078	74	C8H4NO5+
194.9838	19	C9H4ClO3+
195.0016	114	C13H4Cl+
196.0055	16	C13H5Cl+
211.0153	345	C10H8ClO3+
212.0191	37	C8H6NO6+
213.012	85	C13H6ClO+
220.9998	309	C11H6ClO3+
222.0036	48	C9H4NO6+
222.9973	104	C14H4ClO+
239.0105	999	C11H8ClO4+
240.0141	154	C11H9ClO4+
241.0073	294	C20H+
242.0098	37	C12H4NO5+
253.026	17	C12H10ClO4+
257.0202	209	C11H10ClO5+
258.0248	50	C18H7Cl+
259.0174	73	C20H3O+
271.0361	18	C12H12ClO5+
