Mass spectrum: Carbamazepine; LC-ESI-QTOF; MS2; CE: 20 eV; R=35000; [M+H]+
Name: Carbamazepine
Name: benzo[b][1]benzazepine-11-carboxamide
Formula: C15H12N2O
Exact mass: 236.0949630
SMILES: c1ccc2c(c1)C=Cc3ccccc3N2C(=O)N
InChI: InChI=1S/C15H12N2O/c16-15(18)17-13-7-3-1-5-11(13)9-10-12-6-2-4-8-14(12)17/h1-10H,(H2,16,18)
Instrument: Bruker maXis Impact
Instrument type: LC-ESI-QTOF
Ms type: MS2
Ion mode: POSITIVE
Ionization: ESI
Fragmentation mode: CID
Collision energy: 20 eV
Resolution: 35000
Column name: Acclaim RSLC C18 2.2um, 2.1x100mm, Thermo
Retention time: 7.3 min
Base peak: 237.0958
Precursor m/z: 237.1022
Precursor type: [M+H]+
m/z	relative intensity	assigned
192.0806	155	C14H10N+
193.0883	33	C13[13]CH10N+
194.0963	999	C14H12N+
195.0941	115	C13H11N2+
196.0976	5	C12[13]CH11N2+
220.0757	9	C14H8N2O+
237.1021	199	C15H13N2O+
238.103	27	C14[13]CH13N2O+
