Mass spectrum: 4-Hydroxybenzotriazole; LC-ESI-QTOF; MS2; CE: 10 eV; R=35000; [M-H]-
Name: 4-Hydroxybenzotriazole
Name: 1,2-dihydrobenzotriazol-4-one
Name: 2H-benzotriazol-4-ol
Name: 4-Hydroxy-1H-benzotriazole
Formula: C6H5N3O
Exact mass: 135.04326178
SMILES: C1=CC2=NNN=C2C(=C1)O
InChI: InChI=1S/C6H5N3O/c10-5-3-1-2-4-6(5)8-9-7-4/h1-3,10H,(H,7,8,9)
Instrument: Bruker maXis Impact
Instrument type: LC-ESI-QTOF
Ms type: MS2
Ion mode: NEGATIVE
Ionization: ESI
Fragmentation mode: CID
Collision energy: 10 eV
Resolution: 35000
Column name: Acclaim RSLC C18 2.2um, 2.1x100mm, Thermo
Retention time: 3.904 min
Base peak: 134.0363
Precursor m/z: 134.036
Precursor type: [M-H]-
m/z	relative intensity	assigned
134.0358	999	C6H4N3O-
135.0366	111	C5[13]CH4N3O-
