Mass spectrum: Fluconazole; LC-ESI-QTOF; MS2; CE: 20 eV; R=35000; [M+H]+
Name: Fluconazole
Name: 2-(2,4-difluorophenyl)-1,3-bis(1,2,4-triazol-1-yl)propan-2-ol
Formula: C13H12F2N6O
Exact mass: 306.1040654
SMILES: OC(CN1C=NC=N1)(CN1C=NC=N1)C1=C(F)C=C(F)C=C1
InChI: InChI=1S/C13H12F2N6O/c14-10-1-2-11(12(15)3-10)13(22,4-20-8-16-6-18-20)5-21-9-17-7-19-21/h1-3,6-9,22H,4-5H2
Instrument: Bruker maXis Impact
Instrument type: LC-ESI-QTOF
Ms type: MS2
Ion mode: POSITIVE
Ionization: ESI
Fragmentation mode: CID
Collision energy: 20 eV
Resolution: 35000
Column name: Acclaim RSLC C18 2.2um, 2.1x100mm, Thermo
Retention time: 5.116 min
Base peak: 266.1656
Precursor m/z: 307.1113
Precursor type: [M+H]+
m/z	relative intensity	assigned
127.0346	16	C7H5F2+
139.0337	12	C8H5F2+
141.0502	19	C8H7F2+
151.0343	13	C9H5F2+
169.045	210	C12H6F+
170.0486	23	C11[13]CH6F+
187.0559	15	C12H8FO+
200.0606	7	C6H6F2N6+
220.0675	857	C11H8F2N3+
221.0704	105	C10[13]CH8F2N3+
222.0744	5	C9[13]C2H8F2N3+
238.0786	999	C11H10F2N3O+
239.0813	122	C10[13]CH10F2N3O+
240.0834	7	C9[13]C2H10F2N3O+
289.0999	42	C13H11F2N6+
290.1027	7	C12[13]CH11F2N6+
307.1114	238	C13H13F2N6O+
308.1141	39	C12[13]CH13F2N6O+
