Mass spectrum: N-Nitrosofenfluramine; LC-ESI-QTOF; MS2; CE: 50 eV; R=35000; [M+H]+
Name: N-Nitrosofenfluramine
Formula: C12H15F3N2O
Exact mass: 260.1136478
SMILES: C1=C(C=C(C=C1)CC(C)N(N=O)CC)C(F)(F)F
InChI: InChI=1S/C12H15F3N2O/c1-3-17(16-18)9(2)7-10-5-4-6-11(8-10)12(13,14)15/h4-6,8-9H,3,7H2,1-2H3
Instrument: Bruker maXis Impact
Instrument type: LC-ESI-QTOF
Ms type: MS2
Ion mode: POSITIVE
Ionization: ESI
Fragmentation mode: CID
Collision energy: 50 eV
Resolution: 35000
Column name: Acclaim RSLC C18 2.2um, 2.1x100mm, Thermo
Retention time: 9.1 min
Base peak: 261.1204
Precursor m/z: 261.1209
Precursor type: [M+H]+
m/z	relative intensity	assigned
109.0445	27	C7H6F+
119.0282	30	C8H4F+
133.025	7	C6H4F3+
137.0383	7	C11H5+
139.0341	82	C8H5F2+
140.0379	5	C7[13]CH5F2+
146.051	7	C10H7F+
147.0343	48	C8H4FN2+
148.0371	5	C7[13]CH4FN2+
159.0408	999	C8H6F3+
160.0435	75	C7[13]CH6F3+
