Mass spectrum: Antipyrine; LC-ESI-QTOF; MS2; CE: 50 eV; R=35000; [M+H]+
Name: Antipyrine
Name: 1,5-dimethyl-2-phenylpyrazol-3-one
Formula: C11H12N2O
Exact mass: 188.0949630
SMILES: Cc1cc(=O)n(n1C)c2ccccc2
InChI: InChI=1S/C11H12N2O/c1-9-8-11(14)13(12(9)2)10-6-4-3-5-7-10/h3-8H,1-2H3
Instrument: Bruker maXis Impact
Instrument type: LC-ESI-QTOF
Ms type: MS2
Ion mode: POSITIVE
Ionization: ESI
Fragmentation mode: CID
Collision energy: 50 eV
Resolution: 35000
Column name: Acclaim RSLC C18 2.2um, 2.1x100mm, Thermo
Retention time: 4.712 min
Base peak: 189.1019
Precursor m/z: 189.1022
Precursor type: [M+H]+
m/z	relative intensity	assigned
115.0534	330	C9H7+
116.0494	42	C8H6N+
116.0581	52	C8[13]CH7+
117.0562	208	C8H7N+
118.064	145	C8H8N+
119.0601	37	C7H7N2+
120.08	33	C8H10N+
127.0408	12	C9H5N+
128.0481	237	C9H6N+
129.0559	147	C9H7N+
130.0641	999	C9H8N+
131.0594	939	C8H7N2+
132.0428	69	C8H6NO+
132.0662	294	C8H8N2+
133.0509	38	C8H7NO+
133.0714	40	C7[13]CH8N2+
134.0466	32	C7H6N2O+
142.065	20	C10H8N+
143.0716	102	C10H9N+
144.0792	144	C10H10N+
145.0747	479	C9H9N2+
146.0598	60	C9H8NO+
147.0908	71	C9H11N2+
155.0602	25	C10H7N2+
156.0444	28	C10H6NO+
156.0673	12	C10H8N2+
157.0511	13	C10H7NO+
158.0463	27	C9H6N2O+
159.055	18	C9H7N2O+
159.0902	39	C10H11N2+
173.0698	54	C10H9N2O+
174.0776	18	C10H10N2O+
189.1009	12	C11H13N2O+
