Mass spectrum: Fenpropimorph; LC-ESI-QTOF; MS2; CE: Ramp 21.7-32.5 eV; R=35000; [M+H]+
Name: Fenpropimorph
Name: (2S,6R)-4-[3-(4-tert-butylphenyl)-2-methylpropyl]-2,6-dimethylmorpholine
Formula: C20H33NO
Exact mass: 303.2562147
SMILES: CC(CN1C[C@H](C)O[C@H](C)C1)CC1=CC=C(C=C1)C(C)(C)C
InChI: InChI=1S/C20H33NO/c1-15(12-21-13-16(2)22-17(3)14-21)11-18-7-9-19(10-8-18)20(4,5)6/h7-10,15-17H,11-14H2,1-6H3/t15?,16-,17+
Instrument: Bruker maXis Impact
Instrument type: LC-ESI-QTOF
Ms type: MS2
Ion mode: POSITIVE
Ionization: ESI
Fragmentation mode: CID
Collision energy: Ramp 21.7-32.5 eV
Resolution: 35000
Column name: Acclaim RSLC C18 2.2um, 2.1x100mm, Thermo
Retention time: 10.185 min
Base peak: 304.2636
Precursor m/z: 304.2635
Precursor type: [M+H]+
m/z	relative intensity	assigned
57.0693	64	C4H9+
70.0642	7	C4H8N+
72.08	12	C4H10N+
88.0749	5	C4H10NO+
91.054	12	C7H7+
98.0964	141	C6H12N+
99.0995	9	C5[13]CH12N+
102.0911	6	C5H12NO+
105.0702	19	C8H9+
116.1075	95	C6H14NO+
117.0696	7	C9H9+
117.1108	6	C5[13]CH14NO+
119.0851	26	C9H11+
130.1224	123	C7H16NO+
131.126	9	C6[13]CH16NO+
132.0925	26	C10H12+
147.1163	371	C11H15+
148.1193	34	C10[13]CH15+
161.1314	8	C12H17+
189.1626	20	C14H21+
248.1997	5	C16H26NO+
304.2637	999	C20H34NO+
306.2699	32	C18[13]C2H34NO+
