Mass spectrum: Tetramethylene glycol dimethacrylate; GC-APCI-QTOF; MS2; CE: 20 eV; R=35000; [M]+
Name: Tetramethylene glycol dimethacrylate
Formula: C12H18O4
Exact mass: 226.1205
SMILES: CC(=C)C(=O)OCCCCOC(=O)C(=C)C
InChI: InChI=1S/C12H18O4/c1-9(2)11(13)15-7-5-6-8-16-12(14)10(3)4/h1,3,5-8H2,2,4H3
Instrument: Bruker 450 GC coupled to maXis Impact
Instrument type: GC-APCI-QTOF
Ms type: MS2
Ion mode: POSITIVE
Ionization: APCI
Fragmentation mode: CID
Collision energy: 20 eV
Resolution: 35000
Column name: Rxi-5Sil MS column, 30m, 0.25mm i.d., 0.25Âµm film thickness, Restek
Retention time: 12.632 min
Base peak: 141.0894
Precursor m/z: 226.12
Precursor type: [M]+
m/z	relative intensity	assigned
55.0551	133	C4H7+
69.032	36	C4H5O+
87.0431	38	C4H7O2+
125.0607	89	C7H9O2+
126.0679	119	C7H10O2+
136.0516	31	C8H8O2+
140.0821	113	C8H12O2+
141.0898	999	C8H13O2+
153.0549	28	C8H9O3+
154.0621	46	C8H10O3+
171.0658	34	C8H11O4+
172.0733	34	C8H12O4+
