Mass spectrum: Dimethachlor-OXA; LC-ESI-QTOF; MS2; CE: 10 eV; R=35000; [M+H]+
Name: Dimethachlor-OXA
Name: 2-[N-(2-methoxyethyl)-2,6-dimethylanilino]-2-oxoacetic acid
Formula: C13H17NO4
Exact mass: 251.1157580
SMILES: COCCN(C(=O)C(O)=O)c1c(C)cccc1C
InChI: InChI=1S/C13H17NO4/c1-9-5-4-6-10(2)11(9)14(7-8-18-3)12(15)13(16)17/h4-6H,7-8H2,1-3H3,(H,16,17)
Instrument: Bruker maXis Impact
Instrument type: LC-ESI-QTOF
Ms type: MS2
Ion mode: POSITIVE
Ionization: ESI
Fragmentation mode: CID
Collision energy: 10 eV
Resolution: 35000
Column name: Acclaim RSLC C18 2.2um, 2.1x100mm, Thermo
Retention time: 5.1 min
Base peak: 150.1113
Precursor m/z: 252.123
Precursor type: [M+H]+
m/z	relative intensity	assigned
176.1072	10	C11H14NO+
178.1217	14	C11H16NO+
206.1165	84	C12H16NO2+
207.1222	20	C11[13]CH16NO2+
220.096	999	C12H14NO3+
221.0989	120	C11[13]CH14NO3+
222.1016	18	C10[13]C2H14NO3+
252.1223	182	C13[13]C2H18NO4+
