Mass spectrum: Cyclophosphamide; LC-ESI-QTOF; MS2; CE: 10 eV; R=35000; [M+H]+
Name: Cyclophosphamide
Name: N,N-bis(2-chloroethyl)-2-oxo-1,3,2lambda5-oxazaphosphinan-2-amine
Formula: C7H15Cl2N2O2P
Exact mass: 260.0248197
SMILES: ClCCN(CCCl)P1(=O)NCCCO1
InChI: InChI=1S/C7H15Cl2N2O2P/c8-2-5-11(6-3-9)14(12)10-4-1-7-13-14/h1-7H2,(H,10,12)
Instrument: Bruker maXis Impact
Instrument type: LC-ESI-QTOF
Ms type: MS2
Ion mode: POSITIVE
Ionization: ESI
Fragmentation mode: CID
Collision energy: 10 eV
Resolution: 35000
Column name: Acclaim RSLC C18 2.2um, 2.1x100mm, Thermo
Retention time: 6.196 min
Base peak: 278.1909
Precursor m/z: 261.0321
Precursor type: [M+H]+
m/z	relative intensity	assigned
233.0001	15	C5H12Cl2N2O2P+
234.9971	7	C5H12Cl[37]ClN2O2P+
261.0322	999	C7H16Cl2N2O2P+
262.0348	73	C6[13]CH16Cl2N2O2P+
263.029	684	C7H16Cl[37]ClN2O2P+
