Mass spectrum: Epiandrosterone; LC-ESI-QTOF; MS2; CE: Ramp 21.3-31.9 eV; R=35000; [M+H]+
Name: Epiandrosterone
Name: (3S,5S,8R,9S,10S,13S,14S)-3-hydroxy-10,13-dimethyl-1,2,3,4,5,6,7,8,9,11,12,14,15,16-tetradecahydrocyclopenta[a]phenanthren-17-one
Formula: C19H30O2
Exact mass: 290.2245802
SMILES: C[C@]12CC[C@H]3[C@@H](CC[C@H]4C[C@@H](O)CC[C@]34C)[C@@H]1CCC2=O
InChI: InChI=1S/C19H30O2/c1-18-9-7-13(20)11-12(18)3-4-14-15-5-6-17(21)19(15,2)10-8-16(14)18/h12-16,20H,3-11H2,1-2H3/t12-,13-,14-,15-,16-,18-,19-/m0/s1
Instrument: Bruker maXis Impact
Instrument type: LC-ESI-QTOF
Ms type: MS2
Ion mode: POSITIVE
Ionization: ESI
Fragmentation mode: CID
Collision energy: Ramp 21.3-31.9 eV
Resolution: 35000
Column name: Acclaim RSLC C18 2.2um, 2.1x100mm, Thermo
Retention time: 10.503 min
Base peak: 102.1284
Precursor m/z: 291.2319
Precursor type: [M+H]+
m/z	relative intensity	assigned
119.0867	144	C9H11+
121.1001	171	C9H13+
131.0841	233	C10H11+
133.0998	237	C10H13+
135.1159	533	C10H15+
145.0996	166	C11H13+
147.1155	540	C11H15+
159.1166	372	C12H15+
161.1317	473	C12H17+
173.1314	259	C13H17+
187.1466	138	C14H19+
199.1477	420	C15H19+
213.1604	211	C16H21+
215.1801	315	C16H23+
255.2094	999	C19H27+
256.2133	195	C18[13]CH27+
273.2187	155	C19H29O+
