Mass spectrum: Metronidazole; LC-ESI-QTOF; MS2; CE: Ramp 17.0-25.5 eV; R=35000; [M+H]+
Name: Metronidazole
Name: 2-(2-methyl-5-nitroimidazol-1-yl)ethanol
Formula: C6H9N3O3
Exact mass: 171.0644
SMILES: Cc1ncc(n1CCO)[N+](=O)[O-]
InChI: InChI=1S/C6H9N3O3/c1-5-7-4-6(9(11)12)8(5)2-3-10/h4,10H,2-3H2,1H3
Instrument: Bruker maXis Impact
Instrument type: LC-ESI-QTOF
Ms type: MS2
Ion mode: POSITIVE
Ionization: ESI
Fragmentation mode: CID
Collision energy: Ramp 17.0-25.5 eV
Resolution: 35000
Column name: Acclaim RSLC C18 2.2um, 2.1x100mm, Thermo
Retention time: 3.8 min
Base peak: 172.0724
Precursor m/z: 172.0717
Precursor type: [M+H]+
m/z	relative intensity	assigned
45.0338	33	C2H5O+
56.0364	60	C2H4N2+
60.0552	10	CH6N3+
82.0524	38	C4H6N2+
97.0398	5	C4H5N2O+
98.0466	16	C4H6N2O+
111.0417	25	C4H5N3O+
128.0458	999	C4H6N3O2+
130.0498	7	C5H8NO3+
172.0722	283	C6H10N3O3+
