Mass spectrum: Nordiazepam; LC-ESI-QTOF; MS2; CE: 30 eV; R=35000; [M+H]+
Name: Nordiazepam
Name: 7-chloro-5-phenyl-1,3-dihydro-1,4-benzodiazepin-2-one
Formula: C15H11ClN2O
Exact mass: 270.0559907
SMILES: ClC1=CC2=C(NC(=O)CN=C2C2=CC=CC=C2)C=C1
InChI: InChI=1S/C15H11ClN2O/c16-11-6-7-13-12(8-11)15(17-9-14(19)18-13)10-4-2-1-3-5-10/h1-8H,9H2,(H,18,19)
Instrument: Bruker maXis Impact
Instrument type: LC-ESI-QTOF
Ms type: MS2
Ion mode: POSITIVE
Ionization: ESI
Fragmentation mode: CID
Collision energy: 30 eV
Resolution: 35000
Column name: Acclaim RSLC C18 2.2um, 2.1x100mm, Thermo
Retention time: 9.0 min
Base peak: 271.0625
Precursor m/z: 271.0633
Precursor type: [M+H]+
m/z	relative intensity	assigned
116.0478	14	C8H6N+
117.0559	8	C8H7N+
118.0641	5	C8H8N+
127.0177	10	C9H3O+
129.0449	5	C8H5N2+
130.05	10	C8H6N2+
133.0512	11	C8H7NO+
138.0096	14	C10H2O+
140.0252	536	C7H7ClN+
141.0289	44	C6[13]CH7ClN+
142.0225	123	C7H7[37]ClN+
143.0249	5	C6[13]CH7[37]ClN+
144.0437	12	C9H6NO+
150.0084	14	C11H2O+
152.0038	5	C8H5ClO+
158.0461	86	C9H6N2O+
164.0116	5	C11H2NO+
165.0201	399	
166.0043	35	C8H5ClNO+
166.0233	29	C7[13]CH6ClN2+
167.0162	98	C8H6[37]ClN2+
168.0009	13	C14+
168.0198	25	C7[13]CH6[37]ClN2+
170.0163	7	C14H2+
180.0789	19	C13H10N+
181.0873	12	C13H11N+
190.0641	14	C14H8N+
191.0716	34	C14H9N+
192.0754	6	C9H10N3O2+
193.0145	50	C9H6ClN2O+
193.0873	38	C14H11N+
195.0124	15	C15HN+
199.0307	7	C13H8Cl+
206.0831	16	C14H10N2+
207.0677	11	C14H9NO+
207.0909	44	C14H11N2+
208.0986	435	C14H12N2+
209.083	11	C14H11NO+
214.0403	49	C13H9ClN+
215.0453	7	C13H10ClN+
216.0388	19	C7H9ClN4O2+
216.0569	23	C13H11ClN+
217.0762	5	C15H9N2+
218.054	7	C13H11ClO+
218.0819	25	C15H10N2+
219.067	19	C15H9NO+
226.0406	104	C14H9ClN+
227.047	26	C14H10ClN+
228.0383	31	C14H9ClO+
229.0453	7	C14H10ClO+
235.0869	15	C15H11N2O+
236.093	10	C15H12N2O+
241.0524	22	C14H10ClN2+
242.0343	7	C14H9ClNO+
242.059	45	C14H11ClN2+
243.0677	219	C14H12ClN2+
244.0696	33	C13[13]CH12ClN2+
245.0643	60	C14H12[37]ClN2+
246.066	11	C15H8N3O+
253.053	19	C15H10ClN2+
255.0475	7	C15H10ClNO+
271.0628	999	C15H12ClN2O+
272.0659	155	C14[13]CH12ClN2O+
273.0599	264	C15H12[37]ClN2O+
274.0627	24	C14[13]CH12[37]ClN2O+
