Mass spectrum: Testosterone; LC-ESI-QTOF; MS2; CE: 50 eV; R=35000; [M+H]+
Name: Testosterone
Name: (8R,9S,10R,13S,14S,17S)-17-hydroxy-10,13-dimethyl-1,2,6,7,8,9,11,12,14,15,16,17-dodecahydrocyclopenta[a]phenanthren-3-one
Formula: C19H28O2
Exact mass: 288.2089301
SMILES: C[C@]12CC[C@H]3[C@@H](CCC4=CC(=O)CC[C@]34C)[C@@H]1CC[C@@H]2O
InChI: InChI=1S/C19H28O2/c1-18-9-7-13(20)11-12(18)3-4-14-15-5-6-17(21)19(15,2)10-8-16(14)18/h11,14-17,21H,3-10H2,1-2H3/t14-,15-,16-,17-,18-,19-/m0/s1
Instrument: Bruker maXis Impact
Instrument type: LC-ESI-QTOF
Ms type: MS2
Ion mode: POSITIVE
Ionization: ESI
Fragmentation mode: CID
Collision energy: 50 eV
Resolution: 35000
Column name: Acclaim RSLC C18 2.2um, 2.1x100mm, Thermo
Retention time: 9.839 min
Base peak: 289.2162
Precursor m/z: 289.2162
Precursor type: [M+H]+
m/z	relative intensity	assigned
109.0642	68	C7H9O+
115.0523	229	C9H7+
116.062	60	C9H8+
117.0691	261	C9H9+
119.0849	444	C9H11+
121.0642	220	C8H9O+
121.101	106	C9H13+
123.0796	999	C8H11O+
124.083	115	C7[13]CH11O+
127.0536	45	C10H7+
128.0606	474	C10H8+
129.0684	517	C10H9+
130.0756	219	C10H10+
131.0845	634	C10H11+
132.0898	62	C9[13]CH11+
133.0641	44	C9H9O+
133.1001	502	C10H13+
134.1034	47	C9[13]CH13+
135.0806	51	C9H11O+
135.1166	47	C10H15+
137.0957	63	C9H13O+
141.0688	368	C11H9+
142.077	357	C11H10+
143.084	493	C11H11+
144.0913	210	C11H12+
145.0625	54	C10H9O+
145.1004	644	C11H13+
146.1042	98	C10[13]CH13+
147.081	78	C10H11O+
147.116	273	C11H15+
149.0938	91	C10H13O+
149.1313	38	C11H17+
153.0685	119	C12H9+
154.0761	110	C12H10+
155.0836	280	C12H11+
156.0912	186	C12H12+
157.0999	384	C12H13+
158.1048	68	C11[13]CH13+
159.1161	330	C12H15+
161.0939	95	C11H13O+
161.1298	76	C12H17+
163.1105	69	C11H15O+
165.0693	43	C13H9+
167.0849	152	C13H11+
168.0918	119	C13H12+
169.0996	224	C13H13+
170.1064	83	C13H14+
171.1153	246	C13H15+
173.1304	109	C13H17+
174.1007	35	C12H14O+
175.1125	44	C12H15O+
177.1248	52	C12H17O+
181.0991	64	C14H13+
182.1065	72	C14H14+
183.1155	176	C14H15+
185.1302	106	C14H17+
187.1462	69	C14H19+
189.1236	44	C13H17O+
195.1182	49	C15H15+
197.1309	128	C15H17+
198.1357	34	C14[13]CH17+
199.1475	109	C15H19+
209.1307	57	C16H17+
213.1642	35	C16H21+
223.1481	62	C17H19+
