Mass spectrum: Lincomycin; LC-ESI-QTOF; MS2; CE: 30 eV; R=35000; [M+H]+
Name: Lincomycin
Name: (2S,4R)-N-[(1R,2R)-2-hydroxy-1-[(2R,3R,4S,5R,6R)-3,4,5-trihydroxy-6-methylsulfanyloxan-2-yl]propyl]-1-methyl-4-propylpyrrolidine-2-carboxamide
Formula: C18H34N2O6S
Exact mass: 406.2137578
SMILES: CCC[C@@H]1C[C@H](N(C)C1)C(=O)N[C@H]([C@@H](C)O)[C@H]1O[C@H](SC)[C@H](O)[C@@H](O)[C@H]1O
InChI: InChI=1S/C18H34N2O6S/c1-5-6-10-7-11(20(3)8-10)17(25)19-12(9(2)21)16-14(23)13(22)15(24)18(26-16)27-4/h9-16,18,21-24H,5-8H2,1-4H3,(H,19,25)/t9-,10-,11+,12-,13+,14-,15-,16-,18-/m1/s1
Instrument: Bruker maXis Impact
Instrument type: LC-ESI-QTOF
Ms type: MS2
Ion mode: POSITIVE
Ionization: ESI
Fragmentation mode: CID
Collision energy: 30 eV
Resolution: 35000
Column name: Acclaim RSLC C18 2.2um, 2.1x100mm, Thermo
Retention time: 3.919 min
Base peak: 407.221
Precursor m/z: 407.221
Precursor type: [M+H]+
m/z	relative intensity	assigned
126.127	999	C5H18O3+
127.1302	78	C4[13]CH18O3+
172.1319	6	C6H20O5+
317.2048	9	C15H29N2O5+
359.217	50	C17H31N2O6+
360.2198	11	C16[13]CH31N2O6+
389.2097	7	C18H33N2O5S+
407.2202	61	C18H35N2O6S+
408.2234	14	C17[13]CH35N2O6S+
