Mass spectrum: Promethazin; LC-ESI-QTOF; MS2; CE: 20 eV; R=35000; [M+H]+
Name: Promethazin
Name: Promethazine
Name: N,N-dimethyl-1-phenothiazin-10-ylpropan-2-amine
Formula: C17H20N2S
Exact mass: 284.1347196
SMILES: CC(CN1C2=CC=CC=C2SC2=CC=CC=C12)N(C)C
InChI: InChI=1S/C17H20N2S/c1-13(18(2)3)12-19-14-8-4-6-10-16(14)20-17-11-7-5-9-15(17)19/h4-11,13H,12H2,1-3H3
Instrument: Bruker maXis Impact
Instrument type: LC-ESI-QTOF
Ms type: MS2
Ion mode: POSITIVE
Ionization: ESI
Fragmentation mode: CID
Collision energy: 20 eV
Resolution: 35000
Column name: Acclaim RSLC C18 2.2um, 2.1x100mm, Thermo
Retention time: 7.335 min
Base peak: 285.1417
Precursor m/z: 285.142
Precursor type: [M+H]+
m/z	relative intensity	assigned
162.0356	8	C9H8NS+
198.0361	999	C12H8NS+
199.0391	162	C11[13]CH8NS+
200.0325	41	C12H8N[34]S+
207.102	5	C15H13N+
225.0596	8	C14H11NS+
240.0831	354	C15H14NS+
241.0866	79	C14[13]CH14NS+
242.0798	19	C15H14N[34]S+
285.1416	150	C17H21N2S+
286.1451	31	C16[13]CH21N2S+
287.1407	7	C17H21N2[34]S+
