Mass spectrum: Tolfenpyrad; LC-ESI-QTOF; MS2; CE: 50 eV; R=35000; [M+H]+
Name: Tolfenpyrad
Name: 4-chloro-5-ethyl-2-methyl-N-[[4-(4-methylphenoxy)phenyl]methyl]pyrazole-3-carboxamide
Formula: C21H22ClN3O2
Exact mass: 383.1400546
SMILES: CCC1=NN(C(=C1Cl)C(=O)NCC2=CC=C(C=C2)OC3=CC=C(C=C3)C)C
InChI: InChI=1S/C21H22ClN3O2/c1-4-18-19(22)20(25(3)24-18)21(26)23-13-15-7-11-17(12-8-15)27-16-9-5-14(2)6-10-16/h5-12H,4,13H2,1-3H3,(H,23,26)
Instrument: Bruker maXis Impact
Instrument type: LC-ESI-QTOF
Ms type: MS2
Ion mode: POSITIVE
Ionization: ESI
Fragmentation mode: CID
Collision energy: 50 eV
Resolution: 35000
Column name: Acclaim RSLC C18 2.2um, 2.1x100mm, Thermo
Retention time: 12.448 min
Base peak: 279.1601
Precursor m/z: 384.1473
Precursor type: [M+H]+
m/z	relative intensity	assigned
117.0215	144	C4H6ClN2+
128.0616	51	C10H8+
129.0705	66	C10H9+
141.0696	202	C11H9+
142.0752	34	C5H15ClO2+
145.0524	161	C9H7NO+
152.0621	87	C12H8+
153.0692	203	C12H9+
154.0774	667	C12H10+
155.081	105	C11[13]CH10+
157.0519	22	C10H7NO+
167.0844	47	C7H16ClO2+
168.091	30	C7H17ClO2+
169.1012	500	C13H13+
170.1046	98	C12[13]CH13+
171.0326	97	C7H8ClN2O+
173.0306	35	C9H5N2O2+
179.0822	23	C6H14ClN3O+
182.0731	55	C10H13ClN+
197.096	999	C14H13O+
198.0999	219	C13[13]CH13O+
215.0247	25	C11H6ClN3+
233.0369	44	C13H10ClO2+
251.0458	38	C11H10ClN3O2+
327.0807	31	C17H14ClN3O2+
