Mass spectrum: Tris(2-ethylhexl)phosphate; LC-ESI-QTOF; MS2; CE: 20 eV; R=35000; [M+H]+
Name: Tris(2-ethylhexl)phosphate
Name: tris(2-ethylhexyl) phosphate
Formula: C24H51O4P
Exact mass: 434.3524967
SMILES: CCCCC(CC)COP(=O)(OCC(CC)CCCC)OCC(CC)CCCC
InChI: InChI=1S/C24H51O4P/c1-7-13-16-22(10-4)19-26-29(25,27-20-23(11-5)17-14-8-2)28-21-24(12-6)18-15-9-3/h22-24H,7-21H2,1-6H3
Instrument: Bruker maXis Impact
Instrument type: LC-ESI-QTOF
Ms type: MS2
Ion mode: POSITIVE
Ionization: ESI
Fragmentation mode: CID
Collision energy: 20 eV
Resolution: 35000
Column name: Acclaim RSLC C18 2.2um, 2.1x100mm, Thermo
Retention time: 15.467 min
Base peak: 435.3596
Precursor m/z: 435.3598
Precursor type: [M+H]+
m/z	relative intensity	assigned
149.0223	999	C8H5O3+
150.0272	57	C7[13]CH5O3+
167.033	50	C8H7O4+
211.1092	97	C8H20O4P+
237.0783	664	C16H14P+
238.0802	157	C19H10+
239.1464	36	C17H19O+
275.165	134	C17H23O3+
276.1672	24	C16[13]CH23O3+
293.1762	51	C17H25O4+
319.2828	28	C18H39O4+
