Mass spectrum: Di-n-butyl phosphate; LC-ESI-QTOF; MS2; CE: Ramp 18.4-27.6 eV; R=35000; [M+H]+
Name: Di-n-butyl phosphate
Name: Dibutyl phosphate
Name: dibutyl hydrogen phosphate
Formula: C8H19O4P
Exact mass: 210.1020957
SMILES: CCCCOP(O)(=O)OCCCC
InChI: InChI=1S/C8H19O4P/c1-3-5-7-11-13(9,10)12-8-6-4-2/h3-8H2,1-2H3,(H,9,10)
Instrument: Bruker maXis Impact
Instrument type: LC-ESI-QTOF
Ms type: MS2
Ion mode: POSITIVE
Ionization: ESI
Fragmentation mode: CID
Collision energy: Ramp 18.4-27.6 eV
Resolution: 35000
Column name: Acclaim RSLC C18 2.2um, 2.1x100mm, Thermo
Retention time: 11.539 min
Base peak: 267.172
Precursor m/z: 211.1094
Precursor type: [M+H]+
m/z	relative intensity	assigned
98.9844	999	H4O4P+
