Mass spectrum: Chloridazon; LC-ESI-QTOF; MS2; CE: 40 eV; R=35000; [M+H]+
Name: Chloridazon
Name: 5-amino-4-chloro-2-phenylpyridazin-3-one
Formula: C10H8ClN3O
Exact mass: 221.0355896
SMILES: NC1=C(Cl)C(=O)N(N=C1)C1=CC=CC=C1
InChI: InChI=1S/C10H8ClN3O/c11-9-8(12)6-13-14(10(9)15)7-4-2-1-3-5-7/h1-6H,12H2
Instrument: Bruker maXis Impact
Instrument type: LC-ESI-QTOF
Ms type: MS2
Ion mode: POSITIVE
Ionization: ESI
Fragmentation mode: CID
Collision energy: 40 eV
Resolution: 35000
Column name: Acclaim RSLC C18 2.2um, 2.1x100mm, Thermo
Retention time: 5.313 min
Base peak: 222.0424
Precursor m/z: 222.0429
Precursor type: [M+H]+
m/z	relative intensity	assigned
113.0373	8	C9H5+
114.0344	19	C8H4N+
114.0461	21	C9H6+
115.0393	15	C8H5N+
115.0527	22	C9H7+
116.0491	17	C8H6N+
116.9971	49	C4H4ClNO+
117.0558	25	C8H7N+
118.0506	7	C7H6N2+
118.9955	22	C4H4[37]ClNO+
119.0587	50	C7H7N2+
120.0435	13	C7H6NO+
122.9987	63	C7H4Cl+
124.9953	17	C7H4[37]Cl+
125.0148	27	C7H6Cl+
128.0485	26	C9H6N+
128.9836	397	C4H2ClN2O+
129.0553	32	C9H7N+
129.9869	19	C3[13]CH2ClN2O+
130.0636	373	C9H8N+
130.9808	131	C4H2[37]ClN2O+
130.9989	12	C4H4ClN2O+
131.0593	169	C8H7N2+
132.0437	137	C8H6NO+
132.0655	72	C8H8N2+
133.0507	33	C8H7NO+
138.0083	15	C8N3+
140.0246	30	C7H7ClN+
140.0481	84	C10H6N+
141.0556	127	C10H7N+
142.0219	8	C7H7[37]ClN+
142.0514	114	C9H6N2+
143.0343	9	C9H5NO+
143.0587	42	C9H7N2+
144.0433	12	C9H6NO+
144.0659	11	C9H8N2+
145.0749	14	C9H9N2+
146.01	999	C4H5ClN3O+
147.0131	60	C3[13]CH5ClN3O+
147.0535	10	C8H7N2O+
148.0068	389	C4H5[37]ClN3O+
149.0136	164	C9H6Cl+
150.0088	317	C8H5ClN+
151.0114	73	C9H6[37]Cl+
152.0068	76	C8H5[37]ClN+
153.0092	7	C6H4ClN3+
156.0449	10	C7H9ClN2+
157.052	9	C10H7NO+
158.0583	78	C10H8NO+
159.054	88	C9H7N2O+
159.076	22	C9H9N3+
160.0616	39	C9H8N2O+
164.0252	17	C10H2N3+
166.0045	19	C9N3O+
167.0147	9	C8H6ClNO+
168.0214	14	C8H7ClNO+
169.0369	46	C10H5N2O+
170.0441	9	C10H6N2O+
176.0026	13	C10H5ClO+
176.0244	30	C10H7ClN+
177.0175	22	C9H6ClN2+
178.0039	20	C9H5ClNO+
179.0171	12	C9H6ClNO+
180.003	7	C9H5[37]ClNO+
186.0644	84	C10H8N3O+
187.0681	11	C9[13]CH8N3O+
193.0275	205	C10H8ClNO+
194.0324	24	C9[13]CH8ClNO+
195.0255	81	C10H8[37]ClNO+
205.0164	22	C10H6ClN2O+
207.0153	11	C10H6[37]ClN2O+
222.0413	448	C10H9ClN3O+
223.0435	62	C9[13]CH9ClN3O+
224.0388	162	C10H9[37]ClN3O+
