Mass spectrum: Tri-n-butyl acetyl citrate; GC-APCI-QTOF; MS2; CE: 40 eV; R=35000; [M+H]+
Name: Tri-n-butyl acetyl citrate
Formula: C20H34O8
Exact mass: 402.2254
SMILES: CCCCOC(=O)CC(CC(=O)OCCCC)(C(=O)OCCCC)OC(=O)C
InChI: InChI=1S/C20H34O8/c1-5-8-11-25-17(22)14-20(28-16(4)21,19(24)27-13-10-7-3)15-18(23)26-12-9-6-2/h5-15H2,1-4H3
Instrument: Bruker 450 GC coupled to maXis Impact
Instrument type: GC-APCI-QTOF
Ms type: MS2
Ion mode: POSITIVE
Ionization: APCI
Fragmentation mode: CID
Collision energy: 40 eV
Resolution: 35000
Column name: Rxi-5Sil MS column, 30m, 0.25mm i.d., 0.25Âµm film thickness, Restek
Retention time: 21.171 min
Base peak: 403.2335
Precursor m/z: 403.2326
Precursor type: [M+H]+
m/z	relative intensity	assigned
57.0704	5	C4H9+
111.0064	12	C5H3O3+
129.0177	999	C5H5O4+
130.0396	5	C9H6O+
139.0042	334	C6H3O4+
140.0083	23	C6H4O4+
147.0323	10	C5H7O5+
157.0156	206	C6H5O5+
158.0248	10	C6H6O5+
185.0839	73	C9H13O4+
186.0873	9	C9H14O4+
