Mass spectrum: Torasemide; LC-ESI-QTOF; MS2; CE: 20 eV; R=35000; [M-H]-
Name: Torasemide
Name: Torsemide
Name: 1-[4-(3-methylanilino)pyridin-3-yl]sulfonyl-3-propan-2-ylurea
Formula: C16H20N4O3S
Exact mass: 348.1256115
SMILES: CC(C)NC(=O)NS(=O)(=O)C1=CN=CC=C1NC1=CC=CC(C)=C1
InChI: InChI=1S/C16H20N4O3S/c1-11(2)18-16(21)20-24(22,23)15-10-17-8-7-14(15)19-13-6-4-5-12(3)9-13/h4-11H,1-3H3,(H,17,19)(H2,18,20,21)
Instrument: Bruker maXis Impact
Instrument type: LC-ESI-QTOF
Ms type: MS2
Ion mode: NEGATIVE
Ionization: ESI
Fragmentation mode: CID
Collision energy: 20 eV
Resolution: 35000
Column name: Acclaim RSLC C18 2.2um, 2.1x100mm, Thermo
Retention time: 7.186 min
Base peak: 347.1167
Precursor m/z: 347.1183
Precursor type: [M-H]-
m/z	relative intensity	assigned
195.0765	24	C9H11N2O3-
196.0874	15	C12H10N3-
244.0509	11	C15H6N3O-
262.065	999	C14H14O3S-
263.0668	154	C13[13]CH14O3S-
264.0675	49	C14H14O3[34]S-
265.0641	6	C12H13N2O3S-
