Mass spectrum: Linuron; LC-ESI-QTOF; MS2; CE: 40 eV; R=35000; [M+H]+
Name: Linuron
Name: 3-(3,4-dichlorophenyl)-1-methoxy-1-methylurea
Formula: C9H10Cl2N2O2
Exact mass: 248.0119329
SMILES: CON(C)C(=O)NC1=CC=C(Cl)C(Cl)=C1
InChI: InChI=1S/C9H10Cl2N2O2/c1-13(15-2)9(14)12-6-3-4-7(10)8(11)5-6/h3-5H,1-2H3,(H,12,14)
Instrument: Bruker maXis Impact
Instrument type: LC-ESI-QTOF
Ms type: MS2
Ion mode: POSITIVE
Ionization: ESI
Fragmentation mode: CID
Collision energy: 40 eV
Resolution: 35000
Column name: Acclaim RSLC C18 2.2um, 2.1x100mm, Thermo
Retention time: 9.305 min
Base peak: 249.0186
Precursor m/z: 249.0192
Precursor type: [M+H]+
m/z	relative intensity	assigned
117.0436	5	C7H5N2+
118.0517	12	C7H6N2+
119.059	6	C7H7N2+
123.9937	78	C6H3ClN+
125.0018	436	C6H4ClN+
125.9907	18	C6H3[37]ClN+
126.0079	53	Cl2H10NO2+
126.9987	108	C6H4[37]ClN+
127.016	11	Cl2H11NO2+
128.005	12	C3H8Cl2N+
132.9597	999	C5H3Cl2+
133.9645	59	C4[13]CH3Cl2+
134.9567	560	C5H3Cl[37]Cl+
135.9621	27	C3H2Cl2N2+
139.0042	5	Cl2H9N2O2+
139.9885	10	C9O2+
140.0254	5	C7H7ClN+
142.004	8	C9H2O2+
147.0543	7	C8H7N2O+
153.0203	493	C7H6ClN2+
154.0241	32	C6[13]CH6ClN2+
155.0173	110	C7H6[37]ClN2+
156.0211	5	C7H7ClNO+
159.9704	410	C6H4Cl2N+
160.9781	748	C6H5Cl2N+
161.9673	233	C6H4Cl[37]ClN+
162.9751	393	C6H5Cl[37]ClN+
163.9788	14	C6H6Cl2O+
165.0197	32	C8H6ClN2+
166.9994	21	C7H4ClN2O+
167.0166	6	C8H6[37]ClN2+
168.996	5	C7H4[37]ClN2O+
173.9858	13	C7H6Cl2N+
174.9809	8	C6H5Cl2N2+
175.9835	9	C7H6Cl[37]ClN+
176.9767	6	C6H5Cl[37]ClN2+
181.0153	192	C8H6ClN2O+
182.0227	184	C8H7ClN2O+
183.012	46	C8H6[37]ClN2O+
184.02	41	C8H7[37]ClN2O+
201.9683	5	C7H4Cl2N2O+
216.9922	42	C8H7Cl2N2O+
218.9889	29	C8H7Cl[37]ClN2O+
