Mass spectrum: Sertraline; LC-ESI-QTOF; MS2; CE: 30 eV; R=35000; [M+H]+
Name: Sertraline
Name: (1S,4S)-4-(3,4-dichlorophenyl)-N-methyl-1,2,3,4-tetrahydronaphthalen-1-amine
Formula: C17H17Cl2N
Exact mass: 305.0738049
SMILES: CN[C@H]1CC[C@@H](C2=CC=C(Cl)C(Cl)=C2)C2=C1C=CC=C2
InChI: InChI=1S/C17H17Cl2N/c1-20-17-9-7-12(13-4-2-3-5-14(13)17)11-6-8-15(18)16(19)10-11/h2-6,8,10,12,17,20H,7,9H2,1H3/t12-,17-/m0/s1
Instrument: Bruker maXis Impact
Instrument type: LC-ESI-QTOF
Ms type: MS2
Ion mode: POSITIVE
Ionization: ESI
Fragmentation mode: CID
Collision energy: 30 eV
Resolution: 35000
Column name: Acclaim RSLC C18 2.2um, 2.1x100mm, Thermo
Retention time: 9.1 min
Base peak: 306.0806
Precursor m/z: 306.0811
Precursor type: [M+H]+
m/z	relative intensity	assigned
129.0689	170	C10H9+
130.0721	13	C2H13ClN3O+
158.9751	999	C7H5Cl2+
159.9784	61	C6[13]CH5Cl2+
160.9723	619	C7H5[35]Cl[37]Cl+
161.9754	19	C6[13C]CH5[35]Cl[37]Cl+
196.9903	12	C10H7Cl2+
197.9942	1	C9[13]CH7Cl2+
198.9879	7	
199.9898	1	C9[13]CH7[35]Cl[37]Cl+
275.0383	33	C16H13Cl2+
276.0417	5	C15[13]CH13Cl2+
277.0353	20	C16H8ClN3+
