Mass spectrum: Clopidogrel; LC-ESI-QTOF; MS2; CE: 20 eV; R=35000; [M+H]+
Name: Clopidogrel
Name: methyl (2S)-2-(2-chlorophenyl)-2-(6,7-dihydro-4H-thieno[3,2-c]pyridin-5-yl)acetate
Formula: C16H16ClNO2S
Exact mass: 321.0590274
SMILES: COC(=O)[C@H](c1ccccc1Cl)N2CCc3c(ccs3)C2
InChI: InChI=1S/C16H16ClNO2S/c1-20-16(19)15(12-4-2-3-5-13(12)17)18-8-6-14-11(10-18)7-9-21-14/h2-5,7,9,15H,6,8,10H2,1H3/t15-/m0/s1
Instrument: Bruker maXis Impact
Instrument type: LC-ESI-QTOF
Ms type: MS2
Ion mode: POSITIVE
Ionization: ESI
Fragmentation mode: CID
Collision energy: 20 eV
Resolution: 35000
Column name: Acclaim RSLC C18 2.2um, 2.1x100mm, Thermo
Retention time: 11.676 min
Base peak: 322.0669
Precursor m/z: 322.0663
Precursor type: [M+H]+
m/z	relative intensity	assigned
125.0146	11	C7H6Cl+
152.0252	69	C8H7ClN+
153.028	5	C7[13]CH7ClN+
154.0223	19	C8H7[37]ClN+
155.0248	61	C8H8ClO+
157.0218	12	C8H8[37]ClO+
183.0199	140	C9H8ClO2+
184.0516	651	C9H11ClNO+
185.017	35	C9H8[37]ClO2+
185.0548	52	C8[13]CH11ClNO+
186.0487	167	C9H11[37]ClNO+
187.0517	8	C9H12ClO2+
201.0306	6	C15H5O+
212.0475	999	C16H6N+
213.05	191	C15[13]CH6N+
214.044	576	C10H13ClNS+
215.0471	25	C9[13]CH13ClNS+
262.0447	6	C14H13ClNS+
322.0665	323	C16H17ClNO2S+
323.0694	49	C15[13]CH17ClNO2S+
324.0636	98	C16H17[37]ClNO2S+
