Mass spectrum: 2-n-Octyl-4-isothiazolin-3-one; GC-APCI-QTOF; MS2; CE: 10 eV; R=35000; [M]+
Name: 2-n-Octyl-4-isothiazolin-3-one
Formula: C11H19NOS
Exact mass: 213.1187
SMILES: CCCCCCCCN1C(=O)C=CS1
InChI: InChI=1S/C11H19NOS/c1-2-3-4-5-6-7-9-12-11(13)8-10-14-12/h8,10H,2-7,9H2,1H3
Instrument: Bruker 450 GC coupled to maXis Impact
Instrument type: GC-APCI-QTOF
Ms type: MS2
Ion mode: POSITIVE
Ionization: APCI
Fragmentation mode: CID
Collision energy: 10 eV
Resolution: 35000
Column name: Rxi-5Sil MS column, 30m, 0.25mm i.d., 0.25Âµm film thickness, Restek
Retention time: 14.151 min
Base peak: 217.1437
Precursor m/z: 213.1182
Precursor type: [M]+
m/z	relative intensity	assigned
167.0745	999	C9H13NS+
