Mass spectrum: Flunisolide; LC-ESI-QTOF; MS2; CE: 20 eV; R=35000; [M+H]+
Name: Flunisolide
Name: (1S,2S,4R,8S,9S,11S,12S,13R,19S)-19-fluoro-11-hydroxy-8-(2-hydroxyacetyl)-6,6,9,13-tetramethyl-5,7-dioxapentacyclo[10.8.0.02,9.04,8.013,18]icosa-14,17-dien-16-one
Formula: C24H31FO6
Exact mass: 434.2104669
SMILES: [H][C@@]12C[C@H]3OC(C)(C)O[C@@]3(C(=O)CO)[C@@]1(C)C[C@H](O)[C@@]1([H])[C@@]2([H])C[C@H](F)C2=CC(=O)C=C[C@]12C
InChI: InChI=1S/C24H31FO6/c1-21(2)30-19-9-14-13-8-16(25)15-7-12(27)5-6-22(15,3)20(13)17(28)10-23(14,4)24(19,31-21)18(29)11-26/h5-7,13-14,16-17,19-20,26,28H,8-11H2,1-4H3/t13-,14-,16-,17-,19+,20+,22-,23-,24+/m0/s1
Instrument: Bruker maXis Impact
Instrument type: LC-ESI-QTOF
Ms type: MS2
Ion mode: POSITIVE
Ionization: ESI
Fragmentation mode: CID
Collision energy: 20 eV
Resolution: 35000
Column name: Acclaim RSLC C18 2.2um, 2.1x100mm, Thermo
Retention time: 9.000 min
Base peak: 435.2173
Precursor m/z: 435.2177
Precursor type: [M+H]+
m/z	relative intensity	assigned
115.0391	7	C5H7O3+
119.0848	6	C9H11+
121.0639	86	C8H9O+
122.0676	9	C7[13]CH9O+
123.0795	8	C8H11O+
127.0736	5	C7H11O2+
131.0847	6	C10H11+
133.0638	7	C9H9O+
135.0792	35	C9H11O+
137.0588	12	C8H9O2+
139.0748	9	C8H11O2+
141.0536	8	C7H9O3+
141.0901	5	C8H13O2+
143.0846	6	C11H11+
145.0629	25	C10H9O+
145.0995	4	C11H13+
147.0792	86	C10H11O+
148.0821	9	C9[13]CH11O+
149.0598	5	C9H9O2+
149.0938	7	C10H13O+
151.0739	15	C9H11O2+
155.0691	100	C8H11O3+
156.0729	10	C7[13]CH11O3+
157.1008	5	C12H13+
159.0645	9	C7H11O4+
159.079	52	C11H11O+
160.0837	6	C10[13]CH11O+
161.0585	11	C10H9O2+
161.0948	28	C11H13O+
163.0744	50	C10H11O2+
164.0784	5	C9[13]CH11O2+
165.0698	17	C13H9+
165.0899	10	C10H13O2+
167.0858	6	C13H11+
169.0625	8	C12H9O+
171.0791	204	C12H11O+
172.0818	21	C11[13]CH11O+
173.0945	35	C12H13O+
174.0977	6	C11[13]CH13O+
175.0738	10	C11H11O2+
177.0896	9	C11H13O2+
179.0826	5	C14H11+
181.0849	46	C10H13O3+
182.0884	5	C9[13]CH13O3+
183.0789	17	C13H11O+
185.0573	5	C12H9O2+
185.0946	40	C13H13O+
186.0982	7	C12[13]CH13O+
187.0736	12	C12H11O2+
187.1101	6	C13H15O+
189.0906	12	C12H13O2+
191.0852	18	C15H11+
191.1051	5	C12H15O2+
193.0849	14	C11H13O3+
195.0796	10	C14H11O+
195.1001	5	C11H15O3+
195.1168	5	C15H15+
197.0953	207	C14H13O+
198.099	27	C13[13]CH13O+
199.1105	15	C14H15O+
201.0892	12	C13H13O2+
203.1065	7	C13H15O2+
205.0852	12	C12H13O3+
207.1171	9	C16H15+
208.0865	5	C15H12O+
209.0956	38	C15H13O+
210.1001	9	C14[13]CH13O+
211.0749	5	C14H11O2+
211.1109	92	C15H15O+
212.115	17	C14[13]CH15O+
213.0905	25	C14H13O2+
213.1263	134	C15H17O+
214.1305	22	C14[13]CH17O+
215.1409	17	C15H19O+
221.0949	25	C16H13O+
221.1323	5	C17H17+
222.1008	11	C16H14O+
223.111	381	C16H15O+
224.1162	126	C16H16O+
225.1264	378	C16H17O+
226.1297	57	C15[13]CH17O+
227.1063	8	C15H15O2+
227.1413	20	C16H19O+
231.1003	5	C14H15O3+
231.1167	6	C18H15+
233.0943	11	C17H13O+
233.1327	8	C18H17+
235.1111	142	C17H15O+
236.1141	28	C16[13]CH15O+
237.09	17	C16H13O2+
237.1264	130	C17H17O+
238.0991	5	C16H14O2+
238.1301	27	C16[13]CH17O+
239.1065	10	C16H15O2+
239.142	116	C17H19O+
240.1445	25	C16[13]CH19O+
241.0842	8	C15H13O3+
241.1209	14	C16H17O2+
241.1563	6	C17H21O+
243.1176	12	C16H16FO+
243.1367	5	C16H19O2+
244.1233	13	C19H16+
245.0946	6	C18H13O+
245.1311	18	C19H17+
246.1019	8	C18H14O+
247.1106	40	C18H15O+
247.1493	9	C16H20FO+
248.1171	20	C18H16O+
249.1266	118	C18H17O+
250.1308	28	C17[13]CH17O+
251.1056	39	C17H15O2+
251.1426	83	C18H19O+
252.1094	5	C16[13]CH15O2+
252.1459	19	C17[13]CH19O+
253.121	21	C17H17O2+
253.1576	19	C18H21O+
254.1617	5	C17[13]CH21O+
257.132	18	C20H17+
259.1114	42	C19H15O+
260.1173	25	C19H16O+
261.1262	226	C19H17O+
262.1313	78	C18[13]CH17O+
263.1057	24	C15H16FO3+
263.1425	288	C19H19O+
264.1134	5	C14[13]CH16FO3+
264.1453	62	C18[13]CH19O+
265.1213	40	C18H17O2+
265.1575	115	C19H21O+
266.1259	7	C17[13]CH17O2+
266.1614	23	C18[13]CH21O+
267.1373	33	C18H19O2+
268.1394	5	C17[13]CH19O2+
269.1165	19	C17H17O3+
269.1532	9	C18H21O2+
273.1258	54	C20H17O+
274.1293	12	C19[13]CH17O+
275.1424	256	C20H19O+
276.1457	52	C19[13]CH19O+
277.1214	59	C19H17O2+
277.1571	20	C20H21O+
278.1287	34	C19H18O2+
279.1008	12	C18H15O3+
279.1369	240	C19H19O2+
280.1409	55	C18[13]CH19O2+
281.1529	165	C19H21O2+
282.1554	35	C18[13]CH21O2+
283.1472	54	C22H19+
283.1675	38	C19H23O2+
284.1523	13	C21[13]CH19+
284.1716	11	C18[13]CH23O2+
285.126	48	C21H17O+
285.1656	5	C19H22FO+
286.13	11	C20[13]CH17O+
288.1149	7	C20H16O2+
291.1379	96	C20H19O2+
292.1417	18	C19[13]CH19O2+
293.1529	302	C20H21O2+
294.1559	65	C19[13]CH21O2+
295.1323	26	C19H19O3+
295.1514	11	C20H20FO+
296.1367	6	C18[13]CH19O3+
297.1488	14	C19H21O3+
299.1432	11	C22H19O+
299.1631	7	C19H23O3+
301.1584	70	C22H21O+
302.1615	15	C21[13]CH21O+
303.1373	337	C21H19O2+
304.1409	73	C20[13]CH19O2+
305.1438	7	C19[13]C2H19O2+
309.1473	61	C20H21O3+
310.1521	14	C19[13]CH21O3+
311.1636	159	C20H23O3+
312.1672	34	C19[13]CH23O3+
313.1595	25	C20H22FO2+
319.1323	8	C21H19O3+
321.1484	999	C21H21O3+
322.1515	210	C20[13]CH21O3+
323.1493	35	C19[13]C2H21O3+
325.1446	5	C17H22FO5+
329.1738	12	C20H25O4+
330.176	6	C24H23F+
331.1697	53	C23H23O2+
332.1731	15	C22[13]CH23O2+
339.1587	820	C21H23O4+
340.162	181	C20[13]CH23O4+
341.155	101	C24H21O2+
342.1571	20	C23[13]CH21O2+
343.1633	7	C24H23O2+
357.171	16	C18H26FO6+
357.2065	10	C22H29O4+
359.1643	48	C24H23O3+
360.1679	12	C23[13]CH23O3+
361.1786	10	C24H25O3+
369.2044	6	C23H29O4+
377.2132	10	C22H30FO4+
379.1897	21	C21H28FO5+
380.1953	5	C20[13]CH28FO5+
381.1878	4	C24H26FO3+
397.2006	265	C24H29O5+
398.2044	71	C23[13]CH29O5+
399.204	14	C24H28FO4+
415.2112	39	C24H31O6+
416.2171	13	C23[13]CH31O6+
417.2065	266	C24H30FO5+
418.2107	63	C23[13]CH30FO5+
419.215	9	C22[13]C2H30FO5+
435.2172	110	C24H32FO6+
436.2212	29	C23[13]CH32FO6+
