Mass spectrum: Trimethylolpropane trimethacrylate; GC-APCI-QTOF; MS2; CE: 10 eV; R=35000; [M]+
Name: Trimethylolpropane trimethacrylate
Formula: C18H26O6
Exact mass: 338.1729
SMILES: CCC(COC(=O)C(=C)C)(COC(=O)C(=C)C)COC(=O)C(=C)C
InChI: InChI=1S/C18H26O6/c1-8-18(9-22-15(19)12(2)3,10-23-16(20)13(4)5)11-24-17(21)14(6)7/h2,4,6,8-11H2,1,3,5,7H3
Instrument: Bruker 450 GC coupled to maXis Impact
Instrument type: GC-APCI-QTOF
Ms type: MS2
Ion mode: POSITIVE
Ionization: APCI
Fragmentation mode: CID
Collision energy: 10 eV
Resolution: 35000
Column name: Rxi-5Sil MS column, 30m, 0.25mm i.d., 0.25Âµm film thickness, Restek
Retention time: 18.229 min
Base peak: 253.1416
Precursor m/z: 338.1724
Precursor type: [M]+
m/z	relative intensity	assigned
69.0339	8	C4H5O+
148.09	13	C10H12O+
176.0849	9	C11H12O2+
185.1206	7	C10H17O3+
240.1363	7	C13H20O4+
252.1366	11	C14H20O4+
253.142	999	C14H21O4+
254.1282	50	C17H18O2+
254.1455	75	C14H22O4+
255.1224	5	C13H19O5+
310.1765	286	C17H26O5+
320.1641	16	C18H24O5+
337.1645	22	C18H25O6+
338.1718	611	C18H26O6+
