Mass spectrum: Pentoxifylline; LC-ESI-QTOF; MS2; CE: 50 eV; R=35000; [M+H]+
Name: Pentoxifylline
Name: 3,7-dimethyl-1-(5-oxohexyl)purine-2,6-dione
Formula: C13H18N4O3
Exact mass: 278.1378904
SMILES: CC(=O)CCCCn1c(=O)c2c(ncn2C)n(c1=O)C
InChI: InChI=1S/C13H18N4O3/c1-9(18)6-4-5-7-17-12(19)10-11(14-8-15(10)2)16(3)13(17)20/h8H,4-7H2,1-3H3
Instrument: Bruker maXis Impact
Instrument type: LC-ESI-QTOF
Ms type: MS2
Ion mode: POSITIVE
Ionization: ESI
Fragmentation mode: CID
Collision energy: 50 eV
Resolution: 35000
Column name: Acclaim RSLC C18 2.2um, 2.1x100mm, Thermo
Retention time: 5.364 min
Base peak: 279.1456
Precursor m/z: 279.1452
Precursor type: [M+H]+
m/z	relative intensity	assigned
110.0707	10	C5H8N3+
120.0541	11	C3H8N2O3+
121.0625	11	C6H7N3+
122.0579	255	C5H6N4+
123.0418	178	C7H7O2+
123.0605	15	C4[13]CH6N4+
124.0455	16	C6[13]CH7O2+
132.0554	8	C7H6N3+
134.0711	5	C7H8N3+
135.0657	226	C6H7N4+
136.0493	28	C6H6N3O+
136.0685	20	C5[13]CH7N4+
137.0812	232	C6H9N4+
138.0653	999	C6H8N3O+
139.0686	62	C5[13]CH8N3O+
140.0431	5	C5H6N3O2+
148.0366	27	C6H4N4O+
148.0858	7	C8H10N3+
149.0426	7	C6H5N4O+
149.0803	7	C4H11N3O3+
150.0661	5	C7H8N3O+
154.06	11	C6H8N3O2+
156.0752	7	C6H10N3O2+
163.0604	462	C7H7N4O+
164.0634	39	C6[13]CH7N4O+
165.0765	29	C7H9N4O+
166.0477	10	C6H6N4O2+
181.071	920	C7H9N4O2+
182.0744	70	C6[13]CH9N4O2+
183.075	8	C8H11N2O3+
193.0708	34	C8H9N4O2+
194.0752	7	C12H8N3+
211.0807	9	C8H11N4O3+
