Mass spectrum: Acridone; LC-ESI-QTOF; MS2; CE: 30 eV; R=35000; [M-H]-
Name: Acridone
Name: 9(10H)-Acridinone
Name: 10H-acridin-9-one
Formula: C13H9NO
Exact mass: 195.0684139
SMILES: O=C1C2=CC=CC=C2NC2=CC=CC=C12
InChI: InChI=1S/C13H9NO/c15-13-9-5-1-3-7-11(9)14-12-8-4-2-6-10(12)13/h1-8H,(H,14,15)
Instrument: Bruker maXis Impact
Instrument type: LC-ESI-QTOF
Ms type: MS2
Ion mode: NEGATIVE
Ionization: ESI
Fragmentation mode: CID
Collision energy: 30 eV
Resolution: 35000
Column name: Acclaim RSLC C18 2.2um, 2.1x100mm, Thermo
Retention time: 6.929 min
Base peak: 194.0611
Precursor m/z: 194.0611
Precursor type: [M-H]-
m/z	relative intensity	assigned
164.0488	8	C12H6N-
166.0644	8	C12H8N-
168.0445	11	C11H6NO-
192.0453	7	C13H6NO-
193.0524	9	C13H7NO-
194.0611	999	C13H8NO-
195.0636	179	C12[13]CH8NO-
196.0657	12	C11[13]C2H8NO-
