Mass spectrum: Benzyl butyl phthalate; GC-APCI-QTOF; MS2; CE: 10 eV; R=35000; [M+H]+
Name: Benzyl butyl phthalate
Formula: C19H20O4
Exact mass: 312.1362
SMILES: CCCCOC(=O)C1=CC=CC=C1C(=O)OCC2=CC=CC=C2
InChI: InChI=1S/C19H20O4/c1-2-3-13-22-18(20)16-11-7-8-12-17(16)19(21)23-14-15-9-5-4-6-10-15/h4-12H,2-3,13-14H2,1H3
Instrument: Bruker 450 GC coupled to maXis Impact
Instrument type: GC-APCI-QTOF
Ms type: MS2
Ion mode: POSITIVE
Ionization: APCI
Fragmentation mode: CID
Collision energy: 10 eV
Resolution: 35000
Column name: Rxi-5Sil MS column, 30m, 0.25mm i.d., 0.25Âµm film thickness, Restek
Retention time: 22.486 min
Base peak: 149.025
Precursor m/z: 313.1434
Precursor type: [M+H]+
m/z	relative intensity	assigned
91.0535	65	C7H7+
125.0969	37	C8H13O+
143.1087	30	C8H15O2+
149.0254	999	C8H5O3+
150.0286	91	C8H6O3+
185.1197	24	C10H17O3+
205.0865	572	C12H13O3+
206.0924	115	C12H14O3+
313.1422	52	C19H21O4+
