Mass spectrum: Flurtamone; LC-ESI-QTOF; MS2; CE: 30 eV; R=35000; [M+H]+
Name: Flurtamone
Name: 5-(methylamino)-2-phenyl-4-[3-(trifluoromethyl)phenyl]furan-3-one
Formula: C18H14F3NO2
Exact mass: 333.0976633
SMILES: CNC1=C(C(=O)C(O1)C1=CC=CC=C1)C1=CC=CC(=C1)C(F)(F)F
InChI: InChI=1S/C18H14F3NO2/c1-22-17-14(12-8-5-9-13(10-12)18(19,20)21)15(23)16(24-17)11-6-3-2-4-7-11/h2-10,16,22H,1H3
Instrument: Bruker maXis Impact
Instrument type: LC-ESI-QTOF
Ms type: MS2
Ion mode: POSITIVE
Ionization: ESI
Fragmentation mode: CID
Collision energy: 30 eV
Resolution: 35000
Column name: Acclaim RSLC C18 2.2um, 2.1x100mm, Thermo
Retention time: 9.168 min
Base peak: 334.1058
Precursor m/z: 334.1049
Precursor type: [M+H]+
m/z	relative intensity	assigned
120.0802	25	C8H10N+
131.0485	11	C9H7O+
171.0406	26	C9H6F3+
178.0769	45	C14H10+
179.0803	5	C13[13]CH10+
197.02	5	C13H3F2+
199.0355	13	C13H5F2+
207.0596	7	C15H8F+
209.0753	11	C15H10F+
225.0153	34	C11H4F3O2+
227.0663	43	C15H9F2+
228.065	11	C14[13]CH9F2+
229.0812	11	C15H11F2+
237.0705	7	C16H10FO+
238.0469	6	C12H7F3NO+
243.026	12	C14H5F2O2+
247.0732	999	C17H11O2+
248.0762	157	C16[13]CH11O2+
249.086	15	C15[13]C2H11O2+
256.0579	15	C12H9F3NO2+
257.0771	31	C16H11F2O+
258.0801	5	C15[13]CH11F2O+
275.068	177	C16H10F3O+
276.071	25	C15[13]CH10F3O+
277.083	29	C16H12F3O+
286.1037	12	C17H14F2NO+
288.0991	21	C17H13F3N+
303.0629	157	C17H10F3O2+
304.0659	25	C16[13]CH10F3O2+
306.1101	150	C17H15F3NO+
307.1134	21	C16[13]CH15F3NO+
316.094	11	C18H13F3NO+
334.1054	154	C18H15F3NO2+
335.1082	26	C17[13]CH15F3NO2+
