Mass spectrum: Galaxolidone; LC-ESI-QTOF; MS2; CE: 30 eV; R=35000; [M+H]+
Name: Galaxolidone
Name: SCHEMBL4657606
Name: 4,6,6,7,8,8-hexamethyl-4,7-dihydro-3H-cyclopenta[g]isochromen-1-one
Formula: C18H24O2
Exact mass: 272.1776300
SMILES: CC1C(C)(C)c2cc3C(C)COC(=O)c3cc2C1(C)C
InChI: InChI=1S/C18H24O2/c1-10-9-20-16(19)13-8-15-14(7-12(10)13)17(3,4)11(2)18(15,5)6/h7-8,10-11H,9H2,1-6H3
Instrument: Bruker maXis Impact
Instrument type: LC-ESI-QTOF
Ms type: MS2
Ion mode: POSITIVE
Ionization: ESI
Fragmentation mode: CID
Collision energy: 30 eV
Resolution: 35000
Column name: Acclaim RSLC C18 2.2um, 2.1x100mm, Thermo
Retention time: 12.0 min
Base peak: 279.1589
Precursor m/z: 273.1849
Precursor type: [M+H]+
m/z	relative intensity	assigned
143.0819	69	C6H11N2O2+
157.0992	161	C12H13+
175.1116	71	C12H15O+
185.0951	150	C13H13O+
197.1303	85	C15H17+
212.156	196	C16H20+
225.1266	183	C16H17O+
226.1333	142	C16H18O+
227.1773	103	C17H23+
240.1497	341	C17H20O+
255.1732	999	C18H23O+
256.1769	216	C13H24N2O3+
273.1837	111	C18H25O2+
