Mass spectrum: Indomethacin; LC-ESI-QTOF; MS2; CE: 50 eV; R=35000; [M+H]+
Name: Indomethacin
Name: 2-[1-(4-chlorobenzoyl)-5-methoxy-2-methylindol-3-yl]acetic acid
Formula: C19H16ClNO4
Exact mass: 357.0767857
SMILES: COC1=CC2=C(C=C1)N(C(=O)C1=CC=C(Cl)C=C1)C(C)=C2CC(O)=O
InChI: InChI=1S/C19H16ClNO4/c1-11-15(10-18(22)23)16-9-14(25-2)7-8-17(16)21(11)19(24)12-3-5-13(20)6-4-12/h3-9H,10H2,1-2H3,(H,22,23)
Instrument: Bruker maXis Impact
Instrument type: LC-ESI-QTOF
Ms type: MS2
Ion mode: POSITIVE
Ionization: ESI
Fragmentation mode: CID
Collision energy: 50 eV
Resolution: 35000
Column name: Acclaim RSLC C18 2.2um, 2.1x100mm, Thermo
Retention time: 10.692 min
Base peak: 372.2321
Precursor m/z: 358.0841
Precursor type: [M+H]+
m/z	relative intensity	assigned
110.9995	45	C6H4Cl+
131.071	39	C3H14ClNO2+
138.9932	999	C7H4ClO+
139.9968	86	C6[13]CH4ClO+
140.9911	257	C7H4[37]ClO+
174.0882	33	C8H14O4+
243.056	39	C15H12ClO+
245.1069	43	C14H15NO3+
286.096	88	C17H17ClNO+
