Mass spectrum: Fluocinolone acetonide; LC-ESI-QTOF; MS2; CE: 50 eV; R=35000; [M+H]+
Name: Fluocinolone acetonide
Name: (1S,2S,4R,8S,9S,11S,12R,13S,19S)-12,19-difluoro-11-hydroxy-8-(2-hydroxyacetyl)-6,6,9,13-tetramethyl-5,7-dioxapentacyclo[10.8.0.02,9.04,8.013,18]icosa-14,17-dien-16-one
Formula: C24H30F2O6
Exact mass: 452.2010451
SMILES: CC1(C)O[C@@H]2C[C@H]3[C@@H]4C[C@H](F)C5=CC(=O)C=C[C@]5(C)[C@@]4(F)[C@@H](O)C[C@]3(C)[C@@]2(O1)C(=O)CO
InChI: InChI=1S/C24H30F2O6/c1-20(2)31-19-9-13-14-8-16(25)15-7-12(28)5-6-21(15,3)23(14,26)17(29)10-22(13,4)24(19,32-20)18(30)11-27/h5-7,13-14,16-17,19,27,29H,8-11H2,1-4H3/t13-,14-,16-,17-,19+,21-,22-,23-,24+/m0/s1
Instrument: Bruker maXis Impact
Instrument type: LC-ESI-QTOF
Ms type: MS2
Ion mode: POSITIVE
Ionization: ESI
Fragmentation mode: CID
Collision energy: 50 eV
Resolution: 35000
Column name: Acclaim RSLC C18 2.2um, 2.1x100mm, Thermo
Retention time: 8.725 min
Base peak: 435.2177
Precursor m/z: 453.2083
Precursor type: [M+H]+
m/z	relative intensity	assigned
115.0536	86	C9H7+
116.0596	15	C9H8+
117.0686	35	C9H9+
119.0492	10	C8H7O+
119.0854	34	C9H11+
121.064	999	C8H9O+
122.067	92	C7[13]CH9O+
123.0432	16	C7H7O2+
123.0593	22	C8H8F+
123.0672	11	CH12FO5+
123.0791	12	C8H11O+
125.0392	8	C7H6FO+
125.0595	13	C7H9O2+
125.0762	8	C8H10F+
127.0543	19	C10H7+
128.0616	87	C10H8+
129.0684	93	C10H9+
131.048	25	C9H7O+
131.0841	85	C10H11+
132.0554	25	C9H8O+
132.0888	7	C9[13]CH11+
133.0442	14	C9H6F+
133.0637	126	C9H9O+
133.099	16	C10H13+
134.0684	16	C8[13]CH9O+
135.0424	22	C8H7O2+
135.0588	35	C9H8F+
135.0798	164	C9H11O+
136.0819	15	C8[13]CH11O+
137.0582	31	C8H9O2+
137.0752	130	C9H10F+
138.0648	9	C8H10O2+
138.0802	14	C8[13]CH10F+
139.054	146	C11H7+
139.0738	31	C8H11O2+
140.0571	11	C10[13]CH7+
141.0524	10	C8H7F2+
141.0689	89	C11H9+
142.0762	29	C11H10+
143.0474	8	C10H7O+
143.0631	7	C8H9F2+
143.0843	94	C11H11+
144.055	59	C10H8O+
144.0897	14	C10[13]CH11+
145.0636	267	C10H9O+
145.0997	28	C11H13+
146.0507	24	C10H7F+
147.0595	40	C10H8F+
147.0794	252	C10H11O+
148.0826	37	C9[13]CH11O+
149.0577	33	C9H9O2+
149.0746	78	C10H10F+
149.0938	8	C10H13O+
151.0369	11	C9H5F2+
151.0548	11	C9H8FO+
151.0738	19	C9H11O2+
151.091	6	C10H12F+
152.06	26	C12H8+
153.0517	12	C9H7F2+
153.0686	81	C12H9+
154.0742	17	C11[13]CH9+
155.0587	26	C4H11O6+
155.0836	71	C12H11+
156.0556	8	C11H8O+
156.0909	15	C12H12+
157.0634	77	C11H9O+
157.0999	22	C12H13+
158.0714	105	C11H10O+
159.079	326	C11H11O+
160.067	9	C11H9F+
160.0835	48	C10[13]CH11O+
161.0585	60	C10H9O2+
161.075	20	C11H10F+
161.0947	58	C11H13O+
162.0485	13	C7H8F2O2+
162.0633	9	C9[13]CH9O2+
163.0536	50	C10H8FO+
163.0755	34	C10H11O2+
163.0906	21	C11H12F+
163.1106	7	C11H15O+
164.0603	7	C9[13]CH8FO+
165.069	159	C13H9+
166.0753	42	C13H10+
167.0677	15	C10H9F2+
167.0847	83	C13H11+
168.0559	18	C12H8O+
168.0902	25	C13H12+
169.0637	106	C12H9O+
169.0999	27	C13H13+
170.0698	38	C12H10O+
171.0793	434	C12H11O+
172.0836	77	C11[13]CH11O+
173.0586	29	C11H9O2+
173.0738	16	C12H10F+
173.0951	69	C12H13O+
174.0647	7	C11H10O2+
174.1	8	C11[13]CH13O+
175.0531	8	C14H7+
175.0741	39	C11H11O2+
175.0905	17	C12H12F+
175.1094	6	C12H15O+
176.0612	9	C14H8+
177.0697	118	C14H9+
178.0759	65	C14H10+
179.0507	12	C10H8FO2+
179.0844	129	C14H11+
180.0907	64	C14H12+
181.0641	105	C13H9O+
181.0994	46	C14H13+
182.0705	78	C13H10O+
183.0604	11	C13H8F+
183.0789	99	C13H11O+
183.1157	38	C14H15+
184.0855	37	C13H12O+
185.059	113	C12H9O2+
185.0947	109	C13H13O+
186.0627	21	C11[13]CH9O2+
186.1007	33	C13H14O+
187.0546	14	C15H7+
187.0748	70	C12H11O2+
187.109	19	C13H15O+
188.0785	13	C11[13]CH11O2+
189.0698	95	C15H9+
190.0765	91	C15H10+
191.0845	100	C15H11+
192.0906	58	C15H12+
193.0686	15	C8H11F2O3+
193.1004	153	C15H13+
194.0715	47	C14H10O+
194.1052	44	C15H14+
195.0786	191	C14H11O+
195.1154	117	C15H15+
196.087	184	C14H12O+
196.1194	20	C14[13]CH15+
197.0948	239	C14H13O+
198.0678	9	C13H10O2+
198.0998	60	C13[13]CH13O+
199.0748	26	C13H11O2+
199.1098	46	C14H15O+
200.0609	6	C16H8+
200.1116	8	C13[13]CH15O+
201.0684	14	C16H9+
201.0909	13	C13H13O2+
202.0769	42	C16H10+
203.0843	100	C16H11+
204.0919	58	C16H12+
205.0647	93	C15H9O+
205.1004	138	C16H13+
206.0704	46	C15H10O+
206.1058	45	C16H14+
207.0787	70	C15H11O+
207.1159	53	C16H15+
208.0869	263	C15H12O+
209.0948	241	C15H13O+
209.1314	20	C16H17+
210.1015	121	C15H14O+
211.0747	31	C14H11O2+
211.1105	243	C15H15O+
212.0833	12	C14H12O2+
212.1176	139	C15H16O+
213.0688	25	C17H9+
213.0922	16	C11H14FO3+
213.125	85	C15H17O+
214.0773	12	C17H10+
214.1298	20	C14[13]CH17O+
215.0849	77	C17H11+
215.1282	8	C11H19O4+
216.0916	77	C17H12+
217.0999	58	C17H13+
218.0705	18	C16H10O+
218.1083	61	C17H14+
219.0796	66	C16H11O+
219.1156	63	C17H15+
220.087	70	C16H12O+
220.121	19	C17H16+
221.0947	178	C16H13O+
221.1324	27	C17H17+
222.1024	264	C16H14O+
223.0745	18	C15H11O2+
223.1106	300	C16H15O+
224.0824	25	C15H12O2+
224.115	83	C15[13]CH15O+
225.0902	57	C15H13O2+
225.1256	83	C16H17O+
226.0785	28	C15H11FO+
226.0981	38	C15H14O2+
226.1306	20	C15[13]CH17O+
227.085	45	C18H11+
227.1024	26	C15H15O2+
227.1434	15	C16H19O+
228.093	45	C18H12+
229.1004	78	C18H13+
230.1068	74	C18H14+
231.0789	91	C17H11O+
231.1164	92	C18H15+
232.0864	93	C17H12O+
232.1211	20	C17[13]CH15+
233.0956	149	C17H13O+
233.1311	74	C18H17+
234.1025	132	C17H14O+
234.1354	15	C17[13]CH17+
235.0743	18	C16H11O2+
235.1105	295	C17H15O+
236.0825	16	C16H12O2+
236.117	110	C17H16O+
237.0707	8	C16H10FO+
237.0903	52	C16H13O2+
237.1255	148	C17H17O+
238.0762	9	C19H10+
238.0981	63	C16H14O2+
238.1311	35	C16[13]CH17O+
239.088	30	C13H13F2O2+
239.1058	55	C16H15O2+
239.1424	28	C17H19O+
240.0928	40	C19H12+
240.1118	30	C16H16O2+
241.1014	43	C19H13+
241.1204	61	C16H17O2+
242.1101	22	C16H15FO+
243.0797	19	C18H11O+
243.1164	106	C19H15+
244.086	27	C18H12O+
244.1211	19	C18[13]CH15+
245.0959	101	C18H13O+
245.1316	44	C19H17+
246.1026	196	C18H14O+
247.0742	25	C17H11O2+
247.1096	135	C18H15O+
248.0845	20	C14H13FO3+
248.1182	130	C18H16O+
249.0904	40	C17H13O2+
249.1256	152	C18H17O+
250.0768	9	C20H10+
250.0984	39	C17H14O2+
250.1334	54	C18H18O+
251.1059	89	C17H15O2+
251.1421	94	C18H19O+
252.0922	9	C20H12+
252.1117	27	C16[13]CH15O2+
252.1469	21	C17[13]CH19O+
253.1012	41	C17H14FO+
253.121	72	C17H17O2+
254.1089	13	C16[13]CH14FO+
254.1235	16	C16[13]CH17O2+
255.116	38	C20H15+
256.0867	10	C19H12O+
256.1204	14	C19[13]CH15+
257.0948	41	C19H13O+
257.1302	12	C20H17+
258.1032	119	C19H14O+
259.0867	6	C19H12F+
259.1101	124	C19H15O+
260.0852	13	C12H14F2O4+
260.1178	74	C19H16O+
261.0905	73	C18H13O2+
261.1267	228	C19H17O+
262.0977	71	C18H14O2+
262.131	57	C18[13]CH17O+
263.1053	64	C18H15O2+
263.1424	68	C19H19O+
264.1131	81	C18H16O2+
264.1453	21	C18[13]CH19O+
265.1024	15	C18H14FO+
265.1203	40	C18H17O2+
266.1079	22	C21H14+
266.1236	16	C18H18O2+
267.1175	18	C18H16FO+
267.1402	12	C12H21F2O4+
268.1252	9	C21H16+
269.1049	7	C13H17O6+
269.1335	7	C18H18FO+
270.1011	7	C20H14O+
271.1091	27	C20H15O+
271.1456	8	C21H19+
272.1175	15	C20H16O+
273.0918	8	C16H14FO3+
273.1264	99	C17H18FO2+
274.0988	47	C19H14O2+
274.1322	26	C16[13]CH18FO2+
275.1052	55	C19H15O2+
275.1375	9	C20H19O+
276.1143	66	C19H16O2+
277.0967	13	C22H13+
277.1222	90	C19H17O2+
278.0915	6	C19H12F2+
278.1083	17	C22H14+
278.1259	43	C19H18O2+
279.1025	9	C15H16FO4+
279.1368	68	C19H19O2+
279.1719	6	C20H23O+
280.1086	8	C18H16O3+
280.1362	17	C18[13]CH19O2+
281.1315	29	C22H17+
282.106	7	C15H16F2O3+
282.1345	7	C21[13]CH17+
283.111	21	C21H15O+
284.1126	7	C20[13]CH15O+
285.0899	9	C20H13O2+
285.1245	6	C21H17O+
286.0997	27	C17H15FO3+
286.1301	6	C21H18O+
287.1007	11	C20H15O2+
288.1138	14	C20H16O2+
289.121	33	C17H18FO3+
290.0908	6	C20H12F2+
290.1279	7	C16[13]CH18FO3+
291.1116	9	C23H15+
291.1363	55	C20H19O2+
292.1073	18	C20H14F2+
292.1406	13	C19[13]CH19O2+
293.113	10	C20H15F2+
293.1349	9	C17H19F2O2+
294.1266	12	C16H19FO4+
295.1342	10	C16H20FO4+
296.1353	9	C20H18F2+
297.1276	9	C22H17O+
298.1335	9	C22H18O+
299.1438	9	C19H20FO2+
301.1219	19	C21H17O2+
301.1508	6	C12H23F2O6+
302.1286	11	C21H18O2+
304.1109	12	C17H17FO4+
307.1284	9	C21H17F2+
309.1302	7	C17H19F2O3+
309.1492	6	C17H22FO4+
319.1322	12	C21H19O3+
320.1383	6	C22H18F2+
329.155	12	C20H22FO3+
337.1481	6	C15H23F2O6+
