Mass spectrum: Exemestane; LC-ESI-QTOF; MS2; CE: 50 eV; R=35000; [M+H]+
Name: Exemestane
Name: (8R,9S,10R,13S,14S)-10,13-dimethyl-6-methylidene-7,8,9,11,12,14,15,16-octahydrocyclopenta[a]phenanthrene-3,17-dione
Formula: C20H24O2
Exact mass: 296.1776300
SMILES: C[C@]12CC[C@H]3[C@H]([C@@H]1CCC2=O)CC(=C)C4=CC(=O)C=C[C@]34C
InChI: InChI=1S/C20H24O2/c1-12-10-14-15-4-5-18(22)20(15,3)9-7-16(14)19(2)8-6-13(21)11-17(12)19/h6,8,11,14-16H,1,4-5,7,9-10H2,2-3H3/t14-,15-,16-,19+,20-/m0/s1
Instrument: Bruker maXis Impact
Instrument type: LC-ESI-QTOF
Ms type: MS2
Ion mode: POSITIVE
Ionization: ESI
Fragmentation mode: CID
Collision energy: 50 eV
Resolution: 35000
Column name: Acclaim RSLC C18 2.2um, 2.1x100mm, Thermo
Retention time: 9.194 min
Base peak: 297.1865
Precursor m/z: 297.1849
Precursor type: [M+H]+
m/z	relative intensity	assigned
115.0542	531	C9H7+
116.0596	126	C9H8+
117.0697	287	C9H9+
119.0858	303	C9H11+
121.0649	999	C8H9O+
121.1008	209	C9H13+
127.0539	121	C10H7+
128.062	556	C10H8+
129.0694	470	C10H9+
130.0773	206	C10H10+
131.0489	347	C9H7O+
131.0851	298	C10H11+
132.057	399	C9H8O+
133.0636	128	C9H9O+
133.1008	98	C10H13+
134.0693	43	C9H10O+
135.0423	28	C8H7O2+
135.0806	199	C9H11O+
139.0538	40	C11H7+
141.0694	365	C11H9+
142.0775	305	C11H10+
143.0857	174	C11H11+
144.0582	145	C10H8O+
144.0931	74	C11H12+
145.0647	470	C10H9O+
145.102	265	C11H13+
146.0719	176	C10H10O+
147.0804	354	C10H11O+
147.1169	53	C11H15+
149.0963	180	C10H13O+
152.0621	186	C12H8+
153.0689	155	C12H9+
154.0769	82	C12H10+
155.0847	125	C12H11+
156.0939	56	C12H12+
157.0647	175	C11H9O+
157.1015	100	C12H13+
158.0724	384	C11H10O+
159.0802	258	C11H11O+
160.0847	54	C11H12O+
161.0966	109	C11H13O+
163.1129	45	C11H15O+
165.0696	243	C13H9+
166.0764	92	C13H10+
167.0852	112	C13H11+
168.0574	35	C12H8O+
168.0921	32	C13H12+
169.0656	121	C12H9O+
169.1005	42	C13H13+
170.0733	120	C12H10O+
171.0803	162	C12H11O+
172.0873	130	C12H12O+
173.0945	135	C12H13O+
178.0778	140	C14H10+
179.0862	139	C14H11+
180.0916	59	C14H12+
181.0648	162	C13H9O+
181.1016	45	C14H13+
182.0717	100	C13H10O+
183.0799	98	C13H11O+
183.1143	35	C14H15+
184.0887	75	C13H12O+
185.0969	220	C13H13O+
186.1024	29	C13H14O+
189.0702	40	C15H9+
190.0775	63	C15H10+
191.0864	63	C15H11+
192.094	39	C15H12+
193.1017	96	C15H13+
194.0723	88	C14H10O+
194.1074	31	C15H14+
195.0807	160	C14H11O+
196.0872	101	C14H12O+
197.0956	87	C14H13O+
198.1067	41	C14H14O+
199.1139	30	C14H15O+
202.0785	29	C16H10+
203.0852	85	C16H11+
204.0935	62	C16H12+
205.1034	65	C16H13+
206.1089	34	C16H14+
207.0807	110	C15H11O+
208.0895	123	C15H12O+
209.096	117	C15H13O+
210.1014	43	C15H14O+
211.113	60	C15H15O+
220.0884	43	C16H12O+
221.0955	107	C16H13O+
222.1044	84	C16H14O+
223.1122	55	C16H15O+
235.1137	57	C17H15O+
249.1271	34	C18H17O+
