Mass spectrum: Bisphenol A (2,3-dihydroxypropyl) glycidyl ether; LC-ESI-QTOF; MS2; CE: 20 eV; R=35000; [M+NH4]+
Name: Bisphenol A (2,3-dihydroxypropyl) glycidyl ether
Name: 3-(4-(1-(4-(2,3-Epoxypropoxy)phenyl)-1-methylethyl)phenoxy)propane-1,2-diol
Name: 3-[4-[2-[4-(oxiran-2-ylmethoxy)phenyl]propan-2-yl]phenoxy]propane-1,2-diol
Formula: C21H26O5
Exact mass: 358.178
SMILES: CC(C)(C1=CC=C(C=C1)OCC2CO2)C3=CC=C(C=C3)OCC(CO)O
InChI: InChI=1S/C21H26O5/c1-21(2,15-3-7-18(8-4-15)24-12-17(23)11-22)16-5-9-19(10-6-16)25-13-20-14-26-20/h3-10,17,20,22-23H,11-14H2,1-2H3
Instrument: Bruker maXis Impact
Instrument type: LC-ESI-QTOF
Ms type: MS2
Ion mode: POSITIVE
Ionization: ESI
Fragmentation mode: CID
Collision energy: 20 eV
Resolution: 35000
Column name: Acclaim RSLC C18 2.2um, 2.1x100mm, Thermo
Retention time: 9.517 min
Base peak: 376.212
Precursor m/z: 376.2129
Precursor type: [M+NH4]+
m/z	relative intensity	assigned
135.0793	215	C9H11O+
161.0947	131	C11H13O+
173.0954	54	C12H13O+
191.1058	985	C12H15O2+
193.1108	8	C11H15NO2+
209.1165	999	C12H17O3+
210.1198	135	C12H18O3+
211.1219	11	C11H17NO3+
232.0743	5	C13H12O4+
250.0855	11	C16H12NO2+
329.1742	6	C20H25O4+
341.1774	6	C21H25O4+
376.211	17	C21H30NO5+
