Mass spectrum: 2-(Methylthio)benzothiazole; LC-ESI-QTOF; MS2; CE: RAMP 17.4-26.0 eV; R=35000; [M+H]+
Name: 2-(Methylthio)benzothiazole
Name: 2-methylsulfanyl-1,3-benzothiazole
Formula: C8H7NS2
Exact mass: 181.0019912
SMILES: CSc1nc2ccccc2s1
InChI: InChI=1S/C8H7NS2/c1-10-8-9-6-4-2-3-5-7(6)11-8/h2-5H,1H3
Instrument: Bruker maXis Impact
Instrument type: LC-ESI-QTOF
Ms type: MS2
Ion mode: POSITIVE
Ionization: ESI
Fragmentation mode: CID
Collision energy: RAMP 17.4-26.0 eV
Resolution: 35000
Column name: Acclaim RSLC C18 2.2um, 2.1x100mm, Thermo
Retention time: 9.812 min
Base peak: 60.0545
Precursor m/z: 182.0093
Precursor type: [M+H]+
m/z	relative intensity	assigned
135.0119	20	C7H5NS+
149.0285	16	C8H7NS+
166.9846	694	C7H5NS2+
167.9867	46	C6[13]CH5NS2+
168.9806	50	C7H5NS[34]S+
182.0087	999	C8H8NS2+
183.0109	72	C7[13]CH8NS2+
184.0036	60	C8H8NS[34]S+
