Mass spectrum: Robenidine; LC-ESI-QTOF; MS2; CE: 20 eV; R=35000; [M+H]+
Name: Robenidine
Name: 1,2-bis[(E)-(4-chlorophenyl)methylideneamino]guanidine
Formula: C15H13Cl2N5
Exact mass: 333.0548008
SMILES: C1=CC(=CC=C1/C=N/NC(=N)N/N=C/C2=CC=C(C=C2)Cl)Cl
InChI: InChI=1S/C15H13Cl2N5/c16-13-5-1-11(2-6-13)9-19-21-15(18)22-20-10-12-3-7-14(17)8-4-12/h1-10H,(H3,18,21,22)/b19-9+,20-10+
Instrument: Bruker maXis Impact
Instrument type: LC-ESI-QTOF
Ms type: MS2
Ion mode: POSITIVE
Ionization: ESI
Fragmentation mode: CID
Collision energy: 20 eV
Resolution: 35000
Column name: Acclaim RSLC C18 2.2um, 2.1x100mm, Thermo
Retention time: 11.9 min
Base peak: 279.1585
Precursor m/z: 334.0621
Precursor type: [M+H]+
m/z	relative intensity	assigned
125.0153	123	C7H6Cl+
138.01	225	C7H5ClN+
139.0142	31	C8HN3+
140.0071	48	C7H5[37]ClN+
140.0258	221	C7H7ClN+
142.0224	37	C7H7[37]ClN+
153.0218	35	C7H6ClN2+
155.0363	541	C7H8ClN2+
157.0334	114	C7H8[37]ClN2+
178.0159	332	C8H5ClN3+
179.0216	51	C9HN5+
180.0127	57	C8H5[37]ClN3+
180.032	215	C8H7ClN3+
182.0305	46	C8H7[37]ClN3+
195.043	159	C8H8ClN4+
196.0511	86	C8H9ClN4+
263.0256	32	C14H11Cl2N+
265.0239	27	C14H6ClN4+
317.037	94	C15H11Cl2N4+
318.0337	22	C14H10Cl2N5+
334.0621	999	C15H14Cl2N5+
335.0657	140	C14[13]CH14Cl2N5+
336.0594	525	C15H14Cl[37]ClN5+
337.0631	51	C14[13]CH14Cl[37]ClN5+
