Mass spectrum: Fipronil; LC-ESI-QTOF; MS2; CE: 20 eV; R=35000; [M-H]-
Name: Fipronil
Name: 5-amino-1-[2,6-dichloro-4-(trifluoromethyl)phenyl]-4-(trifluoromethylsulfinyl)pyrazole-3-carbonitrile
Formula: C12H4Cl2F6N4OS
Exact mass: 435.9387064
SMILES: NC1=C(C(=NN1C1=C(Cl)C=C(C=C1Cl)C(F)(F)F)C#N)S(=O)C(F)(F)F
InChI: InChI=1S/C12H4Cl2F6N4OS/c13-5-1-4(11(15,16)17)2-6(14)8(5)24-10(22)9(7(3-21)23-24)26(25)12(18,19)20/h1-2H,22H2
Instrument: Bruker maXis Impact
Instrument type: LC-ESI-QTOF
Ms type: MS2
Ion mode: NEGATIVE
Ionization: ESI
Fragmentation mode: CID
Collision energy: 20 eV
Resolution: 35000
Column name: Acclaim RSLC C18 2.2um, 2.1x100mm, Thermo
Retention time: 10.474 min
Base peak: 434.9313
Precursor m/z: 434.9314
Precursor type: [M-H]-
m/z	relative intensity	assigned
170.0101	9	C7HF3N2-
217.9857	10	C8H2ClF3N2-
243.9885	10	C9H2ClF3N3-
249.9585	126	C8H2ClF3N2S-
250.9605	7	C7[13]CH2ClF3N2S-
251.9548	25	C8H2[37]ClF3N2S-
277.9529	60	C9H2ClF3N2OS-
278.9565	5	C8[13]CH2ClF3N2OS-
279.9498	13	C9H2[37]ClF3N2OS-
280.9555	9	C11H3Cl2F4-
281.9912	11	C11H2ClF3N4-
287.9614	5	C10H2ClF3N3S-
317.969	177	C11H3Cl2F3N4-
318.9711	15	C10[13]CH3Cl2F3N4-
319.9656	86	C11H3Cl[37]ClF3N4-
329.9599	999	C11H2ClF3N4OS-
330.9615	73	C10[13]CH2ClF3N4OS-
331.9565	232	C11H2[37]ClF3N4OS-
332.9591	19	C9H2ClF6N3S-
364.9254	6	C11H3Cl2F6NS-
365.9354	41	C11H3Cl2F3N4OS-
366.9348	5	C10[13]CH3Cl2F3N4OS-
367.9326	25	C11H3Cl[37]ClF3N4OS-
398.9538	6	C12H2ClF6N4OS-
