Mass spectrum: N-Phenyl-1-naphthylamine; LC-ESI-QTOF; MS2; CE: Ramp 18.7-28.1 eV; R=35000; [M+H]+
Name: N-Phenyl-1-naphthylamine
Name: N-phenylnaphthalen-1-amine
Formula: C16H13N
Exact mass: 219.10479942
SMILES: N(C1=CC=CC=C1)C1=CC=CC2=C1C=CC=C2
InChI: InChI=1S/C16H13N/c1-2-9-14(10-3-1)17-16-12-6-8-13-7-4-5-11-15(13)16/h1-12,17H
Instrument: Bruker maXis Impact
Instrument type: LC-ESI-QTOF
Ms type: MS2
Ion mode: POSITIVE
Ionization: ESI
Fragmentation mode: CID
Collision energy: Ramp 18.7-28.1 eV
Resolution: 35000
Column name: Acclaim RSLC C18 2.2um, 2.1x100mm, Thermo
Retention time: 11.630 min
Base peak: 102.1285
Precursor m/z: 220.1121
Precursor type: [M+H]+
m/z	relative intensity	assigned
92.049	12	C6H6N+
115.0533	43	C9H7+
116.0602	7	C9H8+
128.0611	57	C10H8+
142.0637	49	C10H8N+
143.072	606	C10H9N+
144.0751	67	C9[13]CH9N+
149.0227	15	C11H3N+
178.0765	5	C14H10+
193.1012	6	C15H13+
202.0765	9	C16H10+
203.085	27	C16H11+
204.0828	13	C15H10N+
205.0883	16	C15H11N+
217.0868	8	C16H11N+
218.0955	75	C16H12N+
219.1032	169	C16H13N+
220.1116	999	C16H14N+
221.1147	130	C15[13]CH14N+
222.1172	12	C14[13]C2H14N+
