Mass spectrum: Tri-n-butyl acetyl citrate; GC-APCI-QTOF; MS2; CE: 20 eV; R=35000; [M+H]+
Name: Tri-n-butyl acetyl citrate
Formula: C20H34O8
Exact mass: 402.2254
SMILES: CCCCOC(=O)CC(CC(=O)OCCCC)(C(=O)OCCCC)OC(=O)C
InChI: InChI=1S/C20H34O8/c1-5-8-11-25-17(22)14-20(28-16(4)21,19(24)27-13-10-7-3)15-18(23)26-12-9-6-2/h5-15H2,1-4H3
Instrument: Bruker 450 GC coupled to maXis Impact
Instrument type: GC-APCI-QTOF
Ms type: MS2
Ion mode: POSITIVE
Ionization: APCI
Fragmentation mode: CID
Collision energy: 20 eV
Resolution: 35000
Column name: Rxi-5Sil MS column, 30m, 0.25mm i.d., 0.25Âµm film thickness, Restek
Retention time: 21.178 min
Base peak: 403.2319
Precursor m/z: 403.2326
Precursor type: [M+H]+
m/z	relative intensity	assigned
61.0291	5	C2H5O2+
129.0178	344	C5H5O4+
139.0042	95	C6H3O4+
140.0098	5	C6H4O4+
157.0154	472	C6H5O5+
158.0184	38	C6H6O5+
159.0209	7	C13H3+
175.0272	21	C6H7O6+
185.0826	999	C9H13O4+
186.0861	146	C9H14O4+
203.096	15	C9H15O5+
213.0763	114	C10H13O5+
214.0802	6	C17H10+
217.0354	180	C8H9O7+
218.0363	18	C15H6O2+
231.0883	9	C10H15O6+
241.1445	6	C13H21O4+
259.153	258	C13H23O5+
260.1552	57	C20H20+
269.1377	8	C14H21O5+
273.0956	36	C12H17O7+
274.1106	5	C12H18O7+
329.1657	6	C16H25O7+
361.2168	5	C18H33O7+
361.2307	8	C18H33O7+
