Mass spectrum: 2,6-Dichlorobenzamide; LC-ESI-QTOF; MS2; CE: 30 eV; R=35000; [M+H]+
Name: 2,6-Dichlorobenzamide
Name: 2,6-dichlorobenzamide
Formula: C7H5Cl2NO
Exact mass: 188.9748191
SMILES: NC(=O)C1=C(Cl)C=CC=C1Cl
InChI: InChI=1S/C7H5Cl2NO/c8-4-2-1-3-5(9)6(4)7(10)11/h1-3H,(H2,10,11)
Instrument: Bruker maXis Impact
Instrument type: LC-ESI-QTOF
Ms type: MS2
Ion mode: POSITIVE
Ionization: ESI
Fragmentation mode: CID
Collision energy: 30 eV
Resolution: 35000
Column name: Acclaim RSLC C18 2.2um, 2.1x100mm, Thermo
Retention time: 4.4 min
Base peak: 189.9814
Precursor m/z: 189.9821
Precursor type: [M+H]+
m/z	relative intensity	assigned
108.9845	8	C6H2Cl+
126.9945	23	C6H4ClO+
128.0013	18	C6H5ClO+
135.9943	17	C7H3ClN+
144.9602	81	C6H3Cl2+
146.957	53	Cl2H3N3O2+
154.0044	19	C7H5ClNO+
155.0002	12	C6H4ClN2O+
162.9704	64	C6H5Cl2O+
164	75	C7H3ClN3+
165.997	16	C4H6Cl2N3+
172.9541	999	C7H3Cl2O+
173.9575	116	C6[13]CH3Cl2O+
174.9516	636	C7H3[37]Cl[35]ClO+
175.9548	30	C5H2Cl2N2O+
189.9814	28	C7H6Cl2NO+
