Mass spectrum: Michler`s ketone; LC-ESI-QTOF; MS2; CE: Ramp 20.5-30.7 eV; R=35000; [M+H]+
Name: Michler`s ketone
Name: bis[4-(dimethylamino)phenyl]methanone
Formula: C17H20N2O
Exact mass: 268.15756326
SMILES: CN(C)C1=CC=C(C=C1)C(=O)C1=CC=C(C=C1)N(C)C
InChI: InChI=1S/C17H20N2O/c1-18(2)15-9-5-13(6-10-15)17(20)14-7-11-16(12-8-14)19(3)4/h5-12H,1-4H3
Instrument: Bruker maXis Impact
Instrument type: LC-ESI-QTOF
Ms type: MS2
Ion mode: POSITIVE
Ionization: ESI
Fragmentation mode: CID
Collision energy: Ramp 20.5-30.7 eV
Resolution: 35000
Column name: Acclaim RSLC C18 2.2um, 2.1x100mm, Thermo
Retention time: 10.525 min
Base peak: 269.1654
Precursor m/z: 269.1648
Precursor type: [M+H]+
m/z	relative intensity	assigned
79.0537	11	C6H7+
91.0542	5	C7H7+
93.0697	5	C7H9+
105.0576	8	C7H7N+
120.0809	45	C8H10N+
148.0765	999	C9H10NO+
149.0786	126	C8[13]CH10NO+
269.1658	373	C17H21N2O+
270.1686	85	C16[13]CH21N2O+
271.172	6	C15[13]C2H21N2O+
