Mass spectrum: Methiocarb-sulfoxide phenol; LC-ESI-QTOF; MS2; CE: Ramp 17.5-26.2 eV; R=35000; [M+H]+
Name: Methiocarb-sulfoxide phenol
Name: Phenol, 3,5-dimethyl-4-(methylsulfinyl)-
Name: 3,5-dimethyl-4-methylsulfinylphenol
Formula: C9H12O2S
Exact mass: 184.0558006
SMILES: CC1=CC(O)=CC(C)=C1S(C)=O
InChI: InChI=1S/C9H12O2S/c1-6-4-8(10)5-7(2)9(6)12(3)11/h4-5,10H,1-3H3
Instrument: Bruker maXis Impact
Instrument type: LC-ESI-QTOF
Ms type: MS2
Ion mode: POSITIVE
Ionization: ESI
Fragmentation mode: CID
Collision energy: Ramp 17.5-26.2 eV
Resolution: 35000
Column name: Acclaim RSLC C18 2.2um, 2.1x100mm, Thermo
Retention time: 4.636 min
Base peak: 185.0621
Precursor m/z: 185.0631
Precursor type: [M+H]+
m/z	relative intensity	assigned
44.9795	6	CHS+
77.0383	5	C6H5+
79.0535	11	C6H7+
91.0546	19	C7H7+
93.0695	7	C7H9+
95.0496	17	C6H7O+
103.0547	10	C8H7+
107.0499	51	C7H7O+
108.0547	5	C6[13]CH7O+
109.0656	23	C7H9O+
121.0644	88	C8H9O+
122.0723	721	C8H10O+
123.0757	47	C7[13]CH10O+
136.0875	11	C9H12O+
137.0591	6	C8H9O2+
138.0661	15	C8H10O2+
151.0205	9	C8H7OS+
152.0279	66	C8H8OS+
153.036	461	C8H9OS+
154.039	38	C7[13]CH9OS+
155.0314	13	C8H9O[34]S+
168.0592	648	C9H12OS+
169.0624	52	C8[13]CH12OS+
170.0385	999	C8H10O2S+
171.0414	77	C7[13]CH10O2S+
172.0351	29	C8H10O2[34]S+
185.062	742	C9H13O2S+
186.0651	73	C8[13]CH13O2S+
187.0589	24	C9H13O2[34]S+
