Mass spectrum: Midazolam; LC-ESI-QTOF; MS2; CE: 50 eV; R=35000; [M+H]+
Name: Midazolam
Name: 8-chloro-6-(2-fluorophenyl)-1-methyl-4H-imidazo[1,5-a][1,4]benzodiazepine
Formula: C18H13ClFN3
Exact mass: 325.0782033
SMILES: CC1=NC=C2N1C3=C(C=C(C=C3)Cl)C(=NC2)C4=CC=CC=C4F
InChI: InChI=1S/C18H13ClFN3/c1-11-21-9-13-10-22-18(14-4-2-3-5-16(14)20)15-8-12(19)6-7-17(15)23(11)13/h2-9H,10H2,1H3
Instrument: Bruker maXis Impact
Instrument type: LC-ESI-QTOF
Ms type: MS2
Ion mode: POSITIVE
Ionization: ESI
Fragmentation mode: CID
Collision energy: 50 eV
Resolution: 35000
Column name: Acclaim RSLC C18 2.2um, 2.1x100mm, Thermo
Retention time: 8.624 min
Base peak: 326.0891
Precursor m/z: 326.0855
Precursor type: [M+H]+
m/z	relative intensity	assigned
115.0548	6	C9H7+
120.037	5	C8H5F+
121.0454	15	C8H6F+
122.0409	8	C7H5FN+
127.042	14	C9H5N+
128.0501	72	C9H6N+
129.0582	139	C3H11ClFN2+
133.0509	5	C5H10ClN2+
137.0159	33	C8H6Cl+
138.0115	6	C7H5ClN+
140.0501	5	C10H6N+
142.066	7	C4H12ClFN2+
143.0736	7	C10H9N+
146.0406	21	C9H5FN+
146.0608	7	C6H11ClN2+
147.0487	42	C9H6FN+
148.0561	25	C9H7FN+
152.027	28	C8H7ClN+
153.0452	14	C10H5N2+
153.0572	5	C11H7N+
154.0241	6	C11H3F+
154.0416	7	C8H9ClN+
154.0526	7	C10H6N2+
155.0612	27	C4H11ClFN3+
162.0115	46	C9H5ClN+
162.0724	7	C10H9FN+
163.007	34	C8H4ClN2+
163.0181	36	C9H6ClN+
163.0553	5	C7H11ClFN+
164.0065	20	C12HF+
164.0269	35	C9H7ClN+
164.0627	13	C13H8+
165.0047	9	C11FN+
165.0153	10	C12H2F+
165.0697	5	C8H8FN3+
166.0243	11	C12H3F+
168.0688	8	C11H8N2+
169.0768	23	C11H9N2+
170.0849	51	C5H14ClFN3+
171.0572	5	C7H10ClN3+
171.0888	5	C11H11N2+
173.0522	20	C9H11ClF+
174.0597	11	C9H12ClF+
175.0568	6	C8H11ClFN+
176.0629	6	C8H12ClFN+
177.0224	16	C9H6ClN2+
177.0585	29	C7H11ClFN2+
178.0431	11	C10H9ClN+
178.063	5	C13H8N+
180.022	11	C12H3FN+
180.0574	7	C10H11ClN+
181.0187	5	C11H2FN2+
181.0463	11	C13H6F+
182.054	93	C13H7F+
183.0617	220	C13H8F+
184.0682	59	C13H9F+
185.0723	7	C8H12ClN3+
186.0491	16	C9H10ClFN+
187.067	7	C11H8FN2+
189.023	159	C10H6ClN2+
189.0833	11	C11H10FN2+
190.0268	17	C10H7ClN2+
190.0662	6	C8H12ClFN2+
191.0196	42	C13H2FN+
195.0612	10	C14H8F+
195.08	7	C12H9N3+
196.0699	112	C14H9F+
196.0883	13	C12H10N3+
197.0725	16	C9H12ClN3+
198.0726	6	C13H9FN+
200.0652	7	C10H12ClFN+
201.0589	16	C9H11ClFN2+
202.0665	41	C9H12ClFN2+
203.0386	10	C11H8ClN2+
203.0742	66	C9H13ClFN2+
204.0471	5	C11H9ClN2+
204.0804	22	C15H10N+
205.0539	13	C11H10ClN2+
207.0525	6	C10H10ClN3+
208.0575	175	C14H7FN+
209.0654	745	C14H8FN+
210.0694	87	C14H9FN+
211.0775	13	C14H10FN+
214.0782	9	C17H10+
215.0869	28	C17H11+
216.0871	5	C10H14ClFN2+
217.023	58	C13H7ClF+
218.0271	8	C14H3FN2+
219.0203	14	C13H2FN3+
220.077	18	C12H13ClN2+
221.065	19	C15H8FN+
222.0734	473	C15H9FN+
223.081	797	C15H10FN+
224.0277	17	C14H7ClN+
224.0852	96	C15H11FN+
225.09	8	C15H12FN+
226.0249	5	C17H3F+
226.068	13	C11H12ClFN2+
227.0751	15	C11H13ClFN2+
228.0707	8	C15H13Cl+
229.0779	72	C15H14Cl+
230.0495	14	C12H9ClN3+
230.084	30	C16H10N2+
231.0396	6	C14H9ClF+
231.0572	22	C12H10ClN3+
231.0926	15	C16H11N2+
232.0351	6	C13H8ClFN+
232.0568	14	C16H7FN+
233.0649	27	C16H8FN+
234.0718	10	C16H9FN+
235.0802	11	C16H10FN+
236.0842	15	C16H11FN+
237.0962	27	C16H12FN+
238.0433	17	C15H9ClN+
238.0686	9	C12H12ClFN2+
240.0404	6	C18H5F+
240.082	5	C12H14ClFN2+
241.0235	10	C15H7ClF+
242.0196	11	C14H6ClFN+
242.0852	11	C11H14ClFN3+
243.0243	11	C14H7ClFN+
243.0933	42	C17H11N2+
244.0341	65	C14H8ClFN+
244.0978	8	C17H12N2+
245.0408	37	C14H9ClFN+
246.0311	19	C13H8ClFN2+
247.0389	8	C13H9ClFN2+
247.0694	8	C15H13ClF+
248.0762	9	C15H14ClF+
249.0847	999	C16H10FN2+
250.0907	300	C16H11FN2+
251.0964	41	C16H12FN2+
253.078	12	C17H14Cl+
254.0829	5	C18H10N2+
255.0711	82	C15H12ClN2+
256.0345	11	C15H8ClFN+
256.0754	13	C15H13ClN2+
257.0383	45	C16H4FN3+
258.05	157	C15H10ClFN+
259.0512	26	C16H6FN3+
260.0475	40	C14H10ClFN2+
261.0489	5	C18H10Cl+
261.084	8	C17H10FN2+
262.0913	8	C17H11FN2+
263.1	33	C17H12FN2+
264.1058	12	C17H13FN2+
265.0549	47	C16H10ClN2+
266.0588	8	C16H11ClN2+
267.0516	12	C15H10ClN3+
268.0347	13	C16H8ClFN+
269.0408	7	C16H9ClFN+
270.0356	6	C15H8ClFN2+
270.1045	42	C18H12N3+
271.0439	8	C15H9ClFN2+
271.1111	19	C18H13N3+
272.0532	7	C15H10ClFN2+
272.1182	5	C18H14N3+
273.0605	10	C15H11ClFN2+
273.0843	27	C18H10FN2+
274.0913	15	C18H11FN2+
275.0916	6	C18H12FN2+
276.0951	40	C17H11FN3+
277.0983	6	C17H12FN3+
283.0458	40	C16H9ClFN2+
284.0532	64	C16H10ClFN2+
285.0608	67	C16H11ClFN2+
286.0521	17	C15H10ClFN3+
287.058	19	C15H11ClFN3+
288.095	11	C18H11FN3+
289.0337	6	C17H8ClN3+
289.0551	121	C18H10ClN2+
289.1036	9	C18H12FN3+
290.0576	25	C18H11ClN2+
290.1109	73	C18H13FN3+
291.0526	34	C17H10ClN3+
291.1194	511	C18H14FN3+
292.0616	6	C17H11ClN3+
297.061	10	C17H11ClFN2+
299.0758	7	C17H13ClFN2+
306.0828	5	C18H13ClN3+
307.0455	40	C18H9ClFN2+
308.0516	10	C18H10ClFN2+
309.061	53	C18H11ClFN2+
310.0623	14	C18H12ClFN2+
311.0615	26	C17H11ClFN3+
312.0641	5	C17H12ClFN3+
325.0798	26	C18H13ClFN3+
326.0872	13	C18H14ClFN3+
