Mass spectrum: Pindolol; LC-ESI-QTOF; MS2; CE: 30 eV; R=35000; [M+H]+
Name: Pindolol
Name: 1-(1H-indol-4-yloxy)-3-(propan-2-ylamino)propan-2-ol
Formula: C14H20N2O2
Exact mass: 248.1524779
SMILES: CC(C)NCC(O)COC1=CC=CC2=C1C=CN2
InChI: InChI=1S/C14H20N2O2/c1-10(2)16-8-11(17)9-18-14-5-3-4-13-12(14)6-7-15-13/h3-7,10-11,15-17H,8-9H2,1-2H3
Instrument: Bruker maXis Impact
Instrument type: LC-ESI-QTOF
Ms type: MS2
Ion mode: POSITIVE
Ionization: ESI
Fragmentation mode: CID
Collision energy: 30 eV
Resolution: 35000
Column name: Acclaim RSLC C18 2.2um, 2.1x100mm, Thermo
Retention time: 3.808 min
Base peak: 249.1598
Precursor m/z: 249.1598
Precursor type: [M+H]+
m/z	relative intensity	assigned
115.0533	26	C9H7+
116.049	38	C8H6N+
116.1063	270	C6H14NO+
117.0567	40	C8H7N+
117.0691	53	C9H9+
117.1097	18	C5[13]CH14NO+
118.0643	140	C8H8N+
119.0678	10	C7[13]CH8N+
127.0528	8	C10H7+
128.0617	6	C10H8+
129.0686	15	C10H9+
130.064	74	C9H8N+
131.0678	8	C8[13]CH8N+
132.0434	73	C8H6NO+
132.0793	41	C9H10N+
133.0505	43	C8H7NO+
134.059	713	C8H8NO+
135.0622	66	C7[13]CH8NO+
142.0645	10	C10H8N+
143.0714	63	C10H9N+
144.0799	999	C10H10N+
145.0636	35	C10H9O+
145.0828	107	C9[13]CH10N+
146.0588	596	C9H8NO+
147.062	53	C8[13]CH8NO+
154.0637	35	C11H8N+
155.0591	26	C10H7N2+
156.0097	35	C9H2NO2+
157.0504	18	C10H7NO+
160.0741	83	C10H10NO+
161.0772	8	C9[13]CH10NO+
167.059	5	C11H7N2+
170.059	18	C11H8NO+
171.0665	14	C11H9NO+
172.0746	828	C11H10NO+
173.0776	89	C10[13]CH10NO+
174.0848	5	C9[13]C2H10NO+
176.1061	7	C11H14NO+
184.0852	43	C13H12O+
185.0877	8	C12[13]CH12O+
207.1115	8	C11H15N2O2+
249.1587	66	C14H21N2O2+
250.1619	12	C13[13]CH21N2O2+
