Mass spectrum: Triclocarban; LC-ESI-QTOF; MS2; CE: 20 eV; R=35000; [M+H]+
Name: Triclocarban
Name: 1-(4-chlorophenyl)-3-(3,4-dichlorophenyl)urea
Formula: C13H9Cl3N2O
Exact mass: 313.9780459
SMILES: ClC1=CC=C(NC(=O)NC2=CC(Cl)=C(Cl)C=C2)C=C1
InChI: InChI=1S/C13H9Cl3N2O/c14-8-1-3-9(4-2-8)17-13(19)18-10-5-6-11(15)12(16)7-10/h1-7H,(H2,17,18,19)
Instrument: Bruker maXis Impact
Instrument type: LC-ESI-QTOF
Ms type: MS2
Ion mode: POSITIVE
Ionization: ESI
Fragmentation mode: CID
Collision energy: 20 eV
Resolution: 35000
Column name: Acclaim RSLC C18 2.2um, 2.1x100mm, Thermo
Retention time: 11.909 min
Base peak: 279.1588
Precursor m/z: 314.9853
Precursor type: [M+H]+
m/z	relative intensity	assigned
126.0097	56	C9H2O+
127.017	361	C6H6ClN+
128.025	724	C6H7ClN+
129.0142	87	C6H6[37]ClN+
129.0292	70	C5[13]CH7ClN+
130.022	194	C6H7[37]ClN+
154.0029	134	C7H5ClNO+
156.0009	30	C7H5[37]ClNO+
159.9698	29	C9HClO+
161.9858	999	C6H6Cl2N+
162.9892	67	C5[13]CH6Cl2N+
163.9827	519	C6H6Cl[37]ClN+
164.9851	25	C7H2ClN2O+
187.9656	89	C7H4Cl2NO+
189.9619	37	C7H4Cl[37]ClNO+
314.9845	964	C13H10Cl3N2O+
315.9888	188	C12[13]CH10Cl3N2O+
316.9823	842	C13H10Cl2[37]ClN2O+
