Mass spectrum: Amcinonide; LC-ESI-QTOF; MS2; CE: 40 eV; R=35000; [M+H]+
Name: Amcinonide
Name: [2-[(1S,2S,4R,8S,9S,11S,12R,13S)-12-fluoro-11-hydroxy-9,13-dimethyl-16-oxospiro[5,7-dioxapentacyclo[10.8.0.02,9.04,8.013,18]icosa-14,17-diene-6,1`-cyclopentane]-8-yl]-2-oxoethyl] acetate
Formula: C28H35FO7
Exact mass: 502.2366817
SMILES: [H][C@@]12C[C@H]3OC4(CCCC4)O[C@@]3(C(=O)COC(C)=O)[C@@]1(C)C[C@H](O)[C@@]1(F)[C@@]2([H])CCC2=CC(=O)C=C[C@]12C
InChI: InChI=1S/C28H35FO7/c1-16(30)34-15-22(33)28-23(35-26(36-28)9-4-5-10-26)13-20-19-7-6-17-12-18(31)8-11-24(17,2)27(19,29)21(32)14-25(20,28)3/h8,11-12,19-21,23,32H,4-7,9-10,13-15H2,1-3H3/t19-,20-,21-,23+,24-,25-,27-,28+/m0/s1
Instrument: Bruker maXis Impact
Instrument type: LC-ESI-QTOF
Ms type: MS2
Ion mode: POSITIVE
Ionization: ESI
Fragmentation mode: CID
Collision energy: 40 eV
Resolution: 35000
Column name: Acclaim RSLC C18 2.2um, 2.1x100mm, Thermo
Retention time: 11.183 min
Base peak: 503.2433
Precursor m/z: 503.244
Precursor type: [M+H]+
m/z	relative intensity	assigned
117.0697	27	C9H9+
119.0846	29	C9H11+
121.0637	262	C8H9O+
122.0676	23	C7[13]CH9O+
123.0439	40	C7H7O2+
123.0803	83	C8H11O+
125.0584	45	C7H9O2+
128.0614	41	C10H8+
129.0669	21	C10H9+
131.0846	59	C10H11+
133.0637	160	C9H9O+
133.0997	24	C10H13+
135.0794	264	C9H11O+
136.0836	35	C8[13]CH11O+
137.0585	91	C8H9O2+
139.0752	27	C8H11O2+
141.0692	36	C11H9+
143.0837	98	C11H11+
144.054	42	C10H8O+
144.0885	21	C10[13]CH11+
145.0641	151	C10H9O+
145.0996	38	C11H13+
146.0705	32	C10H10O+
147.0795	785	C10H11O+
148.0823	101	C9[13]CH11O+
149.0586	60	C9H9O2+
149.0951	23	C10H13O+
151.0742	221	C9H11O2+
153.0527	44	C8H9O3+
153.0684	21	C12H9+
153.0896	73	C9H13O2+
155.068	30	C8H11O3+
155.084	86	C12H11+
157.064	43	C11H9O+
157.1001	46	C12H13+
158.0725	48	C11H10O+
159.079	502	C11H11O+
160.0828	81	C10[13]CH11O+
161.0588	195	C10H9O2+
161.0948	315	C11H13O+
162.0627	27	C9[13]CH9O2+
162.0992	40	C10[13]CH13O+
163.074	84	C10H11O2+
165.0686	42	C13H9+
167.0682	78	C9H11O3+
169.0649	99	C12H9O+
169.098	41	C13H13+
171.0792	825	C12H11O+
172.083	119	C11[13]CH11O+
173.0948	464	C12H13O+
174.0985	51	C11[13]CH13O+
175.0723	39	C11H11O2+
175.0909	21	C12H12F+
175.1111	31	C12H15O+
177.0896	31	C11H13O2+
179.0693	77	C10H11O3+
179.0845	73	C14H11+
180.0904	25	C14H12+
181.0994	43	C14H13+
182.0721	21	C13H10O+
183.0787	115	C13H11O+
184.0838	23	C13H12O+
185.0952	334	C13H13O+
186.1007	62	C12[13]CH13O+
187.0745	390	C12H11O2+
187.1106	116	C13H15O+
188.0779	36	C11[13]CH11O2+
188.115	39	C13H16O+
189.074	27	C8H13O5+
191.0857	28	C15H11+
192.0927	37	C15H12+
193.0983	43	C15H13+
194.1057	24	C15H14+
195.0792	78	C14H11O+
195.1143	69	C15H15+
196.0869	65	C14H12O+
197.079	21	C10H13O4+
197.095	237	C14H13O+
197.1304	147	C15H17+
198.1015	59	C14H14O+
198.136	24	C14[13]CH17+
199.0743	44	C13H11O2+
199.1103	168	C11H16FO2+
200.0803	24	C13H12O2+
200.1178	24	C10[13]CH16FO2+
201.0911	38	C13H13O2+
203.1033	29	C13H15O2+
205.0655	36	C12H10FO2+
205.099	71	C16H13+
206.1079	31	C16H14+
207.1157	109	C16H15+
208.0862	69	C15H12O+
208.121	20	C15[13]CH15+
209.0953	258	C15H13O+
209.1301	36	C16H17+
210.1018	132	C15H14O+
211.0142	78	C16H3O+
211.1103	294	C15H15O+
212.1178	76	C14[13]CH15O+
213.0906	102	C14H13O2+
213.1265	999	C15H17O+
214.1298	219	C14[13]CH17O+
215.1408	64	C15H19O+
217.0998	30	C17H13+
218.1099	37	C14H15FO+
219.0791	32	C16H11O+
219.1169	43	C17H15+
220.0877	27	C16H12O+
220.121	27	C17H16+
221.0951	148	C16H13O+
221.1307	54	C17H17+
222.1044	81	C16H14O+
223.1105	669	C16H15O+
224.1159	233	C16H16O+
225.0908	55	C15H13O2+
225.1259	785	C16H17O+
226.0948	22	C15H14O2+
226.1307	135	C15[13]CH17O+
227.1057	69	C15H15O2+
227.1419	131	C16H19O+
228.1451	26	C15[13]CH19O+
229.097	25	C18H13+
229.1083	20	C8H18FO6+
230.1067	34	C18H14+
231.1083	29	C11H16FO4+
232.1217	43	C18H16+
233.0964	81	C17H13O+
233.1311	69	C18H17+
234.1016	56	C17H14O+
234.1378	24	C18H18+
235.1105	329	C17H15O+
235.1454	88	C18H19+
236.1145	112	C17H16O+
237.0893	74	C16H13O2+
237.1269	425	C17H17O+
238.0969	27	C16H14O2+
238.1309	105	C16[13]CH17O+
239.1057	59	C16H15O2+
239.1428	290	C14H20FO2+
240.1113	23	C16H16O2+
240.1479	42	C13[13]CH20FO2+
241.1206	164	C13H18FO3+
241.158	42	C17H21O+
242.1044	36	C19H14+
242.1273	31	C12[13]CH18FO3+
243.1165	50	C19H15+
243.1332	23	C16H19O2+
244.1217	22	C18[13]CH15+
245.0952	61	C18H13O+
245.1314	63	C19H17+
246.1031	90	C18H14O+
247.1094	99	C18H15O+
247.1474	94	C19H19+
248.1192	118	C18H16O+
248.1501	22	C18[13]CH19+
249.0937	20	C14H14FO3+
249.1258	220	C18H17O+
250.0981	25	C17H14O2+
250.1329	140	C18H18O+
251.1064	99	C17H15O2+
251.1419	384	C18H19O+
252.1098	31	C16[13]CH15O2+
252.146	83	C17[13]CH19O+
253.1214	250	C17H17O2+
253.1567	212	C18H21O+
254.1236	65	C16[13]CH17O2+
254.1602	70	C18H22O+
255.137	42	C17H19O2+
257.1303	100	C20H17+
258.1349	43	C20H18+
259.1103	84	C19H15O+
260.1193	200	C19H16O+
261.0889	24	C18H13O2+
261.1269	376	C19H17O+
262.1001	29	C15H15FO3+
262.1318	140	C19H18O+
263.1053	44	C18H15O2+
263.142	614	C19H19O+
264.1144	64	C18H16O2+
264.1464	112	C18[13]CH19O+
265.119	87	C18H17O2+
265.1577	437	C19H21O+
266.1276	34	C17[13]CH17O2+
266.1623	115	C18[13]CH21O+
267.1383	166	C18H19O2+
268.1406	46	C17[13]CH19O2+
269.1155	31	C17H17O3+
269.1518	61	C18H21O2+
270.1034	31	C20H14O+
270.1557	32	C18H22O2+
273.1261	36	C20H17O+
274.1331	31	C20H18O+
275.1425	658	C20H19O+
276.1465	187	C19[13]CH19O+
277.1213	169	C19H17O2+
277.1519	51	C20H21O+
278.1276	140	C19H18O2+
279.1012	25	C18H15O3+
279.1374	395	C19H19O2+
280.14	109	C18[13]CH19O2+
281.1537	242	C19H21O2+
282.1576	47	C18[13]CH21O2+
283.1547	31	C12H24FO6+
283.1672	37	C19H23O2+
284.1535	22	C22H20+
285.1259	95	C21H17O+
286.1303	21	C20[13]CH17O+
287.1337	23	C14H20FO5+
288.1129	59	C20H16O2+
289.1163	21	C19[13]CH16O2+
291.138	105	C20H19O2+
292.1408	38	C20H20O2+
293.1525	763	C20H21O2+
294.1557	198	C19[13]CH21O2+
295.1338	78	C16H20FO4+
295.1569	57	C13H24FO6+
296.137	30	C19H20O3+
296.1524	25	C23H20+
297.1507	74	C16H22FO4+
303.138	375	C21H19O2+
304.1401	101	C20[13]CH19O2+
305.1473	27	C21H21O2+
309.1472	66	C20H21O3+
311.1658	256	C20H23O3+
312.1653	48	C19[13]CH23O3+
313.1584	29	C16H25O6+
313.169	21	C13H26FO7+
317.1612	27	C15H25O7+
319.1322	24	C21H19O3+
321.1484	541	C21H21O3+
322.1516	136	C20[13]CH21O3+
323.1495	36	C14H24FO7+
329.1702	22	C24H22F+
335.1623	22	C22H23O3+
337.1395	20	C25H18F+
339.1592	257	C21H23O4+
340.1623	76	C20[13]CH23O4+
341.158	38	C17H25O7+
353.1731	22	C22H25O4+
357.1686	36	C21H25O5+
363.153	37	C27H20F+
381.1691	76	C23H25O5+
465.2366	21	C25H34FO7+
