Mass spectrum: Ropinirole; LC-ESI-QTOF; MS2; CE: 20 eV; R=35000; [M+H]+
Name: Ropinirole
Name: 4-[2-(dipropylamino)ethyl]-1,3-dihydroindol-2-one
Formula: C16H24N2O
Exact mass: 260.1888634
SMILES: CCCN(CCC)CCC1=C2CC(=O)NC2=CC=C1
InChI: InChI=1S/C16H24N2O/c1-3-9-18(10-4-2)11-8-13-6-5-7-15-14(13)12-16(19)17-15/h5-7H,3-4,8-12H2,1-2H3,(H,17,19)
Instrument: Bruker maXis Impact
Instrument type: LC-ESI-QTOF
Ms type: MS2
Ion mode: POSITIVE
Ionization: ESI
Fragmentation mode: CID
Collision energy: 20 eV
Resolution: 35000
Column name: Acclaim RSLC C18 2.2um, 2.1x100mm, Thermo
Retention time: 3.912 min
Base peak: 261.1972
Precursor m/z: 261.1961
Precursor type: [M+H]+
m/z	relative intensity	assigned
114.1275	149	C7H16N+
115.1304	14	C6[13]CH16N+
132.0798	27	C9H10N+
160.0748	276	C10H10NO+
161.0777	21	C9[13]CH10NO+
261.1963	999	C16H25N2O+
262.199	183	C15[13]CH25N2O+
263.2018	13	C14[13]C2H25N2O+
