Mass spectrum: Triamcinolone; LC-ESI-QTOF; MS2; CE: Ramp 23.5-35.3 eV; R=35000; [M+H]+
Name: Triamcinolone
Name: (8S,9R,10S,11S,13S,14S,16R,17S)-9-fluoro-11,16,17-trihydroxy-17-(2-hydroxyacetyl)-10,13-dimethyl-6,7,8,11,12,14,15,16-octahydrocyclopenta[a]phenanthren-3-one
Formula: C21H27FO6
Exact mass: 394.1791668
SMILES: C[C@]12C[C@H](O)[C@@]3(F)[C@@H](CCC4=CC(=O)C=C[C@]34C)[C@@H]1C[C@@H](O)[C@]2(O)C(=O)CO
InChI: InChI=1S/C21H27FO6/c1-18-6-5-12(24)7-11(18)3-4-13-14-8-15(25)21(28,17(27)10-23)19(14,2)9-16(26)20(13,18)22/h5-7,13-16,23,25-26,28H,3-4,8-10H2,1-2H3/t13-,14-,15+,16-,18-,19-,20-,21-/m0/s1
Instrument: Bruker maXis Impact
Instrument type: LC-ESI-QTOF
Ms type: MS2
Ion mode: POSITIVE
Ionization: ESI
Fragmentation mode: CID
Collision energy: Ramp 23.5-35.3 eV
Resolution: 35000
Column name: Acclaim RSLC C18 2.2um, 2.1x100mm, Thermo
Retention time: 5.381 min
Base peak: 102.1287
Precursor m/z: 395.1864
Precursor type: [M+H]+
m/z	relative intensity	assigned
87.0429	72	C4H7O2+
121.0647	205	C8H9O+
133.0654	89	C6H10FO2+
135.0803	139	C9H11O+
137.0602	109	C8H9O2+
139.0736	76	C8H11O2+
143.086	127	C11H11+
147.0795	969	C10H11O+
148.0819	122	C9[13]CH11O+
151.0748	87	C9H11O2+
155.0684	67	C8H11O3+
157.1003	100	C12H13+
159.0789	277	C11H11O+
161.0956	143	C11H13O+
163.0739	72	C10H11O2+
169.0633	59	C12H9O+
171.0796	427	C12H11O+
171.118	58	C10H16FO+
172.0838	95	C11[13]CH11O+
173.0944	203	C12H13O+
175.0748	66	C11H11O2+
177.0897	57	C11H13O2+
179.083	71	C14H11+
183.0796	65	C13H11O+
185.0946	320	C13H13O+
187.0734	426	C12H11O2+
187.1136	81	C10H16FO2+
195.0813	83	C11H12FO2+
197.0948	201	C14H13O+
197.1308	67	C15H17+
198.1003	61	C13[13]CH13O+
199.1096	220	C14H15O+
201.0898	82	C13H13O2+
205.1005	77	C16H13+
207.1141	78	C16H15+
209.0957	250	C15H13O+
210.1066	144	C12H15FO2+
211.1121	289	C15H15O+
212.1162	76	C15H16O+
213.0909	66	C14H13O2+
213.1264	350	C15H17O+
214.1293	64	C14[13]CH17O+
215.1076	87	C11H16FO3+
221.0958	181	C16H13O+
221.1319	80	C17H17+
222.102	95	C16H14O+
223.1113	531	C16H15O+
224.1178	178	C16H16O+
225.1265	999	C16H17O+
226.1301	251	C15[13]CH17O+
227.1439	93	C13H20FO2+
233.131	64	C18H17+
235.1121	249	C17H15O+
235.1464	79	C18H19+
237.1267	398	C17H17O+
238.1318	76	C16[13]CH17O+
239.1032	99	C16H15O2+
239.142	288	C17H19O+
240.1479	72	C16[13]CH19O+
241.1226	115	C16H17O2+
242.1211	58	C9H19FO6+
243.1151	76	C19H15+
245.14	57	C9H22FO6+
246.1023	92	C18H14O+
247.1117	119	C18H15O+
249.1268	239	C18H17O+
251.106	69	C17H15O2+
251.1421	238	C18H19O+
252.1474	57	C17[13]CH19O+
253.1235	205	C14H18FO3+
253.1569	101	C18H21O+
254.1221	68	C10H19FO6+
259.1102	76	C19H15O+
260.1215	142	C16H17FO2+
261.1265	310	C19H17O+
262.1343	132	C19H18O+
263.1421	496	C16H20FO2+
264.1484	99	C15[13]CH20FO2+
265.1217	90	C18H17O2+
265.1585	186	C19H21O+
267.138	85	C18H19O2+
271.1355	81	C14H20FO4+
273.1288	122	C17H18FO2+
275.1435	438	C20H19O+
276.1139	75	C19H16O2+
276.1468	104	C19[13]CH19O+
277.1234	135	C16H18FO3+
278.1257	61	C19H18O2+
279.1377	256	C19H19O2+
280.1435	140	C19H20O2+
281.1532	218	C19H21O2+
283.1704	107	C16H24FO3+
285.1233	61	C21H17O+
291.1359	378	C17H20FO3+
292.1439	70	C16[13]CH20FO3+
293.1534	476	C20H21O2+
294.1552	132	C19[13]CH21O2+
295.1347	80	C16H20FO4+
297.1477	114	C19H21O3+
303.1382	195	C21H19O2+
309.1462	198	C20H21O3+
310.155	88	C20H22O3+
311.1645	236	C20H23O3+
312.1712	117	C20H24O3+
321.1492	377	C18H22FO4+
322.1494	181	C21H22O3+
327.1579	93	C20H23O4+
339.1586	424	C18H24FO5+
340.1646	112	C17[13]CH24FO5+
357.1692	609	C21H25O5+
358.1741	169	C20[13]CH25O5+
375.1803	99	C21H27O6+
