Mass spectrum: Chlorothalonil-4-hydroxy; LC-ESI-QTOF; MS2; CE: 10 eV; R=35000; [M-H]-
Name: Chlorothalonil-4-hydroxy
Name: 4-Hydroxy-2,5,6-trichloroisophthalonitrile
Name: 2,4,5-trichloro-6-hydroxybenzene-1,3-dicarbonitrile
Formula: C8HCl3N2O
Exact mass: 245.9154457
SMILES: OC1=C(Cl)C(Cl)=C(C#N)C(Cl)=C1C#N
InChI: InChI=1S/C8HCl3N2O/c9-5-3(1-12)6(10)7(11)8(14)4(5)2-13/h14H
Instrument: Bruker maXis Impact
Instrument type: LC-ESI-QTOF
Ms type: MS2
Ion mode: NEGATIVE
Ionization: ESI
Fragmentation mode: CID
Collision energy: 10 eV
Resolution: 35000
Column name: Acclaim RSLC C18 2.2um, 2.1x100mm, Thermo
Retention time: 7.501 min
Base peak: 244.9083
Precursor m/z: 244.9082
Precursor type: [M-H]-
m/z	relative intensity	assigned
244.9082	999	C8Cl3N2O-
245.9103	115	C7[13]CCl3N2O-
246.9053	944	C8Cl2[37]ClN2O-
