Mass spectrum: Ethyl 4-(dimethylamino)benzoate; LC-ESI-QTOF; MS2; CE: 20 eV; R=35000; [M+H]+
Name: Ethyl 4-(dimethylamino)benzoate
Name: Ethyl 4-dimethylaminobenzoate
Formula: C11H15NO2
Exact mass: 193.1102787
SMILES: CCOC(=O)C1=CC=C(C=C1)N(C)C
InChI: InChI=1S/C11H15NO2/c1-4-14-11(13)9-5-7-10(8-6-9)12(2)3/h5-8H,4H2,1-3H3
Instrument: Bruker maXis Impact
Instrument type: LC-ESI-QTOF
Ms type: MS2
Ion mode: POSITIVE
Ionization: ESI
Fragmentation mode: CID
Collision energy: 20 eV
Resolution: 35000
Column name: Acclaim RSLC C18 2.2um, 2.1x100mm, Thermo
Retention time: 9.848 min
Base peak: 232.133
Precursor m/z: 194.1176
Precursor type: [M+H]+
m/z	relative intensity	assigned
120.0803	18	C8H10N+
121.0875	22	C8H11N+
122.0955	43	C8H12N+
134.0589	267	C8H8NO+
134.0957	14	C9H12N+
135.0638	32	C7[13]CH8NO+
148.0742	107	C9H10NO+
149.077	12	C8[13]CH10NO+
150.0538	74	C8H8NO2+
151.062	819	C8H9NO2+
152.0651	80	C7[13]CH9NO2+
164.069	51	C9H10NO2+
165.0773	16	C9H11NO2+
166.0848	999	C9H12NO2+
167.088	101	C8[13]CH12NO2+
178.0857	23	C10H12NO2+
179.0934	996	C10H13NO2+
180.0967	117	C9[13]CH13NO2+
194.1168	691	C11H16NO2+
195.1201	92	C10[13]CH16NO2+
196.122	7	C9[13]C2H16NO2+
