Mass spectrum: Diisobutyl phthalate; GC-APCI-QTOF; MS2; CE: 20 eV; R=35000; [M+H]+
Name: Diisobutyl phthalate
Formula: C16H22O4
Exact mass: 278.1518
SMILES: CC(C)COC(=O)C1=CC=CC=C1C(=O)OCC(C)C
InChI: InChI=1S/C16H22O4/c1-11(2)9-19-15(17)13-7-5-6-8-14(13)16(18)20-10-12(3)4/h5-8,11-12H,9-10H2,1-4H3
Instrument: Bruker 450 GC coupled to maXis Impact
Instrument type: GC-APCI-QTOF
Ms type: MS2
Ion mode: POSITIVE
Ionization: APCI
Fragmentation mode: CID
Collision energy: 20 eV
Resolution: 35000
Column name: Rxi-5Sil MS column, 30m, 0.25mm i.d., 0.25Âµm film thickness, Restek
Retention time: 16.335 min
Base peak: 149.0215
Precursor m/z: 279.1591
Precursor type: [M+H]+
m/z	relative intensity	assigned
57.0705	16	C4H9+
149.0214	999	C8H5O3+
167.033	23	C8H7O4+
