Mass spectrum: Butylparaben; LC-ESI-QTOF; MS2; CE: 20 eV; R=35000; [M-H]-
Name: Butylparaben
Name: butyl 4-hydroxybenzoate
Formula: C11H14O3
Exact mass: 194.0942943
SMILES: CCCCOC(=O)C1=CC=C(O)C=C1
InChI: InChI=1S/C11H14O3/c1-2-3-8-14-11(13)9-4-6-10(12)7-5-9/h4-7,12H,2-3,8H2,1H3
Instrument: Bruker maXis Impact
Instrument type: LC-ESI-QTOF
Ms type: MS2
Ion mode: NEGATIVE
Ionization: ESI
Fragmentation mode: CID
Collision energy: 20 eV
Resolution: 35000
Column name: Acclaim RSLC C18 2.2um, 2.1x100mm, Thermo
Retention time: 9.403 min
Base peak: 193.0865
Precursor m/z: 193.087
Precursor type: [M-H]-
m/z	relative intensity	assigned
136.0165	914	C7H4O3-
137.0242	862	C7H5O3-
138.0274	105	C6[13]CH5O3-
193.0858	999	C11H13O3-
194.0879	187	C10[13]CH13O3-
