Mass spectrum: Irgarol; LC-ESI-QTOF; MS2; CE: 50 eV; R=35000; [M+H]+
Name: Irgarol
Name: Cybutryne
Name: 2-N-tert-butyl-4-N-cyclopropyl-6-methylsulfanyl-1,3,5-triazine-2,4-diamine
Formula: C11H19N5S
Exact mass: 253.1361166
SMILES: CSC1=NC(NC(C)(C)C)=NC(NC2CC2)=N1
InChI: InChI=1S/C11H19N5S/c1-11(2,3)16-9-13-8(12-7-5-6-7)14-10(15-9)17-4/h7H,5-6H2,1-4H3,(H2,12,13,14,15,16)
Instrument: Bruker maXis Impact
Instrument type: LC-ESI-QTOF
Ms type: MS2
Ion mode: POSITIVE
Ionization: ESI
Fragmentation mode: CID
Collision energy: 50 eV
Resolution: 35000
Column name: Acclaim RSLC C18 2.2um, 2.1x100mm, Thermo
Retention time: 10.3 min
Base peak: 254.1437
Precursor m/z: 254.1434
Precursor type: [M+H]+
m/z	relative intensity	assigned
114.0363	43	C5H8NS+
116.0269	537	C3H6N3S+
117.0296	65	C6H3N3+
123.0655	136	C5H7N4+
125.0815	492	C5H9N4+
126.0113	128	C4H4N3S+
126.0833	59	CH12N5S+
127.0065	143	C3H3N4S+
136.0605	115	C5H6N5+
140.0257	48	C8H2N3+
141.0222	77	C4H5N4S+
150.0759	593	C6H8N5+
151.0069	94	C5H3N4S+
151.0804	45	C4H13N3OS+
152.0926	50	C6H10N5+
153.0204	75	C8HN4+
155.0179	41	C5H5N3OS+
156.033	59	C4H6N5S+
156.0582	999	C6H10N3S+
158.0485	311	C4H8N5S+
168.0335	500	C5H6N5S+
169.0165	63	C3H3N7S+
170.0485	370	C5H8N5S+
171.0681	56	C9H7N4+
182.0484	205	C6H8N5S+
183.0556	49	C9H5N5+
198.0807	590	C7H12N5S+
199.0807	78	C6[13]CH12N5S+
