Mass spectrum: Trifloxystrobin CGA 321113; LC-ESI-QTOF; MS2; CE: 30 eV; R=35000; [M+H]+
Name: Trifloxystrobin CGA 321113
Name: ISZQNKFXNXQTTF-NACSPRHISA-N
Name: (2E)-2-methoxyimino-2-[2-[[(E)-1-[3-(trifluoromethyl)phenyl]ethylideneamino]oxymethyl]phenyl]acetic acid
Formula: C19H17F3N2O4
Exact mass: 394.1140417
SMILES: CO\N=C(\C(O)=O)C1=CC=CC=C1CO\N=C(/C)C1=CC=CC(=C1)C(F)(F)F
InChI: InChI=1S/C19H17F3N2O4/c1-12(13-7-5-8-15(10-13)19(20,21)22)23-28-11-14-6-3-4-9-16(14)17(18(25)26)24-27-2/h3-10H,11H2,1-2H3,(H,25,26)/b23-12+,24-17+
Instrument: Bruker maXis Impact
Instrument type: LC-ESI-QTOF
Ms type: MS2
Ion mode: POSITIVE
Ionization: ESI
Fragmentation mode: CID
Collision energy: 30 eV
Resolution: 35000
Column name: Acclaim RSLC C18 2.2um, 2.1x100mm, Thermo
Retention time: 10.383 min
Base peak: 330.0802
Precursor m/z: 395.1213
Precursor type: [M+H]+
m/z	relative intensity	assigned
116.0488	70	C8H6N+
117.0561	23	C2H10FO4+
118.0634	7	C2H11FO4+
132.0418	5	C5H8O4+
134.0584	16	C5H10O4+
145.0245	154	C7H4F3+
146.0276	13	C6[13]CH4F3+
148.0743	157	C9H10NO+
149.078	19	C8[13]CH10NO+
173.0306	65	C4H6F3NO3+
186.0513	999	C6H9F3O3+
187.0545	108	C5[13]CH9F3O3+
192.0637	14	C8H9F3NO+
204.0621	27	C12H8F2N+
