Mass spectrum: Candesartan; LC-ESI-QTOF; MS2; CE: 10 eV; R=35000; [M+H]+
Name: Candesartan
Name: 2-ethoxy-3-[[4-[2-(2H-tetrazol-5-yl)phenyl]phenyl]methyl]benzimidazole-4-carboxylic acid
Formula: C24H20N6O3
Exact mass: 440.1596885
SMILES: CCOC1=NC2=CC=CC(C(O)=O)=C2N1CC1=CC=C(C=C1)C1=CC=CC=C1C1=NNN=N1
InChI: InChI=1S/C24H20N6O3/c1-2-33-24-25-20-9-5-8-19(23(31)32)21(20)30(24)14-15-10-12-16(13-11-15)17-6-3-4-7-18(17)22-26-28-29-27-22/h3-13H,2,14H2,1H3,(H,31,32)(H,26,27,28,29)
Instrument: Bruker maXis Impact
Instrument type: LC-ESI-QTOF
Ms type: MS2
Ion mode: POSITIVE
Ionization: ESI
Fragmentation mode: CID
Collision energy: 10 eV
Resolution: 35000
Column name: Acclaim RSLC C18 2.2um, 2.1x100mm, Thermo
Retention time: 7.7 min
Base peak: 251.1541
Precursor m/z: 441.167
Precursor type: [M+H]+
m/z	relative intensity	assigned
207.0913	28	C14H11N2+
235.0954	31	C11H13N3O3+
235.1239	35	C16H15N2+
236.1283	15	C15[13]CH15N2+
263.1283	999	C16H15N4+
264.1324	203	C15[13]CH15N4+
265.1361	22	C14[13]C2H15N4+
413.1628	18	C24H21N4O3+
423.1569	441	C24H19N6O2+
424.1593	116	C23[13]CH19N6O2+
425.1604	28	C22[13]C2H19N6O2+
441.1665	850	C24H21N6O3+
442.1707	255	C23[13]CH21N6O3+
443.1729	48	C22[13]C2H21N6O3+
