Mass spectrum: delta9-Tetrahydrocannabinol; LC-ESI-QTOF; MS2; CE: 50 eV; R=35000; [M+H]+
Name: delta9-Tetrahydrocannabinol
Name: 6,6,9-trimethyl-3-pentyl-6a,7,8,10a-tetrahydrobenzo[c]chromen-1-ol
Formula: C21H30O2
Exact mass: 314.2245802
SMILES: CCCCCC1=CC2=C(C3C=C(CCC3C(O2)(C)C)C)C(=C1)O
InChI: InChI=1S/C21H30O2/c1-5-6-7-8-15-12-18(22)20-16-11-14(2)9-10-17(16)21(3,4)23-19(20)13-15/h11-13,16-17,22H,5-10H2,1-4H3
Instrument: Bruker maXis Impact
Instrument type: LC-ESI-QTOF
Ms type: MS2
Ion mode: POSITIVE
Ionization: ESI
Fragmentation mode: CID
Collision energy: 50 eV
Resolution: 35000
Column name: Acclaim RSLC C18 2.2um, 2.1x100mm, Thermo
Retention time: 13.793 min
Base peak: 315.2353
Precursor m/z: 315.2319
Precursor type: [M+H]+
m/z	relative intensity	assigned
115.0557	53	C9H7+
119.0866	51	C9H11+
121.0659	75	C8H9O+
123.0446	999	C7H7O2+
124.0494	99	C7H8O2+
128.0642	64	C10H8+
129.069	66	C10H9+
131.085	97	C10H11+
133.1019	67	C10H13+
135.0456	49	C8H7O2+
135.0802	73	C9H11O+
135.1177	56	C10H15+
136.0522	85	C8H8O2+
137.0612	243	C8H9O2+
143.0888	48	C11H11+
145.1004	91	C11H13+
147.0453	86	C9H7O2+
149.0614	49	C9H9O2+
159.0822	63	C11H11O+
160.0547	82	C10H8O2+
161.0608	168	C10H9O2+
165.0922	49	C10H13O2+
173.0607	71	C11H9O2+
174.0687	169	C11H10O2+
175.0735	69	C11H11O2+
177.1271	71	C12H17O+
187.0779	142	C12H11O2+
188.0848	76	C12H12O2+
193.1236	533	C12H17O2+
194.1276	77	C12H18O2+
202.0986	52	C13H14O2+
217.1219	80	C14H17O2+
231.1399	107	C15H19O2+
259.1724	55	C17H23O2+
