Mass spectrum: Methiocarb-sulfoxide phenol; LC-ESI-QTOF; MS2; CE: 20 eV; R=35000; [M+H]+
Name: Methiocarb-sulfoxide phenol
Name: Phenol, 3,5-dimethyl-4-(methylsulfinyl)-
Name: 3,5-dimethyl-4-methylsulfinylphenol
Formula: C9H12O2S
Exact mass: 184.0558006
SMILES: CC1=CC(O)=CC(C)=C1S(C)=O
InChI: InChI=1S/C9H12O2S/c1-6-4-8(10)5-7(2)9(6)12(3)11/h4-5,10H,1-3H3
Instrument: Bruker maXis Impact
Instrument type: LC-ESI-QTOF
Ms type: MS2
Ion mode: POSITIVE
Ionization: ESI
Fragmentation mode: CID
Collision energy: 20 eV
Resolution: 35000
Column name: Acclaim RSLC C18 2.2um, 2.1x100mm, Thermo
Retention time: 4.639 min
Base peak: 185.0621
Precursor m/z: 185.0631
Precursor type: [M+H]+
m/z	relative intensity	assigned
121.0637	42	C8H9O+
122.0717	377	C8H10O+
123.0751	33	C7[13]CH10O+
136.0868	8	C9H12O+
137.0584	5	C8H9O2+
138.0662	13	C8H10O2+
152.0275	34	C8H8OS+
153.0355	213	C8H9OS+
154.0389	18	C7[13]CH9OS+
155.031	8	C8H9O[34]S+
168.0591	587	C9H12OS+
169.0621	50	C8[13]CH12OS+
170.0384	999	C8H10O2S+
171.0414	65	C7[13]CH10O2S+
172.0346	33	C8H10O2[34]S+
185.062	438	C9H13O2S+
186.0648	38	C8[13]CH13O2S+
187.0585	17	C9H13O2[34]S+
