Mass spectrum: Amitriptyline; LC-ESI-QTOF; MS2; CE: RAMP 20.8-31.2 eV; R=35000; [M+H]+
Name: Amitriptyline
Name: 3-(5,6-dihydrodibenzo[2,1-b:2`,1`-f][7]annulen-11-ylidene)-N,N-dimethylpropan-1-amine
Formula: C20H23N
Exact mass: 277.1830497
SMILES: CN(C)CCC=C1c2ccccc2CCc3c1cccc3
InChI: InChI=1S/C20H23N/c1-21(2)15-7-12-20-18-10-5-3-8-16(18)13-14-17-9-4-6-11-19(17)20/h3-6,8-12H,7,13-15H2,1-2H3
Instrument: Bruker maXis Impact
Instrument type: LC-ESI-QTOF
Ms type: MS2
Ion mode: POSITIVE
Ionization: ESI
Fragmentation mode: CID
Collision energy: RAMP 20.8-31.2 eV
Resolution: 35000
Column name: Acclaim RSLC C18 2.2um, 2.1x100mm, Thermo
Retention time: 8.446 min
Base peak: 278.1912
Precursor m/z: 278.1903
Precursor type: [M+H]+
m/z	relative intensity	assigned
58.0643	75	C3H8N+
70.064	12	C4H8N+
72.0798	7	C4H10N+
79.0538	11	C6H7+
84.0801	241	C5H10N+
85.0869	20	C5H11N+
91.0538	999	C7H7+
92.0572	58	C6[13]CH7+
103.0545	12	C8H7+
105.0706	594	C8H9+
106.0738	40	C7[13]CH9+
115.054	42	C9H7+
116.0575	6	C8[13]CH7+
117.0702	441	C9H9+
118.0732	34	C8[13]CH9+
128.0615	10	C10H8+
129.0697	74	C10H9+
130.0724	6	C9[13]CH9+
141.0696	23	C11H9+
153.069	8	C12H9+
155.0853	133	C12H11+
156.0884	16	C11[13]CH11+
178.0775	83	C14H10+
179.0851	103	C14H11+
180.0885	11	C13[13]CH11+
190.0777	9	C15H10+
191.0855	326	C15H11+
192.0905	73	C14[13]CH11+
193.1007	44	C15H13+
194.104	5	C14[13]CH13+
203.0855	60	C16H11+
204.0936	83	C16H12+
205.1012	176	C16H13+
206.1046	26	C15[13]CH13+
207.1165	20	C16H15+
216.0931	6	C17H12+
217.1014	14	C17H13+
218.1094	236	C17H14+
219.1128	36	C16[13]CH14+
231.1174	13	C18H15+
233.1328	631	C18H17+
234.1363	117	C18H18+
235.1392	8	C17[13]CH18+
278.1909	724	C20H24N+
279.1944	138	C19[13]CH24N+
280.1968	10	C18[13]C2H24N+
