Mass spectrum: 5-Chlorobenzotriazole; LC-ESI-QTOF; MS2; CE: Ramp 20-30 eV; R=35000; [M-H]-
Name: 5-Chlorobenzotriazole
Name: 5-chloro-2H-benzotriazole
Formula: C6H4ClN3
Exact mass: 153.0093748
SMILES: ClC1=CC2=NNN=C2C=C1
InChI: InChI=1S/C6H4ClN3/c7-4-1-2-5-6(3-4)9-10-8-5/h1-3H,(H,8,9,10)
Instrument: Bruker maXis Impact
Instrument type: LC-ESI-QTOF
Ms type: MS2
Ion mode: NEGATIVE
Ionization: ESI
Fragmentation mode: CID
Collision energy: Ramp 20-30 eV
Resolution: 35000
Column name: Acclaim RSLC C18 2.2um, 2.1x100mm, Thermo
Retention time: 6.379 min
Base peak: 59.013
Precursor m/z: 152.0021
Precursor type: [M-H]-
m/z	relative intensity	assigned
88.0181	260	C6H2N-
116.024	16	C6H2N3-
152.0027	999	C6H3ClN3-
153.0052	73	C5[13]CH3ClN3-
153.9996	192	C6H3[37]ClN3-
