Mass spectrum: Amitriptyline; LC-ESI-QTOF; MS2; CE: 10 eV; R=35000; [M+H]+
Name: Amitriptyline
Name: N,N-dimethyl-3-(2-tricyclo[9.4.0.03,8]pentadeca-1(15),3,5,7,11,13-hexaenylidene)propan-1-amine
Formula: C20H23N
Exact mass: 277.1830497
SMILES: CN(C)CCC=C1C2=CC=CC=C2CCC2=CC=CC=C12
InChI: InChI=1S/C20H23N/c1-21(2)15-7-12-20-18-10-5-3-8-16(18)13-14-17-9-4-6-11-19(17)20/h3-6,8-12H,7,13-15H2,1-2H3
Instrument: Bruker maXis Impact
Instrument type: LC-ESI-QTOF
Ms type: MS2
Ion mode: POSITIVE
Ionization: ESI
Fragmentation mode: CID
Collision energy: 10 eV
Resolution: 35000
Column name: Acclaim RSLC C18 2.2um, 2.1x100mm, Thermo
Retention time: 8.015 min
Base peak: 278.1902
Precursor m/z: 278.1903
Precursor type: [M+H]+
m/z	relative intensity	assigned
233.1316	48	C18H17+
234.1347	9	C17[13]CH17+
278.191	999	C20H24N+
279.1931	351	C19[13]CH24N+
280.196	27	C18[13]C2H24N+
