Mass spectrum: Baquiloprim; LC-ESI-QTOF; MS2; CE: 30 eV; R=35000; [M+H]+
Name: Baquiloprim
Name: 5-[[8-(dimethylamino)-7-methylquinolin-5-yl]methyl]pyrimidine-2,4-diamine
Formula: C17H20N6
Exact mass: 308.1749446
SMILES: CC1=CC(=C2C=CC=NC2=C1N(C)C)CC3=CN=C(N=C3N)N
InChI: InChI=1S/C17H20N6/c1-10-7-11(8-12-9-21-17(19)22-16(12)18)13-5-4-6-20-14(13)15(10)23(2)3/h4-7,9H,8H2,1-3H3,(H4,18,19,21,22)
Instrument: Bruker maXis Impact
Instrument type: LC-ESI-QTOF
Ms type: MS2
Ion mode: POSITIVE
Ionization: ESI
Fragmentation mode: CID
Collision energy: 30 eV
Resolution: 35000
Column name: Acclaim RSLC C18 2.2um, 2.1x100mm, Thermo
Retention time: 3.6 min
Base peak: 309.1719
Precursor m/z: 309.1822
Precursor type: [M+H]+
m/z	relative intensity	assigned
155.0702	7	C11H9N+
171.0818	278	C10H9N3+
172.0861	38	C9[13]CH9N3+
173.0947	5	C10H11N3+
184.0901	7	C11H10N3+
185.0981	15	C11H11N3+
187.1137	32	C11H13N3+
234.0935	5	C14H10N4+
248.0841	7	C13H8N6+
260.0961	5	C15H10N5+
262.0997	48	C14H10N6+
263.1043	8	C14H11N6+
264.1142	11	C14H12N6+
265.1245	17	C14H13N6+
266.1303	394	C14H14N6+
267.1337	39	C13[13]CH14N6+
276.1145	51	C15H12N6+
277.1226	268	C15H13N6+
278.1251	40	C14[13]CH13N6+
279.1298	195	C15H15N6+
280.1337	27	C14[13]CH15N6+
292.1363	25	C16H16N6+
294.1533	738	C16H18N6+
295.1572	76	C15[13]CH18N6+
296.1559	5	C16H18N5O+
307.1605	282	C17H19N6+
308.1645	44	C16[13]CH19N6+
309.1764	999	C17H21N6+
310.1802	118	C16[13]CH21N6+
