Mass spectrum: Robenidine; LC-ESI-QTOF; MS2; CE: Ramp 22.3-33.4 eV; R=35000; [M+H]+
Name: Robenidine
Name: 1,2-bis[(E)-(4-chlorophenyl)methylideneamino]guanidine
Formula: C15H13Cl2N5
Exact mass: 333.0548
SMILES: C1=CC(=CC=C1/C=N/NC(=N)N/N=C/C2=CC=C(C=C2)Cl)Cl
InChI: InChI=1S/C15H13Cl2N5/c16-13-5-1-11(2-6-13)9-19-21-15(18)22-20-10-12-3-7-14(17)8-4-12/h1-10H,(H3,18,21,22)/b19-9+,20-10+
Instrument: Bruker maXis Impact
Instrument type: LC-ESI-QTOF
Ms type: MS2
Ion mode: POSITIVE
Ionization: ESI
Fragmentation mode: CID
Collision energy: Ramp 22.3-33.4 eV
Resolution: 35000
Column name: Acclaim RSLC C18 2.2um, 2.1x100mm, Thermo
Retention time: 10.4 min
Base peak: 334.065
Precursor m/z: 334.0621
Precursor type: [M+H]+
m/z	relative intensity	assigned
51.0224	7	C4H3+
58.0395	20	CH4N3+
59.0472	85	CH5N3+
60.0548	55	CH6N3+
75.0216	5	C6H3+
85.0508	165	C2H5N4+
86.9989	7	C4H4Cl+
98.984	7	C4H2ClN+
111.0003	17	C6H4Cl+
112.9953	10	C3H7Cl2+
113.0159	6	C6H6Cl+
115.0306	9	C6H8Cl+
116.0372	5	C7H4N2+
117.0569	5	C8H7N+
118.0512	8	C7H6N2+
123.9944	38	C6H3ClN+
124.0067	5	C7H5Cl+
125.0154	412	C7H6Cl+
125.9921	9	C3H6Cl2N+
126.0194	20	C8H2N2+
127.0123	88	C7HN3+
129.0105	25	C3H9Cl2N+
131.0065	7	C6HN3O+
131.06	5	C8H7N2+
132.0689	14	C8H8N2+
138.0104	905	C7H5ClN+
139.0102	82	C5H9Cl2+
140.0077	241	C7N4+
140.0262	510	C7H7ClN+
141.0057	16	C5H4ClN3+
141.0088	14	C5H4ClN3+
141.0299	45	C8H3N3+
142.0235	107	C7H2N4+
142.0389	14	C8H4N3+
143.0263	6	C4H11Cl2N+
143.0478	97	C8H5N3+
144.0521	9	C8H6N3+
150.0109	11	C8H5ClN+
151.0059	138	C7H4ClN2+
152.0091	19	C8N4+
153.0022	31	C4H7Cl2N2+
153.0212	86	C7H6ClN2+
154.0253	9	C8H2N4+
155.0371	999	C7H8ClN2+
156.0219	5	C4H10Cl2N2+
156.0405	85	C8H4N4+
157.0346	251	C7H3N5+
158.0356	10	C5H7ClN4+
160.0485	6	C5H9ClN4+
163.0075	7	C7H9Cl2+
165.0218	9	C8H6ClN2+
169.017	26	C4H9Cl2N3+
170.0456	5	C8H4N5+
171.0132	5	C13HN+
171.0665	15	C9H7N4+
178.0169	796	C8H5ClN3+
179.0231	127	C9HN5+
180.0145	185	C7H5ClN4+
180.0328	379	C8H7ClN3+
181.0198	24	C5H9Cl2N3+
181.0355	26	C9H3N5+
182.0299	91	C5H10Cl2N3+
195.0437	300	C8H8ClN4+
196.0266	9	C5H10Cl2N4+
196.0516	153	C8H9ClN4+
197.0414	64	C7H8ClN5+
197.0569	19	C8H10ClN4+
198.0483	29	C5H12Cl2N4+
219.0456	5	C9H13Cl2N2+
262.0206	16	C14H10Cl2N+
263.0279	57	C14H11Cl2N+
264.0191	15	C13H10Cl2N2+
264.031	9	C13H10Cl2N2+
265.0252	41	C14H6ClN4+
277.0306	19	C14H11Cl2N2+
279.0294	14	C14H6ClN5+
282.064	5	C15H11ClN4+
288.0232	34	C15H10Cl2N2+
289.0288	8	C15H11Cl2N2+
290.0218	31	C15H5ClN5+
317.0377	96	C15H11Cl2N4+
318.0407	15	C15H12Cl2N4+
319.0361	62	C14H11Cl2N5+
320.0378	10	C14H12Cl2N5+
334.0642	595	C15H14Cl2N5+
335.0685	129	C14H13Cl2N6+
336.0621	430	C14H14Cl2N6+
337.0633	50	C13H13Cl2N7+
338.0594	5	C14H14Cl2N5O+
