Mass spectrum: Temazepam; LC-ESI-QTOF; MS2; CE: 40 eV; R=35000; [M+H]+
Name: Temazepam
Name: 7-chloro-3-hydroxy-1-methyl-5-phenyl-3H-1,4-benzodiazepin-2-one
Formula: C16H13ClN2O2
Exact mass: 300.0665553
SMILES: CN1C2=C(C=C(Cl)C=C2)C(=NC(O)C1=O)C1=CC=CC=C1
InChI: InChI=1S/C16H13ClN2O2/c1-19-13-8-7-11(17)9-12(13)14(18-15(20)16(19)21)10-5-3-2-4-6-10/h2-9,15,20H,1H3
Instrument: Bruker maXis Impact
Instrument type: LC-ESI-QTOF
Ms type: MS2
Ion mode: POSITIVE
Ionization: ESI
Fragmentation mode: CID
Collision energy: 40 eV
Resolution: 35000
Column name: Acclaim RSLC C18 2.2um, 2.1x100mm, Thermo
Retention time: 8.4 min
Base peak: 301.0735
Precursor m/z: 301.0738
Precursor type: [M+H]+
m/z	relative intensity	assigned
117.0561	14	C2H12ClNO2+
125.0141	31	C8HN2+
127.0123	10	C4H3N2O3+
138.0091	8	C10H2O+
150.0096	15	C11H2O+
152.025	17	C11H4O+
154.0222	7	C5H4N3O3+
165.0684	12	C7H14ClO2+
166.0751	6	C8H10N2O2+
177.0202	125	C12H3NO+
178.0236	13	C7H4N3O3+
178.0639	5	C7H13ClNO2+
179.0168	34	C9H6ClNO+
180.0202	23	C12H4O2+
180.0793	8	C13H10N+
181.0861	12	C13H11N+
182.0169	6	C15H2+
192.0799	9	C14H10N+
193.0875	243	C14H11N+
194.0912	31	C9H12N3O2+
205.0749	24	C8H14ClN2O2+
214.0419	8	C13H9ClN+
216.0559	10	C16H8O+
219.0907	10	C15H11N2+
221.0831	8	C15H11NO+
227.0483	5	C14H10ClN+
228.0567	63	C14H11ClN+
229.0587	10	C12H9N2O3+
230.0537	19	C14H11ClO+
239.0358	39	C14H8ClN2+
240.0404	8	C14H9ClN2+
241.0336	13	C14H8ClNO+
243.0674	10	C14H12ClN2+
255.0679	999	C15H12ClN2+
256.071	156	C15H13ClN2+
257.065	286	C15H12ClNO+
258.0684	27	C15H13ClNO+
259.0423	6	C14H10ClNO2+
