Mass spectrum: Sulfamethoxazole; LC-ESI-QTOF; MS2; CE: 50 eV; R=35000; [M+H]+
Name: Sulfamethoxazole
Name: 4-amino-N-(5-methyl-1,2-oxazol-3-yl)benzenesulfonamide
Formula: C10H11N3O3S
Exact mass: 253.0521122
SMILES: CC1=CC(NS(=O)(=O)C2=CC=C(N)C=C2)=NO1
InChI: InChI=1S/C10H11N3O3S/c1-7-6-10(12-16-7)13-17(14,15)9-4-2-8(11)3-5-9/h2-6H,11H2,1H3,(H,12,13)
Instrument: Bruker maXis Impact
Instrument type: LC-ESI-QTOF
Ms type: MS2
Ion mode: POSITIVE
Ionization: ESI
Fragmentation mode: CID
Collision energy: 50 eV
Resolution: 35000
Column name: Acclaim RSLC C18 2.2um, 2.1x100mm, Thermo
Retention time: 4.5 min
Base peak: 254.0592
Precursor m/z: 254.0594
Precursor type: [M+H]+
m/z	relative intensity	assigned
119.0605	216	C7H7N2+
129.043	187	C5H7NO3+
146.0703	999	C8H8N3+
147.0773	339	C5H11N2O3+
159.0781	216	C9H9N3+
