Mass spectrum: Atenolol; LC-ESI-QTOF; MS2; CE: 50 eV; R=35000; [M+H]+
Name: Atenolol
Name: 2-[4-[2-hydroxy-3-(propan-2-ylamino)propoxy]phenyl]acetamide
Formula: C14H22N2O3
Exact mass: 266.1630426
SMILES: CC(C)NCC(COc1ccc(cc1)CC(=O)N)O
InChI: InChI=1S/C14H22N2O3/c1-10(2)16-8-12(17)9-19-13-5-3-11(4-6-13)7-14(15)18/h3-6,10,12,16-17H,7-9H2,1-2H3,(H2,15,18)
Instrument: Bruker maXis Impact
Instrument type: LC-ESI-QTOF
Ms type: MS2
Ion mode: POSITIVE
Ionization: ESI
Fragmentation mode: CID
Collision energy: 50 eV
Resolution: 35000
Column name: Acclaim RSLC C18 2.2um, 2.1x100mm, Thermo
Retention time: 3.1 min
Base peak: 267.1702
Precursor m/z: 267.1703
Precursor type: [M+H]+
m/z	relative intensity	assigned
107.0489	6	C7H7O+
116.049	64	C8H6N+
116.0562	53	C4H8N2O2+
117.0328	42	C8H5O+
117.0559	28	C5H9O3+
117.0685	143	C9H9+
118.0596	5	C3H8N3O2+
118.0722	15	C4H10N2O2+
119.0486	59	C8H7O+
119.0848	6	C9H11+
120.0519	9	C3H8N2O3+
121.0634	60	C8H9O+
122.0596	16	C7H8NO+
122.0666	12	C3H10N2O3+
126.0456	6	C10H6+
127.0527	46	C10H7+
128.058	10	C5H8N2O2+
131.0483	59	C9H7O+
132.054	12	C4H8N2O3+
134.0599	124	C8H8NO+
135.0642	10	C3H9N3O3+
136.0749	13	C8H10NO+
143.0724	10	C10H9N+
144.0556	90	C10H8O+
144.0801	8	C10H10N+
145.0636	999	C10H9O+
146.0667	121	C9[13]CH9O+
147.0431	52	C9H7O2+
147.0694	10	C9H9NO+
148.0453	8	C4H8N2O4+
152.069	15	C8H10NO2+
155.0586	52	C7H9NO3+
156.0603	5	C11H8O+
162.0648	41	C10H10O2+
162.0895	6	C10H12NO+
163.0726	6	C10H11O2+
164.0698	8	C9H10NO2+
173.0567	6	C11H9O2+
178.0857	7	C10H12NO2+
