Mass spectrum: Flumethasone; LC-ESI-QTOF; MS2; CE: 20 eV; R=35000; [M+H]+
Name: Flumethasone
Name: (6S,8S,9R,10S,11S,13S,14S,16R,17R)-6,9-difluoro-11,17-dihydroxy-17-(2-hydroxyacetyl)-10,13,16-trimethyl-6,7,8,11,12,14,15,16-octahydrocyclopenta[a]phenanthren-3-one
Formula: C22H28F2O5
Exact mass: 410.1904804
SMILES: [H][C@@]12C[C@@H](C)[C@](O)(C(=O)CO)[C@@]1(C)C[C@H](O)[C@@]1(F)[C@@]2([H])C[C@H](F)C2=CC(=O)C=C[C@]12C
InChI: InChI=1S/C22H28F2O5/c1-11-6-13-14-8-16(23)15-7-12(26)4-5-19(15,2)21(14,24)17(27)9-20(13,3)22(11,29)18(28)10-25/h4-5,7,11,13-14,16-17,25,27,29H,6,8-10H2,1-3H3/t11-,13+,14+,16+,17+,19+,20+,21+,22+/m1/s1
Instrument: Bruker maXis Impact
Instrument type: LC-ESI-QTOF
Ms type: MS2
Ion mode: POSITIVE
Ionization: ESI
Fragmentation mode: CID
Collision energy: 20 eV
Resolution: 35000
Column name: Acclaim RSLC C18 2.2um, 2.1x100mm, Thermo
Retention time: 8.289 min
Base peak: 303.1953
Precursor m/z: 411.1978
Precursor type: [M+H]+
m/z	relative intensity	assigned
119.0856	15	C9H11+
121.064	147	C8H9O+
122.0685	17	C7[13]CH9O+
123.0794	11	C8H11O+
125.0588	33	C7H9O2+
133.0634	24	C9H9O+
135.0796	118	C9H11O+
136.0855	12	C8[13]CH11O+
137.06	14	C8H9O2+
137.0954	16	C9H13O+
139.0549	26	C8H8FO+
139.0731	12	C8H11O2+
139.0909	24	C9H12F+
141.0899	10	C8H13O2+
145.0645	31	C10H9O+
147.08	78	C10H11O+
148.0811	11	C9[13]CH11O+
149.0947	40	C10H13O+
151.0745	20	C9H11O2+
153.0891	62	C9H13O2+
159.079	54	C11H11O+
161.0941	75	C11H13O+
163.0736	9	C10H11O2+
163.0905	9	C11H12F+
165.0701	16	C13H9+
165.0918	19	C7H14FO3+
167.1055	24	C10H15O2+
169.0646	22	C12H9O+
171.079	76	C12H11O+
172.0831	11	C11[13]CH11O+
173.0953	39	C12H13O+
175.0739	25	C11H11O2+
177.0883	23	C11H13O2+
179.0863	28	C11H12FO+
181.1012	19	C14H13+
183.0806	29	C13H11O+
185.0581	33	C12H9O2+
185.0951	42	C13H13O+
187.0738	46	C12H11O2+
187.1099	17	C13H15O+
188.0816	9	C11[13]CH11O2+
189.0721	21	C9H11F2O2+
189.0897	18	C12H13O2+
189.1052	9	C13H14F+
191.0853	14	C15H11+
193.0851	19	C11H13O3+
193.1018	13	C12H14FO+
195.0978	19	C12H13F2+
197.0944	27	C14H13O+
199.0891	9	C14H12F+
199.1102	21	C14H15O+
201.0896	19	C13H13O2+
203.0836	12	C16H11+
205.0646	9	C15H9O+
205.1007	10	C16H13+
207.1156	14	C16H15+
209.0953	56	C15H13O+
210.1017	13	C14[13]CH13O+
211.0909	11	C15H12F+
211.1106	60	C15H15O+
212.1144	10	C14[13]CH15O+
213.0897	34	C14H13O2+
213.1041	13	C15H14F+
213.1275	19	C15H17O+
214.095	18	C14H14O2+
219.099	11	C14H13F2+
219.1166	11	C17H15+
221.0975	30	C13H14FO2+
222.1026	23	C16H14O+
223.1105	61	C16H15O+
224.1144	20	C16H16O+
225.0885	12	C15H13O2+
225.127	50	C16H17O+
226.1313	18	C16H18O+
227.1051	14	C15H15O2+
227.1233	15	C16H16F+
227.1422	17	C16H19O+
233.0921	13	C17H13O+
235.1114	277	C17H15O+
236.1147	78	C16[13]CH15O+
237.0913	13	C16H13O2+
237.1267	256	C17H17O+
238.13	54	C16[13]CH17O+
239.1087	33	C16H15O2+
239.142	24	C17H19O+
240.1146	10	C15[13]CH15O2+
241.121	21	C16H17O2+
245.1323	9	C19H17+
247.1106	24	C18H15O+
247.1463	9	C19H19+
248.1182	9	C18H16O+
249.1247	32	C18H17O+
251.1066	22	C17H15O2+
251.1432	66	C18H19O+
252.1452	23	C18H20O+
253.1216	999	C17H17O2+
254.1254	208	C16[13]CH17O2+
255.124	36	C13H19O5+
256.1195	12	C20H16+
256.1411	11	C17H20O2+
257.1326	33	C20H17+
259.111	19	C19H15O+
260.1196	14	C19H16O+
261.1263	64	C19H17O+
262.1323	27	C19H18O+
263.1429	30	C19H19O+
265.1221	36	C18H17O2+
265.1566	34	C19H21O+
267.173	18	C19H23O+
271.112	9	C20H15O+
271.1461	12	C21H19+
273.1281	223	C17H18FO2+
274.1328	55	C16[13]CH18FO2+
275.1051	13	C19H15O2+
275.1426	165	C20H19O+
276.1475	67	C20H20O+
277.122	36	C19H17O2+
277.1579	361	C20H21O+
278.1284	11	C19H18O2+
278.1616	80	C19[13]CH21O+
279.1366	94	C16H20FO3+
279.1727	31	C20H23O+
280.1425	14	C15[13]CH20FO3+
280.1762	10	C19[13]CH23O+
281.1532	14	C19H21O2+
287.1422	48	C21H19O+
288.1436	17	C14H21FO5+
289.1582	120	C21H21O+
290.1628	33	C20[13]CH21O+
291.1382	21	C20H19O2+
291.1628	10	C14H24FO5+
292.1456	16	C20H20O2+
293.1288	18	C20H18FO+
293.1537	134	C20H21O2+
294.1564	45	C19[13]CH21O2+
295.1688	164	C20H23O2+
296.1709	42	C19[13]CH23O2+
297.1657	51	C17H23F2O2+
299.1418	31	C22H19O+
305.153	68	C21H21O2+
306.1543	15	C20[13]CH21O2+
307.1691	112	C21H23O2+
308.1724	35	C20[13]CH23O2+
309.1446	37	C21H19F2+
309.1637	35	C21H22FO+
310.1503	9	C20[13]CH19F2+
311.1616	21	C21H21F2+
313.1606	36	C17H23F2O3+
313.1842	10	C14H27F2O5+
315.1734	38	C20H24FO2+
317.1534	133	C22H21O2+
318.1552	37	C21[13]CH21O2+
319.1497	12	C22H20FO+
323.1636	44	C21H23O3+
324.1671	16	C22H22F2+
325.1804	44	C21H25O3+
326.1811	18	C22H24F2+
327.1744	32	C21H24FO2+
329.1718	11	C21H23F2O+
333.1647	21	C20H23F2O2+
335.1639	249	C22H23O3+
336.1666	75	C21[13]CH23O3+
337.1616	35	C22H22FO2+
338.1584	10	C21[13]CH22FO2+
343.1712	29	C18H25F2O4+
345.1725	11	C20H25O5+
347.1826	12	C21H25F2O2+
351.1754	14	C20H25F2O3+
353.1748	145	C22H25O4+
354.1766	50	C21[13]CH25O4+
355.1688	74	C22H24FO3+
356.1725	22	C21[13]CH24FO3+
357.1591	10	C22H23F2O2+
357.1712	10	C22H23F2O2+
361.1849	16	C18H27F2O5+
363.1752	11	C21H25F2O3+
371.1841	177	C22H27O5+
372.1885	43	C21[13]CH27O5+
373.1804	133	C19H27F2O5+
374.1859	35	C18[13]CH27F2O5+
375.1721	30	C22H25F2O3+
391.1926	80	C22H28FO5+
392.1923	19	C21[13]CH28FO5+
393.1867	53	C22H27F2O4+
394.1876	17	C21[13]CH27F2O4+
411.1973	45	C22H29F2O5+
412.2016	14	C21[13]CH29F2O5+
