Mass spectrum: Sulfamoxole; LC-ESI-QTOF; MS2; CE: Ramp 20.5-30.7 eV; R=35000; [M+H]+
Name: Sulfamoxole
Name: 4-amino-N-(4,5-dimethyl-1,3-oxazol-2-yl)benzenesulfonamide
Formula: C11H13N3O3S
Exact mass: 267.0678
SMILES: Cc1c(oc(n1)NS(=O)(=O)c2ccc(cc2)N)C
InChI: InChI=1S/C11H13N3O3S/c1-7-8(2)17-11(13-7)14-18(15,16)10-5-3-9(12)4-6-10/h3-6H,12H2,1-2H3,(H,13,14)
Instrument: Bruker maXis Impact
Instrument type: LC-ESI-QTOF
Ms type: MS2
Ion mode: POSITIVE
Ionization: ESI
Fragmentation mode: CID
Collision energy: Ramp 20.5-30.7 eV
Resolution: 35000
Column name: Acclaim RSLC C18 2.2um, 2.1x100mm, Thermo
Retention time: 4.8 min
Base peak: 311.0828
Precursor m/z: 268.075
Precursor type: [M+H]+
m/z	relative intensity	assigned
53.0379	7	C4H5+
54.0338	10	C3H4N+
55.0174	48	C3H3O+
58.0646	6	C3H8N+
65.0381	56	C5H5+
66.0407	5	H6N2O2+
67.0169	5	C2HN3+
68.049	149	C4H6N+
69.033	14	C4H5O+
71.0604	45	C3H7N2+
72.0439	12	C3H6NO+
78.0343	12	C5H4N+
79.0173	13	C5H3O+
80.0504	6	C5H6N+
86.0601	14	C4H8NO+
92.0498	117	C6H6N+
93.0537	5	CH7N3O2+
96.0452	26	C5H6NO+
99.0449	69	C5H7O2+
108.0459	150	C6H6NO+
109.0486	21	CH7N3O3+
110.0611	64	C6H8NO+
113.0718	243	C5H9N2O+
114.0754	23	C5H10N2O+
120.0559	50	C6H6N3+
140.0172	19	C6H6NOS+
156.0117	999	C6H6NO2S+
157.0145	85	C9H3NO2+
158.0075	45	C9H4NS+
173.0148	12	C6H7NO3S+
175.0181	7	C5H7N2O3S+
268.0751	40	C11H14N3O3S+
