Mass spectrum: Fenofibric acid; LC-ESI-QTOF; MS2; CE: 10 eV; R=35000; [M+H]+
Name: Fenofibric acid
Name: 2-[4-(4-chlorobenzoyl)phenoxy]-2-methylpropanoic acid
Formula: C17H15ClO4
Exact mass: 318.0658866
SMILES: CC(C)(OC1=CC=C(C=C1)C(=O)C1=CC=C(Cl)C=C1)C(O)=O
InChI: InChI=1S/C17H15ClO4/c1-17(2,16(20)21)22-14-9-5-12(6-10-14)15(19)11-3-7-13(18)8-4-11/h3-10H,1-2H3,(H,20,21)
Instrument: Bruker maXis Impact
Instrument type: LC-ESI-QTOF
Ms type: MS2
Ion mode: POSITIVE
Ionization: ESI
Fragmentation mode: CID
Collision energy: 10 eV
Resolution: 35000
Column name: Acclaim RSLC C18 2.2um, 2.1x100mm, Thermo
Retention time: 9.6 min
Base peak: 150.112
Precursor m/z: 319.0732
Precursor type: [M+H]+
m/z	relative intensity	assigned
138.9944	10	C7H4ClO+
159.1001	12	C8H15O3+
233.0362	528	C13H10ClO2+
234.0388	66	C12[13]CH10ClO2+
235.033	111	C13H10[37]ClO2+
236.0362	13	C12[13]CH10[37]ClO2+
319.0733	999	C17H16ClO4+
320.0768	212	C17[13]CH16ClO4+
321.0715	320	C17H16[37]ClO4+
322.0771	36	C16[13]CH15[37]ClN2O4+
