Mass spectrum: Flurtamone; LC-ESI-QTOF; MS2; CE: 30 eV; R=35000; [M-H]-
Name: Flurtamone
Name: 5-(methylamino)-2-phenyl-4-[3-(trifluoromethyl)phenyl]furan-3-one
Formula: C18H14F3NO2
Exact mass: 333.0976633
SMILES: CNC1=C(C(=O)C(O1)C1=CC=CC=C1)C1=CC=CC(=C1)C(F)(F)F
InChI: InChI=1S/C18H14F3NO2/c1-22-17-14(12-8-5-9-13(10-12)18(19,20)21)15(23)16(24-17)11-6-3-2-4-7-11/h2-10,16,22H,1H3
Instrument: Bruker maXis Impact
Instrument type: LC-ESI-QTOF
Ms type: MS2
Ion mode: NEGATIVE
Ionization: ESI
Fragmentation mode: CID
Collision energy: 30 eV
Resolution: 35000
Column name: Acclaim RSLC C18 2.2um, 2.1x100mm, Thermo
Retention time: 9.152 min
Base peak: 332.0904
Precursor m/z: 332.0904
Precursor type: [M-H]-
m/z	relative intensity	assigned
134.0611	38	C8H8NO-
135.0633	6	C3H10F3O2-
145.0266	120	C7H4F3-
146.0295	14	C6[13]CH4F3-
156.018	9	C8H3F3-
159.0429	16	C8H6F3-
161.0217	24	C7H4F3O-
169.0268	49	C9H4F3-
170.031	7	C8[13]CH4F3-
171.0413	24	C9H6F3-
178.0462	9	C10H6F2N-
182.0213	7	C9H3F3N-
183.0293	180	C11H5NO2-
184.0346	21	C10[13]CH5NO2-
185.0215	270	C9H4F3O-
186.0263	26	C8[13]CH4F3O-
186.0565	7	C11H8NO2-
189.0174	18	C8H4F3O2-
198.0533	188	C10H7F3N-
199.0553	20	C9[13]CH7F3N-
207.0607	13	C15H8F-
210.0535	7	C11H7F3N-
214.022	8	C16H3F-
226.0458	5	C14H6F2N-
227.0202	7	C10H4F3NO2-
227.0672	23	C15H9F2-
228.0775	7	C12H11F3O-
235.0536	5	C16H8FO-
240.0274	30	C14H4F2NO-
241.03	5	C13[13]CH4F2NO-
242.0419	9	C14H6F2NO-
245.0534	5	C15H8F3-
247.0741	395	C15H10F3-
248.0772	61	C14[13]CH10F3-
254.044	21	C12H7F3NO2-
255.0585	17	C16H9F2O-
259.0724	6	C16H10F3-
263.0761	5	C14H11F2NO2-
273.073	9	C16H11F2O2-
274.0588	14	C16H9F3O-
275.069	36	C16H10F3O-
276.0689	7	C15[13]CH10F3O-
276.0756	7	C15[13]CH10F3O-
277.0832	14	C16H12F3O-
286.0839	21	C17H11F3N-
288.0629	15	C16H9F3NO-
291.0627	46	C16H10F3O2-
292.0638	8	C15[13]CH10F3O2-
303.0625	5	C17H10F3O2-
304.0938	66	C17H13F3NO-
305.0963	14	C16[13]CH13F3NO-
314.0786	18	C18H11F3NO-
316.058	37	C17H9F3NO2-
317.0623	30	C17H10F3NO2-
318.0683	6	C16[13]CH10F3NO2-
330.0767	7	C18H11F3NO2-
331.0845	5	C18H12F3NO2-
332.0901	999	C18H13F3NO2-
333.0929	192	C17[13]CH13F3NO2-
334.097	17	C16[13]C2H13F3NO2-
