Mass spectrum: 1-(3-carboxypropyl)-3,7-dimethylxanthine; LC-ESI-QTOF; MS2; CE: 50 eV; R=35000; [M+H]+
Name: 1-(3-carboxypropyl)-3,7-dimethylxanthine
Name: 4-(3,7-dimethyl-2,6-dioxopurin-1-yl)butanoic acid
Formula: C11H14N4O4
Exact mass: 266.1015049
SMILES: CN1C=NC2=C1C(=O)N(CCCC(O)=O)C(=O)N2C
InChI: InChI=1S/C11H14N4O4/c1-13-6-12-9-8(13)10(18)15(11(19)14(9)2)5-3-4-7(16)17/h6H,3-5H2,1-2H3,(H,16,17)
Instrument: Bruker maXis Impact
Instrument type: LC-ESI-QTOF
Ms type: MS2
Ion mode: POSITIVE
Ionization: ESI
Fragmentation mode: CID
Collision energy: 50 eV
Resolution: 35000
Column name: Acclaim RSLC C18 2.2um, 2.1x100mm, Thermo
Retention time: 4.437 min
Base peak: 267.1078
Precursor m/z: 267.1088
Precursor type: [M+H]+
m/z	relative intensity	assigned
120.0554	58	C6H6N3+
121.0624	307	C6H7N3+
122.0595	54	C7H8NO+
122.0699	241	C3H10N2O3+
124.0491	91	C2H8N2O4+
132.0534	159	C4H8N2O3+
134.0694	85	C4H10N2O3+
135.065	93	C5H11O4+
136.0489	401	C8H8O2+
137.0554	58	C7[13]CH8O2+
137.0806	136	C5H13O4+
138.0642	492	C3H10N2O4+
147.0655	144	C6H11O4+
148.0736	45	C6H12O4+
149.0819	144	C7H9N4+
150.0652	70	C7H8N3O+
154.0597	170	C6H8N3O2+
161.0799	56	C5H11N3O3+
163.0607	230	C7H7N4O+
164.0635	45	C4H10N3O4+
165.0754	895	C7H9N4O+
166.0588	59	C7H8N3O2+
166.0786	91	C6[13]CH9N4O+
175.0584	81	C5H9N3O4+
179.055	74	C7H7N4O2+
180.0624	99	C7H8N4O2+
181.0707	369	C7H9N4O2+
193.0706	999	C8H9N4O2+
194.074	78	C7[13]CH9N4O2+
211.0811	359	C8H11N4O3+
