Mass spectrum: Dinoseb; LC-ESI-QTOF; MS2; CE: 40 eV; R=35000; [M-H]-
Name: Dinoseb
Name: 2-butan-2-yl-4,6-dinitrophenol
Formula: C10H12N2O5
Exact mass: 240.0746215
SMILES: CCC(C)C1=C(O)C(=CC(=C1)[N+]([O-])=O)[N+]([O-])=O
InChI: InChI=1S/C10H12N2O5/c1-3-6(2)8-4-7(11(14)15)5-9(10(8)13)12(16)17/h4-6,13H,3H2,1-2H3
Instrument: Bruker maXis Impact
Instrument type: LC-ESI-QTOF
Ms type: MS2
Ion mode: NEGATIVE
Ionization: ESI
Fragmentation mode: CID
Collision energy: 40 eV
Resolution: 35000
Column name: Acclaim RSLC C18 2.2um, 2.1x100mm, Thermo
Retention time: 7.958 min
Base peak: 239.0673
Precursor m/z: 239.0673
Precursor type: [M-H]-
m/z	relative intensity	assigned
121.0294	30	C7H5O2-
122.0368	12	C7H6O2-
133.0287	5	C8H5O2-
134.0249	999	C7H4NO2-
135.0307	152	C4H7O5-
136.0393	50	C7H6NO2-
138.0201	11	C6H4NO3-
145.0286	12	C9H5O2-
146.0356	17	C9H6O2-
147.0441	21	C9H7O2-
148.0401	46	C8H6NO2-
149.0244	26	C8H5O3-
149.0487	12	C8H7NO2-
150.0297	11	C3H6N2O5-
150.0544	15	C5H10O5-
151.0264	11	C7H5NO3-
151.0766	21	C9H11O2-
159.0317	5	C9H5NO2-
160.0424	10	C9H6NO2-
162.0189	93	C8H4NO3-
162.0691	5	C10H10O2-
163.0268	168	C8H5NO3-
164.0336	34	C8H6NO3-
164.0442	36	C4H8N2O5-
176.034	81	C9H6NO3-
177.0416	62	C9H7NO3-
178.0498	78	C9H8NO3-
179.0215	22	C8H5NO4-
179.055	13	C8[13]CH8NO3-
180.0303	12	C8H6NO4-
190.0492	6	C10H8NO3-
192.066	42	C10H10NO3-
193.0248	208	C8H5N2O4-
194.0448	80	C9H8NO4-
195.0481	9	C8[13]CH8NO4-
207.0413	21	C9H7N2O4-
208.0585	5	C10H10NO4-
209.0192	116	C8H5N2O5-
210.0242	12	C7[13]CH5N2O5-
