Mass spectrum: Flurtamone; LC-ESI-QTOF; MS2; CE: 20 eV; R=35000; [M-H]-
Name: Flurtamone
Name: 5-(methylamino)-2-phenyl-4-[3-(trifluoromethyl)phenyl]furan-3-one
Formula: C18H14F3NO2
Exact mass: 333.0976633
SMILES: CNC1=C(C(=O)C(O1)C1=CC=CC=C1)C1=CC=CC(=C1)C(F)(F)F
InChI: InChI=1S/C18H14F3NO2/c1-22-17-14(12-8-5-9-13(10-12)18(19,20)21)15(23)16(24-17)11-6-3-2-4-7-11/h2-10,16,22H,1H3
Instrument: Bruker maXis Impact
Instrument type: LC-ESI-QTOF
Ms type: MS2
Ion mode: NEGATIVE
Ionization: ESI
Fragmentation mode: CID
Collision energy: 20 eV
Resolution: 35000
Column name: Acclaim RSLC C18 2.2um, 2.1x100mm, Thermo
Retention time: 9.152 min
Base peak: 332.0905
Precursor m/z: 332.0904
Precursor type: [M-H]-
m/z	relative intensity	assigned
145.0274	8	C7H4F3-
183.0298	6	C9H4F3N-
185.0207	10	C12H3F2-
198.0526	20	C10H7F3N-
247.0732	66	C15H10F3-
248.0781	9	C14[13]CH10F3-
275.0669	11	C16H10F3O-
291.0619	6	C16H10F3O2-
304.0947	17	C17H13F3NO-
332.0906	999	C18H13F3NO2-
333.0934	178	C17[13]CH13F3NO2-
334.0963	14	C16[13]C2H13F3NO2-
