Mass spectrum: Styrene; GC-APCI-QTOF; MS2; CE: 40 eV; R=35000; [M+H]+
Name: Styrene
Formula: C8H8
Exact mass: 104.0626
SMILES: C=CC1=CC=CC=C1
InChI: InChI=1S/C8H8/c1-2-8-6-4-3-5-7-8/h2-7H,1H2
Instrument: Bruker 450 GC coupled to maXis Impact
Instrument type: GC-APCI-QTOF
Ms type: MS2
Ion mode: POSITIVE
Ionization: APCI
Fragmentation mode: CID
Collision energy: 40 eV
Resolution: 35000
Column name: Rxi-5Sil MS column, 30m, 0.25mm i.d., 0.25Âµm film thickness, Restek
Retention time: 10.273 min
Base peak: 123.0435
Precursor m/z: 105.0699
Precursor type: [M+H]+
m/z	relative intensity	assigned
50.0159	406	C4H2+
51.0238	999	C4H3+
