Mass spectrum: Metolachlor-Morpholinone; LC-ESI-QTOF; MS2; CE: 40 eV; R=35000; [M+H]+
Name: Metolachlor-Morpholinone
Name: 4-(2-ethyl-6-methylphenyl)-5-methylmorpholin-3-one
Formula: C14H19NO2
Exact mass: 233.1415788
SMILES: CCC1=CC=CC(C)=C1N1C(C)COCC1=O
InChI: InChI=1S/C14H19NO2/c1-4-12-7-5-6-10(2)14(12)15-11(3)8-17-9-13(15)16/h5-7,11H,4,8-9H2,1-3H3
Instrument: Bruker maXis Impact
Instrument type: LC-ESI-QTOF
Ms type: MS2
Ion mode: POSITIVE
Ionization: ESI
Fragmentation mode: CID
Collision energy: 40 eV
Resolution: 35000
Column name: Acclaim RSLC C18 2.2um, 2.1x100mm, Thermo
Retention time: 7.6 min
Base peak: 234.1487
Precursor m/z: 234.1489
Precursor type: [M+H]+
m/z	relative intensity	assigned
115.0537	60	C9H7+
116.0608	18	C9H8+
117.0687	59	C9H9+
119.048	17	C8H7O+
120.0801	999	C8H10N+
121.0637	14	C8H9O+
121.0834	73	C3H11N3O2+
128.0497	6	C9H6N+
128.0613	14	C10H8+
129.0694	26	C10H9+
132.0437	29	C8H6NO+
133.0514	344	C8H7NO+
134.0565	38	C3H8N3O3+
135.1024	60	C9H13N+
136.1091	6	C4H14N3O2+
137.0946	5	C9H13O+
142.0651	6	C10H8N+
143.0715	51	C10H9N+
146.0954	459	C10H12N+
147.1011	74	C7H15O3+
148.0744	273	C9H10NO+
148.1112	363	C10H14N+
149.0779	16	C4H11N3O3+
149.1142	44	C5H15N3O2+
156.0806	7	C11H10N+
157.0877	12	C11H11N+
159.1023	29	C11H13N+
160.0744	43	C10H10NO+
160.1111	429	C11H14N+
161.0817	28	C10H11NO+
161.115	52	C6H15N3O2+
162.0901	94	C10H12NO+
162.1253	7	C11H16N+
163.0934	10	C5H13N3O3+
172.1106	18	C12H14N+
173.1205	6	C12H15N+
174.09	6	C11H12NO+
174.1264	30	C12H16N+
175.1337	15	C12H17N+
176.1058	28	C11H14NO+
176.1424	40	C12H18N+
177.1464	7	C7H19N3O2+
186.1282	6	C13H16N+
188.1054	5	C12H14NO+
188.1411	9	C13H18N+
206.1166	54	C12H16NO2+
234.1484	53	C14H20NO2+
