Mass spectrum: Fenbendazole; LC-ESI-QTOF; MS2; CE: 50 eV; R=35000; [M+H]+
Name: Fenbendazole
Name: methyl N-(6-phenylsulfanyl-1H-benzimidazol-2-yl)carbamate
Formula: C15H13N3O2S
Exact mass: 299.0728477
SMILES: CO/C(=N/c1[nH]c2cc(ccc2n1)Sc3ccccc3)/O
InChI: InChI=1S/C15H13N3O2S/c1-20-15(19)18-14-16-12-8-7-11(9-13(12)17-14)21-10-5-3-2-4-6-10/h2-9H,1H3,(H2,16,17,18,19)
Instrument: Bruker maXis Impact
Instrument type: LC-ESI-QTOF
Ms type: MS2
Ion mode: POSITIVE
Ionization: ESI
Fragmentation mode: CID
Collision energy: 50 eV
Resolution: 35000
Column name: Acclaim RSLC C18 2.2um, 2.1x100mm, Thermo
Retention time: 10.2 min
Base peak: 300.0799
Precursor m/z: 300.0801
Precursor type: [M+H]+
m/z	relative intensity	assigned
122.0045	16	C6H4NS+
131.0472	197	C7H5N3+
132.0498	12	C6[13]CH5N3+
159.0419	999	C8H5N3O+
160.0452	61	C7[13]CH5N3O+
163.0187	5	C12H3O+
164.0277	7	C7H6N3S+
171.0246	13	C11H7S+
190.0061	79	C8H4N3OS+
191.0138	42	C8H5N3OS+
192.0166	5	C11H2N3O+
198.0368	13	C12H8NS+
199.0433	10	C15H5N+
225.0489	16	C13H9N2S+
226.0558	10	C13H10N2S+
240.0596	10	C13H10N3S+
268.0543	53	C14H10N3OS+
269.0573	8	C14H11N3OS+
