Mass spectrum: 3,4-Dichlorophenylurea; LC-ESI-QTOF; MS2; CE: 30 eV; R=35000; [M+H]+
Name: 3,4-Dichlorophenylurea
Name: 1-(3,4-Dichlorophenyl)urea
Name: (3,4-dichlorophenyl)urea
Formula: C7H6Cl2N2O
Exact mass: 203.9857182
SMILES: NC(=O)NC1=CC(Cl)=C(Cl)C=C1
InChI: InChI=1S/C7H6Cl2N2O/c8-5-2-1-4(3-6(5)9)11-7(10)12/h1-3H,(H3,10,11,12)
Instrument: Bruker maXis Impact
Instrument type: LC-ESI-QTOF
Ms type: MS2
Ion mode: POSITIVE
Ionization: ESI
Fragmentation mode: CID
Collision energy: 30 eV
Resolution: 35000
Column name: Acclaim RSLC C18 2.2um, 2.1x100mm, Thermo
Retention time: 7.911 min
Base peak: 204.9915
Precursor m/z: 204.993
Precursor type: [M+H]+
m/z	relative intensity	assigned
125.0016	24	C6H4ClN+
126.01	12	C6H5ClN+
127.0172	999	C6H6ClN+
128.0201	86	C5[13]CH6ClN+
129.0143	297	C6H6[37]ClN+
130.0167	14	C7H2N2O+
132.9593	46	C5H3Cl2+
134.9541	28	C3HCl2N2+
159.97	133	C6H4Cl2N+
160.9742	15	C5[13]CH4Cl2N+
161.9676	72	C6H4Cl[37]ClN+
161.9856	105	C6H6Cl2N+
162.9689	11	C7ClN2O+
163.9811	69	C6H6Cl[37]ClN+
172.9675	29	C6H3Cl2N2+
