Mass spectrum: Bisphenol A (3-chloro-2-hydroxypropyl) glycidyl ether; LC-ESI-QTOF; MS2; CE: 50 eV; R=35000; [M+NH4]+
Name: Bisphenol A (3-chloro-2-hydroxypropyl) glycidyl ether
Name: Bisphenol A (3-chloro-2-hydroxypropyl)glycidyl ether
Name: 1-chloro-3-[4-[2-[4-(oxiran-2-ylmethoxy)phenyl]propan-2-yl]phenoxy]propan-2-ol
Formula: C21H25ClO4
Exact mass: 376.1441
SMILES: CC(C)(C1=CC=C(C=C1)OCC2CO2)C3=CC=C(C=C3)OCC(CCl)O
InChI: InChI=1S/C21H25ClO4/c1-21(2,15-3-7-18(8-4-15)24-12-17(23)11-22)16-5-9-19(10-6-16)25-13-20-14-26-20/h3-10,17,20,23H,11-14H2,1-2H3
Instrument: Bruker maXis Impact
Instrument type: LC-ESI-QTOF
Ms type: MS2
Ion mode: POSITIVE
Ionization: ESI
Fragmentation mode: CID
Collision energy: 50 eV
Resolution: 35000
Column name: Acclaim RSLC C18 2.2um, 2.1x100mm, Thermo
Retention time: 11.100 min
Base peak: 394.178
Precursor m/z: 394.1791
Precursor type: [M+NH4]+
m/z	relative intensity	assigned
115.0532	16	C9H7+
117.0695	10	C9H9+
133.0641	49	C9H9O+
133.1007	11	C10H13+
135.0794	999	C9H11O+
136.0831	122	C3H17ClO3+
146.0717	13	C10H10O+
147.078	10	C4H16ClO3+
149.0233	10	C8H5O3+
161.0947	149	C5H18ClO3+
191.106	136	C12H15O2+
192.1095	28	C6H21ClO4+
196.0885	9	C11H15ClN+
227.0825	41	C12H16ClO2+
229.0799	19	C15H14Cl+
288.0954	9	C17H17ClO2+
