Mass spectrum: Morphine; LC-ESI-QTOF; MS2; CE: 30 eV; R=35000; [M+H]+
Name: Morphine
Name: (4R,4aR,7S,7aR,12bS)-3-methyl-2,4,4a,7,7a,13-hexahydro-1H-4,12-methanobenzofuro[3,2-e]isoquinoline-7,9-diol
Formula: C17H19NO3
Exact mass: 285.1364935
SMILES: CN1CC[C@]23[C@@H]4[C@H]1CC5=C2C(=C(C=C5)O)O[C@H]3[C@H](C=C4)O
InChI: InChI=1S/C17H19NO3/c1-18-7-6-17-10-3-5-13(20)16(17)21-15-12(19)4-2-9(14(15)17)8-11(10)18/h2-5,10-11,13,16,19-20H,6-8H2,1H3/t10-,11+,13-,16-,17-/m0/s1
Instrument: Bruker maXis Impact
Instrument type: LC-ESI-QTOF
Ms type: MS2
Ion mode: POSITIVE
Ionization: ESI
Fragmentation mode: CID
Collision energy: 30 eV
Resolution: 35000
Column name: Acclaim RSLC C18 2.2um, 2.1x100mm, Thermo
Retention time: 2.718 min
Base peak: 286.1462
Precursor m/z: 286.1438
Precursor type: [M+H]+
m/z	relative intensity	assigned
123.0446	5	C7H7O2+
145.0654	13	C10H9O+
147.0448	22	C9H7O2+
153.0707	14	C12H9+
155.0863	26	C12H11+
157.0657	16	C11H9O+
161.06	5	C10H9O2+
165.0708	29	C13H9+
166.0767	5	C12[13]CH9+
169.0655	5	C12H9O+
173.0606	35	C11H9O2+
173.0969	9	C12H13O+
178.0869	9	C10H12NO2+
181.0656	31	C13H9O+
181.1026	5	C14H13+
182.0698	5	C12[13]CH9O+
183.0813	50	C13H11O+
184.0845	7	C12[13]CH11O+
185.0609	63	C12H9O2+
186.065	10	C11[13]CH9O2+
187.0754	8	C12H11O2+
191.0864	20	C15H11+
193.0658	23	C14H9O+
194.0722	5	C13[13]CH9O+
199.0765	21	C13H11O2+
201.0923	128	C13H13O2+
202.0954	16	C12[13]CH13O2+
207.0825	5	C15H11O+
209.0611	36	C14H9O2+
209.0972	12	C15H13O+
210.0645	7	C13[13]CH9O2+
211.0769	62	C14H11O2+
212.0805	8	C13[13]CH11O2+
219.0813	14	C16H11O+
221.0968	9	C16H13O+
227.0718	32	C17H9N+
227.1076	6	C15H15O2+
229.0875	91	C17H11N+
230.0905	13	C16[13]CH11N+
237.0927	14	C16H13O2+
239.1082	9	C16H15O2+
268.1347	28	C17H18NO2+
269.1388	6	C16[13]CH18NO2+
286.1464	999	C17H20NO3+
287.1492	142	C16[13]CH20NO3+
288.1512	13	C15[13]C2H20NO3+
