Mass spectrum: Benzethonium; LC-ESI-QTOF; MS2; CE: 30 eV; R=35000; [M+H]+
Name: Benzethonium
Name: benzyl-dimethyl-[2-[2-[4-(2,4,4-trimethylpentan-2-yl)phenoxy]ethoxy]ethyl]azanium
Formula: [C27H42NO2]+
Exact mass: 412.3215546
SMILES: CC(C)(C)CC(C)(C)C1=CC=C(OCCOCC[N+](C)(C)CC2=CC=CC=C2)C=C1
InChI: InChI=1S/C27H42NO2/c1-26(2,3)22-27(4,5)24-13-15-25(16-14-24)30-20-19-29-18-17-28(6,7)21-23-11-9-8-10-12-23/h8-16H,17-22H2,1-7H3/q+1
Instrument: Bruker maXis Impact
Instrument type: LC-ESI-QTOF
Ms type: MS2
Ion mode: POSITIVE
Ionization: ESI
Fragmentation mode: CID
Collision energy: 30 eV
Resolution: 35000
Column name: Acclaim RSLC C18 2.2um, 2.1x100mm, Thermo
Retention time: 11.443 min
Base peak: 412.3205
Precursor m/z: 413.3288
Precursor type: [M+H]+
m/z	relative intensity	assigned
208.131	5	C12H18NO2+
233.1892	6	C16H25O+
300.195	88	C19H26NO2+
301.1984	18	C18[13]CH26NO2+
320.2579	336	C20H34NO2+
321.2612	74	C19[13]CH34NO2+
322.2635	11	C18[13]C2H34NO2+
412.3209	999	C27H42NO2+
413.3241	273	C26[13]CH42NO2+
414.3264	48	C25[13]C2H42NO2+
