Mass spectrum: Norfentanyl; LC-ESI-QTOF; MS2; CE: 10 eV; R=35000; [M+H]+
Name: Norfentanyl
Name: N-phenyl-N-piperidin-4-ylpropanamide
Formula: C14H20N2O
Exact mass: 232.1575633
SMILES: CCC(=O)N(c1ccccc1)C2CCNCC2
InChI: InChI=1S/C14H20N2O/c1-2-14(17)16(12-6-4-3-5-7-12)13-8-10-15-11-9-13/h3-7,13,15H,2,8-11H2,1H3
Instrument: Bruker maXis Impact
Instrument type: LC-ESI-QTOF
Ms type: MS2
Ion mode: POSITIVE
Ionization: ESI
Fragmentation mode: CID
Collision energy: 10 eV
Resolution: 35000
Column name: Acclaim RSLC C18 2.2um, 2.1x100mm, Thermo
Retention time: 4.7 min
Base peak: 233.1645
Precursor m/z: 233.1648
Precursor type: [M+H]+
m/z	relative intensity	assigned
150.0902	6	C9H12NO+
177.1376	10	C11H17N2+
233.1648	999	C14H21N2O+
235.1704	9	C13H21N3O+
