Mass spectrum: Normianserin; LC-ESI-QTOF; MS2; CE: 10 eV; R=35000; [M+H]+
Name: Normianserin
Name: Desmethylmianserin
Formula: C17H18N2
Exact mass: 250.1469986
SMILES: c1ccc2c(c1)Cc3ccccc3N4C2CNCC4
InChI: InChI=1S/C17H18N2/c1-3-7-15-13(5-1)11-14-6-2-4-8-16(14)19-10-9-18-12-17(15)19/h1-8,17-18H,9-12H2
Instrument: Bruker maXis Impact
Instrument type: LC-ESI-QTOF
Ms type: MS2
Ion mode: POSITIVE
Ionization: ESI
Fragmentation mode: CID
Collision energy: 10 eV
Resolution: 35000
Column name: Acclaim RSLC C18 2.2um, 2.1x100mm, Thermo
Retention time: 7.3 min
Base peak: 251.1541
Precursor m/z: 251.1543
Precursor type: [M+H]+
m/z	relative intensity	assigned
167.0845	5	C13H11+
208.1112	9	C15H14N+
234.1263	2	C17H16N+
251.1541	999	C17H19N2+
252.1572	131	C16[13]CH19N2+
253.1599	11	C15[13]C2H19N2+
