Mass spectrum: 4-tert-Butylbenzenesulfonamide; LC-ESI-QTOF; MS2; CE: 10 eV; R=35000; [M+H]+
Name: 4-tert-Butylbenzenesulfonamide
Name: 4-Tert-Butylbenzenesulfonamide
Name: 4-tert-butylbenzenesulfonamide
Formula: C10H15NO2S
Exact mass: 213.0823497
SMILES: CC(C)(C)C1=CC=C(C=C1)S(N)(=O)=O
InChI: InChI=1S/C10H15NO2S/c1-10(2,3)8-4-6-9(7-5-8)14(11,12)13/h4-7H,1-3H3,(H2,11,12,13)
Instrument: Bruker maXis Impact
Instrument type: LC-ESI-QTOF
Ms type: MS2
Ion mode: POSITIVE
Ionization: ESI
Fragmentation mode: CID
Collision energy: 10 eV
Resolution: 35000
Column name: Acclaim RSLC C18 2.2um, 2.1x100mm, Thermo
Retention time: 8.197 min
Base peak: 376.2378
Precursor m/z: 214.0896
Precursor type: [M+H]+
m/z	relative intensity	assigned
170.1164	999	C9H16NO2+
