Mass spectrum: Sulcotrione; LC-ESI-QTOF; MS2; CE: Ramp 25.1-37.6 eV; R=35000; [M-H]-
Name: Sulcotrione
Name: 2-(2-chloro-4-methylsulfonylbenzoyl)cyclohexane-1,3-dione
Formula: C14H13ClO5S
Exact mass: 328.0172222
SMILES: CS(=O)(=O)C1=CC(Cl)=C(C=C1)C(=O)C1C(=O)CCCC1=O
InChI: InChI=1S/C14H13ClO5S/c1-21(19,20)8-5-6-9(10(15)7-8)14(18)13-11(16)3-2-4-12(13)17/h5-7,13H,2-4H2,1H3
Instrument: Bruker maXis Impact
Instrument type: LC-ESI-QTOF
Ms type: MS2
Ion mode: NEGATIVE
Ionization: ESI
Fragmentation mode: CID
Collision energy: Ramp 25.1-37.6 eV
Resolution: 35000
Column name: Acclaim RSLC C18 2.2um, 2.1x100mm, Thermo
Retention time: 3.772 min
Base peak: 59.0131
Precursor m/z: 327.0099
Precursor type: [M-H]-
m/z	relative intensity	assigned
212.0508	352	C10H12O3S-
215.0328	569	C12H7O4-
291.0334	999	C14H11O5S-
