Mass spectrum: Norketamine; LC-ESI-QTOF; MS2; CE: RAMP 18.9-28.3 eV; R=35000; [M+H]+
Name: Norketamine
Name: 2-amino-2-(2-chlorophenyl)cyclohexan-1-one
Formula: C12H14ClNO
Exact mass: 223.0763917
SMILES: c1ccc(c(c1)C2(CCCCC2=O)N)Cl
InChI: InChI=1S/C12H14ClNO/c13-10-6-2-1-5-9(10)12(14)8-4-3-7-11(12)15/h1-2,5-6H,3-4,7-8,14H2
Instrument: Bruker maXis Impact
Instrument type: LC-ESI-QTOF
Ms type: MS2
Ion mode: POSITIVE
Ionization: ESI
Fragmentation mode: CID
Collision energy: RAMP 18.9-28.3 eV
Resolution: 35000
Column name: Acclaim RSLC C18 2.2um, 2.1x100mm, Thermo
Retention time: 4.873 min
Base peak: 224.0865
Precursor m/z: 224.0837
Precursor type: [M+H]+
m/z	relative intensity	assigned
67.0533	89	C5H7+
95.0485	15	C6H7O+
115.054	11	C9H7+
116.0616	10	C9H8+
125.0155	999	C7H6Cl+
126.0187	60	C6[13]CH6Cl+
127.0123	274	C7H6[37]Cl+
128.0154	7	C8H2NO+
128.0618	18	C10H8+
129.0694	19	C10H9+
130.0773	11	C10H10+
138.0104	7	C7H5ClN+
138.9942	25	C7H4ClO+
140.9913	5	C7H4[37]ClO+
141.0098	29	C7H6ClO+
143.0073	7	C7H6[37]ClO+
143.0726	6	C10H9N+
143.0846	10	C11H11+
144.0929	22	C11H12+
151.0306	51	C9H8Cl+
152.0617	5	C12H8+
153.0275	10	C9H8[37]Cl+
153.0694	36	C12H9+
154.0772	44	C12H10+
163.0306	73	C10H8Cl+
164.0345	5	C9[13]CH8Cl+
165.0099	43	C9H6ClO+
165.0275	17	C10H8[37]Cl+
165.0461	17	C10H10Cl+
167.0067	10	C9H6[37]ClO+
167.0432	6	C10H10[37]Cl+
172.0878	6	C12H12O+
179.0621	256	C11H12Cl+
180.0654	22	C10[13]CH12Cl+
181.0592	61	C11H12[37]Cl+
189.0465	45	C12H10Cl+
191.0435	13	C12H10[37]Cl+
206.0731	40	C12H13ClN+
207.0575	292	C12H12ClO+
208.062	25	C11[13]CH12ClO+
209.0544	67	C12H12[37]ClO+
224.0838	19	C12H15ClNO+
226.0809	5	C12H15[37]ClNO+
