Mass spectrum: Betamethasone 21-Acetate; LC-ESI-QTOF; MS2; CE: 30 eV; R=35000; [M+H]+
Name: Betamethasone 21-Acetate
Name: [2-[(8S,9R,10S,11S,13S,14S,16S,17R)-9-fluoro-11,17-dihydroxy-10,13,16-trimethyl-3-oxo-6,7,8,11,12,14,15,16-octahydrocyclopenta[a]phenanthren-17-yl]-2-oxoethyl] acetate
Formula: C24H31FO6
Exact mass: 434.2104669
SMILES: C[C@H]1C[C@H]2[C@@H]3CCC4=CC(=O)C=C[C@]4(C)[C@@]3(F)[C@@H](O)C[C@]2(C)[C@@]1(O)C(=O)COC(C)=O
InChI: InChI=1S/C24H31FO6/c1-13-9-18-17-6-5-15-10-16(27)7-8-21(15,3)23(17,25)19(28)11-22(18,4)24(13,30)20(29)12-31-14(2)26/h7-8,10,13,17-19,28,30H,5-6,9,11-12H2,1-4H3/t13-,17-,18-,19-,21-,22-,23-,24-/m0/s1
Instrument: Bruker maXis Impact
Instrument type: LC-ESI-QTOF
Ms type: MS2
Ion mode: POSITIVE
Ionization: ESI
Fragmentation mode: CID
Collision energy: 30 eV
Resolution: 35000
Column name: Acclaim RSLC C18 2.2um, 2.1x100mm, Thermo
Retention time: 9.1 min
Base peak: 150.1115
Precursor m/z: 435.2177
Precursor type: [M+H]+
m/z	relative intensity	assigned
121.0636	164	C8H9O+
123.0797	112	C8H11O+
133.0626	109	C9H9O+
135.0802	223	C9H11O+
147.0797	999	C10H11O+
148.0819	113	C5H12N2O3+
149.0939	253	C10H13O+
151.074	119	C9H11O2+
153.0901	208	C9H13O2+
159.0799	328	C11H11O+
161.0959	324	C11H13O+
167.1039	127	C10H15O2+
171.0795	380	C12H11O+
173.0948	393	C12H13O+
177.0887	139	C11H13O2+
185.0964	381	C13H13O+
187.0756	164	C12H11O2+
187.1113	132	C13H15O+
197.0945	120	C14H13O+
199.1113	140	C14H15O+
211.1109	356	C15H15O+
212.1149	131	C10H16N2O3+
213.126	196	C15H17O+
215.106	133	C14H15O2+
221.0953	115	C16H13O+
222.1013	131	C16H14O+
223.1108	271	C16H15O+
225.1265	192	C16H17O+
227.1408	274	C16H19O+
235.1109	206	C17H15O+
237.1268	664	C17H17O+
238.1289	188	C9H20NO6+
239.1051	100	C16H15O2+
239.1422	282	C17H19O+
241.124	109	C13H18FO3+
245.1404	112	C9H22FO6+
249.1295	107	C15H18FO2+
251.1416	128	C18H19O+
253.1222	166	C17H17O2+
253.1589	174	C18H21O+
255.1369	187	C17H19O2+
261.1261	105	C19H17O+
262.1335	103	C19H18O+
263.1413	378	C19H19O+
267.1389	115	C15H20FO3+
275.143	148	C20H19O+
276.1488	212	C20H20O+
277.1568	370	C20H21O+
278.1649	200	C20H22O+
279.1734	795	C20H23O+
280.1774	112	C20H24O+
281.1834	111	C12H27NO6+
291.1741	749	C21H23O+
292.177	210	C21H24O+
295.1693	200	C20H23O2+
301.1564	290	C22H21O+
307.1684	135	C21H23O2+
309.1841	207	C21H25O2+
311.1641	103	C20H23O3+
319.1695	392	C22H23O2+
320.1719	160	C22H24O2+
337.1779	512	C22H25O3+
338.1855	140	C22H26O3+
397.1988	109	C24H29O5+
