Mass spectrum: Meloxicam; LC-ESI-QTOF; MS2; CE: 10 eV; R=35000; [M+H]+
Name: Meloxicam
Name: 4-hydroxy-2-methyl-N-(5-methyl-1,3-thiazol-2-yl)-1,1-dioxo-1$l^{6},2-benzothiazine-3-carboxamide
Formula: C14H13N3O4S2
Exact mass: 351.0347479
SMILES: Cc1cnc(s1)/N=C(/C2=C(c3ccccc3S(=O)(=O)N2C)O)\O
InChI: InChI=1S/C14H13N3O4S2/c1-8-7-15-14(22-8)16-13(19)11-12(18)9-5-3-4-6-10(9)23(20,21)17(11)2/h3-7,18H,1-2H3,(H,15,16,19)
Instrument: Bruker maXis Impact
Instrument type: LC-ESI-QTOF
Ms type: MS2
Ion mode: POSITIVE
Ionization: ESI
Fragmentation mode: CID
Collision energy: 10 eV
Resolution: 35000
Column name: Acclaim RSLC C18 2.2um, 2.1x100mm, Thermo
Retention time: 7.3 min
Base peak: 352.0309
Precursor m/z: 352.042
Precursor type: [M+H]+
m/z	relative intensity	assigned
115.0281	52	C7H3N2+
141.0063	32	C5H3NO4+
352.0414	999	C14H14N3O4S2+
353.0446	126	C13[13]CH14N3O4S2+
