Mass spectrum: Norethindrone; LC-ESI-QTOF; MS2; CE: 30 eV; R=35000; [M+H]+
Name: Norethindrone
Name: (8R,9S,10R,13S,14S,17R)-17-ethynyl-17-hydroxy-13-methyl-1,2,6,7,8,9,10,11,12,14,15,16-dodecahydrocyclopenta[a]phenanthren-3-one
Formula: C20H26O2
Exact mass: 298.1932801
SMILES: C[C@]12CC[C@H]3[C@@H](CCC4=CC(=O)CC[C@H]34)[C@@H]1CC[C@@]2(O)C#C
InChI: InChI=1S/C20H26O2/c1-3-20(22)11-9-18-17-6-4-13-12-14(21)5-7-15(13)16(17)8-10-19(18,20)2/h1,12,15-18,22H,4-11H2,2H3/t15-,16+,17+,18-,19-,20-/m0/s1
Instrument: Bruker maXis Impact
Instrument type: LC-ESI-QTOF
Ms type: MS2
Ion mode: POSITIVE
Ionization: ESI
Fragmentation mode: CID
Collision energy: 30 eV
Resolution: 35000
Column name: Acclaim RSLC C18 2.2um, 2.1x100mm, Thermo
Retention time: 9.343 min
Base peak: 299.2005
Precursor m/z: 299.2006
Precursor type: [M+H]+
m/z	relative intensity	assigned
109.0638	19	C7H9O+
115.0536	164	C9H7+
116.06	45	C9H8+
117.0691	246	C9H9+
118.0719	21	C8[13]CH9+
119.0848	381	C9H11+
120.0878	40	C8[13]CH11+
121.064	78	C8H9O+
121.1002	181	C9H13+
122.0678	9	C7[13]CH9O+
122.103	14	C8[13]CH13+
123.0797	145	C8H11O+
123.1162	60	C9H15+
124.0833	10	C7[13]CH11O+
124.1187	6	C8[13]CH15+
125.0946	6	C8H13O+
127.0517	17	C10H7+
128.061	216	C10H8+
129.0687	387	C10H9+
130.0754	116	C10H10+
131.0845	709	C10H11+
132.0589	6	C9H8O+
132.0876	85	C9[13]CH11+
133.0638	92	C9H9O+
133.1	287	C10H13+
134.069	8	C8[13]CH9O+
134.1043	34	C9[13]CH13+
135.0796	591	C9H11O+
135.1162	109	C10H15+
136.0829	72	C8[13]CH11O+
136.1193	13	C9[13]CH15+
137.0954	76	C9H13O+
138.1003	9	C8[13]CH13O+
141.0688	196	C11H9+
142.0759	161	C11H10+
143.0843	660	C11H11+
144.0568	14	C10H8O+
144.0895	121	C10[13]CH11+
145.064	57	C10H9O+
145.1001	849	C11H13+
146.0702	12	C10H10O+
146.1037	110	C10[13]CH13+
147.0793	144	C10H11O+
147.1156	177	C11H15+
148.1204	24	C10[13]CH15+
149.095	357	C10H13O+
149.1313	42	C11H17+
150.0987	33	C9[13]CH13O+
151.1116	29	C10H15O+
152.0614	11	C12H8+
153.0698	39	C12H9+
154.0766	52	C12H10+
155.0843	249	C12H11+
156.0914	141	C12H12+
157.0639	34	C11H9O+
157.1	534	C12H13+
158.1042	92	C11[13]CH13+
159.0792	131	C11H11O+
159.1157	308	C12H15+
160.0838	27	C10[13]CH11O+
160.1191	47	C11[13]CH15+
161.0949	371	C11H13O+
161.1311	247	C12H17+
162.0996	61	C10[13]CH13O+
162.1342	31	C11[13]CH17+
163.1107	278	C11H15O+
164.1138	34	C10[13]CH15O+
165.0685	63	C13H9+
166.076	33	C13H10+
167.0841	125	C13H11+
168.0915	66	C13H12+
169.0999	421	C13H13+
170.1058	99	C12[13]CH13+
171.1156	787	C13H15+
172.0863	7	C12H12O+
172.1198	121	C12[13]CH15+
173.0954	100	C12H13O+
173.1313	354	C13H17+
174.0994	15	C11[13]CH13O+
174.1344	75	C12[13]CH17+
175.1104	236	C12H15O+
175.1453	16	C13H19+
176.1147	40	C11[13]CH15O+
177.1273	32	C12H17O+
178.0774	28	C14H10+
179.0841	88	C14H11+
180.0907	37	C14H12+
181.0999	220	C14H13+
182.1058	69	C14H14+
183.0789	14	C13H11O+
183.1157	288	C14H15+
184.0863	11	C13H12O+
184.1211	66	C13[13]CH15+
185.095	95	C13H13O+
185.1313	380	C14H17+
186.0995	22	C13H14O+
186.1361	74	C13[13]CH17+
187.1106	101	C13H15O+
187.148	92	C14H19+
188.1179	39	C13H16O+
188.1504	19	C13[13]CH19+
189.126	93	C13H17O+
189.1638	32	C14H21+
190.0781	5	C15H10+
190.1306	15	C12[13]CH17O+
191.085	16	C15H11+
191.1404	8	C13H19O+
192.0923	37	C15H12+
193.1005	134	C15H13+
194.1066	53	C15H14+
195.1157	177	C15H15+
196.0882	5	C14H12O+
196.121	54	C15H16+
197.0942	38	C14H13O+
197.131	162	C15H17+
198.101	11	C14H14O+
198.1373	42	C14[13]CH17+
199.1101	62	C14H15O+
199.1469	86	C15H19+
200.1156	19	C14H16O+
200.1515	19	C14[13]CH19+
201.1264	110	C14H17O+
201.1628	30	C15H21+
202.1322	26	C13[13]CH17O+
203.1038	5	C13H15O2+
203.1414	43	C14H19O+
203.1757	11	C15H23+
205.1	36	C16H13+
206.1074	45	C16H14+
207.1158	134	C16H15+
208.1222	71	C16H16+
209.0931	7	C15H13O+
209.1311	102	C16H17+
210.1032	5	C15H14O+
210.1351	27	C15[13]CH17+
211.1113	62	C15H15O+
211.1475	234	C16H19+
212.1176	18	C15H16O+
212.1498	45	C15[13]CH19+
213.1261	53	C15H17O+
213.1629	485	C16H21+
214.1324	20	C15H18O+
214.1658	103	C15[13]CH21+
215.1415	46	C15H19O+
215.1732	6	C14[13]C2H21+
216.1479	20	C15H20O+
217.1587	11	C15H21O+
219.1162	36	C17H15+
220.1242	42	C17H16+
221.1318	199	C17H17+
222.1375	67	C17H18+
223.147	256	C17H19+
224.119	11	C16H16O+
224.1502	78	C16[13]CH19+
225.1264	53	C16H17O+
225.1628	46	C17H21+
226.0421	8	C17H6O+
226.1319	23	C16H18O+
226.1701	8	C16[13]CH21+
227.0169	5	C16H3O2+
227.1421	43	C16H19O+
228.1481	8	C15[13]CH19O+
229.1578	49	C16H21O+
230.1587	5	C15[13]CH21O+
231.1736	999	C16H23O+
232.1773	188	C15[13]CH23O+
233.1317	29	C18H17+
233.1812	10	C14[13]C2H23O+
234.1387	32	C18H18+
235.1471	103	C18H19+
236.1506	24	C17[13]CH19+
237.127	8	C17H17O+
237.1637	70	C18H21+
238.1337	16	C17H18O+
238.1662	32	C18H22+
239.1422	51	C17H19O+
239.1787	59	C18H23+
240.1478	22	C17H20O+
240.1821	15	C17[13]CH23+
241.1572	40	C17H21O+
242.1611	8	C16[13]CH21O+
247.1482	12	C19H19+
248.1552	56	C19H20+
249.1592	10	C18[13]CH20+
251.142	14	C18H19O+
252.1513	16	C18H20O+
253.1582	75	C18H21O+
253.1934	21	C19H25+
254.1623	17	C17[13]CH21O+
255.1741	11	C18H23O+
257.1901	20	C18H25O+
258.1903	5	C17[13]CH25O+
261.161	9	C20H21+
263.1789	144	C20H23+
264.1828	24	C19[13]CH23+
266.1653	37	C19H22O+
267.1694	9	C18[13]CH22O+
281.1893	246	C20H25O+
282.1943	58	C19[13]CH25O+
283.1986	6	C18[13]C2H25O+
299.2003	464	C20H27O2+
300.2032	122	C19[13]CH27O2+
301.2094	16	C18[13]C2H27O2+
