Mass spectrum: Diuron-desdimethyl; LC-ESI-QTOF; MS2; CE: 20 eV; R=35000; [M+H]+
Name: Diuron-desdimethyl
Name: 1-(3,4-Dichlorophenyl)urea
Name: (3,4-dichlorophenyl)urea
Formula: C7H6Cl2N2O
Exact mass: 203.9857182
SMILES: NC(=O)NC1=CC(Cl)=C(Cl)C=C1
InChI: InChI=1S/C7H6Cl2N2O/c8-5-2-1-4(3-6(5)9)11-7(10)12/h1-3H,(H3,10,11,12)
Instrument: Bruker maXis Impact
Instrument type: LC-ESI-QTOF
Ms type: MS2
Ion mode: POSITIVE
Ionization: ESI
Fragmentation mode: CID
Collision energy: 20 eV
Resolution: 35000
Column name: Acclaim RSLC C18 2.2um, 2.1x100mm, Thermo
Retention time: 7.9 min
Base peak: 150.1114
Precursor m/z: 204.993
Precursor type: [M+H]+
m/z	relative intensity	assigned
127.0173	999	C6H6ClN+
128.0201	61	C5[13]CH6ClN+
129.0139	254	C6CH6[37]ClN+
130.0186	10	C5[13]CH6[37]ClN+
132.9587	12	C5H3Cl2+
159.97	154	C6H4Cl2N+
160.9735	19	CH5Cl2N3O2+
161.9857	649	C6H6Cl2N+
162.9889	60	C5[13]CH6Cl2N+
163.9828	369	C6H6[37]Cl[35]ClN+
187.9649	90	C7H4Cl2NO+
188.9696	11	C6[13]CH4Cl2NO+
189.9616	52	C7H4[37]Cl[35]ClNO+
204.9926	232	C7H7Cl2N2O+
205.9951	30	C6[13]CH7Cl2N2O+
206.9893	128	C7H7[37]Cl[35]ClN2O+
207.9926	11	C6[13]CH7[37]Cl[35]ClN2O+
