Mass spectrum: Flunixin; LC-ESI-QTOF; MS2; CE: 40 eV; R=35000; [M+H]+
Name: Flunixin
Name: 2-[2-methyl-3-(trifluoromethyl)anilino]pyridine-3-carboxylic acid
Formula: C14H11F3N2O2
Exact mass: 296.0772623
SMILES: Cc1c(cccc1Nc2c(cccn2)C(=O)O)C(F)(F)F
InChI: InChI=1S/C14H11F3N2O2/c1-8-10(14(15,16)17)5-2-6-11(8)19-12-9(13(20)21)4-3-7-18-12/h2-7H,1H3,(H,18,19)(H,20,21)
Instrument: Bruker maXis Impact
Instrument type: LC-ESI-QTOF
Ms type: MS2
Ion mode: POSITIVE
Ionization: ESI
Fragmentation mode: CID
Collision energy: 40 eV
Resolution: 35000
Column name: Acclaim RSLC C18 2.2um, 2.1x100mm, Thermo
Retention time: 9.2 min
Base peak: 297.0743
Precursor m/z: 297.0845
Precursor type: [M+H]+
m/z	relative intensity	assigned
139.0293	5	C9H3N2+
181.0687	21	C10H9F2N+
182.0762	19	C10H10F2N+
184.0486	26	C10H7F3+
191.0537	7	C11H7F2N+
192.0612	5	C11H8F2N+
209.063	18	C14H8FN+
210.0497	8	C11H8F2O2+
210.0709	120	C14H9FN+
211.0587	43	C11H8F3N+
212.0626	5	C10[13]CH8F3N+
219.0477	6	C12H7F2NO+
231.0642	17	C11H10F3O2+
234.0444	8	C14H6N2O2+
236.047	51	C13H7F3O+
237.0529	7	C11[13]CH8F2NO2+
239.0531	90	C12H8F3NO+
240.0565	9	C11[13]CH8F3NO+
241.0488	12	C12H8F3O2+
249.054	6	C14H8F3O+
251.0706	9	C14H10F3O+
257.063	6	C12H10F3NO2+
259.0626	191	C14H9F2N2O+
260.0668	20	C13[13]CH9F2N2O+
261.0551	6	C14H9F2NO2+
264.0413	933	C14H7F3O2+
265.0443	89	C13[13]CH7F3O2+
278.0618	8	C14H9F3N2O+
279.0687	999	C14H10F3N2O+
280.0728	113	C13[13]CH10F3N2O+
