Mass spectrum: Trimethylolpropane trimethacrylate; GC-APCI-QTOF; MS2; CE: 50 eV; R=35000; [M]+
Name: Trimethylolpropane trimethacrylate
Formula: C18H26O6
Exact mass: 338.1729
SMILES: CCC(COC(=O)C(=C)C)(COC(=O)C(=C)C)COC(=O)C(=C)C
InChI: InChI=1S/C18H26O6/c1-8-18(9-22-15(19)12(2)3,10-23-16(20)13(4)5)11-24-17(21)14(6)7/h2,4,6,8-11H2,1,3,5,7H3
Instrument: Bruker 450 GC coupled to maXis Impact
Instrument type: GC-APCI-QTOF
Ms type: MS2
Ion mode: POSITIVE
Ionization: APCI
Fragmentation mode: CID
Collision energy: 50 eV
Resolution: 35000
Column name: Rxi-5Sil MS column, 30m, 0.25mm i.d., 0.25Âµm film thickness, Restek
Retention time: 18.218 min
Base peak: 253.1429
Precursor m/z: 338.1724
Precursor type: [M]+
m/z	relative intensity	assigned
53.0026	21	C3HO+
53.0389	52	C4H5+
55.0544	39	C4H7+
65.0383	20	C5H5+
66.0458	17	C5H6+
67.0543	38	C5H7+
68.0258	24	C4H4O+
69.0328	999	C4H5O+
71.0496	13	C4H7O+
79.0537	156	C6H7+
80.0624	20	C6H8+
81.0692	130	C6H9+
82.0767	10	C6H10+
91.054	14	C7H7+
93.0691	11	C7H9+
95.0478	13	C6H7O+
97.0653	11	C6H9O+
98.0723	23	C6H10O+
105.0704	23	C8H9+
108.0576	22	C7H8O+
109.0663	14	C7H9O+
115.0547	13	C9H7+
117.0708	11	C9H9+
119.0846	50	C9H11+
121.0267	14	C7H5O2+
121.0652	10	C8H9O+
121.102	34	C9H13+
123.0418	11	C7H7O2+
123.0786	11	C8H11O+
125.0603	23	C7H9O2+
126.068	10	C7H10O2+
130.0772	17	C10H10+
131.0859	61	C10H11+
133.0647	555	C9H9O+
134.0699	82	C9H10O+
134.0812	13	C2H14O6+
135.0453	17	C8H7O2+
136.0532	17	C8H8O2+
147.0805	254	C10H11O+
148.0873	68	C10H12O+
149.0962	60	C10H13O+
153.0573	10	C8H9O3+
155.0345	10	C7H7O4+
161.0605	152	C10H9O2+
175.0756	25	C11H11O2+
176.0832	57	C11H12O2+
179.0697	11	C10H11O3+
185.1133	10	C10H17O3+
193.087	28	C11H13O3+
253.1439	11	C14H21O4+
