Mass spectrum: Tributylamine; GC-APCI-QTOF; MS2; CE: 40 eV; R=35000; [M+H]+
Name: Tributylamine
Formula: C12H27N
Exact mass: 185.2143
SMILES: CCCCN(CCCC)CCCC
InChI: InChI=1S/C12H27N/c1-4-7-10-13(11-8-5-2)12-9-6-3/h4-12H2,1-3H3
Instrument: Bruker 450 GC coupled to maXis Impact
Instrument type: GC-APCI-QTOF
Ms type: MS2
Ion mode: POSITIVE
Ionization: APCI
Fragmentation mode: CID
Collision energy: 40 eV
Resolution: 35000
Column name: Rxi-5Sil MS column, 30m, 0.25mm i.d., 0.25Âµm film thickness, Restek
Retention time: 9.359 min
Base peak: 142.1591
Precursor m/z: 186.2216
Precursor type: [M+H]+
m/z	relative intensity	assigned
57.0695	999	C4H9+
130.157	584	C8H20N+
