Mass spectrum: Ranitidine-S-oxide; LC-ESI-QTOF; MS2; CE: 10 eV; R=35000; [M+H]+
Name: Ranitidine-S-oxide
Formula: C13H22N4O4S
Exact mass: 330.1361762
SMILES: CN\C(NCCS(=O)CC1=CC=C(CN(C)C)O1)=C/[N+]([O-])=O
InChI: InChI=1S/C13H22N4O4S/c1-14-13(9-17(18)19)15-6-7-22(20)10-12-5-4-11(21-12)8-16(2)3/h4-5,9,14-15H,6-8,10H2,1-3H3/b13-9+
Instrument: Bruker maXis Impact
Instrument type: LC-ESI-QTOF
Ms type: MS2
Ion mode: POSITIVE
Ionization: ESI
Fragmentation mode: CID
Collision energy: 10 eV
Resolution: 35000
Column name: Acclaim RSLC C18 2.2um, 2.1x100mm, Thermo
Retention time: 1.8 min
Base peak: 331.1433
Precursor m/z: 331.1435
Precursor type: [M+H]+
m/z	relative intensity	assigned
130.0547	7	C5H10N2S+
139.0963	19	C5H15O4+
192.0428	6	C11H4N4+
268.0744	6	C11H14N3O3S+
286.0851	9	C11H16N3O4S+
331.1437	999	C13H23N4O4S+
332.1466	119	C12[13]CH23N4O4S+
333.1412	36	C13H23N4O4[34]S+
