Mass spectrum: Enalapril; LC-ESI-QTOF; MS2; CE: 40 eV; R=35000; [M+H]+
Name: Enalapril
Name: (2S)-1-[(2S)-2-[[(2S)-1-ethoxy-1-oxo-4-phenylbutan-2-yl]amino]propanoyl]pyrrolidine-2-carboxylic acid
Formula: C20H28N2O5
Exact mass: 376.1998220
SMILES: CCOC(=O)[C@H](CCC1=CC=CC=C1)N[C@@H](C)C(=O)N1CCC[C@H]1C(O)=O
InChI: InChI=1S/C20H28N2O5/c1-3-27-20(26)16(12-11-15-8-5-4-6-9-15)21-14(2)18(23)22-13-7-10-17(22)19(24)25/h4-6,8-9,14,16-17,21H,3,7,10-13H2,1-2H3,(H,24,25)/t14-,16-,17-/m0/s1
Instrument: Bruker maXis Impact
Instrument type: LC-ESI-QTOF
Ms type: MS2
Ion mode: POSITIVE
Ionization: ESI
Fragmentation mode: CID
Collision energy: 40 eV
Resolution: 35000
Column name: Acclaim RSLC C18 2.2um, 2.1x100mm, Thermo
Retention time: 6.795 min
Base peak: 377.2066
Precursor m/z: 377.2071
Precursor type: [M+H]+
m/z	relative intensity	assigned
115.0532	107	C9H7+
116.0573	15	C8[13]CH7+
116.0686	9	C2H12O5+
117.0691	525	C9H9+
118.0723	72	C8[13]CH9+
119.0751	6	C8H9N+
128.062	7	C10H8+
130.0851	460	C6H12NO2+
131.0883	28	C5[13]CH12NO2+
134.0951	282	C9H12N+
135.0977	31	C8[13]CH12N+
143.0845	14	C11H11+
144.0787	17	C7H12O3+
160.1106	999	C8H16O3+
161.1141	135	C7[13]CH16O3+
162.1246	15	C8H18O3+
188.1053	11	C9H16O4+
206.1164	46	C12H16NO2+
232.1334	24	C14H18NO2+
234.1475	487	C14H20NO2+
235.1515	98	C13[13]CH20NO2+
236.1516	9	C12[13]C2H20NO2+
303.1694	64	C17H23N2O3+
304.1715	13	C16[13]CH23N2O3+
