Mass spectrum: Tricresylphosphate; LC-ESI-QTOF; MS2; CE: 40 eV; R=35000; [M+H]+
Name: Tricresylphosphate
Name: Tri-P-cresyl phosphate
Name: tris(4-methylphenyl) phosphate
Formula: C21H21O4P
Exact mass: 368.1177458
SMILES: CC1=CC=C(OP(=O)(OC2=CC=C(C)C=C2)OC2=CC=C(C)C=C2)C=C1
InChI: InChI=1S/C21H21O4P/c1-16-4-10-19(11-5-16)23-26(22,24-20-12-6-17(2)7-13-20)25-21-14-8-18(3)9-15-21/h4-15H,1-3H3
Instrument: Bruker maXis Impact
Instrument type: LC-ESI-QTOF
Ms type: MS2
Ion mode: POSITIVE
Ionization: ESI
Fragmentation mode: CID
Collision energy: 40 eV
Resolution: 35000
Column name: Acclaim RSLC C18 2.2um, 2.1x100mm, Thermo
Retention time: 12.725 min
Base peak: 369.1241
Precursor m/z: 369.125
Precursor type: [M+H]+
m/z	relative intensity	assigned
115.0534	5	C9H7+
139.0536	6	C11H7+
141.0691	31	C11H9+
142.0773	5	C10[13]CH9+
152.0608	18	C5H13O3P+
153.0096	27	C7H6O2P+
153.0687	49	C12H9+
154.0165	34	C7H7O2P+
154.0731	9	C11[13]CH9+
155.023	13	C7H8O2P+
155.082	8	C5H16O3P+
164.0629	5	C13H8+
165.069	795	C13H9+
166.0766	999	C13H10+
167.0804	131	C12[13]CH10+
168.0828	10	C11[13]C2H10+
169.0989	7	C6H18O3P+
170.1069	5	C6H19O3P+
171.0198	6	C7H8O3P+
178.0768	34	C14H10+
179.0848	99	C14H11+
180.092	42	C7H17O3P+
181.1001	106	C14H13+
182.1057	18	C13[13]CH13+
183.0816	7	C13H11O+
184.0871	8	C13H12O+
187.0129	8	C7H8O4P+
189.0307	27	C7H10O4P+
193.0761	11	C11H14OP+
195.0792	14	C7H16O4P+
196.0875	145	C14H12O+
197.0925	26	C13[13]CH12O+
198.1002	10	C7H19O4P+
199.1097	27	C14H15O+
200.1122	5	C13[13]CH15O+
215.063	31	C13H12OP+
215.0804	5	C10H16O3P+
216.0664	5	C12[13]CH12OP+
229.1008	7	C18H13+
233.072	12	C13H14O2P+
240.0917	11	C12H17O3P+
241.0999	87	C12H18O3P+
242.1031	16	C11[13]CH18O3P+
243.0561	178	C14H12O2P+
244.06	32	C13[13]CH12O2P+
255.1168	47	C20H15+
256.1231	115	C13H21O3P+
257.1266	22	C12[13]CH21O3P+
261.0667	476	C21H9+
262.0708	70	C20[13]CH9+
263.0736	8	C19[13]C2H9+
271.1451	6	C21H19+
278.072	6	C21H10O+
279.0775	292	C14H16O4P+
280.0824	63	C13[13]CH16O4P+
281.0852	5	C12[13]C2H16O4P+
333.0984	5	C21H18O2P+
351.1162	8	C21H20O3P+
369.1237	126	C21H22O4P+
370.1277	32	C20[13]CH22O4P+
371.1255	5	C19[13]C2H22O4P+
