Mass spectrum: 2-(4-Morpholinyl)benzothiazole; LC-ESI-QTOF; MS2; CE: 50 eV; R=35000; [M+H]+
Name: 2-(4-Morpholinyl)benzothiazole
Name: 4-(1,3-benzothiazol-2-yl)morpholine
Formula: C11H12N2OS
Exact mass: 220.0670340
SMILES: C1CN(CCO1)C1=NC2=CC=CC=C2S1
InChI: InChI=1S/C11H12N2OS/c1-2-4-10-9(3-1)12-11(15-10)13-5-7-14-8-6-13/h1-4H,5-8H2
Instrument: Bruker maXis Impact
Instrument type: LC-ESI-QTOF
Ms type: MS2
Ion mode: POSITIVE
Ionization: ESI
Fragmentation mode: CID
Collision energy: 50 eV
Resolution: 35000
Column name: Acclaim RSLC C18 2.2um, 2.1x100mm, Thermo
Retention time: 8.487 min
Base peak: 221.0741
Precursor m/z: 221.0743
Precursor type: [M+H]+
m/z	relative intensity	assigned
108.0029	5	C6H4S+
109.0103	62	C6H5S+
110.0136	9	C9H2+
116.049	25	C8H6N+
117.0566	198	C8H7N+
118.0601	23	C7[13]CH7N+
121.0095	14	C7H5S+
122.0053	29	C6H4NS+
123.0127	76	C6H5NS+
123.025	9	C7H7S+
124.0207	183	C6H6NS+
125.0247	11	C5[13]CH6NS+
126.0162	13	C6H6N[34]S+
128.0486	6	C9H6N+
131.0583	7	C8H7N2+
132.9977	8	C7H3NS+
133.0102	9	C8H5S+
134.0048	139	C7H4NS+
135.0126	318	C7H5NS+
136.0207	999	C7H6NS+
137.009	12	C7H5N[34]S+
137.0236	63	C6[13]CH6NS+
138.0165	32	C7H6N[34]S+
143.0594	9	C9H7N2+
144.0672	42	C9H8N2+
145.0729	8	C9H9N2+
148.0203	104	C8H6NS+
149.0279	186	C8H7NS+
150.0235	236	C7H6N2S+
150.0361	758	C8H8NS+
151.0316	217	C7H7N2S+
152.0164	40	C7H6NOS+
152.0329	46	C8H8N[34]S+
153.0268	9	C7H7N2[34]S+
160.0205	27	C9H6NS+
161.016	22	C8H5N2S+
162.0357	40	C9H8NS+
163.0316	124	C8H7N2S+
164.0334	15	C7[13]CH7N2S+
165.027	5	C8H7N2[34]S+
169.0763	8	C11H9N2+
175.0315	358	C9H7N2S+
176.0356	35	C8[13]CH7N2S+
177.0471	321	C9H9N2S+
178.0503	36	C8[13]CH9N2S+
179.0262	9	C8H7N2OS+
179.043	14	C9H9N2[34]S+
187.0313	26	C10H7N2S+
188.0372	9	C10H8N2S+
189.0473	58	C10H9N2S+
190.0504	8	C9[13]CH9N2S+
191.0273	6	C9H7N2OS+
203.0632	9	C11H11N2S+
221.0742	19	C11H13N2OS+
