Mass spectrum: Gestoden; LC-ESI-QTOF; MS2; CE: Ramp 21.8-32.7 eV; R=35000; [M+H]+
Name: Gestoden
Name: Gestodene
Name: (8R,9S,10R,13S,14S,17R)-13-ethyl-17-ethynyl-17-hydroxy-1,2,6,7,8,9,10,11,12,14-decahydrocyclopenta[a]phenanthren-3-one
Formula: C21H26O2
Exact mass: 310.1932801
SMILES: [H][C@@]12C=C[C@@](O)(C#C)[C@@]1(CC)CC[C@]1([H])[C@@]3([H])CCC(=O)C=C3CC[C@@]21[H]
InChI: InChI=1S/C21H26O2/c1-3-20-11-9-17-16-8-6-15(22)13-14(16)5-7-18(17)19(20)10-12-21(20,23)4-2/h2,10,12-13,16-19,23H,3,5-9,11H2,1H3/t16-,17+,18+,19-,20-,21-/m0/s1
Instrument: Bruker maXis Impact
Instrument type: LC-ESI-QTOF
Ms type: MS2
Ion mode: POSITIVE
Ionization: ESI
Fragmentation mode: CID
Collision energy: Ramp 21.8-32.7 eV
Resolution: 35000
Column name: Acclaim RSLC C18 2.2um, 2.1x100mm, Thermo
Retention time: 9.448 min
Base peak: 311.2005
Precursor m/z: 311.2006
Precursor type: [M+H]+
m/z	relative intensity	assigned
51.0221	6	C4H3+
53.0018	29	C3HO+
53.038	16	C4H5+
55.0171	55	C3H3O+
55.0536	49	C4H7+
57.0331	29	C3H5O+
57.0689	5	C4H9+
65.038	8	C5H5+
67.0536	136	C5H7+
68.0568	10	C4[13]CH7+
69.0333	16	C4H5O+
69.0693	36	C5H9+
71.0484	15	C4H7O+
77.0385	7	C6H5+
79.0539	197	C6H7+
80.0573	15	C5[13]CH7+
81.0332	394	C5H5O+
81.0696	205	C6H9+
82.0363	27	C4[13]CH5O+
82.0731	14	C5[13]CH9+
83.0489	386	C5H7O+
84.0522	22	C4[13]CH7O+
91.0546	181	C7H7+
92.0577	8	C6[13]CH7+
93.0702	164	C7H9+
94.0727	15	C6[13]CH9+
95.0491	53	C6H7O+
95.0856	115	C7H11+
96.0889	9	C6[13]CH11+
97.065	27	C6H9O+
97.1011	9	C7H13+
103.0552	10	C8H7+
105.0343	43	C7H5O+
105.0707	113	C8H9+
106.0366	5	C6[13]CH5O+
106.0748	10	C7[13]CH9+
107.0504	131	C7H7O+
107.0864	74	C8H11+
108.0539	16	C6[13]CH7O+
108.0903	7	C7[13]CH11+
109.0661	488	C7H9O+
109.102	33	C8H13+
110.0688	34	C6[13]CH9O+
111.0812	9	C7H11O+
115.0544	40	C9H7+
116.0618	11	C9H8+
117.07	103	C9H9+
118.0734	8	C8[13]CH9+
119.0496	14	C8H7O+
119.0854	164	C9H11+
120.0895	19	C8[13]CH11+
121.0643	65	C8H9O+
121.101	60	C9H13+
122.0693	5	C7[13]CH9O+
122.1044	8	C8[13]CH13+
123.0804	58	C8H11O+
123.1161	15	C9H15+
124.0832	5	C7[13]CH11O+
128.0612	48	C10H8+
129.0693	155	C10H9+
130.0753	28	C10H10+
131.0487	16	C9H7O+
131.0848	183	C10H11+
132.0878	16	C9[13]CH11+
133.0643	142	C9H9O+
133.1004	108	C10H13+
134.0694	18	C8[13]CH9O+
134.1024	13	C9[13]CH13+
135.0795	167	C9H11O+
135.116	24	C10H15+
136.0833	14	C8[13]CH11O+
137.0953	26	C9H13O+
141.0688	78	C11H9+
142.0765	40	C11H10+
143.0844	161	C11H11+
144.0557	8	C10H8O+
144.0896	27	C10[13]CH11+
145.0635	55	C10H9O+
145.1003	195	C11H13+
146.0699	21	C10H10O+
146.1037	27	C10[13]CH13+
147.0793	168	C10H11O+
147.116	74	C11H15+
148.0842	22	C9[13]CH11O+
148.119	6	C10[13]CH15+
149.095	160	C10H13O+
149.1306	21	C11H17+
150.0986	17	C9[13]CH13O+
151.1112	8	C10H15O+
152.0607	10	C12H8+
153.0687	31	C12H9+
154.076	28	C12H10+
155.0844	121	C12H11+
156.0912	27	C12H12+
157.063	33	C11H9O+
157.1003	156	C12H13+
158.0699	11	C11H10O+
158.1049	22	C11[13]CH13+
159.0796	157	C11H11O+
159.1157	91	C12H15+
160.084	24	C10[13]CH11O+
160.1212	12	C11[13]CH15+
161.0948	130	C11H13O+
161.1313	83	C12H17+
162.0987	19	C10[13]CH13O+
162.1351	14	C11[13]CH17+
163.1107	106	C11H15O+
164.114	14	C10[13]CH15O+
165.0692	33	C13H9+
166.0763	24	C13H10+
167.0846	72	C13H11+
168.0915	46	C13H12+
169.065	5	C12H9O+
169.1001	111	C13H13+
170.1047	21	C12[13]CH13+
171.0786	26	C12H11O+
171.116	155	C13H15+
172.0866	28	C12H12O+
172.1204	19	C12[13]CH15+
173.0949	88	C12H13O+
173.1319	104	C13H17+
174.1002	21	C12H14O+
174.1347	22	C12[13]CH17+
175.1111	137	C12H15O+
175.1468	44	C13H19+
176.115	18	C11[13]CH15O+
176.1507	5	C12[13]CH19+
177.127	13	C12H17O+
178.0766	10	C14H10+
179.0844	38	C14H11+
180.0911	18	C14H12+
181.1004	121	C14H13+
182.0735	6	C13H10O+
182.1055	31	C14H14+
183.079	30	C13H11O+
183.1161	164	C14H15+
184.0869	10	C13H12O+
184.1198	39	C13[13]CH15+
185.0952	52	C13H13O+
185.1314	105	C14H17+
186.1021	17	C13H14O+
186.1354	13	C13[13]CH17+
187.111	50	C13H15O+
187.1468	30	C14H19+
188.1178	12	C13H16O+
188.1519	6	C13[13]CH19+
189.0902	6	C12H13O2+
189.1265	55	C13H17O+
189.1631	15	C14H21+
190.0777	5	C15H10+
190.1299	9	C12[13]CH17O+
191.085	17	C15H11+
191.1089	5	C12H15O2+
191.1422	5	C13H19O+
192.0918	14	C15H12+
193.1004	42	C15H13+
194.107	26	C15H14+
195.0794	17	C14H11O+
195.1166	95	C15H15+
196.0868	6	C14H12O+
196.1209	20	C14[13]CH15+
197.0952	29	C14H13O+
197.132	76	C15H17+
198.0997	9	C14H14O+
198.1369	12	C14[13]CH17+
199.1107	56	C14H15O+
199.147	41	C15H19+
200.1171	14	C14H16O+
200.1502	8	C14[13]CH19+
201.1267	247	C14H17O+
201.1628	54	C15H21+
202.1314	39	C13[13]CH17O+
202.1673	10	C14[13]CH21+
203.0862	8	C16H11+
203.1425	42	C14H19O+
204.0933	12	C16H12+
204.1459	7	C13[13]CH19O+
205.1003	33	C16H13+
206.1064	21	C16H14+
207.1152	38	C16H15+
208.0879	5	C15H12O+
208.1224	18	C16H16+
209.0951	25	C15H13O+
209.1311	56	C16H17+
210.1013	7	C14[13]CH13O+
210.1359	12	C15[13]CH17+
211.1109	28	C15H15O+
211.1477	34	C16H19+
212.1172	9	C15H16O+
212.1524	13	C16H20+
213.1268	35	C15H17O+
213.1632	114	C16H21+
214.1328	12	C15H18O+
214.1666	17	C15[13]CH21+
215.105	5	C14H15O2+
215.1425	50	C15H19O+
215.1771	6	C16H23+
216.1475	7	C14[13]CH19O+
217.0986	7	C17H13+
217.1578	28	C15H21O+
218.1086	10	C17H14+
218.1635	5	C14[13]CH21O+
219.1155	36	C17H15+
219.1735	48	C15H23O+
220.1228	15	C17H16+
220.1771	9	C14[13]CH23O+
221.1314	35	C17H17+
222.139	13	C17H18+
223.1104	40	C16H15O+
223.1477	67	C17H19+
224.1167	14	C16H16O+
224.1529	13	C16[13]CH19+
225.127	24	C16H17O+
225.163	65	C17H21+
226.1329	9	C16H18O+
226.1676	14	C16[13]CH21+
227.1099	7	C15H15O2+
227.1431	27	C16H19O+
228.1478	14	C16H20O+
229.1575	31	C16H21O+
230.1658	58	C16H22O+
231.1163	9	C18H15+
231.1735	135	C16H23O+
232.1201	8	C18H16+
232.1775	20	C15[13]CH23O+
233.1317	31	C18H17+
234.1397	13	C18H18+
235.1105	5	C17H15O+
235.1472	57	C18H19+
236.1183	12	C17H16O+
236.1534	17	C17[13]CH19+
237.1266	34	C17H17O+
237.1636	20	C18H21+
238.1323	16	C17H18O+
238.1714	7	C18H22+
239.1426	18	C17H19O+
239.1788	17	C18H23+
240.1491	8	C17H20O+
240.1851	8	C18H24+
241.122	14	C16H17O2+
241.1581	35	C17H21O+
242.1282	5	C16H18O2+
242.1617	8	C16[13]CH21O+
243.1741	125	C17H23O+
244.1774	20	C16[13]CH23O+
245.1333	7	C19H17+
246.1403	18	C19H18+
247.1467	23	C19H19+
249.127	9	C18H17O+
249.1639	31	C19H21+
250.1338	8	C18H18O+
250.1691	9	C18[13]CH21+
251.1429	25	C18H19O+
251.1797	33	C19H23+
252.1485	8	C17[13]CH19O+
252.1827	6	C18[13]CH23+
253.1576	41	C18H21O+
254.1624	9	C17[13]CH21O+
255.1372	8	C17H19O2+
255.1716	9	C18H23O+
256.1795	5	C18H24O+
257.1909	5	C18H25O+
264.15	20	C19H20O+
265.1591	38	C19H21O+
265.1948	23	C20H25+
266.1598	8	C18[13]CH21O+
266.197	7	C19[13]CH25+
267.174	9	C19H23O+
268.1778	6	C19H24O+
269.1539	5	C18H21O2+
269.1894	9	C19H25O+
275.1792	37	C21H23+
276.183	8	C20[13]CH23+
278.1687	6	C20H22O+
282.1615	7	C19H22O2+
283.1676	10	C19H23O2+
283.204	10	C20H27O+
293.1898	144	C21H25O+
294.1932	31	C20[13]CH25O+
311.201	999	C21H27O2+
312.2045	236	C20[13]CH27O2+
313.2056	25	C19[13]C2H27O2+
