Mass spectrum: N4-Acetyl-Sulfamethoxazole; LC-ESI-QTOF; MS2; CE: 50 eV; R=35000; [M+H]+
Name: N4-Acetyl-Sulfamethoxazole
Name: N4-Acetylsulfamethoxazole
Name: N-[4-[(5-methyl-1,2-oxazol-3-yl)sulfamoyl]phenyl]acetamide
Formula: C12H13N3O4S
Exact mass: 295.0626769
SMILES: CC(=O)NC1=CC=C(C=C1)S(=O)(=O)NC1=NOC(C)=C1
InChI: InChI=1S/C12H13N3O4S/c1-8-7-12(14-19-8)15-20(17,18)11-5-3-10(4-6-11)13-9(2)16/h3-7H,1-2H3,(H,13,16)(H,14,15)
Instrument: Bruker maXis Impact
Instrument type: LC-ESI-QTOF
Ms type: MS2
Ion mode: POSITIVE
Ionization: ESI
Fragmentation mode: CID
Collision energy: 50 eV
Resolution: 35000
Column name: Acclaim RSLC C18 2.2um, 2.1x100mm, Thermo
Retention time: 5.1 min
Base peak: 296.0696
Precursor m/z: 296.07
Precursor type: [M+H]+
m/z	relative intensity	assigned
131.0601	303	C8H7N2+
134.0591	999	C8H8NO+
135.0619	145	C3H9N3O3+
146.0705	677	C8H8N3+
147.0775	475	C5H11N2O3+
160.0851	488	C6H12N2O3+
