Mass spectrum: Norsertraline; LC-ESI-QTOF; MS2; CE: 40 eV; R=35000; [M+H]+
Name: Norsertraline
Name: Desmethylsertraline
Name: (1S,4S)-4-(3,4-dichlorophenyl)-1,2,3,4-tetrahydronaphthalen-1-amine
Formula: C16H15Cl2N
Exact mass: 291.0581548
SMILES: N[C@H]1CC[C@@H](C2=CC(Cl)=C(Cl)C=C2)C2=CC=CC=C12
InChI: InChI=1S/C16H15Cl2N/c17-14-7-5-10(9-15(14)18)11-6-8-16(19)13-4-2-1-3-12(11)13/h1-5,7,9,11,16H,6,8,19H2/t11-,16-/m0/s1
Instrument: Bruker maXis Impact
Instrument type: LC-ESI-QTOF
Ms type: MS2
Ion mode: POSITIVE
Ionization: ESI
Fragmentation mode: CID
Collision energy: 40 eV
Resolution: 35000
Column name: Acclaim RSLC C18 2.2um, 2.1x100mm, Thermo
Retention time: 9.3 min
Base peak: 150.1112
Precursor m/z: 292.0654
Precursor type: [M+H]+
m/z	relative intensity	assigned
122.9992	61	C7H4Cl+
124.0046	24	C7H5Cl+
127.0542	13	C10H7+
128.0608	96	C10H8+
129.0686	147	C10H9+
130.0745	15	C2H13ClN3O+
132.9593	15	C5H3Cl2+
155.0594	22	C9H12Cl+
158.9753	999	C7H5Cl2+
159.9786	78	C6[13]CH5Cl2+
160.9724	549	C7H5[37]Cl[35]Cl+
161.9764	23	C6[13]CH5[37]Cl[35]Cl+
205.1007	36	C16H13+
225.0466	18	C15H10Cl+
240.0692	13	C16H13Cl+
