Mass spectrum: Galaxolide; LC-ESI-QTOF; MS2; CE: Ramp 20.1-30.2 eV; R=35000; [M+H]+
Name: Galaxolide
Name: Cyclopenta[g]-2-benzopyran, 1,3,4,6,7,8-hexahydro-4,6,6,7,8,8-hexamethyl-
Name: 4,6,6,7,8,8-hexamethyl-1,3,4,7-tetrahydrocyclopenta[g]isochromene
Formula: C18H26O
Exact mass: 258.1983655
SMILES: CC1C(C)(C)C2=CC3=C(C=C2C1(C)C)C(C)COC3
InChI: InChI=1S/C18H26O/c1-11-9-19-10-13-7-15-16(8-14(11)13)18(5,6)12(2)17(15,3)4/h7-8,11-12H,9-10H2,1-6H3
Instrument: Bruker maXis Impact
Instrument type: LC-ESI-QTOF
Ms type: MS2
Ion mode: POSITIVE
Ionization: ESI
Fragmentation mode: CID
Collision energy: Ramp 20.1-30.2 eV
Resolution: 35000
Column name: Acclaim RSLC C18 2.2um, 2.1x100mm, Thermo
Retention time: 13.487 min
Base peak: 102.1283
Precursor m/z: 259.2056
Precursor type: [M+H]+
m/z	relative intensity	assigned
119.0861	11	C9H11+
133.1003	46	C10H13+
145.1015	6	C11H13+
147.0795	71	C10H11O+
148.0834	10	C9[13]CH11O+
157.1009	8	C12H13+
159.1151	5	C12H15+
161.0953	128	C11H13O+
162.099	9	C10[13]CH13O+
175.1115	999	C12H15O+
176.1145	129	C11[13]CH15O+
177.1189	8	C10[13]C2H15O+
187.1121	9	C13H15O+
189.1264	35	C13H17O+
190.1303	5	C12[13]CH17O+
203.143	21	C14H19O+
227.1438	12	C16H19O+
239.18	8	C18H23+
242.1664	9	C17H22O+
257.1903	52	C18H25O+
258.1921	15	C17[13]CH25O+
259.2058	184	C18H27O+
260.2093	28	C17[13]CH27O+
