Mass spectrum: 4-Nitroquinoline-1-oxide; LC-ESI-QTOF; MS2; CE: 20 eV; R=35000; [M+H]+
Name: 4-Nitroquinoline-1-oxide
Name: 4-Nitroquinoline 1-oxide
Name: 4-nitro-1-oxidoquinolin-1-ium
Formula: C9H6N2O3
Exact mass: 190.0378421
SMILES: [O-][N+](=O)C1=CC=[N+]([O-])C2=CC=CC=C12
InChI: InChI=1S/C9H6N2O3/c12-10-6-5-9(11(13)14)7-3-1-2-4-8(7)10/h1-6H
Instrument: Bruker maXis Impact
Instrument type: LC-ESI-QTOF
Ms type: MS2
Ion mode: POSITIVE
Ionization: ESI
Fragmentation mode: CID
Collision energy: 20 eV
Resolution: 35000
Column name: Acclaim RSLC C18 2.2um, 2.1x100mm, Thermo
Retention time: 5.629 min
Base peak: 191.0439
Precursor m/z: 191.0451
Precursor type: [M+H]+
m/z	relative intensity	assigned
116.0484	69	C8H6N+
117.0513	10	C7[13]CH6N+
128.0481	432	C9H6N+
129.0519	41	C8[13]CH6N+
132.0428	77	C8H6NO+
133.0494	33	C8H7NO+
144.0424	70	C9H6NO+
145.0505	999	C9H7NO+
146.0551	109	C8[13]CH7NO+
149.0456	97	C8H7NO2+
160.0376	19	C9H6NO2+
161.0456	354	C9H7NO2+
162.0162	57	C8H4NO3+
162.0498	24	C8[13]CH7NO2+
177.0403	430	C9H7NO3+
178.0447	46	C8[13]CH7NO3+
191.0436	278	C9H7N2O3+
192.0465	25	C8[13]CH7N2O3+
