Mass spectrum: 8-hydroxy Mirtazapine; LC-ESI-QTOF; MS2; CE: 20 eV; R=35000; [M+H]+
Name: 8-hydroxy Mirtazapine
Formula: C17H19N3O
Exact mass: 281.1528122
SMILES: CN1CCN2C(C1)C1=CC=CC=C1CC1=CC(O)=CN=C21
InChI: InChI=1S/C17H19N3O/c1-19-6-7-20-16(11-19)15-5-3-2-4-12(15)8-13-9-14(21)10-18-17(13)20/h2-5,9-10,16,21H,6-8,11H2,1H3
Instrument: Bruker maXis Impact
Instrument type: LC-ESI-QTOF
Ms type: MS2
Ion mode: POSITIVE
Ionization: ESI
Fragmentation mode: CID
Collision energy: 20 eV
Resolution: 35000
Column name: Acclaim RSLC C18 2.2um, 2.1x100mm, Thermo
Retention time: 4.6 min
Base peak: 282.1597
Precursor m/z: 282.1601
Precursor type: [M+H]+
m/z	relative intensity	assigned
211.0859	411	C13H11N2O+
212.0886	54	C12[13]CH11N2O+
225.1014	67	C14H13N2O+
226.1039	10	C13[13]CH13N2O+
239.1171	25	C15H15N2O+
251.1172	34	C16H15N2O+
252.1208	6	C15[13]CH15N2O+
282.1601	999	C17H20N3O+
283.1633	163	C16[13]CH20N3O+
284.1661	13	C15[13]C2H20N3O+
