Mass spectrum: Pyriproxyfen; LC-ESI-QTOF; MS2; CE: 10 eV; R=35000; [M+H]+
Name: Pyriproxyfen
Name: 2-[1-(4-phenoxyphenoxy)propan-2-yloxy]pyridine
Formula: C20H19NO3
Exact mass: 321.1364935
SMILES: CC(COC1=CC=C(OC2=CC=CC=C2)C=C1)OC1=CC=CC=N1
InChI: InChI=1S/C20H19NO3/c1-16(23-20-9-5-6-14-21-20)15-22-17-10-12-19(13-11-17)24-18-7-3-2-4-8-18/h2-14,16H,15H2,1H3
Instrument: Bruker maXis Impact
Instrument type: LC-ESI-QTOF
Ms type: MS2
Ion mode: POSITIVE
Ionization: ESI
Fragmentation mode: CID
Collision energy: 10 eV
Resolution: 35000
Column name: Acclaim RSLC C18 2.2um, 2.1x100mm, Thermo
Retention time: 12.608 min
Base peak: 322.1453
Precursor m/z: 322.1438
Precursor type: [M+H]+
m/z	relative intensity	assigned
134.0715	5	C9H10O+
136.0749	9	C8H10NO+
185.059	16	C12H9O2+
227.1067	272	C15H15O2+
228.1098	32	C14[13]CH15O2+
322.1455	999	C20H20NO3+
