Mass spectrum: Metalaxyl; LC-ESI-QTOF; MS2; CE: 10 eV; R=35000; [M+H]+
Name: Metalaxyl
Name: methyl 2-(N-(2-methoxyacetyl)-2,6-dimethylanilino)propanoate
Formula: C15H21NO4
Exact mass: 279.1470582
SMILES: COCC(=O)N(C(C)C(=O)OC)C1=C(C)C=CC=C1C
InChI: InChI=1S/C15H21NO4/c1-10-7-6-8-11(2)14(10)16(13(17)9-19-4)12(3)15(18)20-5/h6-8,12H,9H2,1-5H3
Instrument: Bruker maXis Impact
Instrument type: LC-ESI-QTOF
Ms type: MS2
Ion mode: POSITIVE
Ionization: ESI
Fragmentation mode: CID
Collision energy: 10 eV
Resolution: 35000
Column name: Acclaim RSLC C18 2.2um, 2.1x100mm, Thermo
Retention time: 8.287 min
Base peak: 280.1548
Precursor m/z: 280.1543
Precursor type: [M+H]+
m/z	relative intensity	assigned
148.1107	5	C7H16O3+
160.1105	12	C8H16O3+
192.1373	81	C9H20O4+
193.1404	9	C8[13]CH20O4+
220.1324	826	C13H18NO2+
221.1358	86	C12[13]CH18NO2+
222.1378	6	C11[13]C2H18NO2+
248.1277	794	C14H18NO3+
249.1307	83	C13[13]CH18NO3+
250.1335	7	C12[13]C2H18NO3+
280.1542	999	C15H22NO4+
281.1572	150	C14[13]CH22NO4+
282.1595	12	C13[13]C2H22NO4+
