Mass spectrum: Pirimicarb; LC-ESI-QTOF; MS2; CE: 20 eV; R=35000; [M+H]+
Name: Pirimicarb
Name: [2-(dimethylamino)-5,6-dimethylpyrimidin-4-yl] N,N-dimethylcarbamate
Formula: C11H18N4O2
Exact mass: 238.1429758
SMILES: CN(C)C(=O)OC1=C(C)C(C)=NC(=N1)N(C)C
InChI: InChI=1S/C11H18N4O2/c1-7-8(2)12-10(14(3)4)13-9(7)17-11(16)15(5)6/h1-6H3
Instrument: Bruker maXis Impact
Instrument type: LC-ESI-QTOF
Ms type: MS2
Ion mode: POSITIVE
Ionization: ESI
Fragmentation mode: CID
Collision energy: 20 eV
Resolution: 35000
Column name: Acclaim RSLC C18 2.2um, 2.1x100mm, Thermo
Retention time: 7.757 min
Base peak: 239.1504
Precursor m/z: 239.1503
Precursor type: [M+H]+
m/z	relative intensity	assigned
137.0696	20	C7H9N2O+
150.1008	12	C8H12N3+
166.0958	7	C8H12N3O+
167.1033	9	C8H13N3O+
182.1276	999	C9H16N3O+
183.1306	75	C8[13]CH16N3O+
195.1591	29	C10H19N4+
239.1493	182	C11H19N4O2+
240.1521	21	C10[13]CH19N4O2+
