Mass spectrum: 6-beta-Hydroxycortisol; LC-ESI-QTOF; MS2; CE: 50 eV; R=35000; [M+H]+
Name: 6-beta-Hydroxycortisol
Name: 6beta-Hydroxycortisol
Name: (6R,8S,9S,10R,11S,13S,14S,17R)-6,11,17-trihydroxy-17-(2-hydroxyacetyl)-10,13-dimethyl-2,6,7,8,9,11,12,14,15,16-decahydro-1H-cyclopenta[a]phenanthren-3-one
Formula: C21H30O6
Exact mass: 378.2042387
SMILES: C[C@]12C[C@H](O)[C@H]3[C@@H](C[C@@H](O)C4=CC(=O)CC[C@]34C)[C@@H]1CC[C@]2(O)C(=O)CO
InChI: InChI=1S/C21H30O6/c1-19-5-3-11(23)7-14(19)15(24)8-12-13-4-6-21(27,17(26)10-22)20(13,2)9-16(25)18(12)19/h7,12-13,15-16,18,22,24-25,27H,3-6,8-10H2,1-2H3/t12-,13-,15+,16-,18+,19-,20-,21-/m0/s1
Instrument: Bruker maXis Impact
Instrument type: LC-ESI-QTOF
Ms type: MS2
Ion mode: POSITIVE
Ionization: ESI
Fragmentation mode: CID
Collision energy: 50 eV
Resolution: 35000
Column name: Acclaim RSLC C18 2.2um, 2.1x100mm, Thermo
Retention time: 4.409 min
Base peak: 379.2106
Precursor m/z: 379.2115
Precursor type: [M+H]+
m/z	relative intensity	assigned
115.0543	277	C9H7+
117.0692	200	C9H9+
119.0844	473	C9H11+
121.0641	411	C8H9O+
128.0613	694	C10H8+
129.0688	617	C10H9+
130.0746	210	C10H10+
131.0847	720	C10H11+
132.0565	123	C9H8O+
133.0622	116	C9H9O+
133.1011	317	C10H13+
135.0792	216	C9H11O+
137.0586	183	C8H9O2+
139.0737	164	C8H11O2+
141.0693	477	C11H9+
142.0768	444	C11H10+
143.0839	999	C11H11+
144.0902	229	C11H12+
145.0638	247	C10H9O+
145.1003	759	C11H13+
147.0808	271	C10H11O+
147.1161	275	C11H15+
149.0947	213	C10H13O+
153.0695	456	C12H9+
154.0776	430	C12H10+
155.0844	754	C12H11+
156.0918	509	C12H12+
157.0647	224	C11H9O+
157.1003	703	C12H13+
158.071	131	C11H10O+
159.0794	394	C11H11O+
159.1156	305	C12H15+
160.0865	167	C11H12O+
161.0948	235	C11H13O+
163.1104	200	C11H15O+
165.0691	610	C13H9+
166.077	296	C13H10+
167.0837	565	C13H11+
168.092	399	C13H12+
169.0643	114	C12H9O+
169.0998	965	C13H13+
170.1054	295	C13H14+
171.0791	331	C12H11O+
171.1151	486	C13H15+
172.0857	146	C12H12O+
172.1215	192	C13H16+
173.0954	385	C12H13O+
175.1094	248	C12H15O+
178.0759	227	C14H10+
179.084	528	C14H11+
180.0913	307	C14H12+
181.1	613	C14H13+
182.1066	292	C14H14+
183.0792	143	C13H11O+
183.1158	815	C14H15+
184.1204	204	C14H16+
185.0949	464	C13H13O+
185.1311	358	C14H17+
187.1103	236	C13H15O+
191.0834	167	C15H11+
192.0903	280	C15H12+
193.1007	616	C15H13+
194.1062	251	C15H14+
195.0801	131	C14H11O+
195.1161	658	C15H15+
196.0865	116	C14H12O+
196.1232	238	C15H16+
197.0958	271	C14H13O+
197.1328	464	C15H17+
198.1363	129	C15H18+
199.1108	314	C14H15O+
199.1473	224	C15H19+
200.1161	138	C14H16O+
201.1244	113	C14H17O+
203.0861	180	C16H11+
205.0986	283	C16H13+
206.1068	461	C16H14+
207.115	476	C16H15+
208.1202	307	C16H16+
209.095	161	C15H13O+
209.1319	816	C16H17+
210.1399	186	C15[13]CH17+
211.1102	444	C15H15O+
211.1502	239	C16H19+
212.1163	143	C15H16O+
213.1257	299	C15H17O+
217.1005	171	C17H13+
219.1158	203	C17H15+
220.1214	194	C17H16+
221.1334	259	C17H17+
222.1013	117	C16H14O+
222.1423	126	C17H18+
223.1106	204	C16H15O+
223.1479	519	C17H19+
224.1166	173	C16H16O+
224.1544	179	C16[13]CH19+
225.1262	207	C16H17O+
225.1616	216	C17H21+
227.1399	134	C16H19O+
228.1505	113	C16H20O+
231.1155	170	C18H15+
232.1277	117	C11H20O5+
233.1327	143	C18H17+
234.136	129	C18H18+
237.1275	293	C17H17O+
237.1665	128	C18H21+
238.1323	117	C17H18O+
238.1737	168	C18H22+
239.1425	201	C17H19O+
241.1555	176	C17H21O+
249.1252	189	C18H17O+
249.1619	119	C19H21+
251.1422	331	C18H19O+
252.1495	159	C18H20O+
269.1499	209	C18H21O2+
270.1598	125	C18H22O2+
284.1767	147	C19H24O2+
