Mass spectrum: Sulfamethoxypyridazine; LC-ESI-QTOF; MS2; CE: 30 eV; R=35000; [M+H]+
Name: Sulfamethoxypyridazine
Name: 4-amino-n-(6-methoxypyridazin-3-yl)benzenesulfonamide
Formula: C11H12N4O3S
Exact mass: 280.0630112
SMILES: COc1ccc(nn1)NS(=O)(=O)c2ccc(cc2)N
InChI: InChI=1S/C11H12N4O3S/c1-18-11-7-6-10(13-14-11)15-19(16,17)9-4-2-8(12)3-5-9/h2-7H,12H2,1H3,(H,13,15)
Instrument: Bruker maXis Impact
Instrument type: LC-ESI-QTOF
Ms type: MS2
Ion mode: POSITIVE
Ionization: ESI
Fragmentation mode: CID
Collision energy: 30 eV
Resolution: 35000
Column name: Acclaim RSLC C18 2.2um, 2.1x100mm, Thermo
Retention time: 4.3 min
Base peak: 281.0708
Precursor m/z: 281.0703
Precursor type: [M+H]+
m/z	relative intensity	assigned
122.0706	40	C6H8N3+
124.0864	450	C6H10N3+
125.0903	24	C3H13N2O3+
126.0656	633	C5H8N3O+
156.0108	999	C6H6NO2S+
157.0132	48	C8[13]CH2NO2+
158.007	44	C9H4NS+
186.0321	79	C11H6O3+
188.0114	58	C11N4+
204.0436	241	C6H10N3O3S+
205.0451	40	C10H9N2OS+
213.1142	76	C7H13N6O2+
215.0947	90	C11H11N4O+
