Mass spectrum: Amlodipine; LC-ESI-QTOF; MS2; CE: RAMP 23.8-35.7 eV; R=35000; [M+H]+
Name: Amlodipine
Name: 3-O-ethyl 5-O-methyl 2-(2-aminoethoxymethyl)-4-(2-chlorophenyl)-6-methyl-1,4-dihydropyridine-3,5-dicarboxylate
Formula: C20H25ClN2O5
Exact mass: 408.1451996
SMILES: CCOC(=O)C1=C(NC(=C(C1c2ccccc2Cl)C(=O)OC)C)COCCN
InChI: InChI=1S/C20H25ClN2O5/c1-4-28-20(25)18-15(11-27-10-9-22)23-12(2)16(19(24)26-3)17(18)13-7-5-6-8-14(13)21/h5-8,17,23H,4,9-11,22H2,1-3H3
Instrument: Bruker maXis Impact
Instrument type: LC-ESI-QTOF
Ms type: MS2
Ion mode: POSITIVE
Ionization: ESI
Fragmentation mode: CID
Collision energy: RAMP 23.8-35.7 eV
Resolution: 35000
Column name: Acclaim RSLC C18 2.2um, 2.1x100mm, Thermo
Retention time: 8.589 min
Base peak: 60.0549
Precursor m/z: 409.1525
Precursor type: [M+H]+
m/z	relative intensity	assigned
72.0428	7	H8O4+
74.0589	5	C3H8NO+
84.0437	5	C4H6NO+
125.0163	8	C7H6Cl+
137.0155	15	C8H6Cl+
138.9956	6	C7H4ClO+
142.0646	15	C10H8N+
143.0713	14	C4H14ClNO2+
148.0397	5	C5H9ClN2O+
149.0165	27	C9H6Cl+
155.0234	7	C9H3N2O+
163.0299	11	C11H3N2+
165.0094	106	C9H6ClO+
167.007	25	C9H6[37]ClO+
167.08	17	C2H16ClN2O4+
170.0596	148	C11H8NO+
171.0647	18	C10[13]CH8NO+
172.0942	12	C2H19ClNO5+
176.034	31	C9H6NO3+
177.0099	10	C10H6ClO+
178.0423	47	C10H9ClN+
179.0078	9	C7H3N2O4+
179.0452	11	C8H7N2O3+
180.0389	11	C10H9[37]ClN+
180.0584	6	C10H11ClN+
181.087	6	C7H16ClNO2+
184.0751	20	C12H10NO+
185.0811	12	C6H16ClNO3+
189.0037	5	C9H3NO4+
192.058	7	C11H11ClN+
197.0832	6	C13H11NO+
202.0863	38	C12H12NO2+
203.0877	8	C16H11+
204.0563	11	C15H8O+
205.0074	7	C17H+
206.0366	477	C11H9ClNO+
208.0334	142	C17H4+
208.0606	524	C10H10NO4+
209.0373	10	C16[13]CH4+
209.0632	48	C11H12ClNO+
209.0835	8	C14H11NO+
211.0529	9	C11H12[37]ClNO+
212.0694	12	C7H15ClNO4+
213.0783	54	C13H11NO2+
214.0839	9	C7H17ClNO4+
216.0569	8	C16H8O+
217.0666	7	C13H12ClN+
220.0522	324	C12H11ClNO+
222.0495	80	C12H11[37]ClNO+
224.0725	14	C11H13ClN2O+
225.0789	7	C11H14ClN2O+
226.0857	6	C14H12NO2+
230.0811	16	C13H12NO3+
231.0673	6	C16H9NO+
232.0525	39	C13H11ClNO+
233.0589	13	C16H9O2+
234.0489	10	C13H11[37]ClNO+
234.0664	14	C10H15ClO4+
235.0565	7	C19H7+
238.0632	999	C12H13ClNO2+
240.0602	259	C15H11ClN+
240.1028	13	C12H17ClN2O+
241.0628	19	C14[13]CH11ClN+
243.0479	7	C14H10ClNO+
244.0527	12	C14H11ClNO+
246.0483	8	C20H6+
248.047	144	C16H8O3+
249.0506	15	C9[13]CH13ClO5+
251.1015	15	C12H15N2O4+
252.069	7	C17H13Cl+
252.076	6	C11H12N2O5+
252.1041	10	C13H17ClN2O+
259.071	9	C13H11N2O4+
260.0473	98	C14H11ClNO2+
262.0438	24	C14H11[37]ClNO2+
262.0618	14	C17H10O3+
263.0533	6	C10H14ClNO5+
264.0597	6	C17H11ClN+
266.0577	6	C13H13ClNO3+
267.1133	7	C16H15N2O2+
270.0312	22	C18H6O3+
271.0381	5	C18H7O3+
274.0674	7	C14H12NO5+
275.0709	10	C15H14ClNO2+
275.0972	12	C15H16ClN2O+
276.0793	16	C15H15ClNO2+
276.0978	7	C15H16O5+
277.09	7	C15H16ClNO2+
278.0919	11	C12H19ClO5+
284.1295	6	C14H21ClN2O2+
285.0787	8	C19H11NO2+
286.0647	15	C16H13ClNO2+
288.0422	67	C15H11ClNO3+
288.0767	8	C13H17ClO5+
290.0391	20	C15H11[37]ClNO3+
292.0813	5	C11H17ClN2O5+
294.0898	526	C15H17ClNO3+
296.0864	138	C18H15ClNO+
297.0892	14	C17[13]CH15ClNO+
302.0578	11	C16H13ClNO3+
303.0896	64	C16H16ClN2O2+
305.0914	17	C16H16[37]ClN2O2+
306.0526	20	C15H13ClNO4+
306.0908	14	C19H15ClN2+
307.0572	12	C18H11O5+
307.0975	5	C16H18ClNO3+
316.0743	16	C17H15ClNO3+
317.081	8	C20H13O4+
318.0673	6	C20H13ClNO+
320.0679	65	C19H12O5+
321.072	15	C15[13]CH15ClNO4+
331.0877	18	C17H16ClN2O3+
332.0719	11	C20H13ClN2O+
333.0794	10	C20H14ClN2O+
334.0849	224	C17H17ClNO4+
336.0814	62	C20H15ClNO2+
337.086	10	C19[13]CH15ClNO2+
346.0835	7	C18H17ClNO4+
348.0967	5	C18H19ClNO4+
360.0999	27	C19H19ClNO4+
361.1016	10	C19H20ClNO4+
362.0962	15	C19H19ClO5+
377.1277	340	C19H22ClN2O4+
378.1314	77	C19H23ClN2O4+
379.1257	96	C20H24ClO5+
380.1285	14	C19H23[37]ClN2O4+
392.1301	6	C20H23ClNO5+
