Mass spectrum: JWH-018; LC-ESI-QTOF; MS2; CE: 50 eV; R=35000; [M+H]+
Name: JWH-018
Name: 1-Pentyl-3-(1-naphthoyl)indole
Name: naphthalen-1-yl-(1-pentylindol-3-yl)methanone
Formula: C24H23NO
Exact mass: 341.1779644
SMILES: CCCCCN1C=C(C2=CC=CC=C21)C(=O)C3=CC=CC4=CC=CC=C43
InChI: InChI=1S/C24H23NO/c1-2-3-8-16-25-17-22(20-13-6-7-15-23(20)25)24(26)21-14-9-11-18-10-4-5-12-19(18)21/h4-7,9-15,17H,2-3,8,16H2,1H3
Instrument: Bruker maXis Impact
Instrument type: LC-ESI-QTOF
Ms type: MS2
Ion mode: POSITIVE
Ionization: ESI
Fragmentation mode: CID
Collision energy: 50 eV
Resolution: 35000
Column name: Acclaim RSLC C18 2.2um, 2.1x100mm, Thermo
Retention time: 12.739 min
Base peak: 342.1886
Precursor m/z: 342.1852
Precursor type: [M+H]+
m/z	relative intensity	assigned
116.0503	24	C8H6N+
117.0711	13	C9H9+
126.0473	68	C10H6+
127.0552	720	C10H7+
128.0584	65	C9[13]CH7+
144.0455	336	C9H6NO+
145.0659	999	C10H9O+
146.0691	77	C9[13]CH9O+
155.0503	534	C11H7O+
156.0548	64	C10[13]CH7O+
158.0607	7	C10H8NO+
214.1243	49	C14H16NO+
215.1278	8	C13[13]CH16NO+
