Mass spectrum: Sulfamethazine; LC-ESI-QTOF; MS2; CE: 30 eV; R=35000; [M+H]+
Name: Sulfamethazine
Name: 4-amino-N-(4,6-dimethylpyrimidin-2-yl)benzenesulfonamide
Formula: C12H14N4O2S
Exact mass: 278.0837467
SMILES: CC1=CC(C)=NC(NS(=O)(=O)C2=CC=C(N)C=C2)=N1
InChI: InChI=1S/C12H14N4O2S/c1-8-7-9(2)15-12(14-8)16-19(17,18)11-5-3-10(13)4-6-11/h3-7H,13H2,1-2H3,(H,14,15,16)
Instrument: Bruker maXis Impact
Instrument type: LC-ESI-QTOF
Ms type: MS2
Ion mode: POSITIVE
Ionization: ESI
Fragmentation mode: CID
Collision energy: 30 eV
Resolution: 35000
Column name: Acclaim RSLC C18 2.2um, 2.1x100mm, Thermo
Retention time: 4.2 min
Base peak: 279.0908
Precursor m/z: 279.091
Precursor type: [M+H]+
m/z	relative intensity	assigned
108.0441	12	C6H6NO+
122.0704	66	C6H8N3+
123.0781	21	C6H9N3+
124.0861	999	C6H10N3+
125.0889	60	C5[13]CH10N3+
149.0221	13	C6H3N3O2+
156.0106	499	C4H4N4OS+
158.0064	16	C6H6NO2[34]S+
186.0323	151	C6H8N3O2S+
187.0355	13	C5[13]CH8N3O2S+
196.0858	12	C12H10N3+
204.0429	708	C12H4N4+
205.0455	49	C11[13]CH4N4+
213.1123	225	C12H13N4+
214.1155	30	C7H14N6O2+
215.1283	8	C12H15N4+
279.0903	35	C12H15N4O2S+
