Mass spectrum: Codeine; LC-ESI-QTOF; MS2; CE: 50 eV; R=35000; [M+H]+
Name: Codeine
Name: (4R,4aR,7S,7aR,12bS)-9-methoxy-3-methyl-2,4,4a,7,7a,13-hexahydro-1H-4,12-methanobenzofuro[3,2-e]isoquinoline-7-ol
Formula: C18H21NO3
Exact mass: 299.1521435
SMILES: CN1CC[C@]23[C@@H]4[C@H]1CC5=C2C(=C(C=C5)OC)O[C@H]3[C@H](C=C4)O
InChI: InChI=1S/C18H21NO3/c1-19-8-7-18-11-4-5-13(20)17(18)22-16-14(21-2)6-3-10(15(16)18)9-12(11)19/h3-6,11-13,17,20H,7-9H2,1-2H3/t11-,12+,13-,17-,18-/m0/s1
Instrument: Bruker maXis Impact
Instrument type: LC-ESI-QTOF
Ms type: MS2
Ion mode: POSITIVE
Ionization: ESI
Fragmentation mode: CID
Collision energy: 50 eV
Resolution: 35000
Column name: Acclaim RSLC C18 2.2um, 2.1x100mm, Thermo
Retention time: 3.532 min
Base peak: 300.1623
Precursor m/z: 300.1594
Precursor type: [M+H]+
m/z	relative intensity	assigned
115.055	125	C9H7+
116.0605	16	C8[13]CH7+
117.0698	9	C9H9+
118.0429	13	C8H6O+
121.0647	13	C8H9O+
122.0377	13	C7H6O2+
126.0481	7	C10H6+
127.0548	40	C10H7+
128.0627	270	C10H8+
129.0695	104	C10H9+
130.0426	5	C9H6O+
130.0754	12	C9[13]CH9+
131.0504	50	C9H7O+
131.0747	5	C9H9N+
131.0857	13	C10H11+
132.0574	9	C9H8O+
132.0809	6	C9H10N+
133.0649	7	C9H9O+
134.0971	6	C9H12N+
136.0766	9	C8H10NO+
137.0605	58	C8H9O2+
138.0644	9	C8H10O2+
139.0554	35	C11H7+
140.0621	26	C11H8+
141.0707	281	C11H9+
142.0758	56	C10[13]CH9+
143.05	44	C10H7O+
143.085	21	C11H11+
144.0577	226	C10H8O+
145.0652	86	C10H9O+
146.0363	31	C9H6O2+
146.0715	20	C10H10O+
146.0964	6	C10H12N+
147.0434	9	C9H7O2+
147.081	16	C10H11O+
148.0761	6	C9H10NO+
149.0595	6	C9H9O2+
150.0486	8	C12H6+
151.0547	25	C12H7+
152.0629	401	C12H8+
153.0706	871	C12H9+
154.0771	212	C12H10+
155.0501	100	C11H7O+
155.0862	319	C12H11+
156.0577	171	C11H8O+
156.0895	46	C11[13]CH11+
157.0653	106	C11H9O+
158.0736	120	C11H10O+
159.0455	47	C10H7O2+
159.0806	113	C11H11O+
160.0526	22	C10H8O2+
160.0816	17	C10[13]CH11O+
161.0607	261	C10H9O2+
162.0644	28	C9[13]CH9O2+
162.0914	6	C10H12NO+
163.0545	10	C13H7+
163.0749	6	C10H11O2+
164.0633	27	C13H8+
165.0709	999	C13H9+
166.0764	214	C12[13]CH9+
167.0493	9	C12H7O+
167.0854	71	C13H11+
168.0578	207	C12H8O+
168.0885	14	C12[13]CH11+
169.0652	214	C12H9O+
170.0363	35	C11H6O2+
170.0733	121	C12H10O+
171.0452	89	C11H7O2+
171.0814	425	C12H11O+
172.0524	84	C11H8O2+
172.0874	117	C12H12O+
173.0588	27	C11H9O2+
173.0946	26	C11[13]CH12O+
174.0688	41	C11H10O2+
174.095	6	C11H12NO+
175.0759	52	C11H11O2+
176.0637	22	C14H8+
177.0705	41	C14H9+
178.0786	100	C14H10+
179.062	12	C9H9NO3+
179.0862	81	C14H11+
180.0579	62	C13H8O+
180.0924	24	C14H12+
181.0662	558	C13H9O+
182.0725	263	C13H10O+
183.0451	189	C12H7O2+
183.081	225	C13H11O+
184.0528	105	C12H8O2+
184.087	62	C13H12O+
185.0604	216	C12H9O2+
185.0974	52	C13H13O+
186.0325	6	C14H4N+
186.0669	87	C12H10O2+
186.1011	11	C12[13]CH13O+
187.0759	93	C12H11O2+
187.1129	28	C13H15O+
188.0818	14	C11[13]CH11O2+
189.0705	49	C15H9+
189.0912	8	C12H13O2+
190.0785	60	C15H10+
191.0865	104	C15H11+
192.0588	12	C14H8O+
192.0899	23	C14[13]CH11+
193.0659	143	C14H9O+
193.1035	20	C15H13+
194.0735	206	C14H10O+
195.0805	110	C14H11O+
196.0524	18	C13H8O2+
196.0872	29	C14H12O+
197.0611	215	C13H9O2+
197.0979	45	C14H13O+
198.0686	263	C13H10O2+
199.0765	427	C13H11O2+
200.0828	120	C13H12O2+
201.0572	11	C15H7N+
201.0699	16	C16H9+
201.0913	24	C12[13]CH12O2+
202.0802	26	C16H10+
203.0859	11	C16H11+
205.0654	37	C15H9O+
206.0704	21	C15H10O+
206.0991	7	C15H12N+
207.0815	45	C15H11O+
208.053	46	C14H8O2+
208.0894	38	C15H12O+
209.0609	103	C14H9O2+
209.0962	30	C15H13O+
210.0685	168	C14H10O2+
210.1005	11	C15H14O+
211.0403	7	C13H7O3+
211.0763	87	C14H11O2+
212.0493	12	C16H6N+
212.0836	71	C14H12O2+
212.1052	6	C14H14NO+
213.0573	13	C16H7N+
213.092	88	C14H13O2+
214.0623	7	C13H10O3+
214.0954	25	C14H14O2+
215.0702	5	C13H11O3+
215.1079	88	C14H15O2+
216.1116	13	C13[13]CH15O2+
218.0739	23	C16H10O+
218.0956	6	C16H12N+
219.0825	49	C16H11O+
220.0877	27	C16H12O+
220.1138	27	C16H14N+
221.0616	50	C15H9O2+
221.0959	18	C16H13O+
221.1186	9	C13H17O3+
222.0659	16	C15H10O2+
223.0774	129	C15H11O2+
224.0815	28	C14[13]CH11O2+
224.1087	9	C15H14NO+
225.056	19	C14H9O3+
225.0923	100	C15H13O2+
226.0651	30	C17H8N+
226.0966	30	C15H14O2+
227.0712	19	C14H11O3+
227.103	5	C15H15O2+
228.0794	15	C17H10N+
228.1071	7	C14H14NO2+
234.0928	8	C16H12NO+
235.0776	18	C16H11O2+
235.1011	8	C16H13NO+
236.0844	24	C16H12O2+
236.1082	6	C16H14NO+
237.0917	19	C16H13O2+
238.0975	10	C16H14O2+
239.0702	10	C15H11O3+
239.0937	6	C15H13NO2+
239.1285	5	C16H17NO+
240.1046	6	C15H14NO2+
240.139	9	C16H18NO+
241.0878	77	C18H11N+
241.1197	6	C16H17O2+
242.09	15	C17[13]CH11N+
242.1218	5	C15H16NO2+
243.1042	29	C18H13N+
248.1081	16	C17H14NO+
249.1151	11	C17H15NO+
250.1244	19	C17H16NO+
251.1065	9	C17H15O2+
251.1327	5	C17H17NO+
252.1044	13	C16H14NO2+
266.1198	47	C17H16NO2+
267.1277	12	C16[13]CH16NO2+
268.1363	8	C17H18NO2+
282.1508	5	C18H20NO2+
300.1629	32	C18H22NO3+
301.1633	8	C17[13]CH22NO3+
