Mass spectrum: Albendazole Sulfoxide; LC-ESI-QTOF; MS2; CE: 10 eV; R=35000; [M+H]+
Name: Albendazole Sulfoxide
Name: methyl N-(6-propylsulfinyl-1H-benzimidazol-2-yl)carbamate
Formula: C12H15N3O3S
Exact mass: 281.0834123
SMILES: CCCS(=O)c1ccc2c(c1)nc([nH]2)NC(=O)OC
InChI: InChI=1S/C12H15N3O3S/c1-3-6-19(17)8-4-5-9-10(7-8)14-11(13-9)15-12(16)18-2/h4-5,7H,3,6H2,1-2H3,(H2,13,14,15,16)
Instrument: Bruker maXis Impact
Instrument type: LC-ESI-QTOF
Ms type: MS2
Ion mode: POSITIVE
Ionization: ESI
Fragmentation mode: CID
Collision energy: 10 eV
Resolution: 35000
Column name: Acclaim RSLC C18 2.2um, 2.1x100mm, Thermo
Retention time: 5.6 min
Base peak: 282.0907
Precursor m/z: 282.0907
Precursor type: [M+H]+
m/z	relative intensity	assigned
191.0708	6	C11H11O3+
222.0343	16	C11H10O3S+
239.0364	12	C9H9N3O3S+
240.0436	341	C9H10N3O3S+
241.046	37	C8[13]CH10N3O3S+
242.0402	14	C12H8N3OS+
282.0906	999	C12H16N3O3S+
283.0941	110	C11[13]CH16N3O3S+
284.088	28	C12H16N3O3[34]S+
