Mass spectrum: 3-(4-Isopropylphenyl)isobutyraldehyde; GC-APCI-QTOF; MS2; CE: 40 eV; R=35000; [M]+
Name: 3-(4-Isopropylphenyl)isobutyraldehyde
Formula: C13H18O
Exact mass: 190.1358
SMILES: CC(C)C1=CC=C(C=C1)CC(C)C=O
InChI: InChI=1S/C13H18O/c1-10(2)13-6-4-12(5-7-13)8-11(3)9-14/h4-7,9-11H,8H2,1-3H3
Instrument: Bruker 450 GC coupled to maXis Impact
Instrument type: GC-APCI-QTOF
Ms type: MS2
Ion mode: POSITIVE
Ionization: APCI
Fragmentation mode: CID
Collision energy: 40 eV
Resolution: 35000
Column name: Rxi-5Sil MS column, 30m, 0.25mm i.d., 0.25Âµm film thickness, Restek
Retention time: 12.002 min
Base peak: 190.1368
Precursor m/z: 190.1352
Precursor type: [M]+
m/z	relative intensity	assigned
55.054	31	C4H7+
79.0553	23	C6H7+
91.0544	122	C7H7+
103.0547	16	C8H7+
105.0694	182	C8H9+
115.0543	540	C9H7+
116.0603	68	C9H8+
117.0697	999	C9H9+
118.0765	165	C9H10+
119.0827	34	C9H11+
127.0562	24	C10H7+
128.0619	550	C10H8+
129.0694	293	C10H9+
130.0755	25	C10H10+
131.0505	50	C9H7O+
131.0867	105	C10H11+
132.0579	31	C9H8O+
133.063	15	C9H9O+
133.1023	123	C10H13+
141.0704	56	C11H9+
142.0791	27	C11H10+
145.067	78	C10H9O+
147.0839	39	C10H11O+
