Mass spectrum: Olopatadine; LC-ESI-QTOF; MS2; CE: 50 eV; R=35000; [M+H]+
Name: Olopatadine
Name: 2-[(11Z)-11-[3-(dimethylazaniumyl)propylidene]-6H-benzo[c][1]benzoxepin-2-yl]acetate
Formula: C21H23NO3
Exact mass: 337.1677936
SMILES: CN(C)CC/C=C\1/c2ccccc2COc3c1cc(cc3)CC(=O)O
InChI: InChI=1S/C21H23NO3/c1-22(2)11-5-8-18-17-7-4-3-6-16(17)14-25-20-10-9-15(12-19(18)20)13-21(23)24/h3-4,6-10,12H,5,11,13-14H2,1-2H3,(H,23,24)/b18-8-
Instrument: Bruker maXis Impact
Instrument type: LC-ESI-QTOF
Ms type: MS2
Ion mode: POSITIVE
Ionization: ESI
Fragmentation mode: CID
Collision energy: 50 eV
Resolution: 35000
Column name: Acclaim RSLC C18 2.2um, 2.1x100mm, Thermo
Retention time: 6.994 min
Base peak: 338.178
Precursor m/z: 338.1751
Precursor type: [M+H]+
m/z	relative intensity	assigned
115.0546	317	C9H7+
116.059	39	C8[13]CH7+
117.0703	132	C9H9+
118.0739	15	C8[13]CH9+
119.0495	85	C8H7O+
120.0567	20	C8H8O+
121.0648	36	C8H9O+
123.0444	351	C7H7O2+
124.0478	21	C6[13]CH7O2+
127.0543	18	C10H7+
128.0622	189	C10H8+
129.07	183	C10H9+
130.0736	17	C9[13]CH9+
131.0497	114	C9H7O+
131.0857	7	C10H11+
132.0533	8	C8[13]CH7O+
133.0651	7	C9H9O+
137.0602	253	C8H9O2+
138.0635	21	C7[13]CH9O2+
141.0703	504	C11H9+
142.0759	91	C11H10+
143.0839	15	C10[13]CH10+
144.0569	29	C10H8O+
144.0812	6	C10H10N+
145.0652	44	C10H9O+
147.045	19	C9H7O2+
149.0603	17	C9H9O2+
152.0628	25	C12H8+
153.0697	26	C12H9+
154.0775	11	C12H10+
155.0607	24	C7H9NO3+
155.0854	7	C12H11+
156.0795	5	C11H10N+
157.0655	11	C11H9O+
158.097	12	C11H12N+
159.0803	8	C11H11O+
161.06	19	C10H9O2+
165.0553	475	C9H9O3+
165.0701	104	C13H9+
166.0582	48	C8[13]CH9O3+
166.0773	59	C13H10+
167.0849	29	C13H11+
168.0915	6	C13H12+
169.0659	27	C12H9O+
170.0974	11	C12H12N+
171.1056	6	C12H13N+
172.1121	14	C12H14N+
173.1203	14	C12H15N+
176.0621	7	C14H8+
177.0705	21	C14H9+
178.0786	472	C14H10+
179.0862	679	C14H11+
180.0898	93	C14H12+
181.065	15	C13H9O+
181.0998	16	C13[13]CH12+
183.0815	5	C13H11O+
189.0553	56	C11H9O3+
189.0704	126	C15H9+
190.0781	173	C15H10+
191.0863	384	C15H11+
192.0914	78	C14[13]CH11+
193.0653	9	C14H9O+
193.1021	93	C15H13+
194.0735	28	C14H10O+
194.1053	15	C14[13]CH13+
195.0804	20	C14H11O+
201.071	10	C16H9+
202.0788	214	C16H10+
203.0865	510	C16H11+
204.0943	594	C16H12+
205.0655	118	C15H9O+
205.1009	224	C16H13+
206.0729	91	C15H10O+
206.107	34	C15[13]CH13+
207.0816	356	C15H11O+
208.0862	71	C15H12O+
209.0939	11	C14[13]CH12O+
213.0723	6	C17H9+
214.0787	36	C17H10+
215.0867	334	C17H11+
216.0919	83	C16[13]CH11+
217.0667	6	C16H9O+
217.1019	103	C17H13+
218.0741	133	C16H10O+
218.1071	30	C16[13]CH13+
219.0816	451	C16H11O+
219.1182	128	C17H15+
220.0866	106	C15[13]CH11O+
220.1208	24	C16[13]CH15+
221.097	136	C16H13O+
222.1004	22	C15[13]CH13O+
223.0769	11	C15H11O2+
224.0838	5	C15H12O2+
226.0788	15	C18H10+
227.0864	74	C18H11+
228.0945	281	C18H12+
229.1025	698	C18H13+
230.1059	116	C17[13]CH13+
231.082	646	C17H11O+
232.0893	999	C17H12O+
233.0955	293	C16[13]CH12O+
234.1033	111	C17H14O+
235.1085	16	C16[13]CH14O+
236.085	6	C16H12O2+
239.0726	9	C18H9N+
245.0974	45	C18H13O+
246.1055	41	C18H14O+
247.1132	255	C18H15O+
248.1167	49	C17[13]CH15O+
252.0794	124	C16H12O3+
253.0845	34	C15[13]CH12O3+
257.1031	5	C15H15NO3+
263.0716	6	C20H9N+
265.0888	6	C20H11N+
277.0865	11	C18H13O3+
278.0927	5	C18H14O3+
293.1181	5	C19H17O3+
