Mass spectrum: Propachlor-OXA; LC-ESI-QTOF; MS2; CE: 30 eV; R=35000; [M+H]+
Name: Propachlor-OXA
Name: Propachlor OA
Name: 2-oxo-2-(N-propan-2-ylanilino)acetic acid
Formula: C11H13NO3
Exact mass: 207.0895433
SMILES: CC(C)N(C(=O)C(O)=O)C1=CC=CC=C1
InChI: InChI=1S/C11H13NO3/c1-8(2)12(10(13)11(14)15)9-6-4-3-5-7-9/h3-8H,1-2H3,(H,14,15)
Instrument: Bruker maXis Impact
Instrument type: LC-ESI-QTOF
Ms type: MS2
Ion mode: POSITIVE
Ionization: ESI
Fragmentation mode: CID
Collision energy: 30 eV
Resolution: 35000
Column name: Acclaim RSLC C18 2.2um, 2.1x100mm, Thermo
Retention time: 4.9 min
Base peak: 188.1429
Precursor m/z: 208.0968
Precursor type: [M+H]+
m/z	relative intensity	assigned
120.0442	606	C7H6NO+
137.0807	220	C5H13O4+
150.0762	283	C5H12NO4+
164.0928	999	C6H14NO4+
178.1066	142	C10H14N2O+
