Mass spectrum: Maprotiline; LC-ESI-QTOF; MS2; CE: 30 eV; R=35000; [M+H]+
Name: Maprotiline
Formula: C20H23N
Exact mass: 277.1830497
SMILES: CNCCCC12CCC(c3c1cccc3)c4c2cccc4
InChI: InChI=1S/C20H23N/c1-21-14-6-12-20-13-11-15(16-7-2-4-9-18(16)20)17-8-3-5-10-19(17)20/h2-5,7-10,15,21H,6,11-14H2,1H3
Instrument: Bruker maXis Impact
Instrument type: LC-ESI-QTOF
Ms type: MS2
Ion mode: POSITIVE
Ionization: ESI
Fragmentation mode: CID
Collision energy: 30 eV
Resolution: 35000
Column name: Acclaim RSLC C18 2.2um, 2.1x100mm, Thermo
Retention time: 8.518 min
Base peak: 278.1923
Precursor m/z: 278.1903
Precursor type: [M+H]+
m/z	relative intensity	assigned
115.0544	38	C9H7+
117.0702	126	C9H9+
118.0734	13	C8[13]CH9+
128.0621	13	C10H8+
129.0699	27	C10H9+
131.0859	85	C10H11+
132.0893	7	C9[13]CH11+
141.0702	101	C11H9+
142.0734	11	C10[13]CH9+
143.0859	44	C11H11+
144.0894	5	C10[13]CH11+
154.0782	6	C12H10+
155.0861	16	C12H11+
169.1017	157	C13H13+
170.1053	18	C12[13]CH13+
178.0785	205	C14H10+
179.0835	50	C13[13]CH10+
190.0778	8	C15H10+
191.0864	416	C15H11+
192.0898	58	C14[13]CH11+
193.1017	80	C15H13+
194.1056	11	C14[13]CH13+
203.0863	11	C16H11+
204.0941	48	C16H12+
205.1017	77	C16H13+
206.1061	14	C15[13]CH13+
217.1021	7	C17H13+
218.1089	12	C17H14+
219.1182	999	C17H15+
220.1213	132	C17H16+
221.1241	10	C16[13]CH16+
247.1487	15	C19H19+
250.1608	813	C18H20N+
251.1637	126	C17[13]CH20N+
252.1676	7	C17[13]CH21N+
278.1918	110	C20H24N+
279.1945	20	C19[13]CH24N+
