Mass spectrum: Naproxen; LC-ESI-QTOF; MS2; CE: Ramp 19.1-28.7 eV; R=35000; [M+H]+
Name: Naproxen
Name: 2-(6-Methoxy-2-naphthyl)propionic acid
Name: 2-(6-methoxynaphthalen-2-yl)propanoic acid
Formula: C14H14O3
Exact mass: 230.0942943
SMILES: COC1=CC2=CC=C(C=C2C=C1)C(C)C(O)=O
InChI: InChI=1S/C14H14O3/c1-9(14(15)16)10-3-4-12-8-13(17-2)6-5-11(12)7-10/h3-9H,1-2H3,(H,15,16)
Instrument: Bruker maXis Impact
Instrument type: LC-ESI-QTOF
Ms type: MS2
Ion mode: POSITIVE
Ionization: ESI
Fragmentation mode: CID
Collision energy: Ramp 19.1-28.7 eV
Resolution: 35000
Column name: Acclaim RSLC C18 2.2um, 2.1x100mm, Thermo
Retention time: 9.110 min
Base peak: 419.2694
Precursor m/z: 231.1016
Precursor type: [M+H]+
m/z	relative intensity	assigned
142.0772	9	C11H10+
153.0692	40	C12H9+
154.0767	76	C12H10+
155.083	40	C12H11+
156.0586	15	C11H8O+
157.0655	16	C11H9O+
158.0717	53	C11H10O+
170.0711	171	C12H10O+
171.0732	35	C11[13]CH10O+
185.0951	999	C13H13O+
186.0989	134	C12[13]CH13O+
