Mass spectrum: Atrazine-desethyl-2-hydroxy; LC-ESI-QTOF; MS2; CE: 20 eV; R=35000; [M+H]+
Name: Atrazine-desethyl-2-hydroxy
Name: 2-amino-6-(propan-2-ylamino)-1H-1,3,5-triazin-4-one
Formula: C6H11N5O
Exact mass: 169.0963600
SMILES: CC(C)/N=c\1/[nH]c(=N)nc([nH]1)O
InChI: InChI=1S/C6H11N5O/c1-3(2)8-5-9-4(7)10-6(12)11-5/h3H,1-2H3,(H4,7,8,9,10,11,12)
Instrument: Bruker maXis Impact
Instrument type: LC-ESI-QTOF
Ms type: MS2
Ion mode: POSITIVE
Ionization: ESI
Fragmentation mode: CID
Collision energy: 20 eV
Resolution: 35000
Column name: Acclaim RSLC C18 2.2um, 2.1x100mm, Thermo
Retention time: 2.8 min
Base peak: 170.1029
Precursor m/z: 170.1036
Precursor type: [M+H]+
m/z	relative intensity	assigned
128.0561	999	C3H6N5O+
129.0584	49	C2[13]CH6N5O+
170.1032	375	C6H12N5O+
171.1049	28	C5[13]CH12N5O+
