Mass spectrum: Chlorotoluron; LC-ESI-QTOF; MS2; CE: Ramp 18.5-27.7 eV; R=35000; [M+H]+
Name: Chlorotoluron
Name: 3-(3-chloro-4-methylphenyl)-1,1-dimethylurea
Formula: C10H13ClN2O
Exact mass: 212.0716407
SMILES: CN(C)C(=O)NC1=CC(Cl)=C(C)C=C1
InChI: InChI=1S/C10H13ClN2O/c1-7-4-5-8(6-9(7)11)12-10(14)13(2)3/h4-6H,1-3H3,(H,12,14)
Instrument: Bruker maXis Impact
Instrument type: LC-ESI-QTOF
Ms type: MS2
Ion mode: POSITIVE
Ionization: ESI
Fragmentation mode: CID
Collision energy: Ramp 18.5-27.7 eV
Resolution: 35000
Column name: Acclaim RSLC C18 2.2um, 2.1x100mm, Thermo
Retention time: 8.014 min
Base peak: 213.0795
Precursor m/z: 213.0789
Precursor type: [M+H]+
m/z	relative intensity	assigned
46.0652	81	C2H8N+
56.0126	5	C2H2NO+
72.0446	999	C3H6NO+
73.0474	34	C2[13]CH6NO+
140.0264	64	C7H7ClN+
141.0293	5	C6[13]CH7ClN+
142.0232	16	C7H7[37]ClN+
168.0211	39	C8H7ClNO+
170.0176	7	C8H7[37]ClNO+
213.0792	175	C10H14ClN2O+
214.0822	20	C9[13]CH14ClN2O+
215.076	54	C10H14[37]ClN2O+
