Mass spectrum: Difloxacin; LC-ESI-QTOF; MS2; CE: 30 eV; R=35000; [M+H]+
Name: Difloxacin
Name: 6-fluoro-1-(4-fluorophenyl)-7-(4-methylpiperazin-1-yl)-4-oxoquinoline-3-carboxylic acid
Name: 6-fluoro-1-(4-fluorophenyl)-7-(4-methylpiperazin-4-ium-1-yl)-4-oxoquinoline-3-carboxylate
Formula: C21H19F2N3O3
Exact mass: 399.1394479
SMILES: CN1CCN(CC1)C2=C(C=C3C(=C2)N(C=C(C3=O)C(=O)O)C4=CC=C(C=C4)F)F
InChI: InChI=1S/C21H19F2N3O3/c1-24-6-8-25(9-7-24)19-11-18-15(10-17(19)23)20(27)16(21(28)29)12-26(18)14-4-2-13(22)3-5-14/h2-5,10-12H,6-9H2,1H3,(H,28,29)
Instrument: Bruker maXis Impact
Instrument type: LC-ESI-QTOF
Ms type: MS2
Ion mode: POSITIVE
Ionization: ESI
Fragmentation mode: CID
Collision energy: 30 eV
Resolution: 35000
Column name: Acclaim RSLC C18 2.2um, 2.1x100mm, Thermo
Retention time: 5.655 min
Base peak: 400.1507
Precursor m/z: 400.1467
Precursor type: [M+H]+
m/z	relative intensity	assigned
133.0859	7	C6H13O3+
279.0943	5	C14H13F2N2O2+
285.0859	14	C16H11F2N2O+
299.1007	121	C17H13F2N2O+
300.1058	27	C16[13]CH13F2N2O+
306.1427	10	C18H20F2O2+
334.1359	11	C17H18F2N3O2+
336.1591	5	C17H20F2N3O2+
352.1145	5	C21H16F2NO2+
354.1113	14	C21H16F2O3+
354.1471	10	C20H18F2N3O+
356.1608	132	C20H20F2N3O+
357.1636	41	C19[13]CH20F2N3O+
362.1351	5	C18H18F2N3O3+
380.1469	8	C21H19FN3O3+
382.1403	172	C21H18F2N3O2+
383.143	48	C21H19F2N3O2+
384.1428	6	C20[13]CH19F2N3O2+
400.1503	999	C21H20F2N3O3+
401.1537	277	C20[13]CH20F2N3O3+
402.1571	31	C19[13]C2H20F2N3O3+
