Mass spectrum: Aflatoxin B1; LC-ESI-QTOF; MS2; CE: 50 eV; R=35000; [M+H]+
Name: Aflatoxin B1
Name: 4-(Methyloxy)-2,3,6a,9a-tetrahydrocyclopenta[c]furo[3`,2`:4,5]furo[2,3-h]chromene-1,11-dione
Name: 11-methoxy-6,8,19-trioxapentacyclo[10.7.0.02,9.03,7.013,17]nonadeca-1,4,9,11,13(17)-pentaene-16,18-dione
Class: Natural Product; Fungal metabolite
Formula: C17H12O6
Exact mass: 312.0634
SMILES: COC1=C2C3=C(C(=O)CC3)C(=O)OC2=C4C5C=COC5OC4=C1
InChI: InChI=1S/C17H12O6/c1-20-10-6-11-14(8-4-5-21-17(8)22-11)15-13(10)7-2-3-9(18)12(7)16(19)23-15/h4-6,8,17H,2-3H2,1H3
Instrument: Bruker maXis Impact
Instrument type: LC-ESI-QTOF
Ms type: MS2
Ion mode: POSITIVE
Ionization: ESI
Fragmentation mode: CID
Collision energy: 50 eV
Resolution: 35000
Column name: Acclaim RSLC C18 2.2um, 2.1x100mm, Thermo
Retention time: 6.785 min
Base peak: 313.0709
Precursor m/z: 313.0707
Precursor type: [M+H]+
m/z	relative intensity	assigned
115.0539	23	C9H7+
127.0538	7	C10H7+
128.0617	53	C10H8+
129.0694	37	C10H9+
130.0763	7	C10H10+
131.0486	11	C9H7O+
139.0538	14	C11H7+
140.0617	12	C11H8+
141.0695	51	C11H9+
142.0753	10	C11H10+
143.0487	16	C10H7O+
144.0564	21	C10H8O+
145.0643	20	C10H9O+
152.0614	11	C12H8+
153.0691	11	C12H9+
155.0491	14	C11H7O+
155.0583	10	C4H11O6+
156.0564	11	C11H8O+
157.0641	67	C11H9O+
158.0717	67	C11H10O+
159.0437	5	C10H7O2+
159.0785	16	C11H11O+
160.0514	8	C10H8O2+
161.0597	8	C10H9O2+
168.0565	37	C12H8O+
169.0643	46	C12H9O+
170.0707	15	C12H10O+
171.0435	54	C11H7O2+
171.0789	6	C12H11O+
172.0505	21	C11H8O2+
173.0588	14	C11H9O2+
173.0958	16	C12H13O+
181.0646	7	C13H9O+
183.043	7	C12H7O2+
183.0799	5	C13H11O+
184.0511	18	C12H8O2+
185.0597	218	C12H9O2+
186.0315	5	C11H6O3+
186.0663	91	C12H10O2+
187.0387	15	C11H7O3+
187.0741	44	C12H11O2+
188.0456	13	C11H8O3+
188.0787	6	C12H12O2+
189.0535	8	C11H9O3+
191.0696	6	C11H11O3+
195.0439	16	C13H7O2+
196.051	33	C13H8O2+
197.0591	56	C13H9O2+
198.0662	20	C13H10O2+
199.0386	43	C12H7O3+
199.0732	9	C13H11O2+
200.0459	44	C12H8O3+
201.0534	22	C12H9O3+
201.0908	48	C13H13O2+
203.0698	10	C12H11O3+
211.038	7	C13H7O3+
211.0751	5	C14H11O2+
212.0464	12	C13H8O3+
213.0545	458	C13H9O3+
214.0617	275	C13H10O3+
215.0333	6	C12H7O4+
215.0665	47	C13H11O3+
216.0411	10	C12H8O4+
217.0485	7	C12H9O4+
223.0388	16	C14H7O3+
224.0463	55	C14H8O3+
225.0534	41	C14H9O3+
226.061	16	C14H10O3+
227.0339	49	C13H7O4+
227.0698	8	C14H11O3+
228.04	18	C13H8O4+
229.0481	11	C13H9O4+
229.0857	16	C14H13O3+
240.0412	16	C14H8O4+
241.0496	999	C14H9O4+
242.055	216	C14H10O4+
243.0623	49	C14H11O4+
244.0681	5	C14H12O4+
245.0442	5	C13H9O5+
251.0339	13	C15H7O4+
252.0412	31	C15H8O4+
253.0492	44	C15H9O4+
254.0536	9	C15H10O4+
255.0286	19	C14H7O5+
255.0632	7	C15H11O4+
256.0347	6	C14H8O5+
257.0447	5	C14H9O5+
257.0806	11	C15H13O4+
259.0598	14	C14H11O5+
269.0443	282	C15H9O5+
270.0499	90	C15H10O5+
271.056	19	C15H11O5+
281.0431	8	C16H9O5+
284.0677	10	C16H12O5+
285.0753	25	C16H13O5+
298.0477	6	C16H10O6+
