Mass spectrum: Androsterone; LC-ESI-QTOF; MS2; CE: 20 eV; R=35000; [M+H]+
Name: Androsterone
Name: (3R,5S,8R,9S,10S,13S,14S)-3-hydroxy-10,13-dimethyl-1,2,3,4,5,6,7,8,9,11,12,14,15,16-tetradecahydrocyclopenta[a]phenanthren-17-one
Formula: C19H30O2
Exact mass: 290.2245802
SMILES: C[C@]12CC[C@H]3[C@@H](CC[C@H]4C[C@H](O)CC[C@]34C)[C@@H]1CCC2=O
InChI: InChI=1S/C19H30O2/c1-18-9-7-13(20)11-12(18)3-4-14-15-5-6-17(21)19(15,2)10-8-16(14)18/h12-16,20H,3-11H2,1-2H3/t12-,13+,14-,15-,16-,18-,19-/m0/s1
Instrument: Bruker maXis Impact
Instrument type: LC-ESI-QTOF
Ms type: MS2
Ion mode: POSITIVE
Ionization: ESI
Fragmentation mode: CID
Collision energy: 20 eV
Resolution: 35000
Column name: Acclaim RSLC C18 2.2um, 2.1x100mm, Thermo
Retention time: 10.756 min
Base peak: 345.243
Precursor m/z: 291.2319
Precursor type: [M+H]+
m/z	relative intensity	assigned
131.0851	43	C10H11+
133.0992	84	C10H13+
135.1156	60	C10H15+
145.0997	92	C11H13+
147.1163	100	C11H15+
159.1161	181	C12H15+
161.095	213	C11H13O+
161.132	112	C12H17+
173.1303	118	C13H17+
175.1105	89	C12H15O+
175.1469	50	C13H19+
177.1267	50	C12H17O+
179.1069	75	C11H15O2+
185.1322	54	C14H17+
187.1495	55	C14H19+
189.1648	43	C14H21+
191.1407	37	C13H19O+
199.1485	128	C15H19+
200.1522	37	C14[13]CH19+
201.1633	165	C15H21+
203.1064	297	C13H15O2+
203.1767	48	C15H23+
213.1615	78	C16H21+
215.1786	222	C16H23+
216.1833	61	C16H24+
229.1942	40	C17H25+
255.2104	999	C19H27+
256.2136	238	C18[13]CH27+
273.2211	303	C19H29O+
274.223	60	C18[13]CH29O+
289.2186	72	C19H29O2+
291.2322	536	C19H31O2+
292.2369	142	C18[13]CH31O2+
