Mass spectrum: Divinylbenzene (m- and p- mixture); GC-APCI-QTOF; MS2; CE: 30 eV; R=35000; [M+H]+
Name: Divinylbenzene (m- and p- mixture)
Formula: C10H10
Exact mass: 130.0783
SMILES: C=CC1=CC=CC=C1C=C
InChI: InChI=1S/C10H10/c1-3-9-7-5-6-8-10(9)4-2/h3-8H,1-2H2
Instrument: Bruker 450 GC coupled to maXis Impact
Instrument type: GC-APCI-QTOF
Ms type: MS2
Ion mode: POSITIVE
Ionization: APCI
Fragmentation mode: CID
Collision energy: 30 eV
Resolution: 35000
Column name: Rxi-5Sil MS column, 30m, 0.25mm i.d., 0.25Âµm film thickness, Restek
Retention time: 12.009 min
Base peak: 190.1362
Precursor m/z: 131.0855
Precursor type: [M+H]+
m/z	relative intensity	assigned
91.053	712	C7H7+
115.0544	999	C9H7+
116.0625	418	C9H8+
117.0696	910	C9H9+
118.0791	158	C9H10+
128.0617	580	C10H8+
129.0693	308	C10H9+
131.0866	396	C10H11+
