Mass spectrum: 4-Hydroxytamoxifen; LC-ESI-QTOF; MS2; CE: 50 eV; R=35000; [M+H]+
Name: 4-Hydroxytamoxifen
Name: (Z)-4-(1-[4-(Dimethylaminoethoxy)phenyl]-2-phenyl-1-butenyl)phenol
Name: 4-[1-[4-[2-(dimethylamino)ethoxy]phenyl]-2-phenylbut-1-enyl]phenol
Formula: C26H29NO2
Exact mass: 387.2198292
SMILES: CCC(=C(C1=CC=C(O)C=C1)C1=CC=C(OCCN(C)C)C=C1)C1=CC=CC=C1
InChI: InChI=1S/C26H29NO2/c1-4-25(20-8-6-5-7-9-20)26(21-10-14-23(28)15-11-21)22-12-16-24(17-13-22)29-19-18-27(2)3/h5-17,28H,4,18-19H2,1-3H3
Instrument: Bruker maXis Impact
Instrument type: LC-ESI-QTOF
Ms type: MS2
Ion mode: POSITIVE
Ionization: ESI
Fragmentation mode: CID
Collision energy: 50 eV
Resolution: 35000
Column name: Acclaim RSLC C18 2.2um, 2.1x100mm, Thermo
Retention time: 9.086 min
Base peak: 388.2272
Precursor m/z: 388.2271
Precursor type: [M+H]+
m/z	relative intensity	assigned
115.0537	45	C9H7+
116.057	7	C8[13]CH7+
117.0697	21	C9H9+
119.0483	12	C8H7O+
121.027	7	C7H5O2+
121.0642	31	C8H9O+
126.0453	7	C10H6+
127.0537	45	C10H7+
128.061	223	C10H8+
129.0686	311	C10H9+
130.0432	5	C9H6O+
130.073	46	C9[13]CH9+
131.0478	29	C9H7O+
132.0553	6	C9H8O+
133.064	10	C9H9O+
141.0685	28	C11H9+
143.0847	11	C11H11+
144.0555	22	C10H8O+
145.0638	261	C10H9O+
146.067	34	C9[13]CH9O+
147.0783	5	C10H11O+
149.0223	7	C11H3N+
152.0603	30	C12H8+
153.068	30	C12H9+
154.0754	9	C12H10+
155.0842	12	C12H11+
157.0628	13	C11H9O+
164.0616	8	C13H8+
165.0686	651	C13H9+
166.0764	999	C13H10+
167.0812	121	C12[13]CH10+
168.0557	7	C12H8O+
168.0869	14	C11[13]C2H10+
169.0624	15	C12H9O+
171.0792	15	C12H11O+
176.0626	6	C14H8+
177.0681	24	C14H9+
178.0759	104	C14H10+
179.0831	74	C14H11+
180.0555	8	C13H8O+
180.0908	28	C14H12+
181.0645	46	C13H9O+
181.0984	16	C14H13+
182.0709	21	C13H10O+
183.0794	63	C13H11O+
184.0834	12	C12[13]CH11O+
189.0671	22	C15H9+
190.0754	27	C15H10+
191.0846	52	C15H11+
192.0919	19	C15H12+
193.0996	40	C15H13+
194.0715	250	C14H10O+
195.077	75	C14H11O+
195.1173	7	C15H15+
196.0847	16	C13[13]CH11O+
197.0586	34	C13H9O2+
197.0939	6	C14H13O+
198.0656	8	C12[13]CH9O2+
199.0739	93	C13H11O2+
200.0771	14	C12[13]CH11O2+
202.0772	41	C16H10+
203.0847	41	C16H11+
204.0907	19	C16H12+
205.0646	7	C15H9O+
205.0997	28	C16H13+
206.0717	8	C15H10O+
206.1042	11	C16H14+
207.0792	424	C15H11O+
208.086	179	C15H12O+
209.0929	70	C15H13O+
210.0665	85	C14H10O2+
210.0989	9	C14[13]CH13O+
211.0727	31	C14H11O2+
215.0855	25	C17H11+
216.0916	16	C17H12+
217.0999	8	C17H13+
218.0714	5	C16H10O+
219.0803	41	C16H11O+
220.0871	36	C16H12O+
221.095	93	C16H13O+
222.1023	79	C16H14O+
223.0743	136	C15H11O2+
223.1086	23	C15[13]CH14O+
224.0795	48	C15H12O2+
225.0895	22	C15H13O2+
226.0741	7	C18H10+
226.0913	5	C14[13]CH13O2+
227.0831	9	C18H11+
228.0933	12	C18H12+
229.0997	14	C18H13+
230.1042	6	C18H14+
231.0793	31	C17H11O+
232.087	14	C17H12O+
233.0947	15	C17H13O+
234.1024	27	C17H14O+
235.1072	6	C16[13]CH14O+
237.0906	33	C16H13O2+
238.0951	17	C16H14O2+
239.086	13	C19H11+
239.1047	7	C16H15O2+
240.092	11	C19H12+
241.1007	34	C19H13+
242.104	11	C18[13]CH13+
244.0865	30	C18H12O+
245.0963	25	C18H13O+
246.1011	10	C18H14O+
250.0764	6	C20H10+
251.0845	9	C20H11+
252.0922	26	C20H12+
253.1	33	C20H13+
254.1086	9	C19[13]CH13+
255.0816	14	C19H11O+
255.1145	12	C20H15+
256.0881	15	C19H12O+
257.096	54	C19H13O+
258.1022	38	C19H14O+
259.1092	26	C19H15O+
260.1145	9	C19H16O+
265.1033	7	C21H13+
266.1086	7	C21H14+
267.1161	7	C21H15+
268.0865	20	C20H12O+
269.0951	92	C20H13O+
270.1022	88	C20H14O+
271.0751	5	C19H11O2+
271.1097	52	C20H15O+
272.1162	19	C20H16O+
273.09	11	C19H13O2+
273.1242	13	C20H17O+
281.0951	20	C21H13O+
282.1036	13	C21H14O+
283.1117	41	C21H15O+
284.1192	18	C21H16O+
285.0918	19	C20H13O2+
285.1223	8	C21H17O+
286.097	44	C20H14O2+
286.1332	6	C21H18O+
287.1042	19	C20H15O2+
295.1114	16	C22H15O+
296.1188	6	C21[13]CH15O+
297.1265	6	C22H17O+
298.0977	5	C21H14O2+
299.1067	42	C21H15O2+
300.1122	17	C21H16O2+
301.1213	72	C21H17O2+
302.1259	18	C20[13]CH17O2+
313.1206	7	C22H17O2+
314.127	7	C22H18O2+
315.1371	12	C22H19O2+
