Mass spectrum: Memantine; LC-ESI-QTOF; MS2; CE: 50 eV; R=35000; [M+H]+
Name: Memantine
Name: 3,5-dimethyladamantan-1-amine
Formula: C12H21N
Exact mass: 179.1673997
SMILES: CC12CC3CC(C)(C1)CC(N)(C3)C2
InChI: InChI=1S/C12H21N/c1-10-3-9-4-11(2,6-10)8-12(13,5-9)7-10/h9H,3-8,13H2,1-2H3
Instrument: Bruker maXis Impact
Instrument type: LC-ESI-QTOF
Ms type: MS2
Ion mode: POSITIVE
Ionization: ESI
Fragmentation mode: CID
Collision energy: 50 eV
Resolution: 35000
Column name: Acclaim RSLC C18 2.2um, 2.1x100mm, Thermo
Retention time: 6.718 min
Base peak: 180.174
Precursor m/z: 180.1747
Precursor type: [M+H]+
m/z	relative intensity	assigned
119.0855	623	C9H11+
121.1007	888	C9H13+
135.1156	301	C10H15+
163.1472	999	C12H19+
