Mass spectrum: Gemfibrozil; LC-ESI-QTOF; MS2; CE: 20 eV; R=35000; [M+H]+
Name: Gemfibrozil
Name: 5-(2,5-dimethylphenoxy)-2,2-dimethylpentanoic acid
Formula: C15H22O3
Exact mass: 250.1568946
SMILES: CC1=CC(OCCCC(C)(C)C(O)=O)=C(C)C=C1
InChI: InChI=1S/C15H22O3/c1-11-6-7-12(2)13(10-11)18-9-5-8-15(3,4)14(16)17/h6-7,10H,5,8-9H2,1-4H3,(H,16,17)
Instrument: Bruker maXis Impact
Instrument type: LC-ESI-QTOF
Ms type: MS2
Ion mode: POSITIVE
Ionization: ESI
Fragmentation mode: CID
Collision energy: 20 eV
Resolution: 35000
Column name: Acclaim RSLC C18 2.2um, 2.1x100mm, Thermo
Retention time: 11.940 min
Base peak: 251.1638
Precursor m/z: 251.1642
Precursor type: [M+H]+
m/z	relative intensity	assigned
123.0801	266	C8H11O+
129.09	999	C7H13O2+
130.0924	104	C6[13]CH13O2+
135.0791	39	C9H11O+
137.0955	39	C9H13O+
161.0947	99	C11H13O+
189.1644	32	C14H21+
191.178	32	C14H23+
233.1494	33	C15H21O2+
