Mass spectrum: 2-Amino-3-methyl-imidazo[4,5-f]quinoline (IQ); LC-ESI-QTOF; MS2; CE: 10 eV; R=35000; [M+H]+
Name: 2-Amino-3-methyl-imidazo[4,5-f]quinoline (IQ)
Name: 2-Amino-3-methylimidazo[4,5-f]quinoline
Name: 3-methylimidazo[4,5-f]quinolin-2-amine
Formula: C11H10N4
Exact mass: 198.0905463
SMILES: CN1C(N)=NC2=C1C=CC1=NC=CC=C21
InChI: InChI=1S/C11H10N4/c1-15-9-5-4-8-7(3-2-6-13-8)10(9)14-11(15)12/h2-6H,1H3,(H2,12,14)
Instrument: Bruker maXis Impact
Instrument type: LC-ESI-QTOF
Ms type: MS2
Ion mode: POSITIVE
Ionization: ESI
Fragmentation mode: CID
Collision energy: 10 eV
Resolution: 35000
Column name: Acclaim RSLC C18 2.2um, 2.1x100mm, Thermo
Retention time: 3.824 min
Base peak: 199.0969
Precursor m/z: 199.0978
Precursor type: [M+H]+
m/z	relative intensity	assigned
184.0732	5	C10H8N4+
199.0975	999	C11H11N4+
200.1001	112	C10[13]CH11N4+
201.1023	5	C9[13]C2H11N4+
