Mass spectrum: Erythromycin; LC-ESI-QTOF; MS2; CE: Ramp 30.5-45.7 eV; R=35000; [M+H]+
Name: Erythromycin
Name: (3R,4S,5S,6R,7R,9R,11R,12R,13S,14R)-6-[(2S,3R,4S,6R)-4-(dimethylamino)-3-hydroxy-6-methyloxan-2-yl]oxy-14-ethyl-7,12,13-trihydroxy-4-[(2R,4R,5S,6S)-5-hydroxy-4-methoxy-4,6-dimethyloxan-2-yl]oxy-3,5,7,9,11,13-hexamethyl-oxacyclotetradecane-2,10-dione
Formula: C37H67NO13
Exact mass: 733.4612412
SMILES: CC[C@H]1OC(=O)[C@H](C)[C@@H](O[C@H]2C[C@@](C)(OC)[C@@H](O)[C@H](C)O2)[C@H](C)[C@@H](O[C@@H]2O[C@H](C)C[C@@H]([C@H]2O)N(C)C)[C@](C)(O)C[C@@H](C)C(=O)[C@H](C)[C@@H](O)[C@]1(C)O
InChI: InChI=1S/C37H67NO13/c1-14-25-37(10,45)30(41)20(4)27(39)18(2)16-35(8,44)32(51-34-28(40)24(38(11)12)15-19(3)47-34)21(5)29(22(6)33(43)49-25)50-26-17-36(9,46-13)31(42)23(7)48-26/h18-26,28-32,34,40-42,44-45H,14-17H2,1-13H3/t18-,19-,20+,21+,22-,23+,24+,25-,26+,28-,29+,30-,31+,32-,34+,35-,36-,37-/m1/s1
Instrument: Bruker maXis Impact
Instrument type: LC-ESI-QTOF
Ms type: MS2
Ion mode: POSITIVE
Ionization: ESI
Fragmentation mode: CID
Collision energy: Ramp 30.5-45.7 eV
Resolution: 35000
Column name: Acclaim RSLC C18 2.2um, 2.1x100mm, Thermo
Retention time: 7.403 min
Base peak: 231.1494
Precursor m/z: 734.4685
Precursor type: [M+H]+
m/z	relative intensity	assigned
83.0489	17	C5H7O+
116.0688	15	C2H12O5+
116.1067	45	C6H14NO+
123.0787	9	C8H11O+
127.0737	18	C7H11O2+
158.1167	999	C8H16NO2+
159.1201	92	C7[13]CH16NO2+
160.1229	7	C12H16+
176.1264	8	C5H20O6+
233.1538	12	C15H21O2+
316.2101	15	C13H32O8+
365.2308	5	C21H33O5+
408.2707	5	C20H40O8+
522.3419	14	C29H48NO7+
523.3463	6	C28[13]CH48NO7+
540.3542	18	C29H50NO8+
541.356	8	C28[13]CH50NO8+
558.3639	37	C26H54O12+
559.3659	11	C25[13]CH54O12+
576.3733	76	C36H50NO5+
577.3772	25	C35[13]CH50NO5+
578.3797	8	C34[13]C2H50NO5+
734.4747	9	C37H68NO13+
