Mass spectrum: Hexa(methoxymethyl)melamine; LC-ESI-QTOF; MS2; CE: 30 eV; R=35000; [M+H]+
Name: Hexa(methoxymethyl)melamine
Name: 2-N,2-N,4-N,4-N,6-N,6-N-hexakis(methoxymethyl)-1,3,5-triazine-2,4,6-triamine
Formula: C15H30N6O6
Exact mass: 390.2226827
SMILES: COCN(COC)C1=NC(=NC(=N1)N(COC)COC)N(COC)COC
InChI: InChI=1S/C15H30N6O6/c1-22-7-19(8-23-2)13-16-14(20(9-24-3)10-25-4)18-15(17-13)21(11-26-5)12-27-6/h7-12H2,1-6H3
Instrument: Bruker maXis Impact
Instrument type: LC-ESI-QTOF
Ms type: MS2
Ion mode: POSITIVE
Ionization: ESI
Fragmentation mode: CID
Collision energy: 30 eV
Resolution: 35000
Column name: Acclaim RSLC C18 2.2um, 2.1x100mm, Thermo
Retention time: 7.607 min
Base peak: 391.229
Precursor m/z: 391.23
Precursor type: [M+H]+
m/z	relative intensity	assigned
177.0878	999	C6H13N2O4+
178.09	100	C5[13]CH13N2O4+
207.0983	562	C7H15N2O5+
208.1011	64	C6[13]CH15N2O5+
253.1406	43	C10H17N6O2+
283.1504	38	C11H19N6O3+
284.1498	6	C10[13]CH19N6O3+
329.1924	11	C13H25N6O4+
