Mass spectrum: Methylparaben; LC-ESI-QTOF; MS2; CE: 10 eV; R=35000; [M-H]-
Name: Methylparaben
Name: methyl 4-hydroxybenzoate
Formula: C8H8O3
Exact mass: 152.0473441
SMILES: COC(=O)C1=CC=C(O)C=C1
InChI: InChI=1S/C8H8O3/c1-11-8(10)6-2-4-7(9)5-3-6/h2-5,9H,1H3
Instrument: Bruker maXis Impact
Instrument type: LC-ESI-QTOF
Ms type: MS2
Ion mode: NEGATIVE
Ionization: ESI
Fragmentation mode: CID
Collision energy: 10 eV
Resolution: 35000
Column name: Acclaim RSLC C18 2.2um, 2.1x100mm, Thermo
Retention time: 5.973 min
Base peak: 151.0401
Precursor m/z: 151.0401
Precursor type: [M-H]-
m/z	relative intensity	assigned
136.0165	353	C7H4O3-
151.0399	999	C8H7O3-
152.0422	128	C7[13]CH7O3-
