Mass spectrum: Oxybutynin; LC-ESI-QTOF; MS2; CE: 30 eV; R=35000; [M+H]+
Name: Oxybutynin
Name: 4-(diethylamino)but-2-ynyl 2-cyclohexyl-2-hydroxy-2-phenylacetate
Formula: C22H31NO3
Exact mass: 357.2303939
SMILES: CCN(CC)CC#CCOC(=O)C(O)(C1CCCCC1)C1=CC=CC=C1
InChI: InChI=1S/C22H31NO3/c1-3-23(4-2)17-11-12-18-26-21(24)22(25,19-13-7-5-8-14-19)20-15-9-6-10-16-20/h5,7-8,13-14,20,25H,3-4,6,9-10,15-18H2,1-2H3
Instrument: Bruker maXis Impact
Instrument type: LC-ESI-QTOF
Ms type: MS2
Ion mode: POSITIVE
Ionization: ESI
Fragmentation mode: CID
Collision energy: 30 eV
Resolution: 35000
Column name: Acclaim RSLC C18 2.2um, 2.1x100mm, Thermo
Retention time: 8.478 min
Base peak: 358.2383
Precursor m/z: 358.2377
Precursor type: [M+H]+
m/z	relative intensity	assigned
117.0692	5	C9H9+
122.0953	38	C8H12N+
124.1112	253	C8H14N+
125.1154	26	C7[13]CH14N+
128.061	10	C10H8+
129.0686	73	C10H9+
130.0723	7	C9[13]CH9+
141.0685	8	C11H9+
142.1216	999	C8H16NO+
143.0843	16	C11H11+
143.1249	77	C7[13]CH16NO+
157.0633	15	C11H9O+
171.1158	131	C13H15+
172.1191	18	C12[13]CH15+
173.0589	19	C11H9O2+
181.0995	13	C14H13+
185.0583	20	C12H9O2+
187.074	21	C12H11O2+
189.1265	245	C13H17O+
190.1299	34	C12[13]CH17O+
199.1108	80	C14H15O+
200.1142	13	C13[13]CH15O+
203.0695	23	C12H11O3+
211.0979	7	C14H13NO+
212.1062	7	C14H14NO+
217.1215	7	C14H17O2+
229.1089	11	C14H15NO2+
258.1484	28	C16H20NO2+
259.1524	6	C15[13]CH20NO2+
267.1376	17	C18H19O2+
340.2267	100	C22H30NO2+
341.2298	22	C21[13]CH30NO2+
358.2379	685	C22H32NO3+
359.2407	142	C21[13]CH32NO3+
360.2439	19	C20[13]C2H32NO3+
