Mass spectrum: Pirimicarb; LC-ESI-QTOF; MS2; CE: 50 eV; R=35000; [M+H]+
Name: Pirimicarb
Name: [2-(dimethylamino)-5,6-dimethylpyrimidin-4-yl] N,N-dimethylcarbamate
Formula: C11H18N4O2
Exact mass: 238.1429758
SMILES: CN(C)C(=O)OC1=C(C)C(C)=NC(=N1)N(C)C
InChI: InChI=1S/C11H18N4O2/c1-7-8(2)12-10(14(3)4)13-9(7)17-11(16)15(5)6/h1-6H3
Instrument: Bruker maXis Impact
Instrument type: LC-ESI-QTOF
Ms type: MS2
Ion mode: POSITIVE
Ionization: ESI
Fragmentation mode: CID
Collision energy: 50 eV
Resolution: 35000
Column name: Acclaim RSLC C18 2.2um, 2.1x100mm, Thermo
Retention time: 7.740 min
Base peak: 239.1504
Precursor m/z: 239.1503
Precursor type: [M+H]+
m/z	relative intensity	assigned
109.0754	16	C6H9N2+
121.073	16	C2H9N4O2+
123.0541	258	C6H7N2O+
124.0619	219	C6H8N2O+
124.085	29	C6H10N3+
125.0683	21	C5[13]CH8N2O+
134.0688	18	C7H8N3+
136.086	26	C7H10N3+
137.0698	271	C7H9N2O+
137.0923	14	C7H11N3+
138.0773	589	C7H10N2O+
138.1018	54	C7H12N3+
139.0841	99	C7H11N2O+
140.0873	13	C6[13]CH11N2O+
150.1017	77	C8H12N3+
152.0804	999	C7H10N3O+
153.0832	125	C6[13]CH10N3O+
164.0804	20	C8H10N3O+
165.1107	16	C8H13N4+
166.0959	135	C8H12N3O+
167.1027	73	C8H13N3O+
168.1101	19	C8H14N3O+
170.0675	101	C10H8N3+
171.068	15	C11H9NO+
180.1139	24	C11H16O2+
182.1267	105	C9H16N3O+
195.1585	26	C10H19N4+
