Mass spectrum: Dydrogesterone; LC-ESI-QTOF; MS2; CE: 30 eV; R=35000; [M+H]+
Name: Dydrogesterone
Name: (8S,9R,10S,13S,14S,17S)-17-acetyl-10,13-dimethyl-1,2,8,9,11,12,14,15,16,17-decahydrocyclopenta[a]phenanthren-3-one
Formula: C21H28O2
Exact mass: 312.2089301
SMILES: [H][C@@]12CC[C@H](C(C)=O)[C@@]1(C)CC[C@]1([H])[C@@]2([H])C=CC2=CC(=O)CC[C@@]12C
InChI: InChI=1S/C21H28O2/c1-13(22)17-6-7-18-16-5-4-14-12-15(23)8-10-20(14,2)19(16)9-11-21(17,18)3/h4-5,12,16-19H,6-11H2,1-3H3/t16-,17+,18-,19+,20+,21+/m0/s1
Instrument: Bruker maXis Impact
Instrument type: LC-ESI-QTOF
Ms type: MS2
Ion mode: POSITIVE
Ionization: ESI
Fragmentation mode: CID
Collision energy: 30 eV
Resolution: 35000
Column name: Acclaim RSLC C18 2.2um, 2.1x100mm, Thermo
Retention time: 10.715 min
Base peak: 313.2161
Precursor m/z: 313.2162
Precursor type: [M+H]+
m/z	relative intensity	assigned
115.0545	49	C9H7+
117.0691	73	C9H9+
118.0743	8	C8[13]CH9+
119.0851	239	C9H11+
120.0889	31	C8[13]CH11+
121.0642	210	C8H9O+
121.1005	120	C9H13+
122.0683	17	C7[13]CH9O+
122.1044	18	C8[13]CH13+
123.0797	167	C8H11O+
123.1164	27	C9H15+
124.0834	17	C7[13]CH11O+
125.0949	16	C8H13O+
127.0745	39	C7H11O2+
128.0615	89	C10H8+
129.0691	191	C10H9+
130.0754	41	C10H10+
131.0844	484	C10H11+
132.0565	14	C9H8O+
132.088	68	C9[13]CH11+
133.0641	132	C9H9O+
133.1001	460	C10H13+
134.1043	51	C9[13]CH13+
135.0794	108	C9H11O+
135.1156	160	C10H15+
136.0829	13	C8[13]CH11O+
136.1178	22	C9[13]CH15+
137.0952	151	C9H13O+
137.1321	11	C10H17+
138.0983	15	C8[13]CH13O+
139.1108	11	C9H15O+
141.0687	100	C11H9+
142.0762	112	C11H10+
143.084	456	C11H11+
144.055	9	C10H8O+
144.0897	82	C10[13]CH11+
145.0636	39	C10H9O+
145.1001	637	C11H13+
146.0709	27	C10H10O+
146.1036	82	C10[13]CH13+
147.0792	374	C10H11O+
147.1156	374	C11H15+
148.085	71	C10H12O+
148.1192	53	C10[13]CH15+
149.095	386	C10H13O+
149.131	69	C11H17+
150.0986	49	C9[13]CH13O+
150.1357	10	C10[13]CH17+
151.111	110	C10H15O+
152.0621	9	C12H8+
152.1146	9	C9[13]CH15O+
153.0702	22	C12H9+
153.1261	7	C10H17O+
154.0759	26	C12H10+
155.0843	418	C12H11+
156.0911	94	C12H12+
157.1	813	C12H13+
158.0713	59	C11H10O+
158.1042	124	C11[13]CH13+
159.0796	112	C11H11O+
159.1155	812	C12H15+
160.0858	31	C11H12O+
160.1196	100	C11[13]CH15+
161.0949	652	C11H13O+
161.1315	133	C12H17+
162.1005	97	C10[13]CH13O+
162.1344	18	C11[13]CH17+
163.1103	743	C11H15O+
164.1139	89	C10[13]CH15O+
165.0682	24	C13H9+
165.0898	8	C10H13O2+
165.127	14	C11H17O+
166.0759	22	C13H10+
167.0843	58	C13H11+
168.0916	44	C13H12+
169.1	431	C13H13+
170.1061	71	C12[13]CH13+
171.0791	158	C12H11O+
171.1156	738	C13H15+
172.0835	25	C11[13]CH11O+
172.1191	150	C12[13]CH15+
173.095	916	C12H13O+
173.1311	317	C13H17+
174.0992	118	C11[13]CH13O+
174.1342	64	C12[13]CH17+
175.1108	999	C12H15O+
175.1472	84	C13H19+
176.1149	156	C11[13]CH15O+
176.1509	15	C12[13]CH19+
177.1262	241	C12H17O+
178.0761	8	C14H10+
178.1293	35	C11[13]CH17O+
179.0841	36	C14H11+
180.0909	27	C14H12+
181.0999	228	C14H13+
182.1058	73	C14H14+
183.1158	524	C14H15+
184.0879	8	C13H12O+
184.1201	100	C13[13]CH15+
185.095	78	C13H13O+
185.1311	353	C14H17+
186.1002	21	C13H14O+
186.1352	66	C13[13]CH17+
187.1108	192	C13H15O+
187.1469	290	C14H19+
188.1158	37	C12[13]CH15O+
188.1514	48	C13[13]CH19+
189.1263	277	C13H17O+
189.1629	19	C14H21+
190.1296	39	C12[13]CH17O+
191.0866	6	C15H11+
191.1419	55	C13H19O+
192.0916	37	C15H12+
192.1467	9	C12[13]CH19O+
193.1006	84	C15H13+
194.1069	39	C15H14+
195.1159	378	C15H15+
196.1211	94	C14[13]CH15+
197.0957	31	C14H13O+
197.1315	568	C15H17+
198.101	18	C14H14O+
198.1356	110	C14[13]CH17+
199.1111	275	C14H15O+
199.1466	282	C15H19+
200.1159	62	C13[13]CH15O+
200.152	45	C14[13]CH19+
201.1261	224	C14H17O+
201.1625	67	C15H21+
202.1301	50	C13[13]CH17O+
202.166	14	C14[13]CH21+
203.1428	60	C14H19O+
204.144	6	C13[13]CH19O+
205.1024	8	C16H13+
205.1226	7	C13H17O2+
205.1574	12	C14H21O+
206.1078	23	C16H14+
207.1157	150	C16H15+
208.1238	63	C16H16+
209.1315	248	C16H17+
210.1031	11	C15H14O+
210.137	81	C16H18+
211.1108	136	C15H15O+
211.1473	883	C16H19+
212.1164	78	C15H16O+
212.1513	171	C15[13]CH19+
213.1265	183	C15H17O+
213.1628	221	C16H21+
214.1325	53	C15H18O+
214.1664	45	C15[13]CH21+
215.1419	132	C15H19O+
215.1777	50	C16H23+
216.1463	26	C14[13]CH19O+
216.1822	16	C16H24+
217.1208	7	C14H17O2+
217.1581	52	C15H21O+
218.1603	12	C14[13]CH21O+
219.1155	17	C17H15+
220.1225	24	C17H16+
221.1318	255	C17H17+
222.1376	84	C17H18+
223.1476	92	C17H19+
224.1188	16	C16H16O+
224.1533	42	C17H20+
225.1262	220	C16H17O+
225.163	477	C17H21+
226.1315	70	C16H18O+
226.1669	96	C16[13]CH21+
227.1427	127	C16H19O+
227.1786	115	C17H23+
228.1505	103	C16H20O+
228.1807	17	C16[13]CH23+
229.1579	466	C16H21O+
230.1617	85	C15[13]CH21O+
230.1973	7	C17H26+
231.1738	35	C16H23O+
232.1793	7	C15[13]CH23O+
233.1322	24	C18H17+
234.14	31	C18H18+
235.1477	140	C18H19+
236.1526	37	C17[13]CH19+
237.163	407	C18H21+
238.1329	19	C17H18O+
238.1663	91	C17[13]CH21+
239.1419	327	C17H19O+
239.1777	22	C18H23+
240.1476	97	C16[13]CH19O+
240.1869	9	C18H24+
241.1571	47	C17H21O+
241.1907	16	C18H25+
242.1677	27	C17H22O+
243.1737	110	C17H23O+
243.2083	7	C18H27+
244.1759	19	C16[13]CH23O+
245.1887	7	C17H25O+
247.1481	15	C19H19+
248.1542	39	C19H20+
249.1627	95	C19H21+
250.1674	19	C18[13]CH21+
251.1417	28	C18H19O+
251.1789	323	C19H23+
252.1474	14	C18H20O+
252.1845	157	C19H24+
253.158	114	C18H21O+
253.1943	630	C19H25+
254.1638	39	C18H22O+
254.1976	162	C18[13]CH25+
255.1739	499	C18H23O+
256.1774	93	C17[13]CH23O+
257.1526	18	C17H21O2+
257.1768	9	C16[13]C2H23O+
257.1878	7	C16[13]C2H23O+
258.1602	10	C17H22O2+
262.1709	25	C20H22+
265.1618	13	C19H21O+
265.1938	6	C20H25+
266.1669	44	C19H22O+
267.1738	70	C19H23O+
267.2105	43	C20H27+
268.1795	43	C19H24O+
269.1893	530	C19H25O+
270.193	118	C18[13]CH25O+
271.2049	253	C19H27O+
272.2091	53	C18[13]CH27O+
277.195	209	C21H25+
278.1976	53	C20[13]CH25+
280.1821	56	C20H24O+
281.187	27	C20H25O+
285.1837	12	C19H25O2+
285.2228	11	C20H29O+
295.2049	826	C21H27O+
296.2084	191	C20[13]CH27O+
297.2108	18	C19[13]C2H27O+
298.1919	63	C20H26O2+
299.1967	16	C19[13]CH26O2+
313.2159	929	C21H29O2+
314.2189	236	C20[13]CH29O2+
