Mass spectrum: 2,2`-Methylenebis(6-tert-butyl-1,4-ethylphenol); GC-APCI-QTOF; MS2; CE: 40 eV; R=35000; [M]+
Name: 2,2`-Methylenebis(6-tert-butyl-1,4-ethylphenol)
Formula: C25H36O2
Exact mass: 368.2715
SMILES: CCC1=CC(=C(C(=C1)C(C)(C)C)O)CC2=C(C(=CC(=C2)CC)C(C)(C)C)O
InChI: InChI=1S/C25H36O2/c1-9-16-11-18(22(26)20(13-16)24(3,4)5)15-19-12-17(10-2)14-21(23(19)27)25(6,7)8/h11-14,26-27H,9-10,15H2,1-8H3
Instrument: Bruker 450 GC coupled to maXis Impact
Instrument type: GC-APCI-QTOF
Ms type: MS2
Ion mode: POSITIVE
Ionization: APCI
Fragmentation mode: CID
Collision energy: 40 eV
Resolution: 35000
Column name: Rxi-5Sil MS column, 30m, 0.25mm i.d., 0.25Âµm film thickness, Restek
Retention time: 24.296 min
Base peak: 368.2719
Precursor m/z: 368.271
Precursor type: [M]+
m/z	relative intensity	assigned
115.0549	10	C9H7+
117.0701	20	C9H9+
119.0867	23	C9H11+
121.0645	10	C8H9O+
121.1012	11	C9H13+
123.0786	34	C8H11O+
129.0694	11	C10H9+
131.0874	12	C10H11+
133.0664	21	C9H9O+
133.1028	51	C10H13+
135.0816	297	C9H11O+
135.1168	54	C10H15+
136.1221	10	C10H16+
145.1045	17	C11H13+
147.0828	32	C10H11O+
147.12	36	C11H15+
149.099	44	C10H13O+
149.1334	13	C11H17+
150.1021	9	C10H14O+
151.1148	34	C10H15O+
159.1184	16	C12H15+
161.1001	49	C11H13O+
161.1364	13	C12H17+
163.1143	999	C11H15O+
164.1175	93	C11H16O+
175.114	377	C12H15O+
176.118	43	C12H16O+
178.1392	56	C12H18O+
187.1134	15	C13H15O+
190.1389	13	C13H18O+
191.1447	384	C13H19O+
192.1491	56	C13H20O+
255.142	10	C17H19O2+
