Mass spectrum: 2H-Perfluoro-2-octenoic acid (6:2) (FHUEA); LC-ESI-QTOF; MS2; CE: 40 eV; R=35000; [M-H]-
Name: 2H-Perfluoro-2-octenoic acid (6:2) (FHUEA)
Name: 2H-Perfluoro-2-octenoic acid
Name: (Z)-3,4,4,5,5,6,6,7,7,8,8,8-dodecafluorooct-2-enoic acid
Formula: C8H2F12O2
Exact mass: 357.9863
SMILES: C(=C(/C(C(C(C(C(F)(F)F)(F)F)(F)F)(F)F)(F)F)\F)\C(=O)O
InChI: InChI=1S/C8H2F12O2/c9-2(1-3(21)22)4(10,11)5(12,13)6(14,15)7(16,17)8(18,19)20/h1H,(H,21,22)/b2-1-
Instrument: Bruker maXis Impact
Instrument type: LC-ESI-QTOF
Ms type: MS2
Ionization: ESI
Fragmentation mode: CID
Collision energy: 40 eV
Resolution: 35000
Column name: Acclaim RSLC C18 2.2um, 2.1x100mm, Thermo
Retention time: 8.982 min
Base peak: 292.9854
Precursor m/z: 356.979
Precursor type: [M-H]-
m/z	relative intensity	assigned
142.9928	90	C4F5-
242.9871	266	C3HF10O-
243.9916	90	C6HF9-
292.9845	999	C4HF12O-
293.9875	676	C7HF11-
