Mass spectrum: Metalaxyl; LC-ESI-QTOF; MS2; CE: 20 eV; R=35000; [M+H]+
Name: Metalaxyl
Name: methyl 2-(N-(2-methoxyacetyl)-2,6-dimethylanilino)propanoate
Formula: C15H21NO4
Exact mass: 279.1470582
SMILES: COCC(=O)N(C(C)C(=O)OC)C1=C(C)C=CC=C1C
InChI: InChI=1S/C15H21NO4/c1-10-7-6-8-11(2)14(10)16(13(17)9-19-4)12(3)15(18)20-5/h6-8,12H,9H2,1-5H3
Instrument: Bruker maXis Impact
Instrument type: LC-ESI-QTOF
Ms type: MS2
Ion mode: POSITIVE
Ionization: ESI
Fragmentation mode: CID
Collision energy: 20 eV
Resolution: 35000
Column name: Acclaim RSLC C18 2.2um, 2.1x100mm, Thermo
Retention time: 8.259 min
Base peak: 280.1546
Precursor m/z: 280.1543
Precursor type: [M+H]+
m/z	relative intensity	assigned
133.0874	8	C9H11N+
134.0954	15	C9H12N+
145.0876	6	C10H11N+
146.095	15	C7H14O3+
148.111	92	C7H16O3+
149.114	9	C6[13]CH16O3+
160.1111	337	C8H16O3+
161.1143	35	C7[13]CH16O3+
162.1265	41	C11H16N+
165.1138	29	C10H15NO+
188.1056	7	C9H16O4+
192.1377	999	C9H20O4+
193.1409	131	C8[13]CH20O4+
194.1432	6	C7[13]C2H20O4+
208.1322	6	C12H18NO2+
220.1327	998	C13H18NO2+
221.1358	108	C12[13]CH18NO2+
222.138	8	C11[13]C2H18NO2+
248.1276	48	C14H18NO3+
249.1308	6	C13[13]CH18NO3+
280.1535	10	C15H22NO4+
