Mass spectrum: Oryzalin; LC-ESI-QTOF; MS2; CE: 40 eV; R=35000; [M-H]-
Name: Oryzalin
Name: 4-(dipropylamino)-3,5-dinitrobenzenesulfonamide
Formula: C12H18N4O6S
Exact mass: 346.0947053
SMILES: CCCN(CCC)C1=C(C=C(C=C1[N+]([O-])=O)S(N)(=O)=O)[N+]([O-])=O
InChI: InChI=1S/C12H18N4O6S/c1-3-5-14(6-4-2)12-10(15(17)18)7-9(23(13,21)22)8-11(12)16(19)20/h7-8H,3-6H2,1-2H3,(H2,13,21,22)
Instrument: Bruker maXis Impact
Instrument type: LC-ESI-QTOF
Ms type: MS2
Ion mode: NEGATIVE
Ionization: ESI
Fragmentation mode: CID
Collision energy: 40 eV
Resolution: 35000
Column name: Acclaim RSLC C18 2.2um, 2.1x100mm, Thermo
Retention time: 10.234 min
Base peak: 345.0866
Precursor m/z: 345.0874
Precursor type: [M-H]-
m/z	relative intensity	assigned
116.0245	208	C6H2N3-
121.0405	333	C6H5N2O-
129.0328	317	C7H3N3-
131.049	218	C7H5N3-
132.0368	210	C4H8N2OS-
133.0298	208	C8H5O2-
133.04	492	C7H5N2O-
144.0584	216	C10H8O-
145.0395	208	H9N4O3S-
146.0321	301	C4H6N2O4-
146.0435	279	C3H6N4O3-
147.0428	999	C7H5N3O-
148.0283	257	CH10NO5S-
149.0319	350	C2H5N4O4-
157.0617	218	C6H9N2O3-
159.0579	232	C3H13NO4S-
160.0613	355	C6H10NO4-
161.0692	309	C6H11NO4-
162.0309	265	C7H4N3O2-
174.0687	591	C11H10O2-
175.0469	224	C4H7N4O4-
182.0207	210	C6H4N3O4-
186.0091	317	C12N3-
187.0609	227	C8H11O5-
192.028	350	C7H4N4O3-
197.0027	309	C7H5N2O3S-
203.0547	292	C6H9N3O5-
212.0118	303	C12H4O4-
222.0347	254	C9H8N3O2S-
223.0389	235	C12H5N3O2-
226.985	309	C11HNO5-
226.9978	268	C10HN3O4-
228.0074	465	C12H4O5-
241.0036	366	C7H5N4O4S-
244.0009	303	C12H4O6-
267.0189	265	C9H7N4O4S-
268.0282	260	C11H10NO5S-
272.9912	227	C12H5N2O4S-
273.0031	290	C12H5N2O4S-
