Mass spectrum: Picoxystrobin; LC-ESI-QTOF; MS2; CE: Ramp 23.0-34.4 eV; R=35000; [M+H]+
Name: Picoxystrobin
Name: methyl (E)-3-methoxy-2-[2-[[6-(trifluoromethyl)pyridin-2-yl]oxymethyl]phenyl]prop-2-enoate
Formula: C18H16F3NO4
Exact mass: 367.1031427
SMILES: CO\C=C(\C(=O)OC)C1=CC=CC=C1COC1=CC=CC(=N1)C(F)(F)F
InChI: InChI=1S/C18H16F3NO4/c1-24-11-14(17(23)25-2)13-7-4-3-6-12(13)10-26-16-9-5-8-15(22-16)18(19,20)21/h3-9,11H,10H2,1-2H3/b14-11+
Instrument: Bruker maXis Impact
Instrument type: LC-ESI-QTOF
Ms type: MS2
Ion mode: POSITIVE
Ionization: ESI
Fragmentation mode: CID
Collision energy: Ramp 23.0-34.4 eV
Resolution: 35000
Column name: Acclaim RSLC C18 2.2um, 2.1x100mm, Thermo
Retention time: 10.586 min
Base peak: 317.1647
Precursor m/z: 368.1104
Precursor type: [M+H]+
m/z	relative intensity	assigned
115.0539	26	C9H7+
117.0697	37	C9H9+
129.069	5	C10H9+
130.0404	10	C9H6O+
131.0485	5	C9H7O+
131.0848	6	C10H11+
145.0643	999	C10H9O+
146.0679	117	C9[13]CH9O+
147.0756	6	C8[13]C2H9O+
173.0589	26	C11H9O2+
177.0904	40	C9H12F3+
178.0934	5	C8[13]CH12F3+
205.0855	140	C12H13O3+
206.0886	23	C11[13]CH13O3+
