Mass spectrum: Repaglinide; LC-ESI-QTOF; MS2; CE: 50 eV; R=35000; [M+H]+
Name: Repaglinide
Name: 2-ethoxy-4-[2-[[(1S)-3-methyl-1-(2-piperidin-1-ylphenyl)butyl]amino]-2-oxoethyl]benzoic acid
Formula: C27H36N2O4
Exact mass: 452.2675076
SMILES: CCOc1cc(ccc1C(=O)O)CC(=O)N[C@@H](CC(C)C)c2ccccc2N3CCCCC3
InChI: InChI=1S/C27H36N2O4/c1-4-33-25-17-20(12-13-22(25)27(31)32)18-26(30)28-23(16-19(2)3)21-10-6-7-11-24(21)29-14-8-5-9-15-29/h6-7,10-13,17,19,23H,4-5,8-9,14-16,18H2,1-3H3,(H,28,30)(H,31,32)/t23-/m0/s1
Instrument: Bruker maXis Impact
Instrument type: LC-ESI-QTOF
Ms type: MS2
Ion mode: POSITIVE
Ionization: ESI
Fragmentation mode: CID
Collision energy: 50 eV
Resolution: 35000
Column name: Acclaim RSLC C18 2.2um, 2.1x100mm, Thermo
Retention time: 12.062 min
Base peak: 453.2786
Precursor m/z: 453.2748
Precursor type: [M+H]+
m/z	relative intensity	assigned
118.0654	15	C8H8N+
120.0812	5	C8H10N+
130.0655	15	C9H8N+
131.0728	10	C9H9N+
132.0812	17	C9H10N+
144.0813	13	C10H10N+
145.0883	6	C10H11N+
146.0972	82	C10H12N+
147.1	7	C9[13]CH12N+
158.097	13	C11H12N+
159.1042	9	C11H13N+
160.1123	10	C11H14N+
162.1285	75	C11H16N+
163.1314	8	C10[13]CH16N+
172.113	42	C12H14N+
173.1192	14	C12H15N+
174.1287	348	C12H16N+
175.1321	33	C11[13]CH16N+
179.0709	13	C10H11O3+
186.1284	8	C13H16N+
188.1442	6	C13H18N+
189.0554	5	C11H9O3+
202.1602	15	C14H20N+
230.1926	999	C16H24N+
231.1954	202	C13H27O3+
232.1985	10	C12[13]CH27O3+
