Mass spectrum: Flurtamone; LC-ESI-QTOF; MS2; CE: 40 eV; R=35000; [M+H]+
Name: Flurtamone
Name: 5-(methylamino)-2-phenyl-4-[3-(trifluoromethyl)phenyl]furan-3-one
Formula: C18H14F3NO2
Exact mass: 333.0976633
SMILES: CNC1=C(C(=O)C(O1)C1=CC=CC=C1)C1=CC=CC(=C1)C(F)(F)F
InChI: InChI=1S/C18H14F3NO2/c1-22-17-14(12-8-5-9-13(10-12)18(19,20)21)15(23)16(24-17)11-6-3-2-4-7-11/h2-10,16,22H,1H3
Instrument: Bruker maXis Impact
Instrument type: LC-ESI-QTOF
Ms type: MS2
Ion mode: POSITIVE
Ionization: ESI
Fragmentation mode: CID
Collision energy: 40 eV
Resolution: 35000
Column name: Acclaim RSLC C18 2.2um, 2.1x100mm, Thermo
Retention time: 9.177 min
Base peak: 334.1057
Precursor m/z: 334.1049
Precursor type: [M+H]+
m/z	relative intensity	assigned
120.0798	20	C8H10N+
171.0405	22	C9H6F3+
178.0767	393	C14H10+
179.0802	44	C13[13]CH10+
196.0669	10	C14H9F+
197.0199	21	C13H3F2+
207.0597	54	C15H8F+
208.0628	7	C14[13]CH8F+
209.0751	15	C15H10F+
225.0149	15	C14H3F2O+
227.0662	319	C15H9F2+
228.0687	42	C14[13]CH9F2+
229.0804	11	C15H11F2+
237.0703	5	C16H10FO+
243.0256	7	C14H5F2O2+
246.0644	10	C15H9F3+
247.0728	999	C15H10F3+
248.0761	119	C14[13]CH10F3+
249.0814	8	C13[13]C2H10F3+
255.0606	5	C16H9F2O+
257.0765	9	C16H11F2O+
259.072	5	C16H10F3+
275.0675	47	C16H10F3O+
276.0705	7	C15[13]CH10F3O+
288.0989	8	C17H13F3N+
303.0624	9	C17H10F3O2+
306.1097	9	C17H15F3NO+
