Mass spectrum: Metribuzin-desamino; LC-ESI-QTOF; MS2; CE: 40 eV; R=35000; [M+H]+
Name: Metribuzin-desamino
Name: Deaminated sencor
Name: 6-tert-butyl-3-methylsulfanyl-2H-1,2,4-triazin-5-one
Formula: C8H13N3OS
Exact mass: 199.077933
SMILES: CSC1=NC(=O)C(=NN1)C(C)(C)C
InChI: InChI=1S/C8H13N3OS/c1-8(2,3)5-6(12)9-7(13-4)11-10-5/h1-4H3,(H,9,11,12)
Instrument: Bruker maXis Impact
Instrument type: LC-ESI-QTOF
Ms type: MS2
Ion mode: POSITIVE
Ionization: ESI
Fragmentation mode: CID
Collision energy: 40 eV
Resolution: 35000
Column name: Acclaim RSLC C18 2.2um, 2.1x100mm, Thermo
Retention time: 7.1 min
Base peak: 200.0847
Precursor m/z: 200.0852
Precursor type: [M+H]+
m/z	relative intensity	assigned
115.0197	8	C3H5N3S+
116.0273	106	C3H6N3S+
117.0291	9	C2[13]CH6N3S+
127.0195	27	C4H5N3S+
128.0286	8	C6H8OS+
130.0413	24	C7H4N3+
140.0271	14	C5H6N3S+
141.0348	63	C5H7N3S+
142.0423	929	C5H8N3S+
143.0454	60	C4[13]CH8N3S+
156.0579	999	C6H10N3S+
157.0654	440	C6H11N3S+
158.0535	40	C6H10N3[34]S+
158.0683	39	C4H8N5O2+
159.0621	11	C6H11N2OS+
170.0375	30	C6H8N3OS+
172.0892	144	C7H14N3S+
173.0938	12	C6[13]CH14N3S+
185.059	9	C7H11N3OS+
