Mass spectrum: Napropamide; LC-ESI-QTOF; MS2; CE: 40 eV; R=35000; [M+H]+
Name: Napropamide
Name: N,N-diethyl-2-naphthalen-1-yloxypropanamide
Formula: C17H21NO2
Exact mass: 271.1572289
SMILES: CCN(CC)C(=O)C(C)OC1=C2C=CC=CC2=CC=C1
InChI: InChI=1S/C17H21NO2/c1-4-18(5-2)17(19)13(3)20-16-12-8-10-14-9-6-7-11-15(14)16/h6-13H,4-5H2,1-3H3
Instrument: Bruker maXis Impact
Instrument type: LC-ESI-QTOF
Ms type: MS2
Ion mode: POSITIVE
Ionization: ESI
Fragmentation mode: CID
Collision energy: 40 eV
Resolution: 35000
Column name: Acclaim RSLC C18 2.2um, 2.1x100mm, Thermo
Retention time: 10.1 min
Base peak: 272.1642
Precursor m/z: 272.1645
Precursor type: [M+H]+
m/z	relative intensity	assigned
114.0908	9	C6H12NO+
115.0533	15	C9H7+
127.0539	13	C10H7+
128.1063	65	C7H14NO+
129.0677	36	C10H9+
129.1139	324	C7H15NO+
130.1167	26	C2H16N3O3+
141.0688	7	C11H9+
143.0844	264	C11H11+
144.0557	28	C10H8O+
144.088	31	C6H12N2O2+
145.0636	31	C10H9O+
152.0607	42	C12H8+
153.0684	145	C12H9+
154.0716	19	C7H10N2O2+
155.0589	24	C7H9NO3+
156.0637	7	C7H10NO3+
169.0637	8	C12H9O+
170.0713	5	C12H10O+
171.0796	999	C12H11O+
172.0827	162	C11[13]CH11O+
173.0847	11	C10[13]C2H11O+
181.0754	33	C12H9N2+
182.0783	5	C11[13]CH9N2+
199.0745	29	C13H11O2+
