Mass spectrum: Dronedarone; LC-ESI-QTOF; MS2; CE: 40 eV; R=35000; [M+H]+
Name: Dronedarone
Name: N-[2-butyl-3-[4-[3-(dibutylamino)propoxy]benzoyl]-1-benzofuran-5-yl]methanesulfonamide
Formula: C31H44N2O5S
Exact mass: 556.2970935
SMILES: CCCCc1c(c2cc(ccc2o1)NS(=O)(=O)C)C(=O)c3ccc(cc3)OCCCN(CCCC)CCCC
InChI: InChI=1S/C31H44N2O5S/c1-5-8-12-29-30(27-23-25(32-39(4,35)36)15-18-28(27)38-29)31(34)24-13-16-26(17-14-24)37-22-11-21-33(19-9-6-2)20-10-7-3/h13-18,23,32H,5-12,19-22H2,1-4H3
Instrument: Bruker maXis Impact
Instrument type: LC-ESI-QTOF
Ms type: MS2
Ion mode: POSITIVE
Ionization: ESI
Fragmentation mode: CID
Collision energy: 40 eV
Resolution: 35000
Column name: Acclaim RSLC C18 2.2um, 2.1x100mm, Thermo
Retention time: 10.305 min
Base peak: 557.3086
Precursor m/z: 557.3044
Precursor type: [M+H]+
m/z	relative intensity	assigned
128.1436	9	C8H18N+
142.1596	140	C3H26O3S+
170.1911	83	C5H30O3S+
294.0813	33	C17H14N2OS+
379.2031	7	C23H27N2O3+
435.2676	285	C24H39N2O3S+
436.2706	65	C27H36N2O3+
437.2726	8	C26[13]CH36N2O3+
501.245	32	C27H37N2O5S+
502.2483	9	C26[13]CH37N2O5S+
557.3096	999	C31H45N2O5S+
558.3117	400	C30[13]CH45N2O5S+
559.3109	79	C29[13]C2H45N2O5S+
