Mass spectrum: 5-Methyl-1H-benzotriazole; LC-ESI-QTOF; MS2; CE: Ramp 20-30 eV; R=35000; [M+H]+
Name: 5-Methyl-1H-benzotriazole
Name: 5-methyl-2H-benzotriazole
Formula: C7H7N3
Exact mass: 133.0639972
SMILES: CC1=CC=C2NN=NC2=C1
InChI: InChI=1S/C7H7N3/c1-5-2-3-6-7(4-5)9-10-8-6/h2-4H,1H3,(H,8,9,10)
Instrument: Bruker maXis Impact
Instrument type: LC-ESI-QTOF
Ms type: MS2
Ion mode: POSITIVE
Ionization: ESI
Fragmentation mode: CID
Collision energy: Ramp 20-30 eV
Resolution: 35000
Column name: Acclaim RSLC C18 2.2um, 2.1x100mm, Thermo
Retention time: 5.782 min
Base peak: 134.0711
Precursor m/z: 134.0713
Precursor type: [M+H]+
m/z	relative intensity	assigned
51.0224	5	C4H3+
53.0381	37	C4H5+
66.0457	7	C5H6+
67.0409	10	C4H5N+
77.0382	36	C6H5+
78.0334	5	C5H4N+
78.0455	5	C6H6+
79.054	513	C6H7+
80.0496	17	C5H6N+
80.0578	26	C5[13]CH7+
89.039	10	C7H5+
91.0421	10	C6H5N+
95.0495	93	C4H5N3+
96.0524	6	C3[13]CH5N3+
105.0458	76	C6H5N2+
106.0661	67	C7H8N+
134.0708	999	C7H8N3+
135.0735	105	C6[13]CH8N3+
