Mass spectrum: 2H-Perfluoro-2-octenoic acid (6:2) (FHUEA); LC-ESI-QTOF; MS2; CE: 22.7-34.1 eV; R=35000; [M-H]-
Name: 2H-Perfluoro-2-octenoic acid (6:2) (FHUEA)
Formula: C8H2F12O2
Exact mass: 357.9863
SMILES: C(=C(/C(C(C(C(C(F)(F)F)(F)F)(F)F)(F)F)(F)F)\F)\C(=O)O
InChI: InChI=1S/C8H2F12O2/c9-2(1-3(21)22)4(10,11)5(12,13)6(14,15)7(16,17)8(18,19)20/h1H,(H,21,22)/b2-1-
Instrument: Bruker maXis Impact
Instrument type: LC-ESI-QTOF
Ms type: MS2
Ionization: ESI
Fragmentation mode: CID
Collision energy: 22.7-34.1 eV
Resolution: 35000
Column name: Acclaim RSLC C18 2.2um, 2.1x100mm, Thermo
Retention time: 9.031 min
Base peak: 59.0128
Precursor m/z: 356.979
Precursor type: [M-H]-
m/z	relative intensity	assigned
242.9857	34	C6F9-
243.9885	15	C6HF9-
292.9839	999	C4HF12O-
293.9868	658	C7HF11-
294.9878	15	C6HF10O2-
