Mass spectrum: Orlistat; LC-ESI-QTOF; MS2; CE: Ramp 25.5-38.3 eV; R=35000; [M+H]+
Name: Orlistat
Name: [(2S)-1-[(2S,3S)-3-hexyl-4-oxooxetan-2-yl]tridecan-2-yl] (2S)-2-formamido-4-methylpentanoate
Formula: C29H53NO5
Exact mass: 495.3923738
SMILES: CCCCCCCCCCC[C@@H](C[C@@H]1OC(=O)[C@H]1CCCCCC)OC(=O)[C@H](CC(C)C)NC=O
InChI: InChI=1S/C29H53NO5/c1-5-7-9-11-12-13-14-15-16-18-24(34-29(33)26(30-22-31)20-23(3)4)21-27-25(28(32)35-27)19-17-10-8-6-2/h22-27H,5-21H2,1-4H3,(H,30,31)/t24-,25-,26-,27-/m0/s1
Instrument: Bruker maXis Impact
Instrument type: LC-ESI-QTOF
Ms type: MS2
Ion mode: POSITIVE
Ionization: ESI
Fragmentation mode: CID
Collision energy: Ramp 25.5-38.3 eV
Resolution: 35000
Column name: Acclaim RSLC C18 2.2um, 2.1x100mm, Thermo
Retention time: 14.514 min
Base peak: 102.1282
Precursor m/z: 496.3997
Precursor type: [M+H]+
m/z	relative intensity	assigned
114.0921	95	C6H12NO+
132.1011	157	C6H14NO2+
133.0845	184	C6H13O3+
137.131	105	C10H17+
142.0848	157	C4H14O5+
149.0424	115	C5H9O5+
151.1476	112	C11H19+
160.0951	177	C7H14NO3+
167.0555	189	C8H9NO3+
177.1102	141	C8H17O4+
179.1425	112	C12H19O+
181.0712	289	C9H11NO3+
193.1934	201	C14H25+
217.1329	120	C10H19NO4+
223.0629	300	C14H9NO2+
224.0607	134	C18H8+
225.0424	290	C13H7NO3+
226.045	107	C17H6O+
237.0787	675	C15H11NO2+
238.0792	223	C19H10+
239.0757	122	C18H9N+
283.1752	158	C15H25NO4+
283.2597	280	C18H35O2+
291.307	146	C21H39+
299.0613	122	C19H9NO3+
301.2869	148	C22H37+
319.2996	188	C22H39O+
320.3008	96	C21H38NO+
337.3079	96	C22H41O2+
357.0142	222	C24H5O4+
358.0139	137	C23H4NO4+
359.0281	999	C23H5NO4+
360.0291	317	C22[13]CH5NO4+
361.0276	335	C27H5O2+
394.1676	407	C23H24NO5+
395.1738	150	C22[13]CH24NO5+
429.0935	146	C28H15NO4+
