Mass spectrum: 2-Amino-1-methyl-6-phenylimidazo[4,5-b]pyridine (PhIP); LC-ESI-QTOF; MS2; CE: 50 eV; R=35000; [M+H]+
Name: 2-Amino-1-methyl-6-phenylimidazo[4,5-b]pyridine (PhIP)
Name: 2-Amino-1-methyl-6-phenylimidazo[4,5-b]pyridine
Name: 1-methyl-6-phenylimidazo[4,5-b]pyridin-2-amine
Formula: C13H12N4
Exact mass: 224.1061964
SMILES: CN1C(N)=NC2=NC=C(C=C12)C1=CC=CC=C1
InChI: InChI=1S/C13H12N4/c1-17-11-7-10(9-5-3-2-4-6-9)8-15-12(11)16-13(17)14/h2-8H,1H3,(H2,14,15,16)
Instrument: Bruker maXis Impact
Instrument type: LC-ESI-QTOF
Ms type: MS2
Ion mode: POSITIVE
Ionization: ESI
Fragmentation mode: CID
Collision energy: 50 eV
Resolution: 35000
Column name: Acclaim RSLC C18 2.2um, 2.1x100mm, Thermo
Retention time: 5.714 min
Base peak: 225.1128
Precursor m/z: 225.1135
Precursor type: [M+H]+
m/z	relative intensity	assigned
113.038	8	C9H5+
114.0456	25	C9H6+
115.0535	92	C9H7+
116.0568	12	C8[13]CH7+
117.0559	18	C8H7N+
126.0452	9	C10H6+
127.0529	40	C10H7+
128.0482	41	C9H6N+
128.06	21	C10H8+
129.0558	37	C9H7N+
130.064	143	C9H8N+
131.0677	14	C8[13]CH8N+
132.0422	5	C6H4N4+
139.0406	5	C10H5N+
139.0525	5	C11H7+
140.0483	389	C10H6N+
141.0556	190	C10H7N+
142.0628	67	C10H8N+
143.0711	51	C10H9N+
144.0754	7	C9[13]CH9N+
145.0632	24	C8H7N3+
146.059	17	C7H6N4+
147.0647	14	C7H7N4+
152.0476	7	C11H6N+
153.0555	12	C11H7N+
154.0636	48	C11H8N+
155.0591	278	C10H7N2+
156.0656	82	C10H8N2+
157.0506	7	C8H5N4+
157.0741	64	C10H9N2+
158.0812	21	C10H10N2+
165.0431	12	C11H5N2+
166.0511	23	C11H6N2+
167.0588	122	C11H7N2+
168.0668	325	C11H8N2+
169.0733	110	C11H9N2+
170.0596	7	C9H6N4+
170.0789	16	C10[13]CH9N2+
179.0589	7	C12H7N2+
181.0743	19	C12H9N2+
182.0698	150	C11H8N3+
183.0776	268	C11H9N3+
184.0818	39	C10[13]CH9N3+
192.0542	9	C12H6N3+
193.0616	17	C12H7N3+
194.0688	7	C12H8N3+
196.0857	7	C12H10N3+
208.0848	12	C13H10N3+
209.0811	226	C12H9N4+
210.0889	999	C12H10N4+
211.0917	122	C11[13]CH10N4+
212.0934	7	C10[13]C2H10N4+
223.097	16	C13H11N4+
225.1124	54	C13H13N4+
226.115	8	C12[13]CH13N4+
