Mass spectrum: Metoprolol; LC-ESI-QTOF; MS2; CE: 50 eV; R=35000; [M+H]+
Name: Metoprolol
Name: 1-[4-(2-methoxyethyl)phenoxy]-3-(propan-2-ylamino)propan-2-ol
Formula: C15H25NO3
Exact mass: 267.1834437
SMILES: COCCC1=CC=C(OCC(O)CNC(C)C)C=C1
InChI: InChI=1S/C15H25NO3/c1-12(2)16-10-14(17)11-19-15-6-4-13(5-7-15)8-9-18-3/h4-7,12,14,16-17H,8-11H2,1-3H3
Instrument: Bruker maXis Impact
Instrument type: LC-ESI-QTOF
Ms type: MS2
Ion mode: POSITIVE
Ionization: ESI
Fragmentation mode: CID
Collision energy: 50 eV
Resolution: 35000
Column name: Acclaim RSLC C18 2.2um, 2.1x100mm, Thermo
Retention time: 4.760 min
Base peak: 268.1909
Precursor m/z: 268.1907
Precursor type: [M+H]+
m/z	relative intensity	assigned
115.0536	679	C9H7+
116.0611	244	C9H8+
116.1065	18	C6H14NO+
117.0692	74	C9H9+
118.0406	21	C8H6O+
119.0478	96	C8H7O+
119.086	21	C9H11+
120.0562	133	C8H8O+
120.0815	32	C8H10N+
121.064	707	C8H9O+
122.0677	83	C7[13]CH9O+
127.0536	38	C10H7+
128.0616	284	C10H8+
129.0686	217	C10H9+
130.0647	23	C9H8N+
130.0755	53	C10H10+
131.0486	212	C9H7O+
131.0845	159	C10H11+
132.056	41	C9H8O+
132.0872	19	C9[13]CH11+
133.0639	999	C9H9O+
134.0678	119	C8[13]CH9O+
135.0793	185	C9H11O+
135.1164	19	C10H15+
141.0697	181	C11H9+
144.0558	746	C10H8O+
145.0616	144	C10H9O+
146.0602	40	C9H8NO+
147.079	82	C10H11O+
148.0745	345	C9H10NO+
149.0591	31	C9H9O2+
149.0777	44	C8[13]CH10NO+
151.0734	46	C9H11O2+
155.0597	64	C7H9NO3+
156.0622	17	C7H10NO3+
156.0802	25	C11H10N+
157.0644	63	C11H9O+
158.0707	40	C11H10O+
159.0791	149	C11H11O+
160.0818	19	C10[13]CH11O+
165.0891	17	C10H13O2+
169.0762	28	C8H11NO3+
