Mass spectrum: Aflatoxin B1; LC-ESI-QTOF; MS2; CE: 30 eV; R=35000; [M+H]+
Name: Aflatoxin B1
Name: 4-(Methyloxy)-2,3,6a,9a-tetrahydrocyclopenta[c]furo[3`,2`:4,5]furo[2,3-h]chromene-1,11-dione
Name: 11-methoxy-6,8,19-trioxapentacyclo[10.7.0.02,9.03,7.013,17]nonadeca-1,4,9,11,13(17)-pentaene-16,18-dione
Class: Natural Product; Fungal metabolite
Formula: C17H12O6
Exact mass: 312.0634
SMILES: COC1=C2C3=C(C(=O)CC3)C(=O)OC2=C4C5C=COC5OC4=C1
InChI: InChI=1S/C17H12O6/c1-20-10-6-11-14(8-4-5-21-17(8)22-11)15-13(10)7-2-3-9(18)12(7)16(19)23-15/h4-6,8,17H,2-3H2,1H3
Instrument: Bruker maXis Impact
Instrument type: LC-ESI-QTOF
Ms type: MS2
Ion mode: POSITIVE
Ionization: ESI
Fragmentation mode: CID
Collision energy: 30 eV
Resolution: 35000
Column name: Acclaim RSLC C18 2.2um, 2.1x100mm, Thermo
Retention time: 6.784 min
Base peak: 313.0711
Precursor m/z: 313.0707
Precursor type: [M+H]+
m/z	relative intensity	assigned
173.0961	5	C12H13O+
185.0594	5	C12H9O2+
186.0671	6	C12H10O2+
187.0751	10	C12H11O2+
197.0586	6	C13H9O2+
201.0911	35	C13H13O2+
213.0545	11	C13H9O3+
214.0625	54	C13H10O3+
215.0688	23	C13H11O3+
224.0469	5	C14H8O3+
225.0539	8	C14H9O3+
226.0623	7	C14H10O3+
227.0342	8	C13H7O4+
229.0494	11	C13H9O4+
229.0861	54	C14H13O3+
241.0498	79	C14H9O4+
241.0856	6	C15H13O3+
242.0573	94	C14H10O4+
243.0642	63	C14H11O4+
244.0681	8	C14H12O4+
252.0415	21	C15H8O4+
253.0492	23	C15H9O4+
254.0553	6	C15H10O4+
257.0807	103	C15H13O4+
259.0603	15	C14H11O5+
269.0446	138	C15H9O5+
270.0521	215	C15H10O5+
271.057	39	C15H11O5+
272.0631	7	C15H12O5+
280.0369	12	C16H8O5+
281.0435	7	C16H9O5+
284.0679	160	C16H12O5+
285.0758	577	C16H13O5+
298.0474	115	C16H10O6+
299.0502	20	C16H11O6+
313.0709	999	C17H13O6+
