Mass spectrum: Promethazin; LC-ESI-QTOF; MS2; CE: 50 eV; R=35000; [M+H]+
Name: Promethazin
Name: Promethazine
Name: N,N-dimethyl-1-phenothiazin-10-ylpropan-2-amine
Formula: C17H20N2S
Exact mass: 284.1347196
SMILES: CC(CN1C2=CC=CC=C2SC2=CC=CC=C12)N(C)C
InChI: InChI=1S/C17H20N2S/c1-13(18(2)3)12-19-14-8-4-6-10-16(14)20-17-11-7-5-9-15(17)19/h4-11,13H,12H2,1-3H3
Instrument: Bruker maXis Impact
Instrument type: LC-ESI-QTOF
Ms type: MS2
Ion mode: POSITIVE
Ionization: ESI
Fragmentation mode: CID
Collision energy: 50 eV
Resolution: 35000
Column name: Acclaim RSLC C18 2.2um, 2.1x100mm, Thermo
Retention time: 7.318 min
Base peak: 285.1412
Precursor m/z: 285.142
Precursor type: [M+H]+
m/z	relative intensity	assigned
127.0538	9	C10H7+
128.0488	20	C9H6N+
130.064	17	C9H8N+
136.0209	10	C7H6NS+
140.0479	8	C10H6N+
147.0249	5	C9H7S+
148.0208	7	C8H6NS+
153.0556	10	C11H7N+
154.064	275	C11H8N+
155.0665	44	C10[13]CH8N+
162.0359	25	C9H8NS+
165.0684	7	C13H9+
166.0639	68	C12H8N+
167.0703	19	C12H9N+
171.0251	82	C14H3+
172.026	16	C13[13]CH3+
180.0799	15	C13H10N+
191.0718	5	C14H9N+
192.08	9	C14H10N+
193.0871	34	C14H11N+
194.0906	6	C13[13]CH11N+
196.0211	9	C12H6NS+
197.0283	91	C12H7NS+
198.0364	999	C12H8NS+
199.0395	162	C11[13]CH8NS+
200.0319	38	C12H8N[34]S+
206.0959	70	C15H12N+
207.0998	18	C14[13]CH12N+
208.1104	5	C15H14N+
223.0433	20	C17H5N+
224.0519	85	C14H10NS+
225.0584	53	C17H7N+
226.049	5	C14H10N[34]S+
226.0606	6	C16[13]CH7N+
