Mass spectrum: 5-Carboline; LC-ESI-QTOF; MS2; CE: 30 eV; R=35000; [M+H]+
Name: 5-Carboline
Name: 5H-pyrido[4,3-b]indole
Formula: C11H8N2
Exact mass: 168.0687483
SMILES: N1C2=C(C=CC=C2)C2=C1C=CN=C2
InChI: InChI=1S/C11H8N2/c1-2-4-10-8(3-1)9-7-12-6-5-11(9)13-10/h1-7,13H
Instrument: Bruker maXis Impact
Instrument type: LC-ESI-QTOF
Ms type: MS2
Ion mode: POSITIVE
Ionization: ESI
Fragmentation mode: CID
Collision energy: 30 eV
Resolution: 35000
Column name: Acclaim RSLC C18 2.2um, 2.1x100mm, Thermo
Retention time: 4.599 min
Base peak: 169.0749
Precursor m/z: 169.076
Precursor type: [M+H]+
m/z	relative intensity	assigned
115.0537	133	C9H7+
116.0565	13	C8[13]CH7+
140.048	14	C10H6N+
141.0553	14	C10H7N+
142.0637	67	C10H8N+
143.067	6	C9[13]CH8N+
167.0585	7	C11H7N2+
168.0668	110	C11H8N2+
169.0748	999	C11H9N2+
170.0777	100	C10[13]CH9N2+
171.0808	5	C9[13]C2H9N2+
