Mass spectrum: Desethylatrazine; LC-ESI-QTOF; MS2; CE: Ramp 17.6-26.4 eV; R=35000; [M+H]+
Name: Desethylatrazine
Name: Deethylatrazine
Name: 6-chloro-2-N-propan-2-yl-1,3,5-triazine-2,4-diamine
Formula: C6H10ClN5
Exact mass: 187.0624730
SMILES: CC(C)NC1=NC(N)=NC(Cl)=N1
InChI: InChI=1S/C6H10ClN5/c1-3(2)9-6-11-4(7)10-5(8)12-6/h3H,1-2H3,(H3,8,9,10,11,12)
Instrument: Bruker maXis Impact
Instrument type: LC-ESI-QTOF
Ms type: MS2
Ion mode: POSITIVE
Ionization: ESI
Fragmentation mode: CID
Collision energy: Ramp 17.6-26.4 eV
Resolution: 35000
Column name: Acclaim RSLC C18 2.2um, 2.1x100mm, Thermo
Retention time: 5.671 min
Base peak: 212.1509
Precursor m/z: 188.0697
Precursor type: [M+H]+
m/z	relative intensity	assigned
68.0238	66	C2H2N3+
79.0056	82	CH4ClN2+
81.0028	17	CH4[37]ClN2+
104.0019	38	C2H3ClN3+
105.999	7	C2H3[37]ClN3+
110.047	24	C3H4N5+
146.0229	999	C3H5ClN5+
147.0244	39	C2[13]CH5ClN5+
148.0199	245	C3H5[37]ClN5+
188.07	674	C6H11ClN5+
189.0721	33	C5[13]CH11ClN5+
190.0669	196	C6H11[37]ClN5+
