Mass spectrum: Oxycodone; LC-ESI-QTOF; MS2; CE: 50 eV; R=35000; [M+H]+
Name: Oxycodone
Name: (4R,4aS,7aR,12bS)-4a-hydroxy-9-methoxy-3-methyl-2,4,5,6,7a,13-hexahydro-1H-4,12-methanobenzofuro[3,2-e]isoquinoline-7-one
Formula: C18H21NO4
Exact mass: 315.1470582
SMILES: CN1CC[C@]23c4c5ccc(c4O[C@H]2C(=O)CC[C@]3([C@H]1C5)O)OC
InChI: InChI=1S/C18H21NO4/c1-19-8-7-17-14-10-3-4-12(22-2)15(14)23-16(17)11(20)5-6-18(17,21)13(19)9-10/h3-4,13,16,21H,5-9H2,1-2H3/t13-,16+,17+,18-/m1/s1
Instrument: Bruker maXis Impact
Instrument type: LC-ESI-QTOF
Ms type: MS2
Ion mode: POSITIVE
Ionization: ESI
Fragmentation mode: CID
Collision energy: 50 eV
Resolution: 35000
Column name: Acclaim RSLC C18 2.2um, 2.1x100mm, Thermo
Retention time: 3.733 min
Base peak: 316.1572
Precursor m/z: 316.1543
Precursor type: [M+H]+
m/z	relative intensity	assigned
115.0552	49	C9H7+
116.0612	5	C9H8+
117.0587	6	C8H7N+
118.0665	7	C8H8N+
120.0812	6	C8H10N+
127.0556	9	C10H7+
128.063	53	C10H8+
129.0699	42	C10H9+
130.0421	5	C9H6O+
130.0761	6	C9[13]CH9+
131.0497	78	C9H7O+
131.0742	6	C9H9N+
131.0863	15	C10H11+
132.0574	56	C9H8O+
132.0811	56	C9H10N+
133.0644	19	C9H9O+
133.0886	14	C9H11N+
136.0776	6	C8H10NO+
137.0608	11	C8H9O2+
139.0557	7	C11H7+
141.0704	79	C11H9+
142.0764	19	C11H10+
143.0498	15	C10H7O+
143.0856	8	C11H11+
144.0576	57	C10H8O+
144.0818	12	C10H10N+
145.0652	32	C10H9O+
145.0875	5	C10H11N+
146.0374	22	C9H6O2+
146.0719	7	C10H10O+
147.0442	10	C9H7O2+
148.0519	7	C9H8O2+
148.0759	11	C9H10NO+
151.0758	8	C9H11O2+
152.0634	67	C12H8+
153.0708	154	C12H9+
154.0751	34	C12H10+
155.0506	27	C11H7O+
155.0864	44	C12H11+
156.0573	15	C11H8O+
156.0809	11	C11H10N+
156.0901	9	C11[13]CH11+
157.0659	35	C11H9O+
157.0895	6	C11H11N+
158.0735	32	C11H10O+
158.096	10	C11H12N+
159.0452	50	C10H7O2+
159.0812	80	C11H11O+
160.0524	80	C10H8O2+
160.0767	52	C10H10NO+
161.06	42	C10H9O2+
161.0839	20	C10H11NO+
162.0645	12	C10H10O2+
165.0708	80	C13H9+
166.0773	26	C13H10+
167.0496	5	C12H7O+
167.0862	49	C13H11+
168.0582	30	C12H8O+
168.0825	45	C12H10N+
169.0658	63	C12H9O+
169.0889	50	C12H11N+
170.0369	5	C11H6O2+
170.0729	47	C12H10O+
170.0976	62	C12H12N+
171.0446	16	C11H7O2+
171.0813	62	C12H11O+
171.1021	9	C11[13]CH12N+
172.0527	59	C11H8O2+
172.0868	22	C12H12O+
173.0591	14	C11H9O2+
173.0847	25	C11H11NO+
174.0689	21	C11H10O2+
174.0924	32	C11H12NO+
175.0766	388	C11H11O2+
176.08	46	C10[13]CH11O2+
177.0712	13	C14H9+
178.0787	23	C14H10+
179.061	5	C9H9NO3+
179.086	46	C14H11+
180.057	10	C13H8O+
180.0819	22	C13H10N+
181.0661	166	C13H9O+
181.0901	131	C13H11N+
182.0724	66	C13H10O+
182.0965	65	C13H12N+
183.0448	23	C12H7O2+
183.0801	49	C13H11O+
183.1041	23	C13H13N+
184.0528	57	C12H8O2+
184.0797	21	C12H10NO+
184.113	56	C13H14N+
185.0603	47	C12H9O2+
185.0851	15	C12H11NO+
185.0956	22	C13H13O+
185.1199	14	C13H15N+
186.0684	27	C12H10O2+
186.0931	7	C12H12NO+
187.0764	98	C12H11O2+
187.1128	12	C13H15O+
188.0739	28	C11H10NO2+
189.0746	9	C11H11NO2+
189.0913	12	C12H13O2+
190.0794	6	C15H10+
191.0895	5	C15H11+
193.0661	21	C14H9O+
194.073	24	C14H10O+
194.0982	36	C14H12N+
195.0819	63	C14H11O+
195.1045	25	C14H13N+
196.0538	12	C13H8O2+
196.1135	48	C14H14N+
197.0613	42	C13H9O2+
197.085	100	C13H11NO+
197.12	12	C14H15N+
198.0682	80	C13H10O2+
198.0926	190	C13H12NO+
199.0766	234	C13H11O2+
199.0964	40	C12[13]CH12NO+
200.0813	48	C12[13]CH11O2+
201.0913	21	C13H13O2+
202.0882	55	C12H12NO2+
203.095	18	C12H13NO2+
205.0665	8	C15H9O+
205.0903	9	C15H11N+
206.0734	9	C15H10O+
206.0969	5	C15H12N+
207.0815	23	C15H11O+
208.0524	5	C14H8O2+
208.0789	22	C14H10NO+
208.1126	10	C15H14N+
209.0615	18	C14H9O2+
209.0852	30	C14H11NO+
209.1197	6	C15H15N+
210.0685	56	C14H10O2+
210.0926	91	C14H12NO+
210.1276	6	C15H16N+
211.0762	58	C14H11O2+
211.0999	58	C14H13NO+
212.0734	51	C13H10NO2+
212.1089	999	C14H14NO+
213.0911	98	C14H13O2+
213.1146	303	C14H15NO+
214.0646	8	C16H8N+
214.0892	35	C13H12NO2+
214.119	39	C13[13]CH15NO+
215.0976	24	C13H13NO2+
215.1063	25	C14H15O2+
216.1047	7	C13H14NO2+
218.0992	6	C16H12N+
220.1131	20	C16H14N+
221.0846	38	C15H11NO+
222.0929	39	C15H12NO+
223.0767	17	C15H11O2+
223.1	33	C15H13NO+
224.0489	5	C17H6N+
224.0836	37	C15H12O2+
224.1083	90	C15H14NO+
225.0555	7	C14H9O3+
225.0899	77	C15H13O2+
225.1147	46	C15H15NO+
226.0881	549	C14H12NO2+
227.071	9	C14H11O3+
227.0933	111	C13[13]CH12NO2+
227.1294	13	C15H17NO+
228.103	72	C14H14NO2+
228.1398	30	C15H18NO+
229.0919	6	C17H11N+
229.1083	12	C13[13]CH14NO2+
230.1192	15	C14H16NO2+
233.086	5	C16H11NO+
234.0696	5	C16H10O2+
234.0934	15	C16H12NO+
235.0764	8	C16H11O2+
236.0786	7	C16H12O2+
236.1093	17	C16H14NO+
237.0817	5	C15H11NO2+
237.1152	15	C16H15NO+
238.0877	30	C15H12NO2+
238.125	39	C16H16NO+
239.0711	13	C15H11O3+
239.0962	57	C15H13NO2+
239.1245	8	C15[13]CH16NO+
240.104	340	C15H14NO2+
241.1118	781	C15H15NO2+
242.0948	7	C15H14O3+
242.116	150	C15H16NO2+
243.0923	5	C14H13NO3+
243.1224	15	C14[13]CH16NO2+
247.1011	6	C17H13NO+
248.1096	18	C17H14NO+
249.1163	9	C17H15NO+
250.0884	18	C16H12NO2+
251.0962	8	C16H13NO2+
252.0803	7	C16H12O3+
252.1046	17	C16H14NO2+
253.0764	5	C15H11NO3+
254.0827	30	C15H12NO3+
254.1199	98	C16H16NO2+
255.0922	24	C15H13NO3+
255.1258	29	C16H17NO2+
256.1356	133	C16H18NO2+
257.1385	21	C15[13]CH18NO2+
264.1043	31	C17H14NO2+
265.1119	25	C17H15NO2+
266.1197	52	C17H16NO2+
267.0985	5	C17H15O3+
267.1234	13	C16[13]CH16NO2+
268.0985	45	C16H14NO3+
269.1048	21	C16H15NO3+
270.1149	26	C16H16NO3+
270.1507	12	C17H20NO2+
271.1171	6	C15[13]CH16NO3+
280.1365	6	C18H18NO2+
282.1146	40	C17H16NO3+
283.1212	24	C17H17NO3+
298.1465	26	C18H20NO3+
299.1464	5	C17[13]CH20NO3+
