Mass spectrum: Sulfamethazine; LC-ESI-QTOF; MS2; CE: 40 eV; R=35000; [M+H]+
Name: Sulfamethazine
Name: 4-amino-N-(4,6-dimethylpyrimidin-2-yl)benzenesulfonamide
Formula: C12H14N4O2S
Exact mass: 278.0837467
SMILES: CC1=CC(C)=NC(NS(=O)(=O)C2=CC=C(N)C=C2)=N1
InChI: InChI=1S/C12H14N4O2S/c1-8-7-9(2)15-12(14-8)16-19(17,18)11-5-3-10(13)4-6-11/h3-7H,13H2,1-2H3,(H,14,15,16)
Instrument: Bruker maXis Impact
Instrument type: LC-ESI-QTOF
Ms type: MS2
Ion mode: POSITIVE
Ionization: ESI
Fragmentation mode: CID
Collision energy: 40 eV
Resolution: 35000
Column name: Acclaim RSLC C18 2.2um, 2.1x100mm, Thermo
Retention time: 4.1 min
Base peak: 279.0907
Precursor m/z: 279.091
Precursor type: [M+H]+
m/z	relative intensity	assigned
108.0445	11	C6H6NO+
122.0702	53	C6H8N3+
123.0772	22	C6H9N3+
124.0862	999	C6H10N3+
125.089	68	C5[13]CH10N3+
134.0701	7	C7H8N3+
149.0224	17	C6H3N3O2+
154.0624	6	C6H8N3O2+
155.0685	6	C6H9N3O2+
156.0104	103	C4H4N4OS+
157.0126	9	C7HN4O+
172.0852	5	C10H10N3+
186.0324	38	C6H8N3O2S+
196.0852	52	C12H10N3+
197.0903	13	C10H15NOS+
198.0888	23	C11H10N4+
204.0427	154	C12H4N4+
205.0463	8	C11[13]CH4N4+
206.0375	7	C9H8N3OS+
212.1036	6	C12H12N4+
213.1121	180	C12H13N4+
214.1152	25	C7H14N6O2+
