Mass spectrum: Acridine; LC-ESI-QTOF; MS2; CE: 50 eV; R=35000; [M+H]+
Name: Acridine
Formula: C13H9N
Exact mass: 179.0734993
SMILES: C1=CC2=CC3=CC=CC=C3N=C2C=C1
InChI: InChI=1S/C13H9N/c1-3-7-12-10(5-1)9-11-6-2-4-8-13(11)14-12/h1-9H
Instrument: Bruker maXis Impact
Instrument type: LC-ESI-QTOF
Ms type: MS2
Ion mode: POSITIVE
Ionization: ESI
Fragmentation mode: CID
Collision energy: 50 eV
Resolution: 35000
Column name: Acclaim RSLC C18 2.2um, 2.1x100mm, Thermo
Retention time: 8.623 min
Base peak: 180.0796
Precursor m/z: 180.0808
Precursor type: [M+H]+
m/z	relative intensity	assigned
125.0377	16	C10H5+
126.0453	53	C10H6+
127.053	60	C10H7+
128.0486	83	C9H6N+
139.0526	10	C11H7+
140.048	35	C10H6N+
141.0544	19	C10H7N+
149.037	6	C12H5+
150.045	119	C12H6+
151.0527	153	C12H7+
152.0608	999	C12H8+
153.0636	128	C11[13]CH8+
154.064	53	C11H8N+
164.0481	10	C12H6N+
165.0561	8	C12H7N+
176.0471	6	C13H6N+
177.0558	153	C13H7N+
178.064	784	C13H8N+
179.0709	655	C13H9N+
180.0789	380	C13H10N+
181.0824	47	C12[13]CH10N+
