Mass spectrum: o-Dianisidine; LC-ESI-QTOF; MS2; CE: Ramp 19.6-29.4 eV; R=35000; [M+H]+
Name: o-Dianisidine
Name: 3,3`-Dimethoxybenzidine
Name: 4-(4-amino-3-methoxyphenyl)-2-methoxyaniline
Formula: C14H16N2O2
Exact mass: 244.12117775
SMILES: COC1=CC(=CC=C1N)C1=CC(OC)=C(N)C=C1
InChI: InChI=1S/C14H16N2O2/c1-17-13-7-9(3-5-11(13)15)10-4-6-12(16)14(8-10)18-2/h3-8H,15-16H2,1-2H3
Instrument: Bruker maXis Impact
Instrument type: LC-ESI-QTOF
Ms type: MS2
Ion mode: POSITIVE
Ionization: ESI
Fragmentation mode: CID
Collision energy: Ramp 19.6-29.4 eV
Resolution: 35000
Column name: Acclaim RSLC C18 2.2um, 2.1x100mm, Thermo
Retention time: 5.480 min
Base peak: 245.1277
Precursor m/z: 245.1285
Precursor type: [M+H]+
m/z	relative intensity	assigned
143.0719	6	C10H9N+
154.0641	9	C11H8N+
158.0828	40	C10H10N2+
162.0902	5	C10H12NO+
169.0748	9	C11H9N2+
170.0829	74	C11H10N2+
171.088	17	C11H11N2+
181.0752	17	C12H9N2+
182.0829	34	C12H10N2+
183.0886	8	C12H11N2+
184.0986	8	C12H12N2+
186.0779	98	C11H10N2O+
187.0857	323	C11H11N2O+
188.0889	36	C10[13]CH11N2O+
197.0728	5	C12H9N2O+
198.0781	243	C12H10N2O+
199.0827	42	C11[13]CH10N2O+
200.092	6	C12H12N2O+
201.1018	999	C12H13N2O+
202.1047	118	C11[13]CH13N2O+
203.1087	7	C10[13]C2H13N2O+
213.102	324	C13H13N2O+
214.1067	74	C12[13]CH13N2O+
215.0811	283	C12H11N2O2+
216.0838	34	C11[13]CH11N2O2+
228.0892	55	C13H12N2O2+
229.0968	341	C13H13N2O2+
230.1044	984	C13H14N2O2+
231.1078	125	C12[13]CH14N2O2+
232.1096	11	C11[13]C2H14N2O2+
244.1207	513	C14H16N2O2+
245.1279	567	C14H17N2O2+
246.1313	80	C13[13]CH17N2O2+
247.1341	6	C12[13]C2H17N2O2+
