Mass spectrum: ZON; LC-ESI-QTOF; MS2; CE: 20 eV; R=35000; [M+H]+
Name: ZON
Name: 15,17-Dihydroxy-11-methyl-12-oxabicyclo[12.4.0]octadeca-1(14),2,15,17-tetraene-7,13-dione
Name: 16,18-dihydroxy-4-methyl-3-oxabicyclo[12.4.0]octadeca-1(14),12,15,17-tetraene-2,8-dione
Class: Natural Product; Fungal metabolite
Formula: C18H22O5
Exact mass: 318.1467
SMILES: CC1CCCC(=O)CCCC=CC2=C(C(=CC(=C2)O)O)C(=O)O1
InChI: InChI=1S/C18H22O5/c1-12-6-5-9-14(19)8-4-2-3-7-13-10-15(20)11-16(21)17(13)18(22)23-12/h3,7,10-12,20-21H,2,4-6,8-9H2,1H3
Instrument: Bruker maXis Impact
Instrument type: LC-ESI-QTOF
Ms type: MS2
Ion mode: POSITIVE
Ionization: ESI
Fragmentation mode: CID
Collision energy: 20 eV
Resolution: 35000
Column name: Acclaim RSLC C18 2.2um, 2.1x100mm, Thermo
Retention time: 9.895 min
Base peak: 319.1531
Precursor m/z: 319.154
Precursor type: [M+H]+
m/z	relative intensity	assigned
125.0955	54	C8H13O+
157.0643	53	C11H9O+
161.0588	53	C10H9O2+
165.0179	75	C8H5O4+
169.0621	38	C12H9O+
173.0576	32	C11H9O2+
175.0388	58	C10H7O3+
175.0731	39	C11H11O2+
177.0547	66	C10H9O3+
177.0908	36	C11H13O2+
178.0599	34	C10H10O3+
185.0589	387	C12H9O2+
186.0639	39	C12H10O2+
187.0748	999	C12H11O2+
189.0544	185	C11H9O3+
199.0744	57	C13H11O2+
201.0899	50	C13H13O2+
203.0697	408	C12H11O3+
203.105	32	C13H15O2+
204.0732	68	C12H12O3+
205.0852	167	C12H13O3+
206.0913	34	C12H14O3+
213.0553	99	C13H9O3+
213.0895	69	C14H13O2+
215.0695	167	C13H11O3+
215.1069	27	C14H15O2+
217.0855	146	C13H13O3+
219.1766	27	C15H23O+
221.0807	45	C12H13O4+
227.0701	114	C14H11O3+
229.0849	236	C14H13O3+
231.0642	420	C13H11O4+
232.0686	55	C13H12O4+
239.1084	32	C16H15O2+
241.0868	108	C15H13O3+
241.1229	34	C16H17O2+
242.0894	44	C15H14O3+
243.1007	55	C15H15O3+
249.0755	51	C13H13O5+
255.1375	120	C17H19O2+
256.1397	36	C17H20O2+
257.1536	26	C17H21O2+
259.0957	43	C15H15O4+
265.1211	237	C18H17O2+
283.1318	595	C18H19O3+
284.1353	202	C18H20O3+
301.1436	276	C18H21O4+
302.1479	73	C18H22O4+
