Mass spectrum: Lauryl sulfate; LC-ESI-QTOF; MS2; CE: Ramp 22.6-33.9 eV; R=35000; [M-H]-
Name: Lauryl sulfate
Name: dodecyl hydrogen sulfate
Name: (Dodecyloxy)sulfonic acid
Name: Dodecyl sulfate
Formula: C12H26O4S
Exact mass: 266.1551803
SMILES: CCCCCCCCCCCCOS(=O)(=O)O
InChI: InChI=1S/C12H26O4S/c1-2-3-4-5-6-7-8-9-10-11-12-16-17(13,14)15/h2-12H2,1H3,(H,13,14,15)
Instrument: Bruker maXis Impact
Instrument type: LC-ESI-QTOF
Ms type: MS2
Ion mode: NEGATIVE
Ionization: ESI
Fragmentation mode: CID
Collision energy: Ramp 22.6-33.9 eV
Resolution: 35000
Column name: Acclaim RSLC C18 2.2um, 2.1x100mm, Thermo
Retention time: 11.588 min
Base peak: 59.0133
Precursor m/z: 265.1479
Precursor type: [M-H]-
m/z	relative intensity	assigned
79.9572	81	O3S-
96.9589	999	HO4S-
98.9559	35	HO4[34]S-
265.1481	652	C12H25O4S-
266.1505	125	C11[13]CH25O4S-
267.1461	33	C12H25O4[34]S-
