Mass spectrum: Azoxystrobin; LC-ESI-QTOF; MS2; CE: Ramp 23.7-35.5 eV; R=35000; [M+H]+
Name: Azoxystrobin
Name: Methyl (E)-2-[2-[6-(2-cyanophenoxy)pyrimidin-4-YL]oxyphenyl]-3-methoxy-prop-2-enoate
Formula: C22H17N3O5
Exact mass: 403.1168206
SMILES: CO/C=C(\C1=CC=CC=C1OC2=NC=NC(=C2)OC3=CC=CC=C3C#N)/C(=O)OC
InChI: InChI=1S/C22H17N3O5/c1-27-13-17(22(26)28-2)16-8-4-6-10-19(16)30-21-11-20(24-14-25-21)29-18-9-5-3-7-15(18)12-23/h3-11,13-14H,1-2H3/b17-13+
Instrument: Bruker maXis Impact
Instrument type: LC-ESI-QTOF
Ms type: MS2
Ion mode: POSITIVE
Ionization: ESI
Fragmentation mode: CID
Collision energy: Ramp 23.7-35.5 eV
Resolution: 35000
Column name: Acclaim RSLC C18 2.2um, 2.1x100mm, Thermo
Retention time: 9.030 min
Base peak: 404.1256
Precursor m/z: 404.1241
Precursor type: [M+H]+
m/z	relative intensity	assigned
129.0444	10	C8H5N2+
133.0517	5	C8H7NO+
134.0599	53	C8H8NO+
143.0603	30	C9H7N2+
145.0281	14	C9H5O2+
156.0436	11	C10H6NO+
162.0542	7	C9H8NO2+
169.0389	10	C10H5N2O+
171.0549	10	C10H7N2O+
172.0386	31	C10H6NO2+
177.0541	9	C10H9O3+
183.0543	25	C11H7N2O+
199.0494	5	C11H7N2O2+
201.0406	17	C11H7NO3+
201.0651	19	C11H9N2O2+
210.0411	13	C12H6N2O2+
210.0654	17	C12H8N3O+
211.0476	5	C9H9NO5+
216.0652	46	C12H10NO3+
217.0681	6	C11[13]CH10NO3+
272.0819	7	C17H10N3O+
273.0661	5	C17H9N2O2+
273.0882	8	C14H13N2O4+
287.0809	17	C18H11N2O2+
288.1121	6	C18H14N3O+
289.0964	7	C18H13N2O2+
300.0774	8	C18H10N3O2+
301.085	54	C15H13N2O5+
302.0865	11	C14[13]CH13N2O5+
303.0762	13	C18H11N2O3+
312.0758	5	C19H10N3O2+
315.1	11	C19H13N3O2+
316.1076	65	C16H16N2O5+
317.0923	10	C19H13N2O3+
317.1093	12	C15[13]CH16N2O5+
328.0717	25	C19H10N3O3+
329.0797	713	C19H11N3O3+
330.0828	150	C18[13]CH11N3O3+
331.0847	12	C17[13]C2H11N3O3+
340.0706	5	C20H10N3O3+
344.1032	999	C20H14N3O3+
345.1059	202	C19[13]CH14N3O3+
346.1081	18	C18[13]C2H14N3O3+
372.0983	894	C21H14N3O4+
373.1013	465	C21H15N3O4+
374.1039	47	C20[13]CH15N3O4+
