Mass spectrum: Tramadol N-Oxide; LC-ESI-QTOF; MS2; CE: 50 eV; R=35000; [M+H]+
Name: Tramadol N-Oxide
Name: 1-[2-hydroxy-2-(3-methoxyphenyl)cyclohexyl]-N,N-dimethylmethanamine oxide
Formula: C16H25NO3
Exact mass: 279.1834437
SMILES: COC1=CC=CC(=C1)C1(O)CCCCC1C[N+](C)(C)[O-]
InChI: InChI=1S/C16H25NO3/c1-17(2,19)12-14-7-4-5-10-16(14,18)13-8-6-9-15(11-13)20-3/h6,8-9,11,14,18H,4-5,7,10,12H2,1-3H3
Instrument: Bruker maXis Impact
Instrument type: LC-ESI-QTOF
Ms type: MS2
Ion mode: POSITIVE
Ionization: ESI
Fragmentation mode: CID
Collision energy: 50 eV
Resolution: 35000
Column name: Acclaim RSLC C18 2.2um, 2.1x100mm, Thermo
Retention time: 5.1 min
Base peak: 280.1906
Precursor m/z: 280.1907
Precursor type: [M+H]+
m/z	relative intensity	assigned
107.0493	9	C7H7O+
115.0536	210	C9H7+
116.0606	70	C9H8+
117.0694	61	C9H9+
118.039	9	C8H6O+
119.0481	8	C8H7O+
119.0843	11	C9H11+
120.0555	11	C8H8O+
121.0639	794	C8H9O+
122.0677	94	C7[13]CH9O+
126.0455	12	C10H6+
127.0532	65	C10H7+
130.0408	32	C9H6O+
130.0741	44	C5H10N2O2+
131.0479	108	C9H7O+
131.0844	15	C10H11+
132.0551	65	C9H8O+
133.0631	31	C9H9O+
134.0702	8	C9H10O+
135.0429	999	C8H7O2+
135.0795	104	C9H11O+
136.0464	90	C3H8N2O4+
136.0825	12	C4H12N2O3+
141.0684	96	C11H9+
142.0757	37	C11H10+
143.0479	34	C10H7O+
143.0843	37	C11H11+
146.0701	98	C10H10O+
147.0789	147	C10H11O+
148.0838	18	C5H12N2O3+
149.0219	17	C8H5O3+
152.0607	21	C12H8+
153.0685	20	C12H9+
154.0756	10	C12H10+
155.0589	95	C7H9NO3+
155.0831	29	C12H11+
157.0634	77	C11H9O+
160.0857	242	C11H12O+
161.091	40	C6H13N2O3+
165.0698	7	C13H9+
167.0836	9	C13H11+
169.0635	7	C12H9O+
169.0763	9	C8H11NO3+
169.0987	12	C13H13+
170.1067	7	C13H14+
171.0792	106	C12H11O+
172.0866	90	C12H12O+
173.0948	119	C12H13O+
175.1085	8	C12H15O+
184.0868	20	C13H12O+
185.094	12	C13H13O+
186.1019	42	C13H14O+
187.1078	7	C8H15N2O3+
201.1263	20	C14H17O+
202.1297	7	C13[13]CH17O+
