Mass spectrum: Daidzein; LC-ESI-QTOF; MS2; CE: 30 eV; R=35000; [M+H]+
Name: Daidzein
Name: 7-hydroxy-3-(4-hydroxyphenyl)chromen-4-one
Formula: C15H10O4
Exact mass: 254.0579088
SMILES: OC1=CC=C(C=C1)C1=COC2=C(C=CC(O)=C2)C1=O
InChI: InChI=1S/C15H10O4/c16-10-3-1-9(2-4-10)13-8-19-14-7-11(17)5-6-12(14)15(13)18/h1-8,16-17H
Instrument: Bruker maXis Impact
Instrument type: LC-ESI-QTOF
Ms type: MS2
Ion mode: POSITIVE
Ionization: ESI
Fragmentation mode: CID
Collision energy: 30 eV
Resolution: 35000
Column name: Acclaim RSLC C18 2.2um, 2.1x100mm, Thermo
Retention time: 6.907 min
Base peak: 277.1274
Precursor m/z: 255.0652
Precursor type: [M+H]+
m/z	relative intensity	assigned
119.0487	10	C8H7O+
121.0281	10	C7H5O2+
128.0619	25	C10H8+
129.0702	21	C10H9+
131.0465	7	C9H7O+
131.0859	7	C10H11+
133.0278	24	C8H5O2+
137.0222	201	C7H5O3+
138.0244	16	C6[13]CH5O3+
141.0689	13	C11H9+
143.0847	18	C11H11+
145.0277	34	C9H5O2+
149.0231	22	C8H5O3+
152.0606	29	C12H8+
153.0687	69	C12H9+
154.0722	11	C11[13]CH9+
157.0636	48	C11H9O+
158.0671	6	C10[13]CH9O+
169.0641	12	C12H9O+
171.0789	70	C12H11O+
181.0633	144	C13H9O+
182.069	31	C12[13]CH9O+
184.0499	26	C12H8O2+
185.0567	10	C12H9O2+
197.0586	14	C13H9O2+
198.0655	13	C13H10O2+
199.0742	494	C13H11O2+
200.0781	67	C12[13]CH11O2+
209.061	23	C14H9O2+
210.0666	14	C14H10O2+
211.0741	14	C14H11O2+
226.0578	12	C14H10O3+
227.0689	257	C14H11O3+
228.0713	38	C13[13]CH11O3+
237.0541	95	C15H9O3+
238.0573	15	C14[13]CH9O3+
255.0644	999	C15H11O4+
256.0674	181	C14[13]CH11O4+
257.0697	17	C13[13]C2H11O4+
