Mass spectrum: Chloridazon-methyl-desphenyl; LC-ESI-QTOF; MS2; CE: 30 eV; R=35000; [M+H]+
Name: Chloridazon-methyl-desphenyl
Name: 5-Amino-4-chloro-2-methyl-3(2H)-pyridazinone
Name: 5-amino-4-chloro-2-methylpyridazin-3-one
Formula: C5H6ClN3O
Exact mass: 159.0199395
SMILES: CN1N=CC(N)=C(Cl)C1=O
InChI: InChI=1S/C5H6ClN3O/c1-9-5(10)4(6)3(7)2-8-9/h2H,7H2,1H3
Instrument: Bruker maXis Impact
Instrument type: LC-ESI-QTOF
Ms type: MS2
Ion mode: POSITIVE
Ionization: ESI
Fragmentation mode: CID
Collision energy: 30 eV
Resolution: 35000
Column name: Acclaim RSLC C18 2.2um, 2.1x100mm, Thermo
Retention time: 3.2 min
Base peak: 160.0262
Precursor m/z: 160.0272
Precursor type: [M+H]+
m/z	relative intensity	assigned
115.9885	6	C4H3ClNO+
116.9969	136	C4H4ClNO+
124.0494	34	C5H6N3O+
125.0536	6	C4[13]CH6N3O+
130.0046	250	C5H5ClNO+
131.0013	18	C4H4ClN2O+
131.0097	52	C4[13]CH5ClNO+
132.0021	77	C5H5[37]ClNO+
145.0026	116	C4H4ClN3O+
146.0082	5	C3[13]CH4ClN3O+
146.9998	27	C4H4[37]ClN3O+
158.0103	9	C5H5ClN3O+
160.0263	999	C5H7ClN3O+
161.029	43	C4[13]CH7ClN3O+
162.0283	256	C5H7[37]ClN3O+
