Mass spectrum: Olanzapine; LC-ESI-QTOF; MS2; CE: 30 eV; R=35000; [M+H]+
Name: Olanzapine
Formula: C17H20N4S
Exact mass: 312.1408676
SMILES: Cc1cc2c(s1)Nc3ccccc3N=C2N4CCN(CC4)C
InChI: InChI=1S/C17H20N4S/c1-12-11-13-16(21-9-7-20(2)8-10-21)18-14-5-3-4-6-15(14)19-17(13)22-12/h3-6,11,19H,7-10H2,1-2H3
Instrument: Bruker maXis Impact
Instrument type: LC-ESI-QTOF
Ms type: MS2
Ion mode: POSITIVE
Ionization: ESI
Fragmentation mode: CID
Collision energy: 30 eV
Resolution: 35000
Column name: Acclaim RSLC C18 2.2um, 2.1x100mm, Thermo
Retention time: 6.558 min
Base peak: 313.1502
Precursor m/z: 313.1481
Precursor type: [M+H]+
m/z	relative intensity	assigned
169.0767	19	C11H9N2+
173.0176	5	C9H5N2S+
179.0622	5	C9H11N2S+
180.0692	20	C12H8N2+
181.0727	5	C12H9N2+
186.0385	7	C11H8NS+
198.0257	52	C11H6N2S+
212.0415	11	C12H8N2S+
213.0493	174	C12H9N2S+
214.0528	30	C11[13]CH9N2S+
215.0459	13	C12H9N2[34]S+
215.0637	12	C12H11N2S+
222.1036	10	C14H12N3+
223.1113	14	C14H13N3+
227.0646	7	C13H11N2S+
229.0819	5	C13H13N2S+
230.076	26	C12H12N3S+
239.0663	15	C14H11N2S+
241.069	5	C13H11N3S+
242.0768	13	C13H12N3S+
256.0919	999	C14H14N3S+
257.0948	150	C13[13]CH14N3S+
258.0892	45	C14H14N3[34]S+
282.1074	158	C16H16N3S+
283.109	28	C15[13]CH16N3S+
284.1126	7	C15H16N4S+
313.1495	151	C17H21N4S+
314.1519	27	C16[13]CH21N4S+
315.1464	8	C17H21N4[34]S+
