Mass spectrum: Oryzalin; LC-ESI-QTOF; MS2; CE: 10 eV; R=35000; [M-H]-
Name: Oryzalin
Name: 4-(dipropylamino)-3,5-dinitrobenzenesulfonamide
Formula: C12H18N4O6S
Exact mass: 346.0947053
SMILES: CCCN(CCC)C1=C(C=C(C=C1[N+]([O-])=O)S(N)(=O)=O)[N+]([O-])=O
InChI: InChI=1S/C12H18N4O6S/c1-3-5-14(6-4-2)12-10(15(17)18)7-9(23(13,21)22)8-11(12)16(19)20/h7-8H,3-6H2,1-2H3,(H2,13,21,22)
Instrument: Bruker maXis Impact
Instrument type: LC-ESI-QTOF
Ms type: MS2
Ion mode: NEGATIVE
Ionization: ESI
Fragmentation mode: CID
Collision energy: 10 eV
Resolution: 35000
Column name: Acclaim RSLC C18 2.2um, 2.1x100mm, Thermo
Retention time: 10.227 min
Base peak: 345.0866
Precursor m/z: 345.0874
Precursor type: [M-H]-
m/z	relative intensity	assigned
281.1249	21	C12H17N4O4-
345.0862	999	C12H17N4O6S-
346.0884	127	C11[13]CH17N4O6S-
347.0845	46	C12H17N4O6[34]S-
