Mass spectrum: Tetramethylene glycol dimethacrylate; GC-APCI-QTOF; MS2; CE: 10 eV; R=35000; [M+H]+
Name: Tetramethylene glycol dimethacrylate
Formula: C12H18O4
Exact mass: 226.1205
SMILES: CC(=C)C(=O)OCCCCOC(=O)C(=C)C
InChI: InChI=1S/C12H18O4/c1-9(2)11(13)15-7-5-6-8-16-12(14)10(3)4/h1,3,5-8H2,2,4H3
Instrument: Bruker 450 GC coupled to maXis Impact
Instrument type: GC-APCI-QTOF
Ms type: MS2
Ion mode: POSITIVE
Ionization: APCI
Fragmentation mode: CID
Collision energy: 10 eV
Resolution: 35000
Column name: Rxi-5Sil MS column, 30m, 0.25mm i.d., 0.25Âµm film thickness, Restek
Retention time: 13.275 min
Base peak: 181.0803
Precursor m/z: 227.1278
Precursor type: [M+H]+
m/z	relative intensity	assigned
152.0455	344	C8H8O3+
180.0757	999	C10H12O3+
