Mass spectrum: Tebuconazole; LC-ESI-QTOF; MS2; CE: Ramp 21.8-32.6 eV; R=35000; [M+H]+
Name: Tebuconazole
Name: 1-(4-chlorophenyl)-4,4-dimethyl-3-(1,2,4-triazol-1-ylmethyl)pentan-3-ol
Formula: C16H22ClN3O
Exact mass: 307.1451400
SMILES: CC(C)(C)C(O)(CCC1=CC=C(Cl)C=C1)CN1C=NC=N1
InChI: InChI=1S/C16H22ClN3O/c1-15(2,3)16(21,10-20-12-18-11-19-20)9-8-13-4-6-14(17)7-5-13/h4-7,11-12,21H,8-10H2,1-3H3
Instrument: Bruker maXis Impact
Instrument type: LC-ESI-QTOF
Ms type: MS2
Ion mode: POSITIVE
Ionization: ESI
Fragmentation mode: CID
Collision energy: Ramp 21.8-32.6 eV
Resolution: 35000
Column name: Acclaim RSLC C18 2.2um, 2.1x100mm, Thermo
Retention time: 10.887 min
Base peak: 308.1522
Precursor m/z: 308.1524
Precursor type: [M+H]+
m/z	relative intensity	assigned
57.0694	14	C4H9+
59.0486	11	C3H7O+
70.0398	999	C2H4N3+
71.0424	24	C[13]CH4N3+
83.085	6	C6H11+
125.0145	51	C7H6Cl+
127.0116	12	C7H6[37]Cl+
139.0298	7	C9H3N2+
151.0299	40	C9H8Cl+
153.0269	9	C9H8[37]Cl+
165.0457	11	C10H10Cl+
308.1523	221	C16H23ClN3O+
309.1556	58	C15[13]CH23ClN3O+
310.1499	75	C16H23[37]ClN3O+
