Mass spectrum: Doxepine; LC-ESI-QTOF; MS2; CE: RAMP 20.9-31.4 eV; R=35000; [M+H]+
Name: Doxepine
Name: doxepin
Name: (3Z)-3-(6H-benzo[c][1]benzoxepin-11-ylidene)-N,N-dimethylpropan-1-amine
Formula: C19H21NO
Exact mass: 279.1623143
SMILES: CN(C)CC/C=C\1/c2ccccc2COc3c1cccc3
InChI: InChI=1S/C19H21NO/c1-20(2)13-7-11-17-16-9-4-3-8-15(16)14-21-19-12-6-5-10-18(17)19/h3-6,8-12H,7,13-14H2,1-2H3/b17-11-
Instrument: Bruker maXis Impact
Instrument type: LC-ESI-QTOF
Ms type: MS2
Ion mode: POSITIVE
Ionization: ESI
Fragmentation mode: CID
Collision energy: RAMP 20.9-31.4 eV
Resolution: 35000
Column name: Acclaim RSLC C18 2.2um, 2.1x100mm, Thermo
Retention time: 7.134 min
Base peak: 280.1699
Precursor m/z: 280.1696
Precursor type: [M+H]+
m/z	relative intensity	assigned
55.0172	5	C3H3O+
58.0642	266	C3H8N+
70.0639	35	C4H8N+
71.0713	5	C4H9N+
72.0797	14	C4H10N+
79.0531	47	C6H7+
84.0799	251	C5H10N+
85.0872	31	C5H11N+
91.0537	187	C7H7+
92.0566	13	C6[13]CH7+
95.0484	12	C6H7O+
105.0704	6	C8H9+
107.05	987	C7H7O+
108.0528	50	C6[13]CH7O+
115.0542	73	C9H7+
116.0573	8	C8[13]CH7+
117.0699	132	C9H9+
118.0731	10	C8[13]CH9+
119.0489	12	C8H7O+
128.0611	10	C10H8+
129.0694	69	C10H9+
130.0725	7	C9[13]CH9+
131.0491	26	C9H7O+
141.0693	113	C11H9+
142.0765	46	C11H10+
143.0834	9	C11H11+
157.0638	9	C11H9O+
165.0691	21	C13H9+
166.0763	20	C13H10+
167.0847	35	C13H11+
168.0877	5	C12[13]CH11+
173.1186	9	C12H15N+
178.0767	29	C14H10+
179.0846	50	C14H11+
180.0882	7	C13[13]CH11+
181.1	16	C14H13+
186.1269	7	C13H16N+
191.0845	17	C15H11+
192.0927	38	C15H12+
193.0996	12	C15H13+
194.0723	66	C14H10O+
195.0794	59	C14H11O+
196.0831	8	C13[13]CH11O+
202.0774	77	C16H10+
203.0815	14	C15[13]CH10+
207.0802	70	C15H11O+
207.1165	61	C16H15+
208.0835	10	C14[13]CH11O+
208.1193	8	C15[13]CH15+
209.0957	34	C15H13O+
215.0851	10	C17H11+
216.0916	7	C17H12+
217.1007	80	C17H13+
218.1046	11	C16[13]CH13+
219.0797	13	C16H11O+
220.0878	140	C16H12O+
221.0916	19	C15[13]CH12O+
233.0961	7	C17H13O+
234.1016	5	C17H14O+
235.1116	327	C17H15O+
236.1146	55	C16[13]CH15O+
280.1697	999	C19H22NO+
281.173	187	C18[13]CH22NO+
282.176	15	C17[13]C2H22NO+
