Mass spectrum: Flecainide; LC-ESI-QTOF; MS2; CE: 10 eV; R=35000; [M+H]+
Name: Flecainide
Name: N-(piperidin-2-ylmethyl)-2,5-bis(2,2,2-trifluoroethoxy)benzamide
Formula: C17H20F6N2O3
Exact mass: 414.1378118
SMILES: c1cc(c(cc1OCC(F)(F)F)C(=O)NCC2CCCCN2)OCC(F)(F)F
InChI: InChI=1S/C17H20F6N2O3/c18-16(19,20)9-27-12-4-5-14(28-10-17(21,22)23)13(7-12)15(26)25-8-11-3-1-2-6-24-11/h4-5,7,11,24H,1-3,6,8-10H2,(H,25,26)
Instrument: Bruker maXis Impact
Instrument type: LC-ESI-QTOF
Ms type: MS2
Ion mode: POSITIVE
Ionization: ESI
Fragmentation mode: CID
Collision energy: 10 eV
Resolution: 35000
Column name: Acclaim RSLC C18 2.2um, 2.1x100mm, Thermo
Retention time: 6.316 min
Base peak: 415.1455
Precursor m/z: 415.1451
Precursor type: [M+H]+
m/z	relative intensity	assigned
398.1188	5	C17H18F6NO3+
415.1464	999	C17H21F6N2O3+
416.1487	224	C16[13]CH21F6N2O3+
417.1512	17	C15[13]C2H21F6N2O3+
