Mass spectrum: Divinylbenzene (m- and p- mixture); GC-APCI-QTOF; MS2; CE: 10 eV; R=35000; [M]+
Name: Divinylbenzene (m- and p- mixture)
Formula: C10H10
Exact mass: 130.0783
SMILES: C=CC1=CC=CC=C1C=C
InChI: InChI=1S/C10H10/c1-3-9-7-5-6-8-10(9)4-2/h3-8H,1-2H2
Instrument: Bruker 450 GC coupled to maXis Impact
Instrument type: GC-APCI-QTOF
Ms type: MS2
Ion mode: POSITIVE
Ionization: APCI
Fragmentation mode: CID
Collision energy: 10 eV
Resolution: 35000
Column name: Rxi-5Sil MS column, 30m, 0.25mm i.d., 0.25Âµm film thickness, Restek
Retention time: 8.695 min
Base peak: 130.0776
Precursor m/z: 130.0777
Precursor type: [M]+
m/z	relative intensity	assigned
91.0556	14	C7H7+
115.0546	106	C9H7+
116.0613	21	C9H8+
128.0623	92	C10H8+
129.0697	464	C10H9+
130.0774	999	C10H10+
