Mass spectrum: Vildagliptin; LC-ESI-QTOF; MS2; CE: 30 eV; R=35000; [M+H]+
Name: Vildagliptin
Name: (2S)-1-[2-[(3-hydroxy-1-adamantyl)amino]acetyl]pyrrolidine-2-carbonitrile
Formula: C17H25N3O2
Exact mass: 303.1946770
SMILES: C1C[C@H](N(C1)C(=O)CNC23CC4CC(C2)CC(C4)(C3)O)C#N
InChI: InChI=1S/C17H25N3O2/c18-9-14-2-1-3-20(14)15(21)10-19-16-5-12-4-13(6-16)8-17(22,7-12)11-16/h12-14,19,22H,1-8,10-11H2/t12?,13?,14-,16?,17?/m0/s1
Instrument: Bruker maXis Impact
Instrument type: LC-ESI-QTOF
Ms type: MS2
Ion mode: POSITIVE
Ionization: ESI
Fragmentation mode: CID
Collision energy: 30 eV
Resolution: 35000
Column name: Acclaim RSLC C18 2.2um, 2.1x100mm, Thermo
Retention time: 3.323 min
Base peak: 304.2046
Precursor m/z: 304.202
Precursor type: [M+H]+
m/z	relative intensity	assigned
127.0868	21	C6H11N2O+
133.1014	77	C10H13+
134.105	8	C9[13]CH13+
151.1124	456	C10H15O+
152.1157	51	C9[13]CH15O+
154.0981	999	C7H12N3O+
155.101	80	C6[13]CH12N3O+
304.2036	29	C17H26N3O2+
