Mass spectrum: Coumaphos; LC-ESI-QTOF; MS2; CE: 30 eV; R=35000; [M+H]+
Name: Coumaphos
Name: 3-chloro-7-diethoxyphosphinothioyloxy-4-methylchromen-2-one
Formula: C14H16ClO5PS
Exact mass: 362.0144589
SMILES: CCOP(=S)(OCC)Oc1ccc2c(c(c(=O)oc2c1)Cl)C
InChI: InChI=1S/C14H16ClO5PS/c1-4-17-21(22,18-5-2)20-10-6-7-11-9(3)13(15)14(16)19-12(11)8-10/h6-8H,4-5H2,1-3H3
Instrument: Bruker maXis Impact
Instrument type: LC-ESI-QTOF
Ms type: MS2
Ion mode: POSITIVE
Ionization: ESI
Fragmentation mode: CID
Collision energy: 30 eV
Resolution: 35000
Column name: Acclaim RSLC C18 2.2um, 2.1x100mm, Thermo
Retention time: 11.0 min
Base peak: 363.0221
Precursor m/z: 363.0217
Precursor type: [M+H]+
m/z	relative intensity	assigned
191.0183	5	C10H7O2S+
194.0109	10	C3H12ClO5P+
211.0152	138	C9H8O4P+
213.0129	31	C10H8[37]ClO3+
224.9778	8	C10H6ClO2S+
225.9839	12	C9H7O3PS+
226.9929	999	C10H8ClO2S+
227.9961	70	C8[13]CH8O3PS+
228.9897	218	C9H6ClO5+
229.9923	11	C6H10[37]ClO5P+
270.9377	6	C10H5ClO3PS+
288.9484	150	C10H7ClO4PS+
289.9501	16	C12[13]CH3ClO4P+
290.9459	39	C10H7[37]ClO4PS+
290.9833	24	C14H9ClOPS+
306.9594	170	C10H9ClO5PS+
307.9635	17	C9[13]CH9ClO5PS+
308.9597	34	C10H9[37]ClO5PS+
334.99	51	C12H13ClO5PS+
335.9976	6	C12H14ClO5PS+
336.9895	12	C14H9ClNO5P+
363.0223	11	C14H17ClO5PS+
