Mass spectrum: Prosulfocarb; LC-ESI-QTOF; MS2; CE: 10 eV; R=35000; [M+H]+
Name: Prosulfocarb
Name: S-benzyl N,N-dipropylcarbamothioate
Formula: C14H21NOS
Exact mass: 251.1343853
SMILES: CCCN(CCC)C(=O)SCC1=CC=CC=C1
InChI: InChI=1S/C14H21NOS/c1-3-10-15(11-4-2)14(16)17-12-13-8-6-5-7-9-13/h5-9H,3-4,10-12H2,1-2H3
Instrument: Bruker maXis Impact
Instrument type: LC-ESI-QTOF
Ms type: MS2
Ion mode: POSITIVE
Ionization: ESI
Fragmentation mode: CID
Collision energy: 10 eV
Resolution: 35000
Column name: Acclaim RSLC C18 2.2um, 2.1x100mm, Thermo
Retention time: 12.001 min
Base peak: 252.1418
Precursor m/z: 252.1417
Precursor type: [M+H]+
m/z	relative intensity	assigned
128.1062	73	C7H14NO+
129.1092	6	C6[13]CH14NO+
252.1422	999	C14H22NOS+
253.1447	174	C13[13]CH22NOS+
254.1385	37	C14H22NO[34]S+
