Mass spectrum: Dydrogesterone; LC-ESI-QTOF; MS2; CE: 50 eV; R=35000; [M+H]+
Name: Dydrogesterone
Name: (8S,9R,10S,13S,14S,17S)-17-acetyl-10,13-dimethyl-1,2,8,9,11,12,14,15,16,17-decahydrocyclopenta[a]phenanthren-3-one
Formula: C21H28O2
Exact mass: 312.2089301
SMILES: [H][C@@]12CC[C@H](C(C)=O)[C@@]1(C)CC[C@]1([H])[C@@]2([H])C=CC2=CC(=O)CC[C@@]12C
InChI: InChI=1S/C21H28O2/c1-13(22)17-6-7-18-16-5-4-14-12-15(23)8-10-20(14,2)19(16)9-11-21(17,18)3/h4-5,12,16-19H,6-11H2,1-3H3/t16-,17+,18-,19+,20+,21+/m0/s1
Instrument: Bruker maXis Impact
Instrument type: LC-ESI-QTOF
Ms type: MS2
Ion mode: POSITIVE
Ionization: ESI
Fragmentation mode: CID
Collision energy: 50 eV
Resolution: 35000
Column name: Acclaim RSLC C18 2.2um, 2.1x100mm, Thermo
Retention time: 10.683 min
Base peak: 313.2161
Precursor m/z: 313.2162
Precursor type: [M+H]+
m/z	relative intensity	assigned
115.0538	318	C9H7+
116.0605	115	C9H8+
117.069	284	C9H9+
118.0726	40	C8[13]CH9+
119.0485	20	C8H7O+
119.0848	330	C9H11+
120.0879	43	C8[13]CH11+
121.0639	181	C8H9O+
121.0997	41	C9H13+
122.0678	22	C7[13]CH9O+
123.0793	140	C8H11O+
124.0847	17	C7[13]CH11O+
126.0451	14	C10H6+
127.0534	69	C10H7+
128.0612	843	C10H8+
129.0686	947	C10H9+
130.0757	307	C10H10+
131.048	85	C9H7O+
131.0844	999	C10H11+
132.0552	92	C9H8O+
132.0881	101	C9[13]CH11+
133.0635	278	C9H9O+
133.1001	331	C10H13+
134.0711	65	C9H10O+
134.1037	35	C9[13]CH13+
135.0795	72	C9H11O+
135.116	58	C10H15+
137.0952	37	C9H13O+
141.0687	708	C11H9+
142.0762	807	C11H10+
143.0841	881	C11H11+
144.0556	51	C10H8O+
144.0908	187	C11H12+
145.0634	222	C10H9O+
145.0999	669	C11H13+
146.0711	177	C10H10O+
146.1038	76	C10[13]CH13+
147.0792	345	C10H11O+
147.1153	154	C11H15+
148.0862	167	C10H12O+
148.1193	19	C10[13]CH15+
149.0949	219	C10H13O+
150.0987	28	C9[13]CH13O+
152.0614	86	C12H8+
153.0681	313	C12H9+
154.0761	318	C12H10+
155.0843	890	C12H11+
156.0914	403	C12H12+
157.0636	91	C11H9O+
157.0995	594	C12H13+
158.0711	206	C11H10O+
158.1039	112	C11[13]CH13+
159.0791	216	C11H11O+
159.1157	330	C12H15+
160.0866	143	C11H12O+
161.0949	323	C11H13O+
161.1305	27	C12H17+
162.1002	65	C10[13]CH13O+
163.1105	280	C11H15O+
164.1139	39	C10[13]CH15O+
165.0686	365	C13H9+
166.0756	244	C13H10+
167.0841	503	C13H11+
168.0917	299	C13H12+
169.0997	715	C13H13+
170.0717	21	C12H10O+
170.1057	199	C13H14+
171.0791	72	C12H11O+
171.1155	323	C13H15+
172.0875	31	C12H12O+
173.0945	294	C12H13O+
173.1314	81	C13H17+
174.1002	68	C12H14O+
175.1103	201	C12H15O+
175.1479	21	C13H19+
177.0684	11	C14H9+
177.1284	15	C12H17O+
178.0761	120	C14H10+
179.0841	256	C14H11+
180.0917	186	C14H12+
181.0997	520	C14H13+
182.0716	22	C13H10O+
182.1063	299	C14H14+
183.0797	43	C13H11O+
183.1154	390	C14H15+
184.0865	33	C13H12O+
184.1212	115	C14H16+
185.0948	121	C13H13O+
185.1307	148	C14H17+
186.1025	46	C13H14O+
186.1366	43	C14H18+
187.1117	55	C13H15O+
187.1472	84	C14H19+
188.1179	19	C13H16O+
188.1518	12	C13[13]CH19+
189.1275	28	C13H17O+
191.0844	86	C15H11+
192.0912	116	C15H12+
193.0992	187	C15H13+
194.1069	124	C15H14+
195.0804	30	C14H11O+
195.1155	353	C15H15+
196.0868	23	C14H12O+
196.1218	194	C15H16+
197.0955	69	C14H13O+
197.1306	238	C15H17+
198.1013	62	C14H14O+
198.1365	56	C14[13]CH17+
199.1104	99	C14H15O+
199.1458	68	C15H19+
200.1177	79	C14H16O+
200.1523	11	C14[13]CH19+
201.1262	43	C14H17O+
201.163	11	C15H21+
202.1304	13	C14H18O+
203.0877	16	C16H11+
204.0917	23	C16H12+
205.1002	87	C16H13+
206.1068	101	C16H14+
207.1156	154	C16H15+
208.1225	55	C16H16+
209.0945	34	C15H13O+
209.131	231	C16H17+
210.1029	26	C15H14O+
210.1376	83	C16H18+
211.111	80	C15H15O+
211.1465	182	C16H19+
212.118	73	C15H16O+
212.1515	49	C15[13]CH19+
213.1264	184	C15H17O+
213.1625	43	C16H21+
214.1326	72	C15H18O+
215.1413	34	C15H19O+
216.1476	13	C15H20O+
218.1074	17	C17H14+
219.1156	38	C17H15+
220.1237	35	C17H16+
221.131	76	C17H17+
222.1393	61	C17H18+
223.1104	22	C16H15O+
223.1477	74	C17H19+
224.1197	33	C16H16O+
224.1534	29	C17H20+
225.1261	58	C16H17O+
225.1626	64	C17H21+
226.1314	37	C16H18O+
226.1675	25	C17H22+
227.1416	98	C16H19O+
227.1777	27	C17H23+
228.1496	55	C16H20O+
229.1547	23	C16H21O+
232.1226	13	C18H16+
233.1312	33	C18H17+
234.14	18	C18H18+
235.1469	28	C18H19+
236.1553	18	C18H20+
237.1284	19	C17H17O+
237.1634	86	C18H21+
238.134	26	C17H18O+
238.1687	40	C18H22+
239.1423	56	C17H19O+
240.1503	35	C17H20O+
241.156	22	C17H21O+
247.1479	38	C19H19+
248.1515	10	C18[13]CH19+
249.1601	11	C19H21+
251.1422	34	C18H19O+
251.1779	20	C19H23+
252.1866	19	C19H24+
253.159	49	C18H21O+
253.1929	27	C19H25+
254.1652	44	C18H22O+
255.1747	32	C18H23O+
256.1778	15	C18H24O+
265.1583	42	C19H21O+
266.1661	20	C19H22O+
283.1672	11	C19H23O2+
