Mass spectrum: Losartan; LC-ESI-QTOF; MS2; CE: Ramp 28.8-43.3 eV; R=35000; [M-H]-
Name: Losartan
Name: [2-butyl-5-chloro-3-[[4-[2-(2H-tetrazol-5-yl)phenyl]phenyl]methyl]imidazol-4-yl]methanol
Formula: C22H23ClN6O
Exact mass: 422.1621870
SMILES: CCCCc1nc(c(n1Cc2ccc(cc2)c3ccccc3c4[nH]nnn4)CO)Cl
InChI: InChI=1S/C22H23ClN6O/c1-2-3-8-20-24-21(23)19(14-30)29(20)13-15-9-11-16(12-10-15)17-6-4-5-7-18(17)22-25-27-28-26-22/h4-7,9-12,30H,2-3,8,13-14H2,1H3,(H,25,26,27,28)
Instrument: Bruker maXis Impact
Instrument type: LC-ESI-QTOF
Ms type: MS2
Ion mode: NEGATIVE
Ionization: ESI
Fragmentation mode: CID
Collision energy: Ramp 28.8-43.3 eV
Resolution: 35000
Column name: Acclaim RSLC C18 2.2um, 2.1x100mm, Thermo
Retention time: 7.993 min
Base peak: 421.1546
Precursor m/z: 421.1549
Precursor type: [M-H]-
m/z	relative intensity	assigned
127.0071	999	C5H4ClN2-
129.0048	185	C5H4[37]ClN2-
157.0542	488	C7H10ClN2-
159.0518	136	C7H10[37]ClN2-
179.0866	727	C14H11-
180.0885	152	C13[13]CH11-
187.0633	488	C8H12ClN2O-
189.0626	117	C8H12[37]ClN2O-
195.0822	215	C11H14ClN-
335.1316	142	C21H20ClN2-
