Mass spectrum: 7-Diethylamino-4-methylcoumarin; LC-ESI-QTOF; MS2; CE: 20 eV; R=35000; [M+H]+
Name: 7-Diethylamino-4-methylcoumarin
Name: 7-(diethylamino)-4-methylchromen-2-one
Formula: C14H17NO2
Exact mass: 231.1259288
SMILES: CCN(CC)C1=CC=C2C(C)=CC(=O)OC2=C1
InChI: InChI=1S/C14H17NO2/c1-4-15(5-2)11-6-7-12-10(3)8-14(16)17-13(12)9-11/h6-9H,4-5H2,1-3H3
Instrument: Bruker maXis Impact
Instrument type: LC-ESI-QTOF
Ms type: MS2
Ion mode: POSITIVE
Ionization: ESI
Fragmentation mode: CID
Collision energy: 20 eV
Resolution: 35000
Column name: Acclaim RSLC C18 2.2um, 2.1x100mm, Thermo
Retention time: 9.798 min
Base peak: 232.1329
Precursor m/z: 232.1332
Precursor type: [M+H]+
m/z	relative intensity	assigned
176.1428	10	C12H18N+
188.0698	21	C11H10NO2+
188.1425	10	C13H18N+
202.0859	5	C12H12NO2+
203.0927	16	C12H13NO2+
204.1002	7	C12H14NO2+
204.1376	7	C13H18NO+
232.1329	999	C14H18NO2+
233.1362	119	C13[13]CH18NO2+
234.1392	11	C12[13]C2H18NO2+
