Mass spectrum: Methiocarb; LC-ESI-QTOF; MS2; CE: 40 eV; R=35000; [M+H]+
Name: Methiocarb
Name: (3,5-dimethyl-4-methylsulfanylphenyl) N-methylcarbamate
Formula: C11H15NO2S
Exact mass: 225.0823497
SMILES: CNC(=O)OC1=CC(C)=C(SC)C(C)=C1
InChI: InChI=1S/C11H15NO2S/c1-7-5-9(14-11(13)12-3)6-8(2)10(7)15-4/h5-6H,1-4H3,(H,12,13)
Instrument: Bruker maXis Impact
Instrument type: LC-ESI-QTOF
Ms type: MS2
Ion mode: POSITIVE
Ionization: ESI
Fragmentation mode: CID
Collision energy: 40 eV
Resolution: 35000
Column name: Acclaim RSLC C18 2.2um, 2.1x100mm, Thermo
Retention time: 9.406 min
Base peak: 226.089
Precursor m/z: 226.0896
Precursor type: [M+H]+
m/z	relative intensity	assigned
107.0497	16	C7H7O+
120.0556	16	C8H8O+
121.0641	999	C8H9O+
122.0715	887	C8H10O+
123.0756	95	C7[13]CH10O+
125.0401	17	C10H5+
126.0486	13	C7H10S+
135.0245	22	C11H3+
136.0324	7	C11H4+
139.0201	35	C7H7OS+
153.0365	42	C8H9OS+
154.0429	192	C8H10OS+
155.0466	21	C7[13]CH10OS+
156.038	8	C8H10O[34]S+
169.0668	16	C9H13OS+
