Mass spectrum: Dimethoate; LC-ESI-QTOF; MS2; CE: 20 eV; R=35000; [M+H]+
Name: Dimethoate
Name: 2-dimethoxyphosphinothioylsulfanyl-N-methylacetamide
Formula: C5H12NO3PS2
Exact mass: 228.9996219
SMILES: P(SCC(NC)=O)(OC)(OC)=S
InChI: InChI=1S/C5H12NO3PS2/c1-6-5(7)4-12-10(11,8-2)9-3/h4H2,1-3H3,(H,6,7)
Instrument: Bruker maXis Impact
Instrument type: LC-ESI-QTOF
Ms type: MS2
Ion mode: POSITIVE
Ionization: ESI
Fragmentation mode: CID
Collision energy: 20 eV
Resolution: 35000
Column name: Acclaim RSLC C18 2.2um, 2.1x100mm, Thermo
Retention time: 5.154 min
Base peak: 230.0083
Precursor m/z: 230.0069
Precursor type: [M+H]+
m/z	relative intensity	assigned
119.9938	8	C3H6NS2+
123.9981	16	C2H7NOPS+
124.9823	999	C2H6O2PS+
125.9849	16	C[13]CH6O2PS+
126.9781	25	C2H6O2P[34]S+
142.9929	312	C2H8O3PS+
143.9955	9	C[13]CH8O3PS+
144.9886	15	C2H8O3P[34]S+
155.9702	17	C2H7NOPS2+
156.9545	133	C2H6O2PS2+
158.9504	11	C2H6O2PS[34]S+
170.9703	573	C3H8O2PS2+
171.9723	18	C2[13]CH8O2PS2+
172.9662	39	C3H8O2PS[34]S+
197.9814	27	C4H9NO2PS2+
198.9655	179	C4H8O3PS2+
199.9679	9	C3[13]CH8O3PS2+
200.9613	13	C4H8O3PS[34]S+
