Mass spectrum: Hexa(methoxymethyl)melamine; LC-ESI-QTOF; MS2; CE: 10 eV; R=35000; [M+H]+
Name: Hexa(methoxymethyl)melamine
Name: 2-N,2-N,4-N,4-N,6-N,6-N-hexakis(methoxymethyl)-1,3,5-triazine-2,4,6-triamine
Formula: C15H30N6O6
Exact mass: 390.2226827
SMILES: COCN(COC)C1=NC(=NC(=N1)N(COC)COC)N(COC)COC
InChI: InChI=1S/C15H30N6O6/c1-22-7-19(8-23-2)13-16-14(20(9-24-3)10-25-4)18-15(17-13)21(11-26-5)12-27-6/h7-12H2,1-6H3
Instrument: Bruker maXis Impact
Instrument type: LC-ESI-QTOF
Ms type: MS2
Ion mode: POSITIVE
Ionization: ESI
Fragmentation mode: CID
Collision energy: 10 eV
Resolution: 35000
Column name: Acclaim RSLC C18 2.2um, 2.1x100mm, Thermo
Retention time: 7.624 min
Base peak: 391.2301
Precursor m/z: 391.23
Precursor type: [M+H]+
m/z	relative intensity	assigned
177.0877	16	C7H9N6+
207.0983	91	C5H13N5O4+
208.1001	7	C4[13]CH13N5O4+
283.1514	606	C15H23O5+
284.1539	70	C14[13]CH23O5+
285.1551	8	C13[13]C2H23O5+
301.1617	58	C11H21N6O4+
302.1641	8	C10[13]CH21N6O4+
315.1779	6	C12H23N6O4+
329.1924	12	C13H25N6O4+
345.1866	8	C13H25N6O5+
359.2041	999	C14H27N6O5+
360.2065	144	C13[13]CH27N6O5+
361.2081	17	C12[13]C2H27N6O5+
377.2142	265	C14H29N6O6+
378.2171	50	C13[13]CH29N6O6+
391.2294	27	C15H31N6O6+
392.2331	5	C14[13]CH31N6O6+
