Mass spectrum: Galaxolidone; LC-ESI-QTOF; MS2; CE: 50 eV; R=35000; [M+H]+
Name: Galaxolidone
Name: SCHEMBL4657606
Name: 4,6,6,7,8,8-hexamethyl-4,7-dihydro-3H-cyclopenta[g]isochromen-1-one
Formula: C18H24O2
Exact mass: 272.1776300
SMILES: CC1C(C)(C)c2cc3C(C)COC(=O)c3cc2C1(C)C
InChI: InChI=1S/C18H24O2/c1-10-9-20-16(19)13-8-15-14(7-12(10)13)17(3,4)11(2)18(15,5)6/h7-8,10-11H,9H2,1-6H3
Instrument: Bruker maXis Impact
Instrument type: LC-ESI-QTOF
Ms type: MS2
Ion mode: POSITIVE
Ionization: ESI
Fragmentation mode: CID
Collision energy: 50 eV
Resolution: 35000
Column name: Acclaim RSLC C18 2.2um, 2.1x100mm, Thermo
Retention time: 12.1 min
Base peak: 279.1589
Precursor m/z: 273.1849
Precursor type: [M+H]+
m/z	relative intensity	assigned
128.0609	185	C10H8+
129.0694	435	C10H9+
141.0686	193	C11H9+
142.0769	313	C11H10+
153.0681	157	C12H9+
155.0841	329	C12H11+
157.0992	169	C12H13+
168.0911	195	C13H12+
169.099	208	C13H13+
182.1096	234	C14H14+
183.1148	228	C14H15+
197.1308	999	C15H17+
198.1352	200	C10H18N2O2+
210.1046	214	C15H14O+
211.1107	224	C15H15O+
225.1279	681	C16H17O+
226.1312	238	C16H18O+
