Mass spectrum: Acridine; LC-ESI-QTOF; MS2; CE: 40 eV; R=35000; [M+H]+
Name: Acridine
Formula: C13H9N
Exact mass: 179.0734993
SMILES: C1=CC2=CC3=CC=CC=C3N=C2C=C1
InChI: InChI=1S/C13H9N/c1-3-7-12-10(5-1)9-11-6-2-4-8-13(11)14-12/h1-9H
Instrument: Bruker maXis Impact
Instrument type: LC-ESI-QTOF
Ms type: MS2
Ion mode: POSITIVE
Ionization: ESI
Fragmentation mode: CID
Collision energy: 40 eV
Resolution: 35000
Column name: Acclaim RSLC C18 2.2um, 2.1x100mm, Thermo
Retention time: 8.588 min
Base peak: 180.08
Precursor m/z: 180.0808
Precursor type: [M+H]+
m/z	relative intensity	assigned
126.046	9	C10H6+
127.0527	14	C10H7+
128.0487	28	C9H6N+
140.0488	8	C10H6N+
141.0558	6	C10H7N+
150.0455	20	C12H6+
151.0529	43	C12H7+
152.0611	480	C12H8+
153.066	79	C11[13]CH8+
154.0647	30	C11H8N+
177.0562	40	C13H7N+
178.0641	242	C13H8N+
179.0717	521	C13H9N+
180.0798	999	C13H10N+
181.0828	108	C12[13]CH10N+
182.0862	8	C11[13]C2H10N+
