Mass spectrum: 10,11-Dihydro-10-Hydroxycarbazepine; LC-ESI-QTOF; MS2; CE: 40 eV; R=35000; [M+H]+
Name: 10,11-Dihydro-10-Hydroxycarbazepine
Name: Licarbazepine
Name: 5-hydroxy-5,6-dihydrobenzo[b][1]benzazepine-11-carboxamide
Formula: C15H14N2O2
Exact mass: 254.1055277
SMILES: c1ccc2c(c1)CC(c3ccccc3N2C(=O)N)O
InChI: InChI=1S/C15H14N2O2/c16-15(19)17-12-7-3-1-5-10(12)9-14(18)11-6-2-4-8-13(11)17/h1-8,14,18H,9H2,(H2,16,19)
Instrument: Bruker maXis Impact
Instrument type: LC-ESI-QTOF
Ms type: MS2
Ion mode: POSITIVE
Ionization: ESI
Fragmentation mode: CID
Collision energy: 40 eV
Resolution: 35000
Column name: Acclaim RSLC C18 2.2um, 2.1x100mm, Thermo
Retention time: 6.056 min
Base peak: 372.1589
Precursor m/z: 255.1128
Precursor type: [M+H]+
m/z	relative intensity	assigned
116.0486	5	C8H6N+
152.0608	32	C12H8+
165.0687	74	C13H9+
166.0728	15	C12[13]CH9+
167.0719	30	C12H9N+
167.0838	29	C13H11+
168.0795	7	C12H10N+
169.0638	5	C12H9O+
176.0605	10	C14H8+
177.0679	16	C14H9+
178.0645	17	C13H8N+
178.0755	11	C9H10N2O2+
179.0718	185	C13H9N+
180.0751	30	C12[13]CH9N+
190.0639	20	C14H8N+
191.0716	56	C14H9N+
192.0799	249	C14H10N+
193.0876	460	C14H11N+
194.0956	999	C14H12N+
195.0985	132	C13[13]CH12N+
196.1022	12	C12[13]C2H12N+
