Mass spectrum: Losartan; LC-ESI-QTOF; MS2; CE: 50 eV; R=35000; [M+H]+
Name: Losartan
Name: [2-butyl-5-chloro-3-[[4-[2-(2H-tetrazol-5-yl)phenyl]phenyl]methyl]imidazol-4-yl]methanol
Formula: C22H23ClN6O
Exact mass: 422.1621870
SMILES: CCCCc1nc(c(n1Cc2ccc(cc2)c3ccccc3c4[nH]nnn4)CO)Cl
InChI: InChI=1S/C22H23ClN6O/c1-2-3-8-20-24-21(23)19(14-30)29(20)13-15-9-11-16(12-10-15)17-6-4-5-7-18(17)22-25-27-28-26-22/h4-7,9-12,30H,2-3,8,13-14H2,1H3,(H,25,26,27,28)
Instrument: Bruker maXis Impact
Instrument type: LC-ESI-QTOF
Ms type: MS2
Ion mode: POSITIVE
Ionization: ESI
Fragmentation mode: CID
Collision energy: 50 eV
Resolution: 35000
Column name: Acclaim RSLC C18 2.2um, 2.1x100mm, Thermo
Retention time: 8.475 min
Base peak: 423.1695
Precursor m/z: 423.1695
Precursor type: [M+H]+
m/z	relative intensity	assigned
129.0207	7	C8H3NO+
129.0437	16	C8H5N2+
129.0698	5	C10H9+
135.0906	16	C8H11N2+
139.0529	5	C11H7+
140.0488	31	C10H6N+
142.0281	60	C6H7ClN2+
144.0255	16	C6H7[37]ClN2+
151.0543	12	C12H7+
152.061	95	C12H8+
153.0686	131	C12H9+
154.0719	19	C11[13]CH9+
155.084	6	C12H11+
163.0533	32	C13H7+
164.0516	8	C12H6N+
164.0578	10	C3H9ClN6+
165.069	107	C13H9+
166.0727	25	C12[13]CH9+
167.0717	48	C12H9N+
168.0694	8	C10H13Cl+
169.0638	38	C12H9O+
170.067	6	C11[13]CH9O+
171.0675	90	C8H12ClN2+
172.0711	8	C7[13]CH12ClN2+
173.0646	28	C8H12[37]ClN2+
177.0562	23	C13H7N+
178.0642	74	C13H8N+
178.0754	66	C6H13ClN3O+
179.0717	122	C13H9N+
180.0799	763	C13H10N+
181.0828	88	C12[13]CH10N+
182.0871	7	C11[13]C2H10N+
190.0642	262	C14H8N+
191.0706	75	C6H12ClN4O+
192.0675	210	C13H8N2+
192.0783	200	C14H10N+
193.0714	30	C12[13]CH8N2+
193.0819	26	C13[13]CH10N+
194.0596	29	C13H8NO+
195.0636	6	C11H7N4+
195.0911	6	C13H11N2+
196.0749	64	C11H8N4+
197.0778	9	C10[13]CH8N4+
205.0753	342	C14H9N2+
206.0831	472	C6H13ClN5O+
207.0909	999	C14H11N2+
208.0743	50	C6H13[37]ClN5O+
208.0939	133	C13[13]CH11N2+
209.0782	6	C12H9N4+
209.096	8	C12[13]C2H11N2+
211.0602	10	C11H7N4O+
214.0638	14	C16H8N+
216.0794	11	C16H10N+
217.0842	5	C8H14ClN4O+
219.0903	6	C15H11N2+
231.0922	6	C16H11N2+
241.0756	23	C17H9N2+
242.0821	8	C17H10N2+
243.0913	12	C17H11N2+
258.1024	15	C17H12N3+
259.0859	14	C17H11N2O+
281.0939	10	C19H11N3+
282.099	5	C11H15ClN6O+
298.1228	5	C21H16NO+
