Mass spectrum: Efavirenz; LC-ESI-QTOF; MS2; CE: 40 eV; R=35000; [M-H]-
Name: Efavirenz
Name: 6-Chloro-4-(cyclopropylethynyl)-4-(trifluoromethyl)-1,4-dihydro-2H-3,1-benzoxazin-2-one
Name: 6-chloro-4-(2-cyclopropylethynyl)-4-(trifluoromethyl)-1H-3,1-benzoxazin-2-one
Formula: C14H9ClF3NO2
Exact mass: 315.0273909
SMILES: FC(F)(F)C1(OC(=O)NC2=C1C=C(Cl)C=C2)C#CC1CC1
InChI: InChI=1S/C14H9ClF3NO2/c15-9-3-4-11-10(7-9)13(14(16,17)18,21-12(20)19-11)6-5-8-1-2-8/h3-4,7-8H,1-2H2,(H,19,20)
Instrument: Bruker maXis Impact
Instrument type: LC-ESI-QTOF
Ms type: MS2
Ion mode: NEGATIVE
Ionization: ESI
Fragmentation mode: CID
Collision energy: 40 eV
Resolution: 35000
Column name: Acclaim RSLC C18 2.2um, 2.1x100mm, Thermo
Retention time: 10.626 min
Base peak: 314.0196
Precursor m/z: 314.0201
Precursor type: [M-H]-
m/z	relative intensity	assigned
206.021	613	C5H8ClF3NO2-
208.0423	999	C13H6NO2-
221.9896	852	C11H4ClFO2-
241.9938	449	C14H4ClFO-
