Mass spectrum: Bis (2,6-diisopropylphenyl)-carbodiimide; GC-APCI-QTOF; MS2; CE: 20 eV; R=35000; [M]+
Name: Bis (2,6-diisopropylphenyl)-carbodiimide
Formula: C25H34N2
Exact mass: 362.2722
SMILES: CC(C)C1=C(C(=CC=C1)C(C)C)N=C=NC2=C(C=CC=C2C(C)C)C(C)C
InChI: InChI=1S/C25H34N2/c1-16(2)20-11-9-12-21(17(3)4)24(20)26-15-27-25-22(18(5)6)13-10-14-23(25)19(7)8/h9-14,16-19H,1-8H3
Instrument: Bruker 450 GC coupled to maXis Impact
Instrument type: GC-APCI-QTOF
Ms type: MS2
Ion mode: POSITIVE
Ionization: APCI
Fragmentation mode: CID
Collision energy: 20 eV
Resolution: 35000
Column name: Rxi-5Sil MS column, 30m, 0.25mm i.d., 0.25Âµm film thickness, Restek
Retention time: 22.588 min
Base peak: 285.28
Precursor m/z: 362.2717
Precursor type: [M]+
m/z	relative intensity	assigned
135.1042	90	C9H13N+
146.0987	58	C10H12N+
148.1111	212	C10H14N+
160.1136	54	C11H14N+
162.1259	205	C11H16N+
174.1273	105	C12H16N+
175.1345	96	C12H17N+
176.1409	47	C12H18N+
186.1279	999	C13H16N+
187.1339	230	C13H17N+
188.1437	94	C13H18N+
200.141	63	C14H18N+
212.1434	219	C15H18N+
213.1493	76	C15H19N+
214.1638	85	C15H20N+
228.1764	116	C16H22N+
291.1878	50	C20H23N2+
319.2202	247	C22H27N2+
320.2208	78	C22H28N2+
321.2321	83	C22H29N2+
322.2361	52	C22H30N2+
347.2487	819	C24H31N2+
348.2547	247	C24H32N2+
349.2631	47	C24H33N2+
361.2649	201	C25H33N2+
362.2663	90	C25H34N2+
