Mass spectrum: Cyclophosphamide; LC-ESI-QTOF; MS2; CE: 40 eV; R=35000; [M+H]+
Name: Cyclophosphamide
Name: N,N-bis(2-chloroethyl)-2-oxo-1,3,2lambda5-oxazaphosphinan-2-amine
Formula: C7H15Cl2N2O2P
Exact mass: 260.0248197
SMILES: ClCCN(CCCl)P1(=O)NCCCO1
InChI: InChI=1S/C7H15Cl2N2O2P/c8-2-5-11(6-3-9)14(12)10-4-1-7-13-14/h1-7H2,(H,10,12)
Instrument: Bruker maXis Impact
Instrument type: LC-ESI-QTOF
Ms type: MS2
Ion mode: POSITIVE
Ionization: ESI
Fragmentation mode: CID
Collision energy: 40 eV
Resolution: 35000
Column name: Acclaim RSLC C18 2.2um, 2.1x100mm, Thermo
Retention time: 6.220 min
Base peak: 278.1908
Precursor m/z: 261.0321
Precursor type: [M+H]+
m/z	relative intensity	assigned
114.0101	5	C4H5NOP+
120.0204	77	C7H4O2+
123.9723	14	C3H4Cl2N+
127.9659	7	C5HClO2+
138.0306	52	C4H9ClNO2+
140.0019	999	C4H8Cl2N+
141.0051	47	C3[13]CH8Cl2N+
141.9806	119	C6H3ClO2+
141.999	570	C4H8Cl[37]ClN+
142.0174	183	C6H7O2P+
143.0019	19	C3H9ClO2P+
143.0206	16	C5[13]CH7O2P+
143.9782	25	C6H3[37]ClO2+
145.0201	5	Cl2H14NOP+
154.0183	9	C4H10ClNOP+
156.0117	5	CH13Cl2NOP+
167.9975	9	C4H8ClNO2P+
171.0074	9	C7H6ClNO2+
202.0286	8	C5H12Cl2N2O2+
203.9723	5	C4H9Cl2NO2P+
233.0015	5	C5H12Cl2N2O2P+
