Mass spectrum: Methiocarb-sulfoxide phenol; LC-ESI-QTOF; MS2; CE: 10 eV; R=35000; [M-H]-
Name: Methiocarb-sulfoxide phenol
Name: Phenol, 3,5-dimethyl-4-(methylsulfinyl)-
Name: 3,5-dimethyl-4-methylsulfinylphenol
Formula: C9H12O2S
Exact mass: 184.0558006
SMILES: CC1=CC(O)=CC(C)=C1S(C)=O
InChI: InChI=1S/C9H12O2S/c1-6-4-8(10)5-7(2)9(6)12(3)11/h4-5,10H,1-3H3
Instrument: Bruker maXis Impact
Instrument type: LC-ESI-QTOF
Ms type: MS2
Ion mode: NEGATIVE
Ionization: ESI
Fragmentation mode: CID
Collision energy: 10 eV
Resolution: 35000
Column name: Acclaim RSLC C18 2.2um, 2.1x100mm, Thermo
Retention time: 4.608 min
Base peak: 168.0252
Precursor m/z: 183.0485
Precursor type: [M-H]-
m/z	relative intensity	assigned
135.0458	11	C8H7O2-
150.0149	9	C8H6OS-
151.0211	11	C8H7OS-
153.0046	10	C7H5O2S-
167.0168	7	C8H7O2S-
168.0255	999	C8H8O2S-
169.0281	117	C7[13]CH8O2S-
170.0233	39	C8H8O2[34]S-
183.0485	26	C9H11O2S-
