Mass spectrum: Flusilazole; LC-ESI-QTOF; MS2; CE: 50 eV; R=35000; [M+H]+
Name: Flusilazole
Name: bis(4-fluorophenyl)-methyl-(1,2,4-triazol-1-ylmethyl)silane
Formula: C16H15F2N3Si
Exact mass: 315.1003305
SMILES: C[Si](CN1C=NC=N1)(C1=CC=C(F)C=C1)C1=CC=C(F)C=C1
InChI: InChI=1S/C16H15F2N3Si/c1-22(12-21-11-19-10-20-21,15-6-2-13(17)3-7-15)16-8-4-14(18)5-9-16/h2-11H,12H2,1H3
Instrument: Bruker maXis Impact
Instrument type: LC-ESI-QTOF
Ms type: MS2
Ion mode: POSITIVE
Ionization: ESI
Fragmentation mode: CID
Collision energy: 50 eV
Resolution: 35000
Column name: Acclaim RSLC C18 2.2um, 2.1x100mm, Thermo
Retention time: 10.501 min
Base peak: 316.1084
Precursor m/z: 316.1076
Precursor type: [M+H]+
m/z	relative intensity	assigned
115.0539	19	C4H6FN3+
122.0706	13	C6H8N3+
123.0053	26	CH3F2N3Si+
125.0172	32	C7H3F2+
127.0112	44	C5HF2N2+
127.053	6	C5H6FN3+
128.0611	12	C5H7FN3+
129.0677	6	C5H8FN3+
133.0438	5	C4H5F2N3+
136.0861	12	C7H10N3+
137.0939	6	C7H11N3+
138.065	42	C5H12F2Si+
138.1014	7	C7H12N3+
139.0533	29	C6H6FN3+
139.073	23	C5H13F2Si+
141.0154	8	C9H5Si+
141.0688	16	C6H8FN3+
141.109	7	C3H16FN3Si+
149.0206	13	C3H5F2N3Si+
150.0455	10	C7H5FN3+
150.1014	42	C8H12N3+
151.0359	14	C9H5F2+
151.0529	22	C7H6FN3+
151.1073	9	C5H16FN2Si+
152.0609	157	C7H7FN3+
152.0802	16	C6H14F2Si+
153.0676	58	C12H9+
154.0738	11	C11[13]CH9+
155.0585	8	C10H7N2+
157.0266	33	C7H7F2Si+
159.0259	45	C13H3+
159.0594	18	C6H7F2N3+
160.0278	7	C12[13]CH3+
163.0529	33	C8H6FN3+
164.0606	79	C8H7FN3+
164.081	19	C7H14F2Si+
165.069	999	C13H9+
166.0725	120	C12[13]CH9+
166.0965	124	C7H16F2Si+
167.0307	25	C6H6FN3Si+
167.0755	6	C11[13]C2H9+
167.1022	22	C8H15N2Si+
168.056	20	C10H6N3+
169.0462	13	C6H8FN3Si+
169.0635	24	C10H7N3+
170.0517	57	C12H7F+
171.0428	9	C8H9F2Si+
171.0552	7	C11[13]CH7F+
175.0217	15	C10H3F2N+
177.0684	5	C9H8FN3+
178.0767	44	C9H9FN3+
179.0593	12	C12H7N2+
179.0829	20	C6H13F2N2Si+
180.1121	11	C9H16N2Si+
181.0748	7	C12H9N2+
183.0595	167	C8H7F2N3+
184.0657	41	C8H8F2N3+
185.0222	6	C11H6FSi+
185.0418	16	C9H7N3Si+
185.0747	70	C13H10F+
186.0786	9	C12[13]CH10F+
187.0575	48	C9H9N3Si+
196.0507	8	C10H10F2Si+
197.0745	6	C9H9F2N3+
199.0371	15	C7H7F2N3Si+
217.0269	6	C12H7F2Si+
217.0467	11	C15H9Si+
219.0427	37	C12H9F2Si+
220.045	5	C11[13]CH9F2Si+
227.0679	5	C9H11F2N3Si+
231.0432	5	C13H9F2Si+
235.0383	12	C15H8FSi+
235.0577	13	C13H9N3Si+
237.0535	48	C15H10FSi+
238.0568	8	C14[13]CH10FSi+
253.0489	17	C13H8FN3Si+
253.0661	5	C16H9F2N+
255.0646	8	C13H10FN3Si+
271.0585	9	C16H9N3Si+
