Mass spectrum: Clobetasol; LC-ESI-QTOF; MS2; CE: 30 eV; R=35000; [M+H]+
Name: Clobetasol
Name: (8S,9R,10S,11S,13S,14S,16S,17R)-17-(2-chloroacetyl)-9-fluoro-11,17-dihydroxy-10,13,16-trimethyl-6,7,8,11,12,14,15,16-octahydrocyclopenta[a]phenanthren-3-one
Formula: C22H28ClFO4
Exact mass: 410.1660153
SMILES: [H][C@@]12C[C@H](C)[C@](O)(C(=O)CCl)[C@@]1(C)C[C@H](O)[C@@]1(F)[C@@]2([H])CCC2=CC(=O)C=C[C@]12C
InChI: InChI=1S/C22H28ClFO4/c1-12-8-16-15-5-4-13-9-14(25)6-7-19(13,2)21(15,24)17(26)10-20(16,3)22(12,28)18(27)11-23/h6-7,9,12,15-17,26,28H,4-5,8,10-11H2,1-3H3/t12-,15-,16-,17-,19-,20-,21-,22-/m0/s1
Instrument: Bruker maXis Impact
Instrument type: LC-ESI-QTOF
Ms type: MS2
Ion mode: POSITIVE
Ionization: ESI
Fragmentation mode: CID
Collision energy: 30 eV
Resolution: 35000
Column name: Acclaim RSLC C18 2.2um, 2.1x100mm, Thermo
Retention time: 9.460 min
Base peak: 311.2001
Precursor m/z: 411.1733
Precursor type: [M+H]+
m/z	relative intensity	assigned
119.0841	38	ClFH17O3+
120.089	17	C3H17ClO2+
121.0647	122	C8H9O+
121.0999	50	ClFH19O3+
123.0797	18	C8H11O+
125.0591	17	C7H9O2+
125.0935	36	C2H18ClO3+
128.0619	48	C10H8+
129.0684	26	CH15ClFO3+
131.0844	140	CH17ClFO3+
132.0567	33	C9H8O+
133.0408	38	C6H10ClO+
133.063	35	C3H14ClO3+
133.1004	36	CH19ClFO3+
135.0795	150	C9H11O+
136.0852	25	C8[13]CH11O+
137.0582	21	C2H14ClO4+
137.0952	26	ClFH19O4+
141.0684	21	C2H15ClFO3+
143.0239	18	C7H8ClO+
143.0604	22	C8H12Cl+
143.0843	109	C2H17ClFO3+
145.0234	22	C7H7ClF+
145.0396	22	C7H10ClO+
145.063	86	C4H14ClO3+
145.1005	76	C2H19ClFO3+
146.0698	25	C4H15ClO3+
147.0791	999	C10H11O+
148.0833	88	C9[13]CH11O+
149.0954	59	CH19ClFO4+
151.0739	21	C3H16ClO4+
155.0616	19	C9H12Cl+
155.0838	38	C6H16ClO2+
157.0416	17	C8H10ClO+
157.0775	18	C6H16[37]ClO2+
157.1002	54	C3H19ClFO3+
158.0714	39	C2H16ClFO4+
159.0793	264	C2H17ClFO4+
160.0834	62	C5H17ClO3+
161.0578	17	C4H14ClO4+
161.095	205	C11H13O+
162.0982	22	C10[13]CH13O+
163.0742	27	C4H16ClO4+
167.061	53	C10H12Cl+
167.0867	26	C10H12FO+
169.0407	29	C9H10ClO+
169.0613	60	C6H14ClO3+
171.0556	247	C9H12ClO+
171.0796	585	C12H11O+
171.1156	32	C4H21ClFO3+
172.061	40	C9H13ClO+
172.0838	101	C11[13]CH11O+
173.0348	64	C8H10ClO2+
173.0523	71	C9H12[37]ClO+
173.0947	264	C12H13O+
174.0986	30	C11[13]CH13O+
175.109	28	C6H20ClO3+
177.0898	34	C5H18ClO4+
179.0838	26	C8H16ClO2+
183.0558	100	C10H12ClO+
183.0806	34	C13H11O+
183.1158	18	C5H21ClFO3+
185.0359	37	C9H10ClO2+
185.0527	30	C10H12[37]ClO+
185.0723	129	C13H10F+
185.0952	241	C13H13O+
186.0755	19	C12[13]CH10F+
186.0981	45	C12[13]CH13O+
187.0521	52	C9H12ClO2+
187.0727	127	C9H12FO3+
187.1108	134	C10H16FO2+
188.0805	17	C8[13]CH12FO3+
188.118	19	C9[13]CH16FO2+
189.0473	18	C9H12[37]ClO2+
189.0898	31	C6H18ClO4+
193.0755	17	C12H14Cl+
193.1019	22	C12H14FO+
195.056	71	C11H12ClO+
195.0815	19	C11H12FO2+
195.117	38	C15H15+
196.0867	29	C5H18ClFO4+
196.1216	18	C9H21ClO2+
197.0711	20	C11H14ClO+
197.0952	137	C14H13O+
197.1298	25	C9H22ClO2+
198.1002	31	C13[13]CH13O+
199.0717	29	C7H16ClO4+
199.113	59	C11H16FO2+
201.1264	23	C5H23ClFO4+
203.1051	40	C7H20ClO4+
207.1173	29	C16H15+
208.089	19	C12H13FO2+
209.0356	17	C11H10ClO2+
209.0953	95	C6H19ClFO4+
209.1331	37	C13H18FO+
210.1033	45	C6H20ClFO4+
211.0512	50	C11H12ClO2+
211.1098	341	C9H20ClO3+
212.1176	217	C9H21ClO3+
213.0494	24	C11H12[37]ClO2+
213.0653	63	C11H14ClO2+
213.0896	29	C8H18ClO4+
213.126	157	C15H17O+
214.1291	31	C14[13]CH17O+
215.1071	127	C14H15O2+
216.1107	17	C13[13]CH15O2+
219.1157	38	C8H21ClFO3+
221.0953	72	C7H19ClFO4+
221.1336	49	C14H18FO+
222.1035	75	C16H14O+
223.1111	213	C7H21ClFO4+
224.1175	90	C10H21ClO3+
225.1264	123	C16H17O+
226.1308	26	C15[13]CH17O+
227.1041	25	C9H20ClO4+
227.143	87	C16H19O+
228.1466	27	C15[13]CH19O+
233.0953	23	C8H19ClFO4+
234.1026	39	C8H20ClFO4+
235.1124	183	C17H15O+
235.1463	74	C18H19+
236.1146	45	C16[13]CH15O+
236.1566	27	C17[13]CH19+
237.1271	471	C17H17O+
238.1296	118	C16[13]CH17O+
239.1078	28	C13H16FO3+
239.1434	300	C17H19O+
240.1474	83	C16[13]CH19O+
241.1221	42	C16H17O2+
242.127	17	C10H23ClO4+
244.1253	21	C16H17FO+
245.131	39	C10H23ClFO3+
246.1037	19	C18H14O+
246.1398	19	C19H18+
247.0523	17	C14H12ClO2+
248.1188	61	C9H22ClFO4+
249.1263	146	C18H17O+
249.161	27	C13H26ClO2+
250.1332	39	C17[13]CH17O+
250.1696	57	C13H27ClO2+
251.1049	20	C11H20ClO4+
251.1419	77	C9H25ClFO4+
252.1492	78	C12H25ClO3+
253.122	122	C14H18FO3+
253.1573	103	C18H21O+
254.1312	20	C13[13]CH18FO3+
254.1579	19	C17[13]CH21O+
255.137	61	C11H24ClO4+
257.1338	22	C11H24[37]ClO4+
259.1142	27	C16H16FO2+
259.146	31	C14H24ClO2+
260.1187	40	C10H22ClFO4+
260.155	26	C11H26ClFO3+
261.1269	55	C10H23ClFO4+
261.1639	47	C20H21+
262.1344	79	C10H24ClFO4+
263.1417	427	C19H19O+
264.1465	88	C18[13]CH19O+
265.1609	23	C16H22FO2+
267.1374	69	C18H19O2+
267.1759	39	C16H24FO2+
268.1382	25	C16H22ClF+
271.1071	20	C14H20ClO3+
272.1179	25	C14H21ClO3+
273.1266	39	C11H23ClFO4+
273.165	25	C18H22FO+
274.1313	27	C14H23ClO3+
275.0867	21	C19H12FO+
275.1425	76	C11H25ClFO4+
276.1507	70	C20H20O+
277.1222	21	C19H17O2+
277.158	236	C11H27ClFO4+
278.165	480	C11H28ClFO4+
279.1331	20	C17H21ClF+
279.1724	237	C14H28ClO3+
280.1754	39	C13[13]CH28ClO3+
281.1505	33	C13H26ClO4+
281.1859	18	C20H25O+
283.1512	22	C19H20FO+
285.1024	29	C18H18ClO+
286.1355	53	C21H18O+
287.0913	17	C20H12FO+
287.1389	25	C15H24ClO3+
288.1499	79	C12H26ClFO4+
289.1588	43	C21H21O+
291.1391	25	C17H20FO3+
291.1737	141	C21H23O+
292.1762	47	C20[13]CH23O+
293.1509	26	C14H26ClO4+
295.1238	28	C20H20Cl+
295.1695	46	C20H23O2+
296.1807	76	C17H25FO3+
297.1817	45	C20H25O2+
299.082	17	C18H16ClO2+
301.1581	175	C22H21O+
302.1613	49	C21[13]CH21O+
303.1158	23	C15H21ClFO3+
304.1437	25	C15H25ClO4+
306.1612	90	C18H23FO3+
307.1666	24	C17[13]CH23FO3+
309.1848	39	C21H25O2+
311.1198	23	C20H20ClO+
313.0978	43	C19H18ClO2+
313.1346	80	C20H22ClO+
314.1372	36	C19H19FO3+
315.1294	28	C20H22[37]ClO+
319.1699	132	C22H23O2+
320.1713	46	C21[13]CH23O2+
327.1503	72	C21H24ClO+
328.1555	26	C20[13]CH24ClO+
329.1308	123	C20H22ClO2+
330.1351	32	C19[13]CH22ClO2+
331.1273	35	C20H22[37]ClO2+
337.133	73	C22H22ClO+
337.1787	99	C22H25O3+
338.1824	40	C20H28ClFO+
339.136	46	C18H24ClO4+
345.163	32	C18H27ClFO3+
355.1453	193	C22H24ClO2+
356.1472	56	C21[13]CH24ClO2+
357.1424	63	C22H24[37]ClO2+
373.1592	175	C22H26ClO3+
374.1585	48	C21[13]CH26ClO3+
375.1533	68	C22H26[37]ClO3+
