Mass spectrum: 1-Benzylpiperazine; LC-ESI-QTOF; MS2; CE: RAMP 17.2-25.8 eV; R=35000; [M+H]+
Name: 1-Benzylpiperazine
Formula: C11H16N2
Exact mass: 176.1313485
SMILES: c1ccc(cc1)CN2CCNCC2
InChI: InChI=1S/C11H16N2/c1-2-4-11(5-3-1)10-13-8-6-12-7-9-13/h1-5,12H,6-10H2
Instrument: Bruker maXis Impact
Instrument type: LC-ESI-QTOF
Ms type: MS2
Ion mode: POSITIVE
Ionization: ESI
Fragmentation mode: CID
Collision energy: RAMP 17.2-25.8 eV
Resolution: 35000
Column name: Acclaim RSLC C18 2.2um, 2.1x100mm, Thermo
Retention time: 4.297 min
Base peak: 177.1391
Precursor m/z: 177.1386
Precursor type: [M+H]+
m/z	relative intensity	assigned
56.0488	34	C3H6N+
65.0381	9	C5H5+
85.0755	178	C4H9N2+
86.0792	6	C3[13]CH9N2+
91.0547	999	C7H7+
92.0577	80	C6[13]CH7+
177.139	255	C11H17N2+
178.143	39	C10[13]CH17N2+
