Mass spectrum: Losartan; LC-ESI-QTOF; MS2; CE: 20 eV; R=35000; [M+H]+
Name: Losartan
Name: [2-butyl-5-chloro-3-[[4-[2-(2H-tetrazol-5-yl)phenyl]phenyl]methyl]imidazol-4-yl]methanol
Formula: C22H23ClN6O
Exact mass: 422.1621870
SMILES: CCCCc1nc(c(n1Cc2ccc(cc2)c3ccccc3c4[nH]nnn4)CO)Cl
InChI: InChI=1S/C22H23ClN6O/c1-2-3-8-20-24-21(23)19(14-30)29(20)13-15-9-11-16(12-10-15)17-6-4-5-7-18(17)22-25-27-28-26-22/h4-7,9-12,30H,2-3,8,13-14H2,1H3,(H,25,26,27,28)
Instrument: Bruker maXis Impact
Instrument type: LC-ESI-QTOF
Ms type: MS2
Ion mode: POSITIVE
Ionization: ESI
Fragmentation mode: CID
Collision energy: 20 eV
Resolution: 35000
Column name: Acclaim RSLC C18 2.2um, 2.1x100mm, Thermo
Retention time: 8.515 min
Base peak: 423.1691
Precursor m/z: 423.1695
Precursor type: [M+H]+
m/z	relative intensity	assigned
171.0672	72	C8H12ClN2+
172.0706	7	C7[13]CH12ClN2+
173.0642	19	C8H12[37]ClN2+
180.0791	14	C13H10N+
189.0777	20	C6H12ClN5+
190.0644	5	C14H8N+
191.0735	5	C6H12[37]ClN5+
192.0798	93	C14H10N+
193.0825	12	C13[13]CH10N+
206.0826	9	C14H10N2+
206.0945	6	C7H15ClN4O+
207.0909	999	C14H11N2+
208.0937	121	C13[13]CH11N2+
209.0971	5	C12[13]C2H11N2+
235.0969	200	C14H11N4+
236.1003	31	C13[13]CH11N4+
253.108	6	C14H13N4O+
258.1017	22	C17H12N3+
259.1049	5	C16[13]CH12N3+
294.0781	12	C18H8N5+
324.1488	6	C22H18N3+
341.1754	48	C22H21N4+
342.1777	12	C21[13]CH21N4+
362.1408	21	C22H21ClN3+
364.139	7	C22H21[37]ClN3+
365.1539	7	C21H22ClN4+
377.1522	237	C22H22ClN4+
378.1553	59	C21[13]CH22ClN4+
379.1496	67	C22H22[37]ClN4+
380.1514	18	C20H21ClN6+
405.1588	187	C22H22ClN6+
406.161	52	C21[13]CH22ClN6+
407.156	59	C22H22[37]ClN6+
408.159	9	C22H23ClN5O+
423.168	41	C22H24ClN6O+
424.1701	13	C21[13]CH24ClN6O+
425.1667	15	C22H24[37]ClN6O+
