Mass spectrum: Flurazepam; LC-ESI-QTOF; MS2; CE: 30 eV; R=35000; [M+H]+
Name: Flurazepam
Name: 7-chloro-1-[2-(diethylamino)ethyl]-5-(2-fluorophenyl)-3H-1,4-benzodiazepin-2-one
Formula: C21H23ClFN3O
Exact mass: 387.1513683
SMILES: CCN(CC)CCN1c2ccc(cc2C(=NCC1=O)c3ccccc3F)Cl
InChI: InChI=1S/C21H23ClFN3O/c1-3-25(4-2)11-12-26-19-10-9-15(22)13-17(19)21(24-14-20(26)27)16-7-5-6-8-18(16)23/h5-10,13H,3-4,11-12,14H2,1-2H3
Instrument: Bruker maXis Impact
Instrument type: LC-ESI-QTOF
Ms type: MS2
Ion mode: POSITIVE
Ionization: ESI
Fragmentation mode: CID
Collision energy: 30 eV
Resolution: 35000
Column name: Acclaim RSLC C18 2.2um, 2.1x100mm, Thermo
Retention time: 6.881 min
Base peak: 388.1618
Precursor m/z: 388.1586
Precursor type: [M+H]+
m/z	relative intensity	assigned
143.1179	5	C7H15N2O+
260.0653	10	C15H12ClFN+
272.0288	6	C15H8ClFNO+
287.0525	9	C16H11ClFNO+
287.0757	6	C16H13ClFN2+
288.0606	81	C16H12ClFNO+
290.0575	21	C16H12[37]ClFNO+
315.072	999	C17H13ClFN2O+
316.0749	147	C20H13ClN2+
317.0699	198	C19H12ClN3+
318.0729	18	C16H14ClFN3O+
318.0875	15	C21H15ClO+
319.0844	20	C19H14ClN3+
388.1613	15	C21H24ClFN3O+
390.1584	5	C21H24[37]ClFN3O+
