Mass spectrum: Tributylamine; LC-ESI-QTOF; MS2; CE: 20 eV; R=35000; [M+H]+
Name: Tributylamine
Name: N,N-dibutylbutan-1-amine
Formula: C12H27N
Exact mass: 185.2143499
SMILES: CCCCN(CCCC)CCCC
InChI: InChI=1S/C12H27N/c1-4-7-10-13(11-8-5-2)12-9-6-3/h4-12H2,1-3H3
Instrument: Bruker maXis Impact
Instrument type: LC-ESI-QTOF
Ms type: MS2
Ion mode: POSITIVE
Ionization: ESI
Fragmentation mode: CID
Collision energy: 20 eV
Resolution: 35000
Column name: Acclaim RSLC C18 2.2um, 2.1x100mm, Thermo
Retention time: 5.104 min
Base peak: 186.2206
Precursor m/z: 186.2216
Precursor type: [M+H]+
m/z	relative intensity	assigned
128.1415	17	C8H18N+
130.158	245	C8H20N+
131.1606	24	C7[13]CH20N+
168.0795	5	C12H10N+
186.2206	999	C12H28N+
187.2234	105	C11[13]CH28N+
188.2277	9	C10[13]C2H28N+
