Mass spectrum: Dimethenamid-ESA; LC-ESI-QTOF; MS2; CE: 20 eV; R=35000; [M+H]+
Name: Dimethenamid-ESA
Name: AC1O52R5
Name: 2-[(2,4-dimethylthiophen-3-yl)-(1-methoxypropan-2-yl)amino]-2-oxoethanesulfonic acid
Formula: C12H19NO5S2
Exact mass: 321.0704647
SMILES: COCC(C)N(C(=O)CS(O)(=O)=O)c1c(C)csc1C
InChI: InChI=1S/C12H19NO5S2/c1-8-6-19-10(3)12(8)13(9(2)5-18-4)11(14)7-20(15,16)17/h6,9H,5,7H2,1-4H3,(H,15,16,17)
Instrument: Bruker maXis Impact
Instrument type: LC-ESI-QTOF
Ms type: MS2
Ion mode: POSITIVE
Ionization: ESI
Fragmentation mode: CID
Collision energy: 20 eV
Resolution: 35000
Column name: Acclaim RSLC C18 2.2um, 2.1x100mm, Thermo
Retention time: 6.0 min
Base peak: 242.2837
Precursor m/z: 322.0777
Precursor type: [M+H]+
m/z	relative intensity	assigned
152.0516	8	C8H10NS+
166.0676	33	C9H12NS+
167.0772	12	C3H19O3S2+
168.0827	35	C6H16O3S+
209.0874	20	C11H15NOS+
210.0935	280	C11H16NOS+
211.0966	34	C10[13]CH16NOS+
290.0511	999	C11H16NO4S2+
291.0538	147	C10[13]CH16NO4S2+
292.0481	90	C11H16NO4S[34]S+
293.0501	8	C11H17O5S2+
322.0793	20	C12H20NO5S2+
