Mass spectrum: Sulfathiazole; LC-ESI-QTOF; MS2; CE: 40 eV; R=35000; [M+H]+
Name: Sulfathiazole
Name: 4-amino-N-(1,3-thiazol-2-yl)benzenesulfonamide
Formula: C9H9N3O2S2
Exact mass: 255.0136185
SMILES: NC1=CC=C(C=C1)S(=O)(=O)NC1=NC=CS1
InChI: InChI=1S/C9H9N3O2S2/c10-7-1-3-8(4-2-7)16(13,14)12-9-11-5-6-15-9/h1-6H,10H2,(H,11,12)
Instrument: Bruker maXis Impact
Instrument type: LC-ESI-QTOF
Ms type: MS2
Ion mode: POSITIVE
Ionization: ESI
Fragmentation mode: CID
Collision energy: 40 eV
Resolution: 35000
Column name: Acclaim RSLC C18 2.2um, 2.1x100mm, Thermo
Retention time: 5.116 min
Base peak: 256.0151
Precursor m/z: 256.0209
Precursor type: [M+H]+
m/z	relative intensity	assigned
110.9987	7	C4H3N2S+
114.0336	10	C8H4N+
115.028	14	C7H3N2+
115.0393	8	C3H5N3O2+
116.0347	6	C7H4N2+
116.0488	10	H10N3O2S+
122.9988	211	C5H3N2S+
123.9943	130	C9O+
124.997	63	C2H7NOS2+
125.9913	31	CH6N2OS2+
126.005	10	C2H8NOS2+
126.994	17	C4H3N2OS+
127.0173	9	C9H3O+
128.0018	17	C7N2O+
129.0438	20	C8H5N2+
130.0504	6	C8H6N2+
131.0594	168	C8H7N2+
132.0628	13	C7[13]CH7N2+
134.9567	56	C3H3O2S2+
135.9934	19	C5H2N3S+
137.0012	8	C5H3N3S+
138.0094	133	C8N3+
139.0164	29	C8HN3+
140.0061	30	C2H8N2OS2+
141.0126	11	C5H5N2OS+
141.0431	10	C9H5N2+
142.0386	5	C8H4N3+
143.0473	20	C8H5N3+
144.053	8	C8H6N3+
145.0028	7	C7HN2O2+
145.9671	12	C7NOS+
146.9566	62	C4H3O2S2+
146.9754	27	C7HNOS+
147.9652	6	C4H4O2S2+
147.9934	47	C6H2N3S+
148.9731	15	C4H5O2S2+
149.001	22	C6H3N3S+
149.9909	7	C3H6N2OS2+
150.0093	63	C9N3+
151.0052	81	C7H5NOS+
151.0171	572	C9HN3+
153.0146	165	C3H9N2OS2+
154.009	140	C7H6O2S+
154.9999	17	C9HNO2+
157.9624	56	C4H2N2OS2+
158.0687	12	C9H8N3+
158.9565	384	C5H3O2S2+
158.9751	713	C8HNOS+
159.9708	296	C7N2OS+
160.9722	420	C5H5O2S2+
161.9675	168	C4H4NO2S2+
162.97	58	C5H5O2S[34]S+
163.0048	16	C8H5NOS+
163.9999	135	C5H8O2S2+
164.9672	37	C2H3N3O2S2+
165.0203	387	C8H7NOS+
166.028	833	C8H8NOS+
167.0172	98	C3H9N3OS2+
167.0305	62	C7H7N2OS+
168.0248	188	C8H8O2S+
169.0156	11	C3H9N3OS[34]S+
169.0283	11	C7[13]CH8O2S+
171.9703	717	C8N2OS+
172.9653	787	C9HO2S+
173.9676	465	C5H4NO2S2+
173.9856	134	C8H2N2OS+
174.9626	450	C4H3N2O2S2+
175.9656	21	C3[13]CH3N2O2S2+
175.983	95	C5H6NO2S2+
176.0127	49	C9H6NOS+
177.0072	31	C6H9O2S2+
178.0153	168	C6H10O2S2+
179.0224	84	C4H9N3OS2+
180.0127	32	C8H6NO2S+
180.0295	33	C4H10N3OS2+
181.0196	23	C8H7NO2S+
182.0256	7	C8H8NO2S+
183.9703	521	C9N2OS+
184.9766	98	C9HN2OS+
185.9674	270	C6H4NO2S2+
185.9851	74	C9H2N2OS+
186.9811	714	C8HN3OS+
187.9838	92	C7[13]CHN3OS+
188.9785	436	C8HN2O2S+
189.9811	55	C7[13]CHN2O2S+
190.9838	6	C9H5NS2+
191.0236	6	C9H7N2OS+
191.9779	18	C8H4N2S2+
192.0296	9	C5H10N3OS2+
193.0392	28	C9H9N2OS+
194.0348	39	C8H8N3OS+
195.0383	13	C9H9NO2S+
195.966	5	C8H4O2S2+
196.0324	13	C8H8N2O2S+
196.9642	81	C7H3NO2S2+
197.9698	8	C7H4NO2S2+
198.9635	32	C6H3N2O2S2+
198.9791	12	C7H5NO2S2+
199.9902	11	C9H2N3OS+
200.9781	9	C6H5N2O2S2+
201.9833	17	C9H2N2O2S+
203.0108	5	C7H9NO2S2+
203.977	6	C9H4N2S2+
204.0187	12	C9H6N3OS+
206.0169	5	C6H10N2O2S2+
210.9817	976	C7H5N3OS2+
212.9789	612	C7H5N2O2S2+
213.9746	178	C6H4N3O2S2+
214.9771	12	C5[13]CH4N3O2S2+
214.9986	5	C7H7N2O2S2+
215.9896	23	C6H6N3O2S2+
222.0342	38	C9H8N3O2S+
223.0401	8	C9H9N3O2S+
230.0052	11	C7H8N3O2S2+
238.9892	8	C9H7N2O2S2+
256.0146	999	C9H10N3O2S2+
