Mass spectrum: Genistein; LC-ESI-QTOF; MS2; CE: Ramp 22.8-34.1 eV; R=35000; [M-H]-
Name: Genistein
Name: 5,7-dihydroxy-3-(4-hydroxyphenyl)chromen-4-one
Formula: C15H10O5
Exact mass: 270.0528234
SMILES: OC1=CC=C(C=C1)C1=COC2=CC(O)=CC(O)=C2C1=O
InChI: InChI=1S/C15H10O5/c16-9-3-1-8(2-4-9)11-7-20-13-6-10(17)5-12(18)14(13)15(11)19/h1-7,16-18H
Instrument: Bruker maXis Impact
Instrument type: LC-ESI-QTOF
Ms type: MS2
Ion mode: NEGATIVE
Ionization: ESI
Fragmentation mode: CID
Collision energy: Ramp 22.8-34.1 eV
Resolution: 35000
Column name: Acclaim RSLC C18 2.2um, 2.1x100mm, Thermo
Retention time: 7.466 min
Base peak: 59.013
Precursor m/z: 269.0455
Precursor type: [M-H]-
m/z	relative intensity	assigned
63.0227	53	C5H3-
65.0017	26	C4HO-
107.0155	12	C6H3O2-
132.0211	35	C8H4O2-
133.0297	153	C8H5O2-
134.0373	33	C8H6O2-
135.0077	10	C7H3O3-
135.0441	42	C8H7O2-
151.0022	21	C7H3O4-
153.0194	11	C7H5O4-
155.0533	10	C11H7O-
157.0294	30	C10H5O2-
159.0441	76	C10H7O2-
161.0225	11	C9H5O3-
169.0682	19	C12H9O-
171.048	17	C11H7O2-
180.0582	34	C13H8O-
181.0653	50	C13H9O-
182.0356	10	C12H6O2-
183.0454	41	C12H7O2-
196.0531	34	C13H8O2-
197.061	21	C13H9O2-
199.0387	18	C12H7O3-
201.0554	36	C12H9O3-
213.0527	22	C13H9O3-
223.0391	12	C14H7O3-
224.0487	40	C14H8O3-
225.0546	47	C14H9O3-
227.0333	12	C13H7O4-
239.0317	13	C14H7O4-
240.0424	14	C14H8O4-
241.048	17	C14H9O4-
268.0347	14	C15H8O5-
269.0449	999	C15H9O5-
270.0475	185	C14[13]CH9O5-
271.0456	10	C13[13]C2H9O5-
271.0577	14	C13[13]C2H9O5-
