Mass spectrum: Haloperidol; LC-ESI-QTOF; MS2; CE: 20 eV; R=35000; [M+H]+
Name: Haloperidol
Name: 4-[4-(4-chlorophenyl)-4-hydroxypiperidin-1-yl]-1-(4-fluorophenyl)butan-1-one
Formula: C21H23ClFNO2
Exact mass: 375.1401349
SMILES: c1cc(ccc1C(=O)CCCN2CCC(CC2)(c3ccc(cc3)Cl)O)F
InChI: InChI=1S/C21H23ClFNO2/c22-18-7-5-17(6-8-18)21(26)11-14-24(15-12-21)13-1-2-20(25)16-3-9-19(23)10-4-16/h3-10,26H,1-2,11-15H2
Instrument: Bruker maXis Impact
Instrument type: LC-ESI-QTOF
Ms type: MS2
Ion mode: POSITIVE
Ionization: ESI
Fragmentation mode: CID
Collision energy: 20 eV
Resolution: 35000
Column name: Acclaim RSLC C18 2.2um, 2.1x100mm, Thermo
Retention time: 7.5 min
Base peak: 376.1382
Precursor m/z: 376.1474
Precursor type: [M+H]+
m/z	relative intensity	assigned
165.0656	618	C7H14ClO2+
166.0693	30	C6[13]CH14ClO2+
194.0698	5	C14H10O+
194.0918	7	C8H17ClNO2+
358.1297	134	C21H22ClFNO+
359.1344	17	C20[13]CH22ClFNO+
360.1278	25	C21H22[37]ClFNO+
376.1402	999	C21H24ClFNO2+
377.1438	160	C20[13]CH24ClFNO2+
