Mass spectrum: Bupirimate; LC-ESI-QTOF; MS2; CE: 10 eV; R=35000; [M+H]+
Name: Bupirimate
Name: [5-butyl-2-(ethylamino)-6-methylpyrimidin-4-yl] N,N-dimethylsulfamate
Formula: C13H24N4O3S
Exact mass: 316.1569116
SMILES: CCCCC1=C(C)N=C(NCC)N=C1OS(=O)(=O)N(C)C
InChI: InChI=1S/C13H24N4O3S/c1-6-8-9-11-10(3)15-13(14-7-2)16-12(11)20-21(18,19)17(4)5/h6-9H2,1-5H3,(H,14,15,16)
Instrument: Bruker maXis Impact
Instrument type: LC-ESI-QTOF
Ms type: MS2
Ion mode: POSITIVE
Ionization: ESI
Fragmentation mode: CID
Collision energy: 10 eV
Resolution: 35000
Column name: Acclaim RSLC C18 2.2um, 2.1x100mm, Thermo
Retention time: 10.545 min
Base peak: 317.1653
Precursor m/z: 317.1642
Precursor type: [M+H]+
m/z	relative intensity	assigned
166.096	5	C8H12N3O+
187.0574	7	C12H11S+
209.1515	6	C11H19N3O+
210.1586	5	C11H20N3O+
237.207	7	C13H25N4+
272.1057	6	C11H18N3O3S+
317.1654	999	C13H25N4O3S+
