Mass spectrum: Pravastatin; LC-ESI-QTOF; MS2; CE: 10 eV; R=35000; [M-H]-
Name: Pravastatin
Name: 3,5-dihydroxy-7-[6-hydroxy-2-methyl-8-(2-methylbutanoyloxy)-1,2,6,7,8,8a-hexahydronaphthalen-1-yl]heptanoic acid
Formula: C23H36O7
Exact mass: 424.2461035
SMILES: CCC(C)C(=O)OC1CC(O)C=C2C=CC(C)C(CCC(O)CC(O)CC(O)=O)C12
InChI: InChI=1S/C23H36O7/c1-4-13(2)23(29)30-20-11-17(25)9-15-6-5-14(3)19(22(15)20)8-7-16(24)10-18(26)12-21(27)28/h5-6,9,13-14,16-20,22,24-26H,4,7-8,10-12H2,1-3H3,(H,27,28)
Instrument: Bruker maXis Impact
Instrument type: LC-ESI-QTOF
Ms type: MS2
Ion mode: NEGATIVE
Ionization: ESI
Fragmentation mode: CID
Collision energy: 10 eV
Resolution: 35000
Column name: Acclaim RSLC C18 2.2um, 2.1x100mm, Thermo
Retention time: 7.133 min
Base peak: 423.2401
Precursor m/z: 423.2388
Precursor type: [M-H]-
m/z	relative intensity	assigned
321.1686	166	C18H25O5-
423.2386	999	C23H35O7-
424.2412	285	C22[13]CH35O7-
