Mass spectrum: Bendiocarb; LC-ESI-QTOF; MS2; CE: 30 eV; R=35000; [M+H]+
Name: Bendiocarb
Name: (2,2-dimethyl-1,3-benzodioxol-4-yl) N-methylcarbamate
Formula: C11H13NO4
Exact mass: 223.0844579
SMILES: CNC(=O)OC1=CC=CC2=C1OC(C)(C)O2
InChI: InChI=1S/C11H13NO4/c1-11(2)15-8-6-4-5-7(9(8)16-11)14-10(13)12-3/h4-6H,1-3H3,(H,12,13)
Instrument: Bruker maXis Impact
Instrument type: LC-ESI-QTOF
Ms type: MS2
Ion mode: POSITIVE
Ionization: ESI
Fragmentation mode: CID
Collision energy: 30 eV
Resolution: 35000
Column name: Acclaim RSLC C18 2.2um, 2.1x100mm, Thermo
Retention time: 7.003 min
Base peak: 224.0918
Precursor m/z: 224.0917
Precursor type: [M+H]+
m/z	relative intensity	assigned
109.0059	42	C9H+
109.0284	207	C6H5O2+
121.0637	231	C8H9O+
125.0593	51	C7H9O2+
127.015	255	C9H3O+
127.0384	762	C6H7O3+
133.0872	32	C6H13O3+
139.0386	186	C7H7O3+
139.0741	161	C8H11O2+
140.0781	24	C7[13]CH11O2+
149.0592	226	C9H9O2+
150.0615	28	C8[13]CH9O2+
167.0693	999	C9H11O3+
168.0723	95	C8[13]CH11O3+
