Mass spectrum: Midazolam; LC-ESI-QTOF; MS2; CE: 40 eV; R=35000; [M+H]+
Name: Midazolam
Name: 8-chloro-6-(2-fluorophenyl)-1-methyl-4H-imidazo[1,5-a][1,4]benzodiazepine
Formula: C18H13ClFN3
Exact mass: 325.0782033
SMILES: CC1=NC=C2N1C3=C(C=C(C=C3)Cl)C(=NC2)C4=CC=CC=C4F
InChI: InChI=1S/C18H13ClFN3/c1-11-21-9-13-10-22-18(14-4-2-3-5-16(14)20)15-8-12(19)6-7-17(15)23(11)13/h2-9H,10H2,1H3
Instrument: Bruker maXis Impact
Instrument type: LC-ESI-QTOF
Ms type: MS2
Ion mode: POSITIVE
Ionization: ESI
Fragmentation mode: CID
Collision energy: 40 eV
Resolution: 35000
Column name: Acclaim RSLC C18 2.2um, 2.1x100mm, Thermo
Retention time: 8.565 min
Base peak: 326.0888
Precursor m/z: 326.0855
Precursor type: [M+H]+
m/z	relative intensity	assigned
128.0503	7	C3H10ClFN2+
129.0581	24	C9H7N+
148.0564	6	C9H7FN+
152.0269	6	C8H7ClN+
162.0114	5	C9H5ClN+
164.027	13	C9H7ClN+
169.0769	7	C5H13ClFN3+
170.0847	18	C5H14ClFN3+
182.0535	5	C13H7F+
183.0615	20	C13H8F+
184.069	16	C13H9F+
189.023	35	C10H6ClN2+
189.0834	8	C11H10FN2+
191.0201	8	C10H6[37]ClN2+
196.0694	20	C14H9F+
205.054	11	C11H10ClN2+
208.0576	36	C14H7FN+
209.0653	248	C14H8FN+
210.0688	25	C13[13]CH8FN+
214.0788	7	C11H14ClFN+
215.0868	10	C17H11+
217.0234	9	C13H7ClF+
222.0731	41	C15H9FN+
223.0811	139	C15H10FN+
224.0851	16	C14[13]CH10FN+
229.0779	9	C15H14Cl+
230.05	13	C12H9ClN3+
230.0844	6	C16H10N2+
231.0567	10	C12H10ClN3+
243.0933	9	C17H11N2+
244.0346	123	C14H8ClFN+
245.0396	24	C14H9ClFN+
246.0319	30	C13H8ClFN2+
247.0369	5	C12[13]CH8ClFN2+
249.0845	223	C16H10FN2+
250.0915	139	C16H11FN2+
251.0955	17	C15[13]CH11FN2+
255.0712	11	C15H12ClN2+
257.0381	8	C16H4FN3+
258.0502	56	C15H10ClFN+
260.047	15	C15H10[37]ClFN+
263.0998	12	C17H12FN2+
264.1059	5	C17H13FN2+
265.0547	21	C16H10ClN2+
267.0518	6	C16H10[37]ClN2+
268.0342	6	C16H8ClFN+
270.1048	16	C18H12N3+
271.1111	10	C18H13N3+
274.0921	5	C18H11FN2+
276.0954	9	C17H11FN3+
284.0533	23	C16H10ClFN2+
285.0612	84	C16H11ClFN2+
286.0629	14	C15[13]CH11ClFN2+
287.0582	22	C16H11[37]ClFN2+
289.0553	20	C18H10ClN2+
290.1115	73	C18H13FN3+
291.1195	999	C18H14FN3+
292.1224	132	C17[13]CH14FN3+
293.1255	7	C16[13]C2H14FN3+
297.0609	6	C17H11ClFN2+
299.0757	8	C17H13ClFN2+
306.0809	8	C18H13ClN3+
309.0614	45	C18H11ClFN2+
310.0647	10	C17[13]CH11ClFN2+
311.0618	21	C18H11[37]ClFN2+
325.0803	21	C18H13ClFN3+
326.0885	93	C18H14ClFN3+
327.0898	17	C17[13]CH14ClFN3+
328.0853	25	C18H14[37]ClFN3+
