Mass spectrum: Tepraloxydim; LC-ESI-QTOF; MS2; CE: 40 eV; R=35000; [M-H]-
Name: Tepraloxydim
Name: Tepraloxydim [ISO]
Name: 2-[N-[(E)-3-chloroprop-2-enoxy]-C-ethylcarbonimidoyl]-3-hydroxy-5-(oxan-4-yl)cyclohex-2-en-1-one
Formula: C17H24ClNO4
Exact mass: 341.1393859
SMILES: [H]\C(Cl)=C(\[H])CON=C(CC)C1=C(O)CC(CC1=O)C1CCOCC1
InChI: InChI=1S/C17H24ClNO4/c1-2-14(19-23-7-3-6-18)17-15(20)10-13(11-16(17)21)12-4-8-22-9-5-12/h3,6,12-13,20H,2,4-5,7-11H2,1H3/b6-3+,19-14?
Instrument: Bruker maXis Impact
Instrument type: LC-ESI-QTOF
Ms type: MS2
Ion mode: NEGATIVE
Ionization: ESI
Fragmentation mode: CID
Collision energy: 40 eV
Resolution: 35000
Column name: Acclaim RSLC C18 2.2um, 2.1x100mm, Thermo
Retention time: 5.264 min
Base peak: 340.1314
Precursor m/z: 340.1321
Precursor type: [M-H]-
m/z	relative intensity	assigned
120.0085	11	C6H2NO2-
126.0189	7	C5H4NO3-
134.0242	72	C7H4NO2-
135.0294	12	CH10ClNO4-
136.0425	8	C7H6NO2-
152.0333	7	C7H6NO3-
153.091	26	C3H18ClO4-
178.0869	24	C10H12NO2-
180.0657	41	C9H10NO3-
181.0681	6	C8[13]CH10NO3-
195.1017	70	C14H13N-
196.1053	13	C13[13]CH13N-
220.0972	999	C12H14NO3-
221.1009	109	C11[13]CH14NO3-
222.1065	13	C10[13]C2H14NO3-
248.1313	22	C14H18NO3-
250.142	25	C14H20NO3-
