Mass spectrum: Clobetasol propionate; LC-ESI-QTOF; MS2; CE: 30 eV; R=35000; [M+H]+
Name: Clobetasol propionate
Name: [(8S,9R,10S,11S,13S,14S,16S,17R)-17-(2-chloroacetyl)-9-fluoro-11-hydroxy-10,13,16-trimethyl-3-oxo-6,7,8,11,12,14,15,16-octahydrocyclopenta[a]phenanthren-17-yl] propanoate
Formula: C25H32ClFO5
Exact mass: 466.1922300
SMILES: CCC(=O)O[C@@]1([C@@H](C)C[C@H]2[C@@H]3CCC4=CC(=O)C=C[C@]4(C)[C@@]3(F)[C@@H](O)C[C@]12C)C(=O)CCl
InChI: InChI=1S/C25H32ClFO5/c1-5-21(31)32-25(20(30)13-26)14(2)10-18-17-7-6-15-11-16(28)8-9-22(15,3)24(17,27)19(29)12-23(18,25)4/h8-9,11,14,17-19,29H,5-7,10,12-13H2,1-4H3/t14-,17-,18-,19-,22-,23-,24-,25-/m0/s1
Instrument: Bruker maXis Impact
Instrument type: LC-ESI-QTOF
Ms type: MS2
Ion mode: POSITIVE
Ionization: ESI
Fragmentation mode: CID
Collision energy: 30 eV
Resolution: 35000
Column name: Acclaim RSLC C18 2.2um, 2.1x100mm, Thermo
Retention time: 10.664 min
Base peak: 313.216
Precursor m/z: 467.1995
Precursor type: [M+H]+
m/z	relative intensity	assigned
119.0848	35	ClFH17O3+
121.0637	98	C8H9O+
121.1004	67	C9H13+
122.0678	11	C7[13]CH9O+
122.1048	6	C8[13]CH13+
123.0794	7	C8H11O+
128.0617	12	C10H8+
129.0684	8	CH15ClFO3+
131.0483	5	ClFH13O4+
131.0841	35	CH17ClFO3+
132.056	9	ClFH14O4+
133.0405	21	C6H10ClO+
133.063	18	C3H14ClO3+
133.1	49	C10H13+
134.1044	7	C9[13]CH13+
135.0793	123	C9H11O+
136.0832	12	C8[13]CH11O+
137.0953	10	ClFH19O4+
141.0692	9	C2H15ClFO3+
143.0245	11	C7H8ClO+
143.061	21	C8H12Cl+
143.0844	24	C2H17ClFO3+
144.0578	6	C7H9FO2+
144.0889	6	C5H17ClO2+
145.0634	45	CH15ClFO4+
145.0998	23	C2H19ClFO3+
146.0685	7	C4H15ClO3+
147.0793	501	C10H11O+
148.0824	46	C9[13]CH11O+
149.0947	38	C10H13O+
150.0987	7	C9[13]CH13O+
153.046	6	C9H10Cl+
155.0603	6	C9H12Cl+
155.0842	9	C3H17ClFO3+
156.0904	5	C6H17ClO2+
157.0407	6	C8H10ClO+
157.0636	7	C2H15ClFO4+
157.0771	22	C9H14Cl+
157.0999	25	C12H13+
158.0715	13	C2H16ClFO4+
158.1032	5	C11[13]CH13+
159.0791	195	C11H11O+
160.0832	25	C10[13]CH11O+
161.0588	21	CH15ClFO5+
161.0951	131	C11H13O+
162.0978	19	C10[13]CH13O+
163.0743	16	C4H16ClO4+
165.0701	7	C4H16[37]ClO4+
167.0609	68	C10H12Cl+
168.063	5	C9[13]CH12Cl+
169.0408	12	C9H10ClO+
169.06	26	C10H12[37]Cl+
169.0753	18	C10H14Cl+
169.1009	6	C13H13+
171.0556	143	C9H12ClO+
171.0792	350	C6H16ClO3+
171.1156	28	C4H21ClFO3+
172.0602	13	C8[13]CH12ClO+
172.0828	37	C5[13]CH16ClO3+
173.0534	50	C9H12[37]ClO+
173.0949	214	C12H13O+
174.0981	26	C11[13]CH13O+
175.0742	9	C2H17ClFO5+
175.0918	12	C12H12F+
175.11	16	C6H20ClO3+
177.0901	19	C5H18ClO4+
179.0603	5	C11H12Cl+
179.085	6	C5H18[37]ClO4+
179.1064	6	C11H15O2+
181.0396	5	C10H10ClO+
183.0561	37	C10H12ClO+
183.0795	18	C4H17ClFO4+
183.1147	8	C8H20ClO2+
184.0874	7	C4H18ClFO4+
185.0715	253	C10H14ClO+
185.095	235	C13H13O+
186.0749	23	C9[13]CH14ClO+
186.0982	31	C12[13]CH13O+
187.0735	271	C12H11O2+
187.1108	30	C13H15O+
188.0773	31	C11[13]CH11O2+
188.1129	6	C12[13]CH15O+
189.0696	7	C15H9+
189.0902	30	C6H18ClO4+
190.0934	5	C10H16ClF+
191.0855	12	C6H18[37]ClO4+
193.0763	40	C12H14Cl+
193.0982	6	C9H18ClO2+
194.0792	9	C11[13]CH14Cl+
195.0553	30	C11H12ClO+
195.0763	12	C12H14[37]Cl+
195.1157	7	C6H21ClFO3+
196.0604	5	C10[13]CH12ClO+
197.0336	6	C10H10ClO2+
197.056	7	C11H12[37]ClO+
197.0714	20	C11H14ClO+
197.095	57	C14H13O+
198.0998	13	C13[13]CH13O+
199.0741	34	C4H17ClFO5+
199.1104	52	C8H20ClO3+
200.1143	5	C7[13]CH20ClO3+
201.0887	10	C7H18ClO4+
201.1268	9	C5H23ClFO4+
203.068	12	C6H16ClO5+
203.1056	31	C7H20ClO4+
204.1084	6	C11H18ClF+
205.1016	11	C7H20[37]ClO4+
207.0793	5	C6H17ClFO4+
207.1174	8	C13H16FO+
208.0855	15	C9H17ClO3+
209.0723	8	C12H14ClO+
209.0952	47	C6H19ClFO4+
210.1019	19	C9H19ClO3+
211.0741	8	C5H17ClFO5+
211.111	83	C15H15O+
212.1152	18	C14[13]CH15O+
213.0661	21	C11H14ClO2+
213.0873	13	C8H18ClO4+
213.1262	228	C9H22ClO3+
214.1294	30	C8[13]CH22ClO3+
215.0646	11	C11H14[37]ClO2+
215.1078	10	C11H16FO3+
219.0564	6	C13H12ClO+
221.0722	5	C13H14ClO+
221.095	65	C7H19ClFO4+
221.1315	5	C8H23ClFO3+
222.101	28	C10H19ClO3+
223.1105	168	C16H15O+
224.1153	48	C15[13]CH15O+
225.0899	7	C6H19ClFO5+
225.1251	29	C13H18FO2+
226.1337	5	C12[13]CH18FO2+
227.1056	11	C6H21ClFO5+
227.1426	22	C16H19O+
230.1086	5	C18H14+
231.1156	12	C9H21ClFO3+
233.0708	10	C14H14ClO+
233.095	7	C8H19ClFO4+
234.1027	27	C8H20ClFO4+
235.1106	57	C8H21ClFO4+
235.1479	20	C18H19+
236.1167	21	C11H21ClO3+
236.151	5	C17[13]CH19+
237.0928	6	C13H14FO3+
237.1255	58	C17H17O+
238.1315	10	C16[13]CH17O+
239.1059	15	C7H21ClFO5+
239.1418	66	C17H19O+
240.1114	5	C10H21ClO4+
240.1466	11	C16[13]CH19O+
241.122	32	C16H17O2+
241.1586	30	C14H22FO2+
242.1244	6	C15[13]CH17O2+
242.1641	6	C13[13]CH22FO2+
243.1143	7	C13H20ClO2+
244.1221	5	C13H21ClO2+
245.0951	5	C9H19ClFO4+
245.1319	22	C19H17+
246.1032	9	C9H20ClFO4+
246.1391	7	C18[13]CH17+
247.0516	10	C14H12ClO2+
247.0867	16	C15H16ClO+
247.1094	10	C12H20ClO3+
248.1183	55	C9H22ClFO4+
249.0829	7	C15H16[37]ClO+
249.1262	70	C18H17O+
249.1623	8	C10H27ClFO3+
250.1326	21	C17[13]CH17O+
250.1699	11	C13H27ClO2+
251.0816	12	C14H16ClO2+
251.1051	7	C8H21ClFO5+
251.1411	41	C12H24ClO3+
252.1481	20	C12H25ClO3+
253.1575	206	C18H21O+
254.1615	38	C17[13]CH21O+
257.0707	9	C16H14ClO+
257.1303	8	C14H22ClO2+
258.1409	6	C17H19FO+
259.0687	6	C16H13ClF+
259.1097	13	C13H20ClO3+
259.1474	13	C11H25ClFO3+
260.1173	27	C13H21ClO3+
260.1552	13	C11H26ClFO3+
261.0667	9	C15H14ClO2+
261.1257	31	C13H22ClO3+
261.1632	43	C17H22FO+
262.1341	37	C10H24ClFO4+
262.1692	12	C16[13]CH22FO+
263.1422	690	C19H19O+
264.112	8	C12H21ClO4+
264.146	143	C18[13]CH19O+
265.1536	13	C17[13]C2H19O+
266.1638	7	C13H27ClO3+
267.0957	5	C15H17ClFO+
267.1369	22	C18H19O2+
267.1729	26	C19H23O+
268.1397	6	C17[13]CH19O2+
268.1762	6	C18[13]CH23O+
271.0868	11	C17H16ClO+
271.1102	9	C11H21ClFO4+
272.1181	9	C11H22ClFO4+
273.1262	40	C11H23ClFO4+
273.1618	18	C15H26ClO2+
274.1325	20	C14H23ClO3+
275.0821	15	C16H16ClO2+
275.1425	84	C20H19O+
276.1486	53	C14H25ClO3+
277.1217	22	C10H23ClFO5+
277.1575	272	C11H27ClFO4+
278.1658	999	C11H28ClFO4+
279.1726	589	C20H23O+
280.1762	111	C19[13]CH23O+
281.1521	39	C13H26ClO4+
281.1847	14	C18[13]C2H23O+
282.1557	5	C12[13]CH26ClO4+
283.1477	12	C13H26[37]ClO4+
284.1548	5	C13H26ClFO3+
285.0706	5	C20H10FO+
285.1047	10	C15H19ClFO2+
286.1342	46	C21H18O+
287.1188	17	C18H20ClO+
287.132	14	C20[13]CH18O+
288.1211	5	C17[13]CH20ClO+
288.1497	110	C21H20O+
289.1143	10	C18H19ClF+
289.1554	30	C20[13]CH20O+
290.1274	9	C14H23ClO4+
291.1365	22	C17H20FO3+
291.1738	242	C18H24FO2+
292.1441	5	C16[13]CH20FO3+
292.1774	51	C17[13]CH24FO2+
293.1491	6	C14H26ClO4+
293.1859	5	C16[13]C2H24FO2+
295.0892	8	C16H17ClFO2+
295.1278	6	C17H21ClFO+
295.1684	21	C11H29ClFO5+
296.1756	59	C11H30ClFO5+
297.1043	6	C19H18ClO+
297.1812	26	C18H27ClF+
298.177	6	C17[13]CH27ClF+
299.0831	10	C18H16ClO2+
301.1579	252	C22H21O+
302.1623	66	C21[13]CH21O+
303.1643	7	C20[13]C2H21O+
304.1442	14	C12H26ClFO5+
305.1523	7	C12H27ClFO5+
306.1614	120	C21H22O2+
307.1652	27	C20[13]CH22O2+
309.14	6	C21H22Cl+
309.184	41	C21H25O2+
310.1888	10	C20[13]CH25O2+
311.1177	14	C20H20ClO+
312.1227	6	C20H21ClO+
313.0988	27	C16H19ClFO3+
313.1354	53	C20H22ClO+
314.1041	7	C15[13]CH19ClFO3+
314.135	14	C19[13]CH22ClO+
315.0979	7	C16H19[37]ClFO3+
315.132	17	C20H22[37]ClO+
319.1682	126	C16H28ClO4+
320.1714	24	C15[13]CH28ClO4+
321.1691	7	C18H25O5+
322.112	8	C21H19ClO+
324.1728	12	C18H25FO4+
327.1507	151	C21H24ClO+
328.1546	32	C20[13]CH24ClO+
329.1468	48	C21H24[37]ClO+
330.1494	9	C19H22O5+
337.1339	125	C22H22ClO+
337.1791	19	C22H25O3+
338.1391	28	C21[13]CH22ClO+
339.1335	41	C22H22[37]ClO+
340.1335	8	C20H20O5+
345.1614	30	C21H26ClO2+
346.1672	9	C20[13]CH26ClO2+
347.1575	13	C21H26[37]ClO2+
355.1455	316	C22H24ClO2+
356.1488	82	C21[13]CH24ClO2+
357.1424	97	C22H24[37]ClO2+
358.1457	14	C25H23Cl+
373.1559	56	C22H26ClO3+
374.1582	11	C21[13]CH26ClO3+
375.1514	16	C22H26[37]ClO3+
376.1562	6	C25H25ClO+
