Mass spectrum: Atrazine-desethyl-2-hydroxy; LC-ESI-QTOF; MS2; CE: 10 eV; R=35000; [M-H]-
Name: Atrazine-desethyl-2-hydroxy
Formula: C6H11N5O
Exact mass: 169.0963600
SMILES: CC(C)/N=c\1/[nH]c(=N)nc([nH]1)O
InChI: InChI=1S/C6H11N5O/c1-3(2)8-5-9-4(7)10-6(12)11-5/h3H,1-2H3,(H4,7,8,9,10,11,12)
Instrument: Bruker maXis Impact
Instrument type: LC-ESI-QTOF
Ms type: MS2
Ion mode: NEGATIVE
Ionization: ESI
Fragmentation mode: CID
Collision energy: 10 eV
Resolution: 35000
Column name: Acclaim RSLC C18 2.2um, 2.1x100mm, Thermo
Retention time: 3.483 min
Base peak: 168.0874
Precursor m/z: 168.0891
Precursor type: [M-H]-
m/z	relative intensity	assigned
125.0824	292	C5H9N4-
168.0866	999	C6H10N5O-
