Mass spectrum: Chloramphenicol; LC-ESI-QTOF; MS2; CE: 50 eV; R=35000; [M+H]+
Name: Chloramphenicol
Name: 2,2-Dichloro-N-[1,3-dihydroxy-1-(4-nitrophenyl)propan-2-yl]acetamide
Name: 2,2-dichloro-N-[1,3-dihydroxy-1-(4-nitrophenyl)propan-2-yl]acetamide
Formula: C11H12Cl2N2O5
Exact mass: 322.0123268
SMILES: OCC(NC(=O)C(Cl)Cl)C(O)C1=CC=C(C=C1)[N+]([O-])=O
InChI: InChI=1S/C11H12Cl2N2O5/c12-10(13)11(18)14-8(5-16)9(17)6-1-3-7(4-2-6)15(19)20/h1-4,8-10,16-17H,5H2,(H,14,18)
Instrument: Bruker maXis Impact
Instrument type: LC-ESI-QTOF
Ms type: MS2
Ion mode: POSITIVE
Ionization: ESI
Fragmentation mode: CID
Collision energy: 50 eV
Resolution: 35000
Column name: Acclaim RSLC C18 2.2um, 2.1x100mm, Thermo
Retention time: 5.712 min
Base peak: 376.2389
Precursor m/z: 323.0196
Precursor type: [M+H]+
m/z	relative intensity	assigned
118.0636	688	C2H13ClNO2+
119.0716	704	C5H11O3+
130.0643	615	C9H8N+
131.0487	394	C9H7O+
164.024	836	C3H12Cl2NO2+
165.0648	999	C8H9N2O2+
