Mass spectrum: Piperine; LC-ESI-QTOF; MS2; CE: 40 eV; R=35000; [M+H]+
Name: Piperine
Name: (2E,4E)-5-(1,3-benzodioxol-5-yl)-1-piperidin-1-ylpenta-2,4-dien-1-one
Formula: C17H19NO3
Exact mass: 285.1364935
SMILES: O=C(\C=C\C=C\C1=CC2=C(OCO2)C=C1)N1CCCCC1
InChI: InChI=1S/C17H19NO3/c19-17(18-10-4-1-5-11-18)7-3-2-6-14-8-9-15-16(12-14)21-13-20-15/h2-3,6-9,12H,1,4-5,10-11,13H2/b6-2+,7-3+
Instrument: Bruker maXis Impact
Instrument type: LC-ESI-QTOF
Ms type: MS2
Ion mode: POSITIVE
Ionization: ESI
Fragmentation mode: CID
Collision energy: 40 eV
Resolution: 35000
Column name: Acclaim RSLC C18 2.2um, 2.1x100mm, Thermo
Retention time: 10.043 min
Base peak: 286.144
Precursor m/z: 286.1438
Precursor type: [M+H]+
m/z	relative intensity	assigned
115.0539	999	C9H7+
116.0569	98	C8[13]CH7+
117.0692	18	C9H9+
122.0956	15	C8H12N+
127.0531	14	C10H7+
129.0689	5	C10H9+
131.0481	10	C9H7O+
134.0958	9	C9H12N+
135.0432	822	C8H7O2+
136.0462	55	C7[13]CH7O2+
143.0482	980	C10H7O+
144.0514	94	C9[13]CH7O+
145.0634	30	C10H9O+
150.0898	21	C9H12NO+
151.0979	60	C9H13NO+
152.1015	7	C8[13]CH13NO+
155.0588	17	C7H9NO3+
157.0639	5	C11H9O+
159.043	213	C10H7O2+
160.0464	27	C9[13]CH7O2+
161.058	10	C10H9O2+
171.0431	711	C11H7O2+
172.0465	77	C10[13]CH7O2+
173.0586	174	C11H9O2+
174.0618	23	C10[13]CH9O2+
185.0952	5	C13H13O+
189.0535	5	C11H9O3+
201.0539	932	C12H9O3+
202.0571	107	C11[13]CH9O3+
203.0597	8	C10[13]C2H9O3+
218.1171	6	C13H16NO2+
