Mass spectrum: Benzidine; LC-ESI-QTOF; MS2; CE: 20 eV; R=35000; [M+H]+
Name: Benzidine
Name: 4-(4-aminophenyl)aniline
Formula: C12H12N2
Exact mass: 184.1000484
SMILES: NC1=CC=C(C=C1)C1=CC=C(N)C=C1
InChI: InChI=1S/C12H12N2/c13-11-5-1-9(2-6-11)10-3-7-12(14)8-4-10/h1-8H,13-14H2
Instrument: Bruker maXis Impact
Instrument type: LC-ESI-QTOF
Ms type: MS2
Ion mode: POSITIVE
Ionization: ESI
Fragmentation mode: CID
Collision energy: 20 eV
Resolution: 35000
Column name: Acclaim RSLC C18 2.2um, 2.1x100mm, Thermo
Retention time: 4.000 min
Base peak: 214.1079
Precursor m/z: 185.1073
Precursor type: [M+H]+
m/z	relative intensity	assigned
130.0637	6	C9H8N+
141.0682	22	C11H9+
143.0712	6	C10H9N+
144.0787	7	C10H10N+
151.0528	5	C12H7+
156.0789	18	C11H10N+
157.0862	9	C11H11N+
158.0941	6	C11H12N+
166.0632	12	C12H8N+
167.0712	94	C12H9N+
168.0791	262	C12H10N+
169.0843	44	C11[13]CH10N+
182.083	5	C12H10N2+
183.09	47	C12H11N2+
184.0983	999	C12H12N2+
185.1047	321	C12H13N2+
186.1083	34	C11[13]CH13N2+
