Mass spectrum: 2-Morpholinothiobenzothiazole; LC-ESI-QTOF; MS2; CE: 50 eV; R=35000; [M+H]+
Name: 2-Morpholinothiobenzothiazole
Name: 2-(Morpholinothio)benzothiazole
Name: 4-(1,3-benzothiazol-2-ylsulfanyl)morpholine
Formula: C11H12N2OS2
Exact mass: 252.0391050
SMILES: C1CN(CCO1)SC1=NC2=CC=CC=C2S1
InChI: InChI=1S/C11H12N2OS2/c1-2-4-10-9(3-1)12-11(15-10)16-13-5-7-14-8-6-13/h1-4H,5-8H2
Instrument: Bruker maXis Impact
Instrument type: LC-ESI-QTOF
Ms type: MS2
Ion mode: POSITIVE
Ionization: ESI
Fragmentation mode: CID
Collision energy: 50 eV
Resolution: 35000
Column name: Acclaim RSLC C18 2.2um, 2.1x100mm, Thermo
Retention time: 9.842 min
Base peak: 253.0461
Precursor m/z: 253.0464
Precursor type: [M+H]+
m/z	relative intensity	assigned
122.0047	986	C6H4NS+
123.0124	175	C6H5NS+
124.0021	87	C3H8OS2+
124.0199	110	C6H6NS+
132.997	161	C7H3NS+
134.0027	109	C10N+
135.0128	721	C7H5NS+
136.0196	690	C10H2N+
138.9661	244	C6H3S2+
139.9743	94	C6H4S2+
162.0352	231	C9H8NS+
163.0301	89	C11H3N2+
164.9687	201	C7H3NS2+
165.9774	999	C7H4NS2+
166.9846	594	C7H5NS2+
167.9728	106	C7H4NS[34]S+
167.9916	299	C10H2NS+
168.98	118	C7H5OS2+
175.0301	117	C9H7N2S+
189.0471	71	C10H9N2S+
