Mass spectrum: Ceftiofur; LC-ESI-QTOF; MS2; CE: Ramp 26.1-39.2 eV; R=35000; [M+H]+
Name: Ceftiofur
Name: (6R,7R)-7-[[(2Z)-2-(2-amino-1,3-thiazol-4-yl)-2-methoxyiminoacetyl]amino]-3-(furan-2-carbonylsulfanylmethyl)-8-oxo-5-thia-1-azabicyclo[4.2.0]oct-2-ene-2-carboxylic acid
Formula: C19H17N5O7S3
Exact mass: 523.029
SMILES: CO/N=C(/c1csc(n1)N)\C(=O)N[C@H]2[C@@H]3N(C2=O)C(=C(CS3)CSC(=O)c4ccco4)C(=O)O
InChI: InChI=1S/C19H17N5O7S3/c1-30-23-11(9-7-34-19(20)21-9)14(25)22-12-15(26)24-13(17(27)28)8(5-32-16(12)24)6-33-18(29)10-3-2-4-31-10/h2-4,7,12,16H,5-6H2,1H3,(H2,20,21)(H,22,25)(H,27,28)/b23-11-/t12-,16-/m1/s1
Instrument: Bruker maXis Impact
Instrument type: LC-ESI-QTOF
Ms type: MS2
Ion mode: POSITIVE
Ionization: ESI
Fragmentation mode: CID
Collision energy: Ramp 26.1-39.2 eV
Resolution: 35000
Column name: Acclaim RSLC C18 2.2um, 2.1x100mm, Thermo
Retention time: 5.5 min
Base peak: 102.1287
Precursor m/z: 524.0363
Precursor type: [M+H]+
m/z	relative intensity	assigned
112.0401	53	C5H6NO2+
125.0042	202	C4H3N3S+
126.0119	538	C4H4N3S+
127.0204	112	C4H5N3S+
139.0313	86	C6H7N2S+
140.0172	119	H4N4O5+
140.9998	102	C4H3N3OS+
144.0227	103	C4H6N3OS+
152.016	60	C7H6NOS+
156.023	517	C5H6N3OS+
166.0312	282	H12N3O3S2+
167.0278	568	CH13NO4S2+
168.0116	52	C7H6NO2S+
171.9889	75	C6H6NOS2+
174.0336	82	C13H4N+
179.0004	56	C11HNO2+
181.0177	97	C6H5N4OS+
182.0246	109	C5H10O5S+
183.0334	87	C6H7N4OS+
197.0503	474	C9H11NO2S+
199.9946	72	C6H6N3OS2+
201.0453	76	C8H11NO3S+
202.0277	83	C12H2N4+
208.9939	53	C6H9O4S2+
209.0136	277	CH11N3O5S2+
210.0207	697	C7H6N4O2S+
211.0207	387	C5H11N2O3S2+
211.9941	91	C6H2N3O6+
213.0474	78	C4H13N4O2S2+
225.0454	72	C10H11NO3S+
225.9949	63	C4H8N3O4S2+
226.0023	110	C6H12NO2S3+
227.0062	308	CH13N3O4S3+
241.0403	999	C10H11NO4S+
242.0423	149	C3H18N2O4S3+
243.0406	60	C6H13NO7S+
244.0671	60	C7H18NO4S2+
253.992	56	C7H2N4O7+
257.0185	228	C4H9N4O7S+
258.0239	78	C8H10N4O2S2+
259.0138	53	C15H3N2O3+
277.0228	105	C13H11NO2S2+
278.0256	51	C14H6N4OS+
284.0051	170	C11H2N5O5+
285.0122	439	C11H11NO4S2+
286.012	66	C15H2N4O3+
293.0397	80	C11H11N5OS2+
324.0592	191	C14H16N2O3S2+
368.0487	66	C13H14N5O4S2+
524.0387	107	C19H18N5O7S3+
526.0429	61	C18H18N6O7S3+
