Mass spectrum: Metamitron; LC-ESI-QTOF; MS2; CE: 10 eV; R=35000; [M+H]+
Name: Metamitron
Name: 4-amino-3-methyl-6-phenyl-1,2,4-triazin-5-one
Formula: C10H10N4O
Exact mass: 202.0854609
SMILES: CC1=NN=C(C(=O)N1N)C1=CC=CC=C1
InChI: InChI=1S/C10H10N4O/c1-7-12-13-9(10(15)14(7)11)8-5-3-2-4-6-8/h2-6H,11H2,1H3
Instrument: Bruker maXis Impact
Instrument type: LC-ESI-QTOF
Ms type: MS2
Ion mode: POSITIVE
Ionization: ESI
Fragmentation mode: CID
Collision energy: 10 eV
Resolution: 35000
Column name: Acclaim RSLC C18 2.2um, 2.1x100mm, Thermo
Retention time: 5.2 min
Base peak: 203.0922
Precursor m/z: 203.0927
Precursor type: [M+H]+
m/z	relative intensity	assigned
145.0391	6	C8H5N2O+
174.0775	9	C10H10N2O+
175.0964	29	C9H11N4+
203.0927	999	C10H11N4O+
204.0947	97	C9[13]CH11N4O+
205.0984	6	C8[13]C2H11N4O+
