Mass spectrum: Thiacloprid-amide; LC-ESI-QTOF; MS2; CE: 20 eV; R=35000; [M+H]+
Name: Thiacloprid-amide
Name: SCHEMBL2190770
Name: [3-[(6-chloropyridin-3-yl)methyl]-1,3-thiazolidin-2-ylidene]urea
Formula: C10H11ClN4OS
Exact mass: 270.0342097
SMILES: NC(=O)N=C1SCCN1CC1=CN=C(Cl)C=C1
InChI: InChI=1S/C10H11ClN4OS/c11-8-2-1-7(5-13-8)6-15-3-4-17-10(15)14-9(12)16/h1-2,5H,3-4,6H2,(H2,12,16)
Instrument: Bruker maXis Impact
Instrument type: LC-ESI-QTOF
Ms type: MS2
Ion mode: POSITIVE
Ionization: ESI
Fragmentation mode: CID
Collision energy: 20 eV
Resolution: 35000
Column name: Acclaim RSLC C18 2.2um, 2.1x100mm, Thermo
Retention time: 4.6 min
Base peak: 271.0411
Precursor m/z: 271.0415
Precursor type: [M+H]+
m/z	relative intensity	assigned
126.0098	865	C6H5ClN+
127.0131	40	C5[13]CH5ClN+
128.0068	177	C6H5[37]ClN+
129.0105	13	C5[13]CH5[37]ClN+
132.0547	7	C7H6N3+
144.0203	7	C4H5ClN4+
165.0472	5	C10H10Cl+
168.0308	14	C10H4N2O+
186.0128	90	C8H9ClNS+
187.0169	6	C7[13]CH9ClNS+
188.0094	25	C8H9[37]ClNS+
192.0577	57	C9H10N3S+
193.0611	7	C8[13]CH10N3S+
211.0082	6	C10H3N4S+
228.0346	999	C9H11ClN3S+
229.0378	85	C8[13]CH11ClN3S+
230.0315	257	C9H11[37]ClN3S+
231.0347	14	C8[13]CH11[37]ClN3S+
254.0143	342	C10H9ClN3OS+
255.0163	33	C9[13]CH9ClN3OS+
256.0112	88	C10H9[37]ClN3OS+
257.0134	8	C9[13]CH9[37]ClN3OS+
271.0413	31	C10H12ClN4OS+
272.0436	4	C9[13]CH12ClN4OS+
273.038	10	C10H12[37]ClN4OS+
