Mass spectrum: Diuron-desmonomethyl; LC-ESI-QTOF; MS2; CE: 50 eV; R=35000; [M+H]+
Name: Diuron-desmonomethyl
Name: Monomethyldiuron
Name: 1-(3,4-dichlorophenyl)-3-methylurea
Formula: C8H8Cl2N2O
Exact mass: 218.0013682
SMILES: CNC(=O)NC1=CC(Cl)=C(Cl)C=C1
InChI: InChI=1S/C8H8Cl2N2O/c1-11-8(13)12-5-2-3-6(9)7(10)4-5/h2-4H,1H3,(H2,11,12,13)
Instrument: Bruker maXis Impact
Instrument type: LC-ESI-QTOF
Ms type: MS2
Ion mode: POSITIVE
Ionization: ESI
Fragmentation mode: CID
Collision energy: 50 eV
Resolution: 35000
Column name: Acclaim RSLC C18 2.2um, 2.1x100mm, Thermo
Retention time: 8.4 min
Base peak: 219.0083
Precursor m/z: 219.0086
Precursor type: [M+H]+
m/z	relative intensity	assigned
126.0094	9	C6H5ClN+
127.0174	999	C6H6ClN+
128.0205	72	C5[13]CH6ClN+
129.0144	235	C6H6[37]ClN+
132.9599	36	C5H3Cl2+
172.9659	9	C6H3Cl2N2+
