Mass spectrum: Pirimicarb; LC-ESI-QTOF; MS2; CE: 30 eV; R=35000; [M+H]+
Name: Pirimicarb
Name: [2-(dimethylamino)-5,6-dimethylpyrimidin-4-yl] N,N-dimethylcarbamate
Formula: C11H18N4O2
Exact mass: 238.1429758
SMILES: CN(C)C(=O)OC1=C(C)C(C)=NC(=N1)N(C)C
InChI: InChI=1S/C11H18N4O2/c1-7-8(2)12-10(14(3)4)13-9(7)17-11(16)15(5)6/h1-6H3
Instrument: Bruker maXis Impact
Instrument type: LC-ESI-QTOF
Ms type: MS2
Ion mode: POSITIVE
Ionization: ESI
Fragmentation mode: CID
Collision energy: 30 eV
Resolution: 35000
Column name: Acclaim RSLC C18 2.2um, 2.1x100mm, Thermo
Retention time: 7.724 min
Base peak: 239.1505
Precursor m/z: 239.1503
Precursor type: [M+H]+
m/z	relative intensity	assigned
124.0619	9	C6H8N2O+
137.0699	170	C7H9N2O+
138.0771	88	C7H10N2O+
139.0829	10	C6[13]CH10N2O+
150.1014	118	C8H12N3+
151.1047	12	C7[13]CH12N3+
152.0802	57	C7H10N3O+
166.0959	18	C8H12N3O+
167.1039	73	C8H13N3O+
168.1087	9	C7[13]CH13N3O+
180.1118	12	C9H14N3O+
182.1279	999	C11H18O2+
183.1304	88	C10[13]CH18O2+
184.1328	5	C9[13]C2H18O2+
195.1591	30	C10H19N4+
