Mass spectrum: Bisphenol A (2,3-dihydroxypropyl) glycidyl ether; LC-ESI-QTOF; MS2; CE: 40 eV; R=35000; [M+NH4]+
Name: Bisphenol A (2,3-dihydroxypropyl) glycidyl ether
Name: 3-(4-(1-(4-(2,3-Epoxypropoxy)phenyl)-1-methylethyl)phenoxy)propane-1,2-diol
Name: 3-[4-[2-[4-(oxiran-2-ylmethoxy)phenyl]propan-2-yl]phenoxy]propane-1,2-diol
Formula: C21H26O5
Exact mass: 358.178
SMILES: CC(C)(C1=CC=C(C=C1)OCC2CO2)C3=CC=C(C=C3)OCC(CO)O
InChI: InChI=1S/C21H26O5/c1-21(2,15-3-7-18(8-4-15)24-12-17(23)11-22)16-5-9-19(10-6-16)25-13-20-14-26-20/h3-10,17,20,22-23H,11-14H2,1-2H3
Instrument: Bruker maXis Impact
Instrument type: LC-ESI-QTOF
Ms type: MS2
Ion mode: POSITIVE
Ionization: ESI
Fragmentation mode: CID
Collision energy: 40 eV
Resolution: 35000
Column name: Acclaim RSLC C18 2.2um, 2.1x100mm, Thermo
Retention time: 9.509 min
Base peak: 376.212
Precursor m/z: 376.2129
Precursor type: [M+NH4]+
m/z	relative intensity	assigned
117.0692	8	C9H9+
133.0637	19	C9H9O+
133.1011	5	C10H13+
135.0797	999	C9H11O+
137.0862	8	C8H11NO+
145.0645	12	C10H9O+
147.079	15	C10H11O+
161.0948	146	C11H13O+
173.0949	25	C12H13O+
191.1057	659	C12H15O2+
193.1102	8	C11H15NO2+
204.0789	5	C12H12O3+
209.1161	76	C12H17O3+
210.1201	10	C12H18O3+
232.0751	11	C16H10NO+
