Mass spectrum: Triamterene; LC-ESI-QTOF; MS2; CE: 40 eV; R=35000; [M+H]+
Name: Triamterene
Name: 6-phenylpteridine-2,4,7-triamine
Formula: C12H11N7
Exact mass: 253.1075934
SMILES: C1=CC=C(C=C1)C2=NC3=C(N=C2N)N=C(N=C3N)N
InChI: InChI=1S/C12H11N7/c13-9-7(6-4-2-1-3-5-6)16-8-10(14)18-12(15)19-11(8)17-9/h1-5H,(H6,13,14,15,17,18,19)
Instrument: Bruker maXis Impact
Instrument type: LC-ESI-QTOF
Ms type: MS2
Ion mode: POSITIVE
Ionization: ESI
Fragmentation mode: CID
Collision energy: 40 eV
Resolution: 35000
Column name: Acclaim RSLC C18 2.2um, 2.1x100mm, Thermo
Retention time: 4.7 min
Base peak: 254.1146
Precursor m/z: 254.1149
Precursor type: [M+H]+
m/z	relative intensity	assigned
116.0494	27	C8H6N+
131.0599	8	C8H7N2+
134.0454	6	C5H4N5+
142.0512	14	C9H6N2+
143.0598	138	C9H7N2+
144.0631	10	C8[13]CH7N2+
168.0552	273	C10H6N3+
169.0592	19	C9[13]CH6N3+
183.0662	34	C10H7N4+
186.0662	8	C8H6N6+
193.051	19	C11H5N4+
195.0663	318	C11H7N4+
196.0694	24	C10[13]CH7N4+
210.0773	144	C11H8N5+
211.0816	12	C10[13]CH8N5+
212.0929	82	C11H10N5+
213.0762	13	C9H7N7+
213.0963	8	C10[13]CH10N5+
227.1039	26	C11H11N6+
237.0883	999	C12H9N6+
238.0911	92	C11[13]CH9N6+
254.1151	215	C12H12N7+
255.1181	18	C11[13]CH12N7+
