Mass spectrum: Losartan; LC-ESI-QTOF; MS2; CE: 40 eV; R=35000; [M+H]+
Name: Losartan
Name: [2-butyl-5-chloro-3-[[4-[2-(2H-tetrazol-5-yl)phenyl]phenyl]methyl]imidazol-4-yl]methanol
Formula: C22H23ClN6O
Exact mass: 422.1621870
SMILES: CCCCc1nc(c(n1Cc2ccc(cc2)c3ccccc3c4[nH]nnn4)CO)Cl
InChI: InChI=1S/C22H23ClN6O/c1-2-3-8-20-24-21(23)19(14-30)29(20)13-15-9-11-16(12-10-15)17-6-4-5-7-18(17)22-25-27-28-26-22/h4-7,9-12,30H,2-3,8,13-14H2,1H3,(H,25,26,27,28)
Instrument: Bruker maXis Impact
Instrument type: LC-ESI-QTOF
Ms type: MS2
Ion mode: POSITIVE
Ionization: ESI
Fragmentation mode: CID
Collision energy: 40 eV
Resolution: 35000
Column name: Acclaim RSLC C18 2.2um, 2.1x100mm, Thermo
Retention time: 8.515 min
Base peak: 423.1693
Precursor m/z: 423.1695
Precursor type: [M+H]+
m/z	relative intensity	assigned
140.0481	5	C10H6N+
142.0278	16	C7H2N4+
152.0599	13	C4H11ClN3O+
153.0686	25	C12H9+
163.0522	5	C5H10ClN3O+
165.0684	16	C13H9+
166.0747	6	C5H13ClN3O+
167.0708	10	C4H12ClN4O+
169.064	5	C4H12[37]ClN4O+
171.067	74	C8H12ClN2+
172.0707	6	C7[13]CH12ClN2+
173.0642	20	C8H12[37]ClN2+
177.0562	5	C13H7N+
178.0642	16	C13H8N+
178.0757	18	C6H13ClN3O+
179.0714	20	C13H9N+
180.0794	212	C13H10N+
181.083	31	C12[13]CH10N+
190.0637	73	C14H8N+
191.07	19	C13[13]CH8N+
192.0787	112	C14H10N+
193.0824	16	C13[13]CH10N+
194.0581	7	C11H6N4+
196.0744	28	C11H8N4+
205.0749	58	C14H9N2+
206.0828	151	C6H13ClN5O+
207.0908	999	C14H11N2+
208.0749	17	C6H13[37]ClN5O+
208.0936	119	C13[13]CH11N2+
209.097	7	C12[13]C2H11N2+
235.0973	10	C14H11N4+
241.0757	11	C17H9N2+
243.0909	6	C17H11N2+
258.1012	21	C17H12N3+
259.0853	12	C15H9N5+
259.104	5	C16[13]CH12N3+
282.102	6	C19H12N3+
362.1388	5	C22H21ClN3+
