Mass spectrum: Azithromycin; LC-ESI-QTOF; MS2; CE: 50 eV; R=35000; [M+H]+
Name: Azithromycin
Name: Azithramycine
Name: (2R,3S,4R,5R,8R,10R,11R,13S,14R)-11-[(2S,3R,4S,6R)-4-(dimethylamino)-3-hydroxy-6-methyloxan-2-yl]oxy-2-ethyl-3,4,10-trihydroxy-13-[(2R,4R,5S,6S)-5-hydroxy-4-methoxy-4,6-dimethyloxan-2-yl]oxy-3,5,6,8,10,12,14-heptamethyl-1-oxa-6-azacyclopentadecan-15-one
Formula: C38H72N2O12
Exact mass: 748.5085257
SMILES: CC[C@H]1OC(=O)[C@H](C)[C@@H](O[C@H]2C[C@@](C)(OC)[C@@H](O)[C@H](C)O2)C(C)[C@@H](O[C@@H]2O[C@H](C)C[C@@H]([C@H]2O)N(C)C)[C@](C)(O)C[C@@H](C)CN(C)[C@H](C)[C@@H](O)[C@]1(C)O
InChI: InChI=1S/C38H72N2O12/c1-15-27-38(10,46)31(42)24(6)40(13)19-20(2)17-36(8,45)33(52-35-29(41)26(39(11)12)16-21(3)48-35)22(4)30(23(5)34(44)50-27)51-28-18-37(9,47-14)32(43)25(7)49-28/h20-33,35,41-43,45-46H,15-19H2,1-14H3/t20-,21-,22?,23-,24-,25+,26+,27-,28+,29-,30+,31-,32+,33-,35+,36-,37-,38-/m1/s1
Instrument: Bruker maXis Impact
Instrument type: LC-ESI-QTOF
Ms type: MS2
Ion mode: POSITIVE
Ionization: ESI
Fragmentation mode: CID
Collision energy: 50 eV
Resolution: 35000
Column name: Acclaim RSLC C18 2.2um, 2.1x100mm, Thermo
Retention time: 6.3 min
Base peak: 375.2611
Precursor m/z: 749.5158
Precursor type: [M+H]+
m/z	relative intensity	assigned
116.0703	31	C5H10NO2+
116.1065	94	C6H14NO+
127.0734	30	C7H11O2+
156.1371	13	C9H18NO+
158.1164	999	C8H16NO2+
159.1197	108	C7[13]CH16NO2+
160.119	12	C4H18NO5+
174.1487	16	C9H20NO2+
186.1478	83	C10H20NO2+
187.152	13	C7H23O5+
204.1599	10	C10H22NO3+
398.2897	85	C22H40NO5+
399.2911	12	C14H43N2O10+
416.3006	48	C22H42NO6+
417.3024	12	C29H39NO+
434.3126	69	C25H42N2O4+
435.308	21	C26H43O5+
435.32	18	C19H47O10+
457.3268	22	C24H45N2O6+
573.4092	161	C27H59NO11+
574.4123	64	C26[13]CH59NO11+
575.4145	17	C31H59O9+
591.4203	292	C30H59N2O9+
592.4224	129	C37H56N2O4+
593.4265	27	C36[13]CH56N2O4+
749.5183	13	C38H73N2O12+
