Mass spectrum: Fluvastatin; LC-ESI-QTOF; MS2; CE: 50 eV; R=35000; [M+H]+
Name: Fluvastatin
Name: (E,3R,5S)-7-[3-(4-fluorophenyl)-1-propan-2-ylindol-2-yl]-3,5-dihydroxyhept-6-enoic acid
Formula: C24H26FNO4
Exact mass: 411.1845865
SMILES: CC(C)n1c2ccccc2c(c1/C=C/[C@H](C[C@H](CC(=O)O)O)O)c3ccc(cc3)F
InChI: InChI=1S/C24H26FNO4/c1-15(2)26-21-6-4-3-5-20(21)24(16-7-9-17(25)10-8-16)22(26)12-11-18(27)13-19(28)14-23(29)30/h3-12,15,18-19,27-28H,13-14H2,1-2H3,(H,29,30)/b12-11+/t18-,19-/m1/s1
Instrument: Bruker maXis Impact
Instrument type: LC-ESI-QTOF
Ms type: MS2
Ion mode: POSITIVE
Ionization: ESI
Fragmentation mode: CID
Collision energy: 50 eV
Resolution: 35000
Column name: Acclaim RSLC C18 2.2um, 2.1x100mm, Thermo
Retention time: 10.884 min
Base peak: 150.1128
Precursor m/z: 412.1919
Precursor type: [M+H]+
m/z	relative intensity	assigned
177.0697	43	C14H9+
178.0749	8	C14H10+
196.069	130	C14H9F+
197.0762	391	C14H10F+
198.0805	61	C13[13]CH10F+
204.0822	80	C12H11FNO+
205.0859	23	C12H13O3+
209.0639	12	C14H8FN+
211.0803	26	C14H10FN+
212.0874	26	C14H11FN+
222.072	91	C15H9FN+
223.0789	193	C15H10FN+
224.088	999	C15H11FN+
225.0911	183	C14[13]CH11FN+
226.0945	27	C15H14O2+
235.0793	15	C16H10FN+
236.0867	29	C16H11FN+
238.1043	75	C16H13FN+
239.1091	13	C13H16FO3+
248.0901	23	C13H14NO4+
249.0923	12	C14H14FO3+
250.1027	15	C17H13FN+
251.1103	11	C17H14FN+
262.1024	18	C18H13FN+
264.0868	11	C17H11FNO+
264.1204	15	C18H15FN+
266.1353	27	C18H17FN+
267.1371	9	C18H19O2+
274.1036	13	C19H13FN+
275.1114	9	C19H14FN+
