Mass spectrum: Clobetasol propionate; LC-ESI-QTOF; MS2; CE: 50 eV; R=35000; [M+H]+
Name: Clobetasol propionate
Name: [(8S,9R,10S,11S,13S,14S,16S,17R)-17-(2-chloroacetyl)-9-fluoro-11-hydroxy-10,13,16-trimethyl-3-oxo-6,7,8,11,12,14,15,16-octahydrocyclopenta[a]phenanthren-17-yl] propanoate
Formula: C25H32ClFO5
Exact mass: 466.1922300
SMILES: CCC(=O)O[C@@]1([C@@H](C)C[C@H]2[C@@H]3CCC4=CC(=O)C=C[C@]4(C)[C@@]3(F)[C@@H](O)C[C@]12C)C(=O)CCl
InChI: InChI=1S/C25H32ClFO5/c1-5-21(31)32-25(20(30)13-26)14(2)10-18-17-7-6-15-11-16(28)8-9-22(15,3)24(17,27)19(29)12-23(18,25)4/h8-9,11,14,17-19,29H,5-7,10,12-13H2,1-4H3/t14-,17-,18-,19-,22-,23-,24-,25-/m0/s1
Instrument: Bruker maXis Impact
Instrument type: LC-ESI-QTOF
Ms type: MS2
Ion mode: POSITIVE
Ionization: ESI
Fragmentation mode: CID
Collision energy: 50 eV
Resolution: 35000
Column name: Acclaim RSLC C18 2.2um, 2.1x100mm, Thermo
Retention time: 10.683 min
Base peak: 313.2161
Precursor m/z: 467.1995
Precursor type: [M+H]+
m/z	relative intensity	assigned
115.0531	44	ClFH13O3+
116.0601	17	C3H13ClO2+
117.069	29	ClFH15O3+
119.0845	80	C9H11+
120.0882	7	C8[13]CH11+
121.0638	253	C8H9O+
121.1004	48	C9H13+
122.0681	25	C7[13]CH9O+
122.104	7	C8[13]CH13+
123.0772	13	C2H16ClO3+
126.0448	7	CH12ClFO3+
127.0288	6	C7H8Cl+
127.0533	8	CH13ClFO3+
128.0611	113	CH14ClFO3+
129.0097	5	C6H6ClO+
129.0689	72	CH15ClFO3+
130.0759	18	C4H15ClO2+
131.0479	26	ClFH13O4+
131.0846	104	C7H12FO+
132.0556	62	ClFH14O4+
132.0915	12	C6[13]CH12FO+
133.0402	16	C6H10ClO+
133.0628	28	C3H14ClO3+
133.1001	86	C10H13+
134.0706	6	C3H15ClO3+
134.1025	14	C9[13]CH13+
135.0794	161	C9H11O+
136.0847	15	C8[13]CH11O+
137.0941	8	C3H18ClO3+
139.0304	5	C8H8Cl+
139.0545	5	C11H7+
141.045	11	C8H10Cl+
141.0682	72	C5H14ClO2+
142.076	58	C5H15ClO2+
143.0252	19	C7H8ClO+
143.0611	16	C8H12Cl+
143.084	154	C11H11+
144.0556	59	CH14ClFO4+
144.0896	24	C10[13]CH11+
145.0219	8	C7H8[37]ClO+
145.0636	162	CH15ClFO4+
145.0999	64	C11H13+
146.0706	50	C4H15ClO3+
146.1029	10	C10[13]CH13+
147.0794	767	C10H11O+
148.0825	76	C9[13]CH11O+
149.0947	41	C10H13O+
150.099	8	C9[13]CH13O+
151.0736	6	C3H16ClO4+
152.0612	9	C3H14ClFO3+
153.0461	7	C9H10Cl+
153.0695	24	C12H9+
154.076	9	C6H15ClO2+
155.0593	22	C9H12Cl+
155.0839	65	C6H16ClO2+
156.0561	15	C2H14ClFO4+
156.0905	27	C6H17ClO2+
157.0404	11	C8H10ClO+
157.0631	33	C5H14ClO3+
157.0766	14	C9H14Cl+
157.0997	84	C12H13+
158.0712	116	C2H16ClFO4+
158.1037	11	C11[13]CH13+
159.0789	402	C11H11O+
160.0669	8	C5H14ClFO2+
160.0834	65	C10[13]CH11O+
161.0591	24	CH15ClFO5+
161.0946	160	C11H13O+
162.0977	18	C10[13]CH13O+
163.0745	21	CH17ClFO5+
163.089	7	C5H17ClFO2+
163.1114	6	C11H15O+
165.0687	40	C4H15ClFO3+
166.0753	15	C7H15ClO2+
167.0611	70	C10H12Cl+
167.0836	32	C7H16ClO2+
168.092	12	C4H18ClFO3+
169.0391	8	C9H10ClO+
169.0629	48	C6H14ClO3+
169.1003	31	C4H19ClFO3+
170.0705	30	C6H15ClO3+
170.108	23	C4H20ClFO3+
171.0564	47	C9H12ClO+
171.079	517	C12H11O+
171.1153	34	C4H21ClFO3+
172.0584	5	C8[13]CH12ClO+
172.0842	86	C11[13]CH11O+
173.0527	18	C9H12[37]ClO+
173.0948	236	C12H13O+
174.0984	34	C11[13]CH13O+
175.0747	9	C5H16ClO4+
175.0917	10	C12H12F+
175.1103	26	C3H21ClFO4+
176.0834	6	C11H12O2+
177.0461	6	C11H10Cl+
177.0688	5	C5H16[37]ClO4+
177.0889	6	C5H18ClO4+
178.0761	21	C8H15ClO2+
179.0844	60	C5H17ClFO3+
180.0909	30	C8H17ClO2+
181.041	5	C10H10ClO+
181.0633	26	C7H14ClO3+
181.1001	33	C5H19ClFO3+
182.0716	26	C4H16ClFO4+
183.0571	13	C7H14[37]ClO3+
183.0788	57	C7H16ClO3+
183.1154	21	C5H21ClFO3+
184.0865	35	C7H17ClO3+
185.0723	59	C10H14ClO+
185.0948	218	C13H13O+
186.0747	9	C9[13]CH14ClO+
186.1002	36	C12[13]CH13O+
187.0734	143	C12H11O2+
187.1105	24	C4H21ClFO4+
188.0779	17	C11[13]CH11O2+
188.1151	8	C7H21ClO3+
189.0693	15	C6H15ClFO3+
189.0887	16	C6H18ClO4+
190.0765	23	C6H16ClFO3+
191.0855	35	C9H16ClO2+
192.0921	21	C6H18ClFO3+
193.0782	15	C9H16[37]ClO2+
193.0995	69	C9H18ClO2+
194.0709	16	C8H15ClO3+
194.1065	19	C9H19ClO2+
195.0567	12	C11H12ClO+
195.0782	55	C5H17ClFO4+
195.1153	36	C15H15+
196.0872	58	C5H18ClFO4+
196.1212	7	C14[13]CH15+
197.0549	10	C11H11ClF+
197.0767	6	C5H17[37]ClFO4+
197.0943	94	C8H18ClO3+
197.1328	5	C15H17+
198.102	78	C8H19ClO3+
199.0728	33	C7H16ClO4+
199.1103	54	C8H20ClO3+
200.1133	5	C7[13]CH20ClO3+
201.0884	11	C7H18ClO4+
202.0751	14	C10H15ClO2+
203.0845	22	C10H16ClO2+
204.0915	18	C10H17ClO2+
205.0639	7	C6H15ClFO4+
205.0763	5	C10H16[37]ClO2+
205.0997	57	C7H19ClFO3+
206.0715	7	C6H16ClFO4+
206.1075	28	C7H20ClFO3+
207.078	23	C9H16ClO3+
207.1165	33	C16H15+
208.0862	102	C9H17ClO3+
208.1211	7	C15[13]CH15+
209.0953	139	C6H19ClFO4+
209.1296	7	C10H22ClO2+
210.1021	87	C9H19ClO3+
211.0745	10	C5H17ClFO5+
211.1098	109	C9H20ClO3+
212.0781	5	C12H14ClF+
212.1169	45	C9H21ClO3+
213.0902	10	C5H19ClFO5+
213.1259	119	C9H22ClO3+
214.1297	19	C8[13]CH22ClO3+
215.085	32	C17H11+
216.0923	23	C8H18ClFO3+
217.1005	38	C8H19ClFO3+
218.07	6	C10H15ClO3+
218.1071	13	C11H19ClO2+
219.0575	5	C13H12ClO+
219.0797	27	C7H17ClFO4+
219.1158	30	C8H21ClFO3+
220.0862	40	C10H17ClO3+
220.1244	22	C17H16+
221.0948	191	C7H19ClFO4+
221.1313	21	C8H23ClFO3+
222.1011	125	C10H19ClO3+
223.1103	164	C7H21ClFO4+
224.0819	6	C6H18ClFO5+
224.1165	52	C10H21ClO3+
225.0917	8	C12H14FO3+
225.1258	36	C16H17O+
226.0979	14	C6H20ClFO5+
226.1301	7	C15[13]CH17O+
227.0825	8	C12H16ClO2+
227.1047	14	C9H20ClO4+
227.1406	10	C10H24ClO3+
228.0906	13	C12H17ClO2+
229.0994	39	C12H18ClO2+
230.1077	73	C9H20ClFO3+
231.079	19	C11H16ClO3+
231.1142	52	C18H15+
232.0877	13	C8H18ClFO4+
232.1196	16	C17[13]CH15+
233.0716	7	C11H16[37]ClO3+
233.0955	101	C8H19ClFO4+
233.1329	18	C18H17+
234.1025	88	C8H20ClFO4+
234.1382	8	C12H23ClO2+
235.1103	136	C8H21ClFO4+
235.1473	54	C18H19+
236.1175	85	C11H21ClO3+
236.153	16	C17[13]CH19+
237.0873	10	C10H18ClO4+
237.126	67	C8H23ClFO4+
237.162	6	C12H26ClO2+
238.1319	31	C11H23ClO3+
239.104	10	C10H20ClO4+
239.1423	37	C11H24ClO3+
240.1449	7	C10[13]CH24ClO3+
241.0991	9	C13H18ClO2+
242.1058	16	C13H19ClO2+
243.1156	38	C10H21ClFO3+
244.0867	7	C9H18ClFO4+
244.123	24	C13H21ClO2+
245.0948	40	C9H19ClFO4+
245.1315	97	C10H23ClFO3+
246.1028	37	C9H20ClFO4+
246.1377	40	C13H23ClO2+
247.1111	100	C9H21ClFO4+
247.1461	18	C13H24ClO2+
248.1184	306	C9H22ClFO4+
249.1255	172	C12H22ClO3+
249.1621	10	C13H26ClO2+
250.0945	6	C11H19ClO4+
250.1332	56	C12H23ClO3+
250.1701	20	C13H27ClO2+
251.1058	5	C8H21ClFO5+
251.1417	35	C9H25ClFO4+
251.1716	5	C12[13]CH27ClO2+
252.1491	27	C12H25ClO3+
253.1024	8	C17H14FO+
253.1183	8	C11H22ClO4+
253.1584	64	C12H26ClO3+
254.128	7	C11H23ClO4+
254.1571	9	C11[13]CH26ClO3+
255.1153	11	C11H21ClFO3+
256.124	12	C11H22ClFO3+
257.0928	7	C13H18ClO3+
257.1322	27	C20H17+
258.103	38	C10H20ClFO4+
258.1386	17	C14H23ClO2+
259.11	73	C13H20ClO3+
259.1474	29	C11H25ClFO3+
260.1185	70	C10H22ClFO4+
260.1553	24	C11H26ClFO3+
261.0854	7	C16H15ClF+
261.1259	107	C10H23ClFO4+
261.1632	119	C20H21+
262.0974	11	C9H20ClFO5+
262.134	145	C10H24ClFO4+
262.1674	21	C19[13]CH21+
263.1424	999	C19H19O+
264.1114	15	C12H21ClO4+
264.146	215	C18[13]CH19O+
265.1197	6	C12H22ClO4+
265.1531	31	C17[13]C2H19O+
266.1612	9	C13H27ClO3+
267.1129	5	C15H20ClO2+
267.1391	8	C15H20FO3+
267.1737	10	C10H29ClFO4+
268.1282	11	C14H20O5+
269.1338	11	C18H18FO+
270.1375	5	C15H23ClO2+
271.1102	40	C11H21ClFO4+
271.1467	7	C12H25ClFO3+
272.1176	36	C14H21ClO3+
273.126	149	C20H17O+
273.1614	14	C15H26ClO2+
274.1326	50	C19[13]CH17O+
275.1032	10	C13H20ClO4+
275.1408	35	C14H24ClO3+
276.1134	21	C10H22ClFO5+
276.1497	72	C11H26ClFO4+
277.1216	34	C10H23ClFO5+
277.1573	145	C11H27ClFO4+
278.1273	17	C13H23ClO4+
278.1655	230	C11H28ClFO4+
279.1383	7	C19H19O2+
279.1711	99	C11H29ClFO4+
280.1778	11	C10[13]CH29ClFO4+
281.1531	52	C13H26ClO4+
282.1582	8	C12[13]CH26ClO4+
283.1469	10	C13H26[37]ClO4+
285.1266	21	C12H23ClFO4+
285.16	5	C16H26ClO2+
286.1341	68	C12H24ClFO4+
287.1399	59	C15H24ClO3+
288.1495	74	C21H20O+
289.1205	24	C14H22ClO4+
289.1544	22	C20[13]CH20O+
290.1311	12	C17H19FO3+
291.1369	86	C14H24ClO4+
291.1737	33	C12H29ClFO4+
292.1401	20	C13[13]CH24ClO4+
292.1773	13	C15H29ClO3+
295.1689	5	C20H23O2+
296.1789	8	C17H25FO3+
299.0786	5	C18H16ClO2+
301.1581	84	C19H22FO2+
302.1633	24	C18[13]CH22FO2+
304.1448	8	C12H26ClFO5+
305.156	11	C18H22FO3+
306.1595	53	C21H22O2+
307.165	10	C20[13]CH22O2+
313.0992	8	C19H18ClO2+
319.1687	10	C22H23O2+
327.1469	13	C21H24ClO+
337.1325	5	C22H22ClO+
355.1476	6	C19H25ClFO3+
