Mass spectrum: Sulfameter; LC-ESI-QTOF; MS2; CE: 20.9-31.4 eV; R=35000; [M+H]+
Name: Sulfameter
Name: 4-amino-N-(5-methoxypyrimidin-2-yl)benzenesulfonamide
Formula: C11H12N4O3S
Exact mass: 280.0630
SMILES: COc1cnc(nc1)NS(=O)(=O)c2ccc(cc2)N
InChI: InChI=1S/C11H12N4O3S/c1-18-9-6-13-11(14-7-9)15-19(16,17)10-4-2-8(12)3-5-10/h2-7H,12H2,1H3,(H,13,14,15)
Instrument: Bruker maXis Impact
Instrument type: LC-ESI-QTOF
Ms type: MS2
Ion mode: POSITIVE
Ionization: ESI
Fragmentation mode: CID
Collision energy: Ramp 20.9-31.4 eV
Resolution: 35000
Column name: Acclaim RSLC C18 2.2um, 2.1x100mm, Thermo
Retention time: 4.2 min
Base peak: 281.0719
Precursor m/z: 281.0703
Precursor type: [M+H]+
m/z	relative intensity	assigned
53.0386	7	C4H5+
54.0334	8	C3H4N+
55.0173	10	C3H3O+
65.0381	75	C5H5+
66.0421	5	H6N2O2+
68.049	140	C4H6N+
69.0326	11	C2H3N3+
69.044	5	C3H5N2+
78.0338	12	C5H4N+
79.0178	19	C5H3O+
80.0498	8	C5H6N+
82.0399	6	C3H4N3+
92.0499	260	C6H6N+
93.0575	96	C6H7N+
94.0654	73	C6H8N+
95.0688	6	CH9N3O2+
96.0449	14	C5H6NO+
108.0465	311	CH8N4S+
109.0492	23	CH7N3O3+
110.0349	8	C4H4N3O+
110.0615	84	CH10N4S+
111.0645	6	CH9N3O3+
120.0567	27	C8H8O+
124.0504	33	C5H6N3O+
125.0585	67	C5H7N3O+
126.0664	625	C5H8N3O+
127.0695	35	C3H13NO2S+
149.0229	7	C8H5O3+
156.0116	999	C6H6NO2S+
157.015	79	C7HN4O+
157.0645	9	C11H9O+
158.0073	50	C9H4NS+
172.0745	47	C9H8N4+
174.0218	24	C6H8NO3S+
185.0589	14	C10H7N3O+
188.0128	54	C5H6N3O3S+
200.07	43	C10H8N4O+
201.0738	7	C10H9N4O+
206.0239	286	C11H2N4O+
207.0257	10	C9H7N2O2S+
208.0233	8	C10H8O3S+
215.0936	591	C11H11N4O+
216.0971	69	C11H12N4O+
217.1087	48	C11H13N4O+
218.1111	5	C10H12N5O+
281.0719	640	C11H13N4O3S+
282.074	91	C10H12N5O3S+
283.0684	20	C10H13N5O3S+
