Mass spectrum: Imidacloprid; LC-ESI-QTOF; MS2; CE: 10 eV; R=35000; [M-H]-
Name: Imidacloprid
Name: N-[1-[(6-chloropyridin-3-yl)methyl]-4,5-dihydroimidazol-2-yl]nitramide
Formula: C9H10ClN5O2
Exact mass: 255.0523022
SMILES: [O-][N+](=O)NC1=NCCN1CC1=CN=C(Cl)C=C1
InChI: InChI=1S/C9H10ClN5O2/c10-8-2-1-7(5-12-8)6-14-4-3-11-9(14)13-15(16)17/h1-2,5H,3-4,6H2,(H,11,13)
Instrument: Bruker maXis Impact
Instrument type: LC-ESI-QTOF
Ms type: MS2
Ion mode: NEGATIVE
Ionization: ESI
Fragmentation mode: CID
Collision energy: 10 eV
Resolution: 35000
Column name: Acclaim RSLC C18 2.2um, 2.1x100mm, Thermo
Retention time: 4.651 min
Base peak: 254.0458
Precursor m/z: 254.045
Precursor type: [M-H]-
m/z	relative intensity	assigned
153.0234	282	C7H6ClN2-
254.0439	999	C9H9ClN5O2-
256.0435	272	C9H9[37]ClN5O2-
