Mass spectrum: Nordiazepam; LC-ESI-QTOF; MS2; CE: 20 eV; R=35000; [M+H]+
Name: Nordiazepam
Name: 7-chloro-5-phenyl-1,3-dihydro-1,4-benzodiazepin-2-one
Formula: C15H11ClN2O
Exact mass: 270.0559907
SMILES: ClC1=CC2=C(NC(=O)CN=C2C2=CC=CC=C2)C=C1
InChI: InChI=1S/C15H11ClN2O/c16-11-6-7-13-12(8-11)15(17-9-14(19)18-13)10-4-2-1-3-5-10/h1-8H,9H2,(H,18,19)
Instrument: Bruker maXis Impact
Instrument type: LC-ESI-QTOF
Ms type: MS2
Ion mode: POSITIVE
Ionization: ESI
Fragmentation mode: CID
Collision energy: 20 eV
Resolution: 35000
Column name: Acclaim RSLC C18 2.2um, 2.1x100mm, Thermo
Retention time: 9.0 min
Base peak: 271.0628
Precursor m/z: 271.0633
Precursor type: [M+H]+
m/z	relative intensity	assigned
140.0252	29	C7H7ClN+
141.0289	3	C6[13]CH7ClN+
142.0225	9	C7H7[37]ClN+
165.0203	19	C8H6ClN2+
166.0233	3	C7[13]CH6ClN2+
167.0162	6	C8H6[37]ClN2+
168.0198	5	C7[13]CH6[37]ClN2+
208.0983	23	C14H12N2+
226.041	6	C14H9ClN+
228.0376	5	C14H9ClO+
243.0677	33	C14H12ClN2+
244.0696	6	C13[13]CH12ClN2+
245.0643	9	C14H12[37]ClN2+
271.0628	999	C15H12ClN2O+
272.0659	133	C14[13]CH12ClN2O+
273.0599	228	C15H12[37]ClN2O+
274.0627	21	C14[13]CH12[37]ClN2O+
