Mass spectrum: Oleamide; GC-APCI-QTOF; MS2; CE: 10 eV; R=35000; [M]+
Name: Oleamide
Formula: C18H35NO
Exact mass: 281.2719
SMILES: CCCCCCCCC=CCCCCCCCC(=O)N
InChI: InChI=1S/C18H35NO/c1-2-3-4-5-6-7-8-9-10-11-12-13-14-15-16-17-18(19)20/h9-10H,2-8,11-17H2,1H3,(H2,19,20)
Instrument: Bruker 450 GC coupled to maXis Impact
Instrument type: GC-APCI-QTOF
Ms type: MS2
Ion mode: POSITIVE
Ionization: APCI
Fragmentation mode: CID
Collision energy: 10 eV
Resolution: 35000
Column name: Rxi-5Sil MS column, 30m, 0.25mm i.d., 0.25Âµm film thickness, Restek
Retention time: 17.553 min
Base peak: 281.2455
Precursor m/z: 281.2713
Precursor type: [M]+
m/z	relative intensity	assigned
57.0708	21	C4H9+
67.0532	12	C5H7+
69.0696	25	C5H9+
71.0858	9	C5H11+
81.0698	28	C6H9+
83.0855	28	C6H11+
85.1004	5	C6H13+
95.0844	21	C7H11+
97.0637	6	C6H9O+
97.1004	31	C7H13+
99.0799	9	C6H11O+
109.1003	14	C8H13+
111.0803	7	C7H11O+
111.1162	14	C8H15+
113.0954	6	C7H13O+
119.0844	15	C9H11+
121.1006	62	C9H13+
123.1161	51	C9H15+
125.0945	16	C8H13O+
125.132	17	C9H17+
127.1109	9	C8H15O+
133.101	41	C10H13+
135.1173	89	C10H15+
136.0853	5	C9H12O+
136.1222	6	C10H16+
137.097	22	C9H13O+
137.1332	80	C10H17+
138.1376	6	C10H18+
139.1124	32	C9H15O+
139.1477	12	C10H19+
141.1278	6	C9H17O+
147.1188	40	C11H15+
148.1241	5	C11H16+
149.0251	693	C11H3N+
149.1344	61	C11H17+
150.1384	9	C11H18+
151.1137	26	C10H15O+
151.1501	109	C11H19+
152.153	11	C11H20+
153.1295	45	C10H17O+
153.1641	8	C11H21+
161.135	53	C12H17+
162.1379	6	C12H18+
163.15	43	C12H19+
165.1302	28	C11H17O+
165.1677	6	C12H21+
167.0356	5	C11H5NO+
167.1463	25	C11H19O+
175.1501	26	C13H19+
177.1663	18	C13H21+
179.147	13	C12H19O+
179.1821	6	C13H23+
181.1615	14	C12H21O+
189.1653	14	C14H21+
191.1824	18	C14H23+
193.1612	12	C13H21O+
193.1961	70	C14H25+
194.1995	11	C14H26+
195.178	10	C13H23O+
195.2104	6	C14H27+
205.0859	166	C15H11N+
207.2127	20	C15H27+
209.2262	5	C15H29+
217.1946	858	C16H25+
218.108	14	C17H14+
218.1985	110	C16H26+
219.2105	357	C16H27+
220.2146	22	C16H28+
235.2041	999	C16H27O+
236.154	29	C18H20+
236.2081	108	C16H28O+
237.2202	474	C16H29O+
238.2238	35	C16H30O+
245.2273	10	C18H29+
247.2415	17	C18H31+
263.2356	27	C18H31O+
265.2503	31	C18H33O+
