Mass spectrum: Diuron; LC-ESI-QTOF; MS2; CE: 20 eV; R=35000; [M-H]-
Name: Diuron
Name: 3-(3,4-dichlorophenyl)-1,1-dimethylurea
Formula: C9H10Cl2N2O
Exact mass: 232.0170183
SMILES: CN(C)C(=O)NC1=CC=C(Cl)C(Cl)=C1
InChI: InChI=1S/C9H10Cl2N2O/c1-13(2)9(14)12-6-3-4-7(10)8(11)5-6/h3-5H,1-2H3,(H,12,14)
Instrument: Bruker maXis Impact
Instrument type: LC-ESI-QTOF
Ms type: MS2
Ion mode: NEGATIVE
Ionization: ESI
Fragmentation mode: CID
Collision energy: 20 eV
Resolution: 35000
Column name: Acclaim RSLC C18 2.2um, 2.1x100mm, Thermo
Retention time: 8.533 min
Base peak: 231.0097
Precursor m/z: 231.0097
Precursor type: [M-H]-
m/z	relative intensity	assigned
149.9753	337	C7HClNO-
150.9806	37	C6[13]CHClNO-
151.9725	68	C7H[37]ClNO-
159.9728	221	C6H4Cl2N-
161.9692	138	C6H4Cl[37]ClN-
185.9515	999	C7H2Cl2NO-
186.9537	124	C6[13]CH2Cl2NO-
187.9488	504	C7H2Cl[37]ClNO-
231.0086	485	C9H9Cl2N2O-
233.0056	298	C9H9Cl[37]ClN2O-
