Mass spectrum: Praziquantel; LC-ESI-QTOF; MS2; CE: 10 eV; R=35000; [M+H]+
Name: Praziquantel
Name: 2-(cyclohexanecarbonyl)-3,6,7,11b-tetrahydro-1H-pyrazino[2,1-a]isoquinolin-4-one
Formula: C19H24N2O2
Exact mass: 312.1837780
SMILES: c1ccc2c(c1)CCN3C2CN(CC3=O)C(=O)C4CCCCC4
InChI: InChI=1S/C19H24N2O2/c22-18-13-20(19(23)15-7-2-1-3-8-15)12-17-16-9-5-4-6-14(16)10-11-21(17)18/h4-6,9,15,17H,1-3,7-8,10-13H2
Instrument: Bruker maXis Impact
Instrument type: LC-ESI-QTOF
Ms type: MS2
Ion mode: POSITIVE
Ionization: ESI
Fragmentation mode: CID
Collision energy: 10 eV
Resolution: 35000
Column name: Acclaim RSLC C18 2.2um, 2.1x100mm, Thermo
Retention time: 9.167 min
Base peak: 313.1937
Precursor m/z: 313.1911
Precursor type: [M+H]+
m/z	relative intensity	assigned
203.1193	122	C12H15N2O+
204.1219	16	C11[13]CH15N2O+
313.1938	999	C19H25N2O2+
314.1966	142	C18[13]CH25N2O2+
315.1989	15	C17[13]C2H25N2O2+
