Mass spectrum: Flumequine; LC-ESI-QTOF; MS2; CE: 30 eV; R=35000; [M+H]+
Name: Flumequine
Name: 7-fluoro-12-methyl-4-oxo-1-azatricyclo[7.3.1.05,13]trideca-2,5,7,9(13)-tetraene-3-carboxylic acid
Formula: C14H12FNO3
Exact mass: 261.0801215
SMILES: CC1CCC2=C3N1C=C(C(O)=O)C(=O)C3=CC(F)=C2
InChI: InChI=1S/C14H12FNO3/c1-7-2-3-8-4-9(15)5-10-12(8)16(7)6-11(13(10)17)14(18)19/h4-7H,2-3H2,1H3,(H,18,19)
Instrument: Bruker maXis Impact
Instrument type: LC-ESI-QTOF
Ms type: MS2
Ion mode: POSITIVE
Ionization: ESI
Fragmentation mode: CID
Collision energy: 30 eV
Resolution: 35000
Column name: Acclaim RSLC C18 2.2um, 2.1x100mm, Thermo
Retention time: 7.382 min
Base peak: 262.087
Precursor m/z: 262.0874
Precursor type: [M+H]+
m/z	relative intensity	assigned
174.0341	19	C13H4N+
176.0858	7	C11H11FN+
202.0293	252	C14H4NO+
203.0325	26	C13[13]CH4NO+
220.0401	185	C14H6NO2+
221.0434	21	C13[13]CH6NO2+
238.0505	88	C14H8NO3+
239.0536	10	C13[13]CH8NO3+
244.0766	835	C14H11FNO2+
245.0798	105	C13[13]CH11FNO2+
246.0821	7	C12[13]C2H11FNO2+
262.0872	999	C14H13FNO3+
263.0905	121	C13[13]CH13FNO3+
264.093	11	C12[13]C2H13FNO3+
