Mass spectrum: Fenpropidin; LC-ESI-QTOF; MS2; CE: Ramp 20.7-31.0 eV; R=35000; [M+H]+
Name: Fenpropidin
Name: 1-[3-(4-tert-butylphenyl)-2-methylpropyl]piperidine
Formula: C19H31N
Exact mass: 273.2456500
SMILES: CC(CN1CCCCC1)CC1=CC=C(C=C1)C(C)(C)C
InChI: InChI=1S/C19H31N/c1-16(15-20-12-6-5-7-13-20)14-17-8-10-18(11-9-17)19(2,3)4/h8-11,16H,5-7,12-15H2,1-4H3
Instrument: Bruker maXis Impact
Instrument type: LC-ESI-QTOF
Ms type: MS2
Ion mode: POSITIVE
Ionization: ESI
Fragmentation mode: CID
Collision energy: Ramp 20.7-31.0 eV
Resolution: 35000
Column name: Acclaim RSLC C18 2.2um, 2.1x100mm, Thermo
Retention time: 8.377 min
Base peak: 207.1488
Precursor m/z: 274.2529
Precursor type: [M+H]+
m/z	relative intensity	assigned
57.0694	45	C4H9+
69.0692	5	C5H9+
86.0963	145	C5H12N+
87.0996	6	C4[13]CH12N+
91.0544	5	C7H7+
105.0708	5	C8H9+
119.0852	9	C9H11+
132.0928	10	C10H12+
147.1161	193	C11H15+
148.1191	22	C10[13]CH15+
161.1312	6	C12H17+
189.1627	11	C14H21+
274.2528	999	C19H32N+
275.2564	235	C18[13]CH32N+
276.2589	19	C17[13]C2H32N+
