Mass spectrum: Azelastine; LC-ESI-QTOF; MS2; CE: Ramp 23.2-34.9 eV; R=35000; [M+H]+
Name: Azelastine
Name: 4-[(4-chlorophenyl)methyl]-2-(1-methylazepan-4-yl)phthalazin-1-one
Formula: C22H24ClN3O
Exact mass: 381.1607901
SMILES: CN1CCCC(CC1)N1N=C(CC2=CC=C(Cl)C=C2)C2=CC=CC=C2C1=O
InChI: InChI=1S/C22H24ClN3O/c1-25-13-4-5-18(12-14-25)26-22(27)20-7-3-2-6-19(20)21(24-26)15-16-8-10-17(23)11-9-16/h2-3,6-11,18H,4-5,12-15H2,1H3
Instrument: Bruker maXis Impact
Instrument type: LC-ESI-QTOF
Ms type: MS2
Ion mode: POSITIVE
Ionization: ESI
Fragmentation mode: CID
Collision energy: Ramp 23.2-34.9 eV
Resolution: 35000
Column name: Acclaim RSLC C18 2.2um, 2.1x100mm, Thermo
Retention time: 7.469 min
Base peak: 382.1683
Precursor m/z: 382.1681
Precursor type: [M+H]+
m/z	relative intensity	assigned
58.0647	118	C3H8N+
69.0692	5	C5H9+
70.0647	11	C4H8N+
79.0539	10	C6H7+
81.0698	66	C6H9+
84.0806	67	C5H10N+
112.1142	999	C7H14N+
113.1168	75	C6[13]CH14N+
159.0541	6	C9H7N2O+
266.0905	17	C18H15Cl+
271.0628	49	C15H12ClN2O+
272.0661	7	C14[13]CH12ClN2O+
273.0602	14	C15H12[37]ClN2O+
309.0797	6	C18H14ClN2O+
351.1261	24	C21H20ClN2O+
352.1291	6	C20[13]CH20ClN2O+
353.1246	8	C21H20[37]ClN2O+
382.1685	497	C22H25ClN3O+
383.1715	173	C21[13]CH25ClN3O+
384.1661	203	C22H25[37]ClN3O+
