Mass spectrum: Robenidine; LC-ESI-QTOF; MS2; CE: 50 eV; R=35000; [M+H]+
Name: Robenidine
Name: 1,2-bis[(E)-(4-chlorophenyl)methylideneamino]guanidine
Formula: C15H13Cl2N5
Exact mass: 333.0548008
SMILES: C1=CC(=CC=C1/C=N/NC(=N)N/N=C/C2=CC=C(C=C2)Cl)Cl
InChI: InChI=1S/C15H13Cl2N5/c16-13-5-1-11(2-6-13)9-19-21-15(18)22-20-10-12-3-7-14(17)8-4-12/h1-10H,(H3,18,21,22)/b19-9+,20-10+
Instrument: Bruker maXis Impact
Instrument type: LC-ESI-QTOF
Ms type: MS2
Ion mode: POSITIVE
Ionization: ESI
Fragmentation mode: CID
Collision energy: 50 eV
Resolution: 35000
Column name: Acclaim RSLC C18 2.2um, 2.1x100mm, Thermo
Retention time: 11.8 min
Base peak: 334.0617
Precursor m/z: 334.0621
Precursor type: [M+H]+
m/z	relative intensity	assigned
110.9991	179	C6H4Cl+
116.0361	85	C7H4N2+
123.9948	377	C6H3ClN+
125.0144	266	C7H6Cl+
138.0097	999	C7H5ClN+
139.016	117	C8HN3+
140.0078	318	C7H5[37]ClN+
140.0254	195	C7H7ClN+
143.0463	267	C8H5N3+
151.0054	212	C7H4ClN2+
151.021	84	C8H6ClN+
153.0191	225	C8HN4+
155.0359	316	C8H3N4+
164.002	75	C6H8Cl2N+
178.0169	141	C8H5ClN3+
195.0441	342	C8H8ClN4+
