Mass spectrum: Bis(2-ethylhexyl)phosphate; LC-ESI-QTOF; MS2; CE: 30 eV; R=35000; [M+H]+
Name: Bis(2-ethylhexyl)phosphate
Name: Bis(2-ethylhexyl) phosphate
Name: bis(2-ethylhexyl) hydrogen phosphate
Formula: C16H35O4P
Exact mass: 322.2272962
SMILES: CCCCC(CC)COP(O)(=O)OCC(CC)CCCC
InChI: InChI=1S/C16H35O4P/c1-5-9-11-15(7-3)13-19-21(17,18)20-14-16(8-4)12-10-6-2/h15-16H,5-14H2,1-4H3,(H,17,18)
Instrument: Bruker maXis Impact
Instrument type: LC-ESI-QTOF
Ms type: MS2
Ion mode: POSITIVE
Ionization: ESI
Fragmentation mode: CID
Collision energy: 30 eV
Resolution: 35000
Column name: Acclaim RSLC C18 2.2um, 2.1x100mm, Thermo
Retention time: 12.776 min
Base peak: 369.1245
Precursor m/z: 323.2346
Precursor type: [M+H]+
m/z	relative intensity	assigned
149.0228	999	C8H5O3+
