Mass spectrum: Diuron-desdimethyl; LC-ESI-QTOF; MS2; CE: 30 eV; R=35000; [M+H]+
Name: Diuron-desdimethyl
Name: 1-(3,4-Dichlorophenyl)urea
Name: (3,4-dichlorophenyl)urea
Formula: C7H6Cl2N2O
Exact mass: 203.9857182
SMILES: NC(=O)NC1=CC(Cl)=C(Cl)C=C1
InChI: InChI=1S/C7H6Cl2N2O/c8-5-2-1-4(3-6(5)9)11-7(10)12/h1-3H,(H3,10,11,12)
Instrument: Bruker maXis Impact
Instrument type: LC-ESI-QTOF
Ms type: MS2
Ion mode: POSITIVE
Ionization: ESI
Fragmentation mode: CID
Collision energy: 30 eV
Resolution: 35000
Column name: Acclaim RSLC C18 2.2um, 2.1x100mm, Thermo
Retention time: 7.9 min
Base peak: 204.9924
Precursor m/z: 204.993
Precursor type: [M+H]+
m/z	relative intensity	assigned
125.0023	15	C6H4ClN+
126.0087	8	C6H5ClN+
127.0173	999	C6H6ClN+
128.0201	88	C5[13]CH6ClN+
129.0139	255	C6CH6[37]ClN+
130.0186	9	C5[13]CH6[37]ClN+
132.9599	39	C5H3Cl2+
159.9702	116	C6H4Cl2N+
160.975	11	CH5Cl2N3O2+
161.9685	68	Cl2H4N4O2+
161.986	72	C6H6Cl2N+
162.9686	8	C7ClN2O+
162.9875	8	CH7Cl2N3O2+
163.9829	64	Cl2H6N4O2+
172.9666	13	C6H3Cl2N2+
187.965	9	C7H4Cl2NO+
