Mass spectrum: Fenofibric acid; LC-ESI-QTOF; MS2; CE: 40 eV; R=35000; [M+H]+
Name: Fenofibric acid
Name: 2-[4-(4-chlorobenzoyl)phenoxy]-2-methylpropanoic acid
Formula: C17H15ClO4
Exact mass: 318.0658866
SMILES: CC(C)(OC1=CC=C(C=C1)C(=O)C1=CC=C(Cl)C=C1)C(O)=O
InChI: InChI=1S/C17H15ClO4/c1-17(2,16(20)21)22-14-9-5-12(6-10-14)15(19)11-3-7-13(18)8-4-11/h3-10H,1-2H3,(H,20,21)
Instrument: Bruker maXis Impact
Instrument type: LC-ESI-QTOF
Ms type: MS2
Ion mode: POSITIVE
Ionization: ESI
Fragmentation mode: CID
Collision energy: 40 eV
Resolution: 35000
Column name: Acclaim RSLC C18 2.2um, 2.1x100mm, Thermo
Retention time: 9.5 min
Base peak: 150.1116
Precursor m/z: 319.0732
Precursor type: [M+H]+
m/z	relative intensity	assigned
121.0274	372	C7H5O2+
122.0308	33	C6[13]CH5O2+
138.9932	999	C7H4ClO+
139.9971	92	C6[13]CH4ClO+
140.9906	376	C7H4[37]ClO+
203.1424	67	C14H19O+
219.1734	126	C15H23O+
233.0357	128	C13H10ClO2+
234.0387	18	C12[13]CH10ClO2+
235.0332	42	C13H10[37]ClO2+
