Mass spectrum: Sulfadimethoxine; LC-ESI-QTOF; MS2; CE: 20 eV; R=35000; [M+H]+
Name: Sulfadimethoxine
Name: 4-amino-n-(2,6-dimethoxypyrimidin-4-yl)benzenesulfonamide
Formula: C12H14N4O4S
Exact mass: 310.0735759
SMILES: COc1cc(nc(n1)OC)NS(=O)(=O)c2ccc(cc2)N
InChI: InChI=1S/C12H14N4O4S/c1-19-11-7-10(14-12(15-11)20-2)16-21(17,18)9-5-3-8(13)4-6-9/h3-7H,13H2,1-2H3,(H,14,15,16)
Instrument: Bruker maXis Impact
Instrument type: LC-ESI-QTOF
Ms type: MS2
Ion mode: POSITIVE
Ionization: ESI
Fragmentation mode: CID
Collision energy: 20 eV
Resolution: 35000
Column name: Acclaim RSLC C18 2.2um, 2.1x100mm, Thermo
Retention time: 4.6 min
Base peak: 311.081
Precursor m/z: 311.0809
Precursor type: [M+H]+
m/z	relative intensity	assigned
140.0447	62	C5H6N3O2+
141.0515	6	C5H7N3O2+
154.0604	57	C6H8N3O2+
155.0683	33	C6H9N3O2+
156.0107	999	C6H6NO2S+
156.0763	168	C6H10N3O2+
157.0134	41	C3[13]CH4N4OS+
157.0794	8	C5[13]CH10N3O2+
158.0069	23	C4H4N4O[34]S+
218.0242	9	C6H8N3O4S+
245.1032	90	C12H13N4O2+
246.1061	8	C11[13]CH13N4O2+
311.0811	752	C12H15N4O4S+
312.0835	71	C11[13]CH15N4O4S+
313.0796	22	C12H15N4O4[34]S+
