Mass spectrum: Perfluorooctanoic acid (PFOA); LC-ESI-QTOF; MS2; CE: 10 eV; R=35000; [M-H]-
Name: Perfluorooctanoic acid (PFOA)
Name: Perfluorooctanoic acid
Name: 2,2,3,3,4,4,5,5,6,6,7,7,8,8,8-pentadecafluorooctanoic acid
Formula: C8HF15O2
Exact mass: 413.9737
SMILES: C(=O)(C(C(C(C(C(C(C(F)(F)F)(F)F)(F)F)(F)F)(F)F)(F)F)(F)F)O
InChI: InChI=1S/C8HF15O2/c9-2(10,1(24)25)3(11,12)4(13,14)5(15,16)6(17,18)7(19,20)8(21,22)23/h(H,24,25)
Instrument: Bruker maXis Impact
Instrument type: LC-ESI-QTOF
Ms type: MS2
Ion mode: NEGATIVE
Ionization: ESI
Fragmentation mode: CID
Collision energy: 10 eV
Resolution: 35000
Column name: Acclaim RSLC C18 2.2um, 2.1x100mm, Thermo
Retention time: 9.693 min
Base peak: 412.9636
Precursor m/z: 412.9664
Precursor type: [M-H]-
m/z	relative intensity
168.9877	64
368.9749	999
369.9764	31
412.9647	105
