Mass spectrum: Cyprodinil; LC-ESI-QTOF; MS2; CE: 10 eV; R=35000; [M+H]+
Name: Cyprodinil
Name: 4-cyclopropyl-6-methyl-N-phenylpyrimidin-2-amine
Formula: C14H15N3
Exact mass: 225.1265975
SMILES: CC1=NC(NC2=CC=CC=C2)=NC(=C1)C1CC1
InChI: InChI=1S/C14H15N3/c1-10-9-13(11-7-8-11)17-14(15-10)16-12-5-3-2-4-6-12/h2-6,9,11H,7-8H2,1H3,(H,15,16,17)
Instrument: Bruker maXis Impact
Instrument type: LC-ESI-QTOF
Ms type: MS2
Ion mode: POSITIVE
Ionization: ESI
Fragmentation mode: CID
Collision energy: 10 eV
Resolution: 35000
Column name: Acclaim RSLC C18 2.2um, 2.1x100mm, Thermo
Retention time: 11.097 min
Base peak: 226.1346
Precursor m/z: 226.1339
Precursor type: [M+H]+
m/z	relative intensity	assigned
226.1358	999	C14H16N3+
