Mass spectrum: Pregabalin; LC-ESI-QTOF; MS2; CE: 10 eV; R=35000; [M+H]+
Name: Pregabalin
Name: (3S)-3-(aminomethyl)-5-methylhexanoic acid
Formula: C8H17NO2
Exact mass: 159.1259288
SMILES: CC(C)C[C@H](CN)CC(O)=O
InChI: InChI=1S/C8H17NO2/c1-6(2)3-7(5-9)4-8(10)11/h6-7H,3-5,9H2,1-2H3,(H,10,11)/t7-/m0/s1
Instrument: Bruker maXis Impact
Instrument type: LC-ESI-QTOF
Ms type: MS2
Ion mode: POSITIVE
Ionization: ESI
Fragmentation mode: CID
Collision energy: 10 eV
Resolution: 35000
Column name: Acclaim RSLC C18 2.2um, 2.1x100mm, Thermo
Retention time: 3.941 min
Base peak: 160.1336
Precursor m/z: 160.1332
Precursor type: [M+H]+
m/z	relative intensity	assigned
124.112	78	C8H14N+
125.0964	81	C8H13O+
142.1228	999	C8H16NO+
143.1067	215	C8H15O2+
143.1258	86	C7[13]CH16NO+
144.11	23	C7[13]CH15O2+
160.1335	810	C8H18NO2+
161.1364	61	C7[13]CH18NO2+
