Mass spectrum: Sitagliptin; LC-ESI-QTOF; MS2; CE: 10 eV; R=35000; [M+H]+
Name: Sitagliptin
Name: (3R)-3-amino-1-[3-(trifluoromethyl)-6,8-dihydro-5H-[1,2,4]triazolo[4,3-a]pyrazin-7-yl]-4-(2,4,5-trifluorophenyl)butan-1-one
Formula: C16H15F6N5O
Exact mass: 407.1180794
SMILES: c1c(c(cc(c1F)F)F)C[C@H](CC(=O)N2CCn3c(nnc3C(F)(F)F)C2)N
InChI: InChI=1S/C16H15F6N5O/c17-10-6-12(19)11(18)4-8(10)3-9(23)5-14(28)26-1-2-27-13(7-26)24-25-15(27)16(20,21)22/h4,6,9H,1-3,5,7,23H2/t9-/m1/s1
Instrument: Bruker maXis Impact
Instrument type: LC-ESI-QTOF
Ms type: MS2
Ion mode: POSITIVE
Ionization: ESI
Fragmentation mode: CID
Collision energy: 10 eV
Resolution: 35000
Column name: Acclaim RSLC C18 2.2um, 2.1x100mm, Thermo
Retention time: 5.338 min
Base peak: 408.1286
Precursor m/z: 408.1254
Precursor type: [M+H]+
m/z	relative intensity	assigned
174.0533	15	F5H7N4O+
193.0715	22	C8H10F3NO+
235.0813	73	C13H11F2NO+
236.0854	6	C11H10F2N4+
408.1285	999	C16H16F6N5O+
409.1317	209	C15[13]CH16F6N5O+
