Mass spectrum: Hexachlorobenzene; GC-APCI-QTOF; MS2; CE: 20 eV; R=35000; [M+H]+
Name: Hexachlorobenzene
Name: 1,2,3,4,5,6-hexachlorobenzene
Formula: C6Cl6
Exact mass: 281.8131
SMILES: ClC1=C(Cl)C(Cl)=C(Cl)C(Cl)=C1Cl
InChI: InChI=1S/C6Cl6/c7-1-2(8)4(10)6(12)5(11)3(1)9
Instrument: Bruker 450 GC coupled to maXis Impact
Instrument type: GC-APCI-QTOF
Ms type: MS2
Ion mode: POSITIVE
Ionization: APCI
Fragmentation mode: CID
Collision energy: 20 eV
Resolution: 35000
Column name: Rxi-5Sil MS column, 30m, 0.25mm i.d., 0.25Âµm film thickness (Restek)
Retention time: 14.493 min
Base peak: 282.817
Precursor m/z: 282.8204
Precursor type: [M+H]+
m/z	relative intensity	assigned
281.8103	999	C6Cl6+
282.8143	142	C6HCl6+
