Mass spectrum: Nitrendipin; LC-ESI-QTOF; MS2; CE: 20 eV; R=35000; [M+H]+
Name: Nitrendipin
Name: Nitrendipine
Name: 5-O-ethyl 3-O-methyl 2,6-dimethyl-4-(3-nitrophenyl)-1,4-dihydropyridine-3,5-dicarboxylate
Formula: C18H20N2O6
Exact mass: 360.1321364
SMILES: CCOC(=O)C1=C(C)NC(C)=C(C1C1=CC=CC(=C1)[N+]([O-])=O)C(=O)OC
InChI: InChI=1S/C18H20N2O6/c1-5-26-18(22)15-11(3)19-10(2)14(17(21)25-4)16(15)12-7-6-8-13(9-12)20(23)24/h6-9,16,19H,5H2,1-4H3
Instrument: Bruker maXis Impact
Instrument type: LC-ESI-QTOF
Ms type: MS2
Ion mode: POSITIVE
Ionization: ESI
Fragmentation mode: CID
Collision energy: 20 eV
Resolution: 35000
Column name: Acclaim RSLC C18 2.2um, 2.1x100mm, Thermo
Retention time: 9.794 min
Base peak: 361.1388
Precursor m/z: 361.1394
Precursor type: [M+H]+
m/z	relative intensity	assigned
254.0804	5	C15H12NO3+
255.0784	6	C14H11N2O3+
269.1032	12	C13H17O6+
283.0707	22	C15H11N2O4+
284.0766	6	C14[13]CH11N2O4+
298.094	9	C16H14N2O4+
301.0806	25	C15H13N2O5+
315.0971	999	C16H15N2O5+
316.1	144	C15[13]CH15N2O5+
317.1017	17	C14[13]C2H15N2O5+
329.1128	664	C17H17N2O5+
330.1159	96	C16[13]CH17N2O5+
331.0916	7	C16H15N2O6+
331.1183	12	C15[13]C2H17N2O5+
359.1229	12	C18H19N2O6+
361.1388	11	C18H21N2O6+
