Mass spectrum: Perfluorohexanephosphonic acid (PFHxPA); LC-ESI-QTOF; MS2; CE: 23.6-35.4 eV; R=35000; [M-H]-
Name: Perfluorohexanephosphonic acid (PFHxPA)
Formula: C6H2F13O3P
Exact mass: 399.9534
SMILES: FC(F)(C(F)(F)P(O)(=O)O)C(F)(F)C(F)(F)C(F)(F)C(F)(F)F
InChI: InChI=1S/C6H2F13O3P/c7-1(8,3(11,12)5(15,16)17)2(9,10)4(13,14)6(18,19)23(20,21)22/h(H2,20,21,22)
Instrument: Bruker maXis Impact
Instrument type: LC-ESI-QTOF
Ms type: MS2
Ionization: ESI
Fragmentation mode: CID
Collision energy: 23.6-35.4 eV
Resolution: 35000
Column name: Acclaim RSLC C18 2.2um, 2.1x100mm, Thermo
Retention time: 6.732 min
Base peak: 59.0129
Precursor m/z: 398.9461
Precursor type: [M-H]-
m/z	relative intensity	assigned
78.9573	999	O3P-
398.9435	167	C6HF13O3P-
