Mass spectrum: Butyl stearate; GC-APCI-QTOF; MS2; CE: 20 eV; R=35000; [M+H]+
Name: Butyl stearate
Formula: C22H44O2
Exact mass: 340.3341
SMILES: CCCCCCCCCCCCCCCCCC(=O)OCCCC
InChI: InChI=1S/C22H44O2/c1-3-5-7-8-9-10-11-12-13-14-15-16-17-18-19-20-22(23)24-21-6-4-2/h3-21H2,1-2H3
Instrument: Bruker 450 GC coupled to maXis Impact
Instrument type: GC-APCI-QTOF
Ms type: MS2
Ion mode: POSITIVE
Ionization: APCI
Fragmentation mode: CID
Collision energy: 20 eV
Resolution: 35000
Column name: Rxi-5Sil MS column, 30m, 0.25mm i.d., 0.25Âµm film thickness, Restek
Retention time: 22.588 min
Base peak: 285.28
Precursor m/z: 341.3414
Precursor type: [M+H]+
m/z	relative intensity	assigned
57.0712	58	C4H9+
121.1019	56	C9H13+
123.1185	32	C9H15+
125.0966	81	C8H13O+
129.0932	96	C7H13O2+
131.1073	42	C7H15O2+
135.1173	164	C10H15+
137.1308	44	C10H17+
139.1116	114	C9H15O+
143.1074	39	C8H15O2+
145.121	43	C8H17O2+
149.1335	67	C11H17+
151.1464	39	C11H19+
153.1257	76	C10H17O+
157.1252	37	C9H17O2+
159.1406	40	C9H19O2+
163.1481	55	C12H19+
167.1434	71	C11H19O+
171.1356	29	C10H19O2+
173.1556	38	C10H21O2+
177.1632	58	C13H21+
181.159	65	C12H21O+
185.1509	52	C11H21O2+
187.1677	41	C11H23O2+
191.1757	57	C14H23+
195.1749	69	C13H23O+
209.1862	35	C14H25O+
215.2019	30	C13H27O2+
229.2193	37	C14H29O2+
247.248	110	C18H31+
248.2487	36	C18H32+
265.2552	118	C18H33O+
266.2629	38	C18H34O+
283.2625	60	C18H35O2+
285.2803	999	C18H37O2+
286.2874	199	C18H38O2+
287.2901	32	C18H39O2+
