Mass spectrum: Progesterone; LC-ESI-QTOF; MS2; CE: Ramp 21.9-32.9 eV; R=35000; [M+H]+
Name: Progesterone
Name: (8S,9S,10R,13S,14S,17S)-17-acetyl-10,13-dimethyl-1,2,6,7,8,9,11,12,14,15,16,17-dodecahydrocyclopenta[a]phenanthren-3-one
Formula: C21H30O2
Exact mass: 314.2246
SMILES: CC(=O)[C@H]1CC[C@@H]2[C@@]1(CC[C@H]3[C@H]2CCC4=CC(=O)CC[C@]34C)C
InChI: InChI=1S/C21H30O2/c1-13(22)17-6-7-18-16-5-4-14-12-15(23)8-10-20(14,2)19(16)9-11-21(17,18)3/h12,16-19H,4-11H2,1-3H3/t16-,17+,18-,19-,20-,21+/m0/s1
Instrument: Bruker maXis Impact
Instrument type: LC-ESI-QTOF
Ms type: MS2
Ion mode: POSITIVE
Ionization: ESI
Fragmentation mode: CID
Collision energy: Ramp 21.9-32.9 eV
Resolution: 35000
Column name: Acclaim RSLC C18 2.2um, 2.1x100mm, Thermo
Retention time: 11.2 min
Base peak: 315.2335
Precursor m/z: 315.2319
Precursor type: [M+H]+
m/z	relative intensity	assigned
55.0168	5	C3H3O+
60.055	32	C3H8O+
67.0538	27	C5H7+
69.0325	7	C4H5O+
69.0692	18	C5H9+
71.0486	16	C4H7O+
79.0536	53	C6H7+
81.0697	83	C6H9+
83.0488	69	C5H7O+
85.0648	63	C5H9O+
91.0542	11	C7H7+
93.0698	32	C7H9+
95.0856	52	C7H11+
97.0654	999	C6H9O+
98.0688	73	C6H10O+
105.07	12	C8H9+
107.0868	16	C8H11+
109.0667	513	C7H9O+
110.0692	47	C7H10O+
117.0692	7	C9H9+
119.0855	38	C9H11+
121.0657	10	C8H9O+
121.1012	29	C9H13+
122.1051	5	C9H14+
123.0804	127	C8H11O+
124.0841	11	C8H12O+
131.0859	39	C10H11+
133.1016	40	C10H13+
134.104	5	C10H14+
135.0798	6	C9H11O+
135.1166	27	C10H15+
137.0958	28	C9H13O+
137.1325	6	C10H17+
143.0858	16	C11H11+
145.1013	45	C11H13+
146.1038	7	C11H14+
147.1168	57	C11H15+
148.12	6	C11H16+
149.0967	15	C10H13O+
149.1325	21	C11H17+
151.1119	11	C10H15O+
155.084	7	C12H11+
157.1011	22	C12H13+
159.1168	72	C12H15+
160.1201	9	C12H16+
161.0951	6	C11H13O+
161.1328	44	C12H17+
162.1361	7	C12H18+
163.1121	41	C11H15O+
163.1479	10	C12H19+
164.115	5	C11H16O+
165.1278	5	C11H17O+
169.1018	10	C13H13+
171.1168	40	C13H15+
172.1209	5	C13H16+
173.1328	71	C13H17+
174.1368	6	C13H18+
175.1119	12	C12H15O+
175.1487	21	C13H19+
177.128	52	C12H17O+
179.1433	6	C12H19O+
183.1171	15	C14H15+
185.1322	19	C14H17+
187.1113	10	C13H15O+
187.1488	26	C14H19+
188.1535	5	C14H20+
189.1272	25	C13H17O+
189.1634	14	C14H21+
191.1439	24	C13H19O+
192.1477	5	C13H20O+
195.1174	8	C15H15+
197.1324	14	C15H17+
199.1477	17	C15H19+
201.1292	7	C14H17O+
201.1643	36	C15H21+
202.1668	7	C15H22+
203.1425	14	C14H19O+
205.1599	7	C14H21O+
207.1731	6	C14H23O+
209.1316	9	C16H17+
211.149	8	C16H19+
213.1267	6	C15H17O+
213.1644	32	C16H21+
214.1689	8	C16H22+
215.1436	14	C15H19O+
215.181	31	C16H23+
216.1862	8	C16H24+
217.1594	7	C15H21O+
219.1755	12	C15H23O+
223.1483	16	C17H19+
224.1519	10	C17H20+
225.1637	5	C17H21+
227.1458	5	C16H19O+
227.1806	22	C17H23+
229.1592	18	C16H21O+
231.1745	15	C16H23O+
233.1902	18	C16H25O+
237.1647	14	C18H21+
239.1795	59	C18H23+
240.1857	8	C18H24+
241.1598	16	C17H21O+
245.1915	19	C17H25O+
251.1807	9	C19H23+
253.1954	16	C19H25+
254.2007	6	C19H26+
255.176	9	C18H23O+
255.2115	72	C19H27+
256.2135	17	C19H28+
257.1911	21	C18H25O+
269.1916	8	C19H25O+
269.2294	5	C20H29+
271.2072	12	C19H27O+
273.2229	43	C19H29O+
274.2273	10	C19H30O+
279.2114	76	C21H27+
280.2157	15	C21H28+
297.223	240	C21H29O+
298.2256	49	C21H30O+
299.2309	6	C21H31O+
315.2337	899	C21H31O2+
316.237	234	C20H30NO2+
317.2403	18	C20H31NO2+
