Mass spectrum: Norbuprenorphine; LC-ESI-QTOF; MS2; CE: 30 eV; R=35000; [M+H]+
Name: Norbuprenorphine
Formula: C25H35NO4
Exact mass: 413.2566086
SMILES: C[C@]([C@H]1C[C@@]23CC[C@@]1([C@H]4[C@@]25CCN[C@@H]3Cc6c5c(c(cc6)O)O4)OC)(C(C)(C)C)O
InChI: InChI=1S/C25H35NO4/c1-21(2,3)22(4,28)16-13-23-8-9-25(16,29-5)20-24(23)10-11-26-17(23)12-14-6-7-15(27)19(30-20)18(14)24/h6-7,16-17,20,26-28H,8-13H2,1-5H3/t16-,17-,20-,22+,23-,24+,25-/m1/s1
Instrument: Bruker maXis Impact
Instrument type: LC-ESI-QTOF
Ms type: MS2
Ion mode: POSITIVE
Ionization: ESI
Fragmentation mode: CID
Collision energy: 30 eV
Resolution: 35000
Column name: Acclaim RSLC C18 2.2um, 2.1x100mm, Thermo
Retention time: 6.308 min
Base peak: 150.1128
Precursor m/z: 414.2639
Precursor type: [M+H]+
m/z	relative intensity	assigned
211.0752	12	C14H11O2+
271.1331	13	C17H19O3+
326.177	13	C20H24NO3+
340.1895	27	C21H26NO3+
364.2251	20	C24H30NO2+
396.2511	15	C25H34NO3+
414.2662	999	C25H36NO4+
415.2692	326	C24[13]CH36NO4+
416.274	47	C23[13]C2H36NO4+
