Mass spectrum: 4-Methylbenzylidene camphor; LC-ESI-QTOF; MS2; CE: 40 eV; R=35000; [M+H]+
Name: 4-Methylbenzylidene camphor
Name: 1,7,7-Trimethyl-3-(4-methylbenzylidene)bicyclo[2.2.1]heptan-2-one
Name: 1,7,7-trimethyl-3-[(4-methylphenyl)methylidene]bicyclo[2.2.1]heptan-2-one
Formula: C18H22O
Exact mass: 254.1670653
SMILES: CC1=CC=C(C=C2C3CCC(C)(C2=O)C3(C)C)C=C1
InChI: InChI=1S/C18H22O/c1-12-5-7-13(8-6-12)11-14-15-9-10-18(4,16(14)19)17(15,2)3/h5-8,11,15H,9-10H2,1-4H3
Instrument: Bruker maXis Impact
Instrument type: LC-ESI-QTOF
Ms type: MS2
Ion mode: POSITIVE
Ionization: ESI
Fragmentation mode: CID
Collision energy: 40 eV
Resolution: 35000
Column name: Acclaim RSLC C18 2.2um, 2.1x100mm, Thermo
Retention time: 12.681 min
Base peak: 255.1741
Precursor m/z: 255.1743
Precursor type: [M+H]+
m/z	relative intensity	assigned
111.0784	7	C7H11O+
115.0531	221	C9H7+
116.0601	52	C9H8+
117.0689	120	C9H9+
118.0736	13	C8[13]CH9+
119.0484	88	C8H7O+
119.0845	265	C9H11+
120.0551	14	C8H8O+
120.0884	40	C8[13]CH11+
121.0642	51	C8H9O+
121.1005	25	C9H13+
122.0717	21	C8H10O+
123.0791	44	C8H11O+
124.0852	8	C8H12O+
126.0462	12	C10H6+
127.0528	39	C10H7+
128.061	642	C10H8+
129.0684	478	C10H9+
130.0761	270	C10H10+
131.0841	247	C10H11+
132.0552	9	C9H8O+
132.0879	27	C9[13]CH11+
133.0628	16	C9H9O+
133.0996	31	C10H13+
135.0799	67	C9H11O+
135.1164	23	C10H15+
136.0819	8	C8[13]CH11O+
137.0947	33	C9H13O+
139.1111	16	C9H15O+
141.0685	751	C11H9+
142.0761	999	C11H10+
143.0837	696	C11H11+
144.09	107	C10[13]CH11+
145.064	67	C10H9O+
145.0998	405	C11H13+
146.0673	8	C9[13]CH9O+
146.1031	57	C10[13]CH13+
147.0797	31	C10H11O+
147.1132	9	C11H15+
149.0952	7	C10H13O+
150.1011	10	C10H14O+
152.0611	121	C12H8+
153.0685	236	C12H9+
154.0757	224	C12H10+
155.0844	524	C12H11+
156.0918	906	C12H12+
157.0993	529	C12H13+
158.0721	37	C11H10O+
158.1027	58	C11[13]CH13+
159.0789	26	C11H11O+
159.1148	72	C12H15+
160.1195	7	C11[13]CH15+
163.1101	23	C11H15O+
165.0687	903	C13H9+
166.0758	414	C13H10+
167.0838	356	C13H11+
168.0912	189	C13H12+
169.0636	58	C12H9O+
169.0997	521	C13H13+
170.0707	31	C12H10O+
170.1055	135	C13H14+
171.0791	213	C12H11O+
171.1155	334	C13H15+
172.0842	48	C12H12O+
172.1192	50	C12[13]CH15+
173.0966	12	C12H13O+
177.0694	10	C14H9+
178.0762	205	C14H10+
179.0841	697	C14H11+
180.0917	691	C14H12+
181.0634	110	C13H9O+
181.0992	260	C14H13+
182.071	217	C13H10O+
182.1069	162	C14H14+
183.0787	87	C13H11O+
183.1155	217	C14H15+
184.0871	80	C13H12O+
184.1204	63	C14H16+
185.0948	220	C13H13O+
185.1299	25	C14H17+
186.0998	46	C12[13]CH13O+
187.1078	11	C13H15O+
190.0736	7	C15H10+
191.0844	41	C15H11+
192.0915	214	C15H12+
193.1	455	C15H13+
194.1071	273	C15H14+
195.0809	23	C14H11O+
195.1153	307	C15H15+
196.0875	186	C14H12O+
196.1207	71	C14[13]CH15+
197.0951	753	C14H13O+
197.1307	64	C15H17+
198.1001	156	C13[13]CH13O+
198.1352	15	C14[13]CH17+
199.1105	99	C14H15O+
200.1144	16	C13[13]CH15O+
205.0994	12	C16H13+
206.107	25	C16H14+
207.1156	352	C16H15+
208.1223	126	C16H16+
209.0961	7	C15H13O+
209.1319	39	C16H17+
210.1031	16	C15H14O+
211.1108	328	C15H15O+
211.1493	18	C16H19+
212.1181	429	C15H16O+
213.123	92	C14[13]CH16O+
220.1235	15	C17H16+
221.1318	24	C17H17+
222.1401	53	C17H18+
223.1418	14	C16[13]CH18+
225.1259	69	C16H17O+
226.0445	8	C17H6O+
226.1352	23	C16H18O+
227.1428	31	C16H19O+
237.162	7	C18H21+
239.1432	10	C17H19O+
240.1521	20	C17H20O+
