Mass spectrum: Genistein; LC-ESI-QTOF; MS2; CE: 40 eV; R=35000; [M-H]-
Name: Genistein
Name: 5,7-dihydroxy-3-(4-hydroxyphenyl)chromen-4-one
Formula: C15H10O5
Exact mass: 270.0528234
SMILES: OC1=CC=C(C=C1)C1=COC2=CC(O)=CC(O)=C2C1=O
InChI: InChI=1S/C15H10O5/c16-9-3-1-8(2-4-9)11-7-20-13-6-10(17)5-12(18)14(13)15(11)19/h1-7,16-18H
Instrument: Bruker maXis Impact
Instrument type: LC-ESI-QTOF
Ms type: MS2
Ion mode: NEGATIVE
Ionization: ESI
Fragmentation mode: CID
Collision energy: 40 eV
Resolution: 35000
Column name: Acclaim RSLC C18 2.2um, 2.1x100mm, Thermo
Retention time: 7.515 min
Base peak: 269.045
Precursor m/z: 269.0455
Precursor type: [M-H]-
m/z	relative intensity	assigned
132.021	735	C8H4O2-
133.0287	999	C8H5O2-
134.0357	419	C8H6O2-
135.0444	561	C8H7O2-
141.0341	90	C10H5O-
151.0012	94	C7H3O4-
155.0483	122	C11H7O-
157.0292	270	C10H5O2-
158.0383	96	C10H6O2-
159.0452	458	C10H7O2-
169.0663	139	C12H9O-
171.0445	132	C11H7O2-
180.0587	220	C13H8O-
181.0642	161	C13H9O-
182.0353	120	C12H6O2-
183.043	261	C12H7O2-
195.0422	140	C13H7O2-
196.0504	118	C13H8O2-
201.0531	99	C12H9O3-
211.0386	99	C13H7O3-
223.0391	123	C14H7O3-
224.0489	143	C14H8O3-
269.0446	223	C15H9O5-
