Mass spectrum: Morphine; LC-ESI-QTOF; MS2; CE: 50 eV; R=35000; [M+H]+
Name: Morphine
Name: (4R,4aR,7S,7aR,12bS)-3-methyl-2,4,4a,7,7a,13-hexahydro-1H-4,12-methanobenzofuro[3,2-e]isoquinoline-7,9-diol
Formula: C17H19NO3
Exact mass: 285.1364935
SMILES: CN1CC[C@]23[C@@H]4[C@H]1CC5=C2C(=C(C=C5)O)O[C@H]3[C@H](C=C4)O
InChI: InChI=1S/C17H19NO3/c1-18-7-6-17-10-3-5-13(20)16(17)21-15-12(19)4-2-9(14(15)17)8-11(10)18/h2-5,10-11,13,16,19-20H,6-8H2,1H3/t10-,11+,13-,16-,17-/m0/s1
Instrument: Bruker maXis Impact
Instrument type: LC-ESI-QTOF
Ms type: MS2
Ion mode: POSITIVE
Ionization: ESI
Fragmentation mode: CID
Collision energy: 50 eV
Resolution: 35000
Column name: Acclaim RSLC C18 2.2um, 2.1x100mm, Thermo
Retention time: 2.729 min
Base peak: 286.1468
Precursor m/z: 286.1438
Precursor type: [M+H]+
m/z	relative intensity	assigned
115.0551	138	C9H7+
116.0603	20	C8[13]CH7+
117.0587	5	C8H7N+
117.0707	43	C9H9+
118.075	9	C9H10+
121.0665	8	C8H9O+
123.0447	46	C7H7O2+
126.0476	15	C10H6+
127.0549	74	C10H7+
128.0628	319	C10H8+
129.0702	161	C10H9+
130.0752	20	C9[13]CH9+
131.0498	60	C9H7O+
131.086	16	C10H11+
132.0561	19	C9H8O+
132.0818	17	C9H10N+
133.065	14	C9H9O+
134.0987	5	C9H12N+
135.0448	7	C8H7O2+
137.0608	5	C8H9O2+
139.0545	52	C11H7+
140.0624	26	C11H8+
141.0704	137	C11H9+
142.0761	20	C10[13]CH9+
143.0502	18	C10H7O+
143.086	43	C11H11+
144.0577	88	C10H8O+
144.0821	9	C10H10N+
145.0656	249	C10H9O+
145.102	14	C11H13+
146.069	27	C9[13]CH9O+
146.0979	7	C10H12N+
147.0449	205	C9H7O2+
148.0486	23	C8[13]CH7O2+
150.0466	12	C12H6+
151.0559	30	C12H7+
152.063	558	C12H8+
153.0707	999	C12H9+
154.0758	178	C11[13]CH9+
155.0611	100	C7H9NO3+
155.0863	336	C12H11+
156.0591	26	C11H8O+
156.0904	50	C11[13]CH11+
157.0658	711	C11H9O+
158.0712	113	C10[13]CH9O+
159.0442	10	C10H7O2+
159.0802	26	C11H11O+
160.0528	61	C10H8O2+
160.0767	13	C10H10NO+
161.0595	38	C10H9O2+
162.0927	6	C10H12NO+
163.0553	15	C13H7+
164.0622	23	C13H8+
165.071	913	C13H9+
166.0766	204	C13H10+
167.0503	12	C12H7O+
167.0855	45	C12[13]CH10+
168.0576	117	C12H8O+
168.0895	6	C13H12+
169.0654	152	C12H9O+
170.0726	43	C12H10O+
170.098	6	C12H12N+
171.0454	148	C11H7O2+
171.0814	86	C12H11O+
172.0519	37	C11H8O2+
172.0857	13	C11[13]CH11O+
173.0609	119	C11H9O2+
173.0971	36	C12H13O+
174.0649	24	C10[13]CH9O2+
175.0761	5	C11H11O2+
176.066	22	C14H8+
177.0708	15	C14H9+
178.0792	116	C14H10+
179.0616	30	C9H9NO3+
179.0863	60	C14H11+
180.0598	19	C13H8O+
180.0894	16	C14H12+
181.0663	740	C13H9O+
182.0702	122	C12[13]CH9O+
182.097	6	C13H12N+
182.1066	6	C14H14+
183.0817	195	C13H11O+
184.0531	240	C12H8O2+
184.086	37	C12[13]CH11O+
185.0605	304	C12H9O2+
186.0668	75	C12H10O2+
187.0403	7	C14H5N+
187.0756	23	C12H11O2+
189.0711	100	C15H9+
190.0786	101	C15H10+
191.0866	139	C15H11+
192.0922	25	C14[13]CH11+
193.0663	53	C14H9O+
193.1031	10	C15H13+
194.0734	89	C14H10O+
194.1	5	C14H12N+
195.0801	25	C14H11O+
196.0503	14	C13H8O2+
197.0613	61	C13H9O2+
197.0972	8	C14H13O+
198.0685	110	C13H10O2+
199.0394	5	C12H7O3+
199.0765	103	C13H11O2+
200.0821	24	C12[13]CH11O2+
201.0708	16	C16H9+
201.0924	89	C13H13O2+
202.0795	24	C16H10+
203.0868	7	C16H11+
205.0667	14	C15H9O+
206.0746	11	C15H10O+
206.0968	6	C15H12N+
207.0826	25	C15H11O+
208.0539	9	C14H8O2+
208.0913	9	C15H12O+
209.0612	150	C14H9O2+
209.0977	23	C15H13O+
210.066	38	C13[13]CH9O2+
211.0765	107	C14H11O2+
212.0807	16	C13[13]CH11O2+
213.0572	14	C16H7N+
214.0625	11	C13H10O3+
214.0874	7	C13H12NO2+
218.0734	25	C16H10O+
219.0812	26	C16H11O+
220.0903	6	C16H12O+
220.1139	7	C16H14N+
221.0614	22	C15H9O2+
221.096	8	C16H13O+
222.0685	20	C15H10O2+
223.076	10	C15H11O2+
224.0836	5	C15H12O2+
225.0538	6	C14H9O3+
225.0943	8	C15H13O2+
226.0634	10	C14H10O3+
227.0717	57	C17H9N+
227.11	5	C15H15O2+
228.0758	9	C16[13]CH9N+
229.0869	22	C14H13O3+
230.0892	5	C14H14O3+
234.0941	6	C16H12NO+
235.075	7	C16H11O2+
237.0917	14	C16H13O2+
238.0901	5	C15H12NO2+
240.104	6	C15H14NO2+
252.1046	12	C16H14NO2+
253.1135	5	C16H15NO2+
286.1452	30	C17H20NO3+
