Mass spectrum: Velvione; LC-ESI-QTOF; MS2; CE: 20 eV; R=35000; [M+H]+
Name: Velvione
Name: 5-Cyclohexadecen-1-one
Name: cyclohexadec-5-en-1-one
Formula: C16H28O
Exact mass: 236.2140155
SMILES: O=C1CCCCCCCCCCC=CCCC1
InChI: InChI=1S/C16H28O/c17-16-14-12-10-8-6-4-2-1-3-5-7-9-11-13-15-16/h6,8H,1-5,7,9-15H2
Instrument: Bruker maXis Impact
Instrument type: LC-ESI-QTOF
Ms type: MS2
Ion mode: POSITIVE
Ionization: ESI
Fragmentation mode: CID
Collision energy: 20 eV
Resolution: 35000
Column name: Acclaim RSLC C18 2.2um, 2.1x100mm, Thermo
Retention time: 13.884 min
Base peak: 494.172
Precursor m/z: 237.2213
Precursor type: [M+H]+
m/z	relative intensity	assigned
123.114	304	C9H15+
237.2195	999	C16H29O+
