Mass spectrum: Flubendazole; LC-ESI-QTOF; MS2; CE: 30 eV; R=35000; [M+H]+
Name: Flubendazole
Name: methyl N-[6-(4-fluorobenzoyl)-1H-benzimidazol-2-yl]carbamate
Formula: C16H12FN3O3
Exact mass: 313.0862695
SMILES: COC(=O)Nc1[nH]c2ccc(cc2n1)C(=O)c3ccc(cc3)F
InChI: InChI=1S/C16H12FN3O3/c1-23-16(22)20-15-18-12-7-4-10(8-13(12)19-15)14(21)9-2-5-11(17)6-3-9/h2-8H,1H3,(H2,18,19,20,22)
Instrument: Bruker maXis Impact
Instrument type: LC-ESI-QTOF
Ms type: MS2
Ion mode: POSITIVE
Ionization: ESI
Fragmentation mode: CID
Collision energy: 30 eV
Resolution: 35000
Column name: Acclaim RSLC C18 2.2um, 2.1x100mm, Thermo
Retention time: 8.5 min
Base peak: 314.0934
Precursor m/z: 314.0935
Precursor type: [M+H]+
m/z	relative intensity	assigned
123.0236	25	C7H4FO+
282.0669	999	C15H9FN3O2+
283.0699	117	C14[13]CH9FN3O2+
314.0938	15	C16H13FN3O3+
