Mass spectrum: N,N-Didesvenlafaxine; LC-ESI-QTOF; MS2; CE: 20 eV; R=35000; [M+H]+
Name: N,N-Didesvenlafaxine
Name: Dinorvenlafaxine
Formula: C15H23NO2
Exact mass: 249.1728790
SMILES: COC1=CC=C(C=C1)C(CN)C1(O)CCCCC1
InChI: InChI=1S/C15H23NO2/c1-18-13-7-5-12(6-8-13)14(11-16)15(17)9-3-2-4-10-15/h5-8,14,17H,2-4,9-11,16H2,1H3
Instrument: Bruker maXis Impact
Instrument type: LC-ESI-QTOF
Ms type: MS2
Ion mode: POSITIVE
Ionization: ESI
Fragmentation mode: CID
Collision energy: 20 eV
Resolution: 35000
Column name: Acclaim RSLC C18 2.2um, 2.1x100mm, Thermo
Retention time: 6.2 min
Base peak: 250.1797
Precursor m/z: 250.1802
Precursor type: [M+H]+
m/z	relative intensity	assigned
121.0639	422	C8H9O+
122.0671	54	C7[13]CH9O+
124.1112	7	C8H14N+
131.0478	17	C9H7O+
132.0564	18	C9H8O+
135.0794	35	C9H11O+
147.0792	472	C10H11O+
148.0827	37	C9[13]CH11O+
150.0916	9	C9H12NO+
159.0789	95	C11H11O+
160.0834	14	C6H12N2O3+
161.0949	6	C11H13O+
173.0946	190	C12H13O+
174.098	21	C11[13]CH13O+
183.1148	17	C14H15+
187.1106	14	C13H15O+
201.1253	15	C14H17O+
203.1422	56	C14H19O+
204.1443	6	C9H20N2O3+
215.1421	999	C15H19O+
216.1453	116	C14[13]CH19O+
217.1492	15	C14H19NO+
232.1693	74	C15H22NO+
233.1712	11	C14[13]CH22NO+
