Mass spectrum: Cyclohexyl methacrylate; GC-APCI-QTOF; MS2; CE: 10 eV; R=35000; [M+H]+
Name: Cyclohexyl methacrylate
Formula: C10H16O2
Exact mass: 168.1150
SMILES: CC(=C)C(=O)OC1CCCCC1
InChI: InChI=1S/C10H16O2/c1-8(2)10(11)12-9-6-4-3-5-7-9/h9H,1,3-7H2,2H3
Instrument: Bruker 450 GC coupled to maXis Impact
Instrument type: GC-APCI-QTOF
Ms type: MS2
Ion mode: POSITIVE
Ionization: APCI
Fragmentation mode: CID
Collision energy: 10 eV
Resolution: 35000
Column name: Rxi-5Sil MS column, 30m, 0.25mm i.d., 0.25Âµm film thickness, Restek
Retention time: 11.273 min
Base peak: 201.1847
Precursor m/z: 169.1223
Precursor type: [M+H]+
m/z	relative intensity	assigned
135.1166	666	C10H15+
141.1289	999	C9H17O+
