Mass spectrum: Colchicine; LC-ESI-QTOF; MS2; CE: 40 eV; R=35000; [M+H]+
Name: Colchicine
Name: N-[(7S)-1,2,3,10-tetramethoxy-9-oxo-6,7-dihydro-5H-benzo[a]heptalen-7-yl]acetamide
Formula: C22H25NO6
Exact mass: 399.1681875
SMILES: C/C(=N\[C@H]1CCc2cc(c(c(c2-c3c1cc(=O)c(cc3)OC)OC)OC)OC)/O
InChI: InChI=1S/C22H25NO6/c1-12(24)23-16-8-6-13-10-19(27-3)21(28-4)22(29-5)20(13)14-7-9-18(26-2)17(25)11-15(14)16/h7,9-11,16H,6,8H2,1-5H3,(H,23,24)/t16-/m0/s1
Instrument: Bruker maXis Impact
Instrument type: LC-ESI-QTOF
Ms type: MS2
Ion mode: POSITIVE
Ionization: ESI
Fragmentation mode: CID
Collision energy: 40 eV
Resolution: 35000
Column name: Acclaim RSLC C18 2.2um, 2.1x100mm, Thermo
Retention time: 6.3 min
Base peak: 400.1632
Precursor m/z: 400.1755
Precursor type: [M+H]+
m/z	relative intensity	assigned
137.0575	69	C8H9O2+
145.0586	23	C2H11NO6+
150.048	27	C12H6+
151.0728	24	C9H11O2+
152.0646	47	C12H8+
160.07	27	C7H12O4+
161.05	32	C9H7NO2+
165.0718	54	C13H9+
176.0652	52	C7H12O5+
177.045	38	C9H7NO3+
178.0715	23	C6H12NO5+
179.0611	31	C9H9NO3+
181.0562	26	C5H11NO6+
181.0765	162	C9H11NO3+
182.0815	23	C9H12NO3+
188.074	23	C11H10NO2+
190.0799	28	C15H10+
191.0613	31	C10H9NO3+
193.0668	38	C14H9O+
195.0735	45	C6H13NO6+
203.0866	58	C16H11+
204.0578	31	C15H8O+
205.0761	27	C11H11NO3+
207.0731	39	C7H13NO6+
207.093	107	C11H13NO3+
208.0809	32	C7H14NO6+
209.086	24	C14H11NO+
211.067	33	C13H9NO2+
212.0739	23	C13H10NO2+
213.0799	25	C13H11NO2+
218.0705	23	C16H10O+
219.0825	40	C16H11O+
220.088	46	C16H12O+
221.0889	24	C8H15NO6+
222.1039	32	C16H14O+
223.0667	65	C14H9NO2+
224.0744	63	C14H10NO2+
225.0824	75	C14H11NO2+
226.0541	22	C13H8NO3+
226.0906	50	C14H12NO2+
227.0621	60	C13H9NO3+
227.0972	28	C14H13NO2+
234.0593	23	C15H8NO2+
234.1052	99	C17H14O+
235.0665	116	C15H9NO2+
235.1099	31	C17H15O+
236.0739	62	C15H10NO2+
237.0868	77	C16H13O2+
238.0895	49	C15H12NO2+
239.0603	41	C14H9NO3+
239.0986	130	C15H13NO2+
240.0692	47	C14H10NO3+
240.1041	52	C15H14NO2+
241.077	95	C14H11NO3+
242.0857	155	C14H12NO3+
243.0567	29	C13H9NO4+
243.0894	26	C14H13NO3+
247.0668	35	C16H9NO2+
248.0754	39	C16H10NO2+
249.0814	63	C16H11NO2+
250.0893	118	C16H12NO2+
251.0618	131	C15H9NO3+
251.0976	137	C16H13NO2+
252.069	125	C15H10NO3+
252.1034	92	C16H14NO2+
253.0763	78	C15H11NO3+
253.1084	32	C16H15NO2+
254.0838	82	C15H12NO3+
255.0576	95	C14H9NO4+
255.093	129	C15H13NO3+
256.0636	26	C14H10NO4+
256.0983	65	C15H14NO3+
257.0725	38	C14H11NO4+
257.1095	34	C15H15NO3+
258.0794	50	C14H12NO4+
258.1102	29	C12H18O6+
259.0869	23	C14H13NO4+
263.0606	86	C16H9NO3+
263.0844	32	C21H11+
264.0632	43	C13H12O6+
264.0909	53	C21H12+
265.0766	119	C16H11NO3+
265.102	62	C21H13+
266.0838	176	C16H12NO3+
266.1077	79	C21H14+
268.0638	39	C15H10NO4+
268.0958	271	C16H14NO3+
268.1204	26	C13H18NO5+
269.0708	74	C15H11NO4+
269.1036	63	C16H15NO3+
270.0804	177	C15H12NO4+
270.1137	47	C16H16NO3+
271.0852	77	C15H13NO4+
271.1133	24	C20H15O+
272.0952	44	C15H14NO4+
272.1182	26	C20H16O+
273.1019	50	C15H15NO4+
276.0684	36	C17H10NO3+
277.0772	64	C17H11NO3+
277.0987	44	C22H13+
278.0826	207	C17H12NO3+
279.057	109	C16H9NO4+
279.0899	149	C17H13NO3+
279.1125	26	C14H17NO5+
280.0623	54	C16H10NO4+
280.0904	111	C21H12O+
281.0732	51	C16H11NO4+
281.1077	268	C17H15NO3+
282.115	999	C17H16NO3+
283.1168	210	C16[13]CH16NO3+
284.0923	206	C16H14NO4+
284.119	75	C21H16O+
285.0676	35	C15H11NO5+
285.1026	482	C16H15NO4+
285.1254	41	C21H17O+
286.1051	128	C15[13]CH15NO4+
287.0825	128	C15H13NO5+
292.0882	53	C22H12O+
292.0986	51	C18H14NO3+
295.0865	930	C17H13NO4+
295.1091	207	C22H15O+
296.0585	30	C16H10NO5+
296.0882	265	C16[13]CH13NO4+
297.1014	129	C17H15NO4+
297.1272	83	C22H17O+
298.0735	43	C16H12NO5+
298.1097	322	C17H16NO4+
298.1341	226	C22H18O+
299.1149	155	C17H17NO4+
300.0838	57	C16H14NO5+
300.1141	285	C21H16O2+
301.0966	34	C16H15NO5+
301.1204	147	C21H17O2+
302.1075	82	C16H16NO5+
306.104	32	C16H18O6+
307.1106	32	C15H17NO6+
308.0936	53	C18H14NO4+
308.1193	120	C16H20O6+
309.1024	186	C18H15NO4+
310.1089	984	C18H16NO4+
311.0813	646	C17H13NO5+
311.1096	273	C17[13]CH16NO4+
312.0836	111	C16[13]CH13NO5+
313.0977	67	C17H15NO5+
313.133	133	C18H19NO4+
314.0937	122	C21H14O3+
314.1291	113	C22H18O2+
315.1026	44	C21H15O3+
315.1337	41	C22H19O2+
316.1441	60	C22H20O2+
320.0859	22	C19H14NO4+
323.115	32	C19H17NO4+
323.1432	29	C17H23O6+
324.1169	222	C19H18NO4+
325.1034	58	C22H15NO2+
326.1089	354	C19H18O5+
328.1077	434	C22H16O3+
328.1359	28	C22H18NO2+
329.1135	114	C21[13]CH16O3+
330.1244	44	C22H18O3+
330.1549	27	C22H20NO2+
336.105	23	C20H16O5+
336.1177	33	C20H18NO4+
341.1291	199	C19H19NO5+
342.1268	237	C19H20NO5+
343.126	150	C22H17NO3+
344.1309	24	C22H18NO3+
350.1217	29	C21H18O5+
352.1121	55	C20H18NO5+
354.163	24	C21H24NO4+
358.1583	338	C20H24NO5+
359.1618	67	C19[13]CH24NO5+
366.1268	23	C21H20NO5+
367.1345	52	C21H21NO5+
368.132	24	C21H20O6+
382.1465	41	C22H22O6+
400.1678	61	C22H26NO6+
