Mass spectrum: Sertraline; LC-ESI-QTOF; MS2; CE: 40 eV; R=35000; [M+H]+
Name: Sertraline
Name: (1S,4S)-4-(3,4-dichlorophenyl)-N-methyl-1,2,3,4-tetrahydronaphthalen-1-amine
Formula: C17H17Cl2N
Exact mass: 305.0738049
SMILES: CN[C@H]1CC[C@@H](C2=CC=C(Cl)C(Cl)=C2)C2=C1C=CC=C2
InChI: InChI=1S/C17H17Cl2N/c1-20-17-9-7-12(13-4-2-3-5-14(13)17)11-6-8-15(18)16(19)10-11/h2-6,8,10,12,17,20H,7,9H2,1H3/t12-,17-/m0/s1
Instrument: Bruker maXis Impact
Instrument type: LC-ESI-QTOF
Ms type: MS2
Ion mode: POSITIVE
Ionization: ESI
Fragmentation mode: CID
Collision energy: 40 eV
Resolution: 35000
Column name: Acclaim RSLC C18 2.2um, 2.1x100mm, Thermo
Retention time: 9.1 min
Base peak: 306.0814
Precursor m/z: 306.0811
Precursor type: [M+H]+
m/z	relative intensity	assigned
122.9991	30	C7H4Cl+
128.061	48	C10H8+
129.0687	117	C10H9+
130.0726	9	C2H13ClN3O+
158.9751	999	C7H5Cl2+
159.9784	51	C6[13]CH5Cl2+
160.9723	489	C7H5[35]Cl[37]Cl+
161.9754	16	C6[13C]CH5[35]Cl[37]Cl+
