Mass spectrum: Prothioconazole-desthio; LC-ESI-QTOF; MS2; CE: 20 eV; R=35000; [M+H]+
Name: Prothioconazole-desthio
Name: 2-(1-Chlorocyclopropyl)-1-(2-chlorophenyl)-3-(1H-1,2,4-triazol-1-yl)propan-2-ol
Name: 2-(1-chlorocyclopropyl)-1-(2-chlorophenyl)-3-(1,2,4-triazol-1-yl)propan-2-ol
Formula: C14H15Cl2N3O
Exact mass: 311.0592175
SMILES: OC(CN1C=NC=N1)(CC1=CC=CC=C1Cl)C1(Cl)CC1
InChI: InChI=1S/C14H15Cl2N3O/c15-12-4-2-1-3-11(12)7-14(20,13(16)5-6-13)8-19-10-17-9-18-19/h1-4,9-10,20H,5-8H2
Instrument: Bruker maXis Impact
Instrument type: LC-ESI-QTOF
Ms type: MS2
Ion mode: POSITIVE
Ionization: ESI
Fragmentation mode: CID
Collision energy: 20 eV
Resolution: 35000
Column name: Acclaim RSLC C18 2.2um, 2.1x100mm, Thermo
Retention time: 10.466 min
Base peak: 312.0662
Precursor m/z: 312.0665
Precursor type: [M+H]+
m/z	relative intensity	assigned
125.0143	103	C7H6Cl+
126.0171	5	C6[13]CH6Cl+
127.0113	19	C7H6[37]Cl+
139.0298	7	C9H3N2+
151.0295	9	C10H3N2+
153.0684	6	C12H9+
154.0758	9	C4H13ClN3O+
177.0447	6	C12H5N2+
189.0453	27	C12H10Cl+
191.0433	5	C12H10[37]Cl+
225.022	6	C13H6ClN2+
312.0662	999	C14H16Cl2N3O+
313.0691	133	C13[13]CH16Cl2N3O+
314.0634	517	C14H16Cl[37]ClN3O+
