Mass spectrum: Tri-isobutylphosphate; LC-ESI-QTOF; MS2; CE: 10 eV; R=35000; [M+H]+
Name: Tri-isobutylphosphate
Name: Triisobutyl phosphate
Name: tris(2-methylpropyl) phosphate
Formula: C12H27O4P
Exact mass: 266.1646960
SMILES: CC(C)COP(=O)(OCC(C)C)OCC(C)C
InChI: InChI=1S/C12H27O4P/c1-10(2)7-14-17(13,15-8-11(3)4)16-9-12(5)6/h10-12H,7-9H2,1-6H3
Instrument: Bruker maXis Impact
Instrument type: LC-ESI-QTOF
Ms type: MS2
Ion mode: POSITIVE
Ionization: ESI
Fragmentation mode: CID
Collision energy: 10 eV
Resolution: 35000
Column name: Acclaim RSLC C18 2.2um, 2.1x100mm, Thermo
Retention time: 11.534 min
Base peak: 267.1723
Precursor m/z: 267.172
Precursor type: [M+H]+
m/z	relative intensity	assigned
155.046	999	C4H12O4P+
156.0494	54	C3[13]CH12O4P+
157.0503	11	C4H12O3[18]OP+
173.0559	12	C11H9O2+
173.1513	9	C10H21O2+
211.1094	745	C8H20O4P+
212.1124	84	C7[13]CH20O4P+
213.1146	12	C11H17O4+
251.1793	6	C12H28O3P+
267.1716	210	C12H28O4P+
268.174	35	C11[13]CH28O4P+
