Mass spectrum: 2-Amido-3,5,6-trichloro-4-cyanobenzenesulfonic acid; LC-ESI-QTOF; MS2; CE: 30 eV; R=35000; [M-H]-
Name: 2-Amido-3,5,6-trichloro-4-cyanobenzenesulfonic acid
Formula: C8H3Cl3N2O4S
Exact mass: 327.8879106
SMILES: NC(=O)C1=C(C(Cl)=C(Cl)C(C#N)=C1Cl)S(O)(=O)=O
InChI: InChI=1S/C8H3Cl3N2O4S/c9-4-2(1-12)5(10)6(11)7(18(15,16)17)3(4)8(13)14/h(H2,13,14)(H,15,16,17)
Instrument: Bruker maXis Impact
Instrument type: LC-ESI-QTOF
Ms type: MS2
Ion mode: NEGATIVE
Ionization: ESI
Fragmentation mode: CID
Collision energy: 30 eV
Resolution: 35000
Column name: Acclaim RSLC C18 2.2um, 2.1x100mm, Thermo
Retention time: 4.261 min
Base peak: 326.8787
Precursor m/z: 326.8806
Precursor type: [M-H]-
m/z	relative intensity	assigned
183.9385	277	C2HClN2O4S-
185.932	113	C2H[37]ClN2O4S-
203.918	145	C7HCl3N-
205.9134	154	C7HCl2[37]ClN-
219.9113	980	C7HCl3NO-
220.9141	100	C6[13]CHCl3NO-
221.9084	999	C7HCl2[37]ClNO-
223.9095	127	C6H2Cl2O3S-
283.8746	178	C7HCl3NO3S-
285.8664	174	C7HCl2[37]ClNO3S-
285.879	165	C6HCl3N2O3S-
