Mass spectrum: Methadone; LC-ESI-QTOF; MS2; CE: 40 eV; R=35000; [M+H]+
Name: Methadone
Name: 6-(dimethylamino)-4,4-diphenylheptan-3-one
Formula: C21H27NO
Exact mass: 309.2092645
SMILES: CCC(=O)C(CC(C)N(C)C)(C1=CC=CC=C1)C1=CC=CC=C1
InChI: InChI=1S/C21H27NO/c1-5-20(23)21(16-17(2)22(3)4,18-12-8-6-9-13-18)19-14-10-7-11-15-19/h6-15,17H,5,16H2,1-4H3
Instrument: Bruker maXis Impact
Instrument type: LC-ESI-QTOF
Ms type: MS2
Ion mode: POSITIVE
Ionization: ESI
Fragmentation mode: CID
Collision energy: 40 eV
Resolution: 35000
Column name: Acclaim RSLC C18 2.2um, 2.1x100mm, Thermo
Retention time: 8.0 min
Base peak: 310.217
Precursor m/z: 310.2165
Precursor type: [M+H]+
m/z	relative intensity	assigned
115.0541	316	C9H7+
116.0578	40	C4H8N2O2+
117.0696	691	C9H9+
118.0723	57	C4H10N2O2+
119.0843	7	C9H11+
127.0533	24	C10H7+
129.0691	458	C10H9+
130.0742	63	C5H10N2O2+
131.0487	29	C9H7O+
131.0847	132	C10H11+
132.0547	12	C9H8O+
132.0887	12	C5H12N2O2+
135.0794	48	C9H11O+
136.0847	7	C7H10N3+
141.0693	139	C11H9+
142.0738	20	C6H10N2O2+
143.0484	9	C10H7O+
143.0847	128	C11H11+
144.056	18	C10H8O+
144.0898	20	C6H12N2O2+
145.0639	269	C10H9O+
145.1006	44	C11H13+
147.0798	82	C10H11O+
152.0616	57	C12H8+
153.0679	18	C12H9+
154.0768	51	C12H10+
155.0594	49	C10H7N2+
155.0834	20	C12H11+
156.0918	9	C12H12+
157.0633	10	C11H9O+
158.072	65	C11H10O+
159.0797	102	C11H11O+
159.1161	162	C12H15+
160.1184	17	C7H16N2O2+
161.0971	7	C11H13O+
165.0693	130	C13H9+
166.0763	63	C13H10+
167.0848	679	C13H11+
168.0884	102	C8H12N2O2+
169.075	11	C11H9N2+
169.1002	70	C13H13+
170.1046	11	C8H14N2O2+
172.0865	9	C12H12O+
177.0704	8	C14H9+
180.0922	63	C14H12+
181.064	7	C13H9O+
181.1002	37	C14H13+
183.0799	16	C13H11O+
187.1108	32	C13H15O+
189.068	9	C15H9+
190.0765	65	C15H10+
192.0912	67	C15H12+
193.1	42	C15H13+
195.0779	141	C14H11O+
195.1162	576	C15H15+
196.1193	99	C10H16N2O2+
202.0769	72	C16H10+
205.0991	486	C16H13+
206.1051	102	C15[13]CH13+
207.0821	8	C15H11O+
207.1156	63	C16H15+
208.0871	38	C15H12O+
208.1228	17	C16H16+
209.095	57	C15H13O+
210.1007	8	C15H14O+
215.0847	10	C17H11+
216.0922	10	C17H12+
219.1161	999	C17H15+
221.0954	91	C16H13O+
221.1216	21	C16H15N+
222.1004	17	C16H14O+
224.1171	107	C16H16O+
225.1199	20	C15H15NO+
231.1185	12	C18H15+
232.1244	128	C18H16+
233.13	26	C17[13]CH16+
235.1136	32	C17H15O+
236.119	151	C17H16O+
237.1226	33	C16[13]CH16O+
247.1478	37	C19H19+
248.151	12	C19H20+
265.1588	40	C19H21O+
266.1607	14	C19H22O+
