Mass spectrum: Olopatadine; LC-ESI-QTOF; MS2; CE: 40 eV; R=35000; [M+H]+
Name: Olopatadine
Name: 2-[(11Z)-11-[3-(dimethylazaniumyl)propylidene]-6H-benzo[c][1]benzoxepin-2-yl]acetate
Formula: C21H23NO3
Exact mass: 337.1677936
SMILES: CN(C)CC/C=C\1/c2ccccc2COc3c1cc(cc3)CC(=O)O
InChI: InChI=1S/C21H23NO3/c1-22(2)11-5-8-18-17-7-4-3-6-16(17)14-25-20-10-9-15(12-19(18)20)13-21(23)24/h3-4,6-10,12H,5,11,13-14H2,1-2H3,(H,23,24)/b18-8-
Instrument: Bruker maXis Impact
Instrument type: LC-ESI-QTOF
Ms type: MS2
Ion mode: POSITIVE
Ionization: ESI
Fragmentation mode: CID
Collision energy: 40 eV
Resolution: 35000
Column name: Acclaim RSLC C18 2.2um, 2.1x100mm, Thermo
Retention time: 6.986 min
Base peak: 338.1779
Precursor m/z: 338.1751
Precursor type: [M+H]+
m/z	relative intensity	assigned
115.0547	148	C9H7+
116.0585	13	C8[13]CH7+
117.0704	106	C9H9+
118.0738	8	C8[13]CH9+
119.0496	45	C8H7O+
120.0541	5	C7[13]CH7O+
121.0651	18	C8H9O+
123.0445	196	C7H7O2+
124.0479	13	C6[13]CH7O2+
128.0624	59	C10H8+
129.0701	117	C10H9+
130.0735	11	C9[13]CH9+
131.0496	53	C9H7O+
131.0853	5	C10H11+
132.0537	5	C8[13]CH7O+
137.0602	219	C8H9O2+
138.0633	15	C7[13]CH9O2+
141.0704	292	C11H9+
142.0759	55	C10[13]CH9+
143.0851	20	C11H11+
145.0651	13	C10H9O+
147.0443	8	C9H7O2+
149.0601	15	C9H9O2+
153.0701	9	C12H9+
155.0606	6	C7H9NO3+
157.0653	6	C11H9O+
158.0966	9	C11H12N+
161.0604	23	C10H9O2+
165.0555	999	C9H9O3+
166.0589	75	C8[13]CH9O3+
166.0782	14	C13H10+
167.0604	8	C9H9O2[18]O+
167.086	10	C13H11+
169.0655	19	C12H9O+
171.105	5	C12H13N+
172.1122	9	C12H14N+
173.1199	24	C12H15N+
178.0783	88	C14H10+
179.0863	254	C14H11+
180.0898	30	C13[13]CH11+
181.1008	8	C14H13+
186.128	10	C13H16N+
187.0758	8	C12H11O2+
189.0555	39	C11H9O3+
189.0698	13	C15H9+
190.0599	6	C10[13]CH9O3+
190.0784	25	C15H10+
191.0865	99	C15H11+
192.0911	19	C14[13]CH11+
193.1019	66	C15H13+
194.0738	7	C14H10O+
194.1061	8	C14[13]CH13+
195.0813	8	C14H11O+
202.0785	30	C16H10+
203.0863	89	C16H11+
204.0945	179	C16H12+
205.0661	34	C15H9O+
205.1015	105	C16H13+
206.0735	34	C15H10O+
206.1064	20	C15[13]CH13+
207.0815	113	C15H11O+
208.0875	27	C14[13]CH11O+
209.0967	8	C15H13O+
214.0802	7	C17H10+
215.0865	78	C17H11+
216.0925	28	C17H12+
217.1022	44	C17H13+
218.0734	42	C16H10O+
218.1079	14	C16[13]CH13+
219.0815	219	C16H11O+
219.1181	181	C17H15+
220.0865	36	C15[13]CH11O+
220.1215	29	C16[13]CH15+
221.0972	210	C16H13O+
222.1005	32	C16H14O+
223.077	15	C15H11O2+
223.1107	5	C15[13]CH14O+
225.0924	8	C15H13O2+
227.0869	9	C18H11+
228.0941	50	C18H12+
229.1027	412	C18H13+
230.1063	78	C18H14+
231.0818	123	C17H11O+
231.1159	7	C17[13]CH14+
232.0898	571	C17H12O+
233.0958	184	C17H13O+
234.1046	135	C17H14O+
235.1086	24	C16[13]CH14O+
239.0722	5	C18H9N+
245.0973	21	C18H13O+
246.1039	22	C18H14O+
247.1136	891	C18H15O+
248.1167	147	C18H16O+
249.0926	5	C17H13O2+
249.1221	13	C17[13]CH16O+
252.0794	95	C19H10N+
253.0869	83	C16H13O3+
254.0895	13	C15[13]CH13O3+
257.1007	7	C15H15NO3+
265.0871	12	C17H13O3+
275.1091	5	C19H15O2+
278.0956	9	C21H12N+
293.119	32	C19H17O3+
294.1226	6	C18[13]CH17O3+
338.177	40	C21H24NO3+
339.1786	9	C20[13]CH24NO3+
