Mass spectrum: Sulfadiazine; LC-ESI-QTOF; MS2; CE: 40 eV; R=35000; [M+H]+
Name: Sulfadiazine
Name: 4-amino-n-pyrimidin-2-ylbenzenesulfonamide
Formula: C10H10N4O2S
Exact mass: 250.0524466
SMILES: c1cnc(nc1)NS(=O)(=O)c2ccc(cc2)N
InChI: InChI=1S/C10H10N4O2S/c11-8-2-4-9(5-3-8)17(15,16)14-10-12-6-1-7-13-10/h1-7H,11H2,(H,12,13,14)
Instrument: Bruker maXis Impact
Instrument type: LC-ESI-QTOF
Ms type: MS2
Ion mode: POSITIVE
Ionization: ESI
Fragmentation mode: CID
Collision energy: 40 eV
Resolution: 35000
Column name: Acclaim RSLC C18 2.2um, 2.1x100mm, Thermo
Retention time: 3.4 min
Base peak: 251.0598
Precursor m/z: 251.0597
Precursor type: [M+H]+
m/z	relative intensity	assigned
156.0113	870	C6H6NO2S+
185.0824	999	C10H9N4+
