Mass spectrum: N4-Acetylsulfadimethoxine; LC-ESI-QTOF; MS2; CE: 30 eV; R=35000; [M+H]+
Name: N4-Acetylsulfadimethoxine
Name: N(4)-Acetylsulfadimethoxine
Name: N-[4-[(4,6-dimethoxypyrimidin-2-yl)sulfamoyl]phenyl]acetamide
Formula: C14H16N4O5S
Exact mass: 352.0841406
SMILES: COC1=CC(OC)=NC(NS(=O)(=O)C2=CC=C(NC(C)=O)C=C2)=N1
InChI: InChI=1S/C14H16N4O5S/c1-9(19)15-10-4-6-11(7-5-10)24(20,21)18-14-16-12(22-2)8-13(17-14)23-3/h4-8H,1-3H3,(H,15,19)(H,16,17,18)
Instrument: Bruker maXis Impact
Instrument type: LC-ESI-QTOF
Ms type: MS2
Ion mode: POSITIVE
Ionization: ESI
Fragmentation mode: CID
Collision energy: 30 eV
Resolution: 35000
Column name: Acclaim RSLC C18 2.2um, 2.1x100mm, Thermo
Retention time: 6.0 min
Base peak: 242.2834
Precursor m/z: 353.0914
Precursor type: [M+H]+
m/z	relative intensity	assigned
125.0572	105	C5H7N3O+
126.0651	93	C5H8N3O+
127.0494	72	C5H7N2O2+
134.0588	784	C6H6N4+
135.0623	92	C3H9N3O3+
136.0736	23	C5H12O4+
140.0451	51	C5H6N3O2+
148.0746	58	C7H8N4+
150.0541	98	H12N3O4S+
154.0598	643	C3H10N2O5+
155.0676	821	C6H9N3O2+
156.0093	80	C3H8O5S+
156.0755	999	C6H10N3O2+
157.0472	29	C5H7N3O3+
157.078	74	C4H15NO3S+
159.0556	34	C9H7N2O+
162.0644	107	C5H10N2O4+
164.069	94	C7H8N4O+
170.0547	52	C6H8N3O3+
173.0585	31	C9H7N3O+
176.0821	27	C9H10N3O+
198.0208	625	C6H6N4O2S+
212.0355	66	C7H8N4O2S+
215.0692	98	C11H9N3O2+
218.0221	222	C12H2N4O+
230.0778	40	C8H12N3O5+
236.0322	51	C12H4N4O2+
245.1028	67	C12H13N4O2+
257.1012	60	C10H15N3O5+
272.0879	45	C13H12N4O3+
287.1137	461	C14H15N4O3+
288.1167	102	C13[13]CH15N4O3+
321.0671	97	C13H13N4O4S+
353.0908	707	C14H17N4O5S+
