Mass spectrum: Lauric isopropanolamide; LC-ESI-QTOF; MS2; CE: 20 eV; R=35000; [M-H]-
Name: Lauric isopropanolamide
Name: Dodecanamide, N-(2-hydroxypropyl)-
Name: N-(2-hydroxypropyl)dodecanamide
Formula: C15H31NO2
Exact mass: 257.2354792
SMILES: CCCCCCCCCCCC(=O)NCC(C)O
InChI: InChI=1S/C15H31NO2/c1-3-4-5-6-7-8-9-10-11-12-15(18)16-13-14(2)17/h14,17H,3-13H2,1-2H3,(H,16,18)
Instrument: Bruker maXis Impact
Instrument type: LC-ESI-QTOF
Ms type: MS2
Ion mode: NEGATIVE
Ionization: ESI
Fragmentation mode: CID
Collision energy: 20 eV
Resolution: 35000
Column name: Acclaim RSLC C18 2.2um, 2.1x100mm, Thermo
Retention time: 12.062 min
Base peak: 256.2265
Precursor m/z: 256.2282
Precursor type: [M-H]-
m/z	relative intensity	assigned
198.1836	402	C12H24NO-
212.2	705	C13H26NO-
238.2158	487	C15H28NO-
239.2212	296	C15H29NO-
240.196	612	C14H26NO2-
241.2007	228	C14H27NO2-
254.2111	999	C15H28NO2-
255.2154	285	C15H29NO2-
256.2287	394	C15H30NO2-
