Mass spectrum: Ziprasidone; LC-ESI-QTOF; MS2; CE: 50 eV; R=35000; [M+H]+
Name: Ziprasidone
Name: 5-[2-[4-(1,2-benzothiazol-3-yl)piperazin-1-yl]ethyl]-6-chloro-1,3-dihydroindol-2-one
Formula: C21H21ClN4OS
Exact mass: 412.1124600
SMILES: ClC1=C(CCN2CCN(CC2)C2=NSC3=CC=CC=C23)C=C2CC(=O)NC2=C1
InChI: InChI=1S/C21H21ClN4OS/c22-17-13-18-15(12-20(27)23-18)11-14(17)5-6-25-7-9-26(10-8-25)21-16-3-1-2-4-19(16)28-24-21/h1-4,11,13H,5-10,12H2,(H,23,27)
Instrument: Bruker maXis Impact
Instrument type: LC-ESI-QTOF
Ms type: MS2
Ion mode: POSITIVE
Ionization: ESI
Fragmentation mode: CID
Collision energy: 50 eV
Resolution: 35000
Column name: Acclaim RSLC C18 2.2um, 2.1x100mm, Thermo
Retention time: 7.192 min
Base peak: 413.1194
Precursor m/z: 413.1197
Precursor type: [M+H]+
m/z	relative intensity	assigned
130.064	138	C9H8N+
131.0716	129	C9H9N+
132.0755	11	C8[13]CH9N+
134.0047	5	C7H4NS+
136.0205	13	C7H6NS+
139.0299	24	C8H8Cl+
141.0266	7	C8H8[37]Cl+
149.015	6	C9H6Cl+
150.0355	12	C11H4N+
151.0157	5	C9HN3+
151.0295	12	C10H3N2+
158.0585	79	C8H6N4+
159.0667	553	C8H7N4+
160.0204	5	C9H6NS+
160.0696	59	C7[13]CH7N4+
166.0407	463	C9H9ClN+
167.0438	50	C8[13]CH9ClN+
168.0375	125	C9H9[37]ClN+
169.0415	8	C9H10ClO+
175.0311	5	C11H8Cl+
177.0468	187	C9H9N2S+
178.0492	19	C8[13]CH9N2S+
179.044	6	C9H9N2[34]S+
191.1166	79	C11H15N2O+
192.1208	12	C10[13]CH15N2O+
194.0358	999	C8H7ClN4+
195.0386	101	C7[13]CH7ClN4+
196.0329	252	C8H7[37]ClN4+
197.0353	19	C8H8ClN3O+
203.0621	12	C13H12Cl+
205.0781	7	C13H14Cl+
217.0662	9	C11H11N3S+
220.0901	13	C11H14N3S+
