Mass spectrum: Diphenhydramine; LC-ESI-QTOF; MS2; CE: 40 eV; R=35000; [M+H]+
Name: Diphenhydramine
Name: 2-benzhydryloxy-N,N-dimethylethanamine
Formula: C17H21NO
Exact mass: 255.1623143
SMILES: CN(C)CCOC(C1=CC=CC=C1)C1=CC=CC=C1
InChI: InChI=1S/C17H21NO/c1-18(2)13-14-19-17(15-9-5-3-6-10-15)16-11-7-4-8-12-16/h3-12,17H,13-14H2,1-2H3
Instrument: Bruker maXis Impact
Instrument type: LC-ESI-QTOF
Ms type: MS2
Ion mode: POSITIVE
Ionization: ESI
Fragmentation mode: CID
Collision energy: 40 eV
Resolution: 35000
Column name: Acclaim RSLC C18 2.2um, 2.1x100mm, Thermo
Retention time: 6.469 min
Base peak: 256.1696
Precursor m/z: 256.1696
Precursor type: [M+H]+
m/z	relative intensity	assigned
128.0613	18	C10H8+
141.0691	22	C11H9+
151.0532	15	C12H7+
152.0613	809	C12H8+
153.0647	78	C11[13]CH8+
164.0608	6	C13H8+
165.0691	881	C13H9+
166.076	290	C13H10+
167.0848	999	C13H11+
168.0881	93	C12[13]CH11+
169.0637	21	C12H9O+
