Mass spectrum: Flufenoxuron; LC-ESI-QTOF; MS2; CE: 30 eV; R=35000; [M+H]+
Name: Flufenoxuron
Name: N-[[4-[2-chloro-4-(trifluoromethyl)phenoxy]-2-fluorophenyl]carbamoyl]-2,6-difluorobenzamide
Formula: C21H11ClF6N2O3
Exact mass: 488.0362392
SMILES: FC1=CC(OC2=CC=C(C=C2Cl)C(F)(F)F)=CC=C1NC(=O)NC(=O)C1=C(F)C=CC=C1F
InChI: InChI=1S/C21H11ClF6N2O3/c22-12-8-10(21(26,27)28)4-7-17(12)33-11-5-6-16(15(25)9-11)29-20(32)30-19(31)18-13(23)2-1-3-14(18)24/h1-9H,(H2,29,30,31,32)
Instrument: Bruker maXis Impact
Instrument type: LC-ESI-QTOF
Ms type: MS2
Ion mode: POSITIVE
Ionization: ESI
Fragmentation mode: CID
Collision energy: 30 eV
Resolution: 35000
Column name: Acclaim RSLC C18 2.2um, 2.1x100mm, Thermo
Retention time: 12.824 min
Base peak: 322.1436
Precursor m/z: 489.0435
Precursor type: [M+H]+
m/z	relative intensity	assigned
133.0847	14	C4H12F3O+
140.0304	10	C7H4F2N+
141.0136	288	C10H2F+
142.0163	31	C9[13]CH2F+
158.0399	999	C10H5FN+
159.0437	77	C9[13]CH5FN+
165.0903	10	C8H12F3+
306.0304	26	C13H9ClF4NO+
308.0259	11	C13H8ClF5N+
