Mass spectrum: 17-alpha-Estradiol; LC-ESI-QTOF; MS2; CE: Ramp 20.6-31.0 eV; R=35000; [M+H]+
Name: 17-alpha-Estradiol
Name: Alfatradiol
Name: (8R,9S,13S,14S,17R)-13-methyl-6,7,8,9,11,12,14,15,16,17-decahydrocyclopenta[a]phenanthrene-3,17-diol
Formula: C18H24O2
Exact mass: 272.1776300
SMILES: C[C@]12CC[C@H]3[C@@H](CCC4=C3C=CC(O)=C4)[C@@H]1CC[C@H]2O
InChI: InChI=1S/C18H24O2/c1-18-9-8-14-13-5-3-12(19)10-11(13)2-4-15(14)16(18)6-7-17(18)20/h3,5,10,14-17,19-20H,2,4,6-9H2,1H3/t14-,15-,16+,17-,18+/m1/s1
Instrument: Bruker maXis Impact
Instrument type: LC-ESI-QTOF
Ms type: MS2
Ion mode: POSITIVE
Ionization: ESI
Fragmentation mode: CID
Collision energy: Ramp 20.6-31.0 eV
Resolution: 35000
Column name: Acclaim RSLC C18 2.2um, 2.1x100mm, Thermo
Retention time: 12.033 min
Base peak: 102.1286
Precursor m/z: 273.1849
Precursor type: [M+H]+
m/z	relative intensity	assigned
157.0995	94	C12H13+
175.1123	43	C12H15O+
185.0946	83	C13H13O+
203.1073	44	C13H15O2+
212.1551	100	C16H20+
224.0649	76	C18H8+
225.1273	145	C16H17O+
226.0411	171	C17H6O+
226.1348	89	C16H18O+
227.1805	70	C17H23+
240.1508	249	C17H20O+
241.1561	41	C16[13]CH20O+
255.1738	999	C18H23O+
256.1788	215	C17[13]CH23O+
273.1849	721	C18H25O2+
274.1902	127	C17[13]CH25O2+
