Mass spectrum: 3,3`-Dichlorobenzidine; LC-ESI-QTOF; MS2; CE: 30 eV; R=35000; [M+H]+
Name: 3,3`-Dichlorobenzidine
Formula: C12H10Cl2N2
Exact mass: 252.0221037
SMILES: NC1=CC=C(C=C1Cl)C1=CC=C(N)C(Cl)=C1
InChI: InChI=1S/C12H10Cl2N2/c13-9-5-7(1-3-11(9)15)8-2-4-12(16)10(14)6-8/h1-6H,15-16H2
Instrument: Bruker maXis Impact
Instrument type: LC-ESI-QTOF
Ms type: MS2
Ion mode: POSITIVE
Ionization: ESI
Fragmentation mode: CID
Collision energy: 30 eV
Resolution: 35000
Column name: Acclaim RSLC C18 2.2um, 2.1x100mm, Thermo
Retention time: 8.933 min
Base peak: 244.1901
Precursor m/z: 253.0294
Precursor type: [M+H]+
m/z	relative intensity	assigned
127.016	17	C6H6ClN+
127.0563	10	C10H7+
131.0708	12	C9H9N+
153.0547	11	C11H7N+
154.0632	152	C11H8N+
155.0704	38	C11H9N+
164.0242	13	C9H7ClN+
179.0614	10	C12H7N2+
180.0684	11	C12H8N2+
181.0745	320	C12H9N2+
182.0825	526	C12H10N2+
183.0861	63	C11[13]CH10N2+
188.0237	24	C11H7ClN+
189.0341	20	C11H8ClN+
190.0403	171	C11H9ClN+
191.0442	18	C10[13]CH9ClN+
192.0385	49	C11H9[37]ClN+
200.0237	16	C12H7ClN+
201.0319	22	C12H8ClN+
215.0354	88	C12H8ClN2+
216.0435	113	C12H9ClN2+
217.0326	27	C12H8[37]ClN2+
217.0516	433	C12H10ClN2+
218.0589	180	C12H11ClN2+
219.0483	103	C12H10[37]ClN2+
220.0554	41	C12H11[37]ClN2+
224.0012	184	C11H8Cl2N+
225.0048	20	C10[13]CH8Cl2N+
225.9991	172	C11H8Cl[37]ClN+
234.9908	9	C12H7Cl2N+
251.0135	171	C12H9Cl2N2+
252.0205	999	C12H10Cl2N2+
253.0232	202	C11[13]CH10Cl2N2+
254.0178	602	C12H10Cl[37]ClN2+
