Mass spectrum: Maprotiline; LC-ESI-QTOF; MS2; CE: 10 eV; R=35000; [M+H]+
Name: Maprotiline
Formula: C20H23N
Exact mass: 277.1830497
SMILES: CNCCCC12CCC(c3c1cccc3)c4c2cccc4
InChI: InChI=1S/C20H23N/c1-21-14-6-12-20-13-11-15(16-7-2-4-9-18(16)20)17-8-3-5-10-19(17)20/h2-5,7-10,15,21H,6,11-14H2,1H3
Instrument: Bruker maXis Impact
Instrument type: LC-ESI-QTOF
Ms type: MS2
Ion mode: POSITIVE
Ionization: ESI
Fragmentation mode: CID
Collision energy: 10 eV
Resolution: 35000
Column name: Acclaim RSLC C18 2.2um, 2.1x100mm, Thermo
Retention time: 8.565 min
Base peak: 278.1924
Precursor m/z: 278.1903
Precursor type: [M+H]+
m/z	relative intensity	assigned
250.1601	23	C18H20N+
278.1927	999	C20H24N+
279.1957	177	C19[13]CH24N+
280.1985	14	C18[13]C2H24N+
