Mass spectrum: N-Ethyl-o-toluenesulfonamide; LC-ESI-QTOF; MS2; CE: 20 eV; R=35000; [M+H]+
Name: N-Ethyl-o-toluenesulfonamide
Name: Benzenesulfonamide, N-ethyl-2-methyl-
Name: N-ethyl-2-methylbenzenesulfonamide
Formula: C9H13NO2S
Exact mass: 199.0666997
SMILES: CCNS(=O)(=O)C1=CC=CC=C1C
InChI: InChI=1S/C9H13NO2S/c1-3-10-13(11,12)9-7-5-4-6-8(9)2/h4-7,10H,3H2,1-2H3
Instrument: Bruker maXis Impact
Instrument type: LC-ESI-QTOF
Ms type: MS2
Ion mode: POSITIVE
Ionization: ESI
Fragmentation mode: CID
Collision energy: 20 eV
Resolution: 35000
Column name: Acclaim RSLC C18 2.2um, 2.1x100mm, Thermo
Retention time: 6.639 min
Base peak: 200.0735
Precursor m/z: 200.074
Precursor type: [M+H]+
m/z	relative intensity	assigned
155.0152	999	C7H7O2S+
156.0178	103	C6[13]CH7O2S+
157.0123	56	C7H7O2[34]S+
163.0593	32	C9H9NO2+
