Mass spectrum: 11-Ketotestosterone; LC-ESI-QTOF; MS2; CE: Ramp 21.7-32.5 eV; R=35000; [M+H]+
Name: 11-Ketotestosterone
Name: (8S,9S,10R,13S,14S,17S)-17-hydroxy-10,13-dimethyl-2,6,7,8,9,12,14,15,16,17-decahydro-1H-cyclopenta[a]phenanthrene-3,11-dione
Formula: C19H26O3
Exact mass: 302.1881947
SMILES: C[C@]12CC(=O)[C@H]3[C@@H](CCC4=CC(=O)CC[C@]34C)[C@@H]1CC[C@@H]2O
InChI: InChI=1S/C19H26O3/c1-18-8-7-12(20)9-11(18)3-4-13-14-5-6-16(22)19(14,2)10-15(21)17(13)18/h9,13-14,16-17,22H,3-8,10H2,1-2H3/t13-,14-,16-,17+,18-,19-/m0/s1
Instrument: Bruker maXis Impact
Instrument type: LC-ESI-QTOF
Ms type: MS2
Ion mode: POSITIVE
Ionization: ESI
Fragmentation mode: CID
Collision energy: Ramp 21.7-32.5 eV
Resolution: 35000
Column name: Acclaim RSLC C18 2.2um, 2.1x100mm, Thermo
Retention time: 7.900 min
Base peak: 303.1954
Precursor m/z: 303.1955
Precursor type: [M+H]+
m/z	relative intensity	assigned
55.0177	5	C3H3O+
55.0538	8	C4H7+
67.0537	12	C5H7+
69.0329	7	C4H5O+
69.069	12	C5H9+
71.0485	5	C4H7O+
79.0527	9	C6H7+
81.0693	25	C6H9+
83.0486	12	C5H7O+
91.0543	7	C7H7+
93.0703	19	C7H9+
95.0857	15	C7H11+
97.0653	20	C6H9O+
105.0702	10	C8H9+
107.0853	13	C8H11+
111.0802	6	C7H11O+
119.0847	25	C9H11+
121.0638	225	C8H9O+
121.1003	12	C9H13+
122.0669	20	C7[13]CH9O+
123.079	31	C8H11O+
129.0685	8	C10H9+
131.0839	48	C10H11+
133.063	8	C9H9O+
133.1001	43	C10H13+
135.0792	30	C9H11O+
135.1154	8	C10H15+
137.0946	22	C9H13O+
143.084	27	C11H11+
145.0629	7	C10H9O+
145.0996	64	C11H13+
146.1035	9	C10[13]CH13+
147.0788	75	C10H11O+
147.116	15	C11H15+
148.0826	10	C9[13]CH11O+
149.0944	22	C10H13O+
151.1105	14	C10H15O+
155.0838	14	C12H11+
157.0995	29	C12H13+
159.0789	23	C11H11O+
159.1152	39	C12H15+
160.1202	6	C11[13]CH15+
161.0944	38	C11H13O+
161.1316	9	C12H17+
163.1101	51	C11H15O+
164.1147	6	C10[13]CH15O+
167.1052	19	C10H15O2+
169.0993	20	C13H13+
171.0789	26	C12H11O+
171.1146	33	C13H15+
172.0823	5	C11[13]CH11O+
172.1179	7	C12[13]CH15+
173.0945	49	C12H13O+
173.1315	6	C13H17+
175.1103	23	C12H15O+
177.1255	16	C12H17O+
181.0998	11	C14H13+
183.1155	32	C14H15+
184.1191	5	C13[13]CH15+
185.0947	15	C13H13O+
185.1308	30	C14H17+
186.1004	5	C13H14O+
186.1356	5	C13[13]CH17+
187.1098	18	C13H15O+
188.1188	5	C13H16O+
189.1257	44	C13H17O+
190.128	5	C12[13]CH17O+
191.1076	5	C12H15O2+
193.0988	6	C15H13+
193.1209	10	C12H17O2+
195.1156	12	C15H15+
197.0931	9	C14H13O+
197.1303	25	C15H17+
199.1107	15	C14H15O+
199.1462	22	C15H19+
201.1257	33	C14H17O+
202.1302	7	C13[13]CH17O+
203.142	17	C14H19O+
207.1152	9	C16H15+
207.135	5	C13H19O2+
209.1311	19	C16H17+
211.1093	16	C15H15O+
211.1464	7	C16H19+
212.1168	8	C15H16O+
213.1255	30	C15H17O+
213.1626	10	C16H21+
215.1425	8	C15H19O+
221.1322	6	C17H17+
221.1519	11	C14H21O2+
223.1476	39	C17H19+
224.1518	8	C16[13]CH19+
225.1264	11	C16H17O+
225.1624	28	C17H21+
226.1329	9	C16H18O+
226.166	9	C17H22+
227.1413	61	C16H19O+
228.1446	12	C15[13]CH19O+
229.1575	7	C16H21O+
233.152	7	C15H21O2+
239.1425	12	C17H19O+
239.1775	19	C18H23+
240.1831	7	C18H24+
241.1572	117	C17H21O+
242.1616	27	C16[13]CH21O+
243.1722	43	C17H23O+
244.1449	11	C16H20O2+
244.1776	7	C16[13]CH23O+
245.152	32	C16H21O2+
246.1544	6	C15[13]CH21O2+
249.162	23	C19H21+
250.1664	5	C18[13]CH21+
257.1882	19	C18H25O+
259.1682	282	C17H23O2+
260.171	50	C16[13]CH23O2+
261.1803	5	C15[13]C2H23O2+
267.1727	131	C19H23O+
268.176	37	C18[13]CH23O+
285.1837	126	C19H25O2+
286.1868	26	C18[13]CH25O2+
303.1951	999	C19H27O3+
304.1972	267	C18[13]CH27O3+
305.2009	29	C17[13]C2H27O3+
