Mass spectrum: Clonidine; LC-ESI-QTOF; MS2; CE: 40 eV; R=35000; [M+H]+
Name: Clonidine
Name: N-(2,6-dichlorophenyl)-4,5-dihydro-1H-imidazol-2-amine
Formula: C9H9Cl2N3
Exact mass: 229.0173526
SMILES: ClC1=CC=CC(Cl)=C1NC1=NCCN1
InChI: InChI=1S/C9H9Cl2N3/c10-6-2-1-3-7(11)8(6)14-9-12-4-5-13-9/h1-3H,4-5H2,(H2,12,13,14)
Instrument: Bruker maXis Impact
Instrument type: LC-ESI-QTOF
Ms type: MS2
Ion mode: POSITIVE
Ionization: ESI
Fragmentation mode: CID
Collision energy: 40 eV
Resolution: 35000
Column name: Acclaim RSLC C18 2.2um, 2.1x100mm, Thermo
Retention time: 3.734 min
Base peak: 230.0242
Precursor m/z: 230.0246
Precursor type: [M+H]+
m/z	relative intensity	assigned
108.9825	5	C6H2Cl+
114.0326	6	C8H4N+
115.0285	8	C7H3N2+
116.0374	8	C7H4N2+
116.0496	9	C8H6N+
117.0444	9	C7H5N2+
117.0562	13	C8H7N+
118.0517	24	C7H6N2+
119.0594	24	C7H7N2+
120.9598	5	C4H3Cl2+
122.9985	13	C7H4Cl+
123.994	399	C6H3ClN+
125.0004	72	C6H4ClN+
125.991	100	C6H3[37]ClN+
126.0096	38	C6H5ClN+
126.9979	21	C6H4[37]ClN+
127.0172	29	C6H6ClN+
128.0038	11	C3H8Cl2N+
129.0155	8	C6H6[37]ClN+
129.0439	11	C8H5N2+
130.0388	8	C7H4N3+
130.0519	9	C8H6N2+
131.0594	142	C8H7N2+
132.0671	120	C8H8N2+
132.9597	410	C5H3Cl2+
133.0624	54	C7H7N3+
133.9628	18	C4[13]CH3Cl2+
134.9566	208	C5H3Cl[37]Cl+
135.9606	11	C3H2Cl2N2+
135.9943	46	C7H3ClN+
137.0006	15	C7H4ClN+
137.9922	15	C7H3[37]ClN+
138.0093	94	C7H5ClN+
139.0047	39	C6H4ClN2+
140.0068	20	C7H5[37]ClN+
140.0253	37	C7H7ClN+
141.0019	12	C6H4[37]ClN2+
141.0199	15	C6H6ClN2+
141.0445	5	C9H5N2+
142.0042	29	C3H8Cl2N2+
142.0224	12	C7H7[37]ClN+
142.0523	13	C9H6N2+
144.0031	8	C3H8Cl[37]ClN2+
144.055	9	C8H6N3+
144.9591	87	C6H3Cl2+
145.9662	22	C6H4Cl2+
146.956	52	C6H3Cl[37]Cl+
147.9639	11	C6H4Cl[37]Cl+
149.9967	13	C7H3ClN2+
150.009	28	C9N3+
151.0168	312	C9HN3+
152.0123	205	C7H5ClN2+
153.019	221	C7H6ClN2+
154.0073	71	C4H8Cl2N2+
155.0018	12	C3H7Cl2N3+
155.0173	45	C7H6[37]ClN2+
157.0621	15	C9H7N3+
158.07	220	C9H8N3+
158.9746	64	C8ClN2+
159.0775	236	C9H9N3+
159.9702	999	C6H4Cl2N+
160.0854	302	C9H10N3+
160.9753	152	C7ClN3+
161.0886	26	C8[13]CH10N3+
161.9673	623	C6H4Cl[37]ClN+
161.9839	40	C6H6Cl2N+
162.9728	105	C4H3Cl2N3+
163.0045	5	C8H4ClN2+
163.9823	24	C6H6Cl[37]ClN+
163.9995	349	C7H3ClN3+
164.9675	26	C4H3Cl[37]ClN3+
165.0021	32	C6[13]CH3ClN3+
165.0207	51	C8H6ClN2+
165.9969	79	C7H3[37]ClN3+
166.016	72	C7H5ClN3+
166.0254	49	C8H7ClN2+
166.9996	7	C4H7Cl2N3+
167.0354	38	C8H8ClN2+
168.0135	16	C7H5[37]ClN3+
168.0299	28	C7H7ClN3+
169.019	6	C4H9Cl2N3+
169.0339	14	C8H8[37]ClN2+
170.0286	5	C7H7[37]ClN3+
170.9617	27	C7H3Cl2N+
171.9701	586	C7H4Cl2N+
172.9656	480	C6H3Cl2N2+
173.9675	358	C7H4Cl[37]ClN+
173.9854	20	C7H6Cl2N+
174.9629	271	C6H3Cl[37]ClN2+
175.9843	9	C7H6Cl[37]ClN+
177.0215	13	C9H6ClN2+
178.0278	32	C9H7ClN2+
179.0108	8	C6H9Cl2N2+
179.0209	6	C9H6[37]ClN2+
180.0242	6	C9H7[37]ClN2+
184.9656	262	C7H3Cl2N2+
185.986	295	C8H6Cl2N+
186.9628	143	C7H3Cl[37]ClN2+
186.9814	707	C7H5Cl2N2+
187.9836	260	C8H6Cl[37]ClN+
188.9782	407	C7H5Cl[37]ClN2+
192.0307	7	C9H7ClN3+
194.0468	481	C9H9ClN3+
195.0521	76	C8[13]CH9ClN3+
196.0443	127	C9H9[37]ClN3+
200.9964	11	C8H7Cl2N2+
202.995	9	C8H7Cl[37]ClN2+
210.981	15	C9H5Cl2N2+
212.9971	956	C9H7Cl2N2+
213.9999	88	C8[13]CH7Cl2N2+
214.9943	525	C9H7Cl[37]ClN2+
228.008	17	C9H8Cl2N3+
230.0238	993	C9H10Cl2N3+
231.0264	112	C8[13]CH10Cl2N3+
232.0206	666	C9H10Cl[37]ClN3+
