Mass spectrum: Corticosterone; LC-ESI-QTOF; MS2; CE: 50 eV; R=35000; [M+H]+
Name: Corticosterone
Name: (8S,9S,10R,11S,13S,14S,17S)-11-hydroxy-17-(2-hydroxyacetyl)-10,13-dimethyl-1,2,6,7,8,9,11,12,14,15,16,17-dodecahydrocyclopenta[a]phenanthren-3-one
Formula: C21H30O4
Exact mass: 346.2144094
SMILES: C[C@]12CCC(=O)C=C1CC[C@@H]3[C@@H]2[C@H](C[C@]4([C@H]3CC[C@@H]4C(=O)CO)C)O
InChI: InChI=1S/C21H30O4/c1-20-8-7-13(23)9-12(20)3-4-14-15-5-6-16(18(25)11-22)21(15,2)10-17(24)19(14)20/h9,14-17,19,22,24H,3-8,10-11H2,1-2H3/t14-,15-,16+,17-,19+,20-,21-/m0/s1
Instrument: Bruker maXis Impact
Instrument type: LC-ESI-QTOF
Ms type: MS2
Ion mode: POSITIVE
Ionization: ESI
Fragmentation mode: CID
Collision energy: 50 eV
Resolution: 35000
Column name: Acclaim RSLC C18 2.2um, 2.1x100mm, Thermo
Retention time: 8.650 min
Base peak: 347.2241
Precursor m/z: 347.2217
Precursor type: [M+H]+
m/z	relative intensity	assigned
115.0554	281	C9H7+
116.0598	96	C9H8+
117.0699	272	C9H9+
119.0857	430	C9H11+
121.0652	999	C8H9O+
121.1005	133	C9H13+
123.0806	476	C8H11O+
128.0624	526	C10H8+
129.0702	580	C10H9+
130.0776	205	C10H10+
131.0507	40	C9H7O+
131.0859	651	C10H11+
132.0577	33	C9H8O+
133.0638	122	C9H9O+
133.1018	445	C10H13+
134.072	43	C9H10O+
135.0812	204	C9H11O+
135.1177	51	C10H15+
137.0972	35	C9H13O+
141.07	358	C11H9+
142.078	394	C11H10+
143.0856	644	C11H11+
144.0922	139	C11H12+
145.0649	144	C10H9O+
145.1013	703	C11H13+
146.0727	85	C10H10O+
147.081	317	C10H11O+
147.1164	271	C11H15+
148.0892	145	C10H12O+
148.1225	35	C11H16+
149.0971	160	C10H13O+
153.0694	126	C12H9+
154.0768	107	C12H10+
155.0861	427	C12H11+
156.094	341	C12H12+
157.1009	437	C12H13+
158.0742	47	C11H10O+
158.1064	130	C12H14+
159.0812	199	C11H11O+
159.1166	368	C12H15+
160.09	56	C11H12O+
160.1226	60	C12H16+
161.0961	201	C11H13O+
161.1339	61	C12H17+
163.1123	577	C11H15O+
164.1162	48	C11H16O+
165.0702	122	C13H9+
166.0775	81	C13H10+
167.0854	188	C13H11+
168.093	156	C13H12+
169.1013	318	C13H13+
170.1074	133	C13H14+
171.0814	85	C12H11O+
171.1174	411	C13H15+
172.0876	48	C12H12O+
172.1229	33	C13H16+
173.0965	182	C12H13O+
173.1329	142	C13H17+
174.1046	78	C12H14O+
175.1132	166	C12H15O+
178.08	51	C14H10+
179.0851	159	C14H11+
180.094	86	C14H12+
181.1025	217	C14H13+
182.1081	123	C14H14+
183.1176	191	C14H15+
184.122	44	C14H16+
185.0954	62	C13H13O+
185.1347	122	C14H17+
186.1397	63	C14H18+
187.1124	81	C13H15O+
187.1488	60	C14H19+
188.1194	49	C13H16O+
189.1281	138	C13H17O+
191.085	35	C15H11+
192.0922	47	C15H12+
193.1007	115	C15H13+
194.1096	83	C15H14+
195.1174	167	C15H15+
196.1257	90	C15H16+
197.1003	55	C14H13O+
197.1343	177	C15H17+
199.1128	59	C14H15O+
199.1468	59	C15H19+
201.1288	49	C14H17O+
205.1003	55	C16H13+
206.1096	43	C16H14+
207.1187	85	C16H15+
208.1224	44	C16H16+
209.1332	92	C16H17+
210.1416	44	C16H18+
211.1136	49	C15H15O+
211.1486	84	C16H19+
212.1211	42	C15H16O+
213.1273	64	C15H17O+
214.1362	59	C15H18O+
219.1186	41	C17H15+
221.1324	66	C17H17+
222.142	40	C17H18+
223.147	94	C17H19+
224.1201	35	C16H16O+
227.1436	53	C16H19O+
228.1512	54	C16H20O+
240.1514	34	C17H20O+
283.1712	39	C19H23O2+
299.1647	51	C19H23O3+
