Mass spectrum: Norfloxacin; LC-ESI-QTOF; MS2; CE: 30 eV; R=35000; [M+H]+
Name: Norfloxacin
Name: 1-ethyl-6-fluoro-4-oxo-7-piperazin-1-ylquinoline-3-carboxylic acid
Formula: C16H18FN3O3
Exact mass: 319.1332197
SMILES: CCN1C=C(C(O)=O)C(=O)C2=CC(F)=C(C=C12)N1CCNCC1
InChI: InChI=1S/C16H18FN3O3/c1-2-19-9-11(16(22)23)15(21)10-7-12(17)14(8-13(10)19)20-5-3-18-4-6-20/h7-9,18H,2-6H2,1H3,(H,22,23)
Instrument: Bruker maXis Impact
Instrument type: LC-ESI-QTOF
Ms type: MS2
Ion mode: POSITIVE
Ionization: ESI
Fragmentation mode: CID
Collision energy: 30 eV
Resolution: 35000
Column name: Acclaim RSLC C18 2.2um, 2.1x100mm, Thermo
Retention time: 4.304 min
Base peak: 362.1514
Precursor m/z: 320.1405
Precursor type: [M+H]+
m/z	relative intensity	assigned
203.0604	6	C14H7N2+
204.0675	6	C14H8N2+
205.0769	12	C11H10FN2O+
207.0919	7	C14H11N2+
219.092	14	C15H11N2+
231.0564	26	C12H8FN2O2+
233.1078	77	C16H13N2+
234.1116	13	C15[13]CH13N2+
256.1452	16	C12H19FN3O2+
272.101	6	C14H14N3O3+
274.1007	5	C16H15FO3+
274.1333	5	C15H17FN3O+
276.1504	35	C15H19FN3O+
277.1551	7	C14[13]CH19FN3O+
282.1235	16	C16H16N3O2+
292.1082	5	C14H15FN3O3+
300.1344	53	C16H18N3O3+
301.1371	9	C15[13]CH18N3O3+
302.1302	214	C16H17FN3O2+
303.1325	37	C15[13]CH17FN3O2+
320.1406	999	C16H19FN3O3+
321.1437	170	C15[13]CH19FN3O3+
322.1447	19	C14[13]C2H19FN3O3+
