Mass spectrum: Vinyltriethoxysilane; GC-APCI-QTOF; MS2; CE: 50 eV; R=35000; [M+H]+
Name: Vinyltriethoxysilane
Formula: C8H18O3Si
Exact mass: 190.1025
SMILES: CCO[Si](C=C)(OCC)OCC
InChI: InChI=1S/C8H18O3Si/c1-5-9-12(8-4,10-6-2)11-7-3/h8H,4-7H2,1-3H3
Instrument: Bruker 450 GC coupled to maXis Impact
Instrument type: GC-APCI-QTOF
Ms type: MS2
Ion mode: POSITIVE
Ionization: APCI
Fragmentation mode: CID
Collision energy: 50 eV
Resolution: 35000
Column name: Rxi-5Sil MS column, 30m, 0.25mm i.d., 0.25Âµm film thickness, Restek
Retention time: 6.800 min
Base peak: 163.0805
Precursor m/z: 191.1098
Precursor type: [M+H]+
m/z	relative intensity	assigned
46.9959	476	H3OSi+
62.99	999	H3O2Si+
80.9992	940	H5O3Si+
99.0093	206	C4H3O3+
