Mass spectrum: Atrazine; LC-ESI-QTOF; MS2; CE: Ramp 18.6-27.9 eV; R=35000; [M+H]+
Name: Atrazine
Name: 6-chloro-4-N-ethyl-2-N-propan-2-yl-1,3,5-triazine-2,4-diamine
Formula: C8H14ClN5
Exact mass: 215.0937731
SMILES: CCNC1=NC(NC(C)C)=NC(Cl)=N1
InChI: InChI=1S/C8H14ClN5/c1-4-10-7-12-6(9)13-8(14-7)11-5(2)3/h5H,4H2,1-3H3,(H2,10,11,12,13,14)
Instrument: Bruker maXis Impact
Instrument type: LC-ESI-QTOF
Ms type: MS2
Ion mode: POSITIVE
Ionization: ESI
Fragmentation mode: CID
Collision energy: Ramp 18.6-27.9 eV
Resolution: 35000
Column name: Acclaim RSLC C18 2.2um, 2.1x100mm, Thermo
Retention time: 8.165 min
Base peak: 278.1058
Precursor m/z: 216.101
Precursor type: [M+H]+
m/z	relative intensity	assigned
46.0652	5	C2H8N+
61.9784	5	CHClN+
68.024	135	C2H2N3+
71.06	81	C3H7N2+
72.0441	84	ClH9N2+
79.0057	179	CH4ClN2+
81.0026	40	CH4[37]ClN2+
85.076	7	C4H9N2+
90.0103	7	C3H5ClN+
96.0561	300	C4H6N3+
97.0594	7	C3[13]CH6N3+
104.0023	155	C2H3ClN3+
105.9995	33	C2H3[37]ClN3+
110.0475	11	C2H9ClN3+
132.0327	117	C4H7ClN3+
134.0296	30	C4H7[37]ClN3+
138.0774	52	C5H8N5+
138.1028	18	C7H12N3+
146.0228	113	C3H5ClN5+
146.0486	11	C5H9ClN3+
148.0197	25	C3H5[37]ClN5+
174.0541	999	C5H9ClN5+
175.0565	51	C4[13]CH9ClN5+
176.0513	264	C5H9[37]ClN5+
180.1248	7	C8H14N5+
188.0689	6	C6H11ClN5+
216.1014	843	C8H15ClN5+
217.1039	73	C7[13]CH15ClN5+
218.0987	213	C8H15[37]ClN5+
