Mass spectrum: Oseltamivir; LC-ESI-QTOF; MS2; CE: 10 eV; R=35000; [M+H]+
Name: Oseltamivir
Name: ethyl (3R,4R,5S)-4-acetamido-5-amino-3-pentan-3-yloxycyclohexene-1-carboxylate
Formula: C16H28N2O4
Exact mass: 312.2049074
SMILES: CCOC(=O)C1=C[C@@H](OC(CC)CC)[C@H](NC(C)=O)[C@@H](N)C1
InChI: InChI=1S/C16H28N2O4/c1-5-12(6-2)22-14-9-11(16(20)21-7-3)8-13(17)15(14)18-10(4)19/h9,12-15H,5-8,17H2,1-4H3,(H,18,19)/t13-,14+,15+/m0/s1
Instrument: Bruker maXis Impact
Instrument type: LC-ESI-QTOF
Ms type: MS2
Ion mode: POSITIVE
Ionization: ESI
Fragmentation mode: CID
Collision energy: 10 eV
Resolution: 35000
Column name: Acclaim RSLC C18 2.2um, 2.1x100mm, Thermo
Retention time: 6.9 min
Base peak: 313.2129
Precursor m/z: 313.2122
Precursor type: [M+H]+
m/z	relative intensity	assigned
120.0435	12	C7H6NO+
136.0748	10	C8H10NO+
137.0713	7	C7H9N2O+
140.0701	6	C7H10NO2+
162.0536	8	C9H8NO2+
166.0856	253	C9H12NO2+
167.0887	28	C8[13]CH12NO2+
179.0807	24	C9H11N2O2+
180.0649	7	C9H10NO3+
208.0967	465	C11H14NO3+
209.0992	63	C10[13]CH14NO3+
210.102	5	C14[13]CH13O+
225.1234	999	C11H17N2O3+
226.1076	25	C11H16NO4+
226.1264	119	C10[13]CH17N2O3+
227.1288	10	C9[13]C2H17N2O3+
243.1338	159	C11H19N2O4+
244.1377	21	C10[13]CH19N2O4+
296.1862	77	C16H26NO4+
297.1893	14	C15[13]CH26NO4+
313.2125	678	C16H29N2O4+
314.2153	126	C15[13]CH29N2O4+
315.2184	13	C14[13]C2H29N2O4+
