Mass spectrum: Trimethylolpropane trimethacrylate; GC-APCI-QTOF; MS2; CE: 20 eV; R=35000; [M+H]+
Name: Trimethylolpropane trimethacrylate
Formula: C18H26O6
Exact mass: 338.1729
SMILES: CCC(COC(=O)C(=C)C)(COC(=O)C(=C)C)COC(=O)C(=C)C
InChI: InChI=1S/C18H26O6/c1-8-18(9-22-15(19)12(2)3,10-23-16(20)13(4)5)11-24-17(21)14(6)7/h2,4,6,8-11H2,1,3,5,7H3
Instrument: Bruker 450 GC coupled to maXis Impact
Instrument type: GC-APCI-QTOF
Ms type: MS2
Ion mode: POSITIVE
Ionization: APCI
Fragmentation mode: CID
Collision energy: 20 eV
Resolution: 35000
Column name: Rxi-5Sil MS column, 30m, 0.25mm i.d., 0.25Âµm film thickness, Restek
Retention time: 23.657 min
Base peak: 283.263
Precursor m/z: 339.1802
Precursor type: [M+H]+
m/z	relative intensity	assigned
119.0843	222	C9H11+
121.1014	965	C9H13+
123.1169	404	C9H15+
125.0951	288	C8H13O+
129.0553	999	C6H9O3+
133.1011	305	C10H13+
135.1168	767	C10H15+
137.0938	214	C9H13O+
137.1327	569	C10H17+
139.112	297	C9H15O+
147.1181	503	C11H15+
149.1329	776	C11H17+
151.1473	214	C11H19+
153.1265	396	C10H17O+
161.1408	206	C5H21O5+
163.1494	462	C12H19+
165.1682	206	C5H25O5+
171.1025	231	C9H15O3+
175.1501	363	C13H19+
177.1644	255	C13H21+
185.1164	503	C10H17O3+
191.1782	462	C14H23+
195.1764	247	C13H23O+
197.1195	255	C11H17O3+
225.1514	305	C13H21O3+
225.1752	272	C10H25O5+
241.1792	206	C14H25O3+
253.183	206	C15H25O3+
267.2019	255	C16H27O3+
