Mass spectrum: Gemcitabine; LC-ESI-QTOF; MS2; CE: 10 eV; R=35000; [M+H]+
Name: Gemcitabine
Name: 4-amino-1-[(2R,4R,5R)-3,3-difluoro-4-hydroxy-5-(hydroxymethyl)oxolan-2-yl]pyrimidin-2-one
Formula: C9H11F2N3O4
Exact mass: 263.0717623
SMILES: NC1=NC(=O)N(C=C1)[C@@H]1O[C@H](CO)[C@@H](O)C1(F)F
InChI: InChI=1S/C9H11F2N3O4/c10-9(11)6(16)4(3-15)18-7(9)14-2-1-5(12)13-8(14)17/h1-2,4,6-7,15-16H,3H2,(H2,12,13,17)/t4-,6-,7-/m1/s1
Instrument: Bruker maXis Impact
Instrument type: LC-ESI-QTOF
Ms type: MS2
Ion mode: POSITIVE
Ionization: ESI
Fragmentation mode: CID
Collision energy: 10 eV
Resolution: 35000
Column name: Acclaim RSLC C18 2.2um, 2.1x100mm, Thermo
Retention time: 2.4 min
Base peak: 150.1116
Precursor m/z: 264.079
Precursor type: [M+H]+
m/z	relative intensity	assigned
112.0504	67	C4H6N3O+
163.0019	52	C6H3O4+
264.0792	999	C9H12F2N3O4+
