Mass spectrum: Terbutylazine; LC-ESI-QTOF; MS2; CE: Ramp 19.1-28.6 eV; R=35000; [M+H]+
Name: Terbutylazine
Name: Terbuthylazine
Name: 2-N-tert-butyl-6-chloro-4-N-ethyl-1,3,5-triazine-2,4-diamine
Formula: C9H16ClN5
Exact mass: 229.1094232
SMILES: CCNC1=NC(Cl)=NC(NC(C)(C)C)=N1
InChI: InChI=1S/C9H16ClN5/c1-5-11-7-12-6(10)13-8(14-7)15-9(2,3)4/h5H2,1-4H3,(H2,11,12,13,14,15)
Instrument: Bruker maXis Impact
Instrument type: LC-ESI-QTOF
Ms type: MS2
Ion mode: POSITIVE
Ionization: ESI
Fragmentation mode: CID
Collision energy: Ramp 19.1-28.6 eV
Resolution: 35000
Column name: Acclaim RSLC C18 2.2um, 2.1x100mm, Thermo
Retention time: 9.403 min
Base peak: 230.1167
Precursor m/z: 230.1167
Precursor type: [M+H]+
m/z	relative intensity	assigned
57.0693	20	C4H9+
68.0238	44	C2H2N3+
71.0599	33	C3H7N2+
79.0055	113	CH4ClN2+
81.0025	25	CH4[37]ClN2+
96.0558	125	C4H6N3+
104.0019	33	C2H3ClN3+
105.9991	9	C2H3[37]ClN3+
110.0472	7	C2H9ClN3+
132.0326	74	C4H7ClN3+
134.0294	22	C4H7[37]ClN3+
138.0777	32	C5H8N5+
146.0229	71	C3H5ClN5+
148.0198	16	C3H5[37]ClN5+
174.0543	999	C5H9ClN5+
175.0568	73	C4[13]CH9ClN5+
176.0514	338	C5H9[37]ClN5+
230.1176	126	C9H17ClN5+
231.1198	14	C8[13]CH17ClN5+
232.1147	37	C9H17[37]ClN5+
