Mass spectrum: Haloperidol; LC-ESI-QTOF; MS2; CE: 40 eV; R=35000; [M+H]+
Name: Haloperidol
Name: 4-[4-(4-chlorophenyl)-4-hydroxypiperidin-1-yl]-1-(4-fluorophenyl)butan-1-one
Formula: C21H23ClFNO2
Exact mass: 375.1401349
SMILES: c1cc(ccc1C(=O)CCCN2CCC(CC2)(c3ccc(cc3)Cl)O)F
InChI: InChI=1S/C21H23ClFNO2/c22-18-7-5-17(6-8-18)21(26)11-14-24(15-12-21)13-1-2-20(25)16-3-9-19(23)10-4-16/h3-10,26H,1-2,11-15H2
Instrument: Bruker maXis Impact
Instrument type: LC-ESI-QTOF
Ms type: MS2
Ion mode: POSITIVE
Ionization: ESI
Fragmentation mode: CID
Collision energy: 40 eV
Resolution: 35000
Column name: Acclaim RSLC C18 2.2um, 2.1x100mm, Thermo
Retention time: 7.6 min
Base peak: 376.1476
Precursor m/z: 376.1474
Precursor type: [M+H]+
m/z	relative intensity	assigned
123.0238	959	C7H4FO+
124.0275	47	C6[13]CH4FO+
163.0552	5	C10H8FO+
165.0707	999	C10H10FO+
166.074	69	C12[13]CH9+
206.0979	22	C12H13FNO+
358.1375	9	C21H22ClFNO+
