Mass spectrum: Metformin; LC-ESI-QTOF; MS2; CE: 20 eV; R=35000; [M+H]+
Name: Metformin
Name: 3-(diaminomethylidene)-1,1-dimethylguanidine
Formula: C4H11N5
Exact mass: 129.1014454
SMILES: CN(C)C(=N)N=C(N)N
InChI: InChI=1S/C4H11N5/c1-9(2)4(7)8-3(5)6/h1-2H3,(H5,5,6,7,8)
Instrument: Bruker maXis Impact
Instrument type: LC-ESI-QTOF
Ms type: MS2
Ion mode: POSITIVE
Ionization: ESI
Fragmentation mode: CID
Collision energy: 20 eV
Resolution: 35000
Column name: Acclaim RSLC C18 2.2um, 2.1x100mm, Thermo
Retention time: 1.5 min
Base peak: 130.1081
Precursor m/z: 130.1087
Precursor type: [M+H]+
m/z	relative intensity	assigned
113.083	139	C4H9N4+
130.1082	999	C4H12N5+
