Mass spectrum: Methiocarb-sulfoxide; LC-ESI-QTOF; MS2; CE: 30 eV; R=35000; [M+H]+
Name: Methiocarb-sulfoxide
Name: Mesurol sulfoxide
Name: (3,5-dimethyl-4-methylsulfinylphenyl) N-methylcarbamate
Formula: C11H15NO3S
Exact mass: 241.0772643
SMILES: CNC(=O)OC1=CC(C)=C(C(C)=C1)S(C)=O
InChI: InChI=1S/C11H15NO3S/c1-7-5-9(15-11(13)12-3)6-8(2)10(7)16(4)14/h5-6H,1-4H3,(H,12,13)
Instrument: Bruker maXis Impact
Instrument type: LC-ESI-QTOF
Ms type: MS2
Ion mode: POSITIVE
Ionization: ESI
Fragmentation mode: CID
Collision energy: 30 eV
Resolution: 35000
Column name: Acclaim RSLC C18 2.2um, 2.1x100mm, Thermo
Retention time: 4.7 min
Base peak: 242.0842
Precursor m/z: 242.0845
Precursor type: [M+H]+
m/z	relative intensity	assigned
121.0641	4	C8H9O+
122.072	437	C8H10O+
123.0753	31	C7[13]CH10O+
136.0875	6	C9H12O+
153.0359	230	C8H9OS+
155.0317	6	C5H5N3O3+
168.0594	685	C9H12OS+
169.0624	48	C8[13]CH12OS+
170.0386	999	C8H10O2S+
171.0418	7	C7[13]CH10O2S+
185.0622	613	C9H13O2S+
186.0653	42	C8[13]CH13O2S+
187.0595	16	C9H13O2[34]S+
