Mass spectrum: Maprotiline; LC-ESI-QTOF; MS2; CE: 20 eV; R=35000; [M+H]+
Name: Maprotiline
Formula: C20H23N
Exact mass: 277.1830497
SMILES: CNCCCC12CCC(c3c1cccc3)c4c2cccc4
InChI: InChI=1S/C20H23N/c1-21-14-6-12-20-13-11-15(16-7-2-4-9-18(16)20)17-8-3-5-10-19(17)20/h2-5,7-10,15,21H,6,11-14H2,1H3
Instrument: Bruker maXis Impact
Instrument type: LC-ESI-QTOF
Ms type: MS2
Ion mode: POSITIVE
Ionization: ESI
Fragmentation mode: CID
Collision energy: 20 eV
Resolution: 35000
Column name: Acclaim RSLC C18 2.2um, 2.1x100mm, Thermo
Retention time: 8.515 min
Base peak: 278.1923
Precursor m/z: 278.1903
Precursor type: [M+H]+
m/z	relative intensity	assigned
115.0547	6	C9H7+
117.0702	46	C9H9+
129.07	6	C10H9+
131.0858	23	C10H11+
141.0704	10	C11H9+
143.0859	14	C11H11+
169.1019	76	C13H13+
170.1055	9	C12[13]CH13+
178.0782	9	C14H10+
191.0863	20	C15H11+
193.1019	8	C15H13+
205.1021	9	C16H13+
219.1181	120	C17H15+
220.1216	20	C16[13]CH15+
247.1494	33	C19H19+
248.1524	6	C18[13]CH19+
250.161	765	C18H20N+
251.1641	113	C17[13]CH20N+
252.1669	7	C17[13]CH21N+
278.1925	999	C20H24N+
279.1956	173	C19[13]CH24N+
280.1978	12	C18[13]C2H24N+
