Mass spectrum: Valsartan; LC-ESI-QTOF; MS2; CE: 50 eV; R=35000; [M+H]+
Name: Valsartan
Name: (2S)-3-methyl-2-[pentanoyl-[[4-[2-(2H-tetrazol-5-yl)phenyl]phenyl]methyl]amino]butanoic acid
Formula: C24H29N5O3
Exact mass: 435.2270398
SMILES: CCCCC(=O)N(CC1=CC=C(C=C1)C1=CC=CC=C1C1=NNN=N1)[C@@H](C(C)C)C(O)=O
InChI: InChI=1S/C24H29N5O3/c1-4-5-10-21(30)29(22(16(2)3)24(31)32)15-17-11-13-18(14-12-17)19-8-6-7-9-20(19)23-25-27-28-26-23/h6-9,11-14,16,22H,4-5,10,15H2,1-3H3,(H,31,32)(H,25,26,27,28)/t22-/m0/s1
Instrument: Bruker maXis Impact
Instrument type: LC-ESI-QTOF
Ms type: MS2
Ion mode: POSITIVE
Ionization: ESI
Fragmentation mode: CID
Collision energy: 50 eV
Resolution: 35000
Column name: Acclaim RSLC C18 2.2um, 2.1x100mm, Thermo
Retention time: 8.9 min
Base peak: 150.1118
Precursor m/z: 436.2343
Precursor type: [M+H]+
m/z	relative intensity	assigned
129.0449	14	C8H5N2+
140.049	45	C10H6N+
141.0687	11	C11H9+
151.0538	12	C12H7+
152.0618	96	C12H8+
153.0687	262	C12H9+
154.0723	43	C5H8N5O+
163.0525	53	C13H7+
165.0685	83	C13H9+
166.0686	30	C12H8N+
167.0703	41	C9H11O3+
167.0837	26	C13H11+
168.0709	13	C11H8N2+
169.0636	25	C10H7N3+
176.0601	12	C14H8+
177.0701	15	C14H9+
178.0766	305	C14H10+
179.078	77	C13[13]CH10+
180.0798	884	C13H10N+
181.0649	25	C13H9O+
181.0831	119	C12[13]CH10N+
182.0818	11	C9H12NO3+
191.0701	153	C11H11O3+
192.0677	238	C13H8N2+
193.0719	30	C8H9N4O2+
193.0877	50	C14H11N+
194.0571	16	C8H8N3O3+
194.0964	73	C14H12N+
195.0805	19	C14H11O+
195.1008	14	C9H13N3O2+
196.0752	40	C13H10NO+
197.0776	12	C8H11N3O3+
205.0757	164	C14H9N2+
207.0909	999	C14H11N2+
208.0755	238	C14H10NO+
208.0942	171	C13[13]CH11N2+
209.0792	33	C13[13]CH10NO+
209.1073	61	C14H13N2+
210.0905	104	C12H10N4+
211.0957	13	C9H13N3O3+
221.1052	12	C12H15NO3+
235.0948	56	C11H13N3O3+
247.0841	15	C14H9N5+
291.1504	46	C19H19N2O+
292.1544	15	C17H18N5+
