Mass spectrum: Imidacloprid; LC-ESI-QTOF; MS2; CE: 40 eV; R=35000; [M+H]+
Name: Imidacloprid
Name: N-[1-[(6-chloropyridin-3-yl)methyl]-4,5-dihydroimidazol-2-yl]nitramide
Formula: C9H10ClN5O2
Exact mass: 255.0523022
SMILES: [O-][N+](=O)NC1=NCCN1CC1=CN=C(Cl)C=C1
InChI: InChI=1S/C9H10ClN5O2/c10-8-2-1-7(5-12-8)6-14-4-3-11-9(14)13-15(16)17/h1-2,5H,3-4,6H2,(H,11,13)
Instrument: Bruker maXis Impact
Instrument type: LC-ESI-QTOF
Ms type: MS2
Ion mode: POSITIVE
Ionization: ESI
Fragmentation mode: CID
Collision energy: 40 eV
Resolution: 35000
Column name: Acclaim RSLC C18 2.2um, 2.1x100mm, Thermo
Retention time: 4.6 min
Base peak: 163.1222
Precursor m/z: 256.0596
Precursor type: [M+H]+
m/z	relative intensity	assigned
113.0021	6	C8HO+
118.0519	12	C7H6N2+
119.0472	12	C6H5N3+
119.0594	21	C7H7N2+
120.055	26	C6H6N3+
121.0618	8	C6H7N3+
122.0707	8	C6H8N3+
126.0096	56	C9H2O+
127.0169	16	C7HN3+
128.0252	36	C9H4O+
129.0143	5	CHN6O2+
131.0466	8	CH10ClN3O2+
131.0593	39	C8H7N2+
132.0549	24	C7H6N3+
132.066	16	ClH11N5O+
133.0623	75	C7H7N3+
133.075	54	C8H9N2+
134.0704	54	C7H8N3+
135.0775	20	C7H9N3+
138.0095	5	C8N3+
139.0047	15	C9HNO+
140.0258	7	C7H7ClN+
141.0209	53	C9H3NO+
145.0501	12	C7H5N4+
147.0655	186	C7H7N4+
148.0707	21	C2H8N6O2+
148.0856	87	C8H10N3+
149.088	6	C3H11N5O2+
151.0165	6	C9HN3+
152.0129	7	C7H5ClN2+
153.0212	6	C7H6ClN2+
154.0157	7	C9H2N2O+
155.0361	7	C7H8ClN2+
157.0625	30	C9H7N3+
158.0703	87	C9H8N3+
159.0777	159	C9H9N3+
160.0836	17	C8[13]CH9N3+
165.0199	6	C9HN4+
166.0163	19	C7H5ClN3+
167.0199	5	C2H6ClN5O2+
167.0364	35	C8H8ClN2+
168.013	7	C4H2N5O3+
168.0327	5	C7H7ClN3+
169.0338	13	C8H8[37]ClN2+
172.073	5	C9H8N4+
175.097	999	C9H11N4+
180.0181	13	C7H5ClN4+
180.0317	13	C8H7ClN3+
181.0267	55	C7H6ClN4+
182.0151	6	C9H7ClO2+
182.0298	11	C5H4N5O3+
183.0237	18	C7H6[37]ClN4+
191.0921	26	C9H11N4O+
193.0273	5	C8H6ClN4+
193.0403	5	C9H8ClN3+
194.0468	34	C9H9ClN3+
196.0445	10	C6H6N5O3+
207.0418	10	C9H8ClN4+
209.0583	881	C9H10ClN4+
210.0638	99	C8[13]CH10ClN4+
211.055	252	C9H10[37]ClN4+
212.0593	14	C9H11ClN3O+
