Mass spectrum: Tri(butoxyethyl)phosphate; LC-ESI-QTOF; MS2; CE: 20 eV; R=35000; [M+H]+
Name: Tri(butoxyethyl)phosphate
Name: tris(2-butoxyethyl) phosphate
Formula: C18H39O7P
Exact mass: 398.2433402
SMILES: CCCCOCCOP(=O)(OCCOCCCC)OCCOCCCC
InChI: InChI=1S/C18H39O7P/c1-4-7-10-20-13-16-23-26(19,24-17-14-21-11-8-5-2)25-18-15-22-12-9-6-3/h4-18H2,1-3H3
Instrument: Bruker maXis Impact
Instrument type: LC-ESI-QTOF
Ms type: MS2
Ion mode: POSITIVE
Ionization: ESI
Fragmentation mode: CID
Collision energy: 20 eV
Resolution: 35000
Column name: Acclaim RSLC C18 2.2um, 2.1x100mm, Thermo
Retention time: 12.055 min
Base peak: 399.25
Precursor m/z: 399.2506
Precursor type: [M+H]+
m/z	relative intensity	assigned
124.9989	18	C2H6O4P+
143.0095	82	C2H8O5P+
169.0251	6	C4H10O5P+
199.0724	999	C6H16O5P+
200.0757	81	C5[13]CH16O5P+
201.0769	13	C6H16O4[18]OP+
225.087	29	C8H18O5P+
243.0983	42	C8H20O6P+
244.1016	6	C7[13]CH20O6P+
255.1339	8	C10H24O5P+
299.1612	560	C12H28O6P+
300.1649	102	C11[13]CH28O6P+
301.1658	10	C12H28O5[18]OP+
343.1872	6	C14H32O7P+
399.2492	136	C18H40O7P+
400.2519	35	C17[13]CH40O7P+
