Mass spectrum: 1,3-Diphenylguanidine; LC-ESI-QTOF; MS2; CE: 30 eV; R=35000; [M+H]+
Name: 1,3-Diphenylguanidine
Name: 1,2-diphenylguanidine
Formula: C13H13N3
Exact mass: 211.1109474
SMILES: N=C(NC1=CC=CC=C1)NC1=CC=CC=C1
InChI: InChI=1S/C13H13N3/c14-13(15-11-7-3-1-4-8-11)16-12-9-5-2-6-10-12/h1-10H,(H3,14,15,16)
Instrument: Bruker maXis Impact
Instrument type: LC-ESI-QTOF
Ms type: MS2
Ion mode: POSITIVE
Ionization: ESI
Fragmentation mode: CID
Collision energy: 30 eV
Resolution: 35000
Column name: Acclaim RSLC C18 2.2um, 2.1x100mm, Thermo
Retention time: 4.411 min
Base peak: 212.1178
Precursor m/z: 212.1182
Precursor type: [M+H]+
m/z	relative intensity	assigned
117.044	11	C7H5N2+
119.0597	999	C7H7N2+
120.0628	104	C6[13]CH7N2+
167.0733	7	C12H9N+
168.0797	41	C12H10N+
195.0911	708	C13H11N2+
196.0941	117	C12[13]CH11N2+
197.0975	10	C11[13]C2H11N2+
212.1174	215	C13H14N3+
213.1191	22	C12[13]CH14N3+
