Mass spectrum: Antipyrine; LC-ESI-QTOF; MS2; CE: 40 eV; R=35000; [M+H]+
Name: Antipyrine
Name: 1,5-dimethyl-2-phenylpyrazol-3-one
Formula: C11H12N2O
Exact mass: 188.0949630
SMILES: Cc1cc(=O)n(n1C)c2ccccc2
InChI: InChI=1S/C11H12N2O/c1-9-8-11(14)13(12(9)2)10-6-4-3-5-7-10/h3-8H,1-2H3
Instrument: Bruker maXis Impact
Instrument type: LC-ESI-QTOF
Ms type: MS2
Ion mode: POSITIVE
Ionization: ESI
Fragmentation mode: CID
Collision energy: 40 eV
Resolution: 35000
Column name: Acclaim RSLC C18 2.2um, 2.1x100mm, Thermo
Retention time: 4.701 min
Base peak: 189.1022
Precursor m/z: 189.1022
Precursor type: [M+H]+
m/z	relative intensity	assigned
115.0538	341	C9H7+
116.0585	35	C8[13]CH7+
117.0563	212	C8H7N+
117.0689	113	C9H9+
118.0644	219	C8H8N+
119.0604	34	C7H7N2+
119.0702	26	C7[13]CH8N+
120.08	129	C8H10N+
126.0449	6	C10H6+
127.0527	16	C10H7+
128.0484	151	C9H6N+
128.061	28	C10H8+
129.0565	207	C9H7N+
130.064	999	C9H8N+
131.0596	775	C8H7N2+
132.0439	53	C8H6NO+
132.0671	447	C8H8N2+
132.0777	117	C9H10N+
133.0508	101	C8H7NO+
133.0734	51	C7[13]CH8N2+
134.0472	49	C7H6N2O+
134.0955	33	C9H12N+
142.0639	20	C10H8N+
143.0718	107	C10H9N+
144.0794	277	C10H10N+
145.0747	540	C9H9N2+
146.0589	61	C9H8NO+
146.0821	238	C9H10N2+
147.0903	401	C9H11N2+
148.0753	10	C9H10NO+
148.0942	57	C8[13]CH11N2+
149.0696	27	C8H9N2O+
155.0591	44	C10H7N2+
156.0434	24	C10H6NO+
156.0643	13	C10H8N2+
157.0513	51	C10H7NO+
157.0757	7	C10H9N2+
158.0467	25	C9H6N2O+
158.0578	25	C10H8NO+
159.0535	69	C9H7N2O+
159.0908	62	C10H11N2+
160.0741	6	C10H10NO+
160.0971	20	C10H12N2+
161.1065	23	C10H13N2+
171.0559	6	C10H7N2O+
171.0913	17	C11H11N2+
172.0745	12	C11H10NO+
173.07	94	C10H9N2O+
174.0772	123	C10H10N2O+
175.0807	22	C9[13]CH10N2O+
189.1012	117	C11H13N2O+
190.1038	17	C10[13]CH13N2O+
