Mass spectrum: Amitriptyline; LC-ESI-QTOF; MS2; CE: 30 eV; R=35000; [M+H]+
Name: Amitriptyline
Name: N,N-dimethyl-3-(2-tricyclo[9.4.0.03,8]pentadeca-1(15),3,5,7,11,13-hexaenylidene)propan-1-amine
Formula: C20H23N
Exact mass: 277.1830497
SMILES: CN(C)CCC=C1C2=CC=CC=C2CCC2=CC=CC=C12
InChI: InChI=1S/C20H23N/c1-21(2)15-7-12-20-18-10-5-3-8-16(18)13-14-17-9-4-6-11-19(17)20/h3-6,8-12H,7,13-15H2,1-2H3
Instrument: Bruker maXis Impact
Instrument type: LC-ESI-QTOF
Ms type: MS2
Ion mode: POSITIVE
Ionization: ESI
Fragmentation mode: CID
Collision energy: 30 eV
Resolution: 35000
Column name: Acclaim RSLC C18 2.2um, 2.1x100mm, Thermo
Retention time: 8.023 min
Base peak: 278.1901
Precursor m/z: 278.1903
Precursor type: [M+H]+
m/z	relative intensity	assigned
115.0536	121	C9H7+
116.0577	12	C8[13]CH7+
117.0693	339	C9H9+
118.0724	31	C8[13]CH9+
128.0608	31	C10H8+
129.0689	155	C10H9+
130.0723	18	C9[13]CH9+
141.0688	73	C11H9+
142.0742	12	C10[13]CH9+
153.0686	30	C12H9+
154.0756	15	C12H10+
155.0843	359	C12H11+
156.0875	43	C11[13]CH11+
165.0688	17	C13H9+
167.084	9	C13H11+
178.0766	266	C14H10+
179.084	326	C14H11+
180.0874	44	C13[13]CH11+
189.0689	13	C15H9+
190.0765	33	C15H10+
191.0846	999	C15H11+
192.0899	210	C14[13]CH11+
193.0997	135	C15H13+
194.1029	20	C14[13]CH13+
202.0768	17	C16H10+
203.0844	196	C16H11+
204.092	263	C16H12+
205.1	558	C16H13+
206.1034	84	C15[13]CH13+
207.1155	39	C16H15+
208.1181	7	C15[13]CH15+
215.084	7	C17H11+
216.0919	18	C17H12+
217.1	60	C17H13+
218.1082	759	C17H14+
219.1114	110	C16[13]CH14+
220.1142	9	C15[13]C2H14+
231.1159	44	C18H15+
232.1209	11	C17[13]CH15+
233.1318	763	C18H17+
234.1351	129	C17[13]CH17+
235.1383	11	C16[13]C2H17+
278.1894	145	C20H24N+
279.1934	30	C19[13]CH24N+
