Mass spectrum: Ethofumesate; LC-ESI-QTOF; MS2; CE: 50 eV; R=35000; [M+H]+
Name: Ethofumesate
Name: (2-ethoxy-3,3-dimethyl-2H-1-benzofuran-5-yl) methanesulfonate
Formula: C13H18O5S
Exact mass: 286.0874947
SMILES: CCOC1OC2=CC=C(OS(C)(=O)=O)C=C2C1(C)C
InChI: InChI=1S/C13H18O5S/c1-5-16-12-13(2,3)10-8-9(18-19(4,14)15)6-7-11(10)17-12/h6-8,12H,5H2,1-4H3
Instrument: Bruker maXis Impact
Instrument type: LC-ESI-QTOF
Ms type: MS2
Ion mode: POSITIVE
Ionization: ESI
Fragmentation mode: CID
Collision energy: 50 eV
Resolution: 35000
Column name: Acclaim RSLC C18 2.2um, 2.1x100mm, Thermo
Retention time: 9.174 min
Base peak: 334.1055
Precursor m/z: 287.0948
Precursor type: [M+H]+
m/z	relative intensity	assigned
115.0529	662	C9H7+
121.0645	766	C8H9O+
123.0438	287	C7H7O2+
133.0642	790	C9H9O+
134.0707	999	C9H10O+
137.0581	520	C8H9O2+
145.0654	294	C10H9O+
147.0445	312	C9H7O2+
161.0582	329	C10H9O2+
