Mass spectrum: Warfarin; LC-ESI-QTOF; MS2; CE: 20 eV; R=35000; [M-H]-
Name: Warfarin
Name: 4-hydroxy-3-(3-oxo-1-phenylbutyl)chromen-2-one
Formula: C19H16O4
Exact mass: 308.1048590
SMILES: CC(=O)CC(C1=CC=CC=C1)C1=C(O)C2=CC=CC=C2OC1=O
InChI: InChI=1S/C19H16O4/c1-12(20)11-15(13-7-3-2-4-8-13)17-18(21)14-9-5-6-10-16(14)23-19(17)22/h2-10,15,21H,11H2,1H3
Instrument: Bruker maXis Impact
Instrument type: LC-ESI-QTOF
Ms type: MS2
Ion mode: NEGATIVE
Ionization: ESI
Fragmentation mode: CID
Collision energy: 20 eV
Resolution: 35000
Column name: Acclaim RSLC C18 2.2um, 2.1x100mm, Thermo
Retention time: 6.642 min
Base peak: 307.0969
Precursor m/z: 307.0976
Precursor type: [M-H]-
m/z	relative intensity	assigned
117.0348	28	C8H5O-
133.0651	8	C9H9O-
157.065	8	C11H9O-
161.0246	947	C9H5O3-
162.0276	99	C8[13]CH5O3-
163.0296	8	C9H5O2[18]O-
206.073	9	C15H10O-
221.0965	9	C16H13O-
223.0755	43	C15H11O2-
224.0807	8	C14[13]CH11O2-
250.0632	999	C16H10O3-
251.066	156	C15[13]CH10O3-
252.0685	16	C14[13]C2H10O3-
261.0894	5	C18H13O2-
263.1049	12	C18H15O2-
289.0856	7	C19H13O3-
307.0965	781	C19H15O4-
308.099	163	C18[13]CH15O4-
309.1015	13	C17[13]C2H15O4-
