Mass spectrum: Albendazole Sulfone; LC-ESI-QTOF; MS2; CE: 40 eV; R=35000; [M+H]+
Name: Albendazole Sulfone
Name: methyl N-(6-propylsulfonyl-1H-benzimidazol-2-yl)carbamate
Formula: C12H15N3O4S
Exact mass: 297.0783270
SMILES: CCCS(=O)(=O)c1ccc2c(c1)[nH]c(n2)/N=C(\O)/OC
InChI: InChI=1S/C12H15N3O4S/c1-3-6-20(17,18)8-4-5-9-10(7-8)14-11(13-9)15-12(16)19-2/h4-5,7H,3,6H2,1-2H3,(H2,13,14,15,16)
Instrument: Bruker maXis Impact
Instrument type: LC-ESI-QTOF
Ms type: MS2
Ion mode: POSITIVE
Ionization: ESI
Fragmentation mode: CID
Collision energy: 40 eV
Resolution: 35000
Column name: Acclaim RSLC C18 2.2um, 2.1x100mm, Thermo
Retention time: 5.7 min
Base peak: 282.0914
Precursor m/z: 298.0856
Precursor type: [M+H]+
m/z	relative intensity	assigned
131.049	65	C9H7O+
159.0419	999	C8H5N3O+
160.0466	107	C5H8N2O4+
191.0343	248	C10H7O4+
224.0119	311	C8H6N3O3S+
266.0613	103	C11H12N3O3S+
