Mass spectrum: Oxadiazone; LC-ESI-QTOF; MS2; CE: 20 eV; R=35000; [M+H]+
Name: Oxadiazone
Name: Oxadiazon
Name: 5-tert-butyl-3-(2,4-dichloro-5-propan-2-yloxyphenyl)-1,3,4-oxadiazol-2-one
Formula: C15H18Cl2N2O3
Exact mass: 344.0694478
SMILES: CC(C)OC1=CC(N2N=C(OC2=O)C(C)(C)C)=C(Cl)C=C1Cl
InChI: InChI=1S/C15H18Cl2N2O3/c1-8(2)21-12-7-11(9(16)6-10(12)17)19-14(20)22-13(18-19)15(3,4)5/h6-8H,1-5H3
Instrument: Bruker maXis Impact
Instrument type: LC-ESI-QTOF
Ms type: MS2
Ion mode: POSITIVE
Ionization: ESI
Fragmentation mode: CID
Collision energy: 20 eV
Resolution: 35000
Column name: Acclaim RSLC C18 2.2um, 2.1x100mm, Thermo
Retention time: 12.373 min
Base peak: 362.1033
Precursor m/z: 345.0767
Precursor type: [M+H]+
m/z	relative intensity	assigned
133.0848	8	C6H13O3+
148.9544	6	C5H3Cl2O+
174.9911	14	C5H4ClN2O3+
175.9657	17	C9HClO2+
176.9493	123	C6H3Cl2O2+
177.9565	9	C5[13]CH3Cl2O2+
178.9468	71	C6H3Cl[37]ClO2+
182.9948	21	C10HNO3+
183.9779	38	C7H3ClNO3+
184.9862	140	C7H4ClNO3+
185.9771	7	C7H3[37]ClNO3+
185.9906	7	C6[13]CH4ClNO3+
186.9835	26	C7H4[37]ClNO3+
195.0676	7	C13H9NO+
201.9435	10	C7H2Cl2NO2+
203.9428	9	C7H2Cl[37]ClNO2+
218.9699	21	C10H2ClNO3+
219.9556	999	C7H4Cl2NO3+
220.9587	76	C6[13]CH4Cl2NO3+
221.9522	560	C7H4Cl[37]ClNO3+
222.9558	34	C13ClO2+
223.0643	42	C10H17Cl2O+
223.9484	6	C9H2Cl2N2O+
224.0656	17	C5H18Cl2N2O3+
225.0432	10	C10H10ClN2O2+
237.0764	27	C6H19Cl2N2O3+
239.0578	8	C14H9NO3+
250.9996	6	C8H9Cl2N2O3+
252.9957	6	C8H9Cl[37]ClN2O3+
259.0399	13	C11H13Cl2N2O+
261.0329	11	C11H13Cl[37]ClN2O+
267.0491	10	C12H12ClN2O3+
281.0505	46	C15H15Cl2O+
282.0512	11	C14[13]CH15Cl2O+
283.0319	7	C14H13Cl2O2+
283.0477	6	C14H15Cl2NO+
297.0818	161	C11H19Cl2N2O3+
299.0614	611	C15H17Cl2O2+
300.0622	168	C14[13]CH17Cl2O2+
301.0582	64	C14H17Cl2NO2+
303.0295	781	C12H13Cl2N2O3+
304.0329	94	C11[13]CH13Cl2N2O3+
305.0264	448	C12H13Cl[37]ClN2O3+
306.0307	47	C15H12Cl2N2O+
323.0383	13	C15H13Cl2N2O2+
328.0769	6	C15H18Cl2N2O2+
345.0763	205	C15H19Cl2N2O3+
346.0797	44	C14[13]CH19Cl2N2O3+
347.0744	124	C15H19Cl[37]ClN2O3+
