Mass spectrum: Mesotrione; LC-ESI-QTOF; MS2; CE: 10 eV; R=35000; [M+H]+
Name: Mesotrione
Name: 2-(4-methylsulfonyl-2-nitrobenzoyl)cyclohexane-1,3-dione
Formula: C14H13NO7S
Exact mass: 339.0412728
SMILES: CS(=O)(=O)C1=CC=C(C(=O)C2C(=O)CCCC2=O)C(=C1)[N+]([O-])=O
InChI: InChI=1S/C14H13NO7S/c1-23(21,22)8-5-6-9(10(7-8)15(19)20)14(18)13-11(16)3-2-4-12(13)17/h5-7,13H,2-4H2,1H3
Instrument: Bruker maXis Impact
Instrument type: LC-ESI-QTOF
Ms type: MS2
Ion mode: POSITIVE
Ionization: ESI
Fragmentation mode: CID
Collision energy: 10 eV
Resolution: 35000
Column name: Acclaim RSLC C18 2.2um, 2.1x100mm, Thermo
Retention time: 4.4 min
Base peak: 150.1115
Precursor m/z: 340.0485
Precursor type: [M+H]+
m/z	relative intensity	assigned
227.9942	344	C11H2NO5+
340.0481	999	C14H14NO7S+
341.0511	181	C13[13]CH14NO7S+
