Mass spectrum: Linuron; LC-ESI-QTOF; MS2; CE: 40 eV; R=35000; [M-H]-
Name: Linuron
Name: 3-(3,4-dichlorophenyl)-1-methoxy-1-methylurea
Formula: C9H10Cl2N2O2
Exact mass: 248.0119329
SMILES: CON(C)C(=O)NC1=CC=C(Cl)C(Cl)=C1
InChI: InChI=1S/C9H10Cl2N2O2/c1-13(15-2)9(14)12-6-3-4-7(10)8(11)5-6/h3-5H,1-2H3,(H,12,14)
Instrument: Bruker maXis Impact
Instrument type: LC-ESI-QTOF
Ms type: MS2
Ion mode: NEGATIVE
Ionization: ESI
Fragmentation mode: CID
Collision energy: 40 eV
Resolution: 35000
Column name: Acclaim RSLC C18 2.2um, 2.1x100mm, Thermo
Retention time: 9.256 min
Base peak: 159.9723
Precursor m/z: 247.0047
Precursor type: [M-H]-
m/z	relative intensity	assigned
159.9732	220	C6H4Cl2N-
199.9546	999	C7H2Cl2N2O-
201.9527	586	C7H2Cl[37]ClN2O-
214.9827	490	C8H5Cl2N2O-
216.9728	288	C8H5Cl[37]ClN2O-
