Mass spectrum: Albendazole Sulfoxide; LC-ESI-QTOF; MS2; CE: 30 eV; R=35000; [M+H]+
Name: Albendazole Sulfoxide
Name: methyl N-(6-propylsulfinyl-1H-benzimidazol-2-yl)carbamate
Formula: C12H15N3O3S
Exact mass: 281.0834123
SMILES: CCCS(=O)c1ccc2c(c1)nc([nH]2)NC(=O)OC
InChI: InChI=1S/C12H15N3O3S/c1-3-6-19(17)8-4-5-9-10(7-8)14-11(13-9)15-12(16)18-2/h4-5,7H,3,6H2,1-2H3,(H2,13,14,15,16)
Instrument: Bruker maXis Impact
Instrument type: LC-ESI-QTOF
Ms type: MS2
Ion mode: POSITIVE
Ionization: ESI
Fragmentation mode: CID
Collision energy: 30 eV
Resolution: 35000
Column name: Acclaim RSLC C18 2.2um, 2.1x100mm, Thermo
Retention time: 5.7 min
Base peak: 282.0906
Precursor m/z: 282.0907
Precursor type: [M+H]+
m/z	relative intensity	assigned
133.0635	9	C7H7N3+
134.0702	6	C7H8N3+
146.0702	17	C8H8N3+
159.0418	191	C8H5N3O+
160.048	43	C8H6N3O+
178.0424	12	C8H8N3S+
191.0121	63	C11HN3O+
191.0683	335	C9H9N3O2+
192.0048	11	C12H2NO2+
192.0745	52	C10[13]CH11O3+
193.0819	6	C10H13N2S+
204.0763	10	C10H10N3O2+
205.0832	7	C10H11N3O2+
207.0096	175	C8H5N3O2S+
208.0167	999	C8H6N3O2S+
209.0202	60	C7[13]CH6N3O2S+
210.0142	23	C8H6N3O2[34]S+
222.0327	183	C9H8N3O2S+
223.0398	51	C9H9N3O2S+
224.0284	6	C12H6N3S+
224.0424	8	C12H6N3O2+
233.061	6	C11H11N3OS+
239.0357	96	C9H9N3O3S+
240.043	123	C9H10N3O3S+
241.048	13	C12H7N3O3+
265.0887	14	C12H15N3O2S+
