Mass spectrum: 2-Amino-3-methyl-imidazo[4,5-f]quinoline (IQ); LC-ESI-QTOF; MS2; CE: 50 eV; R=35000; [M+H]+
Name: 2-Amino-3-methyl-imidazo[4,5-f]quinoline (IQ)
Name: 2-Amino-3-methylimidazo[4,5-f]quinoline
Name: 3-methylimidazo[4,5-f]quinolin-2-amine
Formula: C11H10N4
Exact mass: 198.0905463
SMILES: CN1C(N)=NC2=C1C=CC1=NC=CC=C21
InChI: InChI=1S/C11H10N4/c1-15-9-5-4-8-7(3-2-6-13-8)10(9)14-11(15)12/h2-6H,1H3,(H2,12,14)
Instrument: Bruker maXis Impact
Instrument type: LC-ESI-QTOF
Ms type: MS2
Ion mode: POSITIVE
Ionization: ESI
Fragmentation mode: CID
Collision energy: 50 eV
Resolution: 35000
Column name: Acclaim RSLC C18 2.2um, 2.1x100mm, Thermo
Retention time: 3.807 min
Base peak: 199.0967
Precursor m/z: 199.0978
Precursor type: [M+H]+
m/z	relative intensity	assigned
114.0328	13	C8H4N+
115.0408	16	C8H5N+
116.049	13	C8H6N+
117.0559	14	C8H7N+
118.0512	12	C7H6N2+
128.0479	71	C9H6N+
129.0435	221	C8H5N2+
130.0513	417	C8H6N2+
131.0582	152	C8H7N2+
132.064	19	C7[13]CH7N2+
133.0628	5	C7H7N3+
140.0348	6	C9H4N2+
141.0435	12	C9H5N2+
142.0511	169	C9H6N2+
143.0575	43	C9H7N2+
144.0556	13	C8H6N3+
144.0653	22	C9H8N2+
145.0744	10	C9H9N2+
146.0579	8	C7H6N4+
153.0435	5	C10H5N2+
155.0588	24	C10H7N2+
156.0543	854	C9H6N3+
157.0619	999	C9H7N3+
158.0659	108	C8[13]CH7N3+
159.0696	6	C7[13]C2H7N3+
167.046	13	C10H5N3+
168.0535	10	C10H6N3+
170.0706	23	C10H8N3+
182.0694	24	C11H8N3+
183.0652	198	C10H7N4+
184.073	869	C10H8N4+
185.0758	92	C9[13]CH8N4+
186.0786	6	C8[13]C2H8N4+
197.0816	16	C11H9N4+
198.0861	5	C11H10N4+
199.0967	15	C11H11N4+
