Mass spectrum: 2-Oxindole; LC-ESI-QTOF; MS2; CE: Ramp 15.6-23.4 eV; R=35000; [M+H]+
Name: 2-Oxindole
Name: Oxindole
Name: 1,3-dihydroindol-2-one
Formula: C8H7NO
Exact mass: 133.0527638
SMILES: O=C1CC2=CC=CC=C2N1
InChI: InChI=1S/C8H7NO/c10-8-5-6-3-1-2-4-7(6)9-8/h1-4H,5H2,(H,9,10)
Instrument: Bruker maXis Impact
Instrument type: LC-ESI-QTOF
Ms type: MS2
Ion mode: POSITIVE
Ionization: ESI
Fragmentation mode: CID
Collision energy: Ramp 15.6-23.4 eV
Resolution: 35000
Column name: Acclaim RSLC C18 2.2um, 2.1x100mm, Thermo
Retention time: 5.163 min
Base peak: 264.1768
Precursor m/z: 134.06
Precursor type: [M+H]+
m/z	relative intensity	assigned
79.0543	21	C6H7+
105.0334	20	C7H5O+
106.066	45	C7H8N+
116.0485	14	C8H6N+
117.0559	5	C8H7N+
133.0503	10	C8H7NO+
134.0595	999	C8H8NO+
135.0626	80	C7[13]CH8NO+
