Mass spectrum: Diuron-desdimethyl; LC-ESI-QTOF; MS2; CE: 20 eV; R=35000; [M-H]-
Name: Diuron-desdimethyl
Name: 1-(3,4-Dichlorophenyl)urea
Name: (3,4-dichlorophenyl)urea
Formula: C7H6Cl2N2O
Exact mass: 203.9857182
SMILES: NC(=O)NC1=CC(Cl)=C(Cl)C=C1
InChI: InChI=1S/C7H6Cl2N2O/c8-5-2-1-4(3-6(5)9)11-7(10)12/h1-3H,(H3,10,11,12)
Instrument: Bruker maXis Impact
Instrument type: LC-ESI-QTOF
Ms type: MS2
Ion mode: NEGATIVE
Ionization: ESI
Fragmentation mode: CID
Collision energy: 20 eV
Resolution: 35000
Column name: Acclaim RSLC C18 2.2um, 2.1x100mm, Thermo
Retention time: 7.788 min
Base peak: 202.9768
Precursor m/z: 202.9784
Precursor type: [M-H]-
m/z	relative intensity	assigned
159.9709	999	C6H4Cl2N-
160.9742	76	C5[13]CH4Cl2N-
161.9682	528	C6H4Cl[37]ClN-
