Mass spectrum: Ethofumesate; LC-ESI-QTOF; MS2; CE: 20 eV; R=35000; [M+H]+
Name: Ethofumesate
Name: (2-ethoxy-3,3-dimethyl-2H-1-benzofuran-5-yl) methanesulfonate
Formula: C13H18O5S
Exact mass: 286.0874947
SMILES: CCOC1OC2=CC=C(OS(C)(=O)=O)C=C2C1(C)C
InChI: InChI=1S/C13H18O5S/c1-5-16-12-13(2,3)10-8-9(18-19(4,14)15)6-7-11(10)17-12/h6-8,12H,5H2,1-4H3
Instrument: Bruker maXis Impact
Instrument type: LC-ESI-QTOF
Ms type: MS2
Ion mode: POSITIVE
Ionization: ESI
Fragmentation mode: CID
Collision energy: 20 eV
Resolution: 35000
Column name: Acclaim RSLC C18 2.2um, 2.1x100mm, Thermo
Retention time: 9.155 min
Base peak: 334.1055
Precursor m/z: 287.0948
Precursor type: [M+H]+
m/z	relative intensity	assigned
121.0643	999	C8H9O+
122.0666	76	C7[13]CH9O+
133.0637	105	C9H9O+
137.0584	136	C8H9O2+
145.0648	42	C10H9O+
149.0952	82	C10H13O+
161.0585	715	C10H9O2+
162.0662	260	C10H10O2+
163.073	108	C10H11O2+
175.1499	33	C13H19+
179.0693	249	C10H11O3+
180.0747	65	C10H12O3+
213.0558	41	C13H9O3+
230.1155	25	C11H18O5+
241.0532	243	C11H13O4S+
242.0541	32	C10[13]CH13O4S+
254.1144	48	C13H18O5+
259.0636	210	C11H15O5S+
260.0712	33	C10[13]CH15O5S+
