Mass spectrum: 2-Hydroxybenzothiazole; LC-ESI-QTOF; MS2; CE: 20 eV; R=35000; [M-H]-
Name: 2-Hydroxybenzothiazole
Name: Benzothiazolone
Name: 3H-1,3-benzothiazol-2-one
Formula: C7H5NOS
Exact mass: 151.0091848
SMILES: c1ccc2c(c1)nc(s2)O
InChI: InChI=1S/C7H5NOS/c9-7-8-5-3-1-2-4-6(5)10-7/h1-4H,(H,8,9)
Instrument: Bruker maXis Impact
Instrument type: LC-ESI-QTOF
Ms type: MS2
Ion mode: NEGATIVE
Ionization: ESI
Fragmentation mode: CID
Collision energy: 20 eV
Resolution: 35000
Column name: Acclaim RSLC C18 2.2um, 2.1x100mm, Thermo
Retention time: 6.506 min
Base peak: 149.9995
Precursor m/z: 150.0019
Precursor type: [M-H]-
m/z	relative intensity	assigned
149.9994	999	C7H4NOS-
