Mass spectrum: Metformin; LC-ESI-QTOF; MS2; CE: Ramp 15.5-23.2 eV; R=35000; [M+H]+
Name: Metformin
Name: 3-(diaminomethylidene)-1,1-dimethylguanidine
Formula: C4H11N5
Exact mass: 129.1014
SMILES: CN(C)C(=N)NC(=N)N
InChI: InChI=1S/C4H11N5/c1-9(2)4(7)8-3(5)6/h1-2H3,(H5,5,6,7,8)
Instrument: Bruker maXis Impact
Instrument type: LC-ESI-QTOF
Ms type: MS2
Ion mode: POSITIVE
Ionization: ESI
Fragmentation mode: CID
Collision energy: Ramp 15.5-23.2 eV
Resolution: 35000
Column name: Acclaim RSLC C18 2.2um, 2.1x100mm, Thermo
Retention time: 1.4 min
Base peak: 130.1095
Precursor m/z: 130.1087
Precursor type: [M+H]+
m/z	relative intensity	assigned
46.0653	69	C2H8N+
55.029	7	C2H3N2+
56.0373	11	C2H4N2+
60.0556	989	CH6N3+
61.0537	12	C2H7NO+
68.0245	51	C2H2N3+
71.0606	999	C3H7N2+
85.0517	203	C2H5N4+
88.0876	182	C3H10N3+
113.0837	54	C4H9N4+
130.1092	249	C4H12N5+
