Mass spectrum: Trimethylolpropane trimethacrylate; GC-APCI-QTOF; MS2; CE: 20 eV; R=35000; [M]+
Name: Trimethylolpropane trimethacrylate
Formula: C18H26O6
Exact mass: 338.1729
SMILES: CCC(COC(=O)C(=C)C)(COC(=O)C(=C)C)COC(=O)C(=C)C
InChI: InChI=1S/C18H26O6/c1-8-18(9-22-15(19)12(2)3,10-23-16(20)13(4)5)11-24-17(21)14(6)7/h2,4,6,8-11H2,1,3,5,7H3
Instrument: Bruker 450 GC coupled to maXis Impact
Instrument type: GC-APCI-QTOF
Ms type: MS2
Ion mode: POSITIVE
Ionization: APCI
Fragmentation mode: CID
Collision energy: 20 eV
Resolution: 35000
Column name: Rxi-5Sil MS column, 30m, 0.25mm i.d., 0.25Âµm film thickness, Restek
Retention time: 18.220 min
Base peak: 253.143
Precursor m/z: 338.1724
Precursor type: [M]+
m/z	relative intensity	assigned
69.0325	176	C4H5O+
81.069	34	C6H9+
125.0593	6	C7H9O2+
133.0651	13	C9H9O+
147.0813	10	C10H11O+
148.0883	48	C10H12O+
149.0949	8	C10H13O+
167.1076	8	C10H15O2+
176.0835	15	C11H12O2+
185.1182	8	C10H17O3+
224.1417	9	C13H20O3+
240.1366	10	C13H20O4+
252.1363	32	C14H20O4+
253.1432	999	C14H21O4+
254.1294	95	C17H18O2+
254.1467	102	C14H22O4+
267.1598	11	C15H23O4+
293.1759	20	C17H25O4+
294.1829	5	C17H26O4+
310.1769	99	C17H26O5+
338.1723	51	C18H26O6+
