Mass spectrum: Efavirenz; LC-ESI-QTOF; MS2; CE: 10 eV; R=35000; [M-H]-
Name: Efavirenz
Name: 6-Chloro-4-(cyclopropylethynyl)-4-(trifluoromethyl)-1,4-dihydro-2H-3,1-benzoxazin-2-one
Name: 6-chloro-4-(2-cyclopropylethynyl)-4-(trifluoromethyl)-1H-3,1-benzoxazin-2-one
Formula: C14H9ClF3NO2
Exact mass: 315.0273909
SMILES: FC(F)(F)C1(OC(=O)NC2=C1C=C(Cl)C=C2)C#CC1CC1
InChI: InChI=1S/C14H9ClF3NO2/c15-9-3-4-11-10(7-9)13(14(16,17)18,21-12(20)19-11)6-5-8-1-2-8/h3-4,7-8H,1-2H2,(H,19,20)
Instrument: Bruker maXis Impact
Instrument type: LC-ESI-QTOF
Ms type: MS2
Ion mode: NEGATIVE
Ionization: ESI
Fragmentation mode: CID
Collision energy: 10 eV
Resolution: 35000
Column name: Acclaim RSLC C18 2.2um, 2.1x100mm, Thermo
Retention time: 10.649 min
Base peak: 314.0197
Precursor m/z: 314.0201
Precursor type: [M-H]-
m/z	relative intensity	assigned
161.0212	19	C10H3F2-
200.0259	23	C12H7ClN-
210.0086	8	C8H6ClF3O-
214.0495	25	C10H7F3NO-
215.0515	10	C13H8FO2-
216.0279	25	C9H5F3NO2-
230.0159	72	C13H6ClFN-
231.0211	13	C12[13]CH6ClFN-
231.0347	7	C13H4F3N-
232.0146	20	C13H6[37]ClFN-
241.9987	91	C11H4ClF3N-
243.0014	11	C10[13]CH4ClF3N-
243.9964	30	C11H4[37]ClF3N-
244.0164	203	C13H7ClNO2-
245.0176	30	C12[13]CH7ClNO2-
246.0133	70	C13H7[37]ClNO2-
247.0166	11	C11H7ClF3O-
250.0252	65	C10H8ClF3NO-
252.0201	15	C10H8[37]ClF3NO-
252.0253	15	C10H8[37]ClF3NO-
270.0303	39	C13H8ClF3N-
272.0247	9	C13H8[37]ClF3N-
274.0036	13	C14H6ClFNO2-
274.0144	13	C14H6ClFNO2-
294.0091	10	C14H7ClF2NO2-
296.0075	10	C14H6ClF3NO-
298.0045	7	C14H6ClF3O2-
314.0193	999	C14H8ClF3NO2-
315.0216	169	C13[13]CH8ClF3NO2-
316.0164	309	C14H8[37]ClF3NO2-
