Mass spectrum: Methamphetamine; LC-ESI-QTOF; MS2; CE: RAMP 16.2-24.3 eV; R=35000; [M+H]+
Name: Methamphetamine
Name: DL-Methamphetamine
Name: N-methyl-1-phenylpropan-2-amine
Formula: C10H15N
Exact mass: 149.1204495
SMILES: CC(Cc1ccccc1)NC
InChI: InChI=1S/C10H15N/c1-9(11-2)8-10-6-4-3-5-7-10/h3-7,9,11H,8H2,1-2H3
Instrument: Bruker maXis Impact
Instrument type: LC-ESI-QTOF
Ms type: MS2
Ion mode: POSITIVE
Ionization: ESI
Fragmentation mode: CID
Collision energy: RAMP 16.2-24.3 eV
Resolution: 35000
Column name: Acclaim RSLC C18 2.2um, 2.1x100mm, Thermo
Retention time: 4.346 min
Base peak: 150.1284
Precursor m/z: 150.1277
Precursor type: [M+H]+
m/z	relative intensity	assigned
58.0644	7	C3H8N+
65.0378	6	C5H5+
91.055	999	C7H7+
92.0577	118	C6[13]CH7+
119.0863	81	C9H11+
120.0895	7	C8[13]CH11+
150.1276	40	C10H16N+
