Mass spectrum: Vinyl laurate; GC-APCI-QTOF; MS2; CE: 30 eV; R=35000; [M+H]+
Name: Vinyl laurate
Formula: C14H26O2
Exact mass: 226.1933
SMILES: CCCCCCCCCCCC(=O)OC=C
InChI: InChI=1S/C14H26O2/c1-3-5-6-7-8-9-10-11-12-13-14(15)16-4-2/h4H,2-3,5-13H2,1H3
Instrument: Bruker 450 GC coupled to maXis Impact
Instrument type: GC-APCI-QTOF
Ms type: MS2
Ion mode: POSITIVE
Ionization: APCI
Fragmentation mode: CID
Collision energy: 30 eV
Resolution: 35000
Column name: Rxi-5Sil MS column, 30m, 0.25mm i.d., 0.25Âµm film thickness, Restek
Retention time: 12.853 min
Base peak: 183.176
Precursor m/z: 227.2006
Precursor type: [M+H]+
m/z	relative intensity	assigned
55.0554	973	C4H7+
67.0558	999	C5H7+
71.0847	973	C5H11+
