Mass spectrum: Ketoconazole; LC-ESI-QTOF; MS2; CE: Ramp 26.2-39.4 eV; R=35000; [M+H]+
Name: Ketoconazole
Name: Xolegel
Name: 1-[4-[4-[[(2R,4S)-2-(2,4-dichlorophenyl)-2-(imidazol-1-ylmethyl)-1,3-dioxolan-4-yl]methoxy]phenyl]piperazin-1-yl]ethanone
Formula: C26H28Cl2N4O4
Exact mass: 530.1487607
SMILES: CC(=O)N1CCN(CC1)C1=CC=C(OC[C@H]2CO[C@@](CN3C=CN=C3)(O2)C2=CC=C(Cl)C=C2Cl)C=C1
InChI: InChI=1S/C26H28Cl2N4O4/c1-19(33)31-10-12-32(13-11-31)21-3-5-22(6-4-21)34-15-23-16-35-26(36-23,17-30-9-8-29-18-30)24-7-2-20(27)14-25(24)28/h2-9,14,18,23H,10-13,15-17H2,1H3/t23-,26-/m0/s1
Instrument: Bruker maXis Impact
Instrument type: LC-ESI-QTOF
Ms type: MS2
Ion mode: POSITIVE
Ionization: ESI
Fragmentation mode: CID
Collision energy: Ramp 26.2-39.4 eV
Resolution: 35000
Column name: Acclaim RSLC C18 2.2um, 2.1x100mm, Thermo
Retention time: 9.394 min
Base peak: 531.1561
Precursor m/z: 531.156
Precursor type: [M+H]+
m/z	relative intensity	assigned
69.0445	6	C3H5N2+
81.0444	14	C4H5N2+
82.0525	106	C4H6N2+
86.0598	5	C4H8NO+
112.077	22	C3H13ClN2+
135.0679	18	C8H9NO+
148.0756	8	C9H10NO+
167.0808	8	CH21Cl2O4+
174.0903	8	C9H10N4+
177.1018	16	C3H23Cl2O3+
216.1014	10	C13H14NO2+
217.1333	38	C6H27Cl2O3+
219.1125	50	C5H25Cl2O4+
220.1199	39	C5H26Cl2O4+
234.112	5	C13H16NO3+
235.1435	13	C6H29Cl2O4+
238.0062	7	C11H8Cl2N2+
244.0049	38	C9H8Cl2N3O+
246.0021	19	C9H8Cl[37]ClN3O+
255.0085	27	C14H6ClNO2+
257.0056	10	C14H6[37]ClNO2+
259.1445	12	C12H22ClN3O+
267.0084	6	C15H6ClNO2+
282.032	6	C13H12Cl2N2O+
421.1073	6	C24H20ClNO4+
489.1459	79	C24H27Cl2N4O3+
490.1485	19	C23[13]CH27Cl2N4O3+
491.1434	49	C24H27Cl[37]ClN4O3+
492.1473	9	C24H28Cl2N3O4+
531.1575	999	C26H29Cl2N4O4+
532.1605	308	C25[13]CH29Cl2N4O4+
533.155	666	C26H29Cl[37]ClN4O4+
