Mass spectrum: N-Desmethyl Clarithromycin; LC-ESI-QTOF; MS2; CE: 30 eV; R=35000; [M+H]+
Name: N-Desmethyl Clarithromycin
Name: 14-ethyl-12,13-dihydroxy-4-(5-hydroxy-4-methoxy-4,6-dimethyloxan-2-yl)oxy-6-[3-hydroxy-6-methyl-4-(methylamino)oxan-2-yl]oxy-7-methoxy-3,5,7,9,11,13-hexamethyl-oxacyclotetradecane-2,10-dione
Formula: C37H67NO13
Exact mass: 733.4612412
SMILES: CCC1OC(=O)C(C)C(OC2CC(C)(OC)C(O)C(C)O2)C(C)C(OC2OC(C)CC(NC)C2O)C(C)(CC(C)C(=O)C(C)C(O)C1(C)O)OC
InChI: InChI=1S/C37H67NO13/c1-14-25-37(10,44)30(41)20(4)27(39)18(2)16-36(9,46-13)32(51-34-28(40)24(38-11)15-19(3)47-34)21(5)29(22(6)33(43)49-25)50-26-17-35(8,45-12)31(42)23(7)48-26/h18-26,28-32,34,38,40-42,44H,14-17H2,1-13H3
Instrument: Bruker maXis Impact
Instrument type: LC-ESI-QTOF
Ms type: MS2
Ion mode: POSITIVE
Ionization: ESI
Fragmentation mode: CID
Collision energy: 30 eV
Resolution: 35000
Column name: Acclaim RSLC C18 2.2um, 2.1x100mm, Thermo
Retention time: 9.1 min
Base peak: 429.2393
Precursor m/z: 734.4685
Precursor type: [M+H]+
m/z	relative intensity	assigned
144.101	999	C7H14NO2+
145.1041	70	C6[13]CH14NO2+
159.1001	9	C8H15O3+
170.1157	7	C6H18O5+
270.1687	9	C14H24NO4+
302.1953	53	C15H28NO5+
325.2004	5	C18H29O5+
365.2314	42	C21H33O5+
383.2424	21	C21H35O6+
384.2458	6	C20[13]CH35O6+
526.3358	5	C25H50O11+
544.348	18	C28H50NO9+
545.3497	5	C27[13]CH50NO9+
576.3735	56	C29H54NO10+
734.4695	22	C37H68NO13+
