Mass spectrum: Ethofumesate; LC-ESI-QTOF; MS2; CE: 30 eV; R=35000; [M+H]+
Name: Ethofumesate
Name: (2-ethoxy-3,3-dimethyl-2H-1-benzofuran-5-yl) methanesulfonate
Formula: C13H18O5S
Exact mass: 286.0874947
SMILES: CCOC1OC2=CC=C(OS(C)(=O)=O)C=C2C1(C)C
InChI: InChI=1S/C13H18O5S/c1-5-16-12-13(2,3)10-8-9(18-19(4,14)15)6-7-11(10)17-12/h6-8,12H,5H2,1-4H3
Instrument: Bruker maXis Impact
Instrument type: LC-ESI-QTOF
Ms type: MS2
Ion mode: POSITIVE
Ionization: ESI
Fragmentation mode: CID
Collision energy: 30 eV
Resolution: 35000
Column name: Acclaim RSLC C18 2.2um, 2.1x100mm, Thermo
Retention time: 9.168 min
Base peak: 334.1058
Precursor m/z: 287.0948
Precursor type: [M+H]+
m/z	relative intensity	assigned
115.053	63	C9H7+
121.064	693	C8H9O+
122.0672	84	C7[13]CH9O+
133.0638	520	C9H9O+
134.0716	225	C9H10O+
135.0791	68	C9H11O+
137.0591	316	C8H9O2+
138.063	41	C7[13]CH9O2+
145.064	85	C10H9O+
149.0945	87	C10H13O+
161.0586	999	C10H9O2+
162.065	493	C10H10O2+
163.0725	198	C10H11O2+
175.1483	48	C13H19+
179.0699	138	C10H11O3+
