Mass spectrum: Pirimicarb; LC-ESI-QTOF; MS2; CE: 10 eV; R=35000; [M+H]+
Name: Pirimicarb
Name: [2-(dimethylamino)-5,6-dimethylpyrimidin-4-yl] N,N-dimethylcarbamate
Formula: C11H18N4O2
Exact mass: 238.1429758
SMILES: CN(C)C(=O)OC1=C(C)C(C)=NC(=N1)N(C)C
InChI: InChI=1S/C11H18N4O2/c1-7-8(2)12-10(14(3)4)13-9(7)17-11(16)15(5)6/h1-6H3
Instrument: Bruker maXis Impact
Instrument type: LC-ESI-QTOF
Ms type: MS2
Ion mode: POSITIVE
Ionization: ESI
Fragmentation mode: CID
Collision energy: 10 eV
Resolution: 35000
Column name: Acclaim RSLC C18 2.2um, 2.1x100mm, Thermo
Retention time: 7.735 min
Base peak: 239.1503
Precursor m/z: 239.1503
Precursor type: [M+H]+
m/z	relative intensity	assigned
182.1278	193	C9H16N3O+
183.1304	15	C8[13]CH16N3O+
195.1593	17	C10H19N4+
239.1509	999	C11H19N4O2+
