Mass spectrum: 4-Androsten-11beta-ol-3,17-dione; LC-ESI-QTOF; MS2; CE: 50 eV; R=35000; [M+H]+
Name: 4-Androsten-11beta-ol-3,17-dione
Name: 11beta-Hydroxyandrostenedione
Name: (8S,9S,10R,11S,13S,14S)-11-hydroxy-10,13-dimethyl-2,6,7,8,9,11,12,14,15,16-decahydro-1H-cyclopenta[a]phenanthrene-3,17-dione
Formula: C19H26O3
Exact mass: 302.1881947
SMILES: C[C@]12C[C@H](O)[C@H]3[C@@H](CCC4=CC(=O)CC[C@]34C)[C@@H]1CCC2=O
InChI: InChI=1S/C19H26O3/c1-18-8-7-12(20)9-11(18)3-4-13-14-5-6-16(22)19(14,2)10-15(21)17(13)18/h9,13-15,17,21H,3-8,10H2,1-2H3/t13-,14-,15-,17+,18-,19-/m0/s1
Instrument: Bruker maXis Impact
Instrument type: LC-ESI-QTOF
Ms type: MS2
Ion mode: POSITIVE
Ionization: ESI
Fragmentation mode: CID
Collision energy: 50 eV
Resolution: 35000
Column name: Acclaim RSLC C18 2.2um, 2.1x100mm, Thermo
Retention time: 8.223 min
Base peak: 303.1953
Precursor m/z: 303.1955
Precursor type: [M+H]+
m/z	relative intensity	assigned
115.0535	442	C9H7+
116.0598	140	C9H8+
117.0693	436	C9H9+
118.0745	45	C8[13]CH9+
119.085	426	C9H11+
121.0638	999	C8H9O+
121.1001	64	C9H13+
122.0681	109	C7[13]CH9O+
123.0796	550	C8H11O+
124.0829	65	C7[13]CH11O+
127.0526	60	C10H7+
128.0608	947	C10H8+
129.0685	841	C10H9+
130.076	434	C10H10+
131.049	53	C9H7O+
131.0846	659	C10H11+
132.0562	92	C9H8O+
132.0879	96	C9[13]CH11+
133.0637	195	C9H9O+
133.1006	355	C10H13+
134.0716	58	C9H10O+
134.1027	51	C9[13]CH13+
135.0798	272	C9H11O+
135.1148	60	C10H15+
141.0686	483	C11H9+
142.0764	432	C11H10+
143.084	833	C11H11+
144.0556	60	C10H8O+
144.0906	215	C11H12+
145.063	211	C10H9O+
145.1001	868	C11H13+
146.0707	135	C10H10O+
146.1053	126	C10[13]CH13+
147.0791	351	C10H11O+
147.1155	174	C11H15+
148.0871	236	C10H12O+
149.0942	100	C10H13O+
152.0602	83	C12H8+
153.0685	259	C12H9+
154.076	269	C12H10+
155.0835	551	C12H11+
156.0912	322	C12H12+
157.0625	81	C11H9O+
157.0998	520	C12H13+
158.0719	78	C11H10O+
158.1062	97	C11[13]CH13+
159.0794	248	C11H11O+
159.1154	304	C12H15+
160.088	64	C11H12O+
160.118	57	C11[13]CH15+
161.0943	253	C11H13O+
161.1293	41	C12H17+
162.101	85	C11H14O+
163.1104	327	C11H15O+
164.1128	33	C10[13]CH15O+
165.0685	259	C13H9+
166.0759	146	C13H10+
167.0842	340	C13H11+
168.092	329	C13H12+
169.0646	56	C12H9O+
169.0996	557	C13H13+
170.1061	120	C12[13]CH13+
171.079	121	C12H11O+
171.1152	166	C13H15+
172.0864	50	C12H12O+
173.0941	166	C12H13O+
173.1329	60	C13H17+
174.1019	223	C12H14O+
175.1092	125	C12H15O+
176.116	35	C12H16O+
178.0765	108	C14H10+
179.0844	253	C14H11+
181.0622	32	C13H9O+
181.0997	264	C14H13+
182.0711	48	C13H10O+
182.1072	150	C14H14+
183.0794	72	C13H11O+
183.1152	238	C14H15+
184.0875	63	C13H12O+
184.1215	53	C13[13]CH15+
185.0951	115	C13H13O+
185.1306	146	C14H17+
187.1104	90	C13H15O+
187.1454	42	C14H19+
188.1151	45	C13H16O+
189.1262	72	C13H17O+
191.0834	98	C15H11+
192.0931	101	C15H12+
193.1004	147	C15H13+
194.1085	132	C15H14+
195.0805	40	C14H11O+
195.1167	145	C15H15+
196.0861	51	C14H12O+
196.1203	47	C15H16+
197.0958	143	C14H13O+
197.1314	118	C15H17+
198.103	40	C14H14O+
199.1106	105	C14H15O+
199.1486	78	C15H19+
200.1168	60	C14H16O+
201.1239	81	C14H17O+
202.1336	50	C14H18O+
204.0917	46	C16H12+
205.1009	64	C16H13+
207.1182	60	C16H15+
208.1225	56	C16H16+
209.0953	49	C15H13O+
209.1312	103	C16H17+
210.1012	36	C15H14O+
210.1379	60	C16H18+
211.1099	105	C15H15O+
212.1188	53	C15H16O+
213.1254	129	C15H17O+
214.1319	60	C15H18O+
215.1403	69	C15H19O+
219.1144	73	C17H15+
223.1458	45	C17H19+
224.1209	38	C16H16O+
225.1644	39	C17H21+
226.1324	35	C16H18O+
227.1418	88	C16H19O+
228.1495	57	C16H20O+
237.127	208	C17H17O+
241.159	39	C17H21O+
243.1357	46	C16H19O2+
251.1419	43	C18H19O+
252.1525	65	C18H20O+
253.1552	39	C18H21O+
