Mass spectrum: 4,4`-Thiodianiline; LC-ESI-QTOF; MS2; CE: 40 eV; R=35000; [M+H]+
Name: 4,4`-Thiodianiline
Name: 4-(4-aminophenyl)sulfanylaniline
Formula: C12H12N2S
Exact mass: 216.0721194
SMILES: NC1=CC=C(SC2=CC=C(N)C=C2)C=C1
InChI: InChI=1S/C12H12N2S/c13-9-1-5-11(6-2-9)15-12-7-3-10(14)4-8-12/h1-8H,13-14H2
Instrument: Bruker maXis Impact
Instrument type: LC-ESI-QTOF
Ms type: MS2
Ion mode: POSITIVE
Ionization: ESI
Fragmentation mode: CID
Collision energy: 40 eV
Resolution: 35000
Column name: Acclaim RSLC C18 2.2um, 2.1x100mm, Thermo
Retention time: 6.189 min
Base peak: 217.0788
Precursor m/z: 217.0794
Precursor type: [M+H]+
m/z	relative intensity	assigned
115.0538	16	C9H7+
117.0564	10	C8H7N+
122.0054	7	C6H4NS+
123.0129	69	C6H5NS+
124.0206	999	C6H6NS+
125.0237	72	C5[13]CH6NS+
126.0169	44	C6H6N[34]S+
127.0542	6	C10H7+
128.0613	45	C10H8+
129.0688	25	C10H9+
130.0651	36	C9H8N+
134.017	15	C8H6S+
138.0468	5	C11H6+
139.0532	537	C11H7+
140.0568	101	C10[13]CH7+
141.0576	12	C10H7N+
143.0717	16	C10H9N+
146.018	5	C9H6S+
147.0251	23	C9H7S+
150.0455	5	C12H6+
152.0601	40	C12H8+
154.0644	45	C11H8N+
155.0609	11	C10H7N2+
156.0796	167	C11H10N+
157.0848	29	C10[13]CH10N+
158.017	8	C10H6S+
158.0849	11	C10H10N2+
159.0225	6	C10H7S+
165.0566	7	C12H7N+
166.0636	117	C12H8N+
167.0717	280	C12H9N+
168.0759	45	C11[13]CH9N+
169.0758	11	C11H9N2+
171.0252	141	C11H7S+
171.0904	11	C11H11N2+
172.0324	113	C11H8S+
173.0372	20	C10[13]CH8S+
175.0418	7	C10H9NS+
181.0758	7	C12H9N2+
182.0183	29	C12H6S+
182.0824	32	C12H10N2+
183.0256	129	C12H7S+
183.0907	96	C12H11N2+
184.0327	270	C12H8S+
184.0985	332	C12H12N2+
185.0357	37	C11[13]CH8S+
185.102	47	C11[13]CH12N2+
186.0291	14	C12H8[34]S+
198.0357	124	C12H8NS+
199.0441	606	C12H9NS+
200.0481	109	C11[13]CH9NS+
201.0397	38	C12H9N[34]S+
211.0314	32	C12H7N2S+
214.0562	38	C12H10N2S+
215.0629	50	C12H11N2S+
216.0696	31	C12H12N2S+
217.0747	7	C12H13N2S+
