Mass spectrum: Clopidogrel; LC-ESI-QTOF; MS2; CE: 40 eV; R=35000; [M+H]+
Name: Clopidogrel
Name: methyl (2S)-2-(2-chlorophenyl)-2-(6,7-dihydro-4H-thieno[3,2-c]pyridin-5-yl)acetate
Formula: C16H16ClNO2S
Exact mass: 321.0590274
SMILES: COC(=O)[C@H](c1ccccc1Cl)N2CCc3c(ccs3)C2
InChI: InChI=1S/C16H16ClNO2S/c1-20-16(19)15(12-4-2-3-5-13(12)17)18-8-6-14-11(10-18)7-9-21-14/h2-5,7,9,15H,6,8,10H2,1H3/t15-/m0/s1
Instrument: Bruker maXis Impact
Instrument type: LC-ESI-QTOF
Ms type: MS2
Ion mode: POSITIVE
Ionization: ESI
Fragmentation mode: CID
Collision energy: 40 eV
Resolution: 35000
Column name: Acclaim RSLC C18 2.2um, 2.1x100mm, Thermo
Retention time: 11.676 min
Base peak: 322.0668
Precursor m/z: 322.0663
Precursor type: [M+H]+
m/z	relative intensity	assigned
125.0144	205	C7H6Cl+
126.0176	12	C6[13]CH6Cl+
127.0114	52	C7H6[37]Cl+
138.9932	5	C7H4ClO+
148.0507	11	C9H8O2+
152.025	268	C8H7ClN+
153.028	20	C7[13]CH7ClN+
154.0221	70	C8H7[37]ClN+
154.0405	20	C11H6O+
155.0249	999	C8H8ClO+
156.0281	70	C7[13]CH8ClO+
157.0217	300	C8H8[37]ClO+
158.0249	11	C9H4NO2+
183.0197	247	C9H8ClO2+
184.0229	17	C8[13]CH8ClO2+
184.0515	167	C9H11ClNO+
185.0167	61	C9H8[37]ClO2+
185.0548	13	C8[13]CH11ClNO+
186.0485	44	C9H11[37]ClNO+
212.0462	13	C10H11ClNO2+
