Mass spectrum: Aldosterone; LC-ESI-QTOF; MS2; CE: 10 eV; R=35000; [M+H]+
Name: Aldosterone
Name: (8S,9S,10R,11S,13R,14S,17S)-11-hydroxy-17-(2-hydroxyacetyl)-10-methyl-3-oxo-1,2,6,7,8,9,11,12,14,15,16,17-dodecahydrocyclopenta[a]phenanthrene-13-carbaldehyde
Formula: C21H28O5
Exact mass: 360.1936740
SMILES: [H][C@@]12CC[C@H](C(=O)CO)[C@]1(C[C@H](O)[C@@]1([H])[C@@]2([H])CCC2=CC(=O)CC[C@]12C)C=O
InChI: InChI=1S/C21H28O5/c1-20-7-6-13(24)8-12(20)2-3-14-15-4-5-16(18(26)10-22)21(15,11-23)9-17(25)19(14)20/h8,11,14-17,19,22,25H,2-7,9-10H2,1H3/t14-,15-,16+,17-,19+,20-,21+/m0/s1
Instrument: Bruker maXis Impact
Instrument type: LC-ESI-QTOF
Ms type: MS2
Ion mode: POSITIVE
Ionization: ESI
Fragmentation mode: CID
Collision energy: 10 eV
Resolution: 35000
Column name: Acclaim RSLC C18 2.2um, 2.1x100mm, Thermo
Retention time: 7.781 min
Base peak: 361.2004
Precursor m/z: 361.201
Precursor type: [M+H]+
m/z	relative intensity	assigned
121.0642	8	C8H9O+
135.079	8	C9H11O+
147.079	90	C10H11O+
148.0832	13	C9[13]CH11O+
161.0943	9	C11H13O+
163.0743	7	C10H11O2+
163.1106	6	C11H15O+
165.0895	10	C10H13O2+
171.0789	25	C12H11O+
173.0945	39	C12H13O+
187.1094	5	C13H15O+
197.0938	8	C14H13O+
199.1107	14	C14H15O+
211.1096	5	C15H15O+
213.126	6	C15H17O+
223.1106	24	C16H15O+
225.1262	9	C16H17O+
227.1413	5	C16H19O+
237.1267	12	C17H17O+
239.1421	14	C17H19O+
241.1565	7	C17H21O+
249.1254	11	C18H17O+
251.1416	5	C18H19O+
263.1416	13	C19H19O+
265.1574	49	C19H21O+
266.1623	14	C18[13]CH21O+
267.1728	34	C19H23O+
268.1765	6	C18[13]CH23O+
269.1913	7	C19H25O+
277.1571	15	C20H21O+
279.1361	12	C19H19O2+
279.1736	58	C20H23O+
280.1783	13	C19[13]CH23O+
281.1519	10	C19H21O2+
283.1703	15	C19H23O2+
285.1862	10	C19H25O2+
289.1574	63	C21H21O+
290.1612	13	C20[13]CH21O+
295.1677	24	C20H23O2+
297.1836	30	C20H25O2+
298.1861	5	C19[13]CH25O2+
307.1686	196	C21H23O2+
308.1714	48	C20[13]CH23O2+
309.1833	10	C21H25O2+
313.1791	9	C20H25O3+
315.2007	5	C20H27O3+
325.1791	376	C21H25O3+
326.1821	85	C20[13]CH25O3+
327.193	22	C21H27O3+
328.1964	4	C21H28O3+
343.1901	999	C21H27O4+
344.1929	208	C20[13]CH27O4+
345.1974	33	C19[13]C2H27O4+
359.1828	6	C21H27O5+
361.2001	581	C21H29O5+
362.2038	140	C20[13]CH29O5+
