Mass spectrum: Galaxolide; LC-ESI-QTOF; MS2; CE: 10 eV; R=35000; [M+H]+
Name: Galaxolide
Name: Cyclopenta[g]-2-benzopyran, 1,3,4,6,7,8-hexahydro-4,6,6,7,8,8-hexamethyl-
Name: 4,6,6,7,8,8-hexamethyl-1,3,4,7-tetrahydrocyclopenta[g]isochromene
Formula: C18H26O
Exact mass: 258.1983655
SMILES: CC1C(C)(C)C2=CC3=C(C=C2C1(C)C)C(C)COC3
InChI: InChI=1S/C18H26O/c1-11-9-19-10-13-7-15-16(8-14(11)13)18(5,6)12(2)17(15,3)4/h7-8,11-12H,9-10H2,1-6H3
Instrument: Bruker maXis Impact
Instrument type: LC-ESI-QTOF
Ms type: MS2
Ion mode: POSITIVE
Ionization: ESI
Fragmentation mode: CID
Collision energy: 10 eV
Resolution: 35000
Column name: Acclaim RSLC C18 2.2um, 2.1x100mm, Thermo
Retention time: 13.473 min
Base peak: 259.2051
Precursor m/z: 259.2056
Precursor type: [M+H]+
m/z	relative intensity	assigned
133.1	7	C10H13+
161.0949	6	C11H13O+
175.1107	139	C12H15O+
176.1137	20	C11[13]CH15O+
257.1893	38	C18H25O+
258.1922	10	C17[13]CH25O+
259.2056	999	C18H27O+
260.2088	183	C17[13]CH27O+
261.2117	21	C16[13]C2H27O+
