Mass spectrum: JWH-018; LC-ESI-QTOF; MS2; CE: 30 eV; R=35000; [M+H]+
Name: JWH-018
Name: 1-Pentyl-3-(1-naphthoyl)indole
Name: naphthalen-1-yl-(1-pentylindol-3-yl)methanone
Formula: C24H23NO
Exact mass: 341.1779644
SMILES: CCCCCN1C=C(C2=CC=CC=C21)C(=O)C3=CC=CC4=CC=CC=C43
InChI: InChI=1S/C24H23NO/c1-2-3-8-16-25-17-22(20-13-6-7-15-23(20)25)24(26)21-14-9-11-18-10-4-5-12-19(18)21/h4-7,9-15,17H,2-3,8,16H2,1H3
Instrument: Bruker maXis Impact
Instrument type: LC-ESI-QTOF
Ms type: MS2
Ion mode: POSITIVE
Ionization: ESI
Fragmentation mode: CID
Collision energy: 30 eV
Resolution: 35000
Column name: Acclaim RSLC C18 2.2um, 2.1x100mm, Thermo
Retention time: 12.751 min
Base peak: 342.1882
Precursor m/z: 342.1852
Precursor type: [M+H]+
m/z	relative intensity	assigned
127.0549	38	C10H7+
144.0452	26	C9H6NO+
145.0657	63	C10H9O+
146.0692	6	C9[13]CH9O+
155.0505	999	C11H7O+
156.0536	106	C10[13]CH7O+
157.0561	6	C9[13]C2H7O+
214.1245	231	C14H16NO+
215.1275	30	C13[13]CH16NO+
342.1884	104	C24H24NO+
343.1913	28	C23[13]CH24NO+
