Mass spectrum: Citalopram; LC-ESI-QTOF; MS2; CE: 40 eV; R=35000; [M+H]+
Name: Citalopram
Name: 1-[3-(dimethylamino)propyl]-1-(4-fluorophenyl)-3H-2-benzofuran-5-carbonitrile
Formula: C20H21FN2O
Exact mass: 324.1637915
SMILES: CN(C)CCCC1(OCC2=C1C=CC(=C2)C#N)C1=CC=C(F)C=C1
InChI: InChI=1S/C20H21FN2O/c1-23(2)11-3-10-20(17-5-7-18(21)8-6-17)19-9-4-15(13-22)12-16(19)14-24-20/h4-9,12H,3,10-11,14H2,1-2H3
Instrument: Bruker maXis Impact
Instrument type: LC-ESI-QTOF
Ms type: MS2
Ion mode: POSITIVE
Ionization: ESI
Fragmentation mode: CID
Collision energy: 40 eV
Resolution: 35000
Column name: Acclaim RSLC C18 2.2um, 2.1x100mm, Thermo
Retention time: 6.6 min
Base peak: 278.2114
Precursor m/z: 325.1711
Precursor type: [M+H]+
m/z	relative intensity	assigned
109.0442	98	C7H6F+
110.0477	20	C5H6N2O+
115.0521	17	C9H7+
116.0486	193	C8H6N+
121.0443	23	C8H6F+
123.0233	42	C10H3+
128.0611	18	C10H8+
129.0693	76	C10H9+
130.0643	34	C9H8N+
133.0435	28	C9H6F+
139.0531	23	C11H7+
140.0491	158	C10H6N+
141.0529	34	C5H7N3O2+
142.0651	47	C10H8N+
144.0434	43	C9H6NO+
146.0531	23	C10H7F+
147.0613	22	C10H8F+
154.0644	62	C11H8N+
156.0802	132	C11H10N+
159.0589	33	C11H8F+
166.0641	502	C12H8N+
167.068	78	C7H9N3O2+
170.0568	16	C11H8NO+
183.0602	26	C13H8F+
190.064	25	C14H8N+
195.0595	30	C14H8F+
196.0654	15	C12H8N2O+
202.0773	25	C16H10+
203.073	18	C15H9N+
207.059	27	C15H8F+
208.0557	26	C14H7FN+
209.0597	20	C14H8FN+
209.0766	20	C15H10F+
215.0845	144	C17H11+
216.0841	32	C13H11FNO+
218.059	102	C15H8NO+
219.0619	18	C16H8F+
220.0672	141	C16H9F+
222.0694	235	C15H9FN+
223.0738	32	C13H9N3O+
227.0723	378	C17H9N+
228.0768	95	C16[13]CH9N+
233.0753	74	C17H10F+
234.0709	999	C16H9FN+
235.0753	196	C15[13]CH9FN+
236.0863	92	C16H11FN+
237.0564	24	C18H7N+
237.0932	17	C16H12FN+
238.0661	139	C15H9FNO+
239.0677	28	C18H9N+
240.08	122	C18H10N+
241.087	113	C18H11N+
242.0953	172	C18H12N+
243.0987	56	C18H13N+
244.0711	27	C18H9F+
245.072	43	C16H9N2O+
246.0714	226	C17H9FN+
247.0788	954	C17H10FN+
248.0827	146	C16[13]CH10FN+
249.0894	19	C17H12FN+
250.1037	104	C17H13FN+
251.105	23	C17H14FN+
260.0864	83	C18H11FN+
261.0941	122	C18H12FN+
262.1017	476	C18H13FN+
263.1061	97	C17[13]CH13FN+
307.1581	16	C20H20FN2+
325.1717	21	C20H22FN2O+
