Mass spectrum: Fumonisin B2; LC-ESI-QTOF; MS2; CE: 50 eV; R=35000; [M+H]+
Name: Fumonisin B2
Name: Fumonisin B2, Fusarium moniliforme
Name: 2-[2-[19-amino-6-(3,4-dicarboxybutanoyloxy)-16,18-dihydroxy-5,9-dimethylicosan-7-yl]oxy-2-oxoethyl]butanedioic acid
Class: Natural Product; Fungal metabolite
Formula: C34H59NO14
Exact mass: 705.3936
SMILES: CCCCC(C)C(C(CC(C)CCCCCCC(CC(C(C)N)O)O)OC(=O)CC(CC(=O)O)C(=O)O)OC(=O)CC(CC(=O)O)C(=O)O
InChI: InChI=1S/C34H59NO14/c1-5-6-12-21(3)32(49-31(43)18-24(34(46)47)16-29(40)41)27(48-30(42)17-23(33(44)45)15-28(38)39)14-20(2)11-9-7-8-10-13-25(36)19-26(37)22(4)35/h20-27,32,36-37H,5-19,35H2,1-4H3,(H,38,39)(H,40,41)(H,44,45)(H,46,47)
Instrument: Bruker maXis Impact
Instrument type: LC-ESI-QTOF
Ms type: MS2
Ion mode: POSITIVE
Ionization: ESI
Fragmentation mode: CID
Collision energy: 50 eV
Resolution: 35000
Column name: Acclaim RSLC C18 2.2um, 2.1x100mm, Thermo
Retention time: 10.398 min
Base peak: 706.4019
Precursor m/z: 706.4008
Precursor type: [M+H]+
m/z	relative intensity	assigned
141.017	93	C6H5O4+
147.117	62	C11H15+
159.0292	121	C6H7O5+
205.1983	48	C8H29O5+
238.2173	87	C15H28NO+
256.2269	68	C15H30NO2+
318.3157	824	C22H40N+
319.317	170	C4H49NO13+
336.3253	999	C22H42NO+
337.3283	366	C4H51NO14+
338.332	62	C11H48NO9+
354.3364	312	C22H44NO2+
355.3366	108	C26H43+
494.3465	60	C28H48NO6+
512.353	54	C25H52O10+
512.3644	104	C21H54NO12+
