Mass spectrum: N,N-Didesvenlafaxine; LC-ESI-QTOF; MS2; CE: 40 eV; R=35000; [M+H]+
Name: N,N-Didesvenlafaxine
Name: Dinorvenlafaxine
Formula: C15H23NO2
Exact mass: 249.1728790
SMILES: COC1=CC=C(C=C1)C(CN)C1(O)CCCCC1
InChI: InChI=1S/C15H23NO2/c1-18-13-7-5-12(6-8-13)14(11-16)15(17)9-3-2-4-10-15/h5-8,14,17H,2-4,9-11,16H2,1H3
Instrument: Bruker maXis Impact
Instrument type: LC-ESI-QTOF
Ms type: MS2
Ion mode: POSITIVE
Ionization: ESI
Fragmentation mode: CID
Collision energy: 40 eV
Resolution: 35000
Column name: Acclaim RSLC C18 2.2um, 2.1x100mm, Thermo
Retention time: 6.2 min
Base peak: 250.1801
Precursor m/z: 250.1802
Precursor type: [M+H]+
m/z	relative intensity	assigned
115.0534	118	C9H7+
116.0614	16	C9H8+
117.0678	51	C9H9+
118.0654	17	C8H8N+
119.0846	33	C9H11+
121.0639	999	C8H9O+
122.0676	92	C7[13]CH9O+
127.0534	17	C10H7+
128.0618	76	C10H8+
129.0683	75	C10H9+
130.0755	15	C10H10+
131.0486	65	C9H7O+
132.0562	127	C9H8O+
133.0623	35	C9H9O+
135.0667	19	C8H9NO+
135.0796	64	C9H11O+
141.0683	51	C11H9+
142.0762	21	C11H10+
143.0839	15	C11H11+
144.0558	99	C10H8O+
145.0639	74	C10H9O+
146.0709	32	C10H10O+
147.0789	454	C10H11O+
148.0831	51	C9[13]CH11O+
155.0854	17	C12H11+
158.0718	196	C11H10O+
159.0788	194	C11H11O+
160.0849	36	C6H12N2O3+
161.095	67	C11H13O+
171.0801	16	C12H11O+
172.0865	21	C12H12O+
173.0945	169	C12H13O+
174.1	41	C7H14N2O3+
