Mass spectrum: Fenuron; LC-ESI-QTOF; MS2; CE: 20 eV; R=35000; [M+H]+
Name: Fenuron
Name: 1,1-dimethyl-3-phenylurea
Formula: C9H12N2O
Exact mass: 164.0949630
SMILES: CN(C)C(=O)NC1=CC=CC=C1
InChI: InChI=1S/C9H12N2O/c1-11(2)9(12)10-8-6-4-3-5-7-8/h3-7H,1-2H3,(H,10,12)
Instrument: Bruker maXis Impact
Instrument type: LC-ESI-QTOF
Ms type: MS2
Ion mode: POSITIVE
Ionization: ESI
Fragmentation mode: CID
Collision energy: 20 eV
Resolution: 35000
Column name: Acclaim RSLC C18 2.2um, 2.1x100mm, Thermo
Retention time: 5.097 min
Base peak: 165.1021
Precursor m/z: 165.1022
Precursor type: [M+H]+
m/z	relative intensity	assigned
120.0436	280	C7H6NO+
121.0473	17	C6[13]CH6NO+
165.1013	999	C9H13N2O+
166.1043	100	C8[13]CH13N2O+
