Mass spectrum: Atorvastatin; LC-ESI-QTOF; MS2; CE: 50 eV; R=35000; [M+H]+
Name: Atorvastatin
Name: atorvastatin
Name: (3R,5R)-7-[2-(4-fluorophenyl)-3-phenyl-4-(phenylcarbamoyl)-5-propan-2-ylpyrrol-1-yl]-3,5-dihydroxyheptanoic acid
Formula: C33H35FN2O5
Exact mass: 558.2530004
SMILES: CC(C)c1c(c(c(n1CC[C@H](C[C@H](CC(=O)O)O)O)c2ccc(cc2)F)c3ccccc3)/C(=N/c4ccccc4)/O
InChI: InChI=1S/C33H35FN2O5/c1-21(2)31-30(33(41)35-25-11-7-4-8-12-25)29(22-9-5-3-6-10-22)32(23-13-15-24(34)16-14-23)36(31)18-17-26(37)19-27(38)20-28(39)40/h3-16,21,26-27,37-38H,17-20H2,1-2H3,(H,35,41)(H,39,40)/t26-,27-/m1/s1
Instrument: Bruker maXis Impact
Instrument type: LC-ESI-QTOF
Ms type: MS2
Ion mode: POSITIVE
Ionization: ESI
Fragmentation mode: CID
Collision energy: 50 eV
Resolution: 35000
Column name: Acclaim RSLC C18 2.2um, 2.1x100mm, Thermo
Retention time: 10.074 min
Base peak: 559.2651
Precursor m/z: 559.2603
Precursor type: [M+H]+
m/z	relative intensity	assigned
120.0447	7	C7H6NO+
223.0946	5	C12H15O4+
233.0781	10	C17H10F+
235.083	7	C12H13NO4+
237.097	10	C16H12FN+
238.1047	72	C16H13FN+
239.1071	11	C15[13]CH13FN+
248.0893	16	C17H11FN+
249.0971	68	C17H12FN+
250.1051	999	C13H16NO4+
251.1087	172	C12[13]CH16NO4+
252.1186	36	C17H15FN+
253.1232	5	C16[13]CH15FN+
262.1045	43	C18H13FN+
263.1087	12	C17[13]CH13FN+
264.0841	13	C17H11FNO+
264.1205	19	C18H15FN+
275.1143	6	C15H17NO4+
276.0852	36	C14H14NO5+
276.1209	321	C15H18NO4+
277.0941	8	C13[13]CH14NO5+
277.1251	72	C19H16FN+
278.0989	6	C18H13FNO+
278.133	13	C18[13]CH16FN+
279.1438	18	C19H18FN+
280.1522	30	C15H22NO4+
281.157	5	C14[13]CH22NO4+
288.1218	7	C16H18NO4+
289.1332	7	C19H17N2O+
290.1357	15	C20H17FN+
291.1424	7	C20H18FN+
292.1524	298	C16H22NO4+
293.1555	61	C15[13]CH22NO4+
294.1333	10	C15H20NO5+
294.1673	35	C20H21FN+
295.1712	8	C19[13]CH21FN+
300.1213	5	C17H18NO4+
302.1007	12	C16H16NO5+
302.1368	41	C17H20NO4+
303.1044	5	C23H13N+
304.1522	6	C17H22NO4+
306.1315	42	C16H20NO5+
307.1328	8	C15[13]CH20NO5+
316.1518	17	C22H19FN+
317.1561	5	C21[13]CH19FN+
318.1314	26	C17H20NO5+
318.1681	47	C18H24NO4+
319.1709	9	C17[13]CH24NO4+
320.1107	5	C20H15FNO2+
320.1476	49	C17H22NO5+
321.1524	13	C16[13]CH22NO5+
334.128	6	C20H18N2O3+
336.1783	18	C18H26NO5+
342.1353	6	C22H18N2O2+
344.1465	25	C23H19FNO+
345.1537	6	C22[13]CH19FNO+
346.1278	6	C21H18N2O3+
360.1422	6	C23H19FNO2+
361.1524	7	C22H21N2O3+
362.1585	112	C23H21FNO2+
362.1935	11	C24H25FNO+
363.1619	33	C22[13]CH21FNO2+
379.1624	12	C26H20FN2+
380.1686	114	C26H21FN2+
380.2051	15	C24H27FNO2+
381.1711	29	C25[13]CH21FN2+
398.1822	15	C22H26N2O5+
404.207	16	C25H28N2O3+
405.211	6	C24[13]CH28N2O3+
406.1862	22	C28H23FN2+
407.1922	5	C27[13]CH23FN2+
422.2152	31	C29H27FN2+
423.2214	10	C28[13]CH27FN2+
424.1594	7	C27H21FN2O2+
440.2273	54	C29H29FN2O+
441.2281	16	C28[13]CH29FN2O+
466.2073	78	C30H27FN2O2+
467.2084	25	C30H29NO4+
468.2185	5	C29[13]CH29NO4+
