Mass spectrum: Diflufenican; LC-ESI-QTOF; MS2; CE: 20 eV; R=35000; [M-H]-
Name: Diflufenican
Name: N-(2,4-difluorophenyl)-2-[3-(trifluoromethyl)phenoxy]pyridine-3-carboxamide
Formula: C19H11F5N2O2
Exact mass: 394.0740687
SMILES: FC1=CC=C(NC(=O)C2=CC=CN=C2OC2=CC=CC(=C2)C(F)(F)F)C(F)=C1
InChI: InChI=1S/C19H11F5N2O2/c20-12-6-7-16(15(21)10-12)26-17(27)14-5-2-8-25-18(14)28-13-4-1-3-11(9-13)19(22,23)24/h1-10H,(H,26,27)
Instrument: Bruker maXis Impact
Instrument type: LC-ESI-QTOF
Ms type: MS2
Ion mode: NEGATIVE
Ionization: ESI
Fragmentation mode: CID
Collision energy: 20 eV
Resolution: 35000
Column name: Acclaim RSLC C18 2.2um, 2.1x100mm, Thermo
Retention time: 11.720 min
Base peak: 393.0662
Precursor m/z: 393.0668
Precursor type: [M-H]-
m/z	relative intensity	assigned
161.0214	118	C7H4F3O-
162.0276	11	C6[13]CH4F3O-
185.0506	34	C11H6FN2-
218.0453	10	C9H7F3NO2-
229.0391	16	C10H5F4N2-
238.0507	32	C9H8F4NO2-
252.044	40	C13H6F4N-
272.0506	999	C13H7F5N-
273.0528	115	C12[13]CH7F5N-
274.056	12	C11[13]C2H7F5N-
302.0686	6	C13H10F4N2O2-
309.0645	30	C18H8F3N2-
310.0666	8	C17[13]CH8F3N2-
325.0574	11	C18H8F3N2O-
329.0688	151	C18H9F4N2-
330.0727	27	C17[13]CH9F4N2-
345.0676	8	C15H10F5N2O2-
353.0492	42	C19H8F3N2O2-
354.0559	7	C18[13]CH8F3N2O2-
355.0529	6	C16H8F5N2O2-
373.0597	53	C19H9F4N2O2-
374.0658	14	C18[13]CH9F4N2O2-
393.0609	15	C19H10F5N2O2-
