Mass spectrum: Fosinopril; LC-ESI-QTOF; MS2; CE: 50 eV; R=35000; [M+H]+
Name: Fosinopril
Name: (2S,4S)-4-cyclohexyl-1-[2-[(2-methyl-1-propanoyloxypropoxy)-(4-phenylbutyl)phosphoryl]acetyl]pyrrolidine-2-carboxylic acid
Formula: C30H46NO7P
Exact mass: 563.3011894
SMILES: O=C(CP(=O)(CCCCc1ccccc1)OC(OC(=O)CC)C(C)C)N2C[C@@H](C[C@H]2C(O)=O)C3CCCCC3
InChI: InChI=1S/C30H46NO7P/c1-4-28(33)37-30(22(2)3)38-39(36,18-12-11-15-23-13-7-5-8-14-23)21-27(32)31-20-25(19-26(31)29(34)35)24-16-9-6-10-17-24/h5,7-8,13-14,22,24-26,30H,4,6,9-12,15-21H2,1-3H3,(H,34,35)/t25-,26+,30?,39?/m1/s1
Instrument: Bruker maXis Impact
Instrument type: LC-ESI-QTOF
Ms type: MS2
Ion mode: POSITIVE
Ionization: ESI
Fragmentation mode: CID
Collision energy: 50 eV
Resolution: 35000
Column name: Acclaim RSLC C18 2.2um, 2.1x100mm, Thermo
Retention time: 12.313 min
Base peak: 564.3118
Precursor m/z: 564.3085
Precursor type: [M+H]+
m/z	relative intensity	assigned
152.1442	999	C10H18N+
153.1473	87	C9[13]CH18N+
176.1434	8	C12H18N+
179.0627	9	C10H12OP+
194.1542	7	C12H20NO+
197.0734	25	C10H14O2P+
198.1495	19	C11H20NO2+
221.0738	25	C12H14O2P+
239.0847	9	C19H11+
348.2097	14	C20H31NO2P+
372.2102	14	C22H31NO2P+
390.2217	82	C29H28N+
391.2253	22	C28[13]CH28N+
418.2189	5	C30H28NO+
