Mass spectrum: Mebendazole; LC-ESI-QTOF; MS2; CE: Ramp 21.5-32.2 eV; R=35000; [M+H]+
Name: Mebendazole
Name: methyl N-(6-benzoyl-1H-benzimidazol-2-yl)carbamate
Formula: C16H13N3O3
Exact mass: 295.0957
SMILES: COC(=O)Nc1[nH]c2ccc(cc2n1)C(=O)c3ccccc3
InChI: InChI=1S/C16H13N3O3/c1-22-16(21)19-15-17-12-8-7-11(9-13(12)18-15)14(20)10-5-3-2-4-6-10/h2-9H,1H3,(H2,17,18,19,21)
Instrument: Bruker maXis Impact
Instrument type: LC-ESI-QTOF
Ms type: MS2
Ion mode: POSITIVE
Ionization: ESI
Fragmentation mode: CID
Collision energy: Ramp 21.5-32.2 eV
Resolution: 35000
Column name: Acclaim RSLC C18 2.2um, 2.1x100mm, Thermo
Retention time: 8.3 min
Base peak: 296.1045
Precursor m/z: 296.103
Precursor type: [M+H]+
m/z	relative intensity	assigned
105.0336	15	C7H5O+
186.0306	6	C11H6O3+
264.078	999	C15H10N3O2+
265.0811	200	C15H11N3O2+
266.084	17	C16H12NO3+
296.1045	223	C16H14N3O3+
297.1071	40	C15H13N4O3+
