Mass spectrum: Dibutyl phthalate; GC-APCI-QTOF; MS2; CE: 50 eV; R=35000; [M+H]+
Name: Dibutyl phthalate
Formula: C16H22O4
Exact mass: 278.1518
SMILES: CCCCOC(=O)C1=CC=CC=C1C(=O)OCCCC
InChI: InChI=1S/C16H22O4/c1-3-5-11-19-15(17)13-9-7-8-10-14(13)16(18)20-12-6-4-2/h7-10H,3-6,11-12H2,1-2H3
Instrument: Bruker 450 GC coupled to maXis Impact
Instrument type: GC-APCI-QTOF
Ms type: MS2
Ion mode: POSITIVE
Ionization: APCI
Fragmentation mode: CID
Collision energy: 50 eV
Resolution: 35000
Column name: Rxi-5Sil MS column, 30m, 0.25mm i.d., 0.25Âµm film thickness, Restek
Retention time: 17.559 min
Base peak: 281.2458
Precursor m/z: 279.1591
Precursor type: [M+H]+
m/z	relative intensity	assigned
55.0547	253	C4H7+
57.0708	36	C4H9+
65.0381	62	C5H5+
67.0541	168	C5H7+
69.0709	70	C5H9+
79.0544	28	C6H7+
81.0698	51	C6H9+
91.0525	42	C7H7+
105.069	30	C8H9+
119.0852	77	C9H11+
121.0279	468	C7H5O2+
149.0255	999	C8H5O3+
150.0281	110	C8H6O3+
