Mass spectrum: Fipronil sulfide; LC-ESI-QTOF; MS2; CE: 30 eV; R=35000; [M-H]-
Name: Fipronil sulfide
Name: 5-amino-1-[2,6-dichloro-4-(trifluoromethyl)phenyl]-4-(trifluoromethylsulfanyl)pyrazole-3-carbonitrile
Formula: C12H4Cl2F6N4S
Exact mass: 419.9437918
SMILES: NC1=C(SC(F)(F)F)C(=NN1C1=C(Cl)C=C(C=C1Cl)C(F)(F)F)C#N
InChI: InChI=1S/C12H4Cl2F6N4S/c13-5-1-4(11(15,16)17)2-6(14)8(5)24-10(22)9(7(3-21)23-24)25-12(18,19)20/h1-2H,22H2
Instrument: Bruker maXis Impact
Instrument type: LC-ESI-QTOF
Ms type: MS2
Ion mode: NEGATIVE
Ionization: ESI
Fragmentation mode: CID
Collision energy: 30 eV
Resolution: 35000
Column name: Acclaim RSLC C18 2.2um, 2.1x100mm, Thermo
Retention time: 10.643 min
Base peak: 418.9361
Precursor m/z: 418.9365
Precursor type: [M-H]-
m/z	relative intensity	assigned
150.0034	15	C7F2N2-
170.0099	494	C7HF3N2-
171.0122	23	C6[13]CHF3N2-
217.9865	249	C8H2ClF3N2-
218.9894	13	C7[13]CH2ClF3N2-
219.9835	43	C8H2[37]ClF3N2-
233.981	88	C11HClF2N2-
234.9836	6	C10[13]CHClF2N2-
235.9775	19	C11H[37]ClF2N2-
245.9804	18	C12HClF2N2-
247.978	5	C12H[37]ClF2N2-
249.9587	31	C8H2ClF3N2S-
251.9562	8	C8H2[37]ClF3N2S-
261.9587	999	C9H2ClF3N2S-
262.9604	59	C8[13]CH2ClF3N2S-
263.9556	228	C9H2[37]ClF3N2S-
264.9575	11	C12H2ClF2NS-
313.9641	161	C11H2ClF3N4S-
314.9655	14	C10[13]CH2ClF3N4S-
315.9611	42	C11H2[37]ClF3N4S-
330.9519	11	C12H3Cl2F6-
382.9584	31	C12H2ClF6N4S-
384.9573	7	C12H2[37]ClF6N4S-
