Mass spectrum: Methylprednisolone; LC-ESI-QTOF; MS2; CE: 50 eV; R=35000; [M+H]+
Name: Methylprednisolone
Name: methylprednisolone
Name: (6S,8S,9S,10R,11S,13S,14S,17R)-11,17-dihydroxy-17-(2-hydroxyacetyl)-6,10,13-trimethyl-7,8,9,11,12,14,15,16-octahydro-6H-cyclopenta[a]phenanthren-3-one
Formula: C22H30O5
Exact mass: 374.2093241
SMILES: C[C@H]1C[C@H]2[C@@H]3CC[C@@]([C@]3(C[C@@H]([C@@H]2[C@@]4(C1=CC(=O)C=C4)C)O)C)(C(=O)CO)O
InChI: InChI=1S/C22H30O5/c1-12-8-14-15-5-7-22(27,18(26)11-23)21(15,3)10-17(25)19(14)20(2)6-4-13(24)9-16(12)20/h4,6,9,12,14-15,17,19,23,25,27H,5,7-8,10-11H2,1-3H3/t12-,14-,15-,17-,19+,20-,21-,22-/m0/s1
Instrument: Bruker maXis Impact
Instrument type: LC-ESI-QTOF
Ms type: MS2
Ion mode: POSITIVE
Ionization: ESI
Fragmentation mode: CID
Collision energy: 50 eV
Resolution: 35000
Column name: Acclaim RSLC C18 2.2um, 2.1x100mm, Thermo
Retention time: 8.619 min
Base peak: 375.2204
Precursor m/z: 375.2166
Precursor type: [M+H]+
m/z	relative intensity	assigned
115.0555	217	C9H7+
116.0622	52	C9H8+
117.071	125	C9H9+
119.0498	9	C8H7O+
119.086	119	C9H11+
121.0657	530	C8H9O+
122.0691	61	C7[13]CH9O+
123.0818	27	C8H11O+
127.0558	21	C10H7+
128.0626	187	C10H8+
129.0704	205	C10H9+
130.0785	71	C10H10+
131.05	80	C9H7O+
131.0862	186	C10H11+
132.0571	42	C9H8O+
132.0903	31	C9[13]CH11+
133.0654	61	C9H9O+
133.102	188	C10H13+
134.0695	10	C9H10O+
134.1061	17	C9[13]CH13+
135.0815	813	C9H11O+
136.0848	73	C8[13]CH11O+
137.0603	45	C8H9O2+
137.0963	16	C9H13O+
139.0764	14	C8H11O2+
141.0712	190	C11H9+
142.079	183	C11H10+
143.0862	181	C11H11+
144.0577	87	C10H8O+
144.0937	50	C11H12+
145.0656	358	C10H9O+
145.1022	126	C11H13+
146.0732	288	C10H10O+
146.107	19	C11H14+
147.0808	171	C10H11O+
147.1173	29	C11H15+
148.0862	26	C9[13]CH11O+
149.0974	44	C10H13O+
152.064	55	C12H8+
153.0707	66	C12H9+
154.0779	41	C12H10+
155.0866	116	C12H11+
156.0946	39	C12H12+
157.0664	96	C11H9O+
157.102	144	C12H13+
158.0736	339	C11H10O+
158.1066	24	C11[13]CH13+
159.0813	517	C11H11O+
159.1176	51	C12H15+
160.0878	108	C11H12O+
160.1224	10	C12H16+
161.0973	999	C11H13O+
162.1007	98	C10[13]CH13O+
163.1142	10	C11H15O+
165.0714	124	C13H9+
165.094	14	C10H13O2+
166.078	112	C13H10+
167.0869	84	C13H11+
168.057	12	C12H8O+
168.0938	54	C13H12+
169.0657	55	C12H9O+
169.1029	67	C13H13+
170.0739	93	C12H10O+
170.1092	15	C13H14+
171.0818	263	C12H11O+
171.1181	42	C13H15+
172.0889	290	C12H12O+
173.0969	304	C12H13O+
174.1011	42	C11[13]CH13O+
175.1135	66	C12H15O+
176.1175	16	C12H16O+
177.0717	17	C14H9+
177.0942	26	C11H13O2+
178.0786	120	C14H10+
179.0862	108	C14H11+
180.0949	72	C14H12+
181.0667	118	C13H9O+
181.1026	89	C14H13+
182.073	77	C13H10O+
182.1082	28	C14H14+
183.0826	99	C13H11O+
183.1184	50	C14H15+
184.09	73	C13H12O+
185.0976	774	C13H13O+
186.1021	152	C12[13]CH13O+
187.1133	300	C13H15O+
188.1169	42	C12[13]CH15O+
189.0719	24	C15H9+
189.092	67	C12H13O2+
189.1314	19	C13H17O+
190.0799	20	C15H10+
191.0873	51	C15H11+
192.095	69	C15H12+
193.1027	162	C15H13+
194.0744	42	C14H10O+
194.108	64	C15H14+
195.0819	245	C14H11O+
195.1184	57	C15H15+
196.0894	329	C14H12O+
196.1232	17	C15H16+
197.0974	205	C14H13O+
197.1327	15	C15H17+
198.1043	66	C14H14O+
199.1129	90	C14H15O+
200.1167	16	C14H16O+
201.0957	9	C13H13O2+
201.1246	9	C14H17O+
202.0793	23	C16H10+
203.0873	48	C16H11+
204.0951	52	C16H12+
205.0664	15	C15H9O+
205.1019	92	C16H13+
206.0752	16	C15H10O+
206.1096	86	C16H14+
207.0821	57	C15H11O+
207.1175	71	C16H15+
208.0897	164	C15H12O+
208.1243	22	C16H16+
209.0974	471	C15H13O+
209.1358	24	C9H21O5+
210.104	292	C15H14O+
211.1132	512	C15H15O+
212.0842	9	C14H12O2+
212.1181	131	C14[13]CH15O+
213.1282	68	C15H17O+
214.1331	15	C15H18O+
215.089	22	C10H15O5+
216.095	32	C17H12+
217.1038	46	C17H13+
218.0745	12	C16H10O+
218.1094	45	C17H14+
219.0819	45	C16H11O+
219.119	54	C17H15+
220.0884	41	C16H12O+
220.1267	86	C17H16+
221.0985	141	C16H13O+
221.133	43	C17H17+
222.1052	254	C16H14O+
223.1137	383	C16H15O+
224.121	167	C16H16O+
225.0894	12	C15H13O2+
225.1292	153	C16H17O+
226.1333	30	C15[13]CH17O+
227.1436	17	C16H19O+
229.1039	19	C18H13+
230.109	23	C18H14+
231.0816	31	C17H11O+
231.1178	32	C18H15+
232.0884	44	C17H12O+
232.1255	10	C18H16+
233.0984	81	C17H13O+
233.1346	34	C18H17+
234.1048	66	C17H14O+
234.1394	12	C18H18+
235.1136	147	C17H15O+
235.1493	26	C18H19+
236.1203	169	C17H16O+
237.1291	207	C17H17O+
238.102	12	C16H14O2+
238.1366	158	C17H18O+
239.1436	64	C17H19O+
240.1503	28	C17H20O+
243.1174	12	C19H15+
244.0887	9	C18H12O+
244.1282	8	C12H20O5+
245.098	46	C18H13O+
245.1367	16	C12H21O5+
246.1049	39	C18H14O+
247.1146	76	C18H15O+
247.1526	12	C12H23O5+
248.1208	63	C18H16O+
248.152	8	C19H20+
249.0937	15	C17H13O2+
249.1292	100	C18H17O+
250.1011	9	C17H14O2+
250.1365	75	C18H18O+
251.11	18	C17H15O2+
251.1453	147	C18H19O+
252.1149	11	C17H16O2+
252.1499	27	C17[13]CH19O+
253.1617	82	C18H21O+
254.1627	15	C17[13]CH21O+
255.1208	14	C13H19O5+
258.1049	22	C19H14O+
259.1138	63	C19H15O+
260.1232	28	C19H16O+
261.1279	56	C19H17O+
262.1356	35	C19H18O+
263.1448	55	C19H19O+
263.1813	76	C20H23+
264.1148	17	C18H16O2+
264.1535	32	C19H20O+
264.1835	15	C19[13]CH23+
265.1619	342	C19H21O+
266.1644	76	C18[13]CH21O+
267.1383	14	C18H19O2+
267.1659	8	C18[13]CH22O+
273.1305	57	C20H17O+
274.1366	21	C20H18O+
275.144	22	C20H19O+
276.1482	8	C20H20O+
277.1248	12	C19H17O2+
277.1609	14	C20H21O+
278.172	15	C20H22O+
279.1417	13	C19H19O2+
279.1787	46	C20H23O+
280.1445	9	C19H20O2+
280.1832	48	C20H24O+
287.1459	13	C21H19O+
288.1546	17	C21H20O+
291.1388	8	C20H19O2+
293.1546	15	C20H21O2+
294.159	8	C20H22O2+
