Mass spectrum: Butyl methacrylate; GC-APCI-QTOF; MS2; CE: 10 eV; R=35000; [M]+
Name: Butyl methacrylate
Formula: C8H14O2
Exact mass: 142.0994
SMILES: CCCCOC(=O)C(=C)C
InChI: InChI=1S/C8H14O2/c1-4-5-6-10-8(9)7(2)3/h2,4-6H2,1,3H3
Instrument: Bruker 450 GC coupled to maXis Impact
Instrument type: GC-APCI-QTOF
Ms type: MS2
Ion mode: POSITIVE
Ionization: APCI
Fragmentation mode: CID
Collision energy: 10 eV
Resolution: 35000
Column name: Rxi-5Sil MS column, 30m, 0.25mm i.d., 0.25Âµm film thickness, Restek
Retention time: 7.086 min
Base peak: 142.0998
Precursor m/z: 142.0988
Precursor type: [M]+
m/z	relative intensity	assigned
57.0701	203	C4H9+
59.0478	156	C3H7O+
87.0435	290	C4H7O2+
124.0905	151	C8H12O+
141.0931	511	C8H13O2+
142.1005	999	C8H14O2+
