Mass spectrum: Atazanavir; LC-ESI-QTOF; MS2; CE: 40 eV; R=35000; [M+H]+
Name: Atazanavir
Name: methyl N-[(2S)-1-[2-[(2S,3S)-2-hydroxy-3-[[(2S)-2-(methoxycarbonylamino)-3,3-dimethylbutanoyl]amino]-4-phenylbutyl]-2-[(4-pyridin-2-ylphenyl)methyl]hydrazinyl]-3,3-dimethyl-1-oxobutan-2-yl]carbamate
Formula: C38H52N6O7
Exact mass: 704.3897480
SMILES: CC(C)(C)[C@@H](C(=O)N[C@@H](Cc1ccccc1)[C@H](CN(Cc2ccc(cc2)c3ccccn3)NC(=O)[C@H](C(C)(C)C)NC(=O)OC)O)NC(=O)OC
InChI: InChI=1S/C38H52N6O7/c1-37(2,3)31(41-35(48)50-7)33(46)40-29(22-25-14-10-9-11-15-25)30(45)24-44(43-34(47)32(38(4,5)6)42-36(49)51-8)23-26-17-19-27(20-18-26)28-16-12-13-21-39-28/h9-21,29-32,45H,22-24H2,1-8H3,(H,40,46)(H,41,48)(H,42,49)(H,43,47)/t29-,30-,31+,32+/m0/s1
Instrument: Bruker maXis Impact
Instrument type: LC-ESI-QTOF
Ms type: MS2
Ion mode: POSITIVE
Ionization: ESI
Fragmentation mode: CID
Collision energy: 40 eV
Resolution: 35000
Column name: Acclaim RSLC C18 2.2um, 2.1x100mm, Thermo
Retention time: 10.799 min
Base peak: 705.4008
Precursor m/z: 705.397
Precursor type: [M+H]+
m/z	relative intensity	assigned
120.0811	10	C8H10N+
144.1025	67	C7H14NO2+
146.0969	8	C10H12N+
167.0734	30	C12H9N+
168.0815	999	C12H10N+
169.0853	88	C11[13]CH10N+
311.1773	9	C19H23N2O2+
322.1932	5	C22H26O2+
328.1823	10	C24H24O+
335.1992	583	C21H25N3O+
336.2021	92	C15H30NO7+
337.2041	10	C14[13]CH30NO7+
363.2201	7	C24H29NO2+
371.21	7	C23H25N5+
424.2412	16	C30H32O2+
425.2434	6	C29[13]CH32O2+
499.274	10	C35H35N2O+
502.2821	5	C31H38N2O4+
516.301	6	C35H38N3O+
534.3115	108	C35H40N3O2+
535.314	39	C30H41N5O4+
536.3177	5	C29[13]CH41N5O4+
612.3595	14	C32H48N6O6+
613.3627	6	C31[13]CH48N6O6+
705.4019	20	C38H53N6O7+
706.4056	11	C37[13]CH53N6O7+
