Mass spectrum: Aldosterone; LC-ESI-QTOF; MS2; CE: 50 eV; R=35000; [M+H]+
Name: Aldosterone
Name: (8S,9S,10R,11S,13R,14S,17S)-11-hydroxy-17-(2-hydroxyacetyl)-10-methyl-3-oxo-1,2,6,7,8,9,11,12,14,15,16,17-dodecahydrocyclopenta[a]phenanthrene-13-carbaldehyde
Formula: C21H28O5
Exact mass: 360.1936740
SMILES: [H][C@@]12CC[C@H](C(=O)CO)[C@]1(C[C@H](O)[C@@]1([H])[C@@]2([H])CCC2=CC(=O)CC[C@]12C)C=O
InChI: InChI=1S/C21H28O5/c1-20-7-6-13(24)8-12(20)2-3-14-15-4-5-16(18(26)10-22)21(15,11-23)9-17(25)19(14)20/h8,11,14-17,19,22,25H,2-7,9-10H2,1H3/t14-,15-,16+,17-,19+,20-,21+/m0/s1
Instrument: Bruker maXis Impact
Instrument type: LC-ESI-QTOF
Ms type: MS2
Ion mode: POSITIVE
Ionization: ESI
Fragmentation mode: CID
Collision energy: 50 eV
Resolution: 35000
Column name: Acclaim RSLC C18 2.2um, 2.1x100mm, Thermo
Retention time: 7.772 min
Base peak: 361.2008
Precursor m/z: 361.201
Precursor type: [M+H]+
m/z	relative intensity	assigned
115.0542	129	C9H7+
116.06	31	C9H8+
117.0691	91	C9H9+
119.0846	172	C9H11+
120.0882	20	C8[13]CH11+
121.0639	627	C8H9O+
122.067	61	C7[13]CH9O+
123.0803	53	C8H11O+
127.0531	19	C10H7+
128.0608	261	C10H8+
129.0685	264	C10H9+
130.0753	91	C10H10+
131.0478	76	C9H7O+
131.0847	203	C10H11+
132.0557	214	C9H8O+
132.0889	34	C9[13]CH11+
133.0632	76	C9H9O+
133.1006	75	C10H13+
135.0792	159	C9H11O+
135.1169	16	C10H15+
136.0842	23	C8[13]CH11O+
137.0572	13	C8H9O2+
141.0689	149	C11H9+
142.0753	97	C11H10+
143.0845	207	C11H11+
144.0558	82	C10H8O+
145.0629	254	C10H9O+
145.0997	270	C11H13+
146.0706	99	C10H10O+
146.1044	29	C10[13]CH13+
147.0793	999	C10H11O+
147.1158	79	C11H15+
148.0831	102	C9[13]CH11O+
149.0935	46	C10H13O+
150.1054	14	C10H14O+
152.0603	47	C12H8+
153.0673	86	C12H9+
154.0766	50	C12H10+
155.0844	190	C12H11+
156.0907	50	C12H12+
157.0636	98	C11H9O+
157.0992	109	C12H13+
158.0709	458	C11H10O+
159.0788	301	C11H11O+
159.1157	65	C12H15+
160.0858	52	C10[13]CH11O+
161.0948	117	C11H13O+
163.0747	32	C10H11O2+
163.1106	53	C11H15O+
165.0688	139	C13H9+
166.0751	64	C13H10+
167.0841	79	C13H11+
168.0545	15	C12H8O+
168.0915	44	C13H12+
169.0632	64	C12H9O+
169.0998	104	C13H13+
170.0712	52	C12H10O+
170.1061	13	C12[13]CH13+
171.0791	850	C12H11O+
172.0836	111	C11[13]CH11O+
172.1228	23	C13H16+
173.0951	482	C12H13O+
174.0989	67	C11[13]CH13O+
175.1105	34	C12H15O+
176.1167	12	C12H16O+
177.0685	12	C14H9+
177.0905	12	C11H13O2+
178.0771	77	C14H10+
179.0847	125	C14H11+
180.0904	79	C14H12+
181.0631	75	C13H9O+
181.0997	75	C14H13+
182.0705	75	C13H10O+
182.1068	32	C14H14+
183.0787	76	C13H11O+
183.1163	50	C14H15+
184.0865	43	C13H12O+
184.1184	12	C13[13]CH15+
185.0941	136	C13H13O+
185.1301	33	C14H17+
186.1015	28	C12[13]CH13O+
187.1103	37	C13H15O+
189.0697	34	C15H9+
189.1248	19	C13H17O+
190.0765	66	C15H10+
191.0836	72	C15H11+
192.0923	70	C15H12+
193.0999	89	C15H13+
194.0708	28	C14H10O+
194.1053	49	C15H14+
195.0782	200	C14H11O+
195.1156	76	C15H15+
196.0867	142	C14H12O+
196.121	35	C15H16+
197.0944	161	C14H13O+
197.1324	43	C15H17+
198.1018	75	C14H14O+
199.1106	59	C14H15O+
199.1488	26	C15H19+
200.1176	13	C14H16O+
201.126	14	C14H17O+
202.0765	16	C16H10+
203.0843	46	C16H11+
204.0916	48	C16H12+
205.0993	105	C16H13+
206.0737	12	C15H10O+
206.1076	63	C16H14+
207.0803	67	C15H11O+
207.1165	67	C16H15+
208.087	247	C15H12O+
208.1259	14	C15[13]CH15+
209.0941	245	C15H13O+
209.1296	43	C16H17+
210.1019	124	C15H14O+
211.1101	179	C15H15O+
211.1461	16	C16H19+
212.117	36	C14[13]CH15O+
213.1258	33	C15H17O+
215.0849	20	C17H11+
216.0904	33	C17H12+
217.0994	45	C17H13+
218.0705	12	C16H10O+
218.1069	32	C17H14+
219.0784	37	C16H11O+
219.1181	31	C17H15+
220.0854	25	C16H12O+
220.1226	20	C17H16+
221.0946	113	C16H13O+
221.1315	23	C17H17+
222.102	155	C16H14O+
223.1101	268	C16H15O+
223.1481	20	C17H19+
224.1172	96	C16H16O+
225.1247	63	C16H17O+
226.1346	44	C16H18O+
227.1415	24	C16H19O+
228.0927	20	C18H12+
228.1482	24	C16H20O+
229.0998	17	C18H13+
230.109	18	C18H14+
231.079	35	C17H11O+
231.1164	40	C18H15+
232.0861	37	C17H12O+
232.1246	17	C18H16+
233.0952	76	C17H13O+
233.1312	21	C18H17+
234.1025	73	C17H14O+
234.1448	14	C11H22O5+
235.1102	63	C17H15O+
236.1169	62	C17H16O+
237.1264	95	C17H17O+
238.1321	42	C17H18O+
239.1427	45	C17H19O+
240.145	13	C16[13]CH19O+
241.0982	20	C19H13+
241.1575	12	C17H21O+
243.1185	12	C19H15+
244.0894	26	C18H12O+
245.0955	38	C18H13O+
245.1331	12	C19H17+
246.1023	29	C18H14O+
246.1392	12	C19H18+
247.1106	45	C18H15O+
248.1182	68	C18H16O+
249.1261	50	C18H17O+
249.1635	51	C19H21+
250.1314	25	C18H18O+
251.1418	291	C18H19O+
252.1459	61	C17[13]CH19O+
253.1575	48	C18H21O+
258.1001	16	C19H14O+
259.1119	55	C19H15O+
260.1174	26	C19H16O+
261.1261	23	C19H17O+
262.1334	18	C19H18O+
263.1404	26	C19H19O+
264.1499	12	C19H20O+
265.1226	15	C18H17O2+
265.157	76	C19H21O+
266.1667	36	C19H22O+
267.1687	15	C19H23O+
273.1281	24	C20H17O+
274.1312	21	C20H18O+
279.1369	12	C19H19O2+
294.1595	16	C20H22O2+
