Mass spectrum: Bisphenol A diglycidyl ether; LC-ESI-QTOF; MS2; CE: 50 eV; R=35000; [M+NH4]+
Name: Bisphenol A diglycidyl ether
Name: 2-[[4-[2-[4-(oxiran-2-ylmethoxy)phenyl]propan-2-yl]phenoxy]methyl]oxirane
Formula: C21H24O4
Exact mass: 340.1675
SMILES: CC(C)(C1=CC=C(C=C1)OCC2CO2)C3=CC=C(C=C3)OCC4CO4
InChI: InChI=1S/C21H24O4/c1-21(2,15-3-7-17(8-4-15)22-11-19-13-24-19)16-5-9-18(10-6-16)23-12-20-14-25-20/h3-10,19-20H,11-14H2,1-2H3
Instrument: Bruker maXis Impact
Instrument type: LC-ESI-QTOF
Ms type: MS2
Ion mode: POSITIVE
Ionization: ESI
Fragmentation mode: CID
Collision energy: 50 eV
Resolution: 35000
Column name: Acclaim RSLC C18 2.2um, 2.1x100mm, Thermo
Retention time: 10.849 min
Base peak: 358.2017
Precursor m/z: 358.2024
Precursor type: [M+NH4]+
m/z	relative intensity	assigned
107.0489	13	C7H7O+
115.054	63	C9H7+
117.0695	38	C9H9+
118.0764	8	C9H10+
119.048	25	C8H7O+
119.0855	9	C9H11+
121.0626	17	C8H9O+
128.0635	21	C10H8+
131.0469	9	C9H7O+
133.0641	114	C9H9O+
133.1006	21	C10H13+
135.0796	999	C9H11O+
137.0851	12	C8H11NO+
143.0864	10	C11H11+
145.0642	19	C10H9O+
146.0718	10	C10H10O+
147.0792	13	C10H11O+
161.0948	278	C11H13O+
165.0666	7	C13H9+
166.0755	7	C13H10+
167.085	10	C13H11+
178.0777	9	C14H10+
179.0854	21	C14H11+
181.0642	15	C13H9O+
181.0999	7	C14H13+
183.0782	7	C13H11O+
191.1057	242	C12H15O2+
195.0795	10	C14H11O+
196.0864	26	C14H12O+
199.0752	8	C13H11O2+
213.0886	9	C14H13O2+
222.1029	41	C16H14O+
223.104	9	C15H13NO+
228.0777	19	C14H12O3+
239.1071	12	C16H15O2+
252.1137	33	C17H16O2+
253.1183	7	C17H17O2+
254.0948	34	C16H14O3+
255.0959	8	C16H15O3+
284.1063	30	C20H14NO+
285.1065	9	C17H17O4+
