Mass spectrum: O-Desmethyltramadol; LC-ESI-QTOF; MS2; CE: 50 eV; R=35000; [M+H]+
Name: O-Desmethyltramadol
Name: Tramadol, O-desmethyl
Name: 3-[(1R,2R)-2-[(dimethylamino)methyl]-6-hydroxycyclohexyl]phenol
Formula: C15H23NO2
Exact mass: 249.1728790
SMILES: CN(C)C[C@@H]1CCCC([C@H]1C2=CC(=CC=C2)O)O
InChI: InChI=1S/C15H23NO2/c1-16(2)10-12-6-4-8-14(18)15(12)11-5-3-7-13(17)9-11/h3,5,7,9,12,14-15,17-18H,4,6,8,10H2,1-2H3/t12-,14?,15-/m0/s1
Instrument: Bruker maXis Impact
Instrument type: LC-ESI-QTOF
Ms type: MS2
Ion mode: POSITIVE
Ionization: ESI
Fragmentation mode: CID
Collision energy: 50 eV
Resolution: 35000
Column name: Acclaim RSLC C18 2.2um, 2.1x100mm, Thermo
Retention time: 3.909 min
Base peak: 250.1799
Precursor m/z: 250.1802
Precursor type: [M+H]+
m/z	relative intensity	assigned
115.0534	370	C9H7+
117.0683	195	C9H9+
121.0284	131	C7H5O2+
127.0542	240	C10H7+
128.0629	174	C10H8+
129.0693	183	C10H9+
131.0478	377	C9H7O+
133.0642	292	C9H9O+
141.0672	200	C11H9+
144.0558	328	C10H8O+
145.0633	999	C10H9O+
146.0696	339	C10H10O+
157.063	328	C11H9O+
158.0693	169	C11H10O+
159.08	159	C11H11O+
