Mass spectrum: Acridone; LC-ESI-QTOF; MS2; CE: 30 eV; R=35000; [M+H]+
Name: Acridone
Name: 9(10H)-Acridinone
Name: 10H-acridin-9-one
Formula: C13H9NO
Exact mass: 195.0684139
SMILES: O=C1C2=CC=CC=C2NC2=CC=CC=C12
InChI: InChI=1S/C13H9NO/c15-13-9-5-1-3-7-11(9)14-12-8-4-2-6-10(12)13/h1-8H,(H,14,15)
Instrument: Bruker maXis Impact
Instrument type: LC-ESI-QTOF
Ms type: MS2
Ion mode: POSITIVE
Ionization: ESI
Fragmentation mode: CID
Collision energy: 30 eV
Resolution: 35000
Column name: Acclaim RSLC C18 2.2um, 2.1x100mm, Thermo
Retention time: 6.973 min
Base peak: 196.0752
Precursor m/z: 196.0757
Precursor type: [M+H]+
m/z	relative intensity	assigned
139.0532	9	C11H7+
166.0637	21	C12H8N+
167.0718	351	C12H9N+
168.0774	65	C11[13]CH9N+
178.0636	9	C13H8N+
195.0668	74	C13H9NO+
196.0751	999	C13H10NO+
197.0781	151	C12[13]CH10NO+
198.0807	7	C11[13]C2H10NO+
