Mass spectrum: Temazepam; LC-ESI-QTOF; MS2; CE: Ramp 21.6-32.4 eV; R=35000; [M+H]+
Name: Temazepam
Name: 7-chloro-3-hydroxy-1-methyl-5-phenyl-3H-1,4-benzodiazepin-2-one
Formula: C16H13ClN2O2
Exact mass: 300.0665553
SMILES: CN1C2=CC=C(Cl)C=C2C(=NC(O)C1=O)C1=CC=CC=C1
InChI: InChI=1S/C16H13ClN2O2/c1-19-13-8-7-11(17)9-12(13)14(18-15(20)16(19)21)10-5-3-2-4-6-10/h2-9,15,20H,1H3
Instrument: Bruker maXis Impact
Instrument type: LC-ESI-QTOF
Ms type: MS2
Ion mode: POSITIVE
Ionization: ESI
Fragmentation mode: CID
Collision energy: Ramp 21.6-32.4 eV
Resolution: 35000
Column name: Acclaim RSLC C18 2.2um, 2.1x100mm, Thermo
Retention time: 8.608 min
Base peak: 301.0737
Precursor m/z: 301.0738
Precursor type: [M+H]+
m/z	relative intensity	assigned
177.02	10	C12H3NO+
180.02	36	C9H7ClNO+
182.0172	8	C9H7[37]ClNO+
193.0882	67	C14H11N+
194.0914	7	C13[13]CH11N+
216.0571	19	C13H11ClN+
218.0542	5	C13H11[37]ClN+
228.0572	77	C14H11ClN+
229.0597	10	C13[13]CH11ClN+
230.0543	22	C14H11[37]ClN+
245.0837	10	C14H14ClN2+
255.0682	999	C15H12ClN2+
256.0709	194	C14[13]CH12ClN2+
257.0657	291	C15H12[37]ClN2+
258.0685	27	C15H13ClNO+
283.0633	125	C16H12ClN2O+
284.0671	23	C15[13]CH12ClN2O+
285.0607	37	C16H12[37]ClN2O+
301.0738	52	C16H14ClN2O2+
302.077	10	C15[13]CH14ClN2O2+
303.0712	18	C16H14[37]ClN2O2+
