Mass spectrum: Dimethachlor-ESA; LC-ESI-QTOF; MS2; CE: 30 eV; R=35000; [M+H]+
Name: Dimethachlor-ESA
Name: 2-[N-(2-methoxyethyl)-2,6-dimethylanilino]-2-oxoethanesulfonic acid
Formula: C13H19NO5S
Exact mass: 301.0983937
SMILES: COCCN(C(=O)CS(O)(=O)=O)c1c(C)cccc1C
InChI: InChI=1S/C13H19NO5S/c1-10-5-4-6-11(2)13(10)14(7-8-19-3)12(15)9-20(16,17)18/h4-6H,7-9H2,1-3H3,(H,16,17,18)
Instrument: Bruker maXis Impact
Instrument type: LC-ESI-QTOF
Ms type: MS2
Ion mode: POSITIVE
Ionization: ESI
Fragmentation mode: CID
Collision energy: 30 eV
Resolution: 35000
Column name: Acclaim RSLC C18 2.2um, 2.1x100mm, Thermo
Retention time: 5.3 min
Base peak: 150.1113
Precursor m/z: 302.1057
Precursor type: [M+H]+
m/z	relative intensity	assigned
117.0558	24	C5H9O3+
131.0712	20	C6H11O3+
132.0794	562	C6H12O3+
133.0839	80	C5[13]CH12O3+
146.0943	176	C7H14O3+
148.1101	215	C7H16O3+
149.1148	21	C7H17O3+
159.1032	38	C11H13N+
174.0902	999	C11H12NO+
175.0941	132	C10[13]CH12NO+
189.1141	84	C12H15NO+
190.1209	25	C9H18O4+
206.1174	66	C12H16NO2+
252.0682	23	C12H14NO3S+
270.0787	687	C12H16NO4S+
271.0807	127	C11[13]CH16NO4S+
272.0749	39	C12H16NO4[34]S+
