Mass spectrum: Tetradecylsulfate; LC-ESI-QTOF; MS2; CE: 30 eV; R=35000; [M-H]-
Name: Tetradecylsulfate
Name: 1-Tetradecanol, hydrogen sulfate
Name: tetradecyl hydrogen sulfate
Formula: C14H30O4S
Exact mass: 294.1864804
SMILES: CCCCCCCCCCCCCCOS(O)(=O)=O
InChI: InChI=1S/C14H30O4S/c1-2-3-4-5-6-7-8-9-10-11-12-13-14-18-19(15,16)17/h2-14H2,1H3,(H,15,16,17)
Instrument: Bruker maXis Impact
Instrument type: LC-ESI-QTOF
Ms type: MS2
Ion mode: NEGATIVE
Ionization: ESI
Fragmentation mode: CID
Collision energy: 30 eV
Resolution: 35000
Column name: Acclaim RSLC C18 2.2um, 2.1x100mm, Thermo
Retention time: 12.641 min
Base peak: 293.1784
Precursor m/z: 293.1792
Precursor type: [M-H]-
m/z	relative intensity	assigned
293.1788	999	C14H29O4S-
294.1838	183	C13[13]CH29O4S-
