Mass spectrum: Indole-3-acetic acid; LC-ESI-QTOF; MS2; CE: 40 eV; R=35000; [M+H]+
Name: Indole-3-acetic acid
Name: 2-(1H-indol-3-yl)acetic acid
Formula: C10H9NO2
Exact mass: 175.0633285
SMILES: OC(=O)CC1=CNC2=CC=CC=C12
InChI: InChI=1S/C10H9NO2/c12-10(13)5-7-6-11-9-4-2-1-3-8(7)9/h1-4,6,11H,5H2,(H,12,13)
Instrument: Bruker maXis Impact
Instrument type: LC-ESI-QTOF
Ms type: MS2
Ion mode: POSITIVE
Ionization: ESI
Fragmentation mode: CID
Collision energy: 40 eV
Resolution: 35000
Column name: Acclaim RSLC C18 2.2um, 2.1x100mm, Thermo
Retention time: 5.733 min
Base peak: 176.0691
Precursor m/z: 176.0706
Precursor type: [M+H]+
m/z	relative intensity	assigned
117.0573	30	C8H7N+
128.0485	90	C9H6N+
130.064	999	C9H8N+
131.067	87	C8[13]CH8N+
