Mass spectrum: Megestrol-17-acetate; LC-ESI-QTOF; MS2; CE: 20 eV; R=35000; [M+H]+
Name: Megestrol-17-acetate
Name: Megestrol acetate
Name: [(8R,9S,10R,13S,14S,17R)-17-acetyl-6,10,13-trimethyl-3-oxo-2,8,9,11,12,14,15,16-octahydro-1H-cyclopenta[a]phenanthren-17-yl] acetate
Formula: C24H32O4
Exact mass: 384.2300595
SMILES: CC(=O)O[C@@]1(CC[C@H]2[C@@H]3C=C(C)C4=CC(=O)CC[C@]4(C)[C@H]3CC[C@]12C)C(C)=O
InChI: InChI=1S/C24H32O4/c1-14-12-18-19(22(4)9-6-17(27)13-21(14)22)7-10-23(5)20(18)8-11-24(23,15(2)25)28-16(3)26/h12-13,18-20H,6-11H2,1-5H3/t18-,19+,20+,22-,23+,24+/m1/s1
Instrument: Bruker maXis Impact
Instrument type: LC-ESI-QTOF
Ms type: MS2
Ion mode: POSITIVE
Ionization: ESI
Fragmentation mode: CID
Collision energy: 20 eV
Resolution: 35000
Column name: Acclaim RSLC C18 2.2um, 2.1x100mm, Thermo
Retention time: 10.856 min
Base peak: 385.2384
Precursor m/z: 385.2373
Precursor type: [M+H]+
m/z	relative intensity	assigned
121.0641	5	C8H9O+
133.1006	10	C10H13+
145.1002	6	C11H13+
147.1167	5	C11H15+
149.0945	5	C10H13O+
151.1111	8	C10H15O+
159.1159	5	C12H15+
161.0951	17	C11H13O+
169.1004	12	C13H13+
171.1161	6	C13H15+
173.0952	10	C12H13O+
175.1107	34	C12H15O+
177.1261	5	C12H17O+
183.1161	16	C14H15+
187.1109	39	C13H15O+
188.1142	6	C12[13]CH15O+
189.1268	16	C13H17O+
197.1318	6	C15H17+
199.1469	5	C15H19+
201.1269	6	C14H17O+
209.1314	12	C16H17+
211.1472	13	C16H19+
215.1427	11	C15H19O+
223.1476	38	C17H19+
224.1555	157	C17H20+
225.1624	77	C17H21+
226.1659	11	C16[13]CH21+
229.1583	6	C16H21O+
237.163	12	C18H21+
239.1426	8	C17H19O+
241.1581	39	C17H21O+
242.1617	6	C16[13]CH21O+
243.174	15	C17H23O+
247.1474	9	C19H19+
249.1635	36	C19H21+
250.1675	8	C18[13]CH21+
253.1588	7	C18H21O+
255.1742	91	C18H23O+
256.1776	18	C17[13]CH23O+
263.179	21	C20H23+
264.1853	10	C20H24+
265.1586	14	C19H21O+
265.195	178	C20H25+
266.1981	36	C19[13]CH25+
267.1745	752	C19H23O+
268.1777	124	C18[13]CH23O+
269.1808	9	C17[13]C2H23O+
281.19	61	C20H25O+
282.1978	165	C20H26O+
283.2048	116	C20H27O+
284.2085	21	C19[13]CH27O+
289.1948	16	C22H25+
307.2057	96	C22H27O+
308.2089	23	C21[13]CH27O+
325.2166	999	C22H29O2+
326.2201	181	C21[13]CH29O2+
327.2226	16	C20[13]C2H29O2+
385.2381	396	C24H33O4+
386.2413	91	C23[13]CH33O4+
387.2437	11	C22[13]C2H33O4+
