Mass spectrum: Ofloxacin; LC-ESI-QTOF; MS2; CE: 50 eV; R=35000; [M+H]+
Name: Ofloxacin
Name: 7-fluoro-2-methyl-6-(4-methylpiperazin-1-yl)-10-oxo-4-oxa-1-azatricyclo[7.3.1.05,13]trideca-5(13),6,8,11-tetraene-11-carboxylic acid
Formula: C18H20FN3O4
Exact mass: 361.1437843
SMILES: CC1COC2=C3N1C=C(C(O)=O)C(=O)C3=CC(F)=C2N1CCN(C)CC1
InChI: InChI=1S/C18H20FN3O4/c1-10-9-26-17-14-11(16(23)12(18(24)25)8-22(10)14)7-13(19)15(17)21-5-3-20(2)4-6-21/h7-8,10H,3-6,9H2,1-2H3,(H,24,25)
Instrument: Bruker maXis Impact
Instrument type: LC-ESI-QTOF
Ms type: MS2
Ion mode: POSITIVE
Ionization: ESI
Fragmentation mode: CID
Collision energy: 50 eV
Resolution: 35000
Column name: Acclaim RSLC C18 2.2um, 2.1x100mm, Thermo
Retention time: 4.167 min
Base peak: 362.1506
Precursor m/z: 362.1511
Precursor type: [M+H]+
m/z	relative intensity	assigned
122.0389	42	C7H5FN+
132.0427	7	C5H8O4+
137.0487	5	C4H8FNO3+
143.0601	6	C9H7N2+
144.0796	6	C4H13FO4+
146.0585	5	C6H10O4+
148.0545	10	C9H7FN+
149.0498	7	C8H6FN2+
150.0336	69	C11H4N+
151.0406	26	C5H8FO4+
152.0476	9	C5H9FO4+
155.0593	5	C4H10FNO4+
156.0676	5	C10H8N2+
157.0378	8	C6H7NO4+
157.0741	5	C4H12FNO4+
158.0224	32	C9H4NO2+
160.0381	6	C9H6NO2+
160.0534	26	C7H9FO3+
161.0523	5	C9H6FN2+
162.0576	6	C9H7FN2+
162.0705	5	C10H9FN+
163.0402	10	C6H8FO4+
163.0651	6	C6H10FNO3+
164.0494	19	C12H6N+
165.0442	23	C11H5N2+
166.0286	5	C11H4NO+
166.0504	5	C8H8NO3+
169.075	5	C5H12FNO4+
170.0571	5	C3H9FN3O4+
171.0538	49	C7H9NO4+
172.0581	9	C7H10NO4+
172.0725	6	C3H11FN3O4+
173.0697	7	C10H9N2O+
174.0568	8	C7H9FNO3+
174.0694	5	C8H11FO3+
175.065	7	C7H10FNO3+
176.0344	7	C9H6NO3+
176.0489	11	C13H6N+
176.0724	6	C7H11FNO3+
177.0466	9	C9H6FN2O+
177.0556	9	C7H10FO4+
178.0288	112	C12H4NO+
178.0518	8	C6H9FNO4+
179.0363	178	C12H5NO+
179.0601	16	C12H7N2+
180.0434	57	C9H7FNO2+
181.0494	5	C8[13]CH7FNO2+
184.0622	10	C11H8N2O+
185.0337	6	C10H5N2O2+
185.0696	13	C11H9N2O+
186.0892	5	C9H14O4+
188.0492	63	C14H6N+
189.0472	14	C10H6FN2O+
190.0521	14	C13H6N2+
190.0646	13	C14H8N+
191.0364	15	C13H5NO+
191.0605	26	C13H7N2+
192.0443	68	C13H6NO+
193.0163	10	C12H3NO2+
193.0395	130	C12H5N2O+
193.076	6	C13H9N2+
194.0239	53	C12H4NO2+
194.0479	73	C12H6N2O+
195.027	5	C11[13]CH4NO2+
195.055	27	C12H7N2O+
198.0768	6	C9H12NO4+
199.0493	84	C11H7N2O2+
199.0853	7	C12H11N2O+
200.0549	33	C11H8N2O2+
201.064	32	C11H9N2O2+
202.065	27	C15H8N+
203.0365	22	C14H5NO+
203.0601	49	C14H7N2+
204.0433	69	C14H6NO+
204.0667	19	C8H11FNO4+
205.0401	296	C13H5N2O+
205.0764	160	C8H12FNO4+
206.0447	54	C12[13]CH5N2O+
206.0785	19	C7[13]CH12FNO4+
207.0553	36	C13H7N2O+
208.058	5	C12[13]CH7N2O+
211.0847	6	C10H13NO4+
213.0634	7	C12H9N2O2+
213.1018	5	C13H13N2O+
215.0607	13	C15H7N2+
216.0452	8	C12H7FNO2+
216.068	8	C15H8N2+
217.0398	28	C14H5N2O+
217.075	14	C9H12FNO4+
218.0483	41	C11H7FN2O2+
218.0852	7	C12H11FN2O+
219.0555	413	C14H7N2O+
220.0609	88	C13[13]CH7N2O+
221.0712	625	C14H9N2O+
222.0744	73	C13[13]CH9N2O+
223.0802	6	C12[13]C2H9N2O+
225.0665	7	C10H10FN2O3+
225.0905	7	C10H12FN3O2+
225.0964	8	C15H12FN+
226.0691	9	C14H9FNO+
226.0962	7	C13H12N3O+
227.0681	8	C12H9N3O2+
228.0708	7	C13H9FN2O+
229.0755	9	C16H9N2+
231.0189	8	C14H3N2O2+
231.0553	37	C15H7N2O+
231.0908	13	C10H14FNO4+
232.0648	18	C12H9FN2O2+
233.0711	54	C15H9N2O+
233.1041	5	C13H15NO3+
234.0808	35	C12H11FN2O2+
235.0856	13	C15H11N2O+
238.0975	7	C14H12N3O+
240.0761	7	C13H10N3O2+
240.1132	5	C14H14N3O+
241.0962	29	C14H13N2O2+
242.0989	8	C15H13FNO+
243.0925	10	C14H12FN2O+
244.0758	11	C17H10NO+
245.0718	57	C13H10FN2O2+
245.1024	5	C14H15NO3+
246.0782	19	C16H10N2O+
247.0871	99	C16H11N2O+
248.0893	14	C15[13]CH11N2O+
249.0303	6	C11H6FN2O4+
253.0845	6	C14H11N3O2+
253.1204	36	C12H17N2O4+
254.0923	7	C14H12N3O2+
254.1204	6	C11[13]CH17N2O4+
255.1004	12	C14H13N3O2+
256.1046	5	C14H14N3O2+
258.0663	7	C16H8N3O+
259.0863	8	C17H11N2O+
261.1028	999	C14H15NO4+
262.1059	138	C13[13]CH15NO4+
263.1082	13	C12[13]C2H15NO4+
268.0728	6	C11H11FN3O4+
268.1077	19	C17H16O3+
268.1426	12	C13H20N2O4+
269.1119	5	C16[13]CH16O3+
270.1232	6	C15H16N3O2+
272.0442	6	C16H6N3O2+
273.1019	16	C18H13N2O+
275.1175	7	C18H15N2O+
286.0599	14	C17H8N3O2+
286.0988	9	C15H13FN3O2+
286.1162	15	C15H16N3O3+
287.0705	6	C14H10FN3O3+
296.102	7	C16H14N3O3+
296.1393	7	C17H18N3O2+
301.0849	31	C18H11N3O2+
301.1214	34	C16H17N2O4+
302.1237	8	C15[13]CH17N2O4+
314.1122	5	C16H16N3O4+
316.1079	9	C16H15FN3O3+
316.1456	5	C17H19FN3O2+
318.1612	9	C17H21FN3O2+
344.1423	7	C18H19FN3O3+
362.1519	23	C18H21FN3O4+
363.1545	7	C17[13]CH21FN3O4+
