Mass spectrum: 7-amino-flunitrazepam; LC-ESI-QTOF; MS2; CE: 40 eV; R=35000; [M+H]+
Name: 7-amino-flunitrazepam
Name: 7-Aminoflunitrazepam
Name: 7-amino-5-(2-fluorophenyl)-1-methyl-3H-1,4-benzodiazepin-2-one
Formula: C16H14FN3O
Exact mass: 283.1120903
SMILES: CN1C2=CC=C(N)C=C2C(=NCC1=O)C1=CC=CC=C1F
InChI: InChI=1S/C16H14FN3O/c1-20-14-7-6-10(18)8-12(14)16(19-9-15(20)21)11-4-2-3-5-13(11)17/h2-8H,9,18H2,1H3
Instrument: Bruker maXis Impact
Instrument type: LC-ESI-QTOF
Ms type: MS2
Ion mode: POSITIVE
Ionization: ESI
Fragmentation mode: CID
Collision energy: 40 eV
Resolution: 35000
Column name: Acclaim RSLC C18 2.2um, 2.1x100mm, Thermo
Retention time: 5.2 min
Base peak: 284.1193
Precursor m/z: 284.1194
Precursor type: [M+H]+
m/z	relative intensity	assigned
116.0489	8	C8H6N+
117.0562	12	C8H7N+
118.0643	10	C8H8N+
119.0597	26	C7H7N2+
121.0747	15	C7H9N2+
122.039	19	C7H5FN+
132.043	12	C8H6NO+
134.039	19	C8H5FN+
134.0817	9	C8H10N2+
135.0909	999	C8H11N2+
136.0549	9	C8H7FN+
136.0941	62	C3H12N4O2+
143.0595	5	C9H7N2+
144.054	9	C8H6N3+
145.0745	5	C9H9N2+
146.0605	16	C9H8NO+
147.0775	20	C8H9N3+
148.0622	132	C8H8N2O+
149.0674	14	C6H7N5+
152.0605	5	C7H7FN3+
153.0684	10	C7H8FN3+
158.0702	18	C9H8N3+
161.0926	15	C9H11N3+
162.0739	11	C10H9FN+
165.0685	5	C8H8FN3+
166.0639	9	C12H8N+
167.0712	11	C12H9N+
168.0786	10	C12H10N+
171.0597	5	C12H8F+
174.07	11	C11H9FN+
178.0645	13	C13H8N+
179.0722	7	C13H9N+
181.087	31	C13H11N+
182.092	5	C8H12N3O2+
183.0594	73	C13H8F+
184.0633	9	C12[13]CH8F+
185.0626	11	C12H8FN+
187.0779	10	C12H10FN+
188.0852	11	C12H11FN+
191.0701	7	C14H9N+
192.0678	5	C13H8N2+
192.0786	8	C14H10N+
193.0748	10	C13H9N2+
194.0822	13	C13H10N2+
195.0906	67	C13H11N2+
196.0952	8	C12[13]CH11N2+
198.0703	56	C13H9FN+
199.0752	12	C12[13]CH9FN+
200.086	40	C13H11FN+
201.0885	6	C12[13]CH11FN+
208.0544	5	C14H7FN+
211.0785	153	C14H10FN+
214.0882	6	C13H11FN2+
215.0974	73	C13H12FN2+
216.1007	11	C11H12N4O+
221.0939	35	C14H11N3+
222.072	5	C15H9FN+
222.0997	8	C13[13]CH11N3+
223.0666	11	C14H8FN2+
227.0968	478	C14H12FN2+
228.1	56	C12H12N4O+
229.1124	31	C14H14FN2+
230.1158	5	C12H14N4O+
235.1078	6	C15H13N3+
236.1177	92	C15H14N3+
237.0813	5	C15H10FN2+
241.0993	148	C14H12FN3+
249.088	9	C15H11N3O+
250.095	5	C15H12N3O+
254.0837	6	C15H11FN2O+
255.0922	13	C15H12FN2O+
256.1238	82	C15H15FN3+
257.1277	12	C13H15N5O+
268.0875	13	C15H11FN3O+
269.0947	7	C15H12FN3O+
284.1198	84	C16H15FN3O+
285.1252	16	
