Mass spectrum: Aflatoxin G1; LC-ESI-QTOF; MS2; CE: 40 eV; R=35000; [M+H]+
Name: Aflatoxin G1
Name: 11-methoxy-6,8,16,20-tetraoxapentacyclo[10.8.0.02,9.03,7.013,18]icosa-1,4,9,11,13(18)-pentaene-17,19-dione
Class: Natural Product; Fungal metabolite
Formula: C17H12O7
Exact mass: 328.0583
SMILES: COC1=C2C3=C(C(=O)OCC3)C(=O)OC2=C4C5C=COC5OC4=C1
InChI: InChI=1S/C17H12O7/c1-20-9-6-10-12(8-3-5-22-17(8)23-10)14-11(9)7-2-4-21-15(18)13(7)16(19)24-14/h3,5-6,8,17H,2,4H2,1H3
Instrument: Bruker maXis Impact
Instrument type: LC-ESI-QTOF
Ms type: MS2
Ion mode: POSITIVE
Ionization: ESI
Fragmentation mode: CID
Collision energy: 40 eV
Resolution: 35000
Column name: Acclaim RSLC C18 2.2um, 2.1x100mm, Thermo
Retention time: 6.082 min
Base peak: 329.0658
Precursor m/z: 329.0656
Precursor type: [M+H]+
m/z	relative intensity	assigned
115.0544	9	C9H7+
122.0598	5	C4H10O4+
128.0618	31	C10H8+
129.0689	13	C10H9+
135.0438	9	C8H7O2+
139.0546	5	C11H7+
141.0696	32	C11H9+
143.0849	12	C11H11+
144.0566	9	C10H8O+
145.064	12	C10H9O+
147.0442	5	C9H7O2+
152.0618	15	C12H8+
153.0693	21	C12H9+
155.0488	11	C11H7O+
155.0586	6	C4H11O6+
155.0849	7	C12H11+
156.0562	10	C11H8O+
157.0638	19	C11H9O+
158.0718	7	C11H10O+
159.0797	14	C11H11O+
163.0747	6	C10H11O2+
165.0699	7	C13H9+
168.0563	19	C12H8O+
169.0643	51	C12H9O+
170.0703	9	C12H10O+
171.0441	22	C11H7O2+
171.08	23	C12H11O+
172.0504	15	C11H8O2+
173.0234	5	C10H5O3+
173.0587	9	C11H9O2+
175.0381	6	C10H7O3+
175.0758	8	C11H11O2+
177.0905	16	C11H13O2+
181.0644	21	C13H9O+
182.0705	8	C13H10O+
183.0433	16	C12H7O2+
183.0805	8	C13H11O+
184.0514	43	C12H8O2+
185.0588	49	C12H9O2+
186.0658	17	C12H10O2+
187.0386	8	C11H7O3+
187.0742	20	C12H11O2+
189.0538	14	C11H9O3+
190.0612	8	C11H10O3+
191.034	8	C10H7O4+
191.0686	6	C11H11O3+
195.0432	8	C13H7O2+
196.0513	21	C13H8O2+
197.0592	59	C13H9O2+
198.0664	26	C13H10O2+
199.0385	69	C12H7O3+
199.0745	47	C13H11O2+
200.0467	388	C12H8O3+
201.0512	57	C12H9O3+
201.091	13	C13H13O2+
202.0584	6	C12H10O3+
203.0337	6	C11H7O4+
203.0694	9	C12H11O3+
205.0854	39	C12H13O3+
209.059	20	C14H9O2+
210.065	8	C14H10O2+
211.0383	20	C13H7O3+
211.0752	16	C14H11O2+
212.0461	60	C13H8O3+
213.0538	75	C13H9O3+
214.0624	456	C13H10O3+
215.0698	641	C13H11O3+
216.0732	87	C13H12O3+
217.0832	12	C13H13O3+
223.0389	8	C14H7O3+
224.0454	27	C14H8O3+
225.0542	71	C14H9O3+
226.0613	51	C14H10O3+
227.0336	16	C13H7O4+
227.0699	117	C14H11O3+
228.0412	67	C13H8O4+
228.0732	16	C14H12O3+
229.0481	22	C13H9O4+
229.0856	14	C14H13O3+
230.0549	8	C13H10O4+
231.0637	8	C13H11O4+
233.0802	39	C13H13O4+
237.0541	18	C15H9O3+
239.0334	21	C14H7O4+
239.0699	33	C15H11O3+
240.0413	75	C14H8O4+
240.075	5	C15H12O3+
241.0488	101	C14H9O4+
242.0562	90	C14H10O4+
243.065	999	C14H11O4+
244.0682	125	C14H12O4+
245.0772	18	C14H13O4+
251.0329	17	C15H7O4+
252.0407	14	C15H8O4+
253.0485	40	C15H9O4+
254.0556	20	C15H10O4+
255.0649	175	C15H11O4+
256.0681	26	C15H12O4+
257.0445	17	C14H9O5+
257.0802	15	C15H13O4+
258.0505	6	C14H10O5+
261.0756	6	C14H13O5+
265.0493	6	C16H9O4+
267.0283	64	C15H7O5+
267.0657	10	C16H11O4+
268.0357	150	C15H8O5+
269.0413	39	C15H9O5+
270.0508	38	C15H10O5+
271.0575	14	C15H11O5+
273.0754	5	C15H13O5+
275.0546	7	C14H11O6+
281.0434	5	C16H9O5+
282.0516	26	C16H10O5+
283.0598	263	C16H11O5+
284.0629	52	C16H12O5+
285.0383	17	C15H9O6+
285.0737	16	C16H13O5+
286.0448	8	C15H10O6+
295.0231	31	C16H7O6+
296.0306	40	C16H8O6+
297.0339	7	C16H9O6+
300.0621	18	C16H12O6+
301.0692	32	C16H13O6+
311.0543	168	C17H11O6+
312.0588	33	C17H12O6+
313.0338	18	C16H9O7+
313.0684	13	C17H13O6+
314.0415	7	C16H10O7+
329.0647	113	C17H13O7+
