Mass spectrum: Omethoate; LC-ESI-QTOF; MS2; CE: 40 eV; R=35000; [M+H]+
Name: Omethoate
Name: 2-dimethoxyphosphorylsulfanyl-N-methylacetamide
Formula: C5H12NO4PS
Exact mass: 213.0224655
SMILES: CNC(=O)CSP(=O)(OC)OC
InChI: InChI=1S/C5H12NO4PS/c1-6-5(7)4-12-11(8,9-2)10-3/h4H2,1-3H3,(H,6,7)
Instrument: Bruker maXis Impact
Instrument type: LC-ESI-QTOF
Ms type: MS2
Ion mode: POSITIVE
Ionization: ESI
Fragmentation mode: CID
Collision energy: 40 eV
Resolution: 35000
Column name: Acclaim RSLC C18 2.2um, 2.1x100mm, Thermo
Retention time: 3.248 min
Base peak: 214.0317
Precursor m/z: 214.0297
Precursor type: [M+H]+
m/z	relative intensity	assigned
109.0052	45	C2H6O3P+
124.9826	999	C2H6O2PS+
125.9857	37	CH4NO4S+
126.9783	45	C2H6O2P[34]S+
127.0156	59	C2H8O4P+
142.9931	438	C2H8O3PS+
144.9891	24	C5H6NP[34]S+
154.9932	12	C3H8O3PS+
