Mass spectrum: Baquiloprim; LC-ESI-QTOF; MS2; CE: 40 eV; R=35000; [M+H]+
Name: Baquiloprim
Name: 5-[[8-(dimethylamino)-7-methylquinolin-5-yl]methyl]pyrimidine-2,4-diamine
Formula: C17H20N6
Exact mass: 308.1749446
SMILES: CC1=CC(=C2C=CC=NC2=C1N(C)C)CC3=CN=C(N=C3N)N
InChI: InChI=1S/C17H20N6/c1-10-7-11(8-12-9-21-17(19)22-16(12)18)13-5-4-6-20-14(13)15(10)23(2)3/h4-7,9H,8H2,1-3H3,(H4,18,19,21,22)
Instrument: Bruker maXis Impact
Instrument type: LC-ESI-QTOF
Ms type: MS2
Ion mode: POSITIVE
Ionization: ESI
Fragmentation mode: CID
Collision energy: 40 eV
Resolution: 35000
Column name: Acclaim RSLC C18 2.2um, 2.1x100mm, Thermo
Retention time: 3.5 min
Base peak: 309.1719
Precursor m/z: 309.1822
Precursor type: [M+H]+
m/z	relative intensity	assigned
135.0642	6	C6H7N4+
143.0709	13	C10H9N+
144.0785	29	C10H10N+
154.0552	28	C10H6N2+
155.0632	39	C10H7N2+
156.0707	19	C10H8N2+
157.0781	11	C10H9N2+
158.0938	14	C11H12N+
167.0698	5	C12H9N+
169.0665	18	C10H7N3+
170.0734	28	C10H8N3+
171.0825	318	C10H9N3+
172.0862	53	C9[13]CH9N3+
180.0715	6	C12H8N2+
182.0741	6	C11H8N3+
183.0818	25	C11H9N3+
184.09	15	C11H10N3+
185.0977	56	C11H11N3+
187.1126	16	C11H13N3+
193.0731	7	C13H9N2+
195.0824	5	C12H9N3+
206.0743	10	C13H8N3+
207.0825	21	C13H9N3+
208.09	7	C13H10N3+
217.0677	11	C14H7N3+
218.0754	22	C14H8N3+
219.0826	11	C14H9N3+
220.0775	36	C13H8N4+
221.0836	10	C13H9N4+
222.0987	6	C14H12N3+
224.11	16	C13H12N4+
232.079	7	C14H8N4+
233.0864	10	C14H9N4+
234.0945	21	C14H10N4+
235.0984	21	C14H11N4+
236.0975	5	C13H10N5+
237.1055	36	C13H11N5+
238.1083	7	C13H12N5+
245.0749	6	C14H7N5+
247.0896	10	C14H9N5+
248.0852	41	C13H8N6+
249.103	27	C14H11N5+
250.1028	24	C14H12N5+
251.1142	10	C14H13N5+
252.1154	6	C13H12N6+
259.0894	15	C15H9N5+
260.0953	24	C15H10N5+
261.102	21	C15H11N5+
262.0993	250	C14H10N6+
263.1032	43	C13[13]CH10N6+
264.1138	38	C14H12N6+
265.1227	84	C14H13N6+
266.1308	999	C14H14N6+
267.1335	109	C13[13]CH14N6+
268.1383	8	C14H16N6+
275.1073	7	C15H11N6+
277.1221	260	C15H13N6+
278.1267	44	C14[13]CH13N6+
279.1298	770	C15H15N6+
280.1338	92	C14[13]CH15N6+
281.1307	6	C15H15N5O+
290.128	5	C16H14N6+
291.1267	35	C16H15N6+
292.1379	71	C16H16N6+
294.1468	150	C17H18N4O+
295.1502	17	C15H17N7+
307.162	123	C17H19N6+
308.1649	24	C16[13]CH19N6+
309.178	38	C17H21N6+
