Mass spectrum: 3-(Trimethoxysilyl)propyl methacrylate; GC-APCI-QTOF; MS2; CE: 20 eV; R=35000; [M]+
Name: 3-(Trimethoxysilyl)propyl methacrylate
Formula: C10H20O5Si
Exact mass: 248.1080
SMILES: CC(=C)C(=O)OCCC[Si](OC)(OC)OC
InChI: InChI=1S/C10H20O5Si/c1-9(2)10(11)15-7-6-8-16(12-3,13-4)14-5/h1,6-8H2,2-5H3
Instrument: Bruker 450 GC coupled to maXis Impact
Instrument type: GC-APCI-QTOF
Ms type: MS2
Ion mode: POSITIVE
Ionization: APCI
Fragmentation mode: CID
Collision energy: 20 eV
Resolution: 35000
Column name: Rxi-5Sil MS column, 30m, 0.25mm i.d., 0.25Âµm film thickness, Restek
Retention time: 11.574 min
Base peak: 217.0887
Precursor m/z: 248.1075
Precursor type: [M]+
m/z	relative intensity	assigned
111.0122	90	CH7O4Si+
121.0342	49	C3H9O3Si+
125.0269	343	C2H9O4Si+
133.0318	76	C4H9O3Si+
133.0993	54	C10H13+
134.1089	41	C10H14+
135.0105	93	C3H7O4Si+
139.0421	639	C3H11O4Si+
140.0494	41	C3H12O4Si+
145.0305	73	C5H9O3Si+
147.0119	38	C4H7O4Si+
147.0465	95	C5H11O3Si+
149.0256	62	C4H9O4Si+
151.0413	38	C4H11O4Si+
152.0115	40	C7H4O4+
153.0183	112	C7H5O4+
159.0449	69	C10H7O2+
161.0255	206	C5H9O4Si+
163.0389	114	C9H7O3+
165.057	53	C5H13O4Si+
166.0291	72	C4H10O5Si+
167.0355	102	C4H11O5Si+
175.0413	114	C6H11O4Si+
177.0206	999	C5H9O5Si+
177.0574	495	C6H13O4Si+
178.0218	98	C9H6O4+
178.0584	37	C10H10O3+
179.0196	57	C8H7O3Si+
179.0362	166	C5H11O5Si+
180.045	258	C5H12O5Si+
181.0474	44	C9H9O4+
188.0494	37	C7H12O4Si+
190.0641	60	C7H14O4Si+
191.0369	614	C6H11O5Si+
191.0762	92	C7H15O4Si+
192.0425	281	C10H8O4+
193.0535	420	C6H13O5Si+
194.0619	38	C6H14O5Si+
201.0577	70	C8H13O4Si+
201.0718	40	C9H13O5+
205.052	66	C7H13O5Si+
206.0567	53	C7H14O5Si+
215.0729	66	C9H15O4Si+
219.0705	151	C8H15O5Si+
220.0726	57	C8H16O5Si+
234.0957	40	C9H18O5Si+
247.1018	41	C10H19O5Si+
