Mass spectrum: 7-(Ethylamino)-4-methylcoumarin; LC-ESI-QTOF; MS2; CE: Ramp 18.1-27.2 eV; R=35000; [M+H]+
Name: 7-(Ethylamino)-4-methylcoumarin
Name: 2H-1-Benzopyran-2-one, 7-(ethylamino)-4-methyl-
Name: 7-(ethylamino)-4-methylchromen-2-one
Formula: C12H13NO2
Exact mass: 203.0946287
SMILES: CCNC1=CC=C2C(C)=CC(=O)OC2=C1
InChI: InChI=1S/C12H13NO2/c1-3-13-9-4-5-10-8(2)6-12(14)15-11(10)7-9/h4-7,13H,3H2,1-2H3
Instrument: Bruker maXis Impact
Instrument type: LC-ESI-QTOF
Ms type: MS2
Ion mode: POSITIVE
Ionization: ESI
Fragmentation mode: CID
Collision energy: Ramp 18.1-27.2 eV
Resolution: 35000
Column name: Acclaim RSLC C18 2.2um, 2.1x100mm, Thermo
Retention time: 7.730 min
Base peak: 391.2294
Precursor m/z: 204.1019
Precursor type: [M+H]+
m/z	relative intensity	assigned
118.063	13	C8H8N+
120.0809	16	C8H10N+
130.0641	37	C9H8N+
131.0718	23	C9H9N+
132.0799	18	C9H10N+
144.0793	23	C10H10N+
145.0871	12	C10H11N+
146.0594	27	C9H8NO+
147.0674	13	C9H9NO+
148.1119	135	C10H14N+
149.1138	16	C9[13]CH14N+
160.1116	34	C11H14N+
161.0815	14	C10H11NO+
162.0903	10	C10H12NO+
175.0607	18	C10H9NO2+
176.1072	45	C11H14NO+
189.0768	13	C11H11NO2+
204.1011	999	C12H14NO2+
205.104	115	C11[13]CH14NO2+
