Mass spectrum: Verapamil; LC-ESI-QTOF; MS2; CE: 10 eV; R=35000; [M+H]+
Name: Verapamil
Name: 2-(3,4-dimethoxyphenyl)-5-[2-(3,4-dimethoxyphenyl)ethyl-methylamino]-2-propan-2-ylpentanenitrile
Formula: C27H38N2O4
Exact mass: 454.2831577
SMILES: COC1=CC=C(CCN(C)CCCC(C#N)(C(C)C)C2=CC(OC)=C(OC)C=C2)C=C1OC
InChI: InChI=1S/C27H38N2O4/c1-20(2)27(19-28,22-10-12-24(31-5)26(18-22)33-7)14-8-15-29(3)16-13-21-9-11-23(30-4)25(17-21)32-6/h9-12,17-18,20H,8,13-16H2,1-7H3
Instrument: Bruker maXis Impact
Instrument type: LC-ESI-QTOF
Ms type: MS2
Ion mode: POSITIVE
Ionization: ESI
Fragmentation mode: CID
Collision energy: 10 eV
Resolution: 35000
Column name: Acclaim RSLC C18 2.2um, 2.1x100mm, Thermo
Retention time: 7.4 min
Base peak: 455.29
Precursor m/z: 455.2904
Precursor type: [M+H]+
m/z	relative intensity	assigned
165.0902	2	C10H13O2+
303.2061	1	C18H27N2O2+
455.291	999	C27H39N2O4+
456.2939	231	C26[13]CH39N2O4+
457.2963	33	C25[13]CH39N2O4+
