Mass spectrum: Clobazam; LC-ESI-QTOF; MS2; CE: RAMP 21.6-32.4 eV; R=35000; [M+H]+
Name: Clobazam
Name: 7-chloro-1-methyl-5-phenyl-1,5-benzodiazepine-2,4-dione
Formula: C16H13ClN2O2
Exact mass: 300.0665553
SMILES: CN1c2ccc(cc2N(C(=O)CC1=O)c3ccccc3)Cl
InChI: InChI=1S/C16H13ClN2O2/c1-18-13-8-7-11(17)9-14(13)19(16(21)10-15(18)20)12-5-3-2-4-6-12/h2-9H,10H2,1H3
Instrument: Bruker maXis Impact
Instrument type: LC-ESI-QTOF
Ms type: MS2
Ion mode: POSITIVE
Ionization: ESI
Fragmentation mode: CID
Collision energy: RAMP 21.6-32.4 eV
Resolution: 35000
Column name: Acclaim RSLC C18 2.2um, 2.1x100mm, Thermo
Retention time: 8.145 min
Base peak: 301.0746
Precursor m/z: 301.0738
Precursor type: [M+H]+
m/z	relative intensity	assigned
153.0207	10	C10H3NO+
181.0159	11	C11H3NO2+
216.045	9	C12H9ClN2+
223.0855	6	C14H11N2O+
224.0943	138	C14H12N2O+
225.0972	15	C13[13]CH12N2O+
233.0843	5	C13H14ClN2+
244.0392	8	C16H6NO2+
259.0637	999	C14H12ClN2O+
260.0667	184	C14H13ClN2O+
261.0609	283	C16H9N2O2+
262.0633	26	C15[13]CH9N2O2+
301.0745	117	C16H14ClN2O2+
302.0776	27	C15[13]CH14ClN2O2+
303.0719	33	C16H14[37]ClN2O2+
