Mass spectrum: Bisphenol A diglycidyl ether; LC-ESI-QTOF; MS2; CE: 40 eV; R=35000; [M+NH4]+
Name: Bisphenol A diglycidyl ether
Name: 2-[[4-[2-[4-(oxiran-2-ylmethoxy)phenyl]propan-2-yl]phenoxy]methyl]oxirane
Formula: C21H24O4
Exact mass: 340.1675
SMILES: CC(C)(C1=CC=C(C=C1)OCC2CO2)C3=CC=C(C=C3)OCC4CO4
InChI: InChI=1S/C21H24O4/c1-21(2,15-3-7-17(8-4-15)22-11-19-13-24-19)16-5-9-18(10-6-16)23-12-20-14-25-20/h3-10,19-20H,11-14H2,1-2H3
Instrument: Bruker maXis Impact
Instrument type: LC-ESI-QTOF
Ms type: MS2
Ion mode: POSITIVE
Ionization: ESI
Fragmentation mode: CID
Collision energy: 40 eV
Resolution: 35000
Column name: Acclaim RSLC C18 2.2um, 2.1x100mm, Thermo
Retention time: 10.814 min
Base peak: 358.2008
Precursor m/z: 358.2024
Precursor type: [M+NH4]+
m/z	relative intensity	assigned
115.0542	23	C9H7+
117.069	16	C9H9+
118.0765	9	C9H10+
119.048	6	C8H7O+
119.0852	12	C9H11+
121.0283	5	C7H5O2+
121.0635	9	C8H9O+
128.0612	9	C10H8+
129.069	6	C10H9+
131.049	5	C9H7O+
131.0833	8	C10H11+
133.0636	61	C9H9O+
133.0999	22	C10H13+
135.0796	999	C9H11O+
137.0869	5	C8H11NO+
143.084	5	C11H11+
145.063	17	C10H9O+
146.0702	8	C10H10O+
147.042	12	C9H7O2+
147.0789	28	C10H11O+
158.072	5	C11H10O+
161.0949	429	C11H13O+
173.0938	9	C12H13O+
177.0523	6	C10H9O3+
191.1058	897	C12H15O2+
193.1116	9	C11H15NO2+
222.1034	26	C16H14O+
223.1116	6	C16H15O+
226.0992	6	C15H14O2+
239.1058	7	C16H15O2+
252.1137	28	C17H16O2+
254.0935	21	C16H14O3+
284.1034	13	C17H16O4+
285.107	5	C17H17O4+
