Mass spectrum: Quaternium-15 (free base); LC-ESI-QTOF; MS2; CE: 30 eV; R=35000; [M+H]+
Name: Quaternium-15 (free base)
Name: Chloroallyl methenamine
Formula: [C9H16ClN4]+
Exact mass: 215.1063492
SMILES: Cl\C=C/C[N+]12CN3CN(CN(C3)C1)C2
InChI: InChI=1S/C9H16ClN4/c10-2-1-3-14-7-11-4-12(8-14)6-13(5-11)9-14/h1-2H,3-9H2/q+1/b2-1-
Instrument: Bruker maXis Impact
Instrument type: LC-ESI-QTOF
Ms type: MS2
Ion mode: POSITIVE
Ionization: ESI
Fragmentation mode: CID
Collision energy: 30 eV
Resolution: 35000
Column name: Acclaim RSLC C18 2.2um, 2.1x100mm, Thermo
Retention time: 7.477 min
Base peak: 264.2316
Precursor m/z: 216.1136
Precursor type: [M+H]+
m/z	relative intensity	assigned
199.0858	999	C9H14ClN3+
