Mass spectrum: Perfluorooctylphosphonic acid (PFOPA); LC-ESI-QTOF; MS2; CE: 25.6-38.4 eV; R=35000; [M+HCOOH-H]-
Name: Perfluorooctylphosphonic acid (PFOPA)
Name: (Heptadecafluorooctyl)phosphonic acid
Name: 1,1,2,2,3,3,4,4,5,5,6,6,7,7,8,8,8-heptadecafluorooctylphosphonic acid
Formula: C8H2F17O3P
Exact mass: 499.9470
SMILES: FC(F)(C(F)(F)P(O)(=O)O)C(F)(F)C(F)(F)C(F)(F)C(F)(F)C(F)(F)C(F)(F)F
InChI: InChI=1S/C8H2F17O3P/c9-1(10,3(13,14)5(17,18)7(21,22)23)2(11,12)4(15,16)6(19,20)8(24,25)29(26,27)28/h(H2,26,27,28)
Instrument: Bruker maXis Impact
Instrument type: LC-ESI-QTOF
Ms type: MS2
Ionization: ESI
Fragmentation mode: CID
Collision energy: 25.6-38.4 eV
Resolution: 35000
Column name: Acclaim RSLC C18 2.2um, 2.1x100mm, Thermo
Retention time: 10.841 min
Base peak: 59.0129
Precursor m/z: 544.9452
Precursor type: [M+HCOOH-H]-
m/z	relative intensity	assigned
96.967	999	CF2OP-
