Mass spectrum: 11-Ketotestosterone; LC-ESI-QTOF; MS2; CE: 50 eV; R=35000; [M+H]+
Name: 11-Ketotestosterone
Name: (8S,9S,10R,13S,14S,17S)-17-hydroxy-10,13-dimethyl-2,6,7,8,9,12,14,15,16,17-decahydro-1H-cyclopenta[a]phenanthrene-3,11-dione
Formula: C19H26O3
Exact mass: 302.1881947
SMILES: C[C@]12CC(=O)[C@H]3[C@@H](CCC4=CC(=O)CC[C@]34C)[C@@H]1CC[C@@H]2O
InChI: InChI=1S/C19H26O3/c1-18-8-7-12(20)9-11(18)3-4-13-14-5-6-16(22)19(14,2)10-15(21)17(13)18/h9,13-14,16-17,22H,3-8,10H2,1-2H3/t13-,14-,16-,17+,18-,19-/m0/s1
Instrument: Bruker maXis Impact
Instrument type: LC-ESI-QTOF
Ms type: MS2
Ion mode: POSITIVE
Ionization: ESI
Fragmentation mode: CID
Collision energy: 50 eV
Resolution: 35000
Column name: Acclaim RSLC C18 2.2um, 2.1x100mm, Thermo
Retention time: 7.881 min
Base peak: 303.1954
Precursor m/z: 303.1955
Precursor type: [M+H]+
m/z	relative intensity	assigned
115.0538	203	C9H7+
116.0595	74	C9H8+
117.0696	175	C9H9+
119.0847	304	C9H11+
120.0879	40	C8[13]CH11+
121.0639	999	C8H9O+
121.1008	54	C9H13+
122.0682	90	C7[13]CH9O+
123.0797	190	C8H11O+
127.0534	44	C10H7+
128.0611	485	C10H8+
129.0684	492	C10H9+
130.0763	237	C10H10+
131.0472	47	C9H7O+
131.0843	622	C10H11+
132.0547	74	C9H8O+
132.0886	71	C9[13]CH11+
133.0634	114	C9H9O+
133.1004	292	C10H13+
134.0695	38	C9H10O+
134.1043	41	C9[13]CH13+
135.0796	135	C9H11O+
135.115	47	C10H15+
136.0837	17	C8[13]CH11O+
137.0959	47	C9H13O+
141.0687	301	C11H9+
142.0762	337	C11H10+
143.084	527	C11H11+
144.0562	40	C10H8O+
144.0905	113	C11H12+
145.064	181	C10H9O+
145.0998	507	C11H13+
146.0709	117	C10H10O+
146.104	66	C10[13]CH13+
147.0793	365	C10H11O+
147.1152	69	C11H15+
148.0865	173	C10H12O+
149.094	131	C10H13O+
150.1001	13	C9[13]CH13O+
152.0608	51	C12H8+
153.0685	187	C12H9+
154.0753	93	C12H10+
155.0843	379	C12H11+
156.0917	193	C12H12+
157.0625	57	C11H9O+
157.0995	344	C12H13+
158.0716	77	C11H10O+
159.0788	239	C11H11O+
159.1161	202	C12H15+
160.0851	47	C11H12O+
160.1193	45	C11[13]CH15+
161.0945	375	C11H13O+
161.1312	55	C12H17+
162.1014	160	C11H14O+
163.1103	257	C11H15O+
164.1139	39	C10[13]CH15O+
165.0683	153	C13H9+
166.0765	84	C13H10+
167.0838	159	C13H11+
168.0915	148	C13H12+
169.0625	27	C12H9O+
169.0992	261	C13H13+
170.07	15	C12H10O+
170.1068	99	C13H14+
171.0788	103	C12H11O+
171.1153	225	C13H15+
172.0853	62	C12H12O+
173.0951	221	C12H13O+
173.1312	50	C13H17+
174.1025	620	C12H14O+
175.1084	185	C12H15O+
176.1173	27	C11[13]CH15O+
177.1263	50	C12H17O+
178.0759	66	C14H10+
179.0845	157	C14H11+
180.0917	83	C14H12+
181.0999	189	C14H13+
182.1084	69	C14H14+
183.0836	32	C13H11O+
183.1155	225	C14H15+
184.0851	48	C13H12O+
184.1212	83	C14H16+
185.0942	97	C13H13O+
185.1312	134	C14H17+
186.1022	80	C13H14O+
186.138	51	C14H18+
187.1108	124	C13H15O+
187.145	45	C14H19+
188.1189	147	C13H16O+
189.126	244	C13H17O+
190.1299	30	C12[13]CH17O+
191.0842	25	C15H11+
192.0935	44	C15H12+
193.0998	116	C15H13+
194.1079	75	C15H14+
195.0776	18	C14H11O+
195.116	95	C15H15+
196.0864	17	C14H12O+
196.1205	40	C15H16+
197.0928	61	C14H13O+
197.1315	96	C15H17+
198.1017	29	C14H14O+
198.1374	41	C15H18+
199.1103	84	C14H15O+
199.1464	135	C15H19+
200.1176	23	C13[13]CH15O+
201.1253	128	C14H17O+
202.1322	48	C14H18O+
203.142	57	C14H19O+
205.1015	30	C16H13+
206.1096	26	C16H14+
207.1149	38	C16H15+
208.1254	42	C16H16+
209.0979	17	C15H13O+
209.1316	54	C16H17+
210.136	21	C16H18+
211.1096	73	C15H15O+
211.1475	18	C16H19+
212.1179	41	C15H16O+
213.1258	86	C15H17O+
213.1615	27	C16H21+
214.1314	28	C15H18O+
215.144	27	C15H19O+
217.1567	15	C15H21O+
219.1147	22	C17H15+
223.1495	30	C17H19+
224.1562	18	C17H20+
225.1236	21	C16H17O+
225.163	17	C17H21+
226.1333	103	C16H18O+
227.1421	338	C16H19O+
228.1464	96	C15[13]CH19O+
229.1214	590	C15H17O2+
230.1245	140	C14[13]CH17O2+
231.1308	13	C13[13]C2H17O2+
234.1409	17	C18H18+
237.1241	25	C17H17O+
239.1383	13	C17H19O+
241.1579	89	C17H21O+
242.165	43	C17H22O+
243.135	52	C16H19O2+
243.1713	25	C17H23O+
244.1445	381	C16H20O2+
245.1498	115	C16H21O2+
246.1557	16	C15[13]CH21O2+
255.1373	23	C17H19O2+
259.169	117	C17H23O2+
260.1736	19	C16[13]CH23O2+
