Mass spectrum: Dichlorvos; GC-APCI-QTOF; MS2; CE: 10 eV; R=35000; [M+H]+
Name: Dichlorvos
Name: 2,2-dichloroethenyl dimethyl phosphate
Formula: C4H7Cl2O4P
Exact mass: 219.9459
SMILES: COP(=O)(OC)OC=C(Cl)Cl
InChI: InChI=1S/C4H7Cl2O4P/c1-8-11(7,9-2)10-3-4(5)6/h3H,1-2H3
Instrument: Bruker 450 GC coupled to maXis Impact
Instrument type: GC-APCI-QTOF
Ms type: MS2
Ion mode: POSITIVE
Ionization: APCI
Fragmentation mode: CID
Collision energy: 10 eV
Resolution: 35000
Column name: Rxi-5Sil MS column, 30m, 0.25mm i.d., 0.25Âµm film thickness (Restek)
Retention time: 9.798 min
Base peak: 220.9509
Precursor m/z: 220.9532
Precursor type: [M+H]+
m/z	relative intensity	assigned
75.9699	6	CHO2P+
109.0048	7	C2H6O3P+
127.0147	306	C2H8O4P+
144.9789	212	C2H7ClO3P+
184.9727	495	C4H7ClO4P+
219.9438	5	C4H7Cl2O4P+
220.9503	999	C4H8Cl2O4P+
