Mass spectrum: Benzenesulfonic acid; LC-ESI-QTOF; MS2; CE: 10 eV; R=35000; [M-H]-
Name: Benzenesulfonic acid
Formula: C6H6O3S
Exact mass: 158.0037651
SMILES: OS(=O)(=O)C1=CC=CC=C1
InChI: InChI=1S/C6H6O3S/c7-10(8,9)6-4-2-1-3-5-6/h1-5H,(H,7,8,9)
Instrument: Bruker maXis Impact
Instrument type: LC-ESI-QTOF
Ms type: MS2
Ion mode: NEGATIVE
Ionization: ESI
Fragmentation mode: CID
Collision energy: 10 eV
Resolution: 35000
Column name: Acclaim RSLC C18 2.2um, 2.1x100mm, Thermo
Retention time: 2.582 min
Base peak: 156.9961
Precursor m/z: 156.9965
Precursor type: [M-H]-
m/z	relative intensity	assigned
156.9956	999	C6H5O3S-
