Mass spectrum: 2,2`-Methylenebis(6-tert-butyl-p-cresol); GC-APCI-QTOF; MS2; CE: 20 eV; R=35000; [M+H]+
Name: 2,2`-Methylenebis(6-tert-butyl-p-cresol)
Formula: C23H32O2
Exact mass: 340.2402
SMILES: CC1=CC(=C(C(=C1)C(C)(C)C)O)CC2=C(C(=CC(=C2)C)C(C)(C)C)O
InChI: InChI=1S/C23H32O2/c1-14-9-16(20(24)18(11-14)22(3,4)5)13-17-10-15(2)12-19(21(17)25)23(6,7)8/h9-12,24-25H,13H2,1-8H3
Instrument: Bruker 450 GC coupled to maXis Impact
Instrument type: GC-APCI-QTOF
Ms type: MS2
Ion mode: POSITIVE
Ionization: APCI
Fragmentation mode: CID
Collision energy: 20 eV
Resolution: 35000
Column name: Rxi-5Sil MS column, 30m, 0.25mm i.d., 0.25Âµm film thickness, Restek
Retention time: 22.747 min
Base peak: 283.2616
Precursor m/z: 341.2475
Precursor type: [M+H]+
m/z	relative intensity	assigned
57.0707	454	C4H9+
123.1178	490	C9H15+
129.0913	672	C7H13O2+
135.1201	599	C10H15+
136.1221	490	C10H16+
137.1337	490	C10H17+
139.115	490	C9H15O+
145.1258	472	C8H17O2+
149.136	999	C11H17+
154.1327	544	C10H18O+
157.1255	835	C9H17O2+
163.1519	617	C12H19+
171.141	490	C10H19O2+
177.1677	944	C13H21+
187.1715	617	C11H23O2+
237.2264	454	C16H29O+
