Mass spectrum: Benzophenone-3; LC-ESI-QTOF; MS2; CE: 10 eV; R=35000; [M+H]+
Name: Benzophenone-3
Name: Oxybenzone
Name: (2-hydroxy-4-methoxyphenyl)-phenylmethanone
Formula: C14H12O3
Exact mass: 228.0786442
SMILES: COC1=CC=C(C(=O)C2=CC=CC=C2)C(O)=C1
InChI: InChI=1S/C14H12O3/c1-17-11-7-8-12(13(15)9-11)14(16)10-5-3-2-4-6-10/h2-9,15H,1H3
Instrument: Bruker maXis Impact
Instrument type: LC-ESI-QTOF
Ms type: MS2
Ion mode: POSITIVE
Ionization: ESI
Fragmentation mode: CID
Collision energy: 10 eV
Resolution: 35000
Column name: Acclaim RSLC C18 2.2um, 2.1x100mm, Thermo
Retention time: 10.816 min
Base peak: 229.0851
Precursor m/z: 229.0859
Precursor type: [M+H]+
m/z	relative intensity	assigned
151.0374	89	C8H7O3+
152.0405	7	C7[13]CH7O3+
229.0851	999	C14H13O3+
230.0881	153	C13[13]CH13O3+
231.0908	15	C12[13]C2H13O3+
