Mass spectrum: Tris(1-chloro-2-propyl)phosphate; LC-ESI-QTOF; MS2; CE: 20 eV; R=35000; [M+H]+
Name: Tris(1-chloro-2-propyl)phosphate
Name: Tris(1-chloro-2-propyl) phosphate
Name: tris(1-chloropropan-2-yl) phosphate
Formula: C9H18Cl3O4P
Exact mass: 326.0008287
SMILES: CC(CCl)OP(=O)(OC(C)CCl)OC(C)CCl
InChI: InChI=1S/C9H18Cl3O4P/c1-7(4-10)14-17(13,15-8(2)5-11)16-9(3)6-12/h7-9H,4-6H2,1-3H3
Instrument: Bruker maXis Impact
Instrument type: LC-ESI-QTOF
Ms type: MS2
Ion mode: POSITIVE
Ionization: ESI
Fragmentation mode: CID
Collision energy: 20 eV
Resolution: 35000
Column name: Acclaim RSLC C18 2.2um, 2.1x100mm, Thermo
Retention time: 9.547 min
Base peak: 327.0078
Precursor m/z: 327.0081
Precursor type: [M+H]+
m/z	relative intensity	assigned
174.9908	999	C3H9ClO4P+
175.9965	48	C2[13]CH9ClO4P+
176.9886	203	C3H9[37]ClO4P+
250.9996	101	C6H14Cl2O4P+
252.9964	68	C6H14Cl[37]ClO4P+
