Mass spectrum: Pyraclostrobin; LC-ESI-QTOF; MS2; CE: 50 eV; R=35000; [M+H]+
Name: Pyraclostrobin
Name: methyl N-[2-[[1-(4-chlorophenyl)pyrazol-3-yl]oxymethyl]phenyl]-N-methoxycarbamate
Formula: C19H18ClN3O4
Exact mass: 387.0985837
SMILES: CON(C(=O)OC)C1=C(COC2=NN(C=C2)C2=CC=C(Cl)C=C2)C=CC=C1
InChI: InChI=1S/C19H18ClN3O4/c1-25-19(24)23(26-2)17-6-4-3-5-14(17)13-27-18-11-12-22(21-18)16-9-7-15(20)8-10-16/h3-12H,13H2,1-2H3
Instrument: Bruker maXis Impact
Instrument type: LC-ESI-QTOF
Ms type: MS2
Ion mode: POSITIVE
Ionization: ESI
Fragmentation mode: CID
Collision energy: 50 eV
Resolution: 35000
Column name: Acclaim RSLC C18 2.2um, 2.1x100mm, Thermo
Retention time: 11.204 min
Base peak: 388.1065
Precursor m/z: 388.1059
Precursor type: [M+H]+
m/z	relative intensity	assigned
116.0488	9	C8H6N+
117.0565	14	C8H7N+
118.0643	33	C8H8N+
119.036	134	C7H5NO+
120.0438	242	C7H6NO+
121.0474	19	C6[13]CH6NO+
121.0641	62	C6H7N3+
122.0669	5	C5[13]CH7N3+
128.0486	27	C9H6N+
129.0558	10	C3H12ClNO2+
130.0279	43	C8H4NO+
130.0638	5	C3H13ClNO2+
132.0437	484	C8H6NO+
133.0513	786	C8H7NO+
134.0227	63	C7H4NO2+
134.0577	101	C7[13]CH7NO+
135.0645	12	C3H9N3O3+
138.0095	8	C10H2O+
146.0586	15	C3H13ClNO3+
147.0301	6	C2H10ClNO4+
148.0383	89	C8H6NO2+
149.0462	731	C8H7NO2+
150.0494	43	C7[13]CH7NO2+
151.0618	10	C8H9NO2+
162.0542	364	C9H8NO2+
163.0618	999	C9H9NO2+
164.0666	96	C8[13]CH9NO2+
165.0699	7	C13H9+
179.0566	7	C9H9NO3+
204.08	15	C15H10N+
218.0834	34	C15H10N2+
219.0892	15	C9H16ClN2O2+
232.0761	14	C13H13ClN2+
233.0938	9	C11H18ClO3+
243.0785	26	C16H9N3+
244.083	6	C15[13]CH9N3+
253.0522	35	C15H10ClN2+
254.056	7	C14[13]CH10ClN2+
255.0495	10	C15H10[37]ClN2+
261.0896	10	C16H11N3O+
267.0559	6	C15H10ClN3+
296.0585	5	C16H11ClN3O+
