Mass spectrum: N,O-Didesvenlafaxine; LC-ESI-QTOF; MS2; CE: 20 eV; R=35000; [M+H]+
Name: N,O-Didesvenlafaxine
Name: 4-[1-(1-hydroxycyclohexyl)-2-(methylamino)ethyl]phenol
Formula: C15H23NO2
Exact mass: 249.1728790
SMILES: CNCC(C1=CC=C(O)C=C1)C1(O)CCCCC1
InChI: InChI=1S/C15H23NO2/c1-16-11-14(12-5-7-13(17)8-6-12)15(18)9-3-2-4-10-15/h5-8,14,16-18H,2-4,9-11H2,1H3
Instrument: Bruker maXis Impact
Instrument type: LC-ESI-QTOF
Ms type: MS2
Ion mode: POSITIVE
Ionization: ESI
Fragmentation mode: CID
Collision energy: 20 eV
Resolution: 35000
Column name: Acclaim RSLC C18 2.2um, 2.1x100mm, Thermo
Retention time: 4.8 min
Base peak: 250.1796
Precursor m/z: 250.1802
Precursor type: [M+H]+
m/z	relative intensity	assigned
119.0473	11	C8H7O+
121.0643	19	C8H9O+
131.0478	16	C9H7O+
133.0637	655	C9H9O+
134.0678	50	C8[13]CH9O+
135.0675	14	C8H9NO+
138.1272	19	C9H16N+
145.0636	180	C10H9O+
146.0671	22	C5H10N2O3+
147.0771	13	C5H11N2O3+
150.0896	72	C9H12NO+
159.0789	224	C11H11O+
160.0837	29	C6H12N2O3+
173.0958	48	C12H13O+
183.1155	9	C14H15+
201.1264	999	C14H17O+
202.1301	148	C13[13]CH17O+
203.1321	10	C12[13]C2H17O+
232.1687	558	C15H22NO+
233.1722	100	C14[13]CH22NO+
234.1782	10	C13[13]C2H22NO+
250.1794	147	C15H24NO2+
