Mass spectrum: Danofloxacin; LC-ESI-QTOF; MS2; CE: 40 eV; R=35000; [M+H]+
Name: Danofloxacin
Name: 1-cyclopropyl-6-fluoro-7-[(1s,4s)-5-methyl-2,5-diazabicyclo[2.2.1]heptan-2-yl]-4-oxoquinoline-3-carboxylic acid
Formula: C19H20FN3O3
Exact mass: 357.1488697
SMILES: CN1C[C@@H]2C[C@H]1CN2C3=C(C=C4C(=C3)N(C=C(C4=O)C(=O)O)C5CC5)F
InChI: InChI=1S/C19H20FN3O3/c1-21-7-12-4-11(21)8-22(12)17-6-16-13(5-15(17)20)18(24)14(19(25)26)9-23(16)10-2-3-10/h5-6,9-12H,2-4,7-8H2,1H3,(H,25,26)/t11-,12-/m0/s1
Instrument: Bruker maXis Impact
Instrument type: LC-ESI-QTOF
Ms type: MS2
Ion mode: POSITIVE
Ionization: ESI
Fragmentation mode: CID
Collision energy: 40 eV
Resolution: 35000
Column name: Acclaim RSLC C18 2.2um, 2.1x100mm, Thermo
Retention time: 4.7 min
Base peak: 311.081
Precursor m/z: 358.1561
Precursor type: [M+H]+
m/z	relative intensity	assigned
203.0632	31	C11H8FN2O+
204.068	33	C14H8N2+
218.0491	27	C11H7FN2O2+
229.0794	19	C13H10FN2O+
231.0906	19	C16H11N2+
245.1088	102	C14H14FN2O+
255.0563	177	C14H8FN2O2+
256.0626	31	C17H8N2O+
257.0682	18	C17H9N2O+
258.0688	16	C15H11FO3+
286.1	98	C17H15FO3+
340.1453	265	C19H19FN3O2+
341.1519	53	C18[13]CH19FN3O2+
342.1609	47	C19H21FN3O2+
358.1566	999	C19H21FN3O3+
359.1592	140	C18[13]CH21FN3O3+
