Mass spectrum: Flecainide; LC-ESI-QTOF; MS2; CE: 50 eV; R=35000; [M+H]+
Name: Flecainide
Name: N-(piperidin-2-ylmethyl)-2,5-bis(2,2,2-trifluoroethoxy)benzamide
Formula: C17H20F6N2O3
Exact mass: 414.1378118
SMILES: c1cc(c(cc1OCC(F)(F)F)C(=O)NCC2CCCCN2)OCC(F)(F)F
InChI: InChI=1S/C17H20F6N2O3/c18-16(19,20)9-27-12-4-5-14(28-10-17(21,22)23)13(7-12)15(26)25-8-11-3-1-2-6-24-11/h4-5,7,11,24H,1-3,6,8-10H2,(H,25,26)
Instrument: Bruker maXis Impact
Instrument type: LC-ESI-QTOF
Ms type: MS2
Ion mode: POSITIVE
Ionization: ESI
Fragmentation mode: CID
Collision energy: 50 eV
Resolution: 35000
Column name: Acclaim RSLC C18 2.2um, 2.1x100mm, Thermo
Retention time: 6.318 min
Base peak: 415.1455
Precursor m/z: 415.1451
Precursor type: [M+H]+
m/z	relative intensity	assigned
135.0067	13	C2H3F4O2+
153.0172	11	C2H5F4O3+
189.0512	7	C12H7F2+
190.0229	11	C11H4F2O+
207.0419	5	C12H6F3+
209.0216	102	C11H4F3O+
210.0244	8	C10[13]CH4F3O+
218.0181	33	C9H5F3O3+
219.0249	14	C12H5F2O2+
225.0324	20	C12H5F4+
232.0968	168	C8H14F4NO2+
233.0994	21	C7[13]CH14F4NO2+
236.0288	106	C12H6F2O3+
237.0167	103	C12H4F3O2+
238.0197	8	C11[13]CH4F3O2+
246.0361	6	C13H6F2NO2+
253.0281	50	C15H6FO3+
254.0337	10	C14[13]CH6FO3+
281.0229	36	C11H6F5O3+
287.0496	5	C11H9F6O2+
298.1048	13	C15H15F3NO2+
301.0295	999	C11H7F6O3+
302.0329	82	C10[13]CH7F6O3+
303.0348	7	C9[13]C2H7F6O3+
314.0998	5	C15H15F3NO3+
315.107	15	C15H16F3NO3+
398.1187	58	C17H18F6NO3+
399.1216	11	C16[13]CH18F6NO3+
