Mass spectrum: Oxybutynin; LC-ESI-QTOF; MS2; CE: 50 eV; R=35000; [M+H]+
Name: Oxybutynin
Name: 4-(diethylamino)but-2-ynyl 2-cyclohexyl-2-hydroxy-2-phenylacetate
Formula: C22H31NO3
Exact mass: 357.2303939
SMILES: CCN(CC)CC#CCOC(=O)C(O)(C1CCCCC1)C1=CC=CC=C1
InChI: InChI=1S/C22H31NO3/c1-3-23(4-2)17-11-12-18-26-21(24)22(25,19-13-7-5-8-14-19)20-15-9-6-10-16-20/h5,7-8,13-14,20,25H,3-4,6,9-10,15-18H2,1-2H3
Instrument: Bruker maXis Impact
Instrument type: LC-ESI-QTOF
Ms type: MS2
Ion mode: POSITIVE
Ionization: ESI
Fragmentation mode: CID
Collision energy: 50 eV
Resolution: 35000
Column name: Acclaim RSLC C18 2.2um, 2.1x100mm, Thermo
Retention time: 8.472 min
Base peak: 358.2376
Precursor m/z: 358.2377
Precursor type: [M+H]+
m/z	relative intensity	assigned
115.0537	35	C9H7+
116.0563	5	C8[13]CH7+
117.0687	36	C9H9+
118.0736	5	C8[13]CH9+
121.064	20	C8H9O+
122.096	12	C8H12N+
124.1119	9	C8H14N+
126.0446	6	C10H6+
127.0525	19	C10H7+
128.0607	196	C10H8+
129.0687	488	C10H9+
130.0724	59	C9[13]CH9+
131.0482	6	C9H7O+
131.0841	10	C10H11+
133.0276	21	C8H5O2+
133.0629	6	C9H9O+
135.043	5	C8H7O2+
139.0521	7	C11H7+
141.0686	48	C11H9+
142.1215	999	C8H16NO+
143.0842	111	C11H11+
143.1248	99	C7[13]CH16NO+
144.087	17	C10[13]CH11+
145.0635	33	C10H9O+
145.0993	6	C11H13+
153.0682	11	C12H9+
154.0759	8	C12H10+
155.0586	45	C7H9NO3+
155.0836	17	C12H11+
156.0613	6	C6[13]CH9NO3+
156.0923	9	C12H12+
157.0637	66	C11H9O+
158.0674	8	C10[13]CH9O+
165.0688	30	C13H9+
166.076	38	C13H10+
167.0814	9	C13H11+
169.1003	8	C13H13+
171.079	7	C12H11O+
171.1157	127	C13H15+
172.1186	16	C12[13]CH15+
173.0583	22	C11H9O2+
178.0757	10	C14H10+
179.0836	17	C14H11+
181.0991	16	C14H13+
183.0661	8	C12H9NO+
183.1035	8	C13H13N+
184.1089	13	C10H16O3+
185.0582	6	C12H9O2+
189.1262	74	C13H17O+
190.1309	11	C12[13]CH17O+
191.0858	5	C15H11+
199.1103	24	C14H15O+
