Mass spectrum: N4-Acetylsulfathiazole; LC-ESI-QTOF; MS2; CE: 20 eV; R=35000; [M+H]+
Name: N4-Acetylsulfathiazole
Name: Acetylsulfathiazole
Name: N-[4-(1,3-thiazol-2-ylsulfamoyl)phenyl]acetamide
Formula: C11H11N3O3S2
Exact mass: 297.0241832
SMILES: CC(=O)NC1=CC=C(C=C1)S(=O)(=O)NC1=NC=CS1
InChI: InChI=1S/C11H11N3O3S2/c1-8(15)13-9-2-4-10(5-3-9)19(16,17)14-11-12-6-7-18-11/h2-7H,1H3,(H,12,14)(H,13,15)
Instrument: Bruker maXis Impact
Instrument type: LC-ESI-QTOF
Ms type: MS2
Ion mode: POSITIVE
Ionization: ESI
Fragmentation mode: CID
Collision energy: 20 eV
Resolution: 35000
Column name: Acclaim RSLC C18 2.2um, 2.1x100mm, Thermo
Retention time: 4.1 min
Base peak: 150.1114
Precursor m/z: 298.0315
Precursor type: [M+H]+
m/z	relative intensity	assigned
133.0847	29	C4H11N3O2+
134.0594	261	C8H8NO+
135.0613	17	C7[13]CH8NO+
136.0744	18	C8H10NO+
150.0541	66	C8H8NO2+
156.0094	42	C9H2NO2+
162.064	63	C8H8N3O+
182.0266	35	C8H8NO2S+
198.0209	999	C8H8NO3S+
199.0243	76	C7[13]CH8NO3S+
200.0164	35	C11H6NOS+
232.0532	19	C11H10N3OS+
298.0307	377	C11H12N3O3S2+
