Mass spectrum: Flunitrazepam; LC-ESI-QTOF; MS2; CE: 50 eV; R=35000; [M+H]+
Name: Flunitrazepam
Name: 5-(2-fluorophenyl)-1-methyl-7-nitro-3H-1,4-benzodiazepin-2-one
Formula: C16H12FN3O3
Exact mass: 313.0862695
SMILES: CN1C2=C(C=C(C=C2)[N+]([O-])=O)C(=NCC1=O)C1=C(F)C=CC=C1
InChI: InChI=1S/C16H12FN3O3/c1-19-14-7-6-10(20(22)23)8-12(14)16(18-9-15(19)21)11-4-2-3-5-13(11)17/h2-8H,9H2,1H3
Instrument: Bruker maXis Impact
Instrument type: LC-ESI-QTOF
Ms type: MS2
Ion mode: POSITIVE
Ionization: ESI
Fragmentation mode: CID
Collision energy: 50 eV
Resolution: 35000
Column name: Acclaim RSLC C18 2.2um, 2.1x100mm, Thermo
Retention time: 7.6 min
Base peak: 327.1372
Precursor m/z: 314.0935
Precursor type: [M+H]+
m/z	relative intensity	assigned
116.0482	9	C8H6N+
117.0575	17	C8H7N+
118.0642	66	C8H8N+
119.072	47	C8H9N+
120.0757	6	C3H10N3O2+
122.0404	8	C7H5FN+
123.0239	8	C7H4FO+
129.043	6	C5H7NO3+
132.0433	11	C8H6NO+
134.04	11	C8H5FN+
135.0453	5	C5H8FO3+
143.0596	39	C9H7N2+
144.066	20	C6H10NO3+
145.0518	8	C9H7NO+
145.0739	13	C6H11NO3+
146.0555	5	C4H8N3O3+
147.0674	18	C9H9NO+
148.0549	7	C9H7FN+
151.053	9	C7H6FN3+
152.0603	5	C4H9FN2O3+
159.0598	5	C11H8F+
163.0521	8	C5H8FN2O3+
164.0615	17	C8H7FN3+
165.0685	91	C8H8FN3+
166.0737	22	C8H10N2O2+
167.0728	7	C12H9N+
168.0556	6	C10H6N3+
169.063	7	C10H7N3+
171.0566	43	C7H8FN2O2+
172.0559	7	C11H7FN+
173.0648	5	C11H8FN+
174.0587	19	C10H7FN2+
175.0643	5	C7H10FNO3+
177.0555	9	C10H9O3+
178.0641	19	C13H8N+
179.0579	10	C9H9NO3+
179.0729	12	C13H9N+
180.0789	18	C10H12O3+
181.0851	6	C8H11N3O2+
182.0514	20	C13H7F+
183.0593	372	C13H8F+
184.0648	66	C12[13]CH8F+
185.0636	25	C12H8FN+
185.0725	22	C8H10FN2O2+
186.0706	13	C12H9FN+
190.0641	48	C14H8N+
191.0706	38	C11H11O3+
192.0797	64	C14H10N+
193.086	28	C11H13O3+
194.096	11	C14H12N+
195.0597	11	C14H8F+
196.0549	23	C13H7FN+
196.0652	17	C9H9FN2O2+
198.0701	309	C13H9FN+
199.0545	13	C16H7+
199.0749	49	C12[13]CH9FN+
200.084	9	C10H13FO3+
202.0637	19	C12H10O3+
203.0695	6	C10H9N3O2+
204.0651	6	C11H10NO3+
204.08	17	C15H10N+
205.0754	169	C14H9N2+
206.0814	35	C13[13]CH9N2+
207.0855	9	C11H13NO3+
208.0551	37	C14H7FN+
209.062	21	C11H10FO3+
209.1079	5	C14H13N2+
212.0854	319	C11H13FO3+
214.0416	5	C16H6O+
214.0669	9	C13H9FNO+
214.0902	10	C13H11FN2+
218.0825	16	C12H12NO3+
220.0746	7	C15H10NO+
220.0962	40	C15H12N2+
221.1068	131	C15H13N2+
225.0812	140	C14H10FN2+
226.0643	6	C14H10O3+
226.0848	23	C13[13]CH10FN2+
227.0969	60	C14H12FN2+
228.0807	8	C14H11FNO+
228.1018	12	C14H13FN2+
237.0815	49	C15H10FN2+
238.0663	8	C15H9FNO+
238.0887	55	C12H13FNO3+
239.0974	999	C15H12FN2+
240.1016	212	C14[13]CH12FN2+
241.1069	26	C13H13N4O+
243.0682	8	C14H10FNO2+
253.0766	7	C15H10FN2O+
255.0903	7	C15H13NO3+
256.0626	14	C14H9FN2O2+
267.092	28	C16H12FN2O+
268.0997	153	C16H13FN2O+
269.103	28	C14H13N4O2+
270.0753	7	C15H11FN2O2+
272.0952	20	C15H13FN2O2+
300.0904	71	C16H13FN2O3+
301.0952	12	C14H12FN5O2+
