Mass spectrum: Azobenzene; LC-ESI-QTOF; MS2; CE: 50 eV; R=35000; [M+H]+
Name: Azobenzene
Formula: C12H10N2
Exact mass: 182.0843983
SMILES: C1=CC=C(C=C1)\N=N\C1=CC=CC=C1
InChI: InChI=1S/C12H10N2/c1-3-7-11(8-4-1)13-14-12-9-5-2-6-10-12/h1-10H/b14-13+
Instrument: Bruker maXis Impact
Instrument type: LC-ESI-QTOF
Ms type: MS2
Ion mode: POSITIVE
Ionization: ESI
Fragmentation mode: CID
Collision energy: 50 eV
Resolution: 35000
Column name: Acclaim RSLC C18 2.2um, 2.1x100mm, Thermo
Retention time: 8.475 min
Base peak: 177.0531
Precursor m/z: 183.0917
Precursor type: [M+H]+
m/z	relative intensity	assigned
140.0478	999	C10H6N+
