Mass spectrum: Venlafaxine; LC-ESI-QTOF; MS2; CE: 30 eV; R=35000; [M+H]+
Name: Venlafaxine
Name: 1-[2-(dimethylamino)-1-(4-methoxyphenyl)ethyl]cyclohexan-1-ol
Formula: C17H27NO2
Exact mass: 277.2041791
SMILES: CN(C)CC(c1ccc(cc1)OC)C2(CCCCC2)O
InChI: InChI=1S/C17H27NO2/c1-18(2)13-16(17(19)11-5-4-6-12-17)14-7-9-15(20-3)10-8-14/h7-10,16,19H,4-6,11-13H2,1-3H3
Instrument: Bruker maXis Impact
Instrument type: LC-ESI-QTOF
Ms type: MS2
Ion mode: POSITIVE
Ionization: ESI
Fragmentation mode: CID
Collision energy: 30 eV
Resolution: 35000
Column name: Acclaim RSLC C18 2.2um, 2.1x100mm, Thermo
Retention time: 6.2 min
Base peak: 278.2116
Precursor m/z: 278.2115
Precursor type: [M+H]+
m/z	relative intensity	assigned
115.0533	12	C9H7+
117.0686	6	C9H9+
119.0853	5	C9H11+
121.0639	999	C8H9O+
122.0671	83	C3H10N2O3+
128.0614	5	C10H8+
129.068	6	C10H9+
131.0476	14	C9H7O+
133.0618	12	C9H9O+
135.0792	90	C9H11O+
136.0825	7	C4H12N2O3+
141.0689	11	C11H9+
144.0549	23	C10H8O+
145.0634	21	C10H9O+
146.0699	5	C10H10O+
147.0792	858	C10H11O+
148.0827	84	C5H12N2O3+
149.0227	7	C11H3N+
152.1419	20	C10H18N+
155.0838	7	C12H11+
158.0713	33	C11H10O+
159.079	208	C11H11O+
160.0836	29	C6H12N2O3+
161.0945	31	C11H13O+
162.0907	17	C10H12NO+
163.0977	29	C10H13NO+
173.0949	332	C12H13O+
174.0988	46	C7H14N2O3+
178.121	46	C11H16NO+
179.1255	6	C6H17N3O3+
183.1158	24	C14H15+
184.1187	5	C9H16N2O2+
187.1102	16	C13H15O+
213.1268	5	C15H17O+
215.1421	287	C15H19O+
216.1458	39	C10H20N2O3+
260.1994	29	C17H26NO+
261.2034	8	C16[13]CH26NO+
