Mass spectrum: Sudan III; LC-ESI-QTOF; MS2; CE: 20 eV; R=35000; [M+H]+
Name: Sudan III
Formula: C22H16N4O
Exact mass: 352.1324111
SMILES: c1ccc(cc1)/N=N\c2ccc(cc2)/N=N/c3c4ccccc4ccc3O
InChI: InChI=1S/C22H16N4O/c27-21-15-10-16-6-4-5-9-20(16)22(21)26-25-19-13-11-18(12-14-19)24-23-17-7-2-1-3-8-17/h1-15,27H/b24-23-,26-25+
Instrument: Bruker maXis Impact
Instrument type: LC-ESI-QTOF
Ms type: MS2
Ion mode: POSITIVE
Ionization: ESI
Fragmentation mode: CID
Collision energy: 20 eV
Resolution: 35000
Column name: Acclaim RSLC C18 2.2um, 2.1x100mm, Thermo
Retention time: 15.499 min
Base peak: 338.3448
Precursor m/z: 353.1397
Precursor type: [M+H]+
m/z	relative intensity	assigned
120.0562	10	C6H6N3+
128.0509	9	C9H6N+
128.1077	6	C7H14NO+
135.1175	12	C10H15+
142.123	5	C8H16NO+
143.0499	6	C10H7O+
149.1335	9	C11H17+
156.045	116	C10H6NO+
156.1389	7	C7H16N4+
157.0483	13	C9[13]CH6NO+
171.0554	5	C10H7N2O+
196.0878	106	C14H12O+
197.0955	168	C14H13O+
198.103	73	C12H12N3+
199.1061	10	C11[13]CH12N3+
247.0896	6	C16H11N2O+
248.0958	20	C16H12N2O+
336.1367	11	C22H16N4+
353.1432	999	C22H17N4O+
354.146	234	C21[13]CH17N4O+
355.1486	31	C20[13]C2H17N4O+
