Mass spectrum: Boscalid; LC-ESI-QTOF; MS2; CE: 40 eV; R=35000; [M+H]+
Name: Boscalid
Name: 2-chloro-N-[2-(4-chlorophenyl)phenyl]pyridine-3-carboxamide
Formula: C18H12Cl2N2O
Exact mass: 342.0326684
SMILES: ClC1=CC=C(C=C1)C1=CC=CC=C1NC(=O)C1=CC=CN=C1Cl
InChI: InChI=1S/C18H12Cl2N2O/c19-13-9-7-12(8-10-13)14-4-1-2-6-16(14)22-18(23)15-5-3-11-21-17(15)20/h1-11H,(H,22,23)
Instrument: Bruker maXis Impact
Instrument type: LC-ESI-QTOF
Ms type: MS2
Ion mode: POSITIVE
Ionization: ESI
Fragmentation mode: CID
Collision energy: 40 eV
Resolution: 35000
Column name: Acclaim RSLC C18 2.2um, 2.1x100mm, Thermo
Retention time: 9.456 min
Base peak: 333.1806
Precursor m/z: 343.0399
Precursor type: [M+H]+
m/z	relative intensity	assigned
111.9942	19	C8O+
130.0039	7	C5H5ClNO+
139.9884	300	C6H3ClNO+
140.9915	14	C5[13]CH3ClNO+
141.9856	57	C6H3[37]ClNO+
152.0607	14	C12H8+
167.0583	9	C11H7N2+
177.0554	8	C13H7N+
195.0537	10	C12H7N2O+
196.0621	7	C12H8N2O+
202.0761	5	C16H10+
214.0416	5	C13H9ClN+
216.0793	8	C16H10N+
217.0879	10	C16H11N+
227.0719	9	C17H9N+
228.0787	15	C17H10N+
229.0868	14	C17H11N+
230.0351	12	C13H9ClNO+
238.0424	7	C15H9ClN+
242.0827	23	C17H10N2+
243.0901	105	C17H11N2+
244.0752	5	C17H10NO+
244.0975	55	C17H12N2+
245.0794	5	C17H11NO+
245.1	7	C16[13]CH12N2+
253.0745	44	C18H9N2+
254.0824	96	C18H10N2+
255.0873	15	C17[13]CH10N2+
262.042	5	C17H9ClN+
264.0555	12	C17H11ClN+
266.0516	6	C17H11[37]ClN+
270.0782	25	C18H10N2O+
271.0859	777	C18H11N2O+
272.0931	999	C18H12N2O+
273.0965	146	C17[13]CH12N2O+
274.098	9	C16[13]C2H12N2O+
279.0664	12	C17H12ClN2+
280.0533	5	C17H11ClNO+
289.0521	142	C18H10ClN2+
290.0541	30	C17[13]CH10ClN2+
291.0481	38	C18H10[37]ClN2+
292.0488	8	C18H11ClNO+
305.0481	9	C18H10ClN2O+
306.0538	9	C18H11ClN2O+
307.0628	546	C18H12ClN2O+
308.0658	98	C17[13]CH12ClN2O+
309.0605	132	C18H12[37]ClN2O+
