Mass spectrum: 1H,1H,2H,2H-perfluorodecylphosphate (8:2PAP); LC-ESI-QTOF; MS2; CE: 10 eV; R=35000; [M-H]-
Name: 1H,1H,2H,2H-perfluorodecylphosphate (8:2PAP)
Name: Perfluorodecyl phosphate
Name: 3,3,4,4,5,5,6,6,7,7,8,8,9,9,10,10,10-heptadecafluorodecyl dihydrogen phosphate
Formula: C10H6F17O4P
Exact mass: 543.9732
SMILES: C(COP(=O)(O)O)C(C(C(C(C(C(C(C(F)(F)F)(F)F)(F)F)(F)F)(F)F)(F)F)(F)F)(F)F
InChI: InChI=1S/C10H6F17O4P/c11-3(12,1-2-31-32(28,29)30)4(13,14)5(15,16)6(17,18)7(19,20)8(21,22)9(23,24)10(25,26)27/h1-2H2,(H2,28,29,30)
Instrument: Bruker maXis Impact
Instrument type: LC-ESI-QTOF
Ms type: MS2
Ionization: ESI
Fragmentation mode: CID
Collision energy: 10 eV
Resolution: 35000
Column name: Acclaim RSLC C18 2.2um, 2.1x100mm, Thermo
Retention time: 10.869 min
Base peak: 544.9706
Precursor m/z: 542.9659
Precursor type: [M-H]-
m/z	relative intensity	assigned
542.9733	999	C10H5F17O4P-
