Mass spectrum: Metazachlor-OXA; LC-ESI-QTOF; MS2; CE: 20 eV; R=35000; [M+H]+
Name: Metazachlor-OXA
Name: 2-[2,6-dimethyl-N-(pyrazol-1-ylmethyl)anilino]-2-oxoacetic acid
Formula: C14H15N3O3
Exact mass: 273.1113413
SMILES: Cc1cccc(C)c1N(Cn1cccn1)C(=O)C(O)=O
InChI: InChI=1S/C14H15N3O3/c1-10-5-3-6-11(2)12(10)17(13(18)14(19)20)9-16-8-4-7-15-16/h3-8H,9H2,1-2H3,(H,19,20)
Instrument: Bruker maXis Impact
Instrument type: LC-ESI-QTOF
Ms type: MS2
Ion mode: POSITIVE
Ionization: ESI
Fragmentation mode: CID
Collision energy: 20 eV
Resolution: 35000
Column name: Acclaim RSLC C18 2.2um, 2.1x100mm, Thermo
Retention time: 4.7 min
Base peak: 150.1114
Precursor m/z: 274.1186
Precursor type: [M+H]+
m/z	relative intensity	assigned
118.0631	11	C5H10O3+
119.0715	29	C5H11O3+
134.0956	999	C9H12N+
135.0988	81	C8[13]CH12N+
162.0895	79	C10H12NO+
178.0862	22	C10H12NO2+
206.0805	579	C11H12NO3+
207.0838	69	C10[13]CH12NO3+
224.0921	43	C14H12N2O+
