Mass spectrum: Oryzalin; LC-ESI-QTOF; MS2; CE: 20 eV; R=35000; [M-H]-
Name: Oryzalin
Name: 4-(dipropylamino)-3,5-dinitrobenzenesulfonamide
Formula: C12H18N4O6S
Exact mass: 346.0947053
SMILES: CCCN(CCC)C1=C(C=C(C=C1[N+]([O-])=O)S(N)(=O)=O)[N+]([O-])=O
InChI: InChI=1S/C12H18N4O6S/c1-3-5-14(6-4-2)12-10(15(17)18)7-9(23(13,21)22)8-11(12)16(19)20/h7-8H,3-6H2,1-2H3,(H2,13,21,22)
Instrument: Bruker maXis Impact
Instrument type: LC-ESI-QTOF
Ms type: MS2
Ion mode: NEGATIVE
Ionization: ESI
Fragmentation mode: CID
Collision energy: 20 eV
Resolution: 35000
Column name: Acclaim RSLC C18 2.2um, 2.1x100mm, Thermo
Retention time: 10.235 min
Base peak: 345.0875
Precursor m/z: 345.0874
Precursor type: [M-H]-
m/z	relative intensity	assigned
134.0337	9	C3H6N2O4-
135.0204	7	H9NO5S-
135.0433	5	C6H5N3O-
136.0499	5	C3H8N2O4-
146.0355	12	C7H4N3O-
147.0433	30	C7H5N3O-
149.0368	6	CH11NO5S-
150.0319	14	H10N2O5S-
157.0658	6	C11H9O-
160.0498	9	C5H8N2O4-
161.0719	17	C9H9N2O-
162.0304	5	C7H4N3O2-
163.0253	6	C5H7O6-
174.0654	46	C6H10N2O4-
175.0551	5	C6H11N2O2S-
175.0727	15	C6H11N2O4-
176.0351	6	C9H6NO3-
176.0851	13	C11H12O2-
180.0287	24	C6H4N4O3-
182.0197	16	C12H6S-
187.1255	5	C12H15N2-
190.0595	6	C6H10N2O5-
191.0179	13	C4H5N3O6-
191.0686	11	C6H11N2O5-
192.0295	7	CH10N3O6S-
203.0558	18	C8H11O6-
204.0666	6	C11H10NO3-
212.013	7	C7H6N3O3S-
221.072	8	C6H13N4O3S-
222.0353	6	C11H10O3S-
224.0477	6	C6H12N2O5S-
226.9941	14	C11H3N2O2S-
228.0068	13	C12H4O5-
234.1254	39	C12H16N3O2-
235.1241	8	C11[13]CH16N3O2-
238.0691	7	C9H10N4O4-
240.0454	20	C9H10N3O3S-
241.0035	27	C7H5N4O4S-
244.0017	10	C12H4O6-
256.0368	14	C12H6N3O4-
258.0565	10	C11H14O5S-
272.0349	7	C9H10N3O5S-
272.9938	5	C7H5N4O6S-
281.1243	257	C12H17N4O4-
282.1271	35	C11[13]CH17N4O4-
285.0234	5	C9H9N4O5S-
285.0337	5	C9H9N4O5S-
299.0444	29	C10H11N4O5S-
345.0867	999	C12H17N4O6S-
346.0893	143	C11[13]CH17N4O6S-
347.0872	68	C12H17N4O6[34]S-
