Mass spectrum: Metamitron; LC-ESI-QTOF; MS2; CE: 20 eV; R=35000; [M+H]+
Name: Metamitron
Name: 4-amino-3-methyl-6-phenyl-1,2,4-triazin-5-one
Formula: C10H10N4O
Exact mass: 202.0854609
SMILES: CC1=NN=C(C(=O)N1N)C1=CC=CC=C1
InChI: InChI=1S/C10H10N4O/c1-7-12-13-9(10(15)14(7)11)8-5-3-2-4-6-8/h2-6H,11H2,1H3
Instrument: Bruker maXis Impact
Instrument type: LC-ESI-QTOF
Ms type: MS2
Ion mode: POSITIVE
Ionization: ESI
Fragmentation mode: CID
Collision energy: 20 eV
Resolution: 35000
Column name: Acclaim RSLC C18 2.2um, 2.1x100mm, Thermo
Retention time: 5.2 min
Base peak: 203.0922
Precursor m/z: 203.0927
Precursor type: [M+H]+
m/z	relative intensity	assigned
117.0439	6	C7H5N2+
119.0598	8	C7H7N2+
130.064	21	C9H8N+
134.0701	14	C7H8N3+
145.0381	123	C8H5N2O+
158.0702	19	C9H8N3+
159.0773	21	C9H9N3+
175.0967	814	C9H11N4+
176.0989	83	C8[13]CH11N4+
177.1015	5	C8H11N5+
186.0649	10	C10H8N3O+
187.0752	7	C10H9N3O+
203.0927	999	C10H11N4O+
204.0947	116	C9[13]CH11N4O+
205.0984	6	C8[13]C2H11N4O+
