Mass spectrum: 2-Trifluoromethyl-benzenesulfonamide; LC-ESI-QTOF; MS2; CE: 10 eV; R=35000; [M-H]-
Name: 2-Trifluoromethyl-benzenesulfonamide
Name: 2-(trifluoromethyl)benzenesulfonamide
Formula: C7H6F3NO2S
Exact mass: 225.0071341
SMILES: NS(=O)(=O)C1=C(C=CC=C1)C(F)(F)F
InChI: InChI=1S/C7H6F3NO2S/c8-7(9,10)5-3-1-2-4-6(5)14(11,12)13/h1-4H,(H2,11,12,13)
Instrument: Bruker maXis Impact
Instrument type: LC-ESI-QTOF
Ms type: MS2
Ion mode: NEGATIVE
Ionization: ESI
Fragmentation mode: CID
Collision energy: 10 eV
Resolution: 35000
Column name: Acclaim RSLC C18 2.2um, 2.1x100mm, Thermo
Retention time: 4.993 min
Base peak: 168.9695
Precursor m/z: 223.9999
Precursor type: [M-H]-
m/z	relative intensity	assigned
120.0255	23	C7H3FN-
140.0324	36	C4H5F3NO-
145.0275	21	C7H4F3-
160.0376	451	C7H5F3N-
161.0427	47	C6[13]CH5F3N-
223.9994	999	C7H5F3NO2S-
225.0018	124	C6[13]CH5F3NO2S-
225.9933	64	C7H5F3NO2[34]S-
