Mass spectrum: Acebutolol; LC-ESI-QTOF; MS2; CE: 20 eV; R=35000; [M+H]+
Name: Acebutolol
Name: N-[3-acetyl-4-[2-hydroxy-3-(propan-2-ylamino)propoxy]phenyl]butanamide
Formula: C18H28N2O4
Exact mass: 336.2049074
SMILES: CCCC(=O)Nc1ccc(c(c1)C(=O)C)OCC(CNC(C)C)O
InChI: InChI=1S/C18H28N2O4/c1-5-6-18(23)20-14-7-8-17(16(9-14)13(4)21)24-11-15(22)10-19-12(2)3/h7-9,12,15,19,22H,5-6,10-11H2,1-4H3,(H,20,23)
Instrument: Bruker maXis Impact
Instrument type: LC-ESI-QTOF
Ms type: MS2
Ion mode: POSITIVE
Ionization: ESI
Fragmentation mode: CID
Collision energy: 20 eV
Resolution: 35000
Column name: Acclaim RSLC C18 2.2um, 2.1x100mm, Thermo
Retention time: 4.702 min
Base peak: 337.2126
Precursor m/z: 337.2122
Precursor type: [M+H]+
m/z	relative intensity	assigned
116.1063	75	C6H14NO+
117.1095	5	C5[13]CH14NO+
218.1162	13	C13H16NO2+
222.1116	8	C12H16NO3+
260.1274	54	C15H18NO3+
261.1302	8	C14[13]CH18NO3+
277.1537	8	C15H21N2O3+
295.1644	7	C15H23N2O4+
319.2013	176	C18H27N2O3+
320.2042	28	C17[13]CH27N2O3+
337.2126	999	C18H29N2O4+
338.2151	314	C17[13]CH29N2O4+
339.2175	28	C16[13]C2H29N2O4+
