Mass spectrum: Tetraglyme; LC-ESI-QTOF; MS2; CE: Ramp 18.8-28.3 eV; R=35000; [M+H]+
Name: Tetraglyme
Name: 1-methoxy-2-[2-[2-(2-methoxyethoxy)ethoxy]ethoxy]ethane
Formula: C10H22O5
Exact mass: 222.1467238
SMILES: COCCOCCOCCOCCOC
InChI: InChI=1S/C10H22O5/c1-11-3-5-13-7-9-15-10-8-14-6-4-12-2/h3-10H2,1-2H3
Instrument: Bruker maXis Impact
Instrument type: LC-ESI-QTOF
Ms type: MS2
Ion mode: POSITIVE
Ionization: ESI
Fragmentation mode: CID
Collision energy: Ramp 18.8-28.3 eV
Resolution: 35000
Column name: Acclaim RSLC C18 2.2um, 2.1x100mm, Thermo
Retention time: 4.586 min
Base peak: 261.1098
Precursor m/z: 223.154
Precursor type: [M+H]+
m/z	relative intensity	assigned
59.0482	999	C3H7O+
