Mass spectrum: Allethrin; LC-ESI-QTOF; MS2; CE: 10 eV; R=35000; [M+H]+
Name: Allethrin
Name: (2-methyl-4-oxo-3-prop-2-enylcyclopent-2-en-1-yl) 2,2-dimethyl-3-(2-methylprop-1-enyl)cyclopropane-1-carboxylate
Formula: C19H26O3
Exact mass: 302.1881947
SMILES: CC(C)=CC1C(C(=O)OC2CC(=O)C(CC=C)=C2C)C1(C)C
InChI: InChI=1S/C19H26O3/c1-7-8-13-12(4)16(10-15(13)20)22-18(21)17-14(9-11(2)3)19(17,5)6/h7,9,14,16-17H,1,8,10H2,2-6H3
Instrument: Bruker maXis Impact
Instrument type: LC-ESI-QTOF
Ms type: MS2
Ion mode: POSITIVE
Ionization: ESI
Fragmentation mode: CID
Collision energy: 10 eV
Resolution: 35000
Column name: Acclaim RSLC C18 2.2um, 2.1x100mm, Thermo
Retention time: 12.369 min
Base peak: 303.1956
Precursor m/z: 303.1955
Precursor type: [M+H]+
m/z	relative intensity	assigned
115.0531	7	C9H7+
117.0687	10	C9H9+
121.0996	12	C9H13+
123.1158	224	C9H15+
124.12	18	C8[13]CH15+
135.0795	999	C9H11O+
136.0825	97	C8[13]CH11O+
137.0953	18	C9H13O+
149.0949	15	C10H13O+
151.1106	406	C10H15O+
152.1138	47	C9[13]CH15O+
159.1153	5	C12H15+
163.1096	6	C11H15O+
167.1053	34	C10H15O2+
169.121	338	C10H17O2+
170.1243	42	C9[13]CH17O2+
185.1325	6	C14H17+
199.1472	8	C15H19+
201.1269	5	C14H17O+
203.1421	9	C14H19O+
215.1801	6	C16H23+
239.1782	6	C18H23+
241.1939	16	C18H25+
243.1378	6	C16H19O2+
257.1897	54	C18H25O+
258.1929	9	C17[13]CH25O+
285.1841	35	C19H25O2+
286.1889	9	C18[13]CH25O2+
303.1953	205	C19H27O3+
304.1991	52	C18[13]CH27O3+
