Mass spectrum: Metribuzin-desamino; LC-ESI-QTOF; MS2; CE: 10 eV; R=35000; [M+H]+
Name: Metribuzin-desamino
Name: Deaminated sencor
Name: 6-tert-butyl-3-methylsulfanyl-2H-1,2,4-triazin-5-one
Formula: C8H13N3OS
Exact mass: 199.0779330
SMILES: CSC1=NC(=O)C(=NN1)C(C)(C)C
InChI: InChI=1S/C8H13N3OS/c1-8(2,3)5-6(12)9-7(13-4)11-10-5/h1-4H3,(H,9,11,12)
Instrument: Bruker maXis Impact
Instrument type: LC-ESI-QTOF
Ms type: MS2
Ion mode: POSITIVE
Ionization: ESI
Fragmentation mode: CID
Collision energy: 10 eV
Resolution: 35000
Column name: Acclaim RSLC C18 2.2um, 2.1x100mm, Thermo
Retention time: 7.1 min
Base peak: 200.0845
Precursor m/z: 200.0852
Precursor type: [M+H]+
m/z	relative intensity	assigned
130.0429	5	C4H8N3S+
172.0896	32	C7H14N3S+
173.0916	3	C6[13]CH14N3S+
200.0847	999	C8H14N3OS+
201.0874	76	C7[13]CH14N3OS+
202.0814	31	C8H14N3O[34]S+
