Mass spectrum: Hydrocortisone; LC-ESI-QTOF; MS2; CE: 20 eV; R=35000; [M+H]+
Name: (8S,9S,10R,11S,13S,14S,17R)-11,17-dihydroxy-17-(2-hydroxyacetyl)-10,13-dimethyl-2,6,7,8,9,11,12,14,15,16-decahydro-1H-cyclopenta[a]phenanthren-3-one
Name: Cortisol
Name: Hydrocortisone
Formula: C21H30O5
Exact mass: 362.20932
SMILES: C[C@]12CCC(=O)C=C1CC[C@@H]3[C@@H]2[C@H](C[C@]4([C@H]3CC[C@@]4(C(=O)CO)O)C)O
InChI: InChI=1S/C21H30O5/c1-19-7-5-13(23)9-12(19)3-4-14-15-6-8-21(26,17(25)11-22)20(15,2)10-16(24)18(14)19/h9,14-16,18,22,24,26H,3-8,10-11H2,1-2H3/t14-,15-,16-,18+,19-,20-,21-/m0/s1
Instrument: Bruker maXis Impact
Instrument type: LC-ESI-QTOF
Ms type: MS2
Ion mode: POSITIVE
Ionization: ESI
Fragmentation mode: CID
Collision energy: 20 eV
Resolution: 35000
Column name: Acclaim RSLC C18 2.2um, 2.1x100mm, Thermo
Retention time: 7.796 min
Base peak: 363.2164
Precursor m/z: 363.2166
Precursor type: [M+H]+
m/z	relative intensity	assigned
119.0856	6	C9H11+
121.0639	182	C8H9O+
122.0674	24	C7[13]CH9O+
123.0793	31	C8H11O+
131.0847	9	C10H11+
133.1	11	C10H13+
135.0802	32	C9H11O+
135.116	6	C10H15+
137.0584	5	C8H9O2+
137.0945	7	C9H13O+
141.0705	5	C11H9+
143.0844	11	C11H11+
145.0993	25	C11H13+
147.079	19	C10H11O+
147.1157	30	C11H15+
149.0961	24	C10H13O+
149.1301	9	C11H17+
151.0734	12	C9H11O2+
155.0851	11	C12H11+
157.1003	24	C12H13+
159.0788	10	C11H11O+
159.116	29	C12H15+
161.0952	30	C11H13O+
161.1303	9	C12H17+
163.1107	40	C11H15O+
169.0996	16	C13H13+
171.0779	12	C12H11O+
171.1159	21	C13H15+
173.0949	18	C12H13O+
173.132	10	C13H17+
175.1107	28	C12H15O+
177.1267	11	C12H17O+
179.1048	8	C11H15O2+
181.1006	7	C14H13+
183.1163	17	C14H15+
185.0943	15	C13H13O+
185.1324	11	C14H17+
187.1108	51	C13H15O+
187.1458	6	C14H19+
188.1126	8	C12[13]CH15O+
189.125	16	C13H17O+
193.1006	7	C15H13+
195.1128	15	C15H15+
197.0988	8	C14H13O+
197.1306	9	C15H17+
199.1104	16	C14H15O+
199.1476	6	C15H19+
201.1268	23	C14H17O+
203.1064	7	C13H15O2+
203.1388	10	C14H19O+
205.122	17	C13H17O2+
207.1187	11	C16H15+
207.1361	12	C13H19O2+
209.1321	19	C16H17+
211.1106	7	C15H15O+
211.1478	15	C16H19+
213.126	24	C15H17O+
215.1076	5	C14H15O2+
215.141	13	C15H19O+
217.1214	6	C14H17O2+
217.1575	5	C15H21O+
219.1355	9	C14H19O2+
221.1349	11	C17H17+
223.1084	10	C16H15O+
223.1472	28	C17H19+
224.1146	6	C16H16O+
225.1283	31	C16H17O+
225.164	9	C17H21+
226.1326	6	C15[13]CH17O+
227.1072	5	C15H15O2+
227.1405	18	C16H19O+
229.155	16	C16H21O+
231.1367	26	C15H19O2+
233.129	10	C18H17+
235.149	6	C18H19+
239.143	37	C17H19O+
240.1451	8	C16[13]CH19O+
241.1574	58	C17H21O+
242.1623	10	C16[13]CH21O+
243.1384	11	C16H19O2+
243.173	35	C17H23O+
244.1752	7	C16[13]CH23O+
245.1507	7	C16H21O2+
247.1475	8	C19H19+
249.162	35	C19H21+
250.1636	6	C18[13]CH21+
251.1417	28	C18H19O+
251.179	14	C19H23+
252.1469	9	C18H20O+
253.1573	13	C18H21O+
255.1698	5	C18H23O+
257.1562	5	C17H21O2+
263.1435	9	C19H19O+
263.1799	12	C20H23+
265.1567	21	C19H21O+
266.1606	6	C19H22O+
267.174	129	C19H23O+
268.1767	51	C19H24O+
269.1523	13	C18H21O2+
269.1887	131	C19H25O+
270.1955	20	C18[13]CH25O+
271.1687	9	C18H23O2+
273.1609	10	C21H21+
279.1762	27	C20H23O+
280.175	8	C19[13]CH23O+
281.1527	22	C19H21O2+
281.1902	49	C20H25O+
282.1957	13	C19[13]CH25O+
283.1688	10	C19H23O2+
285.1858	21	C19H25O2+
286.189	8	C19H26O2+
287.2008	23	C19H27O2+
291.1731	70	C21H23O+
292.1759	17	C20[13]CH23O+
297.1842	103	C20H25O2+
298.1895	20	C19[13]CH25O2+
299.1638	12	C19H23O3+
299.1991	32	C20H27O2+
300.2019	6	C19[13]CH27O2+
301.1804	8	C19H25O3+
303.1951	87	C19H27O3+
304.1977	17	C18[13]CH27O3+
309.184	206	C21H25O2+
310.1873	51	C20[13]CH25O2+
311.185	5	C19[13]C2H25O2+
315.1948	28	C20H27O3+
316.1962	5	C19[13]CH27O3+
317.212	7	C20H29O3+
327.1947	333	C21H27O3+
328.1982	74	C20[13]CH27O3+
329.1994	9	C19[13]C2H27O3+
345.2054	140	C21H29O4+
346.2114	39	C20[13]CH29O4+
347.2145	6	C21H31O4+
361.199	23	C21H29O5+
362.204	9	C20[13]CH29O5+
363.2158	999	C21H31O5+
364.2197	250	C20[13]CH31O5+
365.2219	37	C19[13]C2H31O5+
