Mass spectrum: Bosentan; LC-ESI-QTOF; MS2; CE: 40 eV; R=35000; [M+H]+
Name: Bosentan
Name: 4-tert-butyl-N-[6-(2-hydroxyethoxy)-5-(2-methoxyphenoxy)-2-pyrimidin-2-ylpyrimidin-4-yl]benzenesulfonamide
Formula: C27H29N5O6S
Exact mass: 551.1838546
SMILES: COC1=CC=CC=C1OC1=C(NS(=O)(=O)C2=CC=C(C=C2)C(C)(C)C)N=C(N=C1OCCO)C1=NC=CC=N1
InChI: InChI=1S/C27H29N5O6S/c1-27(2,3)18-10-12-19(13-11-18)39(34,35)32-23-22(38-21-9-6-5-8-20(21)36-4)26(37-17-16-33)31-25(30-23)24-28-14-7-15-29-24/h5-15,33H,16-17H2,1-4H3,(H,30,31,32)
Instrument: Bruker maXis Impact
Instrument type: LC-ESI-QTOF
Ms type: MS2
Ion mode: POSITIVE
Ionization: ESI
Fragmentation mode: CID
Collision energy: 40 eV
Resolution: 35000
Column name: Acclaim RSLC C18 2.2um, 2.1x100mm, Thermo
Retention time: 9.983 min
Base peak: 552.19
Precursor m/z: 552.1911
Precursor type: [M+H]+
m/z	relative intensity	assigned
121.0643	5	H13N2O3S+
123.0429	14	C5H5N3O+
123.065	19	C4H11O4+
135.043	20	C6H5N3O+
149.0451	19	C5H9O5+
150.0523	12	C5H10O5+
150.0638	7	C4H10N2O4+
161.1063	30	C2H17N4O2S+
175.06	19	C7H11O5+
176.055	8	C6H10NO5+
177.0403	6	C7H5N4O2+
189.0626	13	C7H11NO5+
190.0703	12	C5H10N4O4+
197.0624	25	C8H11N3OS+
202.0716	999	C8H12NO5+
203.0563	29	C9H7N4O2+
203.0755	111	C7[13]CH12NO5+
204.0513	19	C8H6N5O2+
204.0794	11	C8H12NO4[18]O+
205.0581	16	C7H11NO6+
237.101	6	C13H11N5+
241.0885	27	C18H11N+
255.1104	16	C12H17NO5+
264.0881	7	C14H10N5O+
265.0943	6	C13H15NO5+
276.0869	10	C14H14NO5+
279.0746	6	C14H9N5O2+
280.0826	271	C16H12N2O3+
281.0852	42	C15[13]CH12N2O3+
282.0917	5	C14[13]C2H12N2O3+
283.1054	19	C13H17NO6+
293.0908	15	C15H11N5O2+
294.0977	25	C15H12N5O2+
295.1031	5	C14[13]CH12N5O2+
310.0944	22	C9H18N4O6S+
311.1012	287	C18H17NO2S+
312.1047	68	C17[13]CH17NO2S+
313.1073	8	C16[13]C2H17NO2S+
324.108	20	C16H14N5O3+
338.1239	8	C17H16N5O3+
400.1429	6	C19H22N5O3S+
508.1645	65	C27H28N2O6S+
509.1697	22	C26[13]CH28N2O6S+
510.1654	6	C26H28N3O6S+
552.1913	51	C27H30N5O6S+
553.1933	16	C26[13]CH30N5O6S+
