Mass spectrum: Ranitidine-N-oxide; LC-ESI-QTOF; MS2; CE: 50 eV; R=35000; [M+H]+
Name: Ranitidine-N-oxide
Name: Ranitidine N-oxide
Name: N,N-dimethyl-1-[5-[2-[[(E)-1-(methylamino)-2-nitroethenyl]amino]ethylsulfanylmethyl]furan-2-yl]methanamine oxide
Formula: C13H22N4O4S
Exact mass: 330.1361762
SMILES: CN\C(NCCSCC1=CC=C(C[N+](C)(C)[O-])O1)=C/[N+]([O-])=O
InChI: InChI=1S/C13H22N4O4S/c1-14-13(8-16(18)19)15-6-7-22-10-12-5-4-11(21-12)9-17(2,3)20/h4-5,8,14-15H,6-7,9-10H2,1-3H3/b13-8+
Instrument: Bruker maXis Impact
Instrument type: LC-ESI-QTOF
Ms type: MS2
Ion mode: POSITIVE
Ionization: ESI
Fragmentation mode: CID
Collision energy: 50 eV
Resolution: 35000
Column name: Acclaim RSLC C18 2.2um, 2.1x100mm, Thermo
Retention time: 3.3 min
Base peak: 331.1442
Precursor m/z: 331.1435
Precursor type: [M+H]+
m/z	relative intensity	assigned
114.0376	6	C5H8NS+
115.0319	10	C4H7N2S+
117.048	33	C4H9N2S+
117.0559	14	H11N3O2S+
118.0309	12	C2H6N4S+
118.0641	63	H12N3O2S+
119.0489	9	C8H7O+
119.059	16	C4H9NO3+
119.0706	7	C5H11O3+
120.0442	7	C7H6NO+
120.0668	19	C4H10NO3+
120.0802	47	H14N3O2S+
122.0597	31	C7H8NO+
122.0821	31	C4H12NO3+
123.0257	28	C7H7S+
123.0669	6	C5H7N4+
123.0904	9	C7H11N2+
124.0328	10	C7H8S+
124.075	40	C7H10NO+
125.0049	999	C6H5OS+
126.0086	63	C3[13]CH3N3S+
126.0354	7	C3H10O3S+
127.0197	5	C4H5N3S+
129.0473	86	C5H9N2S+
130.055	442	C5H10N2S+
131.0601	36	C4[13]CH10N2S+
132.0796	16	CH14N3O2S+
133.0752	44	H13N4O2S+
134.018	5	C8H6S+
134.0588	71	C6H6N4+
134.0824	27	H14N4O2S+
135.0256	37	C8H7S+
135.0909	434	H15N4O2S+
136.0207	7	C7H6NS+
136.0748	32	H14N3O3S+
137.0051	23	C7H5OS+
137.0812	9	C5H13O4+
137.1066	49	H17N4O2S+
138.0122	11	C5H4N3S+
138.036	13	C7H8NS+
139.018	5	C10H3O+
139.0314	21	C6H7N2S+
140.0519	11	C7H10NS+
143.0616	7	C3H13NO3S+
144.0664	5	C6H10NO3+
145.0432	11	C5H9N2OS+
145.0757	15	CH13N4O2S+
146.0592	26	CH12N3O3S+
146.0825	10	CH14N4O2S+
147.0551	17	C8H7N2O+
147.067	66	CH13N3O3S+
147.0904	56	CH15N4O2S+
148.0747	568	CH14N3O3S+
148.0983	32	CH16N4O2S+
149.0705	153	H13N4O3S+
149.106	29	CH17N4O2S+
150.0362	37	C8H8NS+
150.0738	14	CH14N3O3[34]S+
150.0903	12	C7H10N4+
151.0202	83	C6H5N3S+
151.042	9	C5H11O3S+
152.0511	17	C5H12O3S+
153.0363	10	C8H9OS+
153.0473	14	C7H9N2S+
154.0528	7	C10H6N2+
159.0445	21	C10H7O2+
159.0903	18	C2H15N4O2S+
160.0745	32	C8H8N4+
160.0973	5	C7H14NO3+
161.0153	5	C5H7NO3S+
161.0708	6	C9H9N2O+
161.1066	10	C2H17N4O2S+
162.0771	8	C6H12NO4+
162.0901	7	C8H10N4+
163.1221	17	C2H19N4O2S+
164.0157	7	C6H4N4S+
164.0522	9	C9H10NS+
164.0921	47	C6H14NO4+
165.101	190	CH17N4O3S+
167.063	68	C8H11N2S+
170.0617	6	C6H10N4S+
175.0848	6	C7H13NO4+
176.0478	25	C10H8O3+
176.092	11	C7H14NO4+
177.1015	290	C2H17N4O3S+
178.0312	126	C7H6N4S+
179.0348	13	C6[13]CH6N4S+
179.118	8	C10H15N2O+
180.0467	5	C7H8N4S+
181.0783	48	C9H13N2S+
182.0823	7	C4H14N4O2S+
189.102	8	C11H13N2O+
191.1171	77	C3H19N4O3S+
192.0467	74	C8H8N4S+
194.0624	23	C8H10N4S+
195.094	5	C10H15N2S+
209.0733	13	C10H13N2OS+
223.0903	16	C11H15N2OS+
