Mass spectrum: Triclocarban; LC-ESI-QTOF; MS2; CE: 50 eV; R=35000; [M+H]+
Name: Triclocarban
Name: 1-(4-chlorophenyl)-3-(3,4-dichlorophenyl)urea
Formula: C13H9Cl3N2O
Exact mass: 313.9780459
SMILES: ClC1=CC=C(NC(=O)NC2=CC(Cl)=C(Cl)C=C2)C=C1
InChI: InChI=1S/C13H9Cl3N2O/c14-8-1-3-9(4-2-8)17-13(19)18-10-5-6-11(15)12(16)7-10/h1-7H,(H2,17,18,19)
Instrument: Bruker maXis Impact
Instrument type: LC-ESI-QTOF
Ms type: MS2
Ion mode: POSITIVE
Ionization: ESI
Fragmentation mode: CID
Collision energy: 50 eV
Resolution: 35000
Column name: Acclaim RSLC C18 2.2um, 2.1x100mm, Thermo
Retention time: 11.899 min
Base peak: 279.1587
Precursor m/z: 314.9853
Precursor type: [M+H]+
m/z	relative intensity	assigned
125.0021	21	C9HO+
126.0098	155	C6H5ClN+
127.0175	999	C6H6ClN+
128.0075	38	C6H5[37]ClN+
128.0224	71	C5[13]CH6ClN+
129.0146	210	C6H6[37]ClN+
130.0193	18	C3H10Cl2N+
132.9585	36	C5H3Cl2+
134.9567	31	C5H3Cl[37]Cl+
159.9704	70	C6H4Cl2N+
161.968	41	C6H4Cl[37]ClN+
161.9872	29	C9H3ClO+
163.9831	17	C9H3[37]ClO+
172.966	22	C9ClNO+
