Mass spectrum: Carbadox; LC-ESI-QTOF; MS2; CE: 10 eV; R=35000; [M+H]+
Name: Carbadox
Name: methyl N-[(1-hydroxy-4-oxidoquinoxalin-4-ium-2-ylidene)methylimino]carbamate
Formula: C11H10N4O4
Exact mass: 262.0702048
SMILES: COC(=O)NN=CC1=[N+](C2=CC=CC=C2[N+](=C1)[O-])[O-]
InChI: InChI=1S/C11H10N4O4/c1-19-11(16)13-12-6-8-7-14(17)9-4-2-3-5-10(9)15(8)18/h2-7H,1H3,(H,13,16)
Instrument: Bruker maXis Impact
Instrument type: LC-ESI-QTOF
Ms type: MS2
Ion mode: POSITIVE
Ionization: ESI
Fragmentation mode: CID
Collision energy: 10 eV
Resolution: 35000
Column name: Acclaim RSLC C18 2.2um, 2.1x100mm, Thermo
Retention time: 4.7 min
Base peak: 221.1036
Precursor m/z: 263.0775
Precursor type: [M+H]+
m/z	relative intensity	assigned
229.0682	10	C11H9N4O2+
231.0421	474	C11H7N2O4+
232.0473	34	C10[13]CH7N2O4+
263.0729	999	C11H11N4O4+
264.0771	88	C10[13]CH11N4O4+
