Mass spectrum: Chlorpromazine; LC-ESI-QTOF; MS2; CE: 40 eV; R=35000; [M+H]+
Name: Chlorpromazine
Name: 3-(2-chlorophenothiazin-10-yl)-N,N-dimethylpropan-1-amine
Formula: C17H19ClN2S
Exact mass: 318.0957473
SMILES: CN(C)CCCN1c2ccccc2Sc3c1cc(cc3)Cl
InChI: InChI=1S/C17H19ClN2S/c1-19(2)10-5-11-20-14-6-3-4-7-16(14)21-17-9-8-13(18)12-15(17)20/h3-4,6-9,12H,5,10-11H2,1-2H3
Instrument: Bruker maXis Impact
Instrument type: LC-ESI-QTOF
Ms type: MS2
Ion mode: POSITIVE
Ionization: ESI
Fragmentation mode: CID
Collision energy: 40 eV
Resolution: 35000
Column name: Acclaim RSLC C18 2.2um, 2.1x100mm, Thermo
Retention time: 9.4 min
Base peak: 319.103
Precursor m/z: 319.103
Precursor type: [M+H]+
m/z	relative intensity	assigned
198.0379	54	C12H8NS+
205.0884	26	C15H11N+
206.0971	73	C15H12N+
210.0365	35	C13H8NS+
211.0448	359	C13H9NS+
212.0491	44	C16H6N+
213.0358	87	C10H12ClNS+
214.0418	999	C13H9ClN+
215.0466	125	C12[13]CH9ClN+
216.039	240	C13H9[37]ClN+
217.0428	44	C11H9N2OS+
224.0529	38	C14H10NS+
233.0061	214	C12H8ClNS+
234.0098	51	C15H5ClN+
235.0039	55	C14H4ClN2+
238.0687	66	C15H12NS+
239.0764	486	C15H13NS+
240.0773	46	C14[13]CH13NS+
241.0678	50	C12H16ClNS+
246.014	702	C13H9ClNS+
247.0182	86	C12[13]CH9ClNS+
248.0104	216	C13H9[37]ClNS+
274.0478	30	C15H13ClNS+
