Mass spectrum: Dimethachlor ESA; LC-ESI-QTOF; MS2; CE: 50 eV; R=35000; [M+H]+
Name: Dimethachlor ESA
Name: 2-[(2,6-Dimethylphenyl)(2-methoxyethyl)amino]-2-oxoethanesulfonic acid
Name: 2-[N-(2-methoxyethyl)-2,6-dimethylanilino]-2-oxoethanesulfonic acid
Formula: C13H19NO5S
Exact mass: 301.0983937
SMILES: COCCN(C(=O)CS(O)(=O)=O)C1=C(C)C=CC=C1C
InChI: InChI=1S/C13H19NO5S/c1-10-5-4-6-11(2)13(10)14(7-8-19-3)12(15)9-20(16,17)18/h4-6H,7-9H2,1-3H3,(H,16,17,18)
Instrument: Bruker maXis Impact
Instrument type: LC-ESI-QTOF
Ms type: MS2
Ion mode: POSITIVE
Ionization: ESI
Fragmentation mode: CID
Collision energy: 50 eV
Resolution: 35000
Column name: Acclaim RSLC C18 2.2um, 2.1x100mm, Thermo
Retention time: 5.761 min
Base peak: 212.1502
Precursor m/z: 302.1057
Precursor type: [M+H]+
m/z	relative intensity	assigned
117.0568	118	C8H7N+
130.0632	138	C6H10O3+
131.0725	357	C9H9N+
132.0798	999	C9H10N+
133.0834	114	C8[13]CH10N+
144.0813	88	C4H16O3S+
146.0952	746	C10H12N+
147.0982	124	C9[13]CH12N+
148.1113	95	C10H14N+
158.0966	67	C11H12N+
174.0909	393	C11H12NO+
175.0935	94	C8H15O4+
