Mass spectrum: Ritonavir; LC-ESI-QTOF; MS2; CE: 50 eV; R=35000; [M+H]+
Name: Ritonavir
Name: 1,3-thiazol-5-ylmethyl N-[(2S,3S,5S)-3-hydroxy-5-[[(2S)-3-methyl-2-[[methyl-[(2-propan-2-yl-1,3-thiazol-4-yl)methyl]carbamoyl]amino]butanoyl]amino]-1,6-diphenylhexan-2-yl]carbamate
Formula: C37H48N6O5S2
Exact mass: 720.3127606
SMILES: CC(C)c1nc(cs1)CN(C)/C(=N\[C@@H](C(C)C)/C(=N\[C@@H](Cc2ccccc2)C[C@@H]([C@H](Cc3ccccc3)/N=C(\O)/OCc4cncs4)O)/O)/O
InChI: InChI=1S/C37H48N6O5S2/c1-24(2)33(42-36(46)43(5)20-29-22-49-35(40-29)25(3)4)34(45)39-28(16-26-12-8-6-9-13-26)18-32(44)31(17-27-14-10-7-11-15-27)41-37(47)48-21-30-19-38-23-50-30/h6-15,19,22-25,28,31-33,44H,16-18,20-21H2,1-5H3,(H,39,45)(H,41,47)(H,42,46)/t28-,31-,32-,33-/m0/s1
Instrument: Bruker maXis Impact
Instrument type: LC-ESI-QTOF
Ms type: MS2
Ion mode: POSITIVE
Ionization: ESI
Fragmentation mode: CID
Collision energy: 50 eV
Resolution: 35000
Column name: Acclaim RSLC C18 2.2um, 2.1x100mm, Thermo
Retention time: 10.950 min
Base peak: 721.3228
Precursor m/z: 721.32
Precursor type: [M+H]+
m/z	relative intensity	assigned
140.0531	500	C7H10NS+
141.056	30	C6[13]CH10NS+
169.0795	9	C8H13N2S+
171.0955	411	C2H21NO3S2+
173.0909	11	C8H15N2[34]S+
197.0752	999	C3H19NO4S2+
211.1267	6	C5H25NO3S2+
250.16	47	C12H26O3S+
251.163	8	C11[13]CH26O3S+
266.1547	5	C12H26O4S+
268.1492	449	C15H24O2S+
269.1519	56	C6[13]CH28N2O4S2+
296.144	20	C16H24O3S+
311.1762	5	C13H29NO5S+
347.1596	20	C18H23N2O5+
365.1693	12	C16H23N5O5+
382.1957	5	C16H26N6O5+
426.1872	7	C26H26N4S+
