Mass spectrum: Terbutryn; LC-ESI-QTOF; MS2; CE: 10 eV; R=35000; [M+H]+
Name: Terbutryn
Name: 2-N-tert-butyl-4-N-ethyl-6-methylsulfanyl-1,3,5-triazine-2,4-diamine
Formula: C10H19N5S
Exact mass: 241.1361166
SMILES: CCNC1=NC(NC(C)(C)C)=NC(SC)=N1
InChI: InChI=1S/C10H19N5S/c1-6-11-7-12-8(15-10(2,3)4)14-9(13-7)16-5/h6H2,1-5H3,(H2,11,12,13,14,15)
Instrument: Bruker maXis Impact
Instrument type: LC-ESI-QTOF
Ms type: MS2
Ion mode: POSITIVE
Ionization: ESI
Fragmentation mode: CID
Collision energy: 10 eV
Resolution: 35000
Column name: Acclaim RSLC C18 2.2um, 2.1x100mm, Thermo
Retention time: 10.255 min
Base peak: 242.1439
Precursor m/z: 242.1434
Precursor type: [M+H]+
m/z	relative intensity	assigned
186.0802	223	C6H12N5S+
187.0822	15	C5[13]CH12N5S+
188.0757	7	C6H12N5[34]S+
242.1435	999	C10H20N5S+
