Mass spectrum: Fipronil desulfinyl; LC-ESI-QTOF; MS2; CE: Ramp 27.5-41.2 eV; R=35000; [M-H]-
Name: Fipronil desulfinyl
Name: Desulfinylfipronil
Name: 5-amino-1-[2,6-dichloro-4-(trifluoromethyl)phenyl]-4-(trifluoromethyl)pyrazole-3-carbonitrile
Formula: C12H4Cl2F6N4
Exact mass: 387.9717208
SMILES: NC1=C(C(=NN1C1=C(Cl)C=C(C=C1Cl)C(F)(F)F)C#N)C(F)(F)F
InChI: InChI=1S/C12H4Cl2F6N4/c13-5-1-4(11(15,16)17)2-6(14)9(5)24-10(22)8(12(18,19)20)7(3-21)23-24/h1-2H,22H2
Instrument: Bruker maXis Impact
Instrument type: LC-ESI-QTOF
Ms type: MS2
Ion mode: NEGATIVE
Ionization: ESI
Fragmentation mode: CID
Collision energy: Ramp 27.5-41.2 eV
Resolution: 35000
Column name: Acclaim RSLC C18 2.2um, 2.1x100mm, Thermo
Retention time: 10.224 min
Base peak: 350.9875
Precursor m/z: 386.9644
Precursor type: [M-H]-
m/z	relative intensity	assigned
68.9952	16	CF3-
90.0081	10	C4N3-
135.0109	25	C5FN4-
203.9831	64	C8H2ClF3N-
204.9841	5	C7[13]CH2ClF3N-
205.9797	8	C8H2[37]ClF3N-
216.9777	5	C8HClF3N2-
227.014	8	C9HF4N3-
228.9769	20	C9HClF3N2-
236.9849	40	C8H2ClF4N2-
243.9927	5	C3H3ClF6N4-
246.0134	7	C11HF3N4-
247.0216	5	C11H2F3N4-
247.9739	8	C9HClF4N2-
261.9818	28	C11HClF2N4-
262.995	5	C10[13]CHClF2N4-
266.0223	5	C11H2F4N4-
274.9879	7	C10H2ClF4N3-
276.0061	7	C12F4N4-
278.9735	6	C10HClF5N2-
280.9834	5	C11HClF3N4-
281.9922	446	C11H2ClF3N4-
282.9948	46	C10[13]CH2ClF3N4-
283.9901	64	C11H2[37]ClF3N4-
284.9916	5	C8H3ClF5N4-
295.0045	49	C12F5N4-
296.01	15	C12HF5N4-
298.9784	5	C11ClF4N4-
305.9852	76	C11H2ClF5N3-
306.9863	7	C10[13]CH2ClF5N3-
307.9812	11	C11H2[37]ClF5N3-
310.9732	29	C12ClF4N4-
311.981	6	C12HClF4N4-
312.972	5	C12[37]ClF4N4-
316.0168	25	C12H2F6N4-
324.9844	124	C11H2ClF6N3-
325.9852	8	C10[13]CH2ClF6N3-
326.982	13	C11H2[37]ClF6N3-
330.981	152	C12HClF5N4-
331.9833	15	C11[13]CHClF5N4-
350.9873	999	C12H2ClF6N4-
351.9908	122	C11[13]CH2ClF6N4-
352.9845	179	C12H2[37]ClF6N4-
