Mass spectrum: Clothianidin; LC-ESI-QTOF; MS2; CE: 20 eV; R=35000; [M+H]+
Name: Clothianidin
Name: n-[(2-Chloro-5-thiazolyl)methyl]-n`-methyl-n``-nitroguanidine
Name: 1-[(2-chloro-1,3-thiazol-5-yl)methyl]-2-methyl-3-nitroguanidine
Formula: C6H8ClN5O2S
Exact mass: 249.0087232
SMILES: CN\C(NCC1=CN=C(Cl)S1)=N/[N+]([O-])=O
InChI: InChI=1S/C6H8ClN5O2S/c1-8-6(11-12(13)14)10-3-4-2-9-5(7)15-4/h2H,3H2,1H3,(H2,8,10,11)
Instrument: Bruker maXis Impact
Instrument type: LC-ESI-QTOF
Ms type: MS2
Ion mode: POSITIVE
Ionization: ESI
Fragmentation mode: CID
Collision energy: 20 eV
Resolution: 35000
Column name: Acclaim RSLC C18 2.2um, 2.1x100mm, Thermo
Retention time: 4.897 min
Base peak: 250.0151
Precursor m/z: 250.016
Precursor type: [M+H]+
m/z	relative intensity	assigned
113.0161	22	C4H5N2S+
131.9658	616	C4H3ClNS+
132.9685	30	C3[13]CH3ClNS+
133.9623	185	C4H3[37]ClNS+
134.9665	6	C4H4ClOS+
142.0423	11	C5H8N3S+
143.049	12	H9N5O2S+
146.9764	22	C4H4ClN2S+
147.9836	26	C4H5ClN2S+
148.9732	6	C4H4[37]ClN2S+
148.9905	5	C5HN4S+
149.9809	9	C4H5[37]ClN2S+
153.0216	11	C5H5N4S+
167.0373	12	C6H7N4S+
168.045	184	C6H8N4S+
169.0529	999	C6H9N4S+
170.0553	53	C5[13]CH9N4S+
171.0484	33	C6H9N4[34]S+
172.9793	15	C5H4ClN3S+
174.971	38	C3H2ClN5S+
176.9688	11	C3H2[37]ClN5S+
204.0215	19	C6H9ClN4S+
206.0142	19	C6H9ClN3OS+
