Mass spectrum: N,N,N`,N`-Tetrakis(2-hydroxyethyl)hexanediamide; LC-ESI-QTOF; MS2; CE: 20 eV; R=35000; [M+H]+
Name: N,N,N`,N`-Tetrakis(2-hydroxyethyl)hexanediamide
Formula: C14H28N2O6
Exact mass: 320.1947366
SMILES: C(CCC(=O)N(CCO)CCO)CC(=O)N(CCO)CCO
InChI: InChI=1S/C14H28N2O6/c17-9-5-15(6-10-18)13(21)3-1-2-4-14(22)16(7-11-19)8-12-20/h17-20H,1-12H2
Instrument: Bruker maXis Impact
Instrument type: LC-ESI-QTOF
Ms type: MS2
Ion mode: POSITIVE
Ionization: ESI
Fragmentation mode: CID
Collision energy: 20 eV
Resolution: 35000
Column name: Acclaim RSLC C18 2.2um, 2.1x100mm, Thermo
Retention time: 2.6 min
Base peak: 321.2018
Precursor m/z: 321.202
Precursor type: [M+H]+
m/z	relative intensity	assigned
155.0695	14	C8H11O3+
173.0799	64	C8H13O4+
174.1099	5	C5H18O6+
188.1271	6	C9H18NO3+
198.1117	139	C10H16NO3+
199.1147	16	C9[13]CH16NO3+
216.1226	999	C10H18NO4+
217.1257	111	C14H17O2+
218.1266	12	C13[13]CH17O2+
234.1326	26	C10H20NO5+
260.147	5	C12H22NO5+
303.1913	989	C14H27N2O5+
304.1939	144	C13[13]CH27N2O5+
305.1963	22	C13H27N3O5+
321.202	199	C14H29N2O6+
322.2044	40	C13H28N3O6+
323.2053	7	C13H29N3O6+
