Mass spectrum: 2,6-Di-tert-butyl-1,4-benzoquinone; GC-APCI-QTOF; MS2; CE: 20 eV; R=35000; [M]+
Name: 2,6-Di-tert-butyl-1,4-benzoquinone
Formula: C14H20O2
Exact mass: 220.1463
SMILES: CC(C)(C)C1=CC(=O)C=C(C1=O)C(C)(C)C
InChI: InChI=1S/C14H20O2/c1-13(2,3)10-7-9(15)8-11(12(10)16)14(4,5)6/h7-8H,1-6H3
Instrument: Bruker 450 GC coupled to maXis Impact
Instrument type: GC-APCI-QTOF
Ms type: MS2
Ion mode: POSITIVE
Ionization: APCI
Fragmentation mode: CID
Collision energy: 20 eV
Resolution: 35000
Column name: Rxi-5Sil MS column, 30m, 0.25mm i.d., 0.25Âµm film thickness, Restek
Retention time: 6.810 min
Base peak: 163.0813
Precursor m/z: 220.1458
Precursor type: [M]+
m/z	relative intensity	assigned
176.0795	999	C11H12O2+
