Mass spectrum: Trifloxystrobin; LC-ESI-QTOF; MS2; CE: 20 eV; R=35000; [M+H]+
Name: Trifloxystrobin
Name: methyl (2Z)-2-methoxyimino-2-[2-[[(E)-1-[3-(trifluoromethyl)phenyl]ethylideneamino]oxymethyl]phenyl]acetate
Formula: C20H19F3N2O4
Exact mass: 408.1296917
SMILES: CO\N=C(/C(=O)OC)C1=C(CO\N=C(/C)C2=CC(=CC=C2)C(F)(F)F)C=CC=C1
InChI: InChI=1S/C20H19F3N2O4/c1-13(14-8-6-9-16(11-14)20(21,22)23)24-29-12-15-7-4-5-10-17(15)18(25-28-3)19(26)27-2/h4-11H,12H2,1-3H3/b24-13+,25-18-
Instrument: Bruker maXis Impact
Instrument type: LC-ESI-QTOF
Ms type: MS2
Ion mode: POSITIVE
Ionization: ESI
Fragmentation mode: CID
Collision energy: 20 eV
Resolution: 35000
Column name: Acclaim RSLC C18 2.2um, 2.1x100mm, Thermo
Retention time: 11.6 min
Base peak: 409.1372
Precursor m/z: 409.137
Precursor type: [M+H]+
m/z	relative intensity	assigned
116.049	48	C8H6N+
117.0532	6	C7[13]CH6N+
130.0641	5	C3H11FO4+
132.0796	70	C3H13FO4+
145.0249	23	C4H5N2O4+
146.0586	17	C6H10O4+
173.0314	5	C7H4F3N2+
186.0519	999	C9H7F3N+
206.0806	240	C11H12NO3+
