Mass spectrum: Lovastatin; LC-ESI-QTOF; MS2; CE: 30 eV; R=35000; [M+H]+
Name: Lovastatin
Name: [(1S,3R,7S,8S,8aR)-8-[2-[(2R,4R)-4-hydroxy-6-oxooxan-2-yl]ethyl]-3,7-dimethyl-1,2,3,7,8,8a-hexahydronaphthalen-1-yl] (2S)-2-methylbutanoate
Formula: C24H36O5
Exact mass: 404.2562743
SMILES: CC[C@H](C)C(=O)O[C@H]1C[C@H](C=C2[C@H]1[C@H]([C@H](C=C2)C)CC[C@@H]3C[C@H](CC(=O)O3)O)C
InChI: InChI=1S/C24H36O5/c1-5-15(3)24(27)29-21-11-14(2)10-17-7-6-16(4)20(23(17)21)9-8-19-12-18(25)13-22(26)28-19/h6-7,10,14-16,18-21,23,25H,5,8-9,11-13H2,1-4H3/t14-,15-,16-,18+,19+,20-,21-,23-/m0/s1
Instrument: Bruker maXis Impact
Instrument type: LC-ESI-QTOF
Ms type: MS2
Ion mode: POSITIVE
Ionization: ESI
Fragmentation mode: CID
Collision energy: 30 eV
Resolution: 35000
Column name: Acclaim RSLC C18 2.2um, 2.1x100mm, Thermo
Retention time: 12.177 min
Base peak: 405.2662
Precursor m/z: 405.2636
Precursor type: [M+H]+
m/z	relative intensity	assigned
119.0847	42	C9H11+
121.1007	18	C9H13+
128.0629	34	C10H8+
129.0684	29	C10H9+
131.0855	97	C10H11+
133.1015	45	C10H13+
135.1172	20	C10H15+
142.0762	19	C11H10+
143.0859	177	C11H11+
145.1011	163	C11H13+
147.1173	41	C11H15+
149.0963	15	C10H13O+
155.0848	62	C12H11+
156.0932	17	C12H12+
157.1016	156	C12H13+
159.1168	267	C12H15+
160.121	46	C12H16+
161.1326	22	C12H17+
163.0757	18	C10H11O2+
163.1111	26	C11H15O+
169.1021	136	C13H13+
170.1049	29	C13H14+
171.1175	215	C13H15+
172.1206	67	C13H16+
173.1327	714	C13H17+
174.1363	98	C12[13]CH17+
181.1019	23	C14H13+
183.1167	78	C14H15+
185.1327	72	C14H17+
187.1145	20	C13H15O+
191.1087	77	C12H15O2+
192.1121	15	C12H16O2+
193.0653	17	C14H9O+
193.1018	24	C15H13+
195.1166	26	C15H15+
197.1327	112	C15H17+
198.1387	26	C15H18+
199.1484	999	C15H19+
200.1521	179	C14[13]CH19+
201.1639	215	C15H21+
202.1687	46	C15H22+
205.1235	45	C13H17O2+
207.1164	63	C16H15+
208.1244	16	C16H16+
211.1118	33	C15H15O+
211.1491	62	C16H19+
213.1649	15	C16H21+
215.1793	43	C16H23+
216.1826	23	C16H24+
217.1253	17	C14H17O2+
220.1246	16	C17H16+
221.1355	16	C10H21O5+
223.0647	55	C11H11O5+
223.1482	150	C17H19+
224.1523	47	C17H20+
225.164	596	C17H21+
226.1668	168	C16[13]CH21+
229.1232	42	C15H17O2+
230.1257	17	C15H18O2+
234.1432	15	C18H18+
239.145	21	C17H19O+
239.1795	146	C18H23+
240.1835	41	C18H24+
243.1397	18	C16H19O2+
243.1748	295	C17H23O+
244.1786	78	C17H24O+
249.1642	181	C19H21+
250.1678	57	C19H22+
267.1749	149	C19H23O+
268.1786	44	C19H24O+
285.1859	220	C19H25O2+
286.1905	55	C19H26O2+
303.1969	46	C19H27O3+
