Mass spectrum: Sertraline; LC-ESI-QTOF; MS2; CE: 10 eV; R=35000; [M+H]+
Name: Sertraline
Name: (1S,4S)-4-(3,4-dichlorophenyl)-N-methyl-1,2,3,4-tetrahydronaphthalen-1-amine
Formula: C17H17Cl2N
Exact mass: 305.0738049
SMILES: CN[C@H]1CC[C@@H](C2=CC=C(Cl)C(Cl)=C2)C2=C1C=CC=C2
InChI: InChI=1S/C17H17Cl2N/c1-20-17-9-7-12(13-4-2-3-5-14(13)17)11-6-8-15(18)16(19)10-11/h2-6,8,10,12,17,20H,7,9H2,1H3/t12-,17-/m0/s1
Instrument: Bruker maXis Impact
Instrument type: LC-ESI-QTOF
Ms type: MS2
Ion mode: POSITIVE
Ionization: ESI
Fragmentation mode: CID
Collision energy: 10 eV
Resolution: 35000
Column name: Acclaim RSLC C18 2.2um, 2.1x100mm, Thermo
Retention time: 9.1 min
Base peak: 306.0818
Precursor m/z: 306.0811
Precursor type: [M+H]+
m/z	relative intensity	assigned
129.0687	20	C10H9+
158.9757	21	C7H5Cl2+
275.0396	999	C16H13Cl2+
276.0427	132	C15[13]CH13Cl2+
277.0365	484	C16H13[35]Cl[37]Cl
278.0393	38	C13[13]CH12[35]Cl[37]Cl+
306.082	195	C17H18Cl2N+
307.0845	31	C16[13]CH18Cl2N
308.0786	105	C17H18[35]Cl[37]ClN2
309.0816	11	C16[13]CH18[35C]Cl[37]ClN2
