Mass spectrum: Dimethachlor-OXA; LC-ESI-QTOF; MS2; CE: 50 eV; R=35000; [M+H]+
Name: Dimethachlor-OXA
Name: 2-[N-(2-methoxyethyl)-2,6-dimethylanilino]-2-oxoacetic acid
Formula: C13H17NO4
Exact mass: 251.1157580
SMILES: COCCN(C(=O)C(O)=O)c1c(C)cccc1C
InChI: InChI=1S/C13H17NO4/c1-9-5-4-6-10(2)11(9)14(7-8-18-3)12(15)13(16)17/h4-6H,7-8H2,1-3H3,(H,16,17)
Instrument: Bruker maXis Impact
Instrument type: LC-ESI-QTOF
Ms type: MS2
Ion mode: POSITIVE
Ionization: ESI
Fragmentation mode: CID
Collision energy: 50 eV
Resolution: 35000
Column name: Acclaim RSLC C18 2.2um, 2.1x100mm, Thermo
Retention time: 5.3 min
Base peak: 150.1113
Precursor m/z: 252.123
Precursor type: [M+H]+
m/z	relative intensity	assigned
117.0571	571	C8H7N+
118.0639	573	C8H8N+
120.079	145	C5H12O3+
130.0643	999	C9H8N+
131.0712	583	C6H11O3+
132.0796	961	C9H10N+
133.0865	216	C6H13O3+
148.1097	216	C7H16O3+
