Mass spectrum: Bisphenol A bis(3-chloro-2-hydroxypropyl) ether; LC-ESI-QTOF; MS2; CE: 30 eV; R=35000; [M+NH4]+
Name: Bisphenol A bis(3-chloro-2-hydroxypropyl) ether
Name: 1-chloro-3-[4-[2-[4-(3-chloro-2-hydroxypropoxy)phenyl]propan-2-yl]phenoxy]propan-2-ol
Formula: C21H26Cl2O4
Exact mass: 412.1208
SMILES: CC(C)(C1=CC=C(C=C1)OCC(CCl)O)C2=CC=C(C=C2)OCC(CCl)O
InChI: InChI=1S/C21H26Cl2O4/c1-21(2,15-3-7-19(8-4-15)26-13-17(24)11-22)16-5-9-20(10-6-16)27-14-18(25)12-23/h3-10,17-18,24-25H,11-14H2,1-2H3
Instrument: Bruker maXis Impact
Instrument type: LC-ESI-QTOF
Ms type: MS2
Ion mode: POSITIVE
Ionization: ESI
Fragmentation mode: CID
Collision energy: 30 eV
Resolution: 35000
Column name: Acclaim RSLC C18 2.2um, 2.1x100mm, Thermo
Retention time: 11.373 min
Base peak: 430.1537
Precursor m/z: 430.1557
Precursor type: [M+NH4]+
m/z	relative intensity	assigned
133.0858	53	C6H13O3+
135.0796	366	Cl2H19NO2+
177.1092	22	C8H17O4+
227.0828	999	C12H16ClO2+
228.086	165	C6H22Cl2O4+
229.0796	247	C15H14Cl+
