Mass spectrum: Hexa(methoxymethyl)melamine; LC-ESI-QTOF; MS2; CE: 20 eV; R=35000; [M+H]+
Name: Hexa(methoxymethyl)melamine
Name: 2-N,2-N,4-N,4-N,6-N,6-N-hexakis(methoxymethyl)-1,3,5-triazine-2,4,6-triamine
Formula: C15H30N6O6
Exact mass: 390.2226827
SMILES: COCN(COC)C1=NC(=NC(=N1)N(COC)COC)N(COC)COC
InChI: InChI=1S/C15H30N6O6/c1-22-7-19(8-23-2)13-16-14(20(9-24-3)10-25-4)18-15(17-13)21(11-26-5)12-27-6/h7-12H2,1-6H3
Instrument: Bruker maXis Impact
Instrument type: LC-ESI-QTOF
Ms type: MS2
Ion mode: POSITIVE
Ionization: ESI
Fragmentation mode: CID
Collision energy: 20 eV
Resolution: 35000
Column name: Acclaim RSLC C18 2.2um, 2.1x100mm, Thermo
Retention time: 7.642 min
Base peak: 391.2292
Precursor m/z: 391.23
Precursor type: [M+H]+
m/z	relative intensity	assigned
177.0875	189	C6H13N2O4+
178.0902	18	C5[13]CH13N2O4+
207.0982	999	C7H15N2O5+
208.1008	80	C6[13]CH15N2O5+
253.1403	25	C10H17N6O2+
283.1509	637	C15H23O5+
284.1529	86	C14[13]CH23O5+
285.1544	9	C13[13]C2H23O5+
301.161	26	C11H21N6O4+
329.1921	16	C13H25N6O4+
359.2031	15	C14H27N6O5+
377.2136	5	C14H29N6O6+
