Mass spectrum: Carbaryl; LC-ESI-QTOF; MS2; CE: Ramp 18.1-27.1 eV; R=35000; [M+H]+
Name: Carbaryl
Name: naphthalen-1-yl N-methylcarbamate
Formula: C12H11NO2
Exact mass: 201.0789786
SMILES: CNC(=O)OC1=C2C=CC=CC2=CC=C1
InChI: InChI=1S/C12H11NO2/c1-13-12(14)15-11-8-4-6-9-5-2-3-7-10(9)11/h2-8H,1H3,(H,13,14)
Instrument: Bruker maXis Impact
Instrument type: LC-ESI-QTOF
Ms type: MS2
Ion mode: POSITIVE
Ionization: ESI
Fragmentation mode: CID
Collision energy: Ramp 18.1-27.1 eV
Resolution: 35000
Column name: Acclaim RSLC C18 2.2um, 2.1x100mm, Thermo
Retention time: 7.068 min
Base peak: 253.1661
Precursor m/z: 202.0863
Precursor type: [M+H]+
m/z	relative intensity	assigned
67.0534	6	C5H7+
68.0241	156	C4H4O+
79.0053	18	C4HNO+
81.0694	9	C6H9+
90.0105	14	C6H2O+
95.0861	7	C7H11+
96.0563	194	C6H8O+
97.059	8	C5[13]CH8O+
124.0868	265	C8H12O+
125.0895	14	C7[13]CH12O+
146.0224	14	C8H4NO2+
174.0534	134	C10H8NO2+
175.0555	5	C9[13]CH8NO2+
202.085	999	C12H12NO2+
203.0879	77	C11[13]CH12NO2+
