Mass spectrum: Salbutamol; LC-ESI-QTOF; MS2; CE: Ramp 19.4-29.2 eV; R=35000; [M+H]+
Name: Salbutamol
Name: 4-[2-(tert-butylamino)-1-hydroxyethyl]-2-(hydroxymethyl)phenol
Formula: C13H21NO3
Exact mass: 239.1521
SMILES: CC(C)(C)NCC(c1ccc(c(c1)CO)O)O
InChI: InChI=1S/C13H21NO3/c1-13(2,3)14-7-12(17)9-4-5-11(16)10(6-9)8-15/h4-6,12,14-17H,7-8H2,1-3H3
Instrument: Bruker maXis Impact
Instrument type: LC-ESI-QTOF
Ms type: MS2
Ion mode: POSITIVE
Ionization: ESI
Fragmentation mode: CID
Collision energy: Ramp 19.4-29.2 eV
Resolution: 35000
Column name: Acclaim RSLC C18 2.2um, 2.1x100mm, Thermo
Retention time: 3.3 min
Base peak: 267.1735
Precursor m/z: 240.1594
Precursor type: [M+H]+
m/z	relative intensity	assigned
57.0694	72	C4H9+
79.0537	5	C6H7+
93.0702	5	C7H9+
120.0812	24	C8H10N+
121.0651	62	C8H9O+
122.0686	5	C8H10O+
130.0652	50	C9H8N+
131.0494	10	C9H7O+
131.07	6	C6H11O3+
133.0526	43	C8H7NO+
136.0753	11	C8H10NO+
148.0763	999	C9H10NO+
149.0794	103	C9H11NO+
150.0805	5	C8H10N2O+
166.0876	162	C9H12NO2+
167.0898	14	C13H11+
222.1495	59	C13H20NO2+
223.153	10	C13H21NO2+
