Mass spectrum: Ebastin; LC-ESI-QTOF; MS2; CE: 50 eV; R=35000; [M+H]+
Name: Ebastin
Name: Ebastine
Name: 4-(4-benzhydryloxypiperidin-1-yl)-1-(4-tert-butylphenyl)butan-1-one
Formula: C32H39NO2
Exact mass: 469.2980795
SMILES: CC(C)(C)C1=CC=C(C=C1)C(=O)CCCN1CCC(CC1)OC(C1=CC=CC=C1)C1=CC=CC=C1
InChI: InChI=1S/C32H39NO2/c1-32(2,3)28-18-16-25(17-19-28)30(34)15-10-22-33-23-20-29(21-24-33)35-31(26-11-6-4-7-12-26)27-13-8-5-9-14-27/h4-9,11-14,16-19,29,31H,10,15,20-24H2,1-3H3
Instrument: Bruker maXis Impact
Instrument type: LC-ESI-QTOF
Ms type: MS2
Ion mode: POSITIVE
Ionization: ESI
Fragmentation mode: CID
Collision energy: 50 eV
Resolution: 35000
Column name: Acclaim RSLC C18 2.2um, 2.1x100mm, Thermo
Retention time: 10.731 min
Base peak: 470.3051
Precursor m/z: 470.3054
Precursor type: [M+H]+
m/z	relative intensity	assigned
146.0713	21	C10H10O+
152.0609	119	C12H8+
153.0642	12	C11[13]CH8+
161.095	681	C11H13O+
162.0983	74	C10[13]CH13O+
165.0688	130	C13H9+
166.0754	44	C13H10+
167.0845	941	C13H11+
168.0878	123	C12[13]CH11+
188.1184	32	C13H16O+
203.1423	999	C14H19O+
204.1456	99	C13[13]CH19O+
205.1486	6	C12[13]C2H19O+
