Mass spectrum: Carbamazepine; LC-ESI-QTOF; MS2; CE: 30 eV; R=35000; [M+H]+
Name: Carbamazepine
Name: benzo[b][1]benzazepine-11-carboxamide
Formula: C15H12N2O
Exact mass: 236.0949630
SMILES: c1ccc2c(c1)C=Cc3ccccc3N2C(=O)N
InChI: InChI=1S/C15H12N2O/c16-15(18)17-13-7-3-1-5-11(13)9-10-12-6-2-4-8-14(12)17/h1-10H,(H2,16,18)
Instrument: Bruker maXis Impact
Instrument type: LC-ESI-QTOF
Ms type: MS2
Ion mode: POSITIVE
Ionization: ESI
Fragmentation mode: CID
Collision energy: 30 eV
Resolution: 35000
Column name: Acclaim RSLC C18 2.2um, 2.1x100mm, Thermo
Retention time: 7.3 min
Base peak: 237.1016
Precursor m/z: 237.1022
Precursor type: [M+H]+
m/z	relative intensity	assigned
165.0695	14	C13H9+
167.0847	9	C13H11+
191.0727	9	C14H9N+
193.0873	157	C14H11N+
194.0958	999	C14H12N+
195.0994	138	C13[13]CH12N+
196.1025	5	C12[13]C2H12N+
