Mass spectrum: Lorazepam; LC-ESI-QTOF; MS2; CE: 30 eV; R=35000; [M+H]+
Name: Lorazepam
Name: 7-chloro-5-(2-chlorophenyl)-3-hydroxy-1,3-dihydro-1,4-benzodiazepin-2-one
Formula: C15H10Cl2N2O2
Exact mass: 320.0119329
SMILES: OC1N=C(C2=CC=CC=C2Cl)C2=C(NC1=O)C=CC(Cl)=C2
InChI: InChI=1S/C15H10Cl2N2O2/c16-8-5-6-12-10(7-8)13(19-15(21)14(20)18-12)9-3-1-2-4-11(9)17/h1-7,15,21H,(H,18,20)
Instrument: Bruker maXis Impact
Instrument type: LC-ESI-QTOF
Ms type: MS2
Ion mode: POSITIVE
Ionization: ESI
Fragmentation mode: CID
Collision energy: 30 eV
Resolution: 35000
Column name: Acclaim RSLC C18 2.2um, 2.1x100mm, Thermo
Retention time: 8.274 min
Base peak: 278.1898
Precursor m/z: 321.0192
Precursor type: [M+H]+
m/z	relative intensity	assigned
128.0252	26	C6H7ClN+
130.0226	5	C6H7[37]ClN+
138.0093	71	C10H2O+
139.0127	10	C9[13]CH2O+
140.0063	11	C4H8Cl2N+
153.0217	18	C7H6ClN2+
155.0183	7	C7H6[37]ClN2+
156.0207	11	C10H4O2+
163.0045	31	C2H9Cl2N2O2+
164.9998	9	C2H9Cl[37]ClN2O2+
166.0049	18	C11H2O2+
181.0142	8	C11H3NO2+
194.082	21	C13H10N2+
205.0758	5	C14H9N2+
214.0421	7	C13H9ClN+
229.0519	588	C13H10ClN2+
230.055	97	C12[13]CH10ClN2+
231.0483	149	C13H10[37]ClN2+
232.0525	9	C13H11ClNO+
239.035	12	C14H8ClN2+
240.037	5	C15H9ClO+
241.0273	17	C14H8ClNO+
250.0162	6	C13H10Cl2N+
252.0131	6	C13H10Cl2O+
257.0464	21	C14H10ClN2O+
263.0134	6	C13H9Cl2N2+
265.0065	6	C13H9Cl[37]ClN2+
265.0285	99	C13H11Cl2N2+
266.0331	16	C12[13]CH11Cl2N2+
267.0267	63	C13H11Cl[37]ClN2+
275.013	999	C14H9Cl2N2+
276.0159	179	C13[13]CH9Cl2N2+
277.0103	570	C14H9Cl[37]ClN2+
278.0131	65	C14H10Cl2NO+
279.0053	7	C13H9Cl2N2O+
291.0087	10	C14H9Cl2N2O+
292.0169	12	C14H10Cl2N2O+
293.0066	9	C14H9Cl[37]ClN2O+
294.0112	11	C14H10Cl[37]ClN2O+
295.0169	5	C14H11Cl2NO2+
303.0077	155	C15H9Cl2N2O+
304.0105	22	C14[13]CH9Cl2N2O+
305.0045	99	C15H9Cl[37]ClN2O+
306.0097	11	C15H10Cl2NO2+
321.0197	10	C15H11Cl2N2O2+
323.0148	8	C15H11Cl[37]ClN2O2+
