Mass spectrum: Imazapyr; LC-ESI-QTOF; MS2; CE: 30 eV; R=35000; [M+H]+
Name: Imazapyr
Name: 2-(4-methyl-5-oxo-4-propan-2-yl-1H-imidazol-2-yl)pyridine-3-carboxylic acid
Formula: C13H15N3O3
Exact mass: 261.1113413
SMILES: CC(C)C1(C)N=C(NC1=O)C1=NC=CC=C1C(O)=O
InChI: InChI=1S/C13H15N3O3/c1-7(2)13(3)12(19)15-10(16-13)9-8(11(17)18)5-4-6-14-9/h4-7H,1-3H3,(H,17,18)(H,15,16,19)
Instrument: Bruker maXis Impact
Instrument type: LC-ESI-QTOF
Ms type: MS2
Ion mode: POSITIVE
Ionization: ESI
Fragmentation mode: CID
Collision energy: 30 eV
Resolution: 35000
Column name: Acclaim RSLC C18 2.2um, 2.1x100mm, Thermo
Retention time: 4.243 min
Base peak: 262.1185
Precursor m/z: 262.1186
Precursor type: [M+H]+
m/z	relative intensity	assigned
131.0229	172	C7H3N2O+
132.0263	12	C6[13]CH3N2O+
132.0793	5	C6H12O3+
133.0382	27	C7H5N2O+
136.0385	6	C7H6NO2+
147.0543	157	C8H7N2O+
148.0493	135	C7H6N3O+
149.0337	999	C7H5N2O2+
150.0365	60	C6[13]CH5N2O2+
151.0412	5	C7H5N2O[18]O+
166.06	6	C7H8N3O2+
171.09	7	C8H13NO3+
173.057	17	C9H7N3O+
173.1063	77	C11H13N2+
174.0652	394	C9H8N3O+
175.0679	38	C8[13]CH8N3O+
175.0849	32	C10H11N2O+
176.0796	16	C9H10N3O+
177.0645	13	C9H9N2O2+
178.0612	6	C8H8N3O2+
191.068	59	C11H11O3+
192.0733	11	C10[13]CH11O3+
199.0855	179	C12H11N2O+
200.0888	23	C11[13]CH11N2O+
201.052	33	C10H7N3O2+
202.0604	853	C12H10O3+
203.063	89	C11[13]CH10O3+
204.0652	6	C10[13]C2H10O3+
216.1118	52	C12H14N3O+
217.0967	798	C12H13N2O2+
218.0995	98	C11[13]CH13N2O2+
219.063	35	C10H9N3O3+
219.1018	8	C10[13]C2H13N2O2+
220.0708	258	C10H10N3O3+
221.0733	31	C9[13]CH10N3O3+
234.1233	103	C12H16N3O2+
235.1261	15	C11[13]CH16N3O2+
262.1179	89	C13H16N3O3+
263.1209	12	C12[13]CH16N3O3+
