Mass spectrum: Fipronil sulfide; LC-ESI-QTOF; MS2; CE: 40 eV; R=35000; [M+H]+
Name: Fipronil sulfide
Name: 5-amino-1-[2,6-dichloro-4-(trifluoromethyl)phenyl]-4-(trifluoromethylsulfanyl)pyrazole-3-carbonitrile
Formula: C12H4Cl2F6N4S
Exact mass: 419.9437918
SMILES: NC1=C(SC(F)(F)F)C(=NN1C1=C(Cl)C=C(C=C1Cl)C(F)(F)F)C#N
InChI: InChI=1S/C12H4Cl2F6N4S/c13-5-1-4(11(15,16)17)2-6(14)8(5)24-10(22)9(7(3-21)23-24)25-12(18,19)20/h1-2H,22H2
Instrument: Bruker maXis Impact
Instrument type: LC-ESI-QTOF
Ms type: MS2
Ion mode: POSITIVE
Ionization: ESI
Fragmentation mode: CID
Collision energy: 40 eV
Resolution: 35000
Column name: Acclaim RSLC C18 2.2um, 2.1x100mm, Thermo
Retention time: 10.695 min
Base peak: 223.063
Precursor m/z: 420.9511
Precursor type: [M+H]+
m/z	relative intensity	assigned
149.023	89	C6H2FN4+
154.9886	70	C2H5Cl2N4+
237.9681	66	C5H4Cl2F4N2+
246.0037	96	C9H4ClF3N3+
254.9713	75	C6H3ClF3N4S+
262.9658	56	C9H3ClF3N2S+
264.9799	246	C6H5Cl2F4N3+
266.9764	98	C6H5Cl[37]ClF4N3+
274.9623	61	C7H3Cl2F4N3+
285.0159	102	C11H5ClF3N4+
289.9768	192	C10H4ClF3N3S+
316.9862	999	C9H5ClF5N3S+
317.9852	138	C8[13]CH5ClF5N3S+
318.9834	310	C9H5[37]ClF5N3S+
319.9804	115	C12H5ClF4N2S+
420.9469	76	C12H5Cl2F6N4S+
