Mass spectrum: Chloramphenicol; LC-ESI-QTOF; MS2; CE: 30 eV; R=35000; [M+H]+
Name: Chloramphenicol
Name: 2,2-Dichloro-N-[1,3-dihydroxy-1-(4-nitrophenyl)propan-2-yl]acetamide
Name: 2,2-dichloro-N-[1,3-dihydroxy-1-(4-nitrophenyl)propan-2-yl]acetamide
Formula: C11H12Cl2N2O5
Exact mass: 322.0123268
SMILES: OCC(NC(=O)C(Cl)Cl)C(O)C1=CC=C(C=C1)[N+]([O-])=O
InChI: InChI=1S/C11H12Cl2N2O5/c12-10(13)11(18)14-8(5-16)9(17)6-1-3-7(4-2-6)15(19)20/h1-4,8-10,16-17H,5H2,(H,14,18)
Instrument: Bruker maXis Impact
Instrument type: LC-ESI-QTOF
Ms type: MS2
Ion mode: POSITIVE
Ionization: ESI
Fragmentation mode: CID
Collision energy: 30 eV
Resolution: 35000
Column name: Acclaim RSLC C18 2.2um, 2.1x100mm, Thermo
Retention time: 5.719 min
Base peak: 376.2394
Precursor m/z: 323.0196
Precursor type: [M+H]+
m/z	relative intensity	assigned
162.0551	70	C9H8NO2+
165.0642	999	C8H9N2O2+
166.0674	108	C7[13]CH9N2O2+
206.0377	147	C8H12Cl2N2+
229.0078	82	C10H9Cl2NO+
231.0046	79	C9H8ClO5+
257.9957	309	C10H8Cl2N2O2+
259.9951	119	C10H8Cl[37]ClN2O2+
274.9976	258	C10H9Cl2N2O3+
276.9961	131	C10H9Cl[37]ClN2O3+
