Mass spectrum: N-Butylbenzenesulfonamide; LC-ESI-QTOF; MS2; CE: 10 eV; R=35000; [M+H]+
Name: N-Butylbenzenesulfonamide
Name: N-butylbenzenesulfonamide
Formula: C10H15NO2S
Exact mass: 213.0823497
SMILES: CCCCNS(=O)(=O)C1=CC=CC=C1
InChI: InChI=1S/C10H15NO2S/c1-2-3-9-11-14(12,13)10-7-5-4-6-8-10/h4-8,11H,2-3,9H2,1H3
Instrument: Bruker maXis Impact
Instrument type: LC-ESI-QTOF
Ms type: MS2
Ion mode: POSITIVE
Ionization: ESI
Fragmentation mode: CID
Collision energy: 10 eV
Resolution: 35000
Column name: Acclaim RSLC C18 2.2um, 2.1x100mm, Thermo
Retention time: 7.724 min
Base peak: 204.1019
Precursor m/z: 214.0896
Precursor type: [M+H]+
m/z	relative intensity	assigned
140.9996	465	C6H5O2S+
142.0031	42	C5[13]CH5O2S+
142.995	17	C6H5O2[34]S+
158.0262	999	C6H8NO2S+
159.0297	70	C5[13]CH8NO2S+
160.0222	35	C6H8NO2[34]S+
214.0895	571	C10H16NO2S+
215.0921	72	C9[13]CH16NO2S+
216.0866	28	C10H16NO2[34]S+
