Mass spectrum: Tri-n-butyl acetyl citrate; GC-APCI-QTOF; MS2; CE: 10 eV; R=35000; [M+H]+
Name: Tri-n-butyl acetyl citrate
Formula: C20H34O8
Exact mass: 402.2254
SMILES: CCCCOC(=O)CC(CC(=O)OCCCC)(C(=O)OCCCC)OC(=O)C
InChI: InChI=1S/C20H34O8/c1-5-8-11-25-17(22)14-20(28-16(4)21,19(24)27-13-10-7-3)15-18(23)26-12-9-6-2/h5-15H2,1-4H3
Instrument: Bruker 450 GC coupled to maXis Impact
Instrument type: GC-APCI-QTOF
Ms type: MS2
Ion mode: POSITIVE
Ionization: APCI
Fragmentation mode: CID
Collision energy: 10 eV
Resolution: 35000
Column name: Rxi-5Sil MS column, 30m, 0.25mm i.d., 0.25Âµm film thickness, Restek
Retention time: 21.182 min
Base peak: 403.2325
Precursor m/z: 403.2326
Precursor type: [M+H]+
m/z	relative intensity	assigned
129.0169	66	C5H5O4+
139.0033	49	C6H3O4+
157.0153	258	C6H5O5+
158.0217	25	C6H6O5+
185.0839	312	C9H13O4+
186.0864	46	C9H14O4+
203.0935	21	C9H15O5+
213.0759	519	C10H13O5+
214.0831	47	C10H14O5+
215.0893	23	C10H15O5+
217.0349	500	C8H9O7+
218.0396	35	C8H10O7+
219.04	17	C15H7O2+
259.1527	728	C13H23O5+
260.1558	77	C20H20+
261.164	17	C20H21+
269.1387	241	C14H21O5+
270.1453	48	C14H22O5+
273.0957	758	C12H17O7+
274.0984	119	C19H14O2+
287.1492	58	C14H23O6+
329.159	999	C16H25O7+
330.1637	186	C16H26O7+
331.174	22	C16H27O7+
341.1947	21	C18H29O6+
341.2225	19	C15H33O8+
361.2239	419	C18H33O7+
362.2251	126	C18H34O7+
363.2429	16	C18H35O7+
403.2317	149	C20H35O8+
