Mass spectrum: 8-hydroxy Mirtazapine; LC-ESI-QTOF; MS2; CE: 50 eV; R=35000; [M+H]+
Name: 8-hydroxy Mirtazapine
Formula: C17H19N3O
Exact mass: 281.1528122
SMILES: CN1CCN2C(C1)C1=CC=CC=C1CC1=CC(O)=CN=C21
InChI: InChI=1S/C17H19N3O/c1-19-6-7-20-16(11-19)15-5-3-2-4-12(15)8-13-9-14(21)10-18-17(13)20/h2-5,9-10,16,21H,6-8,11H2,1H3
Instrument: Bruker maXis Impact
Instrument type: LC-ESI-QTOF
Ms type: MS2
Ion mode: POSITIVE
Ionization: ESI
Fragmentation mode: CID
Collision energy: 50 eV
Resolution: 35000
Column name: Acclaim RSLC C18 2.2um, 2.1x100mm, Thermo
Retention time: 4.6 min
Base peak: 282.1598
Precursor m/z: 282.1601
Precursor type: [M+H]+
m/z	relative intensity	assigned
115.0535	27	C9H7+
116.0492	20	C8H6N+
128.0611	19	C10H8+
129.0689	24	C10H9+
130.0642	31	C9H8N+
131.0715	17	C9H9N+
133.0386	8	C7H5N2O+
134.0468	8	C7H6N2O+
135.0548	6	C7H7N2O+
140.0493	10	C10H6N+
142.0639	8	C10H8N+
143.0713	8	C10H9N+
145.0632	5	C8H7N3+
145.0853	6	C10H11N+
147.054	18	C8H7N2O+
149.0695	11	C8H9N2O+
151.0495	10	C5H5N5O+
152.061	12	C12H8+
153.0683	15	C12H9+
155.0599	8	C10H7N2+
155.0707	10	C11H9N+
157.0838	7	C6H11N3O2+
165.0682	5	C13H9+
168.0772	22	C12H10N+
169.0751	19	C11H9N2+
170.0955	8	C12H12N+
178.0647	5	C13H8N+
180.0797	17	C13H10N+
182.0596	12	C12H8NO+
192.0669	12	C13H8N2+
193.0743	17	C13H9N2+
194.0595	9	C13H8NO+
195.0893	9	C13H11N2+
197.0784	17	C11H9N4+
198.0901	19	C13H12NO+
206.0827	5	C14H10N2+
207.0901	9	C14H11N2+
208.0738	12	C14H10NO+
208.0979	5	C14H12N2+
211.0858	999	C13H11N2O+
212.0891	119	C11H10N5+
213.092	5	C11[13]C2H11N2O+
221.0705	21	C14H9N2O+
222.0773	13	C14H10N2O+
224.0923	15	C14H12N2O+
225.1015	53	C14H13N2O+
226.1053	9	C13[13]CH13N2O+
234.0784	10	C15H10N2O+
235.086	66	C15H11N2O+
236.0904	16	C14[13]CH11N2O+
237.1014	9	C15H13N2O+
239.1177	7	C15H15N2O+
249.1016	11	C16H13N2O+
250.0972	7	C15H12N3O+
251.1171	7	C16H15N2O+
