Mass spectrum: Clozapine; LC-ESI-QTOF; MS2; CE: Ramp 22.1-33.2 eV; R=35000; [M+H]+
Name: Clozapine
Name: 3-chloro-6-(4-methylpiperazin-1-yl)-11H-benzo[b][1,4]benzodiazepine
Formula: C18H19ClN4
Exact mass: 326.1298243
SMILES: CN1CCN(CC1)C1=NC2=C(NC3=CC=CC=C13)C=CC(Cl)=C2
InChI: InChI=1S/C18H19ClN4/c1-22-8-10-23(11-9-22)18-14-4-2-3-5-15(14)20-16-7-6-13(19)12-17(16)21-18/h2-7,12,20H,8-11H2,1H3
Instrument: Bruker maXis Impact
Instrument type: LC-ESI-QTOF
Ms type: MS2
Ion mode: POSITIVE
Ionization: ESI
Fragmentation mode: CID
Collision energy: Ramp 22.1-33.2 eV
Resolution: 35000
Column name: Acclaim RSLC C18 2.2um, 2.1x100mm, Thermo
Retention time: 6.951 min
Base peak: 327.1379
Precursor m/z: 327.1371
Precursor type: [M+H]+
m/z	relative intensity	assigned
58.0647	9	C3H8N+
84.0805	283	C5H10N+
85.0757	15	C4H9N2+
85.0833	16	C4[13]CH10N+
99.0918	5	C5H11N2+
192.0676	96	C13H8N2+
193.0709	9	C12[13]CH8N2+
227.0368	120	C13H8ClN2+
228.04	16	C12[13]CH8ClN2+
229.034	28	C13H8[37]ClN2+
229.0497	6	C14H5N4+
253.0518	5	C15H10ClN2+
255.0538	5	C14H10ClN3+
270.0796	999	C15H13ClN3+
271.0825	233	C14[13]CH13ClN3+
272.0765	404	C15H13[37]ClN3+
296.0951	141	C17H15ClN3+
297.0979	26	C16[13]CH15ClN3+
298.092	39	C17H15[37]ClN3+
327.1376	498	C18H20ClN4+
328.1405	110	C17[13]CH20ClN4+
329.1352	165	C18H20[37]ClN4+
