Mass spectrum: Oleamide; GC-APCI-QTOF; MS2; CE: 30 eV; R=35000; [M+H]+
Name: Oleamide
Formula: C18H35NO
Exact mass: 281.2719
SMILES: CCCCCCCCC=CCCCCCCCC(=O)N
InChI: InChI=1S/C18H35NO/c1-2-3-4-5-6-7-8-9-10-11-12-13-14-15-16-17-18(19)20/h9-10H,2-8,11-17H2,1H3,(H2,19,20)
Instrument: Bruker 450 GC coupled to maXis Impact
Instrument type: GC-APCI-QTOF
Ms type: MS2
Ion mode: POSITIVE
Ionization: APCI
Fragmentation mode: CID
Collision energy: 30 eV
Resolution: 35000
Column name: Rxi-5Sil MS column, 30m, 0.25mm i.d., 0.25Âµm film thickness, Restek
Retention time: 19.504 min
Base peak: 283.2623
Precursor m/z: 282.2791
Precursor type: [M+H]+
m/z	relative intensity	assigned
59.0494	192	C3H7O+
67.0529	199	C5H7+
69.0699	377	C5H9+
81.0691	251	C6H9+
95.0876	214	C7H11+
119.0885	222	C9H11+
121.1011	473	C9H13+
123.082	185	C8H11O+
123.1173	318	C9H15+
125.097	214	C8H13O+
133.1026	525	C10H13+
135.1182	999	C10H15+
137.1325	288	C10H17+
139.1108	222	C9H15O+
147.1177	392	C11H15+
149.1347	799	C11H17+
153.1284	192	C10H17O+
161.1354	207	C12H17+
163.1501	355	C12H19+
175.1513	214	C13H19+
189.1659	192	C14H21+
