Mass spectrum: Metoclopramide; LC-ESI-QTOF; MS2; CE: Ramp 21.6-32.4 eV; R=35000; [M+H]+
Name: Metoclopramide
Name: 4-amino-5-chloro-N-[2-(diethylamino)ethyl]-2-methoxybenzamide
Formula: C14H22ClN3O2
Exact mass: 299.1400546
SMILES: CCN(CC)CCNC(=O)c1cc(c(cc1OC)N)Cl
InChI: InChI=1S/C14H22ClN3O2/c1-4-18(5-2)7-6-17-14(19)10-8-11(15)12(16)9-13(10)20-3/h8-9H,4-7,16H2,1-3H3,(H,17,19)
Instrument: Bruker maXis Impact
Instrument type: LC-ESI-QTOF
Ms type: MS2
Ion mode: POSITIVE
Ionization: ESI
Fragmentation mode: CID
Collision energy: Ramp 21.6-32.4 eV
Resolution: 35000
Column name: Acclaim RSLC C18 2.2um, 2.1x100mm, Thermo
Retention time: 4.242 min
Base peak: 300.147
Precursor m/z: 300.1473
Precursor type: [M+H]+
m/z	relative intensity	assigned
140.9965	6	C9HO2+
156.0197	5	C8H2N3O+
168.0073	5	C10H2NO2+
183.031	79	C11H5NO2+
184.015	465	C8H7ClNO2+
185.0197	25	C7[13]CH7ClNO2+
186.0121	113	C8H7[37]ClNO2+
212.0339	62	C9H9ClN2O2+
213.037	6	C8[13]CH9ClN2O2+
214.0309	16	C9H9[37]ClN2O2+
227.0578	999	C10H12ClN2O2+
228.0608	77	C9[13]CH12ClN2O2+
229.0548	247	C10H12[37]ClN2O2+
230.0573	10	C13H11ClN2+
