Mass spectrum: 2-Morpholinothiobenzothiazole; LC-ESI-QTOF; MS2; CE: 30 eV; R=35000; [M+H]+
Name: 2-Morpholinothiobenzothiazole
Name: 2-(Morpholinothio)benzothiazole
Name: 4-(1,3-benzothiazol-2-ylsulfanyl)morpholine
Formula: C11H12N2OS2
Exact mass: 252.0391050
SMILES: C1CN(CCO1)SC1=NC2=CC=CC=C2S1
InChI: InChI=1S/C11H12N2OS2/c1-2-4-10-9(3-1)12-11(15-10)16-13-5-7-14-8-6-13/h1-4H,5-8H2
Instrument: Bruker maXis Impact
Instrument type: LC-ESI-QTOF
Ms type: MS2
Ion mode: POSITIVE
Ionization: ESI
Fragmentation mode: CID
Collision energy: 30 eV
Resolution: 35000
Column name: Acclaim RSLC C18 2.2um, 2.1x100mm, Thermo
Retention time: 9.868 min
Base peak: 253.0457
Precursor m/z: 253.0464
Precursor type: [M+H]+
m/z	relative intensity	assigned
122.0053	84	C6H4NS+
124.0216	24	C6H6NS+
132.9958	14	C7H3NS+
135.0109	39	C10HN+
136.0205	202	C10H2N+
137.0226	22	C9[13]CH2N+
138.016	15	C4H10OS2+
138.9655	23	C6H3S2+
148.0209	22	C8H6NS+
149.0255	16	C11H3N+
162.0348	35	C9H8NS+
163.0312	75	C8H7N2S+
163.0423	71	C9H9NS+
164.0356	19	C11H4N2+
165.9767	999	C10NS+
166.9839	270	C7H5NS2+
167.9716	63	C10N[34]S+
167.9918	534	C7H6NS2+
168.9802	25	C7H5NS[34]S+
168.9948	61	C6[13]CH6NS2+
169.9897	54	C7H6NS[34]S+
175.0313	29	C9H7N2S+
176.0392	30	C9H8N2S+
179.9919	19	C11H2NS+
183.9877	18	C7H6NOS2+
189.0484	21	C10H9N2S+
190.0555	23	C10H10N2S+
205.0418	17	C10H9N2OS+
219.059	29	C11H11N2OS+
220.0651	74	C11H12N2OS+
221.0703	16	C11H13N2OS+
253.0468	63	C11H13N2OS2+
