Mass spectrum: Thiacloprid; LC-ESI-QTOF; MS2; CE: 20 eV; R=35000; [M+H]+
Name: Thiacloprid
Name: [3-[(6-chloropyridin-3-yl)methyl]-1,3-thiazolidin-2-ylidene]cyanamide
Formula: C10H9ClN4S
Exact mass: 252.0236450
SMILES: C1CSC(=NC#N)N1CC2=CN=C(C=C2)Cl
InChI: InChI=1S/C10H9ClN4S/c11-9-2-1-8(5-13-9)6-15-3-4-16-10(15)14-7-12/h1-2,5H,3-4,6H2
Instrument: Bruker maXis Impact
Instrument type: LC-ESI-QTOF
Ms type: MS2
Ion mode: POSITIVE
Ionization: ESI
Fragmentation mode: CID
Collision energy: 20 eV
Resolution: 35000
Column name: Acclaim RSLC C18 2.2um, 2.1x100mm, Thermo
Retention time: 5.5 min
Base peak: 253.0304
Precursor m/z: 253.0309
Precursor type: [M+H]+
m/z	relative intensity	assigned
126.0099	999	C6H5ClN+
127.0133	44	C5[13]CH5ClN+
128.0068	216	C6H5[37]ClN+
144.0197	7	C6H7ClNO+
145.0225	1	C5[13]CH7ClNO+
146.0171	2	C6H7[37]ClNO+
186.0132	57	C8H9ClNS+
187.0169	5	C7[13]CH9ClNS+
188.0098	17	C8H9[37]ClNS+
253.0309	318	C10H10ClN4S+
254.0333	28	C9[13]CH10ClN4S+
255.0278	83	C10H10[37]ClN4S+
256.0299	6	C9[13]CH10[37]ClN4S+
