Mass spectrum: Labetalol; LC-ESI-QTOF; MS2; CE: 20 eV; R=35000; [M+H]+
Name: Labetalol
Name: 2-hydroxy-5-[1-hydroxy-2-(4-phenylbutan-2-ylamino)ethyl]benzamide
Formula: C19H24N2O3
Exact mass: 328.1786926
SMILES: CC(CCC1=CC=CC=C1)NCC(O)C1=CC(C(N)=O)=C(O)C=C1
InChI: InChI=1S/C19H24N2O3/c1-13(7-8-14-5-3-2-4-6-14)21-12-18(23)15-9-10-17(22)16(11-15)19(20)24/h2-6,9-11,13,18,21-23H,7-8,12H2,1H3,(H2,20,24)
Instrument: Bruker maXis Impact
Instrument type: LC-ESI-QTOF
Ms type: MS2
Ion mode: POSITIVE
Ionization: ESI
Fragmentation mode: CID
Collision energy: 20 eV
Resolution: 35000
Column name: Acclaim RSLC C18 2.2um, 2.1x100mm, Thermo
Retention time: 5.626 min
Base peak: 411.2188
Precursor m/z: 329.186
Precursor type: [M+H]+
m/z	relative intensity	assigned
133.0999	5	C10H13+
162.0536	326	C9H8NO2+
163.0566	28	C8[13]CH8NO2+
164.0688	40	C9H10NO2+
165.0532	6	C9H9O3+
179.0802	190	C9H11N2O2+
180.0637	5	C9H10NO3+
180.0836	19	C8[13]CH11N2O2+
190.0846	39	C11H12NO2+
207.1116	214	C11H15N2O2+
208.115	24	C10[13]CH15N2O2+
294.148	279	C19H20NO2+
295.1514	58	C18[13]CH20NO2+
296.1532	6	C17[13]C2H20NO2+
311.1748	999	C19H23N2O2+
312.1774	180	C18[13]CH23N2O2+
313.1808	19	C17[13]C2H23N2O2+
329.1846	37	C19H25N2O3+
330.1876	9	C18[13]CH25N2O3+
