Mass spectrum: Flunixin; LC-ESI-QTOF; MS2; CE: 50 eV; R=35000; [M+H]+
Name: Flunixin
Name: 2-[2-methyl-3-(trifluoromethyl)anilino]pyridine-3-carboxylic acid
Formula: C14H11F3N2O2
Exact mass: 296.0772623
SMILES: Cc1c(cccc1Nc2c(cccn2)C(=O)O)C(F)(F)F
InChI: InChI=1S/C14H11F3N2O2/c1-8-10(14(15,16)17)5-2-6-11(8)19-12-9(13(20)21)4-3-7-18-12/h2-7H,1H3,(H,18,19)(H,20,21)
Instrument: Bruker maXis Impact
Instrument type: LC-ESI-QTOF
Ms type: MS2
Ion mode: POSITIVE
Ionization: ESI
Fragmentation mode: CID
Collision energy: 50 eV
Resolution: 35000
Column name: Acclaim RSLC C18 2.2um, 2.1x100mm, Thermo
Retention time: 9.2 min
Base peak: 297.0744
Precursor m/z: 297.0845
Precursor type: [M+H]+
m/z	relative intensity	assigned
109.0404	7	C2H6FN2O2+
119.0238	9	C6H3N2O+
139.0293	14	C9H3N2+
140.0433	13	C8H6F2+
147.0292	12	C6H4F3N+
154.0593	8	C9H8F2+
157.0381	5	C9H5N2O+
159.0352	86	C9H4FN2+
160.0387	5	C8[13]CH4FN2+
164.0429	7	C10H6F2+
167.0534	8	C9H7F2N+
180.0616	7	C10H8F2N+
181.0688	128	C10H9F2N+
182.0755	38	C10H11FO2+
184.0488	75	C10H7F3+
185.0524	10	C9[13]CH7F3+
186.0518	20	C9H7F3N+
189.0315	5	C14H5O+
191.0528	19	C11H7F2N+
192.0608	15	C11H8F2N+
195.0491	8	C10H7F2NO+
209.0377	7	C14H6FO+
209.0634	65	C14H8FN+
210.0506	28	C11H8F2O2+
210.0709	95	C14H9FN+
211.0587	69	C11H8F3N+
212.0634	8	C10[13]CH8F3N+
214.0419	6	C13H7FO2+
216.0417	16	C10H7F3O2+
217.0496	12	C10H8F3O2+
219.0474	8	C12H7F2NO+
229.048	5	C11H8F3O2+
230.0564	7	C11H9F3O2+
231.0648	26	C11H10F3O2+
234.045	11	C14H6N2O2+
235.0394	16	C13H6F3O+
236.0472	348	C13H7F3O+
237.0514	24	C12[13]CH7F3O+
239.0529	57	C12H8F3NO+
240.0558	6	C11[13]CH8F3NO+
241.0485	23	C12H8F3O2+
249.0553	19	C14H8F3O+
250.0617	8	C14H9F3O+
251.0697	6	C14H10F3O+
257.0478	7	C14H7F2N2O+
258.0554	9	C14H8F2N2O+
259.0627	72	C14H9F2N2O+
260.0671	10	C13[13]CH9F2N2O+
263.0342	15	C14H6F3O2+
264.0415	999	C14H7F3O2+
265.0443	83	C13[13]CH7F3O2+
277.0543	13	C14H8F3N2O+
278.0622	7	C14H9F3N2O+
279.0689	116	C14H10F3N2O+
280.0729	13	C13[13]CH10F3N2O+
