Mass spectrum: Dydrogesterone; LC-ESI-QTOF; MS2; CE: 10 eV; R=35000; [M+H]+
Name: Dydrogesterone
Name: (8S,9R,10S,13S,14S,17S)-17-acetyl-10,13-dimethyl-1,2,8,9,11,12,14,15,16,17-decahydrocyclopenta[a]phenanthren-3-one
Formula: C21H28O2
Exact mass: 312.2089301
SMILES: [H][C@@]12CC[C@H](C(C)=O)[C@@]1(C)CC[C@]1([H])[C@@]2([H])C=CC2=CC(=O)CC[C@@]12C
InChI: InChI=1S/C21H28O2/c1-13(22)17-6-7-18-16-5-4-14-12-15(23)8-10-20(14,2)19(16)9-11-21(17,18)3/h4-5,12,16-19H,6-11H2,1-3H3/t16-,17+,18-,19+,20+,21+/m0/s1
Instrument: Bruker maXis Impact
Instrument type: LC-ESI-QTOF
Ms type: MS2
Ion mode: POSITIVE
Ionization: ESI
Fragmentation mode: CID
Collision energy: 10 eV
Resolution: 35000
Column name: Acclaim RSLC C18 2.2um, 2.1x100mm, Thermo
Retention time: 10.691 min
Base peak: 313.2161
Precursor m/z: 313.2162
Precursor type: [M+H]+
m/z	relative intensity	assigned
229.1576	7	C16H21O+
239.142	5	C17H19O+
253.1945	11	C19H25+
255.1737	5	C18H23O+
269.1892	6	C19H25O+
271.205	9	C19H27O+
277.1946	7	C21H25+
295.2055	82	C21H27O+
296.2089	18	C20[13]CH27O+
313.2163	999	C21H29O2+
314.2195	201	C20[13]CH29O2+
315.2223	17	C19[13]C2H29O2+
