Mass spectrum: 2-Amino-3,8-dimethylimidazo-[4,5-f]quinoxaline (MeIQx); LC-ESI-QTOF; MS2; CE: 30 eV; R=35000; [M+H]+
Name: 2-Amino-3,8-dimethylimidazo-[4,5-f]quinoxaline (MeIQx)
Name: MeIQx
Name: 3,8-dimethylimidazo[4,5-f]quinoxalin-2-amine
Formula: C11H11N5
Exact mass: 213.1014454
SMILES: CN1C(N)=NC2=C1C=CC1=NC=C(C)N=C21
InChI: InChI=1S/C11H11N5/c1-6-5-13-7-3-4-8-10(9(7)14-6)15-11(12)16(8)2/h3-5H,1-2H3,(H2,12,15)
Instrument: Bruker maXis Impact
Instrument type: LC-ESI-QTOF
Ms type: MS2
Ion mode: POSITIVE
Ionization: ESI
Fragmentation mode: CID
Collision energy: 30 eV
Resolution: 35000
Column name: Acclaim RSLC C18 2.2um, 2.1x100mm, Thermo
Retention time: 4.065 min
Base peak: 214.1083
Precursor m/z: 214.1087
Precursor type: [M+H]+
m/z	relative intensity	assigned
129.0437	5	C8H5N2+
131.0469	30	C7H5N3+
143.0593	5	C9H7N2+
145.075	8	C9H9N2+
146.0702	89	C8H8N3+
147.0732	8	C7[13]CH8N3+
156.0545	22	C9H6N3+
157.0609	5	C9H7N3+
158.0577	6	C8H6N4+
160.0856	22	C9H10N3+
170.0703	10	C10H8N3+
171.0655	15	C9H7N4+
172.0733	47	C9H8N4+
172.085	54	C10H10N3+
173.0813	147	C9H9N4+
174.0828	15	C8[13]CH9N4+
187.0969	57	C10H11N4+
188.0989	6	C9[13]CH11N4+
197.0812	39	C11H9N4+
199.0846	736	C10H9N5+
200.0871	64	C9[13]CH9N5+
213.0999	6	C11H11N5+
214.1082	999	C11H12N5+
215.1111	103	C10[13]CH12N5+
