Mass spectrum: Chloridazone-methyl-desphenyl; LC-ESI-QTOF; MS2; CE: 10 eV; R=35000; [M+H]+
Name: Chloridazone-methyl-desphenyl
Name: 5-Amino-4-chloro-2-methyl-3(2H)-pyridazinone
Name: 5-amino-4-chloro-2-methylpyridazin-3-one
Formula: C5H6ClN3O
Exact mass: 159.0199395
SMILES: ClC(=C(C=N1)N)C(=O)N1C
InChI: InChI=1S/C5H6ClN3O/c1-9-5(10)4(6)3(7)2-8-9/h2H,7H2,1H3
Instrument: Bruker maXis Impact
Instrument type: LC-ESI-QTOF
Ms type: MS2
Ion mode: POSITIVE
Ionization: ESI
Fragmentation mode: CID
Collision energy: 10 eV
Resolution: 35000
Column name: Acclaim RSLC C18 2.2um, 2.1x100mm, Thermo
Retention time: 3.307 min
Base peak: 160.0277
Precursor m/z: 160.0272
Precursor type: [M+H]+
m/z	relative intensity	assigned
160.0279	999	C5H7ClN3O+
161.0305	34	C4[13]CH7ClN3O+
162.0249	264	C5H7[37]ClN3O+
