Mass spectrum: Omethoate; LC-ESI-QTOF; MS2; CE: Ramp 18.5-27.8 eV; R=35000; [M+H]+
Name: Omethoate
Name: 2-dimethoxyphosphorylsulfanyl-N-methylacetamide
Formula: C5H12NO4PS
Exact mass: 213.0224655
SMILES: CNC(=O)CSP(=O)(OC)OC
InChI: InChI=1S/C5H12NO4PS/c1-6-5(7)4-12-11(8,9-2)10-3/h4H2,1-3H3,(H,6,7)
Instrument: Bruker maXis Impact
Instrument type: LC-ESI-QTOF
Ms type: MS2
Ion mode: POSITIVE
Ionization: ESI
Fragmentation mode: CID
Collision energy: Ramp 18.5-27.8 eV
Resolution: 35000
Column name: Acclaim RSLC C18 2.2um, 2.1x100mm, Thermo
Retention time: 3.289 min
Base peak: 214.0291
Precursor m/z: 214.0297
Precursor type: [M+H]+
m/z	relative intensity	assigned
61.01	128	C2H5S+
63.0064	6	C2H5[34]S+
72.0439	51	C3H6NO+
76.0207	20	C2H6NS+
78.9945	14	CH4O2P+
88.0218	15	C3H6NS+
104.0173	28	C3H6NOS+
109.0044	9	C2H6O3P+
111.022	7	C5H6NP+
124.9813	535	C2H6O2PS+
125.9833	13	C[13]CH6O2PS+
126.9768	19	C2H6O2P[34]S+
127.0151	356	C2H8O4P+
128.0182	8	C[13]CH8O4P+
128.976	8	CH6O3PS+
140.9747	6	C5H2O3P+
142.9916	999	C5H4O3P+
143.9942	40	C4[13]CH4O3P+
144.9873	60	C5H6OPS+
150.0299	8	C4H9NO3P+
154.9915	560	C3H8O3PS+
155.9943	18	C2[13]CH8O3PS+
156.9875	18	C3H8O3P[34]S+
157.0064	6	C3H10O3PS+
173.0019	83	C3H10O4PS+
182.0016	33	C4H9NO3PS+
182.9865	416	C4H8O4PS+
183.9906	27	C3[13]CH8O4PS+
184.9826	14	C4H8O4P[34]S+
196.0179	170	C5H11NO3PS+
197.0201	5	C4[13]CH11NO3PS+
198.0148	5	C5H11NO3P[34]S+
214.0287	49	C5H13NO4PS+
