Mass spectrum: 6-Mercaptopurine; LC-ESI-QTOF; MS2; CE: 20 eV; R=35000; [M+H]+
Name: 6-Mercaptopurine
Name: CID 4071
Name: 7H-purine-6-thiol
Formula: C5H4N4S
Exact mass: 152.0156671
SMILES: S=C1N=CNC2=C1NC=N2
InChI: InChI=1S/C5H4N4S/c10-5-3-4(7-1-6-3)8-2-9-5/h1-2H,(H2,6,7,8,9,10)
Instrument: Bruker maXis Impact
Instrument type: LC-ESI-QTOF
Ms type: MS2
Ion mode: POSITIVE
Ionization: ESI
Fragmentation mode: CID
Collision energy: 20 eV
Resolution: 35000
Column name: Acclaim RSLC C18 2.2um, 2.1x100mm, Thermo
Retention time: 2.624 min
Base peak: 268.1221
Precursor m/z: 153.0229
Precursor type: [M+H]+
m/z	relative intensity	assigned
119.0345	424	C5H3N4+
126.0104	125	C4H4N3S+
153.0218	999	C5H5N4S+
