Mass spectrum: Metalaxyl; LC-ESI-QTOF; MS2; CE: 40 eV; R=35000; [M+H]+
Name: Metalaxyl
Name: methyl 2-(N-(2-methoxyacetyl)-2,6-dimethylanilino)propanoate
Formula: C15H21NO4
Exact mass: 279.1470582
SMILES: COCC(=O)N(C(C)C(=O)OC)C1=C(C)C=CC=C1C
InChI: InChI=1S/C15H21NO4/c1-10-7-6-8-11(2)14(10)16(13(17)9-19-4)12(3)15(18)20-5/h6-8,12H,9H2,1-5H3
Instrument: Bruker maXis Impact
Instrument type: LC-ESI-QTOF
Ms type: MS2
Ion mode: POSITIVE
Ionization: ESI
Fragmentation mode: CID
Collision energy: 40 eV
Resolution: 35000
Column name: Acclaim RSLC C18 2.2um, 2.1x100mm, Thermo
Retention time: 8.251 min
Base peak: 280.1545
Precursor m/z: 280.1543
Precursor type: [M+H]+
m/z	relative intensity	assigned
115.0537	6	C9H7+
117.0562	24	C8H7N+
118.064	25	C8H8N+
119.0711	6	C5H11O3+
119.0847	15	C9H11+
120.0802	11	C8H10N+
121.0874	11	C8H11N+
128.0607	7	C10H8+
130.064	92	C9H8N+
131.0712	37	C6H11O3+
132.0798	281	C9H10N+
133.0871	130	C6H13O3+
134.0953	318	C9H12N+
135.0665	6	C5H11O4+
135.0991	31	C8[13]CH12N+
144.0794	83	C10H10N+
145.0875	287	C10H11N+
146.0944	89	C7H14O3+
147.1014	18	C7H15O3+
148.1109	247	C7H16O3+
149.1138	25	C6[13]CH16O3+
150.0901	29	C9H12NO+
158.0951	11	C11H12N+
160.111	999	C8H16O3+
161.1145	105	C7[13]CH16O3+
162.1265	185	C11H16N+
163.13	22	C10[13]CH16N+
164.1055	23	C7H16O4+
165.1121	7	C7H17O4+
192.137	61	C9H20O4+
193.1401	8	C8[13]CH20O4+
220.1323	15	C13H18NO2+
