Mass spectrum: Warfarin; LC-ESI-QTOF; MS2; CE: 30 eV; R=35000; [M-H]-
Name: Warfarin
Name: 4-hydroxy-3-(3-oxo-1-phenylbutyl)chromen-2-one
Formula: C19H16O4
Exact mass: 308.1048590
SMILES: CC(=O)CC(C1=CC=CC=C1)C1=C(O)C2=CC=CC=C2OC1=O
InChI: InChI=1S/C19H16O4/c1-12(20)11-15(13-7-3-2-4-8-13)17-18(21)14-9-5-6-10-16(14)23-19(17)22/h2-10,15,21H,11H2,1H3
Instrument: Bruker maXis Impact
Instrument type: LC-ESI-QTOF
Ms type: MS2
Ion mode: NEGATIVE
Ionization: ESI
Fragmentation mode: CID
Collision energy: 30 eV
Resolution: 35000
Column name: Acclaim RSLC C18 2.2um, 2.1x100mm, Thermo
Retention time: 6.644 min
Base peak: 307.0972
Precursor m/z: 307.0976
Precursor type: [M-H]-
m/z	relative intensity	assigned
117.0345	105	C8H5O-
118.0358	8	C7[13]CH5O-
130.0417	13	C9H6O-
133.0655	11	C9H9O-
135.0447	5	C8H7O2-
145.0672	5	C10H9O-
157.0638	13	C11H9O-
161.0241	606	C9H5O3-
162.0272	74	C8[13]CH5O3-
195.0797	9	C14H11O-
205.0662	6	C15H9O-
206.0733	61	C15H10O-
207.0791	9	C14[13]CH10O-
219.0779	6	C16H11O-
221.0586	11	C15H9O2-
221.097	9	C16H13O-
222.0686	25	C15H10O2-
223.0743	48	C15H11O2-
224.076	5	C14[13]CH11O2-
248.0902	5	C17H12O2-
250.0633	999	C16H10O3-
251.0664	188	C15[13]CH10O3-
252.0694	15	C14[13]C2H10O3-
261.0887	11	C18H13O2-
307.0948	38	C19H15O4-
308.1042	9	C18[13]CH15O4-
