Mass spectrum: D617; LC-ESI-QTOF; MS2; CE: 40 eV; R=35000; [M+H]+
Name: D617
Name: 2-(3,4-dimethoxyphenyl)-5-(methylamino)-2-propan-2-ylpentanenitrile
Formula: C17H26N2O2
Exact mass: 290.1994281
SMILES: CNCCCC(C#N)(C(C)C)C1=CC(OC)=C(OC)C=C1
InChI: InChI=1S/C17H26N2O2/c1-13(2)17(12-18,9-6-10-19-3)14-7-8-15(20-4)16(11-14)21-5/h7-8,11,13,19H,6,9-10H2,1-5H3
Instrument: Bruker maXis Impact
Instrument type: LC-ESI-QTOF
Ms type: MS2
Ion mode: POSITIVE
Ionization: ESI
Fragmentation mode: CID
Collision energy: 40 eV
Resolution: 35000
Column name: Acclaim RSLC C18 2.2um, 2.1x100mm, Thermo
Retention time: 6.1 min
Base peak: 291.2064
Precursor m/z: 291.2067
Precursor type: [M+H]+
m/z	relative intensity	assigned
115.0534	21	C9H7+
116.0592	5	C4H8N2O2+
117.0692	17	C9H9+
118.041	10	C8H6O+
119.0484	16	C8H7O+
120.0552	6	C8H8O+
121.0639	63	C8H9O+
122.0357	7	C7H6O2+
122.0704	7	C8H10O+
122.0953	31	C8H12N+
123.0429	46	C7H7O2+
123.0802	5	C8H11O+
124.0507	50	C7H8O2+
128.0616	7	C10H8+
129.0684	10	C10H9+
131.0479	55	C9H7O+
132.0543	15	C9H8O+
133.052	5	C8H7NO+
133.0636	47	C9H9O+
134.0709	45	C9H10O+
135.0791	20	C9H11O+
139.0734	51	C8H11O2+
141.0673	5	C6H9N2O2+
142.0636	7	C10H8N+
143.0714	9	C10H9N+
144.0558	26	C10H8O+
144.0802	16	C10H10N+
145.0635	40	C10H9O+
146.0594	64	C9H8NO+
147.0434	9	C9H7O2+
147.0638	11	C4H9N3O3+
147.0777	54	C10H11O+
148.0861	11	C10H12O+
149.0586	31	C9H9O2+
149.0945	16	C10H13O+
151.0743	999	C9H11O2+
153.0814	6	C8H11NO2+
156.0432	10	C10H6NO+
156.0804	11	C11H10N+
157.0632	7	C11H9O+
157.0865	6	C11H11N+
158.0586	5	C10H8NO+
158.0717	13	C11H10O+
159.0682	16	C10H9NO+
159.0789	41	C11H11O+
160.0508	5	C10H8O2+
160.0754	45	C10H10NO+
161.0585	20	C10H9O2+
161.0935	28	C11H13O+
162.0663	35	C10H10O2+
163.0735	30	C10H11O2+
164.082	52	C10H12O2+
165.0899	381	C10H13O2+
167.085	5	C13H11+
170.058	10	C11H8NO+
171.0672	7	C11H9NO+
171.0783	6	C12H11O+
173.0811	22	C11H11NO+
173.0948	14	C12H13O+
174.0545	14	C10H8NO2+
174.0633	13	C9H8N3O+
174.0904	108	C11H12NO+
175.0617	24	C10H9NO2+
175.0733	20	C11H11O2+
175.0936	15	C6H13N3O3+
176.0698	44	C10H10NO2+
176.0801	41	C11H12O2+
177.09	288	C11H13O2+
179.1049	20	C11H15O2+
184.075	6	C12H10NO+
184.0849	5	C13H12O+
185.0822	9	C12H11NO+
185.0943	10	C13H13O+
186.0897	49	C12H12NO+
187.073	10	C12H11O2+
187.098	87	C12H13NO+
188.0696	58	C11H10NO2+
188.1031	15	C7H14N3O3+
189.0773	25	C11H11NO2+
189.0888	18	C12H13O2+
190.0853	37	C11H12NO2+
192.1129	65	C12H16O2+
197.0957	19	C14H13O+
198.0922	6	C13H12NO+
199.0975	8	C13H13NO+
200.106	9	C13H14NO+
201.0912	15	C13H13O2+
202.1204	10	C13H16NO+
203.1143	10	C12H15N2O+
204.0998	31	C12H14NO2+
205.1084	12	C12H15NO2+
205.1321	11	C12H17N2O+
212.1182	14	C15H16O+
213.0902	14	C14H13O2+
214.1222	57	C14H16NO+
215.1076	5	C14H15O2+
215.1249	12	C9H17N3O3+
216.1009	27	C13H14NO2+
217.1085	34	C13H15NO2+
218.1164	43	C13H16NO2+
219.1171	7	C17H15+
220.1313	17	C13H18NO2+
228.1125	8	C15H16O2+
230.1167	32	C14H16NO2+
231.1169	9	C13H15N2O2+
233.1274	162	C13H17N2O2+
234.1308	31	C12[13]CH17N2O2+
243.1371	7	C16H19O2+
244.133	33	C15H18NO2+
245.1377	12	C15H19NO2+
248.1494	19	C14H20N2O2+
260.1639	13	C16H22NO2+
