Mass spectrum: Difloxacin; LC-ESI-QTOF; MS2; CE: 50 eV; R=35000; [M+H]+
Name: Difloxacin
Name: 6-fluoro-1-(4-fluorophenyl)-7-(4-methylpiperazin-1-yl)-4-oxoquinoline-3-carboxylic acid
Name: 6-fluoro-1-(4-fluorophenyl)-7-(4-methylpiperazin-4-ium-1-yl)-4-oxoquinoline-3-carboxylate
Formula: C21H19F2N3O3
Exact mass: 399.1394479
SMILES: CN1CCN(CC1)C2=C(C=C3C(=C2)N(C=C(C3=O)C(=O)O)C4=CC=C(C=C4)F)F
InChI: InChI=1S/C21H19F2N3O3/c1-24-6-8-25(9-7-24)19-11-18-15(10-17(19)23)20(27)16(21(28)29)12-26(18)14-4-2-13(22)3-5-14/h2-5,10-12H,6-9H2,1H3,(H,28,29)
Instrument: Bruker maXis Impact
Instrument type: LC-ESI-QTOF
Ms type: MS2
Ion mode: POSITIVE
Ionization: ESI
Fragmentation mode: CID
Collision energy: 50 eV
Resolution: 35000
Column name: Acclaim RSLC C18 2.2um, 2.1x100mm, Thermo
Retention time: 5.649 min
Base peak: 400.1498
Precursor m/z: 400.1467
Precursor type: [M+H]+
m/z	relative intensity	assigned
144.0826	56	C4H12F2NO2+
185.1084	432	C9H14FN2O+
186.1122	79	C9H16NO3+
191.1002	50	C8H13F2N2O+
196.0996	112	C13H12N2+
201.0507	67	C13H7F2+
203.0645	43	C8H9F2N2O2+
209.0638	76	C14H8FN+
222.0747	105	C12H10F2NO+
223.0742	43	C13H9N3O+
225.0858	50	C11H11F2N2O+
227.0563	88	C13H9NO3+
228.0632	91	C14H8F2N+
229.0715	70	C14H9F2N+
230.0751	43	C11H12F2O3+
236.0572	36	C14H8N2O2+
236.0747	42	C15H9FN2+
236.0872	51	C16H11FN+
237.0816	77	C15H10FN2+
238.064	39	C18H8N+
240.0622	56	C15H8F2N+
241.0715	152	C15H9F2N+
242.0785	161	C15H10F2N+
243.0715	34	C14H9F2N2+
248.0754	49	C13H10F2N2O+
249.0853	130	C13H11F2N2O+
250.0877	95	C13H13FNO3+
251.0983	144	C16H12FN2+
254.0792	41	C16H10F2N+
255.0744	111	C15H9F2N2+
256.0577	105	C15H8F2NO+
257.0628	70	C18H8FN+
257.0928	49	C14H13N2O3+
261.0869	64	C16H11N3O+
262.0903	51	C17H11FN2+
263.0993	211	C14H13F2N2O+
264.0448	39	C19H6NO+
264.1041	112	C14H15FNO3+
265.0797	40	C13H11F2N2O2+
265.1113	80	C14H16FNO3+
268.0823	43	C16H10F2N2+
269.09	163	C16H11F2N2+
270.0978	127	C16H12F2N2+
271.0833	43	C16H11F2NO+
271.0958	38	C14H13N3O3+
277.0751	63	C20H9N2+
277.1049	72	C16H15F2O2+
278.0789	49	C18H10F2N+
278.1109	191	C16H16F2O2+
279.0975	128	C19H13F2+
280.1237	71	C17H15FN3+
281.0882	56	C17H11F2N2+
282.0594	67	C16H8F2N2O+
283.0705	70	C16H9F2N2O+
283.1025	80	C14H15F2NO3+
284.0536	49	C16H8F2NO2+
284.0773	51	C16H10F2N2O+
285.0871	110	C18H11N3O+
290.1115	93	C17H16F2O2+
291.0804	97	C17H10FN3O+
291.0943	94	C15H13F2N2O2+
291.1176	147	C15H15F2N3O+
292.0858	36	C20H10N3+
297.0861	100	C17H11F2N2O+
298.0896	37	C20H11FN2+
299.1004	741	C17H13F2N2O+
300.1041	163	C16[13]CH13F2N2O+
302.0636	84	C16H10F2NO3+
304.1286	37	C18H18F2O2+
305.0771	77	C20H11F2O+
305.1037	37	C19H15NO3+
305.1341	114	C21H18FO+
306.0696	60	C19H11FO3+
306.1054	208	C20H15FO2+
306.1421	422	C18H20F2O2+
307.1075	36	C18H15N2O3+
307.1451	155	C16H20FN2O3+
311.0706	50	C21H11O3+
311.0862	132	C17H11F2N3O+
312.0658	36	C20H10NO3+
312.1004	36	C21H14NO2+
319.0803	56	C19H12FN2O2+
319.0932	60	C19H12FN2O2+
323.0855	48	C21H10FN3+
324.0839	74	C19H12F2NO2+
324.1167	83	C20H17FO3+
325.0826	77	C20H11N3O2+
326.111	44	C20H16F2O2+
326.1503	78	C18H20N3O3+
329.0759	149	C20H9F2N3+
334.0976	82	C19H13FN3O2+
334.139	87	C19H20F2O3+
335.1079	35	C21H16FO3+
337.0844	43	C21H11N3O2+
338.0804	42	C20H12F2O3+
338.1478	83	C20H18F2N3+
339.085	156	C20H13F2O3+
339.1199	37	C21H17F2O2+
340.0853	49	C21H12N2O3+
343.0917	101	C21H11F2N3+
352.0928	62	C21H14F2O3+
352.1108	45	C19H15FN3O3+
353.0955	36	C19H13F2N3O2+
353.1081	40	C20H15F2N2O2+
354.1062	103	C21H16F2O3+
354.138	50	C20H19FN2O3+
362.1324	92	C18H18F2N3O3+
380.1368	44	C21H19FN3O3+
382.1405	240	C21H18F2N3O2+
383.1442	48	C21H19F2N3O2+
400.1513	999	C21H20F2N3O3+
401.1536	241	C20[13]CH20F2N3O3+
