Mass spectrum: 3-Perfluoropropyl propanoic acid (3:3) (FPrPA); LC-ESI-QTOF; MS2; CE: 30 eV; R=35000; [M-H]-
Name: 3-Perfluoropropyl propanoic acid (3:3) (FPrPA)
Name: 4,4,5,5,6,6,6-heptafluorohexanoic acid
Formula: C6H5F7O2
Exact mass: 242.0178
SMILES: C(CC(C(C(F)(F)F)(F)F)(F)F)C(=O)O
InChI: InChI=1S/C6H5F7O2/c7-4(8,2-1-3(14)15)5(9,10)6(11,12)13/h1-2H2,(H,14,15)
Instrument: Bruker maXis Impact
Instrument type: LC-ESI-QTOF
Ms type: MS2
Ionization: ESI
Fragmentation mode: CID
Collision energy: 30 eV
Resolution: 35000
Column name: Acclaim RSLC C18 2.2um, 2.1x100mm, Thermo
Retention time: 6.453 min
Base peak: 241.0115
Precursor m/z: 241.0105
Precursor type: [M-H]-
m/z	relative intensity	assigned
116.9968	999	C2HF4O-
