Mass spectrum: Tiamulin; LC-ESI-QTOF; MS2; CE: 10 eV; R=35000; [M+H]+
Name: Tiamulin
Formula: C28H47NO4S
Exact mass: 493.3225800
SMILES: CCN(CC)CCSCC(=O)O[C@@H]1C[C@@]([C@H]([C@@H]([C@@]23CC[C@H]([C@@]1([C@@H]2C(=O)CC3)C)C)C)O)(C)C=C
InChI: InChI=1S/C28H47NO4S/c1-8-26(6)17-22(33-23(31)18-34-16-15-29(9-2)10-3)27(7)19(4)11-13-28(20(5)25(26)32)14-12-21(30)24(27)28/h8,19-20,22,24-25,32H,1,9-18H2,2-7H3/t19-,20+,22-,24+,25+,26-,27+,28+/m1/s1
Instrument: Bruker maXis Impact
Instrument type: LC-ESI-QTOF
Ms type: MS2
Ion mode: POSITIVE
Ionization: ESI
Fragmentation mode: CID
Collision energy: 10 eV
Resolution: 35000
Column name: Acclaim RSLC C18 2.2um, 2.1x100mm, Thermo
Retention time: 7.897 min
Base peak: 494.333
Precursor m/z: 494.3299
Precursor type: [M+H]+
m/z	relative intensity	assigned
192.1061	59	C8H18NO2S+
193.109	5	C7[13]CH18NO2S+
494.3339	999	C28H48NO4S+
495.3369	271	C27[13]CH48NO4S+
496.3358	56	C26[13]C2H48NO4S+
