Mass spectrum: Imidacloprid; LC-ESI-QTOF; MS2; CE: 20 eV; R=35000; [M+H]+
Name: Imidacloprid
Name: N-[1-[(6-chloropyridin-3-yl)methyl]-4,5-dihydroimidazol-2-yl]nitramide
Formula: C9H10ClN5O2
Exact mass: 255.0523022
SMILES: [O-][N+](=O)NC1=NCCN1CC1=CN=C(Cl)C=C1
InChI: InChI=1S/C9H10ClN5O2/c10-8-2-1-7(5-12-8)6-14-4-3-11-9(14)13-15(16)17/h1-2,5H,3-4,6H2,(H,11,13)
Instrument: Bruker maXis Impact
Instrument type: LC-ESI-QTOF
Ms type: MS2
Ion mode: POSITIVE
Ionization: ESI
Fragmentation mode: CID
Collision energy: 20 eV
Resolution: 35000
Column name: Acclaim RSLC C18 2.2um, 2.1x100mm, Thermo
Retention time: 4.6 min
Base peak: 163.122
Precursor m/z: 256.0596
Precursor type: [M+H]+
m/z	relative intensity	assigned
126.0092	15	C7N3+
128.0064	5	CN6O2+
128.025	52	C7H2N3+
130.0222	16	CH2N6O2+
146.0695	7	C8H8N3+
147.0648	5	C7H7N4+
151.0172	8	C9HN3+
167.0237	5	C7H6ClN3+
173.0813	14	C9H9N4+
174.0891	102	C9H10N4+
175.0969	999	C9H11N4+
176.0819	5	C9H10N3O+
181.0264	5	C7H6ClN4+
194.0447	5	C4H9ClN5O2+
195.0354	5	C9H8ClN2O+
209.0583	658	C9H10ClN4+
210.0638	114	C8[13]CH10ClN4+
211.055	174	C9H10[37]ClN4+
212.0593	111	C9H11ClN3O+
213.0613	7	C8[13]CH11ClN3O+
214.0545	24	C9H11ClN2O2+
256.0594	18	C9H11ClN5O2+
257.0617	2	C8[13]CH11ClN5O2+
258.0564	6	C9CH11[37]ClN5O2+
