Mass spectrum: Praziquantel; LC-ESI-QTOF; MS2; CE: 50 eV; R=35000; [M+H]+
Name: Praziquantel
Name: 2-(cyclohexanecarbonyl)-3,6,7,11b-tetrahydro-1H-pyrazino[2,1-a]isoquinolin-4-one
Formula: C19H24N2O2
Exact mass: 312.1837780
SMILES: c1ccc2c(c1)CCN3C2CN(CC3=O)C(=O)C4CCCCC4
InChI: InChI=1S/C19H24N2O2/c22-18-13-20(19(23)15-7-2-1-3-8-15)12-17-16-9-5-4-6-14(16)10-11-21(17)18/h4-6,9,15,17H,1-3,7-8,10-13H2
Instrument: Bruker maXis Impact
Instrument type: LC-ESI-QTOF
Ms type: MS2
Ion mode: POSITIVE
Ionization: ESI
Fragmentation mode: CID
Collision energy: 50 eV
Resolution: 35000
Column name: Acclaim RSLC C18 2.2um, 2.1x100mm, Thermo
Retention time: 9.177 min
Base peak: 313.193
Precursor m/z: 313.1911
Precursor type: [M+H]+
m/z	relative intensity	assigned
115.0544	56	C9H7+
116.0591	9	C4H8N2O2+
117.0575	51	C8H7N+
117.0698	62	C9H9+
118.0637	11	C8H8N+
118.0731	9	C4H10N2O2+
119.0848	9	C9H11+
127.0537	18	C10H7+
128.0623	130	C10H8+
129.0699	274	C10H9+
130.0655	126	C9H8N+
131.0727	88	C9H9N+
132.0811	999	C9H10N+
133.0842	102	C8[13]CH10N+
143.0735	9	C10H9N+
144.0809	111	C10H10N+
145.0651	18	C10H9O+
145.0884	84	C10H11N+
146.0967	323	C10H12N+
147.1001	39	C9[13]CH12N+
155.0603	20	C10H7N2+
156.0807	8	C11H10N+
158.0966	77	C11H12N+
159.1004	10	C11H13N+
160.0765	6	C10H10NO+
171.0927	6	C11H11N2+
173.1084	13	C11H13N2+
174.0921	644	C11H12NO+
175.0954	88	C10[13]CH12NO+
175.1247	7	C11H15N2+
176.0987	6	C10H12N2O+
185.1077	19	C12H13N2+
203.1181	54	C12H15N2O+
204.122	6	C12H16N2O+
256.1736	12	C17H22NO+
