Mass spectrum: 3,3`-Dimethylbenzidine; LC-ESI-QTOF; MS2; CE: 10 eV; R=35000; [M+H]+
Name: 3,3`-Dimethylbenzidine
Name: 4-(4-amino-3-methylphenyl)-2-methylaniline
Formula: C14H16N2
Exact mass: 212.1313485
SMILES: CC1=CC(=CC=C1N)C1=CC=C(N)C(C)=C1
InChI: InChI=1S/C14H16N2/c1-9-7-11(3-5-13(9)15)12-4-6-14(16)10(2)8-12/h3-8H,15-16H2,1-2H3
Instrument: Bruker maXis Impact
Instrument type: LC-ESI-QTOF
Ms type: MS2
Ion mode: POSITIVE
Ionization: ESI
Fragmentation mode: CID
Collision energy: 10 eV
Resolution: 35000
Column name: Acclaim RSLC C18 2.2um, 2.1x100mm, Thermo
Retention time: 5.631 min
Base peak: 213.1378
Precursor m/z: 213.1386
Precursor type: [M+H]+
m/z	relative intensity	assigned
196.111	9	C14H14N+
198.1141	6	C13H14N2+
211.1222	9	C14H15N2+
212.1304	625	C14H16N2+
213.1376	999	C14H17N2+
214.141	98	C13[13]CH17N2+
215.144	7	C12[13]C2H17N2+
