Mass spectrum: Sulfamethazine; LC-ESI-QTOF; MS2; CE: 20 eV; R=35000; [M+H]+
Name: Sulfamethazine
Name: 4-amino-N-(4,6-dimethylpyrimidin-2-yl)benzenesulfonamide
Formula: C12H14N4O2S
Exact mass: 278.0837467
SMILES: CC1=CC(C)=NC(NS(=O)(=O)C2=CC=C(N)C=C2)=N1
InChI: InChI=1S/C12H14N4O2S/c1-8-7-9(2)15-12(14-8)16-19(17,18)11-5-3-10(13)4-6-11/h3-7H,13H2,1-2H3,(H,14,15,16)
Instrument: Bruker maXis Impact
Instrument type: LC-ESI-QTOF
Ms type: MS2
Ion mode: POSITIVE
Ionization: ESI
Fragmentation mode: CID
Collision energy: 20 eV
Resolution: 35000
Column name: Acclaim RSLC C18 2.2um, 2.1x100mm, Thermo
Retention time: 4.1 min
Base peak: 279.0907
Precursor m/z: 279.091
Precursor type: [M+H]+
m/z	relative intensity	assigned
122.0703	7	C6H8N3+
124.0861	366	C6H10N3+
125.0892	19	C5[13]CH10N3+
149.0227	8	C6H3N3O2+
156.0104	531	C4H4N4OS+
157.0129	29	C3[13]CH4N4OS+
158.0061	17	C4H4N4O[34]S+
174.0209	6	C4H6N4O2S+
186.0321	225	C6H8N3O2S+
187.0346	17	C5[13]CH8N3O2S+
188.0285	6	C6H8N3O2[34]S+
204.0431	999	C12H4N4+
213.1128	87	C12H13N4+
214.1159	14	C7H14N6O2+
215.1281	6	C12H15N4+
279.0909	808	C12H15N4O2S+
