Mass spectrum: Propachlor; LC-ESI-QTOF; MS2; CE: 40 eV; R=35000; [M+H]+
Name: Propachlor
Name: 2-chloro-N-phenyl-N-propan-2-ylacetamide
Formula: C11H14ClNO
Exact mass: 211.0763917
SMILES: CC(C)N(C(=O)CCl)C1=CC=CC=C1
InChI: InChI=1S/C11H14ClNO/c1-9(2)13(11(14)8-12)10-6-4-3-5-7-10/h3-7,9H,8H2,1-2H3
Instrument: Bruker maXis Impact
Instrument type: LC-ESI-QTOF
Ms type: MS2
Ion mode: POSITIVE
Ionization: ESI
Fragmentation mode: CID
Collision energy: 40 eV
Resolution: 35000
Column name: Acclaim RSLC C18 2.2um, 2.1x100mm, Thermo
Retention time: 8.1 min
Base peak: 212.0832
Precursor m/z: 212.0837
Precursor type: [M+H]+
m/z	relative intensity	assigned
117.056	150	C8H7N+
125.0155	201	C7H6Cl+
127.0123	136	C7H6[37]Cl+
134.0593	275	C8H8NO+
152.0249	999	C8H7ClN+
153.0283	135	C7[13]CH7ClN+
154.0222	375	C8H7[37]ClN+
164.0921	216	C9H12N2O+
170.0355	916	C8H9ClNO+
171.039	175	C7[13]CH9ClNO+
172.033	420	C8H9[37]ClNO+
