Mass spectrum: 2-Hydroxy-2-methylpropiophenone; GC-APCI-QTOF; MS2; CE: 40 eV; R=35000; [M+H]+
Name: 2-Hydroxy-2-methylpropiophenone
Formula: C10H12O2
Exact mass: 164.0837
SMILES: CC(C)(C(=O)C1=CC=CC=C1)O
InChI: InChI=1S/C10H12O2/c1-10(2,12)9(11)8-6-4-3-5-7-8/h3-7,12H,1-2H3
Instrument: Bruker 450 GC coupled to maXis Impact
Instrument type: GC-APCI-QTOF
Ms type: MS2
Ion mode: POSITIVE
Ionization: APCI
Fragmentation mode: CID
Collision energy: 40 eV
Resolution: 35000
Column name: Rxi-5Sil MS column, 30m, 0.25mm i.d., 0.25Âµm film thickness, Restek
Retention time: 10.427 min
Base peak: 147.0821
Precursor m/z: 165.091
Precursor type: [M+H]+
m/z	relative intensity	assigned
65.0395	175	C5H5+
91.0535	910	C7H7+
95.0505	33	C6H7O+
103.0547	31	C8H7+
115.055	43	C9H7+
119.0864	74	C9H11+
126.0472	37	C10H6+
127.0548	135	C10H7+
128.062	999	C10H8+
130.0765	27	C10H10+
131.0486	84	C9H7O+
145.0667	85	C10H9O+
