Mass spectrum: Propyzamide; LC-ESI-QTOF; MS2; CE: 30 eV; R=35000; [M-H]-
Name: Propyzamide
Name: 3,5-dichloro-N-(2-methylbut-3-yn-2-yl)benzamide
Formula: C12H11Cl2NO
Exact mass: 255.0217693
SMILES: CC(C)(NC(=O)C1=CC(Cl)=CC(Cl)=C1)C#C
InChI: InChI=1S/C12H11Cl2NO/c1-4-12(2,3)15-11(16)8-5-9(13)7-10(14)6-8/h1,5-7H,2-3H3,(H,15,16)
Instrument: Bruker maXis Impact
Instrument type: LC-ESI-QTOF
Ms type: MS2
Ion mode: NEGATIVE
Ionization: ESI
Fragmentation mode: CID
Collision energy: 30 eV
Resolution: 35000
Column name: Acclaim RSLC C18 2.2um, 2.1x100mm, Thermo
Retention time: 9.696 min
Base peak: 254.0141
Precursor m/z: 254.0145
Precursor type: [M-H]-
m/z	relative intensity	assigned
144.9617	999	C6H3Cl2-
146.9585	641	C6H3Cl[37]Cl-
186.9705	169	C8H5Cl2O-
227.9997	238	C10H8Cl2NO-
229.9928	209	C10H8Cl[37]ClNO-
