Mass spectrum: Perfluorotetradecanoic acid; LC-ESI-QTOF; MS2; CE: 10 eV; R=35000; [M-H]-
Name: Perfluorotetradecanoic acid
Name: Perfluoromyristic acid
Name: 2,2,3,3,4,4,5,5,6,6,7,7,8,8,9,9,10,10,11,11,12,12,13,13,14,14,14-heptacosafluorotetradecanoic acid
Formula: C14HF27O2
Exact mass: 713.9545412
SMILES: OC(=O)C(F)(F)C(F)(F)C(F)(F)C(F)(F)C(F)(F)C(F)(F)C(F)(F)C(F)(F)C(F)(F)C(F)(F)C(F)(F)C(F)(F)C(F)(F)F
InChI: InChI=1S/C14HF27O2/c15-2(16,1(42)43)3(17,18)4(19,20)5(21,22)6(23,24)7(25,26)8(27,28)9(29,30)10(31,32)11(33,34)12(35,36)13(37,38)14(39,40)41/h(H,42,43)
Instrument: Bruker maXis Impact
Instrument type: LC-ESI-QTOF
Ms type: MS2
Ion mode: NEGATIVE
Ionization: ESI
Fragmentation mode: CID
Collision energy: 10 eV
Resolution: 35000
Column name: Acclaim RSLC C18 2.2um, 2.1x100mm, Thermo
Retention time: 12.889 min
Base peak: 227.2012
Precursor m/z: 712.9473
Precursor type: [M-H]-
m/z	relative intensity	assigned
168.9887	10	C3F7-
218.9857	13	C4F9-
268.9818	22	C5F11-
318.9759	24	C6F13-
368.9729	22	C7F15-
418.9746	14	C13F13O-
468.9808	7	C14F15O-
668.9585	999	C13F27-
669.9591	101	C12[13]CF27-
712.9487	186	C14F27O2-
713.9418	17	C13[13]CF27O2-
713.9641	20	C13[13]CF27O2-
