Mass spectrum: N,O-Didesvenlafaxine; LC-ESI-QTOF; MS2; CE: 40 eV; R=35000; [M+H]+
Name: N,O-Didesvenlafaxine
Name: 4-[1-(1-hydroxycyclohexyl)-2-(methylamino)ethyl]phenol
Formula: C15H23NO2
Exact mass: 249.1728790
SMILES: CNCC(C1=CC=C(O)C=C1)C1(O)CCCCC1
InChI: InChI=1S/C15H23NO2/c1-16-11-14(12-5-7-13(17)8-6-12)15(18)9-3-2-4-10-15/h5-8,14,16-18H,2-4,9-11H2,1H3
Instrument: Bruker maXis Impact
Instrument type: LC-ESI-QTOF
Ms type: MS2
Ion mode: POSITIVE
Ionization: ESI
Fragmentation mode: CID
Collision energy: 40 eV
Resolution: 35000
Column name: Acclaim RSLC C18 2.2um, 2.1x100mm, Thermo
Retention time: 4.8 min
Base peak: 250.1798
Precursor m/z: 250.1802
Precursor type: [M+H]+
m/z	relative intensity	assigned
115.0541	88	C9H7+
116.0587	24	C4H8N2O2+
117.0689	20	C9H9+
121.0639	65	C8H9O+
127.0542	28	C10H7+
128.06	15	C10H8+
129.0693	21	C10H9+
131.0479	104	C9H7O+
131.0846	117	C10H11+
132.0532	20	C4H8N2O3+
133.0639	999	C9H9O+
134.0668	91	C4H10N2O3+
135.0671	146	C8H9NO+
136.0708	23	C3H10N3O3+
141.0692	114	C11H9+
142.0731	16	C6H10N2O2+
144.0556	189	C10H8O+
145.0633	304	C10H9O+
146.0665	27	C5H10N2O3+
147.0782	62	C10H11O+
148.0739	16	C9H10NO+
149.0825	73	C9H11NO+
150.09	58	C9H12NO+
155.0588	54	C7H9NO3+
158.071	23	C11H10O+
159.0788	319	C11H11O+
160.0833	47	C6H12N2O3+
169.0744	58	C8H11NO3+
