Mass spectrum: Imidacloprid; LC-ESI-QTOF; MS2; CE: 30 eV; R=35000; [M+H]+
Name: Imidacloprid
Name: N-[1-[(6-chloropyridin-3-yl)methyl]-4,5-dihydroimidazol-2-yl]nitramide
Formula: C9H10ClN5O2
Exact mass: 255.0523022
SMILES: [O-][N+](=O)NC1=NCCN1CC1=CN=C(Cl)C=C1
InChI: InChI=1S/C9H10ClN5O2/c10-8-2-1-7(5-12-8)6-14-4-3-11-9(14)13-15(16)17/h1-2,5H,3-4,6H2,(H,11,13)
Instrument: Bruker maXis Impact
Instrument type: LC-ESI-QTOF
Ms type: MS2
Ion mode: POSITIVE
Ionization: ESI
Fragmentation mode: CID
Collision energy: 30 eV
Resolution: 35000
Column name: Acclaim RSLC C18 2.2um, 2.1x100mm, Thermo
Retention time: 4.6 min
Base peak: 163.122
Precursor m/z: 256.0596
Precursor type: [M+H]+
m/z	relative intensity	assigned
126.0098	29	C9H2O+
127.0168	7	C7HN3+
128.0249	37	C7H2N3+
133.0628	10	C7H7N3+
133.075	13	C8H9N2+
134.07	11	C7H8N3+
139.0055	5	C6H4ClN2+
141.0203	10	C9H3NO+
146.0581	11	C7H6N4+
146.0699	39	C8H8N3+
147.0652	39	C7H7N4+
148.0857	15	C8H10N3+
151.0169	6	C9HN3+
158.07	14	C9H8N3+
159.065	6	C8H7N4+
159.0775	22	C9H9N3+
167.0228	6	C8HN5+
167.036	15	C9H3N4+
175.097	999	C9H11N4+
180.0302	7	C9H2N5+
193.0395	5	C9H8ClN3+
194.0468	9	C9H9ClN3+
209.0583	576	C9H10ClN4+
210.0638	55	C8[13]CH10ClN4+
211.055	158	C9H10[37]ClN4+
212.0593	107	C9H11ClN3O+
