Mass spectrum: (+/-)-Camphor; GC-APCI-QTOF; MS2; CE: 40 eV; R=35000; [M+H]+
Name: (+/-)-Camphor
Formula: C10H16O
Exact mass: 152.1201
SMILES: CC1(C2CCC1(C(=O)C2)C)C
InChI: InChI=1S/C10H16O/c1-9(2)7-4-5-10(9,3)8(11)6-7/h7H,4-6H2,1-3H3
Instrument: Bruker 450 GC coupled to maXis Impact
Instrument type: GC-APCI-QTOF
Ms type: MS2
Ion mode: POSITIVE
Ionization: APCI
Fragmentation mode: CID
Collision energy: 40 eV
Resolution: 35000
Column name: Rxi-5Sil MS column, 30m, 0.25mm i.d., 0.25Âµm film thickness, Restek
Retention time: 9.032 min
Base peak: 153.1294
Precursor m/z: 153.1274
Precursor type: [M+H]+
m/z	relative intensity	assigned
55.0177	899	C3H3O+
59.0501	999	C3H7O+
65.0372	865	C5H5+
67.0554	899	C5H7+
