Mass spectrum: N-isopropyl-N'-phenyl-p-phenylenediamine; LC-ESI-QTOF; MS2; CE: 20 eV; R=35000; [M+H]+
Name: N-isopropyl-N'-phenyl-p-phenylenediamine
Name: N-Isopropyl-N`-phenyl-p-phenylenediamine
Name: 1-N-phenyl-4-N-propan-2-ylbenzene-1,4-diamine
Formula: C15H18N2
Exact mass: 226.1469986
SMILES: CC(C)NC1=CC=C(NC2=CC=CC=C2)C=C1
InChI: InChI=1S/C15H18N2/c1-12(2)16-14-8-10-15(11-9-14)17-13-6-4-3-5-7-13/h3-12,16-17H,1-2H3
Instrument: Bruker maXis Impact
Instrument type: LC-ESI-QTOF
Ms type: MS2
Ion mode: POSITIVE
Ionization: ESI
Fragmentation mode: CID
Collision energy: 20 eV
Resolution: 35000
Column name: Acclaim RSLC C18 2.2um, 2.1x100mm, Thermo
Retention time: 6.609 min
Base peak: 227.1536
Precursor m/z: 227.1543
Precursor type: [M+H]+
m/z	relative intensity	assigned
120.0798	173	C8H10N+
121.0829	13	C7[13]CH10N+
129.0686	5	C10H9+
178.0762	21	C14H10+
180.0794	7	C13H10N+
193.0999	31	C15H13+
194.0996	7	C14H12N+
195.103	30	C14H13N+
210.1264	23	C15H16N+
211.1246	6	C14H15N2+
225.1369	8	C15H17N2+
227.1537	999	C15H19N2+
228.1567	122	C14[13]CH19N2+
229.16	7	C13[13]C2H19N2+
