Mass spectrum: Triphenylphosphine oxide; LC-ESI-QTOF; MS2; CE: 30 eV; R=35000; [M+H]+
Name: Triphenylphosphine oxide
Name: diphenylphosphorylbenzene
Formula: C18H15OP
Exact mass: 278.0860517
SMILES: O=P(C1=CC=CC=C1)(C1=CC=CC=C1)C1=CC=CC=C1
InChI: InChI=1S/C18H15OP/c19-20(16-10-4-1-5-11-16,17-12-6-2-7-13-17)18-14-8-3-9-15-18/h1-15H
Instrument: Bruker maXis Impact
Instrument type: LC-ESI-QTOF
Ms type: MS2
Ion mode: POSITIVE
Ionization: ESI
Fragmentation mode: CID
Collision energy: 30 eV
Resolution: 35000
Column name: Acclaim RSLC C18 2.2um, 2.1x100mm, Thermo
Retention time: 8.945 min
Base peak: 279.0928
Precursor m/z: 279.0933
Precursor type: [M+H]+
m/z	relative intensity	assigned
128.062	9	C10H8+
154.0786	12	C12H10+
171.0354	14	C11H8P+
173.0504	91	C11H10P+
174.0542	10	C10[13]CH10P+
183.037	16	C12H8P+
201.0455	792	C12H10OP+
202.0489	115	C11[13]CH10OP+
203.0538	8	C10[13]C2H10OP+
279.093	999	C18H16OP+
280.0959	186	C17[13]CH16OP+
281.0997	13	C16[13]C2H16OP+
