Mass spectrum: Dodecanoic acid; GC-APCI-QTOF; MS2; CE: 10 eV; R=35000; [M+H]+
Name: Dodecanoic acid
Formula: C12H24O2
Exact mass: 200.1776
SMILES: CCCCCCCCCCCC(=O)O
InChI: InChI=1S/C12H24O2/c1-2-3-4-5-6-7-8-9-10-11-12(13)14/h2-11H2,1H3,(H,13,14)
Instrument: Bruker 450 GC coupled to maXis Impact
Instrument type: GC-APCI-QTOF
Ms type: MS2
Ion mode: POSITIVE
Ionization: APCI
Fragmentation mode: CID
Collision energy: 10 eV
Resolution: 35000
Column name: Rxi-5Sil MS column, 30m, 0.25mm i.d., 0.25Âµm film thickness, Restek
Retention time: 11.248 min
Base peak: 201.1855
Precursor m/z: 201.1849
Precursor type: [M+H]+
m/z	relative intensity	assigned
117.0916	7	C6H13O2+
129.0918	23	C7H13O2+
135.1188	23	C10H15+
143.1085	7	C8H15O2+
153.1302	32	C10H17O+
154.1337	5	C10H18O+
155.1461	30	C10H19O+
157.1255	65	C9H17O2+
158.1284	9	C9H18O2+
171.1406	8	C10H19O2+
173.1555	999	C10H21O2+
174.1599	70	C10H22O2+
199.1715	16	C12H23O2+
200.177	10	C12H24O2+
201.186	223	C12H25O2+
