Mass spectrum: 3-(4-Isopropylphenyl)isobutyraldehyde; GC-APCI-QTOF; MS2; CE: 50 eV; R=35000; [M]+
Name: 3-(4-Isopropylphenyl)isobutyraldehyde
Formula: C13H18O
Exact mass: 190.1358
SMILES: CC(C)C1=CC=C(C=C1)CC(C)C=O
InChI: InChI=1S/C13H18O/c1-10(2)13-6-4-12(5-7-13)8-11(3)9-14/h4-7,9-11H,8H2,1-3H3
Instrument: Bruker 450 GC coupled to maXis Impact
Instrument type: GC-APCI-QTOF
Ms type: MS2
Ion mode: POSITIVE
Ionization: APCI
Fragmentation mode: CID
Collision energy: 50 eV
Resolution: 35000
Column name: Rxi-5Sil MS column, 30m, 0.25mm i.d., 0.25Âµm film thickness, Restek
Retention time: 12.009 min
Base peak: 190.1368
Precursor m/z: 190.1352
Precursor type: [M]+
m/z	relative intensity	assigned
53.0387	31	C4H5+
65.0385	39	C5H5+
79.0533	32	C6H7+
91.0541	209	C7H7+
95.049	36	C6H7O+
103.054	80	C8H7+
105.069	68	C8H9+
115.0542	767	C9H7+
117.0697	999	C9H9+
126.0457	47	C10H6+
127.0529	53	C10H7+
128.062	690	C10H8+
129.0688	101	C10H9+
131.0514	95	C9H7O+
131.0856	53	C10H11+
132.0552	35	C9H8O+
133.1016	38	C10H13+
141.073	123	C11H9+
145.0652	38	C10H9O+
159.0832	31	C11H11O+
