Mass spectrum: Clozapine; LC-ESI-QTOF; MS2; CE: 40 eV; R=35000; [M+H]+
Name: Clozapine
Name: 3-chloro-6-(4-methylpiperazin-1-yl)-5H-benzo[b][1,4]benzodiazepine
Formula: C18H19ClN4
Exact mass: 326.1298243
SMILES: CN1CCN(CC1)C2=NC3=C(C=CC(=C3)Cl)NC4=CC=CC=C42
InChI: InChI=1S/C18H19ClN4/c1-22-8-10-23(11-9-22)18-14-4-2-3-5-15(14)20-16-7-6-13(19)12-17(16)21-18/h2-7,12,20H,8-11H2,1H3
Instrument: Bruker maXis Impact
Instrument type: LC-ESI-QTOF
Ms type: MS2
Ion mode: POSITIVE
Ionization: ESI
Fragmentation mode: CID
Collision energy: 40 eV
Resolution: 35000
Column name: Acclaim RSLC C18 2.2um, 2.1x100mm, Thermo
Retention time: 7.4 min
Base peak: 327.137
Precursor m/z: 327.1371
Precursor type: [M+H]+
m/z	relative intensity	assigned
191.0594	9	C13H7N2+
192.0676	613	C13H8N2+
193.0704	61	C5H12ClN5O+
200.025	6	C13H2N3+
206.0826	7	C14H10N2+
218.0824	8	C15H10N2+
227.0364	231	C13H8ClN2+
228.0392	32	C12[13]CH8ClN2+
229.0333	62	C13H8[37]ClN2+
241.0517	5	C15H5N4+
253.0518	19	C15H10ClN2+
254.0571	7	C14[13]CH10ClN2+
255.0546	14	C15H10[37]ClN2+
270.0787	999	C15H13ClN3+
271.0818	125	C14[13]CH13ClN3+
272.0763	232	C15H13[37]ClN3+
273.0759	19	C14[13]CH13[37]ClN3+
296.0945	105	C17H15ClN3+
298.0919	30	C17H15[37]ClN3+
299.0947	4	C16[13]CH15[37]ClN3+
