Mass spectrum: Metobromuron; LC-ESI-QTOF; MS2; CE: 10 eV; R=35000; [M+H]+
Name: Metobromuron
Name: 3-(4-bromophenyl)-1-methoxy-1-methylurea
Formula: C9H11BrN2O2
Exact mass: 258.0003897
SMILES: CON(C)C(=O)NC1=CC=C(Br)C=C1
InChI: InChI=1S/C9H11BrN2O2/c1-12(14-2)9(13)11-8-5-3-7(10)4-6-8/h3-6H,1-2H3,(H,11,13)
Instrument: Bruker maXis Impact
Instrument type: LC-ESI-QTOF
Ms type: MS2
Ion mode: POSITIVE
Ionization: ESI
Fragmentation mode: CID
Collision energy: 10 eV
Resolution: 35000
Column name: Acclaim RSLC C18 2.2um, 2.1x100mm, Thermo
Retention time: 8.142 min
Base peak: 214.1123
Precursor m/z: 259.0077
Precursor type: [M+H]+
m/z	relative intensity	assigned
148.062	179	C8H8N2O+
149.0649	10	C7[13]CH8N2O+
169.9587	96	C6H5BrN+
170.9644	9	C5[13]CH5BrN+
171.9569	77	C6H5[81]BrN+
172.9627	7	C6H6BrO+
227.9883	13	C8H9BrN2O+
229.9861	12	C8H9[81]BrN2O+
259.0072	999	C9H12BrN2O2+
260.0103	60	C8[13]CH12BrN2O2+
261.0054	746	C9H12[81]BrN2O2+
