Mass spectrum: Amantadine; LC-ESI-QTOF; MS2; CE: 40 eV; R=35000; [M+H]+
Name: Amantadine
Name: adamantan-1-amine
Formula: C10H17N
Exact mass: 151.1360995
SMILES: NC12CC3CC(CC(C3)C1)C2
InChI: InChI=1S/C10H17N/c11-10-4-7-1-8(5-10)3-9(2-7)6-10/h7-9H,1-6,11H2
Instrument: Bruker maXis Impact
Instrument type: LC-ESI-QTOF
Ms type: MS2
Ion mode: POSITIVE
Ionization: ESI
Fragmentation mode: CID
Collision energy: 40 eV
Resolution: 35000
Column name: Acclaim RSLC C18 2.2um, 2.1x100mm, Thermo
Retention time: 4.713 min
Base peak: 189.1018
Precursor m/z: 152.1434
Precursor type: [M+H]+
m/z	relative intensity	assigned
133.1001	38	C10H13+
135.116	999	C10H15+
136.1196	122	C9[13]CH15+
