Mass spectrum: Icaridin; LC-ESI-QTOF; MS2; CE: 30 eV; R=35000; [M+H]+
Name: Icaridin
Name: butan-2-yl 2-(2-hydroxyethyl)piperidine-1-carboxylate
Formula: C12H23NO3
Exact mass: 229.1677936
SMILES: CCC(C)OC(=O)N1CCCCC1CCO
InChI: InChI=1S/C12H23NO3/c1-3-10(2)16-12(15)13-8-5-4-6-11(13)7-9-14/h10-11,14H,3-9H2,1-2H3
Instrument: Bruker maXis Impact
Instrument type: LC-ESI-QTOF
Ms type: MS2
Ion mode: POSITIVE
Ionization: ESI
Fragmentation mode: CID
Collision energy: 30 eV
Resolution: 35000
Column name: Acclaim RSLC C18 2.2um, 2.1x100mm, Thermo
Retention time: 8.814 min
Base peak: 230.1745
Precursor m/z: 230.1751
Precursor type: [M+H]+
m/z	relative intensity	assigned
112.1109	11	C7H14N+
128.0695	107	C6H10NO2+
129.0725	9	C5[13]CH10NO2+
130.1216	999	C7H16NO+
131.1245	88	C6[13]CH16NO+
156.1006	41	C8H14NO2+
169.0743	14	C8H11NO3+
