Mass spectrum: Aflatoxin B2; LC-ESI-QTOF; MS2; CE: 30 eV; R=35000; [M+H]+
Name: Aflatoxin B2
Name: Dihydroaflatoxin B1
Name: 11-methoxy-6,8,19-trioxapentacyclo[10.7.0.02,9.03,7.013,17]nonadeca-1,9,11,13(17)-tetraene-16,18-dione
Class: Natural Product; Fungal metabolite
Formula: C17H14O6
Exact mass: 314.079
SMILES: COC1=C2C3=C(C(=O)CC3)C(=O)OC2=C4C5CCOC5OC4=C1
InChI: InChI=1S/C17H14O6/c1-20-10-6-11-14(8-4-5-21-17(8)22-11)15-13(10)7-2-3-9(18)12(7)16(19)23-15/h6,8,17H,2-5H2,1H3
Instrument: Bruker maXis Impact
Instrument type: LC-ESI-QTOF
Ms type: MS2
Ion mode: POSITIVE
Ionization: ESI
Fragmentation mode: CID
Collision energy: 30 eV
Resolution: 35000
Column name: Acclaim RSLC C18 2.2um, 2.1x100mm, Thermo
Retention time: 6.483 min
Base peak: 315.0865
Precursor m/z: 315.0863
Precursor type: [M+H]+
m/z	relative intensity	assigned
203.0703	8	C12H11O3+
213.0914	6	C14H13O2+
226.0625	7	C14H10O3+
227.0701	17	C14H11O3+
229.0491	5	C13H9O4+
231.0653	15	C13H11O4+
241.0858	18	C15H13O3+
243.0651	15	C14H11O4+
244.0716	5	C14H12O4+
245.0441	15	C13H9O5+
254.0569	11	C15H10O4+
255.0642	14	C15H11O4+
257.0442	5	C14H9O5+
259.0601	169	C14H11O5+
259.0958	9	C15H15O4+
260.0636	24	C14H12O5+
269.0804	27	C16H13O4+
270.0839	5	C16H14O4+
271.0599	29	C15H11O5+
271.0959	11	C16H15O4+
272.0673	21	C15H12O5+
273.0388	19	C14H9O6+
273.0727	5	C15H13O5+
282.0523	12	C16H10O5+
285.0753	10	C16H13O5+
286.0825	8	C16H14O5+
287.0913	238	C16H15O5+
297.0754	41	C17H13O5+
298.0785	7	C17H14O5+
300.0628	10	C16H12O6+
315.0864	999	C17H15O6+
