Mass spectrum: Metamitron; LC-ESI-QTOF; MS2; CE: 20 eV; R=35000; [M-H]-
Name: Metamitron
Name: 4-amino-3-methyl-6-phenyl-1,2,4-triazin-5-one
Formula: C10H10N4O
Exact mass: 202.0854609
SMILES: CC1=NN=C(C(=O)N1N)C1=CC=CC=C1
InChI: InChI=1S/C10H10N4O/c1-7-12-13-9(10(15)14(7)11)8-5-3-2-4-6-8/h2-6H,11H2,1H3
Instrument: Bruker maXis Impact
Instrument type: LC-ESI-QTOF
Ms type: MS2
Ion mode: NEGATIVE
Ionization: ESI
Fragmentation mode: CID
Collision energy: 20 eV
Resolution: 35000
Column name: Acclaim RSLC C18 2.2um, 2.1x100mm, Thermo
Retention time: 5.194 min
Base peak: 201.0774
Precursor m/z: 201.0782
Precursor type: [M-H]-
m/z	relative intensity	assigned
117.0349	999	C8H5O-
158.0708	102	C9H8N3-
185.0597	78	C10H7N3O-
