Mass spectrum: N,O-Desmethyltramadol; LC-ESI-QTOF; MS2; CE: 30 eV; R=35000; [M-H]-
Name: N,O-Desmethyltramadol
Name: O-Desmethyltramadol
Name: 3-[(1R,2R)-2-[(dimethylamino)methyl]-1-hydroxycyclohexyl]phenol
Formula: C15H23NO2
Exact mass: 249.1728790
SMILES: O[C@]2(c1cc(O)ccc1)CCCC[C@@H]2CN(C)C
InChI: InChI=1S/C15H23NO2/c1-16(2)11-13-6-3-4-9-15(13,18)12-7-5-8-14(17)10-12/h5,7-8,10,13,17-18H,3-4,6,9,11H2,1-2H3/t13-,15+/m1/s1
Instrument: Bruker maXis Impact
Instrument type: LC-ESI-QTOF
Ms type: MS2
Ion mode: NEGATIVE
Ionization: ESI
Fragmentation mode: CID
Collision energy: 30 eV
Resolution: 35000
Column name: Acclaim RSLC C18 2.2um, 2.1x100mm, Thermo
Retention time: 4.445 min
Base peak: 248.1654
Precursor m/z: 248.1656
Precursor type: [M-H]-
m/z	relative intensity	assigned
248.1655	999	C15H22NO2-
