Mass spectrum: Fipronil sulfide; LC-ESI-QTOF; MS2; CE: Ramp 28.8-43.1 eV; R=35000; [M-H]-
Name: Fipronil sulfide
Name: 5-amino-1-[2,6-dichloro-4-(trifluoromethyl)phenyl]-4-(trifluoromethylsulfanyl)pyrazole-3-carbonitrile
Formula: C12H4Cl2F6N4S
Exact mass: 419.9437918
SMILES: NC1=C(SC(F)(F)F)C(=NN1C1=C(Cl)C=C(C=C1Cl)C(F)(F)F)C#N
InChI: InChI=1S/C12H4Cl2F6N4S/c13-5-1-4(11(15,16)17)2-6(14)8(5)24-10(22)9(7(3-21)23-24)25-12(18,19)20/h1-2H,22H2
Instrument: Bruker maXis Impact
Instrument type: LC-ESI-QTOF
Ms type: MS2
Ion mode: NEGATIVE
Ionization: ESI
Fragmentation mode: CID
Collision energy: Ramp 28.8-43.1 eV
Resolution: 35000
Column name: Acclaim RSLC C18 2.2um, 2.1x100mm, Thermo
Retention time: 10.625 min
Base peak: 59.0129
Precursor m/z: 418.9365
Precursor type: [M-H]-
m/z	relative intensity	assigned
57.9745	190	CNS-
59.9699	7	CN[34]S-
81	9	C4FN-
88.0051	78	C5N2-
89.9972	4	F4N-
100.9662	115	CF3S-
150.0022	24	C7F2N2-
170.0101	999	C7HF3N2-
171.0123	82	C6[13]CHF3N2-
192.9621	6	C10H3Cl2-
214.988	11	C5H2ClF4N3-
217.986	242	C8H2ClF3N2-
218.9885	16	C7[13]CH2ClF3N2-
219.9818	31	C8H2[37]ClF3N2-
226.9899	21	C9H2F3N2S-
233.9812	344	C11HClF2N2-
234.945	7	C5HCl2F4N2-
234.9838	24	C10[13]CHClF2N2-
235.9779	55	C11H[37]ClF2N2-
245.9805	18	C12HClF2N2-
249.9578	115	C8H2ClF3N2S-
250.9613	7	C7[13]CH2ClF3N2S-
251.9546	18	C8H2[37]ClF3N2S-
252.9548	7	C8H2Cl2F3N2-
261.9579	866	C9H2ClF3N2S-
262.9599	82	C8[13]CH2ClF3N2S-
263.9543	144	C9H2[37]ClF3N2S-
264.9571	5	C12H2ClF2NS-
313.9641	298	C11H2ClF3N4S-
314.9659	37	C10[13]CH2ClF3N4S-
315.9607	53	C11H2[37]ClF3N4S-
330.9518	22	C12H3Cl2F6-
382.9575	63	C12H2ClF6N4S-
383.9612	9	C11[13]CH2ClF6N4S-
384.9555	13	C12H2[37]ClF6N4S-
