Mass spectrum: Pethoxamid; LC-ESI-QTOF; MS2; CE: 10 eV; R=35000; [M+H]+
Name: Pethoxamid
Name: 2-chloro-N-(2-ethoxyethyl)-N-(2-methyl-1-phenylprop-1-enyl)acetamide
Formula: C16H22ClNO2
Exact mass: 295.1339066
SMILES: CCOCCN(C(=O)CCl)C(=C(C)C)C1=CC=CC=C1
InChI: InChI=1S/C16H22ClNO2/c1-4-20-11-10-18(15(19)12-17)16(13(2)3)14-8-6-5-7-9-14/h5-9H,4,10-12H2,1-3H3
Instrument: Bruker maXis Impact
Instrument type: LC-ESI-QTOF
Ms type: MS2
Ion mode: POSITIVE
Ionization: ESI
Fragmentation mode: CID
Collision energy: 10 eV
Resolution: 35000
Column name: Acclaim RSLC C18 2.2um, 2.1x100mm, Thermo
Retention time: 10.194 min
Base peak: 296.1421
Precursor m/z: 296.1412
Precursor type: [M+H]+
m/z	relative intensity	assigned
131.085	78	C10H11+
132.0883	7	C9[13]CH11+
148.0516	13	C9H8O2+
220.1689	9	C14H22NO+
250.0996	999	C14H17ClNO+
251.1029	104	C13[13]CH17ClNO+
252.0969	194	C14H17[37]ClNO+
253.0998	12	C14H18ClO2+
296.1418	974	C16H23ClNO2+
297.1451	142	C15[13]CH23ClNO2+
298.1392	241	C16H23[37]ClNO2+
