Mass spectrum: Cefazolin; LC-ESI-QTOF; MS2; CE: 20 eV; R=35000; [M+H]+
Name: Cefazolin
Name: cefazolin
Name: (6R,7R)-3-[(5-methyl-1,3,4-thiadiazol-2-yl)sulfanylmethyl]-8-oxo-7-[[2-(tetrazol-1-yl)acetyl]amino]-5-thia-1-azabicyclo[4.2.0]oct-2-ene-2-carboxylic acid
Formula: C14H14N8O4S3
Exact mass: 454.0300139
SMILES: Cc1nnc(s1)SCC2=C(N3[C@@H]([C@@H](C3=O)NC(=O)Cn4cnnn4)SC2)C(=O)O
InChI: InChI=1S/C14H14N8O4S3/c1-6-17-18-14(29-6)28-4-7-3-27-12-9(11(24)22(12)10(7)13(25)26)16-8(23)2-21-5-15-19-20-21/h5,9,12H,2-4H2,1H3,(H,16,23)(H,25,26)/t9-,12-/m1/s1
Instrument: Bruker maXis Impact
Instrument type: LC-ESI-QTOF
Ms type: MS2
Ion mode: POSITIVE
Ionization: ESI
Fragmentation mode: CID
Collision energy: 20 eV
Resolution: 35000
Column name: Acclaim RSLC C18 2.2um, 2.1x100mm, Thermo
Retention time: 4.066 min
Base peak: 344.2313
Precursor m/z: 455.0373
Precursor type: [M+H]+
m/z	relative intensity	assigned
124.0223	46	H12O3S2+
124.0514	33	C7H8O2+
126.0391	31	CH2N8+
128.0296	46	C6H8OS+
132.9892	184	C3H5N2S2+
139.033	60	H13NO3S2+
140.0452	35	C5H6N3O2+
141.0489	34	H15NO3S2+
151.0336	46	CH5N5O4+
152.017	96	CH12O4S2+
153.0501	308	CH7N5O4+
154.052	32	C2H10N4O2S+
156.0124	999	C6H6NO2S+
157.0179	79	C5[13]CH6NO2S+
162.0692	42	C5H12N3OS+
162.0892	41	H14N6O2S+
163.0332	39	C2H13NO3S2+
166.0447	173	C9H10OS+
167.0297	32	C2H9N5S2+
168.0128	45	C2H8N4OS2+
168.0537	33	H8N8OS+
178.0447	150	C10H10OS+
179.0268	42	H11N4O3S2+
180.0595	52	C8H10N3S+
184.0183	35	C14H2N+
190.0871	35	C4H12N7S+
195.0242	43	C3H9N5OS2+
195.0715	45	C10H13NOS+
206.0399	136	C11H10O2S+
208.0573	33	C6H14N3OS2+
221.0467	31	C6H11N3O4S+
223.0667	107	C4H13N7S2+
239.0601	34	C9H11N4O2S+
252.0467	226	C13H8N4S+
295.0632	829	C13H9N7S+
296.0654	109	C12[13]CH9N7S+
323.0588	896	C8H15N6O4S2+
325.0567	54	C8H15N6O4S[34]S+
