Mass spectrum: Sudan III; LC-ESI-QTOF; MS2; CE: 50 eV; R=35000; [M+H]+
Name: Sudan III
Formula: C22H16N4O
Exact mass: 352.1324111
SMILES: c1ccc(cc1)/N=N\c2ccc(cc2)/N=N/c3c4ccccc4ccc3O
InChI: InChI=1S/C22H16N4O/c27-21-15-10-16-6-4-5-9-20(16)22(21)26-25-19-13-11-18(12-14-19)24-23-17-7-2-1-3-8-17/h1-15,27H/b24-23-,26-25+
Instrument: Bruker maXis Impact
Instrument type: LC-ESI-QTOF
Ms type: MS2
Ion mode: POSITIVE
Ionization: ESI
Fragmentation mode: CID
Collision energy: 50 eV
Resolution: 35000
Column name: Acclaim RSLC C18 2.2um, 2.1x100mm, Thermo
Retention time: 15.500 min
Base peak: 338.3449
Precursor m/z: 353.1397
Precursor type: [M+H]+
m/z	relative intensity	assigned
115.0552	183	C9H7+
128.0505	999	C9H6N+
129.0538	110	C8[13]CH6N+
130.0648	22	C9H8N+
141.0709	189	C11H9+
142.0751	45	C11H10+
143.0496	335	C10H7O+
144.0538	34	C9[13]CH7O+
146.0611	113	C9H8NO+
154.065	35	C11H8N+
156.0464	154	C10H6NO+
157.0777	20	C10H9N2+
166.0661	23	C12H8N+
167.0752	126	C12H9N+
168.0802	87	C12H10N+
169.0768	225	C11H9N2+
170.0831	50	C11H10N2+
171.0925	32	C11H11N2+
174.0573	26	C8H6N4O+
179.0611	43	C12H7N2+
181.0775	53	C12H9N2+
182.0637	39	C12H8NO+
182.0824	32	C12H10N2+
193.077	19	C13H9N2+
196.0885	872	C14H12O+
197.0949	399	C12H11N3+
198.0991	45	C11[13]CH11N3+
203.0745	19	C15H9N+
204.0821	30	C15H10N+
205.0758	19	C14H9N2+
219.0928	40	C15H11N2+
231.058	30	C15H7N2O+
231.0817	25	C17H11O+
231.0964	27	C16H11N2+
232.0879	102	C17H12O+
233.0956	28	C17H13O+
235.0874	26	C15H11N2O+
247.0917	32	C16H11N2O+
