Mass spectrum: Clozapine; LC-ESI-QTOF; MS2; CE: 20 eV; R=35000; [M+H]+
Name: Clozapine
Name: 3-chloro-6-(4-methylpiperazin-1-yl)-5H-benzo[b][1,4]benzodiazepine
Formula: C18H19ClN4
Exact mass: 326.1298243
SMILES: CN1CCN(CC1)C2=NC3=C(C=CC(=C3)Cl)NC4=CC=CC=C42
InChI: InChI=1S/C18H19ClN4/c1-22-8-10-23(11-9-22)18-14-4-2-3-5-15(14)20-16-7-6-13(19)12-17(16)21-18/h2-7,12,20H,8-11H2,1H3
Instrument: Bruker maXis Impact
Instrument type: LC-ESI-QTOF
Ms type: MS2
Ion mode: POSITIVE
Ionization: ESI
Fragmentation mode: CID
Collision energy: 20 eV
Resolution: 35000
Column name: Acclaim RSLC C18 2.2um, 2.1x100mm, Thermo
Retention time: 7.4 min
Base peak: 327.1368
Precursor m/z: 327.1371
Precursor type: [M+H]+
m/z	relative intensity	assigned
270.0787	647	C15H13ClN3+
271.0818	78	C14[13]CH13ClN3+
272.0763	137	C15H13[37]ClN3+
273.0759	13	C14[13]CH13[37]ClN3+
296.0945	33	C17H15ClN3+
297.0981	6	C16[13]CH15ClN3+
298.0919	9	C17H15[37]ClN3+
299.0947	1	C16[13]CH15[37]ClN3+
327.1374	999	C18H20ClN4+
328.1406	161	C17[13]CH20ClN4+
329.1346	249	C18H20[37]ClN4+
330.1372	24	C17[13]CH20[37]ClN4+
