Mass spectrum: Mabuterol; LC-ESI-QTOF; MS2; CE: 40 eV; R=35000; [M+H]+
Name: Mabuterol
Name: 1-[4-amino-3-chloro-5-(trifluoromethyl)phenyl]-2-(tert-butylamino)ethanol
Formula: C13H18ClF3N2O
Exact mass: 310.1059755
SMILES: CC(C)(C)NCC(c1cc(c(c(c1)Cl)N)C(F)(F)F)O
InChI: InChI=1S/C13H18ClF3N2O/c1-12(2,3)19-6-10(20)7-4-8(13(15,16)17)11(18)9(14)5-7/h4-5,10,19-20H,6,18H2,1-3H3
Instrument: Bruker maXis Impact
Instrument type: LC-ESI-QTOF
Ms type: MS2
Ion mode: POSITIVE
Ionization: ESI
Fragmentation mode: CID
Collision energy: 40 eV
Resolution: 35000
Column name: Acclaim RSLC C18 2.2um, 2.1x100mm, Thermo
Retention time: 5.3 min
Base peak: 311.1139
Precursor m/z: 311.1133
Precursor type: [M+H]+
m/z	relative intensity	assigned
116.0491	6	C8H6N+
131.0597	15	C8H7N2+
132.0678	106	C8H8N2+
133.0729	11	C7[13]CH8N2+
134.0393	7	C8H5FN+
135.0477	7	C8H6FN+
142.0523	5	C9H6N2+
154.0456	18	C8H6F2N+
161.0509	26	C9H6FN2+
162.0583	25	C9H7FN2+
166.0294	9	C8H7ClN2+
168.0209	5	C8H7ClNO+
168.0447	21	C8H9ClN2+
170.0162	16	C11H3FO+
170.0406	6	C8H6F2NO+
172.0131	5	C8H3F3O+
174.0518	18	C8H7F3N+
181.057	322	C9H7F2N2+
182.064	169	C9H8F2N2+
183.0681	10	C8[13]CH8F2N2+
185.0442	5	C9H6F3N+
186.0513	5	C9H7F3N+
190.0228	219	C8H7ClF2N+
191.0273	15	C7[13]CH7ClF2N+
192.0204	41	C8H7[37]ClF2N+
197.0276	126	C9H7ClFN2+
198.0305	10	C11[13]CH4FNO+
199.0245	31	C9H7[37]ClFN2+
200.0075	25	C9H5ClF2N+
201.0633	175	C9H8F3N2+
202.0713	999	C9H9F3N2+
203.0741	47	C8[13]CH9F3N2+
208.0133	6	C8H6ClF3N+
217.0339	699	C9H8ClF2N2+
218.0374	42	C12H9ClNO+
219.0309	137	C11H8ClN2O+
220.033	5	C12H9[37]ClNO+
237.0401	120	C9H9ClF3N2+
238.0436	7	C11[13]CH6F3NO+
239.0382	26	C9H9[37]ClF3N2+
