Mass spectrum: Dihydrocodeine; LC-ESI-QTOF; MS2; CE: 20 eV; R=35000; [M+H]+
Name: Dihydrocodeine
Name: (4R,4aR,7S,7aR,12bS)-9-methoxy-3-methyl-2,4,4a,5,6,7,7a,13-octahydro-1H-4,12-methanobenzofuro[3,2-e]isoquinoline-7-ol
Formula: C18H23NO3
Exact mass: 301.1677936
SMILES: CN1CC[C@]23c4c5ccc(c4O[C@H]2[C@H](CC[C@H]3[C@H]1C5)O)OC
InChI: InChI=1S/C18H23NO3/c1-19-8-7-18-11-4-5-13(20)17(18)22-16-14(21-2)6-3-10(15(16)18)9-12(11)19/h3,6,11-13,17,20H,4-5,7-9H2,1-2H3/t11-,12+,13-,17-,18-/m0/s1
Instrument: Bruker maXis Impact
Instrument type: LC-ESI-QTOF
Ms type: MS2
Ion mode: POSITIVE
Ionization: ESI
Fragmentation mode: CID
Collision energy: 20 eV
Resolution: 35000
Column name: Acclaim RSLC C18 2.2um, 2.1x100mm, Thermo
Retention time: 3.498 min
Base peak: 302.1772
Precursor m/z: 302.1751
Precursor type: [M+H]+
m/z	relative intensity	assigned
199.0761	9	C13H11O2+
201.0915	9	C13H13O2+
227.1076	9	C15H15O2+
245.1184	25	C15H17O3+
302.1778	999	C18H24NO3+
303.1804	222	C17[13]CH24NO3+
304.1823	17	C16[13]C2H24NO3+
