Mass spectrum: Dibutyl maleate; GC-APCI-QTOF; MS2; CE: 10 eV; R=35000; [M+H]+
Name: Dibutyl maleate
Formula: C12H20O4
Exact mass: 228.1362
SMILES: CCCCOC(=O)C=CC(=O)OCCCC
InChI: InChI=1S/C12H20O4/c1-3-5-9-15-11(13)7-8-12(14)16-10-6-4-2/h7-8H,3-6,9-10H2,1-2H3
Instrument: Bruker 450 GC coupled to maXis Impact
Instrument type: GC-APCI-QTOF
Ms type: MS2
Ion mode: POSITIVE
Ionization: APCI
Fragmentation mode: CID
Collision energy: 10 eV
Resolution: 35000
Column name: Rxi-5Sil MS column, 30m, 0.25mm i.d., 0.25Âµm film thickness, Restek
Retention time: 12.586 min
Base peak: 229.1434
Precursor m/z: 229.1434
Precursor type: [M+H]+
m/z	relative intensity	assigned
57.071	100	C4H9+
99.0068	99	C4H3O3+
117.0175	267	C4H5O4+
127.0757	39	C7H11O2+
129.0914	47	C7H13O2+
141.092	79	C8H13O2+
142.0956	40	C8H14O2+
153.0573	67	C8H9O3+
154.0641	173	C8H10O3+
155.0718	205	C8H11O3+
156.0786	36	C8H12O3+
157.1249	36	C9H17O2+
171.0683	69	C8H11O4+
173.0829	999	C8H13O4+
174.0888	95	C8H14O4+
229.1448	204	C12H21O4+
