Mass spectrum: 1-Methylbenzotriazole; LC-ESI-QTOF; MS2; CE: 30 eV; R=35000; [M+H]+
Name: 1-Methylbenzotriazole
Name: 1-methylbenzotriazole
Formula: C7H7N3
Exact mass: 133.0639972
SMILES: Cn1c2ccccc2nn1
InChI: InChI=1S/C7H7N3/c1-10-7-5-3-2-4-6(7)8-9-10/h2-5H,1H3
Instrument: Bruker maXis Impact
Instrument type: LC-ESI-QTOF
Ms type: MS2
Ion mode: POSITIVE
Ionization: ESI
Fragmentation mode: CID
Collision energy: 30 eV
Resolution: 35000
Column name: Acclaim RSLC C18 2.2um, 2.1x100mm, Thermo
Retention time: 4.026 min
Base peak: 134.0714
Precursor m/z: 134.0713
Precursor type: [M+H]+
m/z	relative intensity	assigned
117.0444	21	C7H5N2+
118.0512	8	C7H6N2+
133.0632	97	C7H7N3+
134.0714	999	C7H8N3+
135.0744	61	C6[13]CH8N3+
