Mass spectrum: N-Acetyl mesalazine; LC-ESI-QTOF; MS2; CE: 10 eV; R=35000; [M+H]+
Name: N-Acetyl mesalazine
Name: N-Acetyl-5-aminosalicylic acid
Name: 5-acetamido-2-hydroxybenzoic acid
Formula: C9H9NO4
Exact mass: 195.0531578
SMILES: CC(=O)NC1=CC=C(O)C(=C1)C(O)=O
InChI: InChI=1S/C9H9NO4/c1-5(11)10-6-2-3-8(12)7(4-6)9(13)14/h2-4,12H,1H3,(H,10,11)(H,13,14)
Instrument: Bruker maXis Impact
Instrument type: LC-ESI-QTOF
Ms type: MS2
Ion mode: POSITIVE
Ionization: ESI
Fragmentation mode: CID
Collision energy: 10 eV
Resolution: 35000
Column name: Acclaim RSLC C18 2.2um, 2.1x100mm, Thermo
Retention time: 3.427 min
Base peak: 196.0589
Precursor m/z: 196.0604
Precursor type: [M+H]+
m/z	relative intensity	assigned
136.0381	87	C7H6NO2+
152.0683	25	C8H10NO2+
154.0497	10	C7H8NO3+
178.0487	642	C9H8NO3+
179.0515	74	C8[13]CH8NO3+
195.0504	9	C9H9NO4+
196.059	999	C9H10NO4+
197.0628	84	C8[13]CH10NO4+
198.0638	11	C9H10NO3[18]O+
