Mass spectrum: N4-Acetylsulfadimethoxine; LC-ESI-QTOF; MS2; CE: 50 eV; R=35000; [M+H]+
Name: N4-Acetylsulfadimethoxine
Name: N(4)-Acetylsulfadimethoxine
Name: N-[4-[(4,6-dimethoxypyrimidin-2-yl)sulfamoyl]phenyl]acetamide
Formula: C14H16N4O5S
Exact mass: 352.0841406
SMILES: COC1=CC(OC)=NC(NS(=O)(=O)C2=CC=C(NC(C)=O)C=C2)=N1
InChI: InChI=1S/C14H16N4O5S/c1-9(19)15-10-4-6-11(7-5-10)24(20,21)18-14-16-12(22-2)8-13(17-14)23-3/h4-8H,1-3H3,(H,15,19)(H,16,17,18)
Instrument: Bruker maXis Impact
Instrument type: LC-ESI-QTOF
Ms type: MS2
Ion mode: POSITIVE
Ionization: ESI
Fragmentation mode: CID
Collision energy: 50 eV
Resolution: 35000
Column name: Acclaim RSLC C18 2.2um, 2.1x100mm, Thermo
Retention time: 6.0 min
Base peak: 242.2836
Precursor m/z: 353.0914
Precursor type: [M+H]+
m/z	relative intensity	assigned
124.0484	22	C2H8N2O4+
125.0572	179	C5H7N3O+
126.065	135	C5H8N3O+
127.0495	64	C5H7N2O2+
134.059	297	C6H6N4+
135.0619	28	C3H9N3O3+
139.0372	29	C5H5N3O2+
140.0438	69	C2H8N2O5+
141.0525	90	C5H7N3O2+
145.0626	28	C8H7N3+
154.0601	999	C6H8N3O2+
156.0751	288	C3H12N2O5+
157.0459	34	C5H7N3O3+
164.0711	22	C3H16O5S+
172.051	31	C3H12N2O4S+
172.0739	23	C9H8N4+
173.0573	269	C9H7N3O+
174.0601	32	C7H12NO2S+
215.0666	35	C8H11N2O5+
229.0736	22	C10H15NO3S+
229.0807	19	C10H15NO3S+
230.0795	41	C11H10N4O2+
