Mass spectrum: Dimethachlor-ESA; LC-ESI-QTOF; MS2; CE: 40 eV; R=35000; [M+H]+
Name: Dimethachlor-ESA
Name: 2-[N-(2-methoxyethyl)-2,6-dimethylanilino]-2-oxoethanesulfonic acid
Formula: C13H19NO5S
Exact mass: 301.0983937
SMILES: COCCN(C(=O)CS(O)(=O)=O)c1c(C)cccc1C
InChI: InChI=1S/C13H19NO5S/c1-10-5-4-6-11(2)13(10)14(7-8-19-3)12(15)9-20(16,17)18/h4-6H,7-9H2,1-3H3,(H,16,17,18)
Instrument: Bruker maXis Impact
Instrument type: LC-ESI-QTOF
Ms type: MS2
Ion mode: POSITIVE
Ionization: ESI
Fragmentation mode: CID
Collision energy: 40 eV
Resolution: 35000
Column name: Acclaim RSLC C18 2.2um, 2.1x100mm, Thermo
Retention time: 5.3 min
Base peak: 302.1052
Precursor m/z: 302.1057
Precursor type: [M+H]+
m/z	relative intensity	assigned
117.057	68	C8H7N+
130.0652	42	C9H8N+
131.0721	111	C9H9N+
132.0799	999	C9H10N+
133.0842	138	C8[13]CH10N+
144.0792	48	C7H12O3+
145.0875	23	C10H11N+
146.0956	485	C10H12N+
147.1028	222	C7H15O3+
148.1103	128	C7H16O3+
149.1139	20	C5H15N3O2+
158.0982	28	C5H18O3S+
159.1028	52	C8H15O3+
174.0903	952	C11H12NO+
175.0943	94	C10[13]CH12NO+
206.1178	23	C12H16NO2+
270.078	39	C12H16NO4S+
