Mass spectrum: Dichlofluanid; LC-ESI-QTOF; MS2; CE: 20 eV; R=35000; [M+H]+
Name: Dichlofluanid
Name: N-[dichloro(fluoro)methyl]sulfanyl-N-(dimethylsulfamoyl)aniline
Formula: C9H11Cl2FN2O2S2
Exact mass: 331.9623032
SMILES: CN(C)S(=O)(=O)N(SC(F)(Cl)Cl)C1=CC=CC=C1
InChI: InChI=1S/C9H11Cl2FN2O2S2/c1-13(2)18(15,16)14(17-9(10,11)12)8-6-4-3-5-7-8/h3-7H,1-2H3
Instrument: Bruker maXis Impact
Instrument type: LC-ESI-QTOF
Ms type: MS2
Ion mode: POSITIVE
Ionization: ESI
Fragmentation mode: CID
Collision energy: 20 eV
Resolution: 35000
Column name: Acclaim RSLC C18 2.2um, 2.1x100mm, Thermo
Retention time: 10.0 min
Base peak: 332.9698
Precursor m/z: 332.9696
Precursor type: [M+H]+
m/z	relative intensity	assigned
121.0876	13	C8H11N+
122.0043	13	C3H4ClFN2+
123.0131	761	C3H5ClFN2+
125.9857	15	C6H3ClO+
127.9825	10	Cl2H10OS+
153.0048	10	CH12ClNOS2+
188.9795	19	CH10Cl2FNO2S+
190.976	9	C4H9ClFOS2+
199.0526	7	C8H11N2O2S+
223.9493	999	C4H10Cl2O2S2+
224.9515	96	C3[13]CH10Cl2O2S2+
225.9459	630	C4H10[37]Cl[35]ClO2S2+
226.949	30	C3[13]CH10[37]Cl[35]ClO2S2+
