Mass spectrum: Albendazole; LC-ESI-QTOF; MS2; CE: 30 eV; R=35000; [M+H]+
Name: Albendazole
Name: methyl N-(6-propylsulfanyl-1H-benzimidazol-2-yl)carbamate
Formula: C12H15N3O2S
Exact mass: 265.0884977
SMILES: CCCSC1=CC2=C(NC(NC(=O)OC)=N2)C=C1
InChI: InChI=1S/C12H15N3O2S/c1-3-6-18-8-4-5-9-10(7-8)14-11(13-9)15-12(16)17-2/h4-5,7H,3,6H2,1-2H3,(H2,13,14,15,16)
Instrument: Bruker maXis Impact
Instrument type: LC-ESI-QTOF
Ms type: MS2
Ion mode: POSITIVE
Ionization: ESI
Fragmentation mode: CID
Collision energy: 30 eV
Resolution: 35000
Column name: Acclaim RSLC C18 2.2um, 2.1x100mm, Thermo
Retention time: 9.388 min
Base peak: 266.0956
Precursor m/z: 266.0958
Precursor type: [M+H]+
m/z	relative intensity	assigned
159.0416	58	C8H5N3O+
160.0462	5	C7[13]CH5N3O+
191.0139	288	C8H5N3OS+
192.0213	228	C8H6N3OS+
193.011	9	C8H5N3O[34]S+
193.0235	17	C7[13]CH6N3OS+
194.0173	7	C8H6N3O[34]S+
223.0396	6	C9H9N3O2S+
234.0691	999	C11H12N3OS+
235.0718	107	C10[13]CH12N3OS+
236.0656	28	C11H12N3O[34]S+
266.095	10	C12H16N3O2S+
