Mass spectrum: Candesartan; LC-ESI-QTOF; MS2; CE: 50 eV; R=35000; [M+H]+
Name: Candesartan
Name: 2-ethoxy-3-[[4-[2-(2H-tetrazol-5-yl)phenyl]phenyl]methyl]benzimidazole-4-carboxylic acid
Formula: C24H20N6O3
Exact mass: 440.1596885
SMILES: CCOC1=NC2=CC=CC(C(O)=O)=C2N1CC1=CC=C(C=C1)C1=CC=CC=C1C1=NNN=N1
InChI: InChI=1S/C24H20N6O3/c1-2-33-24-25-20-9-5-8-19(23(31)32)21(20)30(24)14-15-10-12-16(13-11-15)17-6-3-4-7-18(17)22-26-28-29-27-22/h3-13H,2,14H2,1H3,(H,31,32)(H,26,27,28,29)
Instrument: Bruker maXis Impact
Instrument type: LC-ESI-QTOF
Ms type: MS2
Ion mode: POSITIVE
Ionization: ESI
Fragmentation mode: CID
Collision energy: 50 eV
Resolution: 35000
Column name: Acclaim RSLC C18 2.2um, 2.1x100mm, Thermo
Retention time: 7.7 min
Base peak: 251.1539
Precursor m/z: 441.167
Precursor type: [M+H]+
m/z	relative intensity	assigned
140.0497	43	C10H6N+
152.0614	252	C12H8+
153.068	314	C12H9+
154.0705	66	C5H8N5O+
161.0333	168	C6H3N5O+
163.0527	111	C13H7+
164.0609	45	C13H8+
165.0693	598	C13H9+
166.072	128	C6H8N5O+
167.0709	42	C9H11O3+
167.0844	136	C13H11+
168.0669	35	C11H8N2+
169.0634	50	C10H7N3+
173.0356	76	C9H5N2O2+
177.0566	103	C13H7N+
177.0681	95	C14H9+
178.0768	650	C14H10+
179.0439	129	C6H5N5O2+
179.0775	126	C7H9N5O+
180.0798	946	C13H10N+
181.0827	120	C12[13]CH10N+
182.0852	39	C12H10N2+
189.0637	63	C8H7N5O+
191.0712	587	C11H11O3+
192.0795	563	C14H10N+
193.0863	295	C11H13O3+
194.0953	355	C14H12N+
195.0978	68	C7H11N6O+
196.0738	65	C11H8N4+
205.0751	414	C14H9N2+
206.0825	680	C11H12NO3+
207.0904	999	C14H11N2+
208.0774	46	C14H10NO+
208.0945	117	C13[13]CH11N2+
208.1124	49	C15H14N+
210.0907	283	C14H12NO+
211.0943	75	C7H11N6O2+
217.0925	66	C10H11N5O+
218.0945	55	C13H14O3+
219.0906	123	C15H11N2+
220.0988	110	C15H12N2+
233.1071	58	C16H13N2+
234.1159	183	C16H14N2+
235.1202	143	C13H17NO3+
236.1281	34	C13H18NO3+
308.0969	36	C21H12N2O+
308.117	72	C21H14N3+
309.1037	123	C21H13N2O+
310.1097	55	C21H14N2O+
322.1003	47	C23H14O2+
324.1148	84	C23H16O2+
337.0973	46	C22H13N2O2+
348.1018	41	C24H14NO2+
349.0851	41	C22H11N3O2+
349.1062	82	C17H13N6O3+
350.0921	48	C22H12N3O2+
351.1011	49	C24H15O3+
352.1071	159	C20H12N6O+
353.1119	66	C20H13N6O+
