Mass spectrum: Chloridazon-methyl-desphenyl; LC-ESI-QTOF; MS2; CE: 10 eV; R=35000; [M-H]-
Name: Chloridazon-methyl-desphenyl
Name: 3(2H)-Pyridazinone, 5-amino-4-chloro-2-methyl-
Name: 5-amino-4-chloro-2-methylpyridazin-3-one
Formula: C5H6ClN3O
Exact mass: 159.0199395
SMILES: CN1N=CC(N)=C(Cl)C1=O
InChI: InChI=1S/C5H6ClN3O/c1-9-5(10)4(6)3(7)2-8-9/h2H,7H2,1H3
Instrument: Bruker maXis Impact
Instrument type: LC-ESI-QTOF
Ms type: MS2
Ion mode: NEGATIVE
Ionization: ESI
Fragmentation mode: CID
Collision energy: 10 eV
Resolution: 35000
Column name: Acclaim RSLC C18 2.2um, 2.1x100mm, Thermo
Retention time: 3.319 min
Base peak: 158.0131
Precursor m/z: 158.0127
Precursor type: [M-H]-
m/z	relative intensity	assigned
158.0128	999	C5H5ClN3O-
160.01	228	C5H5[37]ClN3O-
