Mass spectrum: Trifloxystrobin; LC-ESI-QTOF; MS2; CE: 30 eV; R=35000; [M+H]+
Name: Trifloxystrobin
Name: methyl (2Z)-2-methoxyimino-2-[2-[[(E)-1-[3-(trifluoromethyl)phenyl]ethylideneamino]oxymethyl]phenyl]acetate
Formula: C20H19F3N2O4
Exact mass: 408.1296917
SMILES: CO\N=C(/C(=O)OC)C1=C(CO\N=C(/C)C2=CC(=CC=C2)C(F)(F)F)C=CC=C1
InChI: InChI=1S/C20H19F3N2O4/c1-13(14-8-6-9-16(11-14)20(21,22)23)24-29-12-15-7-4-5-10-17(15)18(25-28-3)19(26)27-2/h4-11H,12H2,1-3H3/b24-13+,25-18-
Instrument: Bruker maXis Impact
Instrument type: LC-ESI-QTOF
Ms type: MS2
Ion mode: POSITIVE
Ionization: ESI
Fragmentation mode: CID
Collision energy: 30 eV
Resolution: 35000
Column name: Acclaim RSLC C18 2.2um, 2.1x100mm, Thermo
Retention time: 11.6 min
Base peak: 409.1376
Precursor m/z: 409.137
Precursor type: [M+H]+
m/z	relative intensity	assigned
117.0557	9	C2H10FO4+
118.0644	15	C8H8N+
130.0643	14	C3H11FO4+
132.0797	66	C3H13FO4+
145.0252	91	C7H4F3+
146.0282	7	C6[13]CH4F3+
147.0658	8	C6H11O4+
148.0747	5	C9H10NO+
162.0909	12	C10H12NO+
163.0356	5	C10H5F2+
186.0522	999	C9H7F3N+
206.081	67	C11H12NO3+
207.0849	6	C10[13]CH12NO3+
