Mass spectrum: 2-(2-(Chlorophenyl)amino)benzaldehyde; LC-ESI-QTOF; MS2; CE: Ramp 19.2-28.7 eV; R=35000; [M+H]+
Name: 2-(2-(Chlorophenyl)amino)benzaldehyde
Name: 2-[(2-Chlorophenyl)amino]-benzaldehyde
Name: 2-(2-chloroanilino)benzaldehyde
Formula: C13H10ClNO
Exact mass: 231.0450916
SMILES: ClC1=CC=CC=C1NC1=C(C=O)C=CC=C1
InChI: InChI=1S/C13H10ClNO/c14-11-6-2-4-8-13(11)15-12-7-3-1-5-10(12)9-16/h1-9,15H
Instrument: Bruker maXis Impact
Instrument type: LC-ESI-QTOF
Ms type: MS2
Ion mode: POSITIVE
Ionization: ESI
Fragmentation mode: CID
Collision energy: Ramp 19.2-28.7 eV
Resolution: 35000
Column name: Acclaim RSLC C18 2.2um, 2.1x100mm, Thermo
Retention time: 11.402 min
Base peak: 102.1287
Precursor m/z: 232.0524
Precursor type: [M+H]+
m/z	relative intensity	assigned
58.0651	9	C3H8N+
168.0787	6	C12H10N+
178.0642	30	C13H8N+
179.0708	23	C13H9N+
180.0795	108	C13H10N+
181.0833	14	C12[13]CH10N+
196.0748	21	C13H10NO+
197.082	12	C13H11NO+
214.0412	999	C13H9ClN+
215.0444	152	C12[13]CH9ClN+
216.0386	321	C13H9[37]ClN+
217.0408	27	C13H10ClO+
232.0515	6	C13H11ClNO+
