Mass spectrum: Ciprofloxacin; LC-ESI-QTOF; MS2; CE: 40 eV; R=35000; [M+H]+
Name: Ciprofloxacin
Name: 1-cyclopropyl-6-fluoro-4-oxo-7-piperazin-1-ylquinoline-3-carboxylic acid
Formula: C17H18FN3O3
Exact mass: 331.1332197
SMILES: OC(=O)C1=CN(C2CC2)C2=C(C=C(F)C(=C2)N2CCNCC2)C1=O
InChI: InChI=1S/C17H18FN3O3/c18-13-7-11-14(8-15(13)20-5-3-19-4-6-20)21(10-1-2-10)9-12(16(11)22)17(23)24/h7-10,19H,1-6H2,(H,23,24)
Instrument: Bruker maXis Impact
Instrument type: LC-ESI-QTOF
Ms type: MS2
Ion mode: POSITIVE
Ionization: ESI
Fragmentation mode: CID
Collision energy: 40 eV
Resolution: 35000
Column name: Acclaim RSLC C18 2.2um, 2.1x100mm, Thermo
Retention time: 4.387 min
Base peak: 362.1505
Precursor m/z: 332.1405
Precursor type: [M+H]+
m/z	relative intensity	assigned
149.0595	16	C4H8FN3O2+
189.0428	15	C10H7NO3+
191.0597	12	C13H7N2+
202.0606	9	C10H8N3O2+
203.0607	33	C14H7N2+
204.0669	35	C14H8N2+
205.0753	35	C14H9N2+
215.0974	8	C13H12FN2+
216.1054	12	C13H13FN2+
217.0388	11	C14H5N2O+
217.0773	8	C12H10FN2O+
218.0461	19	C14H6N2O+
218.0828	11	C15H10N2+
225.0523	9	C12H7N3O2+
229.0768	16	C13H10FN2O+
231.0557	999	C15H7N2O+
232.0589	143	C14[13]CH7N2O+
233.0627	11	C13[13]C2H7N2O+
245.1067	47	C17H13N2+
246.1102	11	C16[13]CH13N2+
249.0658	174	C15H9N2O2+
250.0688	21	C14[13]CH9N2O2+
272.0831	17	C14H11FN3O2+
272.1196	13	C15H15FN3O+
273.0906	14	C14H12FN3O2+
286.1349	9	C16H17FN3O+
294.1244	14	C14H17FN3O3+
312.135	50	C17H18N3O3+
313.1374	14	C17H19N3O3+
314.1279	87	C17H17FN3O2+
315.1343	20	C16[13]CH17FN3O2+
332.1401	429	C17H19FN3O3+
333.1427	94	C16[13]CH19FN3O3+
