Mass spectrum: Bifonazol; LC-ESI-QTOF; MS2; CE: 30 eV; R=35000; [M+H]+
Name: Bifonazol
Name: Bifonazole
Name: 1-[phenyl-(4-phenylphenyl)methyl]imidazole
Formula: C22H18N2
Exact mass: 310.1469986
SMILES: C1=CN(C=N1)C(C1=CC=CC=C1)C1=CC=C(C=C1)C1=CC=CC=C1
InChI: InChI=1S/C22H18N2/c1-3-7-18(8-4-1)19-11-13-21(14-12-19)22(24-16-15-23-17-24)20-9-5-2-6-10-20/h1-17,22H
Instrument: Bruker maXis Impact
Instrument type: LC-ESI-QTOF
Ms type: MS2
Ion mode: POSITIVE
Ionization: ESI
Fragmentation mode: CID
Collision energy: 30 eV
Resolution: 35000
Column name: Acclaim RSLC C18 2.2um, 2.1x100mm, Thermo
Retention time: 10.586 min
Base peak: 311.1543
Precursor m/z: 311.1543
Precursor type: [M+H]+
m/z	relative intensity	assigned
115.0537	20	C9H7+
141.0688	9	C11H9+
165.0689	124	C13H9+
166.0727	17	C12[13]CH9+
202.0768	10	C16H10+
215.0847	40	C17H11+
216.0882	7	C16[13]CH11+
227.0847	5	C18H11+
228.093	131	C18H12+
229.0961	20	C17[13]CH12+
241.1009	45	C19H13+
242.1068	20	C19H14+
243.1173	999	C19H15+
244.12	339	C18[13]CH15+
245.1231	21	C17[13]C2H15+
