Mass spectrum: Dimethachlor OA; LC-ESI-QTOF; MS2; CE: 40 eV; R=35000; [M+H]+
Name: Dimethachlor OA
Name: [(2,6-Dimethylphenyl)(2-methoxyethyl)amino](oxo)acetic acid
Name: 2-[N-(2-methoxyethyl)-2,6-dimethylanilino]-2-oxoacetic acid
Formula: C13H17NO4
Exact mass: 251.1157580
SMILES: COCCN(C(=O)C(O)=O)C1=C(C)C=CC=C1C
InChI: InChI=1S/C13H17NO4/c1-9-5-4-6-10(2)11(9)14(7-8-18-3)12(15)13(16)17/h4-6H,7-8H2,1-3H3,(H,16,17)
Instrument: Bruker maXis Impact
Instrument type: LC-ESI-QTOF
Ms type: MS2
Ion mode: POSITIVE
Ionization: ESI
Fragmentation mode: CID
Collision energy: 40 eV
Resolution: 35000
Column name: Acclaim RSLC C18 2.2um, 2.1x100mm, Thermo
Retention time: 5.413 min
Base peak: 222.0423
Precursor m/z: 252.123
Precursor type: [M+H]+
m/z	relative intensity	assigned
117.056	480	C8H7N+
118.0636	536	C5H10O3+
120.081	110	C8H10N+
130.0645	492	C9H8N+
131.0714	772	C6H11O3+
132.0793	999	C6H12O3+
133.0484	101	C5H9O4+
133.0857	463	C6H13O3+
146.0959	206	C10H12N+
148.1106	481	C7H16O3+
220.0953	113	C12H14NO3+
