Mass spectrum: Omethoate; LC-ESI-QTOF; MS2; CE: 30 eV; R=35000; [M+H]+
Name: Omethoate
Name: 2-dimethoxyphosphorylsulfanyl-N-methylacetamide
Formula: C5H12NO4PS
Exact mass: 213.0224655
SMILES: CNC(=O)CSP(=O)(OC)OC
InChI: InChI=1S/C5H12NO4PS/c1-6-5(7)4-12-11(8,9-2)10-3/h4H2,1-3H3,(H,6,7)
Instrument: Bruker maXis Impact
Instrument type: LC-ESI-QTOF
Ms type: MS2
Ion mode: POSITIVE
Ionization: ESI
Fragmentation mode: CID
Collision energy: 30 eV
Resolution: 35000
Column name: Acclaim RSLC C18 2.2um, 2.1x100mm, Thermo
Retention time: 3.257 min
Base peak: 214.0319
Precursor m/z: 214.0297
Precursor type: [M+H]+
m/z	relative intensity	assigned
109.0054	21	C2H6O3P+
124.9826	999	C2H6O2PS+
125.9851	24	C[13]CH6O2PS+
126.9783	38	C2H6O2P[34]S+
127.0159	33	C2H8O4P+
142.9932	383	C2H8O3PS+
144.9891	15	C5H6NP[34]S+
154.9931	96	C3H8O3PS+
182.9875	5	C4H8O4PS+
