Mass spectrum: Sulfamethoxazole; LC-ESI-QTOF; MS2; CE: Ramp 19.9-29.9 eV; R=35000; [M+H]+
Name: Sulfamethoxazole
Name: 4-amino-N-(5-methyl-1,2-oxazol-3-yl)benzenesulfonamide
Formula: C10H11N3O3S
Exact mass: 253.0521
SMILES: Cc1cc(no1)NS(=O)(=O)c2ccc(cc2)N
InChI: InChI=1S/C10H11N3O3S/c1-7-6-10(12-16-7)13-17(14,15)9-4-2-8(11)3-5-9/h2-6H,11H2,1H3,(H,12,13)
Instrument: Bruker maXis Impact
Instrument type: LC-ESI-QTOF
Ms type: MS2
Ion mode: POSITIVE
Ionization: ESI
Fragmentation mode: CID
Collision energy: Ramp 19.9-29.9 eV
Resolution: 35000
Column name: Acclaim RSLC C18 2.2um, 2.1x100mm, Thermo
Retention time: 4.7 min
Base peak: 254.0607
Precursor m/z: 254.0594
Precursor type: [M+H]+
m/z	relative intensity	assigned
53.0385	7	C4H5+
54.0335	6	C3H4N+
55.0173	10	C3H3O+
59.0491	5	C3H7O+
60.0554	8	CH6N3+
65.0382	79	C5H5+
66.0421	5	H6N2O2+
67.0413	5	C4H5N+
68.049	181	C4H6N+
69.0331	10	C4H5O+
72.0439	12	C3H6NO+
78.0338	19	C5H4N+
79.0173	23	C5H3O+
80.0498	15	C5H6N+
92.0496	190	C6H6N+
93.0575	205	C6H7N+
94.0648	23	C6H8N+
96.0448	13	C5H6NO+
99.0562	159	C4H7N2O+
100.0585	8	C2H6N5+
107.0613	12	C6H7N2+
108.046	308	C6H6NO+
109.0488	29	CH7N3O3+
110.0605	84	C6H8NO+
111.0648	10	CH9N3O3+
119.0609	7	C7H7N2+
120.0562	37	H12N2O3S+
131.0597	8	C8H7N2+
132.0682	9	C8H8N2+
133.0628	7	C7H7N3+
146.071	66	C8H8N3+
147.0791	192	C8H9N3+
148.0864	52	C8H10N3+
156.0119	999	C6H6NO2S+
157.0146	90	C9H3NO2+
158.0078	49	C9H4NS+
160.0873	208	C9H10N3+
161.0015	20	C4H5N2O3S+
161.0911	25	C9H11N3+
172.087	5	C10H10N3+
173.0594	7	C9H7N3O+
174.0211	11	C6H8NO3S+
176.0288	13	C10H8OS+
188.0822	135	C10H10N3O+
189.0855	12	C10H11N3O+
190.0981	33	C10H12N3O+
194.0379	31	C8H8N3OS+
254.0603	259	C10H12N3O3S+
255.0624	25	C9H11N4O3S+
256.0566	9	C10H12N2O4S+
