Mass spectrum: Idaverine; LC-ESI-QTOF; MS2; CE: 50 eV; R=35000; [M+H]+
Name: Idaverine
Name: 1-[4-[ethyl-[(2S)-1-(4-methoxyphenyl)propan-2-yl]amino]butanoyl]-N,N-dimethylpiperidine-4-carboxamide
Formula: C24H39N3O3
Exact mass: 417.2991421
SMILES: CCN(CCCC(=O)N1CCC(CC1)C(=O)N(C)C)[C@@H](C)CC2=CC=C(C=C2)OC
InChI: InChI=1S/C24H39N3O3/c1-6-26(19(2)18-20-9-11-22(30-5)12-10-20)15-7-8-23(28)27-16-13-21(14-17-27)24(29)25(3)4/h9-12,19,21H,6-8,13-18H2,1-5H3/t19-/m0/s1
Instrument: Bruker maXis Impact
Instrument type: LC-ESI-QTOF
Ms type: MS2
Ion mode: POSITIVE
Ionization: ESI
Fragmentation mode: CID
Collision energy: 50 eV
Resolution: 35000
Column name: Acclaim RSLC C18 2.2um, 2.1x100mm, Thermo
Retention time: 13.3 min
Base peak: 404.2425
Precursor m/z: 418.3064
Precursor type: [M+H]+
m/z	relative intensity	assigned
148.0377	85	C8H6NO2+
160.0388	67	C9H6NO2+
176.0333	108	C9H6NO3+
203.021	54	C13H3N2O+
204.0287	508	C13H4N2O+
205.0317	64	C14H5O2+
206.0452	114	C13H6N2O+
221.032	100	C13H5N2O2+
222.0392	999	C13H6N2O2+
223.0427	97	C12[13]CH6N2O2+
232.0601	173	C15H8N2O+
233.0624	33	C16H9O2+
234.039	49	C14H6N2O2+
234.077	40	C15H10N2O+
242.178	33	C16H22N2+
250.0711	505	C15H10N2O2+
251.0748	91	C14[13]CH10N2O2+
391.2313	34	C24H29N3O2+
