Mass spectrum: Prochloraz BTS44596; LC-ESI-QTOF; MS2; CE: 30 eV; R=35000; [M+H]+
Name: Prochloraz BTS44596
Name: N-[propyl-[2-(2,4,6-trichlorophenoxy)ethyl]carbamoyl]formamide
Formula: C13H15Cl3N2O3
Exact mass: 352.0148254
SMILES: CCCN(CCOC1=C(Cl)C=C(Cl)C=C1Cl)C(=O)NC=O
InChI: InChI=1S/C13H15Cl3N2O3/c1-2-3-18(13(20)17-8-19)4-5-21-12-10(15)6-9(14)7-11(12)16/h6-8H,2-5H2,1H3,(H,17,19,20)
Instrument: Bruker maXis Impact
Instrument type: LC-ESI-QTOF
Ms type: MS2
Ion mode: POSITIVE
Ionization: ESI
Fragmentation mode: CID
Collision energy: 30 eV
Resolution: 35000
Column name: Acclaim RSLC C18 2.2um, 2.1x100mm, Thermo
Retention time: 11.114 min
Base peak: 353.0213
Precursor m/z: 353.0221
Precursor type: [M+H]+
m/z	relative intensity	assigned
129.1	63	C6H13N2O+
157.098	25	C7H13N2O2+
158.9741	42	CH10Cl3O2+
159.9821	22	CH11Cl3O2+
160.9719	36	CH10Cl2[37]ClO2+
166.0043	56	C2H10Cl2NO3+
166.9204	28	C5H2Cl3+
167.012	92	C11H3O2+
168.0002	23	C2H10Cl[37]ClNO3+
168.9198	22	C5H2Cl2[37]Cl+
173.9849	98	C10H3ClO+
174.9698	285	C8ClN2O+
175.9777	37	C8HClN2O+
175.9849	31	C10H3[37]ClO+
176.9663	146	C8[37]ClN2O+
179.9277	31	C6H3Cl3+
186.9708	23	C8H5Cl2O+
187.9767	38	C2H11Cl3O3+
194.9149	400	C6H2Cl3O+
194.9527	39	C7H6Cl3+
195.918	37	C5[13]CH2Cl3O+
196.9126	422	C6H2Cl2[37]ClO+
196.9309	93	C6H4Cl3O+
198.9282	82	C6H4Cl2[37]ClO+
201.981	402	C8H6Cl2NO+
202.9865	74	C2H12Cl3NO3+
203.9786	230	C8H6Cl[37]ClNO+
204.9849	25	C5H10Cl3NO+
206.9342	21	C5HCl2N2O3+
208.0516	42	C11H11ClNO+
209.0585	102	C11H12ClNO+
219.9916	61	C11H5ClO3+
222.9461	808	C9HCl2N2O+
223.9491	81	C8[13]CHCl2N2O+
224.9438	666	C9HCl[37]ClN2O+
225.9508	45	C6H5Cl3N2O+
237.9574	161	C11H4Cl2O2+
238.9618	23	C10[13]CH4Cl2O2+
239.9555	140	C11H4Cl[37]ClO2+
239.9717	83	C8H9Cl3NO+
241.9702	90	C8H9Cl2[37]ClNO+
244.0275	315	C11H12Cl2NO+
245.0354	219	C11H13Cl2NO+
246.0254	143	C11H12Cl[37]ClNO+
247.0317	79	C11H13Cl[37]ClNO+
265.9526	444	C9H7Cl3NO2+
266.9573	71	C8[13]CH7Cl3NO2+
267.9495	517	C9H7Cl2[37]ClNO2+
268.95	36	C10H3Cl2N2O3+
280.0051	294	C11H13Cl3NO+
281.0092	34	C10[13]CH13Cl3NO+
282.002	263	C11H13Cl2[37]ClNO+
283.0063	26	C11H14Cl3O2+
283.9622	25	C9H9Cl3NO3+
285.9605	47	C12H7Cl3NO+
308	999	C12H13Cl3NO2+
309.0035	154	C11[13]CH13Cl3NO2+
309.9968	840	C12H13Cl2[37]ClNO2+
310.9979	103	C13H9Cl2N2O3+
