Mass spectrum: Fenfluramine; LC-ESI-QTOF; MS2; CE: 10 eV; R=35000; [M+H]+
Name: Fenfluramine
Name: N-ethyl-1-[3-(trifluoromethyl)phenyl]propan-2-amine
Formula: C12H16F3N
Exact mass: 231.1234842
SMILES: CCNC(C)CC1=CC(=CC=C1)C(F)(F)F
InChI: InChI=1S/C12H16F3N/c1-3-16-9(2)7-10-5-4-6-11(8-10)12(13,14)15/h4-6,8-9,16H,3,7H2,1-2H3
Instrument: Bruker maXis Impact
Instrument type: LC-ESI-QTOF
Ms type: MS2
Ion mode: POSITIVE
Ionization: ESI
Fragmentation mode: CID
Collision energy: 10 eV
Resolution: 35000
Column name: Acclaim RSLC C18 2.2um, 2.1x100mm, Thermo
Retention time: 6.2 min
Base peak: 232.1304
Precursor m/z: 232.1308
Precursor type: [M+H]+
m/z	relative intensity	assigned
159.0409	44	C8H6F3+
160.0434	3	C7[13]CH6F3+
187.0721	40	C10H10F3+
188.0756	4	C9[13]CH10F3+
232.1306	999	C12H17F3N+
233.1337	97	C11[13]CH17F3N+
234.1364	6	C10[13]C2H17F3N+
