Mass spectrum: Pindolol; LC-ESI-QTOF; MS2; CE: 20 eV; R=35000; [M+H]+
Name: Pindolol
Name: 1-(1H-indol-4-yloxy)-3-(propan-2-ylamino)propan-2-ol
Formula: C14H20N2O2
Exact mass: 248.1524779
SMILES: CC(C)NCC(O)COC1=CC=CC2=C1C=CN2
InChI: InChI=1S/C14H20N2O2/c1-10(2)16-8-11(17)9-18-14-5-3-4-13-12(14)6-7-15-13/h3-7,10-11,15-17H,8-9H2,1-2H3
Instrument: Bruker maXis Impact
Instrument type: LC-ESI-QTOF
Ms type: MS2
Ion mode: POSITIVE
Ionization: ESI
Fragmentation mode: CID
Collision energy: 20 eV
Resolution: 35000
Column name: Acclaim RSLC C18 2.2um, 2.1x100mm, Thermo
Retention time: 3.784 min
Base peak: 249.1596
Precursor m/z: 249.1598
Precursor type: [M+H]+
m/z	relative intensity	assigned
116.1066	204	C6H14NO+
117.1096	14	C5[13]CH14NO+
118.0644	12	C8H8N+
130.0642	8	C9H8N+
132.0434	6	C8H6NO+
134.0591	75	C8H8NO+
135.0621	6	C7[13]CH8NO+
144.08	70	C10H10N+
145.0839	6	C9[13]CH10N+
146.0592	172	C9H8NO+
147.0621	14	C8[13]CH8NO+
156.0104	51	C9H2NO2+
157.0076	5	C13H+
160.0745	13	C10H10NO+
172.0749	401	C11H10NO+
173.078	43	C10[13]CH10NO+
184.0859	24	C13H12O+
207.112	28	C11H15N2O2+
249.1596	999	C14H21N2O2+
250.1625	116	C13[13]CH21N2O2+
251.1651	10	C12[13]C2H21N2O2+
