Mass spectrum: N,N,N`,N`-Tetrakis(2-hydroxyethyl)hexanediamide; LC-ESI-QTOF; MS2; CE: RAMP 20-30 eV; R=35000; [M+H]+
Name: N,N,N`,N`-Tetrakis(2-hydroxyethyl)hexanediamide
Formula: C14H28N2O6
Exact mass: 320.1947366
SMILES: C(CCC(=O)N(CCO)CCO)CC(=O)N(CCO)CCO
InChI: InChI=1S/C14H28N2O6/c17-9-5-15(6-10-18)13(21)3-1-2-4-14(22)16(7-11-19)8-12-20/h17-20H,1-12H2
Instrument: Bruker maXis Impact
Instrument type: LC-ESI-QTOF
Ms type: MS2
Ion mode: POSITIVE
Ionization: ESI
Fragmentation mode: CID
Collision energy: RAMP 20-30 eV
Resolution: 35000
Column name: Acclaim RSLC C18 2.2um, 2.1x100mm, Thermo
Retention time: 2.6 min
Base peak: 321.2016
Precursor m/z: 321.202
Precursor type: [M+H]+
m/z	relative intensity	assigned
55.0538	6	C4H7+
70.0648	78	C4H8N+
83.0492	8	C5H7O+
88.0761	409	C4H10NO+
89.08	22	C3[13]CH10NO+
106.0878	51	C4H12NO2+
127.0739	6	C7H11O2+
129.0556	11	C6H9O3+
154.0858	25	C8H12NO2+
154.1227	6	C9H16NO+
155.0707	61	C8H11O3+
156.0743	6	C3H12N2O5+
173.0808	129	C8H13O4+
174.1123	34	C8H16NO3+
175.1144	5	C12H15O+
188.1277	45	C9H18NO3+
198.1127	350	C10H16NO3+
199.1158	41	C9[13]CH16NO3+
216.1233	999	C10H18NO4+
217.1261	118	C14H17O2+
218.1289	13	C13[13]CH17O2+
234.1328	17	C10H20NO5+
260.1487	6	C12H22NO5+
303.1923	852	C14H27N2O5+
304.1951	131	C13[13]CH27N2O5+
305.1983	14	C13H27N3O5+
321.2024	78	C14H29N2O6+
