Mass spectrum: Perfluorooctane sulfonic acid (PFOS); LC-ESI-QTOF; MS2; CE: 40 eV; R=35000; [M-H]-
Name: Perfluorooctane sulfonic acid (PFOS)
Name: Perfluorooctanesulfonic acid
Name: 1,1,2,2,3,3,4,4,5,5,6,6,7,7,8,8,8-heptadecafluorooctane-1-sulfonic acid
Formula: C8HF17O3S
Exact mass: 499.9375
SMILES: C(C(C(C(C(F)(F)S(=O)(=O)O)(F)F)(F)F)(F)F)(C(C(C(F)(F)F)(F)F)(F)F)(F)F
InChI: InChI=1S/C8HF17O3S/c9-1(10,3(13,14)5(17,18)7(21,22)23)2(11,12)4(15,16)6(19,20)8(24,25)29(26,27)28/h(H,26,27,28)
Instrument: Bruker maXis Impact
Instrument type: LC-ESI-QTOF
Ms type: MS2
Ion mode: NEGATIVE
Ionization: ESI
Fragmentation mode: CID
Collision energy: 40 eV
Resolution: 35000
Column name: Acclaim RSLC C18 2.2um, 2.1x100mm, Thermo
Retention time: 10.415 min
Base peak: 498.9289
Precursor m/z: 498.9302
Precursor type: [M-H]-
m/z	relative intensity
498.9279	999
