Mass spectrum: Dibutyl sebacate; GC-APCI-QTOF; MS2; CE: 20 eV; R=35000; [M]+
Name: Dibutyl sebacate
Formula: C18H34O4
Exact mass: 314.2457
SMILES: CCCCOC(=O)CCCCCCCCC(=O)OCCCC
InChI: InChI=1S/C18H34O4/c1-3-5-15-21-17(19)13-11-9-7-8-10-12-14-18(20)22-16-6-4-2/h3-16H2,1-2H3
Instrument: Bruker 450 GC coupled to maXis Impact
Instrument type: GC-APCI-QTOF
Ms type: MS2
Ion mode: POSITIVE
Ionization: APCI
Fragmentation mode: CID
Collision energy: 20 eV
Resolution: 35000
Column name: Rxi-5Sil MS column, 30m, 0.25mm i.d., 0.25Âµm film thickness, Restek
Retention time: 17.731 min
Base peak: 285.279
Precursor m/z: 314.2452
Precursor type: [M]+
m/z	relative intensity	assigned
55.0182	7	C3H3O+
55.0553	70	C4H7+
57.0703	999	C4H9+
59.0482	7	C3H7O+
67.0543	139	C5H7+
69.0699	212	C5H9+
71.0854	897	C5H11+
73.0287	10	C3H5O2+
81.0695	209	C6H9+
83.0852	199	C6H11+
85.0645	27	C5H9O+
85.1005	470	C6H13+
87.0436	12	C4H7O2+
95.085	273	C7H11+
96.044	11	C2H8O4+
97.0652	9	C6H9O+
97.1014	71	C7H13+
99.0791	12	C6H11O+
99.1162	28	C7H15+
109.1008	112	C8H13+
110.0598	7	C3H10O4+
111.0784	8	C7H11O+
111.1157	15	C8H15+
113.1334	10	C8H17+
119.0862	11	C9H11+
121.1011	43	C9H13+
123.1168	296	C9H15+
124.1216	24	C9H16+
125.0952	16	C8H13O+
125.1331	16	C9H17+
127.0765	12	C7H11O2+
127.1133	12	C8H15O+
127.1493	11	C9H19+
129.0899	10	C7H13O2+
131.0887	11	C10H11+
133.1018	12	C10H13+
135.0808	10	C9H11O+
135.1173	96	C10H15+
137.0955	16	C9H13O+
137.1323	195	C10H17+
138.0908	11	C5H14O4+
138.1373	13	C10H18+
139.1107	18	C9H15O+
139.1475	22	C10H19+
141.0901	16	C8H13O2+
141.1267	16	C9H17O+
141.1633	14	C10H21+
145.1024	7	C11H13+
147.116	7	C11H15+
149.0961	10	C10H13O+
149.1313	75	C11H17+
151.0733	7	C9H11O2+
151.1097	12	C10H15O+
151.147	88	C11H19+
153.0925	10	C9H13O2+
153.1282	13	C10H17O+
153.1629	8	C11H21+
155.1073	9	C9H15O2+
155.1416	10	C10H19O+
155.178	11	C11H23+
157.1021	8	C12H13+
157.1207	29	C9H17O2+
161.1332	11	C12H17+
163.1095	12	C11H15O+
163.1461	41	C12H19+
164.1536	10	C12H20+
165.125	11	C11H17O+
165.1625	70	C12H21+
167.1424	16	C11H19O+
169.1218	22	C10H17O2+
169.1582	13	C11H21O+
171.1405	12	C10H19O2+
173.1335	12	C13H17+
177.1274	11	C12H17O+
177.1648	11	C13H21+
179.1408	11	C12H19O+
179.179	36	C13H23+
181.1605	18	C12H21O+
183.1377	22	C11H19O2+
183.1724	7	C12H23O+
187.1483	11	C14H19+
189.1642	13	C14H21+
193.1596	10	C13H21O+
195.1735	10	C13H23O+
197.1537	15	C12H21O2+
203.1791	28	C15H23+
203.1962	9	C12H27O2+
211.1707	19	C13H23O2+
219.2115	100	C16H27+
220.2007	7	C12H28O3+
220.2185	16	C16H28+
221.1912	18	C15H25O+
221.2285	84	C16H29+
221.2489	8	C13H33O2+
222.2238	28	C12H30O3+
223.2273	10	C12H31O3+
224.2387	8	C12H32O3+
225.1854	16	C14H25O2+
231.18	10	C16H23O+
235.2109	8	C16H27O+
237.2223	56	C16H29O+
238.2165	7	C12H30O4+
238.2277	12	C16H30O+
239.2384	610	C16H31O+
240.2422	111	C16H32O+
241.2169	10	C15H29O2+
249.1856	59	C16H25O2+
250.1925	13	C16H26O2+
250.2197	46	C13H30O4+
251.2239	11	C13H31O4+
257.2501	77	C16H33O2+
258.255	16	C16H34O2+
267.1972	68	C16H27O3+
295.2274	10	C18H31O3+
