Mass spectrum: Desacetyldiltiazem; LC-ESI-QTOF; MS2; CE: 10 eV; R=35000; [M+H]+
Name: Desacetyldiltiazem
Name: (2S,3S)-5-[2-(dimethylamino)ethyl]-3-hydroxy-2-(4-methoxyphenyl)-2,3-dihydro-1,5-benzothiazepin-4-one
Formula: C20H24N2O3S
Exact mass: 372.1507636
SMILES: CN(C)CCN1c2ccccc2S[C@H]([C@H](C1=O)O)c3ccc(cc3)OC
InChI: InChI=1S/C20H24N2O3S/c1-21(2)12-13-22-16-6-4-5-7-17(16)26-19(18(23)20(22)24)14-8-10-15(25-3)11-9-14/h4-11,18-19,23H,12-13H2,1-3H3/t18-,19+/m1/s1
Instrument: Bruker maXis Impact
Instrument type: LC-ESI-QTOF
Ms type: MS2
Ion mode: POSITIVE
Ionization: ESI
Fragmentation mode: CID
Collision energy: 10 eV
Resolution: 35000
Column name: Acclaim RSLC C18 2.2um, 2.1x100mm, Thermo
Retention time: 6.266 min
Base peak: 373.1584
Precursor m/z: 373.158
Precursor type: [M+H]+
m/z	relative intensity	assigned
178.0309	38	C9H8NOS+
223.089	5	C11H15N2OS+
328.0995	15	C18H18NO3S+
372.1579	26	C20H24N2O3S+
373.1587	999	C20H25N2O3S+
374.1608	315	C19[13]CH25N2O3S+
375.1579	61	C20H25N2O3[34]S+
