Mass spectrum: Carbamazepine-10,11-epoxide; LC-ESI-QTOF; MS2; CE: 50 eV; R=35000; [M+H]+
Name: Carbamazepine-10,11-epoxide
Name: Carbamazepine epoxide
Formula: C15H12N2O2
Exact mass: 252.0898776
SMILES: NC(=O)N1C2=C(C=CC=C2)C2OC2C2=C1C=CC=C2
InChI: InChI=1S/C15H12N2O2/c16-15(18)17-11-7-3-1-5-9(11)13-14(19-13)10-6-2-4-8-12(10)17/h1-8,13-14H,(H2,16,18)
Instrument: Bruker maXis Impact
Instrument type: LC-ESI-QTOF
Ms type: MS2
Ion mode: POSITIVE
Ionization: ESI
Fragmentation mode: CID
Collision energy: 50 eV
Resolution: 35000
Column name: Acclaim RSLC C18 2.2um, 2.1x100mm, Thermo
Retention time: 5.9 min
Base peak: 253.0972
Precursor m/z: 253.0972
Precursor type: [M+H]+
m/z	relative intensity	assigned
128.0485	6	C9H6N+
151.0535	5	C12H7+
152.0611	63	C12H8+
154.065	5	C11H8N+
167.072	102	C12H9N+
168.0753	13	C7H10N3O2+
180.0801	999	C13H10N+
181.0829	90	C12[13]CH10N+
