Mass spectrum: Fenthion-sulfoxide; LC-ESI-QTOF; MS2; CE: 50 eV; R=35000; [M+H]+
Name: Fenthion-sulfoxide
Formula: C10H15O4PS2
Exact mass: 294.0149376
SMILES: Cc1cc(ccc1S(=O)C)OP(=S)(OC)OC
InChI: InChI=1S/C10H15O4PS2/c1-8-7-9(5-6-10(8)17(4)11)14-15(16,12-2)13-3/h5-7H,1-4H3
Instrument: Bruker maXis Impact
Instrument type: LC-ESI-QTOF
Ms type: MS2
Ion mode: POSITIVE
Ionization: ESI
Fragmentation mode: CID
Collision energy: 50 eV
Resolution: 35000
Column name: Acclaim RSLC C18 2.2um, 2.1x100mm, Thermo
Retention time: 7.2 min
Base peak: 295.0218
Precursor m/z: 295.0222
Precursor type: [M+H]+
m/z	relative intensity	assigned
109.0064	55	C9H+
110.0178	27	C6H6S+
121.0095	388	C7H5S+
121.065	33	C8H9O+
122.0176	148	C7H6S+
122.0728	30	C8H10O+
123.0062	31	H12OPS2+
123.0248	123	H12O3PS+
124.0339	39	C7H8S+
124.9809	744	C2H6O2PS+
125.0408	54	C7H9S+
125.9849	36	C5H3O2P+
126.0124	48	C6H6OS+
126.9698	28	C5H3S2+
126.9764	62	C5H4PS+
127.0156	71	C2H8O4P+
134.017	52	CH11O3PS+
135.0253	195	C8H7S+
135.9955	60	H9O4PS+
136.0324	108	CH13O3PS+
137.0045	213	C7H5OS+
137.0409	67	C8H9S+
138.013	75	C7H6OS+
138.0461	30	CH15O3PS+
138.9743	28	C9P+
139.0203	77	C7H7OS+
140.9821	180	C6H5S2+
141.9886	84	C9H2S+
142.9766	24	C2H8OPS2+
142.9916	349	C2H8O3PS+
151.0558	74	C2H16O3PS+
151.9749	51	C7H4S2+
152.9815	999	H10O3PS2+
153.0359	55	C8H9OS+
153.9883	318	H11O3PS2+
154.0413	39	CH15O4PS+
154.9751	126	H10O3PS[34]S+
154.9962	71	H12O3PS2+
155.0138	37	C10H3O2+
155.9862	30	C6H4O3S+
166.9973	31	C8H7S2+
167.9782	86	C7H5OPS+
168.0048	30	CH13O3PS2+
169.0127	426	CH14O3PS2+
169.9879	170	C7H6OS2+
170.0179	77	CH15O3PS2+
170.9909	78	H12O4PS2+
171.0098	43	C7H7O3S+
184.9812	60	C7H6O2PS+
185.9889	33	C7H7O2PS+
186.942	24	C6H4OPS2+
198.9435	100	C7H4OPS2+
198.9967	30	C8H8O2PS+
199.0498	40	C9H12O3P+
200.0041	201	C8H9O2PS+
200.9599	43	C7H6OPS2+
201.0101	28	C8H10O2PS+
202.9928	73	C7H8O3PS+
213.0109	41	C9H10O2PS+
214.9386	26	C7H4O2PS2+
215.9467	37	C7H5O2PS2+
217.007	36	C8H10O3PS+
230.9686	48	C8H8O2PS2+
231.0228	24	C9H12O3PS+
262.9948	48	C9H12O3PS2+
