Mass spectrum: Propyzamide; LC-ESI-QTOF; MS2; CE: 50 eV; R=35000; [M+H]+
Name: Propyzamide
Name: 3,5-dichloro-N-(2-methylbut-3-yn-2-yl)benzamide
Formula: C12H11Cl2NO
Exact mass: 255.0217693
SMILES: CC(C)(NC(=O)C1=CC(Cl)=CC(Cl)=C1)C#C
InChI: InChI=1S/C12H11Cl2NO/c1-4-12(2,3)15-11(16)8-5-9(13)7-10(14)6-8/h1,5-7H,2-3H3,(H,15,16)
Instrument: Bruker maXis Impact
Instrument type: LC-ESI-QTOF
Ms type: MS2
Ion mode: POSITIVE
Ionization: ESI
Fragmentation mode: CID
Collision energy: 50 eV
Resolution: 35000
Column name: Acclaim RSLC C18 2.2um, 2.1x100mm, Thermo
Retention time: 9.726 min
Base peak: 256.0285
Precursor m/z: 256.029
Precursor type: [M+H]+
m/z	relative intensity	assigned
108.9833	12	C6H2Cl+
110.9807	5	C6H2[37]Cl+
120.9599	6	C4H3Cl2+
126.9938	34	C6H4ClO+
128.0012	41	C6H5ClO+
128.9918	6	C6H4[37]ClO+
129.9983	6	C6H5[37]ClO+
132.08	7	C9H10N+
144.9592	167	C6H3Cl2+
145.962	13	C5[13]CH3Cl2+
146.9565	99	C6H3Cl[37]Cl+
146.9726	8	C6H5Cl2+
162.9698	122	C6H5Cl2O+
163.9729	9	C5[13]CH5Cl2O+
164.9672	65	C6H5Cl[37]ClO+
171.9698	17	C10HClO+
172.9652	999	C9ClNO+
173.968	81	C8[13]CClNO+
174.962	541	C9[37]ClNO+
175.9648	25	C6H4Cl2NO+
189.9817	9	C7H6Cl2NO+
190.9993	6	C8H9Cl2O+
227.0212	33	C11H11Cl2N+
228.0249	5	C10[13]CH11Cl2N+
