Mass spectrum: Fludrocortisone acetate; LC-ESI-QTOF; MS2; CE: 50 eV; R=35000; [M+H]+
Name: Fludrocortisone acetate
Name: [2-[(8S,9R,10S,11S,13S,14S,17R)-9-fluoro-11,17-dihydroxy-10,13-dimethyl-3-oxo-1,2,6,7,8,11,12,14,15,16-decahydrocyclopenta[a]phenanthren-17-yl]-2-oxoethyl] acetate
Formula: C23H31FO6
Exact mass: 422.2104669
SMILES: CC(=O)OCC(=O)[C@]1(CC[C@@H]2[C@@]1(C[C@@H]([C@]3([C@H]2CCC4=CC(=O)CC[C@@]43C)F)O)C)O
InChI: InChI=1S/C23H31FO6/c1-13(25)30-12-19(28)22(29)9-7-16-17-5-4-14-10-15(26)6-8-20(14,2)23(17,24)18(27)11-21(16,22)3/h10,16-18,27,29H,4-9,11-12H2,1-3H3/t16-,17-,18-,20-,21-,22-,23-/m0/s1
Instrument: Bruker maXis Impact
Instrument type: LC-ESI-QTOF
Ms type: MS2
Ion mode: POSITIVE
Ionization: ESI
Fragmentation mode: CID
Collision energy: 50 eV
Resolution: 35000
Column name: Acclaim RSLC C18 2.2um, 2.1x100mm, Thermo
Retention time: 8.650 min
Base peak: 347.2241
Precursor m/z: 423.2177
Precursor type: [M+H]+
m/z	relative intensity	assigned
115.0518	56	C9H7+
117.0707	152	C6H10FO+
119.0857	159	C9H11+
121.0652	295	C8H9O+
123.0798	185	C8H11O+
128.0633	215	C7H9FO+
129.0699	206	C10H9+
131.0861	383	C10H11+
133.0654	93	C6H10FO2+
133.1017	201	C10H13+
135.0811	220	C6H12FO2+
137.0609	82	C5H10FO3+
137.0956	55	C9H13O+
139.0772	59	C5H12FO3+
141.0696	150	C11H9+
142.0785	205	C8H11FO+
143.086	649	C11H11+
144.092	77	C11H12+
145.0667	139	C7H10FO2+
145.1022	438	C8H14FO+
146.0724	58	C10H10O+
147.0818	368	C7H12FO2+
148.087	75	C10H12O+
149.0959	128	C10H13O+
153.0736	71	C5H13O5+
154.0767	66	C12H10+
155.0861	235	C9H12FO+
156.093	113	C12H12+
157.064	71	C11H9O+
157.1014	473	C12H13+
158.1055	55	C12H14+
159.0808	279	C11H11O+
159.1187	158	C9H16FO+
160.0864	63	C11H12O+
161.0965	399	C11H13O+
162.1035	102	C11H14O+
163.0763	120	C7H12FO3+
163.0948	58	C7H15O4+
163.1117	253	C11H15O+
165.0705	112	C10H10FO+
166.0795	126	C10H11FO+
167.0851	156	C13H11+
168.0948	113	C10H13FO+
169.1015	445	C13H13+
170.1059	80	C13H14+
171.0809	138	C12H11O+
171.118	285	C10H16FO+
172.0858	62	C12H12O+
173.096	297	C12H13O+
174.1	118	C12H14O+
175.1124	161	C9H16FO2+
177.0918	76	C8H14FO3+
179.0859	184	C14H11+
180.0934	147	C14H12+
181.1026	999	C11H14FO+
182.1077	262	C14H14+
183.0807	93	C13H11O+
183.117	410	C14H15+
184.1236	96	C14H16+
185.0965	223	C13H13O+
185.1329	140	C14H17+
186.1019	78	C13H14O+
187.1129	127	C10H16FO2+
189.0915	296	C12H13O2+
191.0845	81	C15H11+
193.1021	176	C12H14FO+
194.1067	66	C15H14+
195.0816	92	C11H12FO2+
195.1185	380	C12H16FO+
196.1236	180	C15H16+
197.0975	175	C11H14FO2+
197.1339	529	C12H18FO+
198.1374	100	C15H18+
199.1127	277	C11H16FO2+
199.1471	171	C15H19+
200.1203	58	C11H17FO2+
201.1297	92	C11H18FO2+
203.1087	63	C10H16FO3+
203.1452	60	C11H20FO2+
204.0939	55	C16H12+
205.1021	165	C13H14FO+
206.1106	154	C13H15FO+
207.1182	298	C13H16FO+
208.1239	87	C16H16+
209.0955	115	C15H13O+
209.1332	277	C13H18FO+
210.1074	59	C8H18O6+
210.138	59	C16H18+
211.1131	240	C12H16FO2+
211.1474	187	C16H19+
212.1201	77	C15H16O+
212.1522	55	C16H20+
213.1283	225	C12H18FO2+
213.1653	63	C13H22FO+
215.145	78	C12H20FO2+
217.1013	91	C17H13+
218.1091	67	C17H14+
219.1172	103	C17H15+
220.1253	66	C14H17FO+
221.134	223	C14H18FO+
222.1012	55	C16H14O+
222.1389	78	C17H18+
223.1115	149	C16H15O+
223.1504	146	C14H20FO+
224.1216	112	C13H17FO2+
224.1538	97	C17H20+
225.1277	229	C16H17O+
225.163	75	C17H21+
226.1382	117	C13H19FO2+
227.1453	128	C13H20FO2+
231.12	96	C15H16FO+
232.1244	133	C18H16+
233.1353	82	C15H18FO+
235.1504	122	C15H20FO+
237.1261	141	C17H17O+
237.1644	89	C15H22FO+
238.1368	74	C14H19FO2+
239.1452	513	C14H20FO2+
240.1489	135	C17H20O+
241.1577	137	C17H21O+
243.1388	96	C13H20FO3+
246.1443	86	C12H22O5+
247.1506	113	C16H20FO+
248.1561	58	C19H20+
249.1253	57	C18H17O+
249.1667	78	C16H22FO+
250.14	59	C11H22O6+
251.145	149	C15H20FO2+
252.1489	118	C18H20O+
255.1768	66	C15H24FO2+
257.1545	82	C14H22FO3+
258.1611	127	C17H22O2+
261.1634	57	C20H21+
264.151	63	C19H20O+
265.1598	162	C16H22FO2+
266.1664	115	C19H22O+
267.1356	77	C18H19O2+
267.173	90	C19H23O+
269.155	194	C15H22FO3+
270.1566	79	C18H22O2+
279.1736	80	C20H23O+
282.1654	65	C16H23FO3+
283.17	87	C16H24FO3+
284.1789	273	C16H25FO3+
285.1806	65	C19H25O2+
295.1699	55	C17H24FO3+
299.1654	93	C16H24FO4+
325.1826	82	C18H26FO4+
