Mass spectrum: N-Desmethyl Clarithromycin; LC-ESI-QTOF; MS2; CE: 40 eV; R=35000; [M+H]+
Name: N-Desmethyl Clarithromycin
Name: 14-ethyl-12,13-dihydroxy-4-(5-hydroxy-4-methoxy-4,6-dimethyloxan-2-yl)oxy-6-[3-hydroxy-6-methyl-4-(methylamino)oxan-2-yl]oxy-7-methoxy-3,5,7,9,11,13-hexamethyl-oxacyclotetradecane-2,10-dione
Formula: C37H67NO13
Exact mass: 733.4612412
SMILES: CCC1OC(=O)C(C)C(OC2CC(C)(OC)C(O)C(C)O2)C(C)C(OC2OC(C)CC(NC)C2O)C(C)(CC(C)C(=O)C(C)C(O)C1(C)O)OC
InChI: InChI=1S/C37H67NO13/c1-14-25-37(10,44)30(41)20(4)27(39)18(2)16-36(9,46-13)32(51-34-28(40)24(38-11)15-19(3)47-34)21(5)29(22(6)33(43)49-25)50-26-17-35(8,45-12)31(42)23(7)48-26/h18-26,28-32,34,38,40-42,44H,14-17H2,1-13H3
Instrument: Bruker maXis Impact
Instrument type: LC-ESI-QTOF
Ms type: MS2
Ion mode: POSITIVE
Ionization: ESI
Fragmentation mode: CID
Collision energy: 40 eV
Resolution: 35000
Column name: Acclaim RSLC C18 2.2um, 2.1x100mm, Thermo
Retention time: 9.2 min
Base peak: 429.2397
Precursor m/z: 734.4685
Precursor type: [M+H]+
m/z	relative intensity	assigned
123.0794	11	C8H11O+
144.1011	999	C7H14NO2+
145.1039	66	C6[13]CH14NO2+
146.1058	6	C5[13]C2H14NO2+
159.1005	7	C8H15O3+
170.1164	18	C9H16NO2+
251.1632	5	H29NO13+
270.1697	5	C14H24NO4+
289.1793	15	C3H31NO13+
302.1971	12	C15H28NO5+
307.1899	27	C18H27O4+
308.1932	6	C17[13]CH27O4+
325.2024	6	C21H27NO2+
365.2321	28	C21H33O5+
366.2341	8	C20[13]CH33O5+
383.2426	7	C21H35O6+
576.375	5	C29H54NO10+
602.3896	6	C31H56NO10+
