Mass spectrum: Dimethenamid-OA; LC-ESI-QTOF; MS2; CE: 40 eV; R=35000; [M+H]+
Name: Dimethenamid-OA
Name: [(2,4-Dimethylthiophen-3-yl)(1-methoxypropan-2-yl)amino](oxo)acetic acid
Name: 2-[(2,4-dimethylthiophen-3-yl)-(1-methoxypropan-2-yl)amino]-2-oxoacetic acid
Formula: C12H17NO4S
Exact mass: 271.0878290
SMILES: COCC(C)N(C(=O)C(O)=O)C1=C(C)SC=C1C
InChI: InChI=1S/C12H17NO4S/c1-7-6-18-9(3)10(7)13(8(2)5-17-4)11(14)12(15)16/h6,8H,5H2,1-4H3,(H,15,16)
Instrument: Bruker maXis Impact
Instrument type: LC-ESI-QTOF
Ms type: MS2
Ion mode: POSITIVE
Ionization: ESI
Fragmentation mode: CID
Collision energy: 40 eV
Resolution: 35000
Column name: Acclaim RSLC C18 2.2um, 2.1x100mm, Thermo
Retention time: 6.500 min
Base peak: 272.0938
Precursor m/z: 272.0951
Precursor type: [M+H]+
m/z	relative intensity	assigned
120.08	123	C8H10N+
123.0125	69	C6H5NS+
125.0416	97	C7H9S+
126.0356	999	C9H4N+
127.0218	63	C6H7OS+
127.0378	111	C8[13]CH4N+
128.0295	91	C6H8OS+
132.0785	77	C6H12O3+
133.0867	102	C6H13O3+
134.0952	130	C9H12N+
135.1036	102	C9H13N+
136.0199	89	C4H8O3S+
138.0352	570	C10H4N+
139.0208	61	C7H7OS+
139.0408	86	C9[13]CH4N+
150.035	98	C5H10O3S+
152.0141	148	C4H8O4S+
152.0513	284	C5H12O3S+
153.0232	81	C7H7NOS+
153.0589	144	C5H13O3S+
154.0304	297	C10H4NO+
155.0359	67	C9[13]CH4NO+
166.0663	82	C6H14O3S+
168.0823	189	C6H16O3S+
240.0718	101	C11H14NO3S+
