Mass spectrum: Diuron-desmonomethyl; LC-ESI-QTOF; MS2; CE: 40 eV; R=35000; [M-H]-
Name: Diuron-desmonomethyl
Name: Monomethyldiuron
Name: 1-(3,4-dichlorophenyl)-3-methylurea
Formula: C8H8Cl2N2O
Exact mass: 218.0013682
SMILES: CNC(=O)NC1=CC(Cl)=C(Cl)C=C1
InChI: InChI=1S/C8H8Cl2N2O/c1-11-8(13)12-5-2-3-6(9)7(10)4-5/h2-4H,1H3,(H2,11,12,13)
Instrument: Bruker maXis Impact
Instrument type: LC-ESI-QTOF
Ms type: MS2
Ion mode: NEGATIVE
Ionization: ESI
Fragmentation mode: CID
Collision energy: 40 eV
Resolution: 35000
Column name: Acclaim RSLC C18 2.2um, 2.1x100mm, Thermo
Retention time: 8.293 min
Base peak: 159.9711
Precursor m/z: 216.9941
Precursor type: [M-H]-
m/z	relative intensity	assigned
159.9707	999	C6H4Cl2N-
