Mass spectrum: Imatinib; LC-ESI-QTOF; MS2; CE: Ramp 25.5-38.2 eV; R=35000; [M+H]+
Name: Imatinib
Name: 4-[(4-methylpiperazin-1-yl)methyl]-N-[4-methyl-3-[(4-pyridin-3-ylpyrimidin-2-yl)amino]phenyl]benzamide
Formula: C29H31N7O
Exact mass: 493.2590086
SMILES: CN1CCN(CC2=CC=C(C=C2)C(=O)NC2=CC(NC3=NC=CC(=N3)C3=CN=CC=C3)=C(C)C=C2)CC1
InChI: InChI=1S/C29H31N7O/c1-21-5-10-25(18-27(21)34-29-31-13-11-26(33-29)24-4-3-12-30-19-24)32-28(37)23-8-6-22(7-9-23)20-36-16-14-35(2)15-17-36/h3-13,18-19H,14-17,20H2,1-2H3,(H,32,37)(H,31,33,34)
Instrument: Bruker maXis Impact
Instrument type: LC-ESI-QTOF
Ms type: MS2
Ion mode: POSITIVE
Ionization: ESI
Fragmentation mode: CID
Collision energy: Ramp 25.5-38.2 eV
Resolution: 35000
Column name: Acclaim RSLC C18 2.2um, 2.1x100mm, Thermo
Retention time: 6.616 min
Base peak: 247.6362
Precursor m/z: 494.2663
Precursor type: [M+H]+
m/z	relative intensity	assigned
56.0489	6	C3H6N+
58.0647	9	C3H8N+
70.0643	12	C4H8N+
99.0916	17	C5H11N2+
119.0484	5	C6H5N3+
131.0593	6	C8H7N2+
174.0901	7	C9H10N4+
189.1367	16	C12H17N2+
217.1324	212	C11H15N5+
218.1354	29	C10[13]CH15N5+
221.1057	8	C15H13N2+
222.0908	38	C15H12NO+
223.0968	11	C13H11N4+
247.0847	10	C14H9N5+
264.1136	15	C16H14N3O+
265.0968	19	C14H11N5O+
290.1271	14	C16H14N6+
351.1589	8	C23H19N4+
366.1715	9	C23H20N5+
376.1537	8	C24H18N5+
377.1402	13	C24H17N4O+
378.137	6	C23H16N5O+
379.1421	26	C23H17N5O+
380.1448	7	C22[13]CH17N5O+
394.1663	999	C24H20N5O+
395.1689	261	C23[13]CH20N5O+
396.1733	41	C22[13]C2H20N5O+
476.258	20	C29H30N7+
477.2555	6	C28[13]CH30N7+
494.266	577	C29H32N7O+
495.2688	219	C28[13]CH32N7O+
496.2705	30	C27[13]C2H32N7O+
