Mass spectrum: Caffeine; LC-ESI-QTOF; MS2; CE: 10 eV; R=35000; [M+H]+
Name: Caffeine
Name: 1,3,7-trimethylpurine-2,6-dione
Formula: C8H10N4O2
Exact mass: 194.0803756
SMILES: CN1C=NC2=C1C(=O)N(C)C(=O)N2C
InChI: InChI=1S/C8H10N4O2/c1-10-4-9-6-5(10)7(13)12(3)8(14)11(6)2/h4H,1-3H3
Instrument: Bruker maXis Impact
Instrument type: LC-ESI-QTOF
Ms type: MS2
Ion mode: POSITIVE
Ionization: ESI
Fragmentation mode: CID
Collision energy: 10 eV
Resolution: 35000
Column name: Acclaim RSLC C18 2.2um, 2.1x100mm, Thermo
Retention time: 3.075 min
Base peak: 315.1479
Precursor m/z: 195.0877
Precursor type: [M+H]+
m/z	relative intensity	assigned
133.0844	999	C4H11N3O2+
151.0947	259	C7H11N4+
