Mass spectrum: Acenapthene; GC-APCI-QTOF; MS2; CE: 40 eV; R=35000; [M]+
Name: Acenapthene
Name: Acenaphthene
Name: 1,2-dihydroacenaphthylene
Formula: C12H10
Exact mass: 154.0783
SMILES: C1CC2=C3C1=CC=CC3=CC=C2
InChI: InChI=1S/C12H10/c1-3-9-4-2-6-11-8-7-10(5-1)12(9)11/h1-6H,7-8H2
Instrument: Bruker 450 GC coupled to maXis Impact
Instrument type: GC-APCI-QTOF
Ms type: MS2
Ion mode: POSITIVE
Ionization: APCI
Fragmentation mode: CID
Collision energy: 40 eV
Resolution: 35000
Column name: Rxi-5Sil MS column, 30m, 0.25mm i.d., 0.25Âµm film thickness (Restek)
Retention time: 12.227 min
Base peak: 154.0745
Precursor m/z: 154.0777
Precursor type: [M]+
m/z	relative intensity	assigned
51.0222	6	C4H3+
115.0539	54	C9H7+
126.0457	39	C10H6+
127.0532	83	C10H7+
128.0613	160	C10H8+
129.0677	39	C10H9+
139.0529	6	C11H7+
150.0435	23	C12H6+
152.059	999	C12H8+
153.0662	710	C12H9+
