Mass spectrum: Hydrocortisonacetate; LC-ESI-QTOF; MS2; CE: 20 eV; R=35000; [M+H]+
Name: Hydrocortisonacetate
Name: Hydrocortisone acetate
Name: [2-[(8S,9S,10R,11S,13S,14S,17R)-11,17-dihydroxy-10,13-dimethyl-3-oxo-2,6,7,8,9,11,12,14,15,16-decahydro-1H-cyclopenta[a]phenanthren-17-yl]-2-oxoethyl] acetate
Formula: C23H32O6
Exact mass: 404.2198887
SMILES: [H][C@@]12CC[C@](O)(C(=O)COC(C)=O)[C@@]1(C)C[C@H](O)[C@@]1([H])[C@@]2([H])CCC2=CC(=O)CC[C@]12C
InChI: InChI=1S/C23H32O6/c1-13(24)29-12-19(27)23(28)9-7-17-16-5-4-14-10-15(25)6-8-21(14,2)20(16)18(26)11-22(17,23)3/h10,16-18,20,26,28H,4-9,11-12H2,1-3H3/t16-,17-,18-,20+,21-,22-,23-/m0/s1
Instrument: Bruker maXis Impact
Instrument type: LC-ESI-QTOF
Ms type: MS2
Ion mode: POSITIVE
Ionization: ESI
Fragmentation mode: CID
Collision energy: 20 eV
Resolution: 35000
Column name: Acclaim RSLC C18 2.2um, 2.1x100mm, Thermo
Retention time: 8.790 min
Base peak: 453.2078
Precursor m/z: 405.2272
Precursor type: [M+H]+
m/z	relative intensity	assigned
119.0853	22	C9H11+
121.0645	65	C8H9O+
123.0803	16	C8H11O+
135.0782	22	C9H11O+
143.0866	18	C11H11+
145.1005	15	C11H13+
147.079	37	C10H11O+
147.1156	16	C11H15+
149.0934	16	C10H13O+
157.1003	24	C12H13+
159.0806	25	C11H11O+
159.1146	25	C12H15+
161.095	27	C11H13O+
163.1099	36	C11H15O+
169.1006	32	C13H13+
171.1156	16	C13H15+
173.0958	21	C12H13O+
175.1112	20	C12H15O+
183.116	19	C14H15+
185.0953	13	C13H13O+
185.1291	29	C14H17+
187.1111	69	C13H15O+
195.1173	15	C15H15+
199.1086	22	C14H15O+
201.1255	34	C14H17O+
207.1147	16	C16H15+
209.1315	15	C16H17+
213.1274	34	C15H17O+
215.1415	30	C15H19O+
219.1371	14	C14H19O2+
221.1321	13	C17H17+
223.1476	23	C17H19+
225.1274	41	C16H17O+
227.1428	26	C16H19O+
229.1589	29	C16H21O+
231.1356	36	C15H19O2+
239.1423	75	C17H19O+
241.1576	166	C17H21O+
242.1616	34	C16[13]CH21O+
243.1375	14	C16H19O2+
249.1655	24	C19H21+
251.1414	35	C18H19O+
263.1407	16	C19H19O+
263.178	17	C20H23+
265.16	20	C19H21O+
267.174	113	C19H23O+
268.1762	36	C18[13]CH23O+
269.1904	52	C19H25O+
273.1457	21	C17H21O3+
281.153	67	C19H21O2+
281.1885	76	C20H25O+
282.1535	18	C18[13]CH21O2+
282.1951	29	C19[13]CH25O+
285.1856	31	C19H25O2+
287.2	33	C19H27O2+
291.1729	133	C21H23O+
292.1782	39	C20[13]CH23O+
297.1868	42	C20H25O2+
299.2004	55	C20H27O2+
300.205	23	C20H28O2+
309.1845	570	C21H25O2+
310.1874	158	C20[13]CH25O2+
327.196	578	C21H27O3+
328.1974	163	C20[13]CH27O3+
329.1937	13	C17H29O6+
329.2041	24	C17H29O6+
345.2054	137	C21H29O4+
346.2095	31	C20[13]CH29O4+
369.2053	97	C23H29O4+
370.2122	28	C22[13]CH29O4+
387.2156	91	C23H31O5+
388.2159	28	C22[13]CH31O5+
405.2272	999	C23H33O6+
406.2306	326	C22[13]CH33O6+
407.234	46	C21[13]C2H33O6+
