Mass spectrum: Aspartame; LC-ESI-QTOF; MS2; CE: RAMP 21.4-32.1 eV; R=35000; [M+H]+
Name: Aspartame
Name: (3S)-3-amino-4-[[(2S)-1-methoxy-1-oxo-3-phenylpropan-2-yl]amino]-4-oxobutanoic acid
Formula: C14H18N2O5
Exact mass: 294.1215717
SMILES: COC(=O)[C@H](Cc1ccccc1)NC(=O)[C@H](CC(=O)O)N
InChI: InChI=1S/C14H18N2O5/c1-21-14(20)11(7-9-5-3-2-4-6-9)16-13(19)10(15)8-12(17)18/h2-6,10-11H,7-8,15H2,1H3,(H,16,19)(H,17,18)/t10-,11-/m0/s1
Instrument: Bruker maXis Impact
Instrument type: LC-ESI-QTOF
Ms type: MS2
Ion mode: POSITIVE
Ionization: ESI
Fragmentation mode: CID
Collision energy: RAMP 21.4-32.1 eV
Resolution: 35000
Column name: Acclaim RSLC C18 2.2um, 2.1x100mm, Thermo
Retention time: 5.131 min
Base peak: 79.0203
Precursor m/z: 295.1288
Precursor type: [M+H]+
m/z	relative intensity	assigned
88.0381	29	C3H6NO2+
120.0797	999	C8H10N+
121.0631	125	C8H9O+
121.0825	79	C7[13]CH10N+
130.0637	75	C6H10O3+
131.0497	42	C9H7O+
147.0902	41	C6H13NO3+
163.0738	73	C10H11O2+
164.0759	27	C5H12N2O4+
172.0744	68	C11H10NO+
175.0858	325	C10H11N2O+
176.0873	28	C11H12O2+
180.1011	669	C10H14NO2+
181.1037	53	C9[13]CH14NO2+
182.0596	43	C12H8NO+
190.0862	53	C11H12NO2+
200.0702	350	C12H10NO2+
201.073	65	C9H13O5+
217.0964	52	C12H13N2O2+
218.0864	29	C8H14N2O5+
235.1063	274	C12H15N2O3+
236.1146	53	C12H16N2O3+
260.091	77	C14H14NO4+
