Mass spectrum: Ambroxol; LC-ESI-QTOF; MS2; CE: 20 eV; R=35000; [M+H]+
Name: Ambroxol
Name: 4-[(2-amino-3,5-dibromophenyl)methylamino]cyclohexan-1-ol
Formula: C13H18Br2N2O
Exact mass: 375.9785874
SMILES: NC1=C(CNC2CCC(O)CC2)C=C(Br)C=C1Br
InChI: InChI=1S/C13H18Br2N2O/c14-9-5-8(13(16)12(15)6-9)7-17-10-1-3-11(18)4-2-10/h5-6,10-11,17-18H,1-4,7,16H2
Instrument: Bruker maXis Impact
Instrument type: LC-ESI-QTOF
Ms type: MS2
Ion mode: POSITIVE
Ionization: ESI
Fragmentation mode: CID
Collision energy: 20 eV
Resolution: 35000
Column name: Acclaim RSLC C18 2.2um, 2.1x100mm, Thermo
Retention time: 12.654 min
Base peak: 284.3302
Precursor m/z: 376.9859
Precursor type: [M+H]+
m/z	relative intensity	assigned
165.068	999	C13H9+
