Mass spectrum: Mirtazapine; LC-ESI-QTOF; MS2; CE: 30 eV; R=35000; [M+H]+
Name: Mirtazapine
Formula: C17H19N3
Exact mass: 265.1578976
SMILES: CN1CCN2C(C1)C1=C(CC3=C2N=CC=C3)C=CC=C1
InChI: InChI=1S/C17H19N3/c1-19-9-10-20-16(12-19)15-7-3-2-5-13(15)11-14-6-4-8-18-17(14)20/h2-8,16H,9-12H2,1H3
Instrument: Bruker maXis Impact
Instrument type: LC-ESI-QTOF
Ms type: MS2
Ion mode: POSITIVE
Ionization: ESI
Fragmentation mode: CID
Collision energy: 30 eV
Resolution: 35000
Column name: Acclaim RSLC C18 2.2um, 2.1x100mm, Thermo
Retention time: 5.5 min
Base peak: 266.1647
Precursor m/z: 266.1652
Precursor type: [M+H]+
m/z	relative intensity	assigned
195.0908	999	C13H11N2+
197.0971	6	C11[13]C2H11N2+
209.1063	120	C14H13N2+
266.1643	35	C17H20N3+
