Mass spectrum: Genistein; LC-ESI-QTOF; MS2; CE: 40 eV; R=35000; [M+H]+
Name: Genistein
Name: 5,7-dihydroxy-3-(4-hydroxyphenyl)chromen-4-one
Formula: C15H10O5
Exact mass: 270.0528234
SMILES: OC1=CC=C(C=C1)C1=COC2=CC(O)=CC(O)=C2C1=O
InChI: InChI=1S/C15H10O5/c16-9-3-1-8(2-4-9)11-7-20-13-6-10(17)5-12(18)14(13)15(11)19/h1-7,16-18H
Instrument: Bruker maXis Impact
Instrument type: LC-ESI-QTOF
Ms type: MS2
Ion mode: POSITIVE
Ionization: ESI
Fragmentation mode: CID
Collision energy: 40 eV
Resolution: 35000
Column name: Acclaim RSLC C18 2.2um, 2.1x100mm, Thermo
Retention time: 7.684 min
Base peak: 271.0595
Precursor m/z: 271.0601
Precursor type: [M+H]+
m/z	relative intensity	assigned
115.0532	50	C9H7+
119.0485	68	C8H7O+
121.0283	59	C7H5O2+
129.0702	45	C10H9+
131.0481	94	C9H7O+
131.0846	43	C10H11+
135.0425	102	C8H7O2+
137.0226	46	C7H5O3+
141.0683	243	C11H9+
145.0275	107	C9H5O2+
145.063	92	C10H9O+
149.0226	146	C8H5O3+
150.0279	45	C8H6O3+
153.0171	999	C7H5O4+
154.0196	80	C6[13]CH5O4+
155.0473	66	C11H7O+
159.0429	132	C10H7O2+
159.078	67	C11H11O+
160.0485	45	C10H8O2+
163.0376	46	C9H7O3+
165.0166	78	C8H5O4+
169.0636	367	C12H9O+
173.0596	85	C11H9O2+
178.0235	44	C9H6O4+
183.0415	56	C12H7O2+
184.0486	57	C12H8O2+
187.0742	107	C12H11O2+
197.0584	321	C13H9O2+
200.0431	107	C12H8O3+
213.055	50	C13H9O3+
215.0686	523	C13H11O3+
216.0721	110	C12[13]CH11O3+
225.0542	67	C14H9O3+
243.0637	316	C14H11O4+
253.0478	188	C15H9O4+
254.0521	43	C14[13]CH9O4+
271.0591	364	C15H11O5+
272.0647	60	C14[13]CH11O5+
