Mass spectrum: Moxidectin; LC-ESI-QTOF; MS2; CE: Ramp 28.5-42.8 eV; R=35000; [M+H]+
Name: Moxidectin
Formula: C37H53NO8
Exact mass: 639.3771
SMILES: C[C@@H]\1C/C(=C/C[C@@H]2C[C@@H](C[C@@]3(O2)C/C(=N\OC)/[C@@H]([C@H](O3)/C(=C/C(C)C)/C)C)OC(=O)[C@@H]4C=C([C@H]([C@@H]5[C@]4(/C(=C/C=C1)/CO5)O)O)C)/C
InChI: InChI=1S/C37H53NO8/c1-21(2)14-25(6)33-26(7)31(38-42-8)19-36(46-33)18-29-17-28(45-36)13-12-23(4)15-22(3)10-9-11-27-20-43-34-32(39)24(5)16-30(35(40)44-29)37(27,34)41/h9-12,14,16,21-22,26,28-30,32-34,39,41H,13,15,17-20H2,1-8H3/b10-9+,23-12+,25-14+,27-11+,38-31+/t22-,26-,28+,29-,30-,32+,33+,34+,36-,37+/m0/s1
Instrument: Bruker maXis Impact
Instrument type: LC-ESI-QTOF
Ms type: MS2
Ion mode: POSITIVE
Ionization: ESI
Fragmentation mode: CID
Collision energy: Ramp 28.5-42.8 eV
Resolution: 35000
Column name: Acclaim RSLC C18 2.2um, 2.1x100mm, Thermo
Retention time: 14.2 min
Base peak: 60.0551
Precursor m/z: 640.3844
Precursor type: [M+H]+
m/z	relative intensity	assigned
59.0483	372	C3H7O+
60.0552	827	C3H8O+
99.0443	526	C5H7O2+
117.0912	186	C6H13O2+
122.0961	96	C8H12N+
123.1179	118	C9H15+
131.085	121	C10H11+
133.0863	304	C6H13O3+
145.0642	302	C10H9O+
150.0914	124	C9H12NO+
159.0829	97	C11H11O+
159.115	128	C12H15+
161.1156	112	C8H17O3+
164.1428	177	C11H18N+
165.151	93	C11H19N+
166.159	292	C11H20N+
171.1166	242	C13H15+
175.1333	152	C9H19O3+
176.136	93	C9H20O3+
177.1098	178	C8H17O4+
199.1123	999	C14H15O+
200.1158	169	C6H18NO6+
204.1391	94	C13H18NO+
215.1063	103	C14H15O2+
217.1226	103	C14H17O2+
218.1541	470	C14H20NO+
219.1622	231	C14H21NO+
283.2646	665	C18H35O2+
284.2694	147	C18H36O2+
311.2943	315	C20H39O2+
337.2772	162	C24H35N+
338.2811	122	C21H38O3+
339.29	232	C21H39O3+
341.3056	313	C21H41O3+
416.2625	189	C21H38NO7+
417.2643	96	C25H37O5+
418.2757	131	C28H36NO2+
436.283	137	C25H40O6+
448.2962	117	C30H40O3+
478.2503	122	C33H34O3+
478.2654	148	C37H34+
496.2783	102	C37H36O+
498.2914	156	C37H38O+
