Mass spectrum: Tri-n-butyl acetyl citrate; GC-APCI-QTOF; MS2; CE: 50 eV; R=35000; [M+H]+
Name: Tri-n-butyl acetyl citrate
Formula: C20H34O8
Exact mass: 402.2254
SMILES: CCCCOC(=O)CC(CC(=O)OCCCC)(C(=O)OCCCC)OC(=O)C
InChI: InChI=1S/C20H34O8/c1-5-8-11-25-17(22)14-20(28-16(4)21,19(24)27-13-10-7-3)15-18(23)26-12-9-6-2/h5-15H2,1-4H3
Instrument: Bruker 450 GC coupled to maXis Impact
Instrument type: GC-APCI-QTOF
Ms type: MS2
Ion mode: POSITIVE
Ionization: APCI
Fragmentation mode: CID
Collision energy: 50 eV
Resolution: 35000
Column name: Rxi-5Sil MS column, 30m, 0.25mm i.d., 0.25Âµm film thickness, Restek
Retention time: 21.163 min
Base peak: 403.2324
Precursor m/z: 403.2326
Precursor type: [M+H]+
m/z	relative intensity	assigned
68.9977	16	C3HO2+
111.0092	31	C5H3O3+
129.0177	999	C5H5O4+
139.0036	322	C6H3O4+
140.009	35	C6H4O4+
157.0156	109	C6H5O5+
158.0203	13	C6H6O5+
185.079	8	C9H13O4+
185.0937	9	C13H13O+
