Mass spectrum: Sarafloxacin; LC-ESI-QTOF; MS2; CE: 50 eV; R=35000; [M+H]+
Name: Sarafloxacin
Name: 6-fluoro-1-(4-fluorophenyl)-4-oxo-7-piperazin-1-ylquinoline-3-carboxylic acid
Formula: C20H17F2N3O3
Exact mass: 385.1237978
SMILES: c1cc(ccc1n2cc(c(=O)c3c2cc(c(c3)F)N4CCNCC4)C(=O)O)F
InChI: InChI=1S/C20H17F2N3O3/c21-12-1-3-13(4-2-12)25-11-15(20(27)28)19(26)14-9-16(22)18(10-17(14)25)24-7-5-23-6-8-24/h1-4,9-11,23H,5-8H2,(H,27,28)
Instrument: Bruker maXis Impact
Instrument type: LC-ESI-QTOF
Ms type: MS2
Ion mode: POSITIVE
Ionization: ESI
Fragmentation mode: CID
Collision energy: 50 eV
Resolution: 35000
Column name: Acclaim RSLC C18 2.2um, 2.1x100mm, Thermo
Retention time: 5.1 min
Base peak: 360.1717
Precursor m/z: 386.1311
Precursor type: [M+H]+
m/z	relative intensity	assigned
169.0746	62	C8H11NO3+
171.0917	236	C11H11N2+
174.0577	165	C10H7FN2+
189.0824	442	C11H10FN2+
190.086	98	C11H12NO2+
227.0532	79	C14H7F2N+
228.0642	63	C13H10NO3+
238.0914	64	C12H12F2N2O+
244.0837	60	C13H12N2O3+
249.0831	67	C13H11F2N2O+
255.0735	296	C15H9F2N2+
256.0569	74	C15H8F2NO+
256.0789	131	C12H12F2NO3+
257.0878	85	C15H11F2N2+
263.0875	61	C15H13F2O2+
264.0988	98	C17H14NO2+
265.1151	80	C14H15F2N2O+
269.0902	123	C16H11F2N2+
270.0963	999	C16H12F2N2+
273.0832	199	C15H11F2N2O+
274.0862	63	C18H12NO2+
277.1007	72	C17H12FN3+
283.0669	63	C19H8FN2+
292.0898	232	C19H13FO2+
292.1236	278	C18H15FN3+
293.1078	69	C18H14FN2O+
299.0988	224	C17H13F2N2O+
312.1338	73	C17H18N3O3+
320.0847	179	C20H13FO3+
320.122	178	C18H18F2O3+
325.0797	65	C18H11F2N2O2+
329.0722	80	C20H10FN2O2+
338.0939	265	C18H13FN3O3+
339.0974	83	C19H13F2N2O2+
348.1148	190	C20H15FN3O2+
366.1272	309	C20H17FN3O3+
367.1281	115	C20H18FN3O3+
368.1215	241	C20H16F2N3O2+
369.1243	92	C20H17F2N3O2+
386.132	973	C20H18F2N3O3+
387.1348	256	C19[13]CH18F2N3O3+
