Mass spectrum: Dibutyl sebacate; GC-APCI-QTOF; MS2; CE: 50 eV; R=35000; [M]+
Name: Dibutyl sebacate
Formula: C18H34O4
Exact mass: 314.2457
SMILES: CCCCOC(=O)CCCCCCCCC(=O)OCCCC
InChI: InChI=1S/C18H34O4/c1-3-5-15-21-17(19)13-11-9-7-8-10-12-14-18(20)22-16-6-4-2/h3-16H2,1-2H3
Instrument: Bruker 450 GC coupled to maXis Impact
Instrument type: GC-APCI-QTOF
Ms type: MS2
Ion mode: POSITIVE
Ionization: APCI
Fragmentation mode: CID
Collision energy: 50 eV
Resolution: 35000
Column name: Rxi-5Sil MS column, 30m, 0.25mm i.d., 0.25Âµm film thickness, Restek
Retention time: 17.730 min
Base peak: 285.2771
Precursor m/z: 314.2452
Precursor type: [M]+
m/z	relative intensity	assigned
53.0392	124	C4H5+
57.0702	999	C4H9+
67.0544	711	C5H7+
71.0869	192	C5H11+
79.0536	167	C6H7+
