Mass spectrum: 10,11-Dihydro-10-Hydroxycarbazepine; LC-ESI-QTOF; MS2; CE: 50 eV; R=35000; [M+H]+
Name: 10,11-Dihydro-10-Hydroxycarbazepine
Name: Licarbazepine
Name: 5-hydroxy-5,6-dihydrobenzo[b][1]benzazepine-11-carboxamide
Formula: C15H14N2O2
Exact mass: 254.1055277
SMILES: c1ccc2c(c1)CC(c3ccccc3N2C(=O)N)O
InChI: InChI=1S/C15H14N2O2/c16-15(19)17-12-7-3-1-5-10(12)9-14(18)11-6-2-4-8-13(11)17/h1-8,14,18H,9H2,(H2,16,19)
Instrument: Bruker maXis Impact
Instrument type: LC-ESI-QTOF
Ms type: MS2
Ion mode: POSITIVE
Ionization: ESI
Fragmentation mode: CID
Collision energy: 50 eV
Resolution: 35000
Column name: Acclaim RSLC C18 2.2um, 2.1x100mm, Thermo
Retention time: 6.067 min
Base peak: 372.1585
Precursor m/z: 255.1128
Precursor type: [M+H]+
m/z	relative intensity	assigned
116.0489	9	C8H6N+
117.0571	12	C8H7N+
128.0611	5	C10H8+
139.0535	13	C11H7+
140.0499	7	C10H6N+
141.0681	5	C11H9+
151.0534	11	C12H7+
152.061	129	C12H8+
153.0651	20	C11[13]CH8+
163.0538	12	C13H7+
164.0599	12	C8H8N2O2+
165.0688	301	C13H9+
166.0729	51	C12[13]CH9+
167.072	128	C12H9N+
168.0556	5	C12H8O+
168.0768	23	C11[13]CH9N+
169.0638	29	C12H9O+
176.0607	34	C14H8+
177.056	38	C13H7N+
177.0659	22	C9H9N2O2+
178.0644	116	C13H8N+
179.0719	485	C13H9N+
180.0752	76	C12[13]CH9N+
181.0793	5	C12H9N2+
190.064	72	C14H8N+
191.072	256	C14H9N+
192.0798	453	C14H10N+
193.0877	999	C14H11N+
194.0949	496	C14H12N+
195.0982	67	C13[13]CH12N+
196.075	7	C13H10NO+
211.0615	8	C13H9NO2+
