Mass spectrum: 7-(Ethylamino)-4-methylcoumarin; LC-ESI-QTOF; MS2; CE: 50 eV; R=35000; [M+H]+
Name: 7-(Ethylamino)-4-methylcoumarin
Name: 2H-1-Benzopyran-2-one, 7-(ethylamino)-4-methyl-
Name: 7-(ethylamino)-4-methylchromen-2-one
Formula: C12H13NO2
Exact mass: 203.0946287
SMILES: CCNC1=CC=C2C(C)=CC(=O)OC2=C1
InChI: InChI=1S/C12H13NO2/c1-3-13-9-4-5-10-8(2)6-12(14)15-11(10)7-9/h4-7,13H,3H2,1-2H3
Instrument: Bruker maXis Impact
Instrument type: LC-ESI-QTOF
Ms type: MS2
Ion mode: POSITIVE
Ionization: ESI
Fragmentation mode: CID
Collision energy: 50 eV
Resolution: 35000
Column name: Acclaim RSLC C18 2.2um, 2.1x100mm, Thermo
Retention time: 7.691 min
Base peak: 391.2289
Precursor m/z: 204.1019
Precursor type: [M+H]+
m/z	relative intensity	assigned
115.054	243	C9H7+
117.0548	211	C8H7N+
118.0396	310	C8H6O+
118.0638	420	C8H8N+
119.0708	330	C8H9N+
130.0654	396	C9H8N+
131.0478	357	C9H7O+
132.0806	443	C9H10N+
144.0802	276	C10H10N+
146.0592	999	C9H8NO+
148.0513	333	C9H8O2+
148.1097	186	C10H14N+
160.0742	317	C10H10NO+
