Mass spectrum: Vomitoxin; LC-ESI-QTOF; MS2; CE: 30 eV; R=35000; [M+H]+
Name: Vomitoxin
Name: Rd toxin
Name: 3,10-dihydroxy-2-(hydroxymethyl)-1,5-dimethylspiro[8-oxatricyclo[7.2.1.02,7]dodec-5-ene-12,2`-oxirane]-4-one
Class: Natural Product; Fungal metabolite
Formula: C15H20O6
Exact mass: 296.126
SMILES: CC1=CC2C(C(C1=O)O)(C3(CC(C(C34CO4)O2)O)C)CO
InChI: InChI=1S/C15H20O6/c1-7-3-9-14(5-16,11(19)10(7)18)13(2)4-8(17)12(21-9)15(13)6-20-15/h3,8-9,11-12,16-17,19H,4-6H2,1-2H3
Instrument: Bruker maXis Impact
Instrument type: LC-ESI-QTOF
Ms type: MS2
Ion mode: POSITIVE
Ionization: ESI
Fragmentation mode: CID
Collision energy: 30 eV
Resolution: 35000
Column name: Acclaim RSLC C18 2.2um, 2.1x100mm, Thermo
Retention time: 3.874 min
Base peak: 297.1333
Precursor m/z: 297.1333
Precursor type: [M+H]+
m/z	relative intensity	assigned
159.0806	816	C11H11O+
175.0762	999	C11H11O2+
203.1035	902	C13H15O2+
