Mass spectrum: 2,4-dimethylphenylformamid; LC-ESI-QTOF; MS2; CE: 30 eV; R=35000; [M+H]+
Name: 2,4-dimethylphenylformamid
Name: N-(2,4-dimethylphenyl)formamide
Formula: C9H11NO
Exact mass: 149.084064
SMILES: CC1=CC(C)=C(NC=O)C=C1
InChI: InChI=1S/C9H11NO/c1-7-3-4-9(10-6-11)8(2)5-7/h3-6H,1-2H3,(H,10,11)
Instrument: Bruker maXis Impact
Instrument type: LC-ESI-QTOF
Ms type: MS2
Ion mode: POSITIVE
Ionization: ESI
Fragmentation mode: CID
Collision energy: 30 eV
Resolution: 35000
Column name: Acclaim RSLC C18 2.2um, 2.1x100mm, Thermo
Retention time: 6.4 min
Base peak: 150.0903
Precursor m/z: 150.0913
Precursor type: [M+H]+
m/z	relative intensity	assigned
106.0645	101	C7H8N+
107.0707	95	C7H9N+
117.0565	999	C8H7N+
118.0604	96	C3H8N3O2+
120.0801	239	C8H10N+
121.0645	90	C8H9O+
121.0878	75	C8H11N+
122.0957	230	C8H12N+
123.0795	319	C8H11O+
130.0641	103	C9H8N+
131.0703	56	C9H9N+
132.0801	295	C9H10N+
150.091	172	C9H12NO+
