Mass spectrum: Fluvastatin; LC-ESI-QTOF; MS2; CE: 40 eV; R=35000; [M+H]+
Name: Fluvastatin
Name: (E,3R,5S)-7-[3-(4-fluorophenyl)-1-propan-2-ylindol-2-yl]-3,5-dihydroxyhept-6-enoic acid
Formula: C24H26FNO4
Exact mass: 411.1845865
SMILES: CC(C)n1c2ccccc2c(c1/C=C/[C@H](C[C@H](CC(=O)O)O)O)c3ccc(cc3)F
InChI: InChI=1S/C24H26FNO4/c1-15(2)26-21-6-4-3-5-20(21)24(16-7-9-17(25)10-8-16)22(26)12-11-18(27)13-19(28)14-23(29)30/h3-12,15,18-19,27-28H,13-14H2,1-2H3,(H,29,30)/b12-11+/t18-,19-/m1/s1
Instrument: Bruker maXis Impact
Instrument type: LC-ESI-QTOF
Ms type: MS2
Ion mode: POSITIVE
Ionization: ESI
Fragmentation mode: CID
Collision energy: 40 eV
Resolution: 35000
Column name: Acclaim RSLC C18 2.2um, 2.1x100mm, Thermo
Retention time: 10.906 min
Base peak: 412.1939
Precursor m/z: 412.1919
Precursor type: [M+H]+
m/z	relative intensity	assigned
123.0438	8	C7H7O2+
135.1178	6	C7H16FO+
177.0706	10	C11H10FO+
196.0686	25	C14H9F+
197.0761	129	C14H10F+
198.0817	14	C14H11F+
204.0825	17	C12H11FNO+
211.0793	15	C14H10FN+
212.088	22	C14H11FN+
222.0741	20	C11H12NO4+
223.0797	87	C15H10FN+
224.0881	999	C15H11FN+
225.0912	224	C15H13O2+
226.0951	11	C14[13]CH13O2+
236.0878	11	C16H11FN+
238.1037	69	C16H13FN+
239.1107	13	C16H14FN+
248.0921	7	C13H14NO4+
264.1196	22	C18H15FN+
265.1232	7	C15H18FO3+
266.1355	132	C18H17FN+
267.1378	29	C17[13]CH17FN+
274.1053	8	C15H16NO4+
280.1527	10	C15H22NO4+
288.1225	7	C16H18NO4+
290.1351	6	C20H17FN+
