Mass spectrum: Azoxystrobin acid; LC-ESI-QTOF; MS2; CE: 20 eV; R=35000; [M+H]+
Name: Azoxystrobin acid
Name: SCHEMBL435486
Name: (E)-2-[2-[6-(2-cyanophenoxy)pyrimidin-4-yl]oxyphenyl]-3-methoxyprop-2-enoic acid
Formula: C21H15N3O5
Exact mass: 389.1011706
SMILES: CO\C=C(\C(O)=O)c1ccccc1Oc1cc(Oc2ccccc2C#N)ncn1
InChI: InChI=1S/C21H15N3O5/c1-27-12-16(21(25)26)15-7-3-5-9-18(15)29-20-10-19(23-13-24-20)28-17-8-4-2-6-14(17)11-22/h2-10,12-13H,1H3,(H,25,26)/b16-12+
Instrument: Bruker maXis Impact
Instrument type: LC-ESI-QTOF
Ms type: MS2
Ion mode: POSITIVE
Ionization: ESI
Fragmentation mode: CID
Collision energy: 20 eV
Resolution: 35000
Column name: Acclaim RSLC C18 2.2um, 2.1x100mm, Thermo
Retention time: 7.9 min
Base peak: 390.1084
Precursor m/z: 390.1084
Precursor type: [M+H]+
m/z	relative intensity	assigned
149.0219	8	C6H3N3O2+
316.1075	8	C19H14N3O2+
329.0795	11	C19H11N3O3+
344.1026	99	C20H14N3O3+
345.1051	23	C19[13]CH14N3O3+
346.1172	18	
372.0981	999	C21H14N3O4+
373.1011	221	C20[13]CH14N3O4+
374.103	23	C19[13]C2H14N3O4+
