Mass spectrum: Methylprednisolone; LC-ESI-QTOF; MS2; CE: 40 eV; R=35000; [M+H]+
Name: Methylprednisolone
Name: methylprednisolone
Name: (6S,8S,9S,10R,11S,13S,14S,17R)-11,17-dihydroxy-17-(2-hydroxyacetyl)-6,10,13-trimethyl-7,8,9,11,12,14,15,16-octahydro-6H-cyclopenta[a]phenanthren-3-one
Formula: C22H30O5
Exact mass: 374.2093241
SMILES: C[C@H]1C[C@H]2[C@@H]3CC[C@@]([C@]3(C[C@@H]([C@@H]2[C@@]4(C1=CC(=O)C=C4)C)O)C)(C(=O)CO)O
InChI: InChI=1S/C22H30O5/c1-12-8-14-15-5-7-22(27,18(26)11-23)21(15,3)10-17(25)19(14)20(2)6-4-13(24)9-16(12)20/h4,6,9,12,14-15,17,19,23,25,27H,5,7-8,10-11H2,1-3H3/t12-,14-,15-,17-,19+,20-,21-,22-/m0/s1
Instrument: Bruker maXis Impact
Instrument type: LC-ESI-QTOF
Ms type: MS2
Ion mode: POSITIVE
Ionization: ESI
Fragmentation mode: CID
Collision energy: 40 eV
Resolution: 35000
Column name: Acclaim RSLC C18 2.2um, 2.1x100mm, Thermo
Retention time: 8.591 min
Base peak: 375.2204
Precursor m/z: 375.2166
Precursor type: [M+H]+
m/z	relative intensity	assigned
115.0552	67	C9H7+
116.0609	9	C9H8+
117.0703	51	C9H9+
119.0865	62	C9H11+
120.0904	7	C9H12+
121.0656	293	C8H9O+
121.1018	17	C9H13+
122.0685	24	C7[13]CH9O+
123.0815	21	C8H11O+
125.0607	13	C7H9O2+
127.0545	5	C10H7+
128.0625	67	C10H8+
129.0704	57	C10H9+
130.0777	18	C10H10+
131.0496	21	C9H7O+
131.0861	116	C10H11+
132.0572	12	C9H8O+
132.0897	12	C9[13]CH11+
133.0653	30	C9H9O+
133.102	121	C10H13+
134.07	6	C9H10O+
134.1053	12	C9[13]CH13+
135.0813	693	C9H11O+
136.0845	61	C8[13]CH11O+
137.0607	38	C8H9O2+
137.0972	16	C9H13O+
138.0649	5	C8H10O2+
139.0766	14	C8H11O2+
141.0708	50	C11H9+
142.0783	52	C11H10+
143.0862	99	C11H11+
144.0573	37	C10H8O+
144.0916	21	C11H12+
145.0653	161	C10H9O+
145.1021	108	C11H13+
146.0733	102	C10H10O+
146.1058	12	C10[13]CH13+
147.0809	137	C10H11O+
147.1169	29	C11H15+
148.0855	20	C9[13]CH11O+
148.1226	5	C11H16+
149.0968	55	C10H13O+
150.1002	7	C10H14O+
151.0765	8	C9H11O2+
151.1127	7	C10H15O+
152.0636	13	C12H8+
153.0712	17	C12H9+
154.0782	15	C12H10+
155.0859	39	C12H11+
156.0933	19	C12H12+
157.0654	21	C11H9O+
157.1023	77	C12H13+
158.0734	106	C11H10O+
158.1063	11	C11[13]CH13+
159.0811	317	C11H11O+
159.1183	43	C12H15+
160.0869	71	C11H12O+
160.1218	9	C12H16+
161.0972	999	C11H13O+
162.1004	116	C10[13]CH13O+
163.0759	6	C10H11O2+
163.1062	9	C10[13]CH14O+
163.1132	9	C11H15O+
165.0713	14	C13H9+
165.0923	23	C10H13O2+
166.0792	23	C13H10+
167.0864	32	C13H11+
168.0593	5	C12H8O+
168.0928	11	C13H12+
169.0658	18	C12H9O+
169.1019	44	C13H13+
170.0734	22	C12H10O+
170.1092	16	C13H14+
171.0813	102	C12H11O+
171.1179	35	C13H15+
172.0888	105	C12H12O+
172.1204	10	C13H16+
173.0968	226	C12H13O+
173.1329	25	C13H17+
174.1017	29	C11[13]CH13O+
175.0763	6	C11H11O2+
175.1126	67	C12H15O+
176.1161	10	C12H16O+
177.0923	38	C11H13O2+
177.1278	5	C12H17O+
178.0788	24	C14H10+
178.0945	7	C11H14O2+
179.086	28	C14H11+
179.1082	6	C11H15O2+
180.0937	14	C14H12+
181.0663	23	C13H9O+
181.1016	29	C14H13+
182.0733	16	C13H10O+
182.1078	8	C14H14+
183.0816	46	C13H11O+
183.1178	31	C14H15+
184.0896	29	C13H12O+
184.122	9	C14H16+
185.0976	727	C13H13O+
186.101	108	C12[13]CH13O+
187.1127	427	C13H15O+
188.1165	54	C12[13]CH15O+
189.0924	90	C12H13O2+
189.1294	14	C13H17O+
190.079	7	C15H10+
190.0962	12	C11[13]CH13O2+
191.086	14	C15H11+
191.1446	6	C13H19O+
192.0947	13	C15H12+
193.1023	74	C15H13+
194.0735	10	C14H10O+
194.1085	23	C15H14+
195.082	80	C14H11O+
195.1185	29	C15H15+
196.0892	114	C14H12O+
197.0967	127	C14H13O+
197.1334	10	C15H17+
198.1031	45	C14H14O+
199.1131	141	C14H15O+
200.1179	24	C13[13]CH15O+
201.0939	9	C13H13O2+
201.1285	40	C14H17O+
202.0791	10	C16H10+
202.1317	7	C14H18O+
203.087	11	C16H11+
203.1432	8	C14H19O+
204.0931	15	C16H12+
205.1036	22	C16H13+
206.109	26	C16H14+
207.0834	11	C15H11O+
207.1169	34	C16H15+
208.0894	55	C15H12O+
208.1272	11	C16H16+
209.0973	205	C15H13O+
209.1345	22	C16H17+
210.1039	124	C15H14O+
211.1134	634	C15H15O+
212.118	106	C14[13]CH15O+
213.0924	7	C14H13O2+
213.1291	130	C15H17O+
214.1344	21	C14[13]CH17O+
215.0858	6	C17H11+
215.109	5	C14H15O2+
216.0934	9	C17H12+
217.1014	10	C17H13+
218.1098	21	C17H14+
219.0822	9	C16H11O+
219.1182	29	C17H15+
220.0895	22	C16H12O+
220.1255	44	C17H16+
221.0989	45	C16H13O+
221.1326	30	C17H17+
222.1049	130	C16H14O+
222.1379	7	C17H18+
223.1125	237	C16H15O+
223.1491	13	C17H19+
224.1204	111	C16H16O+
225.129	137	C16H17O+
225.1664	7	C17H21+
226.1335	43	C16H18O+
227.1105	12	C15H15O2+
227.1448	43	C16H19O+
228.1491	15	C16H20O+
229.1026	5	C18H13+
229.125	6	C15H17O2+
230.1094	8	C18H14+
231.0836	8	C17H11O+
231.1186	22	C18H15+
231.139	22	C15H19O2+
232.0901	9	C17H12O+
232.1252	11	C18H16+
233.0975	24	C17H13O+
233.133	23	C18H17+
234.1052	33	C17H14O+
234.1406	13	C18H18+
235.1136	99	C17H15O+
235.148	33	C18H19+
236.1203	103	C17H16O+
236.1533	8	C18H20+
237.1287	191	C17H17O+
238.1363	176	C17H18O+
239.1062	9	C16H15O2+
239.144	99	C17H19O+
240.1509	34	C17H20O+
241.1246	5	C16H17O2+
241.1596	13	C17H21O+
242.1641	5	C17H22O+
243.1179	9	C19H15+
245.0976	22	C18H13O+
245.1346	6	C19H17+
246.1052	37	C18H14O+
246.1401	6	C19H18+
247.1157	25	C18H15O+
247.1523	6	C12H23O5+
248.1217	51	C18H16O+
249.1289	81	C18H17O+
250.1375	50	C18H18O+
251.1086	11	C17H15O2+
251.1453	187	C18H19O+
252.1126	11	C17H16O2+
252.1493	41	C17[13]CH19O+
253.1262	11	C17H17O2+
253.1606	200	C18H21O+
254.1637	47	C17[13]CH21O+
255.1125	5	C20H15+
255.1402	7	C17H19O2+
255.175	19	C18H23O+
259.1143	39	C19H15O+
259.1502	5	C20H19+
260.1222	28	C19H16O+
261.129	57	C19H17O+
261.1663	7	C20H21+
262.1367	43	C19H18O+
263.1115	7	C18H15O2+
263.1448	54	C19H19O+
263.1829	50	C13H27O5+
264.1151	19	C18H16O2+
264.1506	35	C19H20O+
265.1224	13	C18H17O2+
265.1609	270	C19H21O+
266.131	13	C18H18O2+
266.1643	51	C19H22O+
267.1403	33	C18H19O2+
267.1698	7	C18[13]CH22O+
268.1471	11	C18H20O2+
269.151	7	C18H21O2+
273.1308	33	C20H17O+
274.1363	32	C20H18O+
275.1471	27	C20H19O+
276.1536	15	C20H20O+
277.1274	8	C19H17O2+
277.1621	30	C20H21O+
278.167	31	C20H22O+
279.1403	43	C19H19O2+
279.1774	79	C20H23O+
280.1477	8	C19H20O2+
280.1838	153	C20H24O+
281.1888	46	C20H25O+
282.1919	7	C19[13]CH25O+
287.1438	9	C21H19O+
288.1525	29	C21H20O+
289.1583	11	C21H21O+
290.1662	7	C21H22O+
291.1381	8	C20H19O2+
291.1767	26	C21H23O+
292.1798	7	C21H24O+
293.1546	14	C20H21O2+
293.1915	22	C21H25O+
294.164	5	C20H22O2+
294.1949	6	C21H26O+
295.1691	8	C20H23O2+
297.1535	11	C19H21O3+
303.176	20	C22H23O+
304.1839	8	C22H24O+
306.1641	8	C21H22O2+
308.1802	20	C21H24O2+
309.1862	19	C21H25O2+
311.1678	7	C20H23O3+
321.1874	8	C22H25O2+
322.194	5	C22H26O2+
339.1981	6	C22H27O3+
