Mass spectrum: Furosemide; LC-ESI-QTOF; MS2; CE: 50 eV; R=35000; [M+H]+
Name: Furosemide
Name: 4-chloro-2-(furan-2-ylmethylamino)-5-sulfamoylbenzoic acid
Formula: C12H11ClN2O5S
Exact mass: 330.0077201
SMILES: NS(=O)(=O)C1=CC(C(O)=O)=C(NCC2=CC=CO2)C=C1Cl
InChI: InChI=1S/C12H11ClN2O5S/c13-9-5-10(15-6-7-2-1-3-20-7)8(12(16)17)4-11(9)21(14,18)19/h1-5,15H,6H2,(H,16,17)(H2,14,18,19)
Instrument: Bruker maXis Impact
Instrument type: LC-ESI-QTOF
Ms type: MS2
Ion mode: POSITIVE
Ionization: ESI
Fragmentation mode: CID
Collision energy: 50 eV
Resolution: 35000
Column name: Acclaim RSLC C18 2.2um, 2.1x100mm, Thermo
Retention time: 6.024 min
Base peak: 261.0311
Precursor m/z: 331.015
Precursor type: [M+H]+
m/z	relative intensity	assigned
231.056	999	C12H9NO4+
232.0588	185	C11[13]CH9NO4+
249.0681	152	C12H11NO5+
