Mass spectrum: Flurazepam; LC-ESI-QTOF; MS2; CE: 50 eV; R=35000; [M+H]+
Name: Flurazepam
Name: 7-chloro-1-[2-(diethylamino)ethyl]-5-(2-fluorophenyl)-3H-1,4-benzodiazepin-2-one
Formula: C21H23ClFN3O
Exact mass: 387.1513683
SMILES: CCN(CC)CCN1c2ccc(cc2C(=NCC1=O)c3ccccc3F)Cl
InChI: InChI=1S/C21H23ClFN3O/c1-3-25(4-2)11-12-26-19-10-9-15(22)13-17(19)21(24-14-20(26)27)16-7-5-6-8-18(16)23/h5-10,13H,3-4,11-12,14H2,1-2H3
Instrument: Bruker maXis Impact
Instrument type: LC-ESI-QTOF
Ms type: MS2
Ion mode: POSITIVE
Ionization: ESI
Fragmentation mode: CID
Collision energy: 50 eV
Resolution: 35000
Column name: Acclaim RSLC C18 2.2um, 2.1x100mm, Thermo
Retention time: 6.868 min
Base peak: 388.1624
Precursor m/z: 388.1586
Precursor type: [M+H]+
m/z	relative intensity	assigned
109.0462	14	C7H6F+
117.0591	7	C2H11ClFN2+
122.0407	13	C7H5FN+
123.0003	5	C4H5ClFO+
123.0246	23	C4H7ClFN+
125.0159	76	C4H7ClFO+
127.0137	19	C4H7[37]ClFO+
130.066	176	C6H9FNO+
131.0736	188	C6H10FNO+
132.077	17	C5[13]CH10FNO+
133.0456	9	C9H6F+
134.0408	372	C8H5FN+
135.0459	42	C7[13]CH5FN+
138.0114	20	C4H6ClFNO+
140.0081	5	C4H6[37]ClFNO+
143.118	6	C7H15N2O+
144.0457	15	C3H10ClFN2O+
149.0228	7	C11H3N+
150.0113	84	C5H6ClFNO+
150.0349	5	C8H5FNO+
150.0725	6	C9H9FN+
151.0184	24	C8H6ClN+
152.0088	24	C5H6[37]ClFNO+
152.0269	19	C5H8ClFNO+
153.0195	11	C8H6[37]ClN+
155.0613	5	C7H8FN2O+
156.0681	5	C10H8N2+
159.0696	10	C4H13ClFN2O+
162.0357	94	C6H8ClFN2+
163.0066	12	C5H5ClFN2O+
163.0381	10	C5[13]CH8ClFN2+
164.027	61	C6H8ClFNO+
166.0058	15	C8H5ClNO+
166.0241	17	C6H8[37]ClFNO+
166.0431	88	C6H10ClFNO+
168.0224	10	C8H7ClNO+
168.0401	24	C6H10[37]ClFNO+
177.0236	8	C6H7ClFN2O+
177.0593	5	C7H11ClFN2+
178.0077	5	C12HFN+
178.0294	5	C9H7ClN2+
179.0378	9	C6H9ClFN2O+
180.0231	8	C12H3FN+
181.0189	6	C11H2FN2+
182.0532	6	C13H7F+
183.0622	79	C13H8F+
184.0691	109	C13H9F+
185.072	16	C12[13]CH9F+
189.0231	36	C7H7ClFN2O+
191.0193	10	C7H7[37]ClFN2O+
191.0382	43	C7H9ClFN2O+
193.0332	19	C7H9[37]ClFN2O+
194.0379	15	C10H9ClNO+
196.034	5	C10H9[37]ClNO+
196.0677	7	C14H9F+
199.0322	5	C10H9ClFO+
204.0825	10	C9H14ClFN2+
205.0902	5	C9H15ClFN2+
206.0969	5	C15H12N+
208.0573	14	C14H7FN+
209.0653	150	C14H8FN+
210.0699	24	C13[13]CH8FN+
211.0806	64	C14H10FN+
212.0838	9	C13[13]CH10FN+
214.0434	8	C10H10ClFNO+
216.0703	45	C14H13Cl+
217.0229	85	C13H7ClF+
217.0733	5	C13[13]CH13Cl+
217.0888	11	C16H11N+
219.0202	20	C13H7[37]ClF+
222.0733	36	C15H9FN+
223.0803	66	C15H10FN+
224.0525	11	C11H10ClFN2+
224.0886	203	C15H11FN+
225.0963	526	C15H12FN+
226.1	71	C14[13]CH12FN+
231.0267	10	C13H7ClFN+
232.0324	9	C13H8ClFN+
232.1011	9	C10H16ClFN3+
235.0691	39	C14H13ClF+
236.0762	246	C14H14ClF+
237.0807	45	C13[13]CH14ClF+
238.0701	6	C12H12ClFN2+
238.099	8	C13H17ClNO+
239.0386	9	C11H9ClFN2O+
240.0598	14	C12H12ClFNO+
244.0342	339	C14H8ClFN+
245.0409	181	C14H9ClFN+
246.0318	102	C14H8[37]ClFN+
247.0384	42	C19H5N+
248.0435	8	C18[13]CH5N+
251.0389	24	C12H9ClFN2O+
251.1007	43	C15H17ClF+
252.0444	14	C18H6NO+
252.0835	84	C13H14ClFN2+
252.1065	23	C16H13FN2+
253.0367	7	C12H9[37]ClFN2O+
253.055	9	C12H11ClFN2O+
253.0911	154	C13H15ClFN2+
254.0941	24	C12[13]CH15ClFN2+
257.0328	13	C13H8ClN3O+
258.0501	220	C15H10ClFN+
259.0563	303	C15H11ClFN+
260.0646	222	C15H12ClFN+
260.0967	17	C16H17ClO+
261.0193	5	C19H3NO+
261.0542	65	C15H11[37]ClFN+
261.1019	9	C17H13N2O+
262.0626	55	C20H8N+
263.0662	5	C19[13]CH8N+
265.0781	7	C18H14Cl+
267.0352	11	C18H4FN2+
267.0702	27	C13H13ClFN2O+
269.0679	10	C13H13[37]ClFN2O+
270.0381	35	C15H8ClFN2+
271.0454	307	C15H9ClFN2+
272.0296	181	C15H8ClFNO+
273.0414	93	C20H5N2+
273.0562	63	C21H7N+
274.0264	54	C20H4NO+
274.047	19	C19[13]CH5N2+
274.061	22	C20[13]CH7N+
275.031	7	C19[13]CH4NO+
279.0952	16	C16H17ClFO+
280.1031	27	C16H18ClFO+
281.1057	5	C15[13]CH18ClFO+
285.0606	149	C16H11ClFN2+
286.0645	31	C15[13]CH11ClFN2+
287.0533	389	C16H11ClFNO+
287.076	92	C16H13ClFN2+
288.0581	124	C16H12ClFNO+
289.0534	161	C15H11ClFN2O+
290.058	34	C14[13]CH11ClFN2O+
291.0531	20	C15H11[37]ClFN2O+
295.0656	32	C20H8FN2+
296.0691	9	C19[13]CH8FN2+
315.0723	999	C17H13ClFN2O+
316.0755	199	C20H13ClN2+
317.0695	284	C19H12ClN3+
318.0731	29	C18[13]CH12ClN3+
