Mass spectrum: Venlafaxine; LC-ESI-QTOF; MS2; CE: 20 eV; R=35000; [M+H]+
Name: Venlafaxine
Name: 1-[2-(dimethylamino)-1-(4-methoxyphenyl)ethyl]cyclohexan-1-ol
Formula: C17H27NO2
Exact mass: 277.2041791
SMILES: CN(C)CC(c1ccc(cc1)OC)C2(CCCCC2)O
InChI: InChI=1S/C17H27NO2/c1-18(2)13-16(17(19)11-5-4-6-12-17)14-7-9-15(20-3)10-8-14/h7-10,16,19H,4-6,11-13H2,1-3H3
Instrument: Bruker maXis Impact
Instrument type: LC-ESI-QTOF
Ms type: MS2
Ion mode: POSITIVE
Ionization: ESI
Fragmentation mode: CID
Collision energy: 20 eV
Resolution: 35000
Column name: Acclaim RSLC C18 2.2um, 2.1x100mm, Thermo
Retention time: 6.2 min
Base peak: 278.2121
Precursor m/z: 278.2115
Precursor type: [M+H]+
m/z	relative intensity	assigned
121.064	301	C8H9O+
122.0674	26	C3H10N2O3+
132.0559	6	C9H8O+
135.0793	18	C9H11O+
147.0794	189	C10H11O+
148.0827	20	C5H12N2O3+
152.1421	17	C10H18N+
159.0793	50	C11H11O+
160.0831	5	C6H12N2O3+
173.0951	61	C12H13O+
174.0992	8	C7H14N2O3+
177.114	9	C11H15NO+
178.1207	15	C11H16NO+
183.1159	7	C14H15+
189.1258	5	C13H17O+
215.1427	718	C15H19O+
216.1457	82	C10H20N2O3+
217.151	5	C13[13]C2H19O+
260.2006	999	C17H26NO+
261.2038	144	C16[13]CH26NO+
262.207	9	C16H26N2O+
278.2126	999	C17H28NO2+
279.2154	263	C16[13]CH28NO2+
280.2179	19	C15[13]C2H28NO2+
