Mass spectrum: Alachlor; LC-ESI-QTOF; MS2; CE: 40 eV; R=35000; [M+H]+
Name: Alachlor
Name: 2-chloro-N-(2,6-diethylphenyl)-N-(methoxymethyl)acetamide
Formula: C14H20ClNO2
Exact mass: 269.1182566
SMILES: CCC1=CC=CC(CC)=C1N(COC)C(=O)CCl
InChI: InChI=1S/C14H20ClNO2/c1-4-11-7-6-8-12(5-2)14(11)16(10-18-3)13(17)9-15/h6-8H,4-5,9-10H2,1-3H3
Instrument: Bruker maXis Impact
Instrument type: LC-ESI-QTOF
Ms type: MS2
Ion mode: POSITIVE
Ionization: ESI
Fragmentation mode: CID
Collision energy: 40 eV
Resolution: 35000
Column name: Acclaim RSLC C18 2.2um, 2.1x100mm, Thermo
Retention time: 10.2 min
Base peak: 238.099
Precursor m/z: 270.1255
Precursor type: [M+H]+
m/z	relative intensity	assigned
115.0527	12	C3H12ClO2+
117.0573	65	C8H7N+
118.0642	51	C8H8N+
119.0711	20	C2H14ClNO2+
120.079	13	C2H15ClNO2+
129.0693	8	C10H9+
130.0647	41	C9H8N+
131.0715	45	C3H14ClNO2+
132.08	581	C9H10N+
133.0858	74	C8[13]CH10N+
134.0954	56	C9H12N+
143.0743	11	C10H9N+
144.08	28	C10H10N+
145.0864	10	C4H16ClNO2+
146.0954	163	C10H12N+
147.1034	999	C10H13N+
156.0791	11	C5H15ClNO2+
158.0964	12	C11H12N+
160.0753	10	C10H10NO+
160.1117	16	C11H14N+
161.1179	12	C5H20ClNO2+
162.1269	501	C11H16N+
163.1112	20	C11H15O+
163.1301	63	C6H17N3O2+
170.0951	18	C6H17ClNO2+
173.0839	14	C11H11NO+
174.09	24	C11H12NO+
184.1116	11	C13H14N+
