Mass spectrum: Benzoylecgonine; LC-ESI-QTOF; MS2; CE: 10 eV; R=35000; [M+H]+
Name: Benzoylecgonine
Name: (3S,4R)-3-benzoyloxy-8-methyl-8-azabicyclo[3.2.1]octane-4-carboxylic acid
Formula: C16H19NO4
Exact mass: 289.1314081
SMILES: CN1C2CCC1[C@H]([C@H](C2)OC(=O)C1=CC=CC=C1)C(O)=O
InChI: InChI=1S/C16H19NO4/c1-17-11-7-8-12(17)14(15(18)19)13(9-11)21-16(20)10-5-3-2-4-6-10/h2-6,11-14H,7-9H2,1H3,(H,18,19)/t11?,12?,13-,14+/m0/s1
Instrument: Bruker maXis Impact
Instrument type: LC-ESI-QTOF
Ms type: MS2
Ion mode: POSITIVE
Ionization: ESI
Fragmentation mode: CID
Collision energy: 10 eV
Resolution: 35000
Column name: Acclaim RSLC C18 2.2um, 2.1x100mm, Thermo
Retention time: 4.5 min
Base peak: 290.1387
Precursor m/z: 290.1387
Precursor type: [M+H]+
m/z	relative intensity	assigned
168.1012	42	C9H14NO2+
272.1276	3	C16H18NO3+
290.1394	999	C16H20NO4+
291.1422	154	C15[13]CH20NO4+
292.1444	16	C14[13]C2H20NO4+
