Mass spectrum: Bisphenol A (3-chloro-2-hydroxypropyl) glycidyl ether; LC-ESI-QTOF; MS2; CE: 30 eV; R=35000; [M+NH4]+
Name: Bisphenol A (3-chloro-2-hydroxypropyl) glycidyl ether
Name: Bisphenol A (3-chloro-2-hydroxypropyl)glycidyl ether
Name: 1-chloro-3-[4-[2-[4-(oxiran-2-ylmethoxy)phenyl]propan-2-yl]phenoxy]propan-2-ol
Formula: C21H25ClO4
Exact mass: 376.1441
SMILES: CC(C)(C1=CC=C(C=C1)OCC2CO2)C3=CC=C(C=C3)OCC(CCl)O
InChI: InChI=1S/C21H25ClO4/c1-21(2,15-3-7-18(8-4-15)24-12-17(23)11-22)16-5-9-19(10-6-16)25-13-20-14-26-20/h3-10,17,20,23H,11-14H2,1-2H3
Instrument: Bruker maXis Impact
Instrument type: LC-ESI-QTOF
Ms type: MS2
Ion mode: POSITIVE
Ionization: ESI
Fragmentation mode: CID
Collision energy: 30 eV
Resolution: 35000
Column name: Acclaim RSLC C18 2.2um, 2.1x100mm, Thermo
Retention time: 11.123 min
Base peak: 394.1783
Precursor m/z: 394.1791
Precursor type: [M+NH4]+
m/z	relative intensity	assigned
133.0632	15	C3H14ClO3+
135.0793	747	C3H16ClO3+
147.0782	8	C4H16ClO3+
149.0216	18	C8H5O3+
161.0945	422	C5H18ClO3+
162.0986	73	C5H19ClO3+
173.0949	19	C6H18ClO3+
191.1059	999	C12H15O2+
192.1092	133	C6H21ClO4+
193.1088	9	C11H15NO2+
197.2015	7	C9H27NO3+
213.0283	15	C10H10ClO3+
227.0825	880	C12H16ClO2+
228.0849	119	C17H10N+
229.0798	254	C15H14Cl+
230.0812	24	C13H12NO3+
