Mass spectrum: Fluconazole; LC-ESI-QTOF; MS2; CE: 30 eV; R=35000; [M+H]+
Name: Fluconazole
Name: 2-(2,4-difluorophenyl)-1,3-bis(1,2,4-triazol-1-yl)propan-2-ol
Formula: C13H12F2N6O
Exact mass: 306.1040654
SMILES: OC(CN1C=NC=N1)(CN1C=NC=N1)C1=C(F)C=C(F)C=C1
InChI: InChI=1S/C13H12F2N6O/c14-10-1-2-11(12(15)3-10)13(22,4-20-8-16-6-18-20)5-21-9-17-7-19-21/h1-3,6-9,22H,4-5H2
Instrument: Bruker maXis Impact
Instrument type: LC-ESI-QTOF
Ms type: MS2
Ion mode: POSITIVE
Ionization: ESI
Fragmentation mode: CID
Collision energy: 30 eV
Resolution: 35000
Column name: Acclaim RSLC C18 2.2um, 2.1x100mm, Thermo
Retention time: 5.157 min
Base peak: 266.1662
Precursor m/z: 307.1113
Precursor type: [M+H]+
m/z	relative intensity	assigned
121.044	62	C8H6F+
122.0474	6	C7[13]CH6F+
127.0346	217	C7H5F2+
128.0378	21	C6[13]CH5F2+
139.0343	207	C8H5F2+
140.0377	16	C7[13]CH5F2+
141.0136	48	C10H2F+
141.0499	193	C8H7F2+
142.0171	5	C9[13]CH2F+
142.0538	16	C7[13]CH7F2+
147.0345	8	C3H3F2N5+
149.0393	10	C4H5F2N3O+
151.0344	207	C9H5F2+
152.0378	23	C8[13]CH5F2+
164.0429	8	C10H6F2+
166.046	27	C9H6F2N+
167.0488	6	C2H5F2N6O+
169.045	873	C12H6F+
170.0479	93	C11[13]CH6F+
170.07	5	C5H7FN6+
171.0519	5	C10[13]C2H6F+
173.0505	42	C10H6FN2+
174.0542	6	C9[13]CH6FN2+
177.0449	16	C12H5N2+
178.0447	5	C10H6F2N+
187.0554	38	C12H8FO+
193.0562	30	C10H7F2N2+
200.0611	85	C11H7FN3+
201.0637	9	C10[13]CH7FN3+
208.0668	6	C10H8F2N3+
220.0674	999	C11H8F2N3+
221.0709	138	C10[13]CH8F2N3+
222.0723	6	C9[13]C2H8F2N3+
238.0784	586	C11H10F2N3O+
239.0811	82	C10[13]CH10F2N3O+
240.0832	5	C9[13]C2H10F2N3O+
307.1118	7	C13H13F2N6O+
