Mass spectrum: Diuron; LC-ESI-QTOF; MS2; CE: 20 eV; R=35000; [M-H]-
Name: Diuron
Name: 3-(3,4-dichlorophenyl)-1,1-dimethylurea
Formula: C9H10Cl2N2O
Exact mass: 232.0170183
SMILES: CN(C)C(=O)NC1=CC(Cl)=C(Cl)C=C1
InChI: InChI=1S/C9H10Cl2N2O/c1-13(2)9(14)12-6-3-4-7(10)8(11)5-6/h3-5H,1-2H3,(H,12,14)
Instrument: Bruker maXis Impact
Instrument type: LC-ESI-QTOF
Ms type: MS2
Ion mode: NEGATIVE
Ionization: ESI
Fragmentation mode: CID
Collision energy: 20 eV
Resolution: 35000
Column name: Acclaim RSLC C18 2.2um, 2.1x100mm, Thermo
Retention time: 8.442 min
Base peak: 231.0104
Precursor m/z: 231.0097
Precursor type: [M-H]-
m/z	relative intensity	assigned
149.9747	161	C7HClNO-
159.9733	317	C6H4Cl2N-
161.9698	119	C6H4Cl[37]ClN-
185.9524	943	C7H2Cl2NO-
186.9554	42	C6[13]CH2Cl2NO-
187.9495	437	C7H2Cl[37]ClNO-
231.0107	999	C9H9Cl2N2O-
232.0144	71	C8[13]CH9Cl2N2O-
233.0073	380	C9H9Cl[37]ClN2O-
