Mass spectrum: Epoxiconazole; LC-ESI-QTOF; MS2; CE: Ramp 22.2-33.3 eV; R=35000; [M+H]+
Name: Epoxiconazole
Name: 1-[[3-(2-chlorophenyl)-2-(4-fluorophenyl)oxiran-2-yl]methyl]-1,2,4-triazole
Formula: C17H13ClFN3O
Exact mass: 329.0731179
SMILES: FC1=CC=C(C=C1)C1(CN2C=NC=N2)OC1C1=C(Cl)C=CC=C1
InChI: InChI=1S/C17H13ClFN3O/c18-15-4-2-1-3-14(15)16-17(23-16,9-22-11-20-10-21-22)12-5-7-13(19)8-6-12/h1-8,10-11,16H,9H2
Instrument: Bruker maXis Impact
Instrument type: LC-ESI-QTOF
Ms type: MS2
Ion mode: POSITIVE
Ionization: ESI
Fragmentation mode: CID
Collision energy: Ramp 22.2-33.3 eV
Resolution: 35000
Column name: Acclaim RSLC C18 2.2um, 2.1x100mm, Thermo
Retention time: 10.335 min
Base peak: 330.0802
Precursor m/z: 330.0804
Precursor type: [M+H]+
m/z	relative intensity	assigned
70.0395	244	C2H4N3+
71.0426	6	C[13]CH4N3+
91.0545	5	C7H7+
121.0447	999	C8H6F+
122.0478	122	C7[13]CH6F+
123.0237	281	C10H3+
124.0269	29	C9[13]CH3+
129.0447	16	C8H5N2+
138.9933	22	C5H2ClN3+
141.0092	148	C5H4ClN3+
142.0126	12	C4[13]CH4ClN3+
143.0061	42	C5H4[37]ClN3+
165.0536	8	C12H7N+
190.076	5	C10H9FN3+
198.0815	5	C6H14ClFN3O+
231.0355	5	C15H4FN2+
330.0804	105	C17H14ClFN3O+
331.0834	15	C16[13]CH14ClFN3O+
332.0773	31	C17H14[37]ClFN3O+
