Mass spectrum: Triethylphosphite; GC-APCI-QTOF; MS2; CE: 30 eV; R=35000; [M+H]+
Name: Triethylphosphite
Formula: C6H15O3P
Exact mass: 166.0759
SMILES: CCOP(OCC)OCC
InChI: InChI=1S/C6H15O3P/c1-4-7-10(8-5-2)9-6-3/h4-6H2,1-3H3
Instrument: Bruker 450 GC coupled to maXis Impact
Instrument type: GC-APCI-QTOF
Ms type: MS2
Ion mode: POSITIVE
Ionization: APCI
Fragmentation mode: CID
Collision energy: 30 eV
Resolution: 35000
Column name: Rxi-5Sil MS column, 30m, 0.25mm i.d., 0.25Âµm film thickness, Restek
Retention time: 13.907 min
Base peak: 167.0869
Precursor m/z: 167.0832
Precursor type: [M+H]+
m/z	relative intensity	assigned
128.0615	69	C3H13O3P+
141.0708	68	C4H14O3P+
152.0634	792	C5H13O3P+
153.0673	60	C5H14O3P+
165.0715	999	C6H14O3P+
166.078	198	C6H15O3P+
167.0865	64	C6H16O3P+
