Mass spectrum: Lauryl diethanolamide; LC-ESI-QTOF; MS2; CE: Ramp 21.2-31.8 eV; R=35000; [M+H]+
Name: Lauryl diethanolamide
Name: N,N-bis(2-hydroxyethyl)dodecanamide
Formula: C16H33NO3
Exact mass: 287.2460439
SMILES: CCCCCCCCCCCC(=O)N(CCO)CCO
InChI: InChI=1S/C16H33NO3/c1-2-3-4-5-6-7-8-9-10-11-16(20)17(12-14-18)13-15-19/h18-19H,2-15H2,1H3
Instrument: Bruker maXis Impact
Instrument type: LC-ESI-QTOF
Ms type: MS2
Ion mode: POSITIVE
Ionization: ESI
Fragmentation mode: CID
Collision energy: Ramp 21.2-31.8 eV
Resolution: 35000
Column name: Acclaim RSLC C18 2.2um, 2.1x100mm, Thermo
Retention time: 11.719 min
Base peak: 288.2534
Precursor m/z: 288.2533
Precursor type: [M+H]+
m/z	relative intensity	assigned
55.0538	20	C4H7+
57.0693	217	C4H9+
58.0734	9	C3[13]CH9+
60.0436	6	C2H6NO+
62.0592	9	C2H8NO+
67.0535	35	C5H7+
68.0486	6	C4H6N+
69.0692	13	C5H9+
70.0646	323	C4H8N+
71.0684	12	C3[13]CH8N+
71.0849	123	C5H11+
72.0884	5	C4[13]CH11+
73.0284	7	C3H5O2+
81.0699	29	C6H9+
83.0853	18	C6H11+
85.101	44	C6H13+
88.0758	958	C4H10NO+
89.079	39	C3[13]CH10NO+
95.0857	49	C7H11+
97.1015	9	C7H13+
106.0881	553	C4H12NO2+
107.091	37	C3[13]CH12NO2+
109.1012	15	C8H13+
123.1158	6	C9H15+
165.1628	6	C12H21+
183.1723	33	C12H23O+
184.1765	5	C11[13]CH23O+
226.2152	30	C14H28NO+
227.2	999	C14H27O2+
228.203	153	C13[13]CH27O2+
229.2051	17	C13H27NO2+
230.248	7	C14H32NO+
270.2421	235	C16H32NO2+
271.2447	47	C15[13]CH32NO2+
288.2528	138	C16H34NO3+
289.2567	31	C15[13]CH34NO3+
