Mass spectrum: Fenthion-sulfoxide; LC-ESI-QTOF; MS2; CE: 40 eV; R=35000; [M+H]+
Name: Fenthion-sulfoxide
Formula: C10H15O4PS2
Exact mass: 294.0149376
SMILES: Cc1cc(ccc1S(=O)C)OP(=S)(OC)OC
InChI: InChI=1S/C10H15O4PS2/c1-8-7-9(5-6-10(8)17(4)11)14-15(16,12-2)13-3/h5-7H,1-4H3
Instrument: Bruker maXis Impact
Instrument type: LC-ESI-QTOF
Ms type: MS2
Ion mode: POSITIVE
Ionization: ESI
Fragmentation mode: CID
Collision energy: 40 eV
Resolution: 35000
Column name: Acclaim RSLC C18 2.2um, 2.1x100mm, Thermo
Retention time: 7.2 min
Base peak: 295.0224
Precursor m/z: 295.0222
Precursor type: [M+H]+
m/z	relative intensity	assigned
109.0044	58	C2H6O3P+
110.0175	22	C6H6S+
121.0102	244	C7H5S+
121.0639	62	C8H9O+
122.0174	135	C7H6S+
122.0725	20	C8H10O+
123.0255	94	C7H7S+
124.0336	83	C7H8S+
124.9813	987	C2H6O2PS+
125.984	26	C5H3O2P+
126.0144	34	C6H6OS+
126.9769	46	C5H4PS+
127.0154	154	C2H8O4P+
134.0179	67	C8H6S+
135.0253	195	C8H7S+
135.9965	43	H9O4PS+
136.0334	153	C8H8S+
137.0046	221	C7H5OS+
137.0411	142	C8H9S+
138.0124	133	C7H6OS+
138.048	75	CH15O3PS+
139.0198	202	H12O4PS+
140.0252	23	C10H4O+
140.9811	84	C6H5S2+
141.9896	142	C6H6S2+
142.992	508	C2H8O3PS+
143.9958	30	C5H5O3P+
144.9893	22	C2H10OPS2+
151.0571	115	C9H11S+
151.9734	34	H9O3PS2+
152.0628	20	C9H12S+
152.9817	999	C7H5S2+
153.0361	107	C8H9OS+
153.9895	418	C7H6S2+
154.043	79	CH15O4PS+
154.9768	108	C7H5S[34]S+
154.9956	128	H12O3PS2+
155.0152	74	C7H7O2S+
155.986	37	C6H4O3S+
165.988	38	CH11O3PS2+
166.9972	85	C8H7S2+
167.9783	34	C7H5OPS+
168.006	59	C8H8S2+
168.0596	38	C9H12OS+
168.9856	535	C7H6OPS+
169.0131	679	C8H9S2+
169.9858	437	C7H6OS2+
170.0199	159	CH15O3PS2+
170.9917	209	H12O4PS2+
171.0071	64	C8H9S[34]S+
171.98	44	C9O4+
171.9958	20	C3H9O4PS+
184.0362	40	C9H12S2+
184.9815	37	C7H6O2PS+
185.008	21	C8H9OS2+
186.0161	24	C8H10OS2+
187.0002	18	C4H12O2PS2+
198.9423	52	C7H4OPS2+
199.0509	117	C9H12O3P+
200.0045	632	C8H9O2PS+
200.957	35	C10H2OPS+
201.0083	67	C8H9O2S2+
202.0006	30	C8H11PS2+
202.9916	60	C7H8O3PS+
213.0117	47	C9H10O2PS+
214.9384	23	C7H4O2PS2+
214.9911	24	C8H8O3PS+
215.9458	74	C7H5O2PS2+
217.0065	91	C8H10O3PS+
218.0136	37	C8H11O3PS+
229.0105	23	C6H14O3PS2+
229.9637	23	C8H7O2PS2+
230.9687	125	C8H8O2PS2+
231.0229	107	C9H12O3PS+
231.9773	28	C8H9O2PS2+
232.0307	245	C9H13O3PS+
232.9858	32	C8H10O2PS2+
233.0358	25	C9H14O3PS+
245.0393	58	C10H14O3PS+
245.9931	69	C9H11O2PS2+
246.9639	56	C8H8O3PS2+
247.0201	36	C9H12O4PS+
247.9711	72	C8H9O3PS2+
248.9801	34	C8H10O3PS2+
261.9881	84	C9H11O3PS2+
262.9948	302	C9H12O3PS2+
263.9977	58	C7H9N2O5PS+
264.0198	18	C9H13O5PS+
264.9758	25	C8H10O4PS2+
264.9883	31	C7H10N2O3PS2+
278.0197	142	C10H15O3PS2+
279.021	34	C10H16O3PS2+
279.9986	181	C9H13O4PS2+
281.0053	26	C9H14O4PS2+
