Mass spectrum: Dimethyl terephthalate; GC-APCI-QTOF; MS2; CE: 30 eV; R=35000; [M+H]+
Name: Dimethyl terephthalate
Formula: C10H10O4
Exact mass: 194.0579
SMILES: COC(=O)C1=CC=C(C=C1)C(=O)OC
InChI: InChI=1S/C10H10O4/c1-13-9(11)7-3-5-8(6-4-7)10(12)14-2/h3-6H,1-2H3
Instrument: Bruker 450 GC coupled to maXis Impact
Instrument type: GC-APCI-QTOF
Ms type: MS2
Ion mode: POSITIVE
Ionization: APCI
Fragmentation mode: CID
Collision energy: 30 eV
Resolution: 35000
Column name: Rxi-5Sil MS column, 30m, 0.25mm i.d., 0.25Âµm film thickness, Restek
Retention time: 4.300 min
Base peak: 195.0882
Precursor m/z: 195.0652
Precursor type: [M+H]+
m/z	relative intensity	assigned
133.0524	702	C5H9O4+
151.0402	999	C8H7O3+
