Mass spectrum: Chlorothalonil-4-hydroxy; LC-ESI-QTOF; MS2; CE: 40 eV; R=35000; [M-H]-
Name: Chlorothalonil-4-hydroxy
Name: 4-Hydroxy-2,5,6-trichloroisophthalonitrile
Name: 2,4,5-trichloro-6-hydroxybenzene-1,3-dicarbonitrile
Formula: C8HCl3N2O
Exact mass: 245.9154457
SMILES: OC1=C(Cl)C(Cl)=C(C#N)C(Cl)=C1C#N
InChI: InChI=1S/C8HCl3N2O/c9-5-3(1-12)6(10)7(11)8(14)4(5)2-13/h14H
Instrument: Bruker maXis Impact
Instrument type: LC-ESI-QTOF
Ms type: MS2
Ion mode: NEGATIVE
Ionization: ESI
Fragmentation mode: CID
Collision energy: 40 eV
Resolution: 35000
Column name: Acclaim RSLC C18 2.2um, 2.1x100mm, Thermo
Retention time: 7.449 min
Base peak: 244.908
Precursor m/z: 244.9082
Precursor type: [M-H]-
m/z	relative intensity	assigned
134.9751	77	C6ClN2-
146.9754	999	C7ClN2-
147.9783	91	C6[13]CClN2-
148.9725	226	C7[37]ClN2-
150.9702	132	C6ClN2O-
174.9701	782	C8ClN2O-
175.9733	105	C7[13]CClN2O-
176.9667	226	C8[37]ClN2O-
181.9455	326	C7Cl2N2-
183.9406	122	C7Cl[37]ClN2-
197.9385	88	C7Cl2N2O-
199.9385	71	C7Cl[37]ClN2O-
209.9388	86	C8Cl2N2O-
244.9071	286	C8Cl3N2O-
246.9044	177	C8Cl2[37]ClN2O-
