Mass spectrum: Pantoprazole; LC-ESI-QTOF; MS2; CE: 40 eV; R=35000; [M+H]+
Name: Pantoprazole
Name: 6-(difluoromethoxy)-2-[(3,4-dimethoxypyridin-2-yl)methylsulfinyl]-1H-benzimidazole
Formula: C16H15F2N3O4S
Exact mass: 383.0751334
SMILES: COc1ccnc(c1OC)CS(=O)c2[nH]c3ccc(cc3n2)OC(F)F
InChI: InChI=1S/C16H15F2N3O4S/c1-23-13-5-6-19-12(14(13)24-2)8-26(22)16-20-10-4-3-9(25-15(17)18)7-11(10)21-16/h3-7,15H,8H2,1-2H3,(H,20,21)
Instrument: Bruker maXis Impact
Instrument type: LC-ESI-QTOF
Ms type: MS2
Ion mode: POSITIVE
Ionization: ESI
Fragmentation mode: CID
Collision energy: 40 eV
Resolution: 35000
Column name: Acclaim RSLC C18 2.2um, 2.1x100mm, Thermo
Retention time: 7.411 min
Base peak: 384.0834
Precursor m/z: 384.0824
Precursor type: [M+H]+
m/z	relative intensity	assigned
122.0593	14	C7H8NO+
136.0384	101	C7H6NO2+
137.0418	7	C6[13]CH6NO2+
138.0544	999	C7H8NO2+
139.0073	12	C3H3F2NO3+
139.0574	83	C6[13]CH8NO2+
140.0593	5	C7H8NO[18]O+
152.0697	83	H14N3O4S+
153.0769	31	H15N3O4S+
154.0489	52	C5H10F2NS+
156.0103	5	C3H4F2NO4+
165.0104	9	C4H3F2N2O3+
167.0027	27	C4H3F2NO4+
168.0646	13	C6H12F2NS+
182.0261	20	C5H6F2NO4+
185.0131	5	C13HN2+
185.0513	15	C11H6FN2+
200.037	250	C8H10NO3S+
201.0399	21	C7[13]CH10NO3S+
202.0332	7	C8H10NO3[34]S+
