Mass spectrum: Mephedrone; LC-ESI-QTOF; MS2; CE: RAMP 17.2-25.8 eV; R=35000; [M+H]+
Name: Mephedrone
Name: 2-(methylamino)-1-(4-methylphenyl)propan-1-one
Formula: C11H15NO
Exact mass: 177.1153641
SMILES: Cc1ccc(cc1)C(=O)C(C)NC
InChI: InChI=1S/C11H15NO/c1-8-4-6-10(7-5-8)11(13)9(2)12-3/h4-7,9,12H,1-3H3
Instrument: Bruker maXis Impact
Instrument type: LC-ESI-QTOF
Ms type: MS2
Ion mode: POSITIVE
Ionization: ESI
Fragmentation mode: CID
Collision energy: RAMP 17.2-25.8 eV
Resolution: 35000
Column name: Acclaim RSLC C18 2.2um, 2.1x100mm, Thermo
Retention time: 4.657 min
Base peak: 178.1229
Precursor m/z: 178.1226
Precursor type: [M+H]+
m/z	relative intensity	assigned
58.0643	29	C3H8N+
91.0536	73	C7H7+
93.0691	8	C7H9+
115.0538	6	C9H7+
117.0692	23	C9H9+
119.0856	160	C9H11+
120.0884	10	C8[13]CH11+
129.0692	6	C10H9+
130.0645	22	C9H8N+
144.0802	333	C10H10N+
145.0881	999	C10H11N+
146.0911	69	C9[13]CH11N+
147.0798	28	C10H11O+
158.095	5	C11H12N+
160.1116	585	C11H14N+
161.1148	57	C10[13]CH14N+
178.1221	23	C11H16NO+
