Mass spectrum: Benzidine; LC-ESI-QTOF; MS2; CE: 10 eV; R=35000; [M+H]+
Name: Benzidine
Name: 4-(4-aminophenyl)aniline
Formula: C12H12N2
Exact mass: 184.1000484
SMILES: NC1=CC=C(C=C1)C1=CC=C(N)C=C1
InChI: InChI=1S/C12H12N2/c13-11-5-1-9(2-6-11)10-3-7-12(14)8-4-10/h1-8H,13-14H2
Instrument: Bruker maXis Impact
Instrument type: LC-ESI-QTOF
Ms type: MS2
Ion mode: POSITIVE
Ionization: ESI
Fragmentation mode: CID
Collision energy: 10 eV
Resolution: 35000
Column name: Acclaim RSLC C18 2.2um, 2.1x100mm, Thermo
Retention time: 3.975 min
Base peak: 199.0969
Precursor m/z: 185.1073
Precursor type: [M+H]+
m/z	relative intensity	assigned
167.0713	6	C12H9N+
168.0795	28	C12H10N+
169.0831	6	C11[13]CH10N+
183.0903	19	C12H11N2+
184.0986	767	C12H12N2+
185.1062	999	C12H13N2+
186.1094	91	C11[13]CH13N2+
187.1124	5	C10[13]C2H13N2+
