Mass spectrum: 2,6-di-tert-Butylphenol; LC-ESI-QTOF; MS2; CE: Ramp 18.3-27.4 eV; R=35000; [M+H]+
Name: 2,6-di-tert-Butylphenol
Name: 2,6-ditert-butylphenol
Formula: C14H22O
Exact mass: 206.1670653
SMILES: CC(C)(C)C1=CC=CC(=C1O)C(C)(C)C
InChI: InChI=1S/C14H22O/c1-13(2,3)10-8-7-9-11(12(10)15)14(4,5)6/h7-9,15H,1-6H3
Instrument: Bruker maXis Impact
Instrument type: LC-ESI-QTOF
Ms type: MS2
Ion mode: POSITIVE
Ionization: ESI
Fragmentation mode: CID
Collision energy: Ramp 18.3-27.4 eV
Resolution: 35000
Column name: Acclaim RSLC C18 2.2um, 2.1x100mm, Thermo
Retention time: 10.783 min
Base peak: 102.1283
Precursor m/z: 207.1743
Precursor type: [M+H]+
m/z	relative intensity	assigned
137.1299	952	C10H17+
149.1343	999	C11H17+
