Mass spectrum: Difloxacin; LC-ESI-QTOF; MS2; CE: Ramp 23.6-35.4 eV; R=35000; [M+H]+
Name: Difloxacin
Name: 6-fluoro-1-(4-fluorophenyl)-7-(4-methylpiperazin-1-yl)-4-oxoquinoline-3-carboxylic acid
Name: 6-fluoro-1-(4-fluorophenyl)-7-(4-methylpiperazin-4-ium-1-yl)-4-oxoquinoline-3-carboxylate
Formula: C21H19F2N3O3
Exact mass: 399.1394479
SMILES: CN1CCN(CC1)C2=C(C=C3C(=C2)N(C=C(C3=O)C(=O)O)C4=CC=C(C=C4)F)F
InChI: InChI=1S/C21H19F2N3O3/c1-24-6-8-25(9-7-24)19-11-18-15(10-17(19)23)20(27)16(21(28)29)12-26(18)14-4-2-13(22)3-5-14/h2-5,10-12H,6-9H2,1H3,(H,28,29)
Instrument: Bruker maXis Impact
Instrument type: LC-ESI-QTOF
Ms type: MS2
Ion mode: POSITIVE
Ionization: ESI
Fragmentation mode: CID
Collision energy: Ramp 23.6-35.4 eV
Resolution: 35000
Column name: Acclaim RSLC C18 2.2um, 2.1x100mm, Thermo
Retention time: 5.1 min
Base peak: 360.1763
Precursor m/z: 400.1467
Precursor type: [M+H]+
m/z	relative intensity	assigned
58.0651	11	C3H8N+
285.0853	14	C16H11F2N2O+
299.1011	201	C17H13F2N2O+
300.1045	42	C20H13FN2+
306.1414	15	C21H19FO+
311.0994	5	C18H13F2N2O+
334.1364	10	C17H18F2N3O2+
354.1092	9	C21H16F2O3+
354.1434	10	C20H18F2N3O+
355.1454	5	C20H20FN2O3+
356.1597	268	C20H20F2N3O+
357.1628	57	C18H20FN5O2+
358.1633	6	C21H20N5O+
380.1434	9	C21H19FN3O3+
382.1391	79	C21H18F2N3O2+
383.141	22	C21H19F2N3O2+
400.1496	999	C21H20F2N3O3+
401.153	323	C19H20FN5O4+
402.156	30	C20H20F2N4O3+
