Mass spectrum: Bezafibrate; LC-ESI-QTOF; MS2; CE: 20 eV; R=35000; [M+H]+
Name: Bezafibrate
Name: 2-[4-[2-[(4-chlorobenzoyl)amino]ethyl]phenoxy]-2-methylpropanoic acid
Formula: C19H20ClNO4
Exact mass: 361.1080858
SMILES: CC(C)(OC1=CC=C(CCNC(=O)C2=CC=C(Cl)C=C2)C=C1)C(O)=O
InChI: InChI=1S/C19H20ClNO4/c1-19(2,18(23)24)25-16-9-3-13(4-10-16)11-12-21-17(22)14-5-7-15(20)8-6-14/h3-10H,11-12H2,1-2H3,(H,21,22)(H,23,24)
Instrument: Bruker maXis Impact
Instrument type: LC-ESI-QTOF
Ms type: MS2
Ion mode: POSITIVE
Ionization: ESI
Fragmentation mode: CID
Collision energy: 20 eV
Resolution: 35000
Column name: Acclaim RSLC C18 2.2um, 2.1x100mm, Thermo
Retention time: 8.952 min
Base peak: 748.4831
Precursor m/z: 362.1154
Precursor type: [M+H]+
m/z	relative intensity	assigned
121.0641	204	C8H9O+
122.0667	29	C7[13]CH9O+
138.9934	558	C7H4ClO+
139.9968	57	C6[13]CH4ClO+
140.9907	207	C7H4[37]ClO+
161.0953	123	C11H13O+
163.0745	29	C10H11O2+
178.1212	38	C5H21ClNO3+
189.0909	18	C12H13O2+
207.1009	89	C15H13N+
208.1031	18	C14[13]CH13N+
276.0781	595	C15H15ClNO2+
277.0832	99	C14[13]CH15ClNO2+
278.0757	197	C15H15[37]ClNO2+
279.0775	32	C15H16ClO3+
316.11	999	C18H19ClNO2+
317.1118	205	C17[13]CH19ClNO2+
318.1081	280	C18H19[37]ClNO2+
319.1093	43	C18H20ClO3+
344.1037	76	C19H19ClNO3+
346.1029	40	C19H19[37]ClNO3+
362.1135	90	C19H21ClNO4+
363.1175	26	C18[13]CH21ClNO4+
364.1159	36	C19H21[37]ClNO4+
