Mass spectrum: Acephate; LC-ESI-QTOF; MS2; CE: 10 eV; R=35000; [M-H]-
Name: Acephate
Name: N-[methoxy(methylsulfanyl)phosphoryl]acetamide
Formula: C4H10NO3PS
Exact mass: 183.0119008
SMILES: CC(=O)NP(=O)(OC)SC
InChI: InChI=1S/C4H10NO3PS/c1-4(6)5-9(7,8-2)10-3/h1-3H3,(H,5,6,7)
Instrument: Bruker maXis Impact
Instrument type: LC-ESI-QTOF
Ms type: MS2
Ion mode: NEGATIVE
Ionization: ESI
Fragmentation mode: CID
Collision energy: 10 eV
Resolution: 35000
Column name: Acclaim RSLC C18 2.2um, 2.1x100mm, Thermo
Retention time: 2.927 min
Base peak: 182.0022
Precursor m/z: 182.0046
Precursor type: [M-H]-
m/z	relative intensity	assigned
140.9759	660	C2H6O3PS-
182.0027	999	C4H9NO3PS-
