Mass spectrum: Spinosyn A; LC-ESI-QTOF; MS2; CE: Ramp 30.4-45.7 eV; R=35000; [M+H]+
Name: Spinosyn A
Name: Spinosad factor A
Name: (1S,2R,5S,7R,9R,10S,14R,15S,19S)-15-[(2R,5S,6R)-5-(dimethylamino)-6-methyloxan-2-yl]oxy-19-ethyl-14-methyl-7-[(2R,3R,4R,5S,6S)-3,4,5-trimethoxy-6-methyloxan-2-yl]oxy-20-oxatetracyclo[10.10.0.02,10.05,9]docosa-3,11-diene-13,21-dione
Formula: C41H65NO10
Exact mass: 731.4608473
SMILES: [H][C@]1(C[C@@]2([H])C=C[C@@]3([H])[C@]4([H])CC(=O)O[C@@]([H])(CC)CCC[C@]([H])(O[C@@]5([H])CC[C@]([H])(N(C)C)[C@@]([H])(C)O5)[C@@]([H])(C)C(=O)C4=C[C@@]3([H])[C@]2([H])C1)O[C@]1([H])O[C@@]([H])(C)[C@]([H])(OC)[C@@]([H])(OC)[C@@]1([H])OC
InChI: InChI=1S/C41H65NO10/c1-10-26-12-11-13-34(52-36-17-16-33(42(5)6)23(3)48-36)22(2)37(44)32-20-30-28(31(32)21-35(43)50-26)15-14-25-18-27(19-29(25)30)51-41-40(47-9)39(46-8)38(45-7)24(4)49-41/h14-15,20,22-31,33-34,36,38-41H,10-13,16-19,21H2,1-9H3/t22-,23-,24+,25-,26+,27-,28-,29-,30-,31+,33+,34+,36+,38+,39-,40-,41+/m1/s1
Instrument: Bruker maXis Impact
Instrument type: LC-ESI-QTOF
Ms type: MS2
Ion mode: POSITIVE
Ionization: ESI
Fragmentation mode: CID
Collision energy: Ramp 30.4-45.7 eV
Resolution: 35000
Column name: Acclaim RSLC C18 2.2um, 2.1x100mm, Thermo
Retention time: 11.160 min
Base peak: 732.4678
Precursor m/z: 732.4681
Precursor type: [M+H]+
m/z	relative intensity	assigned
59.0487	7	C3H7O+
69.0695	13	C5H9+
75.0435	27	C3H7O2+
97.0651	38	C6H9O+
98.0969	48	C6H12N+
99.0446	30	C5H7O2+
99.0807	20	C6H11O+
101.0603	13	C5H9O2+
125.0597	6	C7H9O2+
142.1222	999	C8H16NO+
143.1252	88	C7[13]CH16NO+
144.1277	5	C6[13]C2H16NO+
145.085	10	C7H13O3+
157.0852	22	C8H13O3+
160.1324	17	C8H18NO2+
189.1114	70	C9H17O4+
190.1147	6	C8[13]CH17O4+
449.2165	7	C24H33O8+
732.4708	152	C41H66NO10+
733.4741	68	C40[13]CH66NO10+
734.4763	18	C39[13]C2H66NO10+
