Mass spectrum: Octyl-methoxycinnamate; LC-ESI-QTOF; MS2; CE: 40 eV; R=35000; [M+H]+
Name: Octyl-methoxycinnamate
Name: Octinoxate
Name: 2-ethylhexyl (E)-3-(4-methoxyphenyl)prop-2-enoate
Formula: C18H26O3
Exact mass: 290.1881947
SMILES: CCCCC(CC)COC(=O)\C=C\C1=CC=C(OC)C=C1
InChI: InChI=1S/C18H26O3/c1-4-6-7-15(5-2)14-21-18(19)13-10-16-8-11-17(20-3)12-9-16/h8-13,15H,4-7,14H2,1-3H3/b13-10+
Instrument: Bruker maXis Impact
Instrument type: LC-ESI-QTOF
Ms type: MS2
Ion mode: POSITIVE
Ionization: ESI
Fragmentation mode: CID
Collision energy: 40 eV
Resolution: 35000
Column name: Acclaim RSLC C18 2.2um, 2.1x100mm, Thermo
Retention time: 13.857 min
Base peak: 291.1953
Precursor m/z: 291.1955
Precursor type: [M+H]+
m/z	relative intensity	assigned
118.0406	75	C8H6O+
119.0449	8	C7[13]CH6O+
133.0641	740	C9H9O+
134.0672	82	C8[13]CH9O+
137.0584	12	C8H9O2+
161.0586	999	C10H9O2+
162.0619	138	C9[13]CH9O2+
179.0691	14	C10H11O3+
