Mass spectrum: Methiocarb-sulfoxide phenol; LC-ESI-QTOF; MS2; CE: 40 eV; R=35000; [M-H]-
Name: Methiocarb-sulfoxide phenol
Name: Phenol, 3,5-dimethyl-4-(methylsulfinyl)-
Name: 3,5-dimethyl-4-methylsulfinylphenol
Formula: C9H12O2S
Exact mass: 184.0558006
SMILES: CC1=CC(O)=CC(C)=C1S(C)=O
InChI: InChI=1S/C9H12O2S/c1-6-4-8(10)5-7(2)9(6)12(3)11/h4-5,10H,1-3H3
Instrument: Bruker maXis Impact
Instrument type: LC-ESI-QTOF
Ms type: MS2
Ion mode: NEGATIVE
Ionization: ESI
Fragmentation mode: CID
Collision energy: 40 eV
Resolution: 35000
Column name: Acclaim RSLC C18 2.2um, 2.1x100mm, Thermo
Retention time: 4.617 min
Base peak: 168.025
Precursor m/z: 183.0485
Precursor type: [M-H]-
m/z	relative intensity	assigned
123.0274	999	C7H7S-
147.9975	136	C8H4OS-
149.003	162	C8H5OS-
151.0222	403	C8H7OS-
