Mass spectrum: 4-Formyl-antipyrine; LC-ESI-QTOF; MS2; CE: 20 eV; R=35000; [M+H]+
Name: 4-Formyl-antipyrine
Name: 1,5-Dimethyl-3-oxo-2-phenyl-2,3-dihydro-1H-pyrazole-4-carbaldehyde
Name: 1,5-dimethyl-3-oxo-2-phenylpyrazole-4-carbaldehyde
Formula: C12H12N2O2
Exact mass: 216.0898776
SMILES: CN1N(C(=O)C(C=O)=C1C)C1=CC=CC=C1
InChI: InChI=1S/C12H12N2O2/c1-9-11(8-15)12(16)14(13(9)2)10-6-4-3-5-7-10/h3-8H,1-2H3
Instrument: Bruker maXis Impact
Instrument type: LC-ESI-QTOF
Ms type: MS2
Ion mode: POSITIVE
Ionization: ESI
Fragmentation mode: CID
Collision energy: 20 eV
Resolution: 35000
Column name: Acclaim RSLC C18 2.2um, 2.1x100mm, Thermo
Retention time: 3.984 min
Base peak: 217.0971
Precursor m/z: 217.0972
Precursor type: [M+H]+
m/z	relative intensity	assigned
130.064	7	C9H8N+
131.0714	6	C9H9N+
144.0797	7	C10H10N+
147.0905	26	C9H11N2+
159.0903	13	C10H11N2+
174.0774	8	C10H10N2O+
187.0852	5	C11H11N2O+
189.1013	32	C11H13N2O+
199.085	5	C12H11N2O+
200.0568	7	C11H8N2O2+
202.0722	6	C11H10N2O2+
215.0806	64	C12H11N2O2+
216.0834	8	C11[13]CH11N2O2+
217.0971	999	C12H13N2O2+
218.0997	186	C11[13]CH13N2O2+
219.1018	13	C10[13]C2H13N2O2+
