Mass spectrum: Coumaphos; LC-ESI-QTOF; MS2; CE: 10 eV; R=35000; [M+H]+
Name: Coumaphos
Name: 3-chloro-7-diethoxyphosphinothioyloxy-4-methylchromen-2-one
Formula: C14H16ClO5PS
Exact mass: 362.0144589
SMILES: CCOP(=S)(OCC)Oc1ccc2c(c(c(=O)oc2c1)Cl)C
InChI: InChI=1S/C14H16ClO5PS/c1-4-17-21(22,18-5-2)20-10-6-7-11-9(3)13(15)14(16)19-12(11)8-10/h6-8H,4-5H2,1-3H3
Instrument: Bruker maXis Impact
Instrument type: LC-ESI-QTOF
Ms type: MS2
Ion mode: POSITIVE
Ionization: ESI
Fragmentation mode: CID
Collision energy: 10 eV
Resolution: 35000
Column name: Acclaim RSLC C18 2.2um, 2.1x100mm, Thermo
Retention time: 11.0 min
Base peak: 363.021
Precursor m/z: 363.0217
Precursor type: [M+H]+
m/z	relative intensity	assigned
226.9894	7	C13H4ClO2+
306.9586	17	C10H9ClO5PS+
334.9909	38	C12H13ClO5PS+
336.9912	12	C14H9ClNO5P+
363.0212	999	C14H17ClO5PS+
364.0254	92	C13[13]CH17ClO5PS+
365.0192	209	C14H17[37]ClO5PS+
366.027	16	C13[13]CH17[37]ClO5PS+
