Mass spectrum: Loperamide; LC-ESI-QTOF; MS2; CE: 40 eV; R=35000; [M+H]+
Name: Loperamide
Name: 4-[4-(4-chlorophenyl)-4-hydroxypiperidin-1-yl]-N,N-dimethyl-2,2-diphenylbutanamide
Formula: C29H33ClN2O2
Exact mass: 476.2230560
SMILES: CN(C)C(=O)C(CCN1CCC(O)(CC1)C1=CC=C(Cl)C=C1)(C1=CC=CC=C1)C1=CC=CC=C1
InChI: InChI=1S/C29H33ClN2O2/c1-31(2)27(33)29(24-9-5-3-6-10-24,25-11-7-4-8-12-25)19-22-32-20-17-28(34,18-21-32)23-13-15-26(30)16-14-23/h3-16,34H,17-22H2,1-2H3
Instrument: Bruker maXis Impact
Instrument type: LC-ESI-QTOF
Ms type: MS2
Ion mode: POSITIVE
Ionization: ESI
Fragmentation mode: CID
Collision energy: 40 eV
Resolution: 35000
Column name: Acclaim RSLC C18 2.2um, 2.1x100mm, Thermo
Retention time: 8.287 min
Base peak: 477.2304
Precursor m/z: 477.2303
Precursor type: [M+H]+
m/z	relative intensity	assigned
193.1004	5	C15H13+
210.1273	227	C9H21ClNO2+
211.1301	27	C8[13]CH21ClNO2+
238.1222	32	C16H16NO+
239.1252	5	C15[13]CH16NO+
266.1547	999	C18H20NO+
267.1572	361	C18H21NO+
268.16	25	C16[13]C2H20NO+
