Mass spectrum: Oxfendazole; LC-ESI-QTOF; MS2; CE: 50 eV; R=35000; [M+H]+
Name: Oxfendazole
Name: methyl N-[6-(benzenesulfinyl)-1H-benzimidazol-2-yl]carbamate
Formula: C15H13N3O3S
Exact mass: 315.0677623
SMILES: COC(=O)Nc1[nH]c2ccc(cc2n1)S(=O)c3ccccc3
InChI: InChI=1S/C15H13N3O3S/c1-21-15(19)18-14-16-12-8-7-11(9-13(12)17-14)22(20)10-5-3-2-4-6-10/h2-9H,1H3,(H2,16,17,18,19)
Instrument: Bruker maXis Impact
Instrument type: LC-ESI-QTOF
Ms type: MS2
Ion mode: POSITIVE
Ionization: ESI
Fragmentation mode: CID
Collision energy: 50 eV
Resolution: 35000
Column name: Acclaim RSLC C18 2.2um, 2.1x100mm, Thermo
Retention time: 6.5 min
Base peak: 238.1074
Precursor m/z: 316.075
Precursor type: [M+H]+
m/z	relative intensity	assigned
118.0518	11	C7H6N2+
131.0469	129	C7H5N3+
132.0537	13	C4H8N2O3+
146.0708	16	C8H8N3+
147.0432	23	C7H5N3O+
159.0421	999	C8H5N3O+
160.0455	74	C7[13]CH5N3O+
175.0364	27	C8H5N3O2+
190.0058	16	C13H2O2+
191.0323	173	C8H5N3O3+
191.0687	27	C9H9N3O2+
198.0371	17	C12H8NS+
199.0452	13	C12H9NS+
207.01	41	C8H5N3O2S+
224.0407	10	C13H8N2S+
234.0665	13	C14H8N3O+
235.0734	26	C14H9N3O+
238.0421	16	C13H8N3S+
239.051	12	C13H9N3S+
240.0571	10	C10H12N2O3S+
266.0382	181	C14H8N3OS+
267.0455	79	C14H9N3OS+
268.0454	15	C15H10NO2S+
