Mass spectrum: N,O-Didesvenlafaxine; LC-ESI-QTOF; MS2; CE: 50 eV; R=35000; [M+H]+
Name: N,O-Didesvenlafaxine
Name: 4-[1-(1-hydroxycyclohexyl)-2-(methylamino)ethyl]phenol
Formula: C15H23NO2
Exact mass: 249.1728790
SMILES: CNCC(C1=CC=C(O)C=C1)C1(O)CCCCC1
InChI: InChI=1S/C15H23NO2/c1-16-11-14(12-5-7-13(17)8-6-12)15(18)9-3-2-4-10-15/h5-8,14,16-18H,2-4,9-11H2,1H3
Instrument: Bruker maXis Impact
Instrument type: LC-ESI-QTOF
Ms type: MS2
Ion mode: POSITIVE
Ionization: ESI
Fragmentation mode: CID
Collision energy: 50 eV
Resolution: 35000
Column name: Acclaim RSLC C18 2.2um, 2.1x100mm, Thermo
Retention time: 4.8 min
Base peak: 250.1798
Precursor m/z: 250.1802
Precursor type: [M+H]+
m/z	relative intensity	assigned
115.0534	473	C9H7+
116.0606	72	C9H8+
117.0683	79	C9H9+
120.0428	46	C7H6NO+
121.0638	113	C8H9O+
127.0533	166	C10H7+
128.0603	131	C10H8+
129.0679	75	C10H9+
131.0485	302	C9H7O+
131.0843	128	C10H11+
132.0557	140	C9H8O+
133.064	999	C9H9O+
134.0598	151	C8H8NO+
135.0664	294	C8H9NO+
141.0692	300	C11H9+
144.0559	517	C10H8O+
145.0636	408	C10H9O+
146.0676	53	C5H10N2O3+
147.0787	57	C10H11O+
148.0749	44	C9H10NO+
149.0814	64	C9H11NO+
153.0695	45	C12H9+
155.0601	150	C10H7N2+
157.0637	81	C11H9O+
158.073	69	C11H10O+
159.0794	180	C11H11O+
169.0752	77	C11H9N2+
