Mass spectrum: Scopolamine-N-butyl; LC-ESI-QTOF; MS2; CE: 30 eV; R=35000; [M+H]+
Name: Scopolamine-N-butyl
Name: [(1S,2R,4S,5S)-9-butyl-9-methyl-3-oxa-9-azoniatricyclo[3.3.1.0^{2,4}]nonan-7-yl] 3-hydroxy-2-phenylpropanoate
Formula: [C21H30NO4]+
Exact mass: 360.2174834
SMILES: CCCC[N+]1(C)[C@H]2CC(C[C@H]1[C@@H]1O[C@H]21)OC(=O)C(CO)C1=CC=CC=C1
InChI: InChI=1S/C21H30NO4/c1-3-4-10-22(2)17-11-15(12-18(22)20-19(17)26-20)25-21(24)16(13-23)14-8-6-5-7-9-14/h5-9,15-20,23H,3-4,10-13H2,1-2H3/q+1/t15?,16?,17-,18-,19-,20+,22?/m0/s1
Instrument: Bruker maXis Impact
Instrument type: LC-ESI-QTOF
Ms type: MS2
Ion mode: POSITIVE
Ionization: ESI
Fragmentation mode: CID
Collision energy: 30 eV
Resolution: 35000
Column name: Acclaim RSLC C18 2.2um, 2.1x100mm, Thermo
Retention time: 5.066 min
Base peak: 264.1771
Precursor m/z: 361.2248
Precursor type: [M+H]+
m/z	relative intensity	assigned
120.0791	28	C5H12O3+
121.0638	174	C8H9O+
122.0658	12	C7[13]CH9O+
122.0959	71	C8H12N+
138.09	646	C8H12NO+
139.0931	70	C7[13]CH12NO+
140.1058	51	C8H14NO+
154.0843	12	C8H12NO2+
154.1201	58	C6H18O4+
156.1003	466	C8H14NO2+
157.1041	43	C7[13]CH14NO2+
194.1527	880	C9H22O4+
195.1558	103	C8[13]CH22O4+
212.1629	183	C12H22NO2+
213.1659	16	C11[13]CH22NO2+
288.1587	39	C17H22NO3+
304.1546	82	C17H22NO4+
305.1571	16	C16[13]CH22NO4+
360.2165	999	C21H30NO4+
361.2194	232	C20[13]CH30NO4+
