Mass spectrum: Terbinafine; LC-ESI-QTOF; MS2; CE: Ramp 21.3-32.0 eV; R=35000; [M+H]+
Name: Terbinafine
Name: (E)-N,6,6-trimethyl-N-(naphthalen-1-ylmethyl)hept-2-en-4-yn-1-amine
Formula: C21H25N
Exact mass: 291.1986998
SMILES: CN(C\C=C\C#CC(C)(C)C)CC1=CC=CC2=CC=CC=C12
InChI: InChI=1S/C21H25N/c1-21(2,3)15-8-5-9-16-22(4)17-19-13-10-12-18-11-6-7-14-20(18)19/h5-7,9-14H,16-17H2,1-4H3/b9-5+
Instrument: Bruker maXis Impact
Instrument type: LC-ESI-QTOF
Ms type: MS2
Ion mode: POSITIVE
Ionization: ESI
Fragmentation mode: CID
Collision energy: Ramp 21.3-32.0 eV
Resolution: 35000
Column name: Acclaim RSLC C18 2.2um, 2.1x100mm, Thermo
Retention time: 9.795 min
Base peak: 292.207
Precursor m/z: 292.206
Precursor type: [M+H]+
m/z	relative intensity	assigned
79.0541	32	C6H7+
91.0547	38	C7H7+
93.0705	177	C7H9+
94.0737	13	C6[13]CH9+
105.071	26	C8H9+
115.0541	21	C9H7+
119.0857	5	C9H11+
121.1019	8	C9H13+
141.0699	999	C11H9+
142.073	147	C10[13]CH9+
143.0758	5	C9[13]C2H9+
150.1273	5	C10H16N+
170.0961	16	C12H12N+
205.1005	8	C16H13+
292.2066	18	C21H26N+
293.2098	5	C20[13]CH26N+
