Mass spectrum: Sulfamethoxazole; LC-ESI-QTOF; MS2; CE: 30 eV; R=35000; [M+H]+
Name: Sulfamethoxazole
Name: 4-amino-N-(5-methyl-1,2-oxazol-3-yl)benzenesulfonamide
Formula: C10H11N3O3S
Exact mass: 253.0521122
SMILES: CC1=CC(NS(=O)(=O)C2=CC=C(N)C=C2)=NO1
InChI: InChI=1S/C10H11N3O3S/c1-7-6-10(12-16-7)13-17(14,15)9-4-2-8(11)3-5-9/h2-6H,11H2,1H3,(H,12,13)
Instrument: Bruker maXis Impact
Instrument type: LC-ESI-QTOF
Ms type: MS2
Ion mode: POSITIVE
Ionization: ESI
Fragmentation mode: CID
Collision energy: 30 eV
Resolution: 35000
Column name: Acclaim RSLC C18 2.2um, 2.1x100mm, Thermo
Retention time: 4.5 min
Base peak: 254.0595
Precursor m/z: 254.0594
Precursor type: [M+H]+
m/z	relative intensity	assigned
108.0435	44	C6H6NO+
119.0605	24	C7H7N2+
121.0752	17	C7H9N2+
130.0531	15	C2H12NO3S+
131.0587	25	C5H9NO3+
132.0674	18	C8H8N2+
133.0619	26	C4H9N2O3+
133.0741	28	C5H11NO3+
143.0595	39	C9H7N2+
146.0698	202	C5H10N2O3+
147.078	285	C8H9N3+
148.0855	75	C5H12N2O3+
156.0103	999	C6H6NO2S+
157.0132	109	C5[13]CH6NO2S+
158.0065	45	C9H4NS+
159.0537	16	C9H7N2O+
160.0858	411	C9H10N3+
161.0005	43	C4H5N2O3S+
161.09	37	C4H11N5O2+
173.0581	25	C9H7N3O+
176.0271	41	C8H6N3S+
188.0817	33	C10H10N3O+
