Mass spectrum: Hexa(methoxymethyl)melamine; LC-ESI-QTOF; MS2; CE: 50 eV; R=35000; [M+H]+
Name: Hexa(methoxymethyl)melamine
Name: 2-N,2-N,4-N,4-N,6-N,6-N-hexakis(methoxymethyl)-1,3,5-triazine-2,4,6-triamine
Formula: C15H30N6O6
Exact mass: 390.2226827
SMILES: COCN(COC)C1=NC(=NC(=N1)N(COC)COC)N(COC)COC
InChI: InChI=1S/C15H30N6O6/c1-22-7-19(8-23-2)13-16-14(20(9-24-3)10-25-4)18-15(17-13)21(11-26-5)12-27-6/h7-12H2,1-6H3
Instrument: Bruker maXis Impact
Instrument type: LC-ESI-QTOF
Ms type: MS2
Ion mode: POSITIVE
Ionization: ESI
Fragmentation mode: CID
Collision energy: 50 eV
Resolution: 35000
Column name: Acclaim RSLC C18 2.2um, 2.1x100mm, Thermo
Retention time: 7.641 min
Base peak: 391.229
Precursor m/z: 391.23
Precursor type: [M+H]+
m/z	relative intensity	assigned
123.0662	5	C5H7N4+
136.0603	6	C4H10NO4+
148.0609	15	C5H10NO4+
149.0706	5	C8H9N2O+
150.0763	17	C5H12NO4+
177.0877	999	C6H13N2O4+
178.0899	103	C5[13]CH13N2O4+
193.1185	14	C7H17N2O4+
207.0987	7	C8H11N6O+
209.1119	11	C5H15N5O4+
253.1387	8	C9H21N2O6+
