Mass spectrum: Dioctyl Adipate; GC-APCI-QTOF; MS2; CE: 30 eV; R=35000; [M+H]+
Name: Dioctyl Adipate
Formula: C22H42O4
Exact mass: 370.3083
SMILES: CCCCC(CC)COC(=O)CCCCC(=O)OCC(CC)CCCC
InChI: InChI=1S/C22H42O4/c1-5-9-13-19(7-3)17-25-21(23)15-11-12-16-22(24)26-18-20(8-4)14-10-6-2/h19-20H,5-18H2,1-4H3
Instrument: Bruker 450 GC coupled to maXis Impact
Instrument type: GC-APCI-QTOF
Ms type: MS2
Ion mode: POSITIVE
Ionization: APCI
Fragmentation mode: CID
Collision energy: 30 eV
Resolution: 35000
Column name: Rxi-5Sil MS column, 30m, 0.25mm i.d., 0.25Âµm film thickness, Restek
Retention time: 22.756 min
Base peak: 371.3152
Precursor m/z: 371.3156
Precursor type: [M+H]+
m/z	relative intensity	assigned
55.0555	41	C4H7+
57.0705	216	C4H9+
59.0491	5	C3H7O+
69.0705	27	C5H9+
71.0856	136	C5H11+
83.0491	22	C5H7O+
101.059	139	C5H9O2+
111.0434	151	C6H7O2+
129.054	999	C6H9O3+
143.0717	9	C7H11O3+
145.0531	6	C6H9O4+
147.066	908	C6H11O4+
148.0695	54	C6H12O4+
161.0831	5	C7H13O4+
