Mass spectrum: Primidone; LC-ESI-QTOF; MS2; CE: 20 eV; R=35000; [M+H]+
Name: Primidone
Name: 5-ethyl-5-phenyl-1,3-diazinane-4,6-dione
Formula: C12H14N2O2
Exact mass: 218.1055277
SMILES: CCC1(C(=O)NCNC1=O)C1=CC=CC=C1
InChI: InChI=1S/C12H14N2O2/c1-2-12(9-6-4-3-5-7-9)10(15)13-8-14-11(12)16/h3-7H,2,8H2,1H3,(H,13,15)(H,14,16)
Instrument: Bruker maXis Impact
Instrument type: LC-ESI-QTOF
Ms type: MS2
Ion mode: POSITIVE
Ionization: ESI
Fragmentation mode: CID
Collision energy: 20 eV
Resolution: 35000
Column name: Acclaim RSLC C18 2.2um, 2.1x100mm, Thermo
Retention time: 5.275 min
Base peak: 256.0145
Precursor m/z: 219.1128
Precursor type: [M+H]+
m/z	relative intensity	assigned
117.0684	112	C9H9+
119.0844	92	C9H11+
134.0942	90	C9H12N+
145.0649	57	C10H9O+
162.0897	999	C10H12NO+
163.0929	147	C9[13]CH12NO+
176.1083	59	C11H14NO+
