Mass spectrum: Lovastatin; LC-ESI-QTOF; MS2; CE: 50 eV; R=35000; [M+H]+
Name: Lovastatin
Name: [(1S,3R,7S,8S,8aR)-8-[2-[(2R,4R)-4-hydroxy-6-oxooxan-2-yl]ethyl]-3,7-dimethyl-1,2,3,7,8,8a-hexahydronaphthalen-1-yl] (2S)-2-methylbutanoate
Formula: C24H36O5
Exact mass: 404.2562743
SMILES: CC[C@H](C)C(=O)O[C@H]1C[C@H](C=C2[C@H]1[C@H]([C@H](C=C2)C)CC[C@@H]3C[C@H](CC(=O)O3)O)C
InChI: InChI=1S/C24H36O5/c1-5-15(3)24(27)29-21-11-14(2)10-17-7-6-16(4)20(23(17)21)9-8-19-12-18(25)13-22(26)28-19/h6-7,10,14-16,18-21,23,25H,5,8-9,11-13H2,1-4H3/t14-,15-,16-,18+,19+,20-,21-,23-/m0/s1
Instrument: Bruker maXis Impact
Instrument type: LC-ESI-QTOF
Ms type: MS2
Ion mode: POSITIVE
Ionization: ESI
Fragmentation mode: CID
Collision energy: 50 eV
Resolution: 35000
Column name: Acclaim RSLC C18 2.2um, 2.1x100mm, Thermo
Retention time: 12.188 min
Base peak: 405.266
Precursor m/z: 405.2636
Precursor type: [M+H]+
m/z	relative intensity	assigned
115.0548	67	C9H7+
116.0611	25	C9H8+
117.0704	41	C9H9+
119.0861	68	C9H11+
121.0994	22	C9H13+
127.0552	31	C10H7+
128.062	219	C10H8+
129.0697	192	C10H9+
130.0766	68	C10H10+
131.0857	445	C10H11+
133.1014	58	C10H13+
141.0695	118	C11H9+
142.0772	209	C11H10+
143.0856	999	C11H11+
144.0914	230	C11H12+
145.0659	25	C10H9O+
145.101	466	C11H13+
147.1168	30	C11H15+
153.0684	29	C12H9+
154.0774	34	C12H10+
155.0858	244	C12H11+
156.0931	216	C12H12+
157.1011	382	C12H13+
158.1084	229	C12H14+
159.1165	451	C12H15+
160.1215	69	C12H16+
165.0694	35	C13H9+
167.0842	42	C13H11+
168.0924	61	C13H12+
169.1014	409	C13H13+
170.1075	92	C13H14+
171.1172	345	C13H15+
172.1207	63	C13H16+
173.1328	723	C13H17+
174.1363	71	C12[13]CH17+
179.0873	42	C14H11+
181.101	75	C14H13+
182.1101	56	C14H14+
183.1176	270	C14H15+
184.1236	112	C14H16+
185.1334	50	C14H17+
191.1059	39	C12H15O2+
192.0934	36	C15H12+
193.1011	75	C15H13+
194.1092	25	C15H14+
195.1158	42	C15H15+
196.125	56	C15H16+
197.1324	151	C15H17+
198.1383	31	C15H18+
199.1482	446	C15H19+
200.1516	114	C15H20+
201.1651	77	C15H21+
205.1022	25	C16H13+
207.1185	66	C16H15+
208.1209	40	C16H16+
210.142	50	C16H18+
211.1133	27	C15H15O+
211.1476	61	C16H19+
212.1557	24	C16H20+
219.1192	27	C17H15+
223.1495	79	C17H19+
224.1551	27	C17H20+
225.1653	275	C17H21+
226.1673	75	C17H22+
229.1249	30	C15H17O2+
239.1793	25	C18H23+
