Mass spectrum: Ifosfamide; LC-ESI-QTOF; MS2; CE: 50 eV; R=35000; [M+H]+
Name: Ifosfamide
Name: N,3-bis(2-chloroethyl)-2-oxo-1,3,2lambda5-oxazaphosphinan-2-amine
Formula: C7H15Cl2N2O2P
Exact mass: 260.0248197
SMILES: ClCCNP1(=O)OCCCN1CCCl
InChI: InChI=1S/C7H15Cl2N2O2P/c8-2-4-10-14(12)11(6-3-9)5-1-7-13-14/h1-7H2,(H,10,12)
Instrument: Bruker maXis Impact
Instrument type: LC-ESI-QTOF
Ms type: MS2
Ion mode: POSITIVE
Ionization: ESI
Fragmentation mode: CID
Collision energy: 50 eV
Resolution: 35000
Column name: Acclaim RSLC C18 2.2um, 2.1x100mm, Thermo
Retention time: 5.824 min
Base peak: 261.032
Precursor m/z: 261.0321
Precursor type: [M+H]+
m/z	relative intensity	assigned
116.9493	100	CH3Cl2O2+
118.0051	62	C3H5NO2P+
118.0427	18	CH12ClN2P+
118.9468	37	CH3Cl[37]ClO2+
120.0198	35	C7H4O2+
120.0569	91	C5H11ClN+
121.063	12	C4H12NOP+
122.0541	33	C5H11[37]ClN+
123.9702	84	C6HClO+
125.9495	110	CH2ClNO2P+
125.9677	26	C6H[37]ClO+
126.9688	16	C3N2O2P+
127.9465	30	CH2[37]ClNO2P+
127.9654	116	C5HClO2+
128.0245	106	Cl2H12NO2+
129.9619	38	C5H[37]ClO2+
135.9709	20	C6HO2P+
136.0146	55	C4H7ClNO2+
141.9805	221	C6H3ClO2+
143.9599	14	C2H4Cl2NO2+
143.9776	40	C6H3[37]ClO2+
146.0349	30	C5H9NO2P+
153.9804	999	C3H6ClNO2P+
154.9842	37	C2[13]CH6ClNO2P+
155.9773	199	C3H6[37]ClNO2P+
171.992	16	C4H8Cl2NO2+
