Mass spectrum: 4.4-DDE; GC-APCI-QTOF; MS2; CE: 10 eV; R=35000; [M]+
Name: 4.4-DDE
Name: p,p`-DDE
Name: 1-chloro-4-[2,2-dichloro-1-(4-chlorophenyl)ethenyl]benzene
Formula: C14H8Cl4
Exact mass: 315.938
SMILES: ClC(Cl)=C(C1=CC=C(Cl)C=C1)C1=CC=C(Cl)C=C1
InChI: InChI=1S/C14H8Cl4/c15-11-5-1-9(2-6-11)13(14(17)18)10-3-7-12(16)8-4-10/h1-8H
Instrument: Bruker 450 GC coupled to maXis Impact
Instrument type: GC-APCI-QTOF
Ms type: MS2
Ion mode: POSITIVE
Ionization: APCI
Fragmentation mode: CID
Collision energy: 10 eV
Resolution: 35000
Column name: Rxi-5Sil MS column, 30m, 0.25mm i.d., 0.25Âµm film thickness (Restek)
Retention time: 20.182 min
Base peak: 315.9366
Precursor m/z: 315.9375
Precursor type: [M]+
m/z	relative intensity	assigned
245.9962	19	C14H8Cl2+
280.9649	73	C14H8Cl3+
315.9362	999	C14H8Cl4+
