Mass spectrum: Morphine; LC-ESI-QTOF; MS2; CE: 40 eV; R=35000; [M+H]+
Name: Morphine
Name: (4R,4aR,7S,7aR,12bS)-3-methyl-2,4,4a,7,7a,13-hexahydro-1H-4,12-methanobenzofuro[3,2-e]isoquinoline-7,9-diol
Formula: C17H19NO3
Exact mass: 285.1364935
SMILES: CN1CC[C@]23[C@@H]4[C@H]1CC5=C2C(=C(C=C5)O)O[C@H]3[C@H](C=C4)O
InChI: InChI=1S/C17H19NO3/c1-18-7-6-17-10-3-5-13(20)16(17)21-15-12(19)4-2-9(14(15)17)8-11(10)18/h2-5,10-11,13,16,19-20H,6-8H2,1H3/t10-,11+,13-,16-,17-/m0/s1
Instrument: Bruker maXis Impact
Instrument type: LC-ESI-QTOF
Ms type: MS2
Ion mode: POSITIVE
Ionization: ESI
Fragmentation mode: CID
Collision energy: 40 eV
Resolution: 35000
Column name: Acclaim RSLC C18 2.2um, 2.1x100mm, Thermo
Retention time: 2.745 min
Base peak: 286.1457
Precursor m/z: 286.1438
Precursor type: [M+H]+
m/z	relative intensity	assigned
115.0547	75	C9H7+
117.0702	41	C9H9+
119.0495	10	C8H7O+
120.0801	6	C8H10N+
121.0646	28	C8H9O+
123.0445	98	C7H7O2+
126.0472	9	C10H6+
127.0547	60	C10H7+
128.0621	130	C10H8+
129.0694	116	C10H9+
130.0758	13	C9[13]CH9+
131.0494	51	C9H7O+
131.0743	5	C9H9N+
131.0855	20	C10H11+
132.057	18	C9H8O+
132.0818	21	C9H10N+
133.0639	14	C9H9O+
133.089	14	C9H11N+
134.097	9	C9H12N+
135.044	18	C8H7O2+
135.1019	5	C6H15O3+
137.0594	10	C8H9O2+
139.0541	29	C11H7+
140.0615	10	C11H8+
141.0703	131	C11H9+
142.0752	20	C10[13]CH9+
143.0496	29	C10H7O+
143.0751	5	C10H9N+
143.086	34	C11H11+
144.0574	105	C10H8O+
144.0803	16	C10H10N+
145.065	327	C10H9O+
145.102	27	C11H13+
146.0694	48	C9[13]CH9O+
146.0975	12	C10H12N+
147.0445	342	C9H7O2+
148.0481	34	C8[13]CH7O2+
148.0767	7	C9H10NO+
149.0598	15	C9H9O2+
150.0487	7	C12H6+
150.0907	7	C9H12NO+
151.0553	14	C12H7+
152.0625	227	C12H8+
153.0703	784	C12H9+
154.076	140	C11[13]CH9+
155.0607	80	C7H9NO3+
155.0859	689	C12H11+
156.0583	15	C11H8O+
156.0891	92	C11[13]CH11+
157.0654	780	C11H9O+
158.0705	122	C10[13]CH9O+
158.0965	12	C11H12N+
159.0445	23	C10H7O2+
159.0806	51	C11H11O+
160.0525	93	C10H8O2+
160.0767	32	C10H10NO+
161.0595	80	C10H9O2+
162.0919	23	C10H12NO+
163.0408	11	C12H5N+
163.0587	9	C9H9NO2+
163.0985	5	C10H13NO+
164.0636	14	C13H8+
164.1072	15	C10H14NO+
165.0707	999	C13H9+
166.0759	229	C12[13]CH9+
167.0493	14	C12H7O+
167.0858	73	C13H11+
168.0574	94	C12H8O+
168.0823	6	C12H10N+
168.0896	15	C12[13]CH11+
169.065	133	C12H9O+
169.1014	7	C13H13+
170.0726	31	C12H10O+
170.0979	5	C12H12N+
171.0444	159	C11H7O2+
171.0813	138	C12H11O+
172.052	61	C11H8O2+
172.0839	18	C11[13]CH11O+
173.0602	403	C11H9O2+
173.0969	135	C12H13O+
174.0642	47	C10[13]CH9O2+
174.0996	14	C11[13]CH13O+
175.0431	7	C13H5N+
175.076	19	C11H11O2+
176.0711	16	C10H10NO2+
177.0722	13	C14H9+
178.0798	81	C14H10+
179.0602	11	C9H9NO3+
179.085	94	C14H11+
180.0576	15	C13H8O+
180.0905	22	C13[13]CH11+
181.0656	998	C13H9O+
181.102	89	C14H13+
182.0698	181	C12[13]CH9O+
182.105	19	C13[13]CH13+
183.0812	732	C13H11O+
184.0529	177	C12H8O2+
184.0849	111	C12[13]CH11O+
185.0606	835	C12H9O2+
186.0662	157	C11[13]CH9O2+
187.0405	14	C14H5N+
187.0758	108	C12H11O2+
188.0774	14	C11[13]CH11O2+
189.0704	52	C15H9+
190.0779	86	C15H10+
191.0861	320	C15H11+
192.0558	6	C14H8O+
192.0894	51	C14[13]CH11+
193.0657	182	C14H9O+
193.1009	48	C15H13+
194.0725	143	C14H10O+
195.0813	53	C14H11O+
196.0518	18	C13H8O2+
197.0608	79	C13H9O2+
197.0964	15	C14H13O+
198.0685	144	C13H10O2+
198.0928	12	C13H12NO+
199.0765	332	C13H11O2+
200.0455	13	C12H8O3+
200.0812	57	C12[13]CH11O2+
201.0919	674	C13H13O2+
202.0801	37	C16H10+
202.0956	118	C12[13]CH13O2+
203.0881	27	C16H11+
204.0979	6	C12H14NO2+
205.0657	17	C15H9O+
205.1	6	C16H13+
206.0738	13	C15H10O+
207.0802	43	C15H11O+
207.106	11	C15H13N+
208.0512	9	C14H8O2+
208.0884	24	C15H12O+
209.0608	495	C14H9O2+
209.0969	110	C15H13O+
210.0652	87	C13[13]CH9O2+
210.101	17	C14[13]CH13O+
211.0764	559	C14H11O2+
212.0805	78	C13[13]CH11O2+
213.0559	35	C13H9O3+
213.0901	19	C14H13O2+
214.0633	23	C13H10O3+
214.0879	23	C13H12NO2+
215.065	7	C13H11O3+
215.0948	8	C13H13NO2+
216.1041	19	C13H14NO2+
218.0731	54	C16H10O+
219.0818	123	C16H11O+
220.0857	19	C15[13]CH11O+
220.1102	7	C13H16O3+
221.0609	17	C15H9O2+
221.0969	58	C16H13O+
222.0686	45	C15H10O2+
222.0948	8	C15[13]CH13O+
222.1278	13	C16H16N+
223.0761	21	C15H11O2+
224.0842	16	C15H12O2+
224.1062	7	C15H14NO+
225.0566	7	C17H7N+
225.0915	28	C15H13O2+
225.1164	5	C15H15NO+
226.0636	19	C14H10O3+
226.0989	11	C15H14O2+
227.0713	359	C14H11O3+
227.1077	27	C15H15O2+
228.0751	48	C13[13]CH11O3+
228.1033	15	C14H14NO2+
229.0866	289	C14H13O3+
230.0899	40	C13[13]CH13O3+
231.0921	10	C13H13NO3+
234.0927	7	C16H12NO+
235.0791	6	C16H11O2+
235.1011	7	C16H13NO+
236.0843	8	C16H12O2+
237.0919	80	C16H13O2+
238.094	27	C16H14O2+
239.1067	38	C16H15O2+
240.0797	6	C15H12O3+
240.1033	16	C15H14NO2+
240.1388	17	C16H18NO+
242.1174	9	C15H16NO2+
250.1245	16	C17H16NO+
251.1305	9	C17H17NO+
252.1026	26	C16H14NO2+
253.111	18	C16H15NO2+
254.1159	9	C16H16NO2+
255.1032	15	C16H15O3+
258.1162	7	C15H16NO3+
258.149	9	C16H20NO2+
266.1179	6	C17H16NO2+
267.1252	5	C17H17NO2+
268.1347	97	C17H18NO2+
269.1382	21	C16[13]CH18NO2+
286.1458	902	C17H20NO3+
287.1484	184	C16[13]CH20NO3+
