Mass spectrum: Oxycodone; LC-ESI-QTOF; MS2; CE: 30 eV; R=35000; [M+H]+
Name: Oxycodone
Name: (4R,4aS,7aR,12bS)-4a-hydroxy-9-methoxy-3-methyl-2,4,5,6,7a,13-hexahydro-1H-4,12-methanobenzofuro[3,2-e]isoquinoline-7-one
Formula: C18H21NO4
Exact mass: 315.1470582
SMILES: CN1CC[C@]23c4c5ccc(c4O[C@H]2C(=O)CC[C@]3([C@H]1C5)O)OC
InChI: InChI=1S/C18H21NO4/c1-19-8-7-17-14-10-3-4-12(22-2)15(14)23-16(17)11(20)5-6-18(17,21)13(19)9-10/h3-4,13,16,21H,5-9H2,1-2H3/t13-,16+,17+,18-/m1/s1
Instrument: Bruker maXis Impact
Instrument type: LC-ESI-QTOF
Ms type: MS2
Ion mode: POSITIVE
Ionization: ESI
Fragmentation mode: CID
Collision energy: 30 eV
Resolution: 35000
Column name: Acclaim RSLC C18 2.2um, 2.1x100mm, Thermo
Retention time: 3.770 min
Base peak: 316.1568
Precursor m/z: 316.1543
Precursor type: [M+H]+
m/z	relative intensity	assigned
161.0845	9	C10H11NO+
175.0763	35	C11H11O2+
181.0657	20	C13H9O+
187.0764	79	C12H11O2+
188.0796	8	C11[13]CH11O2+
189.0916	9	C12H13O2+
195.0809	7	C14H11O+
197.0608	10	C13H9O2+
199.0762	21	C13H11O2+
201.0918	6	C13H13O2+
202.0881	17	C12H12NO2+
203.0938	7	C12H13NO2+
212.1085	9	C14H14NO+
213.0922	37	C14H13O2+
213.1151	6	C14H15NO+
214.0957	5	C13[13]CH13O2+
215.1079	7	C14H15O2+
224.108	26	C15H14NO+
225.0924	15	C15H13O2+
225.1129	6	C14[13]CH14NO+
226.089	8	C14H12NO2+
227.1072	9	C15H15O2+
228.1038	7	C14H14NO2+
228.1392	9	C15H18NO+
229.0876	9	C17H11N+
239.1078	9	C16H15O2+
240.1035	12	C15H14NO2+
241.0873	40	C18H11N+
241.1116	310	C15H15NO2+
242.0919	8	C17[13]CH11N+
242.1152	51	C15H16NO2+
243.1227	7	C14[13]CH16NO2+
252.1035	10	C16H14NO2+
254.119	7	C16H16NO2+
255.1029	13	C16H15O3+
255.1259	6	C16H17NO2+
256.1352	311	C16H18NO2+
257.1381	45	C15[13]CH18NO2+
266.1194	10	C17H16NO2+
267.104	6	C17H15O3+
269.1064	6	C16H15NO3+
270.1141	13	C16H16NO3+
270.1503	15	C17H20NO2+
280.1347	16	C18H18NO2+
283.1222	14	C17H17NO3+
298.1462	999	C18H20NO3+
299.1494	136	C18H21NO3+
300.1526	14	C17[13]CH21NO3+
316.1567	61	C18H22NO4+
317.1595	11	C17[13]CH22NO4+
