Mass spectrum: Moclobemide; LC-ESI-QTOF; MS2; CE: Ramp 20.5-30.7 eV; R=35000; [M+H]+
Name: Moclobemide
Name: 4-chloro-N-(2-morpholin-4-ylethyl)benzamide
Formula: C13H17ClN2O2
Exact mass: 268.0978555
SMILES: c1cc(ccc1C(=O)NCCN2CCOCC2)Cl
InChI: InChI=1S/C13H17ClN2O2/c14-12-3-1-11(2-4-12)13(17)15-5-6-16-7-9-18-10-8-16/h1-4H,5-10H2,(H,15,17)
Instrument: Bruker maXis Impact
Instrument type: LC-ESI-QTOF
Ms type: MS2
Ion mode: POSITIVE
Ionization: ESI
Fragmentation mode: CID
Collision energy: Ramp 20.5-30.7 eV
Resolution: 35000
Column name: Acclaim RSLC C18 2.2um, 2.1x100mm, Thermo
Retention time: 4.693 min
Base peak: 189.1018
Precursor m/z: 269.1051
Precursor type: [M+H]+
m/z	relative intensity	assigned
138.9933	351	C7H4ClO+
139.9966	21	C6[13]CH4ClO+
140.9903	86	C7H4[37]ClO+
182.0355	999	C9H9ClNO+
183.0386	53	C8[13]CH9ClNO+
184.0327	173	C9H9[37]ClNO+
185.0357	7	C9H10ClO2+
