Mass spectrum: Fipronil; LC-ESI-QTOF; MS2; CE: 30 eV; R=35000; [M-H]-
Name: Fipronil
Name: 5-amino-1-[2,6-dichloro-4-(trifluoromethyl)phenyl]-4-(trifluoromethylsulfinyl)pyrazole-3-carbonitrile
Formula: C12H4Cl2F6N4OS
Exact mass: 435.9387064
SMILES: NC1=C(C(=NN1C1=C(Cl)C=C(C=C1Cl)C(F)(F)F)C#N)S(=O)C(F)(F)F
InChI: InChI=1S/C12H4Cl2F6N4OS/c13-5-1-4(11(15,16)17)2-6(14)8(5)24-10(22)9(7(3-21)23-24)26(25)12(18,19)20/h1-2H,22H2
Instrument: Bruker maXis Impact
Instrument type: LC-ESI-QTOF
Ms type: MS2
Ion mode: NEGATIVE
Ionization: ESI
Fragmentation mode: CID
Collision energy: 30 eV
Resolution: 35000
Column name: Acclaim RSLC C18 2.2um, 2.1x100mm, Thermo
Retention time: 10.492 min
Base peak: 434.931
Precursor m/z: 434.9314
Precursor type: [M-H]-
m/z	relative intensity	assigned
150.0031	5	C7F2N2-
163.012	5	C5H2F3N2O-
170.0092	133	C7HF3N2-
171.0116	8	C6[13]CHF3N2-
182.009	33	C8HF3N2-
183.0172	187	C8H2F3N2-
184.0188	10	C7[13]CH2F3N2-
208.9565	5	C5H2Cl2FN3O-
212.9485	5	C2HCl2F4N3-
216.9782	5	C8HClF3N2-
217.9857	140	C8H2ClF3N2-
218.9894	8	C7[13]CH2ClF3N2-
219.983	32	C8H2[37]ClF3N2-
233.9803	23	C8H2ClF3N2O-
235.9776	5	C8H2[37]ClF3N2O-
242.9824	13	C6H2ClF4N3O-
243.9884	120	C9H2ClF3N3-
244.9211	6	C7H2Cl2F3S-
244.9898	8	C8[13]CH2ClF3N3-
245.9849	32	C9H2[37]ClF3N3-
249.9585	999	C8H2ClF3N2S-
250.9601	65	C7[13]CH2ClF3N2S-
251.9547	242	C8H2[37]ClF3N2S-
252.9582	13	C8H3ClF3NOS-
253.9851	34	C11H2ClF3N2-
255.9826	8	C11H2[37]ClF3N2-
262.9521	8	C10H2Cl2F3N-
267.988	55	C11H2ClF3N3-
268.9889	6	C10[13]CH2ClF3N3-
269.9867	11	C11H2[37]ClF3N3-
275.9579	5	C12H2ClFN2OS-
277.9533	876	C9H2ClF3N2OS-
278.9557	54	C8[13]CH2ClF3N2OS-
279.9493	198	C9H2[37]ClF3N2OS-
280.9548	47	C6H2Cl2F5N3-
281.9916	245	C11H2ClF3N4-
282.9505	9	C11HCl2F2N3-
282.9954	19	C10[13]CH2ClF3N4-
283.9879	51	C11H2[37]ClF3N4-
284.9934	6	C9H3F6N2S-
287.9603	41	C10H2ClF3N3S-
289.9583	14	C10H2[37]ClF3N3S-
303.9535	6	C7H2Cl2F4N4O-
303.9613	7	C9H3Cl2F5N2-
317.9687	607	C11H3Cl2F3N4-
318.9706	55	C10[13]CH3Cl2F3N4-
319.9655	333	C11H3Cl[37]ClF3N4-
320.9684	21	C12HF6NOS-
321.9615	17	C11H3ClF4N2OS-
329.959	660	C11H2ClF3N4OS-
330.9625	55	C10[13]CH2ClF3N4OS-
331.9557	159	C11H2[37]ClF3N4OS-
332.9578	24	C9H2ClF6N3S-
334.9518	6	C11HCl2F4N4-
348.9341	9	C8H3Cl2F4N4OS-
350.932	5	C8H3Cl[37]ClF4N4OS-
350.9854	18	C12H2ClF6N4-
365.9355	6	C11H3Cl2F3N4OS-
