Mass spectrum: Dichlorophen; LC-ESI-QTOF; MS2; CE: 20 eV; R=35000; [M-H]-
Name: Dichlorophen
Name: 4-chloro-2-[(5-chloro-2-hydroxyphenyl)methyl]phenol
Formula: C13H10Cl2O2
Exact mass: 268.0057849
SMILES: OC1=CC=C(Cl)C=C1CC1=C(O)C=CC(Cl)=C1
InChI: InChI=1S/C13H10Cl2O2/c14-10-1-3-12(16)8(6-10)5-9-7-11(15)2-4-13(9)17/h1-4,6-7,16-17H,5H2
Instrument: Bruker maXis Impact
Instrument type: LC-ESI-QTOF
Ms type: MS2
Ion mode: NEGATIVE
Ionization: ESI
Fragmentation mode: CID
Collision energy: 20 eV
Resolution: 35000
Column name: Acclaim RSLC C18 2.2um, 2.1x100mm, Thermo
Retention time: 10.491 min
Base peak: 266.9985
Precursor m/z: 266.9985
Precursor type: [M-H]-
m/z	relative intensity	assigned
126.9957	999	C6H4ClO-
127.999	57	C5[13]CH4ClO-
128.9922	227	C6H4[37]ClO-
129.9964	9	C3H8Cl2O-
231.0213	8	C13H8ClO2-
266.9981	101	C13H9Cl2O2-
268.0004	16	C12[13]CH9Cl2O2-
268.994	75	C13H9Cl[37]ClO2-
