Mass spectrum: (Methoxymethyl)triphenylphosphonium; LC-ESI-QTOF; MS2; CE: 30 eV; R=35000; [M+H]+
Name: (Methoxymethyl)triphenylphosphonium
Name: methoxymethyl(triphenyl)phosphanium
Formula: [C20H20OP]+
Exact mass: 307.1251769
SMILES: COC[P+](C1=CC=CC=C1)(C1=CC=CC=C1)C1=CC=CC=C1
InChI: InChI=1S/C20H20OP/c1-21-17-22(18-11-5-2-6-12-18,19-13-7-3-8-14-19)20-15-9-4-10-16-20/h2-16H,17H2,1H3/q+1
Instrument: Bruker maXis Impact
Instrument type: LC-ESI-QTOF
Ms type: MS2
Ion mode: POSITIVE
Ionization: ESI
Fragmentation mode: CID
Collision energy: 30 eV
Resolution: 35000
Column name: Acclaim RSLC C18 2.2um, 2.1x100mm, Thermo
Retention time: 6.403 min
Base peak: 307.1232
Precursor m/z: 308.1325
Precursor type: [M+H]+
m/z	relative intensity	assigned
183.0354	221	C12H8P+
185.051	745	C12H10P+
262.0882	302	C18H15P+
277.1117	414	C19H18P+
307.1243	999	C20H20OP+
