Mass spectrum: Acridine; LC-ESI-QTOF; MS2; CE: Ramp 17.3-25.9 eV; R=35000; [M+H]+
Name: Acridine
Formula: C13H9N
Exact mass: 179.0734993
SMILES: C1=CC2=CC3=CC=CC=C3N=C2C=C1
InChI: InChI=1S/C13H9N/c1-3-7-12-10(5-1)9-11-6-2-4-8-13(11)14-12/h1-9H
Instrument: Bruker maXis Impact
Instrument type: LC-ESI-QTOF
Ms type: MS2
Ion mode: POSITIVE
Ionization: ESI
Fragmentation mode: CID
Collision energy: Ramp 17.3-25.9 eV
Resolution: 35000
Column name: Acclaim RSLC C18 2.2um, 2.1x100mm, Thermo
Retention time: 8.628 min
Base peak: 180.0802
Precursor m/z: 180.0808
Precursor type: [M+H]+
m/z	relative intensity	assigned
152.0608	12	C12H8+
178.0642	6	C13H8N+
179.0716	17	C13H9N+
180.08	999	C13H10N+
181.0834	129	C12[13]CH10N+
182.0861	7	C11[13]C2H10N+
