Mass spectrum: Sulfamethizole; LC-ESI-QTOF; MS2; CE: Ramp 20.6-30.8 eV; R=35000; [M+H]+
Name: Sulfamethizole
Name: 4-amino-N-(5-methyl-1,3,4-thiadiazol-2-yl)benzenesulfonamide
Formula: C9H10N4O2S2
Exact mass: 270.0245
SMILES: Cc1nnc(s1)NS(=O)(=O)c2ccc(cc2)N
InChI: InChI=1S/C9H10N4O2S2/c1-6-11-12-9(16-6)13-17(14,15)8-4-2-7(10)3-5-8/h2-5H,10H2,1H3,(H,12,13)
Instrument: Bruker maXis Impact
Instrument type: LC-ESI-QTOF
Ms type: MS2
Ion mode: POSITIVE
Ionization: ESI
Fragmentation mode: CID
Collision energy: Ramp 20.6-30.8 eV
Resolution: 35000
Column name: Acclaim RSLC C18 2.2um, 2.1x100mm, Thermo
Retention time: 4.2 min
Base peak: 281.0719
Precursor m/z: 271.0318
Precursor type: [M+H]+
m/z	relative intensity	assigned
53.0386	5	C4H5+
55.018	5	C3H3O+
58.0646	44	C3H8N+
65.038	38	C5H5+
68.049	96	C4H6N+
78.0339	7	C5H4N+
79.018	11	C5H3O+
92.0494	68	C6H6N+
96.044	7	C5H6NO+
108.0451	106	C6H6NO+
109.0486	5	C4H5N4+
110.0606	65	C6H8NO+
111.0651	7	C4H7N4+
116.0271	65	C3H6N3S+
120.0554	48	C6H6N3+
156.0116	999	C6H6NO2S+
157.0141	85	C7H9S2+
158.0074	49	C9H4NS+
177.9744	12	C3H4N3O2S2+
271.0324	52	C9H11N4O2S2+
