Mass spectrum: Diazepam; LC-ESI-QTOF; MS2; CE: 30 eV; R=35000; [M+H]+
Name: Diazepam
Name: 7-chloro-1-methyl-5-phenyl-3H-1,4-benzodiazepin-2-one
Formula: C16H13ClN2O
Exact mass: 284.0716407
SMILES: CN1C2=C(C=C(Cl)C=C2)C(=NCC1=O)C1=CC=CC=C1
InChI: InChI=1S/C16H13ClN2O/c1-19-14-8-7-12(17)9-13(14)16(18-10-15(19)20)11-5-3-2-4-6-11/h2-9H,10H2,1H3
Instrument: Bruker maXis Impact
Instrument type: LC-ESI-QTOF
Ms type: MS2
Ion mode: POSITIVE
Ionization: ESI
Fragmentation mode: CID
Collision energy: 30 eV
Resolution: 35000
Column name: Acclaim RSLC C18 2.2um, 2.1x100mm, Thermo
Retention time: 9.3 min
Base peak: 285.0785
Precursor m/z: 285.0789
Precursor type: [M+H]+
m/z	relative intensity	assigned
117.0566	9	C8H7N+
118.0644	7	C8H8N+
125.0144	7	C7H6Cl+
140.0248	5	C10H4O+
141.0327	8	C10H5O+
143.0595	6	C9H7N2+
147.067	16	C9H9NO+
150.0095	6	C11H2O+
152.0246	6	C11H4O+
154.0408	417	C11H6O+
155.0439	24	C3H10ClN3O2+
156.0377	90	C2H9ClN4O2+
167.0121	26	C8H6ClNO+
169.009	6	C14H+
172.062	49	C10H8N2O+
179.0362	36	C12H5NO+
180.0199	33	C9H7ClNO+
181.0324	11	C9H8ClNO+
182.0168	8	C15H2+
182.0358	57	C9H9ClNO+
183.039	5	C10H5N3O+
184.0325	13	C15H4+
192.0799	8	C14H10N+
193.0879	394	C14H11N+
194.0917	45	C9H12N3O2+
204.0801	10	C15H10N+
205.0872	9	C15H11N+
206.0833	8	C14H10N2+
207.0308	6	C10H8ClN2O+
207.0904	9	C14H11N2+
216.0567	18	C16H8O+
220.0989	5	C15H12N2+
221.083	5	C15H11NO+
221.106	31	C15H13N2+
222.1146	323	C15H14N2+
226.0404	8	C14H9ClN+
227.0486	22	C14H10ClN+
228.0569	225	C14H11ClN+
229.0597	30	C9H12ClN3O2+
230.0537	51	C14H11ClO+
240.0569	8	C15H11ClN+
241.0523	51	C14H10ClN2+
242.0588	21	C14H11ClN2+
243.0488	12	C14H10ClNO+
243.0657	7	C14H12ClN2+
255.0677	37	C15H12ClN2+
256.0735	9	C15H13ClN2+
257.0837	289	C15H14ClN2+
258.0864	37	C16H10N4+
259.0803	59	C15H14ClNO+
260.0842	5	C13H13ClN4+
285.0793	999	C16H14ClN2O+
286.0819	144	C15[13]CH14ClN2O+
287.0763	204	C16H14[37]ClNO2+
288.0792	19	C15[13]CH13[37]ClN4O+
