Mass spectrum: Methiocarb; LC-ESI-QTOF; MS2; CE: 20 eV; R=35000; [M+H]+
Name: Methiocarb
Name: (3,5-dimethyl-4-methylsulfanylphenyl) N-methylcarbamate
Formula: C11H15NO2S
Exact mass: 225.0823497
SMILES: CNC(=O)OC1=CC(C)=C(SC)C(C)=C1
InChI: InChI=1S/C11H15NO2S/c1-7-5-9(14-11(13)12-3)6-8(2)10(7)15-4/h5-6H,1-4H3,(H,12,13)
Instrument: Bruker maXis Impact
Instrument type: LC-ESI-QTOF
Ms type: MS2
Ion mode: POSITIVE
Ionization: ESI
Fragmentation mode: CID
Collision energy: 20 eV
Resolution: 35000
Column name: Acclaim RSLC C18 2.2um, 2.1x100mm, Thermo
Retention time: 9.413 min
Base peak: 226.089
Precursor m/z: 226.0896
Precursor type: [M+H]+
m/z	relative intensity	assigned
121.0639	999	C8H9O+
122.0708	328	C8H10O+
123.0765	40	C7[13]CH10O+
141.0724	12	C8H13S+
153.0356	21	C8H9OS+
154.0431	31	C8H10OS+
169.0668	793	C9H13OS+
170.0696	92	C8[13]CH13OS+
171.0627	37	C9H13O[34]S+
