Mass spectrum: 5-Hydroxyindole-3-acetic acid; LC-ESI-QTOF; MS2; CE: 40 eV; R=35000; [M+H]+
Name: 5-Hydroxyindole-3-acetic acid
Name: 2-(5-hydroxy-1H-indol-3-yl)acetic acid
Formula: C10H9NO3
Exact mass: 191.0582431
SMILES: OC(=O)CC1=CNC2=C1C=C(O)C=C2
InChI: InChI=1S/C10H9NO3/c12-7-1-2-9-8(4-7)6(5-11-9)3-10(13)14/h1-2,4-5,11-12H,3H2,(H,13,14)
Instrument: Bruker maXis Impact
Instrument type: LC-ESI-QTOF
Ms type: MS2
Ion mode: POSITIVE
Ionization: ESI
Fragmentation mode: CID
Collision energy: 40 eV
Resolution: 35000
Column name: Acclaim RSLC C18 2.2um, 2.1x100mm, Thermo
Retention time: 3.878 min
Base peak: 192.0638
Precursor m/z: 192.0655
Precursor type: [M+H]+
m/z	relative intensity	assigned
117.0553	366	C5H9O3+
118.064	267	C8H8N+
119.0477	196	C8H7O+
128.0486	141	C9H6N+
133.0494	149	C8H7NO+
146.0587	999	C9H8NO+
