Mass spectrum: 2,4-Di-tert-butyl-phenol; GC-APCI-QTOF; MS2; CE: 40 eV; R=35000; [M]+
Name: 2,4-Di-tert-butyl-phenol
Formula: C14H22O
Exact mass: 206.1671
SMILES: CC(C)(C)C1=CC(=C(C=C1)O)C(C)(C)C
InChI: InChI=1S/C14H22O/c1-13(2,3)10-7-8-12(15)11(9-10)14(4,5)6/h7-9,15H,1-6H3
Instrument: Bruker 450 GC coupled to maXis Impact
Instrument type: GC-APCI-QTOF
Ms type: MS2
Ion mode: POSITIVE
Ionization: APCI
Fragmentation mode: CID
Collision energy: 40 eV
Resolution: 35000
Column name: Rxi-5Sil MS column, 30m, 0.25mm i.d., 0.25Âµm film thickness, Restek
Retention time: 12.508 min
Base peak: 206.1668
Precursor m/z: 206.1665
Precursor type: [M]+
m/z	relative intensity	assigned
57.0708	359	C4H9+
105.0703	57	C8H9+
107.0494	92	C7H7O+
115.0536	124	C9H7+
116.061	50	C9H8+
117.0707	102	C9H9+
119.0486	92	C8H7O+
119.0858	197	C9H11+
120.0578	44	C8H8O+
120.0948	59	C9H12+
121.0641	133	C8H9O+
123.0815	164	C8H11O+
128.0629	126	C10H8+
129.0692	111	C10H9+
130.0769	34	C10H10+
131.0491	35	C9H7O+
131.0864	39	C10H11+
132.0586	42	C9H8O+
132.0925	94	C10H12+
133.0652	505	C9H9O+
133.1015	55	C10H13+
134.0725	100	C9H10O+
135.0819	220	C9H11O+
135.1199	50	C10H15+
141.0711	55	C11H9+
143.0883	254	C11H11+
145.0665	122	C10H9O+
146.0744	121	C10H10O+
147.0827	999	C10H11O+
147.1203	126	C11H15+
148.0899	265	C10H12O+
149.0979	36	C10H13O+
159.0836	99	C11H11O+
160.091	96	C11H12O+
161.0996	873	C11H13O+
162.1014	84	C11H14O+
163.1156	513	C11H15O+
164.1168	51	C11H16O+
175.1149	595	C12H15O+
176.1215	79	C12H16O+
191.1452	780	C13H19O+
192.1508	88	C13H20O+
