Mass spectrum: Benzyl butyl phthalate; GC-APCI-QTOF; MS2; CE: 20 eV; R=35000; [M]+
Name: Benzyl butyl phthalate
Formula: C19H20O4
Exact mass: 312.1362
SMILES: CCCCOC(=O)C1=CC=CC=C1C(=O)OCC2=CC=CC=C2
InChI: InChI=1S/C19H20O4/c1-2-3-13-22-18(20)16-11-7-8-12-17(16)19(21)23-14-15-9-5-4-6-10-15/h4-12H,2-3,13-14H2,1H3
Instrument: Bruker 450 GC coupled to maXis Impact
Instrument type: GC-APCI-QTOF
Ms type: MS2
Ion mode: POSITIVE
Ionization: APCI
Fragmentation mode: CID
Collision energy: 20 eV
Resolution: 35000
Column name: Rxi-5Sil MS column, 30m, 0.25mm i.d., 0.25Âµm film thickness, Restek
Retention time: 17.500 min
Base peak: 283.262
Precursor m/z: 312.1356
Precursor type: [M]+
m/z	relative intensity	assigned
123.1168	999	C9H15+
134.1106	793	C10H14+
147.1195	852	C11H15+
