Mass spectrum: Propafenone; LC-ESI-QTOF; MS2; CE: 40 eV; R=35000; [M+H]+
Name: Propafenone
Name: 1-[2-[2-hydroxy-3-(propylamino)propoxy]phenyl]-3-phenylpropan-1-one
Formula: C21H27NO3
Exact mass: 341.1990937
SMILES: CCCNCC(COc1ccccc1C(=O)CCc2ccccc2)O
InChI: InChI=1S/C21H27NO3/c1-2-14-22-15-18(23)16-25-21-11-7-6-10-19(21)20(24)13-12-17-8-4-3-5-9-17/h3-11,18,22-23H,2,12-16H2,1H3
Instrument: Bruker maXis Impact
Instrument type: LC-ESI-QTOF
Ms type: MS2
Ion mode: POSITIVE
Ionization: ESI
Fragmentation mode: CID
Collision energy: 40 eV
Resolution: 35000
Column name: Acclaim RSLC C18 2.2um, 2.1x100mm, Thermo
Retention time: 7.712 min
Base peak: 342.207
Precursor m/z: 342.2064
Precursor type: [M+H]+
m/z	relative intensity	assigned
114.0907	5	C6H12NO+
115.0537	47	C9H7+
116.1064	999	C6H14NO+
117.069	31	C9H9+
119.0489	6	C8H7O+
121.0281	19	C7H5O2+
128.0609	16	C10H8+
129.0687	46	C10H9+
131.048	70	C9H7O+
131.0844	5	C10H11+
133.0269	19	C8H5O2+
133.0635	73	C9H9O+
135.0425	11	C8H7O2+
143.0847	7	C11H11+
145.0645	26	C10H9O+
147.043	5	C9H7O2+
149.0584	9	C9H9O2+
151.0375	23	C8H7O3+
157.0633	5	C11H9O+
161.0588	82	C10H9O2+
162.0626	5	C9[13]CH9O2+
165.0696	8	C13H9+
166.0765	13	C13H10+
173.0594	13	C11H9O2+
176.1415	7	C9H20O3+
178.0764	19	C14H10+
179.0834	11	C14H11+
181.1003	23	C14H13+
187.0734	6	C12H11O2+
191.0845	15	C15H11+
192.1373	8	C12H18NO+
193.1012	14	C15H13+
194.071	14	C14H10O+
195.0773	6	C14H11O+
202.0765	6	C16H10+
203.0851	6	C16H11+
204.0932	7	C16H12+
209.0955	66	C15H13O+
210.097	8	C14[13]CH13O+
210.1475	6	C12H20NO2+
221.0954	14	C16H13O+
222.0996	6	C16H14O+
223.1107	6	C16H15O+
227.1059	11	C15H15O2+
232.0869	10	C17H12O+
247.1104	18	C18H15O+
265.122	45	C18H17O2+
266.1255	9	C17[13]CH17O2+
324.1971	14	C21H26NO2+
342.2049	32	C21H28NO3+
