Mass spectrum: Atorvastatin; LC-ESI-QTOF; MS2; CE: Ramp 26.8-40.2 eV; R=35000; [M+H]+
Name: Atorvastatin
Name: (3R,5R)-7-[2-(4-fluorophenyl)-3-phenyl-4-(phenylcarbamoyl)-5-propan-2-ylpyrrol-1-yl]-3,5-dihydroxyheptanoic acid
Formula: C33H35FN2O5
Exact mass: 558.2530
SMILES: CC(C)c1c(c(c(n1CC[C@H](C[C@H](CC(=O)O)O)O)c2ccc(cc2)F)c3ccccc3)/C(=N/c4ccccc4)/O
InChI: InChI=1S/C33H35FN2O5/c1-21(2)31-30(33(41)35-25-11-7-4-8-12-25)29(22-9-5-3-6-10-22)32(23-13-15-24(34)16-14-23)36(31)18-17-26(37)19-27(38)20-28(39)40/h3-16,21,26-27,37-38H,17-20H2,1-2H3,(H,35,41)(H,39,40)/t26-,27-/m1/s1
Instrument: Bruker maXis Impact
Instrument type: LC-ESI-QTOF
Ms type: MS2
Ion mode: POSITIVE
Ionization: ESI
Fragmentation mode: CID
Collision energy: Ramp 26.8-40.2 eV
Resolution: 35000
Column name: Acclaim RSLC C18 2.2um, 2.1x100mm, Thermo
Retention time: 10.2 min
Base peak: 559.2694
Precursor m/z: 559.2603
Precursor type: [M+H]+
m/z	relative intensity	assigned
60.0556	6	C3H8O+
133.0871	5	C6H13O3+
238.1045	12	C16H13FN+
249.096	7	C17H12FN+
250.1046	204	C17H13FN+
251.1078	23	C14H16FO3+
252.1205	10	C17H15FN+
276.1217	53	C15H18NO4+
277.1246	17	C16H18FO3+
279.1479	6	C12H22FNO5+
280.1528	18	C15H22NO4+
290.1368	5	C16H20NO4+
292.1528	217	C16H22NO4+
293.1573	39	C20H20FN+
294.0985	5	C17H14N2O3+
294.1669	34	C20H21FN+
295.1709	8	C17H24FO3+
302.1389	9	C17H20NO4+
306.1343	7	C16H20NO5+
318.1312	6	C21H17FNO+
318.1687	25	C18H24NO4+
320.1468	15	C21H19FNO+
336.1791	12	C18H26NO5+
344.1482	6	C19H22NO5+
362.1585	57	C23H21FNO2+
363.1629	10	C23H22FNO2+
378.2276	10	C21H32NO5+
379.1637	5	C22H23N2O4+
380.1691	120	C26H21FN2+
381.1751	21	C26H22FN2+
398.1813	37	C22H26N2O5+
404.2064	29	C25H28N2O3+
405.2098	11	C26H28FNO2+
406.1496	6	C27H19FN2O+
406.1942	5	C26H27FO3+
422.2173	104	C29H27FN2+
423.2207	37	C26H30FNO3+
424.1612	10	C32H21F+
424.2272	6	C29H30NO2+
430.1902	6	C23H27FN2O5+
431.1865	5	C27H27O5+
440.2282	999	C25H32N2O5+
441.2316	315	C26H32FNO4+
442.2326	40	C30H31FO2+
448.196	16	C30H25FN2O+
449.1947	7	C31H26FO2+
466.2086	117	C30H27FN2O2+
467.2124	35	C33H27N2O+
468.2184	8	C27H31FNO5+
559.2666	66	C33H36FN2O5+
560.2696	29	C31H36N4O6+
561.2732	8	C32H36FN3O5+
