Mass spectrum: Omeprazole; LC-ESI-QTOF; MS2; CE: 40 eV; R=35000; [M+H]+
Name: Omeprazole
Name: 6-methoxy-2-[(4-methoxy-3,5-dimethylpyridin-2-yl)methylsulfinyl]-1H-benzimidazole
Formula: C17H19N3O3S
Exact mass: 345.1147125
SMILES: Cc1cnc(c(c1OC)C)CS(=O)c2[nH]c3ccc(cc3n2)OC
InChI: InChI=1S/C17H19N3O3S/c1-10-8-18-15(11(2)16(10)23-4)9-24(21)17-19-13-6-5-12(22-3)7-14(13)20-17/h5-8H,9H2,1-4H3,(H,19,20)
Instrument: Bruker maXis Impact
Instrument type: LC-ESI-QTOF
Ms type: MS2
Ion mode: POSITIVE
Ionization: ESI
Fragmentation mode: CID
Collision energy: 40 eV
Resolution: 35000
Column name: Acclaim RSLC C18 2.2um, 2.1x100mm, Thermo
Retention time: 7.5 min
Base peak: 376.1469
Precursor m/z: 346.122
Precursor type: [M+H]+
m/z	relative intensity	assigned
120.081	46	C8H10N+
121.088	89	H15N3O2S+
122.0955	42	H16N3O2S+
134.0477	18	C7H6N2O+
136.0752	999	H14N3O3S+
137.0786	51	C7[13]CH10NO+
149.0704	89	C8H9N2O+
150.0904	213	CH16N3O3S+
151.0986	266	CH17N3O3S+
152.0159	28	C7H6NOS+
152.1022	24	C4H14N3O3+
165.0241	31	C8H7NOS+
166.0309	19	C8H8NOS+
166.0861	17	C9H12NO2+
168.1007	46	C9H14NO2+
179.0274	66	C8H7N2OS+
180.0472	382	C9H10NOS+
181.0548	108	C9H11NOS+
182.0493	20	C8H10N2OS+
198.0585	148	C9H12NO2S+
