Mass spectrum: Tamoxifen; LC-ESI-QTOF; MS2; CE: 50 eV; R=35000; [M+H]+
Name: Tamoxifen
Name: 2-[4-[(Z)-1,2-diphenylbut-1-enyl]phenoxy]-N,N-dimethylethanamine
Formula: C26H29NO
Exact mass: 371.2249145
SMILES: CC\C(=C(/C1=CC=CC=C1)C1=CC=C(OCCN(C)C)C=C1)C1=CC=CC=C1
InChI: InChI=1S/C26H29NO/c1-4-25(21-11-7-5-8-12-21)26(22-13-9-6-10-14-22)23-15-17-24(18-16-23)28-20-19-27(2)3/h5-18H,4,19-20H2,1-3H3/b26-25-
Instrument: Bruker maXis Impact
Instrument type: LC-ESI-QTOF
Ms type: MS2
Ion mode: POSITIVE
Ionization: ESI
Fragmentation mode: CID
Collision energy: 50 eV
Resolution: 35000
Column name: Acclaim RSLC C18 2.2um, 2.1x100mm, Thermo
Retention time: 10.742 min
Base peak: 372.2325
Precursor m/z: 372.2322
Precursor type: [M+H]+
m/z	relative intensity	assigned
115.0544	60	C9H7+
121.0638	15	C8H9O+
127.0529	83	C10H7+
128.0612	696	C10H8+
129.0689	786	C10H9+
130.0727	91	C9[13]CH9+
131.0487	53	C9H7O+
131.072	14	C9H9N+
131.0825	14	C10H11+
133.0647	23	C9H9O+
141.0693	47	C11H9+
143.0873	18	C11H11+
145.0636	98	C10H9O+
146.0676	15	C9[13]CH9O+
152.0614	86	C12H8+
153.0694	48	C12H9+
154.0739	19	C12H10+
155.0847	37	C12H11+
157.0633	17	C11H9O+
165.0692	245	C13H9+
166.0751	92	C13H10+
167.0839	144	C13H11+
168.0565	14	C12H8O+
168.0885	28	C12[13]CH11+
169.0632	22	C12H9O+
174.0912	20	C11H12NO+
176.0598	24	C14H8+
177.0689	38	C14H9+
178.0764	999	C14H10+
179.0821	354	C14H11+
180.0884	48	C13[13]CH11+
181.0632	29	C13H9O+
181.0991	37	C14H13+
182.0723	14	C13H10O+
183.079	109	C13H11O+
184.0825	18	C12[13]CH11O+
189.0685	50	C15H9+
190.0751	84	C15H10+
191.0842	556	C15H11+
192.0912	230	C15H12+
193.0989	201	C15H13+
194.0722	184	C14H10O+
195.0766	50	C14H11O+
202.0773	131	C16H10+
203.0849	131	C16H11+
204.0912	89	C16H12+
205.0649	18	C15H9O+
205.1	168	C16H13+
206.0693	19	C15H10O+
206.0759	22	C15H10O+
206.1078	126	C16H14+
207.0794	439	C15H11O+
207.1118	24	C15[13]CH14+
208.0848	109	C14[13]CH11O+
208.1156	14	C15H14N+
209.0938	67	C15H13O+
215.0847	151	C17H11+
216.0901	98	C17H12+
217.0986	48	C17H13+
218.1061	23	C17H14+
219.0801	50	C16H11O+
220.0869	60	C16H12O+
221.0952	111	C16H13O+
222.1013	44	C16H14O+
223.1089	17	C16H15O+
227.0831	25	C18H11+
228.0928	187	C18H12+
229.0991	105	C18H13+
230.1061	29	C17[13]CH13+
233.0952	19	C17H13O+
234.1017	30	C17H14O+
239.0846	135	C19H11+
240.0923	130	C19H12+
241.1002	228	C19H13+
242.108	128	C19H14+
243.1163	77	C19H15+
244.1183	17	C18[13]CH15+
252.0916	167	C20H12+
253.1005	430	C20H13+
254.107	334	C20H14+
255.083	13	C19H11O+
255.1156	164	C20H15+
256.089	16	C19H12O+
256.1199	49	C19[13]CH15+
257.0941	27	C19H13O+
257.1306	34	C20H17+
258.1004	16	C19H14O+
265.1002	119	C21H13+
266.1078	75	C21H14+
267.1163	92	C21H15+
268.0876	27	C20H12O+
268.1233	37	C20[13]CH15+
269.0953	60	C20H13O+
269.1295	47	C21H17+
270.1008	95	C20H14O+
271.1108	41	C20H15O+
278.1081	21	C22H14+
279.1183	56	C22H15+
280.1247	33	C22H16+
281.129	33	C22H17+
283.1124	134	C21H15O+
284.1198	48	C20[13]CH15O+
285.1261	51	C21H17O+
286.1252	17	C20[13]CH17O+
293.1318	15	C23H17+
297.1243	20	C22H17O+
298.1348	19	C22H18O+
299.1436	23	C22H19O+
