Mass spectrum: Telmisartan; LC-ESI-QTOF; MS2; CE: 40 eV; R=35000; [M+H]+
Name: Telmisartan
Name: 2-[4-[[4-methyl-6-(1-methylbenzimidazol-2-yl)-2-propylbenzimidazol-1-yl]methyl]phenyl]benzoic acid
Formula: C33H30N4O2
Exact mass: 514.2368762
SMILES: CCCc1nc2c(cc(cc2n1Cc3ccc(cc3)c4ccccc4C(=O)O)c5nc6ccccc6n5C)C
InChI: InChI=1S/C33H30N4O2/c1-4-9-30-35-31-21(2)18-24(32-34-27-12-7-8-13-28(27)36(32)3)19-29(31)37(30)20-22-14-16-23(17-15-22)25-10-5-6-11-26(25)33(38)39/h5-8,10-19H,4,9,20H2,1-3H3,(H,38,39)
Instrument: Bruker maXis Impact
Instrument type: LC-ESI-QTOF
Ms type: MS2
Ion mode: POSITIVE
Ionization: ESI
Fragmentation mode: CID
Collision energy: 40 eV
Resolution: 35000
Column name: Acclaim RSLC C18 2.2um, 2.1x100mm, Thermo
Retention time: 10.505 min
Base peak: 515.2485
Precursor m/z: 515.2442
Precursor type: [M+H]+
m/z	relative intensity	assigned
193.0658	10	C14H9O+
211.0766	20	C14H11O2+
276.1389	84	C19H18NO+
277.1415	11	C18[13]CH18NO+
289.1459	11	C20H19NO+
303.1617	7	C21H21NO+
305.1779	29	C21H23NO+
306.1808	5	C20[13]CH23NO+
317.1779	10	C22H23NO+
497.238	734	C33H29N4O+
498.241	239	C33H30N4O+
499.2436	27	C32[13]CH30N4O+
515.2494	999	C33H31N4O2+
516.2517	441	C32[13]CH31N4O2+
517.2544	48	C31[13]C2H31N4O2+
