Mass spectrum: 4-Formyl-antipyrine; LC-ESI-QTOF; MS2; CE: 30 eV; R=35000; [M+H]+
Name: 4-Formyl-antipyrine
Name: 1,5-Dimethyl-3-oxo-2-phenyl-2,3-dihydro-1H-pyrazole-4-carbaldehyde
Name: 1,5-dimethyl-3-oxo-2-phenylpyrazole-4-carbaldehyde
Formula: C12H12N2O2
Exact mass: 216.0898776
SMILES: CN1N(C(=O)C(C=O)=C1C)C1=CC=CC=C1
InChI: InChI=1S/C12H12N2O2/c1-9-11(8-15)12(16)14(13(9)2)10-6-4-3-5-7-10/h3-8H,1-2H3
Instrument: Bruker maXis Impact
Instrument type: LC-ESI-QTOF
Ms type: MS2
Ion mode: POSITIVE
Ionization: ESI
Fragmentation mode: CID
Collision energy: 30 eV
Resolution: 35000
Column name: Acclaim RSLC C18 2.2um, 2.1x100mm, Thermo
Retention time: 4.009 min
Base peak: 217.0973
Precursor m/z: 217.0972
Precursor type: [M+H]+
m/z	relative intensity	assigned
111.0427	7	C6H7O2+
115.0537	26	C9H7+
117.0566	22	C8H7N+
117.0691	24	C9H9+
118.0645	39	C8H8N+
119.0596	9	C7H7N2+
119.084	5	C9H11+
120.0432	10	C7H6NO+
120.0801	21	C8H10N+
121.075	5	C7H9N2+
128.0485	10	C9H6N+
129.0563	19	C9H7N+
130.0641	179	C9H8N+
131.0597	35	C8H7N2+
131.0713	93	C9H9N+
132.0432	8	C8H6NO+
132.0676	74	C8H8N2+
133.051	17	C8H7NO+
133.0741	18	C8H9N2+
134.0463	17	C7H6N2O+
134.095	6	C9H12N+
135.0541	12	C7H7N2O+
139.0492	14	C6H7N2O2+
140.0501	6	C10H6N+
141.0648	10	C6H9N2O2+
142.0638	38	C10H8N+
143.0709	23	C10H9N+
144.0429	6	C9H6NO+
144.0796	97	C10H10N+
145.0746	76	C9H9N2+
146.0588	16	C9H8NO+
146.0825	59	C9H10N2+
147.0905	282	C9H11N2+
148.0735	9	C9H10NO+
148.0938	30	C8[13]CH11N2+
149.0696	45	C8H9N2O+
155.0588	6	C10H7N2+
156.0669	13	C10H8N2+
157.0513	25	C10H7NO+
158.0585	43	C10H8NO+
159.0545	33	C9H7N2O+
159.0904	127	C10H11N2+
160.0377	5	C9H6NO2+
160.0739	16	C10H10NO+
160.097	37	C10H12N2+
161.034	5	C8H5N2O2+
161.1052	23	C10H13N2+
162.0535	6	C9H8NO2+
169.0751	9	C11H9N2+
170.0592	7	C11H8NO+
171.0541	22	C10H7N2O+
171.0903	14	C11H11N2+
172.0621	55	C10H8N2O+
173.07	36	C10H9N2O+
174.0775	89	C10H10N2O+
175.0816	11	C9[13]CH10N2O+
184.061	5	C11H8N2O+
185.0694	96	C11H9N2O+
186.0538	24	C11H8NO2+
186.0732	13	C10[13]CH9N2O+
187.0856	61	C11H11N2O+
188.092	23	C11H12N2O+
189.101	91	C11H13N2O+
190.1047	12	C10[13]CH13N2O+
197.07	6	C12H9N2O+
199.0852	64	C12H11N2O+
200.0569	202	C11H8N2O2+
200.0902	10	C11[13]CH11N2O+
201.0615	36	C10[13]CH8N2O2+
202.0721	51	C11H10N2O2+
203.0745	7	C10[13]CH10N2O2+
213.0643	7	C12H9N2O2+
215.0807	278	C12H11N2O2+
216.084	36	C11[13]CH11N2O2+
217.0965	999	C12H13N2O2+
218.0993	138	C11[13]CH13N2O2+
