Mass spectrum: Metazachlor-ESA; LC-ESI-QTOF; MS2; CE: 20 eV; R=35000; [M+H]+
Name: Metazachlor-ESA
Name: 2-[2,6-dimethyl-N-(pyrazol-1-ylmethyl)anilino]-2-oxoethanesulfonic acid
Formula: C14H17N3O4S
Exact mass: 323.0939770
SMILES: Cc1cccc(C)c1N(Cn1cccn1)C(=O)CS(O)(=O)=O
InChI: InChI=1S/C14H17N3O4S/c1-11-5-3-6-12(2)14(11)17(10-16-8-4-7-15-16)13(18)9-22(19,20)21/h3-8H,9-10H2,1-2H3,(H,19,20,21)
Instrument: Bruker maXis Impact
Instrument type: LC-ESI-QTOF
Ms type: MS2
Ion mode: POSITIVE
Ionization: ESI
Fragmentation mode: CID
Collision energy: 20 eV
Resolution: 35000
Column name: Acclaim RSLC C18 2.2um, 2.1x100mm, Thermo
Retention time: 4.9 min
Base peak: 150.1114
Precursor m/z: 324.1013
Precursor type: [M+H]+
m/z	relative intensity	assigned
134.0952	999	C9H12N+
135.0987	107	C8[13]CH12N+
256.0635	467	C11H14NO4S+
257.0677	60	C10[13]CH14NO4S+
258.06	30	C11H14NO4[34]S+
