Mass spectrum: Sudan III; LC-ESI-QTOF; MS2; CE: 40 eV; R=35000; [M+H]+
Name: Sudan III
Formula: C22H16N4O
Exact mass: 352.1324111
SMILES: c1ccc(cc1)/N=N\c2ccc(cc2)/N=N/c3c4ccccc4ccc3O
InChI: InChI=1S/C22H16N4O/c27-21-15-10-16-6-4-5-9-20(16)22(21)26-25-19-13-11-18(12-14-19)24-23-17-7-2-1-3-8-17/h1-15,27H/b24-23-,26-25+
Instrument: Bruker maXis Impact
Instrument type: LC-ESI-QTOF
Ms type: MS2
Ion mode: POSITIVE
Ionization: ESI
Fragmentation mode: CID
Collision energy: 40 eV
Resolution: 35000
Column name: Acclaim RSLC C18 2.2um, 2.1x100mm, Thermo
Retention time: 15.490 min
Base peak: 338.3451
Precursor m/z: 353.1397
Precursor type: [M+H]+
m/z	relative intensity	assigned
115.0555	130	C9H7+
120.0567	38	C8H8O+
125.097	16	C8H13O+
128.0502	868	C9H6N+
129.0547	92	C8[13]CH6N+
130.0637	20	C9H8N+
132.0669	16	C8H8N2+
135.1186	24	C10H15+
141.071	258	C11H9+
142.0744	38	C10[13]CH9+
143.0501	306	C10H7O+
144.0531	30	C9[13]CH7O+
146.0608	89	C9H8NO+
153.0579	17	C11H7N+
156.0455	483	C10H6NO+
157.0497	60	C9[13]CH6NO+
158.0605	20	C10H8NO+
160.0637	21	C9H8N2O+
166.0674	18	C12H8N+
167.074	133	C12H9N+
168.0818	131	C12H10N+
169.0767	118	C11H9N2+
170.083	21	C11H10N2+
171.0565	27	C10H7N2O+
174.0561	72	C8H6N4O+
179.0619	30	C12H7N2+
181.0758	43	C12H9N2+
182.0637	24	C12H8NO+
182.0849	53	C12H10N2+
183.092	18	C12H11N2+
196.0886	876	C14H12O+
197.0957	999	C14H13O+
198.1005	184	C13[13]CH13O+
199.1057	22	C12H13N3+
204.0819	30	C15H10N+
205.0785	18	C14H9N2+
214.0761	19	C17H10+
219.0939	54	C15H11N2+
220.0943	24	C15H12N2+
231.0968	24	C16H11N2+
232.0894	79	C17H12O+
233.0946	20	C15H11N3+
247.0905	78	C16H11N2O+
248.0955	30	C16H12N2O+
