Mass spectrum: Triclabendazole; LC-ESI-QTOF; MS2; CE: 40 eV; R=35000; [M+H]+
Name: Triclabendazole
Name: 6-chloro-5-(2,3-dichlorophenoxy)-2-methylsulfanyl-1H-benzimidazole
Formula: C14H9Cl3N2OS
Exact mass: 357.9501169
SMILES: CSc1[nH]c2cc(c(cc2n1)Oc3cccc(c3Cl)Cl)Cl
InChI: InChI=1S/C14H9Cl3N2OS/c1-21-14-18-9-5-8(16)12(6-10(9)19-14)20-11-4-2-3-7(15)13(11)17/h2-6H,1H3,(H,18,19)
Instrument: Bruker maXis Impact
Instrument type: LC-ESI-QTOF
Ms type: MS2
Ion mode: POSITIVE
Ionization: ESI
Fragmentation mode: CID
Collision energy: 40 eV
Resolution: 35000
Column name: Acclaim RSLC C18 2.2um, 2.1x100mm, Thermo
Retention time: 11.8 min
Base peak: 334.0623
Precursor m/z: 358.9574
Precursor type: [M+H]+
m/z	relative intensity	assigned
163.0316	27	C10H8Cl+
165.0205	169	C11H3NO+
167.0192	27	C5H10ClNOS+
170.9766	37	C8H5Cl2+
196.9949	29	C8H6ClN2S+
198.0014	122	C8H7ClN2S+
198.9725	172	C7H4ClN2OS+
200.9701	38	C9H5Cl[37]ClO+
242.0265	53	C13H7ClN2O+
250.9907	85	C9H10Cl3N2+
252.9907	37	C9H10Cl2[37]ClN2+
272.987	30	C12H10Cl3N+
273.9963	999	C13H7ClN2OS+
275	101	C12[13]CH7ClN2OS+
275.9928	146	C13H7[37]ClN2OS+
276.9941	113	C13H7Cl2N2O+
278.9905	39	C13H7Cl[37]ClN2O+
280.9678	21	C14H8Cl3+
307.9616	38	C13H6Cl2N2OS+
308.9648	125	C13H7Cl2N2OS+
309.9676	21	C13H8Cl2N2OS+
310.9619	46	C13H7Cl[37]ClN2OS+
343.9345	685	C13H7Cl3N2OS+
344.9375	89	C12[13]CH7Cl3N2OS+
346.9347	44	C13H8Cl2[37]ClN2OS+
358.9585	110	C14H10Cl3N2OS+
360.9556	79	C14H10Cl2[37]ClN2OS+
