Mass spectrum: Flunitrazepam; LC-ESI-QTOF; MS2; CE: 30 eV; R=35000; [M+H]+
Name: Flunitrazepam
Name: 5-(2-fluorophenyl)-1-methyl-7-nitro-3H-1,4-benzodiazepin-2-one
Formula: C16H12FN3O3
Exact mass: 313.0862695
SMILES: CN1C2=C(C=C(C=C2)[N+]([O-])=O)C(=NCC1=O)C1=C(F)C=CC=C1
InChI: InChI=1S/C16H12FN3O3/c1-19-14-7-6-10(20(22)23)8-12(14)16(18-9-15(19)21)11-4-2-3-5-13(11)17/h2-8H,9H2,1H3
Instrument: Bruker maXis Impact
Instrument type: LC-ESI-QTOF
Ms type: MS2
Ion mode: POSITIVE
Ionization: ESI
Fragmentation mode: CID
Collision energy: 30 eV
Resolution: 35000
Column name: Acclaim RSLC C18 2.2um, 2.1x100mm, Thermo
Retention time: 7.6 min
Base peak: 327.1367
Precursor m/z: 314.0935
Precursor type: [M+H]+
m/z	relative intensity	assigned
119.0734	6	C8H9N+
123.0229	6	C10H3+
147.0663	11	C9H9NO+
165.0648	31	C8H9N2O2+
172.0614	6	C10H8N2O+
183.06	8	C13H8F+
190.061	6	C9H8N3O2+
191.0439	10	C9H7N2O3+
193.0598	17	C9H9N2O3+
197.0621	16	C10H10FO3+
198.0702	10	C13H9FN+
199.0769	10	C10H12FO3+
205.0757	9	C14H9N2+
210.0698	24	C11H11FO3+
212.0842	24	C11H13FO3+
213.0842	7	C13H10FN2+
214.0643	7	C16H8N+
219.0914	10	C15H11N2+
221.1063	14	C15H13N2+
222.071	5	C15H9FN+
225.0819	12	C14H10FN2+
227.0745	6	C14H10FNO+
227.0967	20	C14H12FN2+
228.0799	16	C14H12O3+
228.1044	16	C14H13FN2+
238.0881	5	C12H13FNO3+
240.0681	29	C14H9FN2O+
240.1042	100	C15H13FN2+
241.0761	6	C14H10FN2O+
241.1086	13	C13H13N4O+
243.0677	5	C14H10FNO2+
256.0996	23	C15H13FN2O+
257.0711	33	C14H10FN2O2+
258.0761	7	C14H11FN2O2+
267.0924	32	C16H12FN2O+
268.1004	999	C16H13FN2O+
269.1032	150	C14H13N4O2+
270.067	8	C14H9FN3O2+
270.1057	17	C14[13]C2H13FN2O+
271.0849	5	C15H12FN2O2+
272.0949	19	C15H13FN2O2+
273.0976	5	C13H13N4O3+
283.0863	17	C16H12FN2O2+
284.0855	7	C15H11FN3O2+
285.0908	5	C15H12FN3O2+
286.0982	95	C15H13FN3O2+
287.0996	18	C13H13N5O3+
300.0903	435	C16H13FN2O3+
301.093	68	C14H13N4O4+
302.0937	7	C15H13FN3O3+
314.0936	989	C16H13FN3O3+
315.0965	160	
316.0987	16	C14[13]C2FN3O3+
