Mass spectrum: Tiamulin; LC-ESI-QTOF; MS2; CE: Ramp 25.5-38.2 eV; R=35000; [M+H]+
Name: Tiamulin
Formula: C28H47NO4S
Exact mass: 493.3226
SMILES: CCN(CC)CCSCC(=O)O[C@@H]1C[C@@]([C@H]([C@@H]([C@@]23CC[C@H]([C@@]1([C@@H]2C(=O)CC3)C)C)C)O)(C)C=C
InChI: InChI=1S/C28H47NO4S/c1-8-26(6)17-22(33-23(31)18-34-16-15-29(9-2)10-3)27(7)19(4)11-13-28(20(5)25(26)32)14-12-21(30)24(27)28/h8,19-20,22,24-25,32H,1,9-18H2,2-7H3/t19-,20+,22-,24+,25+,26-,27+,28+/m1/s1
Instrument: Bruker maXis Impact
Instrument type: LC-ESI-QTOF
Ms type: MS2
Ion mode: POSITIVE
Ionization: ESI
Fragmentation mode: CID
Collision energy: Ramp 25.5-38.2 eV
Resolution: 35000
Column name: Acclaim RSLC C18 2.2um, 2.1x100mm, Thermo
Retention time: 7.8 min
Base peak: 494.3339
Precursor m/z: 494.3299
Precursor type: [M+H]+
m/z	relative intensity	assigned
55.0537	5	C4H7+
69.0693	6	C5H9+
73.0102	20	C3H5S+
74.0959	61	C4H12N+
79.0538	6	C6H7+
81.0695	60	C6H9+
83.085	8	C6H11+
89.0594	7	C4H9O2+
93.0698	11	C7H9+
95.0856	31	C7H11+
97.0649	5	C6H9O+
97.1011	7	C7H13+
99.0444	9	C5H7O2+
100.1124	7	C6H14N+
105.0703	8	C8H9+
107.0866	16	C8H11+
109.0664	5	C7H9O+
109.1025	14	C8H13+
119.0169	162	C4H7O2S+
119.086	18	C9H11+
120.0194	6	C7H4O2+
121.1017	14	C9H13+
123.1172	6	C9H15+
133.1015	21	C10H13+
135.1169	7	C10H15+
145.1011	11	C11H13+
147.1172	16	C11H15+
149.0962	17	C10H13O+
149.1326	8	C11H17+
157.101	6	C12H13+
159.1171	12	C12H15+
161.0959	6	C11H13O+
161.1327	9	C12H17+
163.1119	64	C11H15O+
163.1481	6	C12H19+
164.1152	6	C11H16O+
165.127	5	C11H17O+
171.1169	6	C13H15+
173.1327	14	C13H17+
175.112	15	C12H15O+
175.1488	12	C13H19+
177.1278	18	C12H17O+
185.133	9	C14H17+
187.1484	11	C14H19+
189.1273	6	C13H17O+
191.1433	5	C13H19O+
192.1062	999	C8H18NO2S+
193.1089	106	C11H15NO2+
194.1022	37	C11H16NS+
197.1327	6	C15H17+
199.1487	6	C15H19+
201.1649	8	C15H21+
203.1437	13	C14H19O+
211.1491	10	C16H19+
213.1647	5	C16H21+
215.1432	6	C15H19O+
215.1802	6	C16H23+
217.1606	6	C12H25OS+
221.1544	12	C14H21O2+
227.1802	14	C17H23+
229.1595	6	C16H21O+
229.1965	9	C17H25+
233.1544	6	C15H21O2+
245.1914	36	C17H25O+
246.1947	6	C17H26O+
257.2276	12	C19H29+
267.2124	32	C20H27+
268.2157	5	C20H28+
285.2232	47	C17H33OS+
286.2267	9	C20H30O+
303.234	28	C17H35O2S+
304.2371	5	C20H32O2+
494.3338	84	C28H48NO4S+
495.3371	33	C27H47N2O4S+
496.3382	6	C27H48N2O4S+
