Mass spectrum: Dimethenamid-OXA; LC-ESI-QTOF; MS2; CE: 20 eV; R=35000; [M+H]+
Name: Dimethenamid-OXA
Name: 2-[(2,4-dimethylthiophen-3-yl)-(1-methoxypropan-2-yl)amino]-2-oxoacetic acid
Formula: C12H17NO4S
Exact mass: 271.0878290
SMILES: COCC(C)N(C(=O)C(O)=O)c1c(C)csc1C
InChI: InChI=1S/C12H17NO4S/c1-7-6-18-9(3)10(7)13(8(2)5-17-4)11(14)12(15)16/h6,8H,5H2,1-4H3,(H,15,16)
Instrument: Bruker maXis Impact
Instrument type: LC-ESI-QTOF
Ms type: MS2
Ion mode: POSITIVE
Ionization: ESI
Fragmentation mode: CID
Collision energy: 20 eV
Resolution: 35000
Column name: Acclaim RSLC C18 2.2um, 2.1x100mm, Thermo
Retention time: 6.0 min
Base peak: 150.1116
Precursor m/z: 272.0951
Precursor type: [M+H]+
m/z	relative intensity	assigned
126.0356	34	C3H10O3S+
128.0526	11	C6H10NS+
135.104	7	C9H13N+
138.0361	34	C7H8NS+
139.0411	7	C10H5N+
152.0512	9	C5H12O3S+
154.0307	42	C4H10O4S+
166.0673	41	C9H12NS+
167.075	10	C9H13NS+
168.0829	78	C9H14NS+
169.086	12	C9H13O3+
194.0623	14	C10H12NOS+
196.0778	47	C10H14NOS+
197.0826	7	C7H17O4S+
198.0939	10	C10H16NOS+
200.1096	10	C10H18NOS+
212.0744	14	C10H14NO2S+
226.0876	8	C11H16NO2S+
240.0683	999	C11H14NO3S+
241.0718	112	C10[13]CH14NO3S+
242.0651	41	C11H14NO3[34]S+
