Mass spectrum: Genistein; LC-ESI-QTOF; MS2; CE: 20 eV; R=35000; [M-H]-
Name: Genistein
Name: 5,7-dihydroxy-3-(4-hydroxyphenyl)chromen-4-one
Formula: C15H10O5
Exact mass: 270.0528234
SMILES: OC1=CC=C(C=C1)C1=COC2=CC(O)=CC(O)=C2C1=O
InChI: InChI=1S/C15H10O5/c16-9-3-1-8(2-4-9)11-7-20-13-6-10(17)5-12(18)14(13)15(11)19/h1-7,16-18H
Instrument: Bruker maXis Impact
Instrument type: LC-ESI-QTOF
Ms type: MS2
Ion mode: NEGATIVE
Ionization: ESI
Fragmentation mode: CID
Collision energy: 20 eV
Resolution: 35000
Column name: Acclaim RSLC C18 2.2um, 2.1x100mm, Thermo
Retention time: 7.479 min
Base peak: 269.0449
Precursor m/z: 269.0455
Precursor type: [M-H]-
m/z	relative intensity	assigned
133.0314	15	C8H5O2-
135.0452	5	C8H7O2-
157.0303	6	C10H5O2-
159.0452	14	C10H7O2-
169.0641	7	C12H9O-
180.0559	8	C13H8O-
181.0648	16	C13H9O-
183.0455	14	C12H7O2-
197.0609	11	C13H9O2-
199.0397	5	C12H7O3-
201.0555	21	C12H9O3-
224.0465	12	C14H8O3-
225.052	21	C14H9O3-
227.0338	5	C13H7O4-
241.0508	9	C14H9O4-
269.0449	999	C15H9O5-
270.0484	156	C14[13]CH9O5-
271.0506	15	C13[13]C2H9O5-
