Mass spectrum: Amitraz; LC-ESI-QTOF; MS2; CE: 40 eV; R=35000; [M+H]+
Name: Amitraz
Name: N`-(2,4-dimethylphenyl)-N-[(2,4-dimethylphenyl)iminomethyl]-N-methylmethanimidamide
Formula: C19H23N3
Exact mass: 293.1891977
SMILES: CN(C=NC1=C(C)C=C(C)C=C1)C=NC1=C(C)C=C(C)C=C1
InChI: InChI=1S/C19H23N3/c1-14-6-8-18(16(3)10-14)20-12-22(5)13-21-19-9-7-15(2)11-17(19)4/h6-13H,1-5H3
Instrument: Bruker maXis Impact
Instrument type: LC-ESI-QTOF
Ms type: MS2
Ion mode: POSITIVE
Ionization: ESI
Fragmentation mode: CID
Collision energy: 40 eV
Resolution: 35000
Column name: Acclaim RSLC C18 2.2um, 2.1x100mm, Thermo
Retention time: 13.5 min
Base peak: 150.1114
Precursor m/z: 294.1965
Precursor type: [M+H]+
m/z	relative intensity	assigned
117.0569	135	C8H7N+
120.0805	64	C8H10N+
122.0959	434	C8H12N+
132.0798	355	C9H10N+
161.0963	39	C9H11N3+
163.1221	999	C10H15N2+
