Mass spectrum: Spiroxamine; LC-ESI-QTOF; MS2; CE: 50 eV; R=35000; [M+H]+
Name: Spiroxamine
Name: N-[(8-tert-butyl-1,4-dioxaspiro[4.5]decan-3-yl)methyl]-N-ethylpropan-1-amine
Formula: C18H35NO2
Exact mass: 297.2667794
SMILES: CCCN(CC)CC1COC2(CCC(CC2)C(C)(C)C)O1
InChI: InChI=1S/C18H35NO2/c1-6-12-19(7-2)13-16-14-20-18(21-16)10-8-15(9-11-18)17(3,4)5/h15-16H,6-14H2,1-5H3
Instrument: Bruker maXis Impact
Instrument type: LC-ESI-QTOF
Ms type: MS2
Ion mode: POSITIVE
Ionization: ESI
Fragmentation mode: CID
Collision energy: 50 eV
Resolution: 35000
Column name: Acclaim RSLC C18 2.2um, 2.1x100mm, Thermo
Retention time: 9.096 min
Base peak: 404.1242
Precursor m/z: 298.2741
Precursor type: [M+H]+
m/z	relative intensity	assigned
126.1268	36	C8H16N+
128.1424	9	C8H18N+
144.1371	999	C8H18NO+
145.1403	129	C7[13]CH18NO+
