Mass spectrum: Octyl-3,5-di-tert-butyl-4-hydroxyhydrocinnamate; LC-ESI-QTOF; MS2; CE: 10 eV; R=35000; [M+H]+
Name: Octyl-3,5-di-tert-butyl-4-hydroxyhydrocinnamate
Name: Octyl-3,5-di-tert-butyl-4-hydroxy-hydrocinnamate
Name: octyl 3-(3,5-ditert-butyl-4-hydroxyphenyl)propanoate
Formula: C25H42O3
Exact mass: 390.3133952
SMILES: CCCCCCCCOC(=O)CCC1=CC(=C(O)C(=C1)C(C)(C)C)C(C)(C)C
InChI: InChI=1S/C25H42O3/c1-8-9-10-11-12-13-16-28-22(26)15-14-19-17-20(24(2,3)4)23(27)21(18-19)25(5,6)7/h17-18,27H,8-16H2,1-7H3
Instrument: Bruker maXis Impact
Instrument type: LC-ESI-QTOF
Ms type: MS2
Ion mode: POSITIVE
Ionization: ESI
Fragmentation mode: CID
Collision energy: 10 eV
Resolution: 35000
Column name: Acclaim RSLC C18 2.2um, 2.1x100mm, Thermo
Retention time: 14.644 min
Base peak: 408.3474
Precursor m/z: 391.3207
Precursor type: [M+H]+
m/z	relative intensity	assigned
149.0225	202	C8H5O3+
149.058	193	C9H9O2+
150.0244	22	C7[13]CH5O3+
167.0691	999	C9H11O3+
168.0722	77	C8[13]CH11O3+
172.1135	83	C9H16O3+
223.1326	150	C13H19O3+
224.1342	24	C12[13]CH19O3+
261.1482	50	C16H21O3+
279.1953	75	C17H27O3+
280.2	20	C17H28O3+
335.2581	341	C21H35O3+
336.2617	112	C20[13]CH35O3+
391.3207	38	C25H43O3+
