Mass spectrum: Warfarin; LC-ESI-QTOF; MS2; CE: 20 eV; R=35000; [M+H]+
Name: Warfarin
Name: 4-hydroxy-3-(3-oxo-1-phenylbutyl)chromen-2-one
Formula: C19H16O4
Exact mass: 308.1048590
SMILES: CC(=O)CC(C1=CC=CC=C1)C1=C(O)C2=CC=CC=C2OC1=O
InChI: InChI=1S/C19H16O4/c1-12(20)11-15(13-7-3-2-4-8-13)17-18(21)14-9-5-6-10-16(14)23-19(17)22/h2-10,15,21H,11H2,1H3
Instrument: Bruker maXis Impact
Instrument type: LC-ESI-QTOF
Ms type: MS2
Ion mode: POSITIVE
Ionization: ESI
Fragmentation mode: CID
Collision energy: 20 eV
Resolution: 35000
Column name: Acclaim RSLC C18 2.2um, 2.1x100mm, Thermo
Retention time: 9.400 min
Base peak: 309.1125
Precursor m/z: 309.1121
Precursor type: [M+H]+
m/z	relative intensity	assigned
121.0276	5	C7H5O2+
129.069	7	C10H9+
147.0798	96	C10H11O+
148.0828	10	C9[13]CH11O+
163.0383	886	C9H7O3+
164.0415	62	C8[13]CH7O3+
183.0795	5	C13H11O+
189.0538	7	C11H9O3+
191.0332	7	C10H7O4+
251.0704	999	C16H11O3+
252.0733	126	C15[13]CH11O3+
253.076	11	C14[13]C2H11O3+
291.1013	16	C19H15O3+
309.1116	37	C19H17O4+
310.1145	8	C18[13]CH17O4+
