Mass spectrum: 2-Hydroxycarbamazepine; LC-ESI-QTOF; MS2; CE: 10 eV; R=35000; [M-H]-
Name: 2-Hydroxycarbamazepine
Name: 3-hydroxybenzo[b][1]benzazepine-11-carboxamide
Formula: C15H12N2O2
Exact mass: 252.0898776
SMILES: NC(=O)N1C2=CC=CC=C2C=CC2=CC(O)=CC=C12
InChI: InChI=1S/C15H12N2O2/c16-15(19)17-13-4-2-1-3-10(13)5-6-11-9-12(18)7-8-14(11)17/h1-9,18H,(H2,16,19)
Instrument: Bruker maXis Impact
Instrument type: LC-ESI-QTOF
Ms type: MS2
Ion mode: NEGATIVE
Ionization: ESI
Fragmentation mode: CID
Collision energy: 10 eV
Resolution: 35000
Column name: Acclaim RSLC C18 2.2um, 2.1x100mm, Thermo
Retention time: 5.993 min
Base peak: 251.083
Precursor m/z: 251.0826
Precursor type: [M-H]-
m/z	relative intensity	assigned
208.0777	114	C14H10NO-
209.0797	34	C14H11NO-
251.0834	999	C15H11N2O2-
252.0853	119	C14[13]CH11N2O2-
