Mass spectrum: Metolachlor-OXA; LC-ESI-QTOF; MS2; CE: 20 eV; R=35000; [M+H]+
Name: Metolachlor-OXA
Name: Metolachlor OA
Name: 2-[2-ethyl-N-(1-methoxypropan-2-yl)-6-methylanilino]-2-oxoacetic acid
Formula: C15H21NO4
Exact mass: 279.1470582
SMILES: CCC1=CC=CC(C)=C1N(C(C)COC)C(=O)C(O)=O
InChI: InChI=1S/C15H21NO4/c1-5-12-8-6-7-10(2)13(12)16(11(3)9-20-4)14(17)15(18)19/h6-8,11H,5,9H2,1-4H3,(H,18,19)
Instrument: Bruker maXis Impact
Instrument type: LC-ESI-QTOF
Ms type: MS2
Ion mode: POSITIVE
Ionization: ESI
Fragmentation mode: CID
Collision energy: 20 eV
Resolution: 35000
Column name: Acclaim RSLC C18 2.2um, 2.1x100mm, Thermo
Retention time: 7.2 min
Base peak: 280.1537
Precursor m/z: 280.1543
Precursor type: [M+H]+
m/z	relative intensity	assigned
118.0639	5	C8H8N+
131.071	10	C6H11O3+
134.0948	7	C6H14O3+
144.0798	13	C10H10N+
146.095	52	C7H14O3+
147.0985	6	C5H13N3O2+
148.1106	29	C7H16O3+
149.0222	42	C8H5O3+
150.0257	5	C3H6N2O5+
160.1105	12	C8H16O3+
162.0902	27	C10H12NO+
174.1271	13	C12H16N+
176.1414	33	C9H20O3+
177.1458	5	C9H21O3+
202.1229	13	C13H16NO+
204.1381	8	C13H18NO+
208.0971	8	C11H14NO3+
220.1329	15	C13H18NO2+
248.1279	999	C14H18NO3+
249.131	147	C13[13]CH18NO3+
250.1357	12	C12[13]C2H18NO3+
279.0936	12	C13H15N2O5+
