Mass spectrum: Niflumic acid; LC-ESI-QTOF; MS2; CE: 50 eV; R=35000; [M+H]+
Name: Niflumic acid
Name: 2-[3-(trifluoromethyl)anilino]pyridine-3-carboxylic acid
Formula: C13H9F3N2O2
Exact mass: 282.0616122
SMILES: c1cc(cc(c1)Nc2c(cccn2)C(=O)O)C(F)(F)F
InChI: InChI=1S/C13H9F3N2O2/c14-13(15,16)8-3-1-4-9(7-8)18-11-10(12(19)20)5-2-6-17-11/h1-7H,(H,17,18)(H,19,20)
Instrument: Bruker maXis Impact
Instrument type: LC-ESI-QTOF
Ms type: MS2
Ion mode: POSITIVE
Ionization: ESI
Fragmentation mode: CID
Collision energy: 50 eV
Resolution: 35000
Column name: Acclaim RSLC C18 2.2um, 2.1x100mm, Thermo
Retention time: 9.4 min
Base peak: 283.0591
Precursor m/z: 283.0689
Precursor type: [M+H]+
m/z	relative intensity	assigned
125.0145	68	C5H2FN2O+
140.0437	35	C8H6F2+
141.0506	59	C8H7F2+
145.0198	999	C8H2FN2+
146.0233	55	C7[13]CH2FN2+
167.0519	64	C9H8FO2+
168.0613	714	C9H8F2N+
169.0643	78	C8[13]CH8F2N+
170.0327	32	C9H5F3+
183.0343	27	C11H4FN2+
188.0425	16	C12H6F2+
190.039	111	C11H7FO2+
191.0391	19	C10H6FNO2+
195.0475	31	C13H6FN+
196.0564	217	C10H8F2NO+
197.0443	162	C10H6F3N+
198.0119	16	C12H3FO2+
198.0478	41	C13H7FO+
215.0537	18	C13H7F2N+
216.0419	23	C10H7F3O2+
217.049	741	C10H8F3O2+
218.0525	77	C9[13]CH8F3O2+
219.0382	22	C8H6F3N2O2+
225.0384	19	C11H6F3NO+
236.0479	48	C13H7F3O+
237.0543	90	C13H8F3O+
238.0387	37	C11H5F3N2O+
238.0582	16	C13H9F3O+
245.0473	442	C13H7F2N2O+
246.052	69	C12[13]CH7F2N2O+
263.059	14	C13H9F2N2O2+
264.047	39	C13H7F3N2O+
265.0537	376	C13H8F3N2O+
266.0576	47	C12[13]CH8F3N2O+
