Mass spectrum: N4-Acetyl-Sulfamethoxazole; LC-ESI-QTOF; MS2; CE: 10 eV; R=35000; [M-H]-
Name: N4-Acetyl-Sulfamethoxazole
Name: N-[4-[(5-methyl-1,2-oxazol-3-yl)sulfamoyl]phenyl]acetamide
Formula: C12H13N3O4S
Exact mass: 295.0626769
SMILES: CC(=O)NC1=CC=C(C=C1)S(=O)(=O)NC1=NOC(C)=C1
InChI: InChI=1S/C12H13N3O4S/c1-8-7-12(14-19-8)15-20(17,18)11-5-3-10(4-6-11)13-9(2)16/h3-7H,1-2H3,(H,13,16)(H,14,15)
Instrument: Bruker maXis Impact
Instrument type: LC-ESI-QTOF
Ms type: MS2
Ion mode: NEGATIVE
Ionization: ESI
Fragmentation mode: CID
Collision energy: 10 eV
Resolution: 35000
Column name: Acclaim RSLC C18 2.2um, 2.1x100mm, Thermo
Retention time: 3.669 min
Base peak: 294.0531
Precursor m/z: 294.0554
Precursor type: [M-H]-
m/z	relative intensity	assigned
198.0219	564	C8H8NO3S-
294.0535	999	C12H12N3O4S-
295.0562	139	C11[13]CH12N3O4S-
