Mass spectrum: Hydroxychloroquine; LC-ESI-QTOF; MS2; CE: 50 eV; R=35000; [M+H]+
Name: Hydroxychloroquine
Name: 2-[4-[(7-chloroquinolin-4-yl)amino]pentyl-ethylamino]ethanol
Formula: C18H26ClN3O
Exact mass: 335.1764401
SMILES: CCN(CCO)CCCC(C)NC1=C2C=CC(Cl)=CC2=NC=C1
InChI: InChI=1S/C18H26ClN3O/c1-3-22(11-12-23)10-4-5-14(2)21-17-8-9-20-18-13-15(19)6-7-16(17)18/h6-9,13-14,23H,3-5,10-12H2,1-2H3,(H,20,21)
Instrument: Bruker maXis Impact
Instrument type: LC-ESI-QTOF
Ms type: MS2
Ion mode: POSITIVE
Ionization: ESI
Fragmentation mode: CID
Collision energy: 50 eV
Resolution: 35000
Column name: Acclaim RSLC C18 2.2um, 2.1x100mm, Thermo
Retention time: 3.780 min
Base peak: 336.1838
Precursor m/z: 336.1837
Precursor type: [M+H]+
m/z	relative intensity	assigned
117.056	9	C8H7N+
128.0486	7	C9H6N+
129.0559	13	C9H7N+
133.0515	5	C8H7NO+
138.01	6	C10H2O+
143.0584	20	C9H7N2+
144.0668	92	C9H8N2+
145.0708	8	C8[13]CH8N2+
151.0162	7	C9HN3+
155.0592	39	C10H7N2+
156.0669	143	C10H8N2+
157.0699	20	C9[13]CH8N2+
158.1526	65	C9H20NO+
159.1555	6	C8[13]CH20NO+
162.0089	25	C9H5ClN+
163.0165	47	C9H6ClN+
164.0067	6	C9H5[37]ClN+
164.025	65	C9H7ClN+
165.0138	10	C9H6[37]ClN+
165.028	5	C8[13]CH7ClN+
166.0226	22	C9H7[37]ClN+
169.0743	8	C11H9N2+
176.0544	5	C6H11ClN3O+
177.033	28	C13H5O+
178.0284	53	C12H4NO+
179.036	999	C9H8ClN2+
180.0383	98	C8[13]CH8ClN2+
181.0329	272	C9H8[37]ClN2+
182.0361	16	C9H9ClNO+
190.0293	17	C10H7ClN2+
191.0362	483	C10H8ClN2+
192.0397	65	C9[13]CH8ClN2+
193.033	146	C10H8[37]ClN2+
194.0376	13	C10H9ClNO+
195.0066	12	C15HN+
203.0364	36	C11H8ClN2+
204.0419	14	C14H6NO+
205.0334	13	C11H8[37]ClN2+
205.0518	147	C11H10ClN2+
206.0557	21	C10[13]CH10ClN2+
207.0493	45	C11H10[37]ClN2+
208.0514	7	C12H6N3O+
217.0515	5	C15H7NO+
219.0666	5	C15H9NO+
247.0991	238	C14H16ClN2+
248.1006	47	C13[13]CH16ClN2+
249.0964	79	C14H16[37]ClN2+
250.1003	7	C14H17ClNO+
