Mass spectrum: Triethyl citrate; GC-APCI-QTOF; MS2; CE: 20 eV; R=35000; [M]+
Name: Triethyl citrate
Formula: C12H20O7
Exact mass: 276.1209
SMILES: CCOC(=O)CC(CC(=O)OCC)(C(=O)OCC)O
InChI: InChI=1S/C12H20O7/c1-4-17-9(13)7-12(16,11(15)19-6-3)8-10(14)18-5-2/h16H,4-8H2,1-3H3
Instrument: Bruker 450 GC coupled to maXis Impact
Instrument type: GC-APCI-QTOF
Ms type: MS2
Ion mode: POSITIVE
Ionization: APCI
Fragmentation mode: CID
Collision energy: 20 eV
Resolution: 35000
Column name: Rxi-5Sil MS column, 30m, 0.25mm i.d., 0.25Âµm film thickness, Restek
Retention time: 15.014 min
Base peak: 189.056
Precursor m/z: 276.1204
Precursor type: [M]+
m/z	relative intensity	assigned
115.0533	14	C9H7+
117.0713	27	C9H9+
118.0406	22	C8H6O+
119.0487	14	C8H7O+
130.0426	15	C9H6O+
131.0486	55	C9H7O+
132.0208	234	C8H4O2+
132.0573	81	C9H8O+
133.0261	33	C8H5O2+
133.0661	21	C9H9O+
135.1202	20	C3H19O5+
141.0727	14	C11H9+
144.0584	64	C10H8O+
145.0667	42	C10H9O+
146.0756	47	C3H14O6+
147.0458	17	C9H7O2+
149.0258	999	C8H5O3+
150.0288	46	C8H6O3+
158.0762	14	C4H14O6+
160.0555	24	C3H12O7+
161.0617	21	C10H9O2+
167.0325	17	C8H7O4+
169.0698	29	C5H13O6+
171.0841	39	C5H15O6+
172.0589	14	C4H12O7+
172.0919	99	C5H16O6+
178.0653	30	C10H10O3+
181.0514	14	C9H9O4+
183.084	23	C6H15O6+
184.0904	20	C6H16O6+
188.0472	53	C11H8O3+
189.0569	120	C11H9O3+
190.0616	14	C11H10O3+
194.0577	28	C10H10O4+
204.0812	19	C12H12O3+
210.0547	16	C10H10O5+
