Mass spectrum: Butyl stearate; GC-APCI-QTOF; MS2; CE: 30 eV; R=35000; [M+H]+
Name: Butyl stearate
Formula: C22H44O2
Exact mass: 340.3341
SMILES: CCCCCCCCCCCCCCCCCC(=O)OCCCC
InChI: InChI=1S/C22H44O2/c1-3-5-7-8-9-10-11-12-13-14-15-16-17-18-19-20-22(23)24-21-6-4-2/h3-21H2,1-2H3
Instrument: Bruker 450 GC coupled to maXis Impact
Instrument type: GC-APCI-QTOF
Ms type: MS2
Ion mode: POSITIVE
Ionization: APCI
Fragmentation mode: CID
Collision energy: 30 eV
Resolution: 35000
Column name: Rxi-5Sil MS column, 30m, 0.25mm i.d., 0.25Âµm film thickness, Restek
Retention time: 22.578 min
Base peak: 283.263
Precursor m/z: 341.3414
Precursor type: [M+H]+
m/z	relative intensity	assigned
55.0536	215	C4H7+
121.1013	276	C9H13+
123.1159	430	C9H15+
125.0951	438	C8H13O+
131.1085	222	C7H15O2+
135.1173	999	C10H15+
136.1234	199	C10H16+
137.1343	253	C10H17+
139.1126	430	C9H15O+
149.1337	730	C11H17+
153.1297	199	C10H17O+
163.151	683	C12H19+
173.1554	222	C10H21O2+
285.2832	322	C18H37O2+
