Mass spectrum: Verapamil; LC-ESI-QTOF; MS2; CE: 50 eV; R=35000; [M+H]+
Name: Verapamil
Name: 2-(3,4-dimethoxyphenyl)-5-[2-(3,4-dimethoxyphenyl)ethyl-methylamino]-2-propan-2-ylpentanenitrile
Formula: C27H38N2O4
Exact mass: 454.2831577
SMILES: COC1=CC=C(CCN(C)CCCC(C#N)(C(C)C)C2=CC(OC)=C(OC)C=C2)C=C1OC
InChI: InChI=1S/C27H38N2O4/c1-20(2)27(19-28,22-10-12-24(31-5)26(18-22)33-7)14-8-15-29(3)16-13-21-9-11-23(30-4)25(17-21)32-6/h9-12,17-18,20H,8,13-16H2,1-7H3
Instrument: Bruker maXis Impact
Instrument type: LC-ESI-QTOF
Ms type: MS2
Ion mode: POSITIVE
Ionization: ESI
Fragmentation mode: CID
Collision energy: 50 eV
Resolution: 35000
Column name: Acclaim RSLC C18 2.2um, 2.1x100mm, Thermo
Retention time: 7.2 min
Base peak: 455.2901
Precursor m/z: 455.2904
Precursor type: [M+H]+
m/z	relative intensity	assigned
118.0406	8	C8H6O+
119.0479	8	C8H7O+
120.0559	9	C8H8O+
122.0706	5	C8H10O+
122.0956	6	C8H12N+
131.0478	8	C9H7O+
136.0493	10	C3H8N2O4+
137.0585	9	C8H9O2+
138.0662	8	C8H10O2+
139.0737	6	C8H11O2+
150.0667	460	C9H10O2+
151.0721	76	C8[13]CH10O2+
165.0899	999	C10H13O2+
166.0932	69	C9[13]CH13O2+
177.0895	38	C11H13O2+
191.1056	7	C12H15O2+
217.1084	7	C13H15NO2+
218.1165	27	C13H16NO2+
260.1641	40	C16H22NO2+
303.2066	29	C18H27N2O2+
