Mass spectrum: Fenthion; LC-ESI-QTOF; MS2; CE: 30 eV; R=35000; [M+H]+
Name: Fenthion
Name: dimethoxy-(3-methyl-4-methylsulfanylphenoxy)-sulfanylidene-$l^{5}-phosphane
Formula: C10H15O3PS2
Exact mass: 278.0200230
SMILES: COP(=S)(OC)OC1=CC(C)=C(SC)C=C1
InChI: InChI=1S/C10H15O3PS2/c1-8-7-9(5-6-10(8)16-4)13-14(15,11-2)12-3/h5-7H,1-4H3
Instrument: Bruker maXis Impact
Instrument type: LC-ESI-QTOF
Ms type: MS2
Ion mode: POSITIVE
Ionization: ESI
Fragmentation mode: CID
Collision energy: 30 eV
Resolution: 35000
Column name: Acclaim RSLC C18 2.2um, 2.1x100mm, Thermo
Retention time: 10.9 min
Base peak: 279.0271
Precursor m/z: 279.0273
Precursor type: [M+H]+
m/z	relative intensity	assigned
121.0101	86	C7H5S+
121.0274	12	CH14PS2+
122.0174	54	C7H6S+
123.0252	109	C7H7S+
124.0302	9	C10H4+
124.9812	422	C2H6O2PS+
125.041	91	C7H9S+
125.9849	11	C5H3O2P+
126.9768	13	C5H4PS+
127.0136	15	C4H3N2O3+
135.0248	31	CH12O3PS+
136.0313	34	CH13O3PS+
137.0406	63	CH14O3PS+
138.0486	352	CH15O3PS+
140.0442	14	C4H13OPS+
142.9918	193	C2H8O3PS+
143.9936	9	C2H8O3S2+
149.0221	161	C2H14OPS2+
150.0256	15	C5H11OPS+
152.9805	44	H10O3PS2+
153.0356	723	C8H9OS+
153.9895	189	C7H6S2+
154.0394	77	C4H11O4P+
154.9945	21	C10H3S+
155.0312	25	C8H9O[34]S+
155.9862	14	C6H4O3S+
166.9969	14	CH12O3PS2+
168.9862	329	C7H6OPS+
169.0128	999	CH14O3PS2+
170.0175	135	C4H11O3PS+
170.9844	18	C6H4O4P+
171.009	76	CH14O3PS[34]S+
184.0381	13	C9H12S2+
184.9658	8	C7H6PS2+
185.0445	38	C9H13S2+
185.9882	19	C10H3O2P+
199.9549	12	C10O3S+
200.0039	133	C8H9O2PS+
201.0102	24	C8H10O2PS+
201.9653	18	C10H3OPS+
202.9923	8	C7H8O3PS+
214.9744	106	C8H8OPS2+
215.978	14	C8H9OPS2+
216.9691	15	C10H2O4P+
231.9771	199	C8H9O2PS2+
232.9824	28	C8H10O2PS2+
233.9742	17	C9H2N2O4S+
247.0003	123	C9H12O2PS2+
248.0027	17	C7H9N2O4PS+
248.9944	8	C10H5N2O4S+
