Mass spectrum: Fentanyl; LC-ESI-QTOF; MS2; CE: 40 eV; R=35000; [M+H]+
Name: Fentanyl
Name: N-phenyl-N-[1-(2-phenylethyl)piperidin-4-yl]propanamide
Formula: C22H28N2O
Exact mass: 336.2201635
SMILES: CCC(=O)N(C1CCN(CCC2=CC=CC=C2)CC1)C1=CC=CC=C1
InChI: InChI=1S/C22H28N2O/c1-2-22(25)24(20-11-7-4-8-12-20)21-14-17-23(18-15-21)16-13-19-9-5-3-6-10-19/h3-12,21H,2,13-18H2,1H3
Instrument: Bruker maXis Impact
Instrument type: LC-ESI-QTOF
Ms type: MS2
Ion mode: POSITIVE
Ionization: ESI
Fragmentation mode: CID
Collision energy: 40 eV
Resolution: 35000
Column name: Acclaim RSLC C18 2.2um, 2.1x100mm, Thermo
Retention time: 6.1 min
Base peak: 337.228
Precursor m/z: 337.2274
Precursor type: [M+H]+
m/z	relative intensity	assigned
117.0566	8	C8H7N+
117.0691	7	C9H9+
120.0799	7	C8H10N+
130.0639	6	C9H8N+
132.08	208	C9H10N+
133.0831	20	C4H11N3O2+
134.0956	119	C9H12N+
135.0988	11	C4H13N3O2+
146.0954	54	C10H12N+
147.0992	5	C5H13N3O2+
150.0903	16	C9H12NO+
160.1112	11	C11H14N+
188.1428	999	C13H18N+
189.1457	111	C8H19N3O2+
190.1489	5	C11[13]C2H18N+
216.1374	72	C14H18NO+
217.1413	9	C13[13]CH18NO+
