Mass spectrum: Thifensulfuron-methyl; LC-ESI-QTOF; MS2; CE: 20 eV; R=35000; [M+H]+
Name: Thifensulfuron-methyl
Name: methyl 3-[(4-methoxy-6-methyl-1,3,5-triazin-2-yl)carbamoylsulfamoyl]thiophene-2-carboxylate
Formula: C12H13N5O6S2
Exact mass: 387.0307251
SMILES: COC(=O)C1=C(C=CS1)S(=O)(=O)NC(=O)NC1=NC(C)=NC(OC)=N1
InChI: InChI=1S/C12H13N5O6S2/c1-6-13-10(16-12(14-6)23-3)15-11(19)17-25(20,21)7-4-5-24-8(7)9(18)22-2/h4-5H,1-3H3,(H2,13,14,15,16,17,19)
Instrument: Bruker maXis Impact
Instrument type: LC-ESI-QTOF
Ms type: MS2
Ion mode: POSITIVE
Ionization: ESI
Fragmentation mode: CID
Collision energy: 20 eV
Resolution: 35000
Column name: Acclaim RSLC C18 2.2um, 2.1x100mm, Thermo
Retention time: 6.3 min
Base peak: 388.0382
Precursor m/z: 388.038
Precursor type: [M+H]+
m/z	relative intensity	assigned
141.0761	95	C4H13O5+
167.0553	999	C5H11O6+
168.0576	62	C5[13]CH11O6+
169.06	5	C4[13]C2H11O6+
204.9613	94	C4H3N3O3S2+
205.9655	9	C3[13]CH3N3O3S2+
206.9576	8	C4H3N3O3S[34]S+
221.9891	6	C6H8NO4S2+
222.972	11	C12HNO2S+
247.9667	8	C5H4N4O4S2+
388.0373	16	C12H14N5O6S2+
