Mass spectrum: Aniline Yellow; LC-ESI-QTOF; MS2; CE: 50 eV; R=35000; [M+H]+
Name: Aniline Yellow
Formula: C12H11N3
Exact mass: 197.0952974
SMILES: NC1=CC=C(C=C1)\N=N\C1=CC=CC=C1
InChI: InChI=1S/C12H11N3/c13-10-6-8-12(9-7-10)15-14-11-4-2-1-3-5-11/h1-9H,13H2/b15-14+
Instrument: Bruker maXis Impact
Instrument type: LC-ESI-QTOF
Ms type: MS2
Ion mode: POSITIVE
Ionization: ESI
Fragmentation mode: CID
Collision energy: 50 eV
Resolution: 35000
Column name: Acclaim RSLC C18 2.2um, 2.1x100mm, Thermo
Retention time: 9.277 min
Base peak: 198.1017
Precursor m/z: 198.1026
Precursor type: [M+H]+
m/z	relative intensity	assigned
128.0596	217	C10H8+
130.0516	226	C8H6N2+
150.0462	345	C12H6+
151.0531	214	C12H7+
152.0601	999	C12H8+
154.0635	200	C11H8N+
155.0599	280	C10H7N2+
156.0538	322	C9H6N3+
157.0628	354	C9H7N3+
167.0697	424	C12H9N+
169.0645	338	C10H7N3+
179.0607	235	C12H7N2+
181.0743	324	C12H9N2+
196.0848	270	C12H10N3+
