Mass spectrum: 1-Perfluoroheptyl ethanol (7:2 secondary) (7:2sFTOH); LC-ESI-QTOF; MS2; CE: 50 eV; R=35000; [M+HCOOH-H]-
Name: 1-Perfluoroheptyl ethanol (7:2 secondary) (7:2sFTOH)
Name: 3,3,4,4,5,5,6,6,7,7,8,8,9,9,9-pentadecafluorononan-2-ol
Formula: C9H5F15O
Exact mass: 414.0101
SMILES: CC(C(C(C(C(C(C(C(F)(F)F)(F)F)(F)F)(F)F)(F)F)(F)F)(F)F)O
InChI: InChI=1S/C9H5F15O/c1-2(25)3(10,11)4(12,13)5(14,15)6(16,17)7(18,19)8(20,21)9(22,23)24/h2,25H,1H3
Instrument: Bruker maXis Impact
Instrument type: LC-ESI-QTOF
Ms type: MS2
Ionization: ESI
Fragmentation mode: CID
Collision energy: 50 eV
Resolution: 35000
Column name: Acclaim RSLC C18 2.2um, 2.1x100mm, Thermo
Retention time: 10.591 min
Base peak: 393.9794
Precursor m/z: 459.0083
Precursor type: [M+HCOOH-H]-
m/z	relative intensity	assigned
168.9922	318	C5HF4O2-
342.9795	425	C8F13-
343.9833	378	C8HF13-
392.9761	648	C9F15-
393.9817	999	C9HF15-
