Mass spectrum: Triethyl phosphate; LC-ESI-QTOF; MS2; CE: 20 eV; R=35000; [M+H]+
Name: Triethyl phosphate
Name: triethyl phosphate
Formula: C6H15O4P
Exact mass: 182.0707956
SMILES: CCOP(=O)(OCC)OCC
InChI: InChI=1S/C6H15O4P/c1-4-8-11(7,9-5-2)10-6-3/h4-6H2,1-3H3
Instrument: Bruker maXis Impact
Instrument type: LC-ESI-QTOF
Ms type: MS2
Ion mode: POSITIVE
Ionization: ESI
Fragmentation mode: CID
Collision energy: 20 eV
Resolution: 35000
Column name: Acclaim RSLC C18 2.2um, 2.1x100mm, Thermo
Retention time: 6.054 min
Base peak: 183.0799
Precursor m/z: 183.0781
Precursor type: [M+H]+
m/z	relative intensity	assigned
127.0162	999	C2H8O4P+
128.0206	22	C[13]CH8O4P+
129.0197	11	C5H5O4+
155.048	248	C4H12O4P+
156.0516	9	C3[13]CH12O4P+
183.0793	20	C6H16O4P+
