Mass spectrum: 4-Formylaminoantipyrine; LC-ESI-QTOF; MS2; CE: 30 eV; R=35000; [M+H]+
Name: 4-Formylaminoantipyrine
Name: N-(1,5-dimethyl-3-oxo-2-phenylpyrazol-4-yl)formamide
Formula: C12H13N3O2
Exact mass: 231.1007767
SMILES: Cc1c(c(=O)n(n1C)c2ccccc2)/N=C/O
InChI: InChI=1S/C12H13N3O2/c1-9-11(13-8-16)12(17)15(14(9)2)10-6-4-3-5-7-10/h3-8H,1-2H3,(H,13,16)
Instrument: Bruker maXis Impact
Instrument type: LC-ESI-QTOF
Ms type: MS2
Ion mode: POSITIVE
Ionization: ESI
Fragmentation mode: CID
Collision energy: 30 eV
Resolution: 35000
Column name: Acclaim RSLC C18 2.2um, 2.1x100mm, Thermo
Retention time: 3.9 min
Base peak: 232.1075
Precursor m/z: 232.1081
Precursor type: [M+H]+
m/z	relative intensity	assigned
115.0544	34	C9H7+
117.0573	57	C8H7N+
118.0639	160	C8H8N+
119.0587	45	C7H7N2+
128.048	324	C9H6N+
129.0524	35	C4H7N3O2+
130.0638	386	C9H8N+
131.0596	68	C8H7N2+
131.069	52	C4H9N3O2+
132.043	143	C8H6NO+
132.0799	192	C9H10N+
133.0732	37	C5H11NO3+
139.0483	39	C6H7N2O2+
142.0647	67	C10H8N+
144.0675	45	C9H8N2+
144.0802	103	C10H10N+
145.0373	36	C8H5N2O+
145.0752	436	C9H9N2+
146.0589	999	C9H8NO+
146.0796	76	C4H10N4O2+
147.0882	45	C4H11N4O2+
155.0599	41	C10H7N2+
157.0752	96	C10H9N2+
158.058	166	C10H8NO+
158.0831	50	C10H10N2+
159.0554	102	C9H7N2O+
160.0895	138	C11H12O+
161.0936	33	C9H11N3+
169.0751	110	C11H9N2+
170.0694	50	C10H8N3+
171.053	86	C10H7N2O+
171.0734	41	C5H9N5O2+
171.0906	52	C11H11N2+
172.062	108	C10H8N2O+
172.085	61	C10H10N3+
172.0934	54	C6H12N4O2+
173.0698	237	C10H9N2O+
185.0694	145	C11H9N2O+
186.0746	41	C6H10N4O3+
186.1014	46	C11H12N3+
187.085	460	C11H11N2O+
188.0821	104	C10H10N3O+
189.0877	344	C10H11N3O+
190.0909	36	C5H12N5O3+
199.072	203	C11H9N3O+
200.074	39	C12H10NO2+
204.1118	375	C11H14N3O+
214.0971	696	C12H12N3O+
215.0998	78	C11[13]CH12N3O
232.107	59	C12H14N3O2+
