Mass spectrum: Perfluorotetradecanoic acid; LC-ESI-QTOF; MS2; CE: 30 eV; R=35000; [M-H]-
Name: Perfluorotetradecanoic acid
Name: Perfluoromyristic acid
Name: 2,2,3,3,4,4,5,5,6,6,7,7,8,8,9,9,10,10,11,11,12,12,13,13,14,14,14-heptacosafluorotetradecanoic acid
Formula: C14HF27O2
Exact mass: 713.9545412
SMILES: OC(=O)C(F)(F)C(F)(F)C(F)(F)C(F)(F)C(F)(F)C(F)(F)C(F)(F)C(F)(F)C(F)(F)C(F)(F)C(F)(F)C(F)(F)C(F)(F)F
InChI: InChI=1S/C14HF27O2/c15-2(16,1(42)43)3(17,18)4(19,20)5(21,22)6(23,24)7(25,26)8(27,28)9(29,30)10(31,32)11(33,34)12(35,36)13(37,38)14(39,40)41/h(H,42,43)
Instrument: Bruker maXis Impact
Instrument type: LC-ESI-QTOF
Ms type: MS2
Ion mode: NEGATIVE
Ionization: ESI
Fragmentation mode: CID
Collision energy: 30 eV
Resolution: 35000
Column name: Acclaim RSLC C18 2.2um, 2.1x100mm, Thermo
Retention time: 12.892 min
Base peak: 712.9474
Precursor m/z: 712.9473
Precursor type: [M-H]-
m/z	relative intensity	assigned
118.992	35	C2F5-
168.9897	999	C3F7-
169.995	28	C2[13]CF7-
196.9827	54	C4F7O-
218.9856	851	C4F9-
219.9886	37	C3[13]CF9-
268.9816	516	C10F7O-
269.987	35	C9[13]CF7O-
318.9785	465	C6F13-
319.9883	26	C5[13]CF13-
368.9749	358	C7F15-
369.9757	26	C6[13]CF15-
418.974	191	C8F17-
419.977	17	C7[13]CF17-
468.9674	79	C9F19-
518.9674	19	C10F21-
668.9595	91	C13F27-
669.9578	15	C12[13]CF27-
669.9712	13	C12[13]CF27-
