Mass spectrum: 4-Hydroxycoumarin; LC-ESI-QTOF; MS2; CE: Ramp 16.7-25.0 eV; R=35000; [M+H]+
Name: 4-Hydroxycoumarin
Name: 4-hydroxychromen-2-one
Formula: C9H6O3
Exact mass: 162.0316941
SMILES: OC1=CC(=O)OC2=CC=CC=C12
InChI: InChI=1S/C9H6O3/c10-7-5-9(11)12-8-4-2-1-3-6(7)8/h1-5,10H
Instrument: Bruker maXis Impact
Instrument type: LC-ESI-QTOF
Ms type: MS2
Ion mode: POSITIVE
Ionization: ESI
Fragmentation mode: CID
Collision energy: Ramp 16.7-25.0 eV
Resolution: 35000
Column name: Acclaim RSLC C18 2.2um, 2.1x100mm, Thermo
Retention time: 5.967 min
Base peak: 376.24
Precursor m/z: 163.039
Precursor type: [M+H]+
m/z	relative intensity	assigned
65.038	5	C5H5+
68.9968	22	C3HO2+
91.0545	14	C7H7+
95.0494	12	C6H7O+
119.0494	13	C8H7O+
121.028	401	C7H5O2+
122.0314	23	C6[13]CH5O2+
139.0388	12	C7H7O3+
163.0382	999	C9H7O3+
164.041	68	C8[13]CH7O3+
165.0446	6	C7[13]C2H7O3+
