Mass spectrum: Pyriproxyfen; LC-ESI-QTOF; MS2; CE: 30 eV; R=35000; [M+H]+
Name: Pyriproxyfen
Name: 2-[1-(4-phenoxyphenoxy)propan-2-yloxy]pyridine
Formula: C20H19NO3
Exact mass: 321.1364935
SMILES: CC(COC1=CC=C(OC2=CC=CC=C2)C=C1)OC1=CC=CC=N1
InChI: InChI=1S/C20H19NO3/c1-16(23-20-9-5-6-14-21-20)15-22-17-10-12-19(13-11-17)24-18-7-3-2-4-8-18/h2-14,16H,15H2,1H3
Instrument: Bruker maXis Impact
Instrument type: LC-ESI-QTOF
Ms type: MS2
Ion mode: POSITIVE
Ionization: ESI
Fragmentation mode: CID
Collision energy: 30 eV
Resolution: 35000
Column name: Acclaim RSLC C18 2.2um, 2.1x100mm, Thermo
Retention time: 12.623 min
Base peak: 322.1446
Precursor m/z: 322.1438
Precursor type: [M+H]+
m/z	relative intensity	assigned
115.0534	8	C9H7+
119.0487	114	C8H7O+
120.0514	9	C7[13]CH7O+
128.0611	25	C10H8+
129.0691	173	C10H9+
130.0724	16	C9[13]CH9+
133.0639	63	C9H9O+
134.0718	298	C9H10O+
135.0749	23	C8[13]CH10O+
136.0746	20	C8H10NO+
141.0688	37	C11H9+
142.0734	5	C10[13]CH9+
143.0842	5	C11H11+
153.0688	7	C12H9+
157.0636	47	C11H9O+
158.068	7	C10[13]CH9O+
166.0763	6	C13H10+
169.0634	6	C12H9O+
170.0711	22	C12H10O+
171.0786	19	C12H11O+
181.0633	13	C13H9O+
181.1001	5	C14H13+
185.0589	999	C12H9O2+
186.0627	133	C11[13]CH9O2+
187.0667	9	C10[13]C2H9O2+
194.0714	12	C14H10O+
198.0665	9	C13H10O2+
199.0743	64	C13H11O2+
199.1106	11	C14H15O+
200.0775	9	C12[13]CH11O2+
209.0951	13	C15H13O+
212.0817	5	C14H12O2+
227.1059	86	C15H15O2+
228.109	13	C14[13]CH15O2+
