Mass spectrum: Lopinavir; LC-ESI-QTOF; MS2; CE: 20 eV; R=35000; [M+H]+
Name: Lopinavir
Name: (2S)-N-[(2S,4S,5S)-5-[[2-(2,6-dimethylphenoxy)acetyl]amino]-4-hydroxy-1,6-diphenylhexan-2-yl]-3-methyl-2-(2-oxo-1,3-diazinan-1-yl)butanamide
Formula: C37H48N4O5
Exact mass: 628.3624706
SMILES: Cc1cccc(c1OCC(=O)N[C@@H](Cc2ccccc2)[C@H](C[C@H](Cc3ccccc3)NC(=O)[C@H](C(C)C)N4CCCNC4=O)O)C
InChI: InChI=1S/C37H48N4O5/c1-25(2)34(41-20-12-19-38-37(41)45)36(44)39-30(21-28-15-7-5-8-16-28)23-32(42)31(22-29-17-9-6-10-18-29)40-33(43)24-46-35-26(3)13-11-14-27(35)4/h5-11,13-18,25,30-32,34,42H,12,19-24H2,1-4H3,(H,38,45)(H,39,44)(H,40,43)/t30-,31-,32-,34-/m0/s1
Instrument: Bruker maXis Impact
Instrument type: LC-ESI-QTOF
Ms type: MS2
Ion mode: POSITIVE
Ionization: ESI
Fragmentation mode: CID
Collision energy: 20 eV
Resolution: 35000
Column name: Acclaim RSLC C18 2.2um, 2.1x100mm, Thermo
Retention time: 11.826 min
Base peak: 629.3696
Precursor m/z: 629.3697
Precursor type: [M+H]+
m/z	relative intensity	assigned
155.1171	138	C5H17NO4+
156.1199	10	C4[13]CH17NO4+
183.112	763	C6H17NO5+
184.1152	68	C5[13]CH17NO5+
429.2539	134	C28H33N2O2+
430.2564	35	C27[13]CH33N2O2+
447.2647	999	C28H35N2O3+
448.2678	273	C27[13]CH35N2O3+
449.2703	30	C26[13]C2H35N2O3+
611.3595	55	C37H47N4O4+
612.3629	22	C36[13]CH47N4O4+
629.3699	34	C37H49N4O5+
630.3734	16	C36[13]CH49N4O5+
