Mass spectrum: Bicalutamide; LC-ESI-QTOF; MS2; CE: 10 eV; R=35000; [M-H]-
Name: Bicalutamide
Name: N-[4-cyano-3-(trifluoromethyl)phenyl]-3-(4-fluorophenyl)sulfonyl-2-hydroxy-2-methylpropanamide
Formula: C18H14F4N2O4S
Exact mass: 430.0610408
SMILES: CC(O)(CS(=O)(=O)C1=CC=C(F)C=C1)C(=O)NC1=CC(=C(C=C1)C#N)C(F)(F)F
InChI: InChI=1S/C18H14F4N2O4S/c1-17(26,10-29(27,28)14-6-3-12(19)4-7-14)16(25)24-13-5-2-11(9-23)15(8-13)18(20,21)22/h2-8,26H,10H2,1H3,(H,24,25)
Instrument: Bruker maXis Impact
Instrument type: LC-ESI-QTOF
Ms type: MS2
Ion mode: NEGATIVE
Ionization: ESI
Fragmentation mode: CID
Collision energy: 10 eV
Resolution: 35000
Column name: Acclaim RSLC C18 2.2um, 2.1x100mm, Thermo
Retention time: 8.552 min
Base peak: 255.0398
Precursor m/z: 429.0538
Precursor type: [M-H]-
m/z	relative intensity	assigned
243.0139	23	C13H3F2NO2-
255.0396	999	C11H10FNO3S-
256.0416	108	C10[13]CH10FNO3S-
257.044	8	C9[13]C2H10FNO3S-
411.0412	10	C18H11F4N2O3S-
429.0535	676	C18H13F4N2O4S-
430.0563	97	C17[13]CH13F4N2O4S-
431.0524	29	C18H13F4N2O4[34]S-
