Mass spectrum: Bosentan; LC-ESI-QTOF; MS2; CE: 30 eV; R=35000; [M+H]+
Name: Bosentan
Name: 4-tert-butyl-N-[6-(2-hydroxyethoxy)-5-(2-methoxyphenoxy)-2-pyrimidin-2-ylpyrimidin-4-yl]benzenesulfonamide
Formula: C27H29N5O6S
Exact mass: 551.1838546
SMILES: COC1=CC=CC=C1OC1=C(NS(=O)(=O)C2=CC=C(C=C2)C(C)(C)C)N=C(N=C1OCCO)C1=NC=CC=N1
InChI: InChI=1S/C27H29N5O6S/c1-27(2,3)18-10-12-19(13-11-18)39(34,35)32-23-22(38-21-9-6-5-8-20(21)36-4)26(37-17-16-33)31-25(30-23)24-28-14-7-15-29-24/h5-15,33H,16-17H2,1-4H3,(H,30,31,32)
Instrument: Bruker maXis Impact
Instrument type: LC-ESI-QTOF
Ms type: MS2
Ion mode: POSITIVE
Ionization: ESI
Fragmentation mode: CID
Collision energy: 30 eV
Resolution: 35000
Column name: Acclaim RSLC C18 2.2um, 2.1x100mm, Thermo
Retention time: 9.940 min
Base peak: 293.1046
Precursor m/z: 552.1911
Precursor type: [M+H]+
m/z	relative intensity	assigned
123.043	11	C5H5N3O+
123.0656	5	C4H11O4+
135.0433	6	H11N2O4S+
149.0439	6	C5H9O5+
161.106	9	CH21O6S+
189.0631	5	C7H11NO5+
197.0619	15	C8H11N3OS+
202.0713	451	C8H12NO5+
203.0749	54	C7[13]CH12NO5+
204.0517	16	C8H6N5O2+
205.0595	5	C8H7N5O2+
241.0884	41	C10H15N3O2S+
242.0911	6	C9[13]CH15N3O2S+
246.0967	5	C10H16NO6+
280.0821	71	C13H14NO6+
281.085	13	C12[13]CH14NO6+
293.0898	6	C14H15NO6+
294.0983	8	C15H12N5O2+
310.0925	10	C15H12N5O3+
311.1005	347	C14H19N2O4S+
312.1039	71	C13[13]CH19N2O4S+
313.1071	6	C12[13]C2H19N2O4S+
324.1079	10	C16H14N5O3+
338.1243	8	C17H16N5O3+
355.1266	10	C23H19N2S+
400.1437	7	C19H22N5O3S+
508.1647	311	C25H26N5O5S+
509.1674	90	C24[13]CH26N5O5S+
510.165	26	C26H28N3O6S+
552.1912	999	C27H30N5O6S+
553.1939	278	C26[13]CH30N5O6S+
554.1923	71	C27H30N5O6[34]S+
