Mass spectrum: Oxolinic acid; LC-ESI-QTOF; MS2; CE: Ramp 20.2-30.4 eV; R=35000; [M+H]+
Name: Oxolinic acid
Name: 5-ethyl-8-oxo-[1,3]dioxolo[4,5-g]quinoline-7-carboxylic acid
Formula: C13H11NO5
Exact mass: 261.0637
SMILES: CCn1cc(c(=O)c2c1cc3c(c2)OCO3)C(=O)O
InChI: InChI=1S/C13H11NO5/c1-2-14-5-8(13(16)17)12(15)7-3-10-11(4-9(7)14)19-6-18-10/h3-5H,2,6H2,1H3,(H,16,17)
Instrument: Bruker maXis Impact
Instrument type: LC-ESI-QTOF
Ms type: MS2
Ion mode: POSITIVE
Ionization: ESI
Fragmentation mode: CID
Collision energy: Ramp 20.2-30.4 eV
Resolution: 35000
Column name: Acclaim RSLC C18 2.2um, 2.1x100mm, Thermo
Retention time: 6.1 min
Base peak: 262.0724
Precursor m/z: 262.071
Precursor type: [M+H]+
m/z	relative intensity	assigned
60.0554	9	C3H8O+
146.0596	6	C9H8NO+
148.0394	5	C8H6NO2+
158.0604	9	C10H8NO+
160.0396	6	C9H6NO2+
172.0384	5	C10H6NO2+
188.0347	8	C10H6NO3+
188.0697	6	C11H10NO2+
200.0705	9	C12H10NO2+
215.0215	7	C11H5NO4+
216.0302	20	C11H6NO4+
216.0673	21	C12H10NO3+
233.0337	6	C11H7NO5+
234.0413	50	C11H8NO5+
244.0616	157	C13H10NO4+
245.0645	23	C13H11NO4+
262.0725	999	C13H12NO5+
263.0765	160	C12H11N2O5+
264.0773	19	C12H12N2O5+
