Mass spectrum: Vinyltriethoxysilane; GC-APCI-QTOF; MS2; CE: 20 eV; R=35000; [M+H]+
Name: Vinyltriethoxysilane
Formula: C8H18O3Si
Exact mass: 190.1025
SMILES: CCO[Si](C=C)(OCC)OCC
InChI: InChI=1S/C8H18O3Si/c1-5-9-12(8-4,10-6-2)11-7-3/h8H,4-7H2,1-3H3
Instrument: Bruker 450 GC coupled to maXis Impact
Instrument type: GC-APCI-QTOF
Ms type: MS2
Ion mode: POSITIVE
Ionization: APCI
Fragmentation mode: CID
Collision energy: 20 eV
Resolution: 35000
Column name: Rxi-5Sil MS column, 30m, 0.25mm i.d., 0.25Âµm film thickness, Restek
Retention time: 6.810 min
Base peak: 163.0813
Precursor m/z: 191.1098
Precursor type: [M+H]+
m/z	relative intensity	assigned
62.99	43	H3O2Si+
80.9998	52	H5O3Si+
91.0198	173	C2H7O2Si+
96.9939	115	C4HO3+
107.0143	96	C6H3O2+
109.0273	56	C6H5O2+
117.0367	32	C4H9O2Si+
133.0679	52	C5H13O2Si+
135.0478	362	C4H11O3Si+
135.0635	31	C8H11Si+
136.0525	34	C8H8O2+
145.0701	125	C6H13O2Si+
163.0816	999	C6H15O3Si+
164.0854	154	C6H16O3Si+
