Mass spectrum: 4`-Aminoacetanilide; LC-ESI-QTOF; MS2; CE: 20 eV; R=35000; [M+H]+
Name: 4`-Aminoacetanilide
Name: N-(4-aminophenyl)acetamide
Formula: C8H10N2O
Exact mass: 150.0793129
SMILES: CC(=O)NC1=CC=C(N)C=C1
InChI: InChI=1S/C8H10N2O/c1-6(11)10-8-4-2-7(9)3-5-8/h2-5H,9H2,1H3,(H,10,11)
Instrument: Bruker maXis Impact
Instrument type: LC-ESI-QTOF
Ms type: MS2
Ion mode: POSITIVE
Ionization: ESI
Fragmentation mode: CID
Collision energy: 20 eV
Resolution: 35000
Column name: Acclaim RSLC C18 2.2um, 2.1x100mm, Thermo
Retention time: 2.323 min
Base peak: 151.0854
Precursor m/z: 151.0866
Precursor type: [M+H]+
m/z	relative intensity	assigned
108.0675	7	C6H8N2+
109.0761	38	C6H9N2+
133.0745	256	C8H9N2+
134.0588	7	C8H8NO+
134.0785	27	C7[13]CH9N2+
151.0849	999	C8H11N2O+
152.0877	98	C7[13]CH11N2O+
