Mass spectrum: Nitrendipin; LC-ESI-QTOF; MS2; CE: 40 eV; R=35000; [M+H]+
Name: Nitrendipin
Name: Nitrendipine
Name: 5-O-ethyl 3-O-methyl 2,6-dimethyl-4-(3-nitrophenyl)-1,4-dihydropyridine-3,5-dicarboxylate
Formula: C18H20N2O6
Exact mass: 360.1321364
SMILES: CCOC(=O)C1=C(C)NC(C)=C(C1C1=CC=CC(=C1)[N+]([O-])=O)C(=O)OC
InChI: InChI=1S/C18H20N2O6/c1-5-26-18(22)15-11(3)19-10(2)14(17(21)25-4)16(15)12-7-6-8-13(9-12)20(23)24/h6-9,16,19H,5H2,1-4H3
Instrument: Bruker maXis Impact
Instrument type: LC-ESI-QTOF
Ms type: MS2
Ion mode: POSITIVE
Ionization: ESI
Fragmentation mode: CID
Collision energy: 40 eV
Resolution: 35000
Column name: Acclaim RSLC C18 2.2um, 2.1x100mm, Thermo
Retention time: 9.792 min
Base peak: 361.1397
Precursor m/z: 361.1394
Precursor type: [M+H]+
m/z	relative intensity	assigned
118.04	7	C8H6O+
126.0545	8	C6H8NO2+
128.0604	11	C10H8+
129.0681	8	C10H9+
130.0394	6	C9H6O+
130.0651	5	C9H8N+
134.0596	26	C8H8NO+
135.0653	5	C5H11O4+
139.0533	12	C11H7+
140.0688	30	C4H12O5+
141.068	19	C11H9+
142.0436	5	C10H6O+
142.0643	5	C10H8N+
142.0758	5	C11H10+
143.0719	6	C10H9N+
145.0893	10	C10H11N+
146.034	6	C4H6N2O4+
147.041	5	C4H7N2O4+
148.0392	8	C8H6NO2+
150.0173	40	C7H4NO3+
150.0539	19	C8H8NO2+
151.0596	8	C5H11O5+
152.0613	20	C12H8+
153.0682	12	C12H9+
154.0399	13	C11H6O+
154.0633	17	C8H10O3+
154.0722	5	C4H12NO5+
155.0489	11	C11H7O+
155.0703	6	C8H11O3+
156.0551	6	C11H8O+
157.0393	6	C9H5N2O+
158.0948	7	C8H14O3+
164.0686	9	C6H12O5+
165.0751	18	C6H13O5+
166.0491	10	C8H8NO3+
166.0653	17	C12H8N+
166.0841	62	C6H14O5+
167.0486	8	C12H7O+
167.0716	34	C9H11O3+
168.0557	42	C12H8O+
168.0794	244	C12H10N+
169.0623	12	C7H9N2O3+
169.0836	31	C11[13]CH10N+
170.0598	10	C11H8NO+
170.0967	13	C12H12N+
171.0658	13	C8H11O4+
171.1026	59	C12H13N+
172.051	7	C11H8O2+
172.0725	6	C8H12O4+
172.1065	10	C11[13]CH13N+
173.0835	18	C11H11NO+
174.0529	21	C7H10O5+
174.0876	6	C8H14O4+
175.0592	9	C7H11O5+
176.0329	86	C9H6NO3+
177.0361	12	C8[13]CH6NO3+
178.0486	19	C9H8NO3+
179.0726	15	C13H9N+
180.0556	11	C13H8O+
180.0795	80	C13H10N+
181.0628	7	C13H9O+
181.0868	134	C10H13O3+
182.0946	181	C10H14O3+
183.0674	9	C12H9NO+
183.1027	184	C10H15O3+
184.0485	9	C7H8N2O4+
184.0738	33	C9H12O4+
184.1065	31	C9[13]CH15O3+
185.0811	10	C9H13O4+
185.1113	6	C5H17N2O5+
186.0541	34	C11H8NO2+
186.0896	8	C9H14O4+
187.0605	9	C8H11O5+
187.0965	6	C9H15O4+
188.0686	8	C8H12O5+
189.0659	20	C10H9N2O2+
192.0651	12	C10H10NO3+
193.0637	9	C14H9O+
193.0748	11	C13H9N2+
193.0875	14	C14H11N+
194.0587	12	C13H8NO+
194.074	7	C14H10O+
194.0958	20	C14H12N+
195.0653	11	C10H11O4+
195.0998	12	C11H15O3+
196.0508	9	C13H8O2+
196.0747	86	C13H10NO+
196.0949	6	C7H16O6+
196.112	14	C14H14N+
197.0466	9	C12H7NO2+
197.0812	54	C10H13O4+
197.1186	9	C14H15N+
198.0523	5	C9H10O5+
198.0901	81	C13H12NO+
199.0601	6	C9H11O5+
199.0966	30	C10H15O4+
200.0332	79	C8H8O6+
200.07	15	C12H10NO2+
201.0333	7	C7[13]CH8O6+
201.0768	7	C9H13O5+
202.084	8	C9H14O5+
203.0914	8	C9H15O5+
206.0601	5	C14H8NO+
207.0664	25	C11H11O4+
208.0749	167	C14H10NO+
209.0822	371	C14H11NO+
210.09	710	C14H12NO+
211.0968	341	C14H13NO+
212.0698	77	C13H10NO2+
212.0999	45	C13[13]CH13NO+
213.074	26	C10H13O5+
213.1026	5	C12[13]C2H13NO+
214.0494	27	C12H8NO3+
214.0852	47	C13H12NO2+
215.0551	7	C9H11O6+
215.0928	27	C13H13NO2+
216.0632	5	C9H12O6+
217.0606	102	C11H9N2O3+
218.0626	16	C10[13]CH9N2O3+
221.0697	18	C14H9N2O+
222.0555	10	C14H8NO2+
222.0792	7	C14H10N2O+
223.0607	13	C11H11O5+
223.0859	23	C14H11N2O+
224.069	32	C11H12O5+
224.1044	9	C12H16O4+
225.0777	73	C14H11NO2+
225.1143	9	C15H15NO+
226.0858	973	C14H12NO2+
227.0861	262	C18H11+
228.0658	16	C13H10NO3+
228.0889	54	C17[13]CH11+
229.0686	7	C10H13O6+
229.1062	23	C11H17O5+
230.0742	6	C17H10O+
231.09	9	C13H13NO3+
232.0594	10	C12H10NO4+
235.0627	25	C15H9NO2+
236.0695	181	C15H10NO2+
237.0753	119	C12H13O5+
238.0498	11	C14H8NO3+
238.0743	69	C14H10N2O2+
238.1059	13	C12H16NO4+
239.054	15	C11H11O6+
239.0816	86	C14H11N2O2+
240.0648	48	C14H10NO3+
240.1001	102	C12H16O5+
241.071	124	C11H13O6+
241.1061	44	C12H17O5+
242.0431	8	C13H8NO4+
242.0792	110	C11H14O6+
242.1107	6	C11[13]CH17O5+
243.0876	127	C14H13NO3+
244.0915	25	C13[13]CH13NO3+
245.0928	6	C13H13N2O3+
249.0645	23	C15H9N2O2+
249.0872	20	C17H13O2+
250.0718	5	C14[13]CH9N2O2+
250.0891	5	C16[13]CH13O2+
252.0656	17	C15H10NO3+
253.072	315	C12H13O6+
254.0804	999	C15H12NO3+
255.0866	774	C15H13NO3+
256.0626	10	C17H8N2O+
256.0915	176	C14[13]CH13NO3+
257.0662	23	C14H11NO4+
257.0929	67	C14H13N2O3+
258.0688	5	C13[13]CH11NO4+
258.0971	12	C13[13]CH13N2O3+
259.0823	15	C14H13NO4+
263.0985	5	C13H15N2O4+
266.0687	37	C15H10N2O3+
267.052	9	C15H9NO4+
267.0881	148	C16H13NO3+
268.0961	506	C16H14NO3+
269.0668	51	C15H11NO4+
269.1035	697	C16H15NO3+
270.0741	66	C15H12NO4+
270.1065	138	C15[13]CH15NO3+
271.0806	23	C15H13NO4+
271.1087	15	C14[13]C2H15NO3+
272.0517	8	C14H10NO5+
272.0788	19	C14H12N2O4+
273.0845	39	C14H13N2O4+
274.0927	5	C13[13]CH13N2O4+
281.0919	48	C16H13N2O3+
282.1112	37	C17H16NO3+
283.0711	318	C15H11N2O4+
283.1188	42	C14H19O6+
284.0776	226	C15H12N2O4+
284.1184	17	C16H16N2O3+
285.0627	171	C15H11NO5+
285.0953	37	C16H15NO4+
286.0652	32	C14[13]CH11NO5+
286.1039	9	C15[13]CH15NO4+
287.0782	239	C18H11N2O2+
288.0822	41	C17[13]CH11N2O2+
289.083	6	C16[13]C2H11N2O2+
297.0874	15	C16H13N2O4+
298.0944	141	C16H14N2O4+
299.078	102	C16H13NO5+
300.0819	27	C15[13]CH13NO5+
301.0854	420	C15H13N2O5+
302.0935	84	C15H14N2O5+
303.0884	9	C14[13]CH14N2O5+
312.1107	18	C17H16N2O4+
313.0843	21	C16H13N2O5+
314.0972	6	C17H16NO5+
315.0973	223	C16H15N2O5+
316.1004	49	C15[13]CH15N2O5+
317.091	20	C16H15NO6+
318.0896	5	C15[13]CH15NO6+
329.1127	78	C17H17N2O5+
330.1187	14	C16[13]CH17N2O5+
331.0927	25	C16H15N2O6+
