Mass spectrum: Sulfapyridine; LC-ESI-QTOF; MS2; CE: 20 eV; R=35000; [M+H]+
Name: Sulfapyridine
Name: 4-amino-N-pyridin-2-ylbenzenesulfonamide
Formula: C11H11N3O2S
Exact mass: 249.0571976
SMILES: NC1=CC=C(C=C1)S(=O)(=O)NC1=NC=CC=C1
InChI: InChI=1S/C11H11N3O2S/c12-9-4-6-10(7-5-9)17(15,16)14-11-3-1-2-8-13-11/h1-8H,12H2,(H,13,14)
Instrument: Bruker maXis Impact
Instrument type: LC-ESI-QTOF
Ms type: MS2
Ion mode: POSITIVE
Ionization: ESI
Fragmentation mode: CID
Collision energy: 20 eV
Resolution: 35000
Column name: Acclaim RSLC C18 2.2um, 2.1x100mm, Thermo
Retention time: 3.733 min
Base peak: 268.1539
Precursor m/z: 250.0645
Precursor type: [M+H]+
m/z	relative intensity	assigned
118.0644	22	H12N3O2S+
130.0639	12	CH12N3O2S+
132.043	11	C8H6NO+
134.0588	124	C8H8NO+
135.0618	12	C7[13]CH8NO+
144.0796	112	C10H10N+
145.0827	13	C9[13]CH10N+
146.0588	242	C9H8NO+
147.0616	21	C8[13]CH8NO+
154.0645	5	C3H12N3O2S+
156.0104	999	C6H6NO2S+
157.0078	81	C5H5N2O2S+
158.0064	39	C6H6NO2[34]S+
160.0742	17	C10H10NO+
172.0746	524	C11H10NO+
173.078	71	C10[13]CH10NO+
174.0807	6	C10H10N2O+
184.0859	462	C11H10N3+
185.0889	55	C10[13]CH10N3+
186.1007	14	C11H12N3+
250.0638	478	C11H12N3O2S+
251.0669	52	C10[13]CH12N3O2S+
252.0611	18	C11H12N3O2[34]S+
