Mass spectrum: Ethopabate; LC-ESI-QTOF; MS2; CE: 50 eV; R=35000; [M-H]-
Name: Ethopabate
Name: methyl 4-acetamido-2-ethoxybenzoate
Formula: C12H15NO4
Exact mass: 237.1001080
SMILES: CCOc1cc(ccc1C(=O)OC)NC(=O)C
InChI: InChI=1S/C12H15NO4/c1-4-17-11-7-9(13-8(2)14)5-6-10(11)12(15)16-3/h5-7H,4H2,1-3H3,(H,13,14)
Instrument: Bruker maXis Impact
Instrument type: LC-ESI-QTOF
Ms type: MS2
Ion mode: NEGATIVE
Ionization: ESI
Fragmentation mode: CID
Collision energy: 50 eV
Resolution: 35000
Column name: Acclaim RSLC C18 2.2um, 2.1x100mm, Thermo
Retention time: 6.310 min
Base peak: 236.0921
Precursor m/z: 236.0928
Precursor type: [M-H]-
m/z	relative intensity	assigned
120.0451	136	C7H6NO-
132.0083	917	C7H2NO2-
133.0145	222	C7H3NO2-
134.0241	727	C7H4NO2-
160.0031	174	C8H2NO3-
162.0185	397	C8H4NO3-
192.0297	999	C9H6NO4-
193.0332	100	C8[13]CH6NO4-
