Mass spectrum: Metribuzin; LC-ESI-QTOF; MS2; CE: 20 eV; R=35000; [M+H]+
Name: Metribuzin
Name: 4-amino-6-tert-butyl-3-methylsulfanyl-1,2,4-triazin-5-one
Formula: C8H14N4OS
Exact mass: 214.0888321
SMILES: CSC1=NN=C(C(=O)N1N)C(C)(C)C
InChI: InChI=1S/C8H14N4OS/c1-8(2,3)5-6(13)12(9)7(14-4)11-10-5/h9H2,1-4H3
Instrument: Bruker maXis Impact
Instrument type: LC-ESI-QTOF
Ms type: MS2
Ion mode: POSITIVE
Ionization: ESI
Fragmentation mode: CID
Collision energy: 20 eV
Resolution: 35000
Column name: Acclaim RSLC C18 2.2um, 2.1x100mm, Thermo
Retention time: 6.9 min
Base peak: 215.0956
Precursor m/z: 215.0961
Precursor type: [M+H]+
m/z	relative intensity	assigned
130.0678	7	C6H12NS+
131.0265	6	C4H7N2OS+
131.0376	15	C3H7N4S+
145.0532	42	C4H9N4S+
153.0763	5	C6H9N4O+
155.0628	6	C7H11N2S+
167.0918	8	C7H11N4O+
171.0575	18	C7H11N2OS+
183.0449	7	C7H9N3OS+
184.0528	19	C7H10N3OS+
186.0808	19	C8H14N2OS+
187.1006	381	C7H15N4S+
188.1026	29	C5H12N6O2+
189.0966	14	C7H15N4[34]S+
200.0724	10	C7H12N4OS+
215.0956	999	C8H15N4OS+
216.0983	79	C7[13]CH15N4OS+
217.0919	31	C6[13]C2H15N4OS+
