Mass spectrum: Pyriproxyfen; LC-ESI-QTOF; MS2; CE: 20 eV; R=35000; [M+H]+
Name: Pyriproxyfen
Name: 2-[1-(4-phenoxyphenoxy)propan-2-yloxy]pyridine
Formula: C20H19NO3
Exact mass: 321.1364935
SMILES: CC(COC1=CC=C(OC2=CC=CC=C2)C=C1)OC1=CC=CC=N1
InChI: InChI=1S/C20H19NO3/c1-16(23-20-9-5-6-14-21-20)15-22-17-10-12-19(13-11-17)24-18-7-3-2-4-8-18/h2-14,16H,15H2,1H3
Instrument: Bruker maXis Impact
Instrument type: LC-ESI-QTOF
Ms type: MS2
Ion mode: POSITIVE
Ionization: ESI
Fragmentation mode: CID
Collision energy: 20 eV
Resolution: 35000
Column name: Acclaim RSLC C18 2.2um, 2.1x100mm, Thermo
Retention time: 12.624 min
Base peak: 322.1452
Precursor m/z: 322.1438
Precursor type: [M+H]+
m/z	relative intensity	assigned
119.0486	26	C8H7O+
129.0689	17	C10H9+
133.0639	54	C9H9O+
134.0718	219	C9H10O+
135.075	17	C8[13]CH10O+
136.0747	41	C8H10NO+
157.0635	7	C11H9O+
170.0714	9	C12H10O+
171.0788	8	C12H11O+
181.0638	8	C13H9O+
181.0997	5	C14H13+
185.0589	547	C12H9O2+
186.0626	71	C11[13]CH9O2+
187.0666	5	C10[13]C2H9O2+
194.0711	5	C14H10O+
198.0664	5	C13H10O2+
199.0744	63	C13H11O2+
199.111	19	C14H15O+
200.0775	8	C12[13]CH11O2+
209.0954	24	C15H13O+
212.0821	5	C14H12O2+
227.1063	999	C15H15O2+
228.1096	128	C14[13]CH15O2+
229.1122	9	C13[13]C2H15O2+
322.1438	52	C20H20NO3+
323.1466	12	C19[13]CH20NO3+
