Mass spectrum: Michler`s ketone; LC-ESI-QTOF; MS2; CE: 10 eV; R=35000; [M+H]+
Name: Michler`s ketone
Name: bis[4-(dimethylamino)phenyl]methanone
Formula: C17H20N2O
Exact mass: 268.1575633
SMILES: CN(C)C1=CC=C(C=C1)C(=O)C1=CC=C(C=C1)N(C)C
InChI: InChI=1S/C17H20N2O/c1-18(2)15-9-5-13(6-10-15)17(20)14-7-11-16(12-8-14)19(3)4/h5-12H,1-4H3
Instrument: Bruker maXis Impact
Instrument type: LC-ESI-QTOF
Ms type: MS2
Ion mode: POSITIVE
Ionization: ESI
Fragmentation mode: CID
Collision energy: 10 eV
Resolution: 35000
Column name: Acclaim RSLC C18 2.2um, 2.1x100mm, Thermo
Retention time: 10.548 min
Base peak: 269.1655
Precursor m/z: 269.1648
Precursor type: [M+H]+
m/z	relative intensity	assigned
148.0748	39	C9H10NO+
269.1665	999	C17H21N2O+
271.1713	25	C15[13]C2H21N2O+
