Mass spectrum: 6-beta-Hydroxycortisol; LC-ESI-QTOF; MS2; CE: 20 eV; R=35000; [M+H]+
Name: 6-beta-Hydroxycortisol
Name: 6beta-Hydroxycortisol
Name: (6R,8S,9S,10R,11S,13S,14S,17R)-6,11,17-trihydroxy-17-(2-hydroxyacetyl)-10,13-dimethyl-2,6,7,8,9,11,12,14,15,16-decahydro-1H-cyclopenta[a]phenanthren-3-one
Formula: C21H30O6
Exact mass: 378.2042387
SMILES: C[C@]12C[C@H](O)[C@H]3[C@@H](C[C@@H](O)C4=CC(=O)CC[C@]34C)[C@@H]1CC[C@]2(O)C(=O)CO
InChI: InChI=1S/C21H30O6/c1-19-5-3-11(23)7-14(19)15(24)8-12-13-4-6-21(27,17(26)10-22)20(13,2)9-16(25)18(12)19/h7,12-13,15-16,18,22,24-25,27H,3-6,8-10H2,1-2H3/t12-,13-,15+,16-,18+,19-,20-,21-/m0/s1
Instrument: Bruker maXis Impact
Instrument type: LC-ESI-QTOF
Ms type: MS2
Ion mode: POSITIVE
Ionization: ESI
Fragmentation mode: CID
Collision energy: 20 eV
Resolution: 35000
Column name: Acclaim RSLC C18 2.2um, 2.1x100mm, Thermo
Retention time: 4.425 min
Base peak: 379.2104
Precursor m/z: 379.2115
Precursor type: [M+H]+
m/z	relative intensity	assigned
117.0692	22	C9H9+
121.0632	25	C8H9O+
123.0795	23	C8H11O+
131.0835	25	C10H11+
135.0779	26	C9H11O+
137.0583	36	C8H9O2+
139.073	43	C8H11O2+
143.0823	34	C11H11+
145.0996	77	C11H13+
147.0794	53	C10H11O+
147.1156	24	C11H15+
149.0948	45	C10H13O+
151.0748	30	C9H11O2+
155.0675	39	C8H11O3+
155.085	32	C12H11+
157.1008	25	C12H13+
159.0785	28	C11H11O+
161.095	72	C11H13O+
163.1079	22	C11H15O+
165.0894	27	C10H13O2+
169.0995	41	C13H13+
171.0773	49	C12H11O+
171.1153	42	C13H15+
173.0951	95	C12H13O+
175.111	39	C12H15O+
179.1038	35	C11H15O2+
181.099	28	C14H13+
183.1154	44	C14H15+
185.0945	45	C13H13O+
187.1107	71	C13H15O+
189.0903	30	C12H13O2+
191.1064	22	C12H15O2+
193.1191	24	C12H17O2+
195.118	30	C15H15+
197.0942	22	C14H13O+
197.1302	28	C15H17+
199.1107	56	C14H15O+
201.1252	29	C14H17O+
203.106	34	C13H15O2+
205.1209	38	C13H17O2+
207.1154	51	C16H15+
209.0911	23	C15H13O+
209.1293	66	C16H17+
210.1356	22	C15[13]CH17+
211.1117	69	C15H15O+
211.1485	37	C16H19+
213.1267	49	C15H17O+
215.1057	34	C14H15O2+
215.1425	26	C15H19O+
217.1213	62	C14H17O2+
219.114	25	C17H15+
221.1324	77	C17H17+
223.1136	35	C16H15O+
223.1456	57	C17H19+
224.1553	22	C17H20+
225.1267	69	C16H17O+
225.1709	22	C10H25O5+
226.129	23	C15[13]CH17O+
227.1417	61	C16H19O+
229.1228	40	C15H17O2+
231.1375	30	C15H19O2+
233.1163	33	C14H17O3+
235.1345	28	C14H19O3+
235.1457	42	C18H19+
236.151	24	C18H20+
237.1258	98	C17H17O+
237.1607	47	C18H21+
239.1426	271	C17H19O+
239.1777	41	C18H23+
240.1455	54	C16[13]CH19O+
241.1222	36	C16H17O2+
241.1588	97	C17H21O+
242.1609	25	C17H22O+
243.1377	51	C16H19O2+
245.1528	37	C16H21O2+
247.1474	104	C19H19+
248.1508	38	C19H20+
249.1271	80	C18H17O+
249.1625	53	C19H21+
251.1441	46	C18H19O+
253.1165	22	C17H17O2+
253.1564	46	C18H21O+
255.136	70	C17H19O2+
256.1791	26	C18H24O+
257.1519	125	C17H21O2+
259.1698	29	C17H23O2+
261.1608	53	C20H21+
263.1425	61	C19H19O+
264.1449	22	C18[13]CH19O+
265.1574	271	C19H21O+
266.1618	90	C19H22O+
267.1379	98	C18H19O2+
267.1732	328	C19H23O+
268.1384	23	C17[13]CH19O2+
268.1798	58	C18[13]CH23O+
269.1525	39	C18H21O2+
269.1906	35	C19H25O+
271.1314	36	C17H19O3+
271.1458	28	C21H19+
277.16	46	C20H21O+
279.1728	171	C20H23O+
280.1759	48	C19[13]CH23O+
281.1525	45	C19H21O2+
282.1603	41	C19H22O2+
283.1693	357	C19H23O2+
284.1734	151	C19H24O2+
285.1467	52	C18H21O3+
285.184	302	C19H25O2+
286.1887	56	C18[13]CH25O2+
289.1566	93	C21H21O+
290.1634	27	C20[13]CH21O+
295.1671	202	C20H23O2+
296.1698	31	C19[13]CH23O2+
297.1842	242	C20H25O2+
298.1877	57	C19[13]CH25O2+
299.164	35	C19H23O3+
301.1783	47	C19H25O3+
303.1942	31	C19H27O3+
307.1678	330	C21H23O2+
308.1737	98	C20[13]CH23O2+
313.1792	294	C20H25O3+
314.1843	102	C19[13]CH25O3+
315.1963	78	C20H27O3+
317.1711	33	C19H25O4+
325.1785	693	C21H25O3+
326.1836	161	C20[13]CH25O3+
331.1905	67	C20H27O4+
343.1891	662	C21H27O4+
344.1938	151	C20[13]CH27O4+
361.2006	299	C21H29O5+
362.2003	77	C20[13]CH29O5+
379.2097	999	C21H31O6+
380.2137	246	C20[13]CH31O6+
