Mass spectrum: Loratadine; LC-ESI-QTOF; MS2; CE: Ramp 23.3-34.9 eV; R=35000; [M+H]+
Name: Loratadine
Name: ethyl 4-(8-chloro-5,6-dihydrobenzo[1,2]cyclohepta[2,4-b]pyridin-11-ylidene)piperidine-1-carboxylate
Formula: C22H23ClN2O2
Exact mass: 382.1448057
SMILES: CCOC(=O)N1CCC(=C2c3ccc(cc3CCc4c2nccc4)Cl)CC1
InChI: InChI=1S/C22H23ClN2O2/c1-2-27-22(26)25-12-9-15(10-13-25)20-19-8-7-18(23)14-17(19)6-5-16-4-3-11-24-21(16)20/h3-4,7-8,11,14H,2,5-6,9-10,12-13H2,1H3
Instrument: Bruker maXis Impact
Instrument type: LC-ESI-QTOF
Ms type: MS2
Ion mode: POSITIVE
Ionization: ESI
Fragmentation mode: CID
Collision energy: Ramp 23.3-34.9 eV
Resolution: 35000
Column name: Acclaim RSLC C18 2.2um, 2.1x100mm, Thermo
Retention time: 11.718 min
Base peak: 383.1515
Precursor m/z: 383.1521
Precursor type: [M+H]+
m/z	relative intensity	assigned
228.0561	5	C17H8O+
229.0639	5	C17H9O+
258.127	15	C19H16N+
259.1348	98	C13H22ClNO2+
260.1379	17	C12[13]CH22ClNO2+
266.0721	10	C20H10O+
267.0803	109	C17H14ClN+
268.0838	19	C16[13]CH14ClN+
269.0773	25	C17H14[37]ClN+
279.0803	11	C21H11O+
280.0873	14	C21H12O+
281.0957	53	C18H16ClN+
282.103	55	C18H17ClN+
283.0625	5	C19H9NO2+
283.0943	12	C18H16[37]ClN+
284.1006	14	C18H17[37]ClN+
292.0877	5	C22H12O+
294.1039	101	C19H17ClN+
295.1067	17	C18[13]CH17ClN+
296.101	23	C19H17[37]ClN+
302.1406	11	C20H18N2O+
311.1297	8	C22H17NO+
322.0853	9	C22H12NO2+
337.11	999	C20H18ClN2O+
338.1132	206	C19[13]CH18ClN2O+
339.1073	291	C20H18[37]ClN2O+
340.1098	27	C20H19ClNO2+
341.1594	5	C21H24ClNO+
355.12	11	C20H20ClN2O2+
383.1517	518	C22H24ClN2O2+
384.155	103	C21[13]CH24ClN2O2+
385.1492	123	C22H24[37]ClN2O2+
