Mass spectrum: Methadone; LC-ESI-QTOF; MS2; CE: 50 eV; R=35000; [M+H]+
Name: Methadone
Name: 6-(dimethylamino)-4,4-diphenylheptan-3-one
Formula: C21H27NO
Exact mass: 309.2092645
SMILES: CCC(=O)C(CC(C)N(C)C)(C1=CC=CC=C1)C1=CC=CC=C1
InChI: InChI=1S/C21H27NO/c1-5-20(23)21(16-17(2)22(3)4,18-12-8-6-9-13-18)19-14-10-7-11-15-19/h6-15,17H,5,16H2,1-4H3
Instrument: Bruker maXis Impact
Instrument type: LC-ESI-QTOF
Ms type: MS2
Ion mode: POSITIVE
Ionization: ESI
Fragmentation mode: CID
Collision energy: 50 eV
Resolution: 35000
Column name: Acclaim RSLC C18 2.2um, 2.1x100mm, Thermo
Retention time: 8.0 min
Base peak: 310.2165
Precursor m/z: 310.2165
Precursor type: [M+H]+
m/z	relative intensity	assigned
115.0538	292	C9H7+
116.059	29	C4H8N2O2+
117.0692	367	C9H9+
118.0724	28	C4H10N2O2+
126.0443	6	C10H6+
127.0538	36	C10H7+
129.0687	288	C10H9+
130.0744	41	C5H10N2O2+
131.0481	31	C9H7O+
131.0848	63	C10H11+
132.0547	9	C9H8O+
132.0879	10	C5H12N2O2+
135.0795	7	C9H11O+
141.069	140	C11H9+
142.0747	23	C10[13]CH9+
143.0472	13	C10H7O+
143.0845	32	C11H11+
144.0558	14	C10H8O+
144.0902	7	C11H12+
145.0634	136	C10H9O+
145.0999	11	C11H13+
147.0796	17	C10H11O+
151.052	7	C12H7+
153.0674	42	C12H9+
154.0766	45	C12H10+
155.0592	71	C10H7N2+
155.0833	13	C12H11+
157.0634	17	C11H9O+
158.071	40	C11H10O+
159.0791	31	C11H11O+
159.1174	21	C12H15+
167.0844	483	C13H11+
168.0878	66	C8H12N2O2+
169.0994	15	C13H13+
172.0867	8	C12H12O+
177.0693	11	C14H9+
179.0838	106	C14H11+
180.0911	34	C14H12+
181.0989	26	C14H13+
182.1071	7	C14H14+
189.0697	38	C15H9+
190.0765	84	C15H10+
192.0906	55	C15H12+
193.1001	29	C15H13+
194.0717	447	C14H10O+
195.0766	74	C13[13]CH10O+
195.1165	39	C15H15+
196.0825	10	C12H10N3+
196.1184	7	C10H16N2O2+
204.0924	999	C16H12+
205.0974	249	C15[13]CH12+
206.1042	31	C11H14N2O2+
207.0822	11	C15H11O+
207.1151	10	C16H15+
208.0876	22	C15H12O+
209.0941	21	C15H13O+
215.0838	33	C17H11+
216.0931	23	C17H12+
219.1137	142	C17H15+
220.1187	22	C12H16N2O2+
221.0958	62	C16H13O+
222.0991	12	C16H14O+
223.1109	11	C16H15O+
224.1171	8	C16H16O+
231.1163	7	C18H15+
232.1235	31	C18H16+
233.1288	8	C18H17+
235.1116	18	C17H15O+
236.1183	22	C17H16O+
237.1218	6	C15H15N3+
