Mass spectrum: Ethyl benzoate; GC-APCI-QTOF; MS2; CE: 10 eV; R=35000; [M+H]+
Name: Ethyl benzoate
Formula: C9H10O2
Exact mass: 150.0681
SMILES: CCOC(=O)C1=CC=CC=C1
InChI: InChI=1S/C9H10O2/c1-2-11-9(10)8-6-4-3-5-7-8/h3-7H,2H2,1H3
Instrument: Bruker 450 GC coupled to maXis Impact
Instrument type: GC-APCI-QTOF
Ms type: MS2
Ion mode: POSITIVE
Ionization: APCI
Fragmentation mode: CID
Collision energy: 10 eV
Resolution: 35000
Column name: Rxi-5Sil MS column, 30m, 0.25mm i.d., 0.25Âµm film thickness, Restek
Retention time: 9.294 min
Base peak: 151.0776
Precursor m/z: 151.0754
Precursor type: [M+H]+
m/z	relative intensity	assigned
79.054	6	C6H7+
122.036	57	C7H6O2+
123.0435	999	C7H7O2+
131.05	21	C9H7O+
135.0445	8	C8H7O2+
149.0626	74	C9H9O2+
150.0697	31	C9H10O2+
151.0783	93	C9H11O2+
