Mass spectrum: 7-(Ethylamino)-4-methylcoumarin; LC-ESI-QTOF; MS2; CE: 40 eV; R=35000; [M+H]+
Name: 7-(Ethylamino)-4-methylcoumarin
Name: 2H-1-Benzopyran-2-one, 7-(ethylamino)-4-methyl-
Name: 7-(ethylamino)-4-methylchromen-2-one
Formula: C12H13NO2
Exact mass: 203.0946287
SMILES: CCNC1=CC=C2C(C)=CC(=O)OC2=C1
InChI: InChI=1S/C12H13NO2/c1-3-13-9-4-5-10-8(2)6-12(14)15-11(10)7-9/h4-7,13H,3H2,1-2H3
Instrument: Bruker maXis Impact
Instrument type: LC-ESI-QTOF
Ms type: MS2
Ion mode: POSITIVE
Ionization: ESI
Fragmentation mode: CID
Collision energy: 40 eV
Resolution: 35000
Column name: Acclaim RSLC C18 2.2um, 2.1x100mm, Thermo
Retention time: 7.691 min
Base peak: 391.229
Precursor m/z: 204.1019
Precursor type: [M+H]+
m/z	relative intensity	assigned
115.0537	97	C9H7+
117.0569	119	C8H7N+
118.0636	327	C8H8N+
119.0711	273	C8H9N+
120.0795	177	C8H10N+
130.0642	288	C9H8N+
131.0698	108	C9H9N+
132.0788	418	C9H10N+
133.0858	151	C9H11N+
144.0813	243	C10H10N+
146.0588	999	C9H8NO+
146.0957	144	C10H12N+
147.063	148	C8[13]CH8NO+
148.0519	299	C9H8O2+
148.1109	346	C10H14N+
160.0508	211	C10H8O2+
160.0761	129	C10H10NO+
161.0834	102	C10H11NO+
175.0628	147	C10H9NO2+
188.0683	105	C11H10NO2+
