Mass spectrum: D617; LC-ESI-QTOF; MS2; CE: 50 eV; R=35000; [M+H]+
Name: D617
Name: 2-(3,4-dimethoxyphenyl)-5-(methylamino)-2-propan-2-ylpentanenitrile
Formula: C17H26N2O2
Exact mass: 290.1994281
SMILES: CNCCCC(C#N)(C(C)C)C1=CC(OC)=C(OC)C=C1
InChI: InChI=1S/C17H26N2O2/c1-13(2)17(12-18,9-6-10-19-3)14-7-8-15(20-4)16(11-14)21-5/h7-8,11,13,19H,6,9-10H2,1-5H3
Instrument: Bruker maXis Impact
Instrument type: LC-ESI-QTOF
Ms type: MS2
Ion mode: POSITIVE
Ionization: ESI
Fragmentation mode: CID
Collision energy: 50 eV
Resolution: 35000
Column name: Acclaim RSLC C18 2.2um, 2.1x100mm, Thermo
Retention time: 6.1 min
Base peak: 291.2066
Precursor m/z: 291.2067
Precursor type: [M+H]+
m/z	relative intensity	assigned
107.0471	6	C7H7O+
115.0536	98	C9H7+
116.0517	10	C8H6N+
116.0604	19	C9H8+
117.0566	15	C8H7N+
117.0686	44	C9H9+
118.0404	23	C8H6O+
118.0639	16	C8H8N+
119.0482	55	C8H7O+
119.0842	13	C9H11+
120.0543	27	C6H6N3+
120.0795	8	C8H10N+
121.0638	147	C8H9O+
122.035	30	C7H6O2+
122.0699	18	C3H10N2O3+
122.0961	7	C8H12N+
123.0428	103	C7H7O2+
123.0783	7	C8H11O+
124.0511	75	C7H8O2+
126.1266	5	C8H16N+
127.0532	11	C10H7+
128.0484	29	C9H6N+
128.0611	44	C10H8+
129.0555	8	C9H7N+
129.0687	47	C10H9+
130.0401	19	C9H6O+
130.0637	29	C9H8N+
131.0718	23	C9H9N+
131.0855	14	C10H11+
132.0438	31	C8H6NO+
132.0536	44	C4H8N2O3+
132.0802	31	C9H10N+
133.0264	10	C8H5O2+
133.0515	26	C8H7NO+
133.0641	126	C9H9O+
134.0364	7	C8H6O2+
134.0718	126	C9H10O+
135.0792	45	C9H11O+
138.0663	146	C8H10O2+
139.0729	44	C8H11O2+
140.0487	7	C10H6N+
141.0686	20	C11H9+
142.0639	32	C10H8N+
143.0479	11	C10H7O+
143.0715	32	C10H9N+
143.0843	14	C11H11+
144.0556	91	C10H8O+
144.0796	92	C10H10N+
145.0848	17	C5H11N3O2+
146.059	270	C9H8NO+
146.0951	39	C10H12N+
147.043	39	C9H7O2+
147.0641	36	C4H9N3O3+
147.078	112	C10H11O+
147.1006	8	C5H13N3O2+
148.0374	8	C8H6NO2+
148.0497	16	C9H8O2+
148.0844	25	C5H12N2O3+
149.0581	93	C9H9O2+
149.0947	33	C10H13O+
151.0743	999	C9H11O2+
152.0614	16	C12H8+
153.0675	15	C7H9N2O2+
153.0782	8	C8H11NO2+
154.0632	16	C11H8N+
154.0762	11	C12H10+
155.0591	26	C10H7N2+
155.0733	9	C11H9N+
156.0433	42	C10H6NO+
156.0794	48	C11H10N+
157.05	5	C10H7NO+
157.0633	23	C11H9O+
157.0862	28	C11H11N+
157.102	5	C12H13+
158.0706	27	C11H10O+
158.0953	19	C11H12N+
159.0425	6	C10H7O2+
159.0668	114	C10H9NO+
159.0789	89	C11H11O+
160.0393	19	C9H6NO2+
160.0491	12	C10H8O2+
160.0744	179	C10H10NO+
160.0866	124	C11H12O+
161.0589	92	C10H9O2+
161.0788	20	C5H11N3O3+
161.0941	75	C11H13O+
162.0666	49	C10H10O2+
162.0885	6	C10H12NO+
162.097	10	C6H14N2O3+
162.1148	8	C10H14N2+
163.0738	31	C10H11O2+
164.0822	54	C10H12O2+
165.0687	16	C13H9+
165.0898	240	C10H13O2+
166.0781	8	C13H10+
167.0851	7	C13H11+
168.0825	5	C12H10N+
169.0501	5	C11H7NO+
169.0629	7	C12H9O+
170.0583	29	C11H8NO+
170.0702	10	C12H10O+
170.0958	9	C12H12N+
171.0671	28	C11H9NO+
171.0793	21	C12H11O+
171.1024	17	C12H13N+
173.0586	5	C11H9O2+
173.0812	62	C11H11NO+
174.0528	53	C10H8NO2+
174.0905	211	C11H12NO+
175.0608	32	C10H9NO2+
175.0725	34	C11H11O2+
175.0939	36	C6H13N3O3+
175.1129	5	C12H15O+
176.0697	57	C10H10NO2+
176.0815	49	C11H12O2+
176.1058	12	C11H14NO+
177.0717	9	C14H9+
177.09	150	C11H13O2+
178.0947	22	C9H12N3O+
179.0866	5	C14H11+
179.1049	13	C11H15O2+
181.0644	9	C13H9O+
182.0718	13	C13H10O+
182.0959	6	C13H12N+
183.1018	6	C13H13N+
184.0761	27	C12H10NO+
184.1123	6	C13H14N+
185.0581	6	C12H9O2+
185.0831	22	C12H11NO+
185.0941	16	C13H13O+
186.0554	6	C11H8NO2+
186.0905	86	C12H12NO+
187.0615	22	C11H9NO2+
187.0976	67	C12H13NO+
188.1034	21	C12H14NO+
189.0763	42	C11H11NO2+
189.0887	23	C12H13O2+
190.085	30	C11H12NO2+
190.1078	20	C11H14N2O+
191.1061	25	C12H15O2+
192.1149	24	C12H16O2+
196.0861	9	C14H12O+
197.0956	22	C14H13O+
198.0674	5	C13H10O2+
198.0909	18	C13H12NO+
199.0752	6	C13H11O2+
199.0989	39	C13H13NO+
200.069	20	C12H10NO2+
200.1054	26	C13H14NO+
201.0782	13	C12H11NO2+
201.0912	9	C13H13O2+
201.1141	11	C13H15NO+
202.1214	22	C13H16NO+
203.093	76	C12H13NO2+
203.1164	21	C12H15N2O+
204.1003	58	C12H14NO2+
205.1053	14	C16H13+
205.1315	19	C12H17N2O+
206.1156	5	C12H16NO2+
206.138	5	C12H18N2O+
212.1071	9	C14H14NO+
213.09	7	C14H13O2+
214.0836	12	C13H12NO2+
214.1221	68	C14H16NO+
215.0922	12	C13H13NO2+
215.1241	16	C9H17N3O3+
216.1014	26	C13H14NO2+
217.1038	10	C17H13+
218.1183	8	C13H16NO2+
229.1075	7	C14H15NO2+
230.1162	21	C14H16NO2+
231.1108	31	C13H15N2O2+
232.1188	15	C13H16N2O2+
233.128	90	C13H17N2O2+
234.1324	11	C13H18N2O2+
244.1322	26	C15H18NO2+
245.1374	6	C15H19NO2+
247.1444	29	C14H19N2O2+
