Mass spectrum: Dimethachlor; LC-ESI-QTOF; MS2; CE: 30 eV; R=35000; [M+H]+
Name: Dimethachlor
Name: 2-chloro-N-(2,6-dimethylphenyl)-N-(2-methoxyethyl)acetamide
Formula: C13H18ClNO2
Exact mass: 255.1026065
SMILES: COCCN(C(=O)CCl)C1=C(C)C=CC=C1C
InChI: InChI=1S/C13H18ClNO2/c1-10-5-4-6-11(2)13(10)15(7-8-17-3)12(16)9-14/h4-6H,7-9H2,1-3H3
Instrument: Bruker maXis Impact
Instrument type: LC-ESI-QTOF
Ms type: MS2
Ion mode: POSITIVE
Ionization: ESI
Fragmentation mode: CID
Collision energy: 30 eV
Resolution: 35000
Column name: Acclaim RSLC C18 2.2um, 2.1x100mm, Thermo
Retention time: 8.5 min
Base peak: 256.1095
Precursor m/z: 256.1099
Precursor type: [M+H]+
m/z	relative intensity	assigned
121.0637	5	C8H9O+
144.0801	5	C10H10N+
148.1112	999	C10H14N+
149.1142	64	C9[13]CH14N+
174.0901	11	C11H12NO+
224.0837	497	C12H15ClNO+
225.0866	52	C11[13]CH15ClNO+
226.0807	129	C12H15[37]ClNO+
