Mass spectrum: trans-3-Hydroxycotinine; LC-ESI-QTOF; MS2; CE: 10 eV; R=35000; [M+H]+
Name: trans-3-Hydroxycotinine
Name: Hydroxycotinine
Name: (3R,5S)-3-hydroxy-1-methyl-5-pyridin-3-ylpyrrolidin-2-one
Formula: C10H12N2O2
Exact mass: 192.0898776
SMILES: CN1[C@@H](C[C@H](C1=O)O)c2cccnc2
InChI: InChI=1S/C10H12N2O2/c1-12-8(5-9(13)10(12)14)7-3-2-4-11-6-7/h2-4,6,8-9,13H,5H2,1H3/t8-,9+/m0/s1
Instrument: Bruker maXis Impact
Instrument type: LC-ESI-QTOF
Ms type: MS2
Ion mode: POSITIVE
Ionization: ESI
Fragmentation mode: CID
Collision energy: 10 eV
Resolution: 35000
Column name: Acclaim RSLC C18 2.2um, 2.1x100mm, Thermo
Retention time: 2.904 min
Base peak: 193.0961
Precursor m/z: 193.0972
Precursor type: [M+H]+
m/z	relative intensity	assigned
134.0588	13	C8H8NO+
193.0964	999	C10H13N2O2+
194.0994	90	C9[13]CH13N2O2+
195.1011	7	C8[13]C2H13N2O2+
