Mass spectrum: Sulfanilamide; LC-ESI-QTOF; MS2; CE: Ramp 17.0-25.5 eV; R=35000; [M+H]+
Name: Sulfanilamide
Name: 4-aminobenzenesulfonamide
Formula: C6H8N2O2S
Exact mass: 172.0306
SMILES: c1cc(ccc1N)S(=O)(=O)N
InChI: InChI=1S/C6H8N2O2S/c7-5-1-3-6(4-2-5)11(8,9)10/h1-4H,7H2,(H2,8,9,10)
Instrument: Bruker maXis Impact
Instrument type: LC-ESI-QTOF
Ms type: MS2
Ion mode: POSITIVE
Ionization: ESI
Fragmentation mode: CID
Collision energy: Ramp 17.0-25.5 eV
Resolution: 35000
Column name: Acclaim RSLC C18 2.2um, 2.1x100mm, Thermo
Retention time: 2.3 min
Base peak: 60.0552
Precursor m/z: 173.0379
Precursor type: [M+H]+
m/z	relative intensity	assigned
65.0381	174	C5H5+
108.0472	183	C6H6NO+
125.0479	261	C6H7NO2+
156.0125	469	C6H6NO2S+
173.0383	999	C6H9N2O2S+
