Mass spectrum: Mycophenolic acid; LC-ESI-QTOF; MS2; CE: 40 eV; R=35000; [M+H]+
Name: Mycophenolic acid
Name: (E)-6-(4-hydroxy-6-methoxy-7-methyl-3-oxo-1H-2-benzofuran-5-yl)-4-methylhex-4-enoic acid
Formula: C17H20O6
Exact mass: 320.1259884
SMILES: COC1=C(C)C2=C(C(=O)OC2)C(O)=C1C\C=C(/C)CCC(O)=O
InChI: InChI=1S/C17H20O6/c1-9(5-7-13(18)19)4-6-11-15(20)14-12(8-23-17(14)21)10(2)16(11)22-3/h4,20H,5-8H2,1-3H3,(H,18,19)/b9-4+
Instrument: Bruker maXis Impact
Instrument type: LC-ESI-QTOF
Ms type: MS2
Ion mode: POSITIVE
Ionization: ESI
Fragmentation mode: CID
Collision energy: 40 eV
Resolution: 35000
Column name: Acclaim RSLC C18 2.2um, 2.1x100mm, Thermo
Retention time: 8.802 min
Base peak: 306.0809
Precursor m/z: 321.1333
Precursor type: [M+H]+
m/z	relative intensity	assigned
131.0486	63	C9H7O+
135.0796	36	C9H11O+
149.059	31	C9H9O2+
159.0422	999	C10H7O2+
160.0458	129	C9[13]CH7O2+
175.0745	25	C11H11O2+
177.0528	979	C10H9O3+
178.0569	112	C9[13]CH9O3+
179.0687	96	C10H11O3+
193.0479	18	C10H9O4+
195.0629	63	C10H11O4+
207.0639	983	C11H11O4+
208.0681	117	C10[13]CH11O4+
215.1051	24	C14H15O2+
270.0903	13	C16H14O4+
