Mass spectrum: 2`,3`-di-O-acetyl-5`-deoxy-5-fluorocytidin; LC-ESI-QTOF; MS2; CE: 50 eV; R=35000; [M+H]+
Name: 2`,3`-di-O-acetyl-5`-deoxy-5-fluorocytidin
Name: 2`,3`-Di-O-acetyl-5`-deoxy-5-fluoro-D-cytidine
Name: [4-acetyloxy-5-(4-amino-5-fluoro-2-oxopyrimidin-1-yl)-2-methyloxolan-3-yl] acetate
Formula: C13H16FN3O6
Exact mass: 329.1023135
SMILES: CC1OC(C(OC(C)=O)C1OC(C)=O)N1C=C(F)C(N)=NC1=O
InChI: InChI=1S/C13H16FN3O6/c1-5-9(22-6(2)18)10(23-7(3)19)12(21-5)17-4-8(14)11(15)16-13(17)20/h4-5,9-10,12H,1-3H3,(H2,15,16,20)
Instrument: Bruker maXis Impact
Instrument type: LC-ESI-QTOF
Ms type: MS2
Ion mode: POSITIVE
Ionization: ESI
Fragmentation mode: CID
Collision energy: 50 eV
Resolution: 35000
Column name: Acclaim RSLC C18 2.2um, 2.1x100mm, Thermo
Retention time: 4.8 min
Base peak: 264.1958
Precursor m/z: 330.1096
Precursor type: [M+H]+
m/z	relative intensity	assigned
130.0397	999	C7H4N3+
