Mass spectrum: Bupropion; LC-ESI-QTOF; MS2; CE: 50 eV; R=35000; [M+H]+
Name: Bupropion
Name: 2-(tert-butylamino)-1-(3-chlorophenyl)propan-1-one
Formula: C13H18ClNO
Exact mass: 239.1076919
SMILES: CC(NC(C)(C)C)C(=O)C1=CC(Cl)=CC=C1
InChI: InChI=1S/C13H18ClNO/c1-9(15-13(2,3)4)12(16)10-6-5-7-11(14)8-10/h5-9,15H,1-4H3
Instrument: Bruker maXis Impact
Instrument type: LC-ESI-QTOF
Ms type: MS2
Ion mode: POSITIVE
Ionization: ESI
Fragmentation mode: CID
Collision energy: 50 eV
Resolution: 35000
Column name: Acclaim RSLC C18 2.2um, 2.1x100mm, Thermo
Retention time: 5.573 min
Base peak: 240.115
Precursor m/z: 240.115
Precursor type: [M+H]+
m/z	relative intensity	assigned
128.0486	5	C9H6N+
130.0644	999	C9H8N+
131.0714	238	C9H9N+
132.0748	17	C8[13]CH9N+
138.9935	6	C7H4ClO+
139.0299	19	C8H8Cl+
141.0268	6	C8H8[37]Cl+
151.0172	29	C8H6ClN+
153.0144	8	C8H6[37]ClN+
