Mass spectrum: Telmisartan; LC-ESI-QTOF; MS2; CE: 50 eV; R=35000; [M+H]+
Name: Telmisartan
Name: 2-[4-[[4-methyl-6-(1-methylbenzimidazol-2-yl)-2-propylbenzimidazol-1-yl]methyl]phenyl]benzoic acid
Formula: C33H30N4O2
Exact mass: 514.2368762
SMILES: CCCc1nc2c(cc(cc2n1Cc3ccc(cc3)c4ccccc4C(=O)O)c5nc6ccccc6n5C)C
InChI: InChI=1S/C33H30N4O2/c1-4-9-30-35-31-21(2)18-24(32-34-27-12-7-8-13-28(27)36(32)3)19-29(31)37(30)20-22-14-16-23(17-15-22)25-10-5-6-11-26(25)33(38)39/h5-8,10-19H,4,9,20H2,1-3H3,(H,38,39)
Instrument: Bruker maXis Impact
Instrument type: LC-ESI-QTOF
Ms type: MS2
Ion mode: POSITIVE
Ionization: ESI
Fragmentation mode: CID
Collision energy: 50 eV
Resolution: 35000
Column name: Acclaim RSLC C18 2.2um, 2.1x100mm, Thermo
Retention time: 10.532 min
Base peak: 515.2488
Precursor m/z: 515.2442
Precursor type: [M+H]+
m/z	relative intensity	assigned
165.0706	5	C13H9+
193.0661	89	C14H9O+
194.0693	12	C13[13]CH9O+
211.0768	108	C14H11O2+
212.0799	13	C13[13]CH11O2+
261.115	9	C18H15NO+
262.1221	7	C18H16NO+
275.1308	20	C19H17NO+
276.1393	999	C19H18NO+
277.1422	147	C18[13]CH18NO+
278.145	7	C17[13]C2H18NO+
289.1471	147	C20H19NO+
290.15	23	C19[13]CH19NO+
303.1627	77	C21H21NO+
304.1666	14	C20[13]CH21NO+
305.1785	95	C21H23NO+
306.1812	17	C20[13]CH23NO+
317.1784	48	C22H23NO+
318.1814	9	C21[13]CH23NO+
455.1888	5	C32H25NO2+
467.1908	21	C33H25NO2+
468.1946	11	C32[13]CH25NO2+
485.2014	11	C31H25N4O2+
486.2056	5	C30[13]CH25N4O2+
497.2384	904	C33H29N4O+
498.2412	357	C33H30N4O+
499.2438	42	C32[13]CH30N4O+
515.2488	261	C33H31N4O2+
516.2521	89	C32[13]CH31N4O2+
517.2545	12	C31[13]C2H31N4O2+
