Mass spectrum: Midazolam; LC-ESI-QTOF; MS2; CE: 30 eV; R=35000; [M+H]+
Name: Midazolam
Name: 8-chloro-6-(2-fluorophenyl)-1-methyl-4H-imidazo[1,5-a][1,4]benzodiazepine
Formula: C18H13ClFN3
Exact mass: 325.0782033
SMILES: CC1=NC=C2N1C3=C(C=C(C=C3)Cl)C(=NC2)C4=CC=CC=C4F
InChI: InChI=1S/C18H13ClFN3/c1-11-21-9-13-10-22-18(14-4-2-3-5-16(14)20)15-8-12(19)6-7-17(15)23(11)13/h2-9H,10H2,1H3
Instrument: Bruker maXis Impact
Instrument type: LC-ESI-QTOF
Ms type: MS2
Ion mode: POSITIVE
Ionization: ESI
Fragmentation mode: CID
Collision energy: 30 eV
Resolution: 35000
Column name: Acclaim RSLC C18 2.2um, 2.1x100mm, Thermo
Retention time: 8.637 min
Base peak: 326.0886
Precursor m/z: 326.0855
Precursor type: [M+H]+
m/z	relative intensity	assigned
189.0834	5	C11H10FN2+
205.054	7	C11H10ClN2+
208.0568	7	C14H7FN+
209.0651	35	C14H8FN+
223.0803	11	C15H10FN+
230.0494	11	C12H9ClN3+
244.0345	147	C14H8ClFN+
246.0315	36	C14H8[37]ClFN+
249.0843	50	C16H10FN2+
250.0916	34	C16H11FN2+
258.05	21	C15H10ClFN+
260.0473	6	C15H10[37]ClFN+
265.054	6	C16H10ClN2+
270.1041	5	C18H12N3+
284.0532	5	C16H10ClFN2+
285.0613	76	C16H11ClFN2+
286.0643	11	C15[13]CH11ClFN2+
287.0585	23	C16H11[37]ClFN2+
290.1115	116	C18H13FN3+
291.1192	836	C18H14FN3+
292.1223	92	C17[13]CH14FN3+
293.1247	6	C16[13]C2H14FN3+
299.0766	7	C17H13ClFN2+
306.0812	7	C18H13ClN3+
309.0616	25	C18H11ClFN2+
311.061	9	C18H11[37]ClFN2+
325.08	8	C18H13ClFN3+
326.0888	999	C18H14ClFN3+
327.0917	149	C17[13]CH14ClFN3+
328.0858	240	C18H14[37]ClFN3+
