Mass spectrum: Propamocarb; LC-ESI-QTOF; MS2; CE: 20 eV; R=35000; [M+H]+
Name: Propamocarb
Name: propyl N-[3-(dimethylamino)propyl]carbamate
Formula: C9H20N2O2
Exact mass: 188.1524779
SMILES: CCCOC(=O)NCCCN(C)C
InChI: InChI=1S/C9H20N2O2/c1-4-8-13-9(12)10-6-5-7-11(2)3/h4-8H2,1-3H3,(H,10,12)
Instrument: Bruker maXis Impact
Instrument type: LC-ESI-QTOF
Ms type: MS2
Ion mode: POSITIVE
Ionization: ESI
Fragmentation mode: CID
Collision energy: 20 eV
Resolution: 35000
Column name: Acclaim RSLC C18 2.2um, 2.1x100mm, Thermo
Retention time: 3.327 min
Base peak: 189.1589
Precursor m/z: 189.1598
Precursor type: [M+H]+
m/z	relative intensity	assigned
129.1013	81	C6H13N2O+
130.1044	5	C5[13]CH13N2O+
144.1008	901	C7H14NO2+
145.1036	77	C6[13]CH14NO2+
147.1114	91	C6H15N2O2+
189.1586	999	C9H21N2O2+
190.1617	99	C8[13]CH21N2O2+
