Mass spectrum: Tiamulin; LC-ESI-QTOF; MS2; CE: 50 eV; R=35000; [M+H]+
Name: Tiamulin
Formula: C28H47NO4S
Exact mass: 493.3225800
SMILES: CCN(CC)CCSCC(=O)O[C@@H]1C[C@@]([C@H]([C@@H]([C@@]23CC[C@H]([C@@]1([C@@H]2C(=O)CC3)C)C)C)O)(C)C=C
InChI: InChI=1S/C28H47NO4S/c1-8-26(6)17-22(33-23(31)18-34-16-15-29(9-2)10-3)27(7)19(4)11-13-28(20(5)25(26)32)14-12-21(30)24(27)28/h8,19-20,22,24-25,32H,1,9-18H2,2-7H3/t19-,20+,22-,24+,25+,26-,27+,28+/m1/s1
Instrument: Bruker maXis Impact
Instrument type: LC-ESI-QTOF
Ms type: MS2
Ion mode: POSITIVE
Ionization: ESI
Fragmentation mode: CID
Collision energy: 50 eV
Resolution: 35000
Column name: Acclaim RSLC C18 2.2um, 2.1x100mm, Thermo
Retention time: 7.916 min
Base peak: 494.3347
Precursor m/z: 494.3299
Precursor type: [M+H]+
m/z	relative intensity	assigned
115.0552	8	C9H7+
117.0707	14	C9H9+
119.0172	521	C4H7O2S+
119.0866	92	C9H11+
120.0201	27	C3[13]CH7O2S+
120.0898	11	C8[13]CH11+
121.0128	22	C4H7O2[34]S+
121.0656	17	C8H9O+
121.1021	75	C9H13+
122.1055	8	C8[13]CH13+
123.0812	25	C8H11O+
123.1179	14	C9H15+
125.0975	14	C8H13O+
128.0625	9	C10H8+
129.0704	16	C10H9+
130.0779	6	C10H10+
131.0864	59	C10H11+
132.0895	7	C9[13]CH11+
133.1023	168	C10H13+
134.1054	14	C9[13]CH13+
135.0812	44	C9H11O+
135.1178	43	C10H15+
136.1223	5	C9[13]CH15+
137.0969	24	C9H13O+
137.1337	11	C10H17+
141.0706	8	C11H9+
142.0791	9	C11H10+
143.0864	41	C11H11+
144.093	8	C11H12+
145.0663	5	C10H9O+
145.1022	102	C11H13+
146.1061	11	C10[13]CH13+
147.0813	27	C10H11O+
147.1178	112	C11H15+
148.1214	13	C10[13]CH15+
149.0973	114	C10H13O+
149.1338	34	C11H17+
150.1011	14	C9[13]CH13O+
151.1128	12	C10H15O+
155.0863	21	C12H11+
156.0938	14	C12H12+
157.1021	57	C12H13+
158.1078	12	C11[13]CH13+
159.0817	7	C11H11O+
159.118	112	C12H15+
160.1218	16	C11[13]CH15+
161.097	43	C11H13O+
161.1335	73	C12H17+
162.1016	6	C10[13]CH13O+
162.1382	11	C11[13]CH17+
163.1132	278	C11H15O+
163.1496	17	C12H19+
164.1167	35	C10[13]CH15O+
165.1281	22	C11H17O+
169.1022	37	C13H13+
170.1099	12	C13H14+
171.1177	60	C13H15+
172.1229	9	C12[13]CH15+
173.097	15	C12H13O+
173.1339	77	C13H17+
174.1372	11	C12[13]CH17+
175.1128	68	C12H15O+
175.1492	67	C13H19+
176.1169	11	C11[13]CH15O+
176.1531	8	C12[13]CH19+
177.1288	78	C12H17O+
177.1646	8	C13H21+
178.1323	11	C11[13]CH17O+
179.1448	9	C9H23OS+
182.1101	8	C14H14+
183.1179	33	C14H15+
184.123	7	C13[13]CH15+
185.134	54	C14H17+
186.1386	9	C13[13]CH17+
187.1136	17	C10H19OS+
187.1495	61	C14H19+
188.1536	10	C13[13]CH19+
189.1287	36	C13H17O+
189.1653	15	C14H21+
190.1333	5	C12[13]CH17O+
191.1444	27	C13H19O+
192.1073	999	C8H18NO2S+
193.1102	78	C7[13]CH18NO2S+
193.1606	6	C10H25OS+
194.103	31	C8H18NO2[34]S+
196.1261	8	C15H16+
197.1339	36	C15H17+
198.1402	11	C15H18+
199.1493	30	C15H19+
200.1552	7	C14[13]CH19+
201.1289	15	C14H17O+
201.1656	34	C12H25S+
202.168	6	C11[13]CH25S+
203.1445	35	C14H19O+
203.1814	10	C12H27S+
205.1606	13	C11H25OS+
211.15	33	C13H23S+
212.1564	11	C16H20+
213.1651	18	C16H21+
215.1451	24	C12H23OS+
215.1814	13	C13H27S+
217.1605	11	C12H25OS+
221.1546	11	C14H21O2+
225.165	17	C17H21+
226.1707	6	C17H22+
227.181	26	C17H23+
228.1849	7	C16[13]CH23+
229.161	18	C13H25OS+
229.1976	18	C14H29S+
230.1676	6	C16H22O+
239.1814	8	C15H27S+
241.198	8	C15H29S+
245.1939	12	C14H29OS+
257.2265	7	C19H29+
267.2129	18	C17H31S+
285.2242	13	C17H33OS+
