Mass spectrum: Atenolol-desisopropyl; LC-ESI-QTOF; MS2; CE: 50 eV; R=35000; [M+H]+
Name: Atenolol-desisopropyl
Name: 4-(3-AMINO-2-HYDROXYPROPOXY)PHENYLACETAMIDE
Name: 2-[4-(3-amino-2-hydroxypropoxy)phenyl]acetamide
Formula: C11H16N2O3
Exact mass: 224.1160924
SMILES: NCC(O)COC1=CC=C(CC(N)=O)C=C1
InChI: InChI=1S/C11H16N2O3/c12-6-9(14)7-16-10-3-1-8(2-4-10)5-11(13)15/h1-4,9,14H,5-7,12H2,(H2,13,15)
Instrument: Bruker maXis Impact
Instrument type: LC-ESI-QTOF
Ms type: MS2
Ion mode: POSITIVE
Ionization: ESI
Fragmentation mode: CID
Collision energy: 50 eV
Resolution: 35000
Column name: Acclaim RSLC C18 2.2um, 2.1x100mm, Thermo
Retention time: 2.0 min
Base peak: 225.1227
Precursor m/z: 225.1234
Precursor type: [M+H]+
m/z	relative intensity	assigned
115.0539	999	C9H7+
133.0645	451	C9H9O+
145.0632	688	C10H9O+
