Mass spectrum: Indoxacarb; LC-ESI-QTOF; MS2; CE: 40 eV; R=35000; [M+H]+
Name: Indoxacarb
Name: methyl (4aS)-7-chloro-2-[methoxycarbonyl-[4-(trifluoromethoxy)phenyl]carbamoyl]-3,5-dihydroindeno[1,2-e][1,3,4]oxadiazine-4a-carboxylate
Formula: C22H17ClF3N3O7
Exact mass: 527.0707122
SMILES: COC(=O)N(C(=O)N1CO[C@]2(CC3=CC(Cl)=CC=C3C2=N1)C(=O)OC)C1=CC=C(OC(F)(F)F)C=C1
InChI: InChI=1S/C22H17ClF3N3O7/c1-33-18(30)21-10-12-9-13(23)3-8-16(12)17(21)27-28(11-35-21)19(31)29(20(32)34-2)14-4-6-15(7-5-14)36-22(24,25)26/h3-9H,10-11H2,1-2H3/t21-/m0/s1
Instrument: Bruker maXis Impact
Instrument type: LC-ESI-QTOF
Ms type: MS2
Ion mode: POSITIVE
Ionization: ESI
Fragmentation mode: CID
Collision energy: 40 eV
Resolution: 35000
Column name: Acclaim RSLC C18 2.2um, 2.1x100mm, Thermo
Retention time: 11.563 min
Base peak: 306.1035
Precursor m/z: 528.078
Precursor type: [M+H]+
m/z	relative intensity	assigned
122.9992	8	C5FN2O+
127.0405	7	ClFH11NO3+
128.061	13	CH14ClFO3+
132.0434	29	C2H9FO5+
134.0226	15	CH7FO6+
137.0144	6	C6H2FN2O+
142.0645	6	CH12F2O5+
149.0142	15	C7H2FN2O+
150.0093	256	C5H7ClO3+
151.0127	19	C4[13]CH7ClO3+
152.0063	67	C5H7[37]ClO3+
155.0592	24	CH13ClFN2O3+
160.0493	43	C8H7F3+
162.0095	75	C9H5ClN+
163.013	8	C8[13]CH5ClN+
163.0305	21	C4H10ClF2O2+
164.0064	27	C9H5[37]ClN+
164.0245	15	C3H10ClFO4+
165.0308	10	C4H10[37]ClF2O2+
166.0226	5	C3H10[37]ClFO4+
167.0245	22	C7H6ClN3+
168.0199	149	C8H7ClNO+
169.0232	20	C7[13]CH7ClNO+
170.0168	45	C8H7[37]ClNO+
176.024	10	C2H6F2N2O5+
177.0085	10	C11HN2O+
177.0323	19	C4H11ClFO4+
178.0405	8	C4H12ClFO4+
179.0251	36	C8H6ClN3+
180.0197	30	ClF2H11O6+
181.0223	13	C8H6[37]ClN3+
182.0178	9	H11[37]ClF2O6+
189.0202	70	C13H3NO+
190.0044	244	C10H5ClNO+
190.0253	13	C12[13]CH3NO+
190.0467	68	C11H6F2N+
191.0117	29	C9[13]CH5ClNO+
191.0357	5	C4H11ClFNO4+
191.0505	5	C10[13]CH6F2N+
192.0013	70	C10H5[37]ClNO+
192.0187	8	C2H6F2N2O6+
194.036	5	C8H5FN3O2+
195.0195	63	C10H8ClO2+
196.0229	9	C9[13]CH8ClO2+
197.0175	15	C10H8[37]ClO2+
199.0497	5	C8H11ClF3+
203.0181	999	C8H5F2O4+
204.0212	77	C7[13]CH5F2O4+
205.0159	7	C8H5F2O3[18]O+
206.0043	11	C10H4ClFN2+
207.02	51	C9H6ClN3O+
208.0164	29	C4H10ClFO6+
209.0175	16	C9H6[37]ClN3O+
210.0117	10	C4H10[37]ClFO6+
214.0724	13	C3H16ClFN2O5+
215.0423	11	C8H9NO6+
216.0261	6	C9H7ClF2N2+
217.0155	100	C5H9ClFNO5+
218.0415	495	C9H9ClF2N2+
219.0124	30	C5H9[37]ClFNO5+
219.0313	105	C11H8ClN2O+
220.0345	13	C10[13]CH8ClN2O+
221.0285	29	C11H8[37]ClN2O+
222.0301	5	C5H12ClFO6+
223.0143	51	C11H8ClO3+
224.02	8	C10[13]CH8ClO3+
225.0121	18	C11H8[37]ClO3+
225.0291	7	C9H9ClF3O+
230.9946	25	C8H6ClNO5+
232.9903	8	C8H6[37]ClNO5+
235.0257	5	C5H11ClFNO6+
249.0417	33	C6H13ClFNO6+
251.039	15	C6H13[37]ClFNO6+
263.0212	29	C10H7ClF3N2O+
265.0173	11	C10H7[37]ClF3N2O+
390.0247	5	C21H5F3N2O3+
