Mass spectrum: Triethyl phosphate; LC-ESI-QTOF; MS2; CE: 40 eV; R=35000; [M+Na]+
Name: Triethyl phosphate
Formula: C6H15O4P
Exact mass: 182.0707956
SMILES: CCOP(=O)(OCC)OCC
InChI: InChI=1S/C6H15O4P/c1-4-8-11(7,9-5-2)10-6-3/h4-6H2,1-3H3
Instrument: Bruker maXis Impact
Instrument type: LC-ESI-QTOF
Ms type: MS2
Ion mode: POSITIVE
Ionization: ESI
Fragmentation mode: CID
Collision energy: 40 eV
Resolution: 35000
Column name: Acclaim RSLC C18 2.2um, 2.1x100mm, Thermo
Retention time: 11.724 min
Base peak: 279.1616
Precursor m/z: 205.06
Precursor type: [M+Na]+
m/z	relative intensity	assigned
149.023	999	C6H6NaO3+
