Mass spectrum: Tramadol N-Oxide; LC-ESI-QTOF; MS2; CE: 10 eV; R=35000; [M+H]+
Name: Tramadol N-Oxide
Name: 1-[2-hydroxy-2-(3-methoxyphenyl)cyclohexyl]-N,N-dimethylmethanamine oxide
Formula: C16H25NO3
Exact mass: 279.1834437
SMILES: COC1=CC=CC(=C1)C1(O)CCCCC1C[N+](C)(C)[O-]
InChI: InChI=1S/C16H25NO3/c1-17(2,19)12-14-7-4-5-10-16(14,18)13-8-6-9-15(11-13)20-3/h6,8-9,11,14,18H,4-5,7,10,12H2,1-3H3
Instrument: Bruker maXis Impact
Instrument type: LC-ESI-QTOF
Ms type: MS2
Ion mode: POSITIVE
Ionization: ESI
Fragmentation mode: CID
Collision energy: 10 eV
Resolution: 35000
Column name: Acclaim RSLC C18 2.2um, 2.1x100mm, Thermo
Retention time: 5.1 min
Base peak: 280.1908
Precursor m/z: 280.1907
Precursor type: [M+H]+
m/z	relative intensity	assigned
135.043	5	C8H7O2+
201.1268	7	C14H17O+
262.1797	105	C16H24NO2+
263.1832	17	C15[13]CH24NO2+
280.191	999	C16H26NO3+
281.1941	159	C15[13]CH26NO3+
282.1962	13	C14[13]C2H26NO3+
