Mass spectrum: Linuron; LC-ESI-QTOF; MS2; CE: 10 eV; R=35000; [M+H]+
Name: Linuron
Name: 3-(3,4-dichlorophenyl)-1-methoxy-1-methylurea
Formula: C9H10Cl2N2O2
Exact mass: 248.0119329
SMILES: CON(C)C(=O)NC1=CC=C(Cl)C(Cl)=C1
InChI: InChI=1S/C9H10Cl2N2O2/c1-13(15-2)9(14)12-6-3-4-7(10)8(11)5-6/h3-5H,1-2H3,(H,12,14)
Instrument: Bruker maXis Impact
Instrument type: LC-ESI-QTOF
Ms type: MS2
Ion mode: POSITIVE
Ionization: ESI
Fragmentation mode: CID
Collision energy: 10 eV
Resolution: 35000
Column name: Acclaim RSLC C18 2.2um, 2.1x100mm, Thermo
Retention time: 9.341 min
Base peak: 249.0187
Precursor m/z: 249.0192
Precursor type: [M+H]+
m/z	relative intensity	assigned
159.9702	106	C6H4Cl2N+
160.9757	9	C5[13]CH4Cl2N+
161.9673	60	C6H4Cl[37]ClN+
162.9729	5	C6H5Cl2O+
182.0231	141	C8H7ClN2O+
183.0263	9	C7[13]CH7ClN2O+
184.0202	30	C8H7[37]ClN2O+
216.9922	5	C8H7Cl2N2O+
217.9995	11	C8H8Cl2N2O+
219.9965	6	C8H8Cl[37]ClN2O+
249.0188	999	C9H11Cl2N2O2+
250.0217	72	C8[13]CH11Cl2N2O2+
251.016	555	C9H11Cl[37]ClN2O2+
