Mass spectrum: Methyl n-octanoate; GC-APCI-QTOF; MS2; CE: 30 eV; R=35000; [M+H]+
Name: Methyl n-octanoate
Formula: C9H18O2
Exact mass: 158.1307
SMILES: CCCCCCCC(=O)OC
InChI: InChI=1S/C9H18O2/c1-3-4-5-6-7-8-9(10)11-2/h3-8H2,1-2H3
Instrument: Bruker 450 GC coupled to maXis Impact
Instrument type: GC-APCI-QTOF
Ms type: MS2
Ion mode: POSITIVE
Ionization: APCI
Fragmentation mode: CID
Collision energy: 30 eV
Resolution: 35000
Column name: Rxi-5Sil MS column, 30m, 0.25mm i.d., 0.25Âµm film thickness, Restek
Retention time: 8.704 min
Base peak: 159.1399
Precursor m/z: 159.138
Precursor type: [M+H]+
m/z	relative intensity	assigned
55.0549	999	C4H7+
