Mass spectrum: Ondansetron; LC-ESI-QTOF; MS2; CE: 30 eV; R=35000; [M+H]+
Name: Ondansetron
Name: 9-methyl-3-[(2-methylimidazol-1-yl)methyl]-2,3-dihydro-1H-carbazol-4-one
Formula: C18H19N3O
Exact mass: 293.1528122
SMILES: CN1C2=C(C3=CC=CC=C13)C(=O)C(CN1C=CN=C1C)CC2
InChI: InChI=1S/C18H19N3O/c1-12-19-9-10-21(12)11-13-7-8-16-17(18(13)22)14-5-3-4-6-15(14)20(16)2/h3-6,9-10,13H,7-8,11H2,1-2H3
Instrument: Bruker maXis Impact
Instrument type: LC-ESI-QTOF
Ms type: MS2
Ion mode: POSITIVE
Ionization: ESI
Fragmentation mode: CID
Collision energy: 30 eV
Resolution: 35000
Column name: Acclaim RSLC C18 2.2um, 2.1x100mm, Thermo
Retention time: 4.923 min
Base peak: 294.1602
Precursor m/z: 294.1601
Precursor type: [M+H]+
m/z	relative intensity	assigned
143.0717	7	C10H9N+
167.0712	12	C12H9N+
168.079	13	C12H10N+
169.0871	31	C12H11N+
170.0954	999	C12H12N+
171.0665	14	C11H9NO+
171.0986	126	C11[13]CH12N+
182.095	37	C13H12N+
183.0997	6	C12[13]CH12N+
184.111	714	C13H14N+
185.1143	91	C12[13]CH14N+
212.1061	196	C14H14NO+
213.1091	27	C13[13]CH14NO+
294.1592	105	C18H20N3O+
295.1625	23	C17[13]CH20N3O+
