Mass spectrum: Metobromuron; LC-ESI-QTOF; MS2; CE: 30 eV; R=35000; [M+H]+
Name: Metobromuron
Name: 3-(4-bromophenyl)-1-methoxy-1-methylurea
Formula: C9H11BrN2O2
Exact mass: 258.0003897
SMILES: CON(C)C(=O)NC1=CC=C(Br)C=C1
InChI: InChI=1S/C9H11BrN2O2/c1-12(14-2)9(13)11-8-5-3-7(10)4-6-8/h3-6H,1-2H3,(H,11,13)
Instrument: Bruker maXis Impact
Instrument type: LC-ESI-QTOF
Ms type: MS2
Ion mode: POSITIVE
Ionization: ESI
Fragmentation mode: CID
Collision energy: 30 eV
Resolution: 35000
Column name: Acclaim RSLC C18 2.2um, 2.1x100mm, Thermo
Retention time: 8.157 min
Base peak: 214.1121
Precursor m/z: 259.0077
Precursor type: [M+H]+
m/z	relative intensity	assigned
119.0596	157	C7H7N2+
120.0641	12	C6[13]CH7N2+
131.0591	12	C8H7N2+
142.9479	84	C5H4Br+
143.9515	6	C4[13]CH4Br+
144.946	73	C5H4[81]Br+
147.0542	123	C8H7N2O+
148.0621	384	C8H8N2O+
149.0652	27	C7[13]CH8N2O+
169.959	999	C6H5BrN+
170.9665	469	C6H6BrN+
171.9569	673	C6H5[81]BrN+
172.9647	357	C6H6[81]BrN+
173.9677	12	C6H7BrO+
184.9817	5	C7H8BrN+
186.98	5	C7H8[81]BrN+
197.9528	5	C7H5BrNO+
226.9807	66	C8H8BrN2O+
227.9856	6	C7[13]CH8BrN2O+
228.9786	53	C8H8[81]BrN2O+
259.0086	6	C9H12BrN2O2+
261.0039	6	C9H12[81]BrN2O2+
