Mass spectrum: Cyproconazole; LC-ESI-QTOF; MS2; CE: 20 eV; R=35000; [M+H]+
Name: Cyproconazole
Name: 2-(4-chlorophenyl)-3-cyclopropyl-1-(1,2,4-triazol-1-yl)butan-2-ol
Formula: C15H18ClN3O
Exact mass: 291.1138399
SMILES: CC(C1CC1)C(O)(CN1C=NC=N1)C1=CC=C(Cl)C=C1
InChI: InChI=1S/C15H18ClN3O/c1-11(12-2-3-12)15(20,8-19-10-17-9-18-19)13-4-6-14(16)7-5-13/h4-7,9-12,20H,2-3,8H2,1H3
Instrument: Bruker maXis Impact
Instrument type: LC-ESI-QTOF
Ms type: MS2
Ion mode: POSITIVE
Ionization: ESI
Fragmentation mode: CID
Collision energy: 20 eV
Resolution: 35000
Column name: Acclaim RSLC C18 2.2um, 2.1x100mm, Thermo
Retention time: 9.714 min
Base peak: 292.1207
Precursor m/z: 292.1211
Precursor type: [M+H]+
m/z	relative intensity	assigned
125.0143	570	C7H6Cl+
126.0178	44	C6[13]CH6Cl+
127.011	164	C7H6[37]Cl+
128.0153	9	C5H5ClN2+
138.9931	59	C7H4ClO+
139.0294	12	C9H3N2+
139.9987	7	C6[13]CH4ClO+
140.9913	18	C7H4[37]ClO+
155.024	8	C9H3N2O+
163.0312	7	C10H8Cl+
165.0465	20	C10H10Cl+
167.0414	10	C10H10[37]Cl+
171.1362	11	C8H17N3O+
177.0436	8	C12H5N2+
291.1167	13	C15H18ClN3O+
292.1209	999	C15H19ClN3O+
293.1239	189	C14[13]CH19ClN3O+
294.118	269	C15H19[37]ClN3O+
