Mass spectrum: Thifensulfuron-methyl; LC-ESI-QTOF; MS2; CE: 30 eV; R=35000; [M+H]+
Name: Thifensulfuron-methyl
Name: methyl 3-[(4-methoxy-6-methyl-1,3,5-triazin-2-yl)carbamoylsulfamoyl]thiophene-2-carboxylate
Formula: C12H13N5O6S2
Exact mass: 387.0307251
SMILES: COC(=O)C1=C(C=CS1)S(=O)(=O)NC(=O)NC1=NC(C)=NC(OC)=N1
InChI: InChI=1S/C12H13N5O6S2/c1-6-13-10(16-12(14-6)23-3)15-11(19)17-25(20,21)7-4-5-24-8(7)9(18)22-2/h4-5H,1-3H3,(H2,13,14,15,16,17,19)
Instrument: Bruker maXis Impact
Instrument type: LC-ESI-QTOF
Ms type: MS2
Ion mode: POSITIVE
Ionization: ESI
Fragmentation mode: CID
Collision energy: 30 eV
Resolution: 35000
Column name: Acclaim RSLC C18 2.2um, 2.1x100mm, Thermo
Retention time: 6.3 min
Base peak: 388.0377
Precursor m/z: 388.038
Precursor type: [M+H]+
m/z	relative intensity	assigned
125.9761	9	C3N3OS+
140.9993	8	C4H3N3OS+
141.076	164	C5H9N4O+
149.0212	7	C6H3N3O2+
167.0552	999	C5H11O6+
168.0579	65	C4[13]CH11O6+
169.0602	6	C3[13]C2H11O6+
174.9514	13	C5H3O3S2+
189.962	13	C3H2N4O2S2+
204.9611	272	C4H3N3O3S2+
205.964	26	C3[13]CH3N3O3S2+
206.957	28	C4H3N3O3S[34]S+
215.9429	10	C6H2NO4S2+
222.9717	40	C4H5N3O4S2+
