Mass spectrum: Mebendazole; LC-ESI-QTOF; MS2; CE: 50 eV; R=35000; [M+H]+
Name: Mebendazole
Name: methyl N-(6-benzoyl-1H-benzimidazol-2-yl)carbamate
Formula: C16H13N3O3
Exact mass: 295.0956913
SMILES: COC(=O)Nc1[nH]c2ccc(cc2n1)C(=O)c3ccccc3
InChI: InChI=1S/C16H13N3O3/c1-22-16(21)19-15-17-12-8-7-11(9-13(12)18-15)14(20)10-5-3-2-4-6-10/h2-9H,1H3,(H2,17,18,19,21)
Instrument: Bruker maXis Impact
Instrument type: LC-ESI-QTOF
Ms type: MS2
Ion mode: POSITIVE
Ionization: ESI
Fragmentation mode: CID
Collision energy: 50 eV
Resolution: 35000
Column name: Acclaim RSLC C18 2.2um, 2.1x100mm, Thermo
Retention time: 8.1 min
Base peak: 296.1027
Precursor m/z: 296.103
Precursor type: [M+H]+
m/z	relative intensity	assigned
130.0384	242	C4H6N2O3+
131.0475	130	C7H5N3+
159.0424	363	C8H5N3O+
160.0496	246	C8H6N3O+
166.0644	216	C12H8N+
191.0346	112	C13H5NO+
208.0861	116	C13H10N3+
264.0777	999	C15H10N3O2+
265.08	211	C15H11N3O2+
