Mass spectrum: Benalaxyl; LC-ESI-QTOF; MS2; CE: 20 eV; R=35000; [M+H]+
Name: Benalaxyl
Name: L-Alanine, N-(2,6-dimethylphenyl)-N-(phenylacetyl)-, methyl ester
Name: methyl (2S)-2-(2,6-dimethyl-N-(2-phenylacetyl)anilino)propanoate
Formula: C20H23NO3
Exact mass: 325.1677936
SMILES: COC(=O)[C@H](C)N(C(=O)CC1=CC=CC=C1)C1=C(C)C=CC=C1C
InChI: InChI=1S/C20H23NO3/c1-14-9-8-10-15(2)19(14)21(16(3)20(23)24-4)18(22)13-17-11-6-5-7-12-17/h5-12,16H,13H2,1-4H3/t16-/m0/s1
Instrument: Bruker maXis Impact
Instrument type: LC-ESI-QTOF
Ms type: MS2
Ion mode: POSITIVE
Ionization: ESI
Fragmentation mode: CID
Collision energy: 20 eV
Resolution: 35000
Column name: Acclaim RSLC C18 2.2um, 2.1x100mm, Thermo
Retention time: 10.968 min
Base peak: 326.1759
Precursor m/z: 326.1751
Precursor type: [M+H]+
m/z	relative intensity	assigned
121.088	67	C8H11N+
122.0943	12	C5H14O3+
148.1117	999	C10H14N+
149.1146	137	C9[13]CH14N+
150.1177	5	C8[13]C2H14N+
208.133	965	C12H18NO2+
209.1361	133	C11[13]CH18NO2+
210.1378	8	C10[13]C2H18NO2+
266.1539	192	C18H20NO+
267.1568	32	C17[13]CH20NO+
294.1489	117	C19H20NO2+
295.1518	23	C18[13]CH20NO2+
326.1748	15	C20H24NO3+
