Mass spectrum: Prednisone; LC-ESI-QTOF; MS2; CE: 50 eV; R=35000; [M+H]+
Name: Prednisone
Name: (8S,9S,10R,13S,14S,17R)-17-hydroxy-17-(2-hydroxyacetyl)-10,13-dimethyl-6,7,8,9,12,14,15,16-octahydrocyclopenta[a]phenanthrene-3,11-dione
Formula: C21H26O5
Exact mass: 358.1780239
SMILES: C[C@]12CC(=O)[C@H]3[C@H]([C@@H]1CC[C@@]2(C(=O)CO)O)CCC4=CC(=O)C=C[C@]34C
InChI: InChI=1S/C21H26O5/c1-19-7-5-13(23)9-12(19)3-4-14-15-6-8-21(26,17(25)11-22)20(15,2)10-16(24)18(14)19/h5,7,9,14-15,18,22,26H,3-4,6,8,10-11H2,1-2H3/t14-,15-,18+,19-,20-,21-/m0/s1
Instrument: Bruker maXis Impact
Instrument type: LC-ESI-QTOF
Ms type: MS2
Ion mode: POSITIVE
Ionization: ESI
Fragmentation mode: CID
Collision energy: 50 eV
Resolution: 35000
Column name: Acclaim RSLC C18 2.2um, 2.1x100mm, Thermo
Retention time: 7.170 min
Base peak: 359.1875
Precursor m/z: 359.1853
Precursor type: [M+H]+
m/z	relative intensity	assigned
115.0545	132	C9H7+
117.0691	72	C9H9+
119.0859	183	C9H11+
121.0655	256	C8H9O+
127.0561	36	C10H7+
128.0622	182	C10H8+
129.0694	166	C10H9+
131.0489	78	C9H7O+
131.0861	115	C10H11+
132.0572	178	C9H8O+
133.063	42	C9H9O+
133.1024	39	C10H13+
135.0803	109	C9H11O+
141.0698	157	C11H9+
142.0764	73	C11H10+
143.086	108	C11H11+
144.0573	163	C10H8O+
145.0645	407	C10H9O+
145.1013	48	C11H13+
146.0734	269	C10H10O+
147.0808	999	C10H11O+
148.0842	99	C9[13]CH11O+
152.0617	81	C12H8+
153.0694	154	C12H9+
154.0767	44	C12H10+
155.0862	71	C12H11+
156.0911	34	C12H12+
157.0655	104	C11H9O+
157.1008	27	C12H13+
158.0731	346	C11H10O+
159.0811	596	C11H11O+
160.0873	106	C11H12O+
161.0964	213	C11H13O+
162.1021	32	C11H14O+
163.0779	47	C10H11O2+
165.0714	138	C13H9+
166.0771	57	C13H10+
167.0849	94	C13H11+
168.0578	38	C12H8O+
169.0648	106	C12H9O+
169.1007	55	C13H13+
170.0724	95	C12H10O+
171.0804	923	C12H11O+
172.0858	186	C11[13]CH11O+
173.0963	265	C12H13O+
174.1001	50	C12H14O+
178.0781	109	C14H10+
179.0857	224	C14H11+
180.0923	72	C14H12+
181.0651	186	C13H9O+
181.1025	52	C14H13+
182.0729	211	C13H10O+
183.0796	239	C13H11O+
184.089	135	C13H12O+
185.0595	35	C12H9O2+
185.0958	146	C13H13O+
186.102	69	C13H14O+
187.0763	30	C12H11O2+
187.1117	71	C13H15O+
189.0719	40	C15H9+
189.0936	34	C12H13O2+
190.0761	51	C15H10+
191.0857	100	C15H11+
192.0933	64	C15H12+
193.1024	125	C15H13+
194.0749	105	C14H10O+
194.1095	41	C15H14+
195.081	275	C14H11O+
195.1174	35	C15H15+
196.0894	235	C14H12O+
197.0962	310	C14H13O+
198.1031	80	C14H14O+
199.1127	39	C14H15O+
202.0801	30	C16H10+
203.0871	51	C16H11+
204.0943	75	C16H12+
205.0671	36	C15H9O+
205.1017	69	C16H13+
206.073	47	C15H10O+
206.1089	39	C16H14+
207.0822	178	C15H11O+
207.1166	76	C16H15+
208.0886	281	C15H12O+
209.0964	292	C15H13O+
209.1352	28	C16H17+
210.1027	200	C15H14O+
211.1104	156	C15H15O+
212.1184	120	C15H16O+
213.1272	38	C15H17O+
215.0845	62	C17H11+
216.0909	28	C17H12+
217.1003	47	C17H13+
218.072	30	C16H10O+
219.0808	115	C16H11O+
219.1157	52	C17H15+
220.0886	60	C16H12O+
221.097	273	C16H13O+
221.1297	26	C17H17+
222.1051	508	C16H14O+
223.111	314	C16H15O+
224.0864	43	C15H12O2+
224.1175	79	C16H16O+
225.0943	27	C15H13O2+
225.1284	77	C16H17O+
227.1463	36	C16H19O+
228.0947	27	C18H12+
229.1023	49	C18H13+
230.1108	32	C18H14+
231.084	69	C17H11O+
231.1168	36	C18H15+
232.0885	95	C17H12O+
233.0965	152	C17H13O+
234.1032	162	C17H14O+
235.1109	140	C17H15O+
236.118	75	C17H16O+
237.093	28	C16H13O2+
237.1273	188	C17H17O+
238.0988	64	C16H14O2+
238.1371	71	C17H18O+
239.1043	28	C16H15O2+
239.1103	26	C16H15O2+
239.1435	51	C17H19O+
245.0959	61	C18H13O+
246.1022	60	C18H14O+
247.1125	129	C18H15O+
248.1217	145	C18H16O+
249.1288	216	C18H17O+
250.1329	57	C18H18O+
251.1415	44	C18H19O+
252.1521	42	C18H20O+
257.1	33	C19H13O+
259.1133	30	C19H15O+
261.1268	52	C19H17O+
262.1007	26	C18H14O2+
262.1384	29	C19H18O+
263.143	50	C19H19O+
265.1598	73	C19H21O+
275.1441	26	C20H19O+
