Mass spectrum: Exemestane; LC-ESI-QTOF; MS2; CE: 20 eV; R=35000; [M+H]+
Name: Exemestane
Name: (8R,9S,10R,13S,14S)-10,13-dimethyl-6-methylidene-7,8,9,11,12,14,15,16-octahydrocyclopenta[a]phenanthrene-3,17-dione
Formula: C20H24O2
Exact mass: 296.1776300
SMILES: C[C@]12CC[C@H]3[C@H]([C@@H]1CCC2=O)CC(=C)C4=CC(=O)C=C[C@]34C
InChI: InChI=1S/C20H24O2/c1-12-10-14-15-4-5-18(22)20(15,3)9-7-16(14)19(2)8-6-13(21)11-17(12)19/h6,8,11,14-16H,1,4-5,7,9-10H2,2-3H3/t14-,15-,16-,19+,20-/m0/s1
Instrument: Bruker maXis Impact
Instrument type: LC-ESI-QTOF
Ms type: MS2
Ion mode: POSITIVE
Ionization: ESI
Fragmentation mode: CID
Collision energy: 20 eV
Resolution: 35000
Column name: Acclaim RSLC C18 2.2um, 2.1x100mm, Thermo
Retention time: 9.227 min
Base peak: 297.187
Precursor m/z: 297.1849
Precursor type: [M+H]+
m/z	relative intensity	assigned
115.0543	13	C9H7+
117.0707	8	C9H9+
119.0859	39	C9H11+
121.065	266	C8H9O+
121.1013	391	C9H13+
122.0684	25	C7[13]CH9O+
122.1055	33	C8[13]CH13+
123.0809	23	C8H11O+
123.1168	11	C9H15+
128.0609	13	C10H8+
129.0703	30	C10H9+
130.0764	8	C10H10+
131.086	146	C10H11+
132.0553	5	C9H8O+
133.0655	46	C9H9O+
133.1017	68	C10H13+
135.0445	15	C8H7O2+
135.0806	250	C9H11O+
135.1172	48	C10H15+
136.0841	22	C8[13]CH11O+
137.0602	7	C8H9O2+
137.0958	22	C9H13O+
142.0769	7	C11H10+
143.0855	36	C11H11+
145.0653	65	C10H9O+
145.1014	296	C11H13+
146.0706	6	C10H10O+
146.1044	37	C10[13]CH13+
147.0809	212	C10H11O+
147.1168	78	C11H15+
148.0845	20	C9[13]CH11O+
149.0965	999	C10H13O+
150.0998	100	C9[13]CH13O+
151.111	14	C10H15O+
157.0998	14	C12H13+
158.0734	6	C11H10O+
159.0805	84	C11H11O+
159.1163	17	C12H15+
160.0855	9	C11H12O+
161.059	8	C10H9O2+
161.0968	110	C11H13O+
161.132	25	C12H17+
163.0756	17	C10H11O2+
163.1119	146	C11H15O+
164.1161	20	C11H16O+
169.1009	10	C13H13+
171.0804	36	C12H11O+
171.1175	157	C13H15+
172.0871	6	C12H12O+
172.1209	36	C12[13]CH15+
173.0965	128	C12H13O+
174.1002	15	C12H14O+
175.0749	42	C11H11O2+
175.1124	33	C12H15O+
176.1181	5	C12H16O+
177.1286	19	C12H17O+
183.082	7	C13H11O+
185.0965	215	C13H13O+
186.0994	28	C12[13]CH13O+
187.1125	87	C13H15O+
188.1161	11	C13H16O+
189.0898	7	C12H13O2+
189.1276	103	C13H17O+
190.1315	15	C13H18O+
195.0817	6	C14H11O+
195.1176	8	C15H15+
197.0975	38	C14H13O+
198.1011	8	C14H14O+
199.1132	62	C14H15O+
200.1155	11	C14H16O+
201.0932	15	C13H13O2+
201.1283	54	C14H17O+
202.1314	8	C14H18O+
203.1088	8	C13H15O2+
207.1172	5	C16H15+
209.0981	35	C15H13O+
210.1027	6	C15H14O+
211.1127	37	C15H15O+
212.117	13	C15H16O+
213.1282	27	C15H17O+
214.133	6	C15H18O+
215.107	26	C14H15O2+
215.1446	7	C15H19O+
216.1114	5	C14H16O2+
221.1336	6	C17H17+
223.1122	62	C16H15O+
224.1188	20	C16H16O+
225.1287	20	C16H17O+
227.1076	5	C15H15O2+
227.1425	19	C16H19O+
228.1486	5	C16H20O+
229.1246	6	C15H17O2+
237.1285	84	C17H17O+
237.1629	5	C18H21+
238.1351	20	C17H18O+
239.1438	129	C17H19O+
240.1481	21	C16[13]CH19O+
241.1219	11	C16H17O2+
241.1592	14	C17H21O+
246.1403	5	C19H18+
249.1291	5	C18H17O+
250.1349	12	C18H18O+
251.1445	54	C18H19O+
251.1815	9	C19H23+
252.1473	12	C18H20O+
253.1599	114	C18H21O+
254.1649	22	C17[13]CH21O+
255.1414	8	C17H19O2+
255.1748	39	C18H23O+
256.178	10	C18H24O+
261.1662	12	C20H21+
264.1523	18	C19H20O+
265.1572	6	C19H21O+
269.1547	8	C18H21O2+
269.1913	13	C19H25O+
279.176	722	C20H23O+
280.179	176	C19[13]CH23O+
281.1829	18	C19[13]CH24O+
283.1761	6	C19H23O2+
297.1863	612	C20H25O2+
298.1898	158	C19[13]CH25O2+
