Mass spectrum: Fluoranthene; GC-APCI-QTOF; MS2; CE: 30 eV; R=35000; [M]+
Name: Fluoranthene
Formula: C16H10
Exact mass: 202.0783
SMILES: C1=CC2=C(C=C1)C1=C3C2=CC=CC3=CC=C1
InChI: InChI=1S/C16H10/c1-2-8-13-12(7-1)14-9-3-5-11-6-4-10-15(13)16(11)14/h1-10H
Instrument: Bruker 450 GC coupled to maXis Impact
Instrument type: GC-APCI-QTOF
Ms type: MS2
Ion mode: POSITIVE
Ionization: APCI
Fragmentation mode: CID
Collision energy: 30 eV
Resolution: 35000
Column name: Rxi-5Sil MS column, 30m, 0.25mm i.d., 0.25Âµm film thickness (Restek)
Retention time: 18.916 min
Base peak: 202.0744
Precursor m/z: 202.0777
Precursor type: [M]+
m/z	relative intensity	assigned
200.0579	12	C16H8+
202.0743	999	C16H10+
