Mass spectrum: Azoxystrobin; LC-ESI-QTOF; MS2; CE: 30 eV; R=35000; [M+H]+
Name: Azoxystrobin
Name: Methyl (E)-2-[2-[6-(2-cyanophenoxy)pyrimidin-4-YL]oxyphenyl]-3-methoxy-prop-2-enoate
Formula: C22H17N3O5
Exact mass: 403.1168206
SMILES: CO/C=C(\C1=CC=CC=C1OC2=NC=NC(=C2)OC3=CC=CC=C3C#N)/C(=O)OC
InChI: InChI=1S/C22H17N3O5/c1-27-13-17(22(26)28-2)16-8-4-6-10-19(16)30-21-11-20(24-14-25-21)29-18-9-5-3-7-15(18)12-23/h3-11,13-14H,1-2H3/b17-13+
Instrument: Bruker maXis Impact
Instrument type: LC-ESI-QTOF
Ms type: MS2
Ion mode: POSITIVE
Ionization: ESI
Fragmentation mode: CID
Collision energy: 30 eV
Resolution: 35000
Column name: Acclaim RSLC C18 2.2um, 2.1x100mm, Thermo
Retention time: 8.9 min
Base peak: 404.1239
Precursor m/z: 404.1241
Precursor type: [M+H]+
m/z	relative intensity	assigned
134.0587	18	C5H10O4+
143.0591	12	C9H7N2+
145.0276	6	C7H3N3O+
162.0539	5	C9H8NO2+
171.0541	8	C10H7N2O+
177.0538	6	C8H7N3O2+
183.0538	7	C8H9NO4+
201.0412	6	C11H7NO3+
210.0416	6	C12H6N2O2+
288.1118	5	C15H16N2O4+
301.0845	20	C18H11N3O2+
316.1074	61	C19H14N3O2+
328.0717	6	C19H10N3O3+
329.0794	315	C19H11N3O3+
330.0825	58	C19H12N3O3+
340.0701	5	C20H10N3O3+
344.1031	999	C20H14N3O3+
345.1061	181	C20H15N3O3+
372.0983	745	C21H14N3O4+
373.1012	159	C20[13]CH14N3O4+
