Mass spectrum: N-Bisdesmethyl Tramadol; LC-ESI-QTOF; MS2; CE: 40 eV; R=35000; [M+H]+
Name: N-Bisdesmethyl Tramadol
Name: BRN 2851491
Name: 2-(aminomethyl)-1-(3-methoxyphenyl)cyclohexan-1-ol
Formula: C14H21NO2
Exact mass: 235.1572289
SMILES: COC1=CC=CC(=C1)C1(O)CCCCC1CN
InChI: InChI=1S/C14H21NO2/c1-17-13-7-4-6-11(9-13)14(16)8-3-2-5-12(14)10-15/h4,6-7,9,12,16H,2-3,5,8,10,15H2,1H3
Instrument: Bruker maXis Impact
Instrument type: LC-ESI-QTOF
Ms type: MS2
Ion mode: POSITIVE
Ionization: ESI
Fragmentation mode: CID
Collision energy: 40 eV
Resolution: 35000
Column name: Acclaim RSLC C18 2.2um, 2.1x100mm, Thermo
Retention time: 5.2 min
Base peak: 236.1638
Precursor m/z: 236.1645
Precursor type: [M+H]+
m/z	relative intensity	assigned
115.0537	10	C9H7+
117.0687	13	C9H9+
121.064	999	C8H9O+
122.0672	122	C7[13]CH9O+
128.0615	16	C10H8+
129.0695	17	C10H9+
131.0477	13	C9H7O+
132.0564	13	C9H8O+
135.079	11	C9H11O+
144.0559	24	C10H8O+
145.0633	29	C10H9O+
147.0792	79	C10H11O+
148.0814	13	C5H12N2O3+
158.0713	18	C11H10O+
159.0788	31	C11H11O+
160.0873	18	C11H12O+
173.0942	8	C12H13O+
189.126	26	C13H17O+
