Mass spectrum: Paroxetine; LC-ESI-QTOF; MS2; CE: RAMP 21.6-32.4 eV; R=35000; [M+H]+
Name: Paroxetine
Name: (3S,4R)-3-(1,3-benzodioxol-5-yloxymethyl)-4-(4-fluorophenyl)piperidine
Formula: C19H20FNO3
Exact mass: 329.1427217
SMILES: c1cc(ccc1[C@@H]2CCNC[C@H]2COc3ccc4c(c3)OCO4)F
InChI: InChI=1S/C19H20FNO3/c20-15-3-1-13(2-4-15)17-7-8-21-10-14(17)11-22-16-5-6-18-19(9-16)24-12-23-18/h1-6,9,14,17,21H,7-8,10-12H2/t14-,17-/m0/s1
Instrument: Bruker maXis Impact
Instrument type: LC-ESI-QTOF
Ms type: MS2
Ion mode: POSITIVE
Ionization: ESI
Fragmentation mode: CID
Collision energy: RAMP 21.6-32.4 eV
Resolution: 35000
Column name: Acclaim RSLC C18 2.2um, 2.1x100mm, Thermo
Retention time: 7.979 min
Base peak: 330.1506
Precursor m/z: 330.15
Precursor type: [M+H]+
m/z	relative intensity	assigned
56.0484	32	C3H6N+
57.0567	6	C3H7N+
58.0642	5	C3H8N+
68.0482	9	C4H6N+
70.0642	394	C4H8N+
71.0677	24	C3[13]CH8N+
82.0645	6	C5H8N+
86.0592	6	C4H8NO+
97.088	5	C6H11N+
109.0448	15	C7H6F+
123.0433	25	C7H7O2+
123.0593	42	C8H8F+
135.0596	44	C9H8F+
136.0664	17	C9H9F+
137.0749	10	C9H10F+
138.0703	7	C8H9FN+
139.038	9	C7H7O3+
147.0599	9	C10H8F+
148.0671	7	C10H9F+
149.0753	8	C10H10F+
150.0713	15	C9H9FN+
151.0385	94	C8H7O3+
152.0414	7	C7[13]CH7O3+
161.0759	19	C11H10F+
163.0909	83	C11H12F+
164.092	11	C10[13]CH12F+
175.0906	7	C12H12F+
176.0991	14	C12H13F+
178.1018	46	C11H13FN+
179.104	7	C10[13]CH13FN+
190.1018	7	C12H13FN+
192.1182	460	C12H15FN+
193.1228	77	C12H17O2+
194.1257	5	C11[13]CH17O2+
208.1116	7	C15H14N+
313.124	11	C19H18FO3+
330.1505	999	C19H21FNO3+
331.1541	224	C18[13]CH21FNO3+
332.1558	28	C17[13]C2H21FNO3+
