Mass spectrum: Perfluoropentane sulfonic acid (PFPeS); LC-ESI-QTOF; MS2; CE: 30 eV; R=35000; [M-H]-
Name: Perfluoropentane sulfonic acid (PFPeS)
Name: 1-Pentanesulfonic acid, 1,1,2,2,3,3,4,4,5,5,5-undecafluoro-
Name: 1,1,2,2,3,3,4,4,5,5,5-undecafluoropentane-1-sulfonic acid
Formula: C5HF11O3S
Exact mass: 349.9471
SMILES: C(C(C(F)(F)F)(F)F)(C(C(F)(F)S(=O)(=O)O)(F)F)(F)F
InChI: InChI=1S/C5HF11O3S/c6-1(7,2(8,9)4(12,13)14)3(10,11)5(15,16)20(17,18)19/h(H,17,18,19)
Instrument: Bruker maXis Impact
Instrument type: LC-ESI-QTOF
Ms type: MS2
Ion mode: NEGATIVE
Ionization: ESI
Fragmentation mode: CID
Collision energy: 30 eV
Resolution: 35000
Column name: Acclaim RSLC C18 2.2um, 2.1x100mm, Thermo
Retention time: 7.874 min
Base peak: 348.9395
Precursor m/z: 348.9398
Precursor type: [M-H]-
m/z	relative intensity
348.9393	999
