Mass spectrum: Albendazole Sulfoxide; LC-ESI-QTOF; MS2; CE: 50 eV; R=35000; [M+H]+
Name: Albendazole Sulfoxide
Name: methyl N-(6-propylsulfinyl-1H-benzimidazol-2-yl)carbamate
Formula: C12H15N3O3S
Exact mass: 281.0834123
SMILES: CCCS(=O)c1ccc2c(c1)nc([nH]2)NC(=O)OC
InChI: InChI=1S/C12H15N3O3S/c1-3-6-19(17)8-4-5-9-10(7-8)14-11(13-9)15-12(16)18-2/h4-5,7H,3,6H2,1-2H3,(H2,13,14,15,16)
Instrument: Bruker maXis Impact
Instrument type: LC-ESI-QTOF
Ms type: MS2
Ion mode: POSITIVE
Ionization: ESI
Fragmentation mode: CID
Collision energy: 50 eV
Resolution: 35000
Column name: Acclaim RSLC C18 2.2um, 2.1x100mm, Thermo
Retention time: 5.7 min
Base peak: 282.0907
Precursor m/z: 282.0907
Precursor type: [M+H]+
m/z	relative intensity	assigned
118.0523	26	C7H6N2+
119.0597	25	C7H7N2+
122.0051	46	C6H4NS+
129.0437	8	C8H5N2+
131.0472	76	C7H5N3+
132.0547	17	C7H6N3+
133.0624	17	C7H7N3+
134.0698	8	C4H10N2O3+
136.0077	11	C6H4N2S+
146.0349	9	C7H4N3O+
146.0708	81	C8H8N3+
147.043	9	C7H5N3O+
149.0162	18	C7H5N2S+
150.0232	11	C4H8NO3S+
159.042	999	C8H5N3O+
160.0484	100	C9[13]CH7O2+
163.0204	25	C7H5N3S+
172.0513	19	C11H8O2+
177.0344	9	C8H7N3S+
178.0439	7	C8H8N3S+
186.0676	8	C12H10O2+
190.0065	150	C8H4N3OS+
191.0143	363	C8H5N3OS+
191.0328	83	C8H5N3O3+
192.0162	25	C10[13]CHN3O+
193.0093	9	C8H5N2O2S+
207.0103	56	C8H5N3O2S+
208.0174	154	C8H6N3O2S+
209.0182	11	C12H5N2S+
