Mass spectrum: 3,3`-Dimethylbenzidine; LC-ESI-QTOF; MS2; CE: 20 eV; R=35000; [M+H]+
Name: 3,3`-Dimethylbenzidine
Name: 4-(4-amino-3-methylphenyl)-2-methylaniline
Formula: C14H16N2
Exact mass: 212.1313485
SMILES: CC1=CC(=CC=C1N)C1=CC=C(N)C(C)=C1
InChI: InChI=1S/C14H16N2/c1-9-7-11(3-5-13(9)15)12-4-6-14(16)10(2)8-12/h3-8H,15-16H2,1-2H3
Instrument: Bruker maXis Impact
Instrument type: LC-ESI-QTOF
Ms type: MS2
Ion mode: POSITIVE
Ionization: ESI
Fragmentation mode: CID
Collision energy: 20 eV
Resolution: 35000
Column name: Acclaim RSLC C18 2.2um, 2.1x100mm, Thermo
Retention time: 5.656 min
Base peak: 213.1377
Precursor m/z: 213.1386
Precursor type: [M+H]+
m/z	relative intensity	assigned
179.0837	6	C14H11+
180.0796	30	C13H10N+
181.0874	87	C13H11N+
182.0905	13	C12[13]CH11N+
194.0955	5	C14H12N+
195.1025	5	C14H13N+
196.1111	237	C14H14N+
197.113	39	C13[13]CH14N+
198.1142	157	C13H14N2+
199.1172	20	C12[13]CH14N2+
211.1221	46	C14H15N2+
212.1301	999	C14H16N2+
213.137	555	C14H17N2+
214.1406	62	C13[13]CH17N2+
