Mass spectrum: Spinosyn A; LC-ESI-QTOF; MS2; CE: 50 eV; R=35000; [M+H]+
Name: Spinosyn A
Name: Spinosad factor A
Name: (1S,2R,5S,7R,9R,10S,14R,15S,19S)-15-[(2R,5S,6R)-5-(dimethylamino)-6-methyloxan-2-yl]oxy-19-ethyl-14-methyl-7-[(2R,3R,4R,5S,6S)-3,4,5-trimethoxy-6-methyloxan-2-yl]oxy-20-oxatetracyclo[10.10.0.02,10.05,9]docosa-3,11-diene-13,21-dione
Formula: C41H65NO10
Exact mass: 731.4608473
SMILES: [H][C@]1(C[C@@]2([H])C=C[C@@]3([H])[C@]4([H])CC(=O)O[C@@]([H])(CC)CCC[C@]([H])(O[C@@]5([H])CC[C@]([H])(N(C)C)[C@@]([H])(C)O5)[C@@]([H])(C)C(=O)C4=C[C@@]3([H])[C@]2([H])C1)O[C@]1([H])O[C@@]([H])(C)[C@]([H])(OC)[C@@]([H])(OC)[C@@]1([H])OC
InChI: InChI=1S/C41H65NO10/c1-10-26-12-11-13-34(52-36-17-16-33(42(5)6)23(3)48-36)22(2)37(44)32-20-30-28(31(32)21-35(43)50-26)15-14-25-18-27(19-29(25)30)51-41-40(47-9)39(46-8)38(45-7)24(4)49-41/h14-15,20,22-31,33-34,36,38-41H,10-13,16-19,21H2,1-9H3/t22-,23-,24+,25-,26+,27-,28-,29-,30-,31+,33+,34+,36+,38+,39-,40-,41+/m1/s1
Instrument: Bruker maXis Impact
Instrument type: LC-ESI-QTOF
Ms type: MS2
Ion mode: POSITIVE
Ionization: ESI
Fragmentation mode: CID
Collision energy: 50 eV
Resolution: 35000
Column name: Acclaim RSLC C18 2.2um, 2.1x100mm, Thermo
Retention time: 11.178 min
Base peak: 732.4671
Precursor m/z: 732.4681
Precursor type: [M+H]+
m/z	relative intensity	assigned
124.111	5	C8H14N+
125.0588	12	C7H9O2+
129.0898	11	C7H13O2+
142.1217	999	C5H18O4+
143.1248	75	C4[13]CH18O4+
145.0846	22	C7H13O3+
155.0835	5	C12H11+
157.0846	39	C8H13O3+
160.1319	28	C8H18NO2+
189.111	72	C9H17O4+
190.1142	8	C8[13]CH17O4+
199.074	6	C13H11O2+
201.0896	6	C13H13O2+
215.1061	6	C14H15O2+
225.0907	9	C15H13O2+
