Mass spectrum: 2,6-Dichlorobenzamide; LC-ESI-QTOF; MS2; CE: 50 eV; R=35000; [M+H]+
Name: 2,6-Dichlorobenzamide
Name: 2,6-dichlorobenzamide
Formula: C7H5Cl2NO
Exact mass: 188.9748191
SMILES: NC(=O)C1=C(Cl)C=CC=C1Cl
InChI: InChI=1S/C7H5Cl2NO/c8-4-2-1-3-5(9)6(4)7(10)11/h1-3H,(H2,10,11)
Instrument: Bruker maXis Impact
Instrument type: LC-ESI-QTOF
Ms type: MS2
Ion mode: POSITIVE
Ionization: ESI
Fragmentation mode: CID
Collision energy: 50 eV
Resolution: 35000
Column name: Acclaim RSLC C18 2.2um, 2.1x100mm, Thermo
Retention time: 4.3 min
Base peak: 189.9813
Precursor m/z: 189.9821
Precursor type: [M+H]+
m/z	relative intensity	assigned
108.983	154	C6H2Cl+
110.981	172	C6H2[37]Cl+
144.9597	344	C6H3Cl2+
146.9579	269	C6H3[37]Cl[35]Cl+
162.9705	109	C6H5Cl2O+
164.0018	123	C7H3ClN3+
172.9657	999	C6H3Cl2N2+
174.9623	431	C6H3[37]Cl[35]ClN2+
