Mass spectrum: Prosulfuron; LC-ESI-QTOF; MS2; CE: 50 eV; R=35000; [M+H]+
Name: Prosulfuron
Name: 1-(4-methoxy-6-methyl-1,3,5-triazin-2-yl)-3-[2-(3,3,3-trifluoropropyl)phenyl]sulfonylurea
Formula: C15H16F3N5O4S
Exact mass: 419.0875097
SMILES: COC1=NC(C)=NC(NC(=O)NS(=O)(=O)C2=CC=CC=C2CCC(F)(F)F)=N1
InChI: InChI=1S/C15H16F3N5O4S/c1-9-19-12(22-14(20-9)27-2)21-13(24)23-28(25,26)11-6-4-3-5-10(11)7-8-15(16,17)18/h3-6H,7-8H2,1-2H3,(H2,19,20,21,22,23,24)
Instrument: Bruker maXis Impact
Instrument type: LC-ESI-QTOF
Ms type: MS2
Ion mode: POSITIVE
Ionization: ESI
Fragmentation mode: CID
Collision energy: 50 eV
Resolution: 35000
Column name: Acclaim RSLC C18 2.2um, 2.1x100mm, Thermo
Retention time: 8.769 min
Base peak: 420.094
Precursor m/z: 420.0948
Precursor type: [M+H]+
m/z	relative intensity	assigned
109.0446	18	C2H5F2N3+
133.0442	31	CH10FN2O2S+
141.0759	999	C5H14FOS+
142.079	68	C4[13]CH14FOS+
153.0504	17	CH11F2N2O2S+
166.0713	32	C6H9F3N2+
167.0551	859	C9H7F2N+
168.0581	86	C8[13]CH7F2N+
173.0052	226	C10H5OS+
174.0098	22	C9[13]CH5OS+
181.0558	14	C3H10F3NO4+
