Mass spectrum: Dicyclohexylphthalate; LC-ESI-QTOF; MS2; CE: 30 eV; R=35000; [M+H]+
Name: Dicyclohexylphthalate
Name: Dicyclohexyl phthalate
Name: dicyclohexyl benzene-1,2-dicarboxylate
Formula: C20H26O4
Exact mass: 330.1831093
SMILES: O=C(OC1CCCCC1)C1=CC=CC=C1C(=O)OC1CCCCC1
InChI: InChI=1S/C20H26O4/c21-19(23-15-9-3-1-4-10-15)17-13-7-8-14-18(17)20(22)24-16-11-5-2-6-12-16/h7-8,13-16H,1-6,9-12H2
Instrument: Bruker maXis Impact
Instrument type: LC-ESI-QTOF
Ms type: MS2
Ion mode: POSITIVE
Ionization: ESI
Fragmentation mode: CID
Collision energy: 30 eV
Resolution: 35000
Column name: Acclaim RSLC C18 2.2um, 2.1x100mm, Thermo
Retention time: 13.044 min
Base peak: 331.1907
Precursor m/z: 331.1904
Precursor type: [M+H]+
m/z	relative intensity	assigned
121.0278	16	C7H5O2+
149.0232	999	C8H5O3+
167.0329	78	C8H7O4+
168.0359	7	C7[13]CH7O4+
