Mass spectrum: 4-Formylaminoantipyrine; LC-ESI-QTOF; MS2; CE: 20 eV; R=35000; [M+H]+
Name: 4-Formylaminoantipyrine
Name: N-(1,5-dimethyl-3-oxo-2-phenylpyrazol-4-yl)formamide
Formula: C12H13N3O2
Exact mass: 231.1007767
SMILES: Cc1c(c(=O)n(n1C)c2ccccc2)/N=C/O
InChI: InChI=1S/C12H13N3O2/c1-9-11(13-8-16)12(17)15(14(9)2)10-6-4-3-5-7-10/h3-8H,1-2H3,(H,13,16)
Instrument: Bruker maXis Impact
Instrument type: LC-ESI-QTOF
Ms type: MS2
Ion mode: POSITIVE
Ionization: ESI
Fragmentation mode: CID
Collision energy: 20 eV
Resolution: 35000
Column name: Acclaim RSLC C18 2.2um, 2.1x100mm, Thermo
Retention time: 3.9 min
Base peak: 232.1075
Precursor m/z: 232.1081
Precursor type: [M+H]+
m/z	relative intensity	assigned
118.0649	7	C8H8N+
128.0483	7	C9H6N+
130.0645	8	C9H8N+
132.0433	8	C8H6NO+
145.0752	33	C9H9N2+
146.059	66	C9H8NO+
147.057	9	C8H7N2O+
158.0589	20	C10H8NO+
159.0903	178	C10H11N2+
160.0936	20	C9[13]CH11N2+
169.0763	6	C11H9N2+
171.0531	6	C10H7N2O+
171.0898	7	C11H11N2+
172.0619	5	C10H8N2O+
172.0864	10	C10H10N3+
173.0701	54	C10H9N2O+
174.0735	8	C5H10N4O3+
176.1165	6	C10H14N3+
177.1002	5	C10H13N2O+
185.0691	12	C11H9N2O+
186.1009	14	C11H12N3+
187.0855	171	C11H11N2O+
188.0886	26	C6H12N4O3+
189.0882	50	C10H11N3O+
190.0913	7	C5H12N5O3+
199.0734	14	C11H9N3O+
204.1125	645	C11H14N3O+
205.1156	67	C10[13]CH14N3O+
206.1178	7	C9[13]C2H14N3O+
214.0967	999	C12H12N3O+
215.0998	122	C11[13]CH12N3O
216.1024	13	C11H12N4O+
232.1076	356	C12H14N3O2+
