Mass spectrum: Chloramphenicol; LC-ESI-QTOF; MS2; CE: 30 eV; R=35000; [M-H]-
Name: Chloramphenicol
Name: 2,2-Dichloro-N-[1,3-dihydroxy-1-(4-nitrophenyl)propan-2-yl]acetamide
Name: 2,2-dichloro-N-[1,3-dihydroxy-1-(4-nitrophenyl)propan-2-yl]acetamide
Formula: C11H12Cl2N2O5
Exact mass: 322.0123268
SMILES: OCC(NC(=O)C(Cl)Cl)C(O)C1=CC=C(C=C1)[N+]([O-])=O
InChI: InChI=1S/C11H12Cl2N2O5/c12-10(13)11(18)14-8(5-16)9(17)6-1-3-7(4-2-6)15(19)20/h1-4,8-10,16-17H,5H2,(H,14,18)
Instrument: Bruker maXis Impact
Instrument type: LC-ESI-QTOF
Ms type: MS2
Ion mode: NEGATIVE
Ionization: ESI
Fragmentation mode: CID
Collision energy: 30 eV
Resolution: 35000
Column name: Acclaim RSLC C18 2.2um, 2.1x100mm, Thermo
Retention time: 5.699 min
Base peak: 321.0046
Precursor m/z: 321.0051
Precursor type: [M-H]-
m/z	relative intensity	assigned
121.0294	868	C7H5O2-
122.0323	111	C2H6N2O4-
148.0378	138	C5H8O5-
151.028	999	C4H8ClN2O2-
152.0335	934	C7H6NO3-
153.0366	135	C6[13]CH6NO3-
