Mass spectrum: Propoxycarbazone; LC-ESI-QTOF; MS2; CE: 30 eV; R=35000; [M+H]+
Name: Propoxycarbazone
Name: methyl 2-[(4-methyl-5-oxo-3-propoxy-1,2,4-triazole-1-carbonyl)sulfamoyl]benzoate
Formula: C15H18N4O7S
Exact mass: 398.0896199
SMILES: CCCOC1=NN(C(=O)NS(=O)(=O)C2=CC=CC=C2C(=O)OC)C(=O)N1C
InChI: InChI=1S/C15H18N4O7S/c1-4-9-26-14-16-19(15(22)18(14)2)13(21)17-27(23,24)11-8-6-5-7-10(11)12(20)25-3/h5-8H,4,9H2,1-3H3,(H,17,21)
Instrument: Bruker maXis Impact
Instrument type: LC-ESI-QTOF
Ms type: MS2
Ion mode: POSITIVE
Ionization: ESI
Fragmentation mode: CID
Collision energy: 30 eV
Resolution: 35000
Column name: Acclaim RSLC C18 2.2um, 2.1x100mm, Thermo
Retention time: 5.756 min
Base peak: 212.1502
Precursor m/z: 399.0969
Precursor type: [M+H]+
m/z	relative intensity	assigned
116.0446	391	C3H6N3O2+
133.0857	108	C6H13O3+
135.0434	371	H11N2O4S+
158.091	293	C3H14N2O5+
168.9948	127	C7H5O3S+
199.0056	999	C11H3O4+
200.0078	137	C10[13]CH3O4+
209.9836	573	C11NO4+
210.9878	131	C10[13]CNO4+
224.9992	91	C11H3N3OS+
