Mass spectrum: Orlistat; LC-ESI-QTOF; MS2; CE: 10 eV; R=35000; [M+H]+
Name: Orlistat
Name: [(2S)-1-[(2S,3S)-3-hexyl-4-oxooxetan-2-yl]tridecan-2-yl] (2S)-2-formamido-4-methylpentanoate
Formula: C29H53NO5
Exact mass: 495.3923738
SMILES: CCCCCCCCCCC[C@@H](C[C@@H]1OC(=O)[C@H]1CCCCCC)OC(=O)[C@H](CC(C)C)NC=O
InChI: InChI=1S/C29H53NO5/c1-5-7-9-11-12-13-14-15-16-18-24(34-29(33)26(30-22-31)20-23(3)4)21-27-25(28(32)35-27)19-17-10-8-6-2/h22-27H,5-21H2,1-4H3,(H,30,31)/t24-,25-,26-,27-/m0/s1
Instrument: Bruker maXis Impact
Instrument type: LC-ESI-QTOF
Ms type: MS2
Ion mode: POSITIVE
Ionization: ESI
Fragmentation mode: CID
Collision energy: 10 eV
Resolution: 35000
Column name: Acclaim RSLC C18 2.2um, 2.1x100mm, Thermo
Retention time: 14.525 min
Base peak: 513.4252
Precursor m/z: 496.3997
Precursor type: [M+H]+
m/z	relative intensity	assigned
160.095	569	C7H14NO3+
237.0764	195	C12H13O5+
239.0745	102	C18H9N+
319.2994	874	C22H39O+
320.3006	206	C21[13]CH39O+
337.3104	441	C22H41O2+
338.3125	176	C21[13]CH41O2+
445.1176	372	C29H17O5+
446.1197	470	C29H18O5+
447.1152	189	C28[13]CH18O5+
448.1155	85	C28H18NO5+
479.3943	105	C29H53NO4+
495.3833	174	C29H53NO5+
496.4	999	C29H54NO5+
497.4019	353	C28[13]CH54NO5+
