Mass spectrum: Clarithromycin; LC-ESI-QTOF; MS2; CE: Ramp 30.8-46.2 eV; R=35000; [M+H]+
Name: Clarithromycin
Name: (3R,4S,5S,6R,7R,9R,11R,12R,13S,14R)-6-[(2S,3R,4S,6R)-4-(dimethylamino)-3-hydroxy-6-methyloxan-2-yl]oxy-14-ethyl-12,13-dihydroxy-4-[(2R,4R,5S,6S)-5-hydroxy-4-methoxy-4,6-dimethyloxan-2-yl]oxy-7-methoxy-3,5,7,9,11,13-hexamethyl-oxacyclotetradecane-2,10-dione
Formula: C38H69NO13
Exact mass: 747.4769
SMILES: CC[C@@H]1[C@@]([C@@H]([C@H](C(=O)[C@@H](C[C@@]([C@@H]([C@H]([C@@H]([C@H](C(=O)O1)C)O[C@H]2C[C@@]([C@H]([C@@H](O2)C)O)(C)OC)C)O[C@H]3[C@@H]([C@H](C[C@H](O3)C)N(C)C)O)(C)OC)C)C)O)(C)O
InChI: InChI=1S/C38H69NO13/c1-15-26-38(10,45)31(42)21(4)28(40)19(2)17-37(9,47-14)33(52-35-29(41)25(39(11)12)16-20(3)48-35)22(5)30(23(6)34(44)50-26)51-27-18-36(8,46-13)32(43)24(7)49-27/h19-27,29-33,35,41-43,45H,15-18H2,1-14H3/t19-,20-,21+,22+,23-,24+,25+,26-,27+,29-,30+,31-,32+,33-,35+,36-,37-,38-/m1/s1
Instrument: Bruker maXis Impact
Instrument type: LC-ESI-QTOF
Ms type: MS2
Ion mode: POSITIVE
Ionization: ESI
Fragmentation mode: CID
Collision energy: Ramp 30.8-46.2 eV
Resolution: 35000
Column name: Acclaim RSLC C18 2.2um, 2.1x100mm, Thermo
Retention time: 9.3 min
Base peak: 748.4895
Precursor m/z: 748.4842
Precursor type: [M+H]+
m/z	relative intensity	assigned
55.054	9	C4H7+
72.0806	37	C4H10N+
83.0495	354	C5H7O+
84.0527	18	H8N2O3+
87.0447	13	C4H7O2+
88.0764	8	C4H10NO+
98.0981	38	C6H12N+
99.0818	7	C6H11O+
113.0622	11	C6H9O2+
115.0771	22	C6H11O2+
116.0721	40	C5H10NO2+
116.1085	103	C6H14NO+
117.1115	6	C6H15NO+
127.0761	32	C7H11O2+
158.118	999	C8H16NO2+
159.1215	99	C8H17NO2+
160.1234	6	C12H16+
284.1869	5	C15H26NO4+
316.214	11	C16H30NO5+
365.2342	7	C24H31NO2+
540.3577	5	C37H48O3+
558.3692	70	C37H50O4+
559.3732	19	C29H53NO9+
590.3957	156	C38H54O5+
591.3987	55	C30H57NO10+
592.4027	11	C30H58NO10+
748.4937	19	C38H70NO13+
749.4968	8	C37H69N2O13+
