Mass spectrum: Bentazone; LC-ESI-QTOF; MS2; CE: 40 eV; R=35000; [M-H]-
Name: Bentazone
Name: Bentazon
Name: 2,2-dioxo-3-propan-2-yl-1H-2$l^{6},1,3-benzothiadiazin-4-one
Formula: C10H12N2O3S
Exact mass: 240.0568632
SMILES: CC(C)N1C(=O)C2=CC=CC=C2NS1(=O)=O
InChI: InChI=1S/C10H12N2O3S/c1-7(2)12-10(13)8-5-3-4-6-9(8)11-16(12,14)15/h3-7,11H,1-2H3
Instrument: Bruker maXis Impact
Instrument type: LC-ESI-QTOF
Ms type: MS2
Ion mode: NEGATIVE
Ionization: ESI
Fragmentation mode: CID
Collision energy: 40 eV
Resolution: 35000
Column name: Acclaim RSLC C18 2.2um, 2.1x100mm, Thermo
Retention time: 4.474 min
Base peak: 239.0495
Precursor m/z: 239.0496
Precursor type: [M-H]-
m/z	relative intensity	assigned
117.0463	68	CH11NO3S-
118.0443	29	C5H10OS-
132.0325	999	C7H4N2O-
133.0395	455	C7H5N2O-
134.0423	71	C5H10O2S-
145.0398	45	C8H5N2O-
168.009	27	C10H2NO2-
194.9845	34	C7H3N2O3S-
195.9927	61	C10N2O3-
197.0026	138	C7H5N2O3S-
