Mass spectrum: Norlidocaine; LC-ESI-QTOF; MS2; CE: 40 eV; R=35000; [M+H]+
Name: Norlidocaine
Name: Monoethylglycinexylidide
Name: N-(2,6-dimethylphenyl)-2-(ethylamino)acetamide
Formula: C12H18N2O
Exact mass: 206.1419132
SMILES: CCNCC(=O)NC1=C(C)C=CC=C1C
InChI: InChI=1S/C12H18N2O/c1-4-13-8-11(15)14-12-9(2)6-5-7-10(12)3/h5-7,13H,4,8H2,1-3H3,(H,14,15)
Instrument: Bruker maXis Impact
Instrument type: LC-ESI-QTOF
Ms type: MS2
Ion mode: POSITIVE
Ionization: ESI
Fragmentation mode: CID
Collision energy: 40 eV
Resolution: 35000
Column name: Acclaim RSLC C18 2.2um, 2.1x100mm, Thermo
Retention time: 4.3 min
Base peak: 207.1486
Precursor m/z: 207.1492
Precursor type: [M+H]+
m/z	relative intensity	assigned
117.057	473	C8H7N+
118.0648	153	C8H8N+
122.0961	999	C8H12N+
123.0795	307	C8H11O+
132.0792	249	C9H10N+
134.0944	183	C9H12N+
150.0891	193	C9H12NO+
