Mass spectrum: Flufenacet-ESA; LC-ESI-QTOF; MS2; CE: 30 eV; R=35000; [M+H]+
Name: Flufenacet-ESA
Name: 2-(4-fluoro-N-propan-2-ylanilino)-2-oxoethanesulfonic acid
Formula: C11H14FNO4S
Exact mass: 275.0627571
SMILES: CC(C)N(C(=O)CS(O)(=O)=O)C1=CC=C(F)C=C1
InChI: InChI=1S/C11H14FNO4S/c1-8(2)13(11(14)7-18(15,16)17)10-5-3-9(12)4-6-10/h3-6,8H,7H2,1-2H3,(H,15,16,17)
Instrument: Bruker maXis Impact
Instrument type: LC-ESI-QTOF
Ms type: MS2
Ion mode: POSITIVE
Ionization: ESI
Fragmentation mode: CID
Collision energy: 30 eV
Resolution: 35000
Column name: Acclaim RSLC C18 2.2um, 2.1x100mm, Thermo
Retention time: 5.5 min
Base peak: 150.1114
Precursor m/z: 276.07
Precursor type: [M+H]+
m/z	relative intensity	assigned
112.0553	313	C3H12O2S+
124.0542	492	C4H12O2S+
135.0465	999	C5H11O2S+
149.0233	474	C8H5O3+
152.0493	369	C11H6N+
216.0107	918	C11H6NO2S+
234.022	376	
