Mass spectrum: Clozapine; LC-ESI-QTOF; MS2; CE: 50 eV; R=35000; [M+H]+
Name: Clozapine
Name: 3-chloro-6-(4-methylpiperazin-1-yl)-5H-benzo[b][1,4]benzodiazepine
Formula: C18H19ClN4
Exact mass: 326.1298243
SMILES: CN1CCN(CC1)C2=NC3=C(C=CC(=C3)Cl)NC4=CC=CC=C42
InChI: InChI=1S/C18H19ClN4/c1-22-8-10-23(11-9-22)18-14-4-2-3-5-15(14)20-16-7-6-13(19)12-17(16)21-18/h2-7,12,20H,8-11H2,1H3
Instrument: Bruker maXis Impact
Instrument type: LC-ESI-QTOF
Ms type: MS2
Ion mode: POSITIVE
Ionization: ESI
Fragmentation mode: CID
Collision energy: 50 eV
Resolution: 35000
Column name: Acclaim RSLC C18 2.2um, 2.1x100mm, Thermo
Retention time: 7.3 min
Base peak: 327.1371
Precursor m/z: 327.1371
Precursor type: [M+H]+
m/z	relative intensity	assigned
192.0675	999	C13H8N2+
193.0707	104	C5H12ClN5O+
194.0782	5	C5H13ClN5O+
207.089	5	C14H11N2+
208.0981	5	C14H12N2+
215.0359	6	C13H3N4+
219.0663	5	C13H7N4+
226.0284	35	C13H7ClN2+
227.0364	91	C13H8ClN2+
228.0392	11	C12[13]CH8ClN2+
229.0333	23	C13H8[37]ClN2+
241.0508	5	C15H5N4+
270.0787	158	C15H13ClN3+
271.0818	22	C14[13]CH13ClN3+
272.0763	40	C15H13[37]ClN3+
