Mass spectrum: 2,2`-Methylenebis(6-tert-butyl-p-cresol); GC-APCI-QTOF; MS2; CE: 10 eV; R=35000; [M]+
Name: 2,2`-Methylenebis(6-tert-butyl-p-cresol)
Formula: C23H32O2
Exact mass: 340.2402
SMILES: CC1=CC(=C(C(=C1)C(C)(C)C)O)CC2=C(C(=CC(=C2)C)C(C)(C)C)O
InChI: InChI=1S/C23H32O2/c1-14-9-16(20(24)18(11-14)22(3,4)5)13-17-10-15(2)12-19(21(17)25)23(6,7)8/h9-12,24-25H,13H2,1-8H3
Instrument: Bruker 450 GC coupled to maXis Impact
Instrument type: GC-APCI-QTOF
Ms type: MS2
Ion mode: POSITIVE
Ionization: APCI
Fragmentation mode: CID
Collision energy: 10 eV
Resolution: 35000
Column name: Rxi-5Sil MS column, 30m, 0.25mm i.d., 0.25Âµm film thickness, Restek
Retention time: 19.993 min
Base peak: 309.2764
Precursor m/z: 340.2397
Precursor type: [M]+
m/z	relative intensity	assigned
125.0962	999	C8H13O+
137.0963	922	C9H13O+
155.1463	391	C10H19O+
171.1407	760	C10H19O2+
183.1389	573	C11H19O2+
243.2113	454	C18H27+
261.22	703	C18H29O+
263.2395	385	C18H31O+
277.2152	422	C18H29O2+
279.2329	774	C18H31O2+
295.2459	715	C22H31+
