Mass spectrum: Imazalil; LC-ESI-QTOF; MS2; CE: Ramp 20-30 eV; R=35000; [M+H]+
Name: Imazalil
Name: Enilconazole
Name: 1-[2-(2,4-dichlorophenyl)-2-prop-2-enoxyethyl]imidazole
Formula: C14H14Cl2N2O
Exact mass: 296.0483184
SMILES: ClC1=CC=C(C(CN2C=CN=C2)OCC=C)C(Cl)=C1
InChI: InChI=1S/C14H14Cl2N2O/c1-2-7-19-14(9-18-6-5-17-10-18)12-4-3-11(15)8-13(12)16/h2-6,8,10,14H,1,7,9H2
Instrument: Bruker maXis Impact
Instrument type: LC-ESI-QTOF
Ms type: MS2
Ion mode: POSITIVE
Ionization: ESI
Fragmentation mode: CID
Collision energy: Ramp 20-30 eV
Resolution: 35000
Column name: Acclaim RSLC C18 2.2um, 2.1x100mm, Thermo
Retention time: 8.645 min
Base peak: 297.0555
Precursor m/z: 297.0556
Precursor type: [M+H]+
m/z	relative intensity	assigned
45.0341	5	C2H5O+
53.0013	11	C3HO+
67.0414	6	C4H5N+
68.0486	5	C4H6N+
69.0442	937	C3H5N2+
70.0472	26	C2[13]CH5N2+
72.0437	17	C3H6NO+
80.049	5	C5H6N+
81.0444	152	C4H5N2+
82.0517	19	C4H6N2+
82.0648	44	C5H8N+
109.0777	185	C6H9N2+
110.0808	12	C5[13]CH9N2+
122.9985	5	C7H4Cl+
129.069	6	C10H9+
141.0692	25	C11H9+
149.0147	6	C9H6Cl+
150.0223	13	C9H7Cl+
158.9755	723	C7H5Cl2+
159.9787	56	C6[13]CH5Cl2+
160.9724	417	C7H5Cl[37]Cl+
161.9758	16	C5H4Cl2N2+
163.0306	6	C10H8Cl+
164.0375	18	C11H4N2+
172.991	133	C8H7Cl2+
173.9945	10	C7[13]CH7Cl2+
174.9883	74	C8H7Cl[37]Cl+
175.0297	16	C12H3N2+
176.0378	221	C11H9Cl+
177.0407	29	C10[13]CH9Cl+
178.0346	53	C11H9[37]Cl+
182.9748	8	C10ClN2+
184.9907	37	C10H2ClN2+
186.9702	20	C8H5Cl2O+
186.9877	18	C10H2[37]ClN2+
188.9675	11	C8H5Cl[37]ClO+
199.0066	33	C14HNO+
200.0089	5	C13[13]CHNO+
200.9861	254	C9H7Cl2O+
201.9884	22	C8[13]CH7Cl2O+
202.9832	139	C9H7Cl[37]ClO+
203.0359	12	C14H5NO+
203.9866	7	C7H6Cl2N2O+
211.007	36	C11H9Cl2+
212.0096	5	C10[13]CH9Cl2+
213.0035	22	C11H9Cl[37]Cl+
229.0181	11	C11H11Cl2O+
231.0138	8	C11H11Cl[37]ClO+
255.0085	286	C11H9Cl2N2O+
256.0106	34	C10[13]CH9Cl2N2O+
257.0052	155	C11H9Cl[37]ClN2O+
297.0559	999	C14H15Cl2N2O+
298.0586	188	C13[13]CH15Cl2N2O+
299.0532	562	C14H15Cl[37]ClN2O+
