Mass spectrum: Fenthion; LC-ESI-QTOF; MS2; CE: 50 eV; R=35000; [M+H]+
Name: Fenthion
Name: dimethoxy-(3-methyl-4-methylsulfanylphenoxy)-sulfanylidene-$l^{5}-phosphane
Formula: C10H15O3PS2
Exact mass: 278.0200230
SMILES: COP(=S)(OC)OC1=CC(C)=C(SC)C=C1
InChI: InChI=1S/C10H15O3PS2/c1-8-7-9(5-6-10(8)16-4)13-14(15,11-2)12-3/h5-7H,1-4H3
Instrument: Bruker maXis Impact
Instrument type: LC-ESI-QTOF
Ms type: MS2
Ion mode: POSITIVE
Ionization: ESI
Fragmentation mode: CID
Collision energy: 50 eV
Resolution: 35000
Column name: Acclaim RSLC C18 2.2um, 2.1x100mm, Thermo
Retention time: 10.9 min
Base peak: 279.0268
Precursor m/z: 279.0273
Precursor type: [M+H]+
m/z	relative intensity	assigned
121.0099	721	C7H5S+
121.0269	38	CH14PS2+
122.0172	281	H11O3PS+
123.0059	28	H12OPS2+
123.025	239	H12O3PS+
124.0321	25	H13O3PS+
124.9811	207	C2H6O2PS+
125.0407	247	H14O3PS+
134.0172	25	CH11O3PS+
135.0249	171	CH12O3PS+
136.0319	79	CH13O3PS+
137.0039	26	C10HO+
137.0404	74	CH14O3PS+
138.0501	55	C8H10S+
139.019	31	C10H3O+
142.9912	106	C2H8O3PS+
149.0217	103	C2H14OPS2+
152.9815	587	H10O3PS2+
153.0354	314	C8H9OS+
153.9887	314	H11O3PS2+
154.0401	46	C3H10N2O3S+
154.9757	43	C3H8OPS2+
154.9948	57	C10H3S+
155.9843	27	C9O3+
166.9958	43	CH12O3PS2+
168.0039	22	CH13O3PS2+
168.986	999	C7H6OPS+
169.0126	177	CH14O3PS2+
170.0188	33	CH15O3PS2+
170.9808	43	C6H5NOS2+
185.9902	23	C7H7O2PS+
199.9499	98	C7H5OPS2+
200.9604	22	C7H6OPS2+
202.991	21	C7H8O3PS+
214.9737	32	C8H8OPS2+
