Mass spectrum: Oxfendazole; LC-ESI-QTOF; MS2; CE: 30 eV; R=35000; [M+H]+
Name: Oxfendazole
Name: methyl N-[6-(benzenesulfinyl)-1H-benzimidazol-2-yl]carbamate
Formula: C15H13N3O3S
Exact mass: 315.0677623
SMILES: COC(=O)Nc1[nH]c2ccc(cc2n1)S(=O)c3ccccc3
InChI: InChI=1S/C15H13N3O3S/c1-21-15(19)18-14-16-12-8-7-11(9-13(12)17-14)22(20)10-5-3-2-4-6-10/h2-9H,1H3,(H2,16,17,18,19)
Instrument: Bruker maXis Impact
Instrument type: LC-ESI-QTOF
Ms type: MS2
Ion mode: POSITIVE
Ionization: ESI
Fragmentation mode: CID
Collision energy: 30 eV
Resolution: 35000
Column name: Acclaim RSLC C18 2.2um, 2.1x100mm, Thermo
Retention time: 6.5 min
Base peak: 238.1071
Precursor m/z: 316.075
Precursor type: [M+H]+
m/z	relative intensity	assigned
125.006	16	C6H5OS+
146.0712	39	C8H8N3+
159.0417	999	C8H5N3O+
160.0449	57	C7[13]CH5N3O+
175.0369	77	C8H5N3O2+
191.0315	167	C8H5N3O3+
191.0687	610	C9H9N3O2+
192.0708	59	C8[13]CH9N3O2+
207.0095	121	C8H5N3O2S+
207.0633	28	C9H9N3O3+
223.0585	146	C15H11S+
224.0643	19	C15H12S+
239.0357	97	C9H9N3O3S+
256.0886	21	C14H14N3S+
266.0372	42	C14H8N3OS+
267.0459	226	C14H9N3OS+
268.0509	35	C14H10N3OS+
284.0485	222	C14H10N3O2S+
285.0511	42	C14H11N3O2S+
299.0715	189	C15H13N3O2S+
300.0744	31	C15H14N3O2S+
316.0755	40	C15H14N3O3S+
