Mass spectrum: Propafenone; LC-ESI-QTOF; MS2; CE: 50 eV; R=35000; [M+H]+
Name: Propafenone
Name: 1-[2-[2-hydroxy-3-(propylamino)propoxy]phenyl]-3-phenylpropan-1-one
Formula: C21H27NO3
Exact mass: 341.1990937
SMILES: CCCNCC(COc1ccccc1C(=O)CCc2ccccc2)O
InChI: InChI=1S/C21H27NO3/c1-2-14-22-15-18(23)16-25-21-11-7-6-10-19(21)20(24)13-12-17-8-4-3-5-9-17/h3-11,18,22-23H,2,12-16H2,1H3
Instrument: Bruker maXis Impact
Instrument type: LC-ESI-QTOF
Ms type: MS2
Ion mode: POSITIVE
Ionization: ESI
Fragmentation mode: CID
Collision energy: 50 eV
Resolution: 35000
Column name: Acclaim RSLC C18 2.2um, 2.1x100mm, Thermo
Retention time: 7.723 min
Base peak: 342.2071
Precursor m/z: 342.2064
Precursor type: [M+H]+
m/z	relative intensity	assigned
115.0538	199	C9H7+
116.1064	999	C6H14NO+
117.0689	20	C9H9+
117.1099	88	C5[13]CH14NO+
121.0282	59	C7H5O2+
123.0427	19	C7H7O2+
128.0621	87	C10H8+
129.0689	79	C10H9+
131.0476	185	C9H7O+
133.0278	58	C8H5O2+
133.0629	76	C9H9O+
141.0685	24	C11H9+
145.0635	36	C10H9O+
151.0376	38	C8H7O3+
161.0583	79	C10H9O2+
162.0639	19	C10H10O2+
165.0694	65	C13H9+
166.0773	72	C13H10+
167.0843	21	C13H11+
172.0734	28	C11H10NO+
173.0589	26	C11H9O2+
178.0771	124	C14H10+
179.0843	29	C14H11+
181.0999	41	C14H13+
190.0757	30	C15H10+
191.0836	40	C15H11+
193.1021	22	C15H13+
194.0731	49	C14H10O+
202.0768	33	C16H10+
203.0862	39	C16H11+
204.0919	27	C16H12+
207.0804	22	C15H11O+
209.0958	38	C15H13O+
210.1022	20	C15H14O+
218.0744	19	C16H10O+
231.0814	33	C17H11O+
232.0865	22	C17H12O+
