Mass spectrum: Prothioconazole-desthio; LC-ESI-QTOF; MS2; CE: 40 eV; R=35000; [M+H]+
Name: Prothioconazole-desthio
Name: 2-(1-Chlorocyclopropyl)-1-(2-chlorophenyl)-3-(1H-1,2,4-triazol-1-yl)propan-2-ol
Name: 2-(1-chlorocyclopropyl)-1-(2-chlorophenyl)-3-(1,2,4-triazol-1-yl)propan-2-ol
Formula: C14H15Cl2N3O
Exact mass: 311.0592175
SMILES: OC(CN1C=NC=N1)(CC1=CC=CC=C1Cl)C1(Cl)CC1
InChI: InChI=1S/C14H15Cl2N3O/c15-12-4-2-1-3-11(12)7-14(20,13(16)5-6-13)8-19-10-17-9-18-19/h1-4,9-10,20H,5-8H2
Instrument: Bruker maXis Impact
Instrument type: LC-ESI-QTOF
Ms type: MS2
Ion mode: POSITIVE
Ionization: ESI
Fragmentation mode: CID
Collision energy: 40 eV
Resolution: 35000
Column name: Acclaim RSLC C18 2.2um, 2.1x100mm, Thermo
Retention time: 10.459 min
Base peak: 312.0661
Precursor m/z: 312.0665
Precursor type: [M+H]+
m/z	relative intensity	assigned
115.0535	31	C9H7+
116.061	17	Cl2H16NO+
125.0146	999	C7H6Cl+
126.0174	70	C6[13]CH6Cl+
127.0113	246	C7H6[37]Cl+
128.0146	12	C4H10Cl2+
128.0604	31	CH16Cl2NO+
129.069	33	C10H9+
130.0758	15	C2H13ClN3O+
130.1211	6	C7H16NO+
137.014	14	C9HN2+
139.0293	42	C8H8Cl+
140.0333	5	C7[13]CH8Cl+
141.0278	10	C8H8[37]Cl+
141.0693	51	C11H9+
142.0764	58	C11H10+
143.0824	14	C3H14ClN3O+
144.092	10	C11H12+
149.014	22	C10HN2+
151.0293	45	C9H8Cl+
152.0608	37	C3H16Cl2NO+
153.027	11	C9H8[37]Cl+
153.0684	85	C12H9+
154.0762	113	C12H10+
155.025	6	C6H6ClN3+
155.0585	9	CH15Cl2N3O+
155.0815	18	C11[13]CH10+
158.9754	14	C8ClN2+
160.9717	7	C8[37]ClN2+
162.0216	16	C2H10Cl2N3O+
163.0295	20	C11H3N2+
164.0172	5	C2H10Cl[37]ClN3O+
165.0689	5	C13H9+
169.0744	8	C11H9N2+
172.0257	7	C6H7ClN3O+
175.0302	5	C11H8Cl+
176.0374	6	C12H4N2+
177.0458	17	C11H10Cl+
189.0199	5	C13H3NO+
189.045	24	C4H13Cl2N3O+
190.0506	5	C4H14Cl2N3O+
191.0403	7	C4H13Cl[37]ClN3O+
