Mass spectrum: 4-Hydroxy-1-(2-hydroxyethyl)-2,2,6,6-tetramethylpiperidine; LC-ESI-QTOF; MS2; CE: 30 eV; R=35000; [M+H]+
Name: 4-Hydroxy-1-(2-hydroxyethyl)-2,2,6,6-tetramethylpiperidine
Name: 1-Piperidineethanol, 4-hydroxy-2,2,6,6-tetramethyl-
Name: 1-(2-hydroxyethyl)-2,2,6,6-tetramethylpiperidin-4-ol
Formula: C11H23NO2
Exact mass: 201.1728790
SMILES: CC1(C)CC(O)CC(C)(C)N1CCO
InChI: InChI=1S/C11H23NO2/c1-10(2)7-9(14)8-11(3,4)12(10)5-6-13/h9,13-14H,5-8H2,1-4H3
Instrument: Bruker maXis Impact
Instrument type: LC-ESI-QTOF
Ms type: MS2
Ion mode: POSITIVE
Ionization: ESI
Fragmentation mode: CID
Collision energy: 30 eV
Resolution: 35000
Column name: Acclaim RSLC C18 2.2um, 2.1x100mm, Thermo
Retention time: 1.333 min
Base peak: 202.1795
Precursor m/z: 202.1802
Precursor type: [M+H]+
m/z	relative intensity	assigned
121.1007	23	C9H13+
123.1155	447	C9H15+
124.1194	35	C8[13]CH15+
128.1057	176	C7H14NO+
141.1138	62	C8H15NO+
142.1209	32	C8H16NO+
146.1162	139	C7H16NO2+
184.1689	95	C11H22NO+
202.179	999	C11H24NO2+
203.1826	149	C10[13]CH24NO2+
