Mass spectrum: Isophorone diisocyanate; GC-APCI-QTOF; MS2; CE: 10 eV; R=35000; [M+H]+
Name: Isophorone diisocyanate
Formula: C12H18N2O2
Exact mass: 222.1368
SMILES: CC1(CC(CC(C1)(C)CN=C=O)N=C=O)C
InChI: InChI=1S/C12H18N2O2/c1-11(2)4-10(14-9-16)5-12(3,6-11)7-13-8-15/h10H,4-7H2,1-3H3
Instrument: Bruker 450 GC coupled to maXis Impact
Instrument type: GC-APCI-QTOF
Ms type: MS2
Ion mode: POSITIVE
Ionization: APCI
Fragmentation mode: CID
Collision energy: 10 eV
Resolution: 35000
Column name: Rxi-5Sil MS column, 30m, 0.25mm i.d., 0.25Âµm film thickness, Restek
Retention time: 16.351 min
Base peak: 149.0244
Precursor m/z: 223.1441
Precursor type: [M+H]+
m/z	relative intensity	assigned
123.1162	5	C9H15+
149.0247	999	C11H3N+
151.0295	9	C10H3N2+
167.0355	76	C11H5NO+
168.0426	5	C11H6NO+
