Mass spectrum: Methotrexate; LC-ESI-QTOF; MS2; CE: 50 eV; R=35000; [M+H]+
Name: Methotrexate
Name: (2S)-2-[[4-[(2,4-diaminopteridin-6-yl)methyl-methylamino]benzoyl]amino]pentanedioic acid
Formula: C20H22N8O5
Exact mass: 454.1713158
SMILES: CN(CC1=NC2=C(N=C1)N=C(N)N=C2N)C1=CC=C(C=C1)C(=O)N[C@@H](CCC(O)=O)C(O)=O
InChI: InChI=1S/C20H22N8O5/c1-28(9-11-8-23-17-15(24-11)16(21)26-20(22)27-17)12-4-2-10(3-5-12)18(31)25-13(19(32)33)6-7-14(29)30/h2-5,8,13H,6-7,9H2,1H3,(H,25,31)(H,29,30)(H,32,33)(H4,21,22,23,26,27)/t13-/m0/s1
Instrument: Bruker maXis Impact
Instrument type: LC-ESI-QTOF
Ms type: MS2
Ion mode: POSITIVE
Ionization: ESI
Fragmentation mode: CID
Collision energy: 50 eV
Resolution: 35000
Column name: Acclaim RSLC C18 2.2um, 2.1x100mm, Thermo
Retention time: 3.930 min
Base peak: 407.2205
Precursor m/z: 455.1786
Precursor type: [M+H]+
m/z	relative intensity	assigned
121.0496	9	C4H9O4+
133.0496	58	C5H9O4+
134.0593	425	C6H6N4+
135.0623	42	C5[13]CH6N4+
148.0609	21	C5H10NO4+
149.0662	6	C3H9N4O3+
160.0605	24	C6H10NO4+
163.0697	5	C3H9N5O3+
175.0716	999	C6H11N2O4+
176.0779	269	C4H10N5O3+
177.0864	92	C6H13N2O4+
178.0897	7	C5[13]CH13N2O4+
308.1249	41	C17H16N4O2+
309.1309	7	C16[13]CH16N4O2+
