Mass spectrum: Roxithromycin; LC-ESI-QTOF; MS2; CE: 30 eV; R=35000; [M+H]+
Name: Roxithromycin
Name: (3R,4S,5S,6R,7R,9R,10E,11S,12R,13S,14R)-6-[(2S,3R,4S,6R)-4-(dimethylamino)-3-hydroxy-6-methyloxan-2-yl]oxy-14-ethyl-7,12,13-trihydroxy-4-[(2R,4R,5S,6S)-5-hydroxy-4-methoxy-4,6-dimethyloxan-2-yl]oxy-10-(2-methoxyethoxymethoxyimino)-3,5,7,9,11,13-hexamethyl-oxacyclotetradecan-2-one
Formula: C41H76N2O15
Exact mass: 836.5245697
SMILES: CC[C@@H]1[C@@]([C@@H]([C@H](/C(=N/OCOCCOC)/[C@@H](C[C@@]([C@@H]([C@H]([C@@H]([C@H](C(=O)O1)C)O[C@H]2C[C@@]([C@H]([C@@H](O2)C)O)(C)OC)C)O[C@H]3[C@@H]([C@H](C[C@H](O3)C)N(C)C)O)(C)O)C)C)O)(C)O
InChI: InChI=1S/C41H76N2O15/c1-15-29-41(10,49)34(45)24(4)31(42-53-21-52-17-16-50-13)22(2)19-39(8,48)36(58-38-32(44)28(43(11)12)18-23(3)54-38)25(5)33(26(6)37(47)56-29)57-30-20-40(9,51-14)35(46)27(7)55-30/h22-30,32-36,38,44-46,48-49H,15-21H2,1-14H3/b42-31+/t22-,23-,24+,25+,26-,27+,28+,29-,30+,32-,33+,34-,35+,36-,38+,39-,40-,41-/m1/s1
Instrument: Bruker maXis Impact
Instrument type: LC-ESI-QTOF
Ms type: MS2
Ion mode: POSITIVE
Ionization: ESI
Fragmentation mode: CID
Collision energy: 30 eV
Resolution: 35000
Column name: Acclaim RSLC C18 2.2um, 2.1x100mm, Thermo
Retention time: 9.343 min
Base peak: 837.5368
Precursor m/z: 837.5318
Precursor type: [M+H]+
m/z	relative intensity	assigned
116.0715	8	C5H10NO2+
116.1075	31	C6H14NO+
127.076	14	C7H11O2+
158.1184	999	C8H16NO2+
159.1028	6	C8H15O3+
159.1216	78	C5H19O5+
160.1227	5	C4[13]CH19O5+
316.2139	37	C19H28N2O2+
317.217	5	C18[13]CH28N2O2+
383.2477	6	C27H31N2+
398.2549	11	C21H36NO6+
416.2687	7	C11H44O15+
446.2775	5	C25H38N2O5+
522.3341	66	C33H46O5+
523.3375	19	C32[13]CH46O5+
540.3571	22	C32H48N2O5+
541.3608	8	C31[13]CH48N2O5+
555.3688	12	C34H51O6+
558.3672	63	C32H50N2O6+
559.3718	27	C29H53NO9+
560.3704	5	C28[13]CH53NO9+
573.3804	16	C22H57N2O14+
574.3818	5	C21[13]CH57N2O14+
603.3904	22	C23H59N2O15+
604.3954	8	C22[13]CH59N2O15+
661.4322	21	C38H61O9+
662.4357	10	C37[13]CH61O9+
679.4442	968	C41H61NO7+
680.4467	373	C33H64N2O12+
681.4486	66	C40H61N2O7+
682.4491	10	C39[13]CH61N2O7+
716.4681	5	C33H68N2O14+
837.5398	81	C41H77N2O15+
838.5434	49	C40[13]CH77N2O15+
