Mass spectrum: Norethindrone; LC-ESI-QTOF; MS2; CE: 50 eV; R=35000; [M+H]+
Name: Norethindrone
Name: (8R,9S,10R,13S,14S,17R)-17-ethynyl-17-hydroxy-13-methyl-1,2,6,7,8,9,10,11,12,14,15,16-dodecahydrocyclopenta[a]phenanthren-3-one
Formula: C20H26O2
Exact mass: 298.1932801
SMILES: C[C@]12CC[C@H]3[C@@H](CCC4=CC(=O)CC[C@H]34)[C@@H]1CC[C@@]2(O)C#C
InChI: InChI=1S/C20H26O2/c1-3-20(22)11-9-18-17-6-4-13-12-14(21)5-7-15(13)16(17)8-10-19(18,20)2/h1,12,15-18,22H,4-11H2,2H3/t15-,16+,17+,18-,19-,20-/m0/s1
Instrument: Bruker maXis Impact
Instrument type: LC-ESI-QTOF
Ms type: MS2
Ion mode: POSITIVE
Ionization: ESI
Fragmentation mode: CID
Collision energy: 50 eV
Resolution: 35000
Column name: Acclaim RSLC C18 2.2um, 2.1x100mm, Thermo
Retention time: 9.387 min
Base peak: 299.2005
Precursor m/z: 299.2006
Precursor type: [M+H]+
m/z	relative intensity	assigned
115.0537	490	C9H7+
116.0595	124	C9H8+
117.0694	248	C9H9+
118.0721	28	C8[13]CH9+
119.0848	230	C9H11+
120.088	28	C8[13]CH11+
121.0636	41	C8H9O+
121.1009	47	C9H13+
123.0799	56	C8H11O+
126.046	13	C10H6+
127.0536	63	C10H7+
128.0611	999	C10H8+
129.0684	777	C10H9+
130.0755	271	C10H10+
131.0484	34	C9H7O+
131.0845	434	C10H11+
132.0559	27	C9H8O+
132.0884	57	C9[13]CH11+
133.0641	105	C9H9O+
133.1002	112	C10H13+
134.07	25	C9H10O+
135.0791	285	C9H11O+
135.1166	20	C10H15+
136.0827	31	C8[13]CH11O+
137.0931	12	C9H13O+
141.0686	627	C11H9+
142.076	428	C11H10+
143.0842	501	C11H11+
144.0565	26	C10H8O+
144.0902	107	C11H12+
145.0642	125	C10H9O+
145.1002	261	C11H13+
146.0706	62	C10H10O+
146.1032	28	C10[13]CH13+
147.0789	95	C10H11O+
147.116	37	C11H15+
148.086	32	C10H12O+
149.095	96	C10H13O+
152.0607	96	C12H8+
153.0687	225	C12H9+
154.0757	191	C12H10+
155.0838	346	C12H11+
156.0917	223	C12H12+
157.0637	40	C11H9O+
157.0995	210	C12H13+
158.07	24	C11H10O+
158.1065	52	C12H14+
159.0792	59	C11H11O+
159.1156	73	C12H15+
160.0874	24	C11H12O+
160.1174	10	C11[13]CH15+
161.0945	173	C11H13O+
161.1317	60	C12H17+
162.1007	34	C11H14O+
163.1108	33	C11H15O+
165.0686	253	C13H9+
166.0755	120	C13H10+
167.0838	186	C13H11+
168.0902	103	C13H12+
169.064	20	C12H9O+
169.0997	168	C13H13+
170.1064	58	C13H14+
171.0793	14	C12H11O+
171.1157	155	C13H15+
172.1193	35	C12[13]CH15+
173.0954	24	C12H13O+
173.1299	47	C13H17+
174.1039	15	C12H14O+
175.1119	48	C12H15O+
178.076	136	C14H10+
179.0839	169	C14H11+
180.0908	62	C14H12+
181.0996	143	C14H13+
182.0741	9	C13H10O+
182.1058	60	C14H14+
183.0795	15	C13H11O+
183.1158	62	C14H15+
184.1206	9	C13[13]CH15+
185.0952	18	C13H13O+
185.1306	47	C14H17+
187.1101	21	C13H15O+
187.1487	13	C14H19+
188.1171	33	C13H16O+
189.0694	10	C15H9+
189.1276	17	C13H17O+
190.0757	20	C15H10+
191.0838	67	C15H11+
192.0925	85	C15H12+
193.0996	111	C15H13+
194.1058	30	C14[13]CH13+
195.0772	11	C14H11O+
195.1138	63	C15H15+
196.1235	25	C15H16+
197.0937	9	C14H13O+
197.1307	29	C15H17+
198.0997	14	C14H14O+
198.141	14	C15H18+
199.1111	12	C14H15O+
201.127	19	C14H17O+
202.1328	34	C14H18O+
203.083	23	C16H11+
204.0931	26	C16H12+
205.1001	65	C16H13+
206.1063	43	C16H14+
207.1152	54	C16H15+
208.1211	28	C16H16+
209.1296	25	C16H17+
210.138	10	C16H18+
211.1085	10	C15H15O+
211.1475	22	C16H19+
213.161	19	C16H21+
218.1095	14	C17H14+
219.1157	23	C17H15+
220.1224	16	C17H16+
221.1304	14	C17H17+
223.1125	14	C16H15O+
223.1463	13	C17H19+
231.1737	13	C16H23O+
233.132	12	C18H17+
247.1434	9	C19H19+
