Mass spectrum: Fenbendazole; LC-ESI-QTOF; MS2; CE: 20 eV; R=35000; [M+H]+
Name: Fenbendazole
Name: methyl N-(6-phenylsulfanyl-1H-benzimidazol-2-yl)carbamate
Formula: C15H13N3O2S
Exact mass: 299.0728477
SMILES: CO/C(=N/c1[nH]c2cc(ccc2n1)Sc3ccccc3)/O
InChI: InChI=1S/C15H13N3O2S/c1-20-15(19)18-14-16-12-8-7-11(9-13(12)17-14)21-10-5-3-2-4-6-10/h2-9H,1H3,(H2,16,17,18,19)
Instrument: Bruker maXis Impact
Instrument type: LC-ESI-QTOF
Ms type: MS2
Ion mode: POSITIVE
Ionization: ESI
Fragmentation mode: CID
Collision energy: 20 eV
Resolution: 35000
Column name: Acclaim RSLC C18 2.2um, 2.1x100mm, Thermo
Retention time: 10.2 min
Base peak: 300.0798
Precursor m/z: 300.0801
Precursor type: [M+H]+
m/z	relative intensity	assigned
159.0428	11	C8H5N3O+
268.054	999	C14H10N3OS+
269.0571	106	C13[13]CH10N3OS+
270.051	32	C14H10N3O[34]S+
300.0801	555	C15H14N3O2S+
301.0829	73	C14[13]CH14N3O2S+
302.0822	14	C15H14N3O2[34]S+
