Mass spectrum: Diazepam; LC-ESI-QTOF; MS2; CE: 40 eV; R=35000; [M+H]+
Name: Diazepam
Name: 7-chloro-1-methyl-5-phenyl-3H-1,4-benzodiazepin-2-one
Formula: C16H13ClN2O
Exact mass: 284.0716407
SMILES: CN1C2=C(C=C(Cl)C=C2)C(=NCC1=O)C1=CC=CC=C1
InChI: InChI=1S/C16H13ClN2O/c1-19-14-8-7-12(17)9-13(14)16(18-10-15(19)20)11-5-3-2-4-6-11/h2-9H,10H2,1H3
Instrument: Bruker maXis Impact
Instrument type: LC-ESI-QTOF
Ms type: MS2
Ion mode: POSITIVE
Ionization: ESI
Fragmentation mode: CID
Collision energy: 40 eV
Resolution: 35000
Column name: Acclaim RSLC C18 2.2um, 2.1x100mm, Thermo
Retention time: 9.3 min
Base peak: 285.0791
Precursor m/z: 285.0789
Precursor type: [M+H]+
m/z	relative intensity	assigned
116.0492	16	C8H6N+
117.0568	39	C8H7N+
118.0644	32	C8H8N+
119.0723	16	C8H9N+
125.0145	46	C7H6Cl+
126.0202	7	C8H2N2+
127.0119	11	CH6ClN3O2+
131.0602	7	C8H7N2+
138.01	15	C10H2O+
139.0172	13	C10H3O+
140.0252	12	C10H4O+
141.0327	11	C10H5O+
143.0596	47	C9H7N2+
144.0672	22	C9H8N2+
145.0746	7	C9H9N2+
147.0672	24	C9H9NO+
150.0097	21	C11H2O+
151.0163	7	C11H3O+
152.0069	5	C2H5ClN4O2+
152.0248	16	C11H4O+
154.0413	481	C11H6O+
155.0443	29	C3H10ClN3O2+
156.038	96	C2H9ClN4O2+
157.0405	6	C9H5N2O+
163.0051	5	C11HNO+
165.0206	9	C11H3NO+
165.0691	31	C13H9+
166.0756	12	C13H10+
167.0128	33	C8H6ClNO+
169.0091	7	C14H+
172.0624	71	C10H8N2O+
177.0204	15	C12H3NO+
179.0365	64	C12H5NO+
180.0204	32	C9H7ClNO+
180.0407	7	C12H6NO+
180.08	23	C13H10N+
181.033	13	C9H8ClNO+
181.0869	10	C13H11N+
182.0173	7	C15H2+
182.0364	15	C9H9ClNO+
191.0721	23	C14H9N+
192.0801	35	C14H10N+
193.0884	999	C14H11N+
194.0927	116	C14H12N+
195.0991	10	C9H13N3O2+
199.0304	6	C13H8Cl+
204.0802	38	C15H10N+
205.0861	19	C15H11N+
206.0837	61	C14H10N2+
207.0911	66	C14H11N2+
208.0966	13	C14H12N2+
214.0416	6	C13H9ClN+
216.0571	30	C16H8O+
217.0604	5	C16H9O+
218.0544	6	C7H11ClN4O2+
220.0989	9	C15H12N2+
221.0833	17	C15H11NO+
221.1073	71	C15H13N2+
222.115	402	C15H14N2+
226.0417	11	C14H9ClN+
227.0491	57	C14H10ClN+
228.0571	141	C14H11ClN+
229.0474	15	C16H7NO+
229.0582	19	C9H12ClN3O2+
230.0539	33	C14H11ClO+
230.0721	13	C14H13ClN+
239.0368	5	C14H8ClN2+
240.0564	11	C15H11ClN+
241.0527	168	C14H10ClN2+
242.0578	43	C14H11ClN2+
243.0497	40	C14H10ClNO+
244.0559	8	C14H11ClNO+
255.0682	59	C15H12ClN2+
256.0728	11	C15H13ClN2+
257.0653	14	C15H12ClNO+
257.0838	61	C15H14ClN2+
258.0867	9	C16H10N4+
259.0809	14	C15H14ClNO+
269.0476	9	C15H10ClN2O+
