Mass spectrum: Pirimicarb; LC-ESI-QTOF; MS2; CE: 40 eV; R=35000; [M+H]+
Name: Pirimicarb
Name: [2-(dimethylamino)-5,6-dimethylpyrimidin-4-yl] N,N-dimethylcarbamate
Formula: C11H18N4O2
Exact mass: 238.1429758
SMILES: CN(C)C(=O)OC1=C(C)C(C)=NC(=N1)N(C)C
InChI: InChI=1S/C11H18N4O2/c1-7-8(2)12-10(14(3)4)13-9(7)17-11(16)15(5)6/h1-6H3
Instrument: Bruker maXis Impact
Instrument type: LC-ESI-QTOF
Ms type: MS2
Ion mode: POSITIVE
Ionization: ESI
Fragmentation mode: CID
Collision energy: 40 eV
Resolution: 35000
Column name: Acclaim RSLC C18 2.2um, 2.1x100mm, Thermo
Retention time: 7.750 min
Base peak: 239.1503
Precursor m/z: 239.1503
Precursor type: [M+H]+
m/z	relative intensity	assigned
109.0752	25	C6H9N2+
123.0536	78	C6H7N2O+
123.0893	8	C2H11N4O2+
124.0622	196	C6H8N2O+
125.0679	24	C6H9N2O+
134.0686	8	C7H8N3+
135.0762	8	C7H9N3+
136.0869	7	C7H10N3+
137.0699	645	C7H9N2O+
138.0774	849	C7H10N2O+
139.0842	126	C7H11N2O+
140.0848	17	C8H12O2+
149.0938	15	C8H11N3+
150.1012	412	C10H14O+
151.1051	59	C9[13]CH14O+
152.0805	999	C7H10N3O+
153.0837	98	C6[13]CH10N3O+
154.0845	9	C6H10N4O+
156.0518	69	C9H6N3+
157.0549	7	C10H7NO+
164.079	12	C8H10N3O+
165.1119	12	C8H13N4+
166.0957	114	C8H12N3O+
167.1037	266	C8H13N3O+
180.112	57	C11H16O2+
181.1142	12	C10[13]CH16O2+
182.127	859	C9H16N3O+
183.1307	83	C8[13]CH16N3O+
184.1308	7	C8H16N4O+
195.1593	49	C10H19N4+
199.0963	7	C11H11N4+
