Mass spectrum: 3,4,5-Trichlorophenol; LC-ESI-QTOF; MS2; CE: 10 eV; R=35000; [M-H]-
Name: 3,4,5-Trichlorophenol
Formula: C6H3Cl3O
Exact mass: 195.9249478
SMILES: OC1=CC(Cl)=C(Cl)C(Cl)=C1
InChI: InChI=1S/C6H3Cl3O/c7-4-1-3(10)2-5(8)6(4)9/h1-2,10H
Instrument: Bruker maXis Impact
Instrument type: LC-ESI-QTOF
Ms type: MS2
Ion mode: NEGATIVE
Ionization: ESI
Fragmentation mode: CID
Collision energy: 10 eV
Resolution: 35000
Column name: Acclaim RSLC C18 2.2um, 2.1x100mm, Thermo
Retention time: 10.760 min
Base peak: 194.9174
Precursor m/z: 194.9177
Precursor type: [M-H]-
m/z	relative intensity	assigned
158.9408	248	C6HCl2O-
159.9435	13	C5[13]CHCl2O-
160.9371	99	C6HCl[37]ClO-
194.9172	999	C6H2Cl3O-
195.9201	79	C5[13]CH2Cl3O-
196.9144	816	C6H2Cl2[37]ClO-
