Mass spectrum: Dimethenamid-OA; LC-ESI-QTOF; MS2; CE: 30 eV; R=35000; [M+H]+
Name: Dimethenamid-OA
Name: [(2,4-Dimethylthiophen-3-yl)(1-methoxypropan-2-yl)amino](oxo)acetic acid
Name: 2-[(2,4-dimethylthiophen-3-yl)-(1-methoxypropan-2-yl)amino]-2-oxoacetic acid
Formula: C12H17NO4S
Exact mass: 271.0878290
SMILES: COCC(C)N(C(=O)C(O)=O)C1=C(C)SC=C1C
InChI: InChI=1S/C12H17NO4S/c1-7-6-18-9(3)10(7)13(8(2)5-17-4)11(14)12(15)16/h6,8H,5H2,1-4H3,(H,15,16)
Instrument: Bruker maXis Impact
Instrument type: LC-ESI-QTOF
Ms type: MS2
Ion mode: POSITIVE
Ionization: ESI
Fragmentation mode: CID
Collision energy: 30 eV
Resolution: 35000
Column name: Acclaim RSLC C18 2.2um, 2.1x100mm, Thermo
Retention time: 6.498 min
Base peak: 272.0938
Precursor m/z: 272.0951
Precursor type: [M+H]+
m/z	relative intensity	assigned
111.0245	55	C9H3+
125.0407	73	C7H9S+
126.0359	774	C6H8NS+
127.0184	43	C9H3O+
127.0401	86	C5[13]CH8NS+
132.0786	59	C6H12O3+
133.0871	63	C6H13O3+
134.094	74	C6H14O3+
135.1027	109	C6H15O3+
138.0361	518	C7H8NS+
139.0191	49	C10H3O+
139.0396	58	C6[13]CH8NS+
140.0517	57	C7H10NS+
151.0553	50	C12H7+
152.0154	70	C7H6NOS+
152.0516	192	C8H10NS+
153.0585	104	C5H13O3S+
154.0302	624	C4H10O4S+
156.0255	41	C4H10O4[34]S+
161.0836	43	C10H11NO+
166.0665	255	C6H14O3S+
167.0728	74	C12H9N+
168.0825	560	C6H16O3S+
169.0854	66	C5[13]CH16O3S+
194.0599	87	C7H14O4S+
196.0769	171	C7H16O4S+
212.0737	77	C10H14NO2S+
240.0672	999	C11H14NO3S+
241.0705	161	C10[13]CH14NO3S+
