Mass spectrum: Clopidol; LC-ESI-QTOF; MS2; CE: 30 eV; R=35000; [M+H]+
Name: Clopidol
Name: 3,5-dichloro-2,6-dimethyl-1H-pyridin-4-one
Formula: C7H7Cl2NO
Exact mass: 190.9904692
SMILES: Cc1c(c(c(c(n1)C)Cl)O)Cl
InChI: InChI=1S/C7H7Cl2NO/c1-3-5(8)7(11)6(9)4(2)10-3/h1-2H3,(H,10,11)
Instrument: Bruker maXis Impact
Instrument type: LC-ESI-QTOF
Ms type: MS2
Ion mode: POSITIVE
Ionization: ESI
Fragmentation mode: CID
Collision energy: 30 eV
Resolution: 35000
Column name: Acclaim RSLC C18 2.2um, 2.1x100mm, Thermo
Retention time: 4.1 min
Base peak: 191.9973
Precursor m/z: 191.9977
Precursor type: [M+H]+
m/z	relative intensity	assigned
120.044	5	C7H6NO+
120.9603	16	C4H3Cl2+
122.0599	7	C7H8NO+
122.9566	6	C4H3Cl[37]Cl+
128.0257	40	C6H7ClN+
129.0327	10	C6H8ClN+
130.0224	7	C6H7[37]ClN+
156.0201	45	C7H7ClNO+
157.0282	62	C7H8ClNO+
158.0176	8	C7H7[37]ClNO+
159.0247	10	C7H8[37]ClNO+
190.9897	26	C7H7Cl2NO+
191.9973	999	C7H8Cl2NO+
192.9885	11	C7H7Cl[37]ClNO+
193.0003	42	C6[13]CH8Cl2NO+
193.9944	424	C7H8Cl[37]ClNO+
194.9989	10	C5H7Cl2N3O+
