Mass spectrum: Haloperidol; LC-ESI-QTOF; MS2; CE: 50 eV; R=35000; [M+H]+
Name: Haloperidol
Name: 4-[4-(4-chlorophenyl)-4-hydroxypiperidin-1-yl]-1-(4-fluorophenyl)butan-1-one
Formula: C21H23ClFNO2
Exact mass: 375.1401349
SMILES: c1cc(ccc1C(=O)CCCN2CCC(CC2)(c3ccc(cc3)Cl)O)F
InChI: InChI=1S/C21H23ClFNO2/c22-18-7-5-17(6-8-18)21(26)11-14-24(15-12-21)13-1-2-20(25)16-3-9-19(23)10-4-16/h3-10,26H,1-2,11-15H2
Instrument: Bruker maXis Impact
Instrument type: LC-ESI-QTOF
Ms type: MS2
Ion mode: POSITIVE
Ionization: ESI
Fragmentation mode: CID
Collision energy: 50 eV
Resolution: 35000
Column name: Acclaim RSLC C18 2.2um, 2.1x100mm, Thermo
Retention time: 7.6 min
Base peak: 376.1473
Precursor m/z: 376.1474
Precursor type: [M+H]+
m/z	relative intensity	assigned
123.0233	999	C10H3+
124.0269	51	C9[13]CH3+
165.0702	246	C13H9+
166.0743	14	C12[13]CH9+
206.0964	5	C15H12N+
