Mass spectrum: Ketamine; LC-ESI-QTOF; MS2; CE: 50 eV; R=35000; [M+H]+
Name: Ketamine
Name: 2-(2-chlorophenyl)-2-(methylamino)cyclohexan-1-one
Formula: C13H16ClNO
Exact mass: 237.0920418
SMILES: CNC1(CCCCC1=O)C1=CC=CC=C1Cl
InChI: InChI=1S/C13H16ClNO/c1-15-13(9-5-4-8-12(13)16)10-6-2-3-7-11(10)14/h2-3,6-7,15H,4-5,8-9H2,1H3
Instrument: Bruker maXis Impact
Instrument type: LC-ESI-QTOF
Ms type: MS2
Ion mode: POSITIVE
Ionization: ESI
Fragmentation mode: CID
Collision energy: 50 eV
Resolution: 35000
Column name: Acclaim RSLC C18 2.2um, 2.1x100mm, Thermo
Retention time: 4.519 min
Base peak: 238.0989
Precursor m/z: 238.0993
Precursor type: [M+H]+
m/z	relative intensity	assigned
115.0537	117	C9H7+
116.0611	46	C9H8+
117.0641	5	C8[13]CH8+
125.0144	999	C7H6Cl+
126.0176	57	C6[13]CH6Cl+
126.0455	7	C10H6+
127.0115	260	C7H6[37]Cl+
127.053	23	C10H7+
128.0612	240	C10H8+
129.0685	128	C10H9+
130.0753	32	C10H10+
138.9943	5	C7H4ClO+
141.0089	15	C7H6ClO+
141.0688	26	C11H9+
142.0753	9	C11H10+
143.0842	6	C11H11+
144.0558	13	C10H8O+
145.0633	20	C10H9O+
149.0141	21	C9H6Cl+
151.0113	5	C9H6[37]Cl+
151.0296	11	C9H8Cl+
152.0248	13	C11H4O+
152.0607	47	C12H8+
153.0684	71	C12H9+
154.0755	27	C12H10+
155.0591	38	C9H12Cl+
155.0825	6	C12H11+
157.0873	6	C11H11N+
162.0216	5	C10H7Cl+
163.0295	16	C10H8Cl+
165.0088	44	C9H6ClO+
167.0058	13	C9H6[37]ClO+
