Mass spectrum: 2-Hydroxycarbamazepine; LC-ESI-QTOF; MS2; CE: 10 eV; R=35000; [M+H]+
Name: 2-Hydroxycarbamazepine
Name: 3-hydroxybenzo[b][1]benzazepine-11-carboxamide
Formula: C15H12N2O2
Exact mass: 252.0898776
SMILES: NC(=O)N1C2=CC=CC=C2C=CC2=CC(O)=CC=C12
InChI: InChI=1S/C15H12N2O2/c16-15(19)17-13-4-2-1-3-10(13)5-6-11-9-12(18)7-8-14(11)17/h1-9,18H,(H2,16,19)
Instrument: Bruker maXis Impact
Instrument type: LC-ESI-QTOF
Ms type: MS2
Ion mode: POSITIVE
Ionization: ESI
Fragmentation mode: CID
Collision energy: 10 eV
Resolution: 35000
Column name: Acclaim RSLC C18 2.2um, 2.1x100mm, Thermo
Retention time: 6.034 min
Base peak: 253.0961
Precursor m/z: 253.0972
Precursor type: [M+H]+
m/z	relative intensity	assigned
194.0952	29	C14H12N+
208.0744	7	C14H10NO+
210.0905	48	C14H12NO+
211.0934	6	C13[13]CH12NO+
237.1014	290	C15H13N2O+
238.1043	24	C14[13]CH13N2O+
253.0966	999	C15H13N2O2+
254.0996	144	C14[13]CH13N2O2+
255.1068	14	C13[13]C2H13N2O2+
