Mass spectrum: Nitrendipin; LC-ESI-QTOF; MS2; CE: Ramp 26.4-39.5 eV; R=35000; [M-H]-
Name: Nitrendipin
Name: Nitrendipine
Name: 5-O-ethyl 3-O-methyl 2,6-dimethyl-4-(3-nitrophenyl)-1,4-dihydropyridine-3,5-dicarboxylate
Formula: C18H20N2O6
Exact mass: 360.1321364
SMILES: CCOC(=O)C1=C(C)NC(C)=C(C1C1=CC=CC(=C1)[N+]([O-])=O)C(=O)OC
InChI: InChI=1S/C18H20N2O6/c1-5-26-18(22)15-11(3)19-10(2)14(17(21)25-4)16(15)12-7-6-8-13(9-12)20(23)24/h6-9,16,19H,5H2,1-4H3
Instrument: Bruker maXis Impact
Instrument type: LC-ESI-QTOF
Ms type: MS2
Ion mode: NEGATIVE
Ionization: ESI
Fragmentation mode: CID
Collision energy: Ramp 26.4-39.5 eV
Resolution: 35000
Column name: Acclaim RSLC C18 2.2um, 2.1x100mm, Thermo
Retention time: 9.739 min
Base peak: 359.1246
Precursor m/z: 359.1249
Precursor type: [M-H]-
m/z	relative intensity	assigned
45.9925	999	NO2-
82.0041	59	C4H2O2-
92.0266	120	C6H4O-
95.0112	102	H3N2O4-
108.0193	93	CH4N2O4-
122.0245	205	C6H4NO2-
140.0364	155	C6H6NO3-
149.0483	42	C8H7NO2-
150.0545	56	C5H10O5-
164.0711	75	C9H10NO2-
166.0146	337	C7H4NO4-
178.0866	45	C10H12NO2-
181.0371	34	C8H7NO4-
207.0532	42	C10H9NO4-
208.0683	25	C6H12N2O6-
224.0719	236	C11H12O5-
225.0692	46	C10[13]CH12O5-
236.0932	300	C12H14NO4-
237.096	34	C11[13]CH14NO4-
239.0455	77	C13H7N2O3-
253.0668	36	C12H13O6-
268.059	52	C15H10NO4-
282.0778	34	C16H12NO4-
298.0563	43	C15H10N2O5-
309.0844	25	C17H13N2O4-
312.0756	26	C16H12N2O5-
