Mass spectrum: Allethrin; LC-ESI-QTOF; MS2; CE: 40 eV; R=35000; [M+H]+
Name: Allethrin
Name: (2-methyl-4-oxo-3-prop-2-enylcyclopent-2-en-1-yl) 2,2-dimethyl-3-(2-methylprop-1-enyl)cyclopropane-1-carboxylate
Formula: C19H26O3
Exact mass: 302.1881947
SMILES: CC(C)=CC1C(C(=O)OC2CC(=O)C(CC=C)=C2C)C1(C)C
InChI: InChI=1S/C19H26O3/c1-7-8-13-12(4)16(10-15(13)20)22-18(21)17-14(9-11(2)3)19(17,5)6/h7,9,14,16-17H,1,8,10H2,2-6H3
Instrument: Bruker maXis Impact
Instrument type: LC-ESI-QTOF
Ms type: MS2
Ion mode: POSITIVE
Ionization: ESI
Fragmentation mode: CID
Collision energy: 40 eV
Resolution: 35000
Column name: Acclaim RSLC C18 2.2um, 2.1x100mm, Thermo
Retention time: 12.380 min
Base peak: 303.1951
Precursor m/z: 303.1955
Precursor type: [M+H]+
m/z	relative intensity	assigned
115.0532	322	C9H7+
117.069	111	C9H9+
119.0852	19	C9H11+
120.0557	40	C8H8O+
121.065	26	C8H9O+
121.0997	49	C9H13+
123.1159	403	C9H15+
124.1192	55	C8[13]CH15+
133.0635	26	C9H9O+
133.101	23	C10H13+
135.0792	999	C9H11O+
136.0835	116	C8[13]CH11O+
137.0938	16	C9H13O+
149.097	17	C10H13O+
151.1099	142	C10H15O+
152.1144	25	C9[13]CH15O+
159.1157	14	C12H15+
161.0936	17	C11H13O+
