Mass spectrum: Nitrendipin; LC-ESI-QTOF; MS2; CE: 20 eV; R=35000; [M-H]-
Name: Nitrendipin
Name: Nitrendipine
Name: 5-O-ethyl 3-O-methyl 2,6-dimethyl-4-(3-nitrophenyl)-1,4-dihydropyridine-3,5-dicarboxylate
Formula: C18H20N2O6
Exact mass: 360.1321364
SMILES: CCOC(=O)C1=C(C)NC(C)=C(C1C1=CC=CC(=C1)[N+]([O-])=O)C(=O)OC
InChI: InChI=1S/C18H20N2O6/c1-5-26-18(22)15-11(3)19-10(2)14(17(21)25-4)16(15)12-7-6-8-13(9-12)20(23)24/h6-9,16,19H,5H2,1-4H3
Instrument: Bruker maXis Impact
Instrument type: LC-ESI-QTOF
Ms type: MS2
Ion mode: NEGATIVE
Ionization: ESI
Fragmentation mode: CID
Collision energy: 20 eV
Resolution: 35000
Column name: Acclaim RSLC C18 2.2um, 2.1x100mm, Thermo
Retention time: 9.779 min
Base peak: 359.1247
Precursor m/z: 359.1249
Precursor type: [M-H]-
m/z	relative intensity	assigned
122.0251	314	C6H4NO2-
123.0309	25	C3H7O5-
150.0546	62	C5H10O5-
164.0705	55	C9H10NO2-
166.015	26	C7H4NO4-
178.087	52	C10H12NO2-
192.102	19	C11H14NO2-
207.0534	24	C10H9NO4-
208.0588	38	C10H10NO4-
208.0975	37	C11H14NO3-
221.0743	24	C14H9N2O-
224.0709	291	C14H10NO2-
225.0738	75	C13[13]CH10NO2-
236.0923	999	C12H14NO4-
237.0673	19	C14H9N2O2-
237.0943	136	C11[13]CH14NO4-
239.048	22	C13H7N2O3-
251.0596	27	C15H9NO3-
254.0659	23	C11H12NO6-
254.0761	28	C12H14O6-
265.071	20	C13H13O6-
268.0621	77	C15H10NO4-
282.0783	47	C16H12NO4-
283.0847	24	C16H13NO4-
295.0692	91	C16H11N2O4-
296.0774	42	C16H12N2O4-
298.0595	105	C15H10N2O5-
299.0656	19	C14[13]CH10N2O5-
309.0868	62	C17H13N2O4-
310.0903	27	C17H14N2O4-
312.0747	108	C16H12N2O5-
313.0817	116	C16H13N2O5-
327.0959	89	C17H15N2O5-
328.1007	26	C16[13]CH15N2O5-
359.1224	247	C18H19N2O6-
360.128	65	C17[13]CH19N2O6-
