Mass spectrum: N-(2,4-Dimethylphenyl)-N-methylimidoformamide; LC-ESI-QTOF; MS2; CE: 30 eV; R=35000; [M+H]+
Name: N-(2,4-Dimethylphenyl)-N-methylimidoformamide
Name: SCHEMBL11046767
Name: N-(2,4-dimethylphenyl)-N-methylmethanimidamide
Formula: C10H14N2
Exact mass: 162.1156984
SMILES: Cc1ccc(c(c1)C)N(C)C=N
InChI: InChI=1S/C10H14N2/c1-8-4-5-10(9(2)6-8)12(3)7-11/h4-7,11H,1-3H3
Instrument: Bruker maXis Impact
Instrument type: LC-ESI-QTOF
Ms type: MS2
Ion mode: POSITIVE
Ionization: ESI
Fragmentation mode: CID
Collision energy: 30 eV
Resolution: 35000
Column name: Acclaim RSLC C18 2.2um, 2.1x100mm, Thermo
Retention time: 4.5 min
Base peak: 163.1221
Precursor m/z: 163.123
Precursor type: [M+H]+
m/z	relative intensity	assigned
106.0646	24	C7H8N+
107.073	18	C7H9N+
115.0536	16	C9H7+
116.0488	10	C8H6N+
117.0566	999	C8H7N+
120.0799	94	C8H10N+
121.0877	41	C8H11N+
122.0957	501	C8H12N+
130.0642	74	C9H8N+
131.0716	69	C9H9N+
132.0798	496	C9H10N+
134.0581	5	C6H6N4+
134.0944	6	C9H12N+
136.1113	5	C9H14N+
147.0911	27	C9H11N2+
148.0974	10	C9H12N2+
163.1219	155	C10H15N2+
