Mass spectrum: Acridone; LC-ESI-QTOF; MS2; CE: 40 eV; R=35000; [M+H]+
Name: Acridone
Name: 9(10H)-Acridinone
Name: 10H-acridin-9-one
Formula: C13H9NO
Exact mass: 195.0684139
SMILES: O=C1C2=CC=CC=C2NC2=CC=CC=C12
InChI: InChI=1S/C13H9NO/c15-13-9-5-1-3-7-11(9)14-12-8-4-2-6-10(12)13/h1-8H,(H,14,15)
Instrument: Bruker maXis Impact
Instrument type: LC-ESI-QTOF
Ms type: MS2
Ion mode: POSITIVE
Ionization: ESI
Fragmentation mode: CID
Collision energy: 40 eV
Resolution: 35000
Column name: Acclaim RSLC C18 2.2um, 2.1x100mm, Thermo
Retention time: 6.982 min
Base peak: 196.0754
Precursor m/z: 196.0757
Precursor type: [M+H]+
m/z	relative intensity	assigned
115.0535	6	C9H7+
128.0486	6	C9H6N+
139.0532	40	C11H7+
140.0489	12	C10H6N+
140.0588	9	C11H8+
141.0681	8	C11H9+
151.053	5	C12H7+
166.064	119	C12H8N+
167.072	999	C12H9N+
168.0763	128	C11[13]CH9N+
169.0641	5	C12H9O+
169.0798	7	C10[13]C2H9N+
177.0562	6	C13H7N+
178.0637	9	C13H8N+
195.067	103	C13H9NO+
196.0748	361	C13H10NO+
197.078	44	C12[13]CH10NO+
