Mass spectrum: Ethopabate; LC-ESI-QTOF; MS2; CE: 50 eV; R=35000; [M+H]+
Name: Ethopabate
Name: methyl 4-acetamido-2-ethoxybenzoate
Formula: C12H15NO4
Exact mass: 237.1001080
SMILES: CCOc1cc(ccc1C(=O)OC)NC(=O)C
InChI: InChI=1S/C12H15NO4/c1-4-17-11-7-9(13-8(2)14)5-6-10(11)12(15)16-3/h5-7H,4H2,1-3H3,(H,13,14)
Instrument: Bruker maXis Impact
Instrument type: LC-ESI-QTOF
Ms type: MS2
Ion mode: POSITIVE
Ionization: ESI
Fragmentation mode: CID
Collision energy: 50 eV
Resolution: 35000
Column name: Acclaim RSLC C18 2.2um, 2.1x100mm, Thermo
Retention time: 6.5 min
Base peak: 238.1074
Precursor m/z: 238.1074
Precursor type: [M+H]+
m/z	relative intensity	assigned
117.0574	11	C8H7N+
118.0644	13	C8H8N+
136.0388	999	C7H6NO2+
137.0221	26	C7H5O3+
137.0416	51	C6[13]CH6NO2+
146.0598	32	C9H8NO+
164.0695	11	C9H10NO2+
