Mass spectrum: Warfarin; LC-ESI-QTOF; MS2; CE: 40 eV; R=35000; [M-H]-
Name: Warfarin
Name: 4-hydroxy-3-(3-oxo-1-phenylbutyl)chromen-2-one
Formula: C19H16O4
Exact mass: 308.1048590
SMILES: CC(=O)CC(C1=CC=CC=C1)C1=C(O)C2=CC=CC=C2OC1=O
InChI: InChI=1S/C19H16O4/c1-12(20)11-15(13-7-3-2-4-8-13)17-18(21)14-9-5-6-10-16(14)23-19(17)22/h2-10,15,21H,11H2,1H3
Instrument: Bruker maXis Impact
Instrument type: LC-ESI-QTOF
Ms type: MS2
Ion mode: NEGATIVE
Ionization: ESI
Fragmentation mode: CID
Collision energy: 40 eV
Resolution: 35000
Column name: Acclaim RSLC C18 2.2um, 2.1x100mm, Thermo
Retention time: 6.636 min
Base peak: 307.0972
Precursor m/z: 307.0976
Precursor type: [M-H]-
m/z	relative intensity	assigned
117.0341	657	C8H5O-
118.0387	85	C7[13]CH5O-
130.0424	88	C9H6O-
145.0657	37	C10H9O-
157.0657	44	C11H9O-
161.0239	999	C9H5O3-
162.0279	105	C8[13]CH5O3-
193.0635	58	C14H9O-
195.0816	117	C14H11O-
205.0653	73	C15H9O-
206.0725	283	C15H10O-
207.0753	67	C14[13]CH10O-
219.0819	66	C16H11O-
221.0591	73	C15H9O2-
222.0664	78	C15H10O2-
223.0748	89	C15H11O2-
249.0508	37	C16H9O3-
250.0619	864	C16H10O3-
251.0654	188	C15[13]CH10O3-
252.0639	38	C19H8O-
