Mass spectrum: Tepraloxydim; LC-ESI-QTOF; MS2; CE: 10 eV; R=35000; [M+H]+
Name: Tepraloxydim
Name: Tepraloxydim [ISO]
Name: 2-[N-[(E)-3-chloroprop-2-enoxy]-C-ethylcarbonimidoyl]-3-hydroxy-5-(oxan-4-yl)cyclohex-2-en-1-one
Formula: C17H24ClNO4
Exact mass: 341.1393859
SMILES: [H]\C(Cl)=C(\[H])CON=C(CC)C1=C(O)CC(CC1=O)C1CCOCC1
InChI: InChI=1S/C17H24ClNO4/c1-2-14(19-23-7-3-6-18)17-15(20)10-13(11-16(17)21)12-4-8-22-9-5-12/h3,6,12-13,20H,2,4-5,7-11H2,1H3/b6-3+,19-14?
Instrument: Bruker maXis Impact
Instrument type: LC-ESI-QTOF
Ms type: MS2
Ion mode: POSITIVE
Ionization: ESI
Fragmentation mode: CID
Collision energy: 10 eV
Resolution: 35000
Column name: Acclaim RSLC C18 2.2um, 2.1x100mm, Thermo
Retention time: 7.339 min
Base peak: 342.1466
Precursor m/z: 342.1467
Precursor type: [M+H]+
m/z	relative intensity	assigned
151.0312	5	C9H8Cl+
166.0851	31	C3H17ClNO4+
215.1063	5	C14H15O2+
222.1117	15	C12H16NO3+
222.1479	17	C13H20NO2+
232.1319	8	C8H23ClNO4+
233.1157	12	C14H17O3+
250.1437	853	C16H23Cl+
251.1489	223	C15[13]CH23Cl+
252.1581	123	C14H22NO3+
253.1617	17	C13[13]CH22NO3+
288.1599	5	C17H22NO3+
306.1698	16	C17H24NO4+
311.0285	5	C17H10ClNO3+
324.1358	6	C17H23ClNO3+
342.147	999	C17H25ClNO4+
343.1506	144	C16[13]CH25ClNO4+
344.1438	249	C17H25[37]ClNO4+
