Mass spectrum: trans-3-Hydroxycotinine; LC-ESI-QTOF; MS2; CE: 40 eV; R=35000; [M+H]+
Name: trans-3-Hydroxycotinine
Name: Hydroxycotinine
Name: (3R,5S)-3-hydroxy-1-methyl-5-pyridin-3-ylpyrrolidin-2-one
Formula: C10H12N2O2
Exact mass: 192.0898776
SMILES: CN1[C@@H](C[C@H](C1=O)O)c2cccnc2
InChI: InChI=1S/C10H12N2O2/c1-12-8(5-9(13)10(12)14)7-3-2-4-11-6-7/h2-4,6,8-9,13H,5H2,1H3/t8-,9+/m0/s1
Instrument: Bruker maXis Impact
Instrument type: LC-ESI-QTOF
Ms type: MS2
Ion mode: POSITIVE
Ionization: ESI
Fragmentation mode: CID
Collision energy: 40 eV
Resolution: 35000
Column name: Acclaim RSLC C18 2.2um, 2.1x100mm, Thermo
Retention time: 2.945 min
Base peak: 193.0964
Precursor m/z: 193.0972
Precursor type: [M+H]+
m/z	relative intensity	assigned
117.0566	154	C8H7N+
118.0639	366	C8H8N+
130.0636	60	C9H8N+
131.0601	146	C8H7N2+
132.0676	110	C8H8N2+
133.0749	174	C8H9N2+
134.0458	61	C7H6N2O+
134.0591	999	C8H8NO+
136.0385	166	C7H6NO2+
136.0739	147	C8H10NO+
146.0598	66	C9H8NO+
147.0918	102	C9H11N2+
149.0701	232	C8H9N2O+
193.0958	215	C10H13N2O2+
