Mass spectrum: N,N,N`,N`-Tetrakis(2-hydroxyethyl)hexanediamide; LC-ESI-QTOF; MS2; CE: 50 eV; R=35000; [M+H]+
Name: N,N,N`,N`-Tetrakis(2-hydroxyethyl)hexanediamide
Formula: C14H28N2O6
Exact mass: 320.1947366
SMILES: C(CCC(=O)N(CCO)CCO)CC(=O)N(CCO)CCO
InChI: InChI=1S/C14H28N2O6/c17-9-5-15(6-10-18)13(21)3-1-2-4-14(22)16(7-11-19)8-12-20/h17-20H,1-12H2
Instrument: Bruker maXis Impact
Instrument type: LC-ESI-QTOF
Ms type: MS2
Ion mode: POSITIVE
Ionization: ESI
Fragmentation mode: CID
Collision energy: 50 eV
Resolution: 35000
Column name: Acclaim RSLC C18 2.2um, 2.1x100mm, Thermo
Retention time: 2.6 min
Base peak: 321.2018
Precursor m/z: 321.202
Precursor type: [M+H]+
m/z	relative intensity	assigned
126.0898	313	C4H14O4+
127.0743	463	C7H11O2+
130.0861	306	C6H12NO2+
142.0852	321	C7H12NO2+
144.1021	140	C7H14NO2+
154.0844	964	C5H14O5+
155.0688	772	C8H11O3+
156.1006	212	C8H14NO2+
170.1159	230	C6H18O5+
173.0794	326	C8H13O4+
174.1114	881	C8H16NO3+
188.1272	999	C9H18NO3+
189.1293	181	C13H17O+
198.1116	951	C10H16NO3+
216.1208	439	C10H18NO4+
