Mass spectrum: Oxybutynin; LC-ESI-QTOF; MS2; CE: Ramp 22.8-34.1 eV; R=35000; [M+H]+
Name: Oxybutynin
Name: 4-(diethylamino)but-2-ynyl 2-cyclohexyl-2-hydroxy-2-phenylacetate
Formula: C22H31NO3
Exact mass: 357.2303939
SMILES: CCN(CC)CC#CCOC(=O)C(O)(C1CCCCC1)C1=CC=CC=C1
InChI: InChI=1S/C22H31NO3/c1-3-23(4-2)17-11-12-18-26-21(24)22(25,19-13-7-5-8-14-19)20-15-9-6-10-16-20/h5,7-8,13-14,20,25H,3-4,6,9-10,15-18H2,1-2H3
Instrument: Bruker maXis Impact
Instrument type: LC-ESI-QTOF
Ms type: MS2
Ion mode: POSITIVE
Ionization: ESI
Fragmentation mode: CID
Collision energy: Ramp 22.8-34.1 eV
Resolution: 35000
Column name: Acclaim RSLC C18 2.2um, 2.1x100mm, Thermo
Retention time: 8.477 min
Base peak: 358.2391
Precursor m/z: 358.2377
Precursor type: [M+H]+
m/z	relative intensity	assigned
47.0124	5	CH3O2+
53.0381	5	C4H5+
54.0333	118	C3H4N+
55.0536	37	C4H7+
56.0488	30	C3H6N+
58.0646	84	C3H8N+
67.0535	15	C5H7+
68.049	92	C4H6N+
69.0329	66	C4H5O+
69.0694	20	C5H9+
70.0646	33	C4H8N+
72.0803	366	C4H10N+
73.0874	26	C4H11N+
77.0378	5	C6H5+
79.0538	73	C6H7+
80.049	21	C5H6N+
81.0571	23	C5H7N+
81.0696	43	C6H9+
82.0649	131	C5H8N+
83.0701	7	C4[13]CH8N+
83.0853	26	C6H11+
84.0803	18	C5H10N+
86.0961	16	C5H12N+
91.0546	46	C7H7+
94.0654	74	C6H8N+
95.0494	7	C6H7O+
95.0731	32	C6H9N+
95.0853	7	C7H11+
96.0811	121	C6H10N+
97.0288	252	C5H5O2+
98.0321	12	C4[13]CH5O2+
105.0344	210	C7H5O+
106.0376	11	C6[13]CH5O+
107.0503	52	C7H7O+
107.0863	7	C8H11+
108.0818	22	C7H10N+
109.0895	31	C7H11N+
122.0963	28	C8H12N+
124.1125	278	C8H14N+
125.1163	25	C7[13]CH14N+
129.0695	31	C10H9+
142.1222	344	C8H16NO+
143.0843	7	C11H11+
143.1251	29	C7[13]CH16NO+
157.0638	7	C11H9O+
171.1162	46	C13H15+
172.1197	6	C12[13]CH15+
173.059	5	C11H9O2+
185.0585	5	C12H9O2+
187.0748	6	C12H11O2+
189.1269	93	C13H17O+
190.1299	12	C12[13]CH17O+
199.1115	29	C14H15O+
200.1143	5	C13[13]CH15O+
203.0698	8	C12H11O3+
229.1088	5	C14H15NO2+
258.1489	26	C16H20NO2+
267.1373	10	C18H19O2+
340.2282	117	C22H30NO2+
341.2317	28	C21[13]CH30NO2+
358.2387	999	C22H32NO3+
359.2418	314	C21[13]CH32NO3+
360.2444	45	C20[13]C2H32NO3+
