Mass spectrum: 2-Hydroxyatrazine; LC-ESI-QTOF; MS2; CE: Ramp 17.9-26.9 eV; R=35000; [M+H]+
Name: 2-Hydroxyatrazine
Name: CID 16553
Name: 2-(ethylamino)-6-(propan-2-ylamino)-1H-1,3,5-triazin-4-one
Formula: C8H15N5O
Exact mass: 197.1276601
SMILES: CCNC1=NC(O)=NC(NC(C)C)=N1
InChI: InChI=1S/C8H15N5O/c1-4-9-6-11-7(10-5(2)3)13-8(14)12-6/h5H,4H2,1-3H3,(H3,9,10,11,12,13,14)
Instrument: Bruker maXis Impact
Instrument type: LC-ESI-QTOF
Ms type: MS2
Ion mode: POSITIVE
Ionization: ESI
Fragmentation mode: CID
Collision energy: Ramp 17.9-26.9 eV
Resolution: 35000
Column name: Acclaim RSLC C18 2.2um, 2.1x100mm, Thermo
Retention time: 4.743 min
Base peak: 198.1354
Precursor m/z: 198.1349
Precursor type: [M+H]+
m/z	relative intensity	assigned
68.0242	6	C2H2N3+
69.0081	187	C2HN2O+
71.06	72	C3H7N2+
85.0508	10	C2H5N4+
86.0349	610	C2H4N3O+
87.038	10	C[13]CH4N3O+
96.0561	10	C4H6N3+
97.0402	168	C4H5N2O+
98.0436	5	C3[13]CH5N2O+
113.084	14	C6H11NO+
114.0682	322	C4H8N3O+
115.0705	12	C3[13]CH8N3O+
128.0571	25	C3H6N5O+
128.0825	41	C5H10N3O+
138.0781	5	C7H10N2O+
139.0621	5	C5H7N4O+
156.0881	948	C5H10N5O+
157.0908	53	C4[13]CH10N5O+
198.1351	999	C8H16N5O+
199.1381	83	C7[13]CH16N5O+
