Mass spectrum: Picolinafen; LC-ESI-QTOF; MS2; CE: 10 eV; R=35000; [M+H]+
Name: Picolinafen
Name: N-(4-fluorophenyl)-6-[3-(trifluoromethyl)phenoxy]pyridine-2-carboxamide
Formula: C19H12F4N2O2
Exact mass: 376.0834905
SMILES: FC1=CC=C(NC(=O)C2=NC(OC3=CC=CC(=C3)C(F)(F)F)=CC=C2)C=C1
InChI: InChI=1S/C19H12F4N2O2/c20-13-7-9-14(10-8-13)24-18(26)16-5-2-6-17(25-16)27-15-4-1-3-12(11-15)19(21,22)23/h1-11H,(H,24,26)
Instrument: Bruker maXis Impact
Instrument type: LC-ESI-QTOF
Ms type: MS2
Ion mode: POSITIVE
Ionization: ESI
Fragmentation mode: CID
Collision energy: 10 eV
Resolution: 35000
Column name: Acclaim RSLC C18 2.2um, 2.1x100mm, Thermo
Retention time: 12.302 min
Base peak: 377.0914
Precursor m/z: 377.0908
Precursor type: [M+H]+
m/z	relative intensity	assigned
256.0574	7	C15H8F2NO+
284.0528	14	C16H8F2NO2+
359.0803	12	C19H11F4N2O+
377.0917	999	C19H13F4N2O2+
378.0948	155	C18[13]CH13F4N2O2+
379.0967	17	C17[13]C2H13F4N2O2+
