Mass spectrum: Allethrin; LC-ESI-QTOF; MS2; CE: Ramp 21.7-32.5 eV; R=35000; [M+H]+
Name: Allethrin
Name: (2-methyl-4-oxo-3-prop-2-enylcyclopent-2-en-1-yl) 2,2-dimethyl-3-(2-methylprop-1-enyl)cyclopropane-1-carboxylate
Formula: C19H26O3
Exact mass: 302.1881947
SMILES: CC(C)=CC1C(C(=O)OC2CC(=O)C(CC=C)=C2C)C1(C)C
InChI: InChI=1S/C19H26O3/c1-7-8-13-12(4)16(10-15(13)20)22-18(21)17-14(9-11(2)3)19(17,5)6/h7,9,14,16-17H,1,8,10H2,2-6H3
Instrument: Bruker maXis Impact
Instrument type: LC-ESI-QTOF
Ms type: MS2
Ion mode: POSITIVE
Ionization: ESI
Fragmentation mode: CID
Collision energy: Ramp 21.7-32.5 eV
Resolution: 35000
Column name: Acclaim RSLC C18 2.2um, 2.1x100mm, Thermo
Retention time: 12.332 min
Base peak: 102.1286
Precursor m/z: 303.1955
Precursor type: [M+H]+
m/z	relative intensity	assigned
79.053	21	C6H7+
93.0701	34	C7H9+
107.0853	86	C8H11+
115.0551	80	C9H7+
117.0689	74	C9H9+
121.1007	54	C9H13+
123.1159	435	C9H15+
124.1197	59	C8[13]CH15+
131.0845	20	C10H11+
135.0797	999	C9H11O+
136.0827	97	C8[13]CH11O+
149.0961	27	C10H13O+
151.1102	122	C10H15O+
152.1149	21	C9[13]CH15O+
169.1234	37	C10H17O2+
