Mass spectrum: Medroxyprogesteroneacetate; LC-ESI-QTOF; MS2; CE: 40 eV; R=35000; [M+H]+
Name: Medroxyprogesteroneacetate
Name: Medroxyprogesterone acetate
Name: [(6S,8R,9S,10R,13S,14S,17R)-17-acetyl-6,10,13-trimethyl-3-oxo-2,6,7,8,9,11,12,14,15,16-decahydro-1H-cyclopenta[a]phenanthren-17-yl] acetate
Formula: C24H34O4
Exact mass: 386.2457096
SMILES: C[C@H]1C[C@H]2[C@@H]3CC[C@](OC(C)=O)(C(C)=O)[C@@]3(C)CC[C@@H]2[C@@]2(C)CCC(=O)C=C12
InChI: InChI=1S/C24H34O4/c1-14-12-18-19(22(4)9-6-17(27)13-21(14)22)7-10-23(5)20(18)8-11-24(23,15(2)25)28-16(3)26/h13-14,18-20H,6-12H2,1-5H3/t14-,18+,19-,20-,22+,23-,24-/m0/s1
Instrument: Bruker maXis Impact
Instrument type: LC-ESI-QTOF
Ms type: MS2
Ion mode: POSITIVE
Ionization: ESI
Fragmentation mode: CID
Collision energy: 40 eV
Resolution: 35000
Column name: Acclaim RSLC C18 2.2um, 2.1x100mm, Thermo
Retention time: 10.947 min
Base peak: 387.2521
Precursor m/z: 387.253
Precursor type: [M+H]+
m/z	relative intensity	assigned
115.0534	10	C9H7+
117.0688	22	C9H9+
119.0846	77	C9H11+
120.0879	10	C8[13]CH11+
121.064	18	C8H9O+
121.1	34	C9H13+
123.0796	999	C8H11O+
124.0828	87	C7[13]CH11O+
128.0609	15	C10H8+
129.068	27	C10H9+
130.0762	12	C10H10+
131.0842	97	C10H11+
132.088	11	C9[13]CH11+
133.0632	6	C9H9O+
133.1	138	C10H13+
134.1039	22	C9[13]CH13+
135.0792	39	C9H11O+
135.1156	39	C10H15+
137.0947	230	C9H13O+
138.0981	19	C8[13]CH13O+
141.0682	13	C11H9+
142.0761	23	C11H10+
143.084	83	C11H11+
144.09	21	C11H12+
145.0998	246	C11H13+
146.1034	32	C10[13]CH13+
147.0788	21	C10H11O+
147.1153	220	C11H15+
148.1187	23	C10[13]CH15+
149.0941	30	C10H13O+
149.1304	20	C11H17+
151.1102	16	C10H15O+
153.0684	5	C12H9+
154.0752	5	C12H10+
155.0838	38	C12H11+
156.0916	30	C12H12+
157.0994	130	C12H13+
158.1043	21	C11[13]CH13+
159.0783	19	C11H11O+
159.1153	163	C12H15+
160.0858	8	C11H12O+
160.1195	26	C11[13]CH15+
161.0944	65	C11H13O+
161.131	159	C12H17+
162.0989	12	C10[13]CH13O+
162.1348	18	C11[13]CH17+
163.1098	37	C11H15O+
163.1464	25	C12H19+
165.0683	5	C13H9+
167.0834	14	C13H11+
168.0906	13	C13H12+
169.0994	96	C13H13+
170.1053	24	C13H14+
171.1153	174	C13H15+
172.0858	8	C12H12O+
172.1194	33	C12[13]CH15+
173.094	39	C12H13O+
173.1309	231	C13H17+
174.1009	8	C11[13]CH13O+
174.1355	42	C12[13]CH17+
175.1102	140	C12H15O+
175.1468	325	C13H19+
176.1136	22	C11[13]CH15O+
176.1498	45	C12[13]CH19+
177.1256	55	C12H17O+
177.1606	5	C13H21+
178.1288	7	C11[13]CH17O+
179.084	14	C14H11+
180.0903	8	C14H12+
181.0993	31	C14H13+
182.1067	17	C14H14+
183.1154	135	C14H15+
184.1203	33	C13[13]CH15+
185.0943	18	C13H13O+
185.1308	107	C14H17+
186.1026	5	C13H14O+
186.1354	19	C13[13]CH17+
187.1102	95	C13H15O+
187.1468	79	C14H19+
188.1499	12	C13[13]CH19+
189.1258	70	C13H17O+
189.1624	17	C14H21+
190.1292	11	C12[13]CH17O+
191.1415	42	C13H19O+
192.1448	5	C12[13]CH19O+
193.1002	14	C15H13+
194.1066	20	C15H14+
195.115	50	C15H15+
196.122	28	C15H16+
197.1309	131	C15H17+
198.1379	74	C15H18+
199.1098	13	C14H15O+
199.1464	135	C15H19+
200.1163	5	C14H16O+
200.1518	29	C14[13]CH19+
201.1261	19	C14H17O+
201.1619	40	C15H21+
202.1656	8	C14[13]CH21+
203.1414	31	C14H19O+
203.178	13	C15H23+
204.1449	5	C13[13]CH19O+
205.1571	22	C14H21O+
206.1065	5	C16H14+
207.115	21	C16H15+
208.1229	22	C16H16+
209.1311	234	C16H17+
210.136	77	C16H18+
211.1099	10	C15H15O+
211.1464	197	C16H19+
212.1516	47	C15[13]CH19+
213.1257	29	C15H17O+
213.1621	51	C16H21+
214.1338	332	C15H18O+
215.1402	143	C15H19O+
215.1774	11	C16H23+
216.1447	20	C14[13]CH19O+
217.1564	22	C15H21O+
219.1155	7	C17H15+
220.123	9	C17H16+
221.1307	27	C17H17+
222.139	31	C17H18+
223.1467	118	C17H19+
224.1544	442	C17H20+
225.1261	12	C16H17O+
225.161	237	C17H21+
226.131	6	C16H18O+
226.166	47	C16[13]CH21+
227.141	14	C16H19O+
227.1782	76	C17H23+
228.1478	5	C16H20O+
228.1817	16	C16[13]CH23+
229.1573	15	C16H21O+
233.1299	6	C18H17+
233.1518	6	C15H21O2+
234.1391	26	C18H18+
235.1454	27	C18H19+
236.1533	16	C18H20+
237.1259	7	C17H17O+
237.1619	38	C18H21+
238.1322	5	C17H18O+
238.1678	20	C18H22+
239.1411	26	C17H19O+
239.1778	25	C18H23+
240.1477	7	C16[13]CH19O+
240.1818	8	C18H24+
241.1569	32	C17H21O+
241.1932	11	C18H25+
242.1616	8	C16[13]CH21O+
243.1728	13	C17H23O+
245.1895	5	C17H25O+
247.146	8	C19H19+
248.1538	7	C19H20+
249.1626	71	C19H21+
250.1681	25	C19H22+
251.1415	13	C18H19O+
251.1774	54	C19H23+
252.1483	11	C18H20O+
252.1836	18	C19H24+
253.1565	18	C18H21O+
254.1637	7	C18H22O+
255.173	13	C18H23O+
256.1789	5	C18H24O+
257.1522	20	C17H21O2+
258.1571	5	C16[13]CH21O2+
263.1773	9	C20H23+
264.1846	12	C20H24+
265.157	10	C19H21O+
265.1937	55	C20H25+
266.166	12	C19H22O+
266.2011	77	C20H26+
267.173	249	C19H23O+
267.2094	133	C20H27+
268.1768	67	C18[13]CH23O+
268.212	33	C19[13]CH27+
269.1889	57	C19H25O+
270.1921	13	C18[13]CH25O+
281.189	41	C20H25O+
282.1964	149	C20H26O+
283.2025	75	C20H27O+
284.2111	64	C20H28O+
285.2199	123	C20H29O+
286.2228	24	C19[13]CH29O+
291.2099	8	C22H27+
294.1963	5	C21H26O+
295.1666	6	C20H23O2+
303.2308	14	C20H31O2+
307.2035	7	C22H27O+
309.2199	28	C22H29O+
310.1917	11	C21H26O2+
310.2233	6	C21[13]CH29O+
325.2153	11	C22H29O2+
327.2322	10	C22H31O2+
