Mass spectrum: 7-Amino-4-methylcoumarin; LC-ESI-QTOF; MS2; CE: 20 eV; R=35000; [M+H]+
Name: 7-Amino-4-methylcoumarin
Name: 7-amino-4-methylchromen-2-one
Formula: C10H9NO2
Exact mass: 175.0633285
SMILES: CC1=CC(=O)OC2=CC(N)=CC=C12
InChI: InChI=1S/C10H9NO2/c1-6-4-10(12)13-9-5-7(11)2-3-8(6)9/h2-5H,11H2,1H3
Instrument: Bruker maXis Impact
Instrument type: LC-ESI-QTOF
Ms type: MS2
Ion mode: POSITIVE
Ionization: ESI
Fragmentation mode: CID
Collision energy: 20 eV
Resolution: 35000
Column name: Acclaim RSLC C18 2.2um, 2.1x100mm, Thermo
Retention time: 5.286 min
Base peak: 176.0702
Precursor m/z: 176.0706
Precursor type: [M+H]+
m/z	relative intensity	assigned
115.0538	23	C9H7+
117.0567	40	C8H7N+
120.0802	137	C8H10N+
121.0832	10	C7[13]CH10N+
130.0644	26	C9H8N+
131.0492	10	C9H7O+
131.0718	20	C9H9N+
132.08	47	C9H10N+
133.0514	21	C8H7NO+
133.0839	5	C8[13]CH10N+
134.0589	6	C8H8NO+
148.0747	49	C9H10NO+
149.078	5	C8[13]CH10NO+
176.0701	999	C10H10NO2+
177.0732	87	C9[13]CH10NO2+
178.0763	8	C8[13]C2H10NO2+
