Mass spectrum: EDDP; LC-ESI-QTOF; MS2; CE: 30 eV; R=35000; [M+H]+
Name: EDDP
Name: (2Z)-2-ethylidene-1,5-dimethyl-3,3-diphenylpyrrolidine
Formula: C20H23N
Exact mass: 277.1830497
SMILES: C\C=C1/N(C)C(C)CC1(C1=CC=CC=C1)C1=CC=CC=C1
InChI: InChI=1S/C20H23N/c1-4-19-20(15-16(2)21(19)3,17-11-7-5-8-12-17)18-13-9-6-10-14-18/h4-14,16H,15H2,1-3H3/b19-4-
Instrument: Bruker maXis Impact
Instrument type: LC-ESI-QTOF
Ms type: MS2
Ion mode: POSITIVE
Ionization: ESI
Fragmentation mode: CID
Collision energy: 30 eV
Resolution: 35000
Column name: Acclaim RSLC C18 2.2um, 2.1x100mm, Thermo
Retention time: 6.5 min
Base peak: 278.19
Precursor m/z: 278.1903
Precursor type: [M+H]+
m/z	relative intensity	assigned
158.0949	7	C11H12N+
171.1033	7	C12H13N+
186.1265	89	C13H16N+
201.1498	59	C14H19N+
208.1094	5	C15H14N+
234.1271	756	C17H16N+
235.1304	110	C16[13]CH16N+
249.1506	493	C18H19N+
250.1541	84	C17[13]CH19N+
251.1589	5	C17H19N2+
278.1903	999	C20H24N+
279.1937	200	C19[13]CH24N+
280.1964	13	C18[13]C2H24N+
