Mass spectrum: Dodemorph; LC-ESI-QTOF; MS2; CE: 40 eV; R=35000; [M+H]+
Name: Dodemorph
Name: 4-cyclododecyl-2,6-dimethylmorpholine
Formula: C18H35NO
Exact mass: 281.2718647
SMILES: CC1CN(CC(C)O1)C1CCCCCCCCCCC1
InChI: InChI=1S/C18H35NO/c1-16-14-19(15-17(2)20-16)18-12-10-8-6-4-3-5-7-9-11-13-18/h16-18H,3-15H2,1-2H3
Instrument: Bruker maXis Impact
Instrument type: LC-ESI-QTOF
Ms type: MS2
Ion mode: POSITIVE
Ionization: ESI
Fragmentation mode: CID
Collision energy: 40 eV
Resolution: 35000
Column name: Acclaim RSLC C18 2.2um, 2.1x100mm, Thermo
Retention time: 8.803 min
Base peak: 282.2787
Precursor m/z: 282.2791
Precursor type: [M+H]+
m/z	relative intensity	assigned
116.1063	999	C6H14NO+
130.0639	69	C9H8N+
132.079	138	C9H10N+
133.0865	117	C9H11N+
134.095	119	C9H12N+
144.0776	56	C10H10N+
145.0869	169	C10H11N+
146.0948	86	C10H12N+
148.1112	150	C10H14N+
150.0095	62	C11H2O+
160.1101	387	C11H14N+
162.1267	81	C11H16N+
164.1061	51	C10H14NO+
192.1358	78	C12H18NO+
282.2775	68	C18H36NO+
