Mass spectrum: Naphthalene; GC-APCI-QTOF; MS2; CE: 40 eV; R=35000; [M]+
Name: Naphthalene
Formula: C10H8
Exact mass: 128.0626
SMILES: C1=CC2=CC=CC=C2C=C1
InChI: InChI=1S/C10H8/c1-2-6-10-8-4-3-7-9(10)5-1/h1-8H
Instrument: Bruker 450 GC coupled to maXis Impact
Instrument type: GC-APCI-QTOF
Ms type: MS2
Ion mode: POSITIVE
Ionization: APCI
Fragmentation mode: CID
Collision energy: 40 eV
Resolution: 35000
Column name: Rxi-5Sil MS column, 30m, 0.25mm i.d., 0.25Âµm film thickness (Restek)
Retention time: 9.363 min
Base peak: 128.0613
Precursor m/z: 128.0621
Precursor type: [M]+
m/z	relative intensity	assigned
50.0144	67	C4H2+
51.0221	88	C4H3+
52.0296	52	C4H4+
53.0373	26	C4H5+
63.0218	28	C5H3+
74.0141	21	C6H2+
75.0221	25	C6H3+
76.0297	45	C6H4+
77.0378	15	C6H5+
78.046	136	C6H6+
89.0368	12	C7H5+
102.0464	130	C8H6+
126.0452	175	C10H6+
127.0529	324	C10H7+
128.0612	999	C10H8+
