Mass spectrum: THE; LC-ESI-QTOF; MS2; CE: 30 eV; R=35000; [M+H]+
Name: THE
Name: Urocortisone
Name: 3,17-dihydroxy-17-(2-hydroxyacetyl)-10,13-dimethyl-2,3,4,5,6,7,8,9,12,14,15,16-dodecahydro-1H-cyclopenta[a]phenanthren-11-one
Formula: C21H32O5
Exact mass: 364.2249741
SMILES: CC12CCC(CC1CCC3C2C(=O)CC4(C3CCC4(C(=O)CO)O)C)O
InChI: InChI=1S/C21H32O5/c1-19-7-5-13(23)9-12(19)3-4-14-15-6-8-21(26,17(25)11-22)20(15,2)10-16(24)18(14)19/h12-15,18,22-23,26H,3-11H2,1-2H3
Instrument: Bruker maXis Impact
Instrument type: LC-ESI-QTOF
Ms type: MS2
Ion mode: POSITIVE
Ionization: ESI
Fragmentation mode: CID
Collision energy: 30 eV
Resolution: 35000
Column name: Acclaim RSLC C18 2.2um, 2.1x100mm, Thermo
Retention time: 9.058 min
Base peak: 150.1135
Precursor m/z: 365.2323
Precursor type: [M+H]+
m/z	relative intensity	assigned
149.1338	564	C11H17+
161.0966	523	C11H13O+
175.1109	523	C12H15O+
293.1867	536	C21H25O+
329.2175	999	C21H29O3+
