Mass spectrum: Desphenyl chloridazon; LC-ESI-QTOF; MS2; CE: Ramp 16.1-24.1 eV; R=35000; [M+H]+
Name: Desphenyl chloridazon
Name: 5-Amino-4-chloropyridazin-3(2H)-one
Name: 4-amino-5-chloro-1H-pyridazin-6-one
Formula: C4H4ClN3O
Exact mass: 145.00428943
SMILES: NC1=C(Cl)C(=O)NN=C1
InChI: InChI=1S/C4H4ClN3O/c5-3-2(6)1-7-8-4(3)9/h1H,(H3,6,8,9)
Instrument: Bruker maXis Impact
Instrument type: LC-ESI-QTOF
Ms type: MS2
Ion mode: POSITIVE
Ionization: ESI
Fragmentation mode: CID
Collision energy: Ramp 16.1-24.1 eV
Resolution: 35000
Column name: Acclaim RSLC C18 2.2um, 2.1x100mm, Thermo
Retention time: 2.331 min
Base peak: 151.0857
Precursor m/z: 146.0116
Precursor type: [M+H]+
m/z	relative intensity	assigned
54.0329	25	C3H4N+
116.9971	59	C4H4ClNO+
118.9941	9	C4H4[37]ClNO+
146.0103	999	C4H5ClN3O+
147.0134	31	C3[13]CH5ClN3O+
148.0074	186	C4H5[37]ClN3O+
