Mass spectrum: Fenthion; LC-ESI-QTOF; MS2; CE: 10 eV; R=35000; [M+H]+
Name: Fenthion
Name: dimethoxy-(3-methyl-4-methylsulfanylphenoxy)-sulfanylidene-$l^{5}-phosphane
Formula: C10H15O3PS2
Exact mass: 278.0200230
SMILES: COP(=S)(OC)OC1=CC(C)=C(SC)C=C1
InChI: InChI=1S/C10H15O3PS2/c1-8-7-9(5-6-10(8)16-4)13-14(15,11-2)12-3/h5-7H,1-4H3
Instrument: Bruker maXis Impact
Instrument type: LC-ESI-QTOF
Ms type: MS2
Ion mode: POSITIVE
Ionization: ESI
Fragmentation mode: CID
Collision energy: 10 eV
Resolution: 35000
Column name: Acclaim RSLC C18 2.2um, 2.1x100mm, Thermo
Retention time: 11.0 min
Base peak: 279.0271
Precursor m/z: 279.0273
Precursor type: [M+H]+
m/z	relative intensity	assigned
124.9814	8	C2H6O2PS+
137.0407	10	CH14O3PS+
138.0488	13	C8H10S+
149.0221	19	C2H14OPS2+
169.013	58	C8H9S2+
170.0158	5	C7[13]CH9S2+
185.0441	5	C9H13S2+
205.0855	7	C8H16NO3P+
247.0008	252	C9H12O2PS2+
248.003	28	C7H9N2O4PS+
248.9961	24	C10H5N2O4S+
279.0272	999	C10H16O3PS2+
