Mass spectrum: Chloramphenicol; LC-ESI-QTOF; MS2; CE: Ramp 22.1-33.1 eV; R=35000; [M+H]+
Name: Chloramphenicol
Name: 2,2-Dichloro-N-[1,3-dihydroxy-1-(4-nitrophenyl)propan-2-yl]acetamide
Name: 2,2-dichloro-N-[1,3-dihydroxy-1-(4-nitrophenyl)propan-2-yl]acetamide
Formula: C11H12Cl2N2O5
Exact mass: 322.0123268
SMILES: OCC(NC(=O)C(Cl)Cl)C(O)C1=CC=C(C=C1)[N+]([O-])=O
InChI: InChI=1S/C11H12Cl2N2O5/c12-10(13)11(18)14-8(5-16)9(17)6-1-3-7(4-2-6)15(19)20/h1-4,8-10,16-17H,5H2,(H,14,18)
Instrument: Bruker maXis Impact
Instrument type: LC-ESI-QTOF
Ms type: MS2
Ion mode: POSITIVE
Ionization: ESI
Fragmentation mode: CID
Collision energy: Ramp 22.1-33.1 eV
Resolution: 35000
Column name: Acclaim RSLC C18 2.2um, 2.1x100mm, Thermo
Retention time: 5.766 min
Base peak: 376.2397
Precursor m/z: 323.0196
Precursor type: [M+H]+
m/z	relative intensity	assigned
161.0691	181	C6H11NO4+
162.0536	225	C3H13ClNO4+
165.0639	999	C5H11NO5+
166.0668	200	C6H13ClNO2+
241.0051	211	C11H9Cl2NO+
257.9946	462	C7H10Cl2NO5+
259.9917	260	C7H10Cl[37]ClNO5+
274.9972	803	C10H9Cl2N2O3+
276.9957	552	C10H9Cl[37]ClN2O3+
