Mass spectrum: Imazapyr; LC-ESI-QTOF; MS2; CE: 50 eV; R=35000; [M+H]+
Name: Imazapyr
Name: 2-(4-methyl-5-oxo-4-propan-2-yl-1H-imidazol-2-yl)pyridine-3-carboxylic acid
Formula: C13H15N3O3
Exact mass: 261.1113413
SMILES: CC(C)C1(C)N=C(NC1=O)C1=NC=CC=C1C(O)=O
InChI: InChI=1S/C13H15N3O3/c1-7(2)13(3)12(19)15-10(16-13)9-8(11(17)18)5-4-6-14-9/h4-7H,1-3H3,(H,17,18)(H,15,16,19)
Instrument: Bruker maXis Impact
Instrument type: LC-ESI-QTOF
Ms type: MS2
Ion mode: POSITIVE
Ionization: ESI
Fragmentation mode: CID
Collision energy: 50 eV
Resolution: 35000
Column name: Acclaim RSLC C18 2.2um, 2.1x100mm, Thermo
Retention time: 4.252 min
Base peak: 262.1181
Precursor m/z: 262.1186
Precursor type: [M+H]+
m/z	relative intensity	assigned
119.0592	10	C7H7N2+
129.0432	24	C5H7NO3+
130.0632	12	C6H10O3+
131.0229	999	C7H3N2O+
132.0265	78	C6[13]CH3N2O+
133.0385	173	C7H5N2O+
134.042	11	C6[13]CH5N2O+
136.0369	6	C7H6NO2+
144.0801	5	C10H10N+
145.0625	9	C8H7N3+
146.0704	13	C8H8N3+
147.0541	646	C8H7N2O+
148.0547	73	C9H8O2+
149.0334	413	C7H5N2O2+
150.0363	30	C6[13]CH5N2O2+
155.0606	5	C10H7N2+
156.0663	16	C7H10NO3+
157.0728	10	C7H11NO3+
159.0416	6	C8H5N3O+
160.0618	8	C9H8N2O+
171.0891	8	C8H13NO3+
172.049	7	C9H6N3O+
173.057	9	C9H7N3O+
174.0649	132	C9H8N3O+
175.068	17	C8[13]CH8N3O+
175.0842	7	C10H11N2O+
183.0522	6	C11H7N2O+
184.0607	10	C11H8N2O+
186.0661	9	C10H8N3O+
191.0675	9	C9H9N3O2+
192.073	7	C9H10N3O2+
199.085	6	C12H11N2O+
201.0524	5	C10H7N3O2+
202.0598	69	C10H8N3O2+
203.0642	10	C9[13]CH8N3O2+
