Mass spectrum: Lidocaine-N-Oxide; LC-ESI-QTOF; MS2; CE: 50 eV; R=35000; [M+H]+
Name: Lidocaine-N-Oxide
Name: Lidocaine N-oxide
Name: 2-(2,6-dimethylanilino)-N,N-diethyl-2-oxoethanamine oxide
Formula: C14H22N2O2
Exact mass: 250.1681279
SMILES: CC[N+]([O-])(CC)CC(=O)NC1=C(C)C=CC=C1C
InChI: InChI=1S/C14H22N2O2/c1-5-16(18,6-2)10-13(17)15-14-11(3)8-7-9-12(14)4/h7-9H,5-6,10H2,1-4H3,(H,15,17)
Instrument: Bruker maXis Impact
Instrument type: LC-ESI-QTOF
Ms type: MS2
Ion mode: POSITIVE
Ionization: ESI
Fragmentation mode: CID
Collision energy: 50 eV
Resolution: 35000
Column name: Acclaim RSLC C18 2.2um, 2.1x100mm, Thermo
Retention time: 5.2 min
Base peak: 251.1754
Precursor m/z: 251.1754
Precursor type: [M+H]+
m/z	relative intensity	assigned
115.0534	23	C9H7+
117.056	17	C8H7N+
118.0642	79	C8H8N+
119.0713	40	C8H9N+
120.0802	999	C8H10N+
121.0846	107	C7[13]CH10N+
122.0957	87	C8H12N+
130.0646	36	C9H8N+
131.0726	33	C9H9N+
132.0804	23	C9H10N+
133.0515	90	C8H7NO+
134.0584	23	C8H8NO+
134.0953	82	C9H12N+
144.0803	25	C10H10N+
146.059	23	C9H8NO+
146.0959	16	C10H12N+
147.0663	22	C9H9NO+
148.0744	124	C9H10NO+
149.0779	21	C8[13]CH10NO+
