Mass spectrum: Pendimethalin; LC-ESI-QTOF; MS2; CE: 40 eV; R=35000; [M+H]+
Name: Pendimethalin
Name: 3,4-dimethyl-2,6-dinitro-N-pentan-3-ylaniline
Formula: C13H19N3O4
Exact mass: 281.1375561
SMILES: CCC(CC)NC1=C(C(C)=C(C)C=C1[N+]([O-])=O)[N+]([O-])=O
InChI: InChI=1S/C13H19N3O4/c1-5-10(6-2)14-12-11(15(17)18)7-8(3)9(4)13(12)16(19)20/h7,10,14H,5-6H2,1-4H3
Instrument: Bruker maXis Impact
Instrument type: LC-ESI-QTOF
Ms type: MS2
Ion mode: POSITIVE
Ionization: ESI
Fragmentation mode: CID
Collision energy: 40 eV
Resolution: 35000
Column name: Acclaim RSLC C18 2.2um, 2.1x100mm, Thermo
Retention time: 12.840 min
Base peak: 308.0037
Precursor m/z: 282.1448
Precursor type: [M+H]+
m/z	relative intensity	assigned
117.0439	102	C7H5N2+
118.0526	99	C7H6N2+
119.0591	413	C7H7N2+
119.072	95	C8H9N+
120.0674	115	C7H8N2+
129.0427	150	C5H7NO3+
130.0504	118	C5H8NO3+
131.0584	319	C5H9NO3+
132.0542	182	C4H8N2O3+
133.0375	102	C4H7NO4+
134.0951	244	C9H12N+
135.0542	155	C7H7N2O+
136.0377	93	C7H6NO2+
146.0949	114	C7H14O3+
147.0534	443	C5H9NO4+
148.0625	999	C8H8N2O+
149.023	253	C8H5O3+
149.06	199	C9H9O2+
151.051	90	C7H7N2O2+
160.0471	130	C5H8N2O4+
163.0483	425	C8H7N2O2+
164.0555	127	C8H8N2O2+
165.0654	96	C8H9N2O2+
166.0673	107	C12H8N+
176.0449	127	C8H6N3O2+
176.1408	235	C9H20O3+
177.0518	460	C8H7N3O2+
178.06	549	C8H8N3O2+
179.0427	99	C8H7N2O3+
194.0546	401	C8H8N3O3+
195.0618	252	C8H9N3O3+
225.04	107	C13H7NO3+
