Mass spectrum: Perfluorodecanoic acid; LC-ESI-QTOF; MS2; CE: 20 eV; R=35000; [M-H]-
Name: Perfluorodecanoic acid
Name: 2,2,3,3,4,4,5,5,6,6,7,7,8,8,9,9,10,10,10-nonadecafluorodecanoic acid
Formula: C10HF19O2
Exact mass: 513.9673155
SMILES: OC(=O)C(F)(F)C(F)(F)C(F)(F)C(F)(F)C(F)(F)C(F)(F)C(F)(F)C(F)(F)C(F)(F)F
InChI: InChI=1S/C10HF19O2/c11-2(12,1(30)31)3(13,14)4(15,16)5(17,18)6(19,20)7(21,22)8(23,24)9(25,26)10(27,28)29/h(H,30,31)
Instrument: Bruker maXis Impact
Instrument type: LC-ESI-QTOF
Ms type: MS2
Ion mode: NEGATIVE
Ionization: ESI
Fragmentation mode: CID
Collision energy: 20 eV
Resolution: 35000
Column name: Acclaim RSLC C18 2.2um, 2.1x100mm, Thermo
Retention time: 11.059 min
Base peak: 468.9692
Precursor m/z: 512.96
Precursor type: [M-H]-
m/z	relative intensity	assigned
118.9914	16	C2F5-
168.989	488	C3F7-
169.9934	10	C2[13]CF7-
196.9837	49	C4F7O-
218.9855	999	C4F9-
219.9894	35	C3[13]CF9-
246.978	13	F13-
246.9848	14	C10F5O2-
268.9823	867	C5F11-
269.9841	35	C4[13]CF11-
318.9779	142	C6F13-
319.9867	8	C5[13]CF13-
468.9683	596	C9F19-
469.9721	48	C8[13]CF19-
