Mass spectrum: 4-Hydroxytamoxifen; LC-ESI-QTOF; MS2; CE: Ramp 23.4-35.0 eV; R=35000; [M+H]+
Name: 4-Hydroxytamoxifen
Name: (Z)-4-(1-[4-(Dimethylaminoethoxy)phenyl]-2-phenyl-1-butenyl)phenol
Name: 4-[1-[4-[2-(dimethylamino)ethoxy]phenyl]-2-phenylbut-1-enyl]phenol
Formula: C26H29NO2
Exact mass: 387.2198292
SMILES: CCC(=C(C1=CC=C(O)C=C1)C1=CC=C(OCCN(C)C)C=C1)C1=CC=CC=C1
InChI: InChI=1S/C26H29NO2/c1-4-25(20-8-6-5-7-9-20)26(21-10-14-23(28)15-11-21)22-12-16-24(17-13-22)29-19-18-27(2)3/h5-17,28H,4,18-19H2,1-3H3
Instrument: Bruker maXis Impact
Instrument type: LC-ESI-QTOF
Ms type: MS2
Ion mode: POSITIVE
Ionization: ESI
Fragmentation mode: CID
Collision energy: Ramp 23.4-35.0 eV
Resolution: 35000
Column name: Acclaim RSLC C18 2.2um, 2.1x100mm, Thermo
Retention time: 8.741 min
Base peak: 306.0811
Precursor m/z: 388.2271
Precursor type: [M+H]+
m/z	relative intensity	assigned
56.049	6	C3H6N+
57.0571	7	C3H7N+
58.0645	16	C3H8N+
70.0647	29	C4H8N+
72.0805	999	C4H10N+
73.0838	41	C3[13]CH10N+
91.0548	6	C7H7+
129.0693	26	C10H9+
145.0638	29	C10H9O+
166.1221	18	C10H16NO+
194.0724	9	C14H10O+
207.0793	5	C15H11O+
208.0871	5	C15H12O+
209.0942	7	C15H13O+
221.0945	5	C16H13O+
222.1034	11	C16H14O+
223.111	41	C16H15O+
224.1151	10	C15[13]CH15O+
225.0901	5	C15H13O2+
249.1291	6	C18H17O+
270.1046	5	C20H14O+
301.1219	18	C21H17O2+
302.1246	5	C20[13]CH17O2+
314.1295	8	C22H18O2+
315.1373	6	C22H19O2+
316.1456	25	C22H20O2+
317.1472	6	C21[13]CH20O2+
343.1696	13	C24H23O2+
388.2277	741	C26H30NO2+
389.2312	294	C25[13]CH30NO2+
390.2331	33	C24[13]C2H30NO2+
