Mass spectrum: Hydroxychloroquine; LC-ESI-QTOF; MS2; CE: 40 eV; R=35000; [M+H]+
Name: Hydroxychloroquine
Name: 2-[4-[(7-chloroquinolin-4-yl)amino]pentyl-ethylamino]ethanol
Formula: C18H26ClN3O
Exact mass: 335.1764401
SMILES: CCN(CCO)CCCC(C)NC1=C2C=CC(Cl)=CC2=NC=C1
InChI: InChI=1S/C18H26ClN3O/c1-3-22(11-12-23)10-4-5-14(2)21-17-8-9-20-18-13-15(19)6-7-16(17)18/h6-9,13-14,23H,3-5,10-12H2,1-2H3,(H,20,21)
Instrument: Bruker maXis Impact
Instrument type: LC-ESI-QTOF
Ms type: MS2
Ion mode: POSITIVE
Ionization: ESI
Fragmentation mode: CID
Collision energy: 40 eV
Resolution: 35000
Column name: Acclaim RSLC C18 2.2um, 2.1x100mm, Thermo
Retention time: 3.761 min
Base peak: 336.1831
Precursor m/z: 336.1837
Precursor type: [M+H]+
m/z	relative intensity	assigned
130.1209	8	C7H16NO+
140.1417	5	C9H18N+
144.0668	14	C9H8N2+
155.0595	20	C10H7N2+
156.0668	58	C10H8N2+
156.1378	5	C9H18NO+
157.0687	6	C9[13]CH8N2+
158.1526	259	C9H20NO+
159.1555	29	C8[13]CH20NO+
163.0172	9	C10HN3+
164.0247	53	C9H7ClN+
166.0221	12	C9H7[37]ClN+
177.0316	8	C11H3N3+
178.0275	16	C12H4NO+
179.0358	610	C9H8ClN2+
180.0385	67	C8[13]CH8ClN2+
181.0328	177	C9H8[37]ClN2+
182.0356	10	C10H4N3O+
191.0359	330	C10H8ClN2+
192.0401	51	C9[13]CH8ClN2+
193.0328	89	C10H8[37]ClN2+
194.0361	11	C10H9ClNO+
195.0063	5	C15HN+
203.0364	11	C14H5NO+
204.0441	9	C14H6NO+
205.0512	107	C11H10ClN2+
206.0575	21	C10[13]CH10ClN2+
207.0482	27	C11H10[37]ClN2+
208.0554	7	C11H11ClNO+
247.099	999	C14H16ClN2+
248.1019	152	C13[13]CH16ClN2+
249.0959	263	C14H16[37]ClN2+
250.0997	22	C14H17ClNO+
