Mass spectrum: Thifensulfuron-methyl; LC-ESI-QTOF; MS2; CE: 50 eV; R=35000; [M+H]+
Name: Thifensulfuron-methyl
Name: methyl 3-[(4-methoxy-6-methyl-1,3,5-triazin-2-yl)carbamoylsulfamoyl]thiophene-2-carboxylate
Formula: C12H13N5O6S2
Exact mass: 387.0307251
SMILES: COC(=O)C1=C(C=CS1)S(=O)(=O)NC(=O)NC1=NC(C)=NC(OC)=N1
InChI: InChI=1S/C12H13N5O6S2/c1-6-13-10(16-12(14-6)23-3)15-11(19)17-25(20,21)7-4-5-24-8(7)9(18)22-2/h4-5H,1-3H3,(H2,13,14,15,16,17,19)
Instrument: Bruker maXis Impact
Instrument type: LC-ESI-QTOF
Ms type: MS2
Ion mode: POSITIVE
Ionization: ESI
Fragmentation mode: CID
Collision energy: 50 eV
Resolution: 35000
Column name: Acclaim RSLC C18 2.2um, 2.1x100mm, Thermo
Retention time: 6.3 min
Base peak: 388.0379
Precursor m/z: 388.038
Precursor type: [M+H]+
m/z	relative intensity	assigned
125.9764	433	C5H2O2S+
126.9819	28	H3N2O4S+
127.9715	22	C8S+
140.9997	198	C4H3N3OS+
141.0758	194	C4H13O5+
142.0022	26	C4H2N2O4+
142.0798	21	C8H14S+
143.9866	51	C3H2N3O2S+
149.0216	34	C6H3N3O2+
151.9769	14	C3H4O5S+
167.0552	999	C5H11O6+
168.0585	82	C4[13]CH11O6+
174.951	121	C3HN3O2S2+
175.954	13	H4N2O5S2+
176.9458	19	C8HOS2+
189.9621	56	C5H4NO3S2+
192.9603	17	C3H3N3O3S2+
204.9614	501	
205.9651	45	
206.9569	50	
215.9417	45	C6H2NO4S2+
222.9716	88	C4H5N3O4S2+
