Mass spectrum: 4,4`-Difluorobenzophenonen; GC-APCI-QTOF; MS2; CE: 30 eV; R=35000; [M+H]+
Name: 4,4`-Difluorobenzophenonen
Formula: C13H8F2O
Exact mass: 218.0543
SMILES: C1=CC(=CC=C1C(=O)C2=CC=C(C=C2)F)F
InChI: InChI=1S/C13H8F2O/c14-11-5-1-9(2-6-11)13(16)10-3-7-12(15)8-4-10/h1-8H
Instrument: Bruker 450 GC coupled to maXis Impact
Instrument type: GC-APCI-QTOF
Ms type: MS2
Ion mode: POSITIVE
Ionization: APCI
Fragmentation mode: CID
Collision energy: 30 eV
Resolution: 35000
Column name: Rxi-5Sil MS column, 30m, 0.25mm i.d., 0.25Âµm film thickness, Restek
Retention time: 13.366 min
Base peak: 219.0604
Precursor m/z: 219.0616
Precursor type: [M+H]+
m/z	relative intensity	assigned
113.0386	20	C9H5+
123.0233	999	C10H3+
129.0165	5	C6H3F2O+
170.0575	9	C9H8F2O+
187.058	6	C12H8FO+
188.0461	18	C12H6F2+
189.0527	45	C12H7F2+
198.0478	5	C13H7FO+
199.0552	5	C13H8FO+
201.0519	6	C13H7F2+
217.0466	65	C13H7F2O+
218.0515	10	C13H8F2O+
