Mass spectrum: Progesterone; LC-ESI-QTOF; MS2; CE: 50 eV; R=35000; [M+H]+
Name: Progesterone
Name: progesterone
Name: (8S,9S,10R,13S,14S,17S)-17-acetyl-10,13-dimethyl-1,2,6,7,8,9,11,12,14,15,16,17-dodecahydrocyclopenta[a]phenanthren-3-one
Formula: C21H30O2
Exact mass: 314.2245802
SMILES: CC(=O)[C@H]1CC[C@@H]2[C@@]1(CC[C@H]3[C@H]2CCC4=CC(=O)CC[C@]34C)C
InChI: InChI=1S/C21H30O2/c1-13(22)17-6-7-18-16-5-4-14-12-15(23)8-10-20(14,2)19(16)9-11-21(17,18)3/h12,16-19H,4-11H2,1-3H3/t16-,17+,18-,19-,20-,21+/m0/s1
Instrument: Bruker maXis Impact
Instrument type: LC-ESI-QTOF
Ms type: MS2
Ion mode: POSITIVE
Ionization: ESI
Fragmentation mode: CID
Collision energy: 50 eV
Resolution: 35000
Column name: Acclaim RSLC C18 2.2um, 2.1x100mm, Thermo
Retention time: 11.078 min
Base peak: 315.2349
Precursor m/z: 315.2319
Precursor type: [M+H]+
m/z	relative intensity	assigned
109.0654	92	C7H9O+
115.0553	214	C9H7+
117.071	215	C9H9+
119.0865	582	C9H11+
121.0655	152	C8H9O+
121.1014	161	C9H13+
123.081	999	C8H11O+
128.0631	221	C10H8+
129.0711	353	C10H9+
130.0782	165	C10H10+
131.0862	767	C10H11+
133.1024	402	C10H13+
134.1064	51	C10H14+
135.0821	78	C9H11O+
135.1175	101	C10H15+
137.0954	67	C9H13O+
141.0707	199	C11H9+
142.0783	211	C11H10+
143.0866	515	C11H11+
144.0938	204	C11H12+
145.065	64	C10H9O+
145.1023	601	C11H13+
146.1069	93	C11H14+
147.0819	122	C10H11O+
147.1172	308	C11H15+
148.0866	74	C10H12O+
149.098	104	C10H13O+
149.1336	96	C11H17+
153.0719	84	C12H9+
154.0797	86	C12H10+
155.0875	142	C12H11+
156.0934	132	C12H12+
157.1026	349	C12H13+
158.1112	110	C12H14+
159.1171	404	C12H15+
160.1223	88	C12H16+
161.0978	72	C11H13O+
161.1328	142	C12H17+
163.111	109	C11H15O+
167.088	119	C13H11+
168.0939	54	C13H12+
169.1013	138	C13H13+
170.1112	60	C13H14+
171.1181	155	C13H15+
172.1241	54	C13H16+
173.1342	224	C13H17+
175.1122	55	C12H15O+
177.1294	76	C12H17O+
179.0875	54	C14H11+
181.1029	74	C14H13+
182.1119	78	C14H14+
183.1207	133	C14H15+
184.1286	50	C14H16+
185.1355	101	C14H17+
187.1477	54	C14H19+
193.1009	50	C15H13+
195.0837	130	C14H11O+
195.1175	65	C15H15+
196.088	80	C14H12O+
197.1343	57	C15H17+
199.1497	74	C15H19+
200.0222	92	C15H4O+
208.1284	56	C16H16+
209.135	59	C16H17+
213.1681	50	C16H21+
222.1033	235	C16H14O+
223.1111	171	C16H15O+
224.1196	58	C16H16O+
241.0669	64	C18H9O+
254.0748	94	C19H10O+
256.0927	322	C19H12O+
257.0954	96	C19H13O+
282.1084	92	C21H14O+
283.1148	70	C21H15O+
