Mass spectrum: Chlorophene; LC-ESI-QTOF; MS2; CE: 30 eV; R=35000; [M-H]-
Name: Chlorophene
Name: 2-benzyl-4-chlorophenol
Formula: C13H11ClO
Exact mass: 218.0498427
SMILES: OC1=CC=C(Cl)C=C1CC1=CC=CC=C1
InChI: InChI=1S/C13H11ClO/c14-12-6-7-13(15)11(9-12)8-10-4-2-1-3-5-10/h1-7,9,15H,8H2
Instrument: Bruker maXis Impact
Instrument type: LC-ESI-QTOF
Ms type: MS2
Ion mode: NEGATIVE
Ionization: ESI
Fragmentation mode: CID
Collision energy: 30 eV
Resolution: 35000
Column name: Acclaim RSLC C18 2.2um, 2.1x100mm, Thermo
Retention time: 10.958 min
Base peak: 217.0423
Precursor m/z: 217.0426
Precursor type: [M-H]-
m/z	relative intensity	assigned
152.0643	472	C12H8-
153.0683	356	C12H9-
180.0571	334	C13H8O-
217.0408	999	C13H10ClO-
219.0387	539	C13H10[37]ClO-
