Mass spectrum: Drospirenone; LC-ESI-QTOF; MS2; CE: 40 eV; R=35000; [M+H]+
Name: Drospirenone
Name: (1R,2R,4R,10R,11S,14S,15S,16S,18S,19S)-10,14-dimethylspiro[hexacyclo[9.8.0.02,4.05,10.014,19.016,18]nonadec-5-ene-15,5`-oxolane]-2`,7-dione
Formula: C24H30O3
Exact mass: 366.2194948
SMILES: [H][C@@]12[C@@H]3C[C@@H]3[C@@]3(CCC(=O)O3)[C@@]1(C)CC[C@@]1([H])[C@@]2([H])[C@H]2C[C@H]2C2=CC(=O)CC[C@]12C
InChI: InChI=1S/C24H30O3/c1-22-6-3-12(25)9-17(22)13-10-14(13)20-16(22)4-7-23(2)21(20)15-11-18(15)24(23)8-5-19(26)27-24/h9,13-16,18,20-21H,3-8,10-11H2,1-2H3/t13-,14+,15-,16+,18+,20-,21+,22-,23+,24+/m1/s1
Instrument: Bruker maXis Impact
Instrument type: LC-ESI-QTOF
Ms type: MS2
Ion mode: POSITIVE
Ionization: ESI
Fragmentation mode: CID
Collision energy: 40 eV
Resolution: 35000
Column name: Acclaim RSLC C18 2.2um, 2.1x100mm, Thermo
Retention time: 9.543 min
Base peak: 367.2263
Precursor m/z: 367.2268
Precursor type: [M+H]+
m/z	relative intensity	assigned
111.0429	8	C6H7O2+
115.0534	130	C9H7+
116.0613	32	C9H8+
117.0689	188	C9H9+
118.0729	26	C8[13]CH9+
119.0845	310	C9H11+
120.0874	39	C8[13]CH11+
121.0638	184	C8H9O+
121.1004	46	C9H13+
122.0672	18	C7[13]CH9O+
123.0795	245	C8H11O+
124.0834	18	C7[13]CH11O+
125.0586	24	C7H9O2+
127.0531	19	C10H7+
127.0734	6	C7H11O2+
128.0607	247	C10H8+
129.0685	414	C10H9+
130.0746	105	C10H10+
131.0845	999	C10H11+
132.0562	9	C9H8O+
132.0881	104	C9[13]CH11+
133.0636	82	C9H9O+
133.0999	257	C10H13+
134.1041	26	C9[13]CH13+
135.0793	377	C9H11O+
135.1155	37	C10H15+
136.1226	7	C10H16+
137.0588	11	C8H9O2+
137.0946	52	C9H13O+
138.0988	7	C8[13]CH13O+
139.076	7	C8H11O2+
141.0685	206	C11H9+
142.0758	219	C11H10+
143.0842	859	C11H11+
144.0563	15	C10H8O+
144.0894	136	C10[13]CH11+
145.0635	65	C10H9O+
145.0999	562	C11H13+
146.0702	18	C10H10O+
146.1037	64	C10[13]CH13+
147.079	417	C10H11O+
147.1151	114	C11H15+
148.0835	59	C9[13]CH11O+
148.1205	18	C10[13]CH15+
149.0945	453	C10H13O+
150.0979	63	C9[13]CH13O+
151.0741	47	C9H11O2+
151.1099	19	C10H15O+
152.0614	16	C12H8+
153.0683	64	C12H9+
153.09	26	C9H13O2+
154.0764	75	C12H10+
155.0838	397	C12H11+
156.091	241	C12H12+
157.0998	762	C12H13+
158.0704	20	C11H10O+
158.1042	107	C11[13]CH13+
159.0789	493	C11H11O+
159.1156	560	C12H15+
160.0841	90	C10[13]CH11O+
160.1188	75	C11[13]CH15+
161.0948	172	C11H13O+
161.1307	57	C12H17+
162.0993	28	C10[13]CH13O+
162.1352	9	C11[13]CH17+
163.074	44	C10H11O2+
163.1104	40	C11H15O+
164.083	5	C9[13]CH11O2+
165.0682	63	C13H9+
165.0893	47	C10H13O2+
166.0755	47	C13H10+
167.0835	118	C13H11+
168.0911	108	C13H12+
169.0995	466	C13H13+
170.1056	92	C12[13]CH13+
171.0782	59	C12H11O+
171.1154	882	C13H15+
172.1197	173	C12[13]CH15+
173.0945	233	C12H13O+
173.1309	170	C13H17+
174.0984	33	C11[13]CH13O+
174.1354	25	C12[13]CH17+
175.0733	22	C11H11O2+
175.1104	107	C12H15O+
175.151	7	C13H19+
176.1138	21	C11[13]CH15O+
177.0895	395	C11H13O2+
178.0766	24	C14H10+
178.0929	39	C10[13]CH13O2+
179.0838	89	C14H11+
179.1048	16	C11H15O2+
180.0916	69	C14H12+
181.0993	233	C14H13+
182.1062	102	C14H14+
183.0789	33	C13H11O+
183.1155	358	C14H15+
184.0881	13	C13H12O+
184.1204	85	C13[13]CH15+
185.094	137	C13H13O+
185.131	290	C14H17+
186.1008	32	C13H14O+
186.1349	43	C13[13]CH17+
187.1109	80	C13H15O+
187.1453	30	C14H19+
188.1147	19	C12[13]CH15O+
189.0897	26	C12H13O2+
189.126	70	C13H17O+
190.0966	12	C12H14O2+
190.131	14	C12[13]CH17O+
191.0843	17	C15H11+
191.1049	56	C12H15O2+
192.0927	39	C15H12+
193.0993	117	C15H13+
193.1189	6	C12H17O2+
194.107	56	C15H14+
195.1153	297	C15H15+
196.0844	8	C14H12O+
196.1205	74	C14[13]CH15+
197.0954	74	C14H13O+
197.131	441	C15H17+
198.1002	28	C14H14O+
198.1348	87	C14[13]CH17+
199.1105	124	C14H15O+
199.1468	70	C15H19+
200.1157	22	C13[13]CH15O+
200.1516	11	C14[13]CH19+
201.0904	16	C13H13O2+
201.1261	91	C14H17O+
201.1623	8	C15H21+
202.0987	6	C13H14O2+
202.13	20	C13[13]CH17O+
203.0855	9	C16H11+
203.1053	50	C13H15O2+
203.1413	10	C14H19O+
204.093	11	C16H12+
204.1126	8	C12[13]CH15O2+
205.1	44	C16H13+
205.12	30	C13H17O2+
206.1072	56	C16H14+
207.1148	103	C16H15+
208.1223	40	C16H16+
209.0941	28	C15H13O+
209.1306	149	C16H17+
210.0993	11	C15H14O+
210.1363	38	C15[13]CH17+
211.1101	73	C15H15O+
211.1465	112	C16H19+
212.1155	21	C15H16O+
212.1508	31	C15[13]CH19+
213.0895	7	C14H13O2+
213.1259	104	C15H17O+
214.1324	26	C14[13]CH17O+
215.1047	32	C14H15O2+
215.1412	39	C15H19O+
215.1802	5	C16H23+
216.1143	15	C14H16O2+
216.1442	6	C14[13]CH19O+
217.0998	20	C17H13+
217.1203	44	C14H17O2+
218.1071	22	C17H14+
218.1251	9	C13[13]CH17O2+
219.1142	57	C17H15+
219.1361	75	C14H19O2+
220.1237	39	C17H16+
220.1395	10	C13[13]CH19O2+
221.1307	154	C17H17+
222.1016	7	C16H14O+
222.1368	40	C16[13]CH17+
223.1112	32	C16H15O+
223.1472	101	C17H19+
224.1168	21	C16H16O+
224.1513	20	C16[13]CH19+
225.1258	56	C16H17O+
225.1636	46	C17H21+
226.1641	7	C16[13]CH21+
227.1067	12	C15H15O2+
227.1422	54	C16H19O+
227.1793	8	C17H23+
228.1117	5	C15H16O2+
228.1476	12	C15[13]CH19O+
229.1212	39	C15H17O2+
229.1597	12	C16H21O+
230.1088	6	C18H14+
230.1272	8	C14[13]CH17O2+
231.1169	17	C18H15+
231.1366	81	C15H19O2+
232.1242	18	C18H16+
232.1402	19	C14[13]CH19O2+
233.1314	80	C18H17+
234.1	5	C17H14O+
234.1364	28	C18H18+
235.111	15	C17H15O+
235.1465	77	C18H19+
236.115	10	C17H16O+
236.1517	25	C17[13]CH19+
237.1249	43	C17H17O+
237.1624	44	C18H21+
238.1319	15	C17H18O+
238.1672	15	C18H22+
239.104	8	C16H15O2+
239.1417	83	C17H19O+
239.1764	10	C18H23+
240.1496	27	C17H20O+
241.1215	16	C16H17O2+
241.1585	24	C17H21O+
242.1265	7	C16H18O2+
242.1619	5	C16[13]CH21O+
243.1129	6	C19H15+
243.1371	32	C16H19O2+
244.121	5	C19H16+
244.1422	7	C15[13]CH19O2+
245.0936	8	C18H13O+
245.1332	20	C19H17+
245.1535	19	C16H21O2+
246.1393	18	C19H18+
246.1607	5	C15[13]CH21O2+
247.1474	59	C19H19+
248.1195	6	C18H16O+
248.1527	25	C19H20+
249.1276	19	C18H17O+
249.1617	48	C19H21+
250.1329	8	C18H18O+
250.169	18	C19H22+
251.1417	43	C18H19O+
251.1789	32	C19H23+
252.1472	16	C18H20O+
252.1829	7	C18[13]CH23+
253.1218	8	C17H17O2+
253.1571	54	C18H21O+
254.125	6	C17H18O2+
254.1615	21	C18H22O+
255.1355	20	C17H19O2+
255.1728	6	C18H23O+
257.1314	10	C20H17+
257.1529	55	C17H21O2+
258.1385	6	C20H18+
258.1574	15	C16[13]CH21O2+
259.1468	22	C20H19+
260.155	14	C20H20+
261.1252	9	C19H17O+
261.1635	49	C20H21+
262.1674	18	C20H22+
263.1431	15	C19H19O+
263.177	16	C20H23+
264.1493	7	C19H20O+
264.1846	8	C20H24+
265.123	7	C18H17O2+
265.1577	34	C19H21O+
265.1943	16	C20H25+
266.1623	12	C19H22O+
267.1362	13	C18H19O2+
267.1729	18	C19H23O+
268.1432	6	C18H20O2+
269.1516	17	C18H21O2+
269.1903	6	C19H25O+
270.1558	5	C18H22O2+
271.1489	9	C21H19+
271.1666	10	C18H23O2+
272.1498	7	C21H20+
273.1595	10	C21H21+
274.1674	18	C21H22+
275.1399	13	C20H19O+
275.1777	14	C21H23+
276.1454	9	C20H20O+
276.1858	10	C21H24+
277.1576	15	C20H21O+
277.1917	6	C21H25+
278.1602	5	C19[13]CH21O+
279.1374	8	C19H19O2+
279.1734	32	C20H23O+
279.2088	8	C21H27+
280.177	12	C20H24O+
281.1518	29	C19H21O2+
282.1577	6	C18[13]CH21O2+
283.167	23	C19H23O2+
285.1637	7	C22H21+
287.1816	8	C22H23+
288.1827	9	C22H24+
289.1576	13	C21H21O+
289.1944	32	C22H25+
290.1954	9	C21[13]CH25+
291.1713	8	C21H23O+
292.181	8	C21H24O+
293.1547	13	C20H21O2+
293.1904	9	C21H25O+
294.1614	7	C20H22O2+
294.1951	7	C21H26O+
295.1683	19	C20H23O2+
296.1759	10	C20H24O2+
297.1495	6	C19H21O3+
297.1816	7	C20H25O2+
298.1761	5	C23H22+
303.1746	7	C22H23O+
303.2093	6	C23H27+
305.1895	16	C22H25O+
306.1913	6	C22H26O+
307.1683	8	C21H23O2+
307.2042	31	C22H27O+
308.1739	5	C21H24O2+
308.2052	9	C21[13]CH27O+
309.1817	14	C21H25O2+
310.187	6	C21H26O2+
313.1917	6	C24H25+
320.1779	6	C22H24O2+
321.1848	9	C22H25O2+
321.219	9	C23H29O+
322.2239	5	C23H30O+
323.2013	10	C22H27O2+
325.2173	8	C22H29O2+
331.204	15	C24H27O+
334.19	6	C23H26O2+
349.2139	26	C24H29O2+
350.2198	16	C24H30O2+
352.2005	6	C23H28O3+
367.2262	29	C24H31O3+
368.2295	7	C23[13]CH31O3+
