Mass spectrum: Azoxystrobin acid; LC-ESI-QTOF; MS2; CE: 30 eV; R=35000; [M+H]+
Name: Azoxystrobin acid
Name: SCHEMBL435486
Name: (E)-2-[2-[6-(2-cyanophenoxy)pyrimidin-4-yl]oxyphenyl]-3-methoxyprop-2-enoic acid
Formula: C21H15N3O5
Exact mass: 389.1011706
SMILES: CO\C=C(\C(O)=O)c1ccccc1Oc1cc(Oc2ccccc2C#N)ncn1
InChI: InChI=1S/C21H15N3O5/c1-27-12-16(21(25)26)15-7-3-5-9-18(15)29-20-10-19(23-13-24-20)28-17-8-4-2-6-14(17)11-22/h2-10,12-13H,1H3,(H,25,26)/b16-12+
Instrument: Bruker maXis Impact
Instrument type: LC-ESI-QTOF
Ms type: MS2
Ion mode: POSITIVE
Ionization: ESI
Fragmentation mode: CID
Collision energy: 30 eV
Resolution: 35000
Column name: Acclaim RSLC C18 2.2um, 2.1x100mm, Thermo
Retention time: 7.9 min
Base peak: 390.1085
Precursor m/z: 390.1084
Precursor type: [M+H]+
m/z	relative intensity	assigned
129.0426	5	C5H7NO3+
134.0588	32	C8H8NO+
143.059	23	C6H9NO3+
145.0268	14	C7H3N3O+
149.0219	16	C6H3N3O2+
156.0436	7	C10H6NO+
162.0543	10	C9H8NO2+
169.0384	9	C10H5N2O+
171.0545	14	C10H7N2O+
172.0383	35	C10H6NO2+
173.0446	5	C7H9O5+
177.0534	12	C8H7N3O2+
182.0699	5	C8H10N2O3+
183.0546	15	C11H7N2O+
186.0544	5	C11H8NO2+
187.0492	9	C10H7N2O2+
197.0701	6	C12H9N2O+
199.0489	5	C11H7N2O2+
201.0407	13	C11H7NO3+
201.0647	33	C11H9N2O2+
202.0481	6	C11H8NO3+
210.0422	11	C12H6N2O2+
210.065	31	C12H8N3O+
211.0481	6	C9H9NO5+
211.0703	5	C9H11N2O4+
216.0643	65	C12H10NO3+
217.0689	8	C11[13]CH10NO3+
272.081	5	C17H10N3O+
273.0823	6	C18H11NO2+
287.0813	20	C18H11N2O2+
288.0737	6	C14H12N2O5+
288.0841	6	C15H14NO5+
288.1127	7	C18H14N3O+
289.0954	11	C15H15NO5+
301.0857	37	C20H13O3+
302.0873	9	C19[13]CH13O3+
303.0749	21	C18H11N2O3+
304.0794	6	C18H12N2O3+
312.0766	7	C19H10N3O2+
314.0926	12	C19H12N3O2+
315.0748	5	C19H11N2O3+
315.0984	15	C16H15N2O5+
316.1071	78	C19H14N3O2+
317.0921	16	C19H13N2O3+
317.1085	21	C18[13]CH14N3O2+
318.0952	5	C19H14N2O3+
328.0715	17	C19H10N3O3+
328.1085	6	C20H14N3O2+
329.0794	499	C19H11N3O3+
330.0818	106	C18[13]CH11N3O3+
340.0727	7	C20H10N3O3+
344.1032	999	C20H14N3O3+
345.1058	220	C19[13]CH14N3O3+
346.1128	31	C18[13]C2H14N3O3+
347.1203	6	C19H15N4O3+
372.098	611	C21H14N3O4+
373.1007	138	C20[13]CH14N3O4+
374.1043	20	C19[13]C2H14N3O4+
