Mass spectrum: Carbaryl; LC-ESI-QTOF; MS2; CE: 30 eV; R=35000; [M+H]+
Name: Carbaryl
Name: naphthalen-1-yl N-methylcarbamate
Formula: C12H11NO2
Exact mass: 201.0789786
SMILES: CNC(=O)OC1=C2C=CC=CC2=CC=C1
InChI: InChI=1S/C12H11NO2/c1-13-12(14)15-11-8-4-6-9-5-2-3-7-10(9)11/h2-8H,1H3,(H,13,14)
Instrument: Bruker maXis Impact
Instrument type: LC-ESI-QTOF
Ms type: MS2
Ion mode: POSITIVE
Ionization: ESI
Fragmentation mode: CID
Collision energy: 30 eV
Resolution: 35000
Column name: Acclaim RSLC C18 2.2um, 2.1x100mm, Thermo
Retention time: 7.455 min
Base peak: 202.0855
Precursor m/z: 202.0863
Precursor type: [M+H]+
m/z	relative intensity	assigned
115.0538	102	C9H7+
116.0581	14	C8[13]CH7+
117.0693	163	C9H9+
118.0725	20	C8[13]CH9+
126.0453	25	C10H6+
127.0534	175	C10H7+
128.0573	22	C9[13]CH7+
144.0559	16	C10H8O+
145.064	999	C10H9O+
146.0672	101	C9[13]CH9O+
147.0695	6	C8[13]C2H9O+
