Mass spectrum: (+/-)-Camphor; GC-APCI-QTOF; MS2; CE: 20 eV; R=35000; [M+H]+
Name: (+/-)-Camphor
Formula: C10H16O
Exact mass: 152.1201
SMILES: CC1(C2CCC1(C(=O)C2)C)C
InChI: InChI=1S/C10H16O/c1-9(2)7-4-5-10(9,3)8(11)6-7/h7H,4-6H2,1-3H3
Instrument: Bruker 450 GC coupled to maXis Impact
Instrument type: GC-APCI-QTOF
Ms type: MS2
Ion mode: POSITIVE
Ionization: APCI
Fragmentation mode: CID
Collision energy: 20 eV
Resolution: 35000
Column name: Rxi-5Sil MS column, 30m, 0.25mm i.d., 0.25Âµm film thickness, Restek
Retention time: 9.036 min
Base peak: 153.1254
Precursor m/z: 153.1274
Precursor type: [M+H]+
m/z	relative intensity	assigned
55.0544	105	C4H7+
59.05	117	C3H7O+
67.0548	88	C5H7+
69.0332	216	C4H5O+
69.0701	350	C5H9+
95.0875	64	C7H11+
97.0656	343	C6H9O+
107.0865	127	C8H11+
109.1028	225	C8H13+
119.0855	100	C9H11+
135.1166	838	C10H15+
137.096	621	C9H13O+
138.1018	69	C9H14O+
153.1268	999	C10H17O+
