Mass spectrum: Zopiclone; LC-ESI-QTOF; MS2; CE: RAMP 23.4-35.1 eV; R=35000; [M+H]+
Name: Zopiclone
Name: zopiclone
Name: [6-(5-chloropyridin-2-yl)-5-oxo-7H-pyrrolo[3,4-b]pyrazin-7-yl] 4-methylpiperazine-1-carboxylate
Formula: C17H17ClN6O3
Exact mass: 388.1050661
SMILES: CN1CCN(CC1)C(=O)OC2c3c(nccn3)C(=O)N2c4ccc(cn4)Cl
InChI: InChI=1S/C17H17ClN6O3/c1-22-6-8-23(9-7-22)17(26)27-16-14-13(19-4-5-20-14)15(25)24(16)12-3-2-11(18)10-21-12/h2-5,10,16H,6-9H2,1H3
Instrument: Bruker maXis Impact
Instrument type: LC-ESI-QTOF
Ms type: MS2
Ion mode: POSITIVE
Ionization: ESI
Fragmentation mode: CID
Collision energy: RAMP 23.4-35.1 eV
Resolution: 35000
Column name: Acclaim RSLC C18 2.2um, 2.1x100mm, Thermo
Retention time: 5.092 min
Base peak: 389.1127
Precursor m/z: 389.1123
Precursor type: [M+H]+
m/z	relative intensity	assigned
98.0844	13	C5H10N2+
99.092	20	C5H11N2+
130.0054	7	C5H5ClNO+
139.0048	30	C9HNO+
143.0805	22	CH12ClN6+
157.016	23	C9H3NO2+
217.0277	537	C10H6ClN4+
219.0245	143	C7H3N6O3+
220.0275	6	C6[13]CH3N6O3+
245.0222	999	C11H6ClN4O+
246.0247	151	C17H7Cl+
247.0187	308	C16H6ClN+
248.0214	23	C14H4N2O3+
263.0334	510	C11H8ClN4O2+
265.0314	220	C16H8ClNO+
266.0326	22	C15[13]CH8ClNO+
345.1245	13	C16H18ClN6O+
347.1208	6	C16H18[37]ClN6O+
