Mass spectrum: Desloratadine; LC-ESI-QTOF; MS2; CE: 50 eV; R=35000; [M+H]+
Name: Desloratadine
Name: 13-chloro-2-piperidin-4-ylidene-4-azatricyclo[9.4.0.03,8]pentadeca-1(11),3(8),4,6,12,14-hexaene
Formula: C19H19ClN2
Exact mass: 310.1236763
SMILES: ClC1=CC2=C(C=C1)C(=C1CCNCC1)C1=C(CC2)C=CC=N1
InChI: InChI=1S/C19H19ClN2/c20-16-5-6-17-15(12-16)4-3-14-2-1-9-22-19(14)18(17)13-7-10-21-11-8-13/h1-2,5-6,9,12,21H,3-4,7-8,10-11H2
Instrument: Bruker maXis Impact
Instrument type: LC-ESI-QTOF
Ms type: MS2
Ion mode: POSITIVE
Ionization: ESI
Fragmentation mode: CID
Collision energy: 50 eV
Resolution: 35000
Column name: Acclaim RSLC C18 2.2um, 2.1x100mm, Thermo
Retention time: 7.279 min
Base peak: 311.1315
Precursor m/z: 311.131
Precursor type: [M+H]+
m/z	relative intensity	assigned
130.0641	5	C9H8N+
165.0685	6	C13H9+
192.08	7	C14H10N+
193.0873	15	C14H11N+
204.0799	7	C15H10N+
214.0407	27	C13H9ClN+
215.0443	5	C12[13]CH9ClN+
216.0385	8	C13H9[37]ClN+
216.0799	17	C16H10N+
217.0877	46	C16H11N+
218.0953	47	C16H12N+
219.1019	15	C16H13N+
228.0568	17	C14H11ClN+
228.08	13	C17H10N+
229.063	7	C14H12ClN+
229.0876	17	C17H11N+
230.0956	66	C17H12N+
231.1034	97	C17H13N+
232.1107	74	C17H14N+
233.1154	13	C16[13]CH14N+
238.0409	14	C15H9ClN+
241.0882	17	C18H11N+
242.0958	72	C18H12N+
243.1038	453	C18H13N+
244.1106	258	C18H14N+
245.1177	84	C17[13]CH14N+
246.126	42	C18H16N+
247.1327	14	C18H17N+
251.049	21	C16H10ClN+
252.0571	133	C16H11ClN+
253.0633	57	C16H12ClN+
254.0546	31	C16H11[37]ClN+
255.0611	16	C16H12[37]ClN+
256.1115	70	C19H14N+
257.1185	51	C19H15N+
258.1274	999	C19H16N+
259.1333	410	C19H17N+
260.1376	50	C18[13]CH17N+
264.057	22	C17H11ClN+
265.0638	15	C17H12ClN+
266.0726	170	C17H13ClN+
267.0797	127	C17H14ClN+
268.0709	39	C17H13[37]ClN+
269.077	34	C17H14[37]ClN+
276.0567	5	C18H11ClN+
277.0647	33	C18H12ClN+
278.0727	111	C18H13ClN+
279.0797	94	C18H14ClN+
280.071	24	C18H13[37]ClN+
280.0868	78	C18H15ClN+
281.079	24	C18H14[37]ClN+
282.0849	21	C18H15[37]ClN+
282.1014	15	C18H17ClN+
292.0881	52	C19H15ClN+
293.0929	13	C18[13]CH15ClN+
294.0864	14	C19H15[37]ClN+
