Mass spectrum: Perfluorodecanoic acid (PFDA); LC-ESI-QTOF; MS2; CE: 10 eV; R=35000; [M-H]-
Name: Perfluorodecanoic acid (PFDA)
Name: Perfluorodecanoic acid
Name: 2,2,3,3,4,4,5,5,6,6,7,7,8,8,9,9,10,10,10-nonadecafluorodecanoic acid
Formula: C10HF19O2
Exact mass: 513.9673
SMILES: C(=O)(C(C(C(C(C(C(C(C(C(F)(F)F)(F)F)(F)F)(F)F)(F)F)(F)F)(F)F)(F)F)(F)F)O
InChI: InChI=1S/C10HF19O2/c11-2(12,1(30)31)3(13,14)4(15,16)5(17,18)6(19,20)7(21,22)8(23,24)9(25,26)10(27,28)29/h(H,30,31)
Instrument: Bruker maXis Impact
Instrument type: LC-ESI-QTOF
Ms type: MS2
Ion mode: NEGATIVE
Ionization: ESI
Fragmentation mode: CID
Collision energy: 10 eV
Resolution: 35000
Column name: Acclaim RSLC C18 2.2um, 2.1x100mm, Thermo
Retention time: 11.074 min
Base peak: 512.9606
Precursor m/z: 512.96
Precursor type: [M-H]-
m/z	relative intensity
468.9701	999
469.9715	34
512.9586	140
