Mass spectrum: Clobetasol propionate; LC-ESI-QTOF; MS2; CE: 40 eV; R=35000; [M+H]+
Name: Clobetasol propionate
Name: [(8S,9R,10S,11S,13S,14S,16S,17R)-17-(2-chloroacetyl)-9-fluoro-11-hydroxy-10,13,16-trimethyl-3-oxo-6,7,8,11,12,14,15,16-octahydrocyclopenta[a]phenanthren-17-yl] propanoate
Formula: C25H32ClFO5
Exact mass: 466.1922300
SMILES: CCC(=O)O[C@@]1([C@@H](C)C[C@H]2[C@@H]3CCC4=CC(=O)C=C[C@]4(C)[C@@]3(F)[C@@H](O)C[C@]12C)C(=O)CCl
InChI: InChI=1S/C25H32ClFO5/c1-5-21(31)32-25(20(30)13-26)14(2)10-18-17-7-6-15-11-16(28)8-9-22(15,3)24(17,27)19(29)12-23(18,25)4/h8-9,11,14,17-19,29H,5-7,10,12-13H2,1-4H3/t14-,17-,18-,19-,22-,23-,24-,25-/m0/s1
Instrument: Bruker maXis Impact
Instrument type: LC-ESI-QTOF
Ms type: MS2
Ion mode: POSITIVE
Ionization: ESI
Fragmentation mode: CID
Collision energy: 40 eV
Resolution: 35000
Column name: Acclaim RSLC C18 2.2um, 2.1x100mm, Thermo
Retention time: 10.681 min
Base peak: 313.2164
Precursor m/z: 467.1995
Precursor type: [M+H]+
m/z	relative intensity	assigned
115.0544	22	C9H7+
116.0614	7	ClFH14O3+
117.0694	20	C9H9+
119.0851	65	C9H11+
120.0884	10	C3H17ClO2+
121.064	204	C8H9O+
121.1005	81	C9H13+
122.0667	17	C7[13]CH9O+
122.1035	11	C8[13]CH13+
123.0814	8	C5H12FO2+
127.0295	6	C7H8Cl+
128.0614	45	CH14ClFO3+
129.0089	6	C6H6ClO+
129.0691	20	CH15ClFO3+
130.0749	6	C4H15ClO2+
131.0475	11	ClFH13O4+
131.0845	80	C10H11+
132.0554	22	ClFH14O4+
132.0888	14	C9[13]CH11+
133.0411	25	C6H10ClO+
133.0637	35	ClFH15O4+
133.1005	72	C10H13+
134.0699	5	C3H15ClO3+
134.1044	9	C9[13]CH13+
135.0793	176	C9H11O+
136.0841	18	C8[13]CH11O+
137.0949	11	ClFH19O4+
141.0439	5	C8H10Cl+
141.0689	40	C2H15ClFO3+
142.0767	16	C2H16ClFO3+
143.0249	20	C7H8ClO+
143.0611	30	C8H12Cl+
143.0841	84	C8H12FO+
144.0557	26	CH14ClFO4+
144.0912	8	C7[13]CH12FO+
145.0403	9	C7H10ClO+
145.0635	106	C10H9O+
145.1003	51	C11H13+
146.0714	15	C9[13]CH9O+
146.1048	5	C10[13]CH13+
147.0796	787	C10H11O+
148.0832	95	C9[13]CH11O+
149.0948	51	C10H13O+
150.0989	5	C9[13]CH13O+
151.0743	5	ClFH17O5+
153.0444	7	C9H10Cl+
153.0684	6	C3H15ClFO3+
155.0596	19	C9H12Cl+
155.084	42	C3H17ClFO3+
156.055	7	C5H13ClO3+
156.0913	14	C6H17ClO2+
157.0418	11	C8H10ClO+
157.0642	17	C2H15ClFO4+
157.077	22	C9H14Cl+
157.1004	58	C12H13+
158.0713	46	C2H16ClFO4+
158.1051	8	C11[13]CH13+
159.0793	373	C11H11O+
160.0838	41	C10[13]CH11O+
161.0581	39	C10H9O2+
161.0949	182	C11H13O+
162.0645	6	C9[13]CH9O2+
162.0977	29	C10[13]CH13O+
163.0741	31	CH17ClFO5+
163.1078	6	C5H20ClO3+
165.0692	19	C4H15ClFO3+
166.0743	8	C7H15ClO2+
167.0608	116	C10H12Cl+
167.0845	14	C4H17ClFO3+
168.0628	14	C9[13]CH12Cl+
168.0916	6	C7H17ClO2+
169.0409	13	C9H10ClO+
169.0604	50	C10H12[37]Cl+
169.1011	20	C13H13+
170.0722	14	C12H10O+
170.1061	14	C7H19ClO2+
171.0562	126	C9H12ClO+
171.0793	476	C12H11O+
171.1164	36	C13H15+
172.0604	15	C8[13]CH12ClO+
172.0835	76	C11[13]CH11O+
172.118	5	C12[13]CH15+
173.0523	36	C9H12[37]ClO+
173.0948	304	C12H13O+
174.0993	33	C11[13]CH13O+
175.0743	17	C2H17ClFO5+
175.0907	15	C12H12F+
175.1119	29	C12H15O+
177.0897	17	C2H19ClFO5+
178.077	7	C5H16ClFO3+
179.0643	5	C8H13ClFO+
179.0839	20	C5H17ClFO3+
180.0913	11	C8H17ClO2+
181.0636	8	C4H15ClFO4+
181.0748	6	C11H14Cl+
181.0996	18	C5H19ClFO3+
182.073	9	C13H10O+
182.1077	6	C5H20ClFO3+
183.0565	28	C10H12ClO+
183.0789	28	C4H17ClFO4+
183.1164	21	C14H15+
184.0861	20	C7H17ClO3+
184.1207	7	C8H21ClO2+
185.0711	157	C10H14ClO+
185.0948	285	C13H13O+
186.0751	15	C9[13]CH14ClO+
186.0989	40	C12[13]CH13O+
187.0739	244	C12H11O2+
187.1111	43	C13H15O+
188.0767	30	C11[13]CH11O2+
188.1179	7	C12[13]CH15O+
189.0708	12	C9H14ClO2+
189.0904	26	C3H19ClFO5+
189.1283	6	C10H18FO2+
190.0773	12	C15H10+
190.0941	5	C10H16ClF+
191.0618	6	C9H14[37]ClO2+
191.0845	19	C6H17ClFO3+
192.0915	9	C9H17ClO2+
193.041	5	C11H10ClO+
193.0778	21	C12H14Cl+
193.101	28	C15H13+
194.0778	6	C11H11FO2+
194.1061	8	C9H19ClO2+
195.0566	22	C8H13ClFO2+
195.078	34	C8H16ClO3+
195.1152	28	C15H15+
196.0874	26	C5H18ClFO4+
196.1212	6	C14[13]CH15+
197.0563	8	C8H13[37]ClFO2+
197.0713	13	C8H16[37]ClO3+
197.0953	87	C5H19ClFO4+
198.1019	51	C5H20ClFO4+
199.0742	38	C13H11O2+
199.1113	71	C14H15O+
200.0789	5	C12[13]CH11O2+
200.1006	8	C5H20[37]ClFO4+
200.1138	12	C13[13]CH15O+
201.0894	7	C4H19ClFO5+
201.1263	5	C5H23ClFO4+
202.0764	5	C7H16ClFO3+
203.0853	9	C16H11+
203.1067	14	C13H15O2+
204.092	8	C7H18ClFO3+
205.0747	6	C13H14Cl+
205.1006	36	C7H19ClFO3+
206.1073	12	C10H19ClO2+
207.0557	5	C12H12ClO+
207.0806	15	C15H11O+
207.1164	22	C16H15+
208.0877	50	C6H18ClFO4+
208.1198	13	C10H21ClO2+
209.0717	9	C12H14ClO+
209.0947	105	C6H19ClFO4+
209.1321	6	C16H17+
210.1015	46	C9H19ClO3+
211.0731	16	C8H16ClO4+
211.1109	108	C6H21ClFO4+
212.0806	6	C8H17ClO4+
212.1172	42	C9H21ClO3+
213.0907	17	C8H18ClO4+
213.1266	229	C9H22ClO3+
214.1301	29	C8[13]CH22ClO3+
215.0864	7	C8H18[37]ClO4+
215.107	9	C14H15O2+
215.1371	5	C9H24ClO3+
216.0935	13	C17H12+
217.1001	14	C8H19ClFO3+
218.1057	14	C11H19ClO2+
219.0551	6	C13H12ClO+
219.0799	16	C7H17ClFO4+
219.1149	19	C11H20ClO2+
220.0881	15	C16H12O+
220.1222	12	C11H21ClO2+
221.0956	154	C16H13O+
221.1329	13	C17H17+
222.1028	83	C7H20ClFO4+
222.1354	8	C11H23ClO2+
223.1108	222	C7H21ClFO4+
224.082	5	C6H18ClFO5+
224.1173	68	C10H21ClO3+
225.0888	8	C9H18ClO4+
225.1259	38	C7H23ClFO4+
226.0961	7	C9H19ClO4+
226.1329	15	C10H23ClO3+
227.106	18	C6H21ClFO5+
227.1427	22	C16H19O+
228.11	6	C9H21ClO4+
229.099	11	C12H18ClO2+
230.1088	28	C18H14+
231.1158	39	C9H21ClFO3+
232.0862	12	C11H17ClO3+
232.1225	13	C12H21ClO2+
233.0711	11	C14H14ClO+
233.0953	28	C8H19ClFO4+
233.131	15	C9H23ClFO3+
234.1034	78	C8H20ClFO4+
234.1392	8	C9H24ClFO3+
235.1111	122	C8H21ClFO4+
235.1474	38	C9H25ClFO3+
236.1174	57	C11H21ClO3+
236.1535	17	C12H25ClO2+
237.0662	5	C13H14ClO2+
237.0877	8	C10H18ClO4+
237.1276	76	C17H17O+
237.16	6	C12H26ClO2+
238.0984	5	C16H14O2+
238.1326	26	C11H23ClO3+
239.1054	24	C16H15O2+
239.1422	75	C17H19O+
240.1101	7	C15[13]CH15O2+
240.1462	15	C16[13]CH19O+
241.1222	19	C16H17O2+
241.1578	16	C8H27ClFO4+
242.1071	9	C13H19ClO2+
242.1273	8	C10H23ClO4+
243.1166	21	C19H15+
244.123	25	C10H22ClFO3+
245.0972	15	C15H14FO2+
245.1319	62	C10H23ClFO3+
246.1055	26	C15H15FO2+
246.1376	28	C13H23ClO2+
247.0508	6	C14H12ClO2+
247.0891	16	C12H17ClFO2+
247.1103	36	C9H21ClFO4+
247.1465	17	C13H24ClO2+
248.1187	198	C9H22ClFO4+
249.0866	11	C11H18ClO4+
249.1257	145	C18H17O+
249.1629	14	C10H27ClFO3+
250.0972	5	C11H19ClO4+
250.1319	44	C17[13]CH17O+
250.1711	25	C19H22+
251.1072	8	C17H15O2+
251.1427	51	C18H19O+
252.1481	37	C12H25ClO3+
253.1228	8	C17H17O2+
253.1579	165	C18H21O+
254.1626	27	C17[13]CH21O+
257.0712	9	C16H14ClO+
257.1327	11	C20H17+
258.1033	10	C10H20ClFO4+
258.139	15	C11H24ClFO3+
259.1114	38	C19H15O+
259.1477	22	C20H19+
260.1194	77	C19H16O+
260.1555	30	C20H20+
261.0705	6	C18H10FO+
261.127	67	C19H17O+
261.1639	90	C20H21+
262.1343	130	C10H24ClFO4+
262.167	23	C19[13]CH21+
263.1427	999	C19H19O+
264.1141	16	C18H16O2+
264.1474	210	C18[13]CH19O+
265.1216	7	C9H23ClFO5+
265.1541	32	C17[13]C2H19O+
266.1636	11	C13H27ClO3+
267.1382	14	C18H19O2+
267.1732	17	C10H29ClFO4+
268.1235	12	C12H22ClFO3+
268.1408	5	C16H22ClF+
268.1784	5	C13H29ClO3+
269.134	10	C18H18FO+
271.0908	10	C20H12F+
271.1126	27	C17H16FO2+
271.1485	8	C21H19+
272.117	38	C14H21ClO3+
273.1269	110	C20H17O+
273.1623	16	C12H27ClFO3+
274.1325	44	C14H23ClO3+
274.1682	9	C15H27ClO2+
275.0836	11	C16H16ClO2+
275.1068	6	C19H15O2+
275.142	58	C11H25ClFO4+
276.114	11	C19H16O2+
276.1504	99	C20H20O+
277.1228	29	C19H17O2+
277.158	217	C11H27ClFO4+
278.166	743	C11H28ClFO4+
279.1724	322	C14H28ClO3+
280.1387	8	C17H22ClF+
280.1761	53	C13[13]CH28ClO3+
281.1544	60	C13H26ClO4+
282.1558	12	C12[13]CH26ClO4+
283.1492	24	C13H26[37]ClO4+
284.1511	7	C16H25ClO2+
285.1047	11	C15H19ClFO2+
285.1258	6	C12H23ClFO4+
286.1351	93	C21H18O+
287.1213	13	C15H21ClFO2+
287.1401	52	C15H24ClO3+
288.1496	143	C21H20O+
289.1227	11	C20H17O2+
289.1553	33	C20[13]CH20O+
290.1286	12	C11H24ClFO5+
291.1369	82	C20H19O2+
291.1737	141	C12H29ClFO4+
292.1416	17	C19[13]CH19O2+
292.1775	27	C11[13]CH29ClFO4+
294.1561	5	C18H24ClF+
295.0882	7	C19H16ClO+
295.1296	7	C13H24ClO5+
295.1678	8	C11H29ClFO5+
296.1759	37	C18H26ClF+
297.1013	5	C19H18ClO+
297.1786	11	C17[13]CH26ClF+
298.1698	6	C18H26[37]ClF+
299.0842	15	C15H17ClFO3+
301.1584	169	C22H21O+
302.1627	55	C21[13]CH21O+
303.1184	5	C21H16FO+
303.1572	6	C18H23O4+
303.1722	7	C16H28ClO3+
304.1443	23	C12H26ClFO5+
305.1509	16	C15H26ClO4+
306.1607	118	C21H22O2+
307.1644	28	C20[13]CH22O2+
308.097	7	C17H18ClFO2+
309.1851	11	C21H25O2+
311.119	7	C20H20ClO+
313.0978	14	C16H19ClFO3+
313.1353	24	C20H22ClO+
314.1381	5	C19[13]CH22ClO+
315.1008	5	C16H19[37]ClFO3+
315.132	9	C20H22[37]ClO+
319.1689	46	C22H23O2+
320.1732	9	C21[13]CH23O2+
322.1154	8	C24H15F+
323.1185	6	C21H20ClO+
324.1737	10	C18H25FO4+
327.1502	62	C21H24ClO+
328.1534	18	C20[13]CH24ClO+
329.1458	18	C21H24[37]ClO+
337.1358	50	C19H23ClFO2+
337.1794	6	C22H25O3+
338.1406	9	C18[13]CH23ClFO2+
339.1345	17	C19H23[37]ClFO2+
340.1313	6	C20H20O5+
345.1602	9	C21H26ClO2+
355.1457	50	C19H25ClFO3+
356.1517	10	C18[13]CH25ClFO3+
357.1418	15	C19H25[37]ClFO3+
