Mass spectrum: Ofloxacin; LC-ESI-QTOF; MS2; CE: 40 eV; R=35000; [M+H]+
Name: Ofloxacin
Name: 7-fluoro-2-methyl-6-(4-methylpiperazin-1-yl)-10-oxo-4-oxa-1-azatricyclo[7.3.1.05,13]trideca-5(13),6,8,11-tetraene-11-carboxylic acid
Formula: C18H20FN3O4
Exact mass: 361.1437843
SMILES: CC1COC2=C3N1C=C(C(O)=O)C(=O)C3=CC(F)=C2N1CCN(C)CC1
InChI: InChI=1S/C18H20FN3O4/c1-10-9-26-17-14-11(16(23)12(18(24)25)8-22(10)14)7-13(19)15(17)21-5-3-20(2)4-6-21/h7-8,10H,3-6,9H2,1-2H3,(H,24,25)
Instrument: Bruker maXis Impact
Instrument type: LC-ESI-QTOF
Ms type: MS2
Ion mode: POSITIVE
Ionization: ESI
Fragmentation mode: CID
Collision energy: 40 eV
Resolution: 35000
Column name: Acclaim RSLC C18 2.2um, 2.1x100mm, Thermo
Retention time: 4.236 min
Base peak: 362.1507
Precursor m/z: 362.1511
Precursor type: [M+H]+
m/z	relative intensity	assigned
178.0286	9	C12H4NO+
179.0365	19	C12H5NO+
180.0435	6	C12H6NO+
192.045	7	C10H7FNO2+
193.0399	13	C12H5N2O+
194.024	6	C12H4NO2+
194.0469	6	C12H6N2O+
194.0588	5	C13H8NO+
199.0488	11	C11H7N2O2+
202.0651	7	C15H8N+
203.0604	5	C14H7N2+
204.0444	5	C14H6NO+
205.0397	34	C10H6FN2O2+
205.0764	35	C14H9N2+
206.0449	5	C9[13]CH6FN2O2+
217.0399	6	C14H5N2O+
218.0561	5	C10H8N3O3+
219.0556	76	C16H8F+
220.062	18	C15[13]CH8F+
221.0712	113	C14H9N2O+
222.0744	13	C13[13]CH9N2O+
233.0717	30	C12H10FN2O2+
234.0777	6	C11[13]CH10FN2O2+
241.0962	13	C14H13N2O2+
244.0772	5	C14H11FNO2+
245.0717	10	C13H10FN2O2+
247.0865	36	C16H11N2O+
248.0903	6	C15[13]CH11N2O+
253.1213	5	C15H15N3O+
261.103	999	C14H15NO4+
262.1062	127	C13[13]CH15NO4+
263.1085	11	C12[13]C2H15NO4+
268.1076	8	C15H14N3O2+
268.1431	5	C16H18N3O+
270.1227	8	C15H16N3O2+
273.1026	15	C18H13N2O+
275.1187	6	C15H16FN2O2+
298.1535	5	C17H20N3O2+
301.0858	10	C15H12FN3O3+
301.1215	17	C16H16FN3O2+
316.1085	9	C16H15FN3O3+
316.1451	19	C17H19FN3O2+
318.1609	62	C17H21FN3O2+
319.1632	13	C16[13]CH21FN3O2+
344.1394	17	C18H19FN3O3+
362.1511	47	C18H21FN3O4+
363.1535	10	C17[13]CH21FN3O4+
