Mass spectrum: Enrofloxacin; LC-ESI-QTOF; MS2; CE: 50 eV; R=35000; [M+H]+
Name: Enrofloxacin
Name: 1-cyclopropyl-7-(4-ethylpiperazin-1-yl)-6-fluoro-4-oxoquinoline-3-carboxylic acid
Formula: C19H22FN3O3
Exact mass: 359.1645198
SMILES: CCN1CCN(CC1)c2cc3c(cc2F)c(=O)c(cn3C4CC4)C(=O)O
InChI: InChI=1S/C19H22FN3O3/c1-2-21-5-7-22(8-6-21)17-10-16-13(9-15(17)20)18(24)14(19(25)26)11-23(16)12-3-4-12/h9-12H,2-8H2,1H3,(H,25,26)
Instrument: Bruker maXis Impact
Instrument type: LC-ESI-QTOF
Ms type: MS2
Ion mode: POSITIVE
Ionization: ESI
Fragmentation mode: CID
Collision energy: 50 eV
Resolution: 35000
Column name: Acclaim RSLC C18 2.2um, 2.1x100mm, Thermo
Retention time: 5.0 min
Base peak: 360.1723
Precursor m/z: 360.1718
Precursor type: [M+H]+
m/z	relative intensity	assigned
122.0407	63	C7H5FN+
135.0469	74	C8H6FN+
136.0555	82	C8H7FN+
148.057	48	C9H7FN+
150.0339	67	C11H4N+
154.066	52	C8H9FNO+
156.0679	56	C10H8N2+
160.0552	55	C10H7FN+
161.0493	50	C6H8FNO3+
164.0498	49	C12H6N+
169.075	44	C11H9N2+
171.0532	58	C10H7N2O+
172.0552	69	C11H7FN+
174.0715	62	C11H9FN+
175.0659	67	C10H8FN2+
176.0749	152	C10H9FN2+
178.0291	135	C12H4NO+
179.0381	188	C9H6FNO2+
180.0456	49	C9H7FNO2+
184.0617	65	C11H8N2O+
185.0709	58	C11H9N2O+
187.069	61	C11H8FN2+
188.0516	69	C11H7FNO+
189.0466	192	C10H6FN2O+
189.0809	54	C8H12FNO3+
190.0527	96	C13H6N2+
192.0466	91	C10H7FNO2+
193.0411	128	C9H6FN2O2+
199.0507	109	C11H7N2O2+
199.0656	52	C12H8FN2+
200.0538	68	C12H7FNO+
201.0582	56	C12H8FNO+
202.0319	43	C11H5FNO2+
202.0668	89	C12H9FNO+
203.0357	62	C14H5NO+
203.0613	453	C11H8FN2O+
204.0445	87	C14H6NO+
204.0693	310	C11H9FN2O+
205.0414	336	C10H6FN2O2+
205.0774	254	C11H10FN2O+
213.0646	47	C12H9N2O2+
214.0892	56	C13H11FN2+
215.0249	186	C11H4FN2O2+
215.0587	69	C15H7N2+
216.031	62	C14H4N2O+
216.0693	113	C12H9FN2O+
217.0405	323	C11H6FN2O2+
217.0751	80	C15H9N2+
218.0495	205	C11H7FN2O2+
219.056	407	C11H8FN2O2+
220.0676	89	C16H9F+
221.0726	538	C11H10FN2O2+
222.0799	72	C11H11FN2O2+
225.1021	47	C14H13N2O+
227.0636	60	C13H8FN2O+
229.0774	140	C13H10FN2O+
230.0448	49	C15H6N2O+
230.0868	111	C13H11FN2O+
231.0558	93	C15H7N2O+
231.0928	137	C13H12FN2O+
233.0729	72	C12H10FN2O2+
235.0505	89	C14H7N2O2+
243.0564	378	C13H8FN2O2+
243.0928	46	C14H12FN2O+
244.0567	53	C17H7FN+
245.0746	96	C18H10F+
245.1086	423	C14H14FN2O+
246.1128	90	C14H16NO3+
247.088	105	C13H12FN2O2+
253.1235	51	C14H18FO3+
255.0565	886	C14H8FN2O2+
256.0601	200	C16[13]CH7N2O+
257.0696	70	C17H9N2O+
258.0687	181	C15H11FO3+
259.0826	56	C18H10FN+
261.1033	826	C14H14FN2O2+
262.1093	49	C16[13]CH13N2O+
271.0745	152	C17H9N3O+
273.0687	50	C17H8FN3+
286.0989	999	C15H13FN3O2+
287.1023	153	C14[13]CH13FN3O2+
288.1088	43	C19H13FN2+
300.1137	124	C16H15FN3O2+
340.1477	122	C19H19FN3O2+
342.1612	44	C19H21FN3O2+
358.1567	280	C19H21FN3O3+
359.1606	115	C19H22FN3O3+
360.1744	175	C19H23FN3O3+
