Mass spectrum: Methiocarb-sulfoxide phenol; LC-ESI-QTOF; MS2; CE: 30 eV; R=35000; [M+H]+
Name: Methiocarb-sulfoxide phenol
Name: Phenol, 3,5-dimethyl-4-(methylsulfinyl)-
Name: 3,5-dimethyl-4-methylsulfinylphenol
Formula: C9H12O2S
Exact mass: 184.0558006
SMILES: CC1=CC(O)=CC(C)=C1S(C)=O
InChI: InChI=1S/C9H12O2S/c1-6-4-8(10)5-7(2)9(6)12(3)11/h4-5,10H,1-3H3
Instrument: Bruker maXis Impact
Instrument type: LC-ESI-QTOF
Ms type: MS2
Ion mode: POSITIVE
Ionization: ESI
Fragmentation mode: CID
Collision energy: 30 eV
Resolution: 35000
Column name: Acclaim RSLC C18 2.2um, 2.1x100mm, Thermo
Retention time: 4.641 min
Base peak: 185.0618
Precursor m/z: 185.0631
Precursor type: [M+H]+
m/z	relative intensity	assigned
107.0482	6	C7H7O+
109.0651	5	C7H9O+
121.0639	130	C8H9O+
122.0716	680	C8H10O+
123.0425	7	C7H7O2+
123.0752	57	C7[13]CH10O+
125.041	14	C7H9S+
135.08	5	C9H11O+
137.0047	5	C7H5OS+
137.0586	8	C8H9O2+
138.0663	13	C8H10O2+
151.0197	65	C8H7OS+
152.0273	128	C8H8OS+
153.0356	999	C8H9OS+
154.0382	71	C7[13]CH9OS+
155.0313	31	C8H9O[34]S+
168.059	285	C9H12OS+
169.0622	29	C8[13]CH12OS+
170.0383	372	C8H10O2S+
171.0412	29	C7[13]CH10O2S+
172.0337	13	C8H10O2[34]S+
185.0617	19	C9H13O2S+
