Mass spectrum: Dimethylaminophenazone; LC-ESI-QTOF; MS2; CE: 40 eV; R=35000; [M+H]+
Name: Dimethylaminophenazone
Name: Aminopyrine
Name: 4-(dimethylamino)-1,5-dimethyl-2-phenylpyrazol-3-one
Formula: C13H17N3O
Exact mass: 231.1371622
SMILES: CN(C)C1=C(C)N(C)N(C1=O)C1=CC=CC=C1
InChI: InChI=1S/C13H17N3O/c1-10-12(14(2)3)13(17)16(15(10)4)11-8-6-5-7-9-11/h5-9H,1-4H3
Instrument: Bruker maXis Impact
Instrument type: LC-ESI-QTOF
Ms type: MS2
Ion mode: POSITIVE
Ionization: ESI
Fragmentation mode: CID
Collision energy: 40 eV
Resolution: 35000
Column name: Acclaim RSLC C18 2.2um, 2.1x100mm, Thermo
Retention time: 4.913 min
Base peak: 232.1445
Precursor m/z: 232.1444
Precursor type: [M+H]+
m/z	relative intensity	assigned
111.09	166	C6H11N2+
115.0531	69	C9H7+
117.057	217	C8H7N+
118.0643	610	C8H8N+
123.0542	667	C6H7N2O+
128.0494	328	C9H6N+
129.0551	132	C9H7N+
130.0636	497	C9H8N+
131.0602	77	C8H7N2+
131.0705	167	C9H9N+
132.0436	999	C8H6NO+
132.0792	640	C9H10N+
133.0762	314	C8H9N2+
134.0593	118	C8H8NO+
143.0701	61	C10H9N+
144.0654	117	C9H8N2+
144.081	125	C10H10N+
145.0742	72	C9H9N2+
146.0594	222	C9H8NO+
147.0551	89	C8H7N2O+
147.09	184	C9H11N2+
149.1073	241	C9H13N2+
156.0437	68	C10H6NO+
157.0519	93	C10H7NO+
157.0742	103	C10H9N2+
158.0582	65	C10H8NO+
158.0811	135	C10H10N2+
159.0905	657	C10H11N2+
171.055	159	C10H7N2O+
172.0613	103	C10H8N2O+
173.0726	94	C10H9N2O+
175.0849	100	C10H11N2O+
185.0695	380	C11H9N2O+
187.0736	95	C10H9N3O+
199.0856	569	C12H11N2O+
202.0961	93	C11H12N3O+
216.113	389	C12H14N3O+
217.1158	61	C11[13]CH14N3O+
