Mass spectrum: Oxazepam; LC-ESI-QTOF; MS2; CE: 30 eV; R=35000; [M+H]+
Name: Oxazepam
Name: 7-chloro-3-hydroxy-5-phenyl-1,3-dihydro-1,4-benzodiazepin-2-one
Formula: C15H11ClN2O2
Exact mass: 286.0509053
SMILES: OC1N=C(C2=CC=CC=C2)C2=C(NC1=O)C=CC(Cl)=C2
InChI: InChI=1S/C15H11ClN2O2/c16-10-6-7-12-11(8-10)13(9-4-2-1-3-5-9)18-15(20)14(19)17-12/h1-8,15,20H,(H,17,19)
Instrument: Bruker maXis Impact
Instrument type: LC-ESI-QTOF
Ms type: MS2
Ion mode: POSITIVE
Ionization: ESI
Fragmentation mode: CID
Collision energy: 30 eV
Resolution: 35000
Column name: Acclaim RSLC C18 2.2um, 2.1x100mm, Thermo
Retention time: 8.375 min
Base peak: 287.0573
Precursor m/z: 287.0582
Precursor type: [M+H]+
m/z	relative intensity	assigned
128.0249	76	C6H7ClN+
129.029	6	C5[13]CH7ClN+
130.0226	18	C6H7[37]ClN+
138.0093	9	C10H2O+
143.0834	8	C6H11N2O2+
153.0202	52	C10H3NO+
154.0249	6	C9[13]CH3NO+
155.0165	20	C7H6ClNO+
155.0843	23	C12H11+
156.0207	9	C10H4O2+
163.003	48	C8H4ClN2+
164.0018	9	C9H5ClO+
165.0024	14	C8H4[37]ClN2+
166.0035	41	C8H5ClNO+
167.0099	6	C7[13]CH5ClNO+
167.0827	6	C8H11N2O2+
168.0011	9	C8H5[37]ClNO+
181.0136	11	C11H3NO2+
195.0919	17	C13H11N2+
205.0761	6	C14H9N2+
207.0666	20	C14H9NO+
208.0761	6	C14H10NO+
214.0406	12	C13H9ClN+
229.0503	21	C13H10ClN2+
231.0667	327	C13H12ClN2+
232.0702	57	C12[13]CH12ClN2+
233.064	92	C13H12[37]ClN2+
234.0731	6	C15H10N2O+
241.0516	999	C14H10ClN2+
242.0548	172	C13[13]CH10ClN2+
243.049	295	C14H10[37]ClN2+
244.0357	6	C13H9ClN2O+
244.0508	27	C14H11ClNO+
257.0459	17	C14H10ClN2O+
258.0553	12	C14H11ClN2O+
259.0424	11	C14H10ClNO2+
260.0532	6	C14H11[37]ClN2O+
269.0462	161	C15H10ClN2O+
270.0488	33	C14[13]CH10ClN2O+
271.0448	38	C15H10[37]ClN2O+
272.0481	8	C15H11ClNO2+
287.0578	15	C15H12ClN2O2+
