Mass spectrum: Simvastatin; LC-ESI-QTOF; MS2; CE: 10 eV; R=35000; [M+H]+
Name: Simvastatin
Name: [(1S,3R,7S,8S,8aR)-8-[2-[(2R,4R)-4-hydroxy-6-oxooxan-2-yl]ethyl]-3,7-dimethyl-1,2,3,7,8,8a-hexahydronaphthalen-1-yl] 2,2-dimethylbutanoate
Formula: C25H38O5
Exact mass: 418.2719243
SMILES: CCC(C)(C)C(=O)O[C@H]1C[C@H](C=C2[C@H]1[C@H]([C@H](C=C2)C)CC[C@@H]3C[C@H](CC(=O)O3)O)C
InChI: InChI=1S/C25H38O5/c1-6-25(4,5)24(28)30-21-12-15(2)11-17-8-7-16(3)20(23(17)21)10-9-19-13-18(26)14-22(27)29-19/h7-8,11,15-16,18-21,23,26H,6,9-10,12-14H2,1-5H3/t15-,16-,18+,19+,20-,21-,23-/m0/s1
Instrument: Bruker maXis Impact
Instrument type: LC-ESI-QTOF
Ms type: MS2
Ion mode: POSITIVE
Ionization: ESI
Fragmentation mode: CID
Collision energy: 10 eV
Resolution: 35000
Column name: Acclaim RSLC C18 2.2um, 2.1x100mm, Thermo
Retention time: 12.5 min
Base peak: 436.3049
Precursor m/z: 419.2792
Precursor type: [M+H]+
m/z	relative intensity	assigned
173.1313	397	C13H17+
199.1482	974	C15H19+
225.1642	361	C17H21+
285.1851	999	C19H25O2+
303.1966	934	C19H27O3+
320.285	426	C20H36N2O+
419.2816	617	C25H39O5+
