Mass spectrum: 2-Perfluorohexyl ethanoic acid (6:2) (FHEA); LC-ESI-QTOF; MS2; CE: 30 eV; R=35000; [M-H]-
Name: 2-Perfluorohexyl ethanoic acid (6:2) (FHEA)
Name: 3,3,4,4,5,5,6,6,7,7,8,8,8-tridecafluorooctanoic acid
Formula: C8H3F13O2
Exact mass: 377.9925
SMILES: C(C(=O)O)C(C(C(C(C(C(F)(F)F)(F)F)(F)F)(F)F)(F)F)(F)F
InChI: InChI=1S/C8H3F13O2/c9-3(10,1-2(22)23)4(11,12)5(13,14)6(15,16)7(17,18)8(19,20)21/h1H2,(H,22,23)
Instrument: Bruker maXis Impact
Instrument type: LC-ESI-QTOF
Ms type: MS2
Ionization: ESI
Fragmentation mode: CID
Collision energy: 30 eV
Resolution: 35000
Column name: Acclaim RSLC C18 2.2um, 2.1x100mm, Thermo
Retention time: 9.050 min
Base peak: 293.9868
Precursor m/z: 376.9853
Precursor type: [M-H]-
m/z	relative intensity	assigned
292.9825	999	C7F11-
293.9885	635	C7HF11-
