Mass spectrum: 7-Diethylamino-4-methylcoumarin; LC-ESI-QTOF; MS2; CE: Ramp 19.2-28.7 eV; R=35000; [M+H]+
Name: 7-Diethylamino-4-methylcoumarin
Name: 7-(diethylamino)-4-methylchromen-2-one
Formula: C14H17NO2
Exact mass: 231.1259288
SMILES: CCN(CC)C1=CC=C2C(C)=CC(=O)OC2=C1
InChI: InChI=1S/C14H17NO2/c1-4-15(5-2)11-6-7-12-10(3)8-14(16)17-13(12)9-11/h6-9H,4-5H2,1-3H3
Instrument: Bruker maXis Impact
Instrument type: LC-ESI-QTOF
Ms type: MS2
Ion mode: POSITIVE
Ionization: ESI
Fragmentation mode: CID
Collision energy: Ramp 19.2-28.7 eV
Resolution: 35000
Column name: Acclaim RSLC C18 2.2um, 2.1x100mm, Thermo
Retention time: 9.837 min
Base peak: 232.133
Precursor m/z: 232.1332
Precursor type: [M+H]+
m/z	relative intensity	assigned
132.0797	11	C9H10N+
144.0802	19	C10H10N+
158.0955	7	C11H12N+
159.1027	6	C11H13N+
160.0753	10	C10H10NO+
160.1117	5	C11H14N+
172.1117	8	C12H14N+
174.09	16	C11H12NO+
175.0986	13	C11H13NO+
176.1028	5	C11H14NO+
176.1419	56	C12H18N+
177.146	9	C11[13]CH18N+
188.0699	149	C11H10NO2+
188.1426	22	C13H18N+
189.0736	16	C10[13]CH10NO2+
189.1142	9	C12H15NO+
202.0853	27	C12H12NO2+
203.093	46	C12H13NO2+
204.0996	28	C12H14NO2+
204.1374	22	C13H18NO+
216.1011	12	C13H14NO2+
217.1087	10	C13H15NO2+
232.1327	999	C14H18NO2+
233.1359	152	C13[13]CH18NO2+
