Mass spectrum: Propiconazole; LC-ESI-QTOF; MS2; CE: 20 eV; R=35000; [M+H]+
Name: Propiconazole
Name: 1-[[2-(2,4-dichlorophenyl)-4-propyl-1,3-dioxolan-2-yl]methyl]-1,2,4-triazole
Formula: C15H17Cl2N3O2
Exact mass: 341.0697821
SMILES: CCCC1COC(CN2C=NC=N2)(O1)C1=C(Cl)C=C(Cl)C=C1
InChI: InChI=1S/C15H17Cl2N3O2/c1-2-3-12-7-21-15(22-12,8-20-10-18-9-19-20)13-5-4-11(16)6-14(13)17/h4-6,9-10,12H,2-3,7-8H2,1H3
Instrument: Bruker maXis Impact
Instrument type: LC-ESI-QTOF
Ms type: MS2
Ion mode: POSITIVE
Ionization: ESI
Fragmentation mode: CID
Collision energy: 20 eV
Resolution: 35000
Column name: Acclaim RSLC C18 2.2um, 2.1x100mm, Thermo
Retention time: 11.119 min
Base peak: 226.1341
Precursor m/z: 342.0771
Precursor type: [M+H]+
m/z	relative intensity	assigned
158.9751	397	C7H5Cl2+
159.978	30	C6[13]CH5Cl2+
160.9718	230	C7H5Cl[37]Cl+
161.9752	10	C5H4Cl2N2+
172.9544	6	C5HCl2N3+
172.9912	8	C8H7Cl2+
174.9887	7	C8H7Cl[37]Cl+
186.9698	63	C6H3Cl2N3+
187.9744	6	C5[13]CH3Cl2N3+
188.9669	33	C6H3Cl[37]ClN3+
190.9642	7	C8ClN2O2+
204.9806	94	C6H5Cl2N3O+
205.984	7	C5[13]CH5Cl2N3O+
206.9782	53	C6H5Cl[37]ClN3O+
215.0372	5	C12H8ClN2+
222.9916	10	C6H7Cl2N3O2+
224.9888	6	C6H7Cl[37]ClN3O2+
256.0027	10	C10H8Cl2N3O+
258	7	C10H8Cl[37]ClN3O+
259.0275	32	C10H11Cl2N3O+
260.0305	5	C9[13]CH11Cl2N3O+
261.0248	23	C10H11Cl[37]ClN3O+
273.044	32	C11H13Cl2N3O+
275.0409	18	C11H13Cl[37]ClN3O+
328.0816	8	C15H18Cl2N2O2+
342.0769	999	C15H18Cl2N3O2+
343.0797	160	C14[13]CH18Cl2N3O2+
344.0738	542	C15H18Cl[37]ClN3O2+
