Mass spectrum: Tris(1-chloro-2-propyl)phosphate; LC-ESI-QTOF; MS2; CE: 40 eV; R=35000; [M+H]+
Name: Tris(1-chloro-2-propyl)phosphate
Name: Tris(1-chloro-2-propyl) phosphate
Name: tris(1-chloropropan-2-yl) phosphate
Formula: C9H18Cl3O4P
Exact mass: 326.0008287
SMILES: CC(CCl)OP(=O)(OC(C)CCl)OC(C)CCl
InChI: InChI=1S/C9H18Cl3O4P/c1-7(4-10)14-17(13,15-8(2)5-11)16-9(3)6-12/h7-9H,4-6H2,1-3H3
Instrument: Bruker maXis Impact
Instrument type: LC-ESI-QTOF
Ms type: MS2
Ion mode: POSITIVE
Ionization: ESI
Fragmentation mode: CID
Collision energy: 40 eV
Resolution: 35000
Column name: Acclaim RSLC C18 2.2um, 2.1x100mm, Thermo
Retention time: 11.019 min
Base peak: 327.0772
Precursor m/z: 327.0081
Precursor type: [M+H]+
m/z	relative intensity	assigned
128.059	7	C3H13O3P+
138.9935	26	C6H4O2P+
139.999	13	ClH10O4P+
141.0695	13	C5H14ClO2+
145.0632	10	C4H14ClO3+
150.0457	14	C6H11ClO2+
151.0517	39	C5H12O3P+
152.0612	999	C6H13ClO2+
153.068	520	C6H14ClO2+
154.0718	63	C5H15O3P+
155.0598	13	C2H17ClO3P+
155.0771	7	C6H17ClP+
157.0038	14	CH11Cl2O4+
168.056	274	C6H13ClO3+
169.0628	153	C6H14ClO3+
170.0696	28	C5H15O4P+
171.0804	21	C6H16ClO3+
175.0141	71	C6H8O4P+
179.0599	48	C5H17Cl2O2+
180.0646	9	C4H18ClO3P+
181.0745	8	C4H19ClO3P+
187.0296	50	C6H13Cl2O2+
188.0335	7	Cl3H19O4+
202.0766	23	C9H15O3P+
203.0846	12	C9H16O3P+
215.025	220	C7H13Cl2O3+
216.0278	51	C6H14ClO4P+
233.0353	530	C7H15Cl2O4+
234.0399	87	C7H16Cl2O4+
235.0399	9	C7H18Cl2O2P+
252.0487	65	C8H19Cl3O2+
253.053	6	C7[13]CH19Cl3O2+
