Mass spectrum: Tamoxifen; LC-ESI-QTOF; MS2; CE: 20 eV; R=35000; [M+H]+
Name: Tamoxifen
Name: 2-[4-[(Z)-1,2-diphenylbut-1-enyl]phenoxy]-N,N-dimethylethanamine
Formula: C26H29NO
Exact mass: 371.2249145
SMILES: CC\C(=C(/C1=CC=CC=C1)C1=CC=C(OCCN(C)C)C=C1)C1=CC=CC=C1
InChI: InChI=1S/C26H29NO/c1-4-25(21-11-7-5-8-12-21)26(22-13-9-6-10-14-22)23-15-17-24(18-16-23)28-20-19-27(2)3/h5-18H,4,19-20H2,1-3H3/b26-25-
Instrument: Bruker maXis Impact
Instrument type: LC-ESI-QTOF
Ms type: MS2
Ion mode: POSITIVE
Ionization: ESI
Fragmentation mode: CID
Collision energy: 20 eV
Resolution: 35000
Column name: Acclaim RSLC C18 2.2um, 2.1x100mm, Thermo
Retention time: 10.736 min
Base peak: 372.2326
Precursor m/z: 372.2322
Precursor type: [M+H]+
m/z	relative intensity	assigned
129.0694	5	C10H9+
207.1165	6	C16H15+
327.1744	9	C24H23O+
372.2328	999	C26H30NO+
373.2359	269	C25[13]CH30NO+
374.2388	30	C24[13]C2H30NO+
