Mass spectrum: Sulfamethoxazole; LC-ESI-QTOF; MS2; CE: 20 eV; R=35000; [M+H]+
Name: Sulfamethoxazole
Name: 4-amino-N-(5-methyl-1,2-oxazol-3-yl)benzenesulfonamide
Formula: C10H11N3O3S
Exact mass: 253.0521122
SMILES: CC1=CC(NS(=O)(=O)C2=CC=C(N)C=C2)=NO1
InChI: InChI=1S/C10H11N3O3S/c1-7-6-10(12-16-7)13-17(14,15)9-4-2-8(11)3-5-9/h2-6H,11H2,1H3,(H,12,13)
Instrument: Bruker maXis Impact
Instrument type: LC-ESI-QTOF
Ms type: MS2
Ion mode: POSITIVE
Ionization: ESI
Fragmentation mode: CID
Collision energy: 20 eV
Resolution: 35000
Column name: Acclaim RSLC C18 2.2um, 2.1x100mm, Thermo
Retention time: 4.5 min
Base peak: 254.0589
Precursor m/z: 254.0594
Precursor type: [M+H]+
m/z	relative intensity	assigned
108.0448	5	C6H6NO+
132.0668	7	C5H10NO3+
146.07	43	C8H8N3+
147.0777	117	C5H11N2O3+
148.085	31	C5H12N2O3+
156.0101	999	C6H6NO2S+
157.0131	70	C10H5S+
158.0062	43	C9H4NS+
160.0855	118	C6H12N2O3+
160.9998	14	C7HN2O3+
161.0891	10	C4H11N5O2+
176.0263	11	C5H8N2O3S+
188.0806	102	C10H10N3O+
189.0835	12	C5H11N5O3+
190.0963	27	C10H12N3O+
194.0372	19	C8H8N3OS+
254.0589	192	C10H12N3O3S+
255.0601	23	C9H11N4O3S+
256.0537	8	C10H12N2O4S+
