Mass spectrum: Olanzapine; LC-ESI-QTOF; MS2; CE: 50 eV; R=35000; [M+H]+
Name: Olanzapine
Formula: C17H20N4S
Exact mass: 312.1408676
SMILES: Cc1cc2c(s1)Nc3ccccc3N=C2N4CCN(CC4)C
InChI: InChI=1S/C17H20N4S/c1-12-11-13-16(21-9-7-20(2)8-10-21)18-14-5-3-4-6-15(14)19-17(13)22-12/h3-6,11,19H,7-10H2,1-2H3
Instrument: Bruker maXis Impact
Instrument type: LC-ESI-QTOF
Ms type: MS2
Ion mode: POSITIVE
Ionization: ESI
Fragmentation mode: CID
Collision energy: 50 eV
Resolution: 35000
Column name: Acclaim RSLC C18 2.2um, 2.1x100mm, Thermo
Retention time: 6.611 min
Base peak: 313.1505
Precursor m/z: 313.1481
Precursor type: [M+H]+
m/z	relative intensity	assigned
115.0556	40	C9H7+
128.0496	10	C9H6N+
132.0694	9	C8H8N2+
133.0774	10	C8H9N2+
140.0499	22	C10H6N+
142.0657	55	C10H8N+
143.067	13	C6H11N2S+
146.0079	10	C8H4NS+
146.0198	27	C9H6S+
153.0454	9	C10H5N2+
153.0565	19	C11H7N+
154.0657	30	C11H8N+
155.0615	37	C10H7N2+
160.0794	9	C5H12N4S+
167.0614	20	C11H7N2+
168.0685	37	C11H8N2+
169.0773	535	C11H9N2+
170.0608	16	C6H10N4S+
170.0808	64	C10[13]CH9N2+
171.0141	18	C10H5NS+
173.0173	44	C9H5N2S+
174.023	13	C9H6N2S+
179.0621	201	C9H11N2S+
180.0691	334	C12H8N2+
181.0742	59	C11[13]CH8N2+
182.0828	24	C12H10N2+
183.0819	12	C8H13N3S+
183.0908	9	C12H11N2+
184.0886	9	C11H10N3+
185.0303	15	C11H7NS+
186.0377	254	C11H8NS+
188.0356	15	C13H4N2+
193.0787	9	C10H13N2S+
194.0724	21	C12H8N3+
194.0847	10	C13H10N2+
195.08	91	C12H9N3+
196.0866	37	C12H10N3+
196.1	21	C13H12N2+
197.0156	18	C11H5N2S+
198.0262	999	C11H6N2S+
199.0291	122	C10[13]CH6N2S+
200.0228	43	C11H6N2[34]S+
200.0409	16	C11H8N2S+
200.0526	23	C12H10NS+
201.0503	28	C11H9N2S+
206.0813	11	C14H10N2+
207.0791	17	C13H9N3+
208.0875	19	C13H10N3+
209.0953	15	C13H11N3+
211.0346	49	C12H7N2S+
212.0421	218	C12H8N2S+
213.0494	348	C12H9N2S+
214.053	58	C11[13]CH9N2S+
215.0429	10	C10H7N4S+
215.0657	21	C12H11N2S+
220.0884	28	C14H10N3+
221.0961	15	C14H11N3+
222.1039	170	C14H12N3+
223.1092	64	C14H13N3+
224.0392	12	C13H8N2S+
224.1201	42	C11H18N3S+
225.0492	21	C13H9N2S+
225.1225	12	C14H15N3+
226.0569	28	C13H10N2S+
227.0652	50	C13H11N2S+
228.0612	37	C12H10N3S+
229.0752	13	C16H9N2+
239.0649	37	C14H11N2S+
240.0624	45	C13H10N3S+
241.0687	40	C13H11N3S+
242.071	10	C16H8N3+
248.1211	24	C13H18N3S+
250.1336	13	C16H16N3+
252.0576	10	C14H10N3S+
254.0758	29	C14H12N3S+
255.0849	10	C14H13N3S+
256.0923	280	C14H14N3S+
257.0963	57	C13[13]CH14N3S+
258.0891	14	C16H10N4+
266.0796	11	C15H12N3S+
282.1083	74	C16H16N3S+
283.1109	13	C16H17N3S+
