Mass spectrum: Picolinafen; LC-ESI-QTOF; MS2; CE: 20 eV; R=35000; [M+H]+
Name: Picolinafen
Name: N-(4-fluorophenyl)-6-[3-(trifluoromethyl)phenoxy]pyridine-2-carboxamide
Formula: C19H12F4N2O2
Exact mass: 376.0834905
SMILES: FC1=CC=C(NC(=O)C2=NC(OC3=CC=CC(=C3)C(F)(F)F)=CC=C2)C=C1
InChI: InChI=1S/C19H12F4N2O2/c20-13-7-9-14(10-8-13)24-18(26)16-5-2-6-17(25-16)27-15-4-1-3-12(11-15)19(21,22)23/h1-11H,(H,24,26)
Instrument: Bruker maXis Impact
Instrument type: LC-ESI-QTOF
Ms type: MS2
Ion mode: POSITIVE
Ionization: ESI
Fragmentation mode: CID
Collision energy: 20 eV
Resolution: 35000
Column name: Acclaim RSLC C18 2.2um, 2.1x100mm, Thermo
Retention time: 12.316 min
Base peak: 377.091
Precursor m/z: 377.0908
Precursor type: [M+H]+
m/z	relative intensity	assigned
236.051	23	C15H7FNO+
238.0474	117	C12H7F3NO+
239.0508	16	C11[13]CH7F3NO+
256.0582	991	C15H8F2NO+
257.061	111	C14[13]CH8F2NO+
258.0637	9	C13[13]C2H8F2NO+
266.042	50	C13H7F3NO2+
267.0463	7	C12[13]CH7F3NO2+
284.0533	610	C16H8F2NO2+
285.0561	78	C15[13]CH8F2NO2+
286.0583	8	C14[13]C2H8F2NO2+
309.0835	6	C18H11F2N2O+
337.0786	51	C19H11F2N2O2+
338.082	11	C18[13]CH11F2N2O2+
357.0839	75	C19H12F3N2O2+
358.0876	16	C18[13]CH12F3N2O2+
359.0808	604	C19H11F4N2O+
360.0841	104	C18[13]CH11F4N2O+
361.0865	10	C17[13]C2H11F4N2O+
377.0916	999	C19H13F4N2O2+
378.0944	188	C18[13]CH13F4N2O2+
379.097	18	C17[13]C2H13F4N2O2+
