Mass spectrum: Triclocarban; LC-ESI-QTOF; MS2; CE: 40 eV; R=35000; [M-H]-
Name: Triclocarban
Name: 1-(4-chlorophenyl)-3-(3,4-dichlorophenyl)urea
Formula: C13H9Cl3N2O
Exact mass: 313.9780459
SMILES: ClC1=CC=C(NC(=O)NC2=CC(Cl)=C(Cl)C=C2)C=C1
InChI: InChI=1S/C13H9Cl3N2O/c14-8-1-3-9(4-2-8)17-13(19)18-10-5-6-11(15)12(16)7-10/h1-7H,(H2,17,18,19)
Instrument: Bruker maXis Impact
Instrument type: LC-ESI-QTOF
Ms type: MS2
Ion mode: NEGATIVE
Ionization: ESI
Fragmentation mode: CID
Collision energy: 40 eV
Resolution: 35000
Column name: Acclaim RSLC C18 2.2um, 2.1x100mm, Thermo
Retention time: 11.839 min
Base peak: 312.9704
Precursor m/z: 312.9708
Precursor type: [M-H]-
m/z	relative intensity	assigned
123.9957	81	C9O-
126.0113	270	C6H5ClN-
128.0081	106	C6H5[37]ClN-
159.9723	999	C9HClO-
160.9749	106	C8[13]CHClO-
162.9703	30	C7ClN2O-
163.9666	35	C5H4Cl2NO-
