Mass spectrum: 4,4`-Difluorobenzophenonen; GC-APCI-QTOF; MS2; CE: 20 eV; R=35000; [M]+
Name: 4,4`-Difluorobenzophenonen
Formula: C13H8F2O
Exact mass: 218.0543
SMILES: C1=CC(=CC=C1C(=O)C2=CC=C(C=C2)F)F
InChI: InChI=1S/C13H8F2O/c14-11-5-1-9(2-6-11)13(16)10-3-7-12(15)8-4-10/h1-8H
Instrument: Bruker 450 GC coupled to maXis Impact
Instrument type: GC-APCI-QTOF
Ms type: MS2
Ion mode: POSITIVE
Ionization: APCI
Fragmentation mode: CID
Collision energy: 20 eV
Resolution: 35000
Column name: Rxi-5Sil MS column, 30m, 0.25mm i.d., 0.25Âµm film thickness, Restek
Retention time: 13.373 min
Base peak: 218.0531
Precursor m/z: 218.0538
Precursor type: [M]+
m/z	relative intensity	assigned
123.0231	999	C10H3+
198.0507	10	C13H7FO+
199.0562	7	C13H8FO+
201.053	7	C13H7F2+
217.0466	134	C13H7F2O+
218.051	19	C13H8F2O+
