Mass spectrum: Oxycodone; LC-ESI-QTOF; MS2; CE: 40 eV; R=35000; [M+H]+
Name: Oxycodone
Name: (4R,4aS,7aR,12bS)-4a-hydroxy-9-methoxy-3-methyl-2,4,5,6,7a,13-hexahydro-1H-4,12-methanobenzofuro[3,2-e]isoquinoline-7-one
Formula: C18H21NO4
Exact mass: 315.1470582
SMILES: CN1CC[C@]23c4c5ccc(c4O[C@H]2C(=O)CC[C@]3([C@H]1C5)O)OC
InChI: InChI=1S/C18H21NO4/c1-19-8-7-17-14-10-3-4-12(22-2)15(14)23-16(17)11(20)5-6-18(17,21)13(19)9-10/h3-4,13,16,21H,5-9H2,1-2H3/t13-,16+,17+,18-/m1/s1
Instrument: Bruker maXis Impact
Instrument type: LC-ESI-QTOF
Ms type: MS2
Ion mode: POSITIVE
Ionization: ESI
Fragmentation mode: CID
Collision energy: 40 eV
Resolution: 35000
Column name: Acclaim RSLC C18 2.2um, 2.1x100mm, Thermo
Retention time: 3.699 min
Base peak: 316.1567
Precursor m/z: 316.1543
Precursor type: [M+H]+
m/z	relative intensity	assigned
115.0548	8	C9H7+
128.0625	7	C10H8+
129.0704	11	C10H9+
131.0495	16	C9H7O+
131.0855	7	C10H11+
132.0574	9	C9H8O+
132.0809	17	C9H10N+
133.0656	6	C9H9O+
133.0881	8	C9H11N+
137.0606	8	C8H9O2+
141.0701	16	C11H9+
143.0495	7	C10H7O+
144.0579	10	C10H8O+
145.0652	8	C10H9O+
148.0754	6	C9H10NO+
151.0761	5	C9H11O2+
152.0625	10	C12H8+
153.0701	41	C12H9+
154.0758	5	C11[13]CH9+
155.0861	10	C12H11+
157.0654	12	C11H9O+
158.073	7	C11H10O+
159.0448	15	C10H7O2+
159.0808	34	C11H11O+
160.0517	16	C10H8O2+
160.0773	13	C10H10NO+
161.06	25	C10H9O2+
161.0841	23	C10H11NO+
165.0707	14	C13H9+
166.0774	5	C13H10+
167.0854	17	C13H11+
168.0574	6	C12H8O+
169.0655	21	C12H9O+
170.0712	11	C12H10O+
171.081	19	C12H11O+
172.0525	15	C11H8O2+
172.0855	9	C12H12O+
173.0845	7	C11H11NO+
174.0683	11	C11H10O2+
174.092	19	C11H12NO+
175.0761	189	C11H11O2+
176.0791	24	C10[13]CH11O2+
178.078	5	C14H10+
179.086	14	C14H11+
181.0656	109	C13H9O+
181.0892	13	C13H11N+
182.0709	20	C12[13]CH9O+
182.0968	10	C13H12N+
183.0802	19	C13H11O+
184.0525	9	C12H8O2+
184.0866	6	C13H12O+
184.1124	8	C13H14N+
185.0601	11	C12H9O2+
185.0968	10	C13H13O+
186.0685	9	C12H10O2+
187.0761	150	C12H11O2+
188.0783	18	C11[13]CH11O2+
189.0918	17	C12H13O2+
193.0661	8	C14H9O+
194.0721	5	C14H10O+
194.0973	5	C14H12N+
195.0815	30	C14H11O+
196.0868	16	C14H12O+
196.113	19	C14H14N+
197.0607	24	C13H9O2+
197.0934	10	C14H13O+
197.1182	5	C11H17O3+
198.0684	21	C13H10O2+
198.0922	29	C13H12NO+
199.0762	125	C13H11O2+
200.0811	22	C12[13]CH11O2+
201.0913	17	C13H13O2+
202.0873	60	C12H12NO2+
203.0942	22	C12H13NO2+
207.0807	13	C15H11O+
208.0878	8	C15H12O+
209.0603	7	C14H9O2+
209.0858	8	C14H11NO+
210.0684	16	C14H10O2+
210.0921	24	C14H12NO+
211.0756	16	C14H11O2+
211.0984	13	C14H13NO+
212.0828	14	C14H12O2+
212.1084	202	C14H14NO+
213.0918	103	C14H13O2+
213.1152	120	C14H15NO+
214.0947	18	C13[13]CH13O2+
214.1193	14	C13[13]CH15NO+
215.1077	33	C14H15O2+
216.1075	6	C13[13]CH15O2+
217.0862	7	C13H13O3+
220.1145	6	C16H14N+
221.0856	16	C15H11NO+
222.0921	10	C15H12NO+
223.0768	8	C15H11O2+
223.0992	13	C15H13NO+
224.0828	14	C15H12O2+
224.108	67	C15H14NO+
225.0917	69	C15H13O2+
225.1146	27	C15H15NO+
226.0626	6	C14H10O3+
226.0878	108	C14H12NO2+
226.122	9	C15H16NO+
227.0946	34	C14H13NO2+
227.1051	33	C15H15O2+
227.1296	8	C15H17NO+
228.1033	42	C14H14NO2+
228.1398	34	C15H18NO+
229.0868	10	C14H13O3+
229.1057	8	C13[13]CH14NO2+
229.1413	7	C14[13]CH18NO+
230.1181	5	C14H16NO2+
235.0766	6	C16H11O2+
237.0932	5	C16H13O2+
238.0888	5	C15H12NO2+
238.1238	16	C16H16NO+
239.0722	7	C18H9N+
239.106	26	C16H15O2+
239.1266	6	C13H19O4+
240.1035	101	C15H14NO2+
241.0864	57	C15H13O3+
241.1111	999	C15H15NO2+
242.1156	143	C15H16NO2+
243.1223	21	C14[13]CH16NO2+
248.1077	11	C17H14NO+
249.1148	15	C17H15NO+
250.0861	5	C16H12NO2+
251.097	5	C16H13NO2+
252.0794	5	C16H12O3+
252.1031	20	C16H14NO2+
254.0832	10	C15H12NO3+
254.1194	48	C16H16NO2+
255.1012	20	C16H15O3+
255.1259	29	C16H17NO2+
256.1347	436	C16H18NO2+
257.1376	66	C15[13]CH18NO2+
258.1392	6	C15[13]CH19NO2+
264.103	7	C17H14NO2+
265.1112	19	C17H15NO2+
266.1186	41	C17H16NO2+
267.103	8	C17H15O3+
267.1223	13	C17H17NO2+
268.0989	21	C16H14NO3+
269.1052	17	C16H15NO3+
270.1138	35	C16H16NO3+
270.15	22	C17H20NO2+
271.1165	7	C15[13]CH16NO3+
280.1355	17	C18H18NO2+
281.1368	5	C17[13]CH18NO2+
282.1139	24	C17H16NO3+
283.1214	28	C17H17NO3+
298.1454	271	C18H20NO3+
299.1487	47	C17[13]CH20NO3+
316.1565	6	C18H22NO4+
