Mass spectrum: Ethion; LC-ESI-QTOF; MS2; CE: Ramp 23.3-34.9 eV; R=35000; [M+H]+
Name: Ethion
Name: diethoxyphosphinothioylsulfanylmethylsulfanyl-diethoxy-sulfanylidene-lambda5-phosphane
Formula: C9H22O4P2S4
Exact mass: 383.9876164
SMILES: CCOP(=S)(OCC)SCSP(=S)(OCC)OCC
InChI: InChI=1S/C9H22O4P2S4/c1-5-10-14(16,11-6-2)18-9-19-15(17,12-7-3)13-8-4/h5-9H2,1-4H3
Instrument: Bruker maXis Impact
Instrument type: LC-ESI-QTOF
Ms type: MS2
Ion mode: POSITIVE
Ionization: ESI
Fragmentation mode: CID
Collision energy: Ramp 23.3-34.9 eV
Resolution: 35000
Column name: Acclaim RSLC C18 2.2um, 2.1x100mm, Thermo
Retention time: 12.490 min
Base peak: 384.995
Precursor m/z: 384.9949
Precursor type: [M+H]+
m/z	relative intensity	assigned
46.9946	10	CH3S+
75.026	10	C3H7S+
96.9513	14	H2O2PS+
114.9621	210	H4O3PS+
116.9573	12	H4O3P[34]S+
124.9812	51	C2H6O2PS+
126.9429	14	CH4OPS2+
128.9215	5	H2O2PS2+
132.9729	5	H6O4PS+
142.9375	999	C4O2PS+
143.9386	27	C3[13]CO2PS+
144.9333	80	C4H2PS2+
153.0121	92	C7H6O2P+
154.0152	6	C6[13]CH6O2P+
154.974	11	C3H8OPS2+
156.9528	5	C2H6O2PS2+
158.9687	5	C2H8O2PS2+
160.9477	7	CH6O3PS2+
170.9687	492	C6H4O2PS+
171.023	189	C4H12O3PS+
171.9708	27	C5[13]CH4O2PS+
172.0263	15	CH18OP2S2+
172.9642	51	C6H6PS2+
173.0189	7	C4H12O3P[34]S+
174.9095	16	CH4O2PS3+
184.9831	12	C7H6O2PS+
199	265	C8H8O2PS+
200.0025	19	C7[13]CH8O2PS+
200.9963	17	C8H8O2P[34]S+
202.9407	15	C3H8O2PS3+
215.0319	11	C6H16O2PS2+
230.972	34	C5H12O2PS3+
