Mass spectrum: Sulfadimethoxine; LC-ESI-QTOF; MS2; CE: 30 eV; R=35000; [M+H]+
Name: Sulfadimethoxine
Name: 4-amino-n-(2,6-dimethoxypyrimidin-4-yl)benzenesulfonamide
Formula: C12H14N4O4S
Exact mass: 310.0735759
SMILES: COc1cc(nc(n1)OC)NS(=O)(=O)c2ccc(cc2)N
InChI: InChI=1S/C12H14N4O4S/c1-19-11-7-10(14-12(15-11)20-2)16-21(17,18)9-5-3-8(13)4-6-9/h3-7H,13H2,1-2H3,(H,14,15,16)
Instrument: Bruker maXis Impact
Instrument type: LC-ESI-QTOF
Ms type: MS2
Ion mode: POSITIVE
Ionization: ESI
Fragmentation mode: CID
Collision energy: 30 eV
Resolution: 35000
Column name: Acclaim RSLC C18 2.2um, 2.1x100mm, Thermo
Retention time: 4.6 min
Base peak: 311.0811
Precursor m/z: 311.0809
Precursor type: [M+H]+
m/z	relative intensity	assigned
108.0448	13	H12O4S+
124.0204	13	C6H6NS+
126.0659	35	C5H8N3O+
127.0504	8	C5H7N2O2+
138.0294	15	C5H4N3O2+
141.0517	104	C9[13]CH6N+
154.0604	605	C6H8N3O2+
155.0672	54	C7[13]CH10O3+
156.0105	999	C4H4N4OS+
156.0762	634	C6H10N3O2+
157.0131	45	C3[13]CH4N4OS+
157.0798	34	C5[13]CH10N3O2+
158.0071	23	C6H6NO2[34]S+
201.0772	27	C10H9N4O+
212.069	38	C11H8N4O+
218.0235	8	C6H8N3O4S+
230.0808	92	C11H10N4O2+
231.0843	12	C12H13N3S+
245.1039	104	C12H13N4O2+
246.107	11	C12H14N4O2+
311.0829	38	C12H15N4O4S+
