Mass spectrum: 2-Hydroxy-2-methylpropiophenone; GC-APCI-QTOF; MS2; CE: 50 eV; R=35000; [M+H]+
Name: 2-Hydroxy-2-methylpropiophenone
Formula: C10H12O2
Exact mass: 164.0837
SMILES: CC(C)(C(=O)C1=CC=CC=C1)O
InChI: InChI=1S/C10H12O2/c1-10(2,12)9(11)8-6-4-3-5-7-8/h3-7,12H,1-2H3
Instrument: Bruker 450 GC coupled to maXis Impact
Instrument type: GC-APCI-QTOF
Ms type: MS2
Ion mode: POSITIVE
Ionization: APCI
Fragmentation mode: CID
Collision energy: 50 eV
Resolution: 35000
Column name: Rxi-5Sil MS column, 30m, 0.25mm i.d., 0.25Âµm film thickness, Restek
Retention time: 10.426 min
Base peak: 119.085
Precursor m/z: 165.091
Precursor type: [M+H]+
m/z	relative intensity	assigned
53.0395	70	C4H5+
63.0231	67	C5H3+
65.0394	534	C5H5+
78.0467	67	C6H6+
91.0538	611	C7H7+
95.0496	99	C6H7O+
115.0535	118	C9H7+
126.0463	128	C10H6+
127.0543	244	C10H7+
128.0622	999	C10H8+
131.0501	198	C9H7O+
145.0651	135	C10H9O+
