Mass spectrum: Pyridaben; LC-ESI-QTOF; MS2; CE: 50 eV; R=35000; [M+H]+
Name: Pyridaben
Name: 2-tert-butyl-5-[(4-tert-butylphenyl)methylsulfanyl]-4-chloropyridazin-3-one
Formula: C19H25ClN2OS
Exact mass: 364.1376121
SMILES: CC(C)(C)N1N=CC(SCC2=CC=C(C=C2)C(C)(C)C)=C(Cl)C1=O
InChI: InChI=1S/C19H25ClN2OS/c1-18(2,3)14-9-7-13(8-10-14)12-24-15-11-21-22(19(4,5)6)17(23)16(15)20/h7-11H,12H2,1-6H3
Instrument: Bruker maXis Impact
Instrument type: LC-ESI-QTOF
Ms type: MS2
Ion mode: POSITIVE
Ionization: ESI
Fragmentation mode: CID
Collision energy: 50 eV
Resolution: 35000
Column name: Acclaim RSLC C18 2.2um, 2.1x100mm, Thermo
Retention time: 13.437 min
Base peak: 365.1449
Precursor m/z: 365.1449
Precursor type: [M+H]+
m/z	relative intensity	assigned
115.0537	44	C9H7+
116.0597	6	C8[13]CH7+
117.0693	156	C9H9+
118.0726	16	C8[13]CH9+
119.0849	201	C9H11+
120.088	15	C8[13]CH11+
131.0846	25	C10H11+
132.0925	573	C10H12+
133.0957	48	C9[13]CH12+
145.1001	16	C11H13+
147.1159	999	C11H15+
148.1191	86	C10[13]CH15+
