Mass spectrum: Sudan III; LC-ESI-QTOF; MS2; CE: 10 eV; R=35000; [M+H]+
Name: Sudan III
Formula: C22H16N4O
Exact mass: 352.1324111
SMILES: c1ccc(cc1)/N=N\c2ccc(cc2)/N=N/c3c4ccccc4ccc3O
InChI: InChI=1S/C22H16N4O/c27-21-15-10-16-6-4-5-9-20(16)22(21)26-25-19-13-11-18(12-14-19)24-23-17-7-2-1-3-8-17/h1-15,27H/b24-23-,26-25+
Instrument: Bruker maXis Impact
Instrument type: LC-ESI-QTOF
Ms type: MS2
Ion mode: POSITIVE
Ionization: ESI
Fragmentation mode: CID
Collision energy: 10 eV
Resolution: 35000
Column name: Acclaim RSLC C18 2.2um, 2.1x100mm, Thermo
Retention time: 15.482 min
Base peak: 338.3442
Precursor m/z: 353.1397
Precursor type: [M+H]+
m/z	relative intensity	assigned
156.0441	6	C10H6NO+
197.0954	14	C12H11N3+
198.1026	6	C12H12N3+
353.1421	999	C22H17N4O+
354.1448	204	C21[13]CH17N4O+
355.148	35	C20[13]C2H17N4O+
