Mass spectrum: Progesterone; LC-ESI-QTOF; MS2; CE: 20 eV; R=35000; [M+H]+
Name: Progesterone
Name: progesterone
Name: (8S,9S,10R,13S,14S,17S)-17-acetyl-10,13-dimethyl-1,2,6,7,8,9,11,12,14,15,16,17-dodecahydrocyclopenta[a]phenanthren-3-one
Formula: C21H30O2
Exact mass: 314.2245802
SMILES: CC(=O)[C@H]1CC[C@@H]2[C@@]1(CC[C@H]3[C@H]2CCC4=CC(=O)CC[C@]34C)C
InChI: InChI=1S/C21H30O2/c1-13(22)17-6-7-18-16-5-4-14-12-15(23)8-10-20(14,2)19(16)9-11-21(17,18)3/h12,16-19H,4-11H2,1-3H3/t16-,17+,18-,19-,20-,21+/m0/s1
Instrument: Bruker maXis Impact
Instrument type: LC-ESI-QTOF
Ms type: MS2
Ion mode: POSITIVE
Ionization: ESI
Fragmentation mode: CID
Collision energy: 20 eV
Resolution: 35000
Column name: Acclaim RSLC C18 2.2um, 2.1x100mm, Thermo
Retention time: 11.048 min
Base peak: 315.234
Precursor m/z: 315.2319
Precursor type: [M+H]+
m/z	relative intensity	assigned
109.0653	5	C7H9O+
121.1012	6	C9H13+
123.0809	25	C8H11O+
133.1008	10	C10H13+
135.1167	5	C10H15+
137.0964	10	C9H13O+
145.1013	11	C11H13+
147.1176	14	C11H15+
159.1174	14	C12H15+
161.1334	9	C12H17+
163.1127	12	C11H15O+
171.1171	10	C13H15+
173.1333	16	C13H17+
175.1127	5	C12H15O+
175.1489	6	C13H19+
177.128	17	C12H17O+
185.1337	5	C14H17+
187.1482	9	C14H19+
189.1276	12	C13H17O+
189.1642	6	C14H21+
191.1441	8	C13H19O+
201.165	17	C15H21+
203.1431	5	C14H19O+
213.1647	9	C16H21+
215.1437	8	C15H19O+
215.18	19	C16H23+
219.1753	9	C15H23O+
223.1491	7	C17H19+
227.1802	10	C17H23+
229.1602	10	C16H21O+
233.1925	13	C16H25O+
239.1802	21	C18H23+
241.16	7	C17H21O+
245.1909	13	C17H25O+
253.1953	11	C19H25+
255.2112	28	C19H27+
256.0921	35	C19H12O+
256.2148	6	C18[13]CH27+
257.0941	9	C18[13]CH12O+
257.1908	7	C18H25O+
271.2073	5	C19H27O+
273.2228	24	C19H29O+
274.2263	5	C18[13]CH29O+
279.2131	36	C21H27+
280.2159	10	C20[13]CH27+
297.2228	136	C21H29O+
298.2252	30	C20[13]CH29O+
315.2342	999	C21H31O2+
316.2371	203	C20[13]CH31O2+
317.24	22	C19[13]C2H31O2+
