Mass spectrum: Phenylbutazone; LC-ESI-QTOF; MS2; CE: 40 eV; R=35000; [M+H]+
Name: Phenylbutazone
Name: 4-butyl-1,2-diphenylpyrazolidine-3,5-dione
Formula: C19H20N2O2
Exact mass: 308.1524779
SMILES: CCCCC1C(=O)N(N(C1=O)c2ccccc2)c3ccccc3
InChI: InChI=1S/C19H20N2O2/c1-2-3-14-17-18(22)20(15-10-6-4-7-11-15)21(19(17)23)16-12-8-5-9-13-16/h4-13,17H,2-3,14H2,1H3
Instrument: Bruker maXis Impact
Instrument type: LC-ESI-QTOF
Ms type: MS2
Ion mode: POSITIVE
Ionization: ESI
Fragmentation mode: CID
Collision energy: 40 eV
Resolution: 35000
Column name: Acclaim RSLC C18 2.2um, 2.1x100mm, Thermo
Retention time: 3.5 min
Base peak: 309.1719
Precursor m/z: 309.1598
Precursor type: [M+H]+
m/z	relative intensity	assigned
123.0619	52	C2H9N3O3+
124.0693	25	C2H10N3O3+
135.0612	6	C3H9N3O3+
143.0704	13	C10H9N+
155.0632	39	C10H7N2+
156.0707	19	C10H8N2+
157.0785	11	C10H9N2+
167.0698	5	C12H9N+
169.0675	18	C12H9O+
170.0754	28	C12H10O+
171.0835	318	C12H11O+
172.0877	53	C11[13]CH11O+
183.0838	25	C13H11O+
184.0913	15	C13H12O+
185.0997	56	C13H13O+
187.1146	16	C13H15O+
193.0685	7	C14H9O+
195.0835	5	C14H11O+
206.0743	10	C15H10O+
207.0845	21	C15H11O+
208.09	7	C15H12O+
217.0677	11	C16H9O+
218.0754	22	C16H10O+
219.0826	11	C16H11O+
220.0792	36	C15H10NO+
221.0836	10	C15H11NO+
222.0953	6	C15H12NO+
224.1106	16	C15H14NO+
232.079	7	C16H10NO+
233.0869	10	C16H11NO+
234.095	21	C16H12NO+
235.0984	21	C16H13NO+
237.1055	36	C15H13N2O+
238.1083	7	C15H14N2O+
245.0749	6	C16H9N2O+
247.0896	10	C16H11N2O+
248.0852	41	C17H12O2+
249.103	27	C16H13N2O+
250.1028	24	C17H14O2+
251.1142	10	C16H15N2O+
252.1154	6	C17H16O2+
259.0894	15	C17H11N2O+
260.0953	24	C17H12N2O+
261.102	21	C17H13N2O+
262.0993	250	C18H14O2+
263.1032	43	C17[13]CH14O2+
264.1138	38	C18H16O2+
265.1227	84	C18H17O2+
266.1308	999	C18H18O2+
267.1335	109	C18H19O2+
268.1383	8	C16[13]C2H18O2+
275.1073	7	C19H15O2+
277.1221	260	C19H17O2+
278.1267	44	C18[13]CH17O2+
279.1254	770	C18H17NO2+
280.1285	92	C18H18NO2+
281.1297	6	C16[13]CH16N2O2+
291.1267	35	C19H17NO2+
292.1329	71	C19H18NO2+
294.1468	150	C19H20NO2+
295.1502	17	C18[13]CH20NO2+
307.1501	123	C19H19N2O2+
308.154	24	C18[13]CH19N2O2+
