Mass spectrum: Harman; LC-ESI-QTOF; MS2; CE: 30 eV; R=35000; [M+H]+
Name: Harman
Name: 1-methyl-9H-pyrido[3,4-b]indole
Formula: C12H10N2
Exact mass: 182.0843983
SMILES: CC1=NC=CC2=C1NC1=C2C=CC=C1
InChI: InChI=1S/C12H10N2/c1-8-12-10(6-7-13-8)9-4-2-3-5-11(9)14-12/h2-7,14H,1H3
Instrument: Bruker maXis Impact
Instrument type: LC-ESI-QTOF
Ms type: MS2
Ion mode: POSITIVE
Ionization: ESI
Fragmentation mode: CID
Collision energy: 30 eV
Resolution: 35000
Column name: Acclaim RSLC C18 2.2um, 2.1x100mm, Thermo
Retention time: 4.750 min
Base peak: 183.0908
Precursor m/z: 183.0917
Precursor type: [M+H]+
m/z	relative intensity	assigned
115.0536	124	C9H7+
116.0566	14	C8[13]CH7+
128.0609	5	C10H8+
129.0688	9	C10H9+
140.0483	11	C10H6N+
141.0557	10	C10H7N+
142.064	67	C10H8N+
143.0674	7	C9[13]CH8N+
154.0635	7	C11H8N+
155.071	6	C11H9N+
156.0791	12	C11H10N+
166.0635	5	C12H8N+
167.0592	13	C11H7N2+
168.0669	93	C11H8N2+
169.0702	9	C10[13]CH8N2+
181.0742	11	C12H9N2+
182.0827	71	C12H10N2+
183.0908	999	C12H11N2+
184.0939	107	C11[13]CH11N2+
185.0966	5	C10[13]C2H11N2+
