Mass spectrum: Dichlofluanid; LC-ESI-QTOF; MS2; CE: 10 eV; R=35000; [M+H]+
Name: Dichlofluanid
Name: N-[dichloro(fluoro)methyl]sulfanyl-N-(dimethylsulfamoyl)aniline
Formula: C9H11Cl2FN2O2S2
Exact mass: 331.9623032
SMILES: CN(C)S(=O)(=O)N(SC(F)(Cl)Cl)C1=CC=CC=C1
InChI: InChI=1S/C9H11Cl2FN2O2S2/c1-13(2)18(15,16)14(17-9(10,11)12)8-6-4-3-5-7-8/h3-7H,1-2H3
Instrument: Bruker maXis Impact
Instrument type: LC-ESI-QTOF
Ms type: MS2
Ion mode: POSITIVE
Ionization: ESI
Fragmentation mode: CID
Collision energy: 10 eV
Resolution: 35000
Column name: Acclaim RSLC C18 2.2um, 2.1x100mm, Thermo
Retention time: 10.0 min
Base peak: 332.9693
Precursor m/z: 332.9696
Precursor type: [M+H]+
m/z	relative intensity	assigned
120.0813	6	C8H10N+
121.0875	25	C8H11N+
123.0126	40	C3H5ClFN2+
124.0159	7	C3H7ClNO2+
125.9858	21	C6H3ClO+
127.983	13	CH6NO2S2+
199.0514	5	C8H11N2O2S+
223.9493	999	C4H10Cl2O2S2+
224.9515	87	C3[13]CH10Cl2O2S2+
225.9459	589	C4H10[37]Cl[35]ClO2S2+
226.949	40	C3[13]CH10[37]Cl[35]ClO2S2+
269.0074	40	C9H12Cl2FN2S+
271.0046	37	C9H12[37]Cl[35]ClFN2S+
332.9699	40	C9H12Cl2FN2O2S2+
333.974	5	C8[13]CH12Cl2FN2O2S2+
334.9671	28	C9H12[37]Cl[35]ClFN2O2S2+
