Mass spectrum: Naproxen; LC-ESI-QTOF; MS2; CE: 30 eV; R=35000; [M+H]+
Name: Naproxen
Name: 2-(6-Methoxy-2-naphthyl)propionic acid
Name: 2-(6-methoxynaphthalen-2-yl)propanoic acid
Formula: C14H14O3
Exact mass: 230.0942943
SMILES: COC1=CC2=CC=C(C=C2C=C1)C(C)C(O)=O
InChI: InChI=1S/C14H14O3/c1-9(14(15)16)10-3-4-12-8-13(17-2)6-5-11(12)7-10/h3-9H,1-2H3,(H,15,16)
Instrument: Bruker maXis Impact
Instrument type: LC-ESI-QTOF
Ms type: MS2
Ion mode: POSITIVE
Ionization: ESI
Fragmentation mode: CID
Collision energy: 30 eV
Resolution: 35000
Column name: Acclaim RSLC C18 2.2um, 2.1x100mm, Thermo
Retention time: 9.127 min
Base peak: 419.2681
Precursor m/z: 231.1016
Precursor type: [M+H]+
m/z	relative intensity	assigned
115.0529	33	C9H7+
128.0619	72	C10H8+
129.068	33	C10H9+
141.069	83	C11H9+
142.0764	77	C11H10+
144.0578	38	C10H8O+
152.0604	141	C12H8+
153.0687	269	C12H9+
154.0761	317	C12H10+
155.0839	237	C12H11+
156.0546	33	C11H8O+
156.0885	35	C11[13]CH11+
158.0709	212	C11H10O+
169.0635	138	C12H9O+
170.0709	947	C12H10O+
171.0742	161	C11[13]CH10O+
184.0846	28	C13H12O+
185.095	999	C13H13O+
186.0983	202	C12[13]CH13O+
