Mass spectrum: Metolachlor-Morpholinone; LC-ESI-QTOF; MS2; CE: 30 eV; R=35000; [M+H]+
Name: Metolachlor-Morpholinone
Name: 4-(2-ethyl-6-methylphenyl)-5-methylmorpholin-3-one
Formula: C14H19NO2
Exact mass: 233.1415788
SMILES: CCC1=CC=CC(C)=C1N1C(C)COCC1=O
InChI: InChI=1S/C14H19NO2/c1-4-12-7-5-6-10(2)14(12)15-11(3)8-17-9-13(15)16/h5-7,11H,4,8-9H2,1-3H3
Instrument: Bruker maXis Impact
Instrument type: LC-ESI-QTOF
Ms type: MS2
Ion mode: POSITIVE
Ionization: ESI
Fragmentation mode: CID
Collision energy: 30 eV
Resolution: 35000
Column name: Acclaim RSLC C18 2.2um, 2.1x100mm, Thermo
Retention time: 7.6 min
Base peak: 234.1484
Precursor m/z: 234.1489
Precursor type: [M+H]+
m/z	relative intensity	assigned
115.0532	16	C9H7+
117.0563	22	C8H7N+
117.0687	25	C9H9+
120.08	640	C8H10N+
121.0638	7	C8H9O+
121.0834	46	C3H11N3O2+
129.0687	12	C10H9+
131.0841	24	C10H11+
132.0436	6	C8H6NO+
133.0512	104	C8H7NO+
134.0572	12	C3H8N3O3+
136.1092	9	C4H14N3O2+
137.0955	6	C9H13O+
143.0716	19	C10H9N+
143.0846	6	C11H11+
146.0953	534	C10H12N+
148.0746	618	C9H10NO+
148.1111	566	C10H14N+
149.0777	49	C4H11N3O3+
149.0947	8	C10H13O+
149.1143	55	C5H15N3O2+
160.1111	587	C11H14N+
161.0824	31	C10H11NO+
161.1144	61	C6H15N3O2+
162.0899	74	C10H12NO+
162.1261	8	C11H16N+
163.0939	5	C5H13N3O3+
172.1104	11	C12H14N+
173.1183	7	C12H15N+
174.0901	9	C11H12NO+
175.0982	10	C11H13NO+
176.1422	132	C12H18N+
177.1117	17	C11H15NO+
177.1453	14	C7H19N3O2+
186.1266	10	C13H16N+
188.1055	6	C12H14NO+
188.1422	49	C13H18N+
189.1459	8	C8H19N3O2+
192.1013	6	C11H14NO2+
193.1084	15	C11H15NO2+
204.1361	9	C13H18NO+
206.1168	324	C12H16NO2+
216.1377	10	C14H18NO+
234.149	999	C14H20NO2+
235.1521	133	C13[13]CH20NO2+
236.1547	13	C12[13]C2H20NO2+
