Mass spectrum: Propyphenazone; LC-ESI-QTOF; MS2; CE: 20 eV; R=35000; [M+H]+
Name: Propyphenazone
Name: 1,5-dimethyl-2-phenyl-4-propan-2-ylpyrazol-3-one
Formula: C14H18N2O
Exact mass: 230.1419132
SMILES: CC(C)C1=C(C)N(C)N(C1=O)C1=CC=CC=C1
InChI: InChI=1S/C14H18N2O/c1-10(2)13-11(3)15(4)16(14(13)17)12-8-6-5-7-9-12/h5-10H,1-4H3
Instrument: Bruker maXis Impact
Instrument type: LC-ESI-QTOF
Ms type: MS2
Ion mode: POSITIVE
Ionization: ESI
Fragmentation mode: CID
Collision energy: 20 eV
Resolution: 35000
Column name: Acclaim RSLC C18 2.2um, 2.1x100mm, Thermo
Retention time: 7.446 min
Base peak: 231.1493
Precursor m/z: 231.1492
Precursor type: [M+H]+
m/z	relative intensity	assigned
138.0898	5	C8H12NO+
144.0798	6	C10H10N+
146.0953	9	C10H12N+
161.1061	5	C10H13N2+
172.1111	5	C12H14N+
189.1016	236	C11H13N2O+
190.1045	24	C10[13]CH13N2O+
201.1015	35	C12H13N2O+
203.1539	9	C13H19N2+
216.125	16	C13H16N2O+
231.15	999	C14H19N2O+
