Mass spectrum: 1,2,4-Triazole; LC-ESI-QTOF; MS2; CE: Ramp 14.4-21.6 eV; R=35000; [M+H]+
Name: 1,2,4-Triazole
Name: 1H-1,2,4-triazole
Formula: C2H3N3
Exact mass: 69.03269710
SMILES: N1C=NC=N1
InChI: InChI=1S/C2H3N3/c1-3-2-5-4-1/h1-2H,(H,3,4,5)
Instrument: Bruker maXis Impact
Instrument type: LC-ESI-QTOF
Ms type: MS2
Ion mode: POSITIVE
Ionization: ESI
Fragmentation mode: CID
Collision energy: Ramp 14.4-21.6 eV
Resolution: 35000
Column name: Acclaim RSLC C18 2.2um, 2.1x100mm, Thermo
Retention time: 1.564 min
Base peak: 61.0389
Precursor m/z: 70.04
Precursor type: [M+H]+
m/z	relative intensity	assigned
70.0391	999	C2H4N3+
