Mass spectrum: Piperine; LC-ESI-QTOF; MS2; CE: 10 eV; R=35000; [M+H]+
Name: Piperine
Name: (2E,4E)-5-(1,3-benzodioxol-5-yl)-1-piperidin-1-ylpenta-2,4-dien-1-one
Formula: C17H19NO3
Exact mass: 285.1364935
SMILES: O=C(\C=C\C=C\C1=CC2=C(OCO2)C=C1)N1CCCCC1
InChI: InChI=1S/C17H19NO3/c19-17(18-10-4-1-5-11-18)7-3-2-6-14-8-9-15-16(12-14)21-13-20-15/h2-3,6-9,12H,1,4-5,10-11,13H2/b6-2+,7-3+
Instrument: Bruker maXis Impact
Instrument type: LC-ESI-QTOF
Ms type: MS2
Ion mode: POSITIVE
Ionization: ESI
Fragmentation mode: CID
Collision energy: 10 eV
Resolution: 35000
Column name: Acclaim RSLC C18 2.2um, 2.1x100mm, Thermo
Retention time: 10.054 min
Base peak: 286.1436
Precursor m/z: 286.1438
Precursor type: [M+H]+
m/z	relative intensity	assigned
201.0534	68	C12H9O3+
202.0566	7	C11[13]CH9O3+
286.1441	999	C17H20NO3+
287.1466	280	C16[13]CH20NO3+
288.1488	21	C15[13]C2H20NO3+
