Mass spectrum: Dodemorph; LC-ESI-QTOF; MS2; CE: 50 eV; R=35000; [M+H]+
Name: Dodemorph
Name: 4-cyclododecyl-2,6-dimethylmorpholine
Formula: C18H35NO
Exact mass: 281.2718647
SMILES: CC1CN(CC(C)O1)C1CCCCCCCCCCC1
InChI: InChI=1S/C18H35NO/c1-16-14-19(15-17(2)20-16)18-12-10-8-6-4-3-5-7-9-11-13-18/h16-18H,3-15H2,1-2H3
Instrument: Bruker maXis Impact
Instrument type: LC-ESI-QTOF
Ms type: MS2
Ion mode: POSITIVE
Ionization: ESI
Fragmentation mode: CID
Collision energy: 50 eV
Resolution: 35000
Column name: Acclaim RSLC C18 2.2um, 2.1x100mm, Thermo
Retention time: 8.794 min
Base peak: 282.279
Precursor m/z: 282.2791
Precursor type: [M+H]+
m/z	relative intensity	assigned
116.1059	999	C6H14NO+
117.0551	142	C8H7N+
130.0642	343	C9H8N+
132.0796	545	C9H10N+
134.095	479	C9H12N+
144.0791	252	C10H10N+
145.0874	316	C10H11N+
146.0934	164	C10H12N+
148.1105	327	C10H14N+
150.0111	144	C11H2O+
160.1098	238	C11H14N+
162.126	199	C11H16N+
