Mass spectrum: Biphenyl; GC-APCI-QTOF; MS2; CE: 50 eV; R=35000; [M]+
Name: Biphenyl
Formula: C12H10
Exact mass: 154.0783
SMILES: C1=CC=C(C=C1)C2=CC=CC=C2
InChI: InChI=1S/C12H10/c1-3-7-11(8-4-1)12-9-5-2-6-10-12/h1-10H
Instrument: Bruker 450 GC coupled to maXis Impact
Instrument type: GC-APCI-QTOF
Ms type: MS2
Ion mode: POSITIVE
Ionization: APCI
Fragmentation mode: CID
Collision energy: 50 eV
Resolution: 35000
Column name: Rxi-5Sil MS column, 30m, 0.25mm i.d., 0.25Âµm film thickness, Restek
Retention time: 11.384 min
Base peak: 154.0795
Precursor m/z: 154.0777
Precursor type: [M]+
m/z	relative intensity	assigned
50.0162	25	C4H2+
51.0239	83	C4H3+
113.0392	17	C9H5+
115.0541	78	C9H7+
125.0399	14	C10H5+
126.0476	129	C10H6+
127.0538	82	C10H7+
128.0611	127	C10H8+
139.0552	111	C11H7+
140.061	19	C11H8+
150.0496	83	C12H6+
151.058	50	C12H7+
152.0645	999	C12H8+
153.0688	131	C12H9+
