Mass spectrum: Moxidectin; LC-ESI-QTOF; MS2; CE: 20 eV; R=35000; [M+H]+
Name: Moxidectin
Formula: C37H53NO8
Exact mass: 639.3771177
SMILES: C[C@@H]\1C/C(=C/C[C@@H]2C[C@@H](C[C@@]3(O2)C/C(=N\OC)/[C@@H]([C@H](O3)/C(=C/C(C)C)/C)C)OC(=O)[C@@H]4C=C([C@H]([C@@H]5[C@]4(/C(=C/C=C1)/CO5)O)O)C)/C
InChI: InChI=1S/C37H53NO8/c1-21(2)14-25(6)33-26(7)31(38-42-8)19-36(46-33)18-29-17-28(45-36)13-12-23(4)15-22(3)10-9-11-27-20-43-34-32(39)24(5)16-30(35(40)44-29)37(27,34)41/h9-12,14,16,21-22,26,28-30,32-34,39,41H,13,15,17-20H2,1-8H3/b10-9+,23-12+,25-14+,27-11+,38-31+/t22-,26-,28+,29-,30-,32+,33+,34+,36-,37+/m0/s1
Instrument: Bruker maXis Impact
Instrument type: LC-ESI-QTOF
Ms type: MS2
Ion mode: POSITIVE
Ionization: ESI
Fragmentation mode: CID
Collision energy: 20 eV
Resolution: 35000
Column name: Acclaim RSLC C18 2.2um, 2.1x100mm, Thermo
Retention time: 14.1 min
Base peak: 688.4441
Precursor m/z: 640.3844
Precursor type: [M+H]+
m/z	relative intensity	assigned
164.1388	231	C8H20O3+
166.1532	361	C8H22O3+
196.1637	442	C9H24O4+
199.105	989	C6H17NO6+
200.1072	272	C13H14NO+
416.2501	695	C32H32+
417.2572	253	C32H33+
418.264	296	C32H34+
434.2619	340	C32H34O+
448.2757	426	C33H36O+
478.2452	507	C25H36NO8+
496.2566	637	C33H36O4+
497.2676	454	C33H37O4+
498.2723	999	C33H38O4+
499.2738	411	C32H37NO4+
528.2814	748	C34H40O5+
529.2869	327	C33H39NO5+
