Mass spectrum: Hydrocortisone; LC-ESI-QTOF; MS2; CE: 50 eV; R=35000; [M+H]+
Name: (8S,9S,10R,11S,13S,14S,17R)-11,17-dihydroxy-17-(2-hydroxyacetyl)-10,13-dimethyl-2,6,7,8,9,11,12,14,15,16-decahydro-1H-cyclopenta[a]phenanthren-3-one
Name: Cortisol
Name: Hydrocortisone
Formula: C21H30O5
Exact mass: 362.20932
SMILES: C[C@]12CCC(=O)C=C1CC[C@@H]3[C@@H]2[C@H](C[C@]4([C@H]3CC[C@@]4(C(=O)CO)O)C)O
InChI: InChI=1S/C21H30O5/c1-19-7-5-13(23)9-12(19)3-4-14-15-6-8-21(26,17(25)11-22)20(15,2)10-16(24)18(14)19/h9,14-16,18,22,24,26H,3-8,10-11H2,1-2H3/t14-,15-,16-,18+,19-,20-,21-/m0/s1
Instrument: Bruker maXis Impact
Instrument type: LC-ESI-QTOF
Ms type: MS2
Ion mode: POSITIVE
Ionization: ESI
Fragmentation mode: CID
Collision energy: 50 eV
Resolution: 35000
Column name: Acclaim RSLC C18 2.2um, 2.1x100mm, Thermo
Retention time: 7.831 min
Base peak: 303.1953
Precursor m/z: 363.2166
Precursor type: [M+H]+
m/z	relative intensity	assigned
115.0527	68	C9H7+
117.0687	124	C9H9+
119.085	247	C9H11+
121.064	999	C8H9O+
121.1003	90	C9H13+
123.0797	174	C8H11O+
128.0611	195	C10H8+
129.0683	237	C10H9+
130.0759	86	C10H10+
131.0842	438	C10H11+
132.0892	49	C9[13]CH11+
133.0637	80	C9H9O+
133.1	294	C10H13+
135.0795	181	C9H11O+
135.1159	51	C10H15+
137.0952	68	C9H13O+
141.068	188	C11H9+
142.0761	150	C11H10+
143.0841	392	C11H11+
144.0887	67	C10[13]CH11+
145.0638	100	C10H9O+
145.1	469	C11H13+
146.1054	77	C10[13]CH13+
147.0788	342	C10H11O+
147.1152	233	C11H15+
148.0854	84	C10H12O+
148.1189	44	C10[13]CH15+
149.0943	148	C10H13O+
151.1111	36	C10H15O+
153.0691	73	C12H9+
154.077	56	C12H10+
155.0843	221	C12H11+
156.09	90	C12H12+
157.0638	38	C11H9O+
157.0997	321	C12H13+
158.0695	46	C11H10O+
158.1046	51	C11[13]CH13+
159.079	213	C11H11O+
159.1154	271	C12H15+
160.1207	36	C11[13]CH15+
161.0946	300	C11H13O+
161.1306	67	C12H17+
162.1003	45	C10[13]CH13O+
163.1103	354	C11H15O+
164.1131	54	C10[13]CH15O+
165.0678	62	C13H9+
166.0768	38	C13H10+
167.0844	85	C13H11+
167.106	22	C10H15O2+
168.0926	75	C13H12+
169.1007	238	C13H13+
170.1051	57	C12[13]CH13+
171.0792	122	C12H11O+
171.1157	265	C13H15+
172.0861	31	C12H12O+
172.1201	53	C12[13]CH15+
173.095	223	C12H13O+
173.1338	100	C13H17+
174.1022	131	C12H14O+
175.1096	138	C12H15O+
176.116	21	C11[13]CH15O+
177.1259	79	C12H17O+
178.0774	27	C14H10+
179.0837	73	C14H11+
180.0924	63	C14H12+
181.1009	174	C14H13+
182.1058	44	C13[13]CH13+
183.0846	24	C13H11O+
183.115	258	C14H15+
184.1212	55	C13[13]CH15+
185.0959	105	C13H13O+
185.1311	212	C14H17+
186.1352	36	C13[13]CH17+
187.1108	119	C13H15O+
187.1462	40	C14H19+
188.1181	43	C13H16O+
189.0882	23	C12H13O2+
189.1259	243	C13H17O+
190.1295	35	C12[13]CH17O+
191.0848	29	C15H11+
192.0918	50	C15H12+
193.0996	98	C15H13+
194.1068	53	C15H14+
195.1168	96	C15H15+
196.1219	61	C15H16+
197.0935	49	C14H13O+
197.1309	215	C15H17+
198.1024	35	C14H14O+
198.1349	39	C14[13]CH17+
199.1099	86	C14H15O+
199.1462	165	C15H19+
200.1156	34	C14H16O+
200.1499	23	C14[13]CH19+
201.1263	128	C14H17O+
201.1615	26	C15H21+
202.133	48	C14H18O+
203.1423	68	C14H19O+
205.1009	42	C16H13+
207.1161	84	C16H15+
208.1259	50	C16H16+
209.1322	104	C16H17+
210.1386	45	C16H18+
211.1106	52	C15H15O+
211.1488	80	C16H19+
212.1194	45	C15H16O+
213.127	134	C15H17O+
213.1625	61	C16H21+
214.1325	37	C15H18O+
215.1432	41	C15H19O+
217.1583	27	C15H21O+
219.1154	29	C17H15+
220.1234	29	C17H16+
221.131	50	C17H17+
223.1464	108	C17H19+
224.1507	38	C17H20+
225.1264	56	C16H17O+
225.1627	69	C17H21+
226.1327	54	C16H18O+
226.1677	42	C17H22+
227.1414	169	C16H19O+
228.1497	58	C16H20O+
229.1207	58	C15H17O2+
229.1573	27	C16H21O+
234.1384	22	C18H18+
237.1256	22	C17H17O+
238.1338	26	C17H18O+
239.144	48	C17H19O+
239.1792	49	C18H23+
241.1583	313	C17H21O+
242.1637	146	C17H22O+
243.173	94	C17H23O+
244.145	163	C16H20O2+
245.1517	100	C16H21O2+
249.1659	32	C19H21+
253.158	88	C18H21O+
257.1867	38	C18H25O+
259.1689	571	C17H23O2+
260.1724	119	C16[13]CH23O2+
267.1746	86	C19H23O+
268.1791	32	C19H24O+
285.1852	87	C19H25O2+
303.197	98	C19H27O3+
