Mass spectrum: Agmatine; LC-ESI-QTOF; MS2; CE: 10 eV; R=35000; [M+H]+
Name: Agmatine
Name: 2-(4-aminobutyl)guanidine
Formula: C5H14N4
Exact mass: 130.1218464
SMILES: C(CCNC(=N)N)CN
InChI: InChI=1S/C5H14N4/c6-3-1-2-4-9-5(7)8/h1-4,6H2,(H4,7,8,9)
Instrument: Bruker maXis Impact
Instrument type: LC-ESI-QTOF
Ms type: MS2
Ion mode: POSITIVE
Ionization: ESI
Fragmentation mode: CID
Collision energy: 10 eV
Resolution: 35000
Column name: Acclaim RSLC C18 2.2um, 2.1x100mm, Thermo
Retention time: 4.318 min
Base peak: 144.175
Precursor m/z: 131.1291
Precursor type: [M+H]+
m/z	relative intensity	assigned
114.1029	177	C5H12N3+
131.1291	999	C5H15N4+
132.1322	66	C4[13]CH15N4+
