Mass spectrum: 4,4`-Difluorobenzophenonen; GC-APCI-QTOF; MS2; CE: 40 eV; R=35000; [M+H]+
Name: 4,4`-Difluorobenzophenonen
Formula: C13H8F2O
Exact mass: 218.0543
SMILES: C1=CC(=CC=C1C(=O)C2=CC=C(C=C2)F)F
InChI: InChI=1S/C13H8F2O/c14-11-5-1-9(2-6-11)13(16)10-3-7-12(15)8-4-10/h1-8H
Instrument: Bruker 450 GC coupled to maXis Impact
Instrument type: GC-APCI-QTOF
Ms type: MS2
Ion mode: POSITIVE
Ionization: APCI
Fragmentation mode: CID
Collision energy: 40 eV
Resolution: 35000
Column name: Rxi-5Sil MS column, 30m, 0.25mm i.d., 0.25Âµm film thickness, Restek
Retention time: 13.372 min
Base peak: 218.054
Precursor m/z: 219.0616
Precursor type: [M+H]+
m/z	relative intensity	assigned
51.0249	15	CH4FO+
113.0397	80	C6H6FO+
123.0236	999	C7H4FO+
124.0277	97	C10H4+
149.0401	14	C9H6FO+
169.048	12	C9H7F2O+
170.0572	22	C9H8F2O+
187.0567	40	C12H8FO+
188.0449	131	C12H6F2+
189.0529	86	C12H7F2+
217.0474	22	C13H7F2O+
