Mass spectrum: Oseltamivir-carboxylate; LC-ESI-QTOF; MS2; CE: 40 eV; R=35000; [M+H]+
Name: Oseltamivir-carboxylate
Name: Oseltamivir acid
Name: (3R,4R,5S)-4-acetamido-5-azaniumyl-3-pentan-3-yloxycyclohexene-1-carboxylate
Formula: C14H24N2O4
Exact mass: 284.1736072
SMILES: CCC(CC)O[C@@H]1C=C(C[C@H](N)[C@H]1NC(C)=O)C(O)=O
InChI: InChI=1S/C14H24N2O4/c1-4-10(5-2)20-12-7-9(14(18)19)6-11(15)13(12)16-8(3)17/h7,10-13H,4-6,15H2,1-3H3,(H,16,17)(H,18,19)/t11-,12+,13+/m0/s1
Instrument: Bruker maXis Impact
Instrument type: LC-ESI-QTOF
Ms type: MS2
Ion mode: POSITIVE
Ionization: ESI
Fragmentation mode: CID
Collision energy: 40 eV
Resolution: 35000
Column name: Acclaim RSLC C18 2.2um, 2.1x100mm, Thermo
Retention time: 4.6 min
Base peak: 285.1804
Precursor m/z: 285.1809
Precursor type: [M+H]+
m/z	relative intensity	assigned
120.0441	579	C7H6NO+
121.0462	87	C2H7N3O3+
134.0601	57	C8H8NO+
137.0702	334	C7H9N2O+
138.0541	999	C7H8NO2+
139.0565	93	C6[13]CH8NO2+
156.0637	71	C7H10NO3+
162.0551	96	C9H8NO2+
