Mass spectrum: Fluoxetine; LC-ESI-QTOF; MS2; CE: 20 eV; R=35000; [M+H]+
Name: Fluoxetine
Name: N-methyl-3-phenyl-3-[4-(trifluoromethyl)phenoxy]propan-1-amine
Formula: C17H18F3NO
Exact mass: 309.1340489
SMILES: CNCCC(c1ccccc1)Oc2ccc(cc2)C(F)(F)F
InChI: InChI=1S/C17H18F3NO/c1-21-12-11-16(13-5-3-2-4-6-13)22-15-9-7-14(8-10-15)17(18,19)20/h2-10,16,21H,11-12H2,1H3
Instrument: Bruker maXis Impact
Instrument type: LC-ESI-QTOF
Ms type: MS2
Ion mode: POSITIVE
Ionization: ESI
Fragmentation mode: CID
Collision energy: 20 eV
Resolution: 35000
Column name: Acclaim RSLC C18 2.2um, 2.1x100mm, Thermo
Retention time: 8.6 min
Base peak: 310.1411
Precursor m/z: 310.1413
Precursor type: [M+H]+
m/z	relative intensity	assigned
117.069	8	C9H9+
148.1094	42	C5H15F3O+
149.115	11	C5H16F3O+
159.1158	37	C12H15+
187.1104	23	C13H15O+
195.1151	30	C15H15+
196.1203	9	C15H16+
205.102	8	C13H14FO+
219.1148	48	C17H15+
220.121	12	C17H16+
223.1105	104	C16H15O+
224.1151	24	C16H16O+
232.1252	9	C15H17FO+
247.1476	74	C14H18FN3+
248.1494	10	C15H19FNO+
265.1577	999	C17H19N3+
310.1415	47	C17H19F3NO+
311.1443	8	C15H19F2N3O2+
