Mass spectrum: Propyphenazone; LC-ESI-QTOF; MS2; CE: Ramp 19.1-28.7 eV; R=35000; [M+H]+
Name: Propyphenazone
Name: 1,5-dimethyl-2-phenyl-4-propan-2-ylpyrazol-3-one
Formula: C14H18N2O
Exact mass: 230.1419132
SMILES: CC(C)C1=C(C)N(C)N(C1=O)C1=CC=CC=C1
InChI: InChI=1S/C14H18N2O/c1-10(2)13-11(3)15(4)16(14(13)17)12-8-6-5-7-9-12/h5-10H,1-4H3
Instrument: Bruker maXis Impact
Instrument type: LC-ESI-QTOF
Ms type: MS2
Ion mode: POSITIVE
Ionization: ESI
Fragmentation mode: CID
Collision energy: Ramp 19.1-28.7 eV
Resolution: 35000
Column name: Acclaim RSLC C18 2.2um, 2.1x100mm, Thermo
Retention time: 7.453 min
Base peak: 231.1495
Precursor m/z: 231.1492
Precursor type: [M+H]+
m/z	relative intensity	assigned
56.0491	147	C3H6N+
58.0649	8	C3H8N+
79.0538	6	C6H7+
81.0695	9	C6H9+
82.0646	12	C5H8N+
92.0493	14	C6H6N+
94.0653	7	C6H8N+
95.0732	16	C6H9N+
96.0808	18	C6H10N+
97.0885	9	C6H11N+
98.06	9	C5H8NO+
100.1121	5	C6H14N+
104.0499	10	C7H6N+
110.0972	19	C7H12N+
112.0762	8	C6H10NO+
112.113	57	C7H14N+
118.0652	18	C8H8N+
120.0446	9	C7H6NO+
120.0809	26	C8H10N+
124.0757	22	C7H10NO+
130.0648	9	C9H8N+
131.0726	19	C9H9N+
132.0801	7	C9H10N+
133.076	5	C8H9N2+
138.0911	8	C8H12NO+
144.0804	21	C10H10N+
146.0833	10	C9H10N2+
146.0959	27	C10H12N+
147.0908	6	C9H11N2+
160.0988	6	C10H12N2+
161.1063	14	C10H13N2+
172.0744	5	C11H10NO+
172.1115	8	C12H14N+
188.0935	6	C11H12N2O+
189.1017	351	C11H13N2O+
190.1048	33	C10[13]CH13N2O+
201.1015	105	C12H13N2O+
202.1048	11	C11[13]CH13N2O+
203.1535	10	C13H19N2+
215.1176	6	C13H15N2O+
216.1249	21	C13H16N2O+
229.1326	5	C14H17N2O+
231.1493	999	C14H19N2O+
233.1551	17	C12[13]C2H19N2O+
