Mass spectrum: Aflatoxin G2; LC-ESI-QTOF; MS2; CE: 40 eV; R=35000; [M+H]+
Name: Aflatoxin G2
Name: Dihydroaflatoxin G1
Name: 11-methoxy-6,8,16,20-tetraoxapentacyclo[10.8.0.02,9.03,7.013,18]icosa-1,9,11,13(18)-tetraene-17,19-dione
Class: Natural Product; Fungal metabolite
Formula: C17H14O7
Exact mass: 330.074
SMILES: COC1=C2C3=C(C(=O)OCC3)C(=O)OC2=C4C5CCOC5OC4=C1
InChI: InChI=1S/C17H14O7/c1-20-9-6-10-12(8-3-5-22-17(8)23-10)14-11(9)7-2-4-21-15(18)13(7)16(19)24-14/h6,8,17H,2-5H2,1H3
Instrument: Bruker maXis Impact
Instrument type: LC-ESI-QTOF
Ms type: MS2
Ion mode: POSITIVE
Ionization: ESI
Fragmentation mode: CID
Collision energy: 40 eV
Resolution: 35000
Column name: Acclaim RSLC C18 2.2um, 2.1x100mm, Thermo
Retention time: 5.731 min
Base peak: 331.081
Precursor m/z: 331.0812
Precursor type: [M+H]+
m/z	relative intensity	assigned
115.0545	12	C9H7+
117.0691	6	C9H9+
122.06	11	C4H10O4+
127.0542	6	C10H7+
128.062	29	C10H8+
129.0692	23	C10H9+
130.0768	5	C10H10+
131.0491	10	C9H7O+
131.0854	9	C10H11+
133.0639	11	C9H9O+
137.0588	7	C8H9O2+
141.0698	25	C11H9+
142.0772	18	C11H10+
143.0492	10	C10H7O+
143.0843	21	C11H11+
144.0563	12	C10H8O+
145.0276	7	C9H5O2+
145.064	32	C10H9O+
145.1001	6	C11H13+
146.0365	6	C9H6O2+
147.0439	23	C9H7O2+
147.0795	9	C10H11O+
148.0503	6	C9H8O2+
149.0226	5	C8H5O3+
149.0578	6	C9H9O2+
152.0618	17	C12H8+
153.0691	30	C12H9+
154.0755	11	C12H10+
155.0495	9	C11H7O+
155.0577	8	C4H11O6+
155.0855	23	C12H11+
156.0555	5	C11H8O+
157.0647	27	C11H9O+
158.0719	32	C11H10O+
159.0437	12	C10H7O2+
159.0795	22	C11H11O+
160.0501	12	C10H8O2+
161.0594	26	C10H9O2+
161.0946	7	C11H13O+
163.0387	10	C9H7O3+
164.0464	9	C9H8O3+
165.0537	6	C9H9O3+
165.0698	14	C13H9+
165.0914	5	C10H13O2+
166.0764	5	C13H10+
167.0858	6	C13H11+
168.0578	9	C12H8O+
169.0646	41	C12H9O+
170.0719	29	C12H10O+
171.0436	30	C11H7O2+
171.0792	34	C12H11O+
172.0505	12	C11H8O2+
172.0847	7	C12H12O+
173.0235	13	C10H5O3+
173.059	63	C11H9O2+
173.0956	35	C12H13O+
174.066	21	C11H10O2+
174.1003	6	C12H14O+
175.0389	41	C10H7O3+
175.0753	21	C11H11O2+
176.0447	7	C10H8O3+
177.054	22	C10H9O3+
178.0601	12	C10H10O3+
179.0692	12	C10H11O3+
181.0645	22	C13H9O+
182.0716	13	C13H10O+
183.0443	7	C12H7O2+
183.0798	25	C13H11O+
184.0514	12	C12H8O2+
185.0596	59	C12H9O2+
185.0956	17	C13H13O+
186.0307	7	C11H6O3+
186.0671	56	C12H10O2+
187.038	18	C11H7O3+
187.0739	65	C12H11O2+
188.0457	17	C11H8O3+
188.0804	16	C12H12O2+
189.054	421	C11H9O3+
189.0909	40	C12H13O2+
190.0594	57	C11H10O3+
191.0331	15	C10H7O4+
191.0702	39	C11H11O3+
193.0494	11	C10H9O4+
195.0794	11	C14H11O+
196.0497	5	C13H8O2+
197.0594	44	C13H9O2+
198.0667	57	C13H10O2+
199.0381	34	C12H7O3+
199.0748	69	C13H11O2+
200.0457	33	C12H8O3+
200.0802	15	C13H12O2+
201.0543	147	C12H9O3+
201.0906	228	C13H13O2+
202.0613	69	C12H10O3+
203.0335	38	C11H7O4+
203.0692	62	C12H11O3+
204.0374	6	C11H8O4+
204.0733	11	C12H12O3+
205.049	9	C11H9O4+
205.0857	18	C12H13O3+
207.0629	6	C11H11O4+
207.1017	21	C12H15O3+
209.0588	10	C14H9O2+
210.0669	7	C14H10O2+
211.0394	8	C13H7O3+
211.0751	36	C14H11O2+
212.0462	30	C13H8O3+
212.0812	9	C14H12O2+
213.0538	47	C13H9O3+
213.0901	48	C14H13O2+
214.0622	159	C13H10O3+
215.033	14	C12H7O4+
215.0694	132	C13H11O3+
216.0404	7	C12H8O4+
216.0775	110	C13H12O3+
217.0488	63	C12H9O4+
217.0856	525	C13H13O3+
218.0536	11	C12H10O4+
218.0888	78	C13H14O3+
219.0647	14	C12H11O4+
221.0439	20	C11H9O5+
224.0465	8	C14H8O3+
225.0543	65	C14H9O3+
226.0617	81	C14H10O3+
227.0331	30	C13H7O4+
227.0696	164	C14H11O3+
228.0405	14	C13H8O4+
228.0764	57	C14H12O3+
229.0492	158	C13H9O4+
229.0855	255	C14H13O3+
230.0537	31	C13H10O4+
230.0887	37	C14H14O3+
231.064	31	C13H11O4+
231.0972	7	C14H15O3+
232.0683	7	C13H12O4+
233.0805	11	C13H13O4+
235.0955	44	C13H15O4+
237.0547	9	C15H9O3+
238.0628	5	C15H10O3+
239.0335	5	C14H7O4+
239.0696	29	C15H11O3+
240.0747	6	C15H12O3+
241.0489	48	C14H9O4+
241.0853	179	C15H13O3+
242.0566	141	C14H10O4+
242.0882	32	C15H14O3+
243.0274	27	C13H7O5+
243.0643	222	C14H11O4+
244.0702	66	C14H12O4+
245.0807	999	C14H13O4+
246.0836	133	C14H14O4+
247.0611	12	C13H11O5+
252.0414	11	C15H8O4+
253.0472	23	C15H9O4+
254.0575	36	C15H10O4+
255.0268	14	C14H7O5+
255.0641	40	C15H11O4+
256.0703	25	C15H12O4+
257.0443	479	C14H9O5+
257.0806	391	C15H13O4+
258.0472	77	C14H10O5+
258.0837	64	C15H14O4+
259.0581	22	C14H11O5+
259.0922	16	C15H15O4+
260.0646	7	C14H12O5+
261.0401	16	C13H9O6+
262.0443	8	C13H10O6+
263.0905	7	C14H15O5+
267.0646	21	C16H11O4+
269.0434	66	C15H9O5+
269.0798	60	C16H13O4+
270.0507	89	C15H10O5+
270.0836	10	C16H14O4+
271.0223	12	C14H7O6+
271.0582	30	C15H11O5+
272.0673	39	C15H12O5+
273.0757	16	C15H13O5+
275.0544	463	C14H11O6+
276.0583	79	C14H12O6+
280.0345	10	C16H8O5+
281.0446	8	C16H9O5+
282.0506	13	C16H10O5+
283.022	7	C15H7O6+
283.0596	35	C16H11O5+
284.0675	36	C16H12O5+
285.0754	725	C16H13O5+
286.0416	8	C15H10O6+
286.0781	116	C16H14O5+
287.0542	94	C15H11O6+
287.0894	58	C16H15O5+
288.0589	21	C15H12O6+
289.0352	14	C14H9O7+
289.0689	12	C15H13O6+
295.0591	24	C17H11O5+
297.0384	8	C16H9O6+
298.0467	26	C16H10O6+
299.0498	5	C16H11O6+
301.0704	25	C16H13O6+
302.0761	10	C16H14O6+
303.0484	10	C15H11O7+
303.0859	184	C16H15O6+
311.0507	5	C17H11O6+
313.07	842	C17H13O6+
314.0736	151	C17H14O6+
315.0493	5	C16H11O7+
316.0558	8	C16H12O7+
329.0631	8	C17H13O7+
331.0805	849	C17H15O7+
