Mass spectrum: Butylparaben; LC-ESI-QTOF; MS2; CE: Ramp 19.7-29.6 eV; R=35000; [M-H]-
Name: Butylparaben
Name: butyl 4-hydroxybenzoate
Formula: C11H14O3
Exact mass: 194.0942943
SMILES: CCCCOC(=O)C1=CC=C(O)C=C1
InChI: InChI=1S/C11H14O3/c1-2-3-8-14-11(13)9-4-6-10(12)7-5-9/h4-7,12H,2-3,8H2,1H3
Instrument: Bruker maXis Impact
Instrument type: LC-ESI-QTOF
Ms type: MS2
Ion mode: NEGATIVE
Ionization: ESI
Fragmentation mode: CID
Collision energy: Ramp 19.7-29.6 eV
Resolution: 35000
Column name: Acclaim RSLC C18 2.2um, 2.1x100mm, Thermo
Retention time: 9.406 min
Base peak: 59.0131
Precursor m/z: 193.087
Precursor type: [M-H]-
m/z	relative intensity	assigned
70.0053	32	C3H2O2-
71.0491	165	C4H7O-
82.0041	59	C4H2O2-
91.0179	94	C6H3O-
92.0251	388	C6H4O-
93.0328	999	C6H5O-
94.0353	34	C5[13]CH5O-
95.0115	362	C5H3O2-
108.0203	234	C6H4O2-
121.0287	55	C7H5O2-
123.0083	81	C6H3O3-
136.017	681	C7H4O3-
137.0242	563	C7H5O3-
138.0269	33	C6[13]CH5O3-
193.0868	583	C11H13O3-
194.0903	86	C10[13]CH13O3-
