Mass spectrum: Danofloxacin; LC-ESI-QTOF; MS2; CE: 50 eV; R=35000; [M+H]+
Name: Danofloxacin
Name: 1-cyclopropyl-6-fluoro-7-[(1s,4s)-5-methyl-2,5-diazabicyclo[2.2.1]heptan-2-yl]-4-oxoquinoline-3-carboxylic acid
Formula: C19H20FN3O3
Exact mass: 357.1488697
SMILES: CN1C[C@@H]2C[C@H]1CN2C3=C(C=C4C(=C3)N(C=C(C4=O)C(=O)O)C5CC5)F
InChI: InChI=1S/C19H20FN3O3/c1-21-7-12-4-11(21)8-22(12)17-6-16-13(5-15(17)20)18(24)14(19(25)26)9-23(16)10-2-3-10/h5-6,9-12H,2-4,7-8H2,1H3,(H,25,26)/t11-,12-/m0/s1
Instrument: Bruker maXis Impact
Instrument type: LC-ESI-QTOF
Ms type: MS2
Ion mode: POSITIVE
Ionization: ESI
Fragmentation mode: CID
Collision energy: 50 eV
Resolution: 35000
Column name: Acclaim RSLC C18 2.2um, 2.1x100mm, Thermo
Retention time: 4.7 min
Base peak: 311.0805
Precursor m/z: 358.1561
Precursor type: [M+H]+
m/z	relative intensity	assigned
187.0665	42	C11H8FN2+
189.0455	49	C10H6FN2O+
202.0659	59	C12H9FNO+
203.0613	95	C11H8FN2O+
204.0716	51	C11H9FN2O+
205.0774	44	C11H10FN2O+
215.024	120	C14H3N2O+
215.0618	39	C12H8FN2O+
217.0406	153	C11H6FN2O2+
217.0793	40	C12H10FN2O+
218.0476	104	C14H6N2O+
229.0757	59	C16H9N2+
231.0918	38	C16H11N2+
240.1041	41	C12H15FNO3+
243.0567	110	C13H8FN2O2+
245.1082	113	C14H14FN2O+
254.0502	57	C14H7FN2O2+
255.0565	999	C14H8FN2O2+
256.0623	224	C13[13]CH8FN2O2+
258.0692	46	C15H11FO3+
271.0732	44	C17H9N3O+
273.066	55	C17H9N2O2+
274.0741	38	C17H10N2O2+
286.0986	263	C15H13FN3O2+
340.1484	142	C19H19FN3O2+
358.1565	336	C19H21FN3O3+
359.1598	83	C17H21N5O4+
