Mass spectrum: Acetophenone; GC-APCI-QTOF; MS2; CE: 10 eV; R=35000; [M+H]+
Name: Acetophenone
Formula: C8H8O
Exact mass: 120.0575
SMILES: CC(=O)C1=CC=CC=C1
InChI: InChI=1S/C8H8O/c1-7(9)8-5-3-2-4-6-8/h2-6H,1H3
Instrument: Bruker 450 GC coupled to maXis Impact
Instrument type: GC-APCI-QTOF
Ms type: MS2
Ion mode: POSITIVE
Ionization: APCI
Fragmentation mode: CID
Collision energy: 10 eV
Resolution: 35000
Column name: Rxi-5Sil MS column, 30m, 0.25mm i.d., 0.25Âµm film thickness, Restek
Retention time: 8.182 min
Base peak: 121.0644
Precursor m/z: 121.0648
Precursor type: [M+H]+
m/z	relative intensity	assigned
121.0645	999	C8H9O+
