Mass spectrum: Sulfadimethoxine; LC-ESI-QTOF; MS2; CE: 20 eV; R=35000; [M-H]-
Name: Sulfadimethoxine
Name: 4-amino-N-(2,6-dimethoxypyrimidin-4-yl)benzenesulfonamide
Formula: C12H14N4O4S
Exact mass: 310.0735759
SMILES: COC1=CC(NS(=O)(=O)C2=CC=C(N)C=C2)=NC(OC)=N1
InChI: InChI=1S/C12H14N4O4S/c1-19-11-7-10(14-12(15-11)20-2)16-21(17,18)9-5-3-8(13)4-6-9/h3-7H,13H2,1-2H3,(H,14,15,16)
Instrument: Bruker maXis Impact
Instrument type: LC-ESI-QTOF
Ms type: MS2
Ion mode: NEGATIVE
Ionization: ESI
Fragmentation mode: CID
Collision energy: 20 eV
Resolution: 35000
Column name: Acclaim RSLC C18 2.2um, 2.1x100mm, Thermo
Retention time: 4.784 min
Base peak: 309.0649
Precursor m/z: 309.0663
Precursor type: [M-H]-
m/z	relative intensity	assigned
154.0636	44	C8H10O3-
195.0219	62	C8H7N2O2S-
230.0783	78	C12H12N3S-
309.0639	999	C12H13N4O4S-
311.0629	59	C12H13N4O4[34]S-
