Mass spectrum: Cortisone; LC-ESI-QTOF; MS2; CE: Ramp 22.8-34.2 eV; R=35000; [M+H]+
Name: Cortisone
Name: (8S,9S,10R,13S,14S,17R)-17-hydroxy-17-(2-hydroxyacetyl)-10,13-dimethyl-1,2,6,7,8,9,12,14,15,16-decahydrocyclopenta[a]phenanthrene-3,11-dione
Formula: C21H28O5
Exact mass: 360.1936740
SMILES: C[C@]12CC(=O)[C@H]3[C@@H](CCC4=CC(=O)CC[C@]34C)[C@@H]1CC[C@]2(O)C(=O)CO
InChI: InChI=1S/C21H28O5/c1-19-7-5-13(23)9-12(19)3-4-14-15-6-8-21(26,17(25)11-22)20(15,2)10-16(24)18(14)19/h9,14-15,18,22,26H,3-8,10-11H2,1-2H3/t14-,15-,18+,19-,20-,21-/m0/s1
Instrument: Bruker maXis Impact
Instrument type: LC-ESI-QTOF
Ms type: MS2
Ion mode: POSITIVE
Ionization: ESI
Fragmentation mode: CID
Collision energy: Ramp 22.8-34.2 eV
Resolution: 35000
Column name: Acclaim RSLC C18 2.2um, 2.1x100mm, Thermo
Retention time: 7.339 min
Base peak: 361.2007
Precursor m/z: 361.201
Precursor type: [M+H]+
m/z	relative intensity	assigned
55.0539	6	C4H7+
79.0534	5	C6H7+
81.0696	8	C6H9+
93.0693	8	C7H9+
105.0691	7	C8H9+
107.0857	6	C8H11+
117.0698	5	C9H9+
119.0842	24	C9H11+
121.0643	108	C8H9O+
121.0995	19	C9H13+
122.0662	15	C7[13]CH9O+
123.0798	25	C8H11O+
129.0692	6	C10H9+
131.0844	19	C10H11+
133.0645	9	C9H9O+
133.1001	26	C10H13+
135.0789	67	C9H11O+
135.1155	34	C10H15+
136.0846	5	C8[13]CH11O+
137.0597	5	C8H9O2+
137.0939	9	C9H13O+
139.0756	33	C8H11O2+
143.0851	34	C11H11+
144.0891	7	C10[13]CH11+
145.0643	7	C10H9O+
145.1002	90	C11H13+
146.1041	12	C10[13]CH13+
147.079	56	C10H11O+
147.1159	13	C11H15+
148.085	13	C10H12O+
149.0951	25	C10H13O+
151.0734	10	C9H11O2+
153.09	10	C9H13O2+
155.0838	18	C12H11+
157.1003	28	C12H13+
159.0791	26	C11H11O+
159.1173	16	C12H15+
161.0582	6	C10H9O2+
161.0951	40	C11H13O+
162.1001	5	C10[13]CH13O+
163.1107	999	C11H15O+
164.1143	94	C10[13]CH15O+
165.0893	11	C10H13O2+
165.1186	8	C9[13]C2H15O+
169.0997	17	C13H13+
171.0798	24	C12H11O+
171.1156	25	C13H15+
173.0947	31	C12H13O+
173.1313	5	C13H17+
174.0999	6	C11[13]CH13O+
175.1101	27	C12H15O+
177.089	10	C11H13O2+
179.1066	8	C11H15O2+
181.0853	7	C10H13O3+
181.0981	14	C14H13+
182.1045	6	C14H14+
183.116	27	C14H15+
184.1198	6	C13[13]CH15+
185.0944	22	C13H13O+
185.1314	17	C14H17+
187.1102	26	C13H15O+
189.0891	26	C12H13O2+
189.126	26	C13H17O+
190.0947	5	C12H14O2+
190.1315	5	C13H18O+
191.1064	15	C12H15O2+
193.1007	10	C15H13+
193.1219	5	C12H17O2+
195.1159	20	C15H15+
197.0941	12	C14H13O+
197.1311	17	C15H17+
199.1115	27	C14H15O+
199.1466	9	C15H19+
201.0895	10	C13H13O2+
201.1282	16	C14H17O+
202.1323	8	C14H18O+
203.106	9	C13H15O2+
203.1406	10	C14H19O+
205.1026	5	C16H13+
206.1084	5	C16H14+
207.0986	5	C12H15O3+
207.116	15	C16H15+
209.1131	5	C12H17O3+
209.1302	18	C16H17+
211.1097	15	C15H15O+
211.147	11	C16H19+
213.1266	25	C15H17O+
213.163	5	C16H21+
215.1048	5	C14H15O2+
215.1411	11	C15H19O+
217.1206	13	C14H17O2+
219.1154	5	C17H15+
221.1327	14	C17H17+
222.1352	6	C17H18+
223.1106	17	C16H15O+
223.1483	20	C17H19+
224.153	8	C17H20+
225.1266	29	C16H17O+
225.1619	16	C17H21+
226.1329	11	C16H18O+
226.1673	8	C17H22+
227.106	5	C15H15O2+
227.1417	16	C16H19O+
229.1212	11	C15H17O2+
229.1604	5	C16H21O+
233.1303	5	C18H17+
235.147	13	C18H19+
237.1297	14	C17H17O+
237.1657	13	C18H21+
238.1672	6	C18H22+
239.1416	49	C17H19O+
239.1779	8	C18H23+
240.1461	10	C16[13]CH19O+
241.1216	23	C16H17O2+
241.1575	51	C17H21O+
242.1632	22	C17H22O+
243.1354	12	C16H19O2+
243.174	22	C17H23O+
244.1453	5	C16H20O2+
244.1771	10	C17H24O+
247.1491	13	C19H19+
249.1273	9	C18H17O+
249.1612	13	C19H21+
251.1401	10	C18H19O+
252.1456	6	C18H20O+
253.1588	18	C18H21O+
255.1392	14	C17H19O2+
255.1731	37	C18H23O+
256.1806	16	C18H24O+
257.1533	29	C17H21O2+
257.1871	10	C18H25O+
258.1609	36	C17H22O2+
261.1502	9	C16H21O3+
263.1435	7	C19H19O+
265.1579	64	C19H21O+
266.1671	12	C18[13]CH21O+
267.1375	14	C18H19O2+
267.1733	59	C19H23O+
268.1504	5	C18H20O2+
268.1785	12	C18[13]CH23O+
269.1513	18	C18H21O2+
269.1917	6	C19H25O+
271.1692	11	C18H23O2+
273.1482	6	C17H21O3+
277.1589	10	C20H21O+
279.1748	23	C20H23O+
280.1751	6	C19[13]CH23O+
281.1538	14	C19H21O2+
283.1684	59	C19H23O2+
284.1756	53	C19H24O2+
285.1482	13	C18H21O3+
285.184	51	C19H25O2+
286.1859	8	C18[13]CH25O2+
289.1626	8	C21H21O+
295.1676	22	C20H23O2+
296.1749	6	C19[13]CH23O2+
297.1853	31	C20H25O2+
299.1632	60	C19H23O3+
300.1706	27	C19H24O3+
301.1799	87	C19H25O3+
302.1827	26	C18[13]CH25O3+
303.1608	7	C18H23O4+
303.1901	5	C19H27O3+
307.1711	30	C21H23O2+
308.1706	7	C20[13]CH23O2+
313.1795	43	C20H25O3+
314.1818	13	C19[13]CH25O3+
315.1965	12	C20H27O3+
317.1769	13	C19H25O4+
325.179	50	C21H25O3+
326.1826	11	C20[13]CH25O3+
343.19	89	C21H27O4+
344.193	22	C20[13]CH27O4+
361.2011	972	C21H29O5+
362.2037	215	C20[13]CH29O5+
363.2064	31	C19[13]C2H29O5+
