Mass spectrum: Pirimicarb; LC-ESI-QTOF; MS2; CE: Ramp 19.4-29.1 eV; R=35000; [M+H]+
Name: Pirimicarb
Name: [2-(dimethylamino)-5,6-dimethylpyrimidin-4-yl] N,N-dimethylcarbamate
Formula: C11H18N4O2
Exact mass: 238.1429758
SMILES: CN(C)C(=O)OC1=C(C)C(C)=NC(=N1)N(C)C
InChI: InChI=1S/C11H18N4O2/c1-7-8(2)12-10(14(3)4)13-9(7)17-11(16)15(5)6/h1-6H3
Instrument: Bruker maXis Impact
Instrument type: LC-ESI-QTOF
Ms type: MS2
Ion mode: POSITIVE
Ionization: ESI
Fragmentation mode: CID
Collision energy: Ramp 19.4-29.1 eV
Resolution: 35000
Column name: Acclaim RSLC C18 2.2um, 2.1x100mm, Thermo
Retention time: 7.733 min
Base peak: 239.1506
Precursor m/z: 239.1503
Precursor type: [M+H]+
m/z	relative intensity	assigned
56.0126	6	C2H2NO+
72.0446	999	C3H6NO+
83.0237	6	C3H3N2O+
85.0758	64	C4H9N2+
109.0769	9	C6H9N2+
137.0701	41	C7H9N2O+
138.0772	13	C7H10N2O+
150.1019	27	C8H12N3+
152.0808	7	C7H10N3O+
166.0966	6	C8H12N3O+
167.1041	15	C8H13N3O+
182.1279	588	C9H16N3O+
183.1312	60	C8[13]CH16N3O+
195.1598	30	C10H19N4+
239.15	161	C11H19N4O2+
240.1529	23	C10[13]CH19N4O2+
