Mass spectrum: 6-Chloroperfluorohexylphosphonic acid (Cl-PFHxPA); LC-ESI-QTOF; MS2 CE: 10 eV; R=35000; [M-H]-
Name: 6-Chloroperfluorohexylphosphonic acid (Cl-PFHxPA)
Name: (6-Chlorododecafluorohexyl)phosphonic acid
Name: (6-chloro-1,1,2,2,3,3,4,4,5,5,6,6-dodecafluorohexyl)phosphonic acid
Formula: C6H2ClF12O3P
Exact mass: 415.9238
SMILES: OP(O)(=O)C(F)(F)C(F)(F)C(F)(F)C(F)(F)C(F)(F)C(F)(F)Cl
InChI: InChI=1S/C6H2ClF12O3P/c7-5(16,17)3(12,13)1(8,9)2(10,11)4(14,15)6(18,19)23(20,21)22/h(H2,20,21,22)
Instrument: Bruker maXis Impact
Instrument type: LC-ESI-QTOF
Ms type: MS2
Ionization: ESI
Fragmentation mode: CID
Collision energy: 10 eV
Resolution: 35000
Column name: Acclaim RSLC C18 2.2um, 2.1x100mm, Thermo
Retention time: 7.013 min
Base peak: 414.9147
Precursor m/z: 414.9166
Precursor type: [M-H]-
m/z	relative intensity	assigned
414.9157	999	C6HClF12O3P-
