Mass spectrum: Prochloraz BTS44596; LC-ESI-QTOF; MS2; CE: 20 eV; R=35000; [M+H]+
Name: Prochloraz BTS44596
Name: N-[propyl-[2-(2,4,6-trichlorophenoxy)ethyl]carbamoyl]formamide
Formula: C13H15Cl3N2O3
Exact mass: 352.0148254
SMILES: CCCN(CCOC1=C(Cl)C=C(Cl)C=C1Cl)C(=O)NC=O
InChI: InChI=1S/C13H15Cl3N2O3/c1-2-3-18(13(20)17-8-19)4-5-21-12-10(15)6-9(14)7-11(12)16/h6-8H,2-5H2,1H3,(H,17,19,20)
Instrument: Bruker maXis Impact
Instrument type: LC-ESI-QTOF
Ms type: MS2
Ion mode: POSITIVE
Ionization: ESI
Fragmentation mode: CID
Collision energy: 20 eV
Resolution: 35000
Column name: Acclaim RSLC C18 2.2um, 2.1x100mm, Thermo
Retention time: 11.112 min
Base peak: 353.0214
Precursor m/z: 353.0221
Precursor type: [M+H]+
m/z	relative intensity	assigned
157.0962	8	C7H13N2O2+
174.9695	8	C8ClN2O+
194.9164	7	CH2Cl3N2O3+
196.912	5	CH2Cl2[37]ClN2O3+
201.9806	14	C8H6Cl2NO+
203.9791	8	C8H6Cl[37]ClNO+
222.9471	26	C9HCl2N2O+
224.9441	22	C9HCl[37]ClN2O+
237.9572	9	C11H4Cl2O2+
239.9559	7	C11H4Cl[37]ClO2+
239.9738	46	C11H6Cl2O2+
240.9776	6	C10[13]CH6Cl2O2+
241.9707	43	C11H6Cl[37]ClO2+
244.0272	27	C11H12Cl2NO+
245.0345	11	C11H13Cl2NO+
246.0251	12	C11H12Cl[37]ClNO+
247.0312	5	C11H13Cl[37]ClNO+
265.953	255	C12H4Cl2O3+
266.9553	26	C11[13]CH4Cl2O3+
267.9498	211	C12H4Cl[37]ClO3+
268.9538	13	C9H8Cl3O3+
269.9472	5	C8H7Cl3NO3+
280.004	52	C11H13Cl3NO+
281.0071	8	C10[13]CH13Cl3NO+
282.0022	45	C11H13Cl2[37]ClNO+
283.0073	5	C11H14Cl3O2+
283.9648	16	C9H9Cl3NO3+
284.0171	5	C11H15Cl3O2+
285.9605	15	C9H9Cl2[37]ClNO3+
308.0003	999	C12H13Cl3NO2+
309.0031	133	C11[13]CH13Cl3NO2+
309.9973	819	C12H13Cl2[37]ClNO2+
310.9998	63	C12H14Cl3O3+
311.994	16	C11H13Cl3NO3+
353.0206	17	C13H16Cl3N2O3+
355.0188	19	C13H16Cl2[37]ClN2O3+
