Mass spectrum: Novobiocin; LC-ESI-QTOF; MS2; CE: Ramp 28.0-41.9 eV; R=35000; [M+H]+
Name: Novobiocin
Name: [(3R,4S,5R,6R)-5-hydroxy-6-[4-hydroxy-3-[[4-hydroxy-3-(3-methylbut-2-enyl)benzoyl]amino]-8-methyl-2-oxochromen-7-yl]oxy-3-methoxy-2,2-dimethyloxan-4-yl] carbamate
Formula: C31H36N2O11
Exact mass: 612.2319
SMILES: Cc1c(ccc2c1oc(=O)c(c2O)NC(=O)c3ccc(c(c3)CC=C(C)C)O)O[C@H]4[C@@H]([C@@H]([C@H](C(O4)(C)C)OC)OC(=O)N)O
InChI: InChI=1S/C31H36N2O11/c1-14(2)7-8-16-13-17(9-11-19(16)34)27(37)33-21-22(35)18-10-12-20(15(3)24(18)42-28(21)38)41-29-23(36)25(43-30(32)39)26(40-6)31(4,5)44-29/h7,9-13,23,25-26,29,34-36H,8H2,1-6H3,(H2,32,39)(H,33,37)/t23-,25+,26-,29-/m1/s1
Instrument: Bruker maXis Impact
Instrument type: LC-ESI-QTOF
Ms type: MS2
Ion mode: POSITIVE
Ionization: ESI
Fragmentation mode: CID
Collision energy: Ramp 28.0-41.9 eV
Resolution: 35000
Column name: Acclaim RSLC C18 2.2um, 2.1x100mm, Thermo
Retention time: 11.2 min
Base peak: 60.0551
Precursor m/z: 613.2392
Precursor type: [M+H]+
m/z	relative intensity	assigned
59.0485	9	C3H7O+
73.0648	10	C4H9O+
85.0289	10	C4H5O2+
125.059	60	C7H9O2+
126.0617	5	C2H10N2O4+
133.0292	45	C8H5O2+
133.0845	8	C6H13O3+
134.0322	7	C3H6N2O4+
143.0691	36	C7H11O3+
151.0387	9	C8H7O3+
157.0853	50	C8H13O3+
186.0761	43	C8H12NO4+
189.0914	999	C12H13O2+
190.0942	94	C7H14N2O4+
191.0958	9	C11H13NO2+
218.0823	7	C12H12NO3+
218.1034	32	C9H16NO5+
219.1055	7	C16H13N+
378.1327	5	C22H20NO5+
396.1435	29	C22H22NO6+
397.1532	5	C22H23NO6+
