Mass spectrum: Olanzapine; LC-ESI-QTOF; MS2; CE: 40 eV; R=35000; [M+H]+
Name: Olanzapine
Formula: C17H20N4S
Exact mass: 312.1408676
SMILES: Cc1cc2c(s1)Nc3ccccc3N=C2N4CCN(CC4)C
InChI: InChI=1S/C17H20N4S/c1-12-11-13-16(21-9-7-20(2)8-10-21)18-14-5-3-4-6-15(14)19-17(13)22-12/h3-6,11,19H,7-10H2,1-2H3
Instrument: Bruker maXis Impact
Instrument type: LC-ESI-QTOF
Ms type: MS2
Ion mode: POSITIVE
Ionization: ESI
Fragmentation mode: CID
Collision energy: 40 eV
Resolution: 35000
Column name: Acclaim RSLC C18 2.2um, 2.1x100mm, Thermo
Retention time: 6.634 min
Base peak: 313.1504
Precursor m/z: 313.1481
Precursor type: [M+H]+
m/z	relative intensity	assigned
133.0762	9	C8H9N2+
142.065	11	C10H8N+
154.0664	7	C11H8N+
155.0606	16	C10H7N2+
168.0688	11	C11H8N2+
169.0768	208	C11H9N2+
170.0804	31	C10[13]CH9N2+
173.0174	20	C9H5N2S+
173.0289	13	C10H7NS+
179.0621	42	C9H11N2S+
180.069	201	C12H8N2+
181.0734	25	C11[13]CH8N2+
186.0383	102	C11H8NS+
187.0428	20	C14H5N+
195.0803	30	C12H9N3+
196.0882	21	C12H10N3+
198.0258	524	C11H6N2S+
199.029	55	C10[13]CH6N2S+
200.0211	25	C11H6N2[34]S+
200.0527	14	C12H10NS+
201.0493	10	C11H9N2S+
208.0873	14	C13H10N3+
209.0954	7	C13H11N3+
211.0334	16	C12H7N2S+
212.0418	109	C12H8N2S+
213.0495	515	C12H9N2S+
214.0541	104	C11[13]CH9N2S+
215.0466	21	C12H9N2[34]S+
215.0633	30	C12H11N2S+
220.0881	7	C14H10N3+
221.0948	7	C14H11N3+
222.1042	93	C14H12N3+
223.1125	71	C11H17N3S+
224.1184	37	C14H14N3+
225.0509	11	C13H9N2S+
226.0424	8	C12H8N3S+
226.0563	15	C13H10N2S+
227.065	52	C13H11N2S+
228.0604	28	C12H10N3S+
229.0691	13	C12H11N3S+
230.0757	11	C12H12N3S+
239.0642	33	C14H11N2S+
240.0626	29	C13H10N3S+
241.0679	45	C13H11N3S+
242.0751	28	C13H12N3S+
248.1207	12	C13H18N3S+
250.1368	11	C13H20N3S+
253.0702	7	C14H11N3S+
254.0759	17	C14H12N3S+
255.0818	17	C14H13N3S+
256.0924	999	C14H14N3S+
257.0944	182	C13[13]CH14N3S+
258.0879	45	C14H14N3[34]S+
270.1082	8	C15H16N3S+
282.1082	194	C16H16N3S+
283.1115	38	C15[13]CH16N3S+
284.1052	10	C15H16N4S+
313.1525	14	C17H21N4S+
