Mass spectrum: Coumaphos; LC-ESI-QTOF; MS2; CE: 20 eV; R=35000; [M+H]+
Name: Coumaphos
Name: 3-chloro-7-diethoxyphosphinothioyloxy-4-methylchromen-2-one
Formula: C14H16ClO5PS
Exact mass: 362.0144589
SMILES: CCOP(=S)(OCC)Oc1ccc2c(c(c(=O)oc2c1)Cl)C
InChI: InChI=1S/C14H16ClO5PS/c1-4-17-21(22,18-5-2)20-10-6-7-11-9(3)13(15)14(16)19-12(11)8-10/h6-8H,4-5H2,1-3H3
Instrument: Bruker maXis Impact
Instrument type: LC-ESI-QTOF
Ms type: MS2
Ion mode: POSITIVE
Ionization: ESI
Fragmentation mode: CID
Collision energy: 20 eV
Resolution: 35000
Column name: Acclaim RSLC C18 2.2um, 2.1x100mm, Thermo
Retention time: 11.0 min
Base peak: 363.0124
Precursor m/z: 363.0217
Precursor type: [M+H]+
m/z	relative intensity	assigned
211.0084	76	C10H9ClOP+
226.9867	642	C6H9ClO5P+
227.9892	45	C9[13]CH9ClPS+
228.9826	169	C10H9[37]ClPS+
288.9415	134	C13H3ClO4P+
290.9374	37	C13H5ClO2PS+
306.9508	931	C13H4ClO5S+
307.9535	65	C12[13]CH4ClO5S+
308.9487	202	C13H5[37]ClO5P+
334.992	593	C12H13ClO5PS+
335.9952	52	C11[13]CH13ClO5PS+
336.9899	134	C12H13[37]ClO5PS+
363.0226	999	C14H17ClO5PS+
364.0257	84	C13[13]CH17ClO5PS+
365.0188	214	C14H17[37]ClO5PS+
366.0129	21	C13H16ClO6PS+
