Mass spectrum: Tramadol N-Oxide; LC-ESI-QTOF; MS2; CE: 30 eV; R=35000; [M+H]+
Name: Tramadol N-Oxide
Name: 1-[2-hydroxy-2-(3-methoxyphenyl)cyclohexyl]-N,N-dimethylmethanamine oxide
Formula: C16H25NO3
Exact mass: 279.1834437
SMILES: COC1=CC=CC(=C1)C1(O)CCCCC1C[N+](C)(C)[O-]
InChI: InChI=1S/C16H25NO3/c1-17(2,19)12-14-7-4-5-10-16(14,18)13-8-6-9-15(11-13)20-3/h6,8-9,11,14,18H,4-5,7,10,12H2,1-3H3
Instrument: Bruker maXis Impact
Instrument type: LC-ESI-QTOF
Ms type: MS2
Ion mode: POSITIVE
Ionization: ESI
Fragmentation mode: CID
Collision energy: 30 eV
Resolution: 35000
Column name: Acclaim RSLC C18 2.2um, 2.1x100mm, Thermo
Retention time: 5.1 min
Base peak: 280.1906
Precursor m/z: 280.1907
Precursor type: [M+H]+
m/z	relative intensity	assigned
121.0641	154	C8H9O+
122.0677	16	C7[13]CH9O+
129.0689	5	C10H9+
131.0486	5	C9H7O+
133.0634	4	C9H9O+
135.0432	999	C8H7O2+
136.0466	81	C3H8N2O4+
137.0486	5	C6[13]C2H7O2+
137.0586	9	C8H9O2+
146.0707	9	C10H10O+
147.0795	58	C10H11O+
148.0819	6	C5H12N2O3+
149.0222	8	C8H5O3+
151.0741	5	C9H11O2+
158.0713	19	C11H10O+
159.0793	213	C11H11O+
161.0938	13	C11H13O+
163.0741	6	C10H11O2+
172.0867	8	C12H12O+
173.0949	53	C12H13O+
174.0989	9	C7H14N2O3+
175.1113	5	C12H15O+
186.1027	7	C13H14O+
189.126	9	C13H17O+
191.1054	19	C12H15O2+
199.11	5	C14H15O+
201.1268	227	C14H17O+
202.1297	39	C13[13]CH17O+
219.1365	7	C14H19O2+
262.1797	168	C16H24NO2+
263.1827	28	C15[13]CH24NO2+
280.1909	15	C16H26NO3+
