Mass spectrum: Methyl salicylate; GC-APCI-QTOF; MS2; CE: 20 eV; R=35000; [M+H]+
Name: Methyl salicylate
Formula: C8H8O3
Exact mass: 152.0473
SMILES: COC(=O)C1=CC=CC=C1O
InChI: InChI=1S/C8H8O3/c1-11-8(10)6-4-2-3-5-7(6)9/h2-5,9H,1H3
Instrument: Bruker 450 GC coupled to maXis Impact
Instrument type: GC-APCI-QTOF
Ms type: MS2
Ion mode: POSITIVE
Ionization: APCI
Fragmentation mode: CID
Collision energy: 20 eV
Resolution: 35000
Column name: Rxi-5Sil MS column, 30m, 0.25mm i.d., 0.25Âµm film thickness, Restek
Retention time: 9.588 min
Base peak: 153.0562
Precursor m/z: 153.0546
Precursor type: [M+H]+
m/z	relative intensity	assigned
64.0311	7	C5H4+
65.0389	61	C5H5+
92.0246	999	C6H4O+
95.0485	7	C6H7O+
111.0432	13	C6H7O2+
120.0196	142	C7H4O2+
121.027	889	C7H5O2+
138.0315	177	C7H6O3+
