Mass spectrum: Tributylamine; LC-ESI-QTOF; MS2; CE: Ramp 17.5-26.3 eV; R=35000; [M+H]+
Name: Tributylamine
Name: N,N-dibutylbutan-1-amine
Formula: C12H27N
Exact mass: 185.21434986
SMILES: CCCCN(CCCC)CCCC
InChI: InChI=1S/C12H27N/c1-4-7-10-13(11-8-5-2)12-9-6-3/h4-12H2,1-3H3
Instrument: Bruker maXis Impact
Instrument type: LC-ESI-QTOF
Ms type: MS2
Ion mode: POSITIVE
Ionization: ESI
Fragmentation mode: CID
Collision energy: Ramp 17.5-26.3 eV
Resolution: 35000
Column name: Acclaim RSLC C18 2.2um, 2.1x100mm, Thermo
Retention time: 5.079 min
Base peak: 186.221
Precursor m/z: 186.2216
Precursor type: [M+H]+
m/z	relative intensity	assigned
57.0693	35	C4H9+
74.0959	14	C4H12N+
128.1417	18	C8H18N+
130.1581	193	C8H20N+
131.1609	16	C7[13]CH20N+
186.221	999	C12H28N+
187.2245	101	C11[13]CH28N+
188.2292	8	C10[13]C2H28N+
