Mass spectrum: Propylthiouracil; LC-ESI-QTOF; MS2; CE: Ramp 18.8-28.1 eV; R=35000; [M-H]-
Name: Propylthiouracil
Name: CID 4950
Name: 6-propyl-2-sulfanyl-1H-pyrimidin-4-one
Formula: C7H10N2OS
Exact mass: 170.0513839
SMILES: CCCC1=CC(=O)NC(=S)N1
InChI: InChI=1S/C7H10N2OS/c1-2-3-5-4-6(10)9-7(11)8-5/h4H,2-3H2,1H3,(H2,8,9,10,11)
Instrument: Bruker maXis Impact
Instrument type: LC-ESI-QTOF
Ms type: MS2
Ion mode: NEGATIVE
Ionization: ESI
Fragmentation mode: CID
Collision energy: Ramp 18.8-28.1 eV
Resolution: 35000
Column name: Acclaim RSLC C18 2.2um, 2.1x100mm, Thermo
Retention time: 4.440 min
Base peak: 59.0131
Precursor m/z: 169.0441
Precursor type: [M-H]-
m/z	relative intensity	assigned
57.9746	999	CNS-
59.9706	49	CN[34]S-
