Mass spectrum: Cotinine; LC-ESI-QTOF; MS2; CE: 50 eV; R=35000; [M+H]+
Name: Cotinine
Name: (5S)-1-methyl-5-pyridin-3-ylpyrrolidin-2-one
Formula: C10H12N2O
Exact mass: 176.0949630
SMILES: CN1[C@@H](CCC1=O)c2cccnc2
InChI: InChI=1S/C10H12N2O/c1-12-9(4-5-10(12)13)8-3-2-6-11-7-8/h2-3,6-7,9H,4-5H2,1H3/t9-/m0/s1
Instrument: Bruker maXis Impact
Instrument type: LC-ESI-QTOF
Ms type: MS2
Ion mode: POSITIVE
Ionization: ESI
Fragmentation mode: CID
Collision energy: 50 eV
Resolution: 35000
Column name: Acclaim RSLC C18 2.2um, 2.1x100mm, Thermo
Retention time: 3.608 min
Base peak: 177.1016
Precursor m/z: 177.1022
Precursor type: [M+H]+
m/z	relative intensity	assigned
117.0566	999	C8H7N+
118.0639	959	C8H8N+
120.0798	220	C8H10N+
130.0635	148	C9H8N+
143.0579	135	C9H7N2+
146.0593	193	C9H8NO+
