Mass spectrum: Oleamide; GC-APCI-QTOF; MS2; CE: 40 eV; R=35000; [M]+
Name: Oleamide
Formula: C18H35NO
Exact mass: 281.2719
SMILES: CCCCCCCCC=CCCCCCCCC(=O)N
InChI: InChI=1S/C18H35NO/c1-2-3-4-5-6-7-8-9-10-11-12-13-14-15-16-17-18(19)20/h9-10H,2-8,11-17H2,1H3,(H2,19,20)
Instrument: Bruker 450 GC coupled to maXis Impact
Instrument type: GC-APCI-QTOF
Ms type: MS2
Ion mode: POSITIVE
Ionization: APCI
Fragmentation mode: CID
Collision energy: 40 eV
Resolution: 35000
Column name: Rxi-5Sil MS column, 30m, 0.25mm i.d., 0.25Âµm film thickness, Restek
Retention time: 17.581 min
Base peak: 281.2459
Precursor m/z: 281.2713
Precursor type: [M]+
m/z	relative intensity	assigned
55.0172	102	C3H3O+
55.0553	999	C4H7+
57.0348	55	C3H5O+
67.0544	468	C5H7+
69.0701	573	C5H9+
71.05	87	C4H7O+
79.0538	185	C6H7+
81.0704	431	C6H9+
83.0854	94	C6H11+
85.0637	51	C5H9O+
91.0559	63	C7H7+
93.0696	71	C7H9+
95.0852	106	C7H11+
97.0647	53	C6H9O+
97.1002	49	C7H13+
105.0697	49	C8H9+
107.0852	90	C8H11+
109.0642	53	C7H9O+
109.1015	106	C8H13+
119.0857	225	C9H11+
121.1016	189	C9H13+
123.0813	108	C8H11O+
123.1154	77	C9H15+
125.0948	65	C8H13O+
131.0874	79	C10H11+
133.1021	360	C10H13+
135.1179	284	C10H15+
137.0974	65	C9H13O+
137.135	65	C10H17+
145.1048	83	C11H13+
147.1193	180	C11H15+
149.0265	587	C11H3N+
150.0309	81	C11H4N+
161.1354	81	C12H17+
