Mass spectrum: Oleamide; GC-APCI-QTOF; MS2; CE: 20 eV; R=35000; [M+H]+
Name: Oleamide
Formula: C18H35NO
Exact mass: 281.2719
SMILES: CCCCCCCCC=CCCCCCCCC(=O)N
InChI: InChI=1S/C18H35NO/c1-2-3-4-5-6-7-8-9-10-11-12-13-14-15-16-17-18(19)20/h9-10H,2-8,11-17H2,1H3,(H2,19,20)
Instrument: Bruker 450 GC coupled to maXis Impact
Instrument type: GC-APCI-QTOF
Ms type: MS2
Ion mode: POSITIVE
Ionization: APCI
Fragmentation mode: CID
Collision energy: 20 eV
Resolution: 35000
Column name: Rxi-5Sil MS column, 30m, 0.25mm i.d., 0.25Âµm film thickness, Restek
Retention time: 21.560 min
Base peak: 283.2618
Precursor m/z: 282.2791
Precursor type: [M+H]+
m/z	relative intensity	assigned
57.0696	121	C4H9+
69.0698	152	C5H9+
97.1012	186	C7H13+
111.0786	130	C7H11O+
119.0854	182	C9H11+
121.1008	434	C9H13+
123.0823	112	C8H11O+
123.1154	312	C9H15+
125.0971	282	C8H13O+
125.1295	138	C9H17+
133.1028	169	C10H13+
135.1184	790	C10H15+
137.0947	143	C9H13O+
137.1332	260	C10H17+
139.1128	403	C9H15O+
147.1182	299	C11H15+
149.1351	999	C11H17+
154.1335	143	C10H18O+
161.1363	469	C12H17+
163.1517	655	C12H19+
165.131	238	C11H17O+
167.1468	256	C11H19O+
175.1509	204	C13H19+
179.1457	147	C12H19O+
181.161	204	C12H21O+
189.165	117	C14H21+
191.1806	351	C14H23+
195.1754	138	C13H23O+
205.1949	160	C15H25+
219.2152	165	C16H27+
221.2288	112	C16H29+
223.2074	112	C15H27O+
245.2249	273	C18H29+
247.2435	356	C18H31+
263.239	186	C18H31O+
264.2406	112	C18H32O+
