Mass spectrum: Dihydrotestosterone; LC-ESI-QTOF; MS2; CE: 10 eV; R=35000; [M+H]+
Name: Dihydrotestosterone
Name: Androstanolone
Name: (5S,8R,9S,10S,13S,14S,17S)-17-hydroxy-10,13-dimethyl-1,2,4,5,6,7,8,9,11,12,14,15,16,17-tetradecahydrocyclopenta[a]phenanthren-3-one
Formula: C19H30O2
Exact mass: 290.2245802
SMILES: [H][C@@]12CC[C@H](O)[C@@]1(C)CC[C@@]1([H])[C@@]2([H])CC[C@@]2([H])CC(=O)CC[C@]12C
InChI: InChI=1S/C19H30O2/c1-18-9-7-13(20)11-12(18)3-4-14-15-5-6-17(21)19(15,2)10-8-16(14)18/h12,14-17,21H,3-11H2,1-2H3/t12-,14-,15-,16-,17-,18-,19-/m0/s1
Instrument: Bruker maXis Impact
Instrument type: LC-ESI-QTOF
Ms type: MS2
Ion mode: POSITIVE
Ionization: ESI
Fragmentation mode: CID
Collision energy: 10 eV
Resolution: 35000
Column name: Acclaim RSLC C18 2.2um, 2.1x100mm, Thermo
Retention time: 10.764 min
Base peak: 345.242
Precursor m/z: 291.2319
Precursor type: [M+H]+
m/z	relative intensity	assigned
159.117	23	C12H15+
203.1051	59	C13H15O2+
215.1794	15	C16H23+
255.211	156	C19H27+
256.2132	41	C18[13]CH27+
273.2207	87	C19H29O+
275.1104	25	C19H15O2+
289.2175	106	C19H29O2+
290.2193	21	C18[13]CH29O2+
291.2316	999	C19H31O2+
292.2342	259	C18[13]CH31O2+
293.2379	27	C17[13]C2H31O2+
