Mass spectrum: 3,4-Dichlorophenylurea; LC-ESI-QTOF; MS2; CE: 50 eV; R=35000; [M+H]+
Name: 3,4-Dichlorophenylurea
Name: 1-(3,4-Dichlorophenyl)urea
Name: (3,4-dichlorophenyl)urea
Formula: C7H6Cl2N2O
Exact mass: 203.9857182
SMILES: NC(=O)NC1=CC(Cl)=C(Cl)C=C1
InChI: InChI=1S/C7H6Cl2N2O/c8-5-2-1-4(3-6(5)9)11-7(10)12/h1-3H,(H3,10,11,12)
Instrument: Bruker maXis Impact
Instrument type: LC-ESI-QTOF
Ms type: MS2
Ion mode: POSITIVE
Ionization: ESI
Fragmentation mode: CID
Collision energy: 50 eV
Resolution: 35000
Column name: Acclaim RSLC C18 2.2um, 2.1x100mm, Thermo
Retention time: 7.935 min
Base peak: 204.9921
Precursor m/z: 204.993
Precursor type: [M+H]+
m/z	relative intensity	assigned
125.0026	47	C6H4ClN+
126.0088	49	C6H5ClN+
127.0174	999	C6H6ClN+
128.0201	73	C5[13]CH6ClN+
129.0138	342	C6H6[37]ClN+
132.9592	99	C5H3Cl2+
134.9563	61	C5H3Cl[37]Cl+
