Mass spectrum: Sitagliptin; LC-ESI-QTOF; MS2; CE: 30 eV; R=35000; [M+H]+
Name: Sitagliptin
Name: (3R)-3-amino-1-[3-(trifluoromethyl)-6,8-dihydro-5H-[1,2,4]triazolo[4,3-a]pyrazin-7-yl]-4-(2,4,5-trifluorophenyl)butan-1-one
Formula: C16H15F6N5O
Exact mass: 407.1180794
SMILES: c1c(c(cc(c1F)F)F)C[C@H](CC(=O)N2CCn3c(nnc3C(F)(F)F)C2)N
InChI: InChI=1S/C16H15F6N5O/c17-10-6-12(19)11(18)4-8(10)3-9(23)5-14(28)26-1-2-27-13(7-26)24-25-15(27)16(20,21)22/h4,6,9H,1-3,5,7,23H2/t9-/m1/s1
Instrument: Bruker maXis Impact
Instrument type: LC-ESI-QTOF
Ms type: MS2
Ion mode: POSITIVE
Ionization: ESI
Fragmentation mode: CID
Collision energy: 30 eV
Resolution: 35000
Column name: Acclaim RSLC C18 2.2um, 2.1x100mm, Thermo
Retention time: 5.380 min
Base peak: 408.1285
Precursor m/z: 408.1254
Precursor type: [M+H]+
m/z	relative intensity	assigned
127.0363	42	C4H6F3O+
134.0409	11	F3H5N4O+
138.0285	15	F4H4N3O+
154.0469	73	F4H6N4O+
171.0433	41	C6H7F4O+
174.0534	999	F5H7N4O+
193.0711	919	C8H10F3NO+
194.0739	68	C7[13]CH10F3NO+
199.0385	9	C10H6F3O+
219.0512	15	C12H7F2NO+
235.0815	718	C13H11F2NO+
236.0847	86	C12[13]CH11F2NO+
237.0609	8	C7H7F4N5+
254.0781	9	C8H10F4N4O+
391.1008	99	C16H13F6N4O+
392.1016	16	C16H14F6N4O+
408.127	27	C16H16F6N5O+
