Mass spectrum: Exemestane; LC-ESI-QTOF; MS2; CE: 30 eV; R=35000; [M+H]+
Name: Exemestane
Name: (8R,9S,10R,13S,14S)-10,13-dimethyl-6-methylidene-7,8,9,11,12,14,15,16-octahydrocyclopenta[a]phenanthrene-3,17-dione
Formula: C20H24O2
Exact mass: 296.1776300
SMILES: C[C@]12CC[C@H]3[C@H]([C@@H]1CCC2=O)CC(=C)C4=CC(=O)C=C[C@]34C
InChI: InChI=1S/C20H24O2/c1-12-10-14-15-4-5-18(22)20(15,3)9-7-16(14)19(2)8-6-13(21)11-17(12)19/h6,8,11,14-16H,1,4-5,7,9-10H2,2-3H3/t14-,15-,16-,19+,20-/m0/s1
Instrument: Bruker maXis Impact
Instrument type: LC-ESI-QTOF
Ms type: MS2
Ion mode: POSITIVE
Ionization: ESI
Fragmentation mode: CID
Collision energy: 30 eV
Resolution: 35000
Column name: Acclaim RSLC C18 2.2um, 2.1x100mm, Thermo
Retention time: 9.244 min
Base peak: 297.1862
Precursor m/z: 297.1849
Precursor type: [M+H]+
m/z	relative intensity	assigned
115.054	64	C9H7+
116.0601	27	C9H8+
117.0697	71	C9H9+
119.0855	166	C9H11+
121.0646	804	C8H9O+
121.1012	549	C9H13+
122.0675	103	C7[13]CH9O+
122.1048	65	C8[13]CH13+
123.0806	29	C8H11O+
123.1176	12	C9H15+
125.0946	11	C8H13O+
127.0534	12	C10H7+
128.0621	65	C10H8+
129.0697	206	C10H9+
130.0769	68	C10H10+
131.0851	349	C10H11+
132.0575	71	C9H8O+
133.0645	159	C9H9O+
133.1012	158	C10H13+
134.0699	20	C9H10O+
135.0802	543	C9H11O+
135.1167	64	C10H15+
136.0836	48	C8[13]CH11O+
137.096	39	C9H13O+
141.0701	24	C11H9+
142.0775	37	C11H10+
143.0849	148	C11H11+
144.0603	12	C10H8O+
145.0648	242	C10H9O+
145.1008	474	C11H13+
146.0698	51	C10H10O+
146.1045	47	C10[13]CH13+
147.0802	632	C10H11O+
147.1166	131	C11H15+
148.0839	69	C9[13]CH11O+
149.0957	999	C10H13O+
150.0995	107	C9[13]CH13O+
151.1102	20	C10H15O+
155.0851	38	C12H11+
156.0933	33	C12H12+
157.0652	31	C11H9O+
157.1001	64	C12H13+
158.0728	66	C11H10O+
158.106	14	C12H14+
159.0806	335	C11H11O+
159.1165	57	C12H15+
160.0852	50	C11H12O+
161.0602	17	C10H9O2+
161.0958	306	C11H13O+
163.0765	18	C10H11O2+
163.1115	144	C11H15O+
164.116	19	C11H16O+
165.0695	17	C13H9+
166.0757	12	C13H10+
167.0849	29	C13H11+
169.0682	12	C12H9O+
169.1014	45	C13H13+
170.0735	13	C12H10O+
171.0802	158	C12H11O+
171.1169	205	C13H15+
172.0866	42	C12H12O+
172.1204	28	C13H16+
173.0963	243	C12H13O+
174.1007	33	C12H14O+
175.0761	54	C11H11O2+
175.1116	60	C12H15O+
176.1219	14	C12H16O+
177.1267	31	C12H17O+
179.0854	23	C14H11+
181.0661	13	C13H9O+
181.1016	17	C14H13+
182.0728	16	C13H10O+
183.081	27	C13H11O+
183.1175	11	C14H15+
184.0879	22	C13H12O+
185.0958	450	C13H13O+
186.0998	79	C12[13]CH13O+
187.1116	116	C13H15O+
189.0906	14	C12H13O2+
189.1275	59	C13H17O+
193.1009	34	C15H13+
195.0805	65	C14H11O+
195.1184	19	C15H15+
196.0856	38	C14H12O+
197.0969	126	C14H13O+
197.1308	12	C15H17+
198.1022	45	C14H14O+
199.1121	138	C14H15O+
200.1173	21	C14H16O+
201.0929	21	C13H13O2+
201.1274	30	C14H17O+
203.0855	13	C16H11+
204.0946	16	C16H12+
205.1019	21	C16H13+
207.1172	18	C16H15+
208.0884	38	C15H12O+
209.0973	93	C15H13O+
209.1321	29	C16H17+
210.1011	45	C15H14O+
210.1366	12	C16H18+
211.1114	106	C15H15O+
212.1158	32	C15H16O+
213.1284	55	C15H17O+
215.1095	13	C14H15O2+
218.108	19	C17H14+
219.1176	13	C17H15+
220.123	13	C17H16+
221.0976	14	C16H13O+
221.1347	13	C17H17+
222.1029	64	C16H14O+
223.1125	145	C16H15O+
224.1186	77	C16H16O+
225.1278	47	C16H17O+
226.1345	16	C16H18O+
227.1442	35	C16H19O+
231.1191	13	C18H15+
235.1145	26	C17H15O+
236.1204	28	C17H16O+
237.1277	116	C17H17O+
238.135	59	C17H18O+
239.1427	99	C17H19O+
240.1483	34	C17H20O+
241.1574	14	C17H21O+
246.1376	20	C19H18+
249.1284	44	C18H17O+
250.134	33	C18H18O+
251.1428	66	C18H19O+
251.1785	12	C19H23+
253.1601	92	C18H21O+
254.1623	22	C18H22O+
255.1765	20	C18H23O+
264.1504	65	C19H20O+
269.154	12	C18H21O2+
279.1752	173	C20H23O+
280.1787	53	C20H24O+
297.1854	36	C20H25O2+
