Mass spectrum: o-Dianisidine; LC-ESI-QTOF; MS2; CE: 40 eV; R=35000; [M+H]+
Name: o-Dianisidine
Name: 3,3`-Dimethoxybenzidine
Name: 4-(4-amino-3-methoxyphenyl)-2-methoxyaniline
Formula: C14H16N2O2
Exact mass: 244.1211778
SMILES: COC1=CC(=CC=C1N)C1=CC(OC)=C(N)C=C1
InChI: InChI=1S/C14H16N2O2/c1-17-13-7-9(3-5-11(13)15)10-4-6-12(16)14(8-10)18-2/h3-8H,15-16H2,1-2H3
Instrument: Bruker maXis Impact
Instrument type: LC-ESI-QTOF
Ms type: MS2
Ion mode: POSITIVE
Ionization: ESI
Fragmentation mode: CID
Collision energy: 40 eV
Resolution: 35000
Column name: Acclaim RSLC C18 2.2um, 2.1x100mm, Thermo
Retention time: 5.537 min
Base peak: 245.1279
Precursor m/z: 245.1285
Precursor type: [M+H]+
m/z	relative intensity	assigned
115.0535	8	C9H7+
130.0639	29	C9H8N+
131.0715	7	C9H9N+
142.0635	11	C10H8N+
143.0717	81	C10H9N+
144.0757	9	C9[13]CH9N+
146.0592	6	C9H8NO+
153.056	20	C11H7N+
154.064	48	C11H8N+
156.0785	5	C11H10N+
157.075	20	C10H9N2+
158.083	675	C10H10N2+
159.0863	63	C9[13]CH10N2+
166.0638	5	C12H8N+
167.0713	6	C12H9N+
169.0748	89	C11H9N2+
170.0591	13	C11H8NO+
170.0829	229	C11H10N2+
171.0668	11	C11H9NO+
171.0888	48	C11H11N2+
172.0934	6	C10[13]CH11N2+
181.0746	23	C12H9N2+
182.0591	5	C12H8NO+
182.0827	50	C12H10N2+
183.0873	8	C11[13]CH10N2+
184.0972	5	C12H12N2+
186.0781	531	C11H10N2O+
187.0857	999	C11H11N2O+
188.0887	105	C10[13]CH11N2O+
189.0916	7	C9[13]C2H11N2O+
197.0701	17	C12H9N2O+
198.078	103	C12H10N2O+
199.0826	20	C11[13]CH10N2O+
201.1017	460	C12H13N2O+
202.1046	54	C11[13]CH13N2O+
213.1019	13	C13H13N2O+
215.0806	62	C12H11N2O2+
216.0842	8	C11[13]CH11N2O2+
230.1043	24	C13H14N2O2+
