Mass spectrum: Dimethachlor; LC-ESI-QTOF; MS2; CE: 40 eV; R=35000; [M+H]+
Name: Dimethachlor
Name: 2-chloro-N-(2,6-dimethylphenyl)-N-(2-methoxyethyl)acetamide
Formula: C13H18ClNO2
Exact mass: 255.1026065
SMILES: COCCN(C(=O)CCl)C1=C(C)C=CC=C1C
InChI: InChI=1S/C13H18ClNO2/c1-10-5-4-6-11(2)13(10)15(7-8-17-3)12(16)9-14/h4-6H,7-9H2,1-3H3
Instrument: Bruker maXis Impact
Instrument type: LC-ESI-QTOF
Ms type: MS2
Ion mode: POSITIVE
Ionization: ESI
Fragmentation mode: CID
Collision energy: 40 eV
Resolution: 35000
Column name: Acclaim RSLC C18 2.2um, 2.1x100mm, Thermo
Retention time: 8.5 min
Base peak: 256.1097
Precursor m/z: 256.1099
Precursor type: [M+H]+
m/z	relative intensity	assigned
116.0612	6	C9H8+
117.0566	26	C8H7N+
118.0643	63	C8H8N+
119.0686	6	C7[13]CH8N+
119.0849	14	C9H11+
120.0799	19	C8H10N+
121.0642	9	C8H9O+
122.0953	5	C2H17ClNO2+
129.0689	7	C10H9+
130.0644	25	C9H8N+
133.0874	131	C3H16ClNO2+
144.0801	16	C10H10N+
145.0859	5	C4H16ClNO2+
148.1113	999	C10H14N+
149.1143	71	C5H15N3O2+
198.0682	5	C10H13ClNO+
224.0825	85	C12H15ClNO+
