Mass spectrum: Diflufenican; LC-ESI-QTOF; MS2; CE: 40 eV; R=35000; [M+H]+
Name: Diflufenican
Name: N-(2,4-difluorophenyl)-2-[3-(trifluoromethyl)phenoxy]pyridine-3-carboxamide
Formula: C19H11F5N2O2
Exact mass: 394.0740687
SMILES: FC1=CC=C(NC(=O)C2=CC=CN=C2OC2=CC=CC(=C2)C(F)(F)F)C(F)=C1
InChI: InChI=1S/C19H11F5N2O2/c20-12-6-7-16(15(21)10-12)26-17(27)14-5-2-8-25-18(14)28-13-4-1-3-11(9-13)19(22,23)24/h1-10H,(H,26,27)
Instrument: Bruker maXis Impact
Instrument type: LC-ESI-QTOF
Ms type: MS2
Ion mode: POSITIVE
Ionization: ESI
Fragmentation mode: CID
Collision energy: 40 eV
Resolution: 35000
Column name: Acclaim RSLC C18 2.2um, 2.1x100mm, Thermo
Retention time: 11.736 min
Base peak: 395.0808
Precursor m/z: 395.0813
Precursor type: [M+H]+
m/z	relative intensity	assigned
169.0505	17	C6H7F4N+
183.0404	28	C10H6F3+
185.0494	8	C11H6FN2+
190.0455	21	C11H6F2N+
191.0521	7	C11H8FO2+
210.0527	22	C11H7F3N+
214.0457	5	C13H6F2N+
218.0399	33	C15H5FN+
219.0476	31	C15H6FN+
220.0514	7	C14[13]CH6FN+
233.0513	77	C15H6FN2+
234.0548	6	C14[13]CH6FN2+
238.0465	142	C15H6F2N+
239.0506	21	C14[13]CH6F2N+
246.0353	158	C13H6F2NO2+
247.0401	30	C12[13]CH6F2NO2+
265.0544	15	C16H8FNO2+
266.042	999	C16H6F2NO+
267.0448	141	C15[13]CH6F2NO+
268.0476	10	C14[13]C2H6F2NO+
284.0515	91	C16H8F2NO2+
285.0553	17	C15[13]CH8F2NO2+
335.061	5	C17H8F5N2+
377.0697	19	C19H10F5N2O+
378.0729	5	C18[13]CH10F5N2O+
