Mass spectrum: Sulpiride; LC-ESI-QTOF; MS2; CE: 50 eV; R=35000; [M+H]+
Name: Sulpiride
Name: N-[(1-ethylpyrrolidin-2-yl)methyl]-2-methoxy-5-sulfamoylbenzamide
Formula: C15H23N3O4S
Exact mass: 341.1409272
SMILES: CCN1CCCC1CNC(=O)C1=C(OC)C=CC(=C1)S(N)(=O)=O
InChI: InChI=1S/C15H23N3O4S/c1-3-18-8-4-5-11(18)10-17-15(19)13-9-12(23(16,20)21)6-7-14(13)22-2/h6-7,9,11H,3-5,8,10H2,1-2H3,(H,17,19)(H2,16,20,21)
Instrument: Bruker maXis Impact
Instrument type: LC-ESI-QTOF
Ms type: MS2
Ion mode: POSITIVE
Ionization: ESI
Fragmentation mode: CID
Collision energy: 50 eV
Resolution: 35000
Column name: Acclaim RSLC C18 2.2um, 2.1x100mm, Thermo
Retention time: 3.1 min
Base peak: 342.1484
Precursor m/z: 342.1482
Precursor type: [M+H]+
m/z	relative intensity	assigned
112.1119	18	C7H14N+
133.0276	17	H9N2O4S+
138.9841	22	C4HN3OS+
151.0385	5	C8H7O3+
170.9972	16	C6H5NO3S+
174.0212	6	C12H2N2+
214.0165	999	C8H8NO4S+
