Mass spectrum: Dinoseb; LC-ESI-QTOF; MS2; CE: 20 eV; R=35000; [M-H]-
Name: Dinoseb
Name: 2-butan-2-yl-4,6-dinitrophenol
Formula: C10H12N2O5
Exact mass: 240.0746215
SMILES: CCC(C)C1=C(O)C(=CC(=C1)[N+]([O-])=O)[N+]([O-])=O
InChI: InChI=1S/C10H12N2O5/c1-3-6(2)8-4-7(11(14)15)5-9(10(8)13)12(16)17/h4-6,13H,3H2,1-2H3
Instrument: Bruker maXis Impact
Instrument type: LC-ESI-QTOF
Ms type: MS2
Ion mode: NEGATIVE
Ionization: ESI
Fragmentation mode: CID
Collision energy: 20 eV
Resolution: 35000
Column name: Acclaim RSLC C18 2.2um, 2.1x100mm, Thermo
Retention time: 7.968 min
Base peak: 239.0677
Precursor m/z: 239.0673
Precursor type: [M-H]-
m/z	relative intensity	assigned
134.0241	19	C7H4NO2-
136.0398	6	C7H6NO2-
151.0758	24	C9H11O2-
163.0272	18	C8H5NO3-
164.0338	7	C8H6NO3-
164.0444	8	C4H8N2O5-
176.0348	37	C9H6NO3-
177.0415	17	C9H7NO3-
178.0497	20	C9H8NO3-
179.0707	32	C10H11O3-
180.0294	23	C8H6NO4-
180.0742	5	C9[13]CH11O3-
191.058	7	C10H9NO3-
192.0667	97	C10H10NO3-
193.0256	420	C8H5N2O4-
194.0268	31	C7[13]CH5N2O4-
194.0456	383	C9H8NO4-
195.0485	44	C8[13]CH8NO4-
207.0404	58	C9H7N2O4-
208.0597	16	C10H10NO4-
209.0195	37	C8H5N2O5-
209.0687	29	C10H11NO4-
210.0275	35	C8H6N2O5-
221.0557	27	C10H9N2O4-
222.0635	77	C10H10N2O4-
223.0677	10	C9[13]CH10N2O4-
239.0675	999	C10H11N2O5-
240.07	135	C9[13]CH11N2O5-
241.0718	10	C10H11N2O4[18]O-
