Mass spectrum: Pendimethalin; LC-ESI-QTOF; MS2; CE: 30 eV; R=35000; [M+H]+
Name: Pendimethalin
Name: 3,4-dimethyl-2,6-dinitro-N-pentan-3-ylaniline
Formula: C13H19N3O4
Exact mass: 281.1375561
SMILES: CCC(CC)NC1=C(C(C)=C(C)C=C1[N+]([O-])=O)[N+]([O-])=O
InChI: InChI=1S/C13H19N3O4/c1-5-10(6-2)14-12-11(15(17)18)7-8(3)9(4)13(12)16(19)20/h7,10,14H,5-6H2,1-4H3
Instrument: Bruker maXis Impact
Instrument type: LC-ESI-QTOF
Ms type: MS2
Ion mode: POSITIVE
Ionization: ESI
Fragmentation mode: CID
Collision energy: 30 eV
Resolution: 35000
Column name: Acclaim RSLC C18 2.2um, 2.1x100mm, Thermo
Retention time: 12.831 min
Base peak: 308.0038
Precursor m/z: 282.1448
Precursor type: [M+H]+
m/z	relative intensity	assigned
117.0414	38	C4H7NO3+
118.0517	165	C7H6N2+
119.0586	172	C4H9NO3+
120.0445	49	C7H6NO+
126.0541	38	C6H8NO2+
129.045	49	C8H5N2+
130.0519	126	C8H6N2+
131.0218	31	C4H5NO4+
131.0464	34	C4H7N2O3+
131.0586	110	C5H9NO3+
132.0541	35	C4H8N2O3+
133.0381	32	C4H7NO4+
134.0956	71	C9H12N+
135.0545	87	C7H7N2O+
136.0608	44	C4H10NO4+
145.0379	32	C5H7NO4+
147.0537	307	C5H9NO4+
148.0494	46	C7H6N3O+
148.0621	430	C8H8N2O+
149.0219	114	C6H3N3O2+
149.0577	249	C7H7N3O+
150.0266	96	C6H4N3O2+
150.0653	40	C7H8N3O+
160.0493	79	C8H6N3O+
163.0486	109	C8H7N2O2+
164.0573	73	C8H8N2O2+
165.0646	103	C8H9N2O2+
166.0606	33	C7H8N3O2+
166.0727	37	C8H10N2O2+
176.0456	86	C8H6N3O2+
176.1424	214	C12H18N+
177.0522	376	C8H7N3O2+
178.06	358	C8H8N3O2+
179.0441	61	C8H7N2O3+
194.0549	999	C8H8N3O3+
195.0615	501	C10H11O4+
196.0651	85	C9[13]CH11O4+
212.0652	970	C8H10N3O4+
213.0695	100	C7[13]CH10N3O4+
252.1142	197	C12H16N2O4+
253.117	35	C11[13]CH16N2O4+
