Mass spectrum: Sulfaguanidine; LC-ESI-QTOF; MS2; CE: Ramp 18.5-27.8 eV; R=35000; [M+H]+
Name: Sulfaguanidine
Name: 2-(4-aminophenyl)sulfonylguanidine
Formula: C7H10N4O2S
Exact mass: 214.0524
SMILES: c1cc(ccc1N)S(=O)(=O)NC(=N)N
InChI: InChI=1S/C7H10N4O2S/c8-5-1-3-6(4-2-5)14(12,13)11-7(9)10/h1-4H,8H2,(H4,9,10,11)
Instrument: Bruker maXis Impact
Instrument type: LC-ESI-QTOF
Ms type: MS2
Ion mode: POSITIVE
Ionization: ESI
Fragmentation mode: CID
Collision energy: Ramp 18.5-27.8 eV
Resolution: 35000
Column name: Acclaim RSLC C18 2.2um, 2.1x100mm, Thermo
Retention time: 2.1 min
Base peak: 215.0607
Precursor m/z: 215.0597
Precursor type: [M+H]+
m/z	relative intensity	assigned
60.0555	230	CH6N3+
68.0492	49	C4H6N+
108.045	60	C6H6NO+
110.061	34	C6H8NO+
120.0566	37	C6H6N3+
122.0012	36	CH4N3O2S+
156.0115	999	C6H6NO2S+
157.0139	69	C7HN4O+
158.0102	38	C5H6N2O2S+
173.0366	35	C6H9N2O2S+
215.0609	68	C7H11N4O2S+
