Mass spectrum: Triethylphosphite; GC-APCI-QTOF; MS2; CE: 40 eV; R=35000; [M+H]+
Name: Triethylphosphite
Formula: C6H15O3P
Exact mass: 166.0759
SMILES: CCOP(OCC)OCC
InChI: InChI=1S/C6H15O3P/c1-4-7-10(8-5-2)9-6-3/h4-6H2,1-3H3
Instrument: Bruker 450 GC coupled to maXis Impact
Instrument type: GC-APCI-QTOF
Ms type: MS2
Ion mode: POSITIVE
Ionization: APCI
Fragmentation mode: CID
Collision energy: 40 eV
Resolution: 35000
Column name: Rxi-5Sil MS column, 30m, 0.25mm i.d., 0.25Âµm film thickness, Restek
Retention time: 13.902 min
Base peak: 167.0882
Precursor m/z: 167.0832
Precursor type: [M+H]+
m/z	relative intensity	assigned
115.0543	642	C2H12O3P+
128.0616	999	C3H13O3P+
139.055	392	C4H12O3P+
153.0683	422	C5H14O3P+
166.0775	808	C6H15O3P+
