Mass spectrum: Norethindrone; LC-ESI-QTOF; MS2; CE: 20 eV; R=35000; [M+H]+
Name: Norethindrone
Name: (8R,9S,10R,13S,14S,17R)-17-ethynyl-17-hydroxy-13-methyl-1,2,6,7,8,9,10,11,12,14,15,16-dodecahydrocyclopenta[a]phenanthren-3-one
Formula: C20H26O2
Exact mass: 298.1932801
SMILES: C[C@]12CC[C@H]3[C@@H](CCC4=CC(=O)CC[C@H]34)[C@@H]1CC[C@@]2(O)C#C
InChI: InChI=1S/C20H26O2/c1-3-20(22)11-9-18-17-6-4-13-12-14(21)5-7-15(13)16(17)8-10-19(18,20)2/h1,12,15-18,22H,4-11H2,2H3/t15-,16+,17+,18-,19-,20-/m0/s1
Instrument: Bruker maXis Impact
Instrument type: LC-ESI-QTOF
Ms type: MS2
Ion mode: POSITIVE
Ionization: ESI
Fragmentation mode: CID
Collision energy: 20 eV
Resolution: 35000
Column name: Acclaim RSLC C18 2.2um, 2.1x100mm, Thermo
Retention time: 9.351 min
Base peak: 299.2009
Precursor m/z: 299.2006
Precursor type: [M+H]+
m/z	relative intensity	assigned
117.0689	7	C9H9+
119.0846	21	C9H11+
121.1004	7	C9H13+
123.0797	7	C8H11O+
129.0689	12	C10H9+
131.0846	27	C10H11+
133.0642	5	C9H9O+
133.0999	17	C10H13+
135.0795	22	C9H11O+
135.1154	6	C10H15+
141.069	5	C11H9+
143.0845	22	C11H11+
145.1	42	C11H13+
146.1038	5	C10[13]CH13+
147.0794	8	C10H11O+
147.1156	12	C11H15+
149.0948	22	C10H13O+
155.0846	8	C12H11+
157.0999	24	C12H13+
159.0791	9	C11H11O+
159.1155	18	C12H15+
161.0945	16	C11H13O+
161.1314	7	C12H17+
163.1103	19	C11H15O+
167.0841	5	C13H11+
169.0997	22	C13H13+
171.1156	50	C13H15+
172.1194	8	C12[13]CH15+
173.0948	7	C12H13O+
173.1312	29	C13H17+
174.1351	5	C12[13]CH17+
175.1109	14	C12H15O+
181.0998	13	C14H13+
183.1156	16	C14H15+
185.0949	9	C13H13O+
185.1314	23	C14H17+
187.1104	11	C13H15O+
189.1261	12	C13H17O+
193.0998	5	C15H13+
195.1155	13	C15H15+
197.1311	15	C15H17+
199.1105	8	C14H15O+
199.1473	13	C15H19+
201.1266	10	C14H17O+
203.1421	5	C14H19O+
207.1157	9	C16H15+
209.1307	7	C16H17+
211.1107	5	C15H15O+
211.1471	22	C16H19+
213.1265	5	C15H17O+
213.1631	35	C16H21+
214.1659	6	C15[13]CH21+
221.1317	19	C17H17+
222.1365	6	C16[13]CH17+
223.1475	36	C17H19+
224.1517	5	C16[13]CH19+
225.1271	6	C16H17O+
227.1419	6	C16H19O+
229.1576	8	C16H21O+
231.1737	143	C16H23O+
232.1767	26	C15[13]CH23O+
235.1472	12	C18H19+
237.1624	10	C18H21+
239.1423	7	C17H19O+
239.1781	17	C18H23+
241.1575	11	C17H21O+
253.1573	10	C18H21O+
253.194	6	C19H25+
257.1896	6	C18H25O+
263.1787	32	C20H23+
264.1828	7	C19[13]CH23+
281.1897	89	C20H25O+
282.1927	19	C19[13]CH25O+
299.2005	999	C20H27O2+
300.2035	170	C19[13]CH27O2+
301.2063	15	C18[13]C2H27O2+
