Mass spectrum: Moxidectin; LC-ESI-QTOF; MS2; CE: 10 eV; R=35000; [M+H]+
Name: Moxidectin
Formula: C37H53NO8
Exact mass: 639.3771177
SMILES: C[C@@H]\1C/C(=C/C[C@@H]2C[C@@H](C[C@@]3(O2)C/C(=N\OC)/[C@@H]([C@H](O3)/C(=C/C(C)C)/C)C)OC(=O)[C@@H]4C=C([C@H]([C@@H]5[C@]4(/C(=C/C=C1)/CO5)O)O)C)/C
InChI: InChI=1S/C37H53NO8/c1-21(2)14-25(6)33-26(7)31(38-42-8)19-36(46-33)18-29-17-28(45-36)13-12-23(4)15-22(3)10-9-11-27-20-43-34-32(39)24(5)16-30(35(40)44-29)37(27,34)41/h9-12,14,16,21-22,26,28-30,32-34,39,41H,13,15,17-20H2,1-8H3/b10-9+,23-12+,25-14+,27-11+,38-31+/t22-,26-,28+,29-,30-,32+,33+,34+,36-,37+/m0/s1
Instrument: Bruker maXis Impact
Instrument type: LC-ESI-QTOF
Ms type: MS2
Ion mode: POSITIVE
Ionization: ESI
Fragmentation mode: CID
Collision energy: 10 eV
Resolution: 35000
Column name: Acclaim RSLC C18 2.2um, 2.1x100mm, Thermo
Retention time: 14.1 min
Base peak: 688.4451
Precursor m/z: 640.3844
Precursor type: [M+H]+
m/z	relative intensity	assigned
196.1651	216	C9H24O4+
478.2469	189	C33H34O3+
496.2575	367	C33H36O4+
497.2595	164	C32H35NO4+
498.2694	395	C32H36NO4+
499.2765	145	C32H37NO4+
510.2727	120	C34H38O4+
528.2835	999	C34H40O5+
529.2886	329	C36[13]CH38NO2+
640.3805	264	C37H54NO8+
