Mass spectrum: Aldosterone; LC-ESI-QTOF; MS2; CE: 30 eV; R=35000; [M+H]+
Name: Aldosterone
Name: (8S,9S,10R,11S,13R,14S,17S)-11-hydroxy-17-(2-hydroxyacetyl)-10-methyl-3-oxo-1,2,6,7,8,9,11,12,14,15,16,17-dodecahydrocyclopenta[a]phenanthrene-13-carbaldehyde
Formula: C21H28O5
Exact mass: 360.1936740
SMILES: [H][C@@]12CC[C@H](C(=O)CO)[C@]1(C[C@H](O)[C@@]1([H])[C@@]2([H])CCC2=CC(=O)CC[C@]12C)C=O
InChI: InChI=1S/C21H28O5/c1-20-7-6-13(24)8-12(20)2-3-14-15-4-5-16(18(26)10-22)21(15,11-23)9-17(25)19(14)20/h8,11,14-17,19,22,25H,2-7,9-10H2,1H3/t14-,15-,16+,17-,19+,20-,21+/m0/s1
Instrument: Bruker maXis Impact
Instrument type: LC-ESI-QTOF
Ms type: MS2
Ion mode: POSITIVE
Ionization: ESI
Fragmentation mode: CID
Collision energy: 30 eV
Resolution: 35000
Column name: Acclaim RSLC C18 2.2um, 2.1x100mm, Thermo
Retention time: 7.804 min
Base peak: 361.2005
Precursor m/z: 361.201
Precursor type: [M+H]+
m/z	relative intensity	assigned
115.0529	17	C9H7+
117.0688	18	C9H9+
119.0841	54	C9H11+
121.064	431	C8H9O+
122.0673	29	C7[13]CH9O+
123.0796	51	C8H11O+
125.059	15	C7H9O2+
127.0751	7	C7H11O2+
128.0607	30	C10H8+
129.0684	42	C10H9+
130.0766	12	C10H10+
131.0484	9	C9H7O+
131.085	77	C10H11+
132.056	24	C9H8O+
132.0912	8	C9[13]CH11+
133.0638	48	C9H9O+
133.1004	71	C10H13+
134.1039	9	C9[13]CH13+
135.0795	184	C9H11O+
135.1173	12	C10H15+
136.0833	16	C8[13]CH11O+
137.0588	13	C8H9O2+
137.0952	31	C9H13O+
139.0741	20	C8H11O2+
141.0697	20	C11H9+
142.0763	9	C11H10+
143.0841	73	C11H11+
144.089	11	C10[13]CH11+
145.0636	65	C10H9O+
145.1005	103	C11H13+
146.1035	19	C10[13]CH13+
147.0793	999	C10H11O+
147.1148	68	C11H15+
148.0829	95	C9[13]CH11O+
149.0951	38	C10H13O+
151.0738	21	C9H11O2+
151.1099	16	C10H15O+
153.0911	13	C9H13O2+
155.0849	36	C12H11+
156.0906	11	C12H12+
157.0638	11	C11H9O+
157.0999	77	C12H13+
158.0713	27	C11H10O+
158.1053	14	C11[13]CH13+
159.0793	123	C11H11O+
159.1156	71	C12H15+
160.1196	8	C11[13]CH15+
161.0948	113	C11H13O+
161.131	14	C12H17+
162.0982	13	C10[13]CH13O+
163.0747	53	C10H11O2+
163.1105	65	C11H15O+
164.0767	7	C9[13]CH11O2+
165.0688	10	C13H9+
165.0891	28	C10H13O2+
165.1257	8	C11H17O+
167.0843	22	C13H11+
168.0919	8	C13H12+
169.0997	50	C13H13+
170.0693	8	C12H10O+
170.1051	8	C12[13]CH13+
171.0791	530	C12H11O+
171.1154	57	C13H15+
172.0841	72	C11[13]CH11O+
173.0947	554	C12H13O+
173.1299	29	C13H17+
174.0981	66	C11[13]CH13O+
175.0745	10	C11H11O2+
175.1109	71	C12H15O+
176.1131	6	C11[13]CH15O+
177.092	9	C11H13O2+
177.1251	22	C12H17O+
179.0838	11	C14H11+
179.1059	9	C11H15O2+
180.0918	9	C14H12+
181.102	29	C14H13+
182.1046	12	C14H14+
183.079	20	C13H11O+
183.1153	36	C14H15+
184.0879	10	C13H12O+
185.0954	141	C13H13O+
185.1306	35	C14H17+
186.0986	27	C12[13]CH13O+
187.0722	6	C12H11O2+
187.1104	129	C13H15O+
187.1471	7	C14H19+
188.1147	11	C12[13]CH15O+
189.0896	15	C12H13O2+
189.1256	38	C13H17O+
191.0867	7	C15H11+
191.1056	17	C12H15O2+
192.1104	8	C12H16O2+
193.0973	19	C15H13+
193.1212	10	C12H17O2+
195.0787	27	C14H11O+
195.1159	40	C15H15+
196.0868	18	C14H12O+
197.0946	88	C14H13O+
197.1306	28	C15H17+
198.1016	17	C13[13]CH13O+
199.1106	132	C14H15O+
199.1457	17	C15H19+
200.1149	19	C13[13]CH15O+
201.0921	12	C13H13O2+
201.1269	21	C14H17O+
203.1081	12	C13H15O2+
203.1436	8	C14H19O+
205.0997	20	C16H13+
205.1197	21	C13H17O2+
206.1061	8	C16H14+
207.1165	31	C16H15+
208.0858	30	C15H12O+
208.1206	15	C16H16+
209.0948	67	C15H13O+
209.1312	38	C16H17+
210.1008	32	C15H14O+
210.1349	8	C15[13]CH17+
211.1105	122	C15H15O+
211.1452	14	C16H19+
212.1174	39	C15H16O+
213.0918	15	C14H13O2+
213.1266	70	C15H17O+
214.1306	12	C14[13]CH17O+
215.1055	14	C14H15O2+
215.1417	17	C15H19O+
217.1	8	C17H13+
217.1221	9	C14H17O2+
219.1165	16	C17H15+
219.1355	9	C14H19O2+
220.1231	8	C17H16+
221.0954	40	C16H13O+
221.1302	35	C17H17+
222.1021	37	C16H14O+
222.1352	7	C16[13]CH17+
223.111	268	C16H15O+
223.1465	35	C17H19+
224.1155	63	C15[13]CH15O+
225.1265	135	C16H17O+
225.1621	20	C17H21+
226.132	47	C16H18O+
227.1068	7	C15H15O2+
227.1412	54	C16H19O+
228.147	17	C16H20O+
229.1597	9	C16H21O+
230.1085	7	C18H14+
231.1161	8	C18H15+
231.1367	8	C15H19O2+
232.1257	6	C18H16+
233.0953	7	C17H13O+
233.1308	9	C18H17+
234.1015	22	C17H14O+
234.1351	9	C18H18+
235.1101	35	C17H15O+
235.148	19	C18H19+
236.116	18	C17H16O+
237.0915	8	C16H13O2+
237.1266	157	C17H17O+
237.1637	8	C18H21+
238.1319	44	C16[13]CH17O+
239.1075	15	C16H15O2+
239.1422	213	C17H19O+
240.1462	49	C16[13]CH19O+
241.1574	95	C17H21O+
242.1624	20	C16[13]CH21O+
243.1151	8	C19H15+
243.1366	8	C16H19O2+
243.1747	23	C17H23O+
245.0959	10	C18H13O+
246.1034	10	C18H14O+
247.1127	40	C18H15O+
247.1471	14	C19H19+
248.1167	27	C18H16O+
249.1263	100	C18H17O+
249.1633	52	C19H21+
250.1323	34	C18H18O+
250.1665	9	C18[13]CH21+
251.107	9	C17H15O2+
251.1415	137	C18H19O+
251.1781	22	C19H23+
252.1135	7	C17H16O2+
252.1465	32	C17[13]CH19O+
253.1199	13	C17H17O2+
253.1573	37	C18H21O+
255.1365	9	C17H19O2+
255.1703	8	C18H23O+
259.1117	15	C19H15O+
260.1174	35	C19H16O+
261.1273	36	C19H17O+
261.1601	6	C20H21+
262.1333	23	C19H18O+
262.1711	6	C20H22+
263.1432	82	C19H19O+
263.178	10	C20H23+
264.1481	53	C19H20O+
265.1582	171	C19H21O+
266.1648	266	C19H22O+
267.1348	14	C18H19O2+
267.1725	173	C19H23O+
268.1794	56	C18[13]CH23O+
269.1542	15	C18H21O2+
269.1894	91	C19H25O+
270.1916	13	C18[13]CH25O+
271.1465	7	C21H19+
271.1688	7	C18H23O2+
274.1348	53	C20H18O+
275.1386	16	C19[13]CH18O+
276.1466	18	C20H20O+
277.1582	62	C20H21O+
278.1601	23	C20H22O+
279.137	16	C19H19O2+
279.1728	86	C20H23O+
280.1765	26	C19[13]CH23O+
281.1524	21	C19H21O2+
281.1896	28	C20H25O+
282.1617	6	C18[13]CH21O2+
283.1694	11	C19H23O2+
285.1845	35	C19H25O2+
286.1902	13	C19H26O2+
287.1975	12	C19H27O2+
289.1581	114	C21H21O+
290.1616	28	C20[13]CH21O+
291.1734	33	C21H23O+
292.1465	8	C20H20O2+
294.1612	20	C20H22O2+
295.1679	34	C20H23O2+
296.1725	11	C19[13]CH23O2+
297.1459	11	C19H21O3+
297.1831	54	C20H25O2+
298.1861	6	C19[13]CH25O2+
299.165	9	C19H23O3+
299.2006	12	C20H27O2+
307.1696	83	C21H23O2+
308.1712	18	C20[13]CH23O2+
309.184	91	C21H25O2+
310.187	15	C20[13]CH25O2+
313.1775	7	C20H25O3+
315.1971	15	C20H27O3+
325.1808	34	C21H25O3+
327.1931	77	C21H27O3+
328.1998	15	C20[13]CH27O3+
343.1893	45	C21H27O4+
344.1944	22	C21H28O4+
345.2051	18	C21H29O4+
