Mass spectrum: Dimethylaminophenazone; LC-ESI-QTOF; MS2; CE: 10 eV; R=35000; [M+H]+
Name: Dimethylaminophenazone
Name: Aminopyrine
Name: 4-(dimethylamino)-1,5-dimethyl-2-phenylpyrazol-3-one
Formula: C13H17N3O
Exact mass: 231.1371622
SMILES: CN(C)C1=C(C)N(C)N(C1=O)C1=CC=CC=C1
InChI: InChI=1S/C13H17N3O/c1-10-12(14(2)3)13(17)16(15(10)4)11-8-6-5-7-9-11/h5-9H,1-4H3
Instrument: Bruker maXis Impact
Instrument type: LC-ESI-QTOF
Ms type: MS2
Ion mode: POSITIVE
Ionization: ESI
Fragmentation mode: CID
Collision energy: 10 eV
Resolution: 35000
Column name: Acclaim RSLC C18 2.2um, 2.1x100mm, Thermo
Retention time: 4.881 min
Base peak: 232.1444
Precursor m/z: 232.1444
Precursor type: [M+H]+
m/z	relative intensity	assigned
113.1065	9	C6H13N2+
139.0854	20	C7H11N2O+
149.1058	10	C9H13N2+
159.09	15	C10H11N2+
175.085	5	C10H11N2O+
177.1007	9	C10H13N2O+
187.0852	34	C11H11N2O+
188.0919	12	C11H12N2O+
231.1356	12	C13H17N3O+
232.1442	999	C13H18N3O+
233.1468	156	C12[13]CH18N3O+
234.1493	10	C11[13]C2H18N3O+
