Mass spectrum: Tris(2-ethylhexl)phosphate; LC-ESI-QTOF; MS2; CE: 40 eV; R=35000; [M+H]+
Name: Tris(2-ethylhexl)phosphate
Name: tris(2-ethylhexyl) phosphate
Formula: C24H51O4P
Exact mass: 434.3524967
SMILES: CCCCC(CC)COP(=O)(OCC(CC)CCCC)OCC(CC)CCCC
InChI: InChI=1S/C24H51O4P/c1-7-13-16-22(10-4)19-26-29(25,27-20-23(11-5)17-14-8-2)28-21-24(12-6)18-15-9-3/h22-24H,7-21H2,1-6H3
Instrument: Bruker maXis Impact
Instrument type: LC-ESI-QTOF
Ms type: MS2
Ion mode: POSITIVE
Ionization: ESI
Fragmentation mode: CID
Collision energy: 40 eV
Resolution: 35000
Column name: Acclaim RSLC C18 2.2um, 2.1x100mm, Thermo
Retention time: 15.485 min
Base peak: 435.3589
Precursor m/z: 435.3598
Precursor type: [M+H]+
m/z	relative intensity	assigned
121.0265	36	C7H5O2+
149.0224	999	C8H5O3+
150.026	88	C7[13]CH5O3+
167.0527	32	C12H7O+
223.0622	124	C15H12P+
224.0654	27	C14[13]CH12P+
237.0788	660	C16H14P+
238.0787	171	C19H10+
