Mass spectrum: Mirtazapine; LC-ESI-QTOF; MS2; CE: Ramp 20.4-30.6 eV; R=35000; [M+H]+
Name: Mirtazapine
Name: 5-methyl-2,5,19-triazatetracyclo[13.4.0.02,7.08,13]nonadeca-1(15),8,10,12,16,18-hexaene
Formula: C17H19N3
Exact mass: 265.1578976
SMILES: CN1CCN2C(C1)C1=CC=CC=C1CC1=C2N=CC=C1
InChI: InChI=1S/C17H19N3/c1-19-9-10-20-16(12-19)15-7-3-2-5-13(15)11-14-6-4-8-18-17(14)20/h2-8,16H,9-12H2,1H3
Instrument: Bruker maXis Impact
Instrument type: LC-ESI-QTOF
Ms type: MS2
Ion mode: POSITIVE
Ionization: ESI
Fragmentation mode: CID
Collision energy: Ramp 20.4-30.6 eV
Resolution: 35000
Column name: Acclaim RSLC C18 2.2um, 2.1x100mm, Thermo
Retention time: 5.143 min
Base peak: 266.1663
Precursor m/z: 266.1652
Precursor type: [M+H]+
m/z	relative intensity	assigned
58.0648	8	C3H8N+
70.0645	16	C4H8N+
72.0805	895	C4H10N+
73.0836	34	C3[13]CH10N+
92.0494	6	C6H6N+
107.061	5	C6H7N2+
115.0546	8	C9H7+
144.08	5	C10H10N+
180.0801	11	C13H10N+
182.0956	12	C13H12N+
194.0833	30	C13H10N2+
195.0916	999	C13H11N2+
196.0944	189	C12[13]CH11N2+
197.0979	8	C11[13]C2H11N2+
209.1071	213	C14H13N2+
210.11	28	C13[13]CH13N2+
220.0984	5	C15H12N2+
223.1226	40	C15H15N2+
224.1261	5	C14[13]CH15N2+
235.1228	49	C16H15N2+
236.1264	8	C15[13]CH15N2+
264.1496	23	C17H18N3+
266.1657	617	C17H20N3+
267.1686	120	C16[13]CH20N3+
268.1714	9	C15[13]C2H20N3+
