Mass spectrum: 2-Amino-9H-pyrido[2,3-b]indole (AalphaC); LC-ESI-QTOF; MS2; CE: 50 eV; R=35000; [M+H]+
Name: 2-Amino-9H-pyrido[2,3-b]indole (AalphaC)
Name: 2-Amino-9H-pyrido[2,3-b]indole
Name: 9H-pyrido[2,3-b]indol-2-amine
Formula: C11H9N3
Exact mass: 183.0796473
SMILES: NC1=NC2=C(C=C1)C1=CC=CC=C1N2
InChI: InChI=1S/C11H9N3/c12-10-6-5-8-7-3-1-2-4-9(7)13-11(8)14-10/h1-6H,(H3,12,13,14)
Instrument: Bruker maXis Impact
Instrument type: LC-ESI-QTOF
Ms type: MS2
Ion mode: POSITIVE
Ionization: ESI
Fragmentation mode: CID
Collision energy: 50 eV
Resolution: 35000
Column name: Acclaim RSLC C18 2.2um, 2.1x100mm, Thermo
Retention time: 7.069 min
Base peak: 184.0859
Precursor m/z: 184.0869
Precursor type: [M+H]+
m/z	relative intensity	assigned
113.0378	47	C9H5+
114.0332	33	C8H4N+
129.0564	5	C9H7N+
130.0638	13	C9H8N+
138.0325	16	C10H4N+
139.0403	43	C10H5N+
140.0485	999	C10H6N+
141.0515	103	C9[13]CH6N+
142.0538	7	C8[13]C2H6N+
155.0586	8	C10H7N2+
156.0665	8	C10H8N2+
165.0436	18	C11H5N2+
166.0513	174	C11H6N2+
167.058	66	C11H7N2+
168.0621	8	C10[13]CH7N2+
