Mass spectrum: Ondansetron; LC-ESI-QTOF; MS2; CE: 10 eV; R=35000; [M+H]+
Name: Ondansetron
Name: 9-methyl-3-[(2-methylimidazol-1-yl)methyl]-2,3-dihydro-1H-carbazol-4-one
Formula: C18H19N3O
Exact mass: 293.1528122
SMILES: CN1C2=C(C3=CC=CC=C13)C(=O)C(CN1C=CN=C1C)CC2
InChI: InChI=1S/C18H19N3O/c1-12-19-9-10-21(12)11-13-7-8-16-17(18(13)22)14-5-3-4-6-15(14)20(16)2/h3-6,9-10,13H,7-8,11H2,1-2H3
Instrument: Bruker maXis Impact
Instrument type: LC-ESI-QTOF
Ms type: MS2
Ion mode: POSITIVE
Ionization: ESI
Fragmentation mode: CID
Collision energy: 10 eV
Resolution: 35000
Column name: Acclaim RSLC C18 2.2um, 2.1x100mm, Thermo
Retention time: 4.891 min
Base peak: 294.16
Precursor m/z: 294.1601
Precursor type: [M+H]+
m/z	relative intensity	assigned
170.0949	7	C12H12N+
184.1107	5	C13H14N+
212.1056	11	C14H14NO+
294.1609	999	C18H20N3O+
296.166	22	C16[13]C2H20N3O+
