Mass spectrum: Codeine; LC-ESI-QTOF; MS2; CE: 40 eV; R=35000; [M+H]+
Name: Codeine
Name: (4R,4aR,7S,7aR,12bS)-9-methoxy-3-methyl-2,4,4a,7,7a,13-hexahydro-1H-4,12-methanobenzofuro[3,2-e]isoquinoline-7-ol
Formula: C18H21NO3
Exact mass: 299.1521435
SMILES: CN1CC[C@]23[C@@H]4[C@H]1CC5=C2C(=C(C=C5)OC)O[C@H]3[C@H](C=C4)O
InChI: InChI=1S/C18H21NO3/c1-19-8-7-18-11-4-5-13(20)17(18)22-16-14(21-2)6-3-10(15(16)18)9-12(11)19/h3-6,11-13,17,20H,7-9H2,1-2H3/t11-,12+,13-,17-,18-/m0/s1
Instrument: Bruker maXis Impact
Instrument type: LC-ESI-QTOF
Ms type: MS2
Ion mode: POSITIVE
Ionization: ESI
Fragmentation mode: CID
Collision energy: 40 eV
Resolution: 35000
Column name: Acclaim RSLC C18 2.2um, 2.1x100mm, Thermo
Retention time: 3.548 min
Base peak: 300.1615
Precursor m/z: 300.1594
Precursor type: [M+H]+
m/z	relative intensity	assigned
115.0546	52	C9H7+
116.0593	9	C9H8+
117.0694	6	C9H9+
121.0651	26	C8H9O+
122.0362	9	C7H6O2+
127.0554	23	C10H7+
128.0626	110	C10H8+
129.0702	60	C10H9+
130.0418	5	C9H6O+
130.0752	8	C10H10+
131.05	42	C9H7O+
131.0738	6	C9H9N+
131.086	11	C10H11+
132.0826	12	C9H10N+
133.0659	6	C9H9O+
134.0993	5	C9H12N+
137.0604	125	C8H9O2+
138.0631	11	C7[13]CH9O2+
139.0543	13	C11H7+
140.0614	10	C11H8+
141.0704	153	C11H9+
142.0758	32	C11H10+
143.0498	37	C10H7O+
143.0867	14	C11H11+
144.0576	178	C10H8O+
145.0646	56	C10H9O+
146.036	14	C9H6O2+
146.062	11	C9H8NO+
146.0716	14	C10H10O+
146.0966	6	C10H12N+
147.0422	9	C9H7O2+
147.066	6	C9H9NO+
147.0805	20	C10H11O+
148.0533	5	C9H8O2+
148.0755	9	C9H10NO+
149.0617	10	C9H9O2+
150.0473	7	C12H6+
151.0545	5	C12H7+
151.078	10	C9H11O2+
152.0626	135	C12H8+
153.0705	418	C12H9+
154.0764	126	C12H10+
155.0501	53	C11H7O+
155.0862	416	C12H11+
156.0575	120	C11H8O+
156.0901	56	C11[13]CH11+
157.0649	71	C11H9O+
157.1028	7	C12H13+
158.0731	132	C11H10O+
158.0979	7	C11H12N+
159.0453	33	C10H7O2+
159.0804	242	C11H11O+
160.0507	17	C10H8O2+
160.0832	31	C10[13]CH11O+
161.0604	440	C10H9O2+
162.065	41	C9[13]CH9O2+
162.0917	9	C10H12NO+
163.0639	7	C9H9NO2+
163.076	20	C10H11O2+
164.0705	24	C9H10NO2+
165.0707	862	C13H9+
166.0761	159	C12[13]CH9+
167.0505	6	C12H7O+
167.0855	84	C13H11+
168.0574	186	C12H8O+
168.0895	13	C12[13]CH11+
169.0652	102	C12H9O+
169.1014	23	C13H13+
170.0366	12	C11H6O2+
170.0734	77	C12H10O+
170.0996	8	C12H12N+
171.0455	46	C11H7O2+
171.0812	489	C12H11O+
172.0523	83	C11H8O2+
172.0876	149	C12H12O+
173.0586	25	C11H9O2+
173.0955	61	C12H13O+
174.0682	64	C11H10O2+
174.1003	7	C11[13]CH13O+
175.0757	101	C11H11O2+
176.0794	18	C10[13]CH11O2+
177.0554	14	C10H9O3+
177.0715	36	C14H9+
178.0786	76	C14H10+
179.0867	86	C14H11+
180.0577	23	C13H8O+
180.0935	18	C13[13]CH11+
181.0657	671	C13H9O+
181.1024	54	C14H13+
182.0722	224	C13H10O+
182.1057	13	C13[13]CH13+
183.0454	58	C12H7O2+
183.0812	602	C13H11O+
184.0522	68	C12H8O2+
184.0862	113	C12[13]CH11O+
185.0604	200	C12H9O2+
185.0961	82	C13H13O+
186.0682	147	C12H10O2+
186.1005	15	C12[13]CH13O+
187.076	265	C12H11O2+
187.1126	96	C13H15O+
188.0807	35	C11[13]CH11O2+
188.1154	18	C12[13]CH15O+
189.0564	9	C14H7N+
189.0704	23	C15H9+
189.0914	19	C12H13O2+
190.0795	42	C15H10+
191.0863	156	C15H11+
192.0569	9	C14H8O+
192.0926	32	C14[13]CH11+
193.0657	242	C14H9O+
193.1021	46	C15H13+
194.0734	301	C14H10O+
195.0802	152	C14H11O+
196.052	13	C13H8O2+
196.0857	42	C14H12O+
197.0608	109	C13H9O2+
197.0973	115	C14H13O+
198.0685	232	C13H10O2+
198.1027	29	C14H14O+
199.0764	999	C13H11O2+
200.082	267	C13H12O2+
201.0556	23	C12H9O3+
201.0729	16	C16H9+
201.091	103	C13H13O2+
202.0598	7	C12H10O3+
202.0799	32	C16H10+
203.0727	7	C15H9N+
203.0859	30	C16H11+
204.1026	6	C12H14NO2+
205.0656	30	C15H9O+
205.1015	7	C16H13+
206.0718	19	C15H10O+
207.0815	81	C15H11O+
207.1024	5	C12H15O3+
208.0542	23	C14H8O2+
208.0882	63	C15H12O+
209.0609	228	C14H9O2+
209.0972	91	C15H13O+
210.0678	201	C14H10O2+
210.1043	27	C15H14O+
211.0758	157	C14H11O2+
211.1089	10	C15H15O+
212.0479	7	C13H8O3+
212.084	154	C14H12O2+
213.0541	14	C13H9O3+
213.0916	285	C14H13O2+
214.0617	8	C13H10O3+
214.0962	62	C13[13]CH13O2+
215.108	738	C14H15O2+
216.111	111	C13[13]CH15O2+
217.1103	9	C12[13]C2H15O2+
218.0733	18	C16H10O+
219.0814	80	C16H11O+
220.0881	66	C16H12O+
220.1123	38	C16H14N+
221.0604	52	C15H9O2+
221.0975	59	C16H13O+
222.0666	18	C15H10O2+
222.1015	21	C16H14O+
222.1275	5	C16H16N+
223.0768	210	C15H11O2+
223.1129	14	C16H15O+
224.0822	64	C15H12O2+
224.1081	10	C15H14NO+
225.0923	490	C15H13O2+
226.0632	44	C14H10O3+
226.0965	115	C15H14O2+
227.0724	25	C17H9N+
227.1053	16	C14[13]CH14O2+
228.0787	29	C14H12O3+
228.1035	22	C14H14NO2+
229.0783	14	C13H11NO3+
229.1094	11	C14H15NO2+
230.1197	8	C14H16NO2+
234.0926	9	C16H12NO+
235.0773	16	C16H11O2+
235.099	8	C16H13NO+
236.0844	73	C16H12O2+
236.1081	9	C16H14NO+
237.0907	36	C16H13O2+
238.1007	39	C16H14O2+
238.1248	8	C16H16NO+
239.0706	15	C15H11O3+
239.1067	32	C16H15O2+
239.1326	6	C16H17NO+
240.0807	9	C18H10N+
240.1106	11	C16H16O2+
240.1382	6	C16H18NO+
241.0869	406	C15H13O3+
241.1226	24	C16H17O2+
242.0901	66	C14[13]CH13O3+
242.1185	11	C15H16NO2+
243.1026	274	C15H15O3+
244.1058	49	C15H16O3+
245.1083	7	C14[13]CH16O3+
248.1081	24	C17H14NO+
249.1153	11	C17H15NO+
250.1228	36	C17H16NO+
251.1088	50	C17H15O2+
251.1308	14	C17H17NO+
252.1044	35	C16H14NO2+
253.1252	22	C17H17O2+
254.0946	12	C16H14O3+
254.1198	17	C16H16NO2+
256.1329	9	C16H18NO2+
266.1196	123	C17H16NO2+
267.1252	66	C17H17NO2+
268.1321	19	C16[13]CH17NO2+
269.1188	16	C17H17O3+
270.121	5	C17H18O3+
272.1323	5	C16H18NO3+
280.1316	5	C18H18NO2+
282.1499	80	C18H20NO2+
283.1518	15	C17[13]CH20NO2+
285.1371	19	C17H19NO3+
300.1613	842	C18H22NO3+
301.1641	164	C17[13]CH22NO3+
302.1674	21	C16[13]C2H22NO3+
