Mass spectrum: Terbutaline; LC-ESI-QTOF; MS2; CE: 20 eV; R=35000; [M+H]+
Name: Terbutaline
Name: 5-[2-(tert-butylamino)-1-hydroxyethyl]benzene-1,3-diol
Formula: C12H19NO3
Exact mass: 225.1364935
SMILES: CC(C)(C)NCC(c1cc(cc(c1)O)O)O
InChI: InChI=1S/C12H19NO3/c1-12(2,3)13-7-11(16)8-4-9(14)6-10(15)5-8/h4-6,11,13-16H,7H2,1-3H3
Instrument: Bruker maXis Impact
Instrument type: LC-ESI-QTOF
Ms type: MS2
Ion mode: POSITIVE
Ionization: ESI
Fragmentation mode: CID
Collision energy: 20 eV
Resolution: 35000
Column name: Acclaim RSLC C18 2.2um, 2.1x100mm, Thermo
Retention time: 3.1 min
Base peak: 220.1442
Precursor m/z: 226.1438
Precursor type: [M+H]+
m/z	relative intensity	assigned
125.0587	60	C7H9O2+
135.0439	23	C8H7O2+
152.0701	999	C8H10NO2+
153.0725	95	C7[13]CH10NO2+
170.0801	23	C8H12NO3+
226.1451	19	C12H20NO3+
