Mass spectrum: Diclofenac; LC-ESI-QTOF; MS2; CE: 20 eV; R=35000; [M+H]+
Name: Diclofenac
Name: 2-[2-(2,6-dichloroanilino)phenyl]acetic acid
Formula: C14H11Cl2NO2
Exact mass: 295.0166840
SMILES: c1ccc(c(c1)CC(=O)O)Nc2c(cccc2Cl)Cl
InChI: InChI=1S/C14H11Cl2NO2/c15-10-5-3-6-11(16)14(10)17-12-7-2-1-4-9(12)8-13(18)19/h1-7,17H,8H2,(H,18,19)
Instrument: Bruker maXis Impact
Instrument type: LC-ESI-QTOF
Ms type: MS2
Ion mode: POSITIVE
Ionization: ESI
Fragmentation mode: CID
Collision energy: 20 eV
Resolution: 35000
Column name: Acclaim RSLC C18 2.2um, 2.1x100mm, Thermo
Retention time: 10.2 min
Base peak: 376.9928
Precursor m/z: 296.024
Precursor type: [M+H]+
m/z	relative intensity	assigned
214.0338	202	C11H12Cl2+
215.0481	999	C13H10ClN+
216.0459	98	C12H9ClN2+
217.0455	151	C13H10[37]ClN+
250.0151	231	C13H10Cl2N+
252.0065	127	C13H10Cl2O+
