Mass spectrum: 4'-Methyl-alpha-pyrrolidinopropiophenone; LC-ESI-QTOF; MS2; CE: RAMP 18.7-28.0 eV; R=35000; [M+H]+
Name: 4'-Methyl-alpha-pyrrolidinopropiophenone
Name: 4-MePPP
Name: 1-(4-methylphenyl)-2-pyrrolidin-1-ylpropan-1-one
Formula: C14H19NO
Exact mass: 217.1466642
SMILES: Cc1ccc(cc1)C(=O)C(C)N2CCCC2
InChI: InChI=1S/C14H19NO/c1-11-5-7-13(8-6-11)14(16)12(2)15-9-3-4-10-15/h5-8,12H,3-4,9-10H2,1-2H3
Instrument: Bruker maXis Impact
Instrument type: LC-ESI-QTOF
Ms type: MS2
Ion mode: POSITIVE
Ionization: ESI
Fragmentation mode: CID
Collision energy: RAMP 18.7-28.0 eV
Resolution: 35000
Column name: Acclaim RSLC C18 2.2um, 2.1x100mm, Thermo
Retention time: 4.899 min
Base peak: 218.1546
Precursor m/z: 218.1539
Precursor type: [M+H]+
m/z	relative intensity	assigned
55.0533	7	C4H7+
56.0484	11	C3H6N+
70.0641	157	C4H8N+
71.0683	6	C3[13]CH8N+
72.0798	129	C4H10N+
84.0799	86	C5H10N+
91.0536	52	C7H7+
93.0694	13	C7H9+
98.0964	931	C6H12N+
99.0994	42	C5[13]CH12N+
105.0698	8	C8H9+
115.0531	11	C9H7+
117.0693	53	C9H9+
118.0729	5	C8[13]CH9+
119.0856	999	C9H11+
120.0887	73	C8[13]CH11+
121.0646	5	C8H9O+
126.0911	7	C7H12NO+
129.0692	38	C10H9+
131.0853	11	C10H11+
135.0803	5	C9H11O+
147.08	590	C10H11O+
148.0833	50	C9[13]CH11O+
174.1269	6	C12H16N+
184.1109	6	C13H14N+
185.1192	22	C13H15N+
198.1267	10	C14H16N+
200.1424	19	C14H18N+
203.1295	16	C13H17NO+
216.1378	7	C14H18NO+
218.1543	805	C14H20NO+
219.157	149	C13[13]CH20NO+
220.1595	12	C12[13]C2H20NO+
