Mass spectrum: Fentanyl; LC-ESI-QTOF; MS2; CE: 20 eV; R=35000; [M+H]+
Name: Fentanyl
Name: N-phenyl-N-[1-(2-phenylethyl)piperidin-4-yl]propanamide
Formula: C22H28N2O
Exact mass: 336.2201635
SMILES: CCC(=O)N(C1CCN(CCC2=CC=CC=C2)CC1)C1=CC=CC=C1
InChI: InChI=1S/C22H28N2O/c1-2-22(25)24(20-11-7-4-8-12-20)21-14-17-23(18-15-21)16-13-19-9-5-3-6-10-19/h3-12,21H,2,13-18H2,1H3
Instrument: Bruker maXis Impact
Instrument type: LC-ESI-QTOF
Ms type: MS2
Ion mode: POSITIVE
Ionization: ESI
Fragmentation mode: CID
Collision energy: 20 eV
Resolution: 35000
Column name: Acclaim RSLC C18 2.2um, 2.1x100mm, Thermo
Retention time: 6.1 min
Base peak: 337.2278
Precursor m/z: 337.2274
Precursor type: [M+H]+
m/z	relative intensity	assigned
188.1427	344	C13H18N+
189.1458	31	C12[13]CH18N+
337.2283	999	C22H29N2O+
338.2312	159	C21[13]CH29N2O+
339.2338	16	C20[13]C2H29N2O+
