Mass spectrum: Picolinafen; LC-ESI-QTOF; MS2; CE: 50 eV; R=35000; [M+H]+
Name: Picolinafen
Name: N-(4-fluorophenyl)-6-[3-(trifluoromethyl)phenoxy]pyridine-2-carboxamide
Formula: C19H12F4N2O2
Exact mass: 376.0834905
SMILES: FC1=CC=C(NC(=O)C2=NC(OC3=CC=CC(=C3)C(F)(F)F)=CC=C2)C=C1
InChI: InChI=1S/C19H12F4N2O2/c20-13-7-9-14(10-8-13)24-18(26)16-5-2-6-17(25-16)27-15-4-1-3-12(11-15)19(21,22)23/h1-11H,(H,24,26)
Instrument: Bruker maXis Impact
Instrument type: LC-ESI-QTOF
Ms type: MS2
Ion mode: POSITIVE
Ionization: ESI
Fragmentation mode: CID
Collision energy: 50 eV
Resolution: 35000
Column name: Acclaim RSLC C18 2.2um, 2.1x100mm, Thermo
Retention time: 12.336 min
Base peak: 377.0904
Precursor m/z: 377.0908
Precursor type: [M+H]+
m/z	relative intensity	assigned
141.0566	8	C10H7N+
145.025	268	C7H4F3+
146.028	17	C6[13]CH4F3+
163.0347	9	C10H5F2+
173.0308	64	C7H5F2NO2+
174.0338	7	C6[13]CH5F2NO2+
183.0406	46	C10H6F3+
188.0497	10	C14H6N+
190.0453	78	C11H7FO2+
191.047	11	C10[13]CH7FO2+
210.0517	108	C11H8F2O2+
211.0543	13	C10[13]CH8F2O2+
218.04	13	C15H5FN+
238.047	999	C15H6F2N+
239.05	103	C14[13]CH6F2N+
240.0533	8	C13[13]C2H6F2N+
256.0574	68	C15H8F2NO+
257.0603	11	C14[13]CH8F2NO+
359.0802	32	C19H11F4N2O+
360.0831	9	C18[13]CH11F4N2O+
