Mass spectrum: Diethylene glycol monobutyl ether acetate; GC-APCI-QTOF; MS2; CE: 30 eV; R=35000; [M+H]+
Name: Diethylene glycol monobutyl ether acetate
Formula: C10H20O4
Exact mass: 204.1362
SMILES: CCCCOCCOCCOC(=O)C
InChI: InChI=1S/C10H20O4/c1-3-4-5-12-6-7-13-8-9-14-10(2)11/h3-9H2,1-2H3
Instrument: Bruker 450 GC coupled to maXis Impact
Instrument type: GC-APCI-QTOF
Ms type: MS2
Ion mode: POSITIVE
Ionization: APCI
Fragmentation mode: CID
Collision energy: 30 eV
Resolution: 35000
Column name: Rxi-5Sil MS column, 30m, 0.25mm i.d., 0.25Âµm film thickness, Restek
Retention time: 11.032 min
Base peak: 205.1444
Precursor m/z: 205.1434
Precursor type: [M+H]+
m/z	relative intensity	assigned
87.0456	999	C4H7O2+
