Mass spectrum: Aflatoxin B2; LC-ESI-QTOF; MS2; CE: 40 eV; R=35000; [M+H]+
Name: Aflatoxin B2
Name: Dihydroaflatoxin B1
Name: 11-methoxy-6,8,19-trioxapentacyclo[10.7.0.02,9.03,7.013,17]nonadeca-1,9,11,13(17)-tetraene-16,18-dione
Class: Natural Product; Fungal metabolite
Formula: C17H14O6
Exact mass: 314.079
SMILES: COC1=C2C3=C(C(=O)CC3)C(=O)OC2=C4C5CCOC5OC4=C1
InChI: InChI=1S/C17H14O6/c1-20-10-6-11-14(8-4-5-21-17(8)22-11)15-13(10)7-2-3-9(18)12(7)16(19)23-15/h6,8,17H,2-5H2,1H3
Instrument: Bruker maXis Impact
Instrument type: LC-ESI-QTOF
Ms type: MS2
Ion mode: POSITIVE
Ionization: ESI
Fragmentation mode: CID
Collision energy: 40 eV
Resolution: 35000
Column name: Acclaim RSLC C18 2.2um, 2.1x100mm, Thermo
Retention time: 6.484 min
Base peak: 315.0863
Precursor m/z: 315.0863
Precursor type: [M+H]+
m/z	relative intensity	assigned
115.0539	7	C9H7+
128.0618	13	C10H8+
129.069	9	C10H9+
131.0493	5	C9H7O+
133.065	5	C9H9O+
141.0692	12	C11H9+
142.0767	7	C11H10+
143.0484	5	C10H7O+
143.0849	6	C11H11+
144.0573	6	C10H8O+
145.0642	13	C10H9O+
147.0435	7	C9H7O2+
149.0598	7	C9H9O2+
152.0618	9	C12H8+
153.0695	22	C12H9+
154.0775	10	C12H10+
155.0484	5	C11H7O+
155.0852	9	C12H11+
157.0636	12	C11H9O+
159.08	6	C11H11O+
160.0515	15	C10H8O2+
161.059	23	C10H9O2+
165.0693	9	C13H9+
169.0647	14	C12H9O+
170.0721	12	C12H10O+
171.0437	14	C11H7O2+
171.0799	18	C12H11O+
172.051	7	C11H8O2+
173.0593	20	C11H9O2+
174.0674	7	C11H10O2+
175.0391	5	C10H7O3+
175.0746	20	C11H11O2+
177.0537	11	C10H9O3+
179.0697	5	C10H11O3+
181.0646	20	C13H9O+
182.0719	13	C13H10O+
183.0801	11	C13H11O+
185.0593	30	C12H9O2+
185.0956	19	C13H13O+
186.0649	7	C12H10O2+
187.0394	14	C11H7O3+
187.0754	27	C12H11O2+
188.0465	43	C11H8O3+
188.0829	11	C12H12O2+
189.054	49	C11H9O3+
190.0613	16	C11H10O3+
191.0683	8	C11H11O3+
193.0864	15	C11H13O3+
197.0596	18	C13H9O2+
198.0669	51	C13H10O2+
199.0388	16	C12H7O3+
199.0746	39	C13H11O2+
200.0457	13	C12H8O3+
200.0806	14	C13H12O2+
201.0539	42	C12H9O3+
201.0908	8	C13H13O2+
202.0612	10	C12H10O3+
203.0334	12	C11H7O4+
203.07	180	C12H11O3+
204.0733	22	C12H12O3+
205.0492	13	C11H9O4+
209.0593	14	C14H9O2+
210.0653	10	C14H10O2+
211.0749	8	C14H11O2+
212.0467	10	C13H8O3+
213.0542	29	C13H9O3+
213.0904	52	C14H13O2+
214.0609	14	C13H10O3+
215.034	13	C12H7O4+
215.07	42	C13H11O3+
216.0412	64	C12H8O4+
216.0774	66	C13H12O3+
217.0492	89	C12H9O4+
217.0837	19	C13H13O3+
218.0551	22	C12H10O4+
219.0642	8	C12H11O4+
225.0543	12	C14H9O3+
226.0262	6	C13H6O4+
226.0622	136	C14H10O3+
227.0337	26	C13H7O4+
227.0694	119	C14H11O3+
228.039	10	C13H8O4+
228.0755	31	C14H12O3+
229.0495	66	C13H9O4+
229.0841	10	C14H13O3+
230.0546	15	C13H10O4+
231.065	148	C13H11O4+
231.1006	29	C14H15O3+
232.0687	23	C13H12O4+
237.0552	11	C15H9O3+
238.0615	9	C15H10O3+
239.0339	9	C14H7O4+
241.0491	40	C14H9O4+
241.0855	95	C15H13O3+
242.0559	16	C14H10O4+
242.0893	20	C15H14O3+
243.0649	292	C14H11O4+
244.0364	51	C13H8O5+
244.0716	90	C14H12O4+
245.0438	156	C13H9O5+
245.0763	15	C14H13O4+
246.0487	25	C13H10O5+
247.0599	24	C13H11O5+
248.0315	7	C12H8O6+
253.049	53	C15H9O4+
254.0208	13	C14H6O5+
254.0569	109	C15H10O4+
255.0269	5	C14H7O5+
255.0641	94	C15H11O4+
256.0365	12	C14H8O5+
256.0674	15	C15H12O4+
257.0444	96	C14H9O5+
257.0799	9	C15H13O4+
258.0487	19	C14H10O5+
259.0601	999	C14H11O5+
260.0635	169	C14H12O5+
265.049	8	C16H9O4+
269.0454	5	C15H9O5+
269.0805	87	C16H13O4+
270.0522	18	C15H10O5+
270.084	18	C16H14O4+
271.0599	287	C15H11O5+
271.0965	29	C16H15O4+
272.0668	213	C15H12O5+
273.0389	48	C14H9O6+
273.072	38	C15H13O5+
274.0438	9	C14H10O6+
282.052	69	C16H10O5+
283.056	16	C16H11O5+
284.0665	5	C16H12O5+
285.0386	11	C15H9O6+
285.0752	48	C16H13O5+
286.0811	24	C16H14O5+
287.0912	709	C16H15O5+
297.0756	75	C17H13O5+
298.0793	15	C17H14O5+
300.063	34	C16H12O6+
301.0658	6	C16H13O6+
313.0701	7	C17H13O6+
315.086	492	C17H15O6+
