Mass spectrum: Gabapentin; LC-ESI-QTOF; MS2; CE: 30 eV; R=35000; [M+H]+
Name: Gabapentin
Name: 2-[1-(aminomethyl)cyclohexyl]acetic acid
Formula: C9H17NO2
Exact mass: 171.1259288
SMILES: NCC1(CC(O)=O)CCCCC1
InChI: InChI=1S/C9H17NO2/c10-7-9(6-8(11)12)4-2-1-3-5-9/h1-7,10H2,(H,11,12)
Instrument: Bruker maXis Impact
Instrument type: LC-ESI-QTOF
Ms type: MS2
Ion mode: POSITIVE
Ionization: ESI
Fragmentation mode: CID
Collision energy: 30 eV
Resolution: 35000
Column name: Acclaim RSLC C18 2.2um, 2.1x100mm, Thermo
Retention time: 3.7 min
Base peak: 172.1323
Precursor m/z: 172.1332
Precursor type: [M+H]+
m/z	relative intensity	assigned
119.0844	430	C9H11+
136.1104	444	C9H14N+
137.0955	999	C9H13O+
154.1215	762	C9H16NO+
