Mass spectrum: 4-Methylbenzotriazole; LC-ESI-QTOF; MS2; CE: RAMP 15.6-23.4 eV; R=35000; [M+H]+
Name: 4-Methylbenzotriazole
Name: 4-methyl-2H-benzotriazole
Formula: C7H7N3
Exact mass: 133.0639972
SMILES: Cc1cccc2c1[nH]nn2
InChI: InChI=1S/C7H7N3/c1-5-3-2-4-6-7(5)9-10-8-6/h2-4H,1H3,(H,8,9,10)
Instrument: Bruker maXis Impact
Instrument type: LC-ESI-QTOF
Ms type: MS2
Ion mode: POSITIVE
Ionization: ESI
Fragmentation mode: CID
Collision energy: RAMP 15.6-23.4 eV
Resolution: 35000
Column name: Acclaim RSLC C18 2.2um, 2.1x100mm, Thermo
Retention time: 5.926 min
Base peak: 134.0711
Precursor m/z: 134.0713
Precursor type: [M+H]+
m/z	relative intensity	assigned
51.022	11	C4H3+
53.0375	49	C4H5+
65.0374	7	C5H5+
66.0454	15	C5H6+
67.0405	16	C4H5N+
77.0376	59	C6H5+
78.033	9	C5H4N+
79.0534	842	C6H7+
80.0485	29	C5H6N+
80.0565	36	C5[13]CH7+
81.0321	5	C3H3N3+
89.038	14	C7H5+
91.0408	12	C6H5N+
95.0488	207	C4H5N3+
96.0514	12	C3[13]CH5N3+
105.045	103	C6H5N2+
106.0657	153	C7H8N+
107.068	6	C6[13]CH8N+
134.0705	999	C7H8N3+
135.0736	117	C6[13]CH8N3+
