Mass spectrum: Oseltamivir-carboxylate; LC-ESI-QTOF; MS2; CE: 20 eV; R=35000; [M+H]+
Name: Oseltamivir-carboxylate
Name: Oseltamivir acid
Name: (3R,4R,5S)-4-acetamido-5-azaniumyl-3-pentan-3-yloxycyclohexene-1-carboxylate
Formula: C14H24N2O4
Exact mass: 284.1736072
SMILES: CCC(CC)O[C@@H]1C=C(C[C@H](N)[C@H]1NC(C)=O)C(O)=O
InChI: InChI=1S/C14H24N2O4/c1-4-10(5-2)20-12-7-9(14(18)19)6-11(15)13(12)16-8(3)17/h7,10-13H,4-6,15H2,1-3H3,(H,16,17)(H,18,19)/t11-,12+,13+/m0/s1
Instrument: Bruker maXis Impact
Instrument type: LC-ESI-QTOF
Ms type: MS2
Ion mode: POSITIVE
Ionization: ESI
Fragmentation mode: CID
Collision energy: 20 eV
Resolution: 35000
Column name: Acclaim RSLC C18 2.2um, 2.1x100mm, Thermo
Retention time: 4.6 min
Base peak: 150.1116
Precursor m/z: 285.1809
Precursor type: [M+H]+
m/z	relative intensity	assigned
119.0606	19	C7H7N2+
120.0436	132	C7H6NO+
136.0757	31	C8H10NO+
137.07	133	C7H9N2O+
138.0544	999	C7H8NO2+
139.0382	40	C7H7O3+
139.0575	98	C6[13]CH8NO2+
156.0657	28	C7H10NO3+
161.0701	19	C9H9N2O+
162.0542	60	C9H8NO2+
179.0811	43	C9H11N2O2+
180.0646	358	C9H10NO3+
181.0686	46	C8[13]CH10NO3+
197.0912	260	C9H13N2O3+
198.0756	295	C9H12NO4+
198.0947	32	C13H12NO+
199.0772	36	C13H11O2+
215.1016	105	C9H15N2O4+
268.1558	31	C14H22NO4+
