Mass spectrum: 4-Methylbenzylidene camphor; LC-ESI-QTOF; MS2; CE: 20 eV; R=35000; [M+H]+
Name: 4-Methylbenzylidene camphor
Name: 1,7,7-Trimethyl-3-(4-methylbenzylidene)bicyclo[2.2.1]heptan-2-one
Name: 1,7,7-trimethyl-3-[(4-methylphenyl)methylidene]bicyclo[2.2.1]heptan-2-one
Formula: C18H22O
Exact mass: 254.1670653
SMILES: CC1=CC=C(C=C2C3CCC(C)(C2=O)C3(C)C)C=C1
InChI: InChI=1S/C18H22O/c1-12-5-7-13(8-6-12)11-14-15-9-10-18(4,16(14)19)17(15,2)3/h5-8,11,15H,9-10H2,1-4H3
Instrument: Bruker maXis Impact
Instrument type: LC-ESI-QTOF
Ms type: MS2
Ion mode: POSITIVE
Ionization: ESI
Fragmentation mode: CID
Collision energy: 20 eV
Resolution: 35000
Column name: Acclaim RSLC C18 2.2um, 2.1x100mm, Thermo
Retention time: 12.680 min
Base peak: 255.1739
Precursor m/z: 255.1743
Precursor type: [M+H]+
m/z	relative intensity	assigned
111.0797	7	C7H11O+
117.0687	7	C9H9+
119.0484	33	C8H7O+
119.0845	63	C9H11+
120.0881	5	C8[13]CH11+
121.0645	6	C8H9O+
121.1001	14	C9H13+
123.0793	18	C8H11O+
128.0602	6	C10H8+
129.0683	10	C10H9+
130.0757	5	C10H10+
131.0847	67	C10H11+
132.0881	7	C9[13]CH11+
133.0997	20	C10H13+
135.0799	10	C9H11O+
135.1161	21	C10H15+
137.0948	24	C9H13O+
141.0691	9	C11H9+
142.0762	17	C11H10+
143.084	80	C11H11+
144.0884	9	C10[13]CH11+
145.0998	132	C11H13+
146.1033	12	C10[13]CH13+
147.079	9	C10H11O+
147.1157	30	C11H15+
149.0946	8	C10H13O+
150.1007	5	C10H14O+
155.0845	28	C12H11+
156.0911	18	C12H12+
157.0999	323	C12H13+
158.1032	42	C11[13]CH13+
159.0793	16	C11H11O+
159.1156	78	C12H15+
160.1191	12	C11[13]CH15+
161.0937	8	C11H13O+
163.1102	90	C11H15O+
164.1134	9	C10[13]CH15O+
165.0691	9	C13H9+
166.0761	9	C13H10+
167.0836	8	C13H11+
169.0994	65	C13H13+
170.1034	10	C12[13]CH13+
171.0792	85	C12H11O+
171.1157	336	C13H15+
172.0835	12	C11[13]CH11O+
172.1195	40	C12[13]CH15+
173.0952	42	C12H13O+
173.1303	8	C13H17+
174.0979	5	C11[13]CH13O+
179.0836	5	C14H11+
180.092	19	C14H12+
181.1002	44	C14H13+
182.1071	16	C14H14+
183.1157	168	C14H15+
184.1193	25	C13[13]CH15+
185.0949	142	C13H13O+
185.1317	37	C14H17+
186.0992	25	C12[13]CH13O+
187.1101	21	C13H15O+
193.1006	17	C15H13+
194.107	14	C15H14+
195.1157	269	C15H15+
196.1194	41	C14[13]CH15+
197.0943	10	C14H13O+
197.1315	155	C15H17+
198.1021	5	C14H14O+
198.1352	21	C14[13]CH17+
199.1107	242	C14H15O+
200.1143	38	C13[13]CH15O+
207.1156	14	C16H15+
208.1236	33	C16H16+
209.131	58	C16H17+
210.134	10	C15[13]CH17+
211.1104	45	C15H15O+
211.1471	64	C16H19+
212.1187	466	C15H16O+
213.126	384	C15H17O+
213.163	40	C16H21+
214.1291	57	C14[13]CH17O+
214.1655	7	C15[13]CH21+
222.1396	42	C17H18+
223.1434	7	C16[13]CH18+
226.1345	11	C16H18O+
227.1421	82	C16H19O+
227.1781	32	C17H23+
228.1453	14	C15[13]CH19O+
228.1799	5	C16[13]CH23+
235.1503	5	C18H19+
237.1632	322	C18H21+
238.166	49	C17[13]CH21+
240.1495	12	C17H20O+
255.1739	999	C18H23O+
256.1767	156	C17[13]CH23O+
257.1814	12	C16[13]C2H23O+
