Mass spectrum: Imidacloprid-urea; LC-ESI-QTOF; MS2; CE: 50 eV; R=35000; [M+H]+
Name: Imidacloprid-urea
Name: 1-[(6-chloropyridin-3-yl)methyl]imidazolidin-2-one
Formula: C9H10ClN3O
Exact mass: 211.0512396
SMILES: c1cc(ncc1CN2CCN=C2O)Cl
InChI: InChI=1S/C9H10ClN3O/c10-8-2-1-7(5-12-8)6-13-4-3-11-9(13)14/h1-2,5H,3-4,6H2,(H,11,14)
Instrument: Bruker maXis Impact
Instrument type: LC-ESI-QTOF
Ms type: MS2
Ion mode: POSITIVE
Ionization: ESI
Fragmentation mode: CID
Collision energy: 50 eV
Resolution: 35000
Column name: Acclaim RSLC C18 2.2um, 2.1x100mm, Thermo
Retention time: 4.6 min
Base peak: 212.058
Precursor m/z: 212.0585
Precursor type: [M+H]+
m/z	relative intensity	assigned
114.0101	123	
118.0512	81	C7H6N2+
119.0594	48	C7H7N2+
120.0664	32	C7H8N2+
123.9962	30	C6H3ClN+
126.0096	999	C6H5ClN+
127.0142	954	C5[13]CH6ClN+
128.0253	687	C6H7ClN+
129.0284	44	C5[13]CH7ClN+
130.0222	300	C6H7[37]ClN+
131.0596	138	C8H7N2+
132.067	73	C8H8N2+
133.074	102	C8H9N2+
137.0812	29	C8H11NO+
140.0249	26	C8H2N3+
141.0208	299	C9H3NO+
142.0048	40	C6H5ClNO+
142.0255	31	CH7ClN4O2+
143.0184	111	ClH6N5O2+
144.02	97	C7H2N3O+
151.005	50	C7H4ClN2+
151.0512	23	C4H10ClN3O+
152.0124	37	C7H5ClN2+
153.0198	125	C7H6ClN2+
155.0174	44	CH6ClN5O2+
165.0209	23	C8H6ClN2+
166.0279	31	C8H7ClN2+
169.0141	46	C7H6ClN2O+
194.0478	37	C9H9ClN3+
