Mass spectrum: Scopolamine-N-butyl; LC-ESI-QTOF; MS2; CE: 10 eV; R=35000; [M+H]+
Name: Scopolamine-N-butyl
Name: [(1S,2R,4S,5S)-9-butyl-9-methyl-3-oxa-9-azoniatricyclo[3.3.1.0^{2,4}]nonan-7-yl] 3-hydroxy-2-phenylpropanoate
Formula: [C21H30NO4]+
Exact mass: 360.2174834
SMILES: CCCC[N+]1(C)[C@H]2CC(C[C@H]1[C@@H]1O[C@H]21)OC(=O)C(CO)C1=CC=CC=C1
InChI: InChI=1S/C21H30NO4/c1-3-4-10-22(2)17-11-15(12-18(22)20-19(17)26-20)25-21(24)16(13-23)14-8-6-5-7-9-14/h5-9,15-20,23H,3-4,10-13H2,1-2H3/q+1/t15?,16?,17-,18-,19-,20+,22?/m0/s1
Instrument: Bruker maXis Impact
Instrument type: LC-ESI-QTOF
Ms type: MS2
Ion mode: POSITIVE
Ionization: ESI
Fragmentation mode: CID
Collision energy: 10 eV
Resolution: 35000
Column name: Acclaim RSLC C18 2.2um, 2.1x100mm, Thermo
Retention time: 5.738 min
Base peak: 376.2388
Precursor m/z: 361.2248
Precursor type: [M+H]+
m/z	relative intensity	assigned
360.2193	999	C21H30NO4+
361.2209	263	C20[13]CH30NO4+
