Mass spectrum: Triphenylphosphate; LC-ESI-QTOF; MS2; CE: 30 eV; R=35000; [M+H]+
Name: Triphenylphosphate
Name: triphenyl phosphate
Formula: C18H15O4P
Exact mass: 326.0707956
SMILES: O=P(OC1=CC=CC=C1)(OC1=CC=CC=C1)OC1=CC=CC=C1
InChI: InChI=1S/C18H15O4P/c19-23(20-16-10-4-1-5-11-16,21-17-12-6-2-7-13-17)22-18-14-8-3-9-15-18/h1-15H
Instrument: Bruker maXis Impact
Instrument type: LC-ESI-QTOF
Ms type: MS2
Ion mode: POSITIVE
Ionization: ESI
Fragmentation mode: CID
Collision energy: 30 eV
Resolution: 35000
Column name: Acclaim RSLC C18 2.2um, 2.1x100mm, Thermo
Retention time: 11.069 min
Base peak: 327.0775
Precursor m/z: 327.0781
Precursor type: [M+H]+
m/z	relative intensity	assigned
138.9933	11	C6H4O2P+
151.0526	18	C5H12O3P+
152.061	446	C12H8+
153.0685	611	C12H9+
154.0724	76	C11[13]CH9+
155.0735	9	C8H11O3+
157.0024	6	C6H6O3P+
161.0957	9	C11H13O+
165.0534	7	C9H9O3+
168.0558	75	C12H8O+
169.063	43	C12H9O+
170.0692	9	C11[13]CH9O+
171.0795	90	C12H11O+
172.082	7	C11[13]CH11O+
175.0153	47	C6H8O4P+
179.0591	22	C10H12OP+
181.0756	11	C10H14OP+
187.0303	15	C11H8OP+
202.0771	19	C16H10+
203.0818	11	C9H16O3P+
205.0396	9	C11H10O2P+
215.0251	207	C12H8O2P+
216.0304	43	C11[13]CH8O2P+
227.0846	39	C18H11+
228.0926	178	C18H12+
229.0995	191	C18H13+
230.1039	40	C17[13]CH13+
233.0356	879	C12H10O3P+
234.0391	120	C11[13]CH10O3P+
235.0409	8	C10[13]C2H10O3P+
251.0459	601	C12H12O4P+
252.0493	88	C11[13]CH12O4P+
253.049	8	C15H9O4+
291.0557	14	C18H12O2P+
292.0581	8	C18H13O2P+
309.0677	39	C18H14O3P+
310.0764	6	C17[13]CH14O3P+
327.077	999	C18H16O4P+
328.0799	226	C17[13]CH16O4P+
329.0827	24	C16[13]C2H16O4P+
