Mass spectrum: o-Dianisidine; LC-ESI-QTOF; MS2; CE: 30 eV; R=35000; [M+H]+
Name: o-Dianisidine
Name: 3,3`-Dimethoxybenzidine
Formula: C14H16N2O2
Exact mass: 244.1211778
SMILES: COC1=CC(=CC=C1N)C1=CC(OC)=C(N)C=C1
InChI: InChI=1S/C14H16N2O2/c1-17-13-7-9(3-5-11(13)15)10-4-6-12(16)14(8-10)18-2/h3-8H,15-16H2,1-2H3
Instrument: Bruker maXis Impact
Instrument type: LC-ESI-QTOF
Ms type: MS2
Ion mode: POSITIVE
Ionization: ESI
Fragmentation mode: CID
Collision energy: 30 eV
Resolution: 35000
Column name: Acclaim RSLC C18 2.2um, 2.1x100mm, Thermo
Retention time: 5.520 min
Base peak: 245.1274
Precursor m/z: 245.1285
Precursor type: [M+H]+
m/z	relative intensity	assigned
130.0638	6	C9H8N+
143.0715	11	C10H9N+
154.0637	9	C11H8N+
158.0825	69	C10H10N2+
159.0863	6	C9[13]CH10N2+
169.0743	12	C11H9N2+
170.0823	84	C11H10N2+
171.0886	17	C11H11N2+
181.0743	13	C12H9N2+
182.0822	32	C12H10N2+
183.0881	5	C11[13]CH10N2+
184.0973	7	C12H12N2+
186.0775	153	C11H10N2O+
187.0854	402	C11H11N2O+
188.0883	36	C10[13]CH11N2O+
197.07	5	C12H9N2O+
198.0778	200	C12H10N2O+
199.0825	35	C11[13]CH10N2O+
201.1013	999	C12H13N2O+
202.1045	105	C11[13]CH13N2O+
203.1065	7	C10[13]C2H13N2O+
213.1013	121	C13H13N2O+
214.1056	23	C12[13]CH13N2O+
215.0806	201	C12H11N2O2+
216.0839	24	C11[13]CH11N2O2+
229.0962	73	C13H13N2O2+
230.104	289	C13H14N2O2+
231.1071	36	C12[13]CH14N2O2+
244.1196	23	C14H16N2O2+
245.1266	10	C14H17N2O2+
