Mass spectrum: Butyl stearate; GC-APCI-QTOF; MS2; CE: 10 eV; R=35000; [M+H]+
Name: Butyl stearate
Formula: C22H44O2
Exact mass: 340.3341
SMILES: CCCCCCCCCCCCCCCCCC(=O)OCCCC
InChI: InChI=1S/C22H44O2/c1-3-5-7-8-9-10-11-12-13-14-15-16-17-18-19-20-22(23)24-21-6-4-2/h3-21H2,1-2H3
Instrument: Bruker 450 GC coupled to maXis Impact
Instrument type: GC-APCI-QTOF
Ms type: MS2
Ion mode: POSITIVE
Ionization: APCI
Fragmentation mode: CID
Collision energy: 10 eV
Resolution: 35000
Column name: Rxi-5Sil MS column, 30m, 0.25mm i.d., 0.25Âµm film thickness, Restek
Retention time: 22.597 min
Base peak: 283.2621
Precursor m/z: 341.3414
Precursor type: [M+H]+
m/z	relative intensity	assigned
157.1242	14	C9H17O2+
159.1404	11	C9H19O2+
163.1499	12	C12H19+
171.1394	25	C10H19O2+
185.1562	25	C11H21O2+
209.1904	11	C14H25O+
241.2191	23	C15H29O2+
247.2407	31	C18H31+
265.2539	79	C18H33O+
266.2575	19	C18H34O+
283.2641	93	C18H35O2+
284.2732	27	C18H36O2+
285.2785	999	C18H37O2+
286.2823	173	C18H38O2+
287.2918	12	C18H39O2+
326.3117	15	C21H42O2+
339.3275	185	C22H43O2+
340.3308	44	C22H44O2+
341.3415	33	C22H45O2+
