Mass spectrum: Lauric isopropanolamide; LC-ESI-QTOF; MS2; CE: Ramp 22.2-33.4 eV; R=35000; [M-H]-
Name: Lauric isopropanolamide
Name: Dodecanamide, N-(2-hydroxypropyl)-
Name: N-(2-hydroxypropyl)dodecanamide
Formula: C15H31NO2
Exact mass: 257.2354792
SMILES: CCCCCCCCCCCC(=O)NCC(C)O
InChI: InChI=1S/C15H31NO2/c1-3-4-5-6-7-8-9-10-11-12-15(18)16-13-14(2)17/h14,17H,3-13H2,1-2H3,(H,16,18)
Instrument: Bruker maXis Impact
Instrument type: LC-ESI-QTOF
Ms type: MS2
Ion mode: NEGATIVE
Ionization: ESI
Fragmentation mode: CID
Collision energy: Ramp 22.2-33.4 eV
Resolution: 35000
Column name: Acclaim RSLC C18 2.2um, 2.1x100mm, Thermo
Retention time: 12.039 min
Base peak: 59.0134
Precursor m/z: 256.2282
Precursor type: [M-H]-
m/z	relative intensity	assigned
198.1857	806	C12H24NO-
212.2004	889	C13H26NO-
238.2224	999	C15H28NO-
240.1928	742	C14H26NO2-
254.2083	696	C15H28NO2-
