Mass spectrum: D617; LC-ESI-QTOF; MS2; CE: 20 eV; R=35000; [M+H]+
Name: D617
Name: 2-(3,4-dimethoxyphenyl)-5-(methylamino)-2-propan-2-ylpentanenitrile
Formula: C17H26N2O2
Exact mass: 290.1994281
SMILES: CNCCCC(C#N)(C(C)C)C1=CC(OC)=C(OC)C=C1
InChI: InChI=1S/C17H26N2O2/c1-13(2)17(12-18,9-6-10-19-3)14-7-8-15(20-4)16(11-14)21-5/h7-8,11,13,19H,6,9-10H2,1-5H3
Instrument: Bruker maXis Impact
Instrument type: LC-ESI-QTOF
Ms type: MS2
Ion mode: POSITIVE
Ionization: ESI
Fragmentation mode: CID
Collision energy: 20 eV
Resolution: 35000
Column name: Acclaim RSLC C18 2.2um, 2.1x100mm, Thermo
Retention time: 6.1 min
Base peak: 291.2067
Precursor m/z: 291.2067
Precursor type: [M+H]+
m/z	relative intensity	assigned
122.0956	11	C8H12N+
138.0667	5	C8H10O2+
151.0744	69	C9H11O2+
153.1375	6	C9H17N2+
165.089	28	C10H13O2+
177.09	58	C11H13O2+
218.1173	23	C13H16NO2+
248.1516	89	C14H20N2O2+
260.1643	258	C16H22NO2+
261.1679	35	C15[13]CH22NO2+
291.2067	999	C17H27N2O2+
292.2105	134	C16[13]CH27N2O2+
293.2133	11	C15[13]C2H27N2O2+
