Mass spectrum: 3,4-Dichlorophenylurea; LC-ESI-QTOF; MS2; CE: Ramp 20.1-30.2 eV; R=35000; [M-H]-
Name: 3,4-Dichlorophenylurea
Name: 1-(3,4-Dichlorophenyl)urea
Name: (3,4-dichlorophenyl)urea
Formula: C7H6Cl2N2O
Exact mass: 203.9857182
SMILES: NC(=O)NC1=CC(Cl)=C(Cl)C=C1
InChI: InChI=1S/C7H6Cl2N2O/c8-5-2-1-4(3-6(5)9)11-7(10)12/h1-3H,(H3,10,11,12)
Instrument: Bruker maXis Impact
Instrument type: LC-ESI-QTOF
Ms type: MS2
Ion mode: NEGATIVE
Ionization: ESI
Fragmentation mode: CID
Collision energy: Ramp 20.1-30.2 eV
Resolution: 35000
Column name: Acclaim RSLC C18 2.2um, 2.1x100mm, Thermo
Retention time: 7.867 min
Base peak: 59.013
Precursor m/z: 202.9784
Precursor type: [M-H]-
m/z	relative intensity	assigned
123.9962	109	C6H3ClN-
159.9729	999	C6H4Cl2N-
160.9768	71	C5[13]CH4Cl2N-
161.9694	382	C6H4Cl[37]ClN-
