Mass spectrum: Methyl salicylate; GC-APCI-QTOF; MS2; CE: 40 eV; R=35000; [M+H]+
Name: Methyl salicylate
Formula: C8H8O3
Exact mass: 152.0473
SMILES: COC(=O)C1=CC=CC=C1O
InChI: InChI=1S/C8H8O3/c1-11-8(10)6-4-2-3-5-7(6)9/h2-5,9H,1H3
Instrument: Bruker 450 GC coupled to maXis Impact
Instrument type: GC-APCI-QTOF
Ms type: MS2
Ion mode: POSITIVE
Ionization: APCI
Fragmentation mode: CID
Collision energy: 40 eV
Resolution: 35000
Column name: Rxi-5Sil MS column, 30m, 0.25mm i.d., 0.25Âµm film thickness, Restek
Retention time: 9.579 min
Base peak: 153.0564
Precursor m/z: 153.0546
Precursor type: [M+H]+
m/z	relative intensity	assigned
53.003	10	C3HO+
54.0471	42	C4H6+
62.0157	13	C5H2+
63.0231	512	C5H3+
64.0308	371	C5H4+
65.0385	999	C5H5+
81.0333	8	C5H5O+
82.0407	6	C5H6O+
92.0246	467	C6H4O+
111.0433	11	C6H7O2+
121.0279	58	C7H5O2+
