Mass spectrum: Naphthalene; GC-APCI-QTOF; MS2; CE: 10 eV; R=35000; [M]+
Name: Naphthalene
Formula: C10H8
Exact mass: 128.0626
SMILES: C1=CC2=CC=CC=C2C=C1
InChI: InChI=1S/C10H8/c1-2-6-10-8-4-3-7-9(10)5-1/h1-8H
Instrument: Bruker 450 GC coupled to maXis Impact
Instrument type: GC-APCI-QTOF
Ms type: MS2
Ion mode: POSITIVE
Ionization: APCI
Fragmentation mode: CID
Collision energy: 10 eV
Resolution: 35000
Column name: Rxi-5Sil MS column, 30m, 0.25mm i.d., 0.25Âµm film thickness (Restek)
Retention time: 9.363 min
Base peak: 128.0616
Precursor m/z: 128.0621
Precursor type: [M]+
m/z	relative intensity	assigned
127.0521	8	C10H7+
128.0617	999	C10H8+
