Mass spectrum: Mabuterol; LC-ESI-QTOF; MS2; CE: 50 eV; R=35000; [M+H]+
Name: Mabuterol
Name: 1-[4-amino-3-chloro-5-(trifluoromethyl)phenyl]-2-(tert-butylamino)ethanol
Formula: C13H18ClF3N2O
Exact mass: 310.1059755
SMILES: CC(C)(C)NCC(c1cc(c(c(c1)Cl)N)C(F)(F)F)O
InChI: InChI=1S/C13H18ClF3N2O/c1-12(2,3)19-6-10(20)7-4-8(13(15,16)17)11(18)9(14)5-7/h4-5,10,19-20H,6,18H2,1-3H3
Instrument: Bruker maXis Impact
Instrument type: LC-ESI-QTOF
Ms type: MS2
Ion mode: POSITIVE
Ionization: ESI
Fragmentation mode: CID
Collision energy: 50 eV
Resolution: 35000
Column name: Acclaim RSLC C18 2.2um, 2.1x100mm, Thermo
Retention time: 5.4 min
Base peak: 311.113
Precursor m/z: 311.1133
Precursor type: [M+H]+
m/z	relative intensity	assigned
116.0489	21	C8H6N+
117.0564	5	C8H7N+
127.0358	18	C7H5F2+
131.0597	82	C8H7N2+
132.0674	219	C8H8N2+
133.0736	31	C7[13]CH8N2+
134.0389	38	C8H5FN+
134.0575	6	ClF3H12NO+
135.0467	59	C8H6FN+
140.026	18	C7H7ClN+
141.0415	10	CH9ClF3N2+
142.052	31	C9H6N2+
143.0565	9	CH11ClF3N2+
150.0098	16	C11H2O+
151.0173	6	C11H3O+
154.0454	104	C8H6F2N+
155.0529	40	C8H7F2N+
159.0555	5	C9H7N2O+
161.0501	85	C9H6FN2+
162.0582	107	C9H7FN2+
165.0382	16	C9H5F2N+
166.0291	15	C8H7ClN2+
166.0449	18	C9H6F2N+
167.0381	7	C5H9ClFN2O+
168.0237	11	C11H3FN+
168.0441	48	C11H6NO+
169.0496	5	C3H11ClF3NO+
170.0163	78	C11H3FO+
170.0421	7	C5H9ClF2N2+
171.0208	7	C6H7ClF3+
172.0132	15	C8H6[37]ClFN+
174.0516	75	C8H7F3N+
174.9991	7	C10HF2O+
175.0583	11	C5H12ClF2NO+
176.007	8	C10H2F2O+
177.0206	10	C12H3NO+
181.0567	421	C9H7F2N2+
182.0642	867	C9H8F2N2+
183.0681	43	C8[13]CH8F2N2+
184.0377	8	C9H5F3N+
185.043	15	C9H6F3N+
186.0514	10	C9H7F3N+
187.0496	6	C7H11ClF3+
188.0071	15	C8H5ClF2N+
189.0143	15	C11H3F2O+
190.0223	579	C11H4F2O+
191.0263	37	C10[13]CH4F2O+
192.0193	105	C8H7[37]ClF2N+
197.0273	129	C12H4FNO+
198.0314	11	C11[13]CH4FNO+
199.0244	31	C9H7[37]ClFN2+
200.0074	47	C9H5ClF2N+
201.0628	162	C9H8F3N2+
202.0707	999	C9H9F3N2+
203.0739	48	C8[13]CH9F3N2+
208.0132	15	C11H3F3O+
210.0086	5	C13H5ClN+
216.026	5	C9H7ClF2N2+
217.0335	164	C12H5F2NO+
218.037	16	C11[13]CH5F2NO+
219.0306	44	C9H8[37]ClF2N2+
237.0394	6	C12H6F3NO+
