Mass spectrum: Atrazine; LC-ESI-QTOF; MS2; CE: 40 eV; R=35000; [M+H]+
Name: Atrazine
Name: 6-chloro-4-N-ethyl-2-N-propan-2-yl-1,3,5-triazine-2,4-diamine
Formula: C8H14ClN5
Exact mass: 215.0937731
SMILES: CCNC1=NC(NC(C)C)=NC(Cl)=N1
InChI: InChI=1S/C8H14ClN5/c1-4-10-7-12-6(9)13-8(14-7)11-5(2)3/h5H,4H2,1-3H3,(H2,10,11,12,13,14)
Instrument: Bruker maXis Impact
Instrument type: LC-ESI-QTOF
Ms type: MS2
Ion mode: POSITIVE
Ionization: ESI
Fragmentation mode: CID
Collision energy: 40 eV
Resolution: 35000
Column name: Acclaim RSLC C18 2.2um, 2.1x100mm, Thermo
Retention time: 8.0 min
Base peak: 216.1011
Precursor m/z: 216.101
Precursor type: [M+H]+
m/z	relative intensity	assigned
110.0476	28	C2H9ClN3+
132.0319	889	C4H7ClN3+
133.0346	40	C3[13]CH7ClN3+
134.0279	255	C4H7[37]ClN3+
138.0762	467	C5H8N5+
139.0788	30	C4[13]CH8N5+
146.022	999	C3H5ClN5+
147.0253	58	C2[13]CH5ClN5+
148.0188	294	C3H5[37]ClN5+
159.0304	24	C4H6ClN5+
172.037	43	C5H7ClN5+
174.0532	873	C5H9ClN5+
175.0559	64	C4[13]CH9ClN5+
176.0501	323	C5H9[37]ClN5+
