Mass spectrum: 2-Amino-3-methyl-imidazo[4,5-f]quinoline (IQ); LC-ESI-QTOF; MS2; CE: 40 eV; R=35000; [M+H]+
Name: 2-Amino-3-methyl-imidazo[4,5-f]quinoline (IQ)
Name: 2-Amino-3-methylimidazo[4,5-f]quinoline
Name: 3-methylimidazo[4,5-f]quinolin-2-amine
Formula: C11H10N4
Exact mass: 198.0905463
SMILES: CN1C(N)=NC2=C1C=CC1=NC=CC=C21
InChI: InChI=1S/C11H10N4/c1-15-9-5-4-8-7(3-2-6-13-8)10(9)14-11(15)12/h2-6H,1H3,(H2,12,14)
Instrument: Bruker maXis Impact
Instrument type: LC-ESI-QTOF
Ms type: MS2
Ion mode: POSITIVE
Ionization: ESI
Fragmentation mode: CID
Collision energy: 40 eV
Resolution: 35000
Column name: Acclaim RSLC C18 2.2um, 2.1x100mm, Thermo
Retention time: 3.831 min
Base peak: 199.097
Precursor m/z: 199.0978
Precursor type: [M+H]+
m/z	relative intensity	assigned
128.0483	21	C9H6N+
129.0434	18	C8H5N2+
129.0554	14	C9H7N+
130.0513	48	C8H6N2+
130.0629	18	C9H8N+
131.059	41	C8H7N2+
142.0512	29	C9H6N2+
143.0579	8	C9H7N2+
145.0741	5	C9H9N2+
155.0594	9	C10H7N2+
156.0546	107	C9H6N3+
157.0622	283	C9H7N3+
158.0671	34	C8[13]CH7N3+
170.0697	5	C10H8N3+
182.0699	13	C11H8N3+
183.0655	43	C10H7N4+
184.0735	999	C10H8N4+
185.0764	77	C9[13]CH8N4+
197.0807	7	C11H9N4+
199.0968	61	C11H11N4+
200.0993	7	C10[13]CH11N4+
