Mass spectrum: Codeine; LC-ESI-QTOF; MS2; CE: 20 eV; R=35000; [M+H]+
Name: Codeine
Name: (4R,4aR,7S,7aR,12bS)-9-methoxy-3-methyl-2,4,4a,7,7a,13-hexahydro-1H-4,12-methanobenzofuro[3,2-e]isoquinoline-7-ol
Formula: C18H21NO3
Exact mass: 299.1521435
SMILES: CN1CC[C@]23[C@@H]4[C@H]1CC5=C2C(=C(C=C5)OC)O[C@H]3[C@H](C=C4)O
InChI: InChI=1S/C18H21NO3/c1-19-8-7-18-11-4-5-13(20)17(18)22-16-14(21-2)6-3-10(15(16)18)9-12(11)19/h3-6,11-13,17,20H,7-9H2,1-2H3/t11-,12+,13-,17-,18-/m0/s1
Instrument: Bruker maXis Impact
Instrument type: LC-ESI-QTOF
Ms type: MS2
Ion mode: POSITIVE
Ionization: ESI
Fragmentation mode: CID
Collision energy: 20 eV
Resolution: 35000
Column name: Acclaim RSLC C18 2.2um, 2.1x100mm, Thermo
Retention time: 3.516 min
Base peak: 300.1613
Precursor m/z: 300.1594
Precursor type: [M+H]+
m/z	relative intensity	assigned
215.1076	13	C14H15O2+
225.0918	5	C15H13O2+
243.1026	19	C15H15O3+
282.1504	6	C18H20NO2+
300.1617	999	C18H22NO3+
301.165	187	C17[13]CH22NO3+
302.1677	15	C16[13]C2H22NO3+
