Mass spectrum: Cyproconazole; LC-ESI-QTOF; MS2; CE: 50 eV; R=35000; [M+H]+
Name: Cyproconazole
Name: 2-(4-chlorophenyl)-3-cyclopropyl-1-(1,2,4-triazol-1-yl)butan-2-ol
Formula: C15H18ClN3O
Exact mass: 291.1138399
SMILES: CC(C1CC1)C(O)(CN1C=NC=N1)C1=CC=C(Cl)C=C1
InChI: InChI=1S/C15H18ClN3O/c1-11(12-2-3-12)15(20,8-19-10-17-9-18-19)13-4-6-14(16)7-5-13/h4-7,9-12,20H,2-3,8H2,1H3
Instrument: Bruker maXis Impact
Instrument type: LC-ESI-QTOF
Ms type: MS2
Ion mode: POSITIVE
Ionization: ESI
Fragmentation mode: CID
Collision energy: 50 eV
Resolution: 35000
Column name: Acclaim RSLC C18 2.2um, 2.1x100mm, Thermo
Retention time: 10.049 min
Base peak: 459.0861
Precursor m/z: 292.1211
Precursor type: [M+H]+
m/z	relative intensity	assigned
125.0142	999	C7H6Cl+
126.0174	112	C6[13]CH6Cl+
127.0111	372	C7H6[37]Cl+
128.0146	19	C5H5ClN2+
128.0588	17	C2H11ClN3O+
129.0685	18	C10H9+
138.9938	44	C5H2ClN3+
139.029	12	C9H3N2+
140.9905	23	C5H2[37]ClN3+
141.0693	12	C11H9+
