Mass spectrum: Robenidine; LC-ESI-QTOF; MS2; CE: 40 eV; R=35000; [M+H]+
Name: Robenidine
Name: 1,2-bis[(E)-(4-chlorophenyl)methylideneamino]guanidine
Formula: C15H13Cl2N5
Exact mass: 333.0548008
SMILES: C1=CC(=CC=C1/C=N/NC(=N)N/N=C/C2=CC=C(C=C2)Cl)Cl
InChI: InChI=1S/C15H13Cl2N5/c16-13-5-1-11(2-6-13)9-19-21-15(18)22-20-10-12-3-7-14(17)8-4-12/h1-10H,(H3,18,21,22)/b19-9+,20-10+
Instrument: Bruker maXis Impact
Instrument type: LC-ESI-QTOF
Ms type: MS2
Ion mode: POSITIVE
Ionization: ESI
Fragmentation mode: CID
Collision energy: 40 eV
Resolution: 35000
Column name: Acclaim RSLC C18 2.2um, 2.1x100mm, Thermo
Retention time: 11.8 min
Base peak: 334.0623
Precursor m/z: 334.0621
Precursor type: [M+H]+
m/z	relative intensity	assigned
110.9997	91	C6H4Cl+
123.9954	116	C6H3ClN+
125.0149	223	C7H6Cl+
138.0102	999	C7H5ClN+
139.016	113	C8HN3+
140.007	178	C7H5[37]ClN+
140.0255	258	C7H7ClN+
143.0482	247	C8H5N3+
151.0056	247	C7H4ClN2+
152.0108	37	C8N4+
153.0201	95	C8HN4+
154.0293	63	C7H7ClN2+
155.0163	38	C4H9Cl2N2+
155.037	542	C7H8ClN2+
157.0332	105	C7H8[37]ClN2+
178.0167	308	C8H5ClN3+
179.0215	50	C9HN5+
180.0148	78	C7H10Cl[37]ClN+
195.0443	181	C7H13Cl2N2+
