Mass spectrum: Butylparaben; LC-ESI-QTOF; MS2; CE: 10 eV; R=35000; [M-H]-
Name: Butylparaben
Name: butyl 4-hydroxybenzoate
Formula: C11H14O3
Exact mass: 194.0942943
SMILES: CCCCOC(=O)C1=CC=C(O)C=C1
InChI: InChI=1S/C11H14O3/c1-2-3-8-14-11(13)9-4-6-10(12)7-5-9/h4-7,12H,2-3,8H2,1H3
Instrument: Bruker maXis Impact
Instrument type: LC-ESI-QTOF
Ms type: MS2
Ion mode: NEGATIVE
Ionization: ESI
Fragmentation mode: CID
Collision energy: 10 eV
Resolution: 35000
Column name: Acclaim RSLC C18 2.2um, 2.1x100mm, Thermo
Retention time: 9.421 min
Base peak: 193.0868
Precursor m/z: 193.087
Precursor type: [M-H]-
m/z	relative intensity	assigned
136.0161	89	C7H4O3-
137.024	104	C7H5O3-
138.0274	11	C6[13]CH5O3-
193.0868	999	C11H13O3-
194.0896	129	C10[13]CH13O3-
195.0901	9	C9[13]C2H13O3-
