Mass spectrum: N,N-Dimethyldodecylamine; LC-ESI-QTOF; MS2; CE: 40 eV; R=35000; [M+H]+
Name: N,N-Dimethyldodecylamine
Name: N,N-dimethyldodecan-1-amine
Formula: C14H31N
Exact mass: 213.2456500
SMILES: CCCCCCCCCCCCN(C)C
InChI: InChI=1S/C14H31N/c1-4-5-6-7-8-9-10-11-12-13-14-15(2)3/h4-14H2,1-3H3
Instrument: Bruker maXis Impact
Instrument type: LC-ESI-QTOF
Ms type: MS2
Ion mode: POSITIVE
Ionization: ESI
Fragmentation mode: CID
Collision energy: 40 eV
Resolution: 35000
Column name: Acclaim RSLC C18 2.2um, 2.1x100mm, Thermo
Retention time: 10.424 min
Base peak: 432.2375
Precursor m/z: 214.2529
Precursor type: [M+H]+
m/z	relative intensity	assigned
214.2533	999	C14H32N+
