Mass spectrum: Praziquantel; LC-ESI-QTOF; MS2; CE: 40 eV; R=35000; [M+H]+
Name: Praziquantel
Name: 2-(cyclohexanecarbonyl)-3,6,7,11b-tetrahydro-1H-pyrazino[2,1-a]isoquinolin-4-one
Formula: C19H24N2O2
Exact mass: 312.1837780
SMILES: c1ccc2c(c1)CCN3C2CN(CC3=O)C(=O)C4CCCCC4
InChI: InChI=1S/C19H24N2O2/c22-18-13-20(19(23)15-7-2-1-3-8-15)12-17-16-9-5-4-6-14(16)10-11-21(17)18/h4-6,9,15,17H,1-3,7-8,10-13H2
Instrument: Bruker maXis Impact
Instrument type: LC-ESI-QTOF
Ms type: MS2
Ion mode: POSITIVE
Ionization: ESI
Fragmentation mode: CID
Collision energy: 40 eV
Resolution: 35000
Column name: Acclaim RSLC C18 2.2um, 2.1x100mm, Thermo
Retention time: 9.202 min
Base peak: 313.193
Precursor m/z: 313.1911
Precursor type: [M+H]+
m/z	relative intensity	assigned
115.0544	23	C9H7+
117.0578	23	C8H7N+
117.0698	30	C9H9+
118.0721	6	C4H10N2O2+
119.0857	5	C9H11+
128.0622	60	C10H8+
129.0699	180	C10H9+
130.0661	58	C9H8N+
131.0724	51	C9H9N+
132.0811	881	C9H10N+
133.0844	86	C8[13]CH10N+
143.0737	11	C10H9N+
144.0809	89	C10H10N+
145.0649	8	C10H9O+
145.0877	33	C10H11N+
146.0966	313	C10H12N+
147.1001	46	C9[13]CH12N+
155.0611	11	C10H7N2+
158.0971	99	C11H12N+
159.1004	11	C11H13N+
173.109	14	C11H13N2+
174.0921	999	C11H12NO+
175.0953	138	C10[13]CH12NO+
175.1234	67	C11H15N2+
176.0981	9	C10H12N2O+
176.1271	8	C11H16N2+
185.1086	15	C12H13N2+
186.0937	9	C12H12NO+
201.1051	5	C12H13N2O+
203.1188	433	C12H15N2O+
204.1219	58	C11[13]CH15N2O+
256.1703	49	C17H22NO+
257.1719	11	C17H23NO+
285.1987	10	C18H25N2O+
