Mass spectrum: Metazachlor; LC-ESI-QTOF; MS2; CE: 50 eV; R=35000; [M+H]+
Name: Metazachlor
Name: 2-chloro-N-(2,6-dimethylphenyl)-N-(pyrazol-1-ylmethyl)acetamide
Formula: C14H16ClN3O
Exact mass: 277.0981898
SMILES: CC1=CC=CC(C)=C1N(CN1C=CC=N1)C(=O)CCl
InChI: InChI=1S/C14H16ClN3O/c1-11-5-3-6-12(2)14(11)18(13(19)9-15)10-17-8-4-7-16-17/h3-8H,9-10H2,1-2H3
Instrument: Bruker maXis Impact
Instrument type: LC-ESI-QTOF
Ms type: MS2
Ion mode: POSITIVE
Ionization: ESI
Fragmentation mode: CID
Collision energy: 50 eV
Resolution: 35000
Column name: Acclaim RSLC C18 2.2um, 2.1x100mm, Thermo
Retention time: 8.0 min
Base peak: 278.1055
Precursor m/z: 278.1055
Precursor type: [M+H]+
m/z	relative intensity	assigned
117.0561	10	C8H7N+
118.0644	12	C8H8N+
119.0724	11	C8H9N+
132.0802	36	C9H10N+
134.0958	999	C9H12N+
135.0992	86	C8[13]CH12N+
