Mass spectrum: Triethyl citrate; GC-APCI-QTOF; MS2; CE: 30 eV; R=35000; [M+H]+
Name: Triethyl citrate
Formula: C12H20O7
Exact mass: 276.1209
SMILES: CCOC(=O)CC(CC(=O)OCC)(C(=O)OCC)O
InChI: InChI=1S/C12H20O7/c1-4-17-9(13)7-12(16,11(15)19-6-3)8-10(14)18-5-2/h16H,4-8H2,1-3H3
Instrument: Bruker 450 GC coupled to maXis Impact
Instrument type: GC-APCI-QTOF
Ms type: MS2
Ion mode: POSITIVE
Ionization: APCI
Fragmentation mode: CID
Collision energy: 30 eV
Resolution: 35000
Column name: Rxi-5Sil MS column, 30m, 0.25mm i.d., 0.25Âµm film thickness, Restek
Retention time: 20.378 min
Base peak: 277.1082
Precursor m/z: 277.1282
Precursor type: [M+H]+
m/z	relative intensity	assigned
67.0555	5	C5H7+
105.0328	24	C7H5O+
128.0487	10	C6H8O3+
129.0331	5	C9H5O+
153.0721	5	C12H9+
165.0731	46	C6H13O5+
166.0799	8	C6H14O5+
169.0705	5	C5H13O6+
176.0652	40	C7H12O5+
177.0725	111	C7H13O5+
178.0798	149	C7H14O5+
181.067	16	C6H13O6+
193.0667	6	C7H13O6+
194.0756	12	C7H14O6+
195.0833	14	C7H15O6+
202.067	11	C12H10O3+
203.0744	265	C12H11O3+
204.0814	999	C12H12O3+
205.0841	114	C12H13O3+
206.0962	16	C12H14O3+
207.0826	5	C8H15O6+
218.0603	8	C12H10O4+
219.0684	6	C12H11O4+
220.0761	85	C12H12O4+
221.0811	27	C12H13O4+
222.0921	55	C12H14O4+
223.0988	5	C12H15O4+
