Mass spectrum: Chloridazon-methyl-desphenyl; LC-ESI-QTOF; MS2; CE: Ramp 16.6-24.8 eV; R=35000; [M+H]+
Name: Chloridazon-methyl-desphenyl
Name: 5-Amino-4-chloro-2-methyl-3(2H)-pyridazinone
Name: 5-amino-4-chloro-2-methylpyridazin-3-one
Formula: C5H6ClN3O
Exact mass: 159.0199395
SMILES: CN1N=CC(N)=C(Cl)C1=O
InChI: InChI=1S/C5H6ClN3O/c1-9-5(10)4(6)3(7)2-8-9/h2H,7H2,1H3
Instrument: Bruker maXis Impact
Instrument type: LC-ESI-QTOF
Ms type: MS2
Ion mode: POSITIVE
Ionization: ESI
Fragmentation mode: CID
Collision energy: Ramp 16.6-24.8 eV
Resolution: 35000
Column name: Acclaim RSLC C18 2.2um, 2.1x100mm, Thermo
Retention time: 3.339 min
Base peak: 160.0265
Precursor m/z: 160.0272
Precursor type: [M+H]+
m/z	relative intensity	assigned
55.0284	6	C2H3N2+
68.0489	14	C4H6N+
69.0441	18	C3H5N2+
75.9945	19	C5O+
86.9993	7	C4H4Cl+
87.9947	73	C3H3ClN+
89.9919	14	C3H3[37]ClN+
103.9903	6	C3H3ClNO+
115.9904	6	C4H3ClNO+
116.9978	55	C4H4ClNO+
118.9946	12	C4H4[37]ClNO+
124.05	9	C5H6N3O+
130.0049	47	C5H5ClNO+
131.0005	8	C4H4ClN2O+
131.0123	19	C5H6ClNO+
132.0032	10	C5H5[37]ClNO+
133.0118	5	C5H6[37]ClNO+
145.0029	23	C4H4ClN3O+
146.9998	5	C4H4[37]ClN3O+
160.0266	999	C5H7ClN3O+
161.0294	60	C4[13]CH7ClN3O+
162.0236	270	C5H7[37]ClN3O+
