Mass spectrum: Quinoxyfen; LC-ESI-QTOF; MS2; CE: 20 eV; R=35000; [M+H]+
Name: Quinoxyfen
Name: 5,7-dichloro-4-(4-fluorophenoxy)quinoline
Formula: C15H8Cl2FNO
Exact mass: 306.9966975
SMILES: FC1=CC=C(OC2=C3C(Cl)=CC(Cl)=CC3=NC=C2)C=C1
InChI: InChI=1S/C15H8Cl2FNO/c16-9-7-12(17)15-13(8-9)19-6-5-14(15)20-11-3-1-10(18)2-4-11/h1-8H
Instrument: Bruker maXis Impact
Instrument type: LC-ESI-QTOF
Ms type: MS2
Ion mode: POSITIVE
Ionization: ESI
Fragmentation mode: CID
Collision energy: 20 eV
Resolution: 35000
Column name: Acclaim RSLC C18 2.2um, 2.1x100mm, Thermo
Retention time: 12.818 min
Base peak: 308.0041
Precursor m/z: 308.004
Precursor type: [M+H]+
m/z	relative intensity	assigned
196.9779	5	C12H2ClO+
272.0264	10	C15H8ClFNO+
308.0045	999	C15H9Cl2FNO+
309.0072	197	C14[13]CH9Cl2FNO+
310.0012	838	C15H9Cl[37]ClFNO+
