Mass spectrum: Ketoconazole; LC-ESI-QTOF; MS2; CE: 50 eV; R=35000; [M+H]+
Name: Ketoconazole
Name: Xolegel
Name: 1-[4-[4-[[(2R,4S)-2-(2,4-dichlorophenyl)-2-(imidazol-1-ylmethyl)-1,3-dioxolan-4-yl]methoxy]phenyl]piperazin-1-yl]ethanone
Formula: C26H28Cl2N4O4
Exact mass: 530.1487607
SMILES: CC(=O)N1CCN(CC1)C1=CC=C(OC[C@H]2CO[C@@](CN3C=CN=C3)(O2)C2=CC=C(Cl)C=C2Cl)C=C1
InChI: InChI=1S/C26H28Cl2N4O4/c1-19(33)31-10-12-32(13-11-31)21-3-5-22(6-4-21)34-15-23-16-35-26(36-23,17-30-9-8-29-18-30)24-7-2-20(27)14-25(24)28/h2-9,14,18,23H,10-13,15-17H2,1H3/t23-,26-/m0/s1
Instrument: Bruker maXis Impact
Instrument type: LC-ESI-QTOF
Ms type: MS2
Ion mode: POSITIVE
Ionization: ESI
Fragmentation mode: CID
Collision energy: 50 eV
Resolution: 35000
Column name: Acclaim RSLC C18 2.2um, 2.1x100mm, Thermo
Retention time: 9.387 min
Base peak: 531.1562
Precursor m/z: 531.156
Precursor type: [M+H]+
m/z	relative intensity	assigned
112.0753	35	C6H10NO+
115.0532	6	Cl2H15NO+
117.0563	8	C8H7N+
117.0683	5	Cl2H17NO+
118.064	14	C2H13ClNO2+
120.0436	79	C7H6NO+
120.08	26	C8H10N+
121.0481	8	C6[13]CH6NO+
122.0594	75	C7H8NO+
122.9985	9	C7H4Cl+
123.0626	8	C6[13]CH8NO+
127.0494	41	C5H7N2O2+
129.069	11	CH17Cl2NO+
130.064	32	CH11ClN4O+
131.047	11	C3H12ClO3+
131.0717	15	Cl2H17N2O+
132.0563	14	CH11[37]ClN4O+
132.0794	26	Cl2H18N2O+
133.0515	10	C6H5N4+
133.0637	12	C7H7N3+
134.0589	91	C6H6N4+
135.0669	509	C6H7N4+
136.074	198	C5H12O4+
137.0771	12	C4[13]CH12O4+
139.0296	7	C9H3N2+
143.0714	5	CH17Cl2N2O+
144.0793	109	CH18Cl2N2O+
145.0634	16	C8H7N3+
145.0871	74	CH19Cl2N2O+
146.0588	61	C7H6N4+
146.0951	140	C7H14O3+
147.0659	17	C3H14ClNO3+
147.0983	13	C6[13]CH14O3+
148.0746	611	C7H8N4+
149.014	13	C10HN2+
149.0776	47	C6[13]CH8N4+
150.0215	19	C10H2N2+
151.0297	11	C10H3N2+
151.0628	5	C8H9NO2+
154.0643	6	C2H16Cl2N2O+
156.0795	32	C2H18Cl2N2O+
157.086	6	C8H13O3+
157.9681	15	C2H4Cl2N2O2+
158.0953	61	C8H14O3+
158.975	134	C8ClN2+
159.0657	12	C4H14ClNO3+
159.0983	8	C7[13]CH14O3+
159.9636	5	C2H4Cl[37]ClN2O2+
159.9802	13	C7[13]CClN2+
160.0741	55	CH18Cl2N2O2+
160.972	60	C8[37]ClN2+
161.0812	20	C4H16ClNO3+
161.1068	7	C3H23Cl2O2+
161.9771	5	C5H4Cl2N2+
162.0902	46	C7H14O4+
163.0304	24	C10H8Cl+
163.0864	7	C9H11N2O+
163.0903	6	C6[13]CH14O4+
163.1218	71	C7H17NO3+
164.07	12	C9H10NO2+
164.124	5	C6[13]CH17NO3+
165.0272	5	C10H8[37]Cl+
167.0246	59	C7H6ClN3+
167.0804	460	C8H11N2O2+
168.0287	6	C6[13]CH6ClN3+
168.083	32	C7[13]CH11N2O2+
169.0211	11	C7H6[37]ClN3+
169.9669	92	C8H4Cl2+
170.0941	5	C6H17ClNO2+
170.9734	11	C7[13]CH4Cl2+
171.0658	8	C5H14ClNO3+
171.9642	41	C8H4Cl[37]Cl+
172.0742	100	C9H8N4+
172.1106	23	C3H22Cl2N2O+
172.9542	126	C5HCl2N3+
173.0815	23	C5H16ClNO3+
174.0903	547	C9H10N4+
174.951	64	C5HCl[37]ClN3+
175.0934	56	C8[13]CH10N4+
175.1206	12	C5H20ClN2O2+
176.0929	32	CH20Cl2N3O2+
177.1013	999	C3H23Cl2O3+
178.0853	20	C8H10N4O+
178.1077	255	C10H14N2O+
179.0241	14	C11H3N2O+
179.1127	27	C9[13]CH14N2O+
181.0412	5	C10H10ClO+
184.9908	125	C4H7Cl2N2O2+
185.9622	267	C6H2Cl2N3+
186.9682	45	C9ClN2O+
186.9873	73	C4H7Cl[37]ClN2O2+
187.1224	10	C5H25Cl2O2+
187.9597	140	C6H2Cl[37]ClN3+
188.1059	43	C10H12N4+
188.1286	9	C6H21ClN2O2+
188.9658	16	C9[37]ClN2O+
189.1034	7	C10H18ClO+
189.1375	103	C12H17N2+
189.956	5	C5H2Cl2N3O+
190.0848	18	C9H10N4O+
190.1418	14	C11[13]CH17N2+
191.0934	16	C9H11N4O+
191.1163	24	C2H23Cl2N3O2+
192.1004	110	C9H12N4O+
193.1039	12	C8[13]CH12N4O+
199.006	6	C10H9Cl2+
200.1059	86	C10H16O4+
201.0033	5	C10H9Cl[37]Cl+
201.108	11	C9[13]CH16O4+
201.9943	19	C7H6Cl2N3+
202.965	30	C6H3Cl2N3O+
203.036	75	C8H10ClNO3+
203.1157	7	C6H20ClN2O3+
203.9902	16	C7H6Cl[37]ClN3+
204.0395	10	C7[13]CH10ClNO3+
204.1004	44	C3H22Cl2N2O3+
204.9625	14	C6H3Cl[37]ClN3O+
205.0329	23	C8H10[37]ClNO3+
205.0969	27	C4H23Cl2O4+
205.1325	50	C9H19NO4+
206.1342	7	C8[13]CH19NO4+
209.0359	65	C9H8ClN3O+
210.0399	7	C8[13]CH8ClN3O+
211.0324	17	C9H8[37]ClN3O+
213.9937	12	C8H6Cl2N3+
215.117	39	C6H25Cl2O3+
216.101	189	C11H12N4O+
216.1245	44	C4H24Cl2N3O2+
217.1043	30	C10[13]CH12N4O+
217.1327	572	C10H19NO4+
218.1155	39	C7H21ClNO4+
218.1359	82	C9[13]CH19NO4+
219.1119	951	C5H25Cl2O4+
220.1188	439	C7H16N4O4+
221.122	50	C6[13]CH16N4O4+
224.998	9	C10H7Cl2N2+
226.0047	6	C16H2O2+
230.1395	22	C5H26Cl2N3O2+
231.1462	14	C11H21NO4+
233.0468	19	C15H7NO2+
233.1276	26	C6H27Cl2O4+
234.1116	79	C11H14N4O2+
234.1344	25	C4H26Cl2N3O3+
235.1147	10	C10[13]CH14N4O2+
235.1431	200	C13H19N2O2+
236.1453	32	C12[13]CH19N2O2+
238.0054	211	C14H5ClNO+
239.0093	40	C13[13]CH5ClNO+
240.0025	98	C14H5[37]ClNO+
241.008	15	C20H+
244.0044	464	C9H8Cl2N3O+
245.0078	59	C8[13]CH8Cl2N3O+
246.0017	255	C9H8Cl[37]ClN3O+
247.0048	17	C18HNO+
247.0629	70	C13H12ClN2O+
247.1429	23	C5H27Cl2N3O3+
248.0002	8	C10H10Cl2O3+
248.0661	13	C12[13]CH12ClN2O+
249.06	16	C13H12[37]ClN2O+
255.0082	564	C14H6ClNO2+
256.0113	81	C13[13]CH6ClNO2+
257.0052	302	C14H6[37]ClNO2+
258.0082	26	C11H10Cl2NO2+
259.0026	11	C16H3O4+
259.1437	57	C15H19N2O2+
260.1468	11	C14[13]CH19N2O2+
261.1581	5	C6H29Cl2N3O3+
267.0079	239	C12H9Cl2N2O+
268.013	51	C11[13]CH9Cl2N2O+
269.005	129	C12H9Cl[37]ClN2O+
270.0107	21	C18H5ClN+
271.0032	11	C14H6ClNO3+
276.149	9	C11H28Cl2NO2+
277.1535	16	C6H29Cl2N3O4+
281.0236	46	C10H13Cl2NO4+
282.0306	48	C14H7ClN4O+
283.0205	28	C10H13Cl[37]ClNO4+
284.0282	24	C14H7[37]ClN4O+
297.0176	26	C13H11Cl2N2O2+
299.0156	14	C13H11Cl[37]ClN2O2+
311.0349	48	C14H13Cl2N2O2+
312.0373	10	C13[13]CH13Cl2N2O2+
313.0305	36	C14H13Cl[37]ClN2O2+
364.0502	12	C16H14Cl2N4O2+
366.0467	6	C16H14Cl[37]ClN4O2+
378.0653	68	C17H16Cl2N4O2+
379.0671	17	C16[13]CH16Cl2N4O2+
380.0625	36	C17H16Cl[37]ClN4O2+
381.0656	5	C19H19Cl2O4+
419.0897	5	C25H13N3O4+
420.0775	29	C19H18Cl2N4O3+
421.1076	51	C21H23Cl2N2O3+
422.0722	21	C19H18Cl[37]ClN4O3+
422.1112	15	C20[13]CH23Cl2N2O3+
423.1047	29	C21H23Cl[37]ClN2O3+
446.1014	50	C22H22Cl2N3O3+
447.1052	13	C21[13]CH22Cl2N3O3+
448.1001	29	C22H22Cl[37]ClN3O3+
449.1122	5	C24H20ClN3O4+
487.1258	11	C24H25Cl2N4O3+
489.1449	357	C24H27Cl2N4O3+
490.148	107	C23[13]CH27Cl2N4O3+
491.1425	216	C24H27Cl[37]ClN4O3+
492.1446	40	C24H28Cl2N3O4+
493.1422	12	C23H27Cl2N4O4+
531.1557	406	C26H29Cl2N4O4+
532.1589	142	C25[13]CH29Cl2N4O4+
533.1526	254	C26H29Cl[37]ClN4O4+
