Mass spectrum: 3,4-Methylenedioxy-N-ethylamphetamine (MDEA); LC-ESI-QTOF; MS2; CE: RAMP 18.3-27.4 eV; R=35000; [M+H]+
Name: 3,4-Methylenedioxy-N-ethylamphetamine (MDEA)
Name: SCHEMBL715095
Name: 1-(3H-1,2-benzodioxol-6-yl)-N-ethylpropan-2-amine
Formula: C12H17NO2
Exact mass: 207.1259288
SMILES: CC(NCC)Cc1ccc2COOc2c1
InChI: InChI=1S/C12H17NO2/c1-3-13-9(2)6-10-4-5-11-8-14-15-12(11)7-10/h4-5,7,9,13H,3,6,8H2,1-2H3
Instrument: Bruker maXis Impact
Instrument type: LC-ESI-QTOF
Ms type: MS2
Ion mode: POSITIVE
Ionization: ESI
Fragmentation mode: CID
Collision energy: RAMP 18.3-27.4 eV
Resolution: 35000
Column name: Acclaim RSLC C18 2.2um, 2.1x100mm, Thermo
Retention time: 4.547 min
Base peak: 208.1374
Precursor m/z: 208.1332
Precursor type: [M+H]+
m/z	relative intensity	assigned
55.0171	17	C3H3O+
72.08	406	C4H10N+
73.0832	11	C3[13]CH10N+
77.0376	6	C6H5+
79.0534	91	C6H7+
91.0535	6	C7H7+
95.0485	11	C6H7O+
103.0543	39	C8H7+
105.0705	588	C8H9+
106.0738	86	C7[13]CH9+
115.0547	8	C9H7+
121.0283	11	C7H5O2+
122.0361	22	C7H6O2+
133.0653	999	C9H9O+
134.0684	63	C8[13]CH9O+
135.0446	903	C8H7O2+
136.0475	66	C7[13]CH7O2+
148.0513	5	C9H8O2+
151.0759	14	C9H11O2+
163.0764	643	C10H11O2+
164.0789	110	C9[13]CH11O2+
165.0811	7	C9H11NO2+
208.1338	54	C12H18NO2+
