Mass spectrum: Darunavir; LC-ESI-QTOF; MS2; CE: 30 eV; R=35000; [M+H]+
Name: Darunavir
Name: [(3aS,4R,6aR)-2,3,3a,4,5,6a-hexahydrofuro[2,3-b]furan-4-yl] N-[(2S,3R)-4-[(4-aminophenyl)sulfonyl-(2-methylpropyl)amino]-3-hydroxy-1-phenylbutan-2-yl]carbamate
Formula: C27H37N3O7S
Exact mass: 547.2352215
SMILES: CC(C)CN(C[C@H]([C@H](Cc1ccccc1)NC(=O)O[C@H]2CO[C@@H]3[C@H]2CCO3)O)S(=O)(=O)c4ccc(cc4)N
InChI: InChI=1S/C27H37N3O7S/c1-18(2)15-30(38(33,34)21-10-8-20(28)9-11-21)16-24(31)23(14-19-6-4-3-5-7-19)29-27(32)37-25-17-36-26-22(25)12-13-35-26/h3-11,18,22-26,31H,12-17,28H2,1-2H3,(H,29,32)/t22-,23-,24+,25-,26+/m0/s1
Instrument: Bruker maXis Impact
Instrument type: LC-ESI-QTOF
Ms type: MS2
Ion mode: POSITIVE
Ionization: ESI
Fragmentation mode: CID
Collision energy: 30 eV
Resolution: 35000
Column name: Acclaim RSLC C18 2.2um, 2.1x100mm, Thermo
Retention time: 8.164 min
Base peak: 548.2477
Precursor m/z: 548.2425
Precursor type: [M+H]+
m/z	relative intensity	assigned
120.082	28	C2H16O3S+
129.0692	31	C2H13N2O2S+
146.0969	37	C4H18O3S+
156.0123	537	C6H6NO2S+
157.0165	36	C3H9O5S+
158.0086	26	C5H4NO5+
164.1086	54	C4H20O4S+
165.1099	21	C5H15N3O3+
200.1453	55	C2H22N3O7+
201.154	30	C11H23NS+
202.1606	93	C2H24N3O7+
217.1739	23	C11H25N2S+
218.1569	30	C11H24NOS+
219.188	26	C11H27N2S+
220.1723	38	C11H26NOS+
237.1973	36	C8H31NO4S+
241.1025	566	C7H17N2O7+
243.099	24	C13H13N3O2+
245.1665	105	C9H27NO4S+
246.1671	23	C9H26O7+
263.1764	26	C9H29NO5S+
271.113	20	C15H17N3S+
357.1653	39	C16H25N2O7+
374.1941	56	C25H28NS+
375.1742	29	C21H27O6+
375.1891	21	C24H25NO3+
376.1912	22	C18H32O6S+
392.2037	999	C25H30NOS+
393.2074	240	C20H31N3O3S+
394.203	80	C19[13]CH31N3O3S+
418.1829	24	C26H28NO2S+
