Mass spectrum: Clopidogrel; LC-ESI-QTOF; MS2; CE: 10 eV; R=35000; [M+H]+
Name: Clopidogrel
Name: methyl (2S)-2-(2-chlorophenyl)-2-(6,7-dihydro-4H-thieno[3,2-c]pyridin-5-yl)acetate
Formula: C16H16ClNO2S
Exact mass: 321.0590274
SMILES: COC(=O)[C@H](c1ccccc1Cl)N2CCc3c(ccs3)C2
InChI: InChI=1S/C16H16ClNO2S/c1-20-16(19)15(12-4-2-3-5-13(12)17)18-8-6-14-11(10-18)7-9-21-14/h2-5,7,9,15H,6,8,10H2,1H3/t15-/m0/s1
Instrument: Bruker maXis Impact
Instrument type: LC-ESI-QTOF
Ms type: MS2
Ion mode: POSITIVE
Ionization: ESI
Fragmentation mode: CID
Collision energy: 10 eV
Resolution: 35000
Column name: Acclaim RSLC C18 2.2um, 2.1x100mm, Thermo
Retention time: 11.684 min
Base peak: 322.0669
Precursor m/z: 322.0663
Precursor type: [M+H]+
m/z	relative intensity	assigned
184.0512	16	C12H8O2+
212.0464	320	C10H11ClNO2+
213.0494	21	C9[13]CH11ClNO2+
214.0435	66	C10H11[37]ClNO2+
322.0667	999	C16H17ClNO2S+
