Mass spectrum: Finasteride; LC-ESI-QTOF; MS2; CE: 40 eV; R=35000; [M+H]+
Name: Finasteride
Name: (1S,3aS,3bS,5aR,9aR,9bS,11aS)-N-tert-butyl-9a,11a-dimethyl-7-oxo-1,2,3,3a,3b,4,5,5a,6,9b,10,11-dodecahydroindeno[5,4-f]quinoline-1-carboxamide
Formula: C23H36N2O2
Exact mass: 372.2776784
SMILES: CC(C)(C)NC(=O)[C@H]1CC[C@H]2[C@@H]3CC[C@H]4NC(=O)C=C[C@]4(C)[C@H]3CC[C@]12C
InChI: InChI=1S/C23H36N2O2/c1-21(2,3)25-20(27)17-8-7-15-14-6-9-18-23(5,13-11-19(26)24-18)16(14)10-12-22(15,17)4/h11,13-18H,6-10,12H2,1-5H3,(H,24,26)(H,25,27)/t14-,15-,16-,17+,18+,22-,23+/m0/s1
Instrument: Bruker maXis Impact
Instrument type: LC-ESI-QTOF
Ms type: MS2
Ion mode: POSITIVE
Ionization: ESI
Fragmentation mode: CID
Collision energy: 40 eV
Resolution: 35000
Column name: Acclaim RSLC C18 2.2um, 2.1x100mm, Thermo
Retention time: 9.906 min
Base peak: 373.2855
Precursor m/z: 373.285
Precursor type: [M+H]+
m/z	relative intensity	assigned
119.0845	8	C9H11+
121.1	11	C9H13+
122.0588	5	C7H8NO+
131.0843	9	C10H11+
133.1001	21	C10H13+
135.1158	11	C10H15+
136.0744	5	C8H10NO+
138.0898	6	C8H12NO+
143.0842	8	C11H11+
145.0998	17	C11H13+
147.1155	23	C11H15+
149.1308	8	C11H17+
150.0895	6	C9H12NO+
157.0996	5	C12H13+
159.1157	11	C12H15+
161.0942	9	C11H13O+
161.1311	11	C12H17+
164.1058	5	C10H14NO+
171.1154	5	C13H15+
173.1311	26	C13H17+
175.1103	5	C12H15O+
175.1468	56	C13H19+
176.1061	6	C11H14NO+
176.1497	7	C12[13]CH19+
177.1618	9	C13H21+
178.1216	6	C11H16NO+
183.1156	5	C14H15+
185.1311	21	C14H17+
187.1467	30	C14H19+
189.1627	35	C14H21+
190.1658	5	C13[13]CH21+
195.1156	6	C15H15+
197.131	8	C15H17+
203.1416	11	C14H19O+
213.1627	11	C16H21+
215.1417	14	C15H19O+
215.1783	6	C16H23+
216.1394	5	C14H18NO+
220.1684	23	C14H22NO+
227.1785	14	C17H23+
232.1684	15	C15H22NO+
237.1634	14	C18H21+
239.1783	6	C18H23+
246.1845	25	C16H24NO+
249.1955	21	C15H25N2O+
254.1891	6	C18H24N+
255.1733	25	C18H23O+
256.1732	7	C17[13]CH23O+
257.1883	5	C18H25O+
265.1582	5	C19H21O+
272.2001	19	C18H26NO+
273.2025	5	C17[13]CH26NO+
274.2154	14	C18H28NO+
282.1846	18	C19H24NO+
283.1685	6	C19H23O2+
299.2117	5	C19H27N2O+
300.1947	21	C19H26NO2+
305.2585	749	C19H33N2O+
306.2614	131	C18[13]CH33N2O+
307.2643	11	C17[13]C2H33N2O+
317.222	216	C19H29N2O2+
318.225	42	C18[13]CH29N2O2+
319.2271	5	C17[13]C2H29N2O2+
331.2741	6	C21H35N2O+
355.2739	14	C23H35N2O+
357.2526	8	C22H33N2O2+
373.2847	999	C23H37N2O2+
374.288	211	C22[13]CH37N2O2+
375.2903	23	C21[13]C2H37N2O2+
