Mass spectrum: 4-Nitroquinoline-1-oxide; LC-ESI-QTOF; MS2; CE: Ramp 17.3-25.9 eV; R=35000; [M+H]+
Name: 4-Nitroquinoline-1-oxide
Name: 4-Nitroquinoline 1-oxide
Name: 4-nitro-1-oxidoquinolin-1-ium
Formula: C9H6N2O3
Exact mass: 190.0378421
SMILES: [O-][N+](=O)C1=CC=[N+]([O-])C2=CC=CC=C12
InChI: InChI=1S/C9H6N2O3/c12-10-6-5-9(11(13)14)7-3-1-2-4-8(7)10/h1-6H
Instrument: Bruker maXis Impact
Instrument type: LC-ESI-QTOF
Ms type: MS2
Ion mode: POSITIVE
Ionization: ESI
Fragmentation mode: CID
Collision energy: ceV
Resolution: 35000
Column name: Acclaim RSLC C18 2.2um, 2.1x100mm, Thermo
Retention time: 5.665 min
Base peak: 191.0444
Precursor m/z: 191.0451
Precursor type: [M+H]+
m/z	relative intensity	assigned
116.0489	85	C8H6N+
128.0487	549	C9H6N+
129.052	55	C8[13]CH6N+
132.0437	65	C8H6NO+
133.051	34	C8H7NO+
144.0441	47	C9H6NO+
145.0513	450	C9H7NO+
149.0466	113	C8H7NO2+
160.0372	37	C9H6NO2+
161.0464	310	C9H7NO2+
162.0175	34	C8H4NO3+
162.0507	40	C8[13]CH7NO2+
177.0413	999	C9H7NO3+
178.0451	72	C8[13]CH7NO3+
191.0448	450	C9H7N2O3+
192.0458	32	C8[13]CH7N2O3+
