Mass spectrum: Glycidyl methacrylate; GC-APCI-QTOF; MS2; CE: 20 eV; R=35000; [M+H]+
Name: Glycidyl methacrylate
Formula: C7H10O3
Exact mass: 142.0630
SMILES: CC(=C)C(=O)OCC1CO1
InChI: InChI=1S/C7H10O3/c1-5(2)7(8)10-4-6-3-9-6/h6H,1,3-4H2,2H3
Instrument: Bruker 450 GC coupled to maXis Impact
Instrument type: GC-APCI-QTOF
Ms type: MS2
Ion mode: POSITIVE
Ionization: APCI
Fragmentation mode: CID
Collision energy: 20 eV
Resolution: 35000
Column name: Rxi-5Sil MS column, 30m, 0.25mm i.d., 0.25Âµm film thickness, Restek
Retention time: 8.134 min
Base peak: 172.0629
Precursor m/z: 143.0703
Precursor type: [M+H]+
m/z	relative intensity	assigned
143.0707	999	C7H11O3+
