Mass spectrum: 8-hydroxy Mirtazapine; LC-ESI-QTOF; MS2; CE: 30 eV; R=35000; [M+H]+
Name: 8-hydroxy Mirtazapine
Formula: C17H19N3O
Exact mass: 281.1528122
SMILES: CN1CCN2C(C1)C1=CC=CC=C1CC1=CC(O)=CN=C21
InChI: InChI=1S/C17H19N3O/c1-19-6-7-20-16(11-19)15-5-3-2-4-12(15)8-13-9-14(21)10-18-17(13)20/h2-5,9-10,16,21H,6-8,11H2,1H3
Instrument: Bruker maXis Impact
Instrument type: LC-ESI-QTOF
Ms type: MS2
Ion mode: POSITIVE
Ionization: ESI
Fragmentation mode: CID
Collision energy: 30 eV
Resolution: 35000
Column name: Acclaim RSLC C18 2.2um, 2.1x100mm, Thermo
Retention time: 4.6 min
Base peak: 282.1599
Precursor m/z: 282.1601
Precursor type: [M+H]+
m/z	relative intensity	assigned
144.0797	7	C10H10N+
149.0696	8	C8H9N2O+
166.064	8	C12H8N+
211.086	999	C13H11N2O+
212.089	113	C12[13]CH11N2O+
213.0912	5	C11[13]C2H11N2O+
223.0853	6	C14H11N2O+
225.1018	151	C14H13N2O+
226.1046	19	C13[13]CH13N2O+
236.0938	6	C15H12N2O+
239.1172	37	C15H15N2O+
240.1197	7	C14[13]CH15N2O+
251.1175	64	C16H15N2O+
253.1331	5	C16H17N2O+
282.1597	71	C17H20N3O+
