Mass spectrum: Lamotrigine; LC-ESI-QTOF; MS2; CE: 10 eV; R=35000; [M+H]+
Name: Lamotrigine
Name: 6-(2,3-dichlorophenyl)-1,2,4-triazine-3,5-diamine
Formula: C9H7Cl2N5
Exact mass: 255.0078506
SMILES: NC1=NC(N)=C(N=N1)C1=C(Cl)C(Cl)=CC=C1
InChI: InChI=1S/C9H7Cl2N5/c10-5-3-1-2-4(6(5)11)7-8(12)14-9(13)16-15-7/h1-3H,(H4,12,13,14,16)
Instrument: Bruker maXis Impact
Instrument type: LC-ESI-QTOF
Ms type: MS2
Ion mode: POSITIVE
Ionization: ESI
Fragmentation mode: CID
Collision energy: 10 eV
Resolution: 35000
Column name: Acclaim RSLC C18 2.2um, 2.1x100mm, Thermo
Retention time: 5.142 min
Base peak: 256.0147
Precursor m/z: 256.0151
Precursor type: [M+H]+
m/z	relative intensity	assigned
256.0153	999	C9H8Cl2N5+
257.0172	115	C8[13]CH8Cl2N5+
258.0118	760	C9H8Cl[37]ClN5+
