Mass spectrum: 4-Isopropylantipyrine; LC-ESI-QTOF; MS2; CE: 30 eV; R=35000; [M+H]+
Name: 4-Isopropylantipyrine
Name: Propyphenazone
Name: 1,5-dimethyl-2-phenyl-4-propan-2-ylpyrazol-3-one
Formula: C14H18N2O
Exact mass: 230.1419132
SMILES: Cc1c(c(=O)n(n1C)c2ccccc2)C(C)C
InChI: InChI=1S/C14H18N2O/c1-10(2)13-11(3)15(4)16(14(13)17)12-8-6-5-7-9-12/h5-10H,1-4H3
Instrument: Bruker maXis Impact
Instrument type: LC-ESI-QTOF
Ms type: MS2
Ion mode: POSITIVE
Ionization: ESI
Fragmentation mode: CID
Collision energy: 30 eV
Resolution: 35000
Column name: Acclaim RSLC C18 2.2um, 2.1x100mm, Thermo
Retention time: 7.453 min
Base peak: 231.1491
Precursor m/z: 231.1492
Precursor type: [M+H]+
m/z	relative intensity	assigned
115.0533	5	C9H7+
118.0642	24	C8H8N+
120.0433	7	C7H6NO+
120.0797	33	C8H10N+
124.0747	26	C7H10NO+
130.0638	27	C9H8N+
131.0715	47	C9H9N+
132.0789	16	C9H10N+
133.0511	5	C8H7NO+
133.075	13	C8H9N2+
134.0946	8	C9H12N+
138.0903	12	C8H12NO+
142.0636	6	C10H8N+
144.0796	62	C10H10N+
145.0631	11	C10H9O+
146.0825	33	C9H10N2+
146.0949	76	C10H12N+
147.0905	13	C9H11N2+
148.074	8	C9H10NO+
148.1106	9	C10H14N+
157.0871	7	C11H11N+
158.0948	6	C11H12N+
159.0904	6	C10H11N2+
160.0738	6	C10H10NO+
160.0977	17	C10H12N2+
161.1057	31	C10H13N2+
172.0742	13	C11H10NO+
172.1103	16	C12H14N+
174.0774	14	C10H10N2O+
186.0769	5	C11H10N2O+
187.085	7	C11H11N2O+
188.093	12	C11H12N2O+
189.1011	749	C11H13N2O+
190.1042	64	C10[13]CH13N2O+
201.1013	268	C12H13N2O+
202.1042	28	C11[13]CH13N2O+
203.1532	12	C13H19N2+
215.117	11	C13H15N2O+
216.1246	22	C13H16N2O+
229.1328	9	C14H17N2O+
231.1485	999	C14H19N2O+
232.1516	110	C13[13]CH19N2O+
233.1541	9	C12[13]C2H19N2O+
