Mass spectrum: Phenylbutazone; LC-ESI-QTOF; MS2; CE: 30 eV; R=35000; [M+H]+
Name: Phenylbutazone
Name: 4-butyl-1,2-diphenylpyrazolidine-3,5-dione
Formula: C19H20N2O2
Exact mass: 308.1524779
SMILES: CCCCC1C(=O)N(N(C1=O)c2ccccc2)c3ccccc3
InChI: InChI=1S/C19H20N2O2/c1-2-3-14-17-18(22)20(15-10-6-4-7-11-15)21(19(17)23)16-12-8-5-9-13-16/h4-13,17H,2-3,14H2,1H3
Instrument: Bruker maXis Impact
Instrument type: LC-ESI-QTOF
Ms type: MS2
Ion mode: POSITIVE
Ionization: ESI
Fragmentation mode: CID
Collision energy: 30 eV
Resolution: 35000
Column name: Acclaim RSLC C18 2.2um, 2.1x100mm, Thermo
Retention time: 3.6 min
Base peak: 309.1719
Precursor m/z: 309.1598
Precursor type: [M+H]+
m/z	relative intensity	assigned
123.0616	19	C2H9N3O3+
124.0692	17	C2H10N3O3+
171.0828	278	C12H11O+
172.0877	38	C11[13]CH11O+
173.0947	5	C12H13O+
184.0914	7	C13H12O+
185.0991	15	C13H13O+
187.1137	32	C13H15O+
234.0935	5	C16H12NO+
248.0864	7	C17H12O2+
260.0961	5	C17H12N2O+
262.0997	48	C18H14O2+
263.1043	8	C18H15O2+
264.1142	11	C18H16O2+
265.1251	17	C18H17O2+
266.1303	394	C18H18O2+
267.1337	39	C17[13]CH18O2+
276.1145	51	C19H16O2+
277.1226	268	C19H17O2+
278.1251	40	C18[13]CH17O2+
279.1256	195	C18H17NO2+
280.1284	27	C17[13]CH17NO2+
292.1333	25	C19H18NO2+
294.1485	738	C19H20NO2+
295.1522	76	C19H21NO2+
296.1559	5	C17[13]C2H20NO2+
307.1564	282	C18H19N4O+
308.1545	44	C19H20N2O2+
309.1658	999	C19H21N2O2+
310.1691	118	C18[13]CH21N2O2+
