Mass spectrum: Tri-n-butyl acetyl citrate; GC-APCI-QTOF; MS2; CE: 30 eV; R=35000; [M+H]+
Name: Tri-n-butyl acetyl citrate
Formula: C20H34O8
Exact mass: 402.2254
SMILES: CCCCOC(=O)CC(CC(=O)OCCCC)(C(=O)OCCCC)OC(=O)C
InChI: InChI=1S/C20H34O8/c1-5-8-11-25-17(22)14-20(28-16(4)21,19(24)27-13-10-7-3)15-18(23)26-12-9-6-2/h5-15H2,1-4H3
Instrument: Bruker 450 GC coupled to maXis Impact
Instrument type: GC-APCI-QTOF
Ms type: MS2
Ion mode: POSITIVE
Ionization: APCI
Fragmentation mode: CID
Collision energy: 30 eV
Resolution: 35000
Column name: Rxi-5Sil MS column, 30m, 0.25mm i.d., 0.25Âµm film thickness, Restek
Retention time: 21.180 min
Base peak: 403.2322
Precursor m/z: 403.2326
Precursor type: [M+H]+
m/z	relative intensity	assigned
129.0179	999	C5H5O4+
139.0041	237	C6H3O4+
140.0091	20	C6H4O4+
147.0305	14	C5H7O5+
157.0157	447	C6H5O5+
158.0205	27	C6H6O5+
159.0203	6	C13H3+
185.0831	529	C9H13O4+
186.0868	64	C9H14O4+
213.0799	6	C10H13O5+
214.0833	7	C10H14O5+
217.036	23	C8H9O7+
259.1568	8	C13H23O5+
