Mass spectrum: Normianserin; LC-ESI-QTOF; MS2; CE: 20 eV; R=35000; [M+H]+
Name: Normianserin
Name: Desmethylmianserin
Formula: C17H18N2
Exact mass: 250.1469986
SMILES: c1ccc2c(c1)Cc3ccccc3N4C2CNCC4
InChI: InChI=1S/C17H18N2/c1-3-7-15-13(5-1)11-14-6-2-4-8-16(14)19-10-9-18-12-17(15)19/h1-8,17-18H,9-12H2
Instrument: Bruker maXis Impact
Instrument type: LC-ESI-QTOF
Ms type: MS2
Ion mode: POSITIVE
Ionization: ESI
Fragmentation mode: CID
Collision energy: 20 eV
Resolution: 35000
Column name: Acclaim RSLC C18 2.2um, 2.1x100mm, Thermo
Retention time: 7.3 min
Base peak: 251.1537
Precursor m/z: 251.1543
Precursor type: [M+H]+
m/z	relative intensity	assigned
118.0642	40	C8H8N+
120.08	35	C8H10N+
130.0641	6	C9H8N+
132.0795	68	C9H10N+
134.0958	14	C9H12N+
144.0796	16	C10H10N+
146.0953	6	C10H12N+
147.0904	41	C9H11N2+
158.0952	24	C11H12N+
167.0838	12	C13H11+
179.0836	8	C14H11+
194.0946	5	C14H12N+
196.1114	9	C14H14N+
206.0956	6	C15H12N+
208.1115	395	C15H14N+
209.1146	58	C14[13]CH14N+
222.1268	8	C16H16N+
223.1235	5	C15H15N2+
234.1271	43	C17H16N+
251.1539	999	C17H19N2+
252.1572	155	C16[13]CH19N2+
253.1599	11	C15[13]C2H19N2+
