Mass spectrum: Sulfamethazine; LC-ESI-QTOF; MS2; CE: 50 eV; R=35000; [M+H]+
Name: Sulfamethazine
Name: 4-amino-N-(4,6-dimethylpyrimidin-2-yl)benzenesulfonamide
Formula: C12H14N4O2S
Exact mass: 278.0837467
SMILES: CC1=CC(C)=NC(NS(=O)(=O)C2=CC=C(N)C=C2)=N1
InChI: InChI=1S/C12H14N4O2S/c1-8-7-9(2)15-12(14-8)16-19(17,18)11-5-3-10(13)4-6-11/h3-7H,13H2,1-2H3,(H,14,15,16)
Instrument: Bruker maXis Impact
Instrument type: LC-ESI-QTOF
Ms type: MS2
Ion mode: POSITIVE
Ionization: ESI
Fragmentation mode: CID
Collision energy: 50 eV
Resolution: 35000
Column name: Acclaim RSLC C18 2.2um, 2.1x100mm, Thermo
Retention time: 4.2 min
Base peak: 279.0909
Precursor m/z: 279.091
Precursor type: [M+H]+
m/z	relative intensity	assigned
108.0453	17	C6H6NO+
122.0703	28	C6H8N3+
123.078	27	C6H9N3+
124.0859	999	C6H10N3+
125.0891	78	C5[13]CH10N3+
149.0231	16	C6H3N3O2+
154.0639	21	C3H12N3O2S+
155.0605	24	C10H7N2+
155.0714	26	C3H13N3O2S+
156.01	27	C4H4N4OS+
169.0745	14	C3H13N4O2S+
171.0781	15	C10H9N3+
172.0869	12	C10H10N3+
181.0634	9	C11H7N3+
186.1022	10	C11H12N3+
195.0786	15	C12H9N3+
196.0859	76	C12H10N3+
197.0856	38	C8H13N4S+
198.0886	58	C11H10N4+
199.0904	9	C9H15N2OS+
204.0438	26	C12H4N4+
212.1048	23	C12H12N4+
213.1122	93	C12H13N4+
214.1153	17	C7H14N6O2+
