Mass spectrum: Bisphenol A (2,3-dihydroxypropyl) glycidyl ether; LC-ESI-QTOF; MS2; CE: 10 eV; R=35000; [M+NH4]+
Name: Bisphenol A (2,3-dihydroxypropyl) glycidyl ether
Name: 3-(4-(1-(4-(2,3-Epoxypropoxy)phenyl)-1-methylethyl)phenoxy)propane-1,2-diol
Name: 3-[4-[2-[4-(oxiran-2-ylmethoxy)phenyl]propan-2-yl]phenoxy]propane-1,2-diol
Formula: C21H26O5
Exact mass: 358.178
SMILES: CC(C)(C1=CC=C(C=C1)OCC2CO2)C3=CC=C(C=C3)OCC(CO)O
InChI: InChI=1S/C21H26O5/c1-21(2,15-3-7-18(8-4-15)24-12-17(23)11-22)16-5-9-19(10-6-16)25-13-20-14-26-20/h3-10,17,20,22-23H,11-14H2,1-2H3
Instrument: Bruker maXis Impact
Instrument type: LC-ESI-QTOF
Ms type: MS2
Ion mode: POSITIVE
Ionization: ESI
Fragmentation mode: CID
Collision energy: 10 eV
Resolution: 35000
Column name: Acclaim RSLC C18 2.2um, 2.1x100mm, Thermo
Retention time: 9.526 min
Base peak: 376.2117
Precursor m/z: 376.2129
Precursor type: [M+NH4]+
m/z	relative intensity	assigned
135.0792	15	C9H11O+
161.0952	9	C11H13O+
173.0947	24	C12H13O+
191.1052	152	C12H15O2+
209.1165	559	C12H17O3+
211.1218	6	C11H17NO3+
250.0849	8	C13H14O5+
329.1729	5	C20H25O4+
341.1758	16	C21H25O4+
376.2118	999	C21H30NO5+
