Mass spectrum: Clotrimazole; LC-ESI-QTOF; MS2; CE: 30 eV; R=35000; [M+H]+
Name: Clotrimazole
Name: 1-[(2-chlorophenyl)-diphenylmethyl]imidazole
Formula: C22H17ClN2
Exact mass: 344.1080262
SMILES: ClC1=CC=CC=C1C(N1C=CN=C1)(C1=CC=CC=C1)C1=CC=CC=C1
InChI: InChI=1S/C22H17ClN2/c23-21-14-8-7-13-20(21)22(25-16-15-24-17-25,18-9-3-1-4-10-18)19-11-5-2-6-12-19/h1-17H
Instrument: Bruker maXis Impact
Instrument type: LC-ESI-QTOF
Ms type: MS2
Ion mode: POSITIVE
Ionization: ESI
Fragmentation mode: CID
Collision energy: 30 eV
Resolution: 35000
Column name: Acclaim RSLC C18 2.2um, 2.1x100mm, Thermo
Retention time: 11.178 min
Base peak: 277.0782
Precursor m/z: 345.1153
Precursor type: [M+H]+
m/z	relative intensity	assigned
125.0141	7	C8HN2+
165.069	771	C13H9+
166.0722	77	C12[13]CH9+
199.0303	70	C13H8Cl+
200.0339	9	C12[13]CH8Cl+
201.0269	21	C13H8[37]Cl+
241.101	135	C19H13+
242.1084	187	C19H14+
243.1117	33	C18[13]CH14+
249.047	5	C17H10Cl+
262.0538	5	C18H11Cl+
277.0779	999	C19H14Cl+
278.0811	172	C18[13]CH14Cl+
279.0753	243	C19H14[37]Cl+
280.0784	31	C17H13ClN2+
