Mass spectrum: Efavirenz; LC-ESI-QTOF; MS2; CE: 30 eV; R=35000; [M-H]-
Name: Efavirenz
Name: 6-Chloro-4-(cyclopropylethynyl)-4-(trifluoromethyl)-1,4-dihydro-2H-3,1-benzoxazin-2-one
Name: 6-chloro-4-(2-cyclopropylethynyl)-4-(trifluoromethyl)-1H-3,1-benzoxazin-2-one
Formula: C14H9ClF3NO2
Exact mass: 315.0273909
SMILES: FC(F)(F)C1(OC(=O)NC2=C1C=C(Cl)C=C2)C#CC1CC1
InChI: InChI=1S/C14H9ClF3NO2/c15-9-3-4-11-10(7-9)13(14(16,17)18,21-12(20)19-11)6-5-8-1-2-8/h3-4,7-8H,1-2H2,(H,19,20)
Instrument: Bruker maXis Impact
Instrument type: LC-ESI-QTOF
Ms type: MS2
Ion mode: NEGATIVE
Ionization: ESI
Fragmentation mode: CID
Collision energy: 30 eV
Resolution: 35000
Column name: Acclaim RSLC C18 2.2um, 2.1x100mm, Thermo
Retention time: 10.627 min
Base peak: 314.0187
Precursor m/z: 314.0201
Precursor type: [M-H]-
m/z	relative intensity	assigned
151.9924	215	C4H4ClFNO2-
200.0284	209	C9H8ClFNO-
202.0039	198	C12HF3-
202.0208	275	C9H8ClFO2-
206.0195	183	C8H7ClF2NO-
208.042	496	C13H6NO2-
210.0115	154	C13H5ClN-
216.0217	412	C12H7ClNO-
218.0189	204	C12H7[37]ClNO-
221.9913	448	C8H4ClF3NO-
223.9904	187	C8H4[37]ClF3NO-
226.0038	252	C14HF3-
241.9963	708	C11H5ClF2O2-
243.9927	224	C11H5[37]ClF2O2-
244.016	999	C11H6ClF3N-
246.0098	524	C11H6[37]ClF3N-
247.9757	171	C9H2ClF3NO2-
250.0235	312	C13H7ClF2N-
