Mass spectrum: Terbutylazine; LC-ESI-QTOF; MS2; CE: 30 eV; R=35000; [M+H]+
Name: Terbutylazine
Name: Terbuthylazine
Name: 2-N-tert-butyl-6-chloro-4-N-ethyl-1,3,5-triazine-2,4-diamine
Formula: C9H16ClN5
Exact mass: 229.1094232
SMILES: CCNC1=NC(NC(C)(C)C)=NC(Cl)=N1
InChI: InChI=1S/C9H16ClN5/c1-5-11-7-12-6(10)13-8(14-7)15-9(2,3)4/h5H2,1-4H3,(H2,11,12,13,14,15)
Instrument: Bruker maXis Impact
Instrument type: LC-ESI-QTOF
Ms type: MS2
Ion mode: POSITIVE
Ionization: ESI
Fragmentation mode: CID
Collision energy: 30 eV
Resolution: 35000
Column name: Acclaim RSLC C18 2.2um, 2.1x100mm, Thermo
Retention time: 9.3 min
Base peak: 230.1163
Precursor m/z: 230.1167
Precursor type: [M+H]+
m/z	relative intensity	assigned
132.0315	175	C4H7ClN3+
133.0334	11	C3[13]CH7ClN3+
134.0282	44	C4H7[37]ClN3+
138.0764	78	C5H8N5+
146.0219	146	C3H5ClN5+
147.0232	8	C2[13]CH5ClN5+
148.0185	43	C3H5[37]ClN5+
174.0531	999	C5H9ClN5+
175.0551	66	C4[13]CH9ClN5+
176.0499	286	C5H9[37]ClN5+
177.0526	8	C4[13]CH9[37]ClN5+
