Mass spectrum: N,N-Dimethyl-N'-phenylsulfamide; LC-ESI-QTOF; MS2; CE: 10 eV; R=35000; [M+H]+
Name: N,N-Dimethyl-N'-phenylsulfamide
Name: N-(Dimethylsulfamoyl)aniline
Name: (dimethylsulfamoylamino)benzene
Formula: C8H12N2O2S
Exact mass: 200.0619486
SMILES: CN(C)S(=O)(=O)NC1=CC=CC=C1
InChI: InChI=1S/C8H12N2O2S/c1-10(2)13(11,12)9-8-6-4-3-5-7-8/h3-7,9H,1-2H3
Instrument: Bruker maXis Impact
Instrument type: LC-ESI-QTOF
Ms type: MS2
Ion mode: POSITIVE
Ionization: ESI
Fragmentation mode: CID
Collision energy: 10 eV
Resolution: 35000
Column name: Acclaim RSLC C18 2.2um, 2.1x100mm, Thermo
Retention time: 6.1 min
Base peak: 201.0684
Precursor m/z: 201.0692
Precursor type: [M+H]+
m/z	relative intensity	assigned
120.0798	5	C8H10N+
121.0875	8	C8H11N+
122.0824	31	C7H10N2+
135.0905	9	C8H11N2+
136.0987	7	C8H12N2+
137.1063	827	C8H13N2+
138.1097	64	C7[13]CH13N2+
151.1112	5	C8H13N3+
156.0102	7	C6H6NO2S+
167.106	5	C8H13N3O+
201.0685	999	C8H13N2O2S+
202.071	87	C7[13]CH13N2O2S+
203.0659	39	C8H13N2O2[34]S+
