Mass spectrum: Tiapride; LC-ESI-QTOF; MS2; CE: 50 eV; R=35000; [M+H]+
Name: Tiapride
Name: N-[2-(diethylamino)ethyl]-2-methoxy-5-methylsulfonylbenzamide
Formula: C15H24N2O4S
Exact mass: 328.1456782
SMILES: CCN(CC)CCNC(=O)c1cc(ccc1OC)S(=O)(=O)C
InChI: InChI=1S/C15H24N2O4S/c1-5-17(6-2)10-9-16-15(18)13-11-12(22(4,19)20)7-8-14(13)21-3/h7-8,11H,5-6,9-10H2,1-4H3,(H,16,18)
Instrument: Bruker maXis Impact
Instrument type: LC-ESI-QTOF
Ms type: MS2
Ion mode: POSITIVE
Ionization: ESI
Fragmentation mode: CID
Collision energy: 50 eV
Resolution: 35000
Column name: Acclaim RSLC C18 2.2um, 2.1x100mm, Thermo
Retention time: 3.156 min
Base peak: 329.1528
Precursor m/z: 329.153
Precursor type: [M+H]+
m/z	relative intensity	assigned
123.0068	5	C6H3O3+
132.0434	9	C8H6NO+
133.0514	176	C8H7NO+
134.0355	178	C8H6O2+
134.0582	27	C5H10O4+
135.039	13	C7[13]CH6O2+
148.0741	5	C6H12O4+
154.9782	5	C6H3O3S+
162.0539	76	C9H8NO2+
163.0572	7	C8[13]CH8NO2+
165.0409	8	C8H7NO3+
166.0248	31	C8H6O4+
170.0021	5	C13N+
173.0257	5	C13H3N+
177.0778	314	C10H11NO2+
178.0489	53	C9H8NO3+
178.0808	25	C9[13]CH11NO2+
181.9898	6	C7H4NO3S+
183.0212	29	C7H7N2O2S+
185.0256	26	C14H3N+
209.0675	71	C10H11NO4+
210.0706	6	C9[13]CH11NO4+
212.0371	159	C15H4N2+
213.0211	999	C9H9O4S+
214.0244	67	C8[13]CH9O4S+
215.0175	27	C9H9O4[34]S+
226.0161	28	C15H2N2O+
230.0473	24	C15H6N2O+
241.0399	33	C10H11NO4S+
256.0636	86	C11H14NO4S+
257.0662	11	C10[13]CH14NO4S+
