Mass spectrum: Myclobutanil; LC-ESI-QTOF; MS2; CE: 40 eV; R=35000; [M+H]+
Name: Myclobutanil
Name: 2-(4-chlorophenyl)-2-(1,2,4-triazol-1-ylmethyl)hexanenitrile
Formula: C15H17ClN4
Exact mass: 288.1141742
SMILES: CCCCC(CN1C=NC=N1)(C#N)C1=CC=C(Cl)C=C1
InChI: InChI=1S/C15H17ClN4/c1-2-3-8-15(9-17,10-20-12-18-11-19-20)13-4-6-14(16)7-5-13/h4-7,11-12H,2-3,8,10H2,1H3
Instrument: Bruker maXis Impact
Instrument type: LC-ESI-QTOF
Ms type: MS2
Ion mode: POSITIVE
Ionization: ESI
Fragmentation mode: CID
Collision energy: 40 eV
Resolution: 35000
Column name: Acclaim RSLC C18 2.2um, 2.1x100mm, Thermo
Retention time: 9.807 min
Base peak: 289.1209
Precursor m/z: 289.1215
Precursor type: [M+H]+
m/z	relative intensity	assigned
115.0538	52	C9H7+
116.0604	29	C9H8+
125.0144	999	C7H6Cl+
126.0176	102	C6[13]CH6Cl+
127.0112	299	C7H6[37]Cl+
128.0143	14	C5H5ClN2+
128.0483	47	C9H6N+
128.0607	8	C10H8+
129.0506	6	C8[13]CH6N+
129.0683	8	C10H9+
130.0647	38	C9H8N+
130.0782	6	C10H10+
131.0725	17	C9H9N+
137.0134	29	C8H6Cl+
138.9937	7	C5H2ClN3+
139.0116	12	C8H6[37]Cl+
139.0308	5	C8H8Cl+
141.0691	8	C11H9+
142.0745	8	C11H10+
143.0714	18	C10H9N+
149.0156	24	C9H6Cl+
150.0092	44	C8H5ClN+
151.0295	201	C9H8Cl+
152.0067	14	C8H5[37]ClN+
152.0328	24	C8[13]CH8Cl+
152.0607	7	C12H8+
153.0267	57	C9H8[37]Cl+
153.0686	20	C12H9+
156.0803	8	C11H10N+
157.0854	5	C11H11N+
163.0177	6	C9H6ClN+
163.0301	7	C10H8Cl+
164.0244	127	C9H7ClN+
165.0282	17	C8[13]CH7ClN+
166.0224	37	C9H7[37]ClN+
166.0399	14	C10H4N3+
167.0248	5	C7H6ClN3+
167.0839	16	C13H11+
168.0923	11	C13H12+
170.0958	10	C12H12N+
175.0297	16	C12H3N2+
177.0339	6	C10H8ClN+
178.0408	32	C10H9ClN+
179.0435	7	C11H5N3+
180.0384	7	C10H9[37]ClN+
184.1106	12	C13H14N+
192.0547	5	C12H6N3+
203.0626	5	C13H12Cl+
225.0443	7	C15H10Cl+
