Mass spectrum: N4-Acetylsulfadimethoxine; LC-ESI-QTOF; MS2; CE: 20 eV; R=35000; [M+H]+
Name: N4-Acetylsulfadimethoxine
Name: N(4)-Acetylsulfadimethoxine
Name: N-[4-[(4,6-dimethoxypyrimidin-2-yl)sulfamoyl]phenyl]acetamide
Formula: C14H16N4O5S
Exact mass: 352.0841406
SMILES: COC1=CC(OC)=NC(NS(=O)(=O)C2=CC=C(NC(C)=O)C=C2)=N1
InChI: InChI=1S/C14H16N4O5S/c1-9(19)15-10-4-6-11(7-5-10)24(20,21)18-14-16-12(22-2)8-13(17-14)23-3/h4-8H,1-3H3,(H,15,19)(H,16,17,18)
Instrument: Bruker maXis Impact
Instrument type: LC-ESI-QTOF
Ms type: MS2
Ion mode: POSITIVE
Ionization: ESI
Fragmentation mode: CID
Collision energy: 20 eV
Resolution: 35000
Column name: Acclaim RSLC C18 2.2um, 2.1x100mm, Thermo
Retention time: 6.0 min
Base peak: 242.2839
Precursor m/z: 353.0914
Precursor type: [M+H]+
m/z	relative intensity	assigned
134.0598	23	C8H8NO+
154.0615	18	H14N2O5S+
155.0681	52	C6H9N3O2+
156.0087	7	C3H8O5S+
156.0761	108	C6H10N3O2+
157.0769	10	C4H15NO3S+
162.0659	9	C8H8N3O+
198.0208	95	C6H6N4O2S+
199.026	12	C3H9N3O5S+
200.0166	7	C11H6NOS+
212.0368	10	C7H8N4O2S+
218.0236	27	C14H4NO2+
257.1027	8	C13H13N4O2+
287.115	59	C14H15N4O3+
288.1184	10	C13[13]CH15N4O3+
321.0657	23	C13H13N4O4S+
353.0916	999	C14H17N4O5S+
354.0941	160	C13[13]CH17N4O5S+
355.0915	54	C14H17N4O5[34]S+
