Mass spectrum: Chloridazon; LC-ESI-QTOF; MS2; CE: 20 eV; R=35000; [M+H]+
Name: Chloridazon
Name: 5-amino-4-chloro-2-phenylpyridazin-3-one
Formula: C10H8ClN3O
Exact mass: 221.0355896
SMILES: NC1=C(Cl)C(=O)N(N=C1)C1=CC=CC=C1
InChI: InChI=1S/C10H8ClN3O/c11-9-8(12)6-13-14(10(9)15)7-4-2-1-3-5-7/h1-6H,12H2
Instrument: Bruker maXis Impact
Instrument type: LC-ESI-QTOF
Ms type: MS2
Ion mode: POSITIVE
Ionization: ESI
Fragmentation mode: CID
Collision energy: 20 eV
Resolution: 35000
Column name: Acclaim RSLC C18 2.2um, 2.1x100mm, Thermo
Retention time: 5.2 min
Base peak: 222.0424
Precursor m/z: 222.0429
Precursor type: [M+H]+
m/z	relative intensity	assigned
186.0649	9	C10H8N3O+
222.0424	999	C10H9ClN3O+
223.0452	86	C9[13]CH9ClN3O+
224.0395	244	C10H9[37]ClN3O+
225.0422	19	C9[13]CH9[37]ClN3O+
