Mass spectrum: Gestoden; LC-ESI-QTOF; MS2; CE: 20 eV; R=35000; [M+H]+
Name: Gestoden
Name: Gestodene
Name: (8R,9S,10R,13S,14S,17R)-13-ethyl-17-ethynyl-17-hydroxy-1,2,6,7,8,9,10,11,12,14-decahydrocyclopenta[a]phenanthren-3-one
Formula: C21H26O2
Exact mass: 310.1932801
SMILES: [H][C@@]12C=C[C@@](O)(C#C)[C@@]1(CC)CC[C@]1([H])[C@@]3([H])CCC(=O)C=C3CC[C@@]21[H]
InChI: InChI=1S/C21H26O2/c1-3-20-11-9-17-16-8-6-15(22)13-14(16)5-7-18(17)19(20)10-12-21(20,23)4-2/h2,10,12-13,16-19,23H,3,5-9,11H2,1H3/t16-,17+,18+,19-,20-,21-/m0/s1
Instrument: Bruker maXis Impact
Instrument type: LC-ESI-QTOF
Ms type: MS2
Ion mode: POSITIVE
Ionization: ESI
Fragmentation mode: CID
Collision energy: 20 eV
Resolution: 35000
Column name: Acclaim RSLC C18 2.2um, 2.1x100mm, Thermo
Retention time: 9.451 min
Base peak: 311.201
Precursor m/z: 311.2006
Precursor type: [M+H]+
m/z	relative intensity	assigned
115.0539	5	C9H7+
117.0689	10	C9H9+
119.0849	20	C9H11+
121.064	13	C8H9O+
121.1003	10	C9H13+
123.0797	8	C8H11O+
129.0691	25	C10H9+
131.0848	38	C10H11+
132.0885	5	C9[13]CH11+
133.0639	35	C9H9O+
133.1003	31	C10H13+
135.0796	47	C9H11O+
135.116	7	C10H15+
137.0951	9	C9H13O+
141.0686	14	C11H9+
142.0757	7	C11H10+
143.0848	33	C11H11+
144.0893	5	C10[13]CH11+
145.0634	13	C10H9O+
145.1001	58	C11H13+
146.1034	5	C10[13]CH13+
147.0793	41	C10H11O+
147.1158	23	C11H15+
148.0837	6	C9[13]CH11O+
149.0948	55	C10H13O+
149.1308	6	C11H17+
150.0981	6	C9[13]CH13O+
155.0846	27	C12H11+
157.0635	8	C11H9O+
157.1002	41	C12H13+
158.104	5	C11[13]CH13+
159.0792	40	C11H11O+
159.116	29	C12H15+
160.0837	5	C10[13]CH11O+
160.1199	5	C11[13]CH15+
161.0952	44	C11H13O+
161.1312	24	C12H17+
162.0987	6	C10[13]CH13O+
163.1108	39	C11H15O+
164.1143	5	C10[13]CH15O+
167.0842	13	C13H11+
168.0907	7	C13H12+
169.1003	27	C13H13+
170.1048	5	C12[13]CH13+
171.0788	9	C12H11O+
171.1159	47	C13H15+
172.1199	6	C12[13]CH15+
173.0949	29	C12H13O+
173.1313	28	C13H17+
174.1011	5	C11[13]CH13O+
174.1347	5	C12[13]CH17+
175.1106	53	C12H15O+
175.147	14	C13H19+
176.1143	6	C11[13]CH15O+
177.1257	7	C12H17O+
179.0842	8	C14H11+
181.1003	30	C14H13+
182.1054	6	C13[13]CH13+
183.0791	8	C13H11O+
183.1161	55	C14H15+
184.1193	10	C13[13]CH15+
185.0953	16	C13H13O+
185.1316	39	C14H17+
186.1351	6	C13[13]CH17+
187.1109	21	C13H15O+
187.1463	9	C14H19+
189.1264	24	C13H17O+
193.0999	13	C15H13+
195.1159	28	C15H15+
196.1199	6	C14[13]CH15+
197.0951	12	C14H13O+
197.1315	30	C15H17+
198.1365	5	C14[13]CH17+
199.1106	19	C14H15O+
199.1471	16	C15H19+
201.1268	66	C14H17O+
201.1632	25	C15H21+
202.1301	12	C13[13]CH17O+
202.1671	5	C14[13]CH21+
203.142	20	C14H19O+
204.1461	5	C14H20O+
205.1005	10	C16H13+
207.116	12	C16H15+
208.1222	5	C16H16+
209.0955	8	C15H13O+
209.1316	21	C16H17+
210.1371	5	C15[13]CH17+
211.111	12	C15H15O+
211.1476	15	C16H19+
213.1265	15	C15H17O+
213.163	42	C16H21+
214.1659	8	C15[13]CH21+
215.1425	16	C15H19O+
217.158	11	C15H21O+
219.1157	13	C17H15+
219.1739	23	C15H23O+
220.1217	5	C17H16+
220.1767	5	C14[13]CH23O+
221.1314	10	C17H17+
223.1109	14	C16H15O+
223.147	24	C17H19+
224.1174	5	C16H16O+
224.1527	5	C16[13]CH19+
225.1263	10	C16H17O+
225.1629	25	C17H21+
226.1661	5	C16[13]CH21+
227.142	13	C16H19O+
228.1485	5	C16H20O+
229.1577	16	C16H21O+
230.1648	18	C16H22O+
231.1736	61	C16H23O+
232.1774	11	C15[13]CH23O+
233.1321	13	C18H17+
234.1359	5	C18H18+
235.1475	25	C18H19+
236.1525	9	C18H20+
237.1256	15	C17H17O+
237.1623	11	C18H21+
239.1431	11	C17H19O+
239.1787	7	C18H23+
241.1584	21	C17H21O+
242.1622	5	C16[13]CH21O+
243.1741	46	C17H23O+
244.1767	7	C16[13]CH23O+
246.1406	7	C19H18+
247.1471	9	C19H19+
249.1642	11	C19H21+
251.1426	12	C18H19O+
251.1787	20	C19H23+
253.1584	17	C18H21O+
255.1728	6	C18H23O+
264.1504	7	C19H20O+
265.1581	19	C19H21O+
265.194	15	C20H25+
266.1622	5	C18[13]CH21O+
269.1892	6	C19H25O+
275.1781	22	C21H23+
276.183	6	C20[13]CH23+
283.1687	6	C19H23O2+
283.2049	7	C20H27O+
293.1901	99	C21H25O+
294.1937	20	C20[13]CH25O+
311.201	999	C21H27O2+
312.2042	200	C20[13]CH27O2+
313.207	23	C19[13]C2H27O2+
