Mass spectrum: Paramethasone; LC-ESI-QTOF; MS2; CE: Ramp 23.5-35.2 eV; R=35000; [M+H]+
Name: Paramethasone
Name: (6S,8S,9S,10R,11S,13S,14S,16R,17R)-6-fluoro-11,17-dihydroxy-17-(2-hydroxyacetyl)-10,13,16-trimethyl-7,8,9,11,12,14,15,16-octahydro-6H-cyclopenta[a]phenanthren-3-one
Formula: C22H29FO5
Exact mass: 392.1999022
SMILES: [H][C@@]12C[C@@H](C)[C@](O)(C(=O)CO)[C@@]1(C)C[C@H](O)[C@@]1([H])[C@@]2([H])C[C@H](F)C2=CC(=O)C=C[C@]12C
InChI: InChI=1S/C22H29FO5/c1-11-6-14-13-8-16(23)15-7-12(25)4-5-20(15,2)19(13)17(26)9-21(14,3)22(11,28)18(27)10-24/h4-5,7,11,13-14,16-17,19,24,26,28H,6,8-10H2,1-3H3/t11-,13+,14+,16+,17+,19-,20+,21+,22+/m1/s1
Instrument: Bruker maXis Impact
Instrument type: LC-ESI-QTOF
Ms type: MS2
Ion mode: POSITIVE
Ionization: ESI
Fragmentation mode: CID
Collision energy: Ramp 23.5-35.2 eV
Resolution: 35000
Column name: Acclaim RSLC C18 2.2um, 2.1x100mm, Thermo
Retention time: 8.494 min
Base peak: 393.2071
Precursor m/z: 393.2072
Precursor type: [M+H]+
m/z	relative intensity	assigned
57.0332	16	C3H5O+
69.0338	11	C4H5O+
69.0693	19	C5H9+
71.0494	24	C4H7O+
81.0693	12	C6H9+
93.0699	11	C7H9+
95.0505	16	C3H8FO2+
95.0855	38	C7H11+
107.086	23	C8H11+
109.1014	13	C8H13+
111.0809	12	C7H11O+
115.0548	20	C6H8FO+
117.0699	15	C9H9+
119.0853	72	C9H11+
121.0642	188	C8H9O+
121.1005	84	C9H13+
122.067	18	C7[13]CH9O+
122.1046	10	C8[13]CH13+
123.0801	63	C8H11O+
125.0589	44	C7H9O2+
125.0961	33	C8H13O+
128.0608	16	C10H8+
129.0681	21	C10H9+
131.0852	69	C10H11+
132.0569	12	C9H8O+
133.0651	51	C9H9O+
133.0995	48	C10H13+
135.0794	258	C9H11O+
136.0826	26	C8[13]CH11O+
137.0593	23	C8H9O2+
137.0958	82	C9H13O+
139.0735	11	C8H11O2+
141.0693	19	C11H9+
143.0835	66	C11H11+
144.0556	11	C10H8O+
145.0638	63	C10H9O+
145.1001	44	C11H13+
146.0692	17	C10H10O+
147.0795	999	C10H11O+
148.0826	97	C9[13]CH11O+
149.0241	17	C5H6FO4+
149.0947	127	C10H13O+
150.0974	15	C9[13]CH13O+
151.0754	62	C9H11O2+
151.1101	31	C10H15O+
153.0901	133	C9H13O2+
154.0945	16	C8[13]CH13O2+
155.0695	10	C8H11O3+
155.0865	19	C9H12FO+
156.0905	16	C12H12+
157.0657	15	C8H10FO2+
157.1002	45	C12H13+
158.072	29	C11H10O+
159.0795	218	C11H11O+
159.1176	12	C9H16FO+
160.0831	41	C10[13]CH11O+
161.0952	238	C11H13O+
162.098	27	C10[13]CH13O+
163.076	29	C7H12FO3+
163.1117	21	C11H15O+
165.0895	32	C10H13O2+
167.0859	16	C13H11+
167.1054	74	C10H15O2+
169.0632	27	C12H9O+
169.0862	10	C9H13O3+
169.1013	32	C13H13+
171.0799	446	C12H11O+
171.1165	39	C13H15+
172.083	80	C11[13]CH11O+
173.0953	338	C12H13O+
174.0979	53	C11[13]CH13O+
175.0757	19	C11H11O2+
175.1113	39	C12H15O+
177.0902	90	C11H13O2+
178.0954	19	C11H14O2+
179.0843	25	C14H11+
180.0901	13	C14H12+
181.1004	21	C14H13+
183.0796	42	C13H11O+
183.1168	14	C14H15+
185.096	254	C13H13O+
186.0991	28	C12[13]CH13O+
187.0747	119	C12H11O2+
187.1102	92	C13H15O+
188.0798	17	C11[13]CH11O2+
189.0675	10	C15H9+
189.0902	46	C12H13O2+
191.0831	12	C15H11+
191.1079	15	C9H16FO3+
192.0923	12	C15H12+
193.0851	13	C11H13O3+
193.1011	37	C15H13+
195.0775	32	C14H11O+
195.1002	21	C11H15O3+
195.1143	31	C15H15+
196.0858	26	C14H12O+
197.0949	149	C14H13O+
197.1339	18	C12H18FO+
198.1008	41	C14H14O+
199.0749	17	C13H11O2+
199.1101	122	C14H15O+
200.1114	14	C13[13]CH15O+
200.1214	12	C11H17FO2+
201.0927	17	C10H14FO3+
201.1266	22	C14H17O+
203.1063	32	C13H15O2+
204.0933	14	C16H12+
205.0985	22	C16H13+
206.106	13	C16H14+
207.1158	28	C16H15+
208.0878	35	C15H12O+
209.0956	104	C15H13O+
209.1324	32	C16H17+
210.1012	58	C15H14O+
211.1109	285	C15H15O+
212.1167	78	C14[13]CH15O+
213.0923	26	C11H14FO3+
213.1267	170	C15H17O+
214.1298	20	C14[13]CH17O+
215.1059	155	C14H15O2+
215.1413	12	C15H19O+
216.1104	22	C13[13]CH15O2+
217.1042	10	C14H14FO+
219.1169	56	C17H15+
220.0891	11	C13H13FO2+
220.1218	26	C17H16+
221.0955	84	C16H13O+
221.1327	18	C17H17+
222.1027	92	C16H14O+
223.1115	221	C16H15O+
224.1172	88	C16H16O+
225.0897	20	C15H13O2+
225.1263	123	C13H18FO2+
226.1322	24	C12[13]CH18FO2+
227.1049	19	C15H15O2+
227.1424	55	C16H19O+
229.0856	12	C14H13O3+
231.1139	28	C18H15+
232.1242	10	C17[13]CH15+
233.0938	22	C17H13O+
234.1031	31	C17H14O+
235.1104	172	C17H15O+
235.1482	20	C18H19+
236.117	55	C16[13]CH15O+
236.1548	14	C18H20+
237.127	537	C17H17O+
238.1307	148	C16[13]CH17O+
239.1049	46	C16H15O2+
239.1423	270	C17H19O+
240.1123	18	C16H16O2+
240.1465	69	C16[13]CH19O+
241.1226	62	C16H17O2+
241.1589	22	C17H21O+
242.1261	27	C16H18O2+
243.1162	19	C19H15+
245.0947	10	C18H13O+
245.1313	19	C19H17+
246.1027	19	C18H14O+
246.1377	15	C19H18+
247.1111	25	C18H15O+
247.1487	17	C19H19+
248.1207	53	C15H17FO2+
249.1269	114	C18H17O+
249.1625	27	C19H21+
250.1322	44	C18H18O+
250.1668	17	C19H22+
251.1057	16	C17H15O2+
251.143	73	C18H19O+
252.1091	14	C17H16O2+
252.149	36	C18H20O+
253.1209	76	C17H17O2+
253.1576	127	C18H21O+
254.1266	24	C17H18O2+
254.1631	28	C17[13]CH21O+
255.138	39	C17H19O2+
256.1409	15	C17H20O2+
259.1109	29	C19H15O+
259.1473	20	C20H19+
260.1201	42	C19H16O+
261.1263	77	C19H17O+
261.1627	24	C20H21+
262.1349	80	C19H18O+
263.1111	16	C15H16FO3+
263.1425	281	C19H19O+
264.1493	86	C18[13]CH19O+
265.1234	17	C15H18FO3+
265.1585	68	C19H21O+
266.164	23	C19H22O+
267.1373	87	C18H19O2+
267.175	44	C16H24FO2+
268.1403	18	C17[13]CH19O2+
268.1792	17	C19H24O+
272.1213	22	C17H17FO2+
273.125	20	C20H17O+
273.1599	21	C21H21+
274.1338	43	C20H18O+
275.1435	118	C20H19O+
276.1502	92	C20H20O+
277.123	31	C16H18FO3+
277.159	248	C20H21O+
278.1299	14	C19H18O2+
278.1659	226	C20H22O+
279.1741	864	C20H23O+
280.1475	11	C16H21FO3+
280.1774	221	C19[13]CH23O+
281.1524	50	C19H21O2+
281.189	50	C20H25O+
283.1465	18	C22H19+
283.1667	13	C19H23O2+
286.1378	41	C21H18O+
287.1389	15	C20[13]CH18O+
289.1596	129	C21H21O+
290.1307	12	C20H18O2+
290.1621	33	C20[13]CH21O+
291.1376	17	C20H19O2+
291.1745	245	C21H23O+
292.1771	76	C20[13]CH23O+
293.1556	35	C17H22FO3+
294.1571	11	C20H22O2+
295.1335	30	C19H19O3+
295.1693	138	C20H23O2+
296.1341	10	C18[13]CH19O3+
296.1753	57	C20H24O2+
297.1463	10	C19H21O3+
297.1823	77	C20H25O2+
298.1886	22	C19[13]CH25O2+
301.1593	102	C19H22FO2+
302.1636	31	C18[13]CH22FO2+
304.1477	12	C18H21FO3+
306.1619	18	C21H22O2+
307.1685	108	C21H23O2+
308.1741	40	C21H24O2+
309.184	145	C18H26FO3+
310.19	30	C17[13]CH26FO3+
311.1642	112	C20H23O3+
312.1679	32	C19[13]CH23O3+
313.1723	14	C20H25O3+
319.17	219	C22H23O2+
320.1732	59	C21[13]CH23O2+
325.1792	47	C21H25O3+
326.1822	16	C20[13]CH25O3+
327.1954	28	C21H27O3+
328.1958	12	C21H28O3+
337.1799	247	C22H25O3+
338.1829	67	C21[13]CH25O3+
339.1905	13	C22H27O3+
345.1884	10	C21H26FO3+
355.1913	412	C22H27O4+
356.1945	120	C21[13]CH27O4+
357.2006	21	C22H29O4+
373.2041	39	C22H29O5+
374.2053	16	C21[13]CH29O5+
375.2012	9	C22H28FO4+
