Mass spectrum: Picoxystrobin; LC-ESI-QTOF; MS2; CE: 30 eV; R=35000; [M+H]+
Name: Picoxystrobin
Name: methyl (E)-3-methoxy-2-[2-[[6-(trifluoromethyl)pyridin-2-yl]oxymethyl]phenyl]prop-2-enoate
Formula: C18H16F3NO4
Exact mass: 367.1031427
SMILES: CO\C=C(\C(=O)OC)C1=CC=CC=C1COC1=CC=CC(=N1)C(F)(F)F
InChI: InChI=1S/C18H16F3NO4/c1-24-11-14(17(23)25-2)13-7-4-3-6-12(13)10-26-16-9-5-8-15(22-16)18(19,20)21/h3-9,11H,10H2,1-2H3/b14-11+
Instrument: Bruker maXis Impact
Instrument type: LC-ESI-QTOF
Ms type: MS2
Ion mode: POSITIVE
Ionization: ESI
Fragmentation mode: CID
Collision energy: 30 eV
Resolution: 35000
Column name: Acclaim RSLC C18 2.2um, 2.1x100mm, Thermo
Retention time: 10.584 min
Base peak: 317.1647
Precursor m/z: 368.1104
Precursor type: [M+H]+
m/z	relative intensity	assigned
115.0531	21	C9H7+
117.0688	19	C9H9+
130.0397	8	C9H6O+
145.0635	999	C10H9O+
146.0671	100	C9[13]CH9O+
147.0711	6	C8[13]C2H9O+
173.0578	23	C9H8F3+
177.0894	37	C9H12F3+
205.0845	82	C10H12F3O+
206.0876	10	C9[13]CH12F3O+
