Mass spectrum: N-Bisdesmethyl Tramadol; LC-ESI-QTOF; MS2; CE: 10 eV; R=35000; [M+H]+
Name: N-Bisdesmethyl Tramadol
Name: BRN 2851491
Name: 2-(aminomethyl)-1-(3-methoxyphenyl)cyclohexan-1-ol
Formula: C14H21NO2
Exact mass: 235.1572289
SMILES: COC1=CC=CC(=C1)C1(O)CCCCC1CN
InChI: InChI=1S/C14H21NO2/c1-17-13-7-4-6-11(9-13)14(16)8-3-2-5-12(14)10-15/h4,6-7,9,12,16H,2-3,5,8,10,15H2,1H3
Instrument: Bruker maXis Impact
Instrument type: LC-ESI-QTOF
Ms type: MS2
Ion mode: POSITIVE
Ionization: ESI
Fragmentation mode: CID
Collision energy: 10 eV
Resolution: 35000
Column name: Acclaim RSLC C18 2.2um, 2.1x100mm, Thermo
Retention time: 5.2 min
Base peak: 236.1639
Precursor m/z: 236.1645
Precursor type: [M+H]+
m/z	relative intensity	assigned
121.0649	10	C8H9O+
159.0635	10	C5H9N3O3+
189.1266	999	C13H17O+
190.1296	150	C12[13]CH17O+
191.1327	12	C11[13]C2H17O+
201.1273	11	C14H17O+
217.1056	6	C13H15NO2+
218.1533	876	C14H20NO+
219.1561	134	C13[13]CH20NO+
220.1597	9	C12[13]C2H20NO+
236.1636	117	C14H22NO2+
