Mass spectrum: 4-Formylaminoantipyrine; LC-ESI-QTOF; MS2; CE: 40 eV; R=35000; [M+H]+
Name: 4-Formylaminoantipyrine
Name: N-(1,5-dimethyl-3-oxo-2-phenylpyrazol-4-yl)formamide
Formula: C12H13N3O2
Exact mass: 231.1007767
SMILES: Cc1c(c(=O)n(n1C)c2ccccc2)/N=C/O
InChI: InChI=1S/C12H13N3O2/c1-9-11(13-8-16)12(17)15(14(9)2)10-6-4-3-5-7-10/h3-8H,1-2H3,(H,13,16)
Instrument: Bruker maXis Impact
Instrument type: LC-ESI-QTOF
Ms type: MS2
Ion mode: POSITIVE
Ionization: ESI
Fragmentation mode: CID
Collision energy: 40 eV
Resolution: 35000
Column name: Acclaim RSLC C18 2.2um, 2.1x100mm, Thermo
Retention time: 3.9 min
Base peak: 232.1075
Precursor m/z: 232.1081
Precursor type: [M+H]+
m/z	relative intensity	assigned
115.0532	252	C9H7+
117.0566	310	C8H7N+
118.0639	400	C8H8N+
119.0598	180	C7H7N2+
128.0486	916	C9H6N+
129.0517	203	C4H7N3O2+
130.0641	999	C9H8N+
131.0622	193	C8H7N2+
132.0448	291	C8H6NO+
132.0795	740	C9H10N+
133.078	110	C8H9N2+
142.0637	120	C10H8N+
143.0595	177	C9H7N2+
144.068	305	C9H8N2+
144.0795	177	C10H10N+
145.0754	594	C9H9N2+
146.0586	921	C9H8NO+
146.0804	133	C4H10N4O2+
147.055	130	C8H7N2O+
155.0603	176	C10H7N2+
157.0715	115	C5H9N4O2+
158.0594	114	C10H8NO+
158.0814	174	C10H10N2+
159.052	155	C4H7N4O3+
159.091	764	C10H11N2+
160.0865	333	C9H10N3+
169.0755	137	C11H9N2+
170.0683	133	C10H8N3+
171.0549	170	C10H7N2O+
171.0793	121	C10H9N3+
172.0616	203	C10H8N2O+
173.0702	145	C10H9N2O+
185.071	162	C11H9N2O+
187.0856	134	C11H11N2O+
188.0801	148	C10H10N3O+
189.0881	183	C10H11N3O+
