Mass spectrum: Ranitidine-N-oxide; LC-ESI-QTOF; MS2; CE: 20 eV; R=35000; [M+H]+
Name: Ranitidine-N-oxide
Name: Ranitidine N-oxide
Name: N,N-dimethyl-1-[5-[2-[[(E)-1-(methylamino)-2-nitroethenyl]amino]ethylsulfanylmethyl]furan-2-yl]methanamine oxide
Formula: C13H22N4O4S
Exact mass: 330.1361762
SMILES: CN\C(NCCSCC1=CC=C(C[N+](C)(C)[O-])O1)=C/[N+]([O-])=O
InChI: InChI=1S/C13H22N4O4S/c1-14-13(8-16(18)19)15-6-7-22-10-12-5-4-11(21-12)9-17(2,3)20/h4-5,8,14-15H,6-7,9-10H2,1-3H3/b13-8+
Instrument: Bruker maXis Impact
Instrument type: LC-ESI-QTOF
Ms type: MS2
Ion mode: POSITIVE
Ionization: ESI
Fragmentation mode: CID
Collision energy: 20 eV
Resolution: 35000
Column name: Acclaim RSLC C18 2.2um, 2.1x100mm, Thermo
Retention time: 3.3 min
Base peak: 331.1431
Precursor m/z: 331.1435
Precursor type: [M+H]+
m/z	relative intensity	assigned
124.0747	79	C7H10NO+
125.0045	72	C6H5OS+
130.0553	90	C5H10N2S+
131.0612	10	C2H13NO3S+
144.0754	94	C5H10N3O2+
147.021	6	C4H7N2O2S+
147.0573	7	C5H11N2OS+
153.0354	32	C8H9OS+
164.093	10	CH16N4O3S+
167.0623	7	C5H13NO3S+
176.0476	999	C10H8O3+
177.0502	38	C9[13]CH8O3+
177.1005	5	C7H15NO4+
178.108	6	C7H16NO4+
191.1167	40	C11H15N2O+
224.0968	243	C11H16N2OS+
225.1004	24	C10[13]CH16N2OS+
270.0901	163	C11H16N3O3S+
271.0923	18	C10[13]CH16N3O3S+
272.0859	5	C11H16N3O3[34]S+
