Mass spectrum: Diphenhydramine; LC-ESI-QTOF; MS2; CE: 10 eV; R=35000; [M+H]+
Name: Diphenhydramine
Name: 2-benzhydryloxy-N,N-dimethylethanamine
Formula: C17H21NO
Exact mass: 255.1623143
SMILES: CN(C)CCOC(C1=CC=CC=C1)C1=CC=CC=C1
InChI: InChI=1S/C17H21NO/c1-18(2)13-14-19-17(15-9-5-3-6-10-15)16-11-7-4-8-12-16/h3-12,17H,13-14H2,1-2H3
Instrument: Bruker maXis Impact
Instrument type: LC-ESI-QTOF
Ms type: MS2
Ion mode: POSITIVE
Ionization: ESI
Fragmentation mode: CID
Collision energy: 10 eV
Resolution: 35000
Column name: Acclaim RSLC C18 2.2um, 2.1x100mm, Thermo
Retention time: 6.436 min
Base peak: 256.1692
Precursor m/z: 256.1696
Precursor type: [M+H]+
m/z	relative intensity	assigned
167.0853	999	C13H11+
168.0879	176	C12[13]CH11+
169.091	9	C11[13]C2H11+
256.1692	103	C17H22NO+
257.1721	17	C16[13]CH22NO+
