Mass spectrum: Methadone; LC-ESI-QTOF; MS2; CE: 30 eV; R=35000; [M+H]+
Name: Methadone
Name: 6-(dimethylamino)-4,4-diphenylheptan-3-one
Formula: C21H27NO
Exact mass: 309.2092645
SMILES: CCC(=O)C(CC(C)N(C)C)(C1=CC=CC=C1)C1=CC=CC=C1
InChI: InChI=1S/C21H27NO/c1-5-20(23)21(16-17(2)22(3)4,18-12-8-6-9-13-18)19-14-10-7-11-15-19/h6-15,17H,5,16H2,1-4H3
Instrument: Bruker maXis Impact
Instrument type: LC-ESI-QTOF
Ms type: MS2
Ion mode: POSITIVE
Ionization: ESI
Fragmentation mode: CID
Collision energy: 30 eV
Resolution: 35000
Column name: Acclaim RSLC C18 2.2um, 2.1x100mm, Thermo
Retention time: 8.0 min
Base peak: 310.2161
Precursor m/z: 310.2165
Precursor type: [M+H]+
m/z	relative intensity	assigned
115.0535	57	C9H7+
116.0577	6	C4H8N2O2+
117.0689	172	C9H9+
118.0723	20	C4H10N2O2+
119.084	6	C9H11+
128.061	28	C10H8+
129.0686	127	C10H9+
130.0727	19	C5H10N2O2+
131.0482	5	C9H7O+
131.0846	52	C10H11+
132.0883	8	C5H12N2O2+
135.0792	46	C9H11O+
141.0683	14	C11H9+
143.0841	60	C11H11+
144.088	8	C6H12N2O2+
145.0634	82	C10H9O+
145.0996	35	C11H13+
147.079	50	C10H11O+
153.0687	5	C12H9+
154.0764	9	C12H10+
155.0826	10	C12H11+
158.0713	13	C11H10O+
159.0789	61	C11H11O+
159.1156	260	C12H15+
160.1191	34	C7H16N2O2+
161.0953	17	C11H13O+
165.0694	10	C13H9+
167.0843	93	C13H11+
168.0878	15	C8H12N2O2+
169.0998	56	C13H13+
170.1034	10	C8H14N2O2+
178.0765	27	C14H10+
179.0839	35	C14H11+
180.0883	7	C9H12N2O2+
183.079	18	C13H11O+
187.1103	128	C13H15O+
188.1141	17	C11H14N3+
191.0841	40	C15H11+
192.0909	13	C15H12+
193.0989	12	C15H13+
194.0716	48	C14H10O+
195.0788	46	C14H11O+
195.1158	681	C15H15+
196.0832	7	C12H10N3+
196.1191	115	C10H16N2O2+
197.1223	6	C13[13]C2H15+
203.0842	20	C16H11+
205.0997	178	C16H13+
206.1042	33	C11H14N2O2+
207.1152	76	C16H15+
208.1198	14	C11H16N2O2+
209.0952	6	C15H13O+
209.1322	9	C16H17+
217.0996	20	C17H13+
219.116	981	C17H15+
220.1191	152	C12H16N2O2+
221.0949	7	C16H13O+
221.1278	15	C15[13]C2H15+
223.111	972	C16H15O+
224.1145	176	C16H16O+
225.1185	16	C15[13]CH16O+
232.1236	63	C18H16+
233.1264	11	C13H17N2O2+
236.1183	85	C17H16O+
237.1223	15	C16[13]CH16O+
247.1472	244	C19H19+
248.1502	55	C14H20N2O2+
265.158	999	C19H21O+
267.1643	17	C17[13]C2H21O+
