Mass spectrum: Dimethylaminophenazone; LC-ESI-QTOF; MS2; CE: Ramp 19.2-28.7 eV; R=35000; [M+H]+
Name: Dimethylaminophenazone
Name: Aminopyrine
Name: 4-(dimethylamino)-1,5-dimethyl-2-phenylpyrazol-3-one
Formula: C13H17N3O
Exact mass: 231.13716216
SMILES: CN(C)C1=C(C)N(C)N(C1=O)C1=CC=CC=C1
InChI: InChI=1S/C13H17N3O/c1-10-12(14(2)3)13(17)16(15(10)4)11-8-6-5-7-9-11/h5-9H,1-4H3
Instrument: Bruker maXis Impact
Instrument type: LC-ESI-QTOF
Ms type: MS2
Ion mode: POSITIVE
Ionization: ESI
Fragmentation mode: CID
Collision energy: Ramp 19.2-28.7 eV
Resolution: 35000
Column name: Acclaim RSLC C18 2.2um, 2.1x100mm, Thermo
Retention time: 4.908 min
Base peak: 232.1445
Precursor m/z: 232.1444
Precursor type: [M+H]+
m/z	relative intensity	assigned
56.0489	840	C3H6N+
57.0525	18	C2[13]CH6N+
58.0646	892	C3H8N+
59.0676	28	C2[13]CH8N+
68.0488	17	C4H6N+
70.0646	751	C4H8N+
71.0686	22	C3[13]CH8N+
72.0803	706	C4H10N+
73.0837	27	C3[13]CH10N+
80.049	5	C5H6N+
82.0648	103	C5H8N+
83.06	16	C4H7N2+
84.0441	18	C4H6NO+
84.0679	22	C4H8N2+
84.0805	144	C5H10N+
85.0856	8	C4[13]CH10N+
87.0915	38	C4H11N2+
96.0687	9	C5H8N2+
97.0766	717	C5H9N2+
98.0844	999	C5H10N2+
99.0917	182	C5H11N2+
100.0957	8	C4[13]CH11N2+
106.0662	79	C7H8N+
107.0697	5	C6[13]CH8N+
111.0934	541	C6H11N2+
112.0962	34	C5[13]CH11N2+
113.1093	967	C6H13N2+
114.1117	45	C5[13]CH13N2+
118.065	57	C8H8N+
119.0683	5	C7[13]CH8N+
132.0437	32	C8H6NO+
132.0797	6	C9H10N+
133.0753	15	C8H9N2+
134.0594	5	C8H8NO+
139.0858	15	C7H11N2O+
146.0592	20	C9H8NO+
149.1063	52	C9H13N2+
150.1103	6	C8[13]CH13N2+
158.0579	5	C10H8NO+
159.0904	119	C10H11N2+
160.0937	13	C9[13]CH11N2+
175.0851	17	C10H11N2O+
177.1012	112	C10H13N2O+
178.1042	12	C9[13]CH13N2O+
185.0705	6	C11H9N2O+
187.0855	52	C11H11N2O+
188.0919	29	C11H12N2O+
189.0981	5	C10[13]CH12N2O+
201.1008	8	C12H13N2O+
202.0969	13	C11H12N3O+
204.1479	5	C12H18N3+
214.1325	6	C13H16N3+
216.1127	34	C12H14N3O+
217.1193	35	C12H15N3O+
230.1281	16	C13H16N3O+
231.1335	6	C13H17N3O+
232.1438	260	C13H18N3O+
233.1465	30	C12[13]CH18N3O+
