Mass spectrum: 1,6-Bis(acryloyloxy)hexane; GC-APCI-QTOF; MS2; CE: 10 eV; R=35000; [M]+
Name: 1,6-Bis(acryloyloxy)hexane
Formula: C12H18O4
Exact mass: 226.1205
SMILES: C=CC(=O)OCCCCCCOC(=O)C=C
InChI: InChI=1S/C12H18O4/c1-3-11(13)15-9-7-5-6-8-10-16-12(14)4-2/h3-4H,1-2,5-10H2
Instrument: Bruker 450 GC coupled to maXis Impact
Instrument type: GC-APCI-QTOF
Ms type: MS2
Ion mode: POSITIVE
Ionization: APCI
Fragmentation mode: CID
Collision energy: 10 eV
Resolution: 35000
Column name: Rxi-5Sil MS column, 30m, 0.25mm i.d., 0.25Âµm film thickness, Restek
Retention time: 19.344 min
Base peak: 228.1955
Precursor m/z: 226.12
Precursor type: [M]+
m/z	relative intensity	assigned
119.0848	320	C9H11+
123.1165	339	C9H15+
128.1053	349	C4H16O4+
129.0911	999	C7H13O2+
133.103	514	C10H13+
135.1177	640	C10H15+
137.0974	591	C9H13O+
141.0912	533	C8H13O2+
147.1182	581	C11H15+
149.1343	358	C11H17+
151.1139	494	C10H15O+
155.1101	252	C9H15O2+
157.1245	290	C9H17O2+
169.1223	252	C10H17O2+
