Mass spectrum: Imidacloprid-urea; LC-ESI-QTOF; MS2; CE: 20 eV; R=35000; [M+H]+
Name: Imidacloprid-urea
Name: 1-[(6-chloropyridin-3-yl)methyl]imidazolidin-2-one
Formula: C9H10ClN3O
Exact mass: 211.0512396
SMILES: c1cc(ncc1CN2CCN=C2O)Cl
InChI: InChI=1S/C9H10ClN3O/c10-8-2-1-7(5-12-8)6-13-4-3-11-9(13)14/h1-2,5H,3-4,6H2,(H,11,14)
Instrument: Bruker maXis Impact
Instrument type: LC-ESI-QTOF
Ms type: MS2
Ion mode: POSITIVE
Ionization: ESI
Fragmentation mode: CID
Collision energy: 20 eV
Resolution: 35000
Column name: Acclaim RSLC C18 2.2um, 2.1x100mm, Thermo
Retention time: 4.5 min
Base peak: 212.0579
Precursor m/z: 212.0585
Precursor type: [M+H]+
m/z	relative intensity	assigned
126.0096	174	C6H5ClN+
127.0142	20	C5[13]CH6ClN+
128.0064	46	C6H5[37]ClN+
128.0253	883	C6H7ClN+
129.0284	43	C5[13]CH7ClN+
130.022	224	
131.0254	7	C5[13]CH7[37]ClN+
133.0747	9	C8H9N2+
169.0154	6	C7H6ClN2O+
169.0517	16	C8H10ClN2+
176.0807	51	C9H10N3O+
194.0467	12	C9H9ClN3+
195.031	36	C9H8ClN2O+
196.0359	4	C8[13]CH8ClN2O+
197.0285	6	C9H8[37]ClN2O+
212.0578	999	C9H11ClN3O+
213.0604	73	C8[13]CH11ClN3O+
214.0548	248	C9H11[37]ClN3O+
215.0574	10	C8[13]CH11[37]ClN3O+
