Mass spectrum: Atorvastatin; LC-ESI-QTOF; MS2; CE: 30 eV; R=35000; [M+H]+
Name: Atorvastatin
Name: atorvastatin
Name: (3R,5R)-7-[2-(4-fluorophenyl)-3-phenyl-4-(phenylcarbamoyl)-5-propan-2-ylpyrrol-1-yl]-3,5-dihydroxyheptanoic acid
Formula: C33H35FN2O5
Exact mass: 558.2530004
SMILES: CC(C)c1c(c(c(n1CC[C@H](C[C@H](CC(=O)O)O)O)c2ccc(cc2)F)c3ccccc3)/C(=N/c4ccccc4)/O
InChI: InChI=1S/C33H35FN2O5/c1-21(2)31-30(33(41)35-25-11-7-4-8-12-25)29(22-9-5-3-6-10-22)32(23-13-15-24(34)16-14-23)36(31)18-17-26(37)19-27(38)20-28(39)40/h3-16,21,26-27,37-38H,17-20H2,1-2H3,(H,35,41)(H,39,40)/t26-,27-/m1/s1
Instrument: Bruker maXis Impact
Instrument type: LC-ESI-QTOF
Ms type: MS2
Ion mode: POSITIVE
Ionization: ESI
Fragmentation mode: CID
Collision energy: 30 eV
Resolution: 35000
Column name: Acclaim RSLC C18 2.2um, 2.1x100mm, Thermo
Retention time: 10.070 min
Base peak: 559.2646
Precursor m/z: 559.2603
Precursor type: [M+H]+
m/z	relative intensity	assigned
250.104	31	C17H13FN+
276.1202	9	C19H15FN+
292.1519	79	C20H19FN+
293.1558	14	C19[13]CH19FN+
294.167	12	C20H21FN+
318.168	6	C18H24NO4+
336.1434	8	C20H20N2O3+
362.157	14	C23H21FNO2+
380.1671	38	C26H21FN2+
380.2022	5	C24H27FNO2+
381.1716	11	C25[13]CH21FN2+
398.178	16	C29H22N2+
399.1841	6	C28[13]CH22N2+
404.2046	15	C26H27FNO2+
406.1467	6	C30H18N2+
422.2159	87	C29H27FN2+
423.2186	30	C28[13]CH27FN2+
424.1618	10	C32H21F+
430.1851	9	C30H23FN2+
440.2273	999	C29H29FN2O+
441.2301	292	C29H31NO3+
442.2326	39	C30H31FO2+
443.2363	6	C29[13]CH31FO2+
448.1945	17	C30H25FN2O+
449.1971	5	C29[13]CH25FN2O+
466.2057	79	C30H27FN2O2+
467.2089	28	C30H29NO4+
468.2089	5	C29[13]CH29NO4+
517.2197	6	C31H32FNO5+
559.2641	46	C33H36FN2O5+
560.2683	18	C32[13]CH36FN2O5+
