Mass spectrum: Cefazolin; LC-ESI-QTOF; MS2; CE: 10 eV; R=35000; [M+H]+
Name: Cefazolin
Name: cefazolin
Name: (6R,7R)-3-[(5-methyl-1,3,4-thiadiazol-2-yl)sulfanylmethyl]-8-oxo-7-[[2-(tetrazol-1-yl)acetyl]amino]-5-thia-1-azabicyclo[4.2.0]oct-2-ene-2-carboxylic acid
Formula: C14H14N8O4S3
Exact mass: 454.0300139
SMILES: Cc1nnc(s1)SCC2=C(N3[C@@H]([C@@H](C3=O)NC(=O)Cn4cnnn4)SC2)C(=O)O
InChI: InChI=1S/C14H14N8O4S3/c1-6-17-18-14(29-6)28-4-7-3-27-12-9(11(24)22(12)10(7)13(25)26)16-8(23)2-21-5-15-19-20-21/h5,9,12H,2-4H2,1H3,(H,16,23)(H,25,26)/t9-,12-/m1/s1
Instrument: Bruker maXis Impact
Instrument type: LC-ESI-QTOF
Ms type: MS2
Ion mode: POSITIVE
Ionization: ESI
Fragmentation mode: CID
Collision energy: 10 eV
Resolution: 35000
Column name: Acclaim RSLC C18 2.2um, 2.1x100mm, Thermo
Retention time: 4.046 min
Base peak: 344.2315
Precursor m/z: 455.0373
Precursor type: [M+H]+
m/z	relative intensity	assigned
132.9887	34	C3H5N2S2+
156.0125	115	CH8N4OS2+
157.0179	13	C4H5N4OS+
158.0077	13	C3H2N4O4+
178.0453	14	C10H10OS+
295.0627	74	C12H13N3O4S+
323.0587	999	C14H9N7OS+
324.0605	165	C13[13]CH9N7OS+
455.041	505	C14H15N8O4S3+
456.0445	108	C13[13]CH15N8O4S3+
457.0369	79	C14H15N8O4S2[34]S+
