Mass spectrum: N,N-Dimethylsulfamide; LC-ESI-QTOF; MS2; CE: Ramp 15.3-23.0 eV; R=35000; [M+H]+
Name: N,N-Dimethylsulfamide
Name: [methyl(sulfamoyl)amino]methane
Formula: C2H8N2O2S
Exact mass: 124.03064850
SMILES: CN(C)S(N)(=O)=O
InChI: InChI=1S/C2H8N2O2S/c1-4(2)7(3,5)6/h1-2H3,(H2,3,5,6)
Instrument: Bruker maXis Impact
Instrument type: LC-ESI-QTOF
Ms type: MS2
Ion mode: POSITIVE
Ionization: ESI
Fragmentation mode: CID
Collision energy: Ramp 15.3-23.0 eV
Resolution: 35000
Column name: Acclaim RSLC C18 2.2um, 2.1x100mm, Thermo
Retention time: 2.072 min
Base peak: 125.0374
Precursor m/z: 125.0379
Precursor type: [M+H]+
m/z	relative intensity	assigned
108.0109	999	C2H6NO2S+
125.0364	784	C2H9N2O2S+
