Mass spectrum: Quinmerac; LC-ESI-QTOF; MS2; CE: 10 eV; R=35000; [M+H]+
Name: Quinmerac
Name: 7-chloro-3-methylquinoline-8-carboxylic acid
Formula: C11H8ClNO2
Exact mass: 221.0243562
SMILES: CC1=CC2=C(N=C1)C(C(O)=O)=C(Cl)C=C2
InChI: InChI=1S/C11H8ClNO2/c1-6-4-7-2-3-8(12)9(11(14)15)10(7)13-5-6/h2-5H,1H3,(H,14,15)
Instrument: Bruker maXis Impact
Instrument type: LC-ESI-QTOF
Ms type: MS2
Ion mode: POSITIVE
Ionization: ESI
Fragmentation mode: CID
Collision energy: 10 eV
Resolution: 35000
Column name: Acclaim RSLC C18 2.2um, 2.1x100mm, Thermo
Retention time: 4.875 min
Base peak: 222.0311
Precursor m/z: 222.0316
Precursor type: [M+H]+
m/z	relative intensity	assigned
204.0204	999	C11H7ClNO+
205.0233	107	C10[13]CH7ClNO+
206.0173	226	C11H7[37]ClNO+
207.0206	16	C11H8ClO2+
222.0312	864	C11H9ClNO2+
223.0342	92	C10[13]CH9ClNO2+
224.0282	272	C11H9[37]ClNO2+
