Mass spectrum: N-Bisdesmethyl Tramadol; LC-ESI-QTOF; MS2; CE: 30 eV; R=35000; [M+H]+
Name: N-Bisdesmethyl Tramadol
Name: BRN 2851491
Name: 2-(aminomethyl)-1-(3-methoxyphenyl)cyclohexan-1-ol
Formula: C14H21NO2
Exact mass: 235.1572289
SMILES: COC1=CC=CC(=C1)C1(O)CCCCC1CN
InChI: InChI=1S/C14H21NO2/c1-17-13-7-4-6-11(9-13)14(16)8-3-2-5-12(14)10-15/h4,6-7,9,12,16H,2-3,5,8,10,15H2,1H3
Instrument: Bruker maXis Impact
Instrument type: LC-ESI-QTOF
Ms type: MS2
Ion mode: POSITIVE
Ionization: ESI
Fragmentation mode: CID
Collision energy: 30 eV
Resolution: 35000
Column name: Acclaim RSLC C18 2.2um, 2.1x100mm, Thermo
Retention time: 5.2 min
Base peak: 236.164
Precursor m/z: 236.1645
Precursor type: [M+H]+
m/z	relative intensity	assigned
121.064	999	C8H9O+
122.0677	110	C7[13]CH9O+
123.0694	12	C6[13]C2H9O+
135.08	17	C9H11O+
144.0561	8	C10H8O+
145.0648	8	C10H9O+
147.0794	75	C10H11O+
159.0786	25	C11H11O+
160.085	11	C6H12N2O3+
173.0934	12	C12H13O+
189.1262	356	C13H17O+
190.1298	51	C12[13]CH17O+
191.1335	7	C11[13]C2H17O+
201.1267	10	C14H17O+
