Mass spectrum: Perfluorobutanoic acid (PFBuA); LC-ESI-QTOF; MS2; CE: 20 eV; R=35000; [M-H]-
Name: Perfluorobutanoic acid (PFBuA)
Name: Heptafluorobutyric acid
Name: 2,2,3,3,4,4,4-heptafluorobutanoic acid
Formula: C4HF7O2
Exact mass: 213.9865
SMILES: C(=O)(C(C(C(F)(F)F)(F)F)(F)F)O
InChI: InChI=1S/C4HF7O2/c5-2(6,1(12)13)3(7,8)4(9,10)11/h(H,12,13)
Instrument: Bruker maXis Impact
Instrument type: LC-ESI-QTOF
Ms type: MS2
Ion mode: NEGATIVE
Ionization: ESI
Fragmentation mode: CID
Collision energy: 20 eV
Resolution: 35000
Column name: Acclaim RSLC C18 2.2um, 2.1x100mm, Thermo
Retention time: 4.872 min
Base peak: 212.9788
Precursor m/z: 212.9792
Precursor type: [M-H]-
m/z	relative intensity
168.9884	999
