Mass spectrum: Bis (2,6-diisopropylphenyl)-carbodiimide; GC-APCI-QTOF; MS2; CE: 30 eV; R=35000; [M]+
Name: Bis (2,6-diisopropylphenyl)-carbodiimide
Formula: C25H34N2
Exact mass: 362.2722
SMILES: CC(C)C1=C(C(=CC=C1)C(C)C)N=C=NC2=C(C=CC=C2C(C)C)C(C)C
InChI: InChI=1S/C25H34N2/c1-16(2)20-11-9-12-21(17(3)4)24(20)26-15-27-25-22(18(5)6)13-10-14-23(25)19(7)8/h9-14,16-19H,1-8H3
Instrument: Bruker 450 GC coupled to maXis Impact
Instrument type: GC-APCI-QTOF
Ms type: MS2
Ion mode: POSITIVE
Ionization: APCI
Fragmentation mode: CID
Collision energy: 30 eV
Resolution: 35000
Column name: Rxi-5Sil MS column, 30m, 0.25mm i.d., 0.25Âµm film thickness, Restek
Retention time: 22.578 min
Base peak: 283.263
Precursor m/z: 362.2717
Precursor type: [M]+
m/z	relative intensity	assigned
120.0792	86	C8H10N+
132.0817	178	C9H10N+
134.0974	43	C9H12N+
135.1056	124	C9H13N+
135.1136	51	C10H15+
144.0806	56	C10H10N+
145.0875	40	C10H11N+
146.0991	230	C10H12N+
148.1133	252	C10H14N+
160.1121	77	C11H14N+
162.1295	251	C11H16N+
171.1068	74	C12H13N+
172.1146	122	C12H14N+
176.1468	62	C12H18N+
186.1287	999	C13H16N+
187.1345	213	C13H17N+
188.1455	99	C13H18N+
199.1372	59	C14H17N+
200.1446	108	C14H18N+
201.1485	40	C14H19N+
212.1445	369	C15H18N+
213.1551	42	C15H19N+
214.1617	48	C15H20N+
226.1627	92	C16H20N+
304.1873	42	C21H24N2+
304.2022	42	C22H26N+
305.2029	142	C21H25N2+
317.2	57	C22H25N2+
319.2187	164	C22H27N2+
320.2232	83	C22H28N2+
347.2519	311	C24H31N2+
348.2492	83	C24H32N2+
361.2651	89	C25H33N2+
362.2665	52	C25H34N2+
