Mass spectrum: N,N-Didesvenlafaxine; LC-ESI-QTOF; MS2; CE: 30 eV; R=35000; [M+H]+
Name: N,N-Didesvenlafaxine
Name: Dinorvenlafaxine
Formula: C15H23NO2
Exact mass: 249.1728790
SMILES: COC1=CC=C(C=C1)C(CN)C1(O)CCCCC1
InChI: InChI=1S/C15H23NO2/c1-18-13-7-5-12(6-8-13)14(11-16)15(17)9-3-2-4-10-15/h5-8,14,17H,2-4,9-11,16H2,1H3
Instrument: Bruker maXis Impact
Instrument type: LC-ESI-QTOF
Ms type: MS2
Ion mode: POSITIVE
Ionization: ESI
Fragmentation mode: CID
Collision energy: 30 eV
Resolution: 35000
Column name: Acclaim RSLC C18 2.2um, 2.1x100mm, Thermo
Retention time: 6.2 min
Base peak: 250.1799
Precursor m/z: 250.1802
Precursor type: [M+H]+
m/z	relative intensity	assigned
115.0536	23	C9H7+
117.0699	21	C9H9+
119.0855	11	C9H11+
121.0639	973	C8H9O+
122.0668	117	C7[13]CH9O+
128.061	20	C10H8+
131.0481	33	C9H7O+
132.0554	82	C9H8O+
133.0629	24	C9H9O+
135.0793	128	C9H11O+
141.0686	30	C11H9+
144.0564	48	C10H8O+
145.0633	35	C10H9O+
146.0719	12	C10H10O+
147.0792	999	C10H11O+
148.0828	117	C9[13]CH11O+
149.0962	14	C10H13O+
150.0907	29	C9H12NO+
158.0709	85	C11H10O+
159.0792	272	C11H11O+
160.0845	37	C10[13]CH11O+
161.0956	63	C11H13O+
168.0924	17	C13H12+
172.0877	13	C12H12O+
173.0948	439	C12H13O+
174.0997	77	C11[13]CH13O+
183.1152	29	C14H15+
187.1124	33	C13H15O+
201.1252	14	C14H17O+
213.1258	13	C15H17O+
215.1419	169	C15H19O+
216.1454	38	C14[13]CH19O+
