Mass spectrum: Fluorene; GC-APCI-QTOF; MS2; CE: 30 eV; R=35000; [M]+
Name: Fluorene
Name: 9H-fluorene
Formula: C13H10
Exact mass: 166.0783
SMILES: C1C2=C(C=CC=C2)C2=C1C=CC=C2
InChI: InChI=1S/C13H10/c1-3-7-12-10(5-1)9-11-6-2-4-8-13(11)12/h1-8H,9H2
Instrument: Bruker 450 GC coupled to maXis Impact
Instrument type: GC-APCI-QTOF
Ms type: MS2
Ion mode: POSITIVE
Ionization: APCI
Fragmentation mode: CID
Collision energy: 30 eV
Resolution: 35000
Column name: Rxi-5Sil MS column, 30m, 0.25mm i.d., 0.25Âµm film thickness (Restek)
Retention time: 13.234 min
Base peak: 166.0738
Precursor m/z: 166.0777
Precursor type: [M]+
m/z	relative intensity	assigned
115.0529	5	C9H7+
128.0604	13	C10H8+
139.0521	11	C11H7+
141.0673	13	C11H9+
152.0587	196	C12H8+
165.0658	999	C13H9+
