Mass spectrum: Bicalutamide; LC-ESI-QTOF; MS2; CE: 20 eV; R=35000; [M-H]-
Name: Bicalutamide
Name: N-[4-cyano-3-(trifluoromethyl)phenyl]-3-(4-fluorophenyl)sulfonyl-2-hydroxy-2-methylpropanamide
Formula: C18H14F4N2O4S
Exact mass: 430.0610408
SMILES: CC(O)(CS(=O)(=O)C1=CC=C(F)C=C1)C(=O)NC1=CC(=C(C=C1)C#N)C(F)(F)F
InChI: InChI=1S/C18H14F4N2O4S/c1-17(26,10-29(27,28)14-6-3-12(19)4-7-14)16(25)24-13-5-2-11(9-23)15(8-13)18(20,21)22/h2-8,26H,10H2,1H3,(H,24,25)
Instrument: Bruker maXis Impact
Instrument type: LC-ESI-QTOF
Ms type: MS2
Ion mode: NEGATIVE
Ionization: ESI
Fragmentation mode: CID
Collision energy: 20 eV
Resolution: 35000
Column name: Acclaim RSLC C18 2.2um, 2.1x100mm, Thermo
Retention time: 8.573 min
Base peak: 255.0401
Precursor m/z: 429.0538
Precursor type: [M-H]-
m/z	relative intensity	assigned
173.0082	33	C10HF2N-
184.0371	15	C6H10F2O2S-
185.0332	24	C8H4F3N2-
243.0143	18	C16H5NS-
255.0402	999	C11H6F3N2O2-
256.0423	95	C10[13]CH6F3N2O2-
257.045	6	C9[13]C2H6F3N2O2-
411.0431	16	C18H11F4N2O3S-
429.0565	6	C18H13F4N2O4S-
