Mass spectrum: Glibenclamide; LC-ESI-QTOF; MS2; CE: 20 eV; R=35000; [M+H]+
Name: Glibenclamide
Name: Glyburide
Name: 5-chloro-N-[2-[4-(cyclohexylcarbamoylsulfamoyl)phenyl]ethyl]-2-methoxybenzamide
Formula: C23H28ClN3O5S
Exact mass: 493.1438197
SMILES: COC1=C(C=C(Cl)C=C1)C(=O)NCCC1=CC=C(C=C1)S(=O)(=O)NC(=O)NC1CCCCC1
InChI: InChI=1S/C23H28ClN3O5S/c1-32-21-12-9-17(24)15-20(21)22(28)25-14-13-16-7-10-19(11-8-16)33(30,31)27-23(29)26-18-5-3-2-4-6-18/h7-12,15,18H,2-6,13-14H2,1H3,(H,25,28)(H2,26,27,29)
Instrument: Bruker maXis Impact
Instrument type: LC-ESI-QTOF
Ms type: MS2
Ion mode: POSITIVE
Ionization: ESI
Fragmentation mode: CID
Collision energy: 20 eV
Resolution: 35000
Column name: Acclaim RSLC C18 2.2um, 2.1x100mm, Thermo
Retention time: 10.141 min
Base peak: 494.1507
Precursor m/z: 494.1511
Precursor type: [M+H]+
m/z	relative intensity	assigned
169.0038	81	C6H4ClN3O+
170.0073	5	C5[13]CH4ClN3O+
171.0006	20	C6H4[37]ClN3O+
304.0725	20	C8H19ClN3O5S+
306.0702	5	C8H19[37]ClN3O5S+
352.0394	7	C22H9ClN2O+
369.0669	999	C22H12ClN3O+
370.0696	157	C21[13]CH12ClN3O+
371.0643	306	C22H12[37]ClN3O+
372.0666	27	C16H19ClNO5S+
395.046	59	C23H10ClN3O2+
396.0486	13	C22[13]CH10ClN3O2+
397.0428	20	C23H10[37]ClN3O2+
