Mass spectrum: Galaxolide; LC-ESI-QTOF; MS2; CE: 50 eV; R=35000; [M+H]+
Name: Galaxolide
Name: Cyclopenta[g]-2-benzopyran, 1,3,4,6,7,8-hexahydro-4,6,6,7,8,8-hexamethyl-
Name: 4,6,6,7,8,8-hexamethyl-1,3,4,7-tetrahydrocyclopenta[g]isochromene
Formula: C18H26O
Exact mass: 258.1983655
SMILES: CC1C(C)(C)C2=CC3=C(C=C2C1(C)C)C(C)COC3
InChI: InChI=1S/C18H26O/c1-11-9-19-10-13-7-15-16(8-14(11)13)18(5,6)12(2)17(15,3)4/h7-8,11-12H,9-10H2,1-6H3
Instrument: Bruker maXis Impact
Instrument type: LC-ESI-QTOF
Ms type: MS2
Ion mode: POSITIVE
Ionization: ESI
Fragmentation mode: CID
Collision energy: 50 eV
Resolution: 35000
Column name: Acclaim RSLC C18 2.2um, 2.1x100mm, Thermo
Retention time: 13.454 min
Base peak: 259.2054
Precursor m/z: 259.2056
Precursor type: [M+H]+
m/z	relative intensity	assigned
115.053	175	C9H7+
117.0694	315	C9H9+
119.084	999	C9H11+
128.061	469	C10H8+
129.0686	557	C10H9+
131.0845	169	C10H11+
132.056	99	C9H8O+
132.0915	92	C10H12+
133.1003	305	C10H13+
141.0694	182	C11H9+
142.075	180	C11H10+
143.0849	139	C11H11+
145.0621	211	C10H9O+
146.0717	130	C10H10O+
147.0788	807	C10H11O+
148.0834	96	C9[13]CH11O+
155.0855	103	C12H11+
171.114	88	C13H15+
175.1093	269	C12H15O+
179.0849	127	C14H11+
209.1312	139	C16H17+
212.1196	130	C15H16O+
227.1419	237	C16H19O+
