Mass spectrum: LSD; LC-ESI-QTOF; MS2; CE: 50 eV; R=35000; [M+H]+
Name: LSD
Name: D-Lysergic acid N,N-diethylamide
Name: N,N-diethyl-7-methyl-6,6a,8,9-tetrahydro-4H-indolo[4,3-fg]quinoline-9-carboxamide
Formula: C20H25N3O
Exact mass: 323.1997624
SMILES: CCN(CC)C(=O)C1CN(C2CC3=CNC4=CC=CC(=C34)C2=C1)C
InChI: InChI=1S/C20H25N3O/c1-4-23(5-2)20(24)14-9-16-15-7-6-8-17-19(15)13(11-21-17)10-18(16)22(3)12-14/h6-9,11,14,18,21H,4-5,10,12H2,1-3H3
Instrument: Bruker maXis Impact
Instrument type: LC-ESI-QTOF
Ms type: MS2
Ion mode: POSITIVE
Ionization: ESI
Fragmentation mode: CID
Collision energy: 50 eV
Resolution: 35000
Column name: Acclaim RSLC C18 2.2um, 2.1x100mm, Thermo
Retention time: 5.708 min
Base peak: 324.2106
Precursor m/z: 324.207
Precursor type: [M+H]+
m/z	relative intensity	assigned
128.1079	8	C7H14NO+
129.0707	10	C10H9+
139.0558	5	C11H7+
141.0705	5	C11H9+
152.063	23	C12H8+
153.0708	67	C12H9+
154.0665	58	C11H8N+
155.0708	9	C10[13]CH8N+
155.0865	5	C12H11+
156.0816	13	C11H10N+
164.0629	5	C13H8+
165.0711	31	C13H9+
166.0677	8	C12H8N+
167.0742	129	C12H9N+
168.081	42	C12H10N+
169.0839	5	C11[13]CH10N+
178.0662	6	C13H8N+
179.074	14	C13H9N+
180.0823	325	C13H10N+
181.0675	14	C13H9O+
181.0888	115	C13H11N+
182.0863	91	C12H10N2+
182.093	74	C13H12N+
183.0899	12	C11[13]CH10N2+
190.0661	17	C14H8N+
191.0745	98	C14H9N+
192.0823	157	C14H10N+
193.0792	88	C13H9N2+
194.0831	18	C12[13]CH9N2+
194.0977	73	C14H12N+
195.105	42	C14H13N+
196.1123	28	C14H14N+
197.109	76	C13H13N2+
198.1125	9	C12[13]CH13N2+
205.0778	15	C14H9N2+
206.0859	19	C14H10N2+
207.0697	111	C14H9NO+
207.0936	999	C14H11N2+
208.0772	124	C14H10NO+
208.1006	415	C14H12N2+
209.0803	17	C13[13]CH10NO+
209.105	50	C13[13]CH12N2+
220.1013	20	C15H12N2+
221.1094	117	C15H13N2+
222.1155	43	C15H14N2+
223.1252	216	C15H15N2+
224.1282	32	C14[13]CH15N2+
