Mass spectrum: Maprotiline; LC-ESI-QTOF; MS2; CE: 50 eV; R=35000; [M+H]+
Name: Maprotiline
Formula: C20H23N
Exact mass: 277.1830497
SMILES: CNCCCC12CCC(c3c1cccc3)c4c2cccc4
InChI: InChI=1S/C20H23N/c1-21-14-6-12-20-13-11-15(16-7-2-4-9-18(16)20)17-8-3-5-10-19(17)20/h2-5,7-10,15,21H,6,11-14H2,1H3
Instrument: Bruker maXis Impact
Instrument type: LC-ESI-QTOF
Ms type: MS2
Ion mode: POSITIVE
Ionization: ESI
Fragmentation mode: CID
Collision energy: 50 eV
Resolution: 35000
Column name: Acclaim RSLC C18 2.2um, 2.1x100mm, Thermo
Retention time: 8.525 min
Base peak: 278.1922
Precursor m/z: 278.1903
Precursor type: [M+H]+
m/z	relative intensity	assigned
115.0547	65	C9H7+
116.0593	8	C8[13]CH7+
117.07	33	C9H9+
118.0738	5	C8[13]CH9+
128.0622	45	C10H8+
129.0693	21	C10H9+
131.0859	24	C10H11+
141.0703	107	C11H9+
142.0736	10	C10[13]CH9+
152.0622	12	C12H8+
153.0696	8	C12H9+
154.0775	12	C12H10+
155.0856	7	C12H11+
165.0706	43	C13H9+
166.074	5	C12[13]CH9+
169.1017	5	C13H13+
176.0629	6	C14H8+
177.0702	6	C14H9+
178.0786	590	C14H10+
179.0837	114	C13[13]CH10+
180.088	9	C13[13]CH11+
189.0706	88	C15H9+
190.0781	120	C15H10+
191.0865	999	C15H11+
192.0899	133	C15H12+
193.1	15	C14[13]CH12+
202.0785	45	C16H10+
203.0865	174	C16H11+
204.0939	243	C16H12+
205.0989	43	C16H13+
206.1045	5	C15[13]CH13+
217.1021	30	C17H13+
218.1092	21	C17H14+
219.1176	54	C17H15+
220.1211	9	C16[13]CH15+
