Mass spectrum: Nitrendipin; LC-ESI-QTOF; MS2; CE: 30 eV; R=35000; [M-H]-
Name: Nitrendipin
Name: Nitrendipine
Name: 5-O-ethyl 3-O-methyl 2,6-dimethyl-4-(3-nitrophenyl)-1,4-dihydropyridine-3,5-dicarboxylate
Formula: C18H20N2O6
Exact mass: 360.1321364
SMILES: CCOC(=O)C1=C(C)NC(C)=C(C1C1=CC=CC(=C1)[N+]([O-])=O)C(=O)OC
InChI: InChI=1S/C18H20N2O6/c1-5-26-18(22)15-11(3)19-10(2)14(17(21)25-4)16(15)12-7-6-8-13(9-12)20(23)24/h6-9,16,19H,5H2,1-4H3
Instrument: Bruker maXis Impact
Instrument type: LC-ESI-QTOF
Ms type: MS2
Ion mode: NEGATIVE
Ionization: ESI
Fragmentation mode: CID
Collision energy: 30 eV
Resolution: 35000
Column name: Acclaim RSLC C18 2.2um, 2.1x100mm, Thermo
Retention time: 9.767 min
Base peak: 359.1248
Precursor m/z: 359.1249
Precursor type: [M-H]-
m/z	relative intensity	assigned
122.0246	319	C6H4NO2-
149.047	238	C8H7NO2-
150.0573	195	C8H8NO2-
160.0774	100	C10H10NO-
162.0619	82	C5H10N2O4-
163.0641	141	C9H9NO2-
164.0714	291	C9H10NO2-
166.0899	111	C9H12NO2-
178.0869	239	C10H12NO2-
190.0506	90	C10H8NO3-
207.0549	168	C10H9NO4-
221.0651	84	C15H9O2-
224.0716	731	C14H10NO2-
225.073	147	C13[13]CH10NO2-
236.0921	999	C12H14NO4-
237.0678	87	C14H9N2O2-
237.0934	147	C11[13]CH14NO4-
239.046	260	C13H7N2O3-
253.0589	111	C11H11NO6-
268.0588	175	C15H10NO4-
282.0763	157	C16H12NO4-
298.0681	86	C16H12NO5-
312.0706	86	C16H12N2O5-
