Mass spectrum: Atenolol-desisopropyl; LC-ESI-QTOF; MS2; CE: 20 eV; R=35000; [M+H]+
Name: Atenolol-desisopropyl
Name: 4-(3-AMINO-2-HYDROXYPROPOXY)PHENYLACETAMIDE
Name: 2-[4-(3-amino-2-hydroxypropoxy)phenyl]acetamide
Formula: C11H16N2O3
Exact mass: 224.1160924
SMILES: NCC(O)COC1=CC=C(CC(N)=O)C=C1
InChI: InChI=1S/C11H16N2O3/c12-6-9(14)7-16-10-3-1-8(2-4-10)5-11(13)15/h1-4,9,14H,5-7,12H2,(H2,13,15)
Instrument: Bruker maXis Impact
Instrument type: LC-ESI-QTOF
Ms type: MS2
Ion mode: POSITIVE
Ionization: ESI
Fragmentation mode: CID
Collision energy: 20 eV
Resolution: 35000
Column name: Acclaim RSLC C18 2.2um, 2.1x100mm, Thermo
Retention time: 2.0 min
Base peak: 150.1115
Precursor m/z: 225.1234
Precursor type: [M+H]+
m/z	relative intensity	assigned
121.0639	72	C8H9O+
133.0641	279	C9H9O+
134.067	41	C8[13]CH9O+
145.0636	801	C10H9O+
146.0675	111	C9[13]CH9O+
147.0423	72	C9H7O2+
152.0693	42	C8H10NO2+
162.0906	228	C10H12NO+
163.0733	33	C10H11O2+
163.0947	31	C5H13N3O3+
164.0693	151	C9H10NO2+
165.0548	80	C9H9O3+
173.0584	147	C11H9O2+
178.0852	681	C10H12NO2+
179.0884	84	C9[13]CH12NO2+
180.1011	230	C10H14NO2+
182.0792	78	C9H12NO3+
190.0854	999	C11H12NO2+
191.0899	57	C10[13]CH12NO2+
208.0959	502	C11H14NO3+
209.1	47	C10[13]CH14NO3+
225.1228	544	C11H17N2O3+
