Mass spectrum: Naproxen; LC-ESI-QTOF; MS2; CE: 10 eV; R=35000; [M+H]+
Name: Naproxen
Name: 2-(6-Methoxy-2-naphthyl)propionic acid
Name: 2-(6-methoxynaphthalen-2-yl)propanoic acid
Formula: C14H14O3
Exact mass: 230.0942943
SMILES: COC1=CC2=CC=C(C=C2C=C1)C(C)C(O)=O
InChI: InChI=1S/C14H14O3/c1-9(14(15)16)10-3-4-12-8-13(17-2)6-5-11(12)7-10/h3-9H,1-2H3,(H,15,16)
Instrument: Bruker maXis Impact
Instrument type: LC-ESI-QTOF
Ms type: MS2
Ion mode: POSITIVE
Ionization: ESI
Fragmentation mode: CID
Collision energy: 10 eV
Resolution: 35000
Column name: Acclaim RSLC C18 2.2um, 2.1x100mm, Thermo
Retention time: 9.119 min
Base peak: 419.2683
Precursor m/z: 231.1016
Precursor type: [M+H]+
m/z	relative intensity	assigned
155.1048	26	C9H15O2+
158.0714	15	C11H10O+
170.0725	14	C12H10O+
185.0947	999	C13H13O+
186.0974	173	C12[13]CH13O+
231.1009	537	C14H15O3+
232.1044	106	C13[13]CH15O3+
