Mass spectrum: Propiconazole; LC-ESI-QTOF; MS2; CE: 30 eV; R=35000; [M+H]+
Name: Propiconazole
Name: 1-[[2-(2,4-dichlorophenyl)-4-propyl-1,3-dioxolan-2-yl]methyl]-1,2,4-triazole
Formula: C15H17Cl2N3O2
Exact mass: 341.0697821
SMILES: CCCC1COC(CN2C=NC=N2)(O1)C1=C(Cl)C=C(Cl)C=C1
InChI: InChI=1S/C15H17Cl2N3O2/c1-2-3-12-7-21-15(22-12,8-20-10-18-9-19-20)13-5-4-11(16)6-14(13)17/h4-6,9-10,12H,2-3,7-8H2,1H3
Instrument: Bruker maXis Impact
Instrument type: LC-ESI-QTOF
Ms type: MS2
Ion mode: POSITIVE
Ionization: ESI
Fragmentation mode: CID
Collision energy: 30 eV
Resolution: 35000
Column name: Acclaim RSLC C18 2.2um, 2.1x100mm, Thermo
Retention time: 11.086 min
Base peak: 226.1341
Precursor m/z: 342.0771
Precursor type: [M+H]+
m/z	relative intensity	assigned
122.9982	7	CH9Cl2O2+
153.0676	6	C6H14ClO2+
158.975	999	C8ClN2+
159.978	65	C7[13]CClN2+
160.9718	465	C8[37]ClN2+
161.9751	23	C5H4Cl2N2+
172.9539	48	C5HCl2N3+
172.9907	6	C9H2ClN2+
174.951	24	C5HCl[37]ClN3+
186.9697	83	C6H3Cl2N3+
187.9727	7	C5[13]CH3Cl2N3+
188.9672	54	C6H3Cl[37]ClN3+
190.9648	32	C5H3Cl2N3O+
192.9616	24	C5H3Cl[37]ClN3O+
204.9806	31	C6H5Cl2N3O+
206.9773	20	C6H5Cl[37]ClN3O+
220.0267	6	C13H4N2O2+
233.0349	9	C11H8ClN3O+
256.0022	9	C10H8Cl2N3O+
258.0005	5	C10H8Cl[37]ClN3O+
259.0279	36	C10H11Cl2N3O+
261.0247	23	C10H11Cl[37]ClN3O+
342.0763	41	C15H18Cl2N3O2+
343.0817	7	C14[13]CH18Cl2N3O2+
344.0731	25	C15H18Cl[37]ClN3O2+
