Mass spectrum: Diazinon; LC-ESI-QTOF; MS2; CE: 20 eV; R=35000; [M+H]+
Name: Diazinon
Name: diethoxy-(6-methyl-2-propan-2-ylpyrimidin-4-yl)oxy-sulfanylidene-$l^{5}-phosphane
Formula: C12H21N2O3PS
Exact mass: 304.1010502
SMILES: CCOP(=S)(OCC)OC1=NC(=NC(C)=C1)C(C)C
InChI: InChI=1S/C12H21N2O3PS/c1-6-15-18(19,16-7-2)17-11-8-10(5)13-12(14-11)9(3)4/h8-9H,6-7H2,1-5H3
Instrument: Bruker maXis Impact
Instrument type: LC-ESI-QTOF
Ms type: MS2
Ion mode: POSITIVE
Ionization: ESI
Fragmentation mode: CID
Collision energy: 20 eV
Resolution: 35000
Column name: Acclaim RSLC C18 2.2um, 2.1x100mm, Thermo
Retention time: 10.9 min
Base peak: 305.1092
Precursor m/z: 305.1083
Precursor type: [M+H]+
m/z	relative intensity	assigned
114.9608	6	H4O3PS+
124.9813	23	C2H6O2PS+
153.1014	753	C8H13N2O+
169.0788	999	C8H13N2S+
181.1328	25	C10H17N2O+
231.0344	10	C8H12N2O2PS+
249.0455	132	C12H11NO3S+
277.0769	113	C10H18N2O3PS+
305.1085	922	C12H22N2O3PS+
306.1116	87	C11[13]CH22N2O3PS+
307.1064	24	C12H22N2O3P[34]S+
