Mass spectrum: Acetyl-sulfamethoxazole; LC-ESI-QTOF; MS2; CE: Ramp 21.5-32.2 eV; R=35000; [M+H]+
Name: Acetyl-sulfamethoxazole
Name: Acetylsulfamethoxazole
Name: N-[4-[(5-methyl-1,2-oxazol-3-yl)sulfamoyl]phenyl]acetamide
Formula: C12H13N3O4S
Exact mass: 295.0626769
SMILES: CC(=O)NC1=CC=C(C=C1)S(=O)(=O)NC1=NOC(C)=C1
InChI: InChI=1S/C12H13N3O4S/c1-8-7-12(14-19-8)15-20(17,18)11-5-3-10(4-6-11)13-9(2)16/h3-7H,1-2H3,(H,13,16)(H,14,15)
Instrument: Bruker maXis Impact
Instrument type: LC-ESI-QTOF
Ms type: MS2
Ion mode: POSITIVE
Ionization: ESI
Fragmentation mode: CID
Collision energy: Ramp 21.5-32.2 eV
Resolution: 35000
Column name: Acclaim RSLC C18 2.2um, 2.1x100mm, Thermo
Retention time: 5.219 min
Base peak: 296.0704
Precursor m/z: 296.07
Precursor type: [M+H]+
m/z	relative intensity	assigned
59.049	9	C3H7O+
65.0382	61	C5H5+
66.0419	7	H6N2O2+
93.0341	13	C6H5O+
93.0571	24	C6H7N+
99.0548	13	C4H7N2O+
108.0449	44	H12O4S+
131.0605	5	C8H7N2+
132.0669	8	C8H8N2+
134.0594	999	C8H8NO+
135.0641	96	C7[13]CH8NO+
136.0748	225	C8H10NO+
137.0781	24	C7[13]CH10NO+
146.0701	118	C8H8N3+
147.055	9	C8H7N2O+
147.0785	94	C8H9N3+
148.0856	32	C5H12N2O3+
149.0699	9	C8H9N2O+
150.0543	80	C8H8NO2+
150.078	8	C8H10N2O+
151.031	6	C4H9NO3S+
151.0577	10	C7[13]CH8NO2+
152.0697	37	H14N3O4S+
156.0103	103	C9H2NO2+
157.0118	6	C8[13]CH2NO2+
160.0859	180	C9H10N3+
161.0006	21	C4H5N2O3S+
161.0718	6	C9H9N2O+
161.0895	22	C8[13]CH10N3+
162.065	164	C8H8N3O+
163.0687	12	C7[13]CH8N3O+
172.0862	11	C10H10N3+
174.0222	22	C6H8NO3S+
176.0265	35	C8H6N3S+
188.0812	254	C10H10N3O+
189.0877	69	C7H13N2O4+
190.0969	96	C10H12N3O+
191.0788	6	C11H13NS+
191.0999	13	C9[13]CH12N3O+
194.0377	131	C8H8N3OS+
195.041	17	C7[13]CH8N3OS+
196.0346	11	C7H6N3O4+
198.0214	796	C8H8NO3S+
199.0238	71	C7[13]CH8NO3S+
200.0183	36	C8H8NO3[34]S+
201.0634	21	C11H9N2O2+
202.0954	16	C8H14N2O4+
214.096	13	C9H14N2O4+
216.0339	17	C11H8N2OS+
216.0879	10	C12H12N2O2+
218.0364	13	C7H10N2O4S+
230.0929	21	C12H12N3O2+
232.1085	21	C12H14N3O2+
236.0487	60	C12H12O3S+
237.0553	10	C11[13]CH12O3S+
254.0565	9	C10H12N3O3S+
278.0579	10	C12H12N3O3S+
296.0705	388	C12H14N3O4S+
297.0721	75	C11[13]CH14N3O4S+
298.0685	20	C12H14N3O4[34]S+
