Mass spectrum: N-desmethylpheniramine; LC-ESI-QTOF; MS2; CE: 10 eV; R=35000; [M+H]+
Name: N-desmethylpheniramine
Name: N-methyl-3-phenyl-3-pyridin-2-ylpropan-1-amine
Formula: C15H18N2
Exact mass: 226.1469986
SMILES: CNCCC(C1=CC=CC=C1)C2=CC=CC=N2
InChI: InChI=1S/C15H18N2/c1-16-12-10-14(13-7-3-2-4-8-13)15-9-5-6-11-17-15/h2-9,11,14,16H,10,12H2,1H3
Instrument: Bruker maXis Impact
Instrument type: LC-ESI-QTOF
Ms type: MS2
Ion mode: POSITIVE
Ionization: ESI
Fragmentation mode: CID
Collision energy: 10 eV
Resolution: 35000
Column name: Acclaim RSLC C18 2.2um, 2.1x100mm, Thermo
Retention time: 5.1 min
Base peak: 227.1538
Precursor m/z: 227.1543
Precursor type: [M+H]+
m/z	relative intensity	assigned
167.0712	2	C12H9N+
168.0788	2	C12H10N+
169.0842	1	C11[13]CH10N+
196.1117	999	C14H14N+
197.1149	161	C13[13]CH14N+
198.118	8	C12[13]C2H14N+
227.1538	353	C15H19N2+
228.1568	44	C14[13]CH19N2+
229.1603	4	C13[13]C2H19N2+
