Mass spectrum: Sulfadiazine; LC-ESI-QTOF; MS2; CE: 20 eV; R=35000; [M+H]+
Name: Sulfadiazine
Name: 4-amino-n-pyrimidin-2-ylbenzenesulfonamide
Formula: C10H10N4O2S
Exact mass: 250.0524466
SMILES: c1cnc(nc1)NS(=O)(=O)c2ccc(cc2)N
InChI: InChI=1S/C10H10N4O2S/c11-8-2-4-9(5-3-8)17(15,16)14-10-12-6-1-7-13-10/h1-7H,11H2,(H,12,13,14)
Instrument: Bruker maXis Impact
Instrument type: LC-ESI-QTOF
Ms type: MS2
Ion mode: POSITIVE
Ionization: ESI
Fragmentation mode: CID
Collision energy: 20 eV
Resolution: 35000
Column name: Acclaim RSLC C18 2.2um, 2.1x100mm, Thermo
Retention time: 3.3 min
Base peak: 251.0595
Precursor m/z: 251.0597
Precursor type: [M+H]+
m/z	relative intensity	assigned
156.0108	999	C6H6NO2S+
157.0141	48	C3[13]CH4N4OS+
158.0043	49	C4H4N4O[34]S+
174.0231	12	C9H6N2S+
176.0121	50	C10N4+
185.0813	42	C10H9N4+
251.0607	168	C10H11N4O2S+
252.0634	22	C9H10N5O2S+
