Mass spectrum: Prednisone; LC-ESI-QTOF; MS2; CE: 20 eV; R=35000; [M+H]+
Name: Prednisone
Name: (8S,9S,10R,13S,14S,17R)-17-hydroxy-17-(2-hydroxyacetyl)-10,13-dimethyl-6,7,8,9,12,14,15,16-octahydrocyclopenta[a]phenanthrene-3,11-dione
Formula: C21H26O5
Exact mass: 358.1780239
SMILES: C[C@]12CC(=O)[C@H]3[C@H]([C@@H]1CC[C@@]2(C(=O)CO)O)CCC4=CC(=O)C=C[C@]34C
InChI: InChI=1S/C21H26O5/c1-19-7-5-13(23)9-12(19)3-4-14-15-6-8-21(26,17(25)11-22)20(15,2)10-16(24)18(14)19/h5,7,9,14-15,18,22,26H,3-4,6,8,10-11H2,1-2H3/t14-,15-,18+,19-,20-,21-/m0/s1
Instrument: Bruker maXis Impact
Instrument type: LC-ESI-QTOF
Ms type: MS2
Ion mode: POSITIVE
Ionization: ESI
Fragmentation mode: CID
Collision energy: 20 eV
Resolution: 35000
Column name: Acclaim RSLC C18 2.2um, 2.1x100mm, Thermo
Retention time: 7.161 min
Base peak: 359.1872
Precursor m/z: 359.1853
Precursor type: [M+H]+
m/z	relative intensity	assigned
119.0867	39	C9H11+
121.0658	67	C8H9O+
123.0806	35	C8H11O+
125.0954	29	C8H13O+
133.0644	27	C9H9O+
135.0804	197	C9H11O+
137.0589	28	C8H9O2+
137.096	60	C9H13O+
139.0759	84	C8H11O2+
145.0655	26	C10H9O+
147.0807	863	C10H11O+
148.0841	96	C9[13]CH11O+
151.0761	27	C9H11O2+
153.0913	140	C9H13O2+
159.0803	310	C11H11O+
161.096	171	C11H13O+
162.1012	29	C11H14O+
163.0763	92	C10H11O2+
165.0913	57	C10H13O2+
171.0809	461	C12H11O+
172.0843	62	C12H12O+
173.0963	260	C12H13O+
174.0997	31	C12H14O+
175.1132	25	C12H15O+
177.092	40	C11H13O2+
181.0866	152	C10H13O3+
183.0804	37	C13H11O+
183.1028	127	C10H15O3+
184.1054	22	C10H16O3+
185.0974	77	C13H13O+
187.0761	176	C12H11O2+
187.1127	135	C13H15O+
188.0793	28	C12H12O2+
188.1155	32	C13H16O+
189.0904	51	C12H13O2+
195.0816	41	C14H11O+
197.0963	302	C14H13O+
198.1035	67	C14H14O+
199.1124	191	C14H15O+
200.1156	39	C14H16O+
201.0912	31	C13H13O2+
203.1084	44	C13H15O2+
209.0979	132	C15H13O+
211.1119	141	C15H15O+
213.0951	39	C14H13O2+
213.128	179	C15H17O+
214.1311	28	C15H18O+
215.1068	112	C14H15O2+
221.0956	69	C16H13O+
222.1041	28	C16H14O+
223.1113	130	C16H15O+
224.1162	42	C16H16O+
225.1294	182	C16H17O+
226.1317	36	C16H18O+
227.1058	38	C15H15O2+
227.1445	73	C16H19O+
235.113	126	C17H15O+
236.1155	47	C17H16O+
237.1281	639	C17H17O+
238.1313	137	C16[13]CH17O+
239.1076	152	C16H15O2+
239.1435	171	C17H19O+
240.1123	31	C16H16O2+
240.153	29	C17H20O+
241.1227	53	C16H17O2+
243.1386	26	C16H19O2+
247.1142	22	C18H15O+
248.1187	25	C18H16O+
249.1276	107	C18H17O+
250.1317	36	C18H18O+
251.1447	84	C18H19O+
252.1506	37	C18H20O+
253.1233	375	C17H17O2+
253.1596	117	C18H21O+
254.1265	49	C17H18O2+
254.1623	40	C18H22O+
255.1384	328	C17H19O2+
255.1762	28	C18H23O+
256.143	84	C17H20O2+
259.11	25	C19H15O+
261.1288	204	C19H17O+
262.1338	92	C19H18O+
263.1069	25	C18H15O2+
263.1437	414	C19H19O+
264.1496	173	C19H20O+
265.1222	39	C18H17O2+
265.1596	730	C19H21O+
266.1621	112	C18[13]CH21O+
267.1392	577	C18H19O2+
267.1744	102	C19H23O+
268.1415	139	C17[13]CH19O2+
269.1449	32	C14H21O5+
275.1473	96	C20H19O+
277.125	24	C19H17O2+
277.1598	458	C20H21O+
278.1614	115	C19[13]CH21O+
279.1381	64	C19H19O2+
280.1454	23	C19H20O2+
281.1547	260	C19H21O2+
282.1576	51	C19H22O2+
283.1347	33	C18H19O3+
283.1706	127	C19H23O2+
284.1716	31	C19H24O2+
285.1847	26	C19H25O2+
287.1441	137	C21H19O+
288.1467	26	C21H20O+
288.155	27	C21H20O+
290.127	23	C20H18O2+
292.1437	27	C20H20O2+
293.1553	228	C20H21O2+
294.1577	52	C20H22O2+
295.1701	766	C20H23O2+
296.1745	174	C19[13]CH23O2+
297.1506	146	C19H21O3+
298.153	28	C19H22O3+
299.1644	33	C19H23O3+
305.1545	435	C21H21O2+
306.1589	100	C20[13]CH21O2+
311.1664	158	C20H23O3+
312.1708	28	C20H24O3+
313.181	659	C20H25O3+
314.1831	95	C19[13]CH25O3+
323.1654	729	C21H23O3+
324.1693	162	C20[13]CH23O3+
325.1748	22	C21H25O3+
341.1763	999	C21H25O4+
342.1806	212	C20[13]CH25O4+
343.1843	24	C21H27O4+
359.1875	238	C21H27O5+
