Mass spectrum: LSD; LC-ESI-QTOF; MS2; CE: 30 eV; R=35000; [M+H]+
Name: LSD
Name: D-Lysergic acid N,N-diethylamide
Name: N,N-diethyl-7-methyl-6,6a,8,9-tetrahydro-4H-indolo[4,3-fg]quinoline-9-carboxamide
Formula: C20H25N3O
Exact mass: 323.1997624
SMILES: CCN(CC)C(=O)C1CN(C2CC3=CNC4=CC=CC(=C34)C2=C1)C
InChI: InChI=1S/C20H25N3O/c1-4-23(5-2)20(24)14-9-16-15-7-6-8-17-19(15)13(11-21-17)10-18(16)22(3)12-14/h6-9,11,14,18,21H,4-5,10,12H2,1-3H3
Instrument: Bruker maXis Impact
Instrument type: LC-ESI-QTOF
Ms type: MS2
Ion mode: POSITIVE
Ionization: ESI
Fragmentation mode: CID
Collision energy: 30 eV
Resolution: 35000
Column name: Acclaim RSLC C18 2.2um, 2.1x100mm, Thermo
Retention time: 5.705 min
Base peak: 324.2099
Precursor m/z: 324.207
Precursor type: [M+H]+
m/z	relative intensity	assigned
128.1076	18	C7H14NO+
168.0815	5	C12H10N+
180.0821	47	C13H10N+
181.0866	8	C12[13]CH10N+
182.0968	16	C13H12N+
192.082	30	C14H10N+
193.0851	7	C13[13]CH10N+
194.0972	13	C14H12N+
196.1129	5	C14H14N+
197.1089	100	C13H13N2+
198.1116	12	C12[13]CH13N2+
207.0933	22	C14H11N2+
208.0773	131	C14H10NO+
208.1011	102	C14H12N2+
209.08	15	C13[13]CH10NO+
209.1046	15	C13[13]CH12N2+
210.0922	5	C14H12NO+
221.1087	18	C15H13N2+
222.1155	8	C15H14N2+
223.125	999	C15H15N2+
224.128	143	C15H16N2+
225.1309	8	C14[13]CH16N2+
251.1196	29	C16H15N2O+
252.1228	5	C15[13]CH15N2O+
281.1671	82	C18H21N2O+
282.1701	13	C17[13]CH21N2O+
309.186	13	C19H23N3O+
324.2098	136	C20H26N3O+
325.2129	24	C19[13]CH26N3O+
