Mass spectrum: Divinylbenzene (m- and p- mixture); GC-APCI-QTOF; MS2; CE: 50 eV; R=35000; [M]+
Name: Divinylbenzene (m- and p- mixture)
Formula: C10H10
Exact mass: 130.0783
SMILES: C=CC1=CC=CC=C1C=C
InChI: InChI=1S/C10H10/c1-3-9-7-5-6-8-10(9)4-2/h3-8H,1-2H2
Instrument: Bruker 450 GC coupled to maXis Impact
Instrument type: GC-APCI-QTOF
Ms type: MS2
Ion mode: POSITIVE
Ionization: APCI
Fragmentation mode: CID
Collision energy: 50 eV
Resolution: 35000
Column name: Rxi-5Sil MS column, 30m, 0.25mm i.d., 0.25Âµm film thickness, Restek
Retention time: 8.672 min
Base peak: 130.0772
Precursor m/z: 130.0777
Precursor type: [M]+
m/z	relative intensity	assigned
50.0157	288	C4H2+
52.0314	99	C4H4+
63.0222	182	C5H3+
65.0396	165	C5H5+
89.0391	137	C7H5+
102.0459	117	C8H6+
115.0544	336	C9H7+
126.0466	231	C10H6+
127.0535	490	C10H7+
128.0616	999	C10H8+
