Mass spectrum: 3-(4-Isopropylphenyl)isobutyraldehyde; GC-APCI-QTOF; MS2; CE: 30 eV; R=35000; [M]+
Name: 3-(4-Isopropylphenyl)isobutyraldehyde
Formula: C13H18O
Exact mass: 190.1358
SMILES: CC(C)C1=CC=C(C=C1)CC(C)C=O
InChI: InChI=1S/C13H18O/c1-10(2)13-6-4-12(5-7-13)8-11(3)9-14/h4-7,9-11H,8H2,1-3H3
Instrument: Bruker 450 GC coupled to maXis Impact
Instrument type: GC-APCI-QTOF
Ms type: MS2
Ion mode: POSITIVE
Ionization: APCI
Fragmentation mode: CID
Collision energy: 30 eV
Resolution: 35000
Column name: Rxi-5Sil MS column, 30m, 0.25mm i.d., 0.25Âµm film thickness, Restek
Retention time: 12.009 min
Base peak: 190.1362
Precursor m/z: 190.1352
Precursor type: [M]+
m/z	relative intensity	assigned
55.0189	28	C3H3O+
55.0539	16	C4H7+
69.0328	14	C4H5O+
79.0555	12	C6H7+
91.0535	69	C7H7+
105.0695	315	C8H9+
115.0543	263	C9H7+
116.0616	35	C9H8+
117.0694	999	C9H9+
118.0761	160	C9H10+
119.0854	82	C9H11+
128.0618	292	C10H8+
129.0698	959	C10H9+
131.0483	25	C9H7O+
131.0854	161	C10H11+
132.0571	16	C9H8O+
132.0945	75	C10H12+
133.0656	49	C9H9O+
133.1013	803	C10H13+
135.082	14	C9H11O+
141.0683	18	C11H9+
142.0786	51	C11H10+
143.0845	16	C11H11+
145.0649	64	C10H9O+
147.0822	144	C10H11O+
147.1203	32	C11H15+
148.0855	17	C10H12O+
175.1145	61	C12H15O+
176.1202	12	C12H16O+
