Mass spectrum: Codeine; LC-ESI-QTOF; MS2; CE: 30 eV; R=35000; [M+H]+
Name: Codeine
Name: (4R,4aR,7S,7aR,12bS)-9-methoxy-3-methyl-2,4,4a,7,7a,13-hexahydro-1H-4,12-methanobenzofuro[3,2-e]isoquinoline-7-ol
Formula: C18H21NO3
Exact mass: 299.1521435
SMILES: CN1CC[C@]23[C@@H]4[C@H]1CC5=C2C(=C(C=C5)OC)O[C@H]3[C@H](C=C4)O
InChI: InChI=1S/C18H21NO3/c1-19-8-7-18-11-4-5-13(20)17(18)22-16-14(21-2)6-3-10(15(16)18)9-12(11)19/h3-6,11-13,17,20H,7-9H2,1-2H3/t11-,12+,13-,17-,18-/m0/s1
Instrument: Bruker maXis Impact
Instrument type: LC-ESI-QTOF
Ms type: MS2
Ion mode: POSITIVE
Ionization: ESI
Fragmentation mode: CID
Collision energy: 30 eV
Resolution: 35000
Column name: Acclaim RSLC C18 2.2um, 2.1x100mm, Thermo
Retention time: 3.570 min
Base peak: 300.162
Precursor m/z: 300.1594
Precursor type: [M+H]+
m/z	relative intensity	assigned
137.0598	9	C8H9O2+
144.058	6	C10H8O+
153.0706	11	C12H9+
155.0858	17	C12H11+
159.081	15	C11H11O+
161.0602	30	C10H9O2+
165.0706	33	C13H9+
166.0754	7	C12[13]CH9+
168.0574	6	C12H8O+
171.0813	15	C12H11O+
172.052	5	C11H8O2+
172.0875	6	C12H12O+
174.0684	5	C11H10O2+
175.0763	10	C11H11O2+
181.0656	27	C13H9O+
182.0722	9	C13H10O+
183.0813	69	C13H11O+
184.0858	12	C12[13]CH11O+
185.0601	8	C12H9O2+
186.0677	7	C12H10O2+
187.0764	39	C12H11O2+
187.1128	14	C13H15O+
188.0807	5	C11[13]CH11O2+
191.0868	10	C15H11+
192.1022	7	C11H14NO2+
193.0659	31	C14H9O+
193.1028	5	C15H13+
194.0727	16	C14H10O+
195.0804	8	C14H11O+
197.0966	12	C14H13O+
198.0682	6	C13H10O2+
199.0765	84	C13H11O2+
200.0816	21	C13H12O2+
201.0914	9	C13H13O2+
207.0811	5	C15H11O+
209.0614	22	C14H9O2+
209.0971	9	C15H13O+
210.0664	10	C14H10O2+
211.0763	14	C14H11O2+
212.0842	11	C14H12O2+
213.0924	24	C14H13O2+
214.0957	5	C13[13]CH13O2+
215.1084	175	C14H15O2+
216.1112	25	C13[13]CH15O2+
219.0821	10	C16H11O+
220.0882	5	C16H12O+
221.0974	12	C16H13O+
223.0768	14	C15H11O2+
225.0923	82	C15H13O2+
226.0957	15	C14[13]CH13O2+
236.0846	6	C16H12O2+
237.0923	5	C16H13O2+
239.1074	5	C16H15O2+
241.0873	46	C18H11N+
241.1245	5	C16H17O2+
242.091	8	C17[13]CH11N+
243.1031	113	C18H13N+
244.1069	19	C17[13]CH13N+
251.108	12	C17H15O2+
253.1237	10	C17H17O2+
266.119	12	C17H16NO2+
267.1271	13	C17H17NO2+
269.1199	7	C17H17O3+
282.1506	37	C18H20NO2+
283.1536	7	C17[13]CH20NO2+
300.1621	999	C18H22NO3+
301.1651	177	C17[13]CH22NO3+
302.1674	17	C16[13]C2H22NO3+
