Mass spectrum: 4,4`-Thiodianiline; LC-ESI-QTOF; MS2; CE: Ramp 18.6-27.9 eV; R=35000; [M+H]+
Name: 4,4`-Thiodianiline
Name: 4-(4-aminophenyl)sulfanylaniline
Formula: C12H12N2S
Exact mass: 216.07211938
SMILES: NC1=CC=C(SC2=CC=C(N)C=C2)C=C1
InChI: InChI=1S/C12H12N2S/c13-9-1-5-11(6-2-9)15-12-7-3-10(14)4-8-12/h1-8H,13-14H2
Instrument: Bruker maXis Impact
Instrument type: LC-ESI-QTOF
Ms type: MS2
Ion mode: POSITIVE
Ionization: ESI
Fragmentation mode: CID
Collision energy: Ramp 18.6-27.9 eV
Resolution: 35000
Column name: Acclaim RSLC C18 2.2um, 2.1x100mm, Thermo
Retention time: 6.208 min
Base peak: 217.0789
Precursor m/z: 217.0794
Precursor type: [M+H]+
m/z	relative intensity	assigned
80.0493	14	C5H6N+
93.0572	7	C6H7N+
123.0137	6	C6H5NS+
124.0212	731	C6H6NS+
125.0242	48	C5[13]CH6NS+
126.0171	25	C6H6N[34]S+
129.0692	6	C10H9+
139.0537	36	C11H7+
156.0799	23	C11H10N+
166.0664	8	C12H8N+
167.072	93	C12H9N+
168.0759	8	C11[13]CH9N+
171.0256	11	C11H7S+
173.0421	9	C11H9S+
182.0834	7	C12H10N2+
183.0255	75	C12H7S+
183.0908	41	C12H11N2+
184.0333	83	C12H8S+
184.0989	170	C12H12N2+
185.0364	10	C11[13]CH8S+
185.1018	22	C11[13]CH12N2+
198.0373	6	C12H8NS+
199.0445	288	C12H9NS+
200.0514	170	C12H10NS+
201.0392	20	C12H9N[34]S+
201.0531	22	C11[13]CH10NS+
202.0457	6	C12H10N[34]S+
211.0319	49	C12H7N2S+
212.0351	6	C11[13]CH7N2S+
215.0635	81	C12H11N2S+
216.0713	320	C12H12N2S+
217.0792	999	C12H13N2S+
218.0823	107	C11[13]CH13N2S+
219.0765	29	C12H13N2[34]S+
