Mass spectrum: Sulfamethoxypyridazine; LC-ESI-QTOF; MS2; CE: 20 eV; R=35000; [M+H]+
Name: Sulfamethoxypyridazine
Name: 4-amino-n-(6-methoxypyridazin-3-yl)benzenesulfonamide
Formula: C11H12N4O3S
Exact mass: 280.0630112
SMILES: COc1ccc(nn1)NS(=O)(=O)c2ccc(cc2)N
InChI: InChI=1S/C11H12N4O3S/c1-18-11-7-6-10(13-14-11)15-19(16,17)9-4-2-8(12)3-5-9/h2-7H,12H2,1H3,(H,13,15)
Instrument: Bruker maXis Impact
Instrument type: LC-ESI-QTOF
Ms type: MS2
Ion mode: POSITIVE
Ionization: ESI
Fragmentation mode: CID
Collision energy: 20 eV
Resolution: 35000
Column name: Acclaim RSLC C18 2.2um, 2.1x100mm, Thermo
Retention time: 4.2 min
Base peak: 281.0699
Precursor m/z: 281.0703
Precursor type: [M+H]+
m/z	relative intensity	assigned
124.0863	102	C6H10N3+
125.0904	5	C3H13N2O3+
126.0654	213	C5H8N3O+
127.0682	10	C6[13]CH10O2+
156.0107	999	C4H4N4OS+
157.0136	47	C3[13]CH4N4OS+
158.0072	23	C6H6NO2[34]S+
186.0328	58	C6H8N3O2S+
187.0367	7	C9H5N3O2+
188.012	35	C11N4+
204.0433	280	C6H10N3O3S+
205.0477	21	C5[13]CH10N3O3S+
206.0214	7	C11H2N4O+
206.0416	10	C8H6N4O3+
213.1123	35	C7H13N6O2+
215.0934	46	C11H11N4O+
216.0968	6	C11H12N4O+
279.0909	172	C11H13N5O4+
281.0704	234	C11H13N4O3S+
282.0729	24	C10[13]CH13N4O3S+
283.0653	7	C11H13N3O4S+
283.074	8	C10H13N5O3S+
