Mass spectrum: Sulfadimidine; LC-ESI-QTOF; MS2; CE: Ramp 20.8-31.3 eV; R=35000; [M+H]+
Name: Sulfadimidine
Name: 4-amino-N-(4,6-dimethylpyrimidin-2-yl)benzenesulfonamide
Formula: C12H14N4O2S
Exact mass: 278.0837
SMILES: Cc1cc(nc(n1)NS(=O)(=O)c2ccc(cc2)N)C
InChI: InChI=1S/C12H14N4O2S/c1-8-7-9(2)15-12(14-8)16-19(17,18)11-5-3-10(13)4-6-11/h3-7H,13H2,1-2H3,(H,14,15,16)
Instrument: Bruker maXis Impact
Instrument type: LC-ESI-QTOF
Ms type: MS2
Ion mode: POSITIVE
Ionization: ESI
Fragmentation mode: CID
Collision energy: Ramp 20.8-31.3 eV
Resolution: 35000
Column name: Acclaim RSLC C18 2.2um, 2.1x100mm, Thermo
Retention time: 4.4 min
Base peak: 279.0924
Precursor m/z: 279.091
Precursor type: [M+H]+
m/z	relative intensity	assigned
53.0379	8	C4H5+
54.0335	6	C3H4N+
55.0176	5	C3H3O+
65.0379	87	C5H5+
68.0491	130	C4H6N+
69.0329	16	C4H5O+
78.0334	14	C5H4N+
79.0178	22	C5H3O+
80.0489	14	C5H6N+
81.0444	19	C4H5N2+
82.0284	6	C4H4NO+
92.0499	305	C6H6N+
93.0558	28	C6H7N+
94.0647	16	C6H8N+
95.0608	30	C5H7N2+
96.0443	12	C5H6NO+
108.0461	339	CH8N4S+
109.0497	23	C4H5N4+
110.0616	61	CH10N4S+
111.0651	5	C4H7N4+
120.0565	19	C8H8O+
122.0716	60	C6H8N3+
123.0794	22	C6H9N3+
124.0872	711	C6H10N3+
125.0905	63	C4H15NOS+
126.0663	178	C5H8N3O+
127.0697	5	C3H13NO2S+
156.0117	827	C6H6NO2S+
157.0148	57	C7HN4O+
158.0072	15	C9H4NS+
174.0224	11	C12H2N2+
186.0334	112	C6H8N3O2S+
187.0368	7	C9H5N3O2+
188.0128	16	C11N4+
188.0291	5	C11H8OS+
204.0445	999	C12H4N4+
205.0473	69	C12H5N4+
206.0406	33	C11H10O2S+
213.1141	182	C12H13N4+
214.1167	22	C12H14N4+
215.0927	30	C11H11N4O+
215.1291	13	C12H15N4+
279.0925	614	C12H15N4O2S+
280.0953	84	C11H14N5O2S+
281.0725	78	C11H13N4O3S+
282.0742	12	C11H14N4O3S+
