Mass spectrum: Triphenylphosphate; LC-ESI-QTOF; MS2; CE: 20 eV; R=35000; [M+H]+
Name: Triphenylphosphate
Name: triphenyl phosphate
Formula: C18H15O4P
Exact mass: 326.0707956
SMILES: O=P(OC1=CC=CC=C1)(OC1=CC=CC=C1)OC1=CC=CC=C1
InChI: InChI=1S/C18H15O4P/c19-23(20-16-10-4-1-5-11-16,21-17-12-6-2-7-13-17)22-18-14-8-3-9-15-18/h1-15H
Instrument: Bruker maXis Impact
Instrument type: LC-ESI-QTOF
Ms type: MS2
Ion mode: POSITIVE
Ionization: ESI
Fragmentation mode: CID
Collision energy: 20 eV
Resolution: 35000
Column name: Acclaim RSLC C18 2.2um, 2.1x100mm, Thermo
Retention time: 11.051 min
Base peak: 327.0779
Precursor m/z: 327.0781
Precursor type: [M+H]+
m/z	relative intensity	assigned
152.0611	9	C12H8+
153.0691	21	C12H9+
171.0793	7	C12H11O+
215.0238	7	C12H8O2P+
228.0928	6	C18H12+
229.1006	13	C18H13+
233.0359	46	C12H10O3P+
234.0384	7	C11[13]CH10O3P+
251.046	20	C12H12O4P+
327.0778	999	C18H16O4P+
328.0806	191	C17[13]CH16O4P+
329.0837	22	C16[13]C2H16O4P+
