Mass spectrum: Bis(1H,1H,2H,2H-perfluorooctyl)phosphate (6:2diPAP); LC-ESI-QTOF; MS2; CE: 31.6-47.4 eV; R=35000; [M-H]-
Name: Bis(1H,1H,2H,2H-perfluorooctyl)phosphate (6:2diPAP)
Formula: C16H9F26O4P
Exact mass: 789.9823
SMILES: C(COP(=O)(O)OCCC(C(C(C(C(C(F)(F)F)(F)F)(F)F)(F)F)(F)F)(F)F)C(C(C(C(C(C(F)(F)F)(F)F)(F)F)(F)F)(F)F)(F)F
InChI: InChI=1S/C16H9F26O4P/c17-5(18,7(21,22)9(25,26)11(29,30)13(33,34)15(37,38)39)1-3-45-47(43,44)46-4-2-6(19,20)8(23,24)10(27,28)12(31,32)14(35,36)16(40,41)42/h1-4H2,(H,43,44)
Instrument: Bruker maXis Impact
Instrument type: LC-ESI-QTOF
Ms type: MS2
Ionization: ESI
Fragmentation mode: CID
Collision energy: 31.6-47.4 eV
Resolution: 35000
Column name: Acclaim RSLC C18 2.2um, 2.1x100mm, Thermo
Retention time: 12.775 min
Base peak: 800.9126
Precursor m/z: 788.9751
Precursor type: [M-H]-
m/z	relative intensity	assigned
78.9574	664	O3P-
96.9679	999	H2O4P-
442.963	225	C11F13O4-
