Mass spectrum: 4-Acetamidoantipyrin; LC-ESI-QTOF; MS2; CE: 30 eV; R=35000; [M+H]+
Name: 4-Acetamidoantipyrin
Name: 4-Acetamidoantipyrine
Name: N-(1,5-dimethyl-3-oxo-2-phenylpyrazol-4-yl)acetamide
Formula: C13H15N3O2
Exact mass: 245.1164267
SMILES: CN1N(C(=O)C(NC(C)=O)=C1C)C1=CC=CC=C1
InChI: InChI=1S/C13H15N3O2/c1-9-12(14-10(2)17)13(18)16(15(9)3)11-7-5-4-6-8-11/h4-8H,1-3H3,(H,14,17)
Instrument: Bruker maXis Impact
Instrument type: LC-ESI-QTOF
Ms type: MS2
Ion mode: POSITIVE
Ionization: ESI
Fragmentation mode: CID
Collision energy: 30 eV
Resolution: 35000
Column name: Acclaim RSLC C18 2.2um, 2.1x100mm, Thermo
Retention time: 3.9 min
Base peak: 246.1235
Precursor m/z: 246.1237
Precursor type: [M+H]+
m/z	relative intensity	assigned
115.0541	5	C9H7+
117.0569	7	C8H7N+
118.0646	35	C8H8N+
119.0595	55	C7H7N2+
120.0435	5	C7H6NO+
122.0598	5	C7H8NO+
128.0489	31	C9H6N+
130.0638	54	C9H8N+
131.059	69	C8H7N2+
131.0712	21	C9H9N+
132.0435	53	C8H6NO+
132.0652	8	C5H10NO3+
132.0797	29	C9H10N+
133.0751	23	C8H9N2+
134.0577	5	C8H8NO+
135.0543	5	C7H7N2O+
135.0909	5	C8H11N2+
140.0493	5	C10H6N+
142.0644	13	C10H8N+
143.0593	17	C9H7N2+
144.0676	37	C9H8N2+
144.0793	65	C10H10N+
145.0386	23	C8H5N2O+
145.075	152	C9H9N2+
145.0864	84	C5H11N3O2+
146.0796	21	C4H10N4O2+
147.056	35	C8H7N2O+
147.0905	5	C9H11N2+
148.061	10	C8H8N2O+
155.0598	6	C10H7N2+
156.0669	5	C10H8N2+
157.074	15	C10H9N2+
158.0461	33	C9H6N2O+
158.0582	64	C10H8NO+
158.0832	28	C10H10N2+
159.0537	110	C9H7N2O+
159.0906	999	C10H11N2+
160.0561	11	C4H8N4O3+
160.0936	82	C5H12N4O2+
161.0691	12	C9H9N2O+
161.0954	12	C11H13O+
163.0855	6	C9H11N2O+
169.0748	15	C11H9N2+
170.0691	11	C10H8N3+
170.0805	7	C11H10N2+
171.054	88	C10H7N2O+
171.0906	49	C11H11N2+
173.0693	188	C10H9N2O+
173.1054	11	C11H13N2+
174.0728	17	C5H10N4O3+
175.0853	7	C10H11N2O+
176.1168	13	C10H14N3+
177.1	12	C10H13N2O+
183.0899	11	C12H11N2+
184.086	20	C11H10N3+
185.0948	15	C11H11N3+
186.0775	93	C11H10N2O+
186.1008	20	C11H12N3+
187.0857	353	C11H11N2O+
188.0882	40	C6H12N4O3+
189.0886	115	C10H11N3O+
190.0909	17	C5H12N5O3+
199.0843	12	C12H11N2O+
200.0805	26	C11H10N3O+
200.1172	38	C12H14N3+
201.1006	13	C12H13N2O+
201.1195	8	C7H15N5O2+
204.1122	557	C11H14N3O+
205.1151	72	C6H15N5O3+
211.0858	18	C13H11N2O+
212.0826	12	C12H10N3O+
213.0889	129	C12H11N3O+
214.0926	15	C7H12N5O3+
226.0959	66	C13H12N3O+
227.1001	12	C8H13N5O3+
228.1122	617	C13H14N3O+
229.1152	88	C8H15N5O3+
230.1206	6	C8H16N5O3+
