Mass spectrum: 2-Naphthalenesulfonic acid; LC-ESI-QTOF; MS2; CE: 10 eV; R=35000; [M-H]-
Name: 2-Naphthalenesulfonic acid
Name: naphthalene-2-sulfonic acid
Formula: C10H8O3S
Exact mass: 208.0194151
SMILES: OS(=O)(=O)C1=CC=C2C=CC=CC2=C1
InChI: InChI=1S/C10H8O3S/c11-14(12,13)10-6-5-8-3-1-2-4-9(8)7-10/h1-7H,(H,11,12,13)
Instrument: Bruker maXis Impact
Instrument type: LC-ESI-QTOF
Ms type: MS2
Ion mode: NEGATIVE
Ionization: ESI
Fragmentation mode: CID
Collision energy: 10 eV
Resolution: 35000
Column name: Acclaim RSLC C18 2.2um, 2.1x100mm, Thermo
Retention time: 4.819 min
Base peak: 207.0136
Precursor m/z: 207.0121
Precursor type: [M-H]-
m/z	relative intensity	assigned
207.0137	999	C10H7O3S-
208.0162	170	C9[13]CH7O3S-
209.0085	53	C10H7O3[34]S-
