Mass spectrum: Medroxyprogesteroneacetate; LC-ESI-QTOF; MS2; CE: Ramp 23.3-35.0 eV; R=35000; [M+H]+
Name: Medroxyprogesteroneacetate
Name: Medroxyprogesterone acetate
Name: [(6S,8R,9S,10R,13S,14S,17R)-17-acetyl-6,10,13-trimethyl-3-oxo-2,6,7,8,9,11,12,14,15,16-decahydro-1H-cyclopenta[a]phenanthren-17-yl] acetate
Formula: C24H34O4
Exact mass: 386.2457096
SMILES: C[C@H]1C[C@H]2[C@@H]3CC[C@](OC(C)=O)(C(C)=O)[C@@]3(C)CC[C@@H]2[C@@]2(C)CCC(=O)C=C12
InChI: InChI=1S/C24H34O4/c1-14-12-18-19(22(4)9-6-17(27)13-21(14)22)7-10-23(5)20(18)8-11-24(23,15(2)25)28-16(3)26/h13-14,18-20H,6-12H2,1-5H3/t14-,18+,19-,20-,22+,23-,24-/m0/s1
Instrument: Bruker maXis Impact
Instrument type: LC-ESI-QTOF
Ms type: MS2
Ion mode: POSITIVE
Ionization: ESI
Fragmentation mode: CID
Collision energy: Ramp 23.3-35.0 eV
Resolution: 35000
Column name: Acclaim RSLC C18 2.2um, 2.1x100mm, Thermo
Retention time: 10.954 min
Base peak: 387.2527
Precursor m/z: 387.253
Precursor type: [M+H]+
m/z	relative intensity	assigned
55.0537	5	C4H7+
67.0534	15	C5H7+
69.069	11	C5H9+
79.0536	18	C6H7+
81.0693	36	C6H9+
83.0487	106	C5H7O+
83.0854	10	C6H11+
85.0641	13	C5H9O+
91.0544	10	C7H7+
93.0695	46	C7H9+
95.0489	8	C6H7O+
95.0855	69	C7H11+
96.0886	6	C6[13]CH11+
97.0651	756	C6H9O+
98.0685	48	C5[13]CH9O+
99.0804	22	C6H11O+
105.0705	26	C8H9+
107.0861	42	C8H11+
109.0656	23	C7H9O+
109.1018	31	C8H13+
111.0814	44	C7H11O+
117.0701	7	C9H9+
119.0857	48	C9H11+
121.0644	18	C8H9O+
121.1009	32	C9H13+
123.0806	999	C8H11O+
124.0836	74	C7[13]CH11O+
129.0695	6	C10H9+
131.0849	27	C10H11+
133.1008	50	C10H13+
134.1044	5	C9[13]CH13+
135.08	20	C9H11O+
135.1166	22	C10H15+
137.0955	119	C9H13O+
138.0985	12	C8[13]CH13O+
143.0847	21	C11H11+
145.1005	81	C11H13+
146.103	10	C10[13]CH13+
147.0795	6	C10H11O+
147.1158	67	C11H15+
148.1194	8	C10[13]CH15+
149.095	12	C10H13O+
149.1313	11	C11H17+
151.111	14	C10H15O+
155.0841	10	C12H11+
157.0997	36	C12H13+
158.1044	5	C11[13]CH13+
159.1156	61	C12H15+
160.1204	9	C11[13]CH15+
161.0948	30	C11H13O+
161.1313	50	C12H17+
162.1341	5	C11[13]CH17+
163.1108	23	C11H15O+
163.1471	12	C12H19+
169.0998	38	C13H13+
170.1042	6	C12[13]CH13+
171.1155	77	C13H15+
172.1192	11	C12[13]CH15+
173.0943	15	C12H13O+
173.1313	119	C13H17+
174.1356	16	C12[13]CH17+
175.1107	68	C12H15O+
175.1471	168	C13H19+
176.114	10	C11[13]CH15O+
176.1503	21	C12[13]CH19+
177.1263	39	C12H17O+
178.1307	5	C11[13]CH17O+
181.1001	8	C14H13+
183.1155	39	C14H15+
184.1205	9	C13[13]CH15+
185.0946	6	C13H13O+
185.1309	39	C14H17+
186.136	8	C13[13]CH17+
187.1107	61	C13H15O+
187.1468	59	C14H19+
188.1143	11	C12[13]CH15O+
188.1503	7	C13[13]CH19+
189.1262	51	C13H17O+
189.1632	10	C14H21+
190.1299	9	C12[13]CH17O+
191.142	24	C13H19O+
192.146	5	C12[13]CH19O+
195.1151	13	C15H15+
197.1311	54	C15H17+
198.138	18	C15H18+
199.1102	5	C14H15O+
199.147	60	C15H19+
200.1512	15	C14[13]CH19+
201.1269	12	C14H17O+
201.1629	28	C15H21+
203.1418	40	C14H19O+
203.1778	12	C15H23+
204.1459	5	C13[13]CH19O+
205.1576	98	C14H21O+
206.1613	13	C13[13]CH21O+
207.1153	6	C16H15+
209.1314	48	C16H17+
210.137	13	C15[13]CH17+
211.1111	5	C15H15O+
211.1472	63	C16H19+
212.1518	15	C15[13]CH19+
213.1258	16	C15H17O+
213.1627	29	C16H21+
214.1345	126	C15H18O+
215.1413	86	C15H19O+
215.1783	6	C16H23+
216.1462	14	C14[13]CH19O+
217.1578	42	C15H21O+
218.1624	6	C14[13]CH21O+
221.1311	7	C17H17+
222.1377	5	C17H18+
223.1473	48	C17H19+
224.1553	196	C17H20+
225.1619	135	C17H21+
226.1657	24	C16[13]CH21+
227.1415	14	C16H19O+
227.1783	52	C17H23+
228.182	8	C16[13]CH23+
229.1571	12	C16H21O+
231.1736	16	C16H23O+
234.1388	5	C18H18+
235.1472	13	C18H19+
236.153	5	C18H20+
237.1634	21	C18H21+
238.1676	8	C18H22+
239.1428	19	C17H19O+
239.1782	13	C18H23+
241.158	30	C17H21O+
241.1927	7	C18H25+
242.1619	8	C16[13]CH21O+
243.1737	25	C17H23O+
245.1892	21	C17H25O+
246.1931	5	C16[13]CH25O+
249.1628	32	C19H21+
250.1666	11	C18[13]CH21+
251.1786	29	C19H23+
252.1831	6	C18[13]CH23+
253.1578	13	C18H21O+
255.1736	34	C18H23O+
256.177	7	C17[13]CH23O+
257.1532	88	C17H21O2+
257.1898	5	C18H25O+
258.1563	20	C16[13]CH21O2+
263.1791	12	C20H23+
264.1846	7	C20H24+
265.1593	8	C19H21O+
265.1943	84	C20H25+
266.2015	60	C20H26+
267.1741	228	C19H23O+
267.2105	226	C20H27+
268.177	57	C18[13]CH23O+
268.2135	37	C19[13]CH27+
269.1887	42	C19H25O+
270.1925	7	C18[13]CH25O+
281.1896	48	C20H25O+
282.1971	136	C20H26O+
283.2044	168	C20H27O+
284.2114	93	C20H28O+
285.2213	587	C20H29O+
286.2245	138	C19[13]CH29O+
287.2267	10	C18[13]C2H29O+
289.1962	5	C22H25+
291.2107	20	C22H27+
292.2152	10	C22H28+
303.2323	28	C20H31O2+
304.2356	5	C19[13]CH31O2+
307.2053	27	C22H27O+
308.2078	7	C21[13]CH27O+
309.221	161	C22H29O+
310.2249	41	C21[13]CH29O+
325.2163	155	C22H29O2+
326.2193	40	C21[13]CH29O2+
327.2325	581	C22H31O2+
328.2358	169	C21[13]CH31O2+
329.2371	14	C20[13]C2H31O2+
345.2423	12	C22H33O3+
385.2376	36	C24H33O4+
386.2394	9	C23[13]CH33O4+
387.2534	242	C24H35O4+
388.2561	66	C23[13]CH35O4+
389.2606	8	C22[13]C2H35O4+
