Mass spectrum: 4-Androstene-3,17-dione; LC-ESI-QTOF; MS2; CE: 20 eV; R=35000; [M+H]+
Name: 4-Androstene-3,17-dione
Name: Androstenedione
Name: (8R,9S,10R,13S,14S)-10,13-dimethyl-2,6,7,8,9,11,12,14,15,16-decahydro-1H-cyclopenta[a]phenanthrene-3,17-dione
Formula: C19H26O2
Exact mass: 286.1932801
SMILES: C[C@]12CC[C@H]3[C@@H](CCC4=CC(=O)CC[C@]34C)[C@@H]1CCC2=O
InChI: InChI=1S/C19H26O2/c1-18-9-7-13(20)11-12(18)3-4-14-15-5-6-17(21)19(15,2)10-8-16(14)18/h11,14-16H,3-10H2,1-2H3/t14-,15-,16-,18-,19-/m0/s1
Instrument: Bruker maXis Impact
Instrument type: LC-ESI-QTOF
Ms type: MS2
Ion mode: POSITIVE
Ionization: ESI
Fragmentation mode: CID
Collision energy: 20 eV
Resolution: 35000
Column name: Acclaim RSLC C18 2.2um, 2.1x100mm, Thermo
Retention time: 9.401 min
Base peak: 299.2007
Precursor m/z: 287.2006
Precursor type: [M+H]+
m/z	relative intensity	assigned
123.0795	23	C8H11O+
131.084	6	C10H11+
133.0997	13	C10H13+
145.0994	13	C11H13+
147.1152	11	C11H15+
159.1157	16	C12H15+
161.0963	5	C11H13O+
161.132	7	C12H17+
169.0994	6	C13H13+
171.1163	7	C13H15+
173.1313	30	C13H17+
174.1354	5	C12[13]CH17+
183.1162	5	C14H15+
185.1313	18	C14H17+
187.1474	13	C14H19+
191.1425	6	C13H19O+
195.1157	5	C15H15+
199.1454	6	C15H19+
205.1576	7	C14H21O+
209.1316	8	C16H17+
211.1471	30	C16H19+
212.1509	9	C16H20+
213.1265	6	C15H17O+
217.1576	11	C15H21O+
225.1641	5	C17H21+
227.1794	8	C17H23+
229.1578	24	C16H21O+
241.1947	6	C18H25+
251.1782	28	C19H23+
252.1819	6	C18[13]CH23+
269.1889	83	C19H25O+
270.1932	23	C18[13]CH25O+
287.2004	999	C19H27O2+
288.2035	196	C18[13]CH27O2+
289.2065	24	C17[13]C2H27O2+
