Mass spectrum: Boscalid; LC-ESI-QTOF; MS2; CE: 20 eV; R=35000; [M+H]+
Name: Boscalid
Name: 2-chloro-N-[2-(4-chlorophenyl)phenyl]pyridine-3-carboxamide
Formula: C18H12Cl2N2O
Exact mass: 342.0326684
SMILES: ClC1=CC=C(C=C1)C1=CC=CC=C1NC(=O)C1=CC=CN=C1Cl
InChI: InChI=1S/C18H12Cl2N2O/c19-13-9-7-12(8-10-13)14-4-1-2-6-16(14)22-18(23)15-5-3-11-21-17(15)20/h1-11H,(H,22,23)
Instrument: Bruker maXis Impact
Instrument type: LC-ESI-QTOF
Ms type: MS2
Ion mode: POSITIVE
Ionization: ESI
Fragmentation mode: CID
Collision energy: 20 eV
Resolution: 35000
Column name: Acclaim RSLC C18 2.2um, 2.1x100mm, Thermo
Retention time: 9.463 min
Base peak: 333.1811
Precursor m/z: 343.0399
Precursor type: [M+H]+
m/z	relative intensity	assigned
139.9886	313	C6H3ClNO+
140.9918	26	C5[13]CH3ClNO+
141.9855	72	C6H3[37]ClNO+
174.9909	35	C10H4ClO+
250.9998	16	C14H4ClN2O+
252.9953	6	C14H4[37]ClN2O+
271.0863	14	C18H11N2O+
272.0932	17	C18H12N2O+
307.0632	999	C18H12ClN2O+
308.0661	145	C17[13]CH12ClN2O+
309.0603	201	C18H12[37]ClN2O+
343.04	545	C18H13Cl2N2O+
344.0423	99	C17[13]CH13Cl2N2O+
345.0364	323	C18H13Cl[37]ClN2O+
