Mass spectrum: Pipamperone; LC-ESI-QTOF; MS2; CE: 40 eV; R=35000; [M+H]+
Name: Pipamperone
Name: 1-[4-(4-fluorophenyl)-4-oxobutyl]-4-piperidin-1-ylpiperidine-4-carboxamide
Formula: C21H30FN3O2
Exact mass: 375.2322054
SMILES: NC(=O)C1(CCN(CCCC(=O)C2=CC=C(F)C=C2)CC1)N1CCCCC1
InChI: InChI=1S/C21H30FN3O2/c22-18-8-6-17(7-9-18)19(26)5-4-12-24-15-10-21(11-16-24,20(23)27)25-13-2-1-3-14-25/h6-9H,1-5,10-16H2,(H2,23,27)
Instrument: Bruker maXis Impact
Instrument type: LC-ESI-QTOF
Ms type: MS2
Ion mode: POSITIVE
Ionization: ESI
Fragmentation mode: CID
Collision energy: 40 eV
Resolution: 35000
Column name: Acclaim RSLC C18 2.2um, 2.1x100mm, Thermo
Retention time: 5.778 min
Base peak: 376.2398
Precursor m/z: 376.2395
Precursor type: [M+H]+
m/z	relative intensity	assigned
123.0235	224	C5H2FN3+
124.0263	17	C4[13]CH2FN3+
138.1266	29	C9H16N+
165.0701	999	C8H8FN3+
166.0733	81	C7[13]CH8FN3+
194.0965	31	C14H12N+
262.1233	9	C15H17FNO2+
291.1502	15	C16H20FN2O2+
