Mass spectrum: Chlorophene; LC-ESI-QTOF; MS2; CE: 10 eV; R=35000; [M-H]-
Name: Chlorophene
Name: 2-benzyl-4-chlorophenol
Formula: C13H11ClO
Exact mass: 218.0498427
SMILES: OC1=CC=C(Cl)C=C1CC1=CC=CC=C1
InChI: InChI=1S/C13H11ClO/c14-12-6-7-13(15)11(9-12)8-10-4-2-1-3-5-10/h1-7,9,15H,8H2
Instrument: Bruker maXis Impact
Instrument type: LC-ESI-QTOF
Ms type: MS2
Ion mode: NEGATIVE
Ionization: ESI
Fragmentation mode: CID
Collision energy: 10 eV
Resolution: 35000
Column name: Acclaim RSLC C18 2.2um, 2.1x100mm, Thermo
Retention time: 10.911 min
Base peak: 217.042
Precursor m/z: 217.0426
Precursor type: [M-H]-
m/z	relative intensity	assigned
181.0654	5	C13H9O-
217.0421	999	C13H10ClO-
218.0452	191	C12[13]CH10ClO-
219.039	263	C13H10[37]ClO-
