Mass spectrum: Propiconazole; LC-ESI-QTOF; MS2; CE: Ramp 22.4-33.7 eV; R=35000; [M+H]+
Name: Propiconazole
Name: 1-[[2-(2,4-dichlorophenyl)-4-propyl-1,3-dioxolan-2-yl]methyl]-1,2,4-triazole
Formula: C15H17Cl2N3O2
Exact mass: 341.0697821
SMILES: CCCC1COC(CN2C=NC=N2)(O1)C1=C(Cl)C=C(Cl)C=C1
InChI: InChI=1S/C15H17Cl2N3O2/c1-2-3-12-7-21-15(22-12,8-20-10-18-9-19-20)13-5-4-11(16)6-14(13)17/h4-6,9-10,12H,2-3,7-8H2,1H3
Instrument: Bruker maXis Impact
Instrument type: LC-ESI-QTOF
Ms type: MS2
Ion mode: POSITIVE
Ionization: ESI
Fragmentation mode: CID
Collision energy: Ramp 22.4-33.7 eV
Resolution: 35000
Column name: Acclaim RSLC C18 2.2um, 2.1x100mm, Thermo
Retention time: 11.038 min
Base peak: 226.1335
Precursor m/z: 342.0771
Precursor type: [M+H]+
m/z	relative intensity	assigned
67.0532	7	C5H7+
69.0692	468	C5H9+
70.0391	38	C2H4N3+
70.0728	25	C4[13]CH9+
87.0799	6	C5H11O+
122.9971	6	CH9Cl2O2+
153.0686	8	C3H17Cl2NO+
158.9749	999	C7H5Cl2+
159.9782	80	C6[13]CH5Cl2+
160.9721	614	C7H5Cl[37]Cl+
161.9749	32	C5H4Cl2N2+
162.9693	7	C7ClN2O+
172.9541	35	C5HCl2N3+
172.9903	7	C9H2ClN2+
174.951	22	C5HCl[37]ClN3+
186.9697	101	C6H3Cl2N3+
187.9738	6	C5[13]CH3Cl2N3+
188.9668	62	C6H3Cl[37]ClN3+
189.9714	5	C6H4Cl2N2O+
190.9646	22	C5H3Cl2N3O+
192.9618	16	C5H3Cl[37]ClN3O+
204.9806	67	C6H5Cl2N3O+
205.9841	5	C5[13]CH5Cl2N3O+
206.9773	46	C6H5Cl[37]ClN3O+
220.0259	7	C13H4N2O2+
222.9923	6	C6H7Cl2N3O2+
224.988	5	C6H7Cl[37]ClN3O2+
233.0339	12	C14H5N2O2+
251.0456	8	C11H10ClN3O2+
256.0027	18	C10H8Cl2N3O+
258.0011	9	C10H8Cl[37]ClN3O+
259.0271	26	C10H11Cl2N3O+
261.0244	17	C10H11Cl[37]ClN3O+
273.0428	19	C11H13Cl2N3O+
275.041	10	C11H13Cl[37]ClN3O+
328.0811	14	C15H18Cl2N2O2+
342.0764	484	C15H18Cl2N3O2+
343.0786	82	C14[13]CH18Cl2N3O2+
344.0736	325	C15H18Cl[37]ClN3O2+
