Mass spectrum: Pheniramine-N-oxide; LC-ESI-QTOF; MS2; CE: 50 eV; R=35000; [M+H]+
Name: Pheniramine-N-oxide
Name: AC1L5BY1
Name: N,N-dimethyl-3-phenyl-3-pyridin-2-ylpropan-1-amine oxide
Formula: C16H20N2O
Exact mass: 256.1575633
SMILES: C[N+](C)(CCC(c1ccccc1)c2ccccn2)[O-]
InChI: InChI=1S/C16H20N2O/c1-18(2,19)13-11-15(14-8-4-3-5-9-14)16-10-6-7-12-17-16/h3-10,12,15H,11,13H2,1-2H3
Instrument: Bruker maXis Impact
Instrument type: LC-ESI-QTOF
Ms type: MS2
Ion mode: POSITIVE
Ionization: ESI
Fragmentation mode: CID
Collision energy: 50 eV
Resolution: 35000
Column name: Acclaim RSLC C18 2.2um, 2.1x100mm, Thermo
Retention time: 5.3 min
Base peak: 257.1642
Precursor m/z: 257.1648
Precursor type: [M+H]+
m/z	relative intensity	assigned
117.0563	33	C8H7N+
118.0641	62	C8H8N+
119.0693	7	C3H9N3O2+
139.0528	13	C11H7+
140.0598	5	C11H8+
141.0687	6	C11H9+
167.0716	999	C11H10N+
168.079	573	C12H10N+
169.0826	55	C11[13]CH10N+
180.0795	24	C13H10N+
181.0861	9	C12[13]CH10N+
193.0876	7	C14H11N+
194.095	40	C14H12N+
196.1114	142	C14H14N+
197.1146	19	C13[13]CH14N+
