Mass spectrum: Phenylbenzimidazole sulfonic acid; LC-ESI-QTOF; MS2; CE: 10 eV; R=35000; [M+H]+
Name: Phenylbenzimidazole sulfonic acid
Name: Ensulizole
Name: 2-phenyl-3H-benzimidazole-5-sulfonic acid
Formula: C13H10N2O3S
Exact mass: 274.0412132
SMILES: OS(=O)(=O)C1=CC=C2NC(=NC2=C1)C1=CC=CC=C1
InChI: InChI=1S/C13H10N2O3S/c16-19(17,18)10-6-7-11-12(8-10)15-13(14-11)9-4-2-1-3-5-9/h1-8H,(H,14,15)(H,16,17,18)
Instrument: Bruker maXis Impact
Instrument type: LC-ESI-QTOF
Ms type: MS2
Ion mode: POSITIVE
Ionization: ESI
Fragmentation mode: CID
Collision energy: 10 eV
Resolution: 35000
Column name: Acclaim RSLC C18 2.2um, 2.1x100mm, Thermo
Retention time: 4.635 min
Base peak: 169.075
Precursor m/z: 275.0485
Precursor type: [M+H]+
m/z	relative intensity	assigned
275.0476	999	C13H11N2O3S+
276.0506	143	C12[13]CH11N2O3S+
277.0446	46	C13H11N2O3[34]S+
