Mass spectrum: Phenylethylmalonamide; LC-ESI-QTOF; MS2; CE: 20 eV; R=35000; [M+H]+
Name: Phenylethylmalonamide
Name: 2-Ethyl-2-phenylmalonamide
Name: 2-ethyl-2-phenylpropanediamide
Formula: C11H14N2O2
Exact mass: 206.1055277
SMILES: CCC(C(N)=O)(C(N)=O)C1=CC=CC=C1
InChI: InChI=1S/C11H14N2O2/c1-2-11(9(12)14,10(13)15)8-6-4-3-5-7-8/h3-7H,2H2,1H3,(H2,12,14)(H2,13,15)
Instrument: Bruker maXis Impact
Instrument type: LC-ESI-QTOF
Ms type: MS2
Ion mode: POSITIVE
Ionization: ESI
Fragmentation mode: CID
Collision energy: 20 eV
Resolution: 35000
Column name: Acclaim RSLC C18 2.2um, 2.1x100mm, Thermo
Retention time: 4.283 min
Base peak: 207.1122
Precursor m/z: 207.1128
Precursor type: [M+H]+
m/z	relative intensity	assigned
115.0536	47	C9H7+
116.0575	9	C4H8N2O2+
117.0694	125	C9H9+
118.0729	28	C4H10N2O2+
119.0851	86	C9H11+
120.0884	14	C4H12N2O2+
134.0961	132	C9H12N+
135.0987	16	C8[13]CH12N+
145.0641	82	C10H9O+
162.0907	999	C10H12NO+
163.0944	144	C9[13]CH12NO+
164.0974	11	C9H12N2O+
207.114	13	C11H15N2O2+
