Mass spectrum: Sulfachlorpyridazine; LC-ESI-QTOF; MS2; CE: Ramp 21.1-31.6 eV; R=35000; [M+H]+
Name: Sulfachlorpyridazine
Name: 4-amino-N-(6-chloropyridazin-3-yl)benzenesulfonamide
Formula: C10H9ClN4O2S
Exact mass: 284.0135
SMILES: c1cc(ccc1N)S(=O)(=O)Nc2ccc(nn2)Cl
InChI: InChI=1S/C10H9ClN4O2S/c11-9-5-6-10(14-13-9)15-18(16,17)8-3-1-7(12)2-4-8/h1-6H,12H2,(H,14,15)
Instrument: Bruker maXis Impact
Instrument type: LC-ESI-QTOF
Ms type: MS2
Ion mode: POSITIVE
Ionization: ESI
Fragmentation mode: CID
Collision energy: Ramp 21.1-31.6 eV
Resolution: 35000
Column name: Acclaim RSLC C18 2.2um, 2.1x100mm, Thermo
Retention time: 4.6 min
Base peak: 285.0223
Precursor m/z: 285.0208
Precursor type: [M+H]+
m/z	relative intensity	assigned
53.0389	5	C4H5+
54.0333	5	C3H4N+
55.0178	5	C3H3O+
60.0552	5	CH6N3+
65.0382	38	C5H5+
66.0423	5	H6N2O2+
68.049	79	C4H6N+
78.0333	7	C5H4N+
79.0177	10	C5H3O+
92.0498	76	C6H6N+
93.0532	7	CH7N3O2+
96.0443	6	C5H6NO+
108.0457	121	CH8N4S+
109.0483	11	C4H5N4+
110.0609	48	C6H8NO+
120.0562	30	C6H6N3+
130.0172	56	C4H5ClN3+
132.0138	15	CH9ClN2OS+
156.0118	999	C3H9ClN2OS+
157.015	88	C7HN4O+
158.008	38	C9H4NS+
174.0228	7	C9H6N2S+
184.0757	6	C10H8N4+
191.9647	5	C4H3ClN3O2S+
219.0438	7	C10H8ClN4+
285.0221	36	C10H10ClN4O2S+
287.0184	8	C9H10ClN5O2S+
