Mass spectrum: 4-Isopropylantipyrine; LC-ESI-QTOF; MS2; CE: 50 eV; R=35000; [M+H]+
Name: 4-Isopropylantipyrine
Name: Propyphenazone
Name: 1,5-dimethyl-2-phenyl-4-propan-2-ylpyrazol-3-one
Formula: C14H18N2O
Exact mass: 230.1419132
SMILES: Cc1c(c(=O)n(n1C)c2ccccc2)C(C)C
InChI: InChI=1S/C14H18N2O/c1-10(2)13-11(3)15(4)16(14(13)17)12-8-6-5-7-9-12/h5-10H,1-4H3
Instrument: Bruker maXis Impact
Instrument type: LC-ESI-QTOF
Ms type: MS2
Ion mode: POSITIVE
Ionization: ESI
Fragmentation mode: CID
Collision energy: 50 eV
Resolution: 35000
Column name: Acclaim RSLC C18 2.2um, 2.1x100mm, Thermo
Retention time: 7.472 min
Base peak: 231.1494
Precursor m/z: 231.1492
Precursor type: [M+H]+
m/z	relative intensity	assigned
115.0538	247	C9H7+
116.0501	39	C8H6N+
117.0564	210	C8H7N+
117.0684	92	C9H9+
118.0644	282	C8H8N+
119.0691	41	C7[13]CH8N+
120.0427	27	C7H6NO+
120.0798	128	C8H10N+
122.0595	25	C7H8NO+
123.0543	13	C6H7N2O+
123.09	16	C7H11N2+
124.0752	59	C7H10NO+
125.1074	7	C7H13N2+
127.054	22	C10H7+
128.0486	95	C9H6N+
128.0611	64	C10H8+
129.0563	102	C9H7N+
129.0677	59	C10H9+
130.0642	999	C9H8N+
131.0709	333	C9H9N+
132.0434	30	C8H6NO+
132.0676	52	C8H8N2+
132.0792	210	C9H10N+
133.0511	107	C8H7NO+
133.0756	82	C8H9N2+
134.0948	31	C9H12N+
135.0553	10	C7H7N2O+
136.0745	11	C8H10NO+
138.0908	8	C8H12NO+
139.0855	97	C7H11N2O+
140.0483	58	C10H6N+
141.0563	23	C10H7N+
141.0694	12	C11H9+
142.0641	88	C10H8N+
143.0719	406	C10H9N+
144.0793	338	C10H10N+
145.075	183	C9H9N2+
146.0591	52	C9H8NO+
146.0825	127	C9H10N2+
146.0943	88	C10H12N+
147.0644	20	C9H9NO+
147.0904	47	C9H11N2+
148.0757	9	C9H10NO+
148.1133	13	C10H14N+
152.0469	7	C11H6N+
154.0636	48	C11H8N+
155.0591	42	C10H7N2+
156.0431	13	C10H6NO+
156.0647	24	C10H8N2+
156.0798	151	C11H10N+
157.0514	28	C10H7NO+
157.0769	43	C10H9N2+
157.0872	81	C11H11N+
158.0594	29	C10H8NO+
158.0829	65	C10H10N2+
158.0942	114	C11H12N+
159.0651	20	C10H9NO+
159.0909	104	C10H11N2+
160.074	19	C10H10NO+
160.0974	33	C10H12N2+
161.1064	14	C10H13N2+
166.0634	13	C12H8N+
167.0694	16	C12H9N+
168.0819	9	C12H10N+
169.0761	8	C11H9N2+
170.0589	31	C11H8NO+
170.0958	13	C12H12N+
171.0542	127	C10H7N2O+
171.0915	16	C11H11N2+
172.0582	21	C9[13]CH7N2O+
172.0742	41	C11H10NO+
172.097	22	C11H12N2+
172.1088	13	C12H14N+
173.0704	55	C10H9N2O+
173.1059	52	C11H13N2+
174.0771	54	C10H10N2O+
174.1068	8	C12H14O+
181.0723	9	C12H9N2+
182.0816	8	C12H10N2+
183.0903	17	C12H11N2+
184.0734	19	C12H10NO+
185.0697	225	C11H9N2O+
186.0775	183	C11H10N2O+
187.0843	41	C11H11N2O+
187.1231	16	C12H15N2+
188.0903	10	C11H12N2O+
188.1264	9	C12H16N2+
189.1009	95	C11H13N2O+
197.105	16	C13H13N2+
199.0847	22	C12H11N2O+
201.1011	282	C12H13N2O+
202.1051	44	C11[13]CH13N2O+
215.1177	14	C13H15N2O+
231.1497	21	C14H19N2O+
