Mass spectrum: Spiroxamine; LC-ESI-QTOF; MS2; CE: 10 eV; R=35000; [M+H]+
Name: Spiroxamine
Name: N-[(8-tert-butyl-1,4-dioxaspiro[4.5]decan-3-yl)methyl]-N-ethylpropan-1-amine
Formula: C18H35NO2
Exact mass: 297.2667794
SMILES: CCCN(CC)CC1COC2(CCC(CC2)C(C)(C)C)O1
InChI: InChI=1S/C18H35NO2/c1-6-12-19(7-2)13-16-14-20-18(21-16)10-8-15(9-11-18)17(3,4)5/h15-16H,6-14H2,1-5H3
Instrument: Bruker maXis Impact
Instrument type: LC-ESI-QTOF
Ms type: MS2
Ion mode: POSITIVE
Ionization: ESI
Fragmentation mode: CID
Collision energy: 10 eV
Resolution: 35000
Column name: Acclaim RSLC C18 2.2um, 2.1x100mm, Thermo
Retention time: 9.090 min
Base peak: 404.1245
Precursor m/z: 298.2741
Precursor type: [M+H]+
m/z	relative intensity	assigned
144.1373	42	C8H18NO+
298.2744	999	C18H36NO2+
299.2776	162	C17[13]CH36NO2+
300.2805	13	C16[13]C2H36NO2+
