Mass spectrum: Galaxolidone; LC-ESI-QTOF; MS2; CE: 20 eV; R=35000; [M+H]+
Name: Galaxolidone
Name: SCHEMBL4657606
Name: 4,6,6,7,8,8-hexamethyl-4,7-dihydro-3H-cyclopenta[g]isochromen-1-one
Formula: C18H24O2
Exact mass: 272.1776300
SMILES: CC1C(C)(C)c2cc3C(C)COC(=O)c3cc2C1(C)C
InChI: InChI=1S/C18H24O2/c1-10-9-20-16(19)13-8-15-14(7-12(10)13)17(3,4)11(2)18(15,5)6/h7-8,10-11H,9H2,1-6H3
Instrument: Bruker maXis Impact
Instrument type: LC-ESI-QTOF
Ms type: MS2
Ion mode: POSITIVE
Ionization: ESI
Fragmentation mode: CID
Collision energy: 20 eV
Resolution: 35000
Column name: Acclaim RSLC C18 2.2um, 2.1x100mm, Thermo
Retention time: 12.1 min
Base peak: 279.1591
Precursor m/z: 273.1849
Precursor type: [M+H]+
m/z	relative intensity	assigned
129.0554	73	C6H9O3+
185.1162	54	C10H17O3+
227.1781	56	C17H23+
240.1485	56	C17H20O+
255.173	873	C18H23O+
256.1773	278	C18H24O+
271.1895	82	C18H25NO+
273.1839	999	C18H25O2+
