Mass spectrum: Bifonazol; LC-ESI-QTOF; MS2; CE: 50 eV; R=35000; [M+H]+
Name: Bifonazol
Name: Bifonazole
Name: 1-[phenyl-(4-phenylphenyl)methyl]imidazole
Formula: C22H18N2
Exact mass: 310.1469986
SMILES: C1=CN(C=N1)C(C1=CC=CC=C1)C1=CC=C(C=C1)C1=CC=CC=C1
InChI: InChI=1S/C22H18N2/c1-3-7-18(8-4-1)19-11-13-21(14-12-19)22(24-16-15-23-17-24)20-9-5-2-6-10-20/h1-17,22H
Instrument: Bruker maXis Impact
Instrument type: LC-ESI-QTOF
Ms type: MS2
Ion mode: POSITIVE
Ionization: ESI
Fragmentation mode: CID
Collision energy: 50 eV
Resolution: 35000
Column name: Acclaim RSLC C18 2.2um, 2.1x100mm, Thermo
Retention time: 10.580 min
Base peak: 311.1539
Precursor m/z: 311.1543
Precursor type: [M+H]+
m/z	relative intensity	assigned
115.0538	106	C9H7+
116.0566	13	C8[13]CH7+
139.053	8	C11H7+
141.0689	177	C11H9+
142.0721	16	C10[13]CH9+
152.0608	15	C12H8+
163.0526	9	C13H7+
164.0606	25	C13H8+
165.0688	999	C13H9+
166.0735	152	C12[13]CH9+
167.0781	13	C11[13]C2H9+
178.0766	18	C14H10+
202.0767	83	C16H10+
203.0817	20	C15[13]CH10+
204.0903	6	C16H12+
215.0848	160	C17H11+
216.089	34	C16[13]CH11+
217.097	5	C17H13+
226.0768	38	C18H10+
227.0845	114	C18H11+
228.0926	771	C18H12+
229.0959	115	C17[13]CH12+
230.099	8	C16[13]C2H12+
239.0849	48	C19H11+
240.0917	38	C19H12+
241.1005	438	C19H13+
242.1067	180	C19H14+
243.1148	86	C19H15+
244.1192	15	C18[13]CH15+
