Mass spectrum: Meloxicam; LC-ESI-QTOF; MS2; CE: 20 eV; R=35000; [M+H]+
Name: Meloxicam
Name: 4-hydroxy-2-methyl-N-(5-methyl-1,3-thiazol-2-yl)-1,1-dioxo-1$l^{6},2-benzothiazine-3-carboxamide
Formula: C14H13N3O4S2
Exact mass: 351.0347479
SMILES: Cc1cnc(s1)/N=C(/C2=C(c3ccccc3S(=O)(=O)N2C)O)\O
InChI: InChI=1S/C14H13N3O4S2/c1-8-7-15-14(22-8)16-13(19)11-12(18)9-5-3-4-6-10(9)23(20,21)17(11)2/h3-7,18H,1-2H3,(H,15,16,19)
Instrument: Bruker maXis Impact
Instrument type: LC-ESI-QTOF
Ms type: MS2
Ion mode: POSITIVE
Ionization: ESI
Fragmentation mode: CID
Collision energy: 20 eV
Resolution: 35000
Column name: Acclaim RSLC C18 2.2um, 2.1x100mm, Thermo
Retention time: 7.3 min
Base peak: 352.0309
Precursor m/z: 352.042
Precursor type: [M+H]+
m/z	relative intensity	assigned
115.028	732	C7H3N2+
116.0298	58	C5H8OS+
141.0059	999	C5H3NO4+
142.0079	74	C6H6O2S+
184.0477	130	C7H8N2O4+
194.02	54	C7H4N3O4+
352.0386	344	C14H14N3O4S2+
