Mass spectrum: Chlorothalonil-4-hydroxy; LC-ESI-QTOF; MS2; CE: 20 eV; R=35000; [M-H]-
Name: Chlorothalonil-4-hydroxy
Name: 4-Hydroxy-2,5,6-trichloroisophthalonitrile
Name: 2,4,5-trichloro-6-hydroxybenzene-1,3-dicarbonitrile
Formula: C8HCl3N2O
Exact mass: 245.9154457
SMILES: OC1=C(Cl)C(Cl)=C(C#N)C(Cl)=C1C#N
InChI: InChI=1S/C8HCl3N2O/c9-5-3(1-12)6(10)7(11)8(14)4(5)2-13/h14H
Instrument: Bruker maXis Impact
Instrument type: LC-ESI-QTOF
Ms type: MS2
Ion mode: NEGATIVE
Ionization: ESI
Fragmentation mode: CID
Collision energy: 20 eV
Resolution: 35000
Column name: Acclaim RSLC C18 2.2um, 2.1x100mm, Thermo
Retention time: 7.482 min
Base peak: 244.9084
Precursor m/z: 244.9082
Precursor type: [M-H]-
m/z	relative intensity	assigned
146.975	7	C7ClN2-
150.9684	10	C6ClN2O-
174.97	52	C8ClN2O-
176.9663	11	C8[37]ClN2O-
181.9447	12	C7Cl2N2-
183.9407	6	C7Cl[37]ClN2-
209.9377	26	C8Cl2N2O-
211.9364	12	C8Cl[37]ClN2O-
244.9084	999	C8Cl3N2O-
245.9108	128	C7[13]CCl3N2O-
246.9053	943	C8Cl2[37]ClN2O-
