Mass spectrum: Thiabendazole; LC-ESI-QTOF; MS2; CE: Ramp 18.1-27.1 eV; R=35000; [M+H]+
Name: Thiabendazole
Name: 4-(1H-benzimidazol-2-yl)-1,3-thiazole
Formula: C10H7N3S
Exact mass: 201.0361
SMILES: c1ccc2c(c1)[nH]c(n2)c3cscn3
InChI: InChI=1S/C10H7N3S/c1-2-4-8-7(3-1)12-10(13-8)9-5-14-6-11-9/h1-6H,(H,12,13)
Instrument: Bruker maXis Impact
Instrument type: LC-ESI-QTOF
Ms type: MS2
Ion mode: POSITIVE
Ionization: ESI
Fragmentation mode: CID
Collision energy: Ramp 18.1-27.1 eV
Resolution: 35000
Column name: Acclaim RSLC C18 2.2um, 2.1x100mm, Thermo
Retention time: 6.4 min
Base peak: 202.0448
Precursor m/z: 202.0433
Precursor type: [M+H]+
m/z	relative intensity	assigned
65.0379	6	C5H5+
92.0495	26	C6H6N+
131.0607	76	C8H7N2+
132.0637	6	C8H8N2+
143.0609	12	C9H7N2+
158.0713	13	C9H8N3+
170.071	5	C10H8N3+
175.0332	542	C9H7N2S+
176.0356	44	C9H8N2S+
177.0284	16	C8H7N3S+
202.045	999	C10H8N3S+
204.0401	55	C10H8N2OS+
