Mass spectrum: Methyl laurate; GC-APCI-QTOF; MS2; CE: 10 eV; R=35000; [M+H]+
Name: Methyl laurate
Formula: C13H26O2
Exact mass: 214.1933
SMILES: CCCCCCCCCCCC(=O)OC
InChI: InChI=1S/C13H26O2/c1-3-4-5-6-7-8-9-10-11-12-13(14)15-2/h3-12H2,1-2H3
Instrument: Bruker 450 GC coupled to maXis Impact
Instrument type: GC-APCI-QTOF
Ms type: MS2
Ion mode: POSITIVE
Ionization: APCI
Fragmentation mode: CID
Collision energy: 10 eV
Resolution: 35000
Column name: Rxi-5Sil MS column, 30m, 0.25mm i.d., 0.25Âµm film thickness, Restek
Retention time: 12.410 min
Base peak: 215.2008
Precursor m/z: 215.2006
Precursor type: [M+H]+
m/z	relative intensity	assigned
103.0744	5	C5H11O2+
117.091	7	C6H13O2+
131.1067	7	C7H15O2+
143.1083	21	C8H15O2+
163.1508	30	C12H19+
164.1542	10	C12H20+
171.1414	15	C10H19O2+
181.1613	30	C12H21O+
213.1874	12	C13H25O2+
214.194	5	C13H26O2+
215.2003	999	C13H27O2+
