Mass spectrum: Cyclohexyl methacrylate; GC-APCI-QTOF; MS2; CE: 10 eV; R=35000; [M]+
Name: Cyclohexyl methacrylate
Formula: C10H16O2
Exact mass: 168.1150
SMILES: CC(=C)C(=O)OC1CCCCC1
InChI: InChI=1S/C10H16O2/c1-8(2)10(11)12-9-6-4-3-5-7-9/h9H,1,3-7H2,2H3
Instrument: Bruker 450 GC coupled to maXis Impact
Instrument type: GC-APCI-QTOF
Ms type: MS2
Ion mode: POSITIVE
Ionization: APCI
Fragmentation mode: CID
Collision energy: 10 eV
Resolution: 35000
Column name: Rxi-5Sil MS column, 30m, 0.25mm i.d., 0.25Âµm film thickness, Restek
Retention time: 9.567 min
Base peak: 168.1162
Precursor m/z: 168.1145
Precursor type: [M]+
m/z	relative intensity	assigned
150.1061	667	C10H14O+
168.1157	999	C10H16O2+
