Mass spectrum: Imatinib; LC-ESI-QTOF; MS2; CE: 40 eV; R=35000; [M+H]+
Name: Imatinib
Name: 4-[(4-methylpiperazin-1-yl)methyl]-N-[4-methyl-3-[(4-pyridin-3-ylpyrimidin-2-yl)amino]phenyl]benzamide
Formula: C29H31N7O
Exact mass: 493.2590086
SMILES: CN1CCN(CC2=CC=C(C=C2)C(=O)NC2=CC(NC3=NC=CC(=N3)C3=CN=CC=C3)=C(C)C=C2)CC1
InChI: InChI=1S/C29H31N7O/c1-21-5-10-25(18-27(21)34-29-31-13-11-26(33-29)24-4-3-12-30-19-24)32-28(37)23-8-6-22(7-9-23)20-36-16-14-35(2)15-17-36/h3-13,18-19H,14-17,20H2,1-2H3,(H,32,37)(H,31,33,34)
Instrument: Bruker maXis Impact
Instrument type: LC-ESI-QTOF
Ms type: MS2
Ion mode: POSITIVE
Ionization: ESI
Fragmentation mode: CID
Collision energy: 40 eV
Resolution: 35000
Column name: Acclaim RSLC C18 2.2um, 2.1x100mm, Thermo
Retention time: 6.621 min
Base peak: 247.6362
Precursor m/z: 494.2663
Precursor type: [M+H]+
m/z	relative intensity	assigned
119.0479	9	C6H5N3+
131.0593	12	C8H7N2+
158.0585	6	C8H6N4+
174.0904	9	C9H10N4+
189.1373	19	C12H17N2+
194.0963	5	C14H12N+
217.133	109	C11H15N5+
218.1363	16	C10[13]CH15N5+
221.1062	16	C15H13N2+
222.0908	94	C15H12NO+
223.0966	28	C13H11N4+
238.1095	5	C15H14N2O+
247.0859	26	C16H11N2O+
264.1128	40	C16H14N3O+
265.0963	39	C14H11N5O+
266.1004	5	C13[13]CH11N5O+
274.0966	5	C15H10N6+
290.1283	27	C16H14N6+
291.131	6	C15[13]CH14N6+
351.123	6	C20H13N7+
351.1597	17	C23H19N4+
366.1719	11	C23H20N5+
376.1541	13	C24H18N5+
377.1398	20	C24H17N4O+
378.1355	15	C23H16N5O+
379.1422	62	C23H17N5O+
380.1436	13	C22[13]CH17N5O+
394.1664	999	C24H20N5O+
395.169	266	C23[13]CH20N5O+
396.172	32	C22[13]C2H20N5O+
476.2562	13	C29H30N7+
494.2672	25	C29H32N7O+
495.2682	8	C28[13]CH32N7O+
