Mass spectrum: Benzothiazole; LC-ESI-QTOF; MS2; CE: RAMP 15.7-23.5 eV; R=35000; [M+H]+
Name: Benzothiazole
Name: 1,3-benzothiazole
Formula: C7H5NS
Exact mass: 135.0142702
SMILES: c1ccc2c(c1)ncs2
InChI: InChI=1S/C7H5NS/c1-2-4-7-6(3-1)8-5-9-7/h1-5H
Instrument: Bruker maXis Impact
Instrument type: LC-ESI-QTOF
Ms type: MS2
Ion mode: POSITIVE
Ionization: ESI
Fragmentation mode: CID
Collision energy: RAMP 15.7-23.5 eV
Resolution: 35000
Column name: Acclaim RSLC C18 2.2um, 2.1x100mm, Thermo
Retention time: 6.972 min
Base peak: 392.1927
Precursor m/z: 136.0215
Precursor type: [M+H]+
m/z	relative intensity	assigned
109.0082	27	C6H5S+
136.0208	999	C7H6NS+
137.0239	81	C6[13]CH6NS+
138.015	35	C7H6N[34]S+
