Mass spectrum: Candesartan; LC-ESI-QTOF; MS2; CE: 20 eV; R=35000; [M-H]-
Name: Candesartan
Name: 2-ethoxy-3-[[4-[2-(2H-tetrazol-5-yl)phenyl]phenyl]methyl]benzimidazole-4-carboxylic acid
Formula: C24H20N6O3
Exact mass: 440.1596885
SMILES: CCOC1=NC2=CC=CC(C(O)=O)=C2N1CC1=CC=C(C=C1)C1=CC=CC=C1C1=NNN=N1
InChI: InChI=1S/C24H20N6O3/c1-2-33-24-25-20-9-5-8-19(23(31)32)21(20)30(24)14-15-10-12-16(13-11-15)17-6-3-4-7-18(17)22-26-28-29-27-22/h3-13H,2,14H2,1H3,(H,31,32)(H,26,27,28,29)
Instrument: Bruker maXis Impact
Instrument type: LC-ESI-QTOF
Ms type: MS2
Ion mode: NEGATIVE
Ionization: ESI
Fragmentation mode: CID
Collision energy: 20 eV
Resolution: 35000
Column name: Acclaim RSLC C18 2.2um, 2.1x100mm, Thermo
Retention time: 4.684 min
Base peak: 439.1501
Precursor m/z: 439.1524
Precursor type: [M-H]-
m/z	relative intensity	assigned
132.0315	267	C5H2N5-
133.0394	352	C5H3N5-
205.0617	248	C10H9N2O3-
309.1011	999	C19H11N5-
310.1079	342	C18[13]CH11N5-
354.1044	297	C22H14N2O3-
439.149	969	C24H19N6O3-
