Mass spectrum: n-Octyl acrylate; GC-APCI-QTOF; MS2; CE: 10 eV; R=35000; [M+H]+
Name: n-Octyl acrylate
Formula: C11H20O2
Exact mass: 184.1463
SMILES: CCCCCCCCOC(=O)C=C
InChI: InChI=1S/C11H20O2/c1-3-5-6-7-8-9-10-13-11(12)4-2/h4H,2-3,5-10H2,1H3
Instrument: Bruker 450 GC coupled to maXis Impact
Instrument type: GC-APCI-QTOF
Ms type: MS2
Ion mode: POSITIVE
Ionization: APCI
Fragmentation mode: CID
Collision energy: 10 eV
Resolution: 35000
Column name: Rxi-5Sil MS column, 30m, 0.25mm i.d., 0.25Âµm film thickness, Restek
Retention time: 10.335 min
Base peak: 123.0438
Precursor m/z: 185.1536
Precursor type: [M+H]+
m/z	relative intensity	assigned
121.1004	160	C9H13+
137.0964	199	C9H13O+
139.1143	999	C9H15O+
140.1184	160	C9H16O+
