Mass spectrum: N4-Acetylsulfamethazine; LC-ESI-QTOF; MS2; CE: 10 eV; R=35000; [M+H]+
Name: N4-Acetylsulfamethazine
Name: N-Acetyl Sulfamethazine
Name: N-[4-[(4,6-dimethylpyrimidin-2-yl)sulfamoyl]phenyl]acetamide
Formula: C14H16N4O3S
Exact mass: 320.0943114
SMILES: Cc1cc(nc(n1)NS(=O)(=O)c2ccc(cc2)/N=C(\C)/O)C
InChI: InChI=1S/C14H16N4O3S/c1-9-8-10(2)16-14(15-9)18-22(20,21)13-6-4-12(5-7-13)17-11(3)19/h4-8H,1-3H3,(H,17,19)(H,15,16,18)
Instrument: Bruker maXis Impact
Instrument type: LC-ESI-QTOF
Ms type: MS2
Ion mode: POSITIVE
Ionization: ESI
Fragmentation mode: CID
Collision energy: 10 eV
Resolution: 35000
Column name: Acclaim RSLC C18 2.2um, 2.1x100mm, Thermo
Retention time: 4.4 min
Base peak: 321.1012
Precursor m/z: 321.1016
Precursor type: [M+H]+
m/z	relative intensity	assigned
204.0434	13	C12H4N4+
321.1016	999	C14H17N4O3S+
322.1037	169	C13[13]CH17N4O3S+
323.1013	60	C14H17N4O3[34]S+
