Mass spectrum: Triamcinolone; LC-ESI-QTOF; MS2; CE: 10 eV; R=35000; [M+H]+
Name: Triamcinolone
Name: (8S,9R,10S,11S,13S,14S,16R,17S)-9-fluoro-11,16,17-trihydroxy-17-(2-hydroxyacetyl)-10,13-dimethyl-6,7,8,11,12,14,15,16-octahydrocyclopenta[a]phenanthren-3-one
Formula: C21H27FO6
Exact mass: 394.1791668
SMILES: C[C@]12C[C@H](O)[C@@]3(F)[C@@H](CCC4=CC(=O)C=C[C@]34C)[C@@H]1C[C@@H](O)[C@]2(O)C(=O)CO
InChI: InChI=1S/C21H27FO6/c1-18-6-5-12(24)7-11(18)3-4-13-14-8-15(25)21(28,17(27)10-23)19(14,2)9-16(26)20(13,18)22/h5-7,13-16,23,25-26,28H,3-4,8-10H2,1-2H3/t13-,14-,15+,16-,18-,19-,20-,21-/m0/s1
Instrument: Bruker maXis Impact
Instrument type: LC-ESI-QTOF
Ms type: MS2
Ion mode: POSITIVE
Ionization: ESI
Fragmentation mode: CID
Collision energy: 10 eV
Resolution: 35000
Column name: Acclaim RSLC C18 2.2um, 2.1x100mm, Thermo
Retention time: 6.376 min
Base peak: 395.186
Precursor m/z: 395.1864
Precursor type: [M+H]+
m/z	relative intensity	assigned
147.0798	17	C10H11O+
173.0929	11	C12H13O+
175.0738	11	C11H11O2+
185.0953	19	C13H13O+
187.074	14	C12H11O2+
211.1105	14	C15H15O+
213.1277	17	C15H17O+
223.1115	37	C16H15O+
224.1171	12	C16H16O+
225.1258	93	C16H17O+
226.1304	30	C16H18O+
237.1279	37	C17H17O+
238.1294	11	C16[13]CH17O+
253.1229	11	C17H17O2+
253.1581	16	C18H21O+
255.1398	10	C14H20FO3+
261.1274	17	C19H17O+
263.1407	28	C19H19O+
275.1407	30	C20H19O+
279.1373	25	C19H19O2+
281.1524	21	C19H21O2+
293.1522	43	C20H21O2+
294.1553	14	C19[13]CH21O2+
295.1312	14	C19H19O3+
297.1496	14	C16H22FO4+
303.1373	31	C21H19O2+
309.148	28	C20H21O3+
311.163	61	C20H23O3+
312.1679	17	C19[13]CH23O3+
321.1475	115	C21H21O3+
322.1524	28	C20[13]CH21O3+
327.157	25	C20H23O4+
329.1747	18	C20H25O4+
339.1589	196	C21H23O4+
340.1631	53	C20[13]CH23O4+
341.1556	26	C21H22FO3+
345.1692	17	C20H25O5+
357.1692	481	C21H25O5+
358.1728	103	C20[13]CH25O5+
359.1727	28	C21H24FO4+
375.18	999	C21H27O6+
376.1825	282	C20[13]CH27O6+
377.1826	35	C19[13]C2H27O6+
395.187	867	C21H28FO6+
396.1887	243	C20[13]CH28FO6+
