Mass spectrum: Tiapride; LC-ESI-QTOF; MS2; CE: 40 eV; R=35000; [M+H]+
Name: Tiapride
Name: N-[2-(diethylamino)ethyl]-2-methoxy-5-methylsulfonylbenzamide
Formula: C15H24N2O4S
Exact mass: 328.1456782
SMILES: CCN(CC)CCNC(=O)c1cc(ccc1OC)S(=O)(=O)C
InChI: InChI=1S/C15H24N2O4S/c1-5-17(6-2)10-9-16-15(18)13-11-12(22(4,19)20)7-8-14(13)21-3/h7-8,11H,5-6,9-10H2,1-4H3,(H,16,18)
Instrument: Bruker maXis Impact
Instrument type: LC-ESI-QTOF
Ms type: MS2
Ion mode: POSITIVE
Ionization: ESI
Fragmentation mode: CID
Collision energy: 40 eV
Resolution: 35000
Column name: Acclaim RSLC C18 2.2um, 2.1x100mm, Thermo
Retention time: 3.196 min
Base peak: 329.1534
Precursor m/z: 329.153
Precursor type: [M+H]+
m/z	relative intensity	assigned
133.0511	58	C8H7NO+
134.0351	29	H10N2O4S+
134.0583	17	C5H10O4+
162.0535	15	C9H8NO2+
166.0248	5	C8H6O4+
177.0774	147	C10H11NO2+
178.0488	13	C9H8NO3+
178.0807	14	C9[13]CH11NO2+
183.0213	7	C7H7N2O2S+
185.0254	15	C14H3N+
209.0673	32	C10H11NO4+
212.0368	294	C15H4N2+
213.0209	999	C9H9O4S+
214.0246	61	C8[13]CH9O4S+
215.0175	24	C9H9O4[34]S+
226.0161	17	C15H2N2O+
230.0472	40	C15H6N2O+
241.0395	51	C10H11NO4S+
256.0634	780	C11H14NO4S+
257.0663	71	C10[13]CH14NO4S+
258.0601	21	C11H14NO4[34]S+
