Mass spectrum: Ecgonine-methyl-ester (EME); LC-ESI-QTOF; MS2; CE: 40 eV; R=35000; [M+H]+
Name: Ecgonine-methyl-ester (EME)
Name: AC1L9FBF
Name: methyl (3S,4R)-3-hydroxy-8-methyl-8-azabicyclo[3.2.1]octane-4-carboxylate
Formula: C10H17NO3
Exact mass: 199.1208434
SMILES: COC(=O)[C@@H]1C2CCC(C[C@@H]1O)N2C
InChI: InChI=1S/C10H17NO3/c1-11-6-3-4-7(11)9(8(12)5-6)10(13)14-2/h6-9,12H,3-5H2,1-2H3/t6?,7?,8-,9+/m0/s1
Instrument: Bruker maXis Impact
Instrument type: LC-ESI-QTOF
Ms type: MS2
Ion mode: POSITIVE
Ionization: ESI
Fragmentation mode: CID
Collision energy: 40 eV
Resolution: 35000
Column name: Acclaim RSLC C18 2.2um, 2.1x100mm, Thermo
Retention time: 1.4 min
Base peak: 200.1275
Precursor m/z: 200.1281
Precursor type: [M+H]+
m/z	relative intensity	assigned
117.0571	46	C8H7N+
118.0407	69	C8H6O+
119.0484	221	C8H7O+
120.0516	28	C3H8N2O3+
120.0806	44	C8H10N+
122.0584	96	C7H8NO+
122.0956	319	C8H12N+
124.1117	37	C8H14N+
125.0591	78	C7H9O2+
132.0787	50	C6H12O3+
134.0606	51	C8H8NO+
135.0665	113	C8H9NO+
138.0537	51	C7H8NO2+
140.1058	48	C8H14NO+
150.0903	231	C9H12NO+
152.0702	49	C8H10NO2+
154.0849	327	C8H12NO2+
168.1019	30	C9H14NO2+
182.1166	999	C10H16NO2+
183.1201	126	C5H17N3O4+
200.1267	78	C10H18NO3+
