Mass spectrum: Dihydrocodeine; LC-ESI-QTOF; MS2; CE: 50 eV; R=35000; [M+H]+
Name: Dihydrocodeine
Name: (4R,4aR,7S,7aR,12bS)-9-methoxy-3-methyl-2,4,4a,5,6,7,7a,13-octahydro-1H-4,12-methanobenzofuro[3,2-e]isoquinoline-7-ol
Formula: C18H23NO3
Exact mass: 301.1677936
SMILES: CN1CC[C@]23c4c5ccc(c4O[C@H]2[C@H](CC[C@H]3[C@H]1C5)O)OC
InChI: InChI=1S/C18H23NO3/c1-19-8-7-18-11-4-5-13(20)17(18)22-16-14(21-2)6-3-10(15(16)18)9-12(11)19/h3,6,11-13,17,20H,4-5,7-9H2,1-2H3/t11-,12+,13-,17-,18-/m0/s1
Instrument: Bruker maXis Impact
Instrument type: LC-ESI-QTOF
Ms type: MS2
Ion mode: POSITIVE
Ionization: ESI
Fragmentation mode: CID
Collision energy: 50 eV
Resolution: 35000
Column name: Acclaim RSLC C18 2.2um, 2.1x100mm, Thermo
Retention time: 3.456 min
Base peak: 302.1773
Precursor m/z: 302.1751
Precursor type: [M+H]+
m/z	relative intensity	assigned
115.0548	56	C9H7+
116.0592	6	C8[13]CH7+
117.0701	5	C9H9+
121.0651	7	C8H9O+
127.0545	10	C10H7+
128.0625	182	C10H8+
129.0694	63	C10H9+
130.0765	12	C10H10+
131.0497	20	C9H7O+
131.0849	5	C10H11+
137.0602	33	C8H9O2+
139.0549	5	C11H7+
141.0704	215	C11H9+
142.0753	35	C10[13]CH9+
143.0495	30	C10H7O+
143.0858	22	C11H11+
144.0573	38	C10H8O+
145.0648	32	C10H9O+
146.0365	7	C9H6O2+
146.0717	8	C10H10O+
147.0802	10	C10H11O+
152.0626	61	C12H8+
153.07	74	C12H9+
154.0765	20	C12H10+
155.0501	21	C11H7O+
155.0861	50	C12H11+
156.0575	75	C11H8O+
156.0906	7	C11[13]CH11+
157.0648	53	C11H9O+
157.1014	10	C12H13+
158.0731	221	C11H10O+
159.0796	54	C11H11O+
160.0519	5	C10H8O2+
160.0843	5	C10[13]CH11O+
161.0603	111	C10H9O2+
161.0961	17	C11H13O+
162.0647	14	C9[13]CH9O2+
163.0755	13	C10H11O2+
165.0705	206	C13H9+
166.0761	39	C12[13]CH9+
167.0861	96	C13H11+
168.0574	31	C12H8O+
168.0909	15	C12[13]CH11+
169.065	44	C12H9O+
169.1014	6	C13H13+
170.0722	17	C12H10O+
171.0814	630	C12H11O+
172.0521	24	C11H8O2+
172.0848	66	C11[13]CH11O+
173.0587	7	C11H9O2+
173.0967	136	C12H13O+
174.068	9	C11H10O2+
174.1	15	C11[13]CH13O+
175.0761	21	C11H11O2+
176.0633	8	C14H8+
177.0705	36	C14H9+
178.0771	20	C14H10+
179.0854	7	C14H11+
181.0651	40	C13H9O+
182.0726	32	C13H10O+
183.0452	22	C12H7O2+
183.0813	144	C13H11O+
184.0525	36	C12H8O2+
184.0875	42	C13H12O+
185.0603	35	C12H9O2+
185.0963	34	C13H13O+
186.0679	46	C12H10O2+
187.0759	51	C12H11O2+
188.0808	7	C11[13]CH11O2+
189.0918	41	C12H13O2+
190.0959	6	C11[13]CH13O2+
193.0664	21	C14H9O+
193.1017	5	C15H13+
194.0732	33	C14H10O+
195.0811	71	C14H11O+
196.0882	41	C14H12O+
197.0605	31	C13H9O2+
197.0959	19	C14H13O+
198.0682	42	C13H10O2+
199.0766	999	C13H11O2+
200.0799	111	C12[13]CH11O2+
201.0918	150	C13H13O2+
202.0951	22	C12[13]CH13O2+
209.097	7	C15H13O+
210.0687	12	C14H10O2+
211.076	23	C14H11O2+
212.0837	32	C14H12O2+
213.0915	20	C14H13O2+
214.0628	9	C13H10O3+
214.0972	6	C14H14O2+
215.1073	9	C14H15O2+
217.1228	7	C14H17O2+
221.0965	5	C16H13O+
225.0922	33	C15H13O2+
226.0945	8	C14[13]CH13O2+
227.1078	64	C15H15O2+
228.1106	12	C14[13]CH15O2+
243.1026	19	C15H15O3+
245.1189	13	C18H15N+
302.1759	20	C18H24NO3+
303.18	5	C17[13]CH24NO3+
