Mass spectrum: Fludrocortisone acetate; LC-ESI-QTOF; MS2; CE: 30 eV; R=35000; [M+H]+
Name: Fludrocortisone acetate
Name: [2-[(8S,9R,10S,11S,13S,14S,17R)-9-fluoro-11,17-dihydroxy-10,13-dimethyl-3-oxo-1,2,6,7,8,11,12,14,15,16-decahydrocyclopenta[a]phenanthren-17-yl]-2-oxoethyl] acetate
Formula: C23H31FO6
Exact mass: 422.2104669
SMILES: CC(=O)OCC(=O)[C@]1(CC[C@@H]2[C@@]1(C[C@@H]([C@]3([C@H]2CCC4=CC(=O)CC[C@@]43C)F)O)C)O
InChI: InChI=1S/C23H31FO6/c1-13(25)30-12-19(28)22(29)9-7-16-17-5-4-14-10-15(26)6-8-20(14,2)23(17,24)18(27)11-21(16,22)3/h10,16-18,27,29H,4-9,11-12H2,1-3H3/t16-,17-,18-,20-,21-,22-,23-/m0/s1
Instrument: Bruker maXis Impact
Instrument type: LC-ESI-QTOF
Ms type: MS2
Ion mode: POSITIVE
Ionization: ESI
Fragmentation mode: CID
Collision energy: 30 eV
Resolution: 35000
Column name: Acclaim RSLC C18 2.2um, 2.1x100mm, Thermo
Retention time: 8.591 min
Base peak: 347.2242
Precursor m/z: 423.2177
Precursor type: [M+H]+
m/z	relative intensity	assigned
119.0857	14	C9H11+
121.0657	71	C5H10FO2+
121.1003	14	C9H13+
123.0801	24	C8H11O+
131.0861	26	C10H11+
133.0656	11	C6H10FO2+
133.1006	14	C10H13+
135.0807	65	C9H11O+
137.097	22	C6H14FO2+
139.075	14	C8H11O2+
143.0868	81	C8H12FO+
145.0647	15	C10H9O+
145.1019	20	C8H14FO+
147.0808	55	C10H11O+
149.0985	22	C7H14FO2+
151.0758	18	C9H11O2+
155.0862	23	C9H12FO+
157.1015	40	C12H13+
159.0816	32	C8H12FO2+
159.1172	10	C12H15+
161.0968	72	C8H14FO2+
162.1012	10	C11H14O+
163.0756	24	C10H11O2+
163.1122	80	C11H15O+
165.0911	17	C10H13O2+
165.1089	17	C11H14F+
169.1017	35	C13H13+
171.0811	33	C9H12FO2+
171.1193	18	C10H16FO+
173.0968	52	C9H14FO2+
175.1125	18	C9H16FO2+
181.1034	173	C11H14FO+
182.1076	19	C14H14+
183.0813	26	C10H12FO2+
183.1186	37	C11H16FO+
185.097	50	C10H14FO2+
185.1331	22	C11H18FO+
187.1115	33	C13H15O+
189.092	102	C9H14FO3+
189.1294	12	C10H18FO2+
190.0962	17	C12H14O2+
191.1085	16	C9H16FO3+
195.1181	35	C12H16FO+
196.1221	11	C15H16+
197.0976	27	C11H14FO2+
197.1328	57	C15H17+
198.1378	10	C15H18+
199.1126	60	C11H16FO2+
199.1502	12	C12H20FO+
201.0914	20	C13H13O2+
201.1279	25	C14H17O+
203.1069	24	C13H15O2+
205.1221	11	C13H17O2+
207.1175	37	C13H16FO+
209.096	14	C15H13O+
209.1353	33	C13H18FO+
211.1146	40	C12H16FO2+
211.1497	37	C13H20FO+
212.1167	14	C15H16O+
213.1277	76	C15H17O+
214.1328	12	C15H18O+
215.1062	11	C14H15O2+
215.1422	15	C15H19O+
217.1247	32	C11H18FO3+
219.1167	27	C17H15+
221.0933	11	C16H13O+
221.1338	82	C14H18FO+
222.1369	22	C17H18+
223.1137	18	C13H16FO2+
223.1476	69	C17H19+
225.1276	27	C16H17O+
225.1638	15	C17H21+
227.1464	58	C13H20FO2+
229.1245	20	C12H18FO3+
232.1249	11	C18H16+
233.1345	13	C15H18FO+
235.1478	22	C18H19+
237.1295	54	C14H18FO2+
237.1642	35	C18H21+
238.132	17	C17H18O+
239.144	384	C14H20FO2+
240.147	56	C13[13]CH20FO2+
241.1246	53	C13H18FO3+
241.16	62	C14H22FO2+
242.1306	10	C16H18O2+
242.1611	18	C17H22O+
243.1403	30	C13H20FO3+
245.1349	17	C16H18FO+
245.1504	13	C16H21O2+
247.1498	67	C16H20FO+
248.1536	14	C19H20+
249.1311	25	C11H21O6+
249.1638	24	C19H21+
250.1326	17	C18H18O+
251.1461	15	C15H20FO2+
251.1792	11	C19H23+
252.1497	13	C18H20O+
253.1615	22	C15H22FO2+
255.1382	52	C17H19O2+
255.1777	17	C15H24FO2+
257.1548	119	C14H22FO3+
258.1612	30	C17H22O2+
259.145	15	C17H20FO+
259.1549	22	C17H20FO+
259.1655	17	C17H23O2+
261.128	12	C16H18FO2+
261.1655	47	C17H22FO+
263.1445	28	C16H20FO2+
264.1521	19	C16H21FO2+
265.1605	165	C16H22FO2+
266.1653	57	C19H22O+
267.1391	36	C15H20FO3+
267.1746	111	C19H23O+
268.1419	11	C18H20O2+
268.1803	41	C19H24O+
269.1565	28	C15H22FO3+
271.1479	25	C21H19+
273.1441	13	C17H21O3+
277.1598	22	C17H22FO2+
279.1377	17	C19H19O2+
279.1761	101	C17H24FO2+
280.1811	20	C20H24O+
281.1577	19	C16H22FO3+
283.1719	102	C16H24FO3+
284.1782	57	C16H25FO3+
285.1623	23	C22H21+
285.1855	72	C16H26FO3+
287.1804	18	C19H24FO+
289.1608	73	C18H22FO2+
290.1666	20	C21H22O+
294.1599	12	C20H22O2+
295.1722	58	C17H24FO3+
296.1755	13	C20H24O2+
297.1529	18	C16H22FO4+
297.1864	63	C17H26FO3+
298.1905	13	C20H26O2+
299.1659	35	C16H24FO4+
301.181	19	C16H26FO4+
307.1713	175	C18H24FO3+
308.1742	58	C21H24O2+
309.1751	11	C14H26FO6+
313.1808	54	C17H26FO4+
314.1913	13	C17H27FO4+
315.1768	11	C20H24FO2+
315.1922	15	C20H27O3+
325.1818	307	C18H26FO4+
326.1851	75	C17[13]CH26FO4+
327.1841	22	C17H27O6+
341.179	29	C18H26FO5+
342.1828	14	C21H26O4+
343.1928	274	C18H28FO5+
344.1975	74	C17[13]CH28FO5+
345.1919	49	C21H26FO3+
349.1861	11	C20H26FO4+
361.205	30	C18H30FO6+
363.2011	30	C21H28FO4+
364.1988	11	C21H29FO4+
367.1906	47	C23H27O4+
368.1936	12	C23H28O4+
385.2026	73	C20H30FO6+
386.2135	18	C20H31FO6+
403.2154	35	C23H31O6+
423.2212	999	C23H32FO6+
424.2244	262	C22[13]CH32FO6+
