Mass spectrum: 2-Isopropyl-6-methyl-pyrimidin-4-ol; LC-ESI-QTOF; MS2; CE: Ramp 20-30 eV; R=35000; [M+H]+
Name: 2-Isopropyl-6-methyl-pyrimidin-4-ol
Name: CID 17777
Name: 6-methyl-2-propan-2-yl-1H-pyrimidin-4-one
Formula: C8H12N2O
Exact mass: 152.0949630
SMILES: CC(C)C1=NC(C)=CC(=O)N1
InChI: InChI=1S/C8H12N2O/c1-5(2)8-9-6(3)4-7(11)10-8/h4-5H,1-3H3,(H,9,10,11)
Instrument: Bruker maXis Impact
Instrument type: LC-ESI-QTOF
Ms type: MS2
Ion mode: POSITIVE
Ionization: ESI
Fragmentation mode: CID
Collision energy: Ramp 20-30 eV
Resolution: 35000
Column name: Acclaim RSLC C18 2.2um, 2.1x100mm, Thermo
Retention time: 4.427 min
Base peak: 153.1022
Precursor m/z: 153.1022
Precursor type: [M+H]+
m/z	relative intensity	assigned
56.0492	5	C3H6N+
66.0334	10	C4H4N+
70.0646	341	C4H8N+
71.0678	17	C3[13]CH8N+
84.0443	999	C4H6NO+
85.0477	45	C3[13]CH6NO+
93.045	32	C5H5N2+
135.0913	14	C8H11N2+
137.0704	24	C7H9N2O+
138.078	26	C7H10N2O+
153.1018	874	C8H13N2O+
154.105	94	C7[13]CH13N2O+
