Mass spectrum: Acridone; LC-ESI-QTOF; MS2; CE: 50 eV; R=35000; [M+H]+
Name: Acridone
Name: 9(10H)-Acridinone
Name: 10H-acridin-9-one
Formula: C13H9NO
Exact mass: 195.0684139
SMILES: O=C1C2=CC=CC=C2NC2=CC=CC=C12
InChI: InChI=1S/C13H9NO/c15-13-9-5-1-3-7-11(9)14-12-8-4-2-6-10(12)13/h1-8H,(H,14,15)
Instrument: Bruker maXis Impact
Instrument type: LC-ESI-QTOF
Ms type: MS2
Ion mode: POSITIVE
Ionization: ESI
Fragmentation mode: CID
Collision energy: 50 eV
Resolution: 35000
Column name: Acclaim RSLC C18 2.2um, 2.1x100mm, Thermo
Retention time: 7.017 min
Base peak: 196.0749
Precursor m/z: 196.0757
Precursor type: [M+H]+
m/z	relative intensity	assigned
115.0536	15	C9H7+
128.0484	9	C9H6N+
139.0531	164	C11H7+
140.0487	54	C10H6N+
141.0537	9	C9[13]CH6N+
141.0665	8	C11H9+
165.055	5	C12H7N+
166.0639	485	C12H8N+
167.0716	999	C12H9N+
168.0751	129	C11[13]CH9N+
169.0626	5	C12H9O+
169.0785	5	C10[13]C2H9N+
177.0557	8	C13H7N+
195.0667	34	C13H9NO+
196.074	44	C13H10NO+
197.0772	7	C12[13]CH10NO+
