Mass spectrum: Pyrazophos; LC-ESI-QTOF; MS2; CE: 50 eV; R=35000; [M+H]+
Name: Pyrazophos
Name: ethyl 2-diethoxyphosphinothioyloxy-5-methylpyrazolo[1,5-a]pyrimidine-6-carboxylate
Formula: C14H20N3O5PS
Exact mass: 373.0861284
SMILES: CCOC(=O)C1=CN2N=C(OP(=S)(OCC)OCC)C=C2N=C1C
InChI: InChI=1S/C14H20N3O5PS/c1-5-19-14(18)11-9-17-12(15-10(11)4)8-13(16-17)22-23(24,20-6-2)21-7-3/h8-9H,5-7H2,1-4H3
Instrument: Bruker maXis Impact
Instrument type: LC-ESI-QTOF
Ms type: MS2
Ion mode: POSITIVE
Ionization: ESI
Fragmentation mode: CID
Collision energy: 50 eV
Resolution: 35000
Column name: Acclaim RSLC C18 2.2um, 2.1x100mm, Thermo
Retention time: 11.479 min
Base peak: 374.0928
Precursor m/z: 374.0934
Precursor type: [M+H]+
m/z	relative intensity	assigned
113.9534	5	H3O3PS+
114.9607	5	H4O3PS+
120.0548	9	CH13O4P+
121.039	7	C6H5N2O+
139.0491	28	C6H7N2O2+
148.0495	90	C6H13PS+
149.0337	11	C7H5N2O2+
149.0524	9	C5[13]CH13PS+
150.0647	7	C2H15O5P+
152.0559	5	H13N2O5P+
159.0413	22	C3H12O5P+
165.0105	10	C8H6O2P+
166.0597	93	C4H10N2O5+
167.063	6	C3[13]CH10N2O5+
169.9672	13	C2H5NO4PS+
176.0445	400	C8H6N3O2+
177.0283	27	C8H5N2O3+
177.0515	133	C10H9O3+
178.0576	23	C9[13]CH9O3+
181.0054	23	C8H6O3P+
183.0211	72	C8H8O3P+
184.0239	6	C7[13]CH8O3P+
192.021	7	C9H7NO2P+
194.0552	999	C8H8N3O3+
195.0579	64	C7[13]CH8N3O3+
196.0593	5	C6[13]C2H8N3O3+
199.0165	6	C13HN3+
205.0836	19	C10H11N3O2+
206.0898	8	C7H14N2O5+
208.0167	10	C9H7NO3P+
210.0323	24	C8H8N3O2S+
211.0527	10	C10H12O3P+
222.0863	52	C9H19O2PS+
223.0892	6	C8[13]CH19O2PS+
238.0634	5	C11H13NO3P+
253.9776	5	C12H2N2O3S+
256.0122	7	C8H7N3O5P+
271.9882	8	C12H4N2O4S+
