Mass spectrum: Triamterene; LC-ESI-QTOF; MS2; CE: 50 eV; R=35000; [M+H]+
Name: Triamterene
Name: 6-phenylpteridine-2,4,7-triamine
Formula: C12H11N7
Exact mass: 253.1075934
SMILES: C1=CC=C(C=C1)C2=NC3=C(N=C2N)N=C(N=C3N)N
InChI: InChI=1S/C12H11N7/c13-9-7(6-4-2-1-3-5-6)16-8-10(14)18-12(15)19-11(8)17-9/h1-5H,(H6,13,14,15,17,18,19)
Instrument: Bruker maXis Impact
Instrument type: LC-ESI-QTOF
Ms type: MS2
Ion mode: POSITIVE
Ionization: ESI
Fragmentation mode: CID
Collision energy: 50 eV
Resolution: 35000
Column name: Acclaim RSLC C18 2.2um, 2.1x100mm, Thermo
Retention time: 4.7 min
Base peak: 254.1145
Precursor m/z: 254.1149
Precursor type: [M+H]+
m/z	relative intensity	assigned
114.0336	10	C8H4N+
116.0491	197	C8H6N+
117.054	17	C7[13]CH6N+
128.036	13	C8H4N2+
129.0445	27	C8H5N2+
131.0598	69	C8H7N2+
141.044	999	C9H5N2+
142.0504	152	C8[13]CH5N2+
143.0597	324	C9H7N2+
144.063	18	C8[13]CH7N2+
153.0448	24	C10H5N2+
156.0552	9	C9H6N3+
158.0712	5	C9H8N3+
159.0547	8	C7H5N5+
166.0389	28	C10H4N3+
167.0481	9	C10H5N3+
168.055	731	C10H6N3+
169.0592	57	C9[13]CH6N3+
170.0683	5	C10H8N3+
171.0559	6	C8H5N5+
183.0662	106	C10H7N4+
184.0502	8	C8H4N6+
184.0715	11	C10H8N4+
185.0823	51	C10H9N4+
186.066	12	C8H6N6+
193.051	92	C11H5N4+
195.0663	381	C11H7N4+
196.0699	27	C10[13]CH7N4+
210.077	185	C11H8N5+
211.081	18	C10[13]CH8N5+
212.0931	40	C11H10N5+
213.0763	7	C9H7N7+
213.0976	8	C11H11N5+
220.0612	61	C12H6N5+
221.066	5	C12H7N5+
227.1032	7	C11H11N6+
237.0885	273	C12H9N6+
238.0725	7	C12H8N5O+
238.0914	30	C11[13]CH9N6+
254.1156	18	C12H12N7+
