Mass spectrum: Sulfadimethoxine; LC-ESI-QTOF; MS2; CE: 30 eV; R=35000; [M-H]-
Name: Sulfadimethoxine
Name: 4-amino-N-(2,6-dimethoxypyrimidin-4-yl)benzenesulfonamide
Formula: C12H14N4O4S
Exact mass: 310.0735759
SMILES: COC1=CC(NS(=O)(=O)C2=CC=C(N)C=C2)=NC(OC)=N1
InChI: InChI=1S/C12H14N4O4S/c1-19-11-7-10(14-12(15-11)20-2)16-21(17,18)9-5-3-8(13)4-6-9/h3-7H,13H2,1-2H3,(H,14,15,16)
Instrument: Bruker maXis Impact
Instrument type: LC-ESI-QTOF
Ms type: MS2
Ion mode: NEGATIVE
Ionization: ESI
Fragmentation mode: CID
Collision energy: 30 eV
Resolution: 35000
Column name: Acclaim RSLC C18 2.2um, 2.1x100mm, Thermo
Retention time: 4.762 min
Base peak: 309.0645
Precursor m/z: 309.0663
Precursor type: [M-H]-
m/z	relative intensity	assigned
122.0374	250	C7H6O2-
131.0629	603	C2H13NO3S-
144.0582	359	C10H8O-
154.0641	468	C8H10O3-
171.0262	350	C11H7S-
174.0659	449	C6H10N2O4-
188.0453	285	C9H6N3O2-
195.0234	334	C8H7N2O2S-
199.0606	285	C7H9N3O4-
215.0565	523	C10H7N4O2-
229.0733	587	C11H9N4O2-
230.0787	375	C11H10N4O2-
309.0627	999	C12H13N4O4S-
