Mass spectrum: Imidacloprid; LC-ESI-QTOF; MS2; CE: 50 eV; R=35000; [M+H]+
Name: Imidacloprid
Name: N-[1-[(6-chloropyridin-3-yl)methyl]-4,5-dihydroimidazol-2-yl]nitramide
Formula: C9H10ClN5O2
Exact mass: 255.0523022
SMILES: [O-][N+](=O)NC1=NCCN1CC1=CN=C(Cl)C=C1
InChI: InChI=1S/C9H10ClN5O2/c10-8-2-1-7(5-12-8)6-14-4-3-11-9(14)13-15(16)17/h1-2,5H,3-4,6H2,(H,11,13)
Instrument: Bruker maXis Impact
Instrument type: LC-ESI-QTOF
Ms type: MS2
Ion mode: POSITIVE
Ionization: ESI
Fragmentation mode: CID
Collision energy: 50 eV
Resolution: 35000
Column name: Acclaim RSLC C18 2.2um, 2.1x100mm, Thermo
Retention time: 4.6 min
Base peak: 163.122
Precursor m/z: 256.0596
Precursor type: [M+H]+
m/z	relative intensity	assigned
113.0032	10	C5H4ClN+
117.0439	26	C7H5N2+
117.0556	16	C8H7N+
118.0385	24	ClH9N3O2+
118.052	83	C7H6N2+
119.047	58	C6H5N3+
119.0596	140	C7H7N2+
120.0548	171	C6H6N3+
121.0616	30	C6H7N3+
121.0755	11	C7H9N2+
122.0699	34	C6H8N3+
125.9967	13	C8NO+
126.0096	100	C9H2O+
127.0173	61	C9H3O+
128.0077	26	ClH5N4O2+
128.0251	22	C9H4O+
129.0142	20	CHN6O2+
129.0448	20	C8H5N2+
130.0238	10	ClH7N4O2+
130.0389	28	C7H4N3+
131.0467	25	C7H5N3+
131.0591	197	C8H7N2+
132.055	94	C7H6N3+
132.0662	82	ClH11N5O+
133.062	252	C7H7N3+
133.0748	130	C8H9N2+
134.0704	142	C7H8N3+
135.0541	12	C5H5N5+
135.0775	62	C7H9N3+
137.9961	9	C9NO+
138.0088	21	C8N3+
139.0048	70	C9HNO+
140.0113	9	C7N4+
140.0257	23	C7H7ClN+
141.0023	19	ClH4N5O2+
141.02	165	C7HN4+
142.0252	14	CH7ClN4O2+
143.017	48	CHN7O2+
144.0195	21	C4H5ClN4+
144.0548	13	C8H6N3+
145.0498	95	CH10ClN4O2+
146.0703	395	C8H8N3+
147.0654	544	C7H7N4+
148.0495	14	C7H6N3O+
148.0718	59	C7H8N4+
148.0859	193	C8H10N3+
149.0832	12	C9H11NO+
149.0875	15	C3H11N5O2+
150.0651	15	C7H8N3O+
151.0049	23	C7H4ClN2+
151.0142	15	C3H6ClN3O2+
152.0114	19	C8N4+
153.0077	59	C9HN2O+
154.0151	20	C7N5+
155.0058	20	C3HN5O3+
155.0367	11	C7H8ClN2+
156.0558	23	C9H6N3+
157.0624	116	C9H7N3+
158.0701	271	C9H8N3+
159.0776	522	C9H9N3+
160.0808	61	C4H10N5O2+
163.0604	40	C7H7N4O+
165.0206	31	C8H6ClN2+
166.0154	155	C8N5+
167.021	12	C2H6ClN5O2+
167.0361	65	C9H3N4+
168.0126	44	C4H2N5O3+
168.0309	16	C8H2N5+
169.0151	9	C5H4ClN5+
169.0336	19	C2H8ClN5O2+
172.0736	30	C9H8N4+
173.0811	942	C9H9N4+
174.0883	451	C9H10N4+
175.0964	667	C9H11N4+
180.019	134	C7H5ClN4+
181.0267	129	C7H6ClN4+
182.0147	58	C9H7ClO2+
182.0291	25	C5H4N5O3+
182.0468	10	C9H4N5+
183.0232	34	C9H8ClO2+
191.0916	94	C9H11N4O+
192.0967	9	C7H10N7+
193.0259	21	C8H6ClN4+
194.0462	62	C9H9ClN3+
196.0438	15	C9H9ClN2O+
207.042	64	C9H8ClN4+
208.0499	167	C9H9ClN4+
209.0583	999	C9H10ClN4+
210.049	50	C6H6N6O3+
210.0638	123	C8[13]CH10ClN4+
211.055	304	C9H10[37]ClN4+
212.0593	19	C9H11ClN3O+
