Mass spectrum: Dimethachlor-OXA; LC-ESI-QTOF; MS2; CE: 40 eV; R=35000; [M+H]+
Name: Dimethachlor-OXA
Name: 2-[N-(2-methoxyethyl)-2,6-dimethylanilino]-2-oxoacetic acid
Formula: C13H17NO4
Exact mass: 251.1157580
SMILES: COCCN(C(=O)C(O)=O)c1c(C)cccc1C
InChI: InChI=1S/C13H17NO4/c1-9-5-4-6-10(2)11(9)14(7-8-18-3)12(15)13(16)17/h4-6H,7-8H2,1-3H3,(H,16,17)
Instrument: Bruker maXis Impact
Instrument type: LC-ESI-QTOF
Ms type: MS2
Ion mode: POSITIVE
Ionization: ESI
Fragmentation mode: CID
Collision energy: 40 eV
Resolution: 35000
Column name: Acclaim RSLC C18 2.2um, 2.1x100mm, Thermo
Retention time: 5.0 min
Base peak: 150.1115
Precursor m/z: 252.123
Precursor type: [M+H]+
m/z	relative intensity	assigned
117.0569	357	C8H7N+
118.0642	496	C8H8N+
119.0833	95	C9H11+
120.0793	94	C5H12O3+
130.0648	573	C9H8N+
131.0721	719	C9H9N+
132.0801	999	C9H10N+
133.0877	223	C9H11N+
146.0958	138	C10H12N+
148.111	459	C10H14N+
220.0976	119	C12H14NO3+
