Mass spectrum: Trimethoprim; LC-ESI-QTOF; MS2; CE: 30 eV; R=35000; [M+H]+
Name: Trimethoprim
Name: 5-[(3,4,5-trimethoxyphenyl)methyl]pyrimidine-2,4-diamine
Formula: C14H18N4O3
Exact mass: 290.1378904
SMILES: COC1=CC(CC2=C(N)N=C(N)N=C2)=CC(OC)=C1OC
InChI: InChI=1S/C14H18N4O3/c1-19-10-5-8(6-11(20-2)12(10)21-3)4-9-7-17-14(16)18-13(9)15/h5-7H,4H2,1-3H3,(H4,15,16,17,18)
Instrument: Bruker maXis Impact
Instrument type: LC-ESI-QTOF
Ms type: MS2
Ion mode: POSITIVE
Ionization: ESI
Fragmentation mode: CID
Collision energy: 30 eV
Resolution: 35000
Column name: Acclaim RSLC C18 2.2um, 2.1x100mm, Thermo
Retention time: 3.909 min
Base peak: 291.1451
Precursor m/z: 291.1452
Precursor type: [M+H]+
m/z	relative intensity	assigned
123.0658	267	C5H7N4+
124.0707	19	C4[13]CH7N4+
151.038	7	C6H5N3O2+
161.0807	5	C5H11N3O3+
174.0643	9	C9H8N3O+
181.0849	30	C8H11N3O2+
187.0968	26	C12H13NO+
188.0998	5	C11[13]CH13NO+
191.0915	5	C9H11N4O+
200.1043	9	C11H12N4+
201.0773	18	C10H9N4O+
201.1124	48	C11H13N4+
202.1199	39	C8H16N3O3+
215.0917	10	C11H11N4O+
216.0996	10	C11H12N4O+
217.1069	13	C11H13N4O+
229.1076	116	C12H13N4O+
230.1157	867	C12H14N4O+
231.0866	6	C11H11N4O2+
231.1186	105	C11[13]CH14N4O+
232.0949	25	C11H12N4O2+
232.1213	7	C10[13]C2H14N4O+
233.1024	96	C11H13N4O2+
234.1053	13	C10[13]CH13N4O2+
244.0713	6	C12H10N3O3+
245.1029	255	C12H13N4O2+
246.1089	84	C12H14N4O2+
247.1179	98	C12H15N4O2+
248.1213	13	C11[13]CH15N4O2+
257.1029	213	C13H13N4O2+
258.1095	98	C13H14N4O2+
259.0821	11	C12H11N4O3+
259.116	25	C13H15N4O2+
260.1249	9	C13H16N4O2+
261.098	999	C12H13N4O3+
262.1009	122	C11[13]CH13N4O3+
263.1029	10	C10[13]C2H13N4O3+
275.1136	615	C13H15N4O3+
276.1178	120	C12[13]CH15N4O3+
291.145	520	C14H19N4O3+
292.1478	82	C13[13]CH19N4O3+
293.1498	8	C12[13]C2H19N4O3+
