Mass spectrum: Clothianidin; LC-ESI-QTOF; MS2; CE: 20 eV; R=35000; [M-H]-
Name: Clothianidin
Name: n-[(2-Chloro-5-thiazolyl)methyl]-n`-methyl-n``-nitroguanidine
Name: 1-[(2-chloro-1,3-thiazol-5-yl)methyl]-2-methyl-3-nitroguanidine
Formula: C6H8ClN5O2S
Exact mass: 249.0087232
SMILES: CN\C(NCC1=CN=C(Cl)S1)=N/[N+]([O-])=O
InChI: InChI=1S/C6H8ClN5O2S/c1-8-6(11-12(13)14)10-3-4-2-9-5(7)15-4/h2H,3H2,1H3,(H2,8,10,11)
Instrument: Bruker maXis Impact
Instrument type: LC-ESI-QTOF
Ms type: MS2
Ion mode: NEGATIVE
Ionization: ESI
Fragmentation mode: CID
Collision energy: 20 eV
Resolution: 35000
Column name: Acclaim RSLC C18 2.2um, 2.1x100mm, Thermo
Retention time: 4.822 min
Base peak: 248.0013
Precursor m/z: 248.0014
Precursor type: [M-H]-
m/z	relative intensity	assigned
148.9912	57	C5HN4S-
150	609	C5H2N4S-
151.0053	96	C2H4ClN4O2-
165.0235	999	C6H5N4S-
166.0289	132	C3H7ClN4O2-
