Mass spectrum: Omethoate; LC-ESI-QTOF; MS2; CE: 10 eV; R=35000; [M+H]+
Name: Omethoate
Name: 2-dimethoxyphosphorylsulfanyl-N-methylacetamide
Formula: C5H12NO4PS
Exact mass: 213.0224655
SMILES: CNC(=O)CSP(=O)(OC)OC
InChI: InChI=1S/C5H12NO4PS/c1-6-5(7)4-12-11(8,9-2)10-3/h4H2,1-3H3,(H,6,7)
Instrument: Bruker maXis Impact
Instrument type: LC-ESI-QTOF
Ms type: MS2
Ion mode: POSITIVE
Ionization: ESI
Fragmentation mode: CID
Collision energy: 10 eV
Resolution: 35000
Column name: Acclaim RSLC C18 2.2um, 2.1x100mm, Thermo
Retention time: 3.222 min
Base peak: 214.0313
Precursor m/z: 214.0297
Precursor type: [M+H]+
m/z	relative intensity	assigned
124.9822	35	C2H6O2PS+
142.9929	95	C2H8O3PS+
154.9929	135	C3H8O3PS+
173.0036	9	C3H10O4PS+
182.0039	14	C4H9NO3PS+
182.9882	951	C4H8O4PS+
183.9911	33	C3[13]CH8O4PS+
184.9843	25	C4H8O4P[34]S+
196.02	185	C5H11NO3PS+
197.0228	10	C4[13]CH11NO3PS+
198.0158	5	C5H11NO3P[34]S+
214.0307	999	C5H13NO4PS+
215.0332	42	C4[13]CH13NO4PS+
216.0269	27	C5H13NO4P[34]S+
