Mass spectrum: Propyl benzoate; GC-APCI-QTOF; MS2; CE: 20 eV; R=35000; [M+H]+
Name: Propyl benzoate
Formula: C10H12O2
Exact mass: 164.0837
SMILES: CCCOC(=O)C1=CC=CC=C1
InChI: InChI=1S/C10H12O2/c1-2-8-12-10(11)9-6-4-3-5-7-9/h3-7H,2,8H2,1H3
Instrument: Bruker 450 GC coupled to maXis Impact
Instrument type: GC-APCI-QTOF
Ms type: MS2
Ion mode: POSITIVE
Ionization: APCI
Fragmentation mode: CID
Collision energy: 20 eV
Resolution: 35000
Column name: Rxi-5Sil MS column, 30m, 0.25mm i.d., 0.25Âµm film thickness, Restek
Retention time: 10.286 min
Base peak: 123.043
Precursor m/z: 165.091
Precursor type: [M+H]+
m/z	relative intensity	assigned
53.0387	7	C4H5+
79.0535	279	C6H7+
95.048	5	C6H7O+
105.033	43	C7H5O+
115.0535	12	C9H7+
117.0695	29	C9H9+
122.0358	24	C7H6O2+
123.0432	999	C7H7O2+
135.0441	29	C8H7O2+
145.0675	32	C10H9O+
146.0727	5	C10H10O+
