Mass spectrum: Boscalid; LC-ESI-QTOF; MS2; CE: 30 eV; R=35000; [M+H]+
Name: Boscalid
Name: 2-chloro-N-[2-(4-chlorophenyl)phenyl]pyridine-3-carboxamide
Formula: C18H12Cl2N2O
Exact mass: 342.0326684
SMILES: ClC1=CC=C(C=C1)C1=CC=CC=C1NC(=O)C1=CC=CN=C1Cl
InChI: InChI=1S/C18H12Cl2N2O/c19-13-9-7-12(8-10-13)14-4-1-2-6-16(14)22-18(23)15-5-3-11-21-17(15)20/h1-11H,(H,22,23)
Instrument: Bruker maXis Impact
Instrument type: LC-ESI-QTOF
Ms type: MS2
Ion mode: POSITIVE
Ionization: ESI
Fragmentation mode: CID
Collision energy: 30 eV
Resolution: 35000
Column name: Acclaim RSLC C18 2.2um, 2.1x100mm, Thermo
Retention time: 9.480 min
Base peak: 333.1814
Precursor m/z: 343.0399
Precursor type: [M+H]+
m/z	relative intensity	assigned
139.9885	265	C6H3ClNO+
140.9913	15	C5[13]CH3ClNO+
141.9854	53	C6H3[37]ClNO+
174.9912	9	C10H4ClO+
243.0914	7	C17H11N2+
254.0822	5	C18H10N2+
271.0862	180	C18H11N2O+
272.0932	211	C18H12N2O+
273.0966	34	C17[13]CH12N2O+
289.0523	32	C18H10ClN2+
290.0548	7	C17[13]CH10ClN2+
291.049	9	C18H10[37]ClN2+
307.0635	999	C18H12ClN2O+
308.0663	167	C17[13]CH12ClN2O+
309.0605	219	C18H12[37]ClN2O+
343.0398	26	C18H13Cl2N2O+
344.043	6	C17[13]CH13Cl2N2O+
345.0371	21	C18H13Cl[37]ClN2O+
