Mass spectrum: Climbazol; LC-ESI-QTOF; MS2; CE: 40 eV; R=35000; [M+H]+
Name: Climbazol
Name: Climbazole
Name: 1-(4-chlorophenoxy)-1-imidazol-1-yl-3,3-dimethylbutan-2-one
Formula: C15H17ClN2O2
Exact mass: 292.0978555
SMILES: CC(C)(C)C(=O)C(OC1=CC=C(Cl)C=C1)N1C=CN=C1
InChI: InChI=1S/C15H17ClN2O2/c1-15(2,3)13(19)14(18-9-8-17-10-18)20-12-6-4-11(16)5-7-12/h4-10,14H,1-3H3
Instrument: Bruker maXis Impact
Instrument type: LC-ESI-QTOF
Ms type: MS2
Ion mode: POSITIVE
Ionization: ESI
Fragmentation mode: CID
Collision energy: 40 eV
Resolution: 35000
Column name: Acclaim RSLC C18 2.2um, 2.1x100mm, Thermo
Retention time: 9.783 min
Base peak: 293.1057
Precursor m/z: 293.1051
Precursor type: [M+H]+
m/z	relative intensity	assigned
110.9993	34	C6H4Cl+
113.0154	21	C6H6Cl+
119.0485	19	C8H7O+
119.0854	6	C9H11+
120.0566	31	C8H8O+
121.0618	9	C8H9O+
125.0144	19	C7H6Cl+
126.9938	785	C6H4ClO+
127.0302	51	C7H8Cl+
127.9968	57	C5[13]CH4ClO+
128.0609	7	C4H13ClO2+
128.9907	237	C6H4[37]ClO+
129.0092	418	C6H6ClO+
129.9942	12	C4H3ClN2O+
130.0126	34	C5[13]CH6ClO+
131.0062	146	C6H6[37]ClO+
132.056	6	C9H8O+
133.064	12	C9H9O+
133.1007	10	C10H13+
137.0138	14	C9HN2+
137.1069	19	C8H13N2+
139.0052	17	C9HNO+
139.0317	5	C8H8Cl+
141.0093	999	C7H6ClO+
142.0126	78	C6[13]CH6ClO+
143.0063	244	C7H6[37]ClO+
144.0094	13	C5H5ClN2O+
144.0917	14	C5H17ClO2+
145.0636	6	C10H9O+
146.0715	25	C10H10O+
147.0792	70	C10H11O+
148.0836	8	C9[13]CH11O+
151.0865	5	C8H11N2O+
155.0245	424	C8H8ClO+
156.0281	36	C7[13]CH8ClO+
157.0217	115	C8H8[37]ClO+
161.0949	33	C11H13O+
162.1032	23	C11H14O+
170.0954	12	C12H12N+
175.0744	55	C11H11O2+
176.0762	5	C10[13]CH11O2+
179.0594	6	C12H7N2+
184.1118	5	C13H14N+
190.0973	26	C12H14O2+
197.072	69	C11H14ClO+
198.0753	12	C10[13]CH14ClO+
199.0682	19	C11H14[37]ClO+
