Mass spectrum: 2,2`-Methylenebis(6-tert-butyl-p-cresol); GC-APCI-QTOF; MS2; CE: 10 eV; R=35000; [M+H]+
Name: 2,2`-Methylenebis(6-tert-butyl-p-cresol)
Formula: C23H32O2
Exact mass: 340.2402
SMILES: CC1=CC(=C(C(=C1)C(C)(C)C)O)CC2=C(C(=CC(=C2)C)C(C)(C)C)O
InChI: InChI=1S/C23H32O2/c1-14-9-16(20(24)18(11-14)22(3,4)5)13-17-10-15(2)12-19(21(17)25)23(6,7)8/h9-12,24-25H,13H2,1-8H3
Instrument: Bruker 450 GC coupled to maXis Impact
Instrument type: GC-APCI-QTOF
Ms type: MS2
Ion mode: POSITIVE
Ionization: APCI
Fragmentation mode: CID
Collision energy: 10 eV
Resolution: 35000
Column name: Rxi-5Sil MS column, 30m, 0.25mm i.d., 0.25Âµm film thickness, Restek
Retention time: 24.050 min
Base peak: 283.2614
Precursor m/z: 341.2475
Precursor type: [M+H]+
m/z	relative intensity	assigned
154.1386	316	C10H18O+
210.1979	475	C14H26O+
265.2529	999	C18H33O+
340.2352	365	C23H32O2+
