Mass spectrum: Terbinafine; LC-ESI-QTOF; MS2; CE: 10 eV; R=35000; [M+H]+
Name: Terbinafine
Name: (E)-N,6,6-trimethyl-N-(naphthalen-1-ylmethyl)hept-2-en-4-yn-1-amine
Formula: C21H25N
Exact mass: 291.1986998
SMILES: CN(C\C=C\C#CC(C)(C)C)CC1=CC=CC2=CC=CC=C12
InChI: InChI=1S/C21H25N/c1-21(2,3)15-8-5-9-16-22(4)17-19-13-10-12-18-11-6-7-14-20(18)19/h5-7,9-14H,16-17H2,1-4H3/b9-5+
Instrument: Bruker maXis Impact
Instrument type: LC-ESI-QTOF
Ms type: MS2
Ion mode: POSITIVE
Ionization: ESI
Fragmentation mode: CID
Collision energy: 10 eV
Resolution: 35000
Column name: Acclaim RSLC C18 2.2um, 2.1x100mm, Thermo
Retention time: 9.799 min
Base peak: 292.207
Precursor m/z: 292.206
Precursor type: [M+H]+
m/z	relative intensity	assigned
141.0691	339	C11H9+
142.0725	33	C10[13]CH9+
150.1266	9	C10H16N+
170.0954	18	C12H12N+
205.1005	11	C16H13+
261.1631	6	C20H21+
292.2072	999	C21H26N+
294.2129	25	C19[13]C2H26N+
