Mass spectrum: Dieldrin; GC-APCI-QTOF; MS2; CE: 20 eV; R=35000; [M]+
Name: Dieldrin
Name: (1R,2S,3S,6R,7R,8S,9S,11R)-3,4,5,6,13,13-hexachloro-10-oxapentacyclo[6.3.1.13,6.02,7.09,11]tridec-4-ene
Formula: C12H8Cl6O
Exact mass: 377.8706
SMILES: ClC1=C(Cl)[C@]2(Cl)[C@@H]3[C@@H]4C[C@@H]([C@H]5O[C@@H]45)[C@@H]3[C@@]1(Cl)C2(Cl)Cl
InChI: InChI=1S/C12H8Cl6O/c13-8-9(14)11(16)5-3-1-2(6-7(3)19-6)4(5)10(8,15)12(11,17)18/h2-7H,1H2/t2-,3+,4+,5-,6-,7+,10+,11-
Instrument: Bruker 450 GC coupled to maXis Impact
Instrument type: GC-APCI-QTOF
Ms type: MS2
Ion mode: POSITIVE
Ionization: APCI
Fragmentation mode: CID
Collision energy: 20 eV
Resolution: 35000
Column name: Rxi-5Sil MS column, 30m, 0.25mm i.d., 0.25Âµm film thickness (Restek)
Retention time: 20.308 min
Base peak: 377.8694
Precursor m/z: 377.8701
Precursor type: [M]+
m/z	relative intensity	assigned
146.9738	796	C6H5Cl2+
148.9693	298	C3H8Cl3+
174.9677	413	C7H5Cl2O+
226.8949	676	C7H3Cl4+
242.9498	772	C11H6Cl3+
260.8567	712	C7H2Cl5+
262.855	445	C4H5Cl6+
270.9536	354	C12H6Cl3O+
274.8751	569	C8H4Cl5+
276.8711	581	C5H7Cl6+
276.9126	334	C11H5Cl4+
278.9296	481	C11H7Cl4+
288.916	517	C12H5Cl4+
289.9163	569	C12H6Cl4+
324.8912	999	C12H6Cl5+
342.9039	370	C12H8Cl5O+
