Mass spectrum: 4-Methylbenzylidene camphor; LC-ESI-QTOF; MS2; CE: 50 eV; R=35000; [M+H]+
Name: 4-Methylbenzylidene camphor
Name: 1,7,7-Trimethyl-3-(4-methylbenzylidene)bicyclo[2.2.1]heptan-2-one
Name: 1,7,7-trimethyl-3-[(4-methylphenyl)methylidene]bicyclo[2.2.1]heptan-2-one
Formula: C18H22O
Exact mass: 254.1670653
SMILES: CC1=CC=C(C=C2C3CCC(C)(C2=O)C3(C)C)C=C1
InChI: InChI=1S/C18H22O/c1-12-5-7-13(8-6-12)11-14-15-9-10-18(4,16(14)19)17(15,2)3/h5-8,11,15H,9-10H2,1-4H3
Instrument: Bruker maXis Impact
Instrument type: LC-ESI-QTOF
Ms type: MS2
Ion mode: POSITIVE
Ionization: ESI
Fragmentation mode: CID
Collision energy: 50 eV
Resolution: 35000
Column name: Acclaim RSLC C18 2.2um, 2.1x100mm, Thermo
Retention time: 12.651 min
Base peak: 255.1744
Precursor m/z: 255.1743
Precursor type: [M+H]+
m/z	relative intensity	assigned
115.0537	221	C9H7+
116.0596	48	C9H8+
117.0688	65	C9H9+
118.0739	8	C8[13]CH9+
119.0479	20	C8H7O+
119.085	88	C9H11+
120.0875	10	C8[13]CH11+
121.064	17	C8H9O+
122.0703	5	C8H10O+
123.0786	11	C8H11O+
126.0454	11	C10H6+
127.0534	54	C10H7+
128.061	628	C10H8+
129.0684	402	C10H9+
130.0757	135	C10H10+
131.0483	5	C9H7O+
131.0839	72	C10H11+
132.0573	8	C9H8O+
132.0883	8	C9[13]CH11+
133.0628	7	C9H9O+
135.079	19	C9H11O+
139.0536	10	C11H7+
140.0607	6	C11H8+
141.0687	970	C11H9+
142.076	562	C11H10+
143.0832	224	C11H11+
144.0567	5	C10H8O+
144.0899	50	C11H12+
145.0635	56	C10H9O+
145.0996	64	C11H13+
146.0669	9	C9[13]CH9O+
150.0442	5	C12H6+
151.0517	8	C12H7+
152.0607	211	C12H8+
153.0684	325	C12H9+
154.0761	242	C12H10+
155.0841	460	C12H11+
156.0915	318	C12H12+
157.0634	16	C11H9O+
157.0978	86	C12H13+
158.0707	17	C11H10O+
158.1016	10	C11[13]CH13+
159.0797	8	C11H11O+
159.118	7	C12H15+
163.0522	7	C13H7+
164.0604	14	C13H8+
165.0686	999	C13H9+
166.0746	262	C13H10+
167.0841	257	C13H11+
168.056	11	C12H8O+
168.0909	110	C13H12+
169.0633	47	C12H9O+
169.0994	174	C13H13+
170.0714	18	C12H10O+
170.1051	43	C13H14+
171.0791	54	C12H11O+
171.1151	37	C13H15+
172.0844	17	C12H12O+
172.1195	5	C12[13]CH15+
176.0612	18	C14H8+
177.0678	23	C14H9+
178.0764	418	C14H10+
179.0838	647	C14H11+
180.0908	276	C14H12+
181.0631	229	C13H9O+
181.0994	98	C14H13+
182.071	227	C13H10O+
182.1081	35	C14H14+
183.0775	80	C13H11O+
183.1155	50	C14H15+
184.0864	24	C13H12O+
184.1208	9	C13[13]CH15+
185.0945	48	C13H13O+
186.1008	9	C12[13]CH13O+
189.0676	13	C15H9+
190.0756	14	C15H10+
191.0849	97	C15H11+
192.092	255	C15H12+
193.0998	229	C15H13+
194.1054	74	C15H14+
195.0794	49	C14H11O+
195.1141	45	C15H15+
196.0868	166	C14H12O+
196.12	10	C14[13]CH15+
197.0947	203	C14H13O+
198.0989	44	C13[13]CH13O+
199.1081	14	C14H15O+
205.1009	19	C16H13+
206.1061	25	C16H14+
207.1156	117	C16H15+
208.1219	19	C15[13]CH15+
209.0956	8	C15H13O+
210.1028	11	C15H14O+
211.1109	96	C15H15O+
212.1175	42	C15H16O+
213.1219	8	C14[13]CH16O+
221.1326	6	C17H17+
222.138	7	C17H18+
225.1239	10	C16H17O+
