Mass spectrum: Primidone; LC-ESI-QTOF; MS2; CE: RAMP 18.7-28.0 eV; R=35000; [M+H]+
Name: Primidone
Name: 5-ethyl-5-phenyl-1,3-diazinane-4,6-dione
Formula: C12H14N2O2
Exact mass: 218.1055277
SMILES: CCC1(C(=NCN=C1O)O)c2ccccc2
InChI: InChI=1S/C12H14N2O2/c1-2-12(9-6-4-3-5-7-9)10(15)13-8-14-11(12)16/h3-7H,2,8H2,1H3,(H,13,15)(H,14,16)
Instrument: Bruker maXis Impact
Instrument type: LC-ESI-QTOF
Ms type: MS2
Ion mode: POSITIVE
Ionization: ESI
Fragmentation mode: CID
Collision energy: RAMP 18.7-28.0 eV
Resolution: 35000
Column name: Acclaim RSLC C18 2.2um, 2.1x100mm, Thermo
Retention time: 5.426 min
Base peak: 256.0154
Precursor m/z: 219.1128
Precursor type: [M+H]+
m/z	relative intensity	assigned
59.0481	32	C3H7O+
91.054	145	C7H7+
92.0565	19	C2H8N2O2+
106.0649	28	C7H8N+
115.0537	30	C9H7+
117.0695	138	C9H9+
119.0848	202	C9H11+
120.0887	24	C4H12N2O2+
131.0848	19	C10H11+
133.0523	16	C8H7NO+
134.0591	14	C8H8NO+
134.0957	95	C9H12N+
135.1013	12	C9H13N+
145.0636	67	C10H9O+
153.0887	13	C9H13O2+
155.0701	19	C11H9N+
162.0908	999	C10H12NO+
163.0929	79	C9[13]CH12NO+
174.0907	22	C11H12NO+
176.1057	13	C11H14NO+
219.1136	30	C12H15N2O2+
