Mass spectrum: Dibutyl sebacate; GC-APCI-QTOF; MS2; CE: 10 eV; R=35000; [M]+
Name: Dibutyl sebacate
Formula: C18H34O4
Exact mass: 314.2457
SMILES: CCCCOC(=O)CCCCCCCCC(=O)OCCCC
InChI: InChI=1S/C18H34O4/c1-3-5-15-21-17(19)13-11-9-7-8-10-12-14-18(20)22-16-6-4-2/h3-16H2,1-2H3
Instrument: Bruker 450 GC coupled to maXis Impact
Instrument type: GC-APCI-QTOF
Ms type: MS2
Ion mode: POSITIVE
Ionization: APCI
Fragmentation mode: CID
Collision energy: 10 eV
Resolution: 35000
Column name: Rxi-5Sil MS column, 30m, 0.25mm i.d., 0.25Âµm film thickness, Restek
Retention time: 17.736 min
Base peak: 285.2772
Precursor m/z: 314.2452
Precursor type: [M]+
m/z	relative intensity	assigned
57.0709	23	C4H9+
69.0704	6	C5H9+
71.0863	26	C5H11+
81.0697	10	C6H9+
83.0852	23	C6H11+
85.1011	9	C6H13+
95.0847	13	C7H11+
97.1005	8	C7H13+
109.1009	11	C8H13+
123.1168	33	C9H15+
125.1327	6	C9H17+
137.1335	26	C10H17+
139.1485	8	C10H19+
151.1503	18	C11H19+
165.1645	13	C12H21+
219.2107	16	C16H27+
221.2266	49	C16H29+
237.221	23	C16H29O+
239.2358	999	C16H31O+
240.2397	146	C16H32O+
249.1832	6	C16H25O2+
267.1949	22	C16H27O3+
295.228	7	C18H31O3+
313.2377	6	C18H33O4+
