Mass spectrum: Bis(1H,1H,2H,2H-perfluorodecyl)phosphate (8:2diPAP); LC-ESI-QTOF; MS2; CE: 26.5-39.7 eV; R=35000; [M-H]-
Name: Bis(1H,1H,2H,2H-perfluorodecyl)phosphate (8:2diPAP)
Formula: C20H9F34O4P
Exact mass: 989.9696
SMILES: C(COP(=O)(O)OCCC(C(C(C(C(C(C(C(F)(F)F)(F)F)(F)F)(F)F)(F)F)(F)F)(F)F)(F)F)C(C(C(C(C(C(C(C(F)(F)F)(F)F)(F)F)(F)F)(F)F)(F)F)(F)F)(F)F
InChI: InChI=1S/C20H9F34O4P/c21-5(22,7(25,26)9(29,30)11(33,34)13(37,38)15(41,42)17(45,46)19(49,50)51)1-3-57-59(55,56)58-4-2-6(23,24)8(27,28)10(31,32)12(35,36)14(39,40)16(43,44)18(47,48)20(52,53)54/h1-4H2,(H,55,56)
Instrument: Bruker maXis Impact
Instrument type: LC-ESI-QTOF
Ms type: MS2
Ionization: ESI
Fragmentation mode: CID
Collision energy: 26.5-39.7 eV
Resolution: 35000
Column name: Acclaim RSLC C18 2.2um, 2.1x100mm, Thermo
Retention time: 13.695 min
Base peak: 59.0129
Precursor m/z: 988.9623
Precursor type: [M-H]-
m/z	relative intensity	assigned
78.9576	297	O3P-
96.9679	999	H2O4P-
522.9588	42	C13H3F15O3P-
542.9614	82	C14H2F18P-
