Mass spectrum: Benzoylecgonine; LC-ESI-QTOF; MS2; CE: 40 eV; R=35000; [M+H]+
Name: Benzoylecgonine
Name: (3S,4R)-3-benzoyloxy-8-methyl-8-azabicyclo[3.2.1]octane-4-carboxylic acid
Formula: C16H19NO4
Exact mass: 289.1314081
SMILES: CN1C2CCC1[C@H]([C@H](C2)OC(=O)C1=CC=CC=C1)C(O)=O
InChI: InChI=1S/C16H19NO4/c1-17-11-7-8-12(17)14(15(18)19)13(9-11)21-16(20)10-5-3-2-4-6-10/h2-6,11-14H,7-9H2,1H3,(H,18,19)/t11?,12?,13-,14+/m0/s1
Instrument: Bruker maXis Impact
Instrument type: LC-ESI-QTOF
Ms type: MS2
Ion mode: POSITIVE
Ionization: ESI
Fragmentation mode: CID
Collision energy: 40 eV
Resolution: 35000
Column name: Acclaim RSLC C18 2.2um, 2.1x100mm, Thermo
Retention time: 4.5 min
Base peak: 290.139
Precursor m/z: 290.1387
Precursor type: [M+H]+
m/z	relative intensity	assigned
117.0564	15	C8H7N+
118.0629	6	C5H10O3+
119.0483	125	C8H7O+
120.0516	12	C3H8N2O3+
121.0641	7	C8H9O+
122.0594	6	C7H8NO+
122.0956	122	C8H12N+
123.0986	10	C3H13N3O2+
124.1114	54	C8H14N+
125.1145	6	C5H17O3+
130.0645	5	C9H8N+
132.0795	44	C9H10N+
134.0583	6	C5H10O4+
135.0667	68	C8H9NO+
136.0706	8	C7[13]CH9NO+
137.0587	17	C8H9O2+
140.0696	46	C7H10NO2+
140.1059	11	C8H14NO+
141.0733	5	C2H11N3O4+
150.0902	231	C9H12NO+
151.094	20	C8[13]CH12NO+
168.1011	999	C9H14NO2+
169.1042	86	C13H13+
170.1056	5	C12[13]CH13+
272.1275	13	C16H18NO3+
290.1393	5	C16H20NO4+
