Mass spectrum: Bisphenol A (2,3-dihydroxypropyl) glycidyl ether; LC-ESI-QTOF; MS2; CE: 50 eV; R=35000; [M+NH4]+
Name: Bisphenol A (2,3-dihydroxypropyl) glycidyl ether
Name: 3-(4-(1-(4-(2,3-Epoxypropoxy)phenyl)-1-methylethyl)phenoxy)propane-1,2-diol
Name: 3-[4-[2-[4-(oxiran-2-ylmethoxy)phenyl]propan-2-yl]phenoxy]propane-1,2-diol
Formula: C21H26O5
Exact mass: 358.178
SMILES: CC(C)(C1=CC=C(C=C1)OCC2CO2)C3=CC=C(C=C3)OCC(CO)O
InChI: InChI=1S/C21H26O5/c1-21(2,15-3-7-18(8-4-15)24-12-17(23)11-22)16-5-9-19(10-6-16)25-13-20-14-26-20/h3-10,17,20,22-23H,11-14H2,1-2H3
Instrument: Bruker maXis Impact
Instrument type: LC-ESI-QTOF
Ms type: MS2
Ion mode: POSITIVE
Ionization: ESI
Fragmentation mode: CID
Collision energy: 50 eV
Resolution: 35000
Column name: Acclaim RSLC C18 2.2um, 2.1x100mm, Thermo
Retention time: 9.494 min
Base peak: 376.2123
Precursor m/z: 376.2129
Precursor type: [M+NH4]+
m/z	relative intensity	assigned
107.0492	6	C7H7O+
115.0538	16	C9H7+
116.0568	7	CH10NO5+
117.0695	15	C9H9+
119.0469	6	C8H7O+
119.0844	9	C9H11+
128.0612	8	C10H8+
129.0713	8	C10H9+
131.0487	5	C9H7O+
133.0631	33	C9H9O+
133.0993	7	C10H13+
135.0796	999	C9H11O+
137.0862	10	C8H11NO+
145.0636	19	C10H9O+
147.0798	15	C10H11O+
155.0831	6	C12H11+
161.0953	107	C11H13O+
173.0969	18	C12H13O+
191.1059	207	C12H15O2+
196.0885	11	C14H12O+
203.0743	6	C15H9N+
204.0774	7	C12H12O3+
209.1173	9	C12H17O3+
228.0759	12	C14H12O3+
232.0762	6	C16H10NO+
