Mass spectrum: Tilmicosin; LC-ESI-QTOF; MS2; CE: Ramp 33.3-49.9 eV; R=35000; [M+H]+
Name: Tilmicosin
Name: (4R,5S,6S,7R,9R,11E,13E,15R,16R)-6-[(2R,3R,4S,5S,6R)-4-(dimethylamino)-3,5-dihydroxy-6-methyloxan-2-yl]oxy-7-[2-[(3S,5R)-3,5-dimethylpiperidin-1-yl]ethyl]-16-ethyl-4-hydroxy-15-[[(2R,3R,4R,5R,6R)-5-hydroxy-3,4-dimethoxy-6-methyloxan-2-yl]oxymethyl]-5,9,13-trimethyl-1-oxacyclohexadeca-11,13-diene-2,10-dione
Formula: C46H80N2O13
Exact mass: 868.5660
SMILES: CC[C@@H]1[C@H](/C=C(/C=C/C(=O)[C@@H](C[C@@H]([C@@H]([C@H]([C@@H](CC(=O)O1)O)C)O[C@H]2[C@@H]([C@H]([C@@H]([C@H](O2)C)O)N(C)C)O)CCN3C[C@@H](C[C@@H](C3)C)C)C)\C)CO[C@H]4[C@@H]([C@@H]([C@@H]([C@H](O4)C)O)OC)OC
InChI: InChI=1S/C46H80N2O13/c1-13-36-33(24-57-46-44(56-12)43(55-11)40(53)31(8)59-46)19-25(2)14-15-34(49)28(5)20-32(16-17-48-22-26(3)18-27(4)23-48)42(29(6)35(50)21-37(51)60-36)61-45-41(54)38(47(9)10)39(52)30(7)58-45/h14-15,19,26-33,35-36,38-46,50,52-54H,13,16-18,20-24H2,1-12H3/b15-14+,25-19+/t26-,27+,28-,29+,30-,31-,32+,33-,35-,36-,38+,39-,40-,41-,42-,43-,44-,45+,46-/m1/s1
Instrument: Bruker maXis Impact
Instrument type: LC-ESI-QTOF
Ms type: MS2
Ion mode: POSITIVE
Ionization: ESI
Fragmentation mode: CID
Collision energy: Ramp 33.3-49.9 eV
Resolution: 35000
Column name: Acclaim RSLC C18 2.2um, 2.1x100mm, Thermo
Retention time: 6.8 min
Base peak: 260.1658
Precursor m/z: 869.5733
Precursor type: [M+H]+
m/z	relative intensity	assigned
58.0648	8	C3H8N+
84.0804	6	C5H10N+
88.0752	16	C4H10NO+
98.0967	10	C6H12N+
100.0774	6	C5H10NO+
114.0928	6	C6H12NO+
115.0982	7	C6H13NO+
116.0708	18	C5H10NO2+
126.0911	6	C7H12NO+
126.1278	15	C8H16N+
132.1021	116	C6H14NO2+
133.105	6	C10H13+
156.1017	56	C8H14NO2+
174.113	684	C8H16NO3+
175.1159	63	C12H15O+
176.1186	6	C12H16O+
504.3709	5	C33H48N2O2+
522.3857	5	C38H50O+
678.4622	14	C41H62N2O6+
679.4653	10	C38H65NO9+
695.4879	5	C43H67O7+
696.4735	188	C46H64O5+
697.4782	71	C41H65N2O7+
698.4784	23	C45H64NO5+
738.4955	7	C44H68NO8+
869.5834	999	C46H81N2O13+
870.5847	457	C45H80N3O13+
871.5915	122	C45H81N3O13+
872.5931	26	C44H80N4O13+
