Mass spectrum: Mefenamic acid; LC-ESI-QTOF; MS2; CE: 10 eV; R=35000; [M-H]-
Name: Mefenamic acid
Name: 2-(2,3-dimethylanilino)benzoic acid
Formula: C15H15NO2
Exact mass: 241.1102787
SMILES: CC1=C(C)C(NC2=CC=CC=C2C(O)=O)=CC=C1
InChI: InChI=1S/C15H15NO2/c1-10-6-5-9-13(11(10)2)16-14-8-4-3-7-12(14)15(17)18/h3-9,16H,1-2H3,(H,17,18)
Instrument: Bruker maXis Impact
Instrument type: LC-ESI-QTOF
Ms type: MS2
Ion mode: NEGATIVE
Ionization: ESI
Fragmentation mode: CID
Collision energy: 10 eV
Resolution: 35000
Column name: Acclaim RSLC C18 2.2um, 2.1x100mm, Thermo
Retention time: 9.294 min
Base peak: 240.103
Precursor m/z: 240.103
Precursor type: [M-H]-
m/z	relative intensity	assigned
180.081	7	C13H10N-
192.0801	6	C14H10N-
194.0948	5	C14H12N-
196.1131	999	C14H14N-
197.1154	153	C13[13]CH14N-
198.1181	11	C12[13]C2H14N-
240.1023	728	C15H14NO2-
241.1057	166	C14[13]CH14NO2-
242.1093	9	C13[13]C2H14NO2-
