Mass spectrum: Carbamazepine; LC-ESI-QTOF; MS2; CE: 40 eV; R=35000; [M+H]+
Name: Carbamazepine
Name: benzo[b][1]benzazepine-11-carboxamide
Formula: C15H12N2O
Exact mass: 236.0949630
SMILES: c1ccc2c(c1)C=Cc3ccccc3N2C(=O)N
InChI: InChI=1S/C15H12N2O/c16-15(18)17-13-7-3-1-5-11(13)9-10-12-6-2-4-8-14(12)17/h1-10H,(H2,16,18)
Instrument: Bruker maXis Impact
Instrument type: LC-ESI-QTOF
Ms type: MS2
Ion mode: POSITIVE
Ionization: ESI
Fragmentation mode: CID
Collision energy: 40 eV
Resolution: 35000
Column name: Acclaim RSLC C18 2.2um, 2.1x100mm, Thermo
Retention time: 7.3 min
Base peak: 237.1019
Precursor m/z: 237.1022
Precursor type: [M+H]+
m/z	relative intensity	assigned
117.057	6	C8H7N+
151.0536	5	C12H7+
165.0694	202	C13H9+
166.0737	28	C12[13]CH9+
167.0728	51	C12H9N+
167.0833	27	C13H11+
168.0785	7	C11[13]CH9N+
176.0621	12	C14H8+
177.0685	20	C14H9+
178.0648	32	C13H8N+
179.0726	386	C13H9N+
180.0759	38	C12[13]CH9N+
190.065	32	C14H8N+
191.0727	147	C14H9N+
192.0804	490	C14H10N+
193.0882	978	C14H11N+
194.0958	999	C14H12N+
195.103	105	
196.1022	6	C12[13]C2H12N+
