Mass spectrum: Irbesartan; LC-ESI-QTOF; MS2; CE: 40 eV; R=35000; [M+H]+
Name: Irbesartan
Name: 2-butyl-3-[[4-[2-(2H-tetrazol-5-yl)phenyl]phenyl]methyl]-1,3-diazaspiro[4.4]non-1-en-4-one
Formula: C25H28N6O
Exact mass: 428.2324595
SMILES: CCCCC1=NC2(CCCC2)C(=O)N1CC1=CC=C(C=C1)C1=CC=CC=C1C1=NNN=N1
InChI: InChI=1S/C25H28N6O/c1-2-3-10-22-26-25(15-6-7-16-25)24(32)31(22)17-18-11-13-19(14-12-18)20-8-4-5-9-21(20)23-27-29-30-28-23/h4-5,8-9,11-14H,2-3,6-7,10,15-17H2,1H3,(H,27,28,29,30)
Instrument: Bruker maXis Impact
Instrument type: LC-ESI-QTOF
Ms type: MS2
Ion mode: POSITIVE
Ionization: ESI
Fragmentation mode: CID
Collision energy: 40 eV
Resolution: 35000
Column name: Acclaim RSLC C18 2.2um, 2.1x100mm, Thermo
Retention time: 9.1 min
Base peak: 429.2394
Precursor m/z: 429.2397
Precursor type: [M+H]+
m/z	relative intensity	assigned
153.0689	5	C12H9+
180.0798	79	C13H10N+
181.0828	10	C12[13]CH10N+
192.0793	39	C14H10N+
193.0825	5	C13[13]CH10N+
195.1486	74	C11H19N2O+
196.1521	8	C10[13]CH19N2O+
207.0912	999	C14H11N2+
208.0944	114	C13[13]CH11N2+
