Mass spectrum: Irgarol-descyclopropyl; LC-ESI-QTOF; MS2; CE: 20 eV; R=35000; [M+H]+
Name: Irgarol-descyclopropyl
Name: Deethylterbutryne
Name: 2-N-tert-butyl-6-methylsulfanyl-1,3,5-triazine-2,4-diamine
Formula: C8H15N5S
Exact mass: 213.1048165
SMILES: CC(C)(C)NC1=NC(=NC(=N1)N)SC
InChI: InChI=1S/C8H15N5S/c1-8(2,3)13-6-10-5(9)11-7(12-6)14-4/h1-4H3,(H3,9,10,11,12,13)
Instrument: Bruker maXis Impact
Instrument type: LC-ESI-QTOF
Ms type: MS2
Ion mode: POSITIVE
Ionization: ESI
Fragmentation mode: CID
Collision energy: 20 eV
Resolution: 35000
Column name: Acclaim RSLC C18 2.2um, 2.1x100mm, Thermo
Retention time: 8.2 min
Base peak: 214.1118
Precursor m/z: 214.1121
Precursor type: [M+H]+
m/z	relative intensity	assigned
158.0492	999	C4H8N5S+
159.0508	37	C3[13]CH8N5S+
160.0446	32	C4H8N5[34]S+
214.1124	110	C8H16N5S+
215.1146	12	C7[13]CH16N5S+
216.1081	5	C8H16N5[34]S+
