Mass spectrum: Metolachlor-ESA; LC-ESI-QTOF; MS2; CE: Ramp 22.2-33.3 eV; R=35000; [M+H]+
Name: Metolachlor-ESA
Name: Metolachlor esa
Name: 2-[2-ethyl-N-(1-methoxypropan-2-yl)-6-methylanilino]-2-oxoethanesulfonic acid
Formula: C15H23NO5S
Exact mass: 329.1296938
SMILES: CCC1=CC=CC(C)=C1N(C(C)COC)C(=O)CS(O)(=O)=O
InChI: InChI=1S/C15H23NO5S/c1-5-13-8-6-7-11(2)15(13)16(12(3)9-21-4)14(17)10-22(18,19)20/h6-8,12H,5,9-10H2,1-4H3,(H,18,19,20)
Instrument: Bruker maXis Impact
Instrument type: LC-ESI-QTOF
Ms type: MS2
Ion mode: POSITIVE
Ionization: ESI
Fragmentation mode: CID
Collision energy: Ramp 22.2-33.3 eV
Resolution: 35000
Column name: Acclaim RSLC C18 2.2um, 2.1x100mm, Thermo
Retention time: 7.596 min
Base peak: 102.1288
Precursor m/z: 330.137
Precursor type: [M+H]+
m/z	relative intensity	assigned
73.0635	12	C4H9O+
132.0795	10	C9H10N+
134.0956	14	C9H12N+
136.1128	17	C3H20O3S+
143.0862	11	C11H11+
146.0955	23	C10H12N+
149.0589	22	C9H9O2+
158.0962	17	C11H12N+
158.1084	14	C12H14+
159.1044	17	C11H13N+
160.1119	175	C11H14N+
161.1153	25	C10[13]CH14N+
162.1273	13	C11H16N+
174.1271	106	C12H16N+
175.1342	69	C9H19O3+
176.1431	145	C12H18N+
177.1459	17	C11[13]CH18N+
188.1049	18	C9H16O4+
202.1223	382	C10H18O4+
203.125	51	C9[13]CH18O4+
204.1282	11	C6H22NO4S+
217.1452	17	C14H19NO+
234.1467	15	C11H22O5+
258.0794	19	C11H16NO4S+
271.1308	14	C14H23O3S+
298.1105	999	C14H20NO4S+
299.1137	194	C13[13]CH20NO4S+
300.1099	59	C14H20NO4[34]S+
