Mass spectrum: Dichlofluanid; LC-ESI-QTOF; MS2; CE: 40 eV; R=35000; [M+H]+
Name: Dichlofluanid
Name: N-[dichloro(fluoro)methyl]sulfanyl-N-(dimethylsulfamoyl)aniline
Formula: C9H11Cl2FN2O2S2
Exact mass: 331.9623032
SMILES: CN(C)S(=O)(=O)N(SC(F)(Cl)Cl)C1=CC=CC=C1
InChI: InChI=1S/C9H11Cl2FN2O2S2/c1-13(2)18(15,16)14(17-9(10,11)12)8-6-4-3-5-7-8/h3-7H,1-2H3
Instrument: Bruker maXis Impact
Instrument type: LC-ESI-QTOF
Ms type: MS2
Ion mode: POSITIVE
Ionization: ESI
Fragmentation mode: CID
Collision energy: 40 eV
Resolution: 35000
Column name: Acclaim RSLC C18 2.2um, 2.1x100mm, Thermo
Retention time: 10.0 min
Base peak: 332.9693
Precursor m/z: 332.9696
Precursor type: [M+H]+
m/z	relative intensity	assigned
120.0795	5	C8H10N+
122.0051	41	C6H4NS+
123.0131	999	C6H5NS+
153.002	9	CH9ClFNO2S+
223.9502	14	C7H5Cl2FNS+
225.9439	6	C7H8Cl2S2+
