Mass spectrum: Megestrol-17-acetate; LC-ESI-QTOF; MS2; CE: 50 eV; R=35000; [M+H]+
Name: Megestrol-17-acetate
Name: Megestrol acetate
Name: [(8R,9S,10R,13S,14S,17R)-17-acetyl-6,10,13-trimethyl-3-oxo-2,8,9,11,12,14,15,16-octahydro-1H-cyclopenta[a]phenanthren-17-yl] acetate
Formula: C24H32O4
Exact mass: 384.2300595
SMILES: CC(=O)O[C@@]1(CC[C@H]2[C@@H]3C=C(C)C4=CC(=O)CC[C@]4(C)[C@H]3CC[C@]12C)C(C)=O
InChI: InChI=1S/C24H32O4/c1-14-12-18-19(22(4)9-6-17(27)13-21(14)22)7-10-23(5)20(18)8-11-24(23,15(2)25)28-16(3)26/h12-13,18-20H,6-11H2,1-5H3/t18-,19+,20+,22-,23+,24+/m1/s1
Instrument: Bruker maXis Impact
Instrument type: LC-ESI-QTOF
Ms type: MS2
Ion mode: POSITIVE
Ionization: ESI
Fragmentation mode: CID
Collision energy: 50 eV
Resolution: 35000
Column name: Acclaim RSLC C18 2.2um, 2.1x100mm, Thermo
Retention time: 10.842 min
Base peak: 385.2378
Precursor m/z: 385.2373
Precursor type: [M+H]+
m/z	relative intensity	assigned
115.0543	14	C9H7+
117.069	13	C9H9+
119.0848	34	C9H11+
121.0639	14	C8H9O+
121.1003	9	C9H13+
123.08	7	C8H11O+
128.0612	29	C10H8+
129.0687	40	C10H9+
130.076	18	C10H10+
131.0847	55	C10H11+
132.0895	7	C9[13]CH11+
133.0641	11	C9H9O+
133.1003	90	C10H13+
134.1041	11	C9[13]CH13+
135.0792	13	C9H11O+
135.1164	9	C10H15+
137.0955	11	C9H13O+
141.0687	37	C11H9+
142.0764	59	C11H10+
143.0843	67	C11H11+
144.0909	16	C11H12+
145.0637	19	C10H9O+
145.1002	99	C11H13+
146.0714	7	C10H10O+
146.1045	15	C10[13]CH13+
147.0794	16	C10H11O+
147.1157	38	C11H15+
149.095	12	C10H13O+
152.0615	5	C12H8+
153.0685	18	C12H9+
154.0763	15	C12H10+
155.0845	71	C12H11+
156.0914	37	C12H12+
157.0635	7	C11H9O+
157.0999	97	C12H13+
158.0712	13	C11H10O+
158.1053	15	C11[13]CH13+
159.0791	23	C11H11O+
159.1155	50	C12H15+
160.0868	30	C11H12O+
160.1208	10	C11[13]CH15+
161.0947	53	C11H13O+
161.1311	6	C12H17+
163.1101	8	C11H15O+
165.0684	30	C13H9+
166.0762	14	C13H10+
167.0841	66	C13H11+
168.0914	32	C13H12+
169.1001	140	C13H13+
170.1056	32	C12[13]CH13+
171.0793	29	C12H11O+
171.1157	70	C13H15+
172.0871	26	C12H12O+
172.1208	13	C12[13]CH15+
173.0949	72	C12H13O+
173.1312	27	C13H17+
174.1009	16	C12H14O+
174.136	5	C12[13]CH17+
175.1108	150	C12H15O+
176.114	24	C11[13]CH15O+
178.0762	13	C14H10+
179.0846	88	C14H11+
180.0914	32	C14H12+
181.1	74	C14H13+
182.1071	40	C14H14+
183.1159	238	C14H15+
184.1203	47	C13[13]CH15+
185.0951	23	C13H13O+
185.1314	51	C14H17+
186.1006	9	C13H14O+
186.1369	12	C13[13]CH17+
187.1108	121	C13H15O+
187.1461	7	C14H19+
188.115	20	C12[13]CH15O+
189.126	16	C13H17O+
191.0843	7	C15H11+
192.0924	15	C15H12+
193.1001	77	C15H13+
194.108	133	C15H14+
195.1155	120	C15H15+
196.1221	49	C15H16+
197.0955	8	C14H13O+
197.1317	161	C15H17+
198.1021	6	C14H14O+
198.1384	85	C15H18+
199.1104	12	C14H15O+
199.1471	57	C15H19+
200.1167	5	C14H16O+
200.1526	16	C15H20+
201.1261	6	C14H17O+
205.1001	12	C16H13+
206.1071	15	C16H14+
207.116	61	C16H15+
208.1233	69	C16H16+
209.1321	999	C16H17+
210.1367	206	C15[13]CH17+
211.1113	32	C15H15O+
211.1472	255	C16H19+
212.1175	15	C15H16O+
212.1511	53	C15[13]CH19+
213.1258	11	C15H17O+
213.16	8	C16H21+
215.1407	6	C15H19O+
219.1158	35	C17H15+
220.1226	21	C17H16+
221.1318	41	C17H17+
222.1382	36	C17H18+
223.1475	227	C17H19+
224.1553	486	C17H20+
225.1271	26	C16H17O+
225.1612	164	C17H21+
226.133	14	C16H18O+
226.1666	27	C16[13]CH21+
227.1421	6	C16H19O+
228.149	5	C16H20O+
233.1321	14	C18H17+
234.1395	46	C18H18+
235.1469	44	C18H19+
236.1528	14	C18H20+
237.1266	18	C17H17O+
237.1633	25	C18H21+
238.1328	13	C17H18O+
238.1684	8	C17[13]CH21+
239.1423	37	C17H19O+
239.1784	17	C18H23+
240.1487	10	C16[13]CH19O+
241.1575	11	C17H21O+
247.1464	6	C19H19+
248.1539	6	C19H20+
249.1636	144	C19H21+
250.1677	37	C18[13]CH21+
251.1427	49	C18H19O+
252.1483	31	C18H20O+
253.1572	26	C18H21O+
254.1628	8	C17[13]CH21O+
259.1479	7	C20H19+
263.1793	13	C20H23+
264.1863	11	C20H24+
265.1582	22	C19H21O+
265.1943	29	C20H25+
266.1655	21	C19H22O+
266.1989	5	C19[13]CH25+
267.1743	553	C19H23O+
268.1775	110	C18[13]CH23O+
269.1813	10	C17[13]C2H23O+
277.1581	8	C20H21O+
281.19	34	C20H25O+
282.1971	76	C20H26O+
283.2016	22	C19[13]CH26O+
295.1687	10	C20H23O2+
