Mass spectrum: Promethazin; LC-ESI-QTOF; MS2; CE: 10 eV; R=35000; [M+H]+
Name: Promethazin
Name: Promethazine
Name: N,N-dimethyl-1-phenothiazin-10-ylpropan-2-amine
Formula: C17H20N2S
Exact mass: 284.1347196
SMILES: CC(CN1C2=CC=CC=C2SC2=CC=CC=C12)N(C)C
InChI: InChI=1S/C17H20N2S/c1-13(18(2)3)12-19-14-8-4-6-10-16(14)20-17-11-7-5-9-15(17)19/h4-11,13H,12H2,1-3H3
Instrument: Bruker maXis Impact
Instrument type: LC-ESI-QTOF
Ms type: MS2
Ion mode: POSITIVE
Ionization: ESI
Fragmentation mode: CID
Collision energy: 10 eV
Resolution: 35000
Column name: Acclaim RSLC C18 2.2um, 2.1x100mm, Thermo
Retention time: 7.344 min
Base peak: 285.1416
Precursor m/z: 285.142
Precursor type: [M+H]+
m/z	relative intensity	assigned
198.0355	34	C15H4N+
199.0392	5	C14[13]CH4N+
240.083	48	C15H14NS+
241.0859	9	C14[13]CH14NS+
285.1417	999	C17H21N2S+
286.1445	167	C16[13]CH21N2S+
287.1391	29	C17H21N2[34]S+
