Mass spectrum: Ebastin; LC-ESI-QTOF; MS2; CE: 30 eV; R=35000; [M+H]+
Name: Ebastin
Name: Ebastine
Name: 4-(4-benzhydryloxypiperidin-1-yl)-1-(4-tert-butylphenyl)butan-1-one
Formula: C32H39NO2
Exact mass: 469.2980795
SMILES: CC(C)(C)C1=CC=C(C=C1)C(=O)CCCN1CCC(CC1)OC(C1=CC=CC=C1)C1=CC=CC=C1
InChI: InChI=1S/C32H39NO2/c1-32(2,3)28-18-16-25(17-19-28)30(34)15-10-22-33-23-20-29(21-24-33)35-31(26-11-6-4-7-12-26)27-13-8-5-9-14-27/h4-9,11-14,16-19,29,31H,10,15,20-24H2,1-3H3
Instrument: Bruker maXis Impact
Instrument type: LC-ESI-QTOF
Ms type: MS2
Ion mode: POSITIVE
Ionization: ESI
Fragmentation mode: CID
Collision energy: 30 eV
Resolution: 35000
Column name: Acclaim RSLC C18 2.2um, 2.1x100mm, Thermo
Retention time: 10.736 min
Base peak: 470.3053
Precursor m/z: 470.3054
Precursor type: [M+H]+
m/z	relative intensity	assigned
152.0608	13	C12H8+
161.0949	28	C11H13O+
165.0686	15	C13H9+
166.0754	5	C13H10+
167.0845	999	C13H11+
168.0879	112	C12[13]CH11+
169.0909	5	C11[13]C2H11+
203.1425	829	C14H19O+
204.1458	93	C13[13]CH19O+
205.1484	5	C12[13]C2H19O+
302.2109	12	C19H28NO2+
470.306	607	C32H40NO2+
471.309	173	C31[13]CH40NO2+
472.3122	24	C30[13]C2H40NO2+
