Mass spectrum: Ropinirole; LC-ESI-QTOF; MS2; CE: 50 eV; R=35000; [M+H]+
Name: Ropinirole
Name: 4-[2-(dipropylamino)ethyl]-1,3-dihydroindol-2-one
Formula: C16H24N2O
Exact mass: 260.1888634
SMILES: CCCN(CCC)CCC1=C2CC(=O)NC2=CC=C1
InChI: InChI=1S/C16H24N2O/c1-3-9-18(10-4-2)11-8-13-6-5-7-15-14(13)12-16(19)17-15/h5-7H,3-4,8-12H2,1-2H3,(H,17,19)
Instrument: Bruker maXis Impact
Instrument type: LC-ESI-QTOF
Ms type: MS2
Ion mode: POSITIVE
Ionization: ESI
Fragmentation mode: CID
Collision energy: 50 eV
Resolution: 35000
Column name: Acclaim RSLC C18 2.2um, 2.1x100mm, Thermo
Retention time: 3.916 min
Base peak: 261.1965
Precursor m/z: 261.1961
Precursor type: [M+H]+
m/z	relative intensity	assigned
114.1265	6	C7H16N+
115.0537	92	C9H7+
116.0565	13	C8[13]CH7+
117.0566	240	C8H7N+
118.0599	28	C7[13]CH7N+
130.064	138	C9H8N+
131.0714	87	C9H9N+
132.0798	999	C9H10N+
133.0826	74	C8[13]CH10N+
142.0641	10	C10H8N+
145.0508	6	C9H7NO+
160.0743	94	C10H10NO+
161.0776	10	C9[13]CH10NO+
