Mass spectrum: Desmedipham; LC-ESI-QTOF; MS2; CE: 50 eV; R=35000; [M+H]+
Name: Desmedipham
Name: [3-(ethoxycarbonylamino)phenyl] N-phenylcarbamate
Formula: C16H16N2O4
Exact mass: 300.111007
SMILES: CCOC(=O)NC1=CC=CC(OC(=O)NC2=CC=CC=C2)=C1
InChI: InChI=1S/C16H16N2O4/c1-2-21-15(19)18-13-9-6-10-14(11-13)22-16(20)17-12-7-4-3-5-8-12/h3-11H,2H2,1H3,(H,17,20)(H,18,19)
Instrument: Bruker maXis Impact
Instrument type: LC-ESI-QTOF
Ms type: MS2
Ion mode: POSITIVE
Ionization: ESI
Fragmentation mode: CID
Collision energy: 50 eV
Resolution: 35000
Column name: Acclaim RSLC C18 2.2um, 2.1x100mm, Thermo
Retention time: 8.5 min
Base peak: 318.1451
Precursor m/z: 301.1183
Precursor type: [M+H]+
m/z	relative intensity	assigned
136.0383	999	C7H6NO2+
137.0422	107	C6[13]CH6NO2+
146.0584	29	C6H10O4+
154.0486	64	C7H8NO3+
