Mass spectrum: N-Phenyl-1-naphthylamine; LC-ESI-QTOF; MS2; CE: 50 eV; R=35000; [M+H]+
Name: N-Phenyl-1-naphthylamine
Name: N-phenylnaphthalen-1-amine
Formula: C16H13N
Exact mass: 219.1047994
SMILES: N(C1=CC=CC=C1)C1=CC=CC2=C1C=CC=C2
InChI: InChI=1S/C16H13N/c1-2-9-14(10-3-1)17-16-12-6-8-13-7-4-5-11-15(13)16/h1-12,17H
Instrument: Bruker maXis Impact
Instrument type: LC-ESI-QTOF
Ms type: MS2
Ion mode: POSITIVE
Ionization: ESI
Fragmentation mode: CID
Collision energy: 50 eV
Resolution: 35000
Column name: Acclaim RSLC C18 2.2um, 2.1x100mm, Thermo
Retention time: 11.686 min
Base peak: 220.111
Precursor m/z: 220.1121
Precursor type: [M+H]+
m/z	relative intensity	assigned
115.0531	434	C9H7+
116.0611	121	C9H8+
117.0569	18	C8H7N+
126.0449	71	C10H6+
127.0535	37	C10H7+
128.0487	10	C9H6N+
128.061	158	C10H8+
129.0633	23	C9[13]CH8+
140.0482	17	C10H6N+
142.0639	85	C10H8N+
143.0718	999	C10H9N+
144.0747	113	C9[13]CH9N+
152.0615	17	C12H8+
165.0681	13	C13H9+
171.0125	26	C13HN+
178.0751	16	C14H10+
189.0677	30	C15H9+
190.0752	14	C15H10+
191.083	23	C15H11+
192.0911	10	C15H12+
201.0668	11	C16H9+
202.0768	69	C16H10+
204.0797	19	C15H10N+
216.08	53	C16H10N+
217.0867	246	C16H11N+
218.0927	68	C15[13]CH11N+
219.0994	13	C16H13N+
