Mass spectrum: Diaveridine; LC-ESI-QTOF; MS2; CE: Ramp 20.2-30.3 eV; R=35000; [M+H]+
Name: Diaveridine
Name: 5-[(3,4-dimethoxyphenyl)methyl]pyrimidine-2,4-diamine
Formula: C13H16N4O2
Exact mass: 260.1273
SMILES: COc1ccc(cc1OC)Cc2cnc(nc2N)N
InChI: InChI=1S/C13H16N4O2/c1-18-10-4-3-8(6-11(10)19-2)5-9-7-16-13(15)17-12(9)14/h3-4,6-7H,5H2,1-2H3,(H4,14,15,16,17)
Instrument: Bruker maXis Impact
Instrument type: LC-ESI-QTOF
Ms type: MS2
Ion mode: POSITIVE
Ionization: ESI
Fragmentation mode: CID
Collision energy: Ramp 20.2-30.3 eV
Resolution: 35000
Column name: Acclaim RSLC C18 2.2um, 2.1x100mm, Thermo
Retention time: 4.1 min
Base peak: 261.1359
Precursor m/z: 261.1346
Precursor type: [M+H]+
m/z	relative intensity	assigned
81.0443	78	C4H5N2+
123.0672	539	C5H7N4+
124.07	21	C5H8N4+
151.0753	8	C9H11O2+
187.0983	5	C10H11N4+
200.1055	6	C11H12N4+
202.0862	7	C12H12NO2+
203.0921	10	C10H11N4O+
215.0928	5	C11H11N4O+
216.1009	45	C11H12N4O+
217.109	154	C11H13N4O+
218.1119	16	C11H14N4O+
229.1092	6	C12H13N4O+
231.0881	25	C11H11N4O2+
232.0938	5	C11H12N4O2+
245.1044	941	C12H13N4O2+
246.1099	249	C12H14N4O2+
247.1129	21	C12H15N4O2+
261.1359	999	C13H17N4O2+
262.139	184	C12H16N5O2+
263.1405	15	C12H17N5O2+
