Mass spectrum: Loperamide; LC-ESI-QTOF; MS2; CE: 30 eV; R=35000; [M+H]+
Name: Loperamide
Name: 4-[4-(4-chlorophenyl)-4-hydroxypiperidin-1-yl]-N,N-dimethyl-2,2-diphenylbutanamide
Formula: C29H33ClN2O2
Exact mass: 476.2230560
SMILES: CN(C)C(=O)C(CCN1CCC(O)(CC1)C1=CC=C(Cl)C=C1)(C1=CC=CC=C1)C1=CC=CC=C1
InChI: InChI=1S/C29H33ClN2O2/c1-31(2)27(33)29(24-9-5-3-6-10-24,25-11-7-4-8-12-25)19-22-32-20-17-28(34,18-21-32)23-13-15-26(30)16-14-23/h3-16,34H,17-22H2,1-2H3
Instrument: Bruker maXis Impact
Instrument type: LC-ESI-QTOF
Ms type: MS2
Ion mode: POSITIVE
Ionization: ESI
Fragmentation mode: CID
Collision energy: 30 eV
Resolution: 35000
Column name: Acclaim RSLC C18 2.2um, 2.1x100mm, Thermo
Retention time: 8.278 min
Base peak: 477.23
Precursor m/z: 477.2303
Precursor type: [M+H]+
m/z	relative intensity	assigned
210.1268	26	C15H16N+
238.1217	5	C16H16NO+
266.1547	999	C18H20NO+
267.157	420	C18H21NO+
268.1597	28	C16[13]C2H20NO+
477.2299	41	C29H34ClN2O2+
478.2335	13	C28[13]CH34ClN2O2+
479.2273	13	C29H34[37]ClN2O2+
