Mass spectrum: Nitrendipin; LC-ESI-QTOF; MS2; CE: 30 eV; R=35000; [M+H]+
Name: Nitrendipin
Name: Nitrendipine
Name: 5-O-ethyl 3-O-methyl 2,6-dimethyl-4-(3-nitrophenyl)-1,4-dihydropyridine-3,5-dicarboxylate
Formula: C18H20N2O6
Exact mass: 360.1321364
SMILES: CCOC(=O)C1=C(C)NC(C)=C(C1C1=CC=CC(=C1)[N+]([O-])=O)C(=O)OC
InChI: InChI=1S/C18H20N2O6/c1-5-26-18(22)15-11(3)19-10(2)14(17(21)25-4)16(15)12-7-6-8-13(9-12)20(23)24/h6-9,16,19H,5H2,1-4H3
Instrument: Bruker maXis Impact
Instrument type: LC-ESI-QTOF
Ms type: MS2
Ion mode: POSITIVE
Ionization: ESI
Fragmentation mode: CID
Collision energy: 30 eV
Resolution: 35000
Column name: Acclaim RSLC C18 2.2um, 2.1x100mm, Thermo
Retention time: 9.783 min
Base peak: 361.1393
Precursor m/z: 361.1394
Precursor type: [M+H]+
m/z	relative intensity	assigned
140.069	12	C4H12O5+
150.0163	5	C4H6O6+
166.085	16	C9H12NO2+
168.0799	12	C12H10N+
171.1031	7	C12H13N+
176.0333	7	C9H6NO3+
180.0794	6	C10H12O3+
181.0872	8	C10H13O3+
182.0949	14	C10H14O3+
183.1026	25	C13H13N+
184.1075	5	C12[13]CH13N+
186.0537	7	C11H8NO2+
198.09	8	C13H12NO+
199.0976	7	C10H15O4+
200.0332	16	C11H6NO3+
208.075	7	C14H10NO+
209.082	36	C11H13O4+
210.09	77	C14H12NO+
211.0976	48	C11H15O4+
212.0691	6	C10H12O5+
212.0984	9	C10[13]CH15O4+
214.0496	6	C12H8NO3+
214.0833	6	C10H14O5+
215.093	5	C13H13NO2+
217.06	14	C11H9N2O3+
225.0785	8	C14H11NO2+
226.085	172	C14H12NO2+
227.0853	43	C13[13]CH12NO2+
228.0883	12	C13H12N2O2+
229.1055	7	C11H17O5+
236.0702	9	C15H10NO2+
237.0763	12	C12H13O5+
238.0723	18	C11H12NO5+
238.106	6	C12H16NO4+
239.0801	26	C11H13NO5+
240.0679	5	C17H8N2+
240.0884	15	C14H12N2O2+
241.068	11	C11H13O6+
241.1077	11	C12H17O5+
242.0451	6	C13H8NO4+
242.0793	15	C11H14O6+
243.0872	14	C11H15O6+
249.0874	6	C12H13N2O4+
253.0724	47	C15H11NO3+
254.0803	154	C15H12NO3+
255.085	148	C15H13NO3+
256.0894	33	C14[13]CH13NO3+
257.0925	36	C14H13N2O3+
266.0672	6	C12H12NO6+
267.0878	55	C16H13NO3+
268.0955	103	C16H14NO3+
269.1037	271	C13H17O6+
270.0731	12	C15H12NO4+
270.1057	52	C12[13]CH17O6+
271.1106	7	C15H15N2O3+
273.0856	14	C14H13N2O4+
281.0998	8	C14H17O6+
282.111	13	C14H18O6+
283.0706	238	C15H11N2O4+
283.1197	53	C17H17NO3+
284.0771	102	C15H12N2O4+
284.1229	12	C16[13]CH17NO3+
285.0636	26	C15H11NO5+
285.0809	18	C14[13]CH12N2O4+
287.0777	23	C15H13NO5+
287.1012	10	C15H15N2O4+
297.0858	13	C16H13N2O4+
298.0938	133	C16H14N2O4+
299.0771	30	C16H13NO5+
299.0925	22	C15[13]CH14N2O4+
300.0802	10	C15H12N2O5+
301.0821	385	C15H13N2O5+
302.0851	67	C14[13]CH13N2O5+
303.0898	7	C16H15O6+
312.1091	35	C17H16N2O4+
313.0842	13	C16H13N2O5+
313.1102	6	C16[13]CH16N2O4+
315.0974	999	C16H15N2O5+
316.1003	155	C15[13]CH15N2O5+
317.102	25	C17H17O6+
329.113	530	C17H17N2O5+
330.1153	96	C16[13]CH17N2O5+
331.0916	23	C16H15N2O6+
331.1163	11	C15[13]C2H17N2O5+
332.0952	5	C15[13]CH15N2O6+
