Mass spectrum: Olanzapine; LC-ESI-QTOF; MS2; CE: 20 eV; R=35000; [M+H]+
Name: Olanzapine
Formula: C17H20N4S
Exact mass: 312.1408676
SMILES: Cc1cc2c(s1)Nc3ccccc3N=C2N4CCN(CC4)C
InChI: InChI=1S/C17H20N4S/c1-12-11-13-16(21-9-7-20(2)8-10-21)18-14-5-3-4-6-15(14)19-17(13)22-12/h3-6,11,19H,7-10H2,1-2H3
Instrument: Bruker maXis Impact
Instrument type: LC-ESI-QTOF
Ms type: MS2
Ion mode: POSITIVE
Ionization: ESI
Fragmentation mode: CID
Collision energy: 20 eV
Resolution: 35000
Column name: Acclaim RSLC C18 2.2um, 2.1x100mm, Thermo
Retention time: 6.633 min
Base peak: 313.1501
Precursor m/z: 313.1481
Precursor type: [M+H]+
m/z	relative intensity	assigned
213.0501	14	C12H9N2S+
230.0755	20	C12H12N3S+
256.0916	416	C14H14N3S+
257.0945	67	C13[13]CH14N3S+
258.0884	21	C14H14N3[34]S+
282.1071	40	C16H16N3S+
283.1092	7	C15[13]CH16N3S+
311.1377	5	C17H19N4S+
313.15	999	C17H21N4S+
314.1523	186	C16[13]CH21N4S+
315.1477	43	C17H21N4[34]S+
