Mass spectrum: 2-Hydroxyquinoline; LC-ESI-QTOF; MS2; CE: 30 eV; R=35000; [M+H]+
Name: 2-Hydroxyquinoline
Name: 1H-quinolin-2-one
Formula: C9H7NO
Exact mass: 145.0527638
SMILES: OC1=NC2=CC=CC=C2C=C1
InChI: InChI=1S/C9H7NO/c11-9-6-5-7-3-1-2-4-8(7)10-9/h1-6H,(H,10,11)
Instrument: Bruker maXis Impact
Instrument type: LC-ESI-QTOF
Ms type: MS2
Ion mode: POSITIVE
Ionization: ESI
Fragmentation mode: CID
Collision energy: 30 eV
Resolution: 35000
Column name: Acclaim RSLC C18 2.2um, 2.1x100mm, Thermo
Retention time: 4.060 min
Base peak: 146.0593
Precursor m/z: 146.06
Precursor type: [M+H]+
m/z	relative intensity	assigned
117.0566	109	C8H7N+
118.0644	82	C8H8N+
128.0484	104	C9H6N+
129.0511	14	C8[13]CH6N+
146.059	999	C9H8NO+
147.0628	149	C8[13]CH8NO+
