Mass spectrum: Allyl methacrylate; GC-APCI-QTOF; MS2; CE: 10 eV; R=35000; [M+H]+
Name: Allyl methacrylate
Formula: C7H10O2
Exact mass: 126.0681
SMILES: CC(=C)C(=O)OCC=C
InChI: InChI=1S/C7H10O2/c1-4-5-9-7(8)6(2)3/h4H,1-2,5H2,3H3
Instrument: Bruker 450 GC coupled to maXis Impact
Instrument type: GC-APCI-QTOF
Ms type: MS2
Ion mode: POSITIVE
Ionization: APCI
Fragmentation mode: CID
Collision energy: 10 eV
Resolution: 35000
Column name: Rxi-5Sil MS column, 30m, 0.25mm i.d., 0.25Âµm film thickness, Restek
Retention time: 5.631 min
Base peak: 127.0749
Precursor m/z: 127.0754
Precursor type: [M+H]+
m/z	relative intensity	assigned
55.0183	731	C3H3O+
127.0763	999	C7H11O2+
