Mass spectrum: Metolachlor OA; LC-ESI-QTOF; MS2; CE: 10 eV; R=35000; [M+H]+
Name: Metolachlor OA
Name: 2-[2-ethyl-N-(1-methoxypropan-2-yl)-6-methylanilino]-2-oxoacetic acid
Formula: C15H21NO4
Exact mass: 279.1470582
SMILES: CCC1=C(N(C(C)COC)C(=O)C(O)=O)C(C)=CC=C1
InChI: InChI=1S/C15H21NO4/c1-5-12-8-6-7-10(2)13(12)16(11(3)9-20-4)14(17)15(18)19/h6-8,11H,5,9H2,1-4H3,(H,18,19)
Instrument: Bruker maXis Impact
Instrument type: LC-ESI-QTOF
Ms type: MS2
Ion mode: POSITIVE
Ionization: ESI
Fragmentation mode: CID
Collision energy: 10 eV
Resolution: 35000
Column name: Acclaim RSLC C18 2.2um, 2.1x100mm, Thermo
Retention time: 7.786 min
Base peak: 280.1546
Precursor m/z: 280.1543
Precursor type: [M+H]+
m/z	relative intensity	assigned
134.0958	7	C9H12N+
149.0215	15	C8H5O3+
205.0841	6	C12H13O3+
208.0976	13	C11H14NO3+
210.0746	6	C10H12NO4+
212.0671	8	C13H10NO2+
234.1483	29	C14H20NO2+
235.1553	5	C13[13]CH20NO2+
236.1626	6	C14H22NO2+
248.128	999	C14H18NO3+
249.1314	167	C13[13]CH18NO3+
280.1544	420	C15H22NO4+
281.1572	76	C14[13]CH22NO4+
