Mass spectrum: 3,3`-Dichlorobenzidine; LC-ESI-QTOF; MS2; CE: 50 eV; R=35000; [M+H]+
Name: 3,3`-Dichlorobenzidine
Name: 4-(4-amino-3-chlorophenyl)-2-chloroaniline
Formula: C12H10Cl2N2
Exact mass: 252.0221037
SMILES: NC1=CC=C(C=C1Cl)C1=CC=C(N)C(Cl)=C1
InChI: InChI=1S/C12H10Cl2N2/c13-9-5-7(1-3-11(9)15)8-2-4-12(16)10(14)6-8/h1-6H,15-16H2
Instrument: Bruker maXis Impact
Instrument type: LC-ESI-QTOF
Ms type: MS2
Ion mode: POSITIVE
Ionization: ESI
Fragmentation mode: CID
Collision energy: 50 eV
Resolution: 35000
Column name: Acclaim RSLC C18 2.2um, 2.1x100mm, Thermo
Retention time: 8.876 min
Base peak: 244.19
Precursor m/z: 253.0294
Precursor type: [M+H]+
m/z	relative intensity	assigned
115.0536	10	C9H7+
125.0378	13	C10H5+
126.0456	45	C10H6+
127.0171	34	C6H6ClN+
127.0529	97	C10H7+
128.0481	34	C9H6N+
128.0606	28	C10H8+
129.0149	9	C6H6[37]ClN+
129.0564	18	C9H7N+
130.0638	99	C9H8N+
131.0703	18	C9H9N+
137.0369	8	C11H5+
138.0455	12	C11H6+
139.0528	18	C11H7+
140.0474	24	C10H6N+
141.0557	19	C10H7N+
143.0694	8	C10H9N+
146.0592	11	C6H11ClN2+
151.0163	33	C8H6ClN+
152.0468	25	C11H6N+
153.0151	12	C8H6[37]ClN+
153.0561	90	C11H7N+
154.0638	999	C11H8N+
156.0788	32	C11H10N+
157.0779	8	C10H9N2+
162.0208	11	C11H2N2+
164.0248	120	C9H7ClN+
164.0483	53	C12H6N+
165.0285	10	C8[13]CH7ClN+
165.0557	64	C12H7N+
166.0209	53	C9H7[37]ClN+
166.063	41	C12H8N+
168.0684	8	C11H8N2+
170.0601	21	C8H11ClN2+
172.0067	8	C11H5Cl+
173.0127	34	C12HN2+
179.0585	77	C12H7N2+
180.0659	61	C12H8N2+
181.0745	553	C12H9N2+
182.0819	493	C12H10N2+
183.0841	57	C11[13]CH10N2+
188.0252	69	C11H7ClN+
189.0299	47	C11H8ClN+
190.0219	28	C11H7[37]ClN+
190.0403	171	C11H9ClN+
191.0271	18	C11H8[37]ClN+
191.0431	31	C10[13]CH9ClN+
192.0371	64	C11H9[37]ClN+
197.9874	18	C9H6Cl2N+
199.983	14	C9H6Cl[37]ClN+
200.0257	20	C12H7ClN+
201.0322	52	C12H8ClN+
202.0359	11	C11[13]CH8ClN+
203.0314	11	C12H8[37]ClN+
215.0362	202	C12H8ClN2+
216.0429	135	C12H9ClN2+
217.0341	59	C12H8[37]ClN2+
217.0499	56	C12H10ClN2+
218.0411	31	C12H9[37]ClN2+
218.0584	28	C12H11ClN2+
219.0507	10	C12H10[37]ClN2+
220.0565	13	C12H11[37]ClN2+
224.0019	80	C11H8Cl2N+
225.0048	11	C10[13]CH8Cl2N+
225.9988	52	C11H8Cl[37]ClN+
251.0124	9	C12H9Cl2N2+
252.0224	78	C12H10Cl2N2+
253.0236	16	C11[13]CH10Cl2N2+
254.0184	47	C12H10Cl[37]ClN2+
