Mass spectrum: 4-Methoxy-6-methyl-1,3,5-triazin-2-amine; LC-ESI-QTOF; MS2; CE: 20 eV; R=35000; [M+H]+
Name: 4-Methoxy-6-methyl-1,3,5-triazin-2-amine
Name: 2-Amino-4-methoxy-6-methyl-1,3,5-triazine
Formula: C5H8N4O
Exact mass: 140.0698109
SMILES: COC1=NC(N)=NC(C)=N1
InChI: InChI=1S/C5H8N4O/c1-3-7-4(6)9-5(8-3)10-2/h1-2H3,(H2,6,7,8,9)
Instrument: Bruker maXis Impact
Instrument type: LC-ESI-QTOF
Ms type: MS2
Ion mode: POSITIVE
Ionization: ESI
Fragmentation mode: CID
Collision energy: 20 eV
Resolution: 35000
Column name: Acclaim RSLC C18 2.2um, 2.1x100mm, Thermo
Retention time: 3.5 min
Base peak: 141.0761
Precursor m/z: 141.0771
Precursor type: [M+H]+
m/z	relative intensity	assigned
121.0378	11	C4H3N5+
141.0762	999	C5H9N4O+
