Mass spectrum: Alitame; LC-ESI-QTOF; MS2; CE: RAMP 22.2-33.3 eV; R=35000; [M+H]+
Name: Alitame
Name: (3S)-3-azaniumyl-4-oxo-4-[[(2R)-1-oxo-1-[(2,2,4,4-tetramethylthietan-3-yl)amino]propan-2-yl]amino]butanoate
Formula: C14H25N3O4S
Exact mass: 331.1565773
SMILES: C[C@H](C(=O)NC1C(SC1(C)C)(C)C)NC(=O)[C@H](CC(=O)O)N
InChI: InChI=1S/C14H25N3O4S/c1-7(16-11(21)8(15)6-9(18)19)10(20)17-12-13(2,3)22-14(12,4)5/h7-8,12H,6,15H2,1-5H3,(H,16,21)(H,17,20)(H,18,19)/t7-,8+/m1/s1
Instrument: Bruker maXis Impact
Instrument type: LC-ESI-QTOF
Ms type: MS2
Ion mode: POSITIVE
Ionization: ESI
Fragmentation mode: CID
Collision energy: RAMP 22.2-33.3 eV
Resolution: 35000
Column name: Acclaim RSLC C18 2.2um, 2.1x100mm, Thermo
Retention time: 6.219 min
Base peak: 163.1317
Precursor m/z: 332.1639
Precursor type: [M+H]+
m/z	relative intensity	assigned
58.0643	37	C3H8N+
58.9944	74	C2H3S+
60.0545	56	CH6N3+
129.072	999	C7H13S+
130.0761	68	C6[13]CH13S+
131.0691	80	C4H9N3O2+
141.0652	49	C6H9N2O2+
159.0753	549	C6H11N2O3+
160.0784	44	C7H14NOS+
187.0718	210	C7H11N2O4+
204.098	50	C7H14N3O4+
215.1275	36	C11H19O4+
217.1392	32	C10H21N2OS+
332.1625	68	C14H26N3O4S+
