Mass spectrum: Fenoxycarb; LC-ESI-QTOF; MS2; CE: 40 eV; R=35000; [M+H]+
Name: Fenoxycarb
Name: ethyl N-[2-(4-phenoxyphenoxy)ethyl]carbamate
Formula: C17H19NO4
Exact mass: 301.1314081
SMILES: CCOC(=O)NCCOC1=CC=C(OC2=CC=CC=C2)C=C1
InChI: InChI=1S/C17H19NO4/c1-2-20-17(19)18-12-13-21-14-8-10-16(11-9-14)22-15-6-4-3-5-7-15/h3-11H,2,12-13H2,1H3,(H,18,19)
Instrument: Bruker maXis Impact
Instrument type: LC-ESI-QTOF
Ms type: MS2
Ion mode: POSITIVE
Ionization: ESI
Fragmentation mode: CID
Collision energy: 40 eV
Resolution: 35000
Column name: Acclaim RSLC C18 2.2um, 2.1x100mm, Thermo
Retention time: 10.610 min
Base peak: 317.1643
Precursor m/z: 302.1387
Precursor type: [M+H]+
m/z	relative intensity	assigned
115.0532	149	C9H7+
116.0696	27	C5H10NO2+
117.0693	52	C9H9+
118.0402	99	C8H6O+
118.0636	25	C5H10O3+
119.0482	85	C8H7O+
119.0839	56	C9H11+
120.0564	142	C8H8O+
121.0262	44	C7H5O2+
127.0527	24	C10H7+
128.0608	208	C10H8+
129.0686	508	C10H9+
130.0724	73	C9[13]CH9+
130.1233	81	C7H16NO+
131.0487	48	C9H7O+
132.092	99	C10H12+
133.028	25	C8H5O2+
134.0344	131	C8H6O2+
135.0407	28	C8H7O2+
139.0529	35	C11H7+
141.0684	626	C11H9+
142.074	116	C10[13]CH9+
144.0546	31	C10H8O+
145.0508	25	C6H9O4+
145.0615	51	C10H9O+
146.06	21	C9H8NO+
147.1157	466	C11H15+
148.119	41	C10[13]CH15+
152.0606	191	C12H8+
153.0679	31	C11[13]CH8+
155.0588	56	C7H9NO3+
155.0836	51	C12H11+
157.0632	284	C11H9O+
158.0705	143	C11H10O+
161.1303	23	C12H17+
162.0544	37	C9H8NO2+
163.0617	177	C9H9NO2+
164.068	28	C8[13]CH9NO2+
165.0681	299	C13H9+
166.0747	81	C13H10+
167.0829	110	C13H11+
168.056	62	C12H8O+
169.0631	238	C12H9O+
170.0704	114	C12H10O+
176.0591	48	C14H8+
177.0701	87	C14H9+
178.0754	25	C14H10+
181.063	62	C13H9O+
183.0795	181	C13H11O+
184.0838	30	C12[13]CH11O+
185.058	431	C12H9O2+
185.0943	36	C13H13O+
186.0662	999	C12H10O2+
193.0696	35	C10H11NO3+
193.0739	26	C10H11NO3+
194.0708	43	C14H10O+
195.0789	87	C14H11O+
197.058	51	C13H9O2+
198.0667	71	C13H10O2+
199.0713	33	C13H11O2+
203.0688	44	C12H11O3+
211.0745	50	C14H11O2+
213.0537	666	C13H9O3+
214.0571	73	C12[13]CH9O3+
238.0838	66	C15H12NO2+
256.0954	35	C15H14NO3+
