Mass spectrum: Lauryl diethanolamide; LC-ESI-QTOF; MS2; CE: 40 eV; R=35000; [M+H]+
Name: Lauryl diethanolamide
Name: N,N-bis(2-hydroxyethyl)dodecanamide
Formula: C16H33NO3
Exact mass: 287.2460439
SMILES: CCCCCCCCCCCC(=O)N(CCO)CCO
InChI: InChI=1S/C16H33NO3/c1-2-3-4-5-6-7-8-9-10-11-16(20)17(12-14-18)13-15-19/h18-19H,2-15H2,1H3
Instrument: Bruker maXis Impact
Instrument type: LC-ESI-QTOF
Ms type: MS2
Ion mode: POSITIVE
Ionization: ESI
Fragmentation mode: CID
Collision energy: 40 eV
Resolution: 35000
Column name: Acclaim RSLC C18 2.2um, 2.1x100mm, Thermo
Retention time: 11.728 min
Base peak: 288.2529
Precursor m/z: 288.2533
Precursor type: [M+H]+
m/z	relative intensity	assigned
142.0849	97	C7H12NO2+
226.2157	728	C14H28NO+
227.2001	999	C14H27O2+
228.2031	268	C14H28O2+
270.2414	721	C16H32NO2+
271.2453	119	C15[13]CH32NO2+
