Mass spectrum: Fluorometholone; LC-ESI-QTOF; MS2; CE: 10 eV; R=35000; [M+H]+
Name: Fluorometholone
Name: (6S,8S,9R,10S,11S,13S,14S,17R)-17-acetyl-9-fluoro-11,17-dihydroxy-6,10,13-trimethyl-6,7,8,11,12,14,15,16-octahydrocyclopenta[a]phenanthren-3-one
Formula: C22H29FO4
Exact mass: 376.2049876
SMILES: [H][C@@]12CC[C@](O)(C(C)=O)[C@@]1(C)C[C@H](O)[C@@]1(F)[C@@]2([H])C[C@H](C)C2=CC(=O)C=C[C@]12C
InChI: InChI=1S/C22H29FO4/c1-12-9-17-15-6-8-21(27,13(2)24)20(15,4)11-18(26)22(17,23)19(3)7-5-14(25)10-16(12)19/h5,7,10,12,15,17-18,26-27H,6,8-9,11H2,1-4H3/t12-,15-,17-,18-,19-,20-,21-,22-/m0/s1
Instrument: Bruker maXis Impact
Instrument type: LC-ESI-QTOF
Ms type: MS2
Ion mode: POSITIVE
Ionization: ESI
Fragmentation mode: CID
Collision energy: 10 eV
Resolution: 35000
Column name: Acclaim RSLC C18 2.2um, 2.1x100mm, Thermo
Retention time: 8.908 min
Base peak: 377.2115
Precursor m/z: 377.2123
Precursor type: [M+H]+
m/z	relative intensity	assigned
125.0599	5	C7H9O2+
135.0794	30	C9H11O+
137.0943	6	C9H13O+
139.0736	9	C8H11O2+
145.0995	8	C11H13+
149.0956	11	C10H13O+
161.0945	27	C11H13O+
165.0896	32	C10H13O2+
173.0952	12	C12H13O+
175.1096	9	C12H15O+
177.0895	6	C11H13O2+
185.0951	13	C13H13O+
187.11	6	C13H15O+
189.1268	6	C13H17O+
193.1019	8	C12H14FO+
213.1262	6	C15H17O+
217.1224	8	C14H17O2+
225.1283	5	C13H18FO2+
227.1078	5	C12H16FO3+
229.1207	9	C15H17O2+
233.1322	9	C18H17+
237.1273	23	C17H17O+
249.1266	7	C18H17O+
251.1427	54	C18H19O+
252.1449	16	C17[13]CH19O+
253.1566	9	C18H21O+
267.1374	11	C18H19O2+
269.1535	29	C18H21O2+
270.1567	8	C17[13]CH21O2+
277.1585	10	C20H21O+
279.1375	17	C19H19O2+
279.1735	262	C20H23O+
280.1764	63	C19[13]CH23O+
281.1816	7	C18[13]C2H23O+
293.1892	16	C21H25O+
295.171	17	C20H23O2+
296.1714	5	C19[13]CH23O2+
297.1837	64	C20H25O2+
298.1864	15	C19[13]CH25O2+
299.18	5	C20H24FO+
303.174	39	C22H23O+
304.1766	14	C21[13]CH23O+
311.2	23	C21H27O2+
312.2043	7	C20[13]CH27O2+
317.1898	7	C20H26FO2+
321.1843	260	C22H25O2+
322.1882	67	C21[13]CH25O2+
323.1913	10	C20[13]C2H25O2+
339.195	374	C22H27O3+
340.198	95	C21[13]CH27O3+
341.1937	27	C22H26FO2+
342.1929	5	C21[13]CH26FO2+
357.2059	588	C22H29O4+
358.2086	155	C21[13]CH29O4+
359.2044	59	C22H28FO3+
360.205	11	C21[13]CH28FO3+
377.2119	999	C22H30FO4+
378.2152	247	C21[13]CH30FO4+
379.2193	41	C20[13]C2H30FO4+
