Mass spectrum: Divinylbenzene (m- and p- mixture); GC-APCI-QTOF; MS2; CE: 20 eV; R=35000; [M]+
Name: Divinylbenzene (m- and p- mixture)
Formula: C10H10
Exact mass: 130.0783
SMILES: C=CC1=CC=CC=C1C=C
InChI: InChI=1S/C10H10/c1-3-9-7-5-6-8-10(9)4-2/h3-8H,1-2H2
Instrument: Bruker 450 GC coupled to maXis Impact
Instrument type: GC-APCI-QTOF
Ms type: MS2
Ion mode: POSITIVE
Ionization: APCI
Fragmentation mode: CID
Collision energy: 20 eV
Resolution: 35000
Column name: Rxi-5Sil MS column, 30m, 0.25mm i.d., 0.25Âµm film thickness, Restek
Retention time: 8.691 min
Base peak: 130.0773
Precursor m/z: 130.0777
Precursor type: [M]+
m/z	relative intensity	assigned
53.0391	13	C4H5+
78.0483	16	C6H6+
91.0543	85	C7H7+
103.0523	28	C8H7+
104.0642	24	C8H8+
115.0538	762	C9H7+
116.0602	102	C9H8+
127.0548	39	C10H7+
128.0616	999	C10H8+
129.0691	975	C10H9+
130.0764	150	C10H10+
