Mass spectrum: Ethyl 2-Cyano-3,3-diphenylacrylate; GC-APCI-QTOF; MS2; CE: 40 eV; R=35000; [M]+
Name: Ethyl 2-Cyano-3,3-diphenylacrylate
Formula: C18H15NO2
Exact mass: 277.1103
SMILES: CCOC(=O)C(=C(C1=CC=CC=C1)C2=CC=CC=C2)C#N
InChI: InChI=1S/C18H15NO2/c1-2-21-18(20)16(13-19)17(14-9-5-3-6-10-14)15-11-7-4-8-12-15/h3-12H,2H2,1H3
Instrument: Bruker 450 GC coupled to maXis Impact
Instrument type: GC-APCI-QTOF
Ms type: MS2
Ion mode: POSITIVE
Ionization: APCI
Fragmentation mode: CID
Collision energy: 40 eV
Resolution: 35000
Column name: Rxi-5Sil MS column, 30m, 0.25mm i.d., 0.25Âµm film thickness, Restek
Retention time: 20.377 min
Base peak: 277.1078
Precursor m/z: 277.1097
Precursor type: [M]+
m/z	relative intensity	assigned
55.0183	7	C3H3O+
55.0542	6	C4H7+
67.0538	9	C5H7+
105.0328	42	C7H5O+
116.0494	10	C8H6N+
121.0278	13	C7H5O2+
128.0495	40	C9H6N+
129.0344	14	C9H5O+
146.0636	12	C9H8NO+
152.065	42	C12H8+
153.0712	19	C12H9+
154.0668	9	C11H8N+
164.0634	5	C13H8+
165.0734	243	C13H9+
166.0769	33	C13H10+
167.0868	5	C13H11+
169.069	53	C12H9O+
170.0764	11	C12H10O+
172.0416	52	C10H6NO2+
173.0435	9	C10H7NO2+
175.0411	5	C13H5N+
175.0585	7	C10H9NO2+
176.0643	405	C14H8+
177.0721	496	C14H9+
178.0797	341	C14H10+
179.0839	49	C14H11+
180.0827	12	C13H10N+
181.0662	49	C13H9O+
182.0717	8	C13H10O+
182.1009	6	C13H12N+
189.0705	9	C15H9+
190.0669	61	C14H8N+
191.0732	59	C14H9N+
192.0826	88	C14H10N+
192.1035	6	C11H14NO2+
193.0661	37	C14H9O+
193.0877	23	C14H11N+
194.0752	16	C14H10O+
195.0828	40	C14H11O+
201.0601	13	C15H7N+
202.0662	69	C15H8N+
203.0739	934	C15H9N+
204.0813	999	C15H10N+
206.0645	7	C14H8NO+
207.1022	5	C15H13N+
210.0625	5	C14H10O2+
215.0911	9	C13H13NO2+
216.0855	5	C16H10N+
217.0893	25	C16H11N+
218.0969	6	C16H12N+
219.0716	8	C15H9NO+
220.0756	316	C15H10NO+
221.0804	49	C15H11NO+
222.0905	14	C15H12NO+
228.0797	5	C17H10N+
229.0857	6	C17H11N+
230.0584	23	C16H8NO+
230.097	72	C17H12N+
231.066	5	C16H9NO+
231.1002	13	C17H13N+
232.0758	180	C16H10NO+
232.1098	15	C17H14N+
233.0796	28	C16H11NO+
234.0936	11	C16H12NO+
248.0696	371	C16H10NO2+
249.0738	62	C16H11NO2+
250.0847	8	C16H12NO2+
258.0946	6	C18H12NO+
276.1018	5	C18H14NO2+
