Mass spectrum: 1,3-Diphenylguanidine; LC-ESI-QTOF; MS2; CE: Ramp 18.4-27.7 eV; R=35000; [M+H]+
Name: 1,3-Diphenylguanidine
Name: 1,2-diphenylguanidine
Formula: C13H13N3
Exact mass: 211.1109474
SMILES: N=C(NC1=CC=CC=C1)NC1=CC=CC=C1
InChI: InChI=1S/C13H13N3/c14-13(15-11-7-3-1-4-8-11)16-12-9-5-2-6-10-12/h1-10H,(H3,14,15,16)
Instrument: Bruker maXis Impact
Instrument type: LC-ESI-QTOF
Ms type: MS2
Ion mode: POSITIVE
Ionization: ESI
Fragmentation mode: CID
Collision energy: Ramp 18.4-27.7 eV
Resolution: 35000
Column name: Acclaim RSLC C18 2.2um, 2.1x100mm, Thermo
Retention time: 4.435 min
Base peak: 212.1174
Precursor m/z: 212.1182
Precursor type: [M+H]+
m/z	relative intensity	assigned
53.0379	5	C4H5+
92.0499	6	C6H6N+
94.0656	54	C6H8N+
95.0493	6	C4H5N3+
95.0686	5	C5[13]CH8N+
119.0599	492	C7H7N2+
120.063	39	C6[13]CH7N2+
168.0803	5	C12H10N+
195.0909	359	C13H11N2+
196.094	37	C12[13]CH11N2+
212.1176	999	C13H14N3+
213.1206	104	C12[13]CH14N3+
214.1221	7	C11[13]C2H14N3+
