Mass spectrum: Aflatoxin G2; LC-ESI-QTOF; MS2; CE: 30 eV; R=35000; [M+H]+
Name: Aflatoxin G2
Name: Dihydroaflatoxin G1
Name: 11-methoxy-6,8,16,20-tetraoxapentacyclo[10.8.0.02,9.03,7.013,18]icosa-1,9,11,13(18)-tetraene-17,19-dione
Class: Natural Product; Fungal metabolite
Formula: C17H14O7
Exact mass: 330.074
SMILES: COC1=C2C3=C(C(=O)OCC3)C(=O)OC2=C4C5CCOC5OC4=C1
InChI: InChI=1S/C17H14O7/c1-20-9-6-10-12(8-3-5-22-17(8)23-10)14-11(9)7-2-4-21-15(18)13(7)16(19)24-14/h6,8,17H,2-5H2,1H3
Instrument: Bruker maXis Impact
Instrument type: LC-ESI-QTOF
Ms type: MS2
Ion mode: POSITIVE
Ionization: ESI
Fragmentation mode: CID
Collision energy: 30 eV
Resolution: 35000
Column name: Acclaim RSLC C18 2.2um, 2.1x100mm, Thermo
Retention time: 5.730 min
Base peak: 331.0816
Precursor m/z: 331.0812
Precursor type: [M+H]+
m/z	relative intensity	assigned
189.0548	5	C11H9O3+
201.0916	6	C13H13O2+
215.0707	5	C13H11O3+
216.0778	5	C13H12O3+
217.0863	12	C13H13O3+
229.086	12	C14H13O3+
241.0862	11	C15H13O3+
243.0651	15	C14H11O4+
245.0811	56	C14H13O4+
246.0846	8	C14H14O4+
257.0444	16	C14H9O5+
257.0809	27	C15H13O4+
269.0812	9	C16H13O4+
275.0551	41	C14H11O6+
276.059	6	C14H12O6+
285.0761	68	C16H13O5+
286.0795	11	C16H14O5+
287.0553	5	C15H11O6+
287.0907	10	C16H15O5+
303.0862	43	C16H15O6+
313.0712	235	C17H13O6+
314.0743	39	C17H14O6+
331.0819	999	C17H15O7+
