Mass spectrum: Fenthion; LC-ESI-QTOF; MS2; CE: Ramp 20.8-31.3 eV; R=35000; [M+H]+
Name: Fenthion
Name: dimethoxy-(3-methyl-4-methylsulfanylphenoxy)-sulfanylidene-lambda5-phosphane
Formula: C10H15O3PS2
Exact mass: 278.0200230
SMILES: COP(=S)(OC)OC1=CC=C(SC)C(C)=C1
InChI: InChI=1S/C10H15O3PS2/c1-8-7-9(5-6-10(8)16-4)13-14(15,11-2)12-3/h5-7H,1-4H3
Instrument: Bruker maXis Impact
Instrument type: LC-ESI-QTOF
Ms type: MS2
Ion mode: POSITIVE
Ionization: ESI
Fragmentation mode: CID
Collision energy: Ramp 20.8-31.3 eV
Resolution: 35000
Column name: Acclaim RSLC C18 2.2um, 2.1x100mm, Thermo
Retention time: 11.060 min
Base peak: 326.1756
Precursor m/z: 279.0273
Precursor type: [M+H]+
m/z	relative intensity	assigned
44.9796	11	CHS+
58.9939	5	C2H3S+
78.9937	36	CH4O2P+
91.0546	9	C7H7+
97.0103	11	C5H5S+
105.0708	86	C8H9+
106.0734	9	C7[13]CH9+
121.0092	18	H10O3PS+
122.0174	26	C7H6S+
123.0252	44	C7H7S+
124.0324	5	C6[13]CH7S+
124.981	109	C2H6O2PS+
125.0405	35	H14O3PS+
127.0151	227	C9H3O+
135.0256	10	C8H7S+
136.0331	13	C8H8S+
137.0409	58	C8H9S+
138.049	339	C8H10S+
139.0521	20	C7[13]CH10S+
140.045	7	C8H10[34]S+
142.9919	394	C2H8O3PS+
143.9937	9	C[13]CH8O3PS+
144.9877	15	C2H8O3P[34]S+
149.0224	7	C2H14OPS2+
153.0358	383	C8H9OS+
153.9893	63	C7H6S2+
154.0396	30	C7[13]CH9OS+
154.993	9	C3H8O3PS+
155.0324	12	C8H9O[34]S+
155.9862	7	C7H6S[34]S+
168.9861	147	C7H6OPS+
169.0132	999	C8H9S2+
169.9893	12	C6[13]CH6OPS+
170.0167	116	C7[13]CH9S2+
170.9841	5	C7H6OP[34]S+
171.0087	80	C8H9S[34]S+
172.013	5	C4H13OPS2+
185.0441	40	C9H13S2+
185.9884	8	C7H7O2PS+
200.0048	63	C8H9O2PS+
201.01	8	C7[13]CH9O2PS+
201.9664	5	C7H7OPS2+
214.9741	60	C8H8OPS2+
216.97	6	C8H8OPS[34]S+
231.0224	7	C9H12O3PS+
231.9767	106	C8H9O2PS2+
232.0318	9	C9H13O3PS+
232.9833	12	C7[13]CH9O2PS2+
233.9733	6	C8H9O2PS[34]S+
247.0007	416	C9H12O2PS2+
248.0026	38	C8[13]CH12O2PS2+
248.9967	29	C9H12O2PS[34]S+
265.0101	18	C9H14O3PS2+
279.0266	125	C10H16O3PS2+
280.0301	13	C9[13]CH16O3PS2+
281.0239	9	C10H16O3PS[34]S+
