Mass spectrum: Nitrendipin; LC-ESI-QTOF; MS2; CE: 10 eV; R=35000; [M+H]+
Name: Nitrendipin
Name: Nitrendipine
Name: 5-O-ethyl 3-O-methyl 2,6-dimethyl-4-(3-nitrophenyl)-1,4-dihydropyridine-3,5-dicarboxylate
Formula: C18H20N2O6
Exact mass: 360.1321364
SMILES: CCOC(=O)C1=C(C)NC(C)=C(C1C1=CC=CC(=C1)[N+]([O-])=O)C(=O)OC
InChI: InChI=1S/C18H20N2O6/c1-5-26-18(22)15-11(3)19-10(2)14(17(21)25-4)16(15)12-7-6-8-13(9-12)20(23)24/h6-9,16,19H,5H2,1-4H3
Instrument: Bruker maXis Impact
Instrument type: LC-ESI-QTOF
Ms type: MS2
Ion mode: POSITIVE
Ionization: ESI
Fragmentation mode: CID
Collision energy: 10 eV
Resolution: 35000
Column name: Acclaim RSLC C18 2.2um, 2.1x100mm, Thermo
Retention time: 9.803 min
Base peak: 361.1392
Precursor m/z: 361.1394
Precursor type: [M+H]+
m/z	relative intensity	assigned
315.0973	999	C16H15N2O5+
316.1004	143	C15[13]CH15N2O5+
317.1022	16	C14[13]C2H15N2O5+
329.1129	590	C17H17N2O5+
330.116	93	C16[13]CH17N2O5+
331.1183	13	C15[13]C2H17N2O5+
359.1235	15	C18H19N2O6+
361.1389	107	C18H21N2O6+
362.1416	21	C17[13]CH21N2O6+
