Mass spectrum: Moclobemide; LC-ESI-QTOF; MS2; CE: 10 eV; R=35000; [M+H]+
Name: Moclobemide
Name: 4-chloro-N-(2-morpholin-4-ylethyl)benzamide
Formula: C13H17ClN2O2
Exact mass: 268.0978555
SMILES: c1cc(ccc1C(=O)NCCN2CCOCC2)Cl
InChI: InChI=1S/C13H17ClN2O2/c14-12-3-1-11(2-4-12)13(17)15-5-6-16-7-9-18-10-8-16/h1-4H,5-10H2,(H,15,17)
Instrument: Bruker maXis Impact
Instrument type: LC-ESI-QTOF
Ms type: MS2
Ion mode: POSITIVE
Ionization: ESI
Fragmentation mode: CID
Collision energy: 10 eV
Resolution: 35000
Column name: Acclaim RSLC C18 2.2um, 2.1x100mm, Thermo
Retention time: 4.710 min
Base peak: 189.1016
Precursor m/z: 269.1051
Precursor type: [M+H]+
m/z	relative intensity	assigned
182.0355	94	C9H9ClNO+
183.0387	8	C8[13]CH9ClNO+
184.0327	26	C9H9[37]ClNO+
269.1046	999	C13H18ClN2O2+
270.1077	116	C12[13]CH18ClN2O2+
271.1014	211	C13H18[37]ClN2O2+
