Mass spectrum: Cortisone; LC-ESI-QTOF; MS2; CE: 20 eV; R=35000; [M+H]+
Name: Cortisone
Name: (8S,9S,10R,13S,14S,17R)-17-hydroxy-17-(2-hydroxyacetyl)-10,13-dimethyl-1,2,6,7,8,9,12,14,15,16-decahydrocyclopenta[a]phenanthrene-3,11-dione
Formula: C21H28O5
Exact mass: 360.1936740
SMILES: C[C@]12CC(=O)[C@H]3[C@@H](CCC4=CC(=O)CC[C@]34C)[C@@H]1CC[C@]2(O)C(=O)CO
InChI: InChI=1S/C21H28O5/c1-19-7-5-13(23)9-12(19)3-4-14-15-6-8-21(26,17(25)11-22)20(15,2)10-16(24)18(14)19/h9,14-15,18,22,26H,3-8,10-11H2,1-2H3/t14-,15-,18+,19-,20-,21-/m0/s1
Instrument: Bruker maXis Impact
Instrument type: LC-ESI-QTOF
Ms type: MS2
Ion mode: POSITIVE
Ionization: ESI
Fragmentation mode: CID
Collision energy: 20 eV
Resolution: 35000
Column name: Acclaim RSLC C18 2.2um, 2.1x100mm, Thermo
Retention time: 7.344 min
Base peak: 361.2007
Precursor m/z: 361.201
Precursor type: [M+H]+
m/z	relative intensity	assigned
121.0642	19	C8H9O+
135.0796	8	C9H11O+
135.1159	5	C10H15+
139.0735	9	C8H11O2+
145.0995	9	C11H13+
147.0798	11	C10H11O+
161.0946	6	C11H13O+
163.1107	182	C11H15O+
164.1138	24	C10[13]CH15O+
171.1152	5	C13H15+
173.0949	5	C12H13O+
189.0903	5	C12H13O2+
191.1062	5	C12H15O2+
199.1095	6	C14H15O+
225.1257	5	C16H17O+
239.1409	9	C17H19O+
241.1209	5	C16H17O2+
241.1563	6	C17H21O+
255.1736	6	C18H23O+
257.153	6	C17H21O2+
261.1479	5	C16H21O3+
265.1588	18	C19H21O+
267.1384	7	C18H19O2+
267.1737	22	C19H23O+
268.1775	5	C18[13]CH23O+
279.1733	9	C20H23O+
283.1689	26	C19H23O2+
284.1742	11	C19H24O2+
285.1832	21	C19H25O2+
295.1684	10	C20H23O2+
297.1875	7	C20H25O2+
299.1645	24	C19H23O3+
300.1701	5	C18[13]CH23O3+
301.1793	34	C19H25O3+
302.1836	9	C18[13]CH25O3+
307.1694	16	C21H23O2+
313.1794	15	C20H25O3+
315.1944	7	C20H27O3+
325.1793	29	C21H25O3+
326.1829	8	C20[13]CH25O3+
343.1898	65	C21H27O4+
344.1946	16	C20[13]CH27O4+
361.201	999	C21H29O5+
362.204	209	C20[13]CH29O5+
363.207	33	C19[13]C2H29O5+
