Mass spectrum: Lorazepam; LC-ESI-QTOF; MS2; CE: 20 eV; R=35000; [M+H]+
Name: Lorazepam
Name: 7-chloro-5-(2-chlorophenyl)-3-hydroxy-1,3-dihydro-1,4-benzodiazepin-2-one
Formula: C15H10Cl2N2O2
Exact mass: 320.0119329
SMILES: OC1N=C(C2=CC=CC=C2Cl)C2=C(NC1=O)C=CC(Cl)=C2
InChI: InChI=1S/C15H10Cl2N2O2/c16-8-5-6-12-10(7-8)13(19-15(21)14(20)18-12)9-3-1-2-4-11(9)17/h1-7,15,21H,(H,18,20)
Instrument: Bruker maXis Impact
Instrument type: LC-ESI-QTOF
Ms type: MS2
Ion mode: POSITIVE
Ionization: ESI
Fragmentation mode: CID
Collision energy: 20 eV
Resolution: 35000
Column name: Acclaim RSLC C18 2.2um, 2.1x100mm, Thermo
Retention time: 8.299 min
Base peak: 278.1894
Precursor m/z: 321.0192
Precursor type: [M+H]+
m/z	relative intensity	assigned
138.0094	16	C10H2O+
156.0207	9	C10H4O2+
166.0041	19	C11H2O2+
229.0521	130	C13H10ClN2+
230.054	23	C12[13]CH10ClN2+
231.0487	36	C13H10[37]ClN2+
232.0516	10	C13H11ClNO+
250.0165	11	C13H10Cl2N+
252.0147	13	C13H10Cl[37]ClN+
265.0279	115	C13H11Cl2N2+
266.0304	17	C12[13]CH11Cl2N2+
267.0248	70	C13H11Cl[37]ClN2+
275.0133	999	C14H9Cl2N2+
276.0167	177	C13[13]CH9Cl2N2+
277.0103	613	C14H9Cl[37]ClN2+
277.9927	11	C14H8Cl2O2+
278.0124	61	C14H10Cl2NO+
292.0152	13	C14H10Cl2N2O+
294.0159	8	C14H10Cl[37]ClN2O+
303.0081	790	C15H9Cl2N2O+
304.0111	145	C14[13]CH9Cl2N2O+
305.0055	519	C15H9Cl[37]ClN2O+
306.008	59	C15H10Cl2NO2+
321.018	525	C15H11Cl2N2O2+
322.0214	109	C14[13]CH11Cl2N2O2+
323.0163	358	C15H11Cl[37]ClN2O2+
