Mass spectrum: 6-methyl-2-thiouracil; LC-ESI-QTOF; MS2; CE: 10 eV; R=35000; [M+H]+
Name: 6-methyl-2-thiouracil
Name: methylthiouracil
Name: 6-methyl-2-sulfanylidene-1H-pyrimidin-4-one
Formula: C5H6N2OS
Exact mass: 142.0200838
SMILES: Cc1cc(=O)[nH]c(=S)[nH]1
InChI: InChI=1S/C5H6N2OS/c1-3-2-4(8)7-5(9)6-3/h2H,1H3,(H2,6,7,8,9)
Instrument: Bruker maXis Impact
Instrument type: LC-ESI-QTOF
Ms type: MS2
Ion mode: POSITIVE
Ionization: ESI
Fragmentation mode: CID
Collision energy: 10 eV
Resolution: 35000
Column name: Acclaim RSLC C18 2.2um, 2.1x100mm, Thermo
Retention time: 2.777 min
Base peak: 121.077
Precursor m/z: 143.0274
Precursor type: [M+H]+
m/z	relative intensity	assigned
143.0281	999	C5H7N2OS+
