Mass spectrum: 2,6-Di-tert-butyl-1,4-benzoquinone; GC-APCI-QTOF; MS2; CE: 20 eV; R=35000; [M+H]+
Name: 2,6-Di-tert-butyl-1,4-benzoquinone
Formula: C14H20O2
Exact mass: 220.1463
SMILES: CC(C)(C)C1=CC(=O)C=C(C1=O)C(C)(C)C
InChI: InChI=1S/C14H20O2/c1-13(2,3)10-7-9(15)8-11(12(10)16)14(4,5)6/h7-8H,1-6H3
Instrument: Bruker 450 GC coupled to maXis Impact
Instrument type: GC-APCI-QTOF
Ms type: MS2
Ion mode: POSITIVE
Ionization: APCI
Fragmentation mode: CID
Collision energy: 20 eV
Resolution: 35000
Column name: Rxi-5Sil MS column, 30m, 0.25mm i.d., 0.25Âµm film thickness, Restek
Retention time: 12.114 min
Base peak: 283.2622
Precursor m/z: 221.1536
Precursor type: [M+H]+
m/z	relative intensity	assigned
135.0802	516	C9H11O+
135.1189	602	C10H15+
136.086	447	C9H12O+
137.0983	551	C9H13O+
149.1324	654	C11H17+
177.1312	999	C12H17O+
178.1326	551	C12H18O+
193.159	533	C13H21O+
