Mass spectrum: Thiacloprid; LC-ESI-QTOF; MS2; CE: 40 eV; R=35000; [M+H]+
Name: Thiacloprid
Name: [3-[(6-chloropyridin-3-yl)methyl]-1,3-thiazolidin-2-ylidene]cyanamide
Formula: C10H9ClN4S
Exact mass: 252.0236450
SMILES: C1CSC(=NC#N)N1CC2=CN=C(C=C2)Cl
InChI: InChI=1S/C10H9ClN4S/c11-9-2-1-8(5-13-9)6-15-3-4-16-10(15)14-7-12/h1-2,5H,3-4,6H2
Instrument: Bruker maXis Impact
Instrument type: LC-ESI-QTOF
Ms type: MS2
Ion mode: POSITIVE
Ionization: ESI
Fragmentation mode: CID
Collision energy: 40 eV
Resolution: 35000
Column name: Acclaim RSLC C18 2.2um, 2.1x100mm, Thermo
Retention time: 5.5 min
Base peak: 253.0307
Precursor m/z: 253.0309
Precursor type: [M+H]+
m/z	relative intensity	assigned
126.009	999	
127.0133	60	C5[13]CH5ClN+
128.0068	279	C6H5[37]ClN+
144.0202	43	C6H7ClNO+
145.023	4	C5[13]CH7ClNO+
146.0172	13	C6H7[37]ClNO+
