Mass spectrum: 2-Amino-3,8-dimethylimidazo-[4,5-f]quinoxaline (MeIQx); LC-ESI-QTOF; MS2; CE: 50 eV; R=35000; [M+H]+
Name: 2-Amino-3,8-dimethylimidazo-[4,5-f]quinoxaline (MeIQx)
Name: MeIQx
Name: 3,8-dimethylimidazo[4,5-f]quinoxalin-2-amine
Formula: C11H11N5
Exact mass: 213.1014454
SMILES: CN1C(N)=NC2=C1C=CC1=NC=C(C)N=C21
InChI: InChI=1S/C11H11N5/c1-6-5-13-7-3-4-8-10(9(7)14-6)15-11(12)16(8)2/h3-5H,1-2H3,(H2,12,15)
Instrument: Bruker maXis Impact
Instrument type: LC-ESI-QTOF
Ms type: MS2
Ion mode: POSITIVE
Ionization: ESI
Fragmentation mode: CID
Collision energy: 50 eV
Resolution: 35000
Column name: Acclaim RSLC C18 2.2um, 2.1x100mm, Thermo
Retention time: 4.058 min
Base peak: 214.1081
Precursor m/z: 214.1087
Precursor type: [M+H]+
m/z	relative intensity	assigned
116.0486	14	C8H6N+
117.0437	15	C7H5N2+
117.0561	7	C8H7N+
118.0516	19	C7H6N2+
119.0469	7	C6H5N3+
119.059	25	C7H7N2+
128.036	8	C8H4N2+
129.0436	43	C8H5N2+
130.0389	71	C7H4N3+
130.0501	20	C8H6N2+
131.0469	999	C7H5N3+
132.0504	77	C6[13]CH5N3+
133.061	5	C7H7N3+
133.0744	11	C8H9N2+
142.0513	31	C9H6N2+
143.0589	45	C9H7N2+
144.0541	81	C8H6N3+
145.0621	82	C8H7N3+
146.0697	139	C8H8N3+
147.0733	14	C7[13]CH8N3+
148.0734	6	C7H8N4+
154.038	5	C9H4N3+
155.0467	8	C9H5N3+
156.0542	45	C9H6N3+
157.051	19	C8H5N4+
157.0611	32	C9H7N3+
158.0573	34	C8H6N4+
159.0644	11	C8H7N4+
159.0769	10	C9H9N3+
160.0854	29	C9H10N3+
170.0698	25	C10H8N3+
171.0653	375	C9H7N4+
172.0727	299	C9H8N4+
174.0744	7	C8H8N5+
184.0599	17	C9H6N5+
185.081	15	C10H9N4+
187.0958	8	C10H11N4+
195.0652	9	C11H7N4+
197.0809	18	C11H9N4+
198.0762	68	C10H8N5+
199.0842	373	C10H9N5+
200.0868	42	C9[13]CH9N5+
212.0918	14	C11H10N5+
213.0986	6	C11H11N5+
214.1075	15	C11H12N5+
