Mass spectrum: Acetyl-sulfamethoxazole; LC-ESI-QTOF; MS2; CE: 30 eV; R=35000; [M+H]+
Name: Acetyl-sulfamethoxazole
Name: Acetylsulfamethoxazole
Name: N-[4-[(5-methyl-1,2-oxazol-3-yl)sulfamoyl]phenyl]acetamide
Formula: C12H13N3O4S
Exact mass: 295.0626769
SMILES: CC(=O)NC1=CC=C(C=C1)S(=O)(=O)NC1=NOC(C)=C1
InChI: InChI=1S/C12H13N3O4S/c1-8-7-12(14-19-8)15-20(17,18)11-5-3-10(4-6-11)13-9(2)16/h3-7H,1-2H3,(H,13,16)(H,14,15)
Instrument: Bruker maXis Impact
Instrument type: LC-ESI-QTOF
Ms type: MS2
Ion mode: POSITIVE
Ionization: ESI
Fragmentation mode: CID
Collision energy: 30 eV
Resolution: 35000
Column name: Acclaim RSLC C18 2.2um, 2.1x100mm, Thermo
Retention time: 5.213 min
Base peak: 296.0693
Precursor m/z: 296.07
Precursor type: [M+H]+
m/z	relative intensity	assigned
131.06	13	C8H7N2+
132.0673	22	C8H8N2+
133.0646	8	C9H9O+
134.0589	999	C8H8NO+
135.0625	111	C7[13]CH8NO+
136.0743	101	C8H10NO+
137.0784	10	C7[13]CH10NO+
140.015	7	C3H8O4S+
146.07	179	C8H8N3+
147.0772	134	C5H11N2O3+
148.0613	7	C5H10NO4+
148.0848	30	C5H12N2O3+
149.0698	9	C8H9N2O+
150.0544	67	H12N3O4S+
150.0778	7	C8H10N2O+
151.0304	8	C4H9NO3S+
151.0574	10	C9H11S+
152.0698	20	H14N3O4S+
156.0097	120	C9H2NO2+
156.9956	9	C6H5O3S+
157.0134	16	C8[13]CH2NO2+
158.0072	10	C9H4NS+
160.0855	291	C6H12N2O3+
161.0003	32	C4H5N2O3S+
161.0708	12	C9H9N2O+
161.0883	31	C5[13]CH12N2O3+
162.0649	89	C8H8N3O+
163.0864	7	C9H11N2O+
167.026	8	C7H7N2OS+
172.0853	10	C7H12N2O3+
173.0578	8	C9H7N3O+
174.0778	8	C10H10N2O+
176.0263	47	C5H8N2O3S+
177.0111	12	C8H5N2OS+
188.0802	112	C7H12N2O4+
189.0886	31	C10H11N3O+
190.0948	42	C7H14N2O4+
194.0369	68	C8H8N3OS+
195.0218	8	C8H7N2O2S+
195.0415	7	C7[13]CH8N3OS+
198.0206	348	C8H8NO3S+
199.0239	35	C7[13]CH8NO3S+
200.0185	14	C8H8NO3[34]S+
201.0644	33	C11H9N2O2+
218.0384	10	C10H8N3OS+
236.0478	12	C10H10N3O2S+
296.0711	26	C12H14N3O4S+
