Mass spectrum: Methiocarb; LC-ESI-QTOF; MS2; CE: 50 eV; R=35000; [M+H]+
Name: Methiocarb
Name: (3,5-dimethyl-4-methylsulfanylphenyl) N-methylcarbamate
Formula: C11H15NO2S
Exact mass: 225.0823497
SMILES: CNC(=O)OC1=CC(C)=C(SC)C(C)=C1
InChI: InChI=1S/C11H15NO2S/c1-7-5-9(14-11(13)12-3)6-8(2)10(7)15-4/h5-6H,1-4H3,(H,12,13)
Instrument: Bruker maXis Impact
Instrument type: LC-ESI-QTOF
Ms type: MS2
Ion mode: POSITIVE
Ionization: ESI
Fragmentation mode: CID
Collision energy: 50 eV
Resolution: 35000
Column name: Acclaim RSLC C18 2.2um, 2.1x100mm, Thermo
Retention time: 9.397 min
Base peak: 226.0892
Precursor m/z: 226.0896
Precursor type: [M+H]+
m/z	relative intensity	assigned
107.051	29	C4H11OS+
108.0565	12	C7H8O+
111.0258	12	C6H7S+
121.0636	999	C8H9O+
122.0708	429	C8H10O+
123.0761	57	C7[13]CH10O+
125.0413	44	C7H9S+
126.0484	18	C7H10S+
135.0253	75	C8H7S+
137.0039	12	C7H5OS+
139.0201	61	C7H7OS+
153.0353	23	C8H9OS+
154.0425	92	C11H6O+
155.0465	13	C10[13]CH6O+
169.0347	15	C8H9O2S+
170.0329	13	C11H6O2+
198.9727	16	C10HNO2S+
