Mass spectrum: Diuron; LC-ESI-QTOF; MS2; CE: 40 eV; R=35000; [M+H]+
Name: Diuron
Name: 3-(3,4-dichlorophenyl)-1,1-dimethylurea
Formula: C9H10Cl2N2O
Exact mass: 232.0170183
SMILES: CN(C)C(=O)NC1=CC=C(Cl)C(Cl)=C1
InChI: InChI=1S/C9H10Cl2N2O/c1-13(2)9(14)12-6-3-4-7(10)8(11)5-6/h3-5H,1-2H3,(H,12,14)
Instrument: Bruker maXis Impact
Instrument type: LC-ESI-QTOF
Ms type: MS2
Ion mode: POSITIVE
Ionization: ESI
Fragmentation mode: CID
Collision energy: 40 eV
Resolution: 35000
Column name: Acclaim RSLC C18 2.2um, 2.1x100mm, Thermo
Retention time: 8.587 min
Base peak: 233.0239
Precursor m/z: 233.0243
Precursor type: [M+H]+
m/z	relative intensity	assigned
123.9943	74	C6H3ClN+
125.0019	258	C6H4ClN+
125.9903	22	C6H3[37]ClN+
126.999	77	C6H4[37]ClN+
128.0009	11	C7N2O+
132.9596	541	C5H3Cl2+
133.9636	27	C4[13]CH3Cl2+
134.9565	345	C5H3Cl[37]Cl+
135.9607	12	C3H2Cl2N2+
144.9589	31	C6H3Cl2+
146.9562	18	C6H3Cl[37]Cl+
149.0143	15	C9H6Cl+
151.0305	12	C9H8Cl+
152.996	124	C7H4ClNO+
154.9939	28	C7H4[37]ClNO+
159.9702	999	C6H4Cl2N+
160.9733	64	C5[13]CH4Cl2N+
161.9675	573	C6H4Cl[37]ClN+
162.9703	42	C6H5Cl2O+
172.9654	116	C6H3Cl2N2+
174.9624	72	C6H3Cl[37]ClN2+
187.9651	27	C7H4Cl2NO+
189.9605	16	C7H4Cl[37]ClNO+
