Mass spectrum: Fludrocortisone acetate; LC-ESI-QTOF; MS2; CE: 20 eV; R=35000; [M+H]+
Name: Fludrocortisone acetate
Name: [2-[(8S,9R,10S,11S,13S,14S,17R)-9-fluoro-11,17-dihydroxy-10,13-dimethyl-3-oxo-1,2,6,7,8,11,12,14,15,16-decahydrocyclopenta[a]phenanthren-17-yl]-2-oxoethyl] acetate
Formula: C23H31FO6
Exact mass: 422.2104669
SMILES: CC(=O)OCC(=O)[C@]1(CC[C@@H]2[C@@]1(C[C@@H]([C@]3([C@H]2CCC4=CC(=O)CC[C@@]43C)F)O)C)O
InChI: InChI=1S/C23H31FO6/c1-13(25)30-12-19(28)22(29)9-7-16-17-5-4-14-10-15(26)6-8-20(14,2)23(17,24)18(27)11-21(16,22)3/h10,16-18,27,29H,4-9,11-12H2,1-3H3/t16-,17-,18-,20-,21-,22-,23-/m0/s1
Instrument: Bruker maXis Impact
Instrument type: LC-ESI-QTOF
Ms type: MS2
Ion mode: POSITIVE
Ionization: ESI
Fragmentation mode: CID
Collision energy: 20 eV
Resolution: 35000
Column name: Acclaim RSLC C18 2.2um, 2.1x100mm, Thermo
Retention time: 8.633 min
Base peak: 347.2243
Precursor m/z: 423.2177
Precursor type: [M+H]+
m/z	relative intensity	assigned
121.0643	5	C8H9O+
181.1028	8	C11H14FO+
213.1293	6	C12H18FO2+
221.1329	6	C17H17+
227.1411	5	C16H19O+
239.1445	26	C14H20FO2+
241.1588	5	C17H21O+
247.1461	5	C19H19+
257.155	9	C14H22FO3+
265.1595	9	C16H22FO2+
267.1754	7	C16H24FO2+
279.1761	10	C17H24FO2+
283.1718	8	C16H24FO3+
284.1787	6	C16H25FO3+
285.1855	6	C16H26FO3+
297.1873	7	C17H26FO3+
307.1698	24	C21H23O2+
308.1738	6	C21H24O2+
325.1818	38	C18H26FO4+
326.1857	10	C21H26O3+
343.1921	44	C18H28FO5+
344.2001	6	C18H29FO5+
345.1911	6	C21H26FO3+
361.2007	5	C21H29O5+
367.1934	8	C20H28FO5+
385.2032	20	C20H30FO6+
386.2183	5	C20H31FO6+
403.2145	10	C23H31O6+
405.2075	5	C23H30FO5+
423.2211	999	C23H32FO6+
424.2252	268	C22[13]CH32FO6+
425.2256	43	C21[13]C2H32FO6+
