Mass spectrum: Propylparaben; LC-ESI-QTOF; MS2; CE: Ramp 19.2-28.7 eV; R=35000; [M-H]-
Name: Propylparaben
Name: propyl 4-hydroxybenzoate
Formula: C10H12O3
Exact mass: 180.0786442
SMILES: CCCOC(=O)C1=CC=C(O)C=C1
InChI: InChI=1S/C10H12O3/c1-2-7-13-10(12)8-3-5-9(11)6-4-8/h3-6,11H,2,7H2,1H3
Instrument: Bruker maXis Impact
Instrument type: LC-ESI-QTOF
Ms type: MS2
Ion mode: NEGATIVE
Ionization: ESI
Fragmentation mode: CID
Collision energy: Ramp 19.2-28.7 eV
Resolution: 35000
Column name: Acclaim RSLC C18 2.2um, 2.1x100mm, Thermo
Retention time: 8.302 min
Base peak: 59.0132
Precursor m/z: 179.0714
Precursor type: [M-H]-
m/z	relative intensity	assigned
57.0339	152	C3H5O-
70.0068	58	C3H2O2-
82.0047	49	C4H2O2-
91.0171	171	C6H3O-
92.0248	475	C6H4O-
93.0333	999	C6H5O-
95.0127	406	C5H3O2-
108.0206	286	C6H4O2-
121.029	86	C7H5O2-
123.0082	74	C6H3O3-
136.017	855	C7H4O3-
137.0247	565	C7H5O3-
138.0313	58	C7H6O3-
179.0708	654	C10H11O3-
180.0756	71	C9[13]CH11O3-
