Mass spectrum: Vomitoxin; LC-ESI-QTOF; MS2; CE: 20 eV; R=35000; [M+H]+
Name: Vomitoxin
Name: Rd toxin
Name: 3,10-dihydroxy-2-(hydroxymethyl)-1,5-dimethylspiro[8-oxatricyclo[7.2.1.02,7]dodec-5-ene-12,2`-oxirane]-4-one
Class: Natural Product; Fungal metabolite
Formula: C15H20O6
Exact mass: 296.126
SMILES: CC1=CC2C(C(C1=O)O)(C3(CC(C(C34CO4)O2)O)C)CO
InChI: InChI=1S/C15H20O6/c1-7-3-9-14(5-16,11(19)10(7)18)13(2)4-8(17)12(21-9)15(13)6-20-15/h3,8-9,11-12,16-17,19H,4-6H2,1-2H3
Instrument: Bruker maXis Impact
Instrument type: LC-ESI-QTOF
Ms type: MS2
Ion mode: POSITIVE
Ionization: ESI
Fragmentation mode: CID
Collision energy: 20 eV
Resolution: 35000
Column name: Acclaim RSLC C18 2.2um, 2.1x100mm, Thermo
Retention time: 3.924 min
Base peak: 297.1333
Precursor m/z: 297.1333
Precursor type: [M+H]+
m/z	relative intensity	assigned
125.0587	214	C7H9O2+
145.1011	192	C11H13+
159.0807	222	C11H11O+
161.0599	195	C10H9O2+
173.0965	183	C12H13O+
175.0767	280	C11H11O2+
177.0904	188	C11H13O2+
189.0913	278	C12H13O2+
197.0946	293	C14H13O+
203.1072	999	C13H15O2+
231.1032	505	C14H15O3+
249.1102	547	C14H17O4+
251.1281	190	C14H19O4+
261.1119	214	C15H17O4+
279.1251	205	C15H19O5+
