Mass spectrum: Bis (2,6-diisopropylphenyl)-carbodiimide; GC-APCI-QTOF; MS2; CE: 10 eV; R=35000; [M]+
Name: Bis (2,6-diisopropylphenyl)-carbodiimide
Formula: C25H34N2
Exact mass: 362.2722
SMILES: CC(C)C1=C(C(=CC=C1)C(C)C)N=C=NC2=C(C=CC=C2C(C)C)C(C)C
InChI: InChI=1S/C25H34N2/c1-16(2)20-11-9-12-21(17(3)4)24(20)26-15-27-25-22(18(5)6)13-10-14-23(25)19(7)8/h9-14,16-19H,1-8H3
Instrument: Bruker 450 GC coupled to maXis Impact
Instrument type: GC-APCI-QTOF
Ms type: MS2
Ion mode: POSITIVE
Ionization: APCI
Fragmentation mode: CID
Collision energy: 10 eV
Resolution: 35000
Column name: Rxi-5Sil MS column, 30m, 0.25mm i.d., 0.25Âµm film thickness, Restek
Retention time: 22.597 min
Base peak: 283.2621
Precursor m/z: 362.2717
Precursor type: [M]+
m/z	relative intensity	assigned
186.1306	182	C13H16N+
214.1635	82	C15H20N+
228.1751	76	C16H22N+
319.2169	129	C22H27N2+
319.2274	161	C23H29N+
321.2367	111	C22H29N2+
334.2406	85	C23H30N2+
347.2514	346	C24H31N2+
348.2537	158	C24H32N2+
361.2688	123	C25H33N2+
362.271	999	C25H34N2+
