Mass spectrum: Galaxolide; LC-ESI-QTOF; MS2; CE: 40 eV; R=35000; [M+H]+
Name: Galaxolide
Name: Cyclopenta[g]-2-benzopyran, 1,3,4,6,7,8-hexahydro-4,6,6,7,8,8-hexamethyl-
Name: 4,6,6,7,8,8-hexamethyl-1,3,4,7-tetrahydrocyclopenta[g]isochromene
Formula: C18H26O
Exact mass: 258.1983655
SMILES: CC1C(C)(C)C2=CC3=C(C=C2C1(C)C)C(C)COC3
InChI: InChI=1S/C18H26O/c1-11-9-19-10-13-7-15-16(8-14(11)13)18(5,6)12(2)17(15,3)4/h7-8,11-12H,9-10H2,1-6H3
Instrument: Bruker maXis Impact
Instrument type: LC-ESI-QTOF
Ms type: MS2
Ion mode: POSITIVE
Ionization: ESI
Fragmentation mode: CID
Collision energy: 40 eV
Resolution: 35000
Column name: Acclaim RSLC C18 2.2um, 2.1x100mm, Thermo
Retention time: 13.484 min
Base peak: 259.2051
Precursor m/z: 259.2056
Precursor type: [M+H]+
m/z	relative intensity	assigned
115.0542	41	C9H7+
117.0676	42	C9H9+
119.0839	334	C9H11+
120.0874	35	C8[13]CH11+
128.0609	89	C10H8+
129.0681	227	C10H9+
131.0844	83	C10H11+
132.0552	48	C9H8O+
133.1002	283	C10H13+
134.1027	34	C9[13]CH13+
141.0669	80	C11H9+
142.0761	49	C11H10+
146.0715	30	C10H10O+
147.0788	716	C10H11O+
148.0824	94	C9[13]CH11O+
157.0998	74	C12H13+
159.0779	32	C11H11O+
160.085	45	C11H12O+
161.0937	188	C11H13O+
169.1006	41	C13H13+
171.117	31	C13H15+
175.1102	999	C12H15O+
176.114	137	C11[13]CH15O+
187.1121	34	C13H15O+
194.1088	32	C15H14+
209.1317	85	C16H17+
210.1354	29	C16H18+
212.1186	31	C15H16O+
224.1548	38	C17H20+
227.1409	290	C16H19O+
228.1485	98	C16H20O+
