Mass spectrum: o-Dianisidine; LC-ESI-QTOF; MS2; CE: 50 eV; R=35000; [M+H]+
Name: o-Dianisidine
Name: 3,3`-Dimethoxybenzidine
Name: 4-(4-amino-3-methoxyphenyl)-2-methoxyaniline
Formula: C14H16N2O2
Exact mass: 244.1211778
SMILES: COC1=CC(=CC=C1N)C1=CC(OC)=C(N)C=C1
InChI: InChI=1S/C14H16N2O2/c1-17-13-7-9(3-5-11(13)15)10-4-6-12(16)14(8-10)18-2/h3-8H,15-16H2,1-2H3
Instrument: Bruker maXis Impact
Instrument type: LC-ESI-QTOF
Ms type: MS2
Ion mode: POSITIVE
Ionization: ESI
Fragmentation mode: CID
Collision energy: 50 eV
Resolution: 35000
Column name: Acclaim RSLC C18 2.2um, 2.1x100mm, Thermo
Retention time: 5.513 min
Base peak: 245.1273
Precursor m/z: 245.1285
Precursor type: [M+H]+
m/z	relative intensity	assigned
115.0536	33	C9H7+
117.0565	10	C8H7N+
118.0639	5	C8H8N+
126.0453	7	C10H6+
127.0532	5	C10H7+
130.064	67	C9H8N+
131.0701	12	C9H9N+
132.0793	10	C9H10N+
140.048	12	C10H6N+
141.0557	11	C10H7N+
142.0635	37	C10H8N+
143.0715	121	C10H9N+
144.0753	11	C9[13]CH9N+
146.0586	11	C9H8NO+
153.0559	20	C11H7N+
154.0638	56	C11H8N+
155.0599	13	C10H7N2+
157.0747	47	C10H9N2+
158.0826	999	C10H10N2+
159.0859	84	C9[13]CH10N2+
160.0752	6	C10H10NO+
160.0892	5	C8[13]C2H10N2+
168.0665	8	C11H8N2+
169.0747	110	C11H9N2+
170.0584	17	C11H8NO+
170.0819	74	C11H10N2+
171.0653	5	C11H9NO+
171.0892	24	C11H11N2+
181.0743	18	C12H9N2+
182.0819	17	C12H10N2+
186.0775	151	C11H10N2O+
187.0854	532	C11H11N2O+
188.0881	58	C10[13]CH11N2O+
197.0692	10	C12H9N2O+
198.0769	11	C12H10N2O+
201.1011	35	C12H13N2O+
202.1042	5	C11[13]CH13N2O+
