Mass spectrum: Mirtazapine; LC-ESI-QTOF; MS2; CE: 50 eV; R=35000; [M+H]+
Name: Mirtazapine
Formula: C17H19N3
Exact mass: 265.1578976
SMILES: CN1CCN2C(C1)C1=C(CC3=C2N=CC=C3)C=CC=C1
InChI: InChI=1S/C17H19N3/c1-19-9-10-20-16(12-19)15-7-3-2-5-13(15)11-14-6-4-8-18-17(14)20/h2-8,16H,9-12H2,1H3
Instrument: Bruker maXis Impact
Instrument type: LC-ESI-QTOF
Ms type: MS2
Ion mode: POSITIVE
Ionization: ESI
Fragmentation mode: CID
Collision energy: 50 eV
Resolution: 35000
Column name: Acclaim RSLC C18 2.2um, 2.1x100mm, Thermo
Retention time: 5.5 min
Base peak: 266.1649
Precursor m/z: 266.1652
Precursor type: [M+H]+
m/z	relative intensity	assigned
115.0536	15	C9H7+
116.0487	6	C8H6N+
117.0444	5	C7H5N2+
128.0604	5	C10H8+
131.0599	8	C8H7N2+
131.0718	11	C9H9N+
139.0538	6	C11H7+
141.0683	14	C11H9+
144.0796	15	C10H10N+
151.0529	10	C12H7+
152.0607	13	C12H8+
153.0569	5	C11H7N+
153.0685	8	C12H9+
154.0643	8	C11H8N+
165.0687	11	C13H9+
168.0792	76	C12H10N+
169.0636	12	C10H7N3+
177.0564	8	C13H7N+
180.0795	66	C13H10N+
182.0953	10	C13H12N+
191.0718	10	C14H9N+
192.0788	12	C14H10N+
195.0907	999	C13H11N2+
196.0766	6	C13H10NO+
197.0969	5	C11[13]C2H11N2+
205.0759	10	C14H9N2+
206.0823	9	C14H10N2+
208.0975	9	C14H12N2+
218.0835	6	C15H10N2+
219.0911	33	C15H11N2+
220.0963	6	C14[13]CH11N2+
221.1065	5	C15H13N2+
