Mass spectrum: Pioglitazone; LC-ESI-QTOF; MS2; CE: 10 eV; R=35000; [M-H]-
Name: Pioglitazone
Name: 5-[[4-[2-(5-ethylpyridin-2-yl)ethoxy]phenyl]methyl]-1,3-thiazolidine-2,4-dione
Formula: C19H20N2O3S
Exact mass: 356.1194635
SMILES: CCC1=CN=C(CCOC2=CC=C(CC3SC(=O)NC3=O)C=C2)C=C1
InChI: InChI=1S/C19H20N2O3S/c1-2-13-3-6-15(20-12-13)9-10-24-16-7-4-14(5-8-16)11-17-18(22)21-19(23)25-17/h3-8,12,17H,2,9-11H2,1H3,(H,21,22,23)
Instrument: Bruker maXis Impact
Instrument type: LC-ESI-QTOF
Ms type: MS2
Ion mode: NEGATIVE
Ionization: ESI
Fragmentation mode: CID
Collision energy: 10 eV
Resolution: 35000
Column name: Acclaim RSLC C18 2.2um, 2.1x100mm, Thermo
Retention time: 9.311 min
Base peak: 355.1103
Precursor m/z: 355.1122
Precursor type: [M-H]-
m/z	relative intensity	assigned
312.0997	32	C17H16N2O2S-
355.1109	999	C19H19N2O3S-
356.1143	294	C18[13]CH19N2O3S-
357.1091	74	C19H19N2O3[34]S-
