Mass spectrum: Cetirizine; LC-ESI-QTOF; MS2; CE: Ramp 23.4-35.1 eV; R=35000; [M+H]+
Name: Cetirizine
Name: 2-[2-[4-[(4-chlorophenyl)-phenylmethyl]piperazin-1-yl]ethoxy]acetic acid
Formula: C21H25ClN2O3
Exact mass: 388.1553703
SMILES: OC(=O)COCCN1CCN(CC1)C(C1=CC=CC=C1)C1=CC=C(Cl)C=C1
InChI: InChI=1S/C21H25ClN2O3/c22-19-8-6-18(7-9-19)21(17-4-2-1-3-5-17)24-12-10-23(11-13-24)14-15-27-16-20(25)26/h1-9,21H,10-16H2,(H,25,26)
Instrument: Bruker maXis Impact
Instrument type: LC-ESI-QTOF
Ms type: MS2
Ion mode: POSITIVE
Ionization: ESI
Fragmentation mode: CID
Collision energy: Ramp 23.4-35.1 eV
Resolution: 35000
Column name: Acclaim RSLC C18 2.2um, 2.1x100mm, Thermo
Retention time: 8.892 min
Base peak: 389.1633
Precursor m/z: 389.1626
Precursor type: [M+H]+
m/z	relative intensity	assigned
72.0805	45	C4H10N+
165.0694	97	C13H9+
166.0771	220	C13H10+
167.0805	22	C12[13]CH10+
183.08	6	C13H11O+
187.1073	14	C8H15N2O3+
193.0755	16	C13H9N2+
201.0468	999	C13H10Cl+
202.0497	183	C12[13]CH10Cl+
203.0436	428	C13H10[37]Cl+
204.0468	32	C11H9ClN2+
389.1634	5	C21H26ClN2O3+
