Mass spectrum: Methylprednisolone; LC-ESI-QTOF; MS2; CE: 10 eV; R=35000; [M+H]+
Name: Methylprednisolone
Name: methylprednisolone
Name: (6S,8S,9S,10R,11S,13S,14S,17R)-11,17-dihydroxy-17-(2-hydroxyacetyl)-6,10,13-trimethyl-7,8,9,11,12,14,15,16-octahydro-6H-cyclopenta[a]phenanthren-3-one
Formula: C22H30O5
Exact mass: 374.2093241
SMILES: C[C@H]1C[C@H]2[C@@H]3CC[C@@]([C@]3(C[C@@H]([C@@H]2[C@@]4(C1=CC(=O)C=C4)C)O)C)(C(=O)CO)O
InChI: InChI=1S/C22H30O5/c1-12-8-14-15-5-7-22(27,18(26)11-23)21(15,3)10-17(25)19(14)20(2)6-4-13(24)9-16(12)20/h4,6,9,12,14-15,17,19,23,25,27H,5,7-8,10-11H2,1-3H3/t12-,14-,15-,17-,19+,20-,21-,22-/m0/s1
Instrument: Bruker maXis Impact
Instrument type: LC-ESI-QTOF
Ms type: MS2
Ion mode: POSITIVE
Ionization: ESI
Fragmentation mode: CID
Collision energy: 10 eV
Resolution: 35000
Column name: Acclaim RSLC C18 2.2um, 2.1x100mm, Thermo
Retention time: 8.599 min
Base peak: 375.219
Precursor m/z: 375.2166
Precursor type: [M+H]+
m/z	relative intensity	assigned
135.0806	28	C9H11O+
147.0808	6	C10H11O+
161.0968	52	C11H13O+
162.1012	6	C10[13]CH13O+
165.0913	7	C10H13O2+
175.1125	7	C12H15O+
183.1017	8	C10H15O3+
185.0968	19	C13H13O+
187.1119	22	C13H15O+
211.1132	6	C15H15O+
213.1299	11	C15H17O+
225.1283	6	C16H17O+
231.1381	6	C15H19O2+
237.1266	9	C17H17O+
239.1456	7	C17H19O+
251.1438	20	C18H19O+
252.149	4	C17[13]CH19O+
253.1602	42	C18H21O+
254.162	10	C17[13]CH21O+
255.175	11	C18H23O+
263.144	5	C19H19O+
267.1393	7	C18H19O2+
277.1592	15	C20H21O+
279.1389	8	C19H19O2+
279.1755	45	C20H23O+
280.1792	13	C19[13]CH23O+
281.1903	21	C20H25O+
282.1955	5	C19[13]CH25O+
291.1776	9	C21H23O+
293.1545	33	C20H21O2+
293.1912	30	C21H25O+
294.159	8	C19[13]CH21O2+
294.1941	5	C20[13]CH25O+
295.171	9	C20H23O2+
297.1495	8	C19H21O3+
297.1871	14	C20H25O2+
303.1765	38	C22H23O+
304.1771	7	C21[13]CH23O+
309.1862	15	C21H25O2+
310.1926	5	C20[13]CH25O2+
311.2008	11	C21H27O2+
315.162	6	C19H23O4+
321.1866	161	C22H25O2+
322.1905	35	C21[13]CH25O2+
327.1967	11	C21H27O3+
329.2126	5	C21H29O3+
339.1975	405	C22H27O3+
340.2009	83	C22H28O3+
341.2049	12	C21[13]CH28O3+
357.2084	999	C22H29O4+
358.2115	206	C22H30O4+
359.2135	29	C21[13]CH30O4+
375.2193	676	C22H31O5+
376.2221	129	C21[13]CH31O5+
377.2258	16	C20[13]C2H31O5+
