Mass spectrum: Bisoprolol; LC-ESI-QTOF; MS2; CE: 30 eV; R=35000; [M+H]+
Name: Bisoprolol
Name: 1-(propan-2-ylamino)-3-[4-(2-propan-2-yloxyethoxymethyl)phenoxy]propan-2-ol
Formula: C18H31NO4
Exact mass: 325.2253085
SMILES: CC(C)NCC(O)COC1=CC=C(COCCOC(C)C)C=C1
InChI: InChI=1S/C18H31NO4/c1-14(2)19-11-17(20)13-23-18-7-5-16(6-8-18)12-21-9-10-22-15(3)4/h5-8,14-15,17,19-20H,9-13H2,1-4H3
Instrument: Bruker maXis Impact
Instrument type: LC-ESI-QTOF
Ms type: MS2
Ion mode: POSITIVE
Ionization: ESI
Fragmentation mode: CID
Collision energy: 30 eV
Resolution: 35000
Column name: Acclaim RSLC C18 2.2um, 2.1x100mm, Thermo
Retention time: 5.765 min
Base peak: 326.2333
Precursor m/z: 326.2326
Precursor type: [M+H]+
m/z	relative intensity	assigned
115.0533	13	C9H7+
116.1066	999	C6H14NO+
117.0688	13	C9H9+
117.1098	84	C5[13]CH14NO+
119.0485	104	C8H7O+
119.0849	20	C9H11+
120.0517	9	C7[13]CH7O+
121.0639	87	C8H9O+
122.0672	9	C7[13]CH9O+
129.0684	15	C10H9+
133.0638	459	C9H9O+
134.0666	54	C8[13]CH9O+
135.0797	6	C9H11O+
137.0585	46	C8H9O2+
144.0787	19	C7H12O3+
145.0638	267	C10H9O+
146.0676	35	C9[13]CH9O+
147.0792	512	C10H11O+
148.0827	68	C9[13]CH11O+
149.0945	28	C10H13O+
161.0949	11	C11H13O+
162.0901	426	C10H12NO+
163.0739	175	C10H11O2+
163.0937	43	C9[13]CH12NO+
164.0769	16	C9[13]CH11O2+
175.1095	11	C12H15O+
179.1057	5	C11H15O2+
180.1004	30	C10H14NO2+
204.1371	247	C13H18NO+
205.1409	35	C12[13]CH18NO+
207.1011	5	C12H15O3+
222.147	42	C13H20NO2+
223.1537	7	C12[13]CH20NO2+
308.2211	23	C18H30NO3+
309.2222	6	C17[13]CH30NO3+
326.2325	786	C18H32NO4+
327.236	156	C17[13]CH32NO4+
328.2385	21	C16[13]C2H32NO4+
