Mass spectrum: 4-tert-Butylphenol; GC-APCI-QTOF; MS2; CE: 10 eV; R=35000; [M+H]+
Name: 4-tert-Butylphenol
Formula: C10H14O
Exact mass: 150.1045
SMILES: CC(C)(C)C1=CC=C(C=C1)O
InChI: InChI=1S/C10H14O/c1-10(2,3)8-4-6-9(11)7-5-8/h4-7,11H,1-3H3
Instrument: Bruker 450 GC coupled to maXis Impact
Instrument type: GC-APCI-QTOF
Ms type: MS2
Ion mode: POSITIVE
Ionization: APCI
Fragmentation mode: CID
Collision energy: 10 eV
Resolution: 35000
Column name: Rxi-5Sil MS column, 30m, 0.25mm i.d., 0.25Âµm film thickness, Restek
Retention time: 11.057 min
Base peak: 167.1445
Precursor m/z: 151.1117
Precursor type: [M+H]+
m/z	relative intensity	assigned
81.0683	314	C6H9+
121.1013	999	C9H13+
135.1185	803	C10H15+
