Mass spectrum: Atenolol acid; LC-ESI-QTOF; MS2; CE: Ramp 20.5-30.7 eV; R=35000; [M+H]+
Name: Atenolol acid
Name: Metoprolol acid
Name: 2-[4-[2-hydroxy-3-(propan-2-ylamino)propoxy]phenyl]acetic acid
Formula: C14H21NO4
Exact mass: 267.1470582
SMILES: CC(C)NCC(O)COC1=CC=C(CC(O)=O)C=C1
InChI: InChI=1S/C14H21NO4/c1-10(2)15-8-12(16)9-19-13-5-3-11(4-6-13)7-14(17)18/h3-6,10,12,15-16H,7-9H2,1-2H3,(H,17,18)
Instrument: Bruker maXis Impact
Instrument type: LC-ESI-QTOF
Ms type: MS2
Ion mode: POSITIVE
Ionization: ESI
Fragmentation mode: CID
Collision energy: Ramp 20.5-30.7 eV
Resolution: 35000
Column name: Acclaim RSLC C18 2.2um, 2.1x100mm, Thermo
Retention time: 3.713 min
Base peak: 268.1546
Precursor m/z: 268.1543
Precursor type: [M+H]+
m/z	relative intensity	assigned
56.0491	240	C3H6N+
57.0525	9	C2[13]CH6N+
58.0646	25	C3H8N+
60.0798	8	C3H10N+
72.0804	265	C4H10N+
73.0837	13	C3[13]CH10N+
74.0598	149	C3H8NO+
75.063	6	C2[13]CH8NO+
79.0541	5	C6H7+
91.0544	17	C7H7+
95.0494	7	C6H7O+
98.0972	100	C6H12N+
99.0999	5	C5[13]CH12N+
107.0495	6	C7H7O+
116.1074	64	C6H14NO+
117.0698	7	C9H9+
119.0486	11	C8H7O+
123.044	7	C7H7O2+
133.0643	8	C9H9O+
137.0591	28	C8H9O2+
145.0643	400	C10H9O+
146.0675	41	C9[13]CH9O+
153.0549	5	C8H9O3+
162.0901	13	C10H12NO+
163.0743	23	C10H11O2+
165.0538	175	C9H9O3+
166.0569	15	C8[13]CH9O3+
179.0694	15	C10H11O3+
191.0699	440	C11H11O3+
192.0734	49	C10[13]CH11O3+
208.0963	11	C11H14NO3+
226.107	244	C11H16NO4+
227.1106	23	C10[13]CH16NO4+
250.1435	48	C14H20NO3+
251.1466	7	C13[13]CH20NO3+
268.1544	999	C14H22NO4+
269.1578	196	C13[13]CH22NO4+
270.1599	17	C12[13]C2H22NO4+
