Mass spectrum: Fipronil sulfide; LC-ESI-QTOF; MS2; CE: 40 eV; R=35000; [M-H]-
Name: Fipronil sulfide
Name: 5-amino-1-[2,6-dichloro-4-(trifluoromethyl)phenyl]-4-(trifluoromethylsulfanyl)pyrazole-3-carbonitrile
Formula: C12H4Cl2F6N4S
Exact mass: 419.9437918
SMILES: NC1=C(SC(F)(F)F)C(=NN1C1=C(Cl)C=C(C=C1Cl)C(F)(F)F)C#N
InChI: InChI=1S/C12H4Cl2F6N4S/c13-5-1-4(11(15,16)17)2-6(14)8(5)24-10(22)9(7(3-21)23-24)25-12(18,19)20/h1-2H,22H2
Instrument: Bruker maXis Impact
Instrument type: LC-ESI-QTOF
Ms type: MS2
Ion mode: NEGATIVE
Ionization: ESI
Fragmentation mode: CID
Collision energy: 40 eV
Resolution: 35000
Column name: Acclaim RSLC C18 2.2um, 2.1x100mm, Thermo
Retention time: 10.635 min
Base peak: 418.9358
Precursor m/z: 418.9365
Precursor type: [M-H]-
m/z	relative intensity	assigned
150.0033	18	C7F2N2-
170.0096	530	C7HF3N2-
171.0121	25	C6[13]CHF3N2-
183.0177	6	C8H2F3N2-
192.9625	6	ClF5H3N2S-
217.9862	211	C8H2ClF3N2-
218.9889	11	C7[13]CH2ClF3N2-
219.9827	43	C8H2[37]ClF3N2-
226.9895	21	C9H2F3N2S-
233.9807	95	C11HClF2N2-
234.9478	5	C8HClF3NS-
234.9841	6	C10[13]CHClF2N2-
235.977	21	C11H[37]ClF2N2-
245.9803	16	C12HClF2N2-
247.9782	5	C12H[37]ClF2N2-
249.9574	34	C5H2Cl2F4N3-
251.9532	8	C5H2Cl[37]ClF4N3-
261.9583	999	C9H2ClF3N2S-
262.9604	64	C8[13]CH2ClF3N2S-
263.9551	218	C9H2[37]ClF3N2S-
264.9556	10	C9H2Cl2F3N2-
313.9635	10	C11H2ClF3N4S-
330.9498	5	C12H3Cl2F6-
