Mass spectrum: PCB 28; GC-APCI-QTOF; MS2; CE: 20 eV; R=35000; [M+H]+
Name: PCB 28
Name: 2,4,4`-Trichlorobiphenyl
Name: 2,4-dichloro-1-(4-chlorophenyl)benzene
Formula: C12H7Cl3
Exact mass: 255.9613
SMILES: ClC1=CC=C(C=C1)C1=C(Cl)C=C(Cl)C=C1
InChI: InChI=1S/C12H7Cl3/c13-9-3-1-8(2-4-9)11-6-5-10(14)7-12(11)15/h1-7H
Instrument: Bruker 450 GC coupled to maXis Impact
Instrument type: GC-APCI-QTOF
Ms type: MS2
Ion mode: POSITIVE
Ionization: APCI
Fragmentation mode: CID
Collision energy: 20 eV
Resolution: 35000
Column name: Rxi-5Sil MS column, 30m, 0.25mm i.d., 0.25Âµm film thickness (Restek)
Retention time: 16.521 min
Base peak: 256.9639
Precursor m/z: 256.9686
Precursor type: [M+H]+
m/z	relative intensity	assigned
186.0201	252	C12H7Cl+
255.9597	999	C12H7Cl3+
