Mass spectrum: Celecoxib; LC-ESI-QTOF; MS2; CE: Ramp 23.2-34.9 eV; R=35000; [M+H]+
Name: Celecoxib
Name: 4-[5-(4-methylphenyl)-3-(trifluoromethyl)pyrazol-1-yl]benzenesulfonamide
Formula: C17H14F3N3O2S
Exact mass: 381.0758823
SMILES: CC1=CC=C(C=C1)C1=CC(=NN1C1=CC=C(C=C1)S(N)(=O)=O)C(F)(F)F
InChI: InChI=1S/C17H14F3N3O2S/c1-11-2-4-12(5-3-11)15-10-16(17(18,19)20)22-23(15)13-6-8-14(9-7-13)26(21,24)25/h2-10H,1H3,(H2,21,24,25)
Instrument: Bruker maXis Impact
Instrument type: LC-ESI-QTOF
Ms type: MS2
Ion mode: POSITIVE
Ionization: ESI
Fragmentation mode: CID
Collision energy: Ramp 23.2-34.9 eV
Resolution: 35000
Column name: Acclaim RSLC C18 2.2um, 2.1x100mm, Thermo
Retention time: 10.247 min
Base peak: 494.1505
Precursor m/z: 382.0832
Precursor type: [M+H]+
m/z	relative intensity	assigned
184.0366	6	C9H5F3N+
185.0438	5	CH10F3N3O2S+
207.1039	13	C15H13N+
208.1099	7	C10H14N3O2+
232.0988	5	C16H12N2+
233.1059	9	C16H13N2+
263.0959	11	C17H13NO2+
267.0726	7	C13H14FNO2S+
275.0806	13	C17H11N2O2+
281.0898	17	C14H12F3N2O+
282.0953	34	C17H12F2N2+
283.1031	32	C17H14FNO2+
284.105	5	C16[13]CH14FNO2+
287.079	23	C16H14FNOS+
288.0812	5	C15[13]CH14FNOS+
300.0865	24	C17H11F3N2+
301.0943	61	C17H12F3N2+
302.1017	69	C17H13F3N2+
303.1095	112	C17H14F3N2+
304.1143	19	C16[13]CH14F3N2+
317.0919	6	C17H15F2N2S+
332.0779	50	C17H11F3N2O2+
333.0807	12	C16[13]CH11F3N2O2+
334.091	14	C17H13F3N2O2+
342.071	9	C17H13FN3O2S+
343.0714	6	C15H14F3N2O2S+
362.0773	254	C17H14F2N3O2S+
363.0801	50	C16[13]CH14F2N3O2S+
364.0736	17	C17H14F2N3O2[34]S+
382.0837	999	C17H15F3N3O2S+
383.0859	201	C16[13]CH15F3N3O2S+
384.0838	49	C17H15F3N3O2[34]S+
