Mass spectrum: Imazalil; LC-ESI-QTOF; MS2; CE: 10 eV; R=35000; [M+H]+
Name: Imazalil
Name: Enilconazole
Name: 1-[2-(2,4-dichlorophenyl)-2-prop-2-enoxyethyl]imidazole
Formula: C14H14Cl2N2O
Exact mass: 296.0483184
SMILES: ClC1=CC=C(C(CN2C=CN=C2)OCC=C)C(Cl)=C1
InChI: InChI=1S/C14H14Cl2N2O/c1-2-7-19-14(9-18-6-5-17-10-18)12-4-3-11(15)8-13(12)16/h2-6,8,10,14H,1,7,9H2
Instrument: Bruker maXis Impact
Instrument type: LC-ESI-QTOF
Ms type: MS2
Ion mode: POSITIVE
Ionization: ESI
Fragmentation mode: CID
Collision energy: 10 eV
Resolution: 35000
Column name: Acclaim RSLC C18 2.2um, 2.1x100mm, Thermo
Retention time: 8.649 min
Base peak: 297.0551
Precursor m/z: 297.0556
Precursor type: [M+H]+
m/z	relative intensity	assigned
255.0079	5	C11H9Cl2N2O+
297.0561	999	C14H15Cl2N2O+
298.0588	154	C13[13]CH15Cl2N2O+
299.0529	600	C14H15Cl[37]ClN2O+
