Mass spectrum: Thifensulfuron-methyl; LC-ESI-QTOF; MS2; CE: 40 eV; R=35000; [M+H]+
Name: Thifensulfuron-methyl
Name: methyl 3-[(4-methoxy-6-methyl-1,3,5-triazin-2-yl)carbamoylsulfamoyl]thiophene-2-carboxylate
Formula: C12H13N5O6S2
Exact mass: 387.0307251
SMILES: COC(=O)C1=C(C=CS1)S(=O)(=O)NC(=O)NC1=NC(C)=NC(OC)=N1
InChI: InChI=1S/C12H13N5O6S2/c1-6-13-10(16-12(14-6)23-3)15-11(19)17-25(20,21)7-4-5-24-8(7)9(18)22-2/h4-5H,1-3H3,(H2,13,14,15,16,17,19)
Instrument: Bruker maXis Impact
Instrument type: LC-ESI-QTOF
Ms type: MS2
Ion mode: POSITIVE
Ionization: ESI
Fragmentation mode: CID
Collision energy: 40 eV
Resolution: 35000
Column name: Acclaim RSLC C18 2.2um, 2.1x100mm, Thermo
Retention time: 6.3 min
Base peak: 388.0382
Precursor m/z: 388.038
Precursor type: [M+H]+
m/z	relative intensity	assigned
125.9762	79	C3N3OS+
126.9792	7	H3N2O4S+
127.9715	8	C8S+
140.9996	52	C4H3N3OS+
141.0764	181	C4H13O5+
142.0033	5	C7N3O+
143.9861	9	C3H2N3O2S+
149.0233	12	C8H5O3+
167.0556	999	C5H11O6+
168.0584	68	C4[13]CH11O6+
174.9511	46	C3HN3O2S2+
189.9616	26	C3H2N4O2S2+
192.962	7	C5H5O4S2+
204.9611	416	C4H3N3O3S2+
205.964	36	C3[13]CH3N3O3S2+
206.957	38	C4H3N3O3S[34]S+
215.9419	21	C6H2NO4S2+
222.9722	65	C12HNO2S+
223.9731	6	C12O5+
224.9695	7	C12H3NS2+
