Mass spectrum: 1-Chlorobenzotriazole; LC-ESI-QTOF; MS2; CE: 10 eV; R=35000; [M+H]+
Name: 1-Chlorobenzotriazole
Formula: C6H4ClN3
Exact mass: 153.0093748
SMILES: C1=CC=C2C(=C1)N=NN2Cl
InChI: InChI=1S/C6H4ClN3/c7-10-6-4-2-1-3-5(6)8-9-10/h1-4H
Instrument: Bruker maXis Impact
Instrument type: LC-ESI-QTOF
Ms type: MS2
Ion mode: POSITIVE
Ionization: ESI
Fragmentation mode: CID
Collision energy: 10 eV
Resolution: 35000
Column name: Acclaim RSLC C18 2.2um, 2.1x100mm, Thermo
Retention time: 6.417 min
Base peak: 154.0168
Precursor m/z: 154.0167
Precursor type: [M+H]+
m/z	relative intensity	assigned
126.0094	6	C6H5ClN+
154.0169	999	C6H5ClN3+
155.0191	66	C5[13]CH5ClN3+
156.0138	289	C6H5[37]ClN3+
