Mass spectrum: Oxybutynin; LC-ESI-QTOF; MS2; CE: 40 eV; R=35000; [M+H]+
Name: Oxybutynin
Name: 4-(diethylamino)but-2-ynyl 2-cyclohexyl-2-hydroxy-2-phenylacetate
Formula: C22H31NO3
Exact mass: 357.2303939
SMILES: CCN(CC)CC#CCOC(=O)C(O)(C1CCCCC1)C1=CC=CC=C1
InChI: InChI=1S/C22H31NO3/c1-3-23(4-2)17-11-12-18-26-21(24)22(25,19-13-7-5-8-14-19)20-15-9-6-10-16-20/h5,7-8,13-14,20,25H,3-4,6,9-10,15-18H2,1-2H3
Instrument: Bruker maXis Impact
Instrument type: LC-ESI-QTOF
Ms type: MS2
Ion mode: POSITIVE
Ionization: ESI
Fragmentation mode: CID
Collision energy: 40 eV
Resolution: 35000
Column name: Acclaim RSLC C18 2.2um, 2.1x100mm, Thermo
Retention time: 8.488 min
Base peak: 358.2387
Precursor m/z: 358.2377
Precursor type: [M+H]+
m/z	relative intensity	assigned
115.0541	11	C9H7+
117.0692	13	C9H9+
121.064	6	C8H9O+
122.0955	19	C8H12N+
124.1116	32	C8H14N+
125.1175	5	C5H17O3+
127.0532	5	C10H7+
128.0611	43	C10H8+
129.0691	167	C10H9+
130.0727	18	C9[13]CH9+
133.0645	5	C9H9O+
141.0691	15	C11H9+
142.1218	999	C8H16NO+
143.0848	48	C11H11+
143.1251	93	C7[13]CH16NO+
144.0877	6	C10[13]CH11+
145.0638	5	C10H9O+
155.0592	12	C7H9NO3+
155.0835	9	C12H11+
157.0636	31	C11H9O+
165.0684	8	C13H9+
166.0765	9	C13H10+
167.0836	5	C13H11+
169.101	7	C13H13+
171.1161	140	C13H15+
172.1195	20	C12[13]CH15+
173.0592	18	C11H9O2+
179.0857	5	C14H11+
181.0999	15	C14H13+
183.1034	8	C13H13N+
184.1105	7	C10H16O3+
185.0589	9	C12H9O2+
187.0752	6	C12H11O2+
189.1266	178	C13H17O+
190.1297	26	C12[13]CH17O+
199.1106	60	C14H15O+
200.1137	8	C13[13]CH15O+
203.0691	6	C12H11O3+
358.2388	11	C22H32NO3+
