Mass spectrum: Corticosterone; LC-ESI-QTOF; MS2; CE: 10 eV; R=35000; [M+H]+
Name: Corticosterone
Name: (8S,9S,10R,11S,13S,14S,17S)-11-hydroxy-17-(2-hydroxyacetyl)-10,13-dimethyl-1,2,6,7,8,9,11,12,14,15,16,17-dodecahydrocyclopenta[a]phenanthren-3-one
Formula: C21H30O4
Exact mass: 346.2144094
SMILES: C[C@]12CCC(=O)C=C1CC[C@@H]3[C@@H]2[C@H](C[C@]4([C@H]3CC[C@@H]4C(=O)CO)C)O
InChI: InChI=1S/C21H30O4/c1-20-8-7-13(23)9-12(20)3-4-14-15-5-6-16(18(25)11-22)21(15,2)10-17(24)19(14)20/h9,14-17,19,22,24H,3-8,10-11H2,1-2H3/t14-,15-,16+,17-,19+,20-,21-/m0/s1
Instrument: Bruker maXis Impact
Instrument type: LC-ESI-QTOF
Ms type: MS2
Ion mode: POSITIVE
Ionization: ESI
Fragmentation mode: CID
Collision energy: 10 eV
Resolution: 35000
Column name: Acclaim RSLC C18 2.2um, 2.1x100mm, Thermo
Retention time: 8.650 min
Base peak: 347.2247
Precursor m/z: 347.2217
Precursor type: [M+H]+
m/z	relative intensity	assigned
293.1915	9	C21H25O+
311.2032	9	C21H27O2+
329.2133	41	C21H29O3+
330.2171	8	C20[13]CH29O3+
347.2248	999	C21H31O4+
348.2277	191	C20[13]CH31O4+
349.2296	24	C19[13]C2H31O4+
