Mass spectrum: Tylosin; LC-ESI-QTOF; MS2; CE: 40 eV; R=35000; [M+H]+
Name: Tylosin
Name: 2-[(4R,5S,6S,7R,9R,11E,13E,15R,16R)-6-[(2R,3R,4R,5S,6R)-5-[(2S,4R,5S,6S)-4,5-dihydroxy-4,6-dimethyloxan-2-yl]oxy-4-(dimethylamino)-3-hydroxy-6-methyloxan-2-yl]oxy-16-ethyl-4-hydroxy-15-[[(2R,3R,4R,5R,6R)-5-hydroxy-3,4-dimethoxy-6-methyloxan-2-yl]oxymethyl]-5,9,13-trimethyl-2,10-dioxo-1-oxacyclohexadeca-11,13-dien-7-yl]acetaldehyde
Formula: C46H77NO17
Exact mass: 915.5191500
SMILES: CC[C@H]1OC(=O)C[C@@H](O)[C@H](C)[C@@H](O[C@@H]2O[C@H](C)[C@@H](O[C@H]3C[C@@](C)(O)[C@@H](O)[C@H](C)O3)[C@@H]([C@H]2O)N(C)C)[C@@H](CC=O)C[C@@H](C)C(=O)\C=C\C(\C)=C\[C@@H]1CO[C@@H]1O[C@H](C)[C@@H](O)[C@@H](OC)[C@H]1OC
InChI: InChI=1S/C46H77NO17/c1-13-33-30(22-58-45-42(57-12)41(56-11)37(52)26(5)60-45)18-23(2)14-15-31(49)24(3)19-29(16-17-48)39(25(4)32(50)20-34(51)62-33)64-44-38(53)36(47(9)10)40(27(6)61-44)63-35-21-46(8,55)43(54)28(7)59-35/h14-15,17-18,24-30,32-33,35-45,50,52-55H,13,16,19-22H2,1-12H3/b15-14+,23-18+/t24-,25+,26-,27-,28+,29+,30-,32-,33-,35+,36-,37-,38-,39-,40-,41-,42-,43+,44+,45-,46-/m1/s1
Instrument: Bruker maXis Impact
Instrument type: LC-ESI-QTOF
Ms type: MS2
Ion mode: POSITIVE
Ionization: ESI
Fragmentation mode: CID
Collision energy: 40 eV
Resolution: 35000
Column name: Acclaim RSLC C18 2.2um, 2.1x100mm, Thermo
Retention time: 7.635 min
Base peak: 916.5277
Precursor m/z: 916.5264
Precursor type: [M+H]+
m/z	relative intensity	assigned
127.0746	40	C7H11O2+
132.1012	67	C6H14NO2+
143.069	10	C7H11O3+
145.0851	113	C7H13O3+
146.0884	10	C6[13]CH13O3+
156.1007	39	C8H14NO2+
158.1181	9	C8H16NO2+
172.0938	7	C5H16O6+
174.1114	999	C8H16NO3+
175.1145	107	C7[13]CH16NO3+
176.1178	10	C12H16O+
232.1531	16	C11H22NO4+
276.1806	29	C13H26NO5+
318.1912	94	C12H30O9+
319.1933	18	C11[13]CH30O9+
371.224	8	C26H29NO+
373.2334	8	C5H41O17+
389.2341	24	C30H29+
390.23	5	C29[13]CH29+
391.2496	10	C26H33NO2+
407.2444	34	C26H33NO3+
408.2489	8	C25[13]CH33NO3+
409.2593	14	C23H37O6+
425.253	7	C23H37O7+
427.2739	5	C16H43O12+
598.361	17	C24H56NO15+
599.3665	7	C23[13]CH56NO15+
772.4525	168	C46H62NO9+
773.4571	69	C45[13]CH62NO9+
774.4622	31	C44[13]C2H62NO9+
775.4663	7	C46H65NO9+
916.5345	120	C46H78NO17+
917.5343	81	C45[13]CH78NO17+
