Mass spectrum: Bentazone; LC-ESI-QTOF; MS2; CE: 20 eV; R=35000; [M-H]-
Name: Bentazone
Name: bentazon
Name: 2,2-dioxo-3-propan-2-yl-1H-2$l^6,1,3-benzothiadiazin-4-one
Formula: C10H12N2O3S
Exact mass: 240.0568632
SMILES: c12c(C(N(C(C)C)S(N1)(=O)=O)=O)cccc2
InChI: InChI=1S/C10H12N2O3S/c1-7(2)12-10(13)8-5-3-4-6-9(8)11-16(12,14)15/h3-7,11H,1-2H3
Instrument: Bruker maXis Impact
Instrument type: LC-ESI-QTOF
Ms type: MS2
Ion mode: NEGATIVE
Ionization: ESI
Fragmentation mode: CID
Collision energy: 20 eV
Resolution: 35000
Column name: Acclaim RSLC C18 2.2um, 2.1x100mm, Thermo
Retention time: 4.155 min
Base peak: 239.0506
Precursor m/z: 239.0496
Precursor type: [M-H]-
m/z	relative intensity	assigned
132.033	312	C7H4N2O-
133.0403	160	C7H5N2O-
175.0874	418	C10H11N2O-
197.0033	305	C7H5N2O3S-
239.0503	999	C10H11N2O3S-
240.0548	99	C9[13]CH11N2O3S-
