Mass spectrum: Dimethoate; LC-ESI-QTOF; MS2; CE: 40 eV; R=35000; [M+H]+
Name: Dimethoate
Name: 2-dimethoxyphosphinothioylsulfanyl-N-methylacetamide
Formula: C5H12NO3PS2
Exact mass: 228.9996219
SMILES: P(SCC(NC)=O)(OC)(OC)=S
InChI: InChI=1S/C5H12NO3PS2/c1-6-5(7)4-12-10(11,8-2)9-3/h4H2,1-3H3,(H,6,7)
Instrument: Bruker maXis Impact
Instrument type: LC-ESI-QTOF
Ms type: MS2
Ion mode: POSITIVE
Ionization: ESI
Fragmentation mode: CID
Collision energy: 40 eV
Resolution: 35000
Column name: Acclaim RSLC C18 2.2um, 2.1x100mm, Thermo
Retention time: 5.139 min
Base peak: 230.0083
Precursor m/z: 230.0069
Precursor type: [M+H]+
m/z	relative intensity	assigned
123.9983	34	C2H7NOPS+
124.9822	999	C2H6O2PS+
125.9847	27	C[13]CH6O2PS+
126.9781	36	C2H6O2P[34]S+
142.9927	388	C2H8O3PS+
144.9886	20	C2H8O3P[34]S+
155.9708	10	C2H7NOPS2+
156.9543	66	C2H6O2PS2+
