Mass spectrum: delta9-Tetrahydrocannabinol; LC-ESI-QTOF; MS2; CE: 20 eV; R=35000; [M+H]+
Name: delta9-Tetrahydrocannabinol
Name: 6,6,9-trimethyl-3-pentyl-6a,7,8,10a-tetrahydrobenzo[c]chromen-1-ol
Formula: C21H30O2
Exact mass: 314.2245802
SMILES: CCCCCC1=CC2=C(C3C=C(CCC3C(O2)(C)C)C)C(=C1)O
InChI: InChI=1S/C21H30O2/c1-5-6-7-8-15-12-18(22)20-16-11-14(2)9-10-17(16)21(3,4)23-19(20)13-15/h11-13,16-17,22H,5-10H2,1-4H3
Instrument: Bruker maXis Impact
Instrument type: LC-ESI-QTOF
Ms type: MS2
Ion mode: POSITIVE
Ionization: ESI
Fragmentation mode: CID
Collision energy: 20 eV
Resolution: 35000
Column name: Acclaim RSLC C18 2.2um, 2.1x100mm, Thermo
Retention time: 13.795 min
Base peak: 315.2341
Precursor m/z: 315.2319
Precursor type: [M+H]+
m/z	relative intensity	assigned
123.0449	9	C7H7O2+
123.1165	24	C9H15+
135.1176	117	C10H15+
136.1214	11	C9[13]CH15+
139.1121	8	C9H15O+
151.0763	7	C9H11O2+
165.0926	9	C10H13O2+
177.0929	5	C11H13O2+
177.1275	12	C12H17O+
181.1236	69	C11H17O2+
182.1271	7	C11H18O2+
193.1235	309	C12H17O2+
194.1266	33	C11[13]CH17O2+
205.1212	6	C13H17O2+
207.1387	41	C13H19O2+
208.1414	8	C13H20O2+
217.1236	18	C14H17O2+
219.1389	20	C14H19O2+
221.155	83	C14H21O2+
222.1588	13	C13[13]CH21O2+
227.1465	9	C16H19O+
231.1388	47	C15H19O2+
232.1416	11	C15H20O2+
233.1546	86	C15H21O2+
234.1589	17	C14[13]CH21O2+
235.1705	81	C15H23O2+
236.1759	10	C14[13]CH23O2+
237.1646	13	C18H21+
238.1711	5	C18H22+
241.1613	7	C17H21O+
245.1553	17	C16H21O2+
247.1718	41	C16H23O2+
248.1734	8	C16H24O2+
255.238	5	C16H31O2+
259.1697	163	C17H23O2+
260.173	35	C16[13]CH23O2+
273.1853	22	C18H25O2+
274.1903	6	C18H26O2+
297.2221	17	C21H29O+
315.234	999	C21H31O2+
316.2367	231	C20[13]CH31O2+
317.2409	27	C19[13]C2H31O2+
