Mass spectrum: Azinphos methyl; LC-ESI-QTOF; MS2; CE: 40 eV; R=35000; [M+H]+
Name: Azinphos methyl
Name: Azinphos-methyl
Name: 3-(dimethoxyphosphinothioylsulfanylmethyl)-1,2,3-benzotriazin-4-one
Formula: C10H12N3O3PS2
Exact mass: 317.0057699
SMILES: COP(=S)(OC)SCN1N=NC2=CC=CC=C2C1=O
InChI: InChI=1S/C10H12N3O3PS2/c1-15-17(18,16-2)19-7-13-10(14)8-5-3-4-6-9(8)11-12-13/h3-6H,7H2,1-2H3
Instrument: Bruker maXis Impact
Instrument type: LC-ESI-QTOF
Ms type: MS2
Ion mode: POSITIVE
Ionization: ESI
Fragmentation mode: CID
Collision energy: 40 eV
Resolution: 35000
Column name: Acclaim RSLC C18 2.2um, 2.1x100mm, Thermo
Retention time: 8.945 min
Base peak: 318.0128
Precursor m/z: 318.013
Precursor type: [M+H]+
m/z	relative intensity	assigned
124.9811	198	C4HN2OS+
125.9835	9	C3[13]CHN2OS+
126.9759	9	C4HN2O[34]S+
132.0432	999	C8H6NO+
133.0466	91	C7[13]CH6NO+
134.0512	5	C6[13]C2H6NO+
137.0035	10	C5H3N3S+
142.991	154	C4H3N2O2S+
144.9853	6	C4H3N2O2[34]S+
150.0534	49	C8H8NO2+
151.9918	13	C5H2N3OS+
160.0488	46	C7H13PS+
161.0515	5	C6[13]CH13PS+
167.0141	20	C6H5N3OS+
167.9675	7	C6H3NOPS+
170.9683	21	C5H3N2OS2+
