Mass spectrum: N4-Acetylsulfadiazine; LC-ESI-QTOF; MS2; CE: 30 eV; R=35000; [M+H]+
Name: N4-Acetylsulfadiazine
Name: N-Acetyl Sulfadiazine
Name: N-[4-(pyrimidin-2-ylsulfamoyl)phenyl]acetamide
Formula: C12H12N4O3S
Exact mass: 292.0630112
SMILES: CC(=O)NC1=CC=C(C=C1)S(=O)(=O)NC1=NC=CC=N1
InChI: InChI=1S/C12H12N4O3S/c1-9(17)15-10-3-5-11(6-4-10)20(18,19)16-12-13-7-2-8-14-12/h2-8H,1H3,(H,15,17)(H,13,14,16)
Instrument: Bruker maXis Impact
Instrument type: LC-ESI-QTOF
Ms type: MS2
Ion mode: POSITIVE
Ionization: ESI
Fragmentation mode: CID
Collision energy: 30 eV
Resolution: 35000
Column name: Acclaim RSLC C18 2.2um, 2.1x100mm, Thermo
Retention time: 3.9 min
Base peak: 293.0695
Precursor m/z: 293.0703
Precursor type: [M+H]+
m/z	relative intensity	assigned
134.0591	999	H12N3O3S+
136.0754	111	C8H10NO+
150.0546	92	C8H8NO2+
156.011	109	C6H6NO2S+
158.001	55	C4H4N3O2S+
162.0655	73	C8H8N3O+
176.0108	41	C10N4+
185.0811	126	C10H9N4+
198.0207	328	C6H6N4O2S+
199.0244	21	C5[13]H6N4O2S+
227.0911	150	C12H11N4O+
293.0689	51	C12H13N4O3S+
