Mass spectrum: Dibutyl maleate; GC-APCI-QTOF; MS2; CE: 20 eV; R=35000; [M+H]+
Name: Dibutyl maleate
Formula: C12H20O4
Exact mass: 228.1362
SMILES: CCCCOC(=O)C=CC(=O)OCCCC
InChI: InChI=1S/C12H20O4/c1-3-5-9-15-11(13)7-8-12(14)16-10-6-4-2/h7-8H,3-6,9-10H2,1-2H3
Instrument: Bruker 450 GC coupled to maXis Impact
Instrument type: GC-APCI-QTOF
Ms type: MS2
Ion mode: POSITIVE
Ionization: APCI
Fragmentation mode: CID
Collision energy: 20 eV
Resolution: 35000
Column name: Rxi-5Sil MS column, 30m, 0.25mm i.d., 0.25Âµm film thickness, Restek
Retention time: 12.593 min
Base peak: 229.1436
Precursor m/z: 229.1434
Precursor type: [M+H]+
m/z	relative intensity	assigned
57.0706	654	C4H9+
99.0072	904	C4H3O3+
99.0228	64	C8H3+
117.0181	999	C4H5O4+
125.0595	140	C7H9O2+
126.0301	123	C6H6O3+
127.074	75	C7H11O2+
139.039	297	C7H7O3+
141.0923	103	C8H13O2+
153.0533	277	C8H9O3+
154.0613	109	C8H10O3+
155.069	96	C8H11O3+
171.0676	75	C8H11O4+
173.0796	101	C8H13O4+
