Mass spectrum: 6-beta-Hydroxycortisol; LC-ESI-QTOF; MS2; CE: Ramp 23.2-34.8 eV; R=35000; [M+H]+
Name: 6-beta-Hydroxycortisol
Name: 6beta-Hydroxycortisol
Name: (6R,8S,9S,10R,11S,13S,14S,17R)-6,11,17-trihydroxy-17-(2-hydroxyacetyl)-10,13-dimethyl-2,6,7,8,9,11,12,14,15,16-decahydro-1H-cyclopenta[a]phenanthren-3-one
Formula: C21H30O6
Exact mass: 378.2042387
SMILES: C[C@]12C[C@H](O)[C@H]3[C@@H](C[C@@H](O)C4=CC(=O)CC[C@]34C)[C@@H]1CC[C@]2(O)C(=O)CO
InChI: InChI=1S/C21H30O6/c1-19-5-3-11(23)7-14(19)15(24)8-12-13-4-6-21(27,17(26)10-22)20(13,2)9-16(25)18(12)19/h7,12-13,15-16,18,22,24-25,27H,3-6,8-10H2,1-2H3/t12-,13-,15+,16-,18+,19-,20-,21-/m0/s1
Instrument: Bruker maXis Impact
Instrument type: LC-ESI-QTOF
Ms type: MS2
Ion mode: POSITIVE
Ionization: ESI
Fragmentation mode: CID
Collision energy: Ramp 23.2-34.8 eV
Resolution: 35000
Column name: Acclaim RSLC C18 2.2um, 2.1x100mm, Thermo
Retention time: 4.402 min
Base peak: 379.2114
Precursor m/z: 379.2115
Precursor type: [M+H]+
m/z	relative intensity	assigned
119.0836	122	C9H11+
121.0647	133	C8H9O+
123.0788	81	C8H11O+
125.0605	67	C7H9O2+
131.0839	252	C10H11+
133.1013	150	C10H13+
135.0799	165	C9H11O+
137.0589	121	C8H9O2+
139.0738	198	C8H11O2+
143.0835	346	C11H11+
145.0631	79	C10H9O+
145.0992	393	C11H13+
146.1024	71	C10[13]CH13+
147.0774	230	C10H11O+
147.1146	193	C11H15+
149.0952	213	C10H13O+
151.0741	84	C9H11O2+
155.0836	273	C12H11+
157.1	387	C12H13+
159.079	145	C11H11O+
159.1142	186	C12H15+
161.0941	291	C11H13O+
163.0738	80	C10H11O2+
163.1102	128	C11H15O+
167.0845	89	C13H11+
169.1007	275	C13H13+
171.0792	189	C12H11O+
171.1157	372	C13H15+
173.0954	470	C12H13O+
174.1003	113	C12H14O+
175.1112	279	C12H15O+
177.0874	105	C11H13O2+
179.1052	136	C11H15O2+
181.0991	204	C14H13+
183.0809	96	C13H11O+
183.1155	317	C14H15+
184.1201	125	C14H16+
185.0951	228	C13H13O+
185.13	126	C14H17+
187.1099	320	C13H15O+
188.1158	69	C12[13]CH15O+
189.0897	212	C12H13O2+
189.1238	107	C13H17O+
191.105	84	C12H15O2+
193.1009	125	C15H13+
195.1144	259	C15H15+
196.1212	80	C15H16+
197.0948	231	C14H13O+
197.1317	352	C15H17+
198.1014	71	C13[13]CH13O+
198.1359	92	C14[13]CH17+
199.1112	286	C14H15O+
199.1449	115	C15H19+
201.1253	146	C14H17O+
202.1336	82	C14H18O+
203.1056	83	C13H15O2+
203.1415	70	C14H19O+
205.101	151	C16H13+
205.1182	101	C13H17O2+
207.1157	289	C16H15+
208.1223	86	C16H16+
209.0961	157	C15H13O+
209.1328	339	C16H17+
210.1362	146	C16H18+
211.1099	291	C15H15O+
211.1465	229	C16H19+
212.1517	111	C16H20+
213.1266	310	C15H17O+
214.131	83	C15H18O+
215.1064	85	C14H15O2+
215.1425	112	C15H19O+
217.1216	168	C14H17O2+
219.1177	117	C17H15+
221.1306	396	C17H17+
222.1375	86	C16[13]CH17+
223.1111	276	C16H15O+
223.1463	291	C17H19+
224.115	81	C16H16O+
224.151	91	C17H20+
225.1256	290	C16H17O+
225.1622	154	C17H21+
227.1419	354	C16H19O+
229.125	75	C15H17O2+
231.1371	102	C15H19O2+
233.1174	88	C14H17O3+
234.1368	90	C18H18+
235.1463	188	C18H19+
237.1258	291	C17H17O+
237.163	135	C18H21+
238.1705	135	C18H22+
239.1427	920	C17H19O+
239.1794	99	C18H23+
240.1443	299	C16[13]CH19O+
241.122	103	C16H17O2+
241.1567	251	C17H21O+
243.1382	130	C16H19O2+
247.1471	252	C19H19+
249.1284	149	C18H17O+
249.1636	182	C19H21+
250.0851	73	C13H14O5+
250.1315	117	C18H18O+
251.141	346	C18H19O+
251.1752	67	C19H23+
252.1465	75	C17[13]CH19O+
253.1247	81	C17H17O2+
253.1582	178	C18H21O+
254.1612	84	C18H22O+
255.1381	244	C17H19O2+
255.174	131	C18H23O+
257.1514	264	C17H21O2+
259.1677	66	C17H23O2+
261.1617	130	C20H21+
263.1416	98	C19H19O+
265.1586	790	C19H21O+
266.1641	466	C19H22O+
267.1383	206	C18H19O2+
267.1724	999	C19H23O+
268.1444	73	C17[13]CH19O2+
268.1784	196	C18[13]CH23O+
269.1532	118	C18H21O2+
270.1558	67	C18H22O2+
271.1323	117	C17H19O3+
271.1673	91	C18H23O2+
273.1502	77	C17H21O3+
277.1581	160	C20H21O+
279.1741	435	C20H23O+
280.1781	126	C19[13]CH23O+
281.1542	114	C19H21O2+
283.1692	626	C19H23O2+
284.1763	592	C19H24O2+
285.144	96	C18H21O3+
285.1847	585	C19H25O2+
286.1869	102	C18[13]CH25O2+
289.1401	78	C17H21O4+
289.158	186	C21H21O+
295.1682	443	C20H23O2+
296.1767	131	C19[13]CH23O2+
297.1844	439	C20H25O2+
298.192	97	C19[13]CH25O2+
299.1621	152	C19H23O3+
301.1759	94	C19H25O3+
307.1694	734	C21H23O2+
308.1701	169	C20[13]CH23O2+
313.1813	428	C20H25O3+
314.1826	124	C19[13]CH25O3+
315.1939	117	C20H27O3+
325.1789	886	C21H25O3+
326.1823	276	C20[13]CH25O3+
331.1927	147	C20H27O4+
343.1885	737	C21H27O4+
344.194	295	C20[13]CH27O4+
361.2017	328	C21H29O5+
362.2089	87	C20[13]CH29O5+
379.2114	538	C21H31O6+
380.2134	197	C20[13]CH31O6+
