Mass spectrum: 4-Trifluoromethylphenol; LC-ESI-QTOF; MS2; CE: 20 eV; R=35000; [M-H]-
Name: 4-Trifluoromethylphenol
Name: 4-(trifluoromethyl)phenol
Formula: C7H5F3O
Exact mass: 162.0292494
SMILES: Oc1ccc(C(F)(F)F)cc1
InChI: InChI=1S/C7H5F3O/c8-7(9,10)5-1-3-6(11)4-2-5/h1-4,11H
Instrument: Bruker maXis Impact
Instrument type: LC-ESI-QTOF
Ms type: MS2
Ion mode: NEGATIVE
Ionization: ESI
Fragmentation mode: CID
Collision energy: 20 eV
Resolution: 35000
Column name: Acclaim RSLC C18 2.2um, 2.1x100mm, Thermo
Retention time: 8.187 min
Base peak: 161.0246
Precursor m/z: 161.022
Precursor type: [M-H]-
m/z	relative intensity	assigned
121.0113	190	C7H2FO-
141.0184	223	C7H3F2O-
161.0246	999	C7H4F3O-
162.0282	62	C6[13]CH4F3O-
