Mass spectrum: Ethopabate; LC-ESI-QTOF; MS2; CE: 20 eV; R=35000; [M+H]+
Name: Ethopabate
Name: methyl 4-acetamido-2-ethoxybenzoate
Formula: C12H15NO4
Exact mass: 237.1001080
SMILES: CCOc1cc(ccc1C(=O)OC)NC(=O)C
InChI: InChI=1S/C12H15NO4/c1-4-17-11-7-9(13-8(2)14)5-6-10(11)12(15)16-3/h5-7H,4H2,1-3H3,(H,13,14)
Instrument: Bruker maXis Impact
Instrument type: LC-ESI-QTOF
Ms type: MS2
Ion mode: POSITIVE
Ionization: ESI
Fragmentation mode: CID
Collision energy: 20 eV
Resolution: 35000
Column name: Acclaim RSLC C18 2.2um, 2.1x100mm, Thermo
Retention time: 6.4 min
Base peak: 238.107
Precursor m/z: 238.1074
Precursor type: [M+H]+
m/z	relative intensity	assigned
136.0386	128	C7H6NO2+
136.0752	150	C8H10NO+
137.0226	22	C7H5O3+
137.0595	18	C8H9O2+
137.079	7	C7[13]CH10NO+
146.0595	25	C9H8NO+
147.0433	6	C9H7O2+
164.0701	585	C9H10NO2+
165.0542	71	C9H9O3+
165.0734	35	C8[13]CH10NO2+
178.0494	117	C9H8NO3+
178.0859	47	C10H12NO2+
179.0519	10	C8[13]CH8NO3+
188.0701	29	C11H10NO2+
206.0809	999	C11H12NO3+
207.0844	83	C10[13]CH12NO3+
210.0765	6	C10H12NO4+
