Mass spectrum: 4-Formyl-antipyrine; LC-ESI-QTOF; MS2; CE: 10 eV; R=35000; [M+H]+
Name: 4-Formyl-antipyrine
Name: 1,5-Dimethyl-3-oxo-2-phenyl-2,3-dihydro-1H-pyrazole-4-carbaldehyde
Name: 1,5-dimethyl-3-oxo-2-phenylpyrazole-4-carbaldehyde
Formula: C12H12N2O2
Exact mass: 216.0898776
SMILES: CN1N(C(=O)C(C=O)=C1C)C1=CC=CC=C1
InChI: InChI=1S/C12H12N2O2/c1-9-11(8-15)12(16)14(13(9)2)10-6-4-3-5-7-10/h3-8H,1-2H3
Instrument: Bruker maXis Impact
Instrument type: LC-ESI-QTOF
Ms type: MS2
Ion mode: POSITIVE
Ionization: ESI
Fragmentation mode: CID
Collision energy: 10 eV
Resolution: 35000
Column name: Acclaim RSLC C18 2.2um, 2.1x100mm, Thermo
Retention time: 3.977 min
Base peak: 217.0971
Precursor m/z: 217.0972
Precursor type: [M+H]+
m/z	relative intensity	assigned
217.0976	999	C12H13N2O2+
