Mass spectrum: 10,11-Dihydro-10-Hydroxycarbazepine; LC-ESI-QTOF; MS2; CE: 30 eV; R=35000; [M+H]+
Name: 10,11-Dihydro-10-Hydroxycarbazepine
Name: Licarbazepine
Name: 5-hydroxy-5,6-dihydrobenzo[b][1]benzazepine-11-carboxamide
Formula: C15H14N2O2
Exact mass: 254.1055277
SMILES: c1ccc2c(c1)CC(c3ccccc3N2C(=O)N)O
InChI: InChI=1S/C15H14N2O2/c16-15(19)17-12-7-3-1-5-10(12)9-14(18)11-6-2-4-8-13(11)17/h1-8,14,18H,9H2,(H2,16,19)
Instrument: Bruker maXis Impact
Instrument type: LC-ESI-QTOF
Ms type: MS2
Ion mode: POSITIVE
Ionization: ESI
Fragmentation mode: CID
Collision energy: 30 eV
Resolution: 35000
Column name: Acclaim RSLC C18 2.2um, 2.1x100mm, Thermo
Retention time: 6.048 min
Base peak: 372.1581
Precursor m/z: 255.1128
Precursor type: [M+H]+
m/z	relative intensity	assigned
165.0681	9	C13H9+
167.0841	8	C13H11+
179.0715	22	C13H9N+
191.0712	5	C14H9N+
192.0799	161	C14H10N+
193.0864	87	C14H11N+
194.0956	999	C14H12N+
195.0988	135	C13[13]CH12N+
196.1022	7	C12[13]C2H12N+
237.1012	11	C15H13N2O+
