Mass spectrum: Chlorfenvinphos; LC-ESI-QTOF; MS2; CE: 20 eV; R=35000; [M+H]+
Name: Chlorfenvinphos
Name: Phosphoric acid, 2-chloro-1-(2,4-dichlorophenyl)ethenyl diethyl ester
Name: [2-chloro-1-(2,4-dichlorophenyl)ethenyl] diethyl phosphate
Formula: C12H14Cl3O4P
Exact mass: 357.9695286
SMILES: CCOP(=O)(OCC)OC(=CCl)C1=C(Cl)C=C(Cl)C=C1
InChI: InChI=1S/C12H14Cl3O4P/c1-3-17-20(16,18-4-2)19-12(8-13)10-6-5-9(14)7-11(10)15/h5-8H,3-4H2,1-2H3
Instrument: Bruker maXis Impact
Instrument type: LC-ESI-QTOF
Ms type: MS2
Ion mode: POSITIVE
Ionization: ESI
Fragmentation mode: CID
Collision energy: 20 eV
Resolution: 35000
Column name: Acclaim RSLC C18 2.2um, 2.1x100mm, Thermo
Retention time: 11.018 min
Base peak: 326.1763
Precursor m/z: 358.9768
Precursor type: [M+H]+
m/z	relative intensity	assigned
127.0146	571	C2H8O4P+
128.0181	9	C[13]CH8O4P+
155.0457	999	C4H12O4P+
156.0491	38	C3[13]CH12O4P+
169.9676	52	CH9Cl2O3P+
171.9644	21	CH9Cl[37]ClO3P+
204.9367	488	C8H4Cl3+
205.9398	47	C7[13]CH4Cl3+
206.9333	442	C8H4Cl2[37]Cl+
207.937	24	C4H8Cl3OP+
208.9291	5	Cl3H9O4P+
330.9445	9	C10H11Cl3O4P+
332.942	6	C10H11Cl2[37]ClO4P+
358.9767	8	C12H15Cl3O4P+
360.9729	8	C12H15Cl2[37]ClO4P+
