Mass spectrum: Benzyl methacrylate; GC-APCI-QTOF; MS2; CE: 10 eV; R=35000; [M]+
Name: Benzyl methacrylate
Formula: C11H12O2
Exact mass: 176.0837
SMILES: CC(=C)C(=O)OCC1=CC=CC=C1
InChI: InChI=1S/C11H12O2/c1-9(2)11(12)13-8-10-6-4-3-5-7-10/h3-7H,1,8H2,2H3
Instrument: Bruker 450 GC coupled to maXis Impact
Instrument type: GC-APCI-QTOF
Ms type: MS2
Ion mode: POSITIVE
Ionization: APCI
Fragmentation mode: CID
Collision energy: 10 eV
Resolution: 35000
Column name: Rxi-5Sil MS column, 30m, 0.25mm i.d., 0.25Âµm film thickness, Restek
Retention time: 10.822 min
Base peak: 176.0844
Precursor m/z: 176.0832
Precursor type: [M]+
m/z	relative intensity	assigned
115.0547	41	C9H7+
120.0561	26	C8H8O+
129.0703	38	C10H9+
131.0858	999	C10H11+
132.0908	68	C10H12+
147.0807	36	C10H11O+
157.0681	26	C11H9O+
158.0747	383	C11H10O+
159.0794	36	C11H11O+
176.0853	195	C11H12O2+
