Mass spectrum: Flumioxazin; LC-ESI-QTOF; MS2; CE: 30 eV; R=35000; [M+H]+
Name: Flumioxazin
Name: 2-(7-fluoro-3-oxo-4-prop-2-ynyl-1,4-benzoxazin-6-yl)-4,5,6,7-tetrahydroisoindole-1,3-dione
Formula: C19H15FN2O4
Exact mass: 354.1015852
SMILES: FC1=CC2=C(C=C1N1C(=O)C3=C(CCCC3)C1=O)N(CC#C)C(=O)CO2
InChI: InChI=1S/C19H15FN2O4/c1-2-7-21-15-9-14(13(20)8-16(15)26-10-17(21)23)22-18(24)11-5-3-4-6-12(11)19(22)25/h1,8-9H,3-7,10H2
Instrument: Bruker maXis Impact
Instrument type: LC-ESI-QTOF
Ms type: MS2
Ion mode: POSITIVE
Ionization: ESI
Fragmentation mode: CID
Collision energy: 30 eV
Resolution: 35000
Column name: Acclaim RSLC C18 2.2um, 2.1x100mm, Thermo
Retention time: 8.759 min
Base peak: 420.094
Precursor m/z: 355.1089
Precursor type: [M+H]+
m/z	relative intensity	assigned
129.069	142	C10H9+
148.055	188	C9H7FN+
149.0382	150	C12H5+
176.0491	329	C13H6N+
178.0855	154	C10H12NO2+
190.0532	154	C10H7FN2O+
190.1197	125	C12H16NO+
204.046	289	C11H7FNO2+
236.1273	627	C16H16N2+
253.0747	164	C12H12FNO4+
259.0507	152	C16H7N2O2+
260.071	154	C17H10NO2+
281.103	202	C17H15NO3+
285.1028	210	C16H14FN2O2+
287.083	405	C15H12FN2O3+
299.0821	902	C16H12FN2O3+
300.0861	203	C15[13]CH12FN2O3+
301.0953	145	C19H13N2O2+
307.1064	134	C18H15N2O3+
313.0975	316	C17H14FN2O3+
316.084	150	C19H12N2O3+
327.076	271	C17H12FN2O4+
327.1136	816	C18H16FN2O3+
328.1169	241	C17[13]CH16FN2O3+
355.1058	999	C19H16FN2O4+
356.1092	284	C18[13]CH16FN2O4+
