Mass spectrum: N-isopropyl-N'-phenyl-p-phenylenediamine; LC-ESI-QTOF; MS2; CE: 40 eV; R=35000; [M+H]+
Name: N-isopropyl-N'-phenyl-p-phenylenediamine
Name: N-Isopropyl-N`-phenyl-p-phenylenediamine
Name: 1-N-phenyl-4-N-propan-2-ylbenzene-1,4-diamine
Formula: C15H18N2
Exact mass: 226.1469986
SMILES: CC(C)NC1=CC=C(NC2=CC=CC=C2)C=C1
InChI: InChI=1S/C15H18N2/c1-12(2)16-14-8-10-15(11-9-14)17-13-6-4-3-5-7-13/h3-12,16-17H,1-2H3
Instrument: Bruker maXis Impact
Instrument type: LC-ESI-QTOF
Ms type: MS2
Ion mode: POSITIVE
Ionization: ESI
Fragmentation mode: CID
Collision energy: 40 eV
Resolution: 35000
Column name: Acclaim RSLC C18 2.2um, 2.1x100mm, Thermo
Retention time: 6.590 min
Base peak: 227.154
Precursor m/z: 227.1543
Precursor type: [M+H]+
m/z	relative intensity	assigned
117.0571	5	C8H7N+
118.0642	15	C8H8N+
119.0723	16	C8H9N+
120.0801	999	C8H10N+
121.0831	87	C7[13]CH10N+
128.0611	20	C10H8+
129.0684	13	C10H9+
130.064	9	C9H8N+
141.0687	9	C11H9+
142.0766	6	C11H10+
144.0794	6	C10H10N+
152.061	32	C12H8+
153.0684	27	C12H9+
154.0749	8	C12H10+
155.0591	6	C10H7N2+
155.0845	12	C12H11+
156.08	6	C11H10N+
165.0686	22	C13H9+
167.072	11	C12H9N+
167.0837	10	C13H11+
168.0795	6	C12H10N+
168.0909	7	C13H12+
170.0947	6	C12H12N+
176.0605	9	C14H8+
177.0686	21	C14H9+
178.0766	199	C14H10+
179.0813	40	C13[13]CH10+
180.0798	340	C13H10N+
181.0835	53	C12[13]CH10N+
182.0928	6	C13H12N+
191.0843	9	C15H11+
192.0918	13	C15H12+
193.0878	32	C14H11N+
194.0957	178	C14H12N+
195.1018	73	C14H13N+
196.1037	13	C13[13]CH13N+
208.111	12	C15H14N+
210.1156	6	C14H14N2+
210.1246	5	C15H16N+
211.1217	9	C14H15N2+
225.138	8	C15H17N2+
227.1537	6	C15H19N2+
