Mass spectrum: Sulfadoxine; LC-ESI-QTOF; MS2; CE: Ramp 21.8-32.7 eV; R=35000; [M+H]+
Name: Sulfadoxine
Name: 4-amino-N-(5,6-dimethoxypyrimidin-4-yl)benzenesulfonamide
Formula: C12H14N4O4S
Exact mass: 310.0736
SMILES: COc1c(ncnc1OC)NS(=O)(=O)c2ccc(cc2)N
InChI: InChI=1S/C12H14N4O4S/c1-19-10-11(14-7-15-12(10)20-2)16-21(17,18)9-5-3-8(13)4-6-9/h3-7H,13H2,1-2H3,(H,14,15,16)
Instrument: Bruker maXis Impact
Instrument type: LC-ESI-QTOF
Ms type: MS2
Ion mode: POSITIVE
Ionization: ESI
Fragmentation mode: CID
Collision energy: Ramp 21.8-32.7 eV
Resolution: 35000
Column name: Acclaim RSLC C18 2.2um, 2.1x100mm, Thermo
Retention time: 4.8 min
Base peak: 311.083
Precursor m/z: 311.0809
Precursor type: [M+H]+
m/z	relative intensity	assigned
53.0386	5	C4H5+
54.0339	5	C3H4N+
65.0381	77	C5H5+
68.0491	100	C4H6N+
69.0329	10	C4H5O+
78.0332	10	C5H4N+
79.0179	17	C5H3O+
80.0363	7	C4H4N2+
80.0493	14	C5H6N+
92.0498	462	C6H6N+
93.0559	38	C3H9O3+
96.0447	13	C5H6NO+
108.0463	573	CH8N4S+
109.049	38	C3H9O4+
109.0643	5	C7H9O+
110.0614	71	CH10N4S+
113.0359	7	C4H5N2O2+
120.0568	18	C8H8O+
124.0215	15	C6H6NS+
124.0512	5	C7H8O2+
126.0665	29	C5H8N3O+
138.0301	7	C5H4N3O2+
140.0457	343	C5H6N3O2+
141.0528	57	C5H7N3O2+
154.0615	325	C6H8N3O2+
155.0682	77	C6H9N3O2+
156.0118	999	C6H6NO2S+
156.0771	403	C6H10N3O2+
157.0147	79	C7HN4O+
157.0796	24	C7H13N2S+
158.0078	37	C3H2N4O4+
201.0773	13	C10H9N4O+
212.0697	25	C5H14N3O4S+
213.0752	5	C8H11N3O4+
218.0236	19	C6H8N3O4S+
230.0808	55	C11H10N4O2+
231.085	8	C12H13N3S+
245.1045	181	C12H13N4O2+
246.1073	24	C12H14N4O2+
311.0829	499	C12H15N4O4S+
312.0854	84	C11H14N5O4S+
313.0812	22	C11H15N5O4S+
