Mass spectrum: Tiabendazole; LC-ESI-QTOF; MS2; CE: 40 eV; R=35000; [M+H]+
Name: Tiabendazole
Name: Thiabendazole
Name: 4-(1H-benzimidazol-2-yl)-1,3-thiazole
Formula: C10H7N3S
Exact mass: 201.0360682
SMILES: c1ccc2c(c1)[nH]c(n2)c3cscn3
InChI: InChI=1S/C10H7N3S/c1-2-4-8-7(3-1)12-10(13-8)9-5-14-6-11-9/h1-6H,(H,12,13)
Instrument: Bruker maXis Impact
Instrument type: LC-ESI-QTOF
Ms type: MS2
Ion mode: POSITIVE
Ionization: ESI
Fragmentation mode: CID
Collision energy: 40 eV
Resolution: 35000
Column name: Acclaim RSLC C18 2.2um, 2.1x100mm, Thermo
Retention time: 6.1 min
Base peak: 202.0433
Precursor m/z: 202.0433
Precursor type: [M+H]+
m/z	relative intensity	assigned
118.0517	7	C7H6N2+
131.0601	650	C8H7N2+
132.0631	38	C7[13]CH7N2+
134.0059	17	C7H4NS+
142.0523	7	C9H6N2+
143.0599	65	C9H7N2+
144.0634	5	C8[13]CH7N2+
157.063	9	C9H7N3+
158.0705	17	C9H8N3+
170.0712	15	C10H8N3+
174.0249	5	C9H6N2S+
175.0321	999	C9H7N2S+
176.0351	66	C8[13]CH7N2S+
177.0283	20	C9H7N2[34]S+
202.0435	166	C10H8N3S+
203.0464	16	C9[13]CH8N3S+
