Mass spectrum: Thiophanate-methyl; LC-ESI-QTOF; MS2; CE: 10 eV; R=35000; [M+H]+
Name: Thiophanate-methyl
Name: CID 3085
Name: N`-methoxycarbonyl-N-[2-[(N-methoxycarbonyl-C-sulfanylcarbonimidoyl)amino]phenyl]carbamimidothioic acid
Formula: C12H14N4O4S2
Exact mass: 342.0456469
SMILES: COC(=O)NC(=S)NC1=CC=CC=C1NC(=S)NC(=O)OC
InChI: InChI=1S/C12H14N4O4S2/c1-19-11(17)15-9(21)13-7-5-3-4-6-8(7)14-10(22)16-12(18)20-2/h3-6H,1-2H3,(H2,13,15,17,21)(H2,14,16,18,22)
Instrument: Bruker maXis Impact
Instrument type: LC-ESI-QTOF
Ms type: MS2
Ion mode: POSITIVE
Ionization: ESI
Fragmentation mode: CID
Collision energy: 10 eV
Resolution: 35000
Column name: Acclaim RSLC C18 2.2um, 2.1x100mm, Thermo
Retention time: 6.938 min
Base peak: 220.9525
Precursor m/z: 343.0529
Precursor type: [M+H]+
m/z	relative intensity	assigned
151.0312	434	C7H7N2S+
152.0346	34	C6[13]CH7N2S+
153.0271	15	C7H7N2[34]S+
160.0482	5	C5H8N2O4+
192.0757	39	C9H10N3O2+
194.0368	19	C5H10N2O4S+
209.0365	13	CH13N4O4S2+
226.0637	253	C9H12N3O2S+
227.0661	27	C8[13]CH12N3O2S+
228.0603	10	C9H12N3O2[34]S+
235.9937	26	C9H6N3OS2+
251.0574	22	C10H11N4O2S+
268.0202	231	C10H10N3O2S2+
269.0237	33	C9[13]CH10N3O2S2+
270.0174	20	C10H10N3O2S[34]S+
277.0379	9	C11H9N4O3S+
279.001	11	C10H7N4O2S2+
309.0638	5	C12H13N4O4S+
311.0264	513	C11H11N4O3S2+
312.028	73	C10[13]CH11N4O3S2+
313.023	43	C11H11N4O3S[34]S+
343.0533	999	C12H15N4O4S2+
344.0552	143	C11[13]CH15N4O4S2+
345.0493	84	C12H15N4O4S[34]S+
