Mass spectrum: Triethyl citrate; GC-APCI-QTOF; MS2; CE: 50 eV; R=35000; [M]+
Name: Triethyl citrate
Formula: C12H20O7
Exact mass: 276.1209
SMILES: CCOC(=O)CC(CC(=O)OCC)(C(=O)OCC)O
InChI: InChI=1S/C12H20O7/c1-4-17-9(13)7-12(16,11(15)19-6-3)8-10(14)18-5-2/h16H,4-8H2,1-3H3
Instrument: Bruker 450 GC coupled to maXis Impact
Instrument type: GC-APCI-QTOF
Ms type: MS2
Ion mode: POSITIVE
Ionization: APCI
Fragmentation mode: CID
Collision energy: 50 eV
Resolution: 35000
Column name: Rxi-5Sil MS column, 30m, 0.25mm i.d., 0.25Âµm film thickness, Restek
Retention time: 14.992 min
Base peak: 189.0557
Precursor m/z: 276.1204
Precursor type: [M]+
m/z	relative intensity	assigned
65.0395	42	C5H5+
92.0278	35	C6H4O+
115.0545	115	C9H7+
116.0613	79	C9H8+
117.0689	47	C9H9+
119.0499	33	C8H7O+
121.0284	453	C7H5O2+
122.034	44	C7H6O2+
128.062	57	C10H8+
129.071	74	C10H9+
130.0432	34	C9H6O+
131.0491	125	C9H7O+
132.0567	47	C9H8O+
145.0662	61	C10H9O+
147.0484	42	C2H11O7+
149.0255	999	C8H5O3+
155.0888	44	C5H15O5+
157.069	32	C4H13O6+
171.085	79	C5H15O6+
