Mass spectrum: Trifloxystrobin CGA 321113; LC-ESI-QTOF; MS2; CE: 40 eV; R=35000; [M+H]+
Name: Trifloxystrobin CGA 321113
Name: ISZQNKFXNXQTTF-NACSPRHISA-N
Name: (2E)-2-methoxyimino-2-[2-[[(E)-1-[3-(trifluoromethyl)phenyl]ethylideneamino]oxymethyl]phenyl]acetic acid
Formula: C19H17F3N2O4
Exact mass: 394.1140417
SMILES: CO\N=C(\C(O)=O)C1=CC=CC=C1CO\N=C(/C)C1=CC=CC(=C1)C(F)(F)F
InChI: InChI=1S/C19H17F3N2O4/c1-12(13-7-5-8-15(10-13)19(20,21)22)23-28-11-14-6-3-4-9-16(14)17(18(25)26)24-27-2/h3-10H,11H2,1-2H3,(H,25,26)/b23-12+,24-17+
Instrument: Bruker maXis Impact
Instrument type: LC-ESI-QTOF
Ms type: MS2
Ion mode: POSITIVE
Ionization: ESI
Fragmentation mode: CID
Collision energy: 40 eV
Resolution: 35000
Column name: Acclaim RSLC C18 2.2um, 2.1x100mm, Thermo
Retention time: 10.359 min
Base peak: 330.0803
Precursor m/z: 395.1213
Precursor type: [M+H]+
m/z	relative intensity	assigned
116.0491	123	C8H6N+
117.056	44	C2H10FO4+
118.062	10	C5H10O3+
125.0198	10	C7H3F2+
132.0431	8	C8H6NO+
133.0506	10	C5H9O4+
134.0589	19	C8H8NO+
143.0293	7	C10H4F+
145.0249	625	C7H4F3+
146.0282	61	C6[13]CH4F3+
148.0743	101	C9H10NO+
149.0788	8	C8[13]CH10NO+
163.0344	21	C10H5F2+
173.0311	165	C7H4F3N2+
174.0345	19	C6[13]CH4F3N2+
186.0516	999	C9H7F3N+
187.0545	128	C8[13]CH7F3N+
192.0643	6	C10H10NO3+
204.0614	48	C12H8F2N+
205.0645	5	C11[13]CH8F2N+
