Mass spectrum: Propyphenazone; LC-ESI-QTOF; MS2; CE: 40 eV; R=35000; [M+H]+
Name: Propyphenazone
Name: 1,5-dimethyl-2-phenyl-4-propan-2-ylpyrazol-3-one
Formula: C14H18N2O
Exact mass: 230.1419132
SMILES: CC(C)C1=C(C)N(C)N(C1=O)C1=CC=CC=C1
InChI: InChI=1S/C14H18N2O/c1-10(2)13-11(3)15(4)16(14(13)17)12-8-6-5-7-9-12/h5-10H,1-4H3
Instrument: Bruker maXis Impact
Instrument type: LC-ESI-QTOF
Ms type: MS2
Ion mode: POSITIVE
Ionization: ESI
Fragmentation mode: CID
Collision energy: 40 eV
Resolution: 35000
Column name: Acclaim RSLC C18 2.2um, 2.1x100mm, Thermo
Retention time: 7.422 min
Base peak: 231.1495
Precursor m/z: 231.1492
Precursor type: [M+H]+
m/z	relative intensity	assigned
115.0535	106	C9H7+
116.05	19	C8H6N+
117.0563	92	C8H7N+
117.0692	88	C9H9+
118.0642	285	C8H8N+
119.0693	33	C7[13]CH8N+
120.0433	48	C7H6NO+
120.0799	199	C8H10N+
121.0829	20	C7[13]CH10N+
122.0588	20	C7H8NO+
123.056	5	C6H7N2O+
123.0653	8	C7H9NO+
123.0907	27	C7H11N2+
124.0749	165	C7H10NO+
125.0788	17	C6[13]CH10NO+
125.1075	9	C7H13N2+
127.0535	11	C10H7+
128.048	40	C9H6N+
128.0602	23	C10H8+
128.1064	12	C7H14NO+
129.0562	33	C9H7N+
129.068	28	C10H9+
130.064	490	C9H8N+
131.0714	416	C9H9N+
132.0432	16	C8H6NO+
132.079	208	C9H10N+
133.0511	103	C8H7NO+
133.0749	103	C8H9N2+
134.0562	12	C7[13]CH7NO+
134.0791	10	C7[13]CH9N2+
134.0951	63	C9H12N+
135.0545	22	C7H7N2O+
136.0747	10	C8H10NO+
138.0905	32	C8H12NO+
139.0853	50	C7H11N2O+
140.0482	34	C10H6N+
141.0546	15	C10H7N+
142.0641	63	C10H8N+
143.0717	153	C10H9N+
144.0795	458	C10H10N+
145.0636	110	C10H9O+
145.0747	103	C9H9N2+
146.0602	25	C9H8NO+
146.0825	199	C9H10N2+
146.0949	284	C10H12N+
147.0665	12	C9H9NO+
147.0907	83	C9H11N2+
148.0742	26	C9H10NO+
148.0937	11	C8[13]CH11N2+
148.1109	46	C10H14N+
149.0732	5	C8H9N2O+
149.116	6	C9[13]CH14N+
154.0644	14	C11H8N+
155.0595	23	C10H7N2+
156.0659	14	C10H8N2+
156.0793	70	C11H10N+
157.051	41	C10H7NO+
157.0862	71	C11H11N+
158.0587	63	C10H8NO+
158.0951	110	C11H12N+
159.0658	35	C10H9NO+
159.0903	91	C10H11N2+
160.0742	28	C10H10NO+
160.0973	67	C10H12N2+
161.106	81	C10H13N2+
162.1094	11	C9[13]CH13N2+
167.0732	5	C12H9N+
170.0579	26	C11H8NO+
170.096	13	C12H12N+
171.0538	53	C10H7N2O+
171.0919	17	C11H11N2+
172.0744	98	C11H10NO+
172.0979	15	C11H12N2+
172.1107	36	C12H14N+
173.0707	37	C10H9N2O+
173.1058	51	C11H13N2+
174.0767	124	C10H10N2O+
175.0812	14	C9[13]CH10N2O+
183.0906	6	C12H11N2+
184.0745	23	C12H10NO+
185.0698	65	C11H9N2O+
186.0772	189	C11H10N2O+
187.0837	53	C11H11N2O+
187.123	28	C12H15N2+
188.0925	44	C11H12N2O+
188.1291	11	C12H16N2+
189.1012	803	C11H13N2O+
190.1044	101	C10[13]CH13N2O+
191.1096	7	C9[13]C2H13N2O+
197.1063	19	C13H13N2+
199.085	13	C12H11N2O+
200.0953	6	C12H12N2O+
201.1012	999	C12H13N2O+
202.1041	141	C11[13]CH13N2O+
203.1061	7	C10[13]C2H13N2O+
203.1542	11	C13H19N2+
215.1159	31	C13H15N2O+
216.1248	24	C13H16N2O+
229.1316	16	C14H17N2O+
231.1482	346	C14H19N2O+
232.1511	50	C13[13]CH19N2O+
