Mass spectrum: Tiamulin; LC-ESI-QTOF; MS2; CE: 40 eV; R=35000; [M+H]+
Name: Tiamulin
Formula: C28H47NO4S
Exact mass: 493.3225800
SMILES: CCN(CC)CCSCC(=O)O[C@@H]1C[C@@]([C@H]([C@@H]([C@@]23CC[C@H]([C@@]1([C@@H]2C(=O)CC3)C)C)C)O)(C)C=C
InChI: InChI=1S/C28H47NO4S/c1-8-26(6)17-22(33-23(31)18-34-16-15-29(9-2)10-3)27(7)19(4)11-13-28(20(5)25(26)32)14-12-21(30)24(27)28/h8,19-20,22,24-25,32H,1,9-18H2,2-7H3/t19-,20+,22-,24+,25+,26-,27+,28+/m1/s1
Instrument: Bruker maXis Impact
Instrument type: LC-ESI-QTOF
Ms type: MS2
Ion mode: POSITIVE
Ionization: ESI
Fragmentation mode: CID
Collision energy: 40 eV
Resolution: 35000
Column name: Acclaim RSLC C18 2.2um, 2.1x100mm, Thermo
Retention time: 7.888 min
Base peak: 494.3343
Precursor m/z: 494.3299
Precursor type: [M+H]+
m/z	relative intensity	assigned
119.0168	120	C4H7O2S+
119.0864	18	C9H11+
120.0196	6	C3[13]CH7O2S+
121.1019	15	C9H13+
123.0812	5	C8H11O+
123.1175	5	C9H15+
131.0862	9	C10H11+
133.1019	31	C10H13+
135.081	8	C9H11O+
135.1177	12	C10H15+
137.0968	6	C9H13O+
143.0862	6	C11H11+
145.102	20	C11H13+
147.0812	6	C10H11O+
147.1176	29	C11H15+
149.0967	30	C10H13O+
149.1332	13	C11H17+
157.1019	12	C12H13+
159.1176	26	C12H15+
161.0971	10	C11H13O+
161.1334	21	C12H17+
163.1129	89	C11H15O+
163.1488	9	C12H19+
164.1157	11	C10[13]CH15O+
165.1283	7	C11H17O+
169.1018	7	C13H13+
171.1172	14	C13H15+
173.1334	22	C13H17+
175.1127	21	C12H15O+
175.1493	21	C13H19+
177.1284	30	C12H17O+
183.1175	7	C14H15+
185.1335	14	C14H17+
187.1134	5	C10H19OS+
187.1491	19	C14H19+
189.1286	11	C13H17O+
189.1648	6	C14H21+
191.144	9	C13H19O+
192.1069	999	C8H18NO2S+
193.1096	67	C7[13]CH18NO2S+
194.1029	24	C8H18NO2[34]S+
197.1339	10	C15H17+
199.1497	10	C15H19+
201.1651	15	C15H21+
203.1442	18	C14H19O+
205.1602	7	C14H21O+
211.1494	14	C16H19+
213.1653	6	C16H21+
215.1446	11	C15H19O+
215.1813	7	C13H27S+
217.1603	7	C15H21O+
221.1554	10	C11H25O2S+
225.1651	7	C17H21+
227.1814	15	C14H27S+
229.1604	9	C13H25OS+
229.1964	10	C17H25+
241.1971	5	C15H29S+
245.192	16	C14H29OS+
257.2277	7	C19H29+
267.2125	18	C17H31S+
285.2241	18	C17H33OS+
303.2336	6	C17H35O2S+
