Mass spectrum: Flunisolide; LC-ESI-QTOF; MS2; CE: 10 eV; R=35000; [M+H]+
Name: Flunisolide
Name: (1S,2S,4R,8S,9S,11S,12S,13R,19S)-19-fluoro-11-hydroxy-8-(2-hydroxyacetyl)-6,6,9,13-tetramethyl-5,7-dioxapentacyclo[10.8.0.02,9.04,8.013,18]icosa-14,17-dien-16-one
Formula: C24H31FO6
Exact mass: 434.2104669
SMILES: [H][C@@]12C[C@H]3OC(C)(C)O[C@@]3(C(=O)CO)[C@@]1(C)C[C@H](O)[C@@]1([H])[C@@]2([H])C[C@H](F)C2=CC(=O)C=C[C@]12C
InChI: InChI=1S/C24H31FO6/c1-21(2)30-19-9-14-13-8-16(25)15-7-12(27)5-6-22(15,3)20(13)17(28)10-23(14,4)24(19,31-21)18(29)11-26/h5-7,13-14,16-17,19-20,26,28H,8-11H2,1-4H3/t13-,14-,16-,17-,19+,20+,22-,23-,24+/m0/s1
Instrument: Bruker maXis Impact
Instrument type: LC-ESI-QTOF
Ms type: MS2
Ion mode: POSITIVE
Ionization: ESI
Fragmentation mode: CID
Collision energy: 10 eV
Resolution: 35000
Column name: Acclaim RSLC C18 2.2um, 2.1x100mm, Thermo
Retention time: 9.008 min
Base peak: 435.2169
Precursor m/z: 435.2177
Precursor type: [M+H]+
m/z	relative intensity	assigned
155.0687	9	C8H11O3+
171.0792	12	C12H11O+
197.0948	12	C14H13O+
211.1109	6	C15H15O+
223.1106	20	C16H15O+
224.1153	6	C16H16O+
225.1262	21	C16H17O+
235.1101	5	C17H15O+
239.1429	6	C17H19O+
249.1273	6	C18H17O+
261.1267	12	C19H17O+
263.1427	10	C19H19O+
265.1571	6	C19H21O+
275.1422	10	C20H19O+
279.1376	16	C19H19O2+
281.1525	9	C19H21O2+
293.1525	24	C20H21O2+
294.1568	5	C19[13]CH21O2+
301.1583	5	C22H21O+
303.1374	22	C21H19O2+
304.1409	5	C20[13]CH19O2+
309.1479	6	C20H21O3+
311.1632	16	C20H23O3+
321.1477	132	C21H21O3+
322.1519	27	C20[13]CH21O3+
331.1704	5	C20H24FO3+
339.1585	177	C21H23O4+
340.1617	38	C20[13]CH23O4+
341.1553	18	C21H22FO3+
359.1652	15	C21H24FO4+
377.2108	8	C22H30FO4+
379.1898	6	C24H27O4+
397.2006	138	C24H29O5+
398.2044	37	C23[13]CH29O5+
399.2056	7	C22[13]C2H29O5+
415.211	25	C24H31O6+
416.2133	6	C23[13]CH31O6+
417.2067	180	C24H30FO5+
418.2098	48	C23[13]CH30FO5+
419.2127	6	C22[13]C2H30FO5+
435.2177	999	C24H32FO6+
436.2206	219	C23[13]CH32FO6+
437.2243	30	C22[13]C2H32FO6+
