Mass spectrum: 2,4-Dinitrophenol; LC-ESI-QTOF; MS2; CE: 30 eV; R=35000; [M-H]-
Name: 2,4-Dinitrophenol
Formula: C6H4N2O5
Exact mass: 184.0120212
SMILES: OC1=C(C=C(C=C1)[N+]([O-])=O)[N+]([O-])=O
InChI: InChI=1S/C6H4N2O5/c9-6-2-1-4(7(10)11)3-5(6)8(12)13/h1-3,9H
Instrument: Bruker maXis Impact
Instrument type: LC-ESI-QTOF
Ms type: MS2
Ion mode: NEGATIVE
Ionization: ESI
Fragmentation mode: CID
Collision energy: 30 eV
Resolution: 35000
Column name: Acclaim RSLC C18 2.2um, 2.1x100mm, Thermo
Retention time: 4.412 min
Base peak: 183.0062
Precursor m/z: 183.0047
Precursor type: [M-H]-
m/z	relative intensity	assigned
109.0169	613	C5H3NO2-
123.0096	999	C6H3O3-
137.0113	832	C6H3NO3-
153.0091	699	C6H3NO4-
183.0054	556	C6H3N2O5-
