Mass spectrum: Oxfendazole; LC-ESI-QTOF; MS2; CE: 40 eV; R=35000; [M+H]+
Name: Oxfendazole
Name: methyl N-[6-(benzenesulfinyl)-1H-benzimidazol-2-yl]carbamate
Formula: C15H13N3O3S
Exact mass: 315.0677623
SMILES: COC(=O)Nc1[nH]c2ccc(cc2n1)S(=O)c3ccccc3
InChI: InChI=1S/C15H13N3O3S/c1-21-15(19)18-14-16-12-8-7-11(9-13(12)17-14)22(20)10-5-3-2-4-6-10/h2-9H,1H3,(H2,16,17,18,19)
Instrument: Bruker maXis Impact
Instrument type: LC-ESI-QTOF
Ms type: MS2
Ion mode: POSITIVE
Ionization: ESI
Fragmentation mode: CID
Collision energy: 40 eV
Resolution: 35000
Column name: Acclaim RSLC C18 2.2um, 2.1x100mm, Thermo
Retention time: 6.5 min
Base peak: 238.1076
Precursor m/z: 316.075
Precursor type: [M+H]+
m/z	relative intensity	assigned
131.0477	34	C7H5N3+
146.0696	20	C5H10N2O3+
147.0438	9	C9H7O2+
159.0422	999	C8H5N3O+
160.0458	67	C7[13]CH5N3O+
174.0297	10	C8H4N3O2+
175.0372	30	C8H5N3O2+
191.0325	194	C8H5N3O3+
191.0693	92	C9H9N3O2+
192.0367	20	C9H8N2OS+
192.0716	9	C10H12N2S+
199.0453	11	C12H9NS+
207.0096	125	C8H5N3O2S+
208.01	17	C12H4N2S+
223.0584	28	C15H11S+
239.036	11	C9H9N3O3S+
256.0895	10	C14H14N3S+
266.0386	126	C14H8N3OS+
267.0468	185	C14H9N3OS+
299.0728	14	C15H13N3O2S+
