Mass spectrum: Acamprosate; LC-ESI-QTOF; MS2; CE: 30 eV; R=35000; [M+H]+
Name: Acamprosate
Name: 3-acetamidopropane-1-sulfonic acid
Formula: C5H11NO4S
Exact mass: 181.0408788
SMILES: C/C(=N/CCCS(=O)(=O)O)/O
InChI: InChI=1S/C5H11NO4S/c1-5(7)6-3-2-4-11(8,9)10/h2-4H2,1H3,(H,6,7)(H,8,9,10)
Instrument: Bruker maXis Impact
Instrument type: LC-ESI-QTOF
Ms type: MS2
Ion mode: POSITIVE
Ionization: ESI
Fragmentation mode: CID
Collision energy: 30 eV
Resolution: 35000
Column name: Acclaim RSLC C18 2.2um, 2.1x100mm, Thermo
Retention time: 1.357 min
Base peak: 182.0488
Precursor m/z: 182.0482
Precursor type: [M+H]+
m/z	relative intensity	assigned
123.0115	999	C3H7O3S+
140.0381	322	C3H10NO3S+
