Mass spectrum: Oseltamivir; LC-ESI-QTOF; MS2; CE: 20 eV; R=35000; [M+H]+
Name: Oseltamivir
Name: ethyl (3R,4R,5S)-4-acetamido-5-amino-3-pentan-3-yloxycyclohexene-1-carboxylate
Formula: C16H28N2O4
Exact mass: 312.2049074
SMILES: CCOC(=O)C1=C[C@@H](OC(CC)CC)[C@H](NC(C)=O)[C@@H](N)C1
InChI: InChI=1S/C16H28N2O4/c1-5-12(6-2)22-14-9-11(16(20)21-7-3)8-13(17)15(14)18-10(4)19/h9,12-15H,5-8,17H2,1-4H3,(H,18,19)/t13-,14+,15+/m0/s1
Instrument: Bruker maXis Impact
Instrument type: LC-ESI-QTOF
Ms type: MS2
Ion mode: POSITIVE
Ionization: ESI
Fragmentation mode: CID
Collision energy: 20 eV
Resolution: 35000
Column name: Acclaim RSLC C18 2.2um, 2.1x100mm, Thermo
Retention time: 6.8 min
Base peak: 313.2121
Precursor m/z: 313.2122
Precursor type: [M+H]+
m/z	relative intensity	assigned
120.0437	114	C7H6NO+
121.0473	10	C4H9O4+
122.0955	10	C8H12N+
136.0747	71	C8H10NO+
137.0704	89	C7H9N2O+
138.054	34	C7H8NO2+
138.0734	7	C4H12NO4+
139.0382	6	C7H7O3+
139.0737	14	C8H11O2+
140.0698	18	C7H10NO2+
151.0869	8	C8H11N2O+
161.0698	16	C9H9N2O+
162.0542	47	C9H8NO2+
163.058	5	C4H9N3O4+
166.0854	999	C9H12NO2+
167.0692	29	C9H11O3+
167.0885	89	C8[13]CH12NO2+
168.0909	9	C12[13]CH11+
179.0804	56	C9H11N2O2+
180.0648	41	C9H10NO3+
180.0826	5	C13H10N+
183.1123	18	C9H15N2O2+
184.0961	7	C9H14NO3+
207.1127	7	C11H15N2O2+
208.0961	365	C11H14NO3+
209.0994	49	C10[13]CH14NO3+
225.1231	131	C11H17N2O3+
226.1068	64	C11H16NO4+
226.124	15	C10[13]CH17N2O3+
227.1092	7	C15H15O2+
243.1332	19	C11H19N2O4+
296.186	12	C16H26NO4+
