Mass spectrum: Oseltamivir-carboxylate; LC-ESI-QTOF; MS2; CE: 30 eV; R=35000; [M+H]+
Name: Oseltamivir-carboxylate
Name: Oseltamivir acid
Name: (3R,4R,5S)-4-acetamido-5-azaniumyl-3-pentan-3-yloxycyclohexene-1-carboxylate
Formula: C14H24N2O4
Exact mass: 284.1736072
SMILES: CCC(CC)O[C@@H]1C=C(C[C@H](N)[C@H]1NC(C)=O)C(O)=O
InChI: InChI=1S/C14H24N2O4/c1-4-10(5-2)20-12-7-9(14(18)19)6-11(15)13(12)16-8(3)17/h7,10-13H,4-6,15H2,1-3H3,(H,16,17)(H,18,19)/t11-,12+,13+/m0/s1
Instrument: Bruker maXis Impact
Instrument type: LC-ESI-QTOF
Ms type: MS2
Ion mode: POSITIVE
Ionization: ESI
Fragmentation mode: CID
Collision energy: 30 eV
Resolution: 35000
Column name: Acclaim RSLC C18 2.2um, 2.1x100mm, Thermo
Retention time: 4.6 min
Base peak: 150.1112
Precursor m/z: 285.1809
Precursor type: [M+H]+
m/z	relative intensity	assigned
119.0604	32	C7H7N2+
120.0432	297	C7H6NO+
121.0305	24	C7H5O2+
121.0468	24	C6[13]CH6NO+
137.0698	243	C7H9N2O+
138.0543	999	C7H8NO2+
139.0393	37	C7H7O3+
139.058	80	C6[13]CH8NO2+
155.0805	33	C7H11N2O2+
156.0643	46	C7H10NO3+
161.0701	26	C9H9N2O+
162.0537	88	C9H8NO2+
180.064	115	C9H10NO3+
197.0911	33	C9H13N2O3+
198.0756	130	C9H12NO4+
