Mass spectrum: Colchicine; LC-ESI-QTOF; MS2; CE: 20 eV; R=35000; [M+H]+
Name: Colchicine
Name: N-[(7S)-1,2,3,10-tetramethoxy-9-oxo-6,7-dihydro-5H-benzo[a]heptalen-7-yl]acetamide
Formula: C22H25NO6
Exact mass: 399.1681875
SMILES: C/C(=N\[C@H]1CCc2cc(c(c(c2-c3c1cc(=O)c(cc3)OC)OC)OC)OC)/O
InChI: InChI=1S/C22H25NO6/c1-12(24)23-16-8-6-13-10-19(27-3)21(28-4)22(29-5)20(13)14-7-9-18(26-2)17(25)11-15(14)16/h7,9-11,16H,6,8H2,1-5H3,(H,23,24)/t16-/m0/s1
Instrument: Bruker maXis Impact
Instrument type: LC-ESI-QTOF
Ms type: MS2
Ion mode: POSITIVE
Ionization: ESI
Fragmentation mode: CID
Collision energy: 20 eV
Resolution: 35000
Column name: Acclaim RSLC C18 2.2um, 2.1x100mm, Thermo
Retention time: 6.3 min
Base peak: 400.1633
Precursor m/z: 400.1755
Precursor type: [M+H]+
m/z	relative intensity	assigned
310.1112	9	C18H16NO4+
313.1338	5	C18H19NO4+
326.1328	8	C19H20NO4+
358.1585	34	C20H24NO5+
359.1626	5	C19[13]CH24NO5+
382.1577	11	C22H24NO5+
400.1679	999	C22H26NO6+
401.1714	223	C21[13]CH26NO6+
