Mass spectrum: Octocrylene; LC-ESI-QTOF; MS2; CE: 10 eV; R=35000; [M+H]+
Name: Octocrylene
Name: 2-ethylhexyl 2-cyano-3,3-diphenylprop-2-enoate
Formula: C24H27NO2
Exact mass: 361.2041791
SMILES: CCCCC(CC)COC(=O)C(C#N)=C(C1=CC=CC=C1)C1=CC=CC=C1
InChI: InChI=1S/C24H27NO2/c1-3-5-12-19(4-2)18-27-24(26)22(17-25)23(20-13-8-6-9-14-20)21-15-10-7-11-16-21/h6-11,13-16,19H,3-5,12,18H2,1-2H3
Instrument: Bruker maXis Impact
Instrument type: LC-ESI-QTOF
Ms type: MS2
Ion mode: POSITIVE
Ionization: ESI
Fragmentation mode: CID
Collision energy: 10 eV
Resolution: 35000
Column name: Acclaim RSLC C18 2.2um, 2.1x100mm, Thermo
Retention time: 13.239 min
Base peak: 379.2381
Precursor m/z: 362.2115
Precursor type: [M+H]+
m/z	relative intensity	assigned
163.0741	10	C10H11O2+
213.0744	12	C13H11NO2+
232.0746	68	C16H10NO+
233.0772	10	C15[13]CH10NO+
237.0779	10	C15H11NO2+
250.0853	999	C16H12NO2+
251.0887	182	C15[13]CH12NO2+
252.0904	29	C20H12+
269.1359	14	C21H17+
301.141	14	C21H19NO+
303.1679	11	C21H21NO+
311.0982	21	C21H13NO2+
312.0985	13	C21H14NO2+
362.2117	48	C24H28NO2+
363.2098	18	C23[13]CH28NO2+
