Mass spectrum: Methiocarb-sulfoxide phenol; LC-ESI-QTOF; MS2; CE: 10 eV; R=35000; [M+H]+
Name: Methiocarb-sulfoxide phenol
Name: Phenol, 3,5-dimethyl-4-(methylsulfinyl)-
Name: 3,5-dimethyl-4-methylsulfinylphenol
Formula: C9H12O2S
Exact mass: 184.0558006
SMILES: CC1=CC(O)=CC(C)=C1S(C)=O
InChI: InChI=1S/C9H12O2S/c1-6-4-8(10)5-7(2)9(6)12(3)11/h4-5,10H,1-3H3
Instrument: Bruker maXis Impact
Instrument type: LC-ESI-QTOF
Ms type: MS2
Ion mode: POSITIVE
Ionization: ESI
Fragmentation mode: CID
Collision energy: 10 eV
Resolution: 35000
Column name: Acclaim RSLC C18 2.2um, 2.1x100mm, Thermo
Retention time: 4.634 min
Base peak: 185.0619
Precursor m/z: 185.0631
Precursor type: [M+H]+
m/z	relative intensity	assigned
122.0715	20	C8H10O+
168.0588	37	C9H12OS+
170.0382	53	C8H10O2S+
171.0411	6	C7[13]CH10O2S+
185.062	999	C9H13O2S+
186.065	72	C8[13]CH13O2S+
187.0577	26	C9H13O2[34]S+
