Mass spectrum: Tris(2-ethylhexl)phosphate; LC-ESI-QTOF; MS2; CE: 10 eV; R=35000; [M+H]+
Name: Tris(2-ethylhexl)phosphate
Name: tris(2-ethylhexyl) phosphate
Formula: C24H51O4P
Exact mass: 434.3524967
SMILES: CCCCC(CC)COP(=O)(OCC(CC)CCCC)OCC(CC)CCCC
InChI: InChI=1S/C24H51O4P/c1-7-13-16-22(10-4)19-26-29(25,27-20-23(11-5)17-14-8-2)28-21-24(12-6)18-15-9-3/h22-24H,7-21H2,1-6H3
Instrument: Bruker maXis Impact
Instrument type: LC-ESI-QTOF
Ms type: MS2
Ion mode: POSITIVE
Ionization: ESI
Fragmentation mode: CID
Collision energy: 10 eV
Resolution: 35000
Column name: Acclaim RSLC C18 2.2um, 2.1x100mm, Thermo
Retention time: 15.494 min
Base peak: 435.3595
Precursor m/z: 435.3598
Precursor type: [M+H]+
m/z	relative intensity	assigned
149.0228	110	C8H5O3+
211.1087	975	C8H20O4P+
212.1129	92	C7[13]CH20O4P+
229.1215	27	C15H17O2+
237.0792	257	C16H14P+
238.0794	66	C19H10+
275.1631	252	C17H23O3+
276.1661	45	C16[13]CH23O3+
293.1747	61	C17H25O4+
294.1779	17	C17H27O2P+
323.2343	999	C23H31O+
324.237	234	C22[13]CH31O+
325.2371	27	C21[13]C2H31O+
376.297	30	C24H40O3+
386.1162	28	C24H19O3P+
387.1198	18	C24H20O3P+
433.3351	44	C24H50O4P+
435.3585	697	C24H52O4P+
436.3633	202	C23[13]CH52O4P+
437.3651	36	C22[13]C2H52O4P+
