Mass spectrum: N-Formyl-4-aminoantipyrine; LC-ESI-QTOF; MS2; CE: 30 eV; R=35000; [M+H]+
Name: N-Formyl-4-aminoantipyrine
Name: 4-Formylaminoantipyrine
Name: N-(1,5-dimethyl-3-oxo-2-phenylpyrazol-4-yl)formamide
Formula: C12H13N3O2
Exact mass: 231.1007767
SMILES: CN1N(C(=O)C(NC=O)=C1C)C1=CC=CC=C1
InChI: InChI=1S/C12H13N3O2/c1-9-11(13-8-16)12(17)15(14(9)2)10-6-4-3-5-7-10/h3-8H,1-2H3,(H,13,16)
Instrument: Bruker maXis Impact
Instrument type: LC-ESI-QTOF
Ms type: MS2
Ion mode: POSITIVE
Ionization: ESI
Fragmentation mode: CID
Collision energy: 30 eV
Resolution: 35000
Column name: Acclaim RSLC C18 2.2um, 2.1x100mm, Thermo
Retention time: 4.053 min
Base peak: 232.1083
Precursor m/z: 232.1081
Precursor type: [M+H]+
m/z	relative intensity	assigned
115.0529	20	C9H7+
116.0484	11	C8H6N+
117.0575	31	C8H7N+
117.0684	8	C9H9+
118.065	92	C8H8N+
119.0596	47	C7H7N2+
120.0455	16	C7H6NO+
120.0802	9	C8H10N+
121.0758	11	C7H9N2+
122.0597	21	C7H8NO+
128.0487	189	C9H6N+
129.0515	28	C8[13]CH6N+
130.0641	225	C9H8N+
131.0612	62	C8H7N2+
131.0683	65	C4H9N3O2+
132.0438	84	C8H6NO+
132.0802	157	C9H10N+
133.0455	12	C7[13]CH6NO+
133.0759	26	C8H9N2+
134.0483	8	C7H6N2O+
134.0595	19	C8H8NO+
134.0834	9	C8H10N2+
135.0555	16	C7H7N2O+
135.0894	13	C8H11N2+
139.049	20	C6H7N2O2+
140.0481	18	C10H6N+
142.0642	46	C10H8N+
143.0593	12	C9H7N2+
143.0711	20	C10H9N+
144.068	41	C9H8N2+
144.0796	51	C10H10N+
145.0748	409	C9H9N2+
146.0588	635	C9H8NO+
146.0794	40	C8[13]CH9N2+
147.0616	86	C8[13]CH8NO+
147.0911	20	C9H11N2+
148.0613	14	C8H8N2O+
149.072	9	C8H9N2O+
155.0581	35	C10H7N2+
156.0429	13	C10H6NO+
157.06	10	C9H7N3+
157.0754	52	C10H9N2+
158.0457	59	C9H6N2O+
158.0589	122	C10H8NO+
158.0813	46	C10H10N2+
159.0554	80	C9H7N2O+
159.0905	999	C10H11N2+
160.0616	15	C9H8N2O+
160.0744	38	C10H10NO+
160.0926	129	C9[13]CH11N2+
161.0701	17	C9H9N2O+
161.0797	10	C10H11NO+
161.0934	27	C9H11N3+
169.075	68	C11H9N2+
170.0635	33	C11H8NO+
171.0554	84	C10H7N2O+
171.0898	43	C11H11N2+
172.0612	97	C10H8N2O+
172.0858	54	C10H10N3+
173.0696	142	C10H9N2O+
174.07	24	C11H10O2+
175.0846	10	C10H11N2O+
176.1165	12	C10H14N3+
177.1024	19	C10H13N2O+
184.0833	12	C11H10N3+
185.0699	105	C11H9N2O+
185.0956	10	C11H11N3+
186.077	41	C11H10N2O+
186.1019	57	C11H12N3+
187.0854	354	C11H11N2O+
188.0823	87	C10H10N3O+
189.0882	276	C10H11N3O+
190.0911	32	C9[13]CH11N3O+
194.0489	8	C12H6N2O+
197.069	19	C12H9N2O+
199.0727	127	C11H9N3O+
200.0769	12	C10[13]CH9N3O+
204.1123	265	C11H14N3O+
205.1155	37	C10[13]CH14N3O+
214.0967	484	C12H12N3O+
215.0993	81	C11[13]CH12N3O+
232.1075	60	C12H14N3O2+
233.1106	10	C11[13]CH14N3O2+
