Mass spectrum: Iminostilbene; LC-ESI-QTOF; MS2; CE: 10 eV; R=35000; [M+H]+
Name: Iminostilbene
Name: 11H-benzo[b][1]benzazepine
Formula: C14H11N
Exact mass: 193.0891494
SMILES: N1C2=CC=CC=C2C=CC2=CC=CC=C12
InChI: InChI=1S/C14H11N/c1-3-7-13-11(5-1)9-10-12-6-2-4-8-14(12)15-13/h1-10,15H
Instrument: Bruker maXis Impact
Instrument type: LC-ESI-QTOF
Ms type: MS2
Ion mode: POSITIVE
Ionization: ESI
Fragmentation mode: CID
Collision energy: 10 eV
Resolution: 35000
Column name: Acclaim RSLC C18 2.2um, 2.1x100mm, Thermo
Retention time: 9.980 min
Base peak: 232.1328
Precursor m/z: 194.0964
Precursor type: [M+H]+
m/z	relative intensity	assigned
192.0786	7	C14H10N+
193.0875	45	C14H11N+
194.096	999	C14H12N+
195.0988	151	C13[13]CH12N+
196.1025	9	C12[13]C2H12N+
