Mass spectrum: Diuron; LC-ESI-QTOF; MS2; CE: 30 eV; R=35000; [M+H]+
Name: Diuron
Name: 3-(3,4-dichlorophenyl)-1,1-dimethylurea
Formula: C9H10Cl2N2O
Exact mass: 232.0170183
SMILES: CN(C)C(=O)NC1=CC(Cl)=C(Cl)C=C1
InChI: InChI=1S/C9H10Cl2N2O/c1-13(2)9(14)12-6-3-4-7(10)8(11)5-6/h3-5H,1-2H3,(H,12,14)
Instrument: Bruker maXis Impact
Instrument type: LC-ESI-QTOF
Ms type: MS2
Ion mode: POSITIVE
Ionization: ESI
Fragmentation mode: CID
Collision energy: 30 eV
Resolution: 35000
Column name: Acclaim RSLC C18 2.2um, 2.1x100mm, Thermo
Retention time: 8.4 min
Base peak: 233.0237
Precursor m/z: 233.0243
Precursor type: [M+H]+
m/z	relative intensity	assigned
123.9947	29	C6H3ClN+
125.0017	55	C9HO+
132.9588	126	C5H3Cl2+
152.9959	77	C7H4ClNO+
159.9703	999	C9HClO+
160.9737	70	C8[13]CHClO+
161.9672	689	C9H[37]ClO+
162.9703	30	C8[13]CH[37]ClO+
172.965	35	C9ClNO+
174.962	25	C6H3Cl2NO+
187.9652	174	C7H4Cl2NO+
188.9686	13	C6[13]CH4Cl2NO+
189.9625	92	C7H4[37]Cl[35]ClNO+
233.0228	33	C9H11Cl2N2O+
