Mass spectrum: 17alpha-Methyltestosterone; LC-ESI-QTOF; MS2; CE: 20 eV; R=35000; [M+H]+
Name: 17alpha-Methyltestosterone
Name: Methyltestosterone
Name: (8R,9S,10R,13S,14S,17S)-17-hydroxy-10,13,17-trimethyl-2,6,7,8,9,11,12,14,15,16-decahydro-1H-cyclopenta[a]phenanthren-3-one
Formula: C20H30O2
Exact mass: 302.2245802
SMILES: C[C@]1(O)CC[C@H]2[C@@H]3CCC4=CC(=O)CC[C@]4(C)[C@H]3CC[C@]12C
InChI: InChI=1S/C20H30O2/c1-18-9-6-14(21)12-13(18)4-5-15-16(18)7-10-19(2)17(15)8-11-20(19,3)22/h12,15-17,22H,4-11H2,1-3H3/t15-,16+,17+,18+,19+,20+/m1/s1
Instrument: Bruker maXis Impact
Instrument type: LC-ESI-QTOF
Ms type: MS2
Ion mode: POSITIVE
Ionization: ESI
Fragmentation mode: CID
Collision energy: 20 eV
Resolution: 35000
Column name: Acclaim RSLC C18 2.2um, 2.1x100mm, Thermo
Retention time: 10.354 min
Base peak: 303.2322
Precursor m/z: 303.2319
Precursor type: [M+H]+
m/z	relative intensity	assigned
121.1006	8	C9H13+
123.0795	10	C8H11O+
133.1006	9	C10H13+
135.116	9	C10H15+
145.1003	7	C11H13+
147.1163	6	C11H15+
149.1315	7	C11H17+
159.116	17	C12H15+
161.1318	11	C12H17+
163.1107	6	C11H15O+
163.1469	5	C12H19+
171.1157	7	C13H15+
173.1316	8	C13H17+
175.1472	13	C13H19+
177.1264	18	C12H17O+
177.1631	27	C13H21+
185.1317	8	C14H17+
187.1476	7	C14H19+
189.1633	62	C14H21+
190.1659	10	C13[13]CH21+
199.1475	5	C15H19+
201.1633	13	C15H21+
203.1789	17	C15H23+
211.1472	15	C16H19+
215.1793	9	C16H23+
225.1636	7	C17H21+
227.1793	40	C17H23+
228.182	7	C16[13]CH23+
229.1583	12	C16H21O+
243.1742	5	C17H23O+
245.1897	41	C17H25O+
246.193	7	C16[13]CH25O+
267.2111	77	C20H27+
268.2143	18	C19[13]CH27+
285.2217	210	C20H29O+
286.2247	41	C19[13]CH29O+
303.2326	999	C20H31O2+
304.2359	185	C19[13]CH31O2+
305.2387	18	C18[13]C2H31O2+
