Mass spectrum: Phantolide; LC-ESI-QTOF; MS2; CE: 10 eV; R=35000; [M+H]+
Name: Phantolide
Name: Ethanone, 1-(2,3-dihydro-1,1,2,3,3,6-hexamethyl-1H-inden-5-yl)-
Name: 1-(1,1,2,3,3,6-hexamethyl-2H-inden-5-yl)ethanone
Formula: C17H24O
Exact mass: 244.1827154
SMILES: CC1C(C)(C)C2=C(C=C(C(C)=O)C(C)=C2)C1(C)C
InChI: InChI=1S/C17H24O/c1-10-8-14-15(9-13(10)11(2)18)17(6,7)12(3)16(14,4)5/h8-9,12H,1-7H3
Instrument: Bruker maXis Impact
Instrument type: LC-ESI-QTOF
Ms type: MS2
Ion mode: POSITIVE
Ionization: ESI
Fragmentation mode: CID
Collision energy: 10 eV
Resolution: 35000
Column name: Acclaim RSLC C18 2.2um, 2.1x100mm, Thermo
Retention time: 13.121 min
Base peak: 403.1276
Precursor m/z: 245.19
Precursor type: [M+H]+
m/z	relative intensity	assigned
133.0997	9	C10H13+
175.1098	45	C12H15O+
189.126	234	C13H17O+
190.13	41	C12[13]CH17O+
191.1772	10	C14H23+
209.1893	11	C14H25O+
243.1752	9	C17H23O+
245.1901	999	C17H25O+
246.1922	196	C16[13]CH25O+
247.1974	24	C15[13]C2H25O+
