Mass spectrum: Prosulfuron; LC-ESI-QTOF; MS2; CE: Ramp 24.0-36.0 eV; R=35000; [M+H]+
Name: Prosulfuron
Name: 1-(4-methoxy-6-methyl-1,3,5-triazin-2-yl)-3-[2-(3,3,3-trifluoropropyl)phenyl]sulfonylurea
Formula: C15H16F3N5O4S
Exact mass: 419.0875097
SMILES: COC1=NC(C)=NC(NC(=O)NS(=O)(=O)C2=CC=CC=C2CCC(F)(F)F)=N1
InChI: InChI=1S/C15H16F3N5O4S/c1-9-19-12(22-14(20-9)27-2)21-13(24)23-28(25,26)11-6-4-3-5-10(11)7-8-15(16,17)18/h3-6H,7-8H2,1-2H3,(H2,19,20,21,22,23,24)
Instrument: Bruker maXis Impact
Instrument type: LC-ESI-QTOF
Ms type: MS2
Ion mode: POSITIVE
Ionization: ESI
Fragmentation mode: CID
Collision energy: Ramp 24.0-36.0 eV
Resolution: 35000
Column name: Acclaim RSLC C18 2.2um, 2.1x100mm, Thermo
Retention time: 8.775 min
Base peak: 420.0943
Precursor m/z: 420.0948
Precursor type: [M+H]+
m/z	relative intensity	assigned
56.0494	17	C3H6N+
57.0443	5	C2H5N2+
109.0456	19	C4H7F2O+
141.0764	999	C5H14FOS+
142.0787	64	C4[13]CH14FOS+
166.0712	34	C6H9F3N2+
167.0554	765	C8H9NO3+
168.0583	60	C7[13]CH9NO3+
169.0606	5	C8H9NO2[18]O+
173.0057	98	C8H3N3S+
174.0077	9	C7[13]CH3N3S+
175.0011	6	C8H3N3[34]S+
215.0166	5	C15H2FN+
217.0122	21	C9H3N3O4+
237.0186	13	C14H5O4+
377.0895	14	C14H16F3N4O3S+
420.0951	27	C15H17F3N5O4S+
