Mass spectrum: 2-Isopropylthioxanthone; LC-ESI-QTOF; MS2; CE: Ramp 20.0-30.0 eV; R=35000; [M+H]+
Name: 2-Isopropylthioxanthone
Name: 2-propan-2-ylthioxanthen-9-one
Formula: C16H14OS
Exact mass: 254.0765361
SMILES: CC(C)C1=CC=C2SC3=C(C=CC=C3)C(=O)C2=C1
InChI: InChI=1S/C16H14OS/c1-10(2)11-7-8-15-13(9-11)16(17)12-5-3-4-6-14(12)18-15/h3-10H,1-2H3
Instrument: Bruker maXis Impact
Instrument type: LC-ESI-QTOF
Ms type: MS2
Ion mode: POSITIVE
Ionization: ESI
Fragmentation mode: CID
Collision energy: Ramp 20.0-30.0 eV
Resolution: 35000
Column name: Acclaim RSLC C18 2.2um, 2.1x100mm, Thermo
Retention time: 12.944 min
Base peak: 255.0838
Precursor m/z: 255.0838
Precursor type: [M+H]+
m/z	relative intensity	assigned
184.0326	23	C12H8S+
185.0404	9	C12H9S+
213.0364	999	C13H9OS+
214.0393	199	C12[13]CH9OS+
215.0326	45	C13H9O[34]S+
239.0527	7	C15H11OS+
240.0586	7	C15H12OS+
255.0831	612	C16H15OS+
256.0865	128	C15[13]CH15OS+
257.0804	25	C16H15O[34]S+
