Mass spectrum: Tributylamine; LC-ESI-QTOF; MS2; CE: 50 eV; R=35000; [M+H]+
Name: Tributylamine
Name: N,N-dibutylbutan-1-amine
Formula: C12H27N
Exact mass: 185.2143499
SMILES: CCCCN(CCCC)CCCC
InChI: InChI=1S/C12H27N/c1-4-7-10-13(11-8-5-2)12-9-6-3/h4-12H2,1-3H3
Instrument: Bruker maXis Impact
Instrument type: LC-ESI-QTOF
Ms type: MS2
Ion mode: POSITIVE
Ionization: ESI
Fragmentation mode: CID
Collision energy: 50 eV
Resolution: 35000
Column name: Acclaim RSLC C18 2.2um, 2.1x100mm, Thermo
Retention time: 5.062 min
Base peak: 186.2205
Precursor m/z: 186.2216
Precursor type: [M+H]+
m/z	relative intensity	assigned
166.0646	999	C12H8N+
