Mass spectrum: tert-Butyl methacrylate; GC-APCI-QTOF; MS2; CE: 10 eV; R=35000; [M+H]+
Name: tert-Butyl methacrylate
Formula: C8H14O2
Exact mass: 142.0994
SMILES: CC(=C)C(=O)OC(C)(C)C
InChI: InChI=1S/C8H14O2/c1-6(2)7(9)10-8(3,4)5/h1H2,2-5H3
Instrument: Bruker 450 GC coupled to maXis Impact
Instrument type: GC-APCI-QTOF
Ms type: MS2
Ion mode: POSITIVE
Ionization: APCI
Fragmentation mode: CID
Collision energy: 10 eV
Resolution: 35000
Column name: Rxi-5Sil MS column, 30m, 0.25mm i.d., 0.25Âµm film thickness, Restek
Retention time: 35.694 min
Base peak: 577.5217
Precursor m/z: 143.1067
Precursor type: [M+H]+
m/z	relative intensity	assigned
125.0978	999	C8H13O+
143.1086	999	C8H15O2+
