Mass spectrum: Nortriptyline; LC-ESI-QTOF; MS2; CE: RAMP 20.3-30.5 eV; R=35000; [M+H]+
Name: Nortriptyline
Name: 3-(5,6-dihydrodibenzo[2,1-b:2`,1`-f][7]annulen-11-ylidene)-N-methylpropan-1-amine
Formula: C19H21N
Exact mass: 263.1673997
SMILES: CNCCC=C1c2ccccc2CCc3c1cccc3
InChI: InChI=1S/C19H21N/c1-20-14-6-11-19-17-9-4-2-7-15(17)12-13-16-8-3-5-10-18(16)19/h2-5,7-11,20H,6,12-14H2,1H3
Instrument: Bruker maXis Impact
Instrument type: LC-ESI-QTOF
Ms type: MS2
Ion mode: POSITIVE
Ionization: ESI
Fragmentation mode: CID
Collision energy: RAMP 20.3-30.5 eV
Resolution: 35000
Column name: Acclaim RSLC C18 2.2um, 2.1x100mm, Thermo
Retention time: 8.647 min
Base peak: 264.1757
Precursor m/z: 264.1747
Precursor type: [M+H]+
m/z	relative intensity	assigned
70.0643	205	C4H8N+
71.0687	7	C3[13]CH8N+
79.0535	15	C6H7+
91.0539	999	C7H7+
92.0573	62	C6[13]CH7+
103.0545	14	C8H7+
105.0707	624	C8H9+
106.0739	47	C7[13]CH9+
115.0537	48	C9H7+
116.0585	5	C8[13]CH7+
117.0703	447	C9H9+
118.0734	39	C8[13]CH9+
128.0617	10	C10H8+
129.0698	78	C10H9+
130.0733	7	C9[13]CH9+
141.0692	30	C11H9+
142.0752	6	C10[13]CH9+
153.0692	10	C12H9+
155.0852	151	C12H11+
156.0887	16	C11[13]CH11+
165.0688	5	C13H9+
178.0775	94	C14H10+
179.0851	120	C14H11+
180.0889	14	C13[13]CH11+
190.0775	12	C15H10+
191.0855	352	C15H11+
192.0908	86	C14[13]CH11+
193.1005	43	C15H13+
202.0779	5	C16H10+
203.0853	83	C16H11+
204.0931	107	C16H12+
205.1011	191	C16H13+
206.1043	29	C15[13]CH13+
207.1165	25	C16H15+
216.0933	6	C17H12+
217.1007	21	C17H13+
218.1095	241	C17H14+
219.113	38	C16[13]CH14+
231.1173	17	C18H15+
232.123	5	C17[13]CH15+
233.1328	688	C18H17+
234.1365	125	C18H18+
235.1388	8	C17[13]CH18+
264.1754	284	C19H22N+
265.1786	49	C18[13]CH22N+
