Mass spectrum: Citalopram; LC-ESI-QTOF; MS2; CE: 50 eV; R=35000; [M+H]+
Name: Citalopram
Name: 1-[3-(dimethylamino)propyl]-1-(4-fluorophenyl)-3H-2-benzofuran-5-carbonitrile
Formula: C20H21FN2O
Exact mass: 324.1637915
SMILES: CN(C)CCCC1(OCC2=C1C=CC(=C2)C#N)C1=CC=C(F)C=C1
InChI: InChI=1S/C20H21FN2O/c1-23(2)11-3-10-20(17-5-7-18(21)8-6-17)19-9-4-15(13-22)12-16(19)14-24-20/h4-9,12H,3,10-11,14H2,1-2H3
Instrument: Bruker maXis Impact
Instrument type: LC-ESI-QTOF
Ms type: MS2
Ion mode: POSITIVE
Ionization: ESI
Fragmentation mode: CID
Collision energy: 50 eV
Resolution: 35000
Column name: Acclaim RSLC C18 2.2um, 2.1x100mm, Thermo
Retention time: 6.7 min
Base peak: 278.2113
Precursor m/z: 325.1711
Precursor type: [M+H]+
m/z	relative intensity	assigned
109.0445	75	C7H6F+
116.0482	186	C8H6N+
117.0516	22	C3H7N3O2+
121.0446	35	C8H6F+
123.0243	47	C7H4FO+
127.0539	24	C10H7+
128.0605	61	C10H8+
129.0693	120	C10H9+
130.0641	43	C9H8N+
133.0444	67	C9H6F+
139.0532	65	C11H7+
140.0484	340	C10H6N+
141.053	46	C5H7N3O2+
142.064	31	C10H8N+
144.0431	32	C9H6NO+
145.0643	21	C10H9O+
146.0517	29	C10H7F+
153.0568	23	C11H7N+
154.0647	49	C11H8N+
155.0596	30	C10H7N2+
156.0801	50	C11H10N+
159.0589	31	C11H8F+
166.0642	414	C12H8N+
167.0671	44	C7H9N3O2+
173.0519	24	C10H6FN2+
183.0599	47	C13H8F+
189.0697	30	C15H9+
190.0648	108	C14H8N+
191.0666	40	C9H9N3O2+
195.0602	64	C14H8F+
196.0665	24	C14H9F+
202.0766	77	C16H10+
203.0753	40	C12H10FNO+
207.0606	123	C15H8F+
208.055	156	C14H7FN+
209.0622	41	C14H8FN+
209.073	24	C13H9N2O+
213.0688	30	C17H9+
214.0654	81	C16H8N+
215.0851	191	C17H11+
216.0828	46	C13H11FNO+
218.059	117	C15H8NO+
219.0637	35	C16H8F+
220.0672	229	C16H9F+
222.0685	216	C15H9FN+
223.0755	46	C15H10FN+
223.0904	35	C16H12F+
226.0627	28	C17H8N+
227.0725	637	C17H9N+
228.0771	176	C16[13]CH9N+
229.0814	41	C13H10FN2O+
232.0558	59	C16H7FN+
233.0746	156	C17H10F+
235.0774	283	C16H10FN+
236.0842	66	C16H11FN+
237.0592	68	C15H8FNO+
238.0661	88	C15H9FNO+
240.0799	244	C18H10N+
241.0868	143	C18H11N+
242.095	82	C18H12N+
244.0693	56	C18H9F+
245.0652	104	C17H8FN+
247.0777	999	C17H10FN+
248.0833	187	C16[13]CH10FN+
249.0832	31	C16H10FN2+
250.1031	31	C17H13FN+
258.0712	35	C18H9FN+
259.0783	28	C18H10FN+
260.0879	114	C18H11FN+
261.0938	134	C18H12FN+
262.1023	120	C18H13FN+
263.1068	24	C18H14FN+
