Mass spectrum: 2,6-Di-tert-butyl-1,4-benzoquinone; LC-ESI-QTOF; MS2; CE: 30 eV; R=35000; [M+H]+
Name: 2,6-Di-tert-butyl-1,4-benzoquinone
Name: 2,6-Di-tert-butyl-P-benzoquinone
Name: 2,6-ditert-butylcyclohexa-2,5-diene-1,4-dione
Formula: C14H20O2
Exact mass: 220.1463299
SMILES: CC(C)(C)C1=CC(=O)C=C(C1=O)C(C)(C)C
InChI: InChI=1S/C14H20O2/c1-13(2,3)10-7-9(15)8-11(12(10)16)14(4,5)6/h7-8H,1-6H3
Instrument: Bruker maXis Impact
Instrument type: LC-ESI-QTOF
Ms type: MS2
Ion mode: POSITIVE
Ionization: ESI
Fragmentation mode: CID
Collision energy: 30 eV
Resolution: 35000
Column name: Acclaim RSLC C18 2.2um, 2.1x100mm, Thermo
Retention time: 11.184 min
Base peak: 223.062
Precursor m/z: 221.1536
Precursor type: [M+H]+
m/z	relative intensity	assigned
146.0701	397	C10H10O+
161.0947	999	C11H13O+
169.0323	546	C11H5O2+
