Mass spectrum: 1-Phenyl-2-butanone; GC-APCI-QTOF; MS2; CE: 10 eV; R=35000; [M+H]+
Name: 1-Phenyl-2-butanone
Formula: C10H12O
Exact mass: 148.0888
SMILES: CCC(=O)CC1=CC=CC=C1
InChI: InChI=1S/C10H12O/c1-2-10(11)8-9-6-4-3-5-7-9/h3-7H,2,8H2,1H3
Instrument: Bruker 450 GC coupled to maXis Impact
Instrument type: GC-APCI-QTOF
Ms type: MS2
Ion mode: POSITIVE
Ionization: APCI
Fragmentation mode: CID
Collision energy: 10 eV
Resolution: 35000
Column name: Rxi-5Sil MS column, 30m, 0.25mm i.d., 0.25Âµm film thickness, Restek
Retention time: 9.834 min
Base peak: 149.097
Precursor m/z: 149.0961
Precursor type: [M+H]+
m/z	relative intensity	assigned
57.0344	35	C3H5O+
71.0501	10	C4H7O+
91.0541	44	C7H7+
105.07	7	C8H9+
107.0497	29	C7H7O+
119.0849	10	C9H11+
129.0698	7	C10H9+
131.0857	302	C10H11+
147.0831	13	C10H11O+
148.086	6	C10H12O+
149.0973	999	C10H13O+
