Mass spectrum: Tamoxifen; LC-ESI-QTOF; MS2; CE: 30 eV; R=35000; [M+H]+
Name: Tamoxifen
Name: 2-[4-[(Z)-1,2-diphenylbut-1-enyl]phenoxy]-N,N-dimethylethanamine
Formula: C26H29NO
Exact mass: 371.2249145
SMILES: CC\C(=C(/C1=CC=CC=C1)C1=CC=C(OCCN(C)C)C=C1)C1=CC=CC=C1
InChI: InChI=1S/C26H29NO/c1-4-25(21-11-7-5-8-12-21)26(22-13-9-6-10-14-22)23-15-17-24(18-16-23)28-20-19-27(2)3/h5-18H,4,19-20H2,1-3H3/b26-25-
Instrument: Bruker maXis Impact
Instrument type: LC-ESI-QTOF
Ms type: MS2
Ion mode: POSITIVE
Ionization: ESI
Fragmentation mode: CID
Collision energy: 30 eV
Resolution: 35000
Column name: Acclaim RSLC C18 2.2um, 2.1x100mm, Thermo
Retention time: 10.726 min
Base peak: 372.2327
Precursor m/z: 372.2322
Precursor type: [M+H]+
m/z	relative intensity	assigned
121.0637	5	C8H9O+
128.0611	36	C10H8+
129.0689	309	C10H9+
130.0721	38	C9[13]CH9+
143.0838	6	C11H11+
145.0633	7	C10H9O+
147.0791	9	C10H11O+
155.0846	5	C12H11+
165.0688	6	C13H9+
167.0844	40	C13H11+
168.0871	6	C12[13]CH11+
171.079	11	C12H11O+
174.0897	6	C11H12NO+
178.0761	53	C14H10+
179.0837	40	C14H11+
180.0884	6	C13[13]CH11+
181.1	7	C14H13+
183.079	15	C13H11O+
191.0845	12	C15H11+
192.0917	13	C15H12+
193.1	43	C15H13+
194.0717	7	C14H10O+
194.1024	6	C14[13]CH13+
195.0809	9	C14H11O+
203.0832	5	C16H11+
205.1	22	C16H13+
206.1074	36	C16H14+
207.0793	18	C15H11O+
207.1156	112	C16H15+
208.0855	14	C15H12O+
208.1187	18	C15[13]CH15+
209.0947	85	C15H13O+
210.0982	13	C14[13]CH13O+
215.0843	6	C17H11+
216.0927	7	C17H12+
219.1143	10	C17H15+
220.0867	11	C16H12O+
221.0954	56	C16H13O+
222.1017	24	C16H14O+
223.1086	9	C16H15O+
229.1009	8	C18H13+
231.1165	18	C18H15+
233.1326	6	C18H17+
234.1025	14	C17H14O+
235.1112	9	C17H15O+
236.1186	18	C17H16O+
240.0918	5	C19H12+
241.1008	6	C19H13+
242.1086	7	C19H14+
243.1165	25	C19H15+
244.1199	6	C18[13]CH15+
249.1266	55	C18H17O+
250.1302	10	C17[13]CH17O+
253.0989	10	C20H13+
254.1092	24	C20H14+
255.1155	18	C20H15+
256.1236	9	C20H16+
257.0975	7	C19H13O+
257.1318	12	C20H17+
266.1066	6	C21H14+
270.1038	15	C20H14O+
270.1386	7	C21H18+
271.1107	26	C20H15O+
271.1466	12	C21H19+
272.1171	6	C19[13]CH15O+
280.1266	6	C22H16+
281.132	9	C22H17+
283.1125	14	C21H15O+
283.1472	9	C22H19+
284.1166	9	C21H16O+
285.1263	50	C21H17O+
286.1314	12	C20[13]CH17O+
297.1257	8	C22H17O+
298.1347	57	C22H18O+
299.1417	36	C22H19O+
300.1496	72	C22H20O+
301.1547	12	C21[13]CH20O+
309.1638	8	C24H21+
317.2218	6	C24H29+
327.1745	88	C24H23O+
328.1761	24	C23[13]CH23O+
372.2322	999	C26H30NO+
373.2355	277	C25[13]CH30NO+
374.2383	35	C24[13]C2H30NO+
