Mass spectrum: 7-Diethylamino-4-methylcoumarin; LC-ESI-QTOF; MS2; CE: 10 eV; R=35000; [M+H]+
Name: 7-Diethylamino-4-methylcoumarin
Name: 7-(diethylamino)-4-methylchromen-2-one
Formula: C14H17NO2
Exact mass: 231.1259288
SMILES: CCN(CC)C1=CC=C2C(C)=CC(=O)OC2=C1
InChI: InChI=1S/C14H17NO2/c1-4-15(5-2)11-6-7-12-10(3)8-14(16)17-13(12)9-11/h6-9H,4-5H2,1-3H3
Instrument: Bruker maXis Impact
Instrument type: LC-ESI-QTOF
Ms type: MS2
Ion mode: POSITIVE
Ionization: ESI
Fragmentation mode: CID
Collision energy: 10 eV
Resolution: 35000
Column name: Acclaim RSLC C18 2.2um, 2.1x100mm, Thermo
Retention time: 9.830 min
Base peak: 232.1329
Precursor m/z: 232.1332
Precursor type: [M+H]+
m/z	relative intensity	assigned
232.133	999	C14H18NO2+
233.1362	124	C13[13]CH18NO2+
234.1384	13	C12[13]C2H18NO2+
