Mass spectrum: Bromazepam; LC-ESI-QTOF; MS2; CE: RAMP 21.9-32.9 eV; R=35000; [M+H]+
Name: Bromazepam
Name: 7-bromo-5-pyridin-2-yl-1,3-dihydro-1,4-benzodiazepin-2-one
Formula: C14H10BrN3O
Exact mass: 315.0007240
SMILES: c1ccnc(c1)C2=NCC(=Nc3c2cc(cc3)Br)O
InChI: InChI=1S/C14H10BrN3O/c15-9-4-5-11-10(7-9)14(17-8-13(19)18-11)12-3-1-2-6-16-12/h1-7H,8H2,(H,18,19)
Instrument: Bruker maXis Impact
Instrument type: LC-ESI-QTOF
Ms type: MS2
Ion mode: POSITIVE
Ionization: ESI
Fragmentation mode: CID
Collision energy: RAMP 21.9-32.9 eV
Resolution: 35000
Column name: Acclaim RSLC C18 2.2um, 2.1x100mm, Thermo
Retention time: 7.342 min
Base peak: 60.0547
Precursor m/z: 316.008
Precursor type: [M+H]+
m/z	relative intensity	assigned
60.0549	16	CH6N3+
80.0488	19	C5H6N+
133.0518	11	C8H7NO+
159.0556	5	C9H7N2O+
181.0754	20	C12H9N2+
182.0838	524	C12H10N2+
183.0867	51	C11[13]CH10N2+
183.9752	92	C7H7BrN+
185.9727	67	C7H7[81]BrN+
192.0667	7	C13H8N2+
193.0726	6	C13H9N2+
208.0867	91	C13H10N3+
209.0946	537	C13H11N3+
210.0796	16	C13H10N2O+
210.0986	56	C12[13]CH11N3+
210.9679	26	C8H6BrNO+
211.9689	13	C8H7BrNO+
213.9664	8	C8H7[81]BrNO+
236.0815	9	C14H10N3O+
237.0876	13	C14H11N3O+
258.9891	25	C12H8BrN2+
259.9942	76	C12H9BrN2+
261.0018	167	C12H10BrN2+
261.9931	54	C12H9[81]BrN2+
263.0008	156	C11H10BrN3+
264.0062	7	C10[13]CH10BrN3+
286.9822	8	C13H8BrN2O+
288.0136	266	C13H11BrN3+
289.0159	34	C12[13]CH11BrN3+
290.0112	204	C13H11[81]BrN3+
291.0115	15	C12[13]CH11BrN2O+
316.0089	999	C14H11BrN3O+
317.0116	145	C13[13]CH11BrN3O+
318.0069	869	C14H11[81]BrN3O+
