Mass spectrum: 3,3`-Dimethylbenzidine; LC-ESI-QTOF; MS2; CE: 50 eV; R=35000; [M+H]+
Name: 3,3`-Dimethylbenzidine
Name: 4-(4-amino-3-methylphenyl)-2-methylaniline
Formula: C14H16N2
Exact mass: 212.1313485
SMILES: CC1=CC(=CC=C1N)C1=CC=C(N)C(C)=C1
InChI: InChI=1S/C14H16N2/c1-9-7-11(3-5-13(9)15)12-4-6-14(16)10(2)8-12/h3-8H,15-16H2,1-2H3
Instrument: Bruker maXis Impact
Instrument type: LC-ESI-QTOF
Ms type: MS2
Ion mode: POSITIVE
Ionization: ESI
Fragmentation mode: CID
Collision energy: 50 eV
Resolution: 35000
Column name: Acclaim RSLC C18 2.2um, 2.1x100mm, Thermo
Retention time: 5.664 min
Base peak: 225.1128
Precursor m/z: 213.1386
Precursor type: [M+H]+
m/z	relative intensity	assigned
115.0537	14	C9H7+
120.0794	8	C8H10N+
127.0531	10	C10H7+
128.0607	28	C10H8+
129.068	12	C10H9+
130.0643	36	C9H8N+
131.0706	8	C9H9N+
139.0529	21	C11H7+
140.0486	10	C10H6N+
141.0685	20	C11H9+
143.0717	20	C10H9N+
144.0795	17	C10H10N+
150.0451	9	C12H6+
151.0531	19	C12H7+
152.061	227	C12H8+
153.0681	155	C12H9+
154.0653	37	C11H8N+
155.0601	19	C10H7N2+
155.0694	12	C11H9N+
156.0796	27	C11H10N+
157.0856	9	C11H11N+
163.0529	57	C13H7+
164.0596	22	C13H8+
165.0686	117	C13H9+
166.0722	23	C12[13]CH9+
167.0716	44	C12H9N+
168.0792	76	C12H10N+
169.0869	98	C12H11N+
170.094	46	C12H12N+
171.097	6	C11[13]CH12N+
176.0608	27	C14H8+
177.0677	28	C14H9+
178.0762	65	C14H10+
179.0718	30	C13H9N+
180.0798	999	C13H10N+
181.0846	173	C12[13]CH10N+
182.0841	49	C12H10N2+
183.0897	11	C12H11N2+
184.1102	12	C13H14N+
192.0794	6	C14H10N+
193.0871	30	C14H11N+
194.0951	61	C14H12N+
195.0908	208	C13H11N2+
196.0971	94	C13H12N2+
197.1049	50	C13H13N2+
198.1118	14	C13H14N2+
209.1061	9	C14H13N2+
211.1218	35	C14H15N2+
212.128	12	C14H16N2+
