Mass spectrum: Tepraloxydim; LC-ESI-QTOF; MS2; CE: 30 eV; R=35000; [M+H]+
Name: Tepraloxydim
Name: Tepraloxydim [ISO]
Name: 2-[N-[(E)-3-chloroprop-2-enoxy]-C-ethylcarbonimidoyl]-3-hydroxy-5-(oxan-4-yl)cyclohex-2-en-1-one
Formula: C17H24ClNO4
Exact mass: 341.1393859
SMILES: [H]\C(Cl)=C(\[H])CON=C(CC)C1=C(O)CC(CC1=O)C1CCOCC1
InChI: InChI=1S/C17H24ClNO4/c1-2-14(19-23-7-3-6-18)17-15(20)10-13(11-16(17)21)12-4-8-22-9-5-12/h3,6,12-13,20H,2,4-5,7-11H2,1H3/b6-3+,19-14?
Instrument: Bruker maXis Impact
Instrument type: LC-ESI-QTOF
Ms type: MS2
Ion mode: POSITIVE
Ionization: ESI
Fragmentation mode: CID
Collision energy: 30 eV
Resolution: 35000
Column name: Acclaim RSLC C18 2.2um, 2.1x100mm, Thermo
Retention time: 7.304 min
Base peak: 342.1466
Precursor m/z: 342.1467
Precursor type: [M+H]+
m/z	relative intensity	assigned
115.0534	5	C9H7+
117.0699	13	C9H9+
118.0634	5	C2H13ClNO2+
119.0479	6	C2H12ClO3+
119.085	18	C9H11+
120.0432	6	CH11ClNO3+
120.0809	11	C8H10N+
121.0641	61	C8H9O+
121.1011	6	C9H13+
122.0606	24	C7H8NO+
122.0953	6	C2H17ClNO2+
123.0445	5	C4H10ClNO+
123.0787	7	C2H16ClO3+
124.0382	22	C6H6NO2+
124.0747	16	C7H10NO+
126.054	7	C6H8NO2+
128.0605	11	C4H13ClO2+
129.0698	19	C10H9+
130.0644	9	C9H8N+
130.0742	7	C4H15ClO2+
131.0481	6	C9H7O+
131.0842	37	C4H16ClO2+
132.0799	21	C9H10N+
133.0637	25	C9H9O+
133.0998	18	C4H18ClO2+
134.0589	27	C2H13ClNO3+
134.0951	14	C3H17ClNO2+
135.0797	41	C9H11O+
136.0382	50	CH11ClNO4+
136.0747	127	C8H10NO+
137.059	28	C8H9O2+
137.0815	23	C2H16ClNO3+
137.0931	5	C3H18ClO3+
138.0541	38	C7H8NO2+
138.0904	137	C8H12NO+
139.0611	34	CH14ClNO4+
139.0739	24	C2H16ClO4+
139.0943	16	C7[13]CH12NO+
140.0696	25	C7H10NO2+
141.0701	10	C2H16[37]ClO4+
142.0483	11	C6H8NO3+
143.0842	24	C5H16ClO2+
144.0794	15	C4H15ClNO2+
145.0634	17	C4H14ClO3+
145.0875	9	C10H11N+
145.1003	27	C11H13+
146.0591	22	C9H8NO+
146.0951	22	C4H17ClNO2+
147.0434	23	C9H7O2+
147.0794	29	C7H14ClN+
147.1157	8	C5H20ClO2+
148.0381	23	C2H11ClNO4+
148.0744	66	C3H15ClNO3+
148.1113	22	C10H14N+
149.0587	83	C9H9O2+
149.0803	11	C7H14[37]ClN+
149.0944	15	C7H16ClN+
150.089	25	C3H17ClNO3+
151.0309	48	C9H8Cl+
151.0747	7	C9H11O2+
151.0963	5	C7H16[37]ClN+
152.0696	23	C8H10NO2+
153.0735	7	C2H16ClNO4+
154.0787	6	C12H10+
155.0587	5	C7H9NO3+
155.083	5	C6H16ClO2+
156.0626	6	C7H10NO3+
157.0876	6	C11H11N+
157.0981	8	C6H18ClO2+
158.0714	6	C5H15ClO3+
158.0947	23	C5H17ClNO2+
159.0791	24	C5H16ClO3+
159.0999	5	C8H15O3+
159.115	23	C6H20ClO2+
160.0484	7	C4H13ClO4+
160.0742	96	C10H10NO+
160.1108	24	C5H19ClNO2+
161.0584	21	C7H12ClNO+
161.0808	12	C9[13]CH10NO+
161.0948	37	C5H18ClO3+
161.1152	5	C6H20[37]ClO2+
162.0538	27	C3H13ClNO4+
162.09	37	C4H17ClNO3+
162.1261	10	C5H21ClNO2+
163.0593	9	C7H12[37]ClNO+
163.0734	15	C4H16ClO4+
163.0987	7	C10H13NO+
163.1098	13	C5H20ClO3+
164.0693	256	C9H10NO2+
164.1056	15	C4H19ClNO3+
165.0744	30	C8[13]CH10NO2+
165.0901	13	C10H13O2+
166.0852	999	C9H12NO2+
167.0888	93	C8[13]CH12NO2+
168.0891	6	C9H12NO[18]O+
169.0999	13	C7H18ClO2+
170.0953	5	C6H17ClNO2+
171.086	7	C8H13NO3+
171.1022	6	C6H18ClNO2+
171.1167	9	C13H15+
172.1107	9	C6H19ClNO2+
173.0943	15	C6H18ClO3+
174.0913	19	C11H12NO+
174.1251	5	C9H18O3+
175.0747	9	C11H11O2+
175.0986	9	C11H13NO+
175.1093	10	C6H20ClO3+
176.0694	23	C4H15ClNO4+
176.106	40	C11H14NO+
176.1418	6	C6H23ClNO2+
177.0909	9	C11H13O2+
177.1252	11	C6H22ClO3+
178.0841	13	C4H17ClNO4+
178.1213	16	C5H21ClNO3+
180.1005	5	C4H19ClNO4+
180.1369	21	C5H23ClNO3+
181.0854	7	C10H13O3+
186.0902	25	C6H17ClNO3+
186.1287	8	C13H16N+
187.1105	26	C7H20ClO3+
188.1066	37	C12H14NO+
189.0904	7	C12H13O2+
189.111	7	C11[13]CH14NO+
189.1277	6	C10H20ClN+
190.0844	8	C5H17ClNO4+
190.1215	20	C6H21ClNO3+
191.1058	9	C12H15O2+
192.1017	10	C11H14NO2+
192.1363	9	C6H23ClNO3+
194.117	18	C11H16NO2+
194.1526	5	C6H25ClNO3+
199.0983	6	C13H13NO+
202.1228	5	C13H16NO+
204.1015	30	C12H14NO2+
204.137	57	C10H20O4+
205.1209	32	C10H20ClNO+
205.1383	5	C9[13]CH20O4+
206.1198	19	C12H16NO2+
207.1224	6	C10H20[37]ClNO+
208.133	64	C12H18NO2+
209.1381	9	C11[13]CH18NO2+
210.1463	10	C6H25ClNO4+
214.122	13	C14H16NO+
215.1046	5	C8H20ClO4+
222.1123	50	C12H16NO3+
222.1477	177	C13H20NO2+
223.1131	5	C11[13]CH16NO3+
223.1313	8	C13H19O3+
223.1523	27	C12[13]CH20NO2+
224.1275	5	C12H18NO3+
224.1641	18	C13H22NO2+
232.1315	26	C8H23ClNO4+
234.1486	49	C14H20NO2+
235.1346	9	C17H17N+
235.152	6	C13[13]CH20NO2+
250.1431	299	C14H20NO3+
251.1474	59	C13[13]CH20NO3+
252.1594	30	C14H22NO3+
288.1587	5	C17H22NO3+
