Mass spectrum: Acetochlor-OXA; LC-ESI-QTOF; MS2; CE: 20 eV; R=35000; [M+H]+
Name: Acetochlor-OXA
Name: Acetochlor OA
Name: 2-[N-(ethoxymethyl)-2-ethyl-6-methylanilino]-2-oxoacetic acid
Formula: C14H19NO4
Exact mass: 265.1314081
SMILES: CCOCN(C(=O)C(O)=O)C1=C(C)C=CC=C1CC
InChI: InChI=1S/C14H19NO4/c1-4-11-8-6-7-10(3)12(11)15(9-19-5-2)13(16)14(17)18/h6-8H,4-5,9H2,1-3H3,(H,17,18)
Instrument: Bruker maXis Impact
Instrument type: LC-ESI-QTOF
Ms type: MS2
Ion mode: POSITIVE
Ionization: ESI
Fragmentation mode: CID
Collision energy: 20 eV
Resolution: 35000
Column name: Acclaim RSLC C18 2.2um, 2.1x100mm, Thermo
Retention time: 6.6 min
Base peak: 150.1114
Precursor m/z: 266.1387
Precursor type: [M+H]+
m/z	relative intensity	assigned
146.096	370	C10H12N+
148.1106	304	C7H16O3+
174.0893	999	C8H14O4+
