Mass spectrum: Triamterene; LC-ESI-QTOF; MS2; CE: 30 eV; R=35000; [M+H]+
Name: Triamterene
Name: 6-phenylpteridine-2,4,7-triamine
Formula: C12H11N7
Exact mass: 253.1075934
SMILES: C1=CC=C(C=C1)C2=NC3=C(N=C2N)N=C(N=C3N)N
InChI: InChI=1S/C12H11N7/c13-9-7(6-4-2-1-3-5-6)16-8-10(14)18-12(15)19-11(8)17-9/h1-5H,(H6,13,14,15,17,18,19)
Instrument: Bruker maXis Impact
Instrument type: LC-ESI-QTOF
Ms type: MS2
Ion mode: POSITIVE
Ionization: ESI
Fragmentation mode: CID
Collision energy: 30 eV
Resolution: 35000
Column name: Acclaim RSLC C18 2.2um, 2.1x100mm, Thermo
Retention time: 4.7 min
Base peak: 254.1144
Precursor m/z: 254.1149
Precursor type: [M+H]+
m/z	relative intensity	assigned
143.0598	9	C9H7N2+
168.0549	13	C10H6N3+
227.1039	15	C11H11N6+
237.0881	588	C12H9N6+
238.0912	58	C11[13]CH9N6+
254.1146	999	C12H12N7+
255.1168	97	C11[13]CH12N7+
