Mass spectrum: Dimethachlor; LC-ESI-QTOF; MS2; CE: 50 eV; R=35000; [M+H]+
Name: Dimethachlor
Name: 2-chloro-N-(2,6-dimethylphenyl)-N-(2-methoxyethyl)acetamide
Formula: C13H18ClNO2
Exact mass: 255.1026065
SMILES: COCCN(C(=O)CCl)C1=C(C)C=CC=C1C
InChI: InChI=1S/C13H18ClNO2/c1-10-5-4-6-11(2)13(10)15(7-8-17-3)12(16)9-14/h4-6H,7-9H2,1-3H3
Instrument: Bruker maXis Impact
Instrument type: LC-ESI-QTOF
Ms type: MS2
Ion mode: POSITIVE
Ionization: ESI
Fragmentation mode: CID
Collision energy: 50 eV
Resolution: 35000
Column name: Acclaim RSLC C18 2.2um, 2.1x100mm, Thermo
Retention time: 8.5 min
Base peak: 256.1093
Precursor m/z: 256.1099
Precursor type: [M+H]+
m/z	relative intensity	assigned
115.0536	49	C9H7+
116.0605	32	C3H13ClO2+
118.0643	364	C8H8N+
119.0687	40	C7[13]CH8N+
119.0847	45	C9H11+
120.0797	91	C8H10N+
121.0634	22	C8H9O+
121.0847	18	C2H16ClNO2+
121.1005	10	C9H13+
122.0956	16	C8H12N+
123.0797	6	C8H11O+
128.0599	13	C4H13ClO2+
129.0685	31	C4H14ClO2+
133.0871	431	C3H16ClNO2+
135.0981	7	C4H13N3O2+
142.0642	8	C10H8N+
143.0715	12	C4H14ClNO2+
144.0796	62	C4H15ClNO2+
145.086	13	C4H16ClNO2+
146.0596	14	C9H8NO+
146.0952	236	C4H17ClNO2+
147.0665	14	C9H9NO+
148.111	999	C10H14N+
149.1145	101	C5H15N3O2+
153.0457	7	C9H10Cl+
158.0949	20	C5H17ClNO2+
160.0739	13	C10H10NO+
174.0907	54	C11H12NO+
175.0929	8	C6H13N3O3+
224.085	21	C12H15ClNO+
