Mass spectrum: Nordiazepam; LC-ESI-QTOF; MS2; CE: 40 eV; R=35000; [M+H]+
Name: Nordiazepam
Name: 7-chloro-5-phenyl-1,3-dihydro-1,4-benzodiazepin-2-one
Formula: C15H11ClN2O
Exact mass: 270.0559907
SMILES: ClC1=CC2=C(NC(=O)CN=C2C2=CC=CC=C2)C=C1
InChI: InChI=1S/C15H11ClN2O/c16-11-6-7-13-12(8-11)15(17-9-14(19)18-13)10-4-2-1-3-5-10/h1-8H,9H2,(H,18,19)
Instrument: Bruker maXis Impact
Instrument type: LC-ESI-QTOF
Ms type: MS2
Ion mode: POSITIVE
Ionization: ESI
Fragmentation mode: CID
Collision energy: 40 eV
Resolution: 35000
Column name: Acclaim RSLC C18 2.2um, 2.1x100mm, Thermo
Retention time: 8.9 min
Base peak: 271.0627
Precursor m/z: 271.0633
Precursor type: [M+H]+
m/z	relative intensity	assigned
113.0147	9	C6H6Cl+
116.0489	60	C8H6N+
117.0567	20	C8H7N+
118.0619	12	ClH11N4O+
123.0015	9	C7H4Cl+
127.017	49	C9H3O+
128.0204	10	CH7ClN3O2+
129.0437	33	C8H5N2+
130.0514	70	C8H6N2+
131.0573	12	C2H12ClN2O2+
133.05	33	C8H7NO+
138.0092	120	C10H2O+
139.0153	11	C10H3O+
140.0252	999	C7H7ClN+
141.0289	89	C6[13]CH7ClN+
142.0225	323	C7H7[37]ClN+
144.0449	9	C6H9ClN2+
150.0096	56	C11H2O+
151.0139	13	C3H6ClN3O2+
151.0528	10	C12H7+
152.0614	19	C12H8+
153.0685	11	C12H9+
158.0464	169	C9H6N2O+
163.0039	15	C11HNO+
164.0119	16	C11H2NO+
164.0626	9	C13H8+
165.0203	753	C8H6ClN2+
166.005	82	C8H5ClNO+
166.0233	66	C7[13]CH6ClN2+
167.0162	174	C8H6[37]ClN2+
168.0006	18	C14+
168.0198	29	C7[13]CH6[37]ClN2+
178.0639	23	C13H8N+
179.0722	28	C13H9N+
180.0795	157	C13H10N+
181.0864	62	C13H11N+
182.0854	10	C12H10N2+
182.0929	9	C13H12N+
190.0634	92	C14H8N+
191.0714	202	C14H9N+
192.077	30	C14H10N+
193.0158	36	C9H6ClN2O+
193.0876	89	C14H11N+
194.0894	9	C9H12N3O2+
199.03	25	C13H8Cl+
200.0314	10	C9H4N4O2+
201.0321	16	C15H5O+
206.0602	9	C14H8NO+
206.0826	55	C14H10N2+
207.0664	59	C14H9NO+
207.0905	193	C14H11N2+
208.0985	856	C14H12N2+
209.0805	22	C14H11NO+
214.0408	102	C13H9ClN+
215.0423	25	C8H10ClN3O2+
216.0386	25	C13H9ClO+
216.0554	33	C13H11ClN+
217.0804	17	C15H9N2+
218.0516	10	C13H11ClO+
218.0825	77	C15H10N2+
219.0672	26	C15H9NO+
219.0858	12	C10H11N4O2+
224.023	9	C14H7ClN+
226.0406	134	C14H9ClN+
227.0472	84	C14H10ClN+
228.0381	57	C14H9ClO+
229.0441	13	C14H10ClO+
235.0869	40	C15H11N2O+
241.0512	109	C14H10ClN2+
242.0355	16	C14H9ClNO+
242.0581	46	C14H11ClN2+
243.05	29	C14H10ClNO+
243.0691	65	C14H12ClN2+
244.0566	16	C14H11ClNO+
244.0716	14	C15H8N4+
245.0652	21	C14H12ClNO+
252.0449	9	C15H9ClN2+
253.0497	12	C15H10ClN2+
271.062	147	C15H12ClN2O+
