Mass spectrum: Quaternium-15 (free base); LC-ESI-QTOF; MS2; CE: Ramp 18.6-27.9 eV; R=35000; [M+H]+
Name: Quaternium-15 (free base)
Name: Chloroallyl methenamine
Name: 1-[(Z)-3-chloroprop-2-enyl]-3,5,7-triaza-1-azoniatricyclo[3.3.1.1^{3,7}]decane
Formula: [C9H16ClN4]+
Exact mass: 215.10634919
SMILES: Cl\C=C/C[N+]12CN3CN(CN(C3)C1)C2
InChI: InChI=1S/C9H16ClN4/c10-2-1-3-14-7-11-4-12(8-14)6-13(5-11)9-14/h1-2H,3-9H2/q+1/b2-1-
Instrument: Bruker maXis Impact
Instrument type: LC-ESI-QTOF
Ms type: MS2
Ion mode: POSITIVE
Ionization: ESI
Fragmentation mode: CID
Collision energy: Ramp 18.6-27.9 eV
Resolution: 35000
Column name: Acclaim RSLC C18 2.2um, 2.1x100mm, Thermo
Retention time: 8.325 min
Base peak: 102.1285
Precursor m/z: 216.1136
Precursor type: [M+H]+
m/z	relative intensity	assigned
199.0843	999	C9H14ClN3+
