Mass spectrum: 4-Isopropylaniline; LC-ESI-QTOF; MS2; CE: Ramp 15.7-23.5 eV; R=35000; [M+H]+
Name: 4-Isopropylaniline
Name: 4-propan-2-ylaniline
Formula: C9H13N
Exact mass: 135.10479942
SMILES: CC(C)C1=CC=C(N)C=C1
InChI: InChI=1S/C9H13N/c1-7(2)8-3-5-9(10)6-4-8/h3-7H,10H2,1-2H3
Instrument: Bruker maXis Impact
Instrument type: LC-ESI-QTOF
Ms type: MS2
Ion mode: POSITIVE
Ionization: ESI
Fragmentation mode: CID
Collision energy: Ramp 15.7-23.5 eV
Resolution: 35000
Column name: Acclaim RSLC C18 2.2um, 2.1x100mm, Thermo
Retention time: 4.476 min
Base peak: 136.075
Precursor m/z: 136.1121
Precursor type: [M+H]+
m/z	relative intensity	assigned
91.0545	541	C7H7+
94.065	999	C6H8N+
