Mass spectrum: 10,11-trans-Dihydroxy-10,11-dihydrocarbamazepine; LC-ESI-QTOF; MS2; CE: 50 eV; R=35000; [M+H]+
Name: 10,11-trans-Dihydroxy-10,11-dihydrocarbamazepine
Name: (10s,11s)-10,11-dihydroxy-10,11-dihydro-5h-dibenzo[b,f]azepine-5-carboxamide
Name: (5S,6S)-5,6-dihydroxy-5,6-dihydrobenzo[b][1]benzazepine-11-carboxamide
Formula: C15H14N2O3
Exact mass: 270.1004423
SMILES: c1ccc2c(c1)[C@@H]([C@H](c3ccccc3N2C(=N)O)O)O
InChI: InChI=1S/C15H14N2O3/c16-15(20)17-11-7-3-1-5-9(11)13(18)14(19)10-6-2-4-8-12(10)17/h1-8,13-14,18-19H,(H2,16,20)/t13-,14-/m0/s1
Instrument: Bruker maXis Impact
Instrument type: LC-ESI-QTOF
Ms type: MS2
Ion mode: POSITIVE
Ionization: ESI
Fragmentation mode: CID
Collision energy: 50 eV
Resolution: 35000
Column name: Acclaim RSLC C18 2.2um, 2.1x100mm, Thermo
Retention time: 5.5 min
Base peak: 150.1114
Precursor m/z: 271.1077
Precursor type: [M+H]+
m/z	relative intensity	assigned
128.0475	8	C6H8O3+
151.0534	7	C12H7+
152.0607	80	C12H8+
153.0669	26	C7H9N2O2+
165.0693	25	C13H9+
166.0629	14	C9H10O3+
167.0719	146	C12H9N+
168.0757	25	C11[13]CH9N+
169.0638	14	C12H9O+
178.0645	31	C13H8N+
179.0716	77	C13H9N+
180.0798	999	C13H10N+
181.083	167	C12[13]CH10N+
182.095	65	C10H14O3+
183.0978	10	C9[13]CH14O3+
191.0706	8	C11H11O3+
192.0796	9	C14H10N+
193.0892	15	C14H11N+
