Mass spectrum: Picolinafen; LC-ESI-QTOF; MS2; CE: Ramp 23.1-34.7 eV; R=35000; [M+H]+
Name: Picolinafen
Name: N-(4-fluorophenyl)-6-[3-(trifluoromethyl)phenoxy]pyridine-2-carboxamide
Formula: C19H12F4N2O2
Exact mass: 376.0834905
SMILES: FC1=CC=C(NC(=O)C2=NC(OC3=CC=CC(=C3)C(F)(F)F)=CC=C2)C=C1
InChI: InChI=1S/C19H12F4N2O2/c20-13-7-9-14(10-8-13)24-18(26)16-5-2-6-17(25-16)27-15-4-1-3-12(11-15)19(21,22)23/h1-11H,(H,24,26)
Instrument: Bruker maXis Impact
Instrument type: LC-ESI-QTOF
Ms type: MS2
Ion mode: POSITIVE
Ionization: ESI
Fragmentation mode: CID
Collision energy: Ramp 23.1-34.7 eV
Resolution: 35000
Column name: Acclaim RSLC C18 2.2um, 2.1x100mm, Thermo
Retention time: 12.307 min
Base peak: 377.0914
Precursor m/z: 377.0908
Precursor type: [M+H]+
m/z	relative intensity	assigned
145.0262	6	C7H4F3+
173.0322	5	C7H4F3N2+
210.0521	7	C11H7F3N+
236.0512	28	C12H8F2NO2+
238.0476	425	C12H7F3NO+
239.0511	53	C11[13]CH7F3NO+
256.0581	999	C15H8F2NO+
257.0611	145	C14[13]CH8F2NO+
258.0637	9	C13[13]C2H8F2NO+
266.042	9	C13H7F3NO2+
284.053	194	C16H8F2NO2+
285.057	29	C15[13]CH8F2NO2+
309.0833	8	C18H11F2N2O+
329.0889	5	C18H12F3N2O+
337.0783	19	C19H11F2N2O2+
357.0849	14	C19H12F3N2O2+
359.0806	353	C19H11F4N2O+
360.0834	87	C18[13]CH11F4N2O+
361.0853	6	C17[13]C2H11F4N2O+
377.091	126	C19H13F4N2O2+
378.0941	31	C18[13]CH13F4N2O2+
