Mass spectrum: Ebastin; LC-ESI-QTOF; MS2; CE: 20 eV; R=35000; [M+H]+
Name: Ebastin
Name: Ebastine
Name: 4-(4-benzhydryloxypiperidin-1-yl)-1-(4-tert-butylphenyl)butan-1-one
Formula: C32H39NO2
Exact mass: 469.2980795
SMILES: CC(C)(C)C1=CC=C(C=C1)C(=O)CCCN1CCC(CC1)OC(C1=CC=CC=C1)C1=CC=CC=C1
InChI: InChI=1S/C32H39NO2/c1-32(2,3)28-18-16-25(17-19-28)30(34)15-10-22-33-23-20-29(21-24-33)35-31(26-11-6-4-7-12-26)27-13-8-5-9-14-27/h4-9,11-14,16-19,29,31H,10,15,20-24H2,1-3H3
Instrument: Bruker maXis Impact
Instrument type: LC-ESI-QTOF
Ms type: MS2
Ion mode: POSITIVE
Ionization: ESI
Fragmentation mode: CID
Collision energy: 20 eV
Resolution: 35000
Column name: Acclaim RSLC C18 2.2um, 2.1x100mm, Thermo
Retention time: 10.748 min
Base peak: 470.305
Precursor m/z: 470.3054
Precursor type: [M+H]+
m/z	relative intensity	assigned
167.0843	266	C13H11+
168.0876	28	C12[13]CH11+
203.1421	64	C14H19O+
204.1452	7	C13[13]CH19O+
302.2105	15	C19H28NO2+
470.3059	999	C32H40NO2+
471.3083	443	C31[13]CH40NO2+
472.3116	52	C30[13]C2H40NO2+
