Mass spectrum: Nitrendipin; LC-ESI-QTOF; MS2; CE: 50 eV; R=35000; [M+H]+
Name: Nitrendipin
Name: Nitrendipine
Name: 5-O-ethyl 3-O-methyl 2,6-dimethyl-4-(3-nitrophenyl)-1,4-dihydropyridine-3,5-dicarboxylate
Formula: C18H20N2O6
Exact mass: 360.1321364
SMILES: CCOC(=O)C1=C(C)NC(C)=C(C1C1=CC=CC(=C1)[N+]([O-])=O)C(=O)OC
InChI: InChI=1S/C18H20N2O6/c1-5-26-18(22)15-11(3)19-10(2)14(17(21)25-4)16(15)12-7-6-8-13(9-12)20(23)24/h6-9,16,19H,5H2,1-4H3
Instrument: Bruker maXis Impact
Instrument type: LC-ESI-QTOF
Ms type: MS2
Ion mode: POSITIVE
Ionization: ESI
Fragmentation mode: CID
Collision energy: 50 eV
Resolution: 35000
Column name: Acclaim RSLC C18 2.2um, 2.1x100mm, Thermo
Retention time: 9.777 min
Base peak: 361.1388
Precursor m/z: 361.1394
Precursor type: [M+H]+
m/z	relative intensity	assigned
115.0546	17	C9H7+
116.06	5	C4H8N2O2+
118.04	10	C8H6O+
122.0595	5	C7H8NO+
126.0463	9	C10H6+
127.053	11	C10H7+
128.0603	44	C10H8+
129.0327	12	C9H5O+
129.0678	19	C5H9N2O2+
130.0408	10	C9H6O+
130.0634	5	C6H10O3+
132.0441	6	C8H6NO+
133.0515	6	C8H7NO+
134.0586	44	C5H10O4+
135.064	7	C5H11O4+
139.0524	51	C11H7+
140.0601	57	C11H8+
141.0685	82	C11H9+
142.0393	10	C5H6N2O3+
142.0643	16	C10H8N+
142.072	15	C10[13]CH9+
143.0722	22	C10H9N+
144.0795	14	C10H10N+
145.0642	11	C10H9O+
145.0879	19	C10H11N+
146.0356	13	C9H6O2+
147.0431	8	C9H7O2+
148.0387	12	C8H6NO2+
150.0169	37	C4H6O6+
150.053	41	C5H10O5+
151.0602	15	C5H11O5+
152.061	65	C12H8+
153.0677	64	C7H9N2O2+
154.0403	21	C11H6O+
154.0643	31	C11H8N+
155.0483	27	C11H7O+
155.0709	20	C8H11O3+
155.0822	8	C7H11N2O2+
156.0582	15	C11H8O+
156.0793	14	C8H12O3+
157.0378	9	C6H7NO4+
157.0512	7	C10H7NO+
157.0647	7	C11H9O+
157.0857	9	C8H13O3+
158.0687	5	C6H10N2O3+
158.0957	8	C11H12N+
159.0672	6	C10H9NO+
160.0375	5	C6H8O5+
163.0539	5	C13H7+
164.0622	8	C13H8+
165.0704	41	C13H9+
166.064	49	C12H8N+
166.0846	54	C6H14O5+
167.0487	16	C12H7O+
167.0715	119	C9H11O3+
168.0555	51	C12H8O+
168.079	383	C12H10N+
169.0609	29	C7H9N2O3+
169.0835	45	C11[13]CH10N+
170.0585	12	C8H10O4+
170.0686	10	C7H10N2O3+
170.0945	34	C9H14O3+
171.0428	6	C11H7O2+
171.0679	21	C11H9NO+
171.1028	58	C9H15O3+
172.0436	5	C6H8N2O4+
172.0525	5	C11H8O2+
172.0738	9	C8H12O4+
172.1048	8	C8[13]CH15O3+
173.0806	14	C8H13O4+
174.0532	15	C7H10O5+
175.0609	5	C7H11O5+
176.0324	74	C9H6NO3+
176.0691	6	C7H12O5+
177.0367	10	C8[13]CH6NO3+
178.0482	25	C6H10O6+
178.0632	22	C10H10O3+
179.0543	6	C6H11O6+
179.0699	37	C10H11O3+
179.0948	7	C10H13NO2+
180.079	327	C10H12O3+
181.0641	23	C13H9O+
181.0866	266	C10H13O3+
182.0946	356	C10H14O3+
183.0459	6	C12H7O2+
183.0662	22	C9H11O4+
183.1009	122	C10H15O3+
184.0545	7	C12H8O2+
184.0742	60	C9H12O4+
184.1066	14	C9[13]CH15O3+
185.0568	6	C7H9N2O4+
185.0787	13	C4H13N2O6+
186.0521	26	C8H10O5+
186.0883	15	C9H14O4+
187.0599	7	C8H11O5+
188.068	11	C8H12O5+
189.0656	26	C10H9N2O2+
190.0662	11	C14H8N+
191.0718	7	C14H9N+
192.0644	14	C10H10NO3+
192.0785	15	C11H12O3+
193.0536	9	C13H7NO+
193.065	14	C14H9O+
193.075	18	C13H9N2+
193.0859	27	C11H13O3+
194.0596	56	C13H8NO+
194.0946	28	C11H14O3+
195.0654	38	C10H11O4+
195.0974	7	C6H15N2O5+
196.0527	8	C13H8O2+
196.0741	147	C10H12O4+
196.1107	16	C11H16O3+
197.0467	6	C12H7NO2+
197.0805	67	C10H13O4+
197.1149	5	C6H17N2O5+
198.0899	139	C10H14O4+
199.0634	8	C12H9NO2+
199.0946	35	C10H15O4+
200.0341	42	C14H4N2+
200.0679	42	C12H10NO2+
201.0361	9	C13[13]CH4N2+
201.0757	8	C11[13]CH10NO2+
202.0847	11	C9H14O5+
204.0627	5	C8H12O6+
206.0573	14	C11H10O4+
207.0654	37	C11H11O4+
208.0743	547	C11H12O4+
209.0816	422	C11H13O4+
210.0898	897	C14H12NO+
211.0956	227	C13[13]CH12NO+
212.0688	97	C10H12O5+
212.099	35	C6H16N2O6+
213.0752	44	C10H13O5+
213.1067	6	C6H17N2O6+
214.0485	8	C9H10O6+
214.0849	44	C10H14O5+
215.0926	16	C10H15O5+
217.0597	40	C8H11NO6+
218.0602	5	C7[13]CH11NO6+
220.0706	5	C7H12N2O6+
221.0701	39	C14H9N2O+
222.0538	36	C14H8NO2+
222.0759	10	C13[13]CH9N2O+
222.0933	5	C15H12NO+
223.0581	10	C11H11O5+
223.0866	34	C14H11N2O+
224.0692	42	C11H12O5+
224.1051	9	C12H16O4+
225.0772	90	C14H11NO2+
226.0852	999	C14H12NO2+
227.0871	205	C13[13]CH12NO2+
228.0647	17	C13H10NO3+
228.0895	40	C13H12N2O2+
229.0668	7	C10H13O6+
229.0745	5	C10H13O6+
229.1	5	C18H13+
235.0626	29	C15H9NO2+
236.0691	269	C12H12O5+
237.0756	101	C12H13O5+
238.0482	9	C11H10O6+
238.0817	36	C12H14O5+
239.056	16	C11H11O6+
239.083	26	C14H11N2O2+
240.0645	67	C14H10NO3+
240.1006	141	C15H14NO2+
241.0716	129	C11H13O6+
241.1047	29	C14[13]CH14NO2+
242.0787	68	C11H14O6+
242.1045	5	C14H14N2O2+
243.0868	63	C14H13NO3+
244.0926	8	C13[13]CH13NO3+
249.0657	17	C15H9N2O2+
250.069	5	C12H12NO5+
252.0636	22	C12H12O6+
252.1028	8	C16H14NO2+
253.0718	191	C12H13O6+
254.0796	723	C12H14O6+
255.0863	387	C15H13NO3+
256.0591	5	C14H10NO4+
256.0914	77	C14[13]CH13NO3+
257.0673	26	C17H9N2O+
257.094	21	C14H13N2O3+
258.0726	7	C16[13]CH9N2O+
259.0789	15	C18H11O2+
265.0596	6	C15H9N2O3+
266.0663	9	C12H12NO6+
267.0513	10	C15H9NO4+
267.0856	67	C13H15O6+
268.0951	255	C13H16O6+
269.0676	34	C15H11NO4+
269.1029	156	C13H17O6+
270.0739	28	C15H12NO4+
270.104	29	C12[13]CH17O6+
271.048	8	C14H9NO5+
271.0755	8	C14[13]CH12NO4+
272.0775	6	C14H12N2O4+
273.0929	6	C14H13N2O4+
281.0921	23	C16H13N2O3+
282.0929	5	C15[13]CH13N2O3+
282.1067	7	C16H14N2O3+
283.071	25	C15H11N2O4+
283.1146	5	C14H19O6+
284.0772	37	C15H12N2O4+
285.0621	121	C15H11NO5+
285.098	9	C16H15NO4+
286.0644	22	C14[13]CH11NO5+
287.0777	132	C15H13NO5+
288.0811	27	C14[13]CH13NO5+
298.0932	12	C16H14N2O4+
299.0769	45	C16H13NO5+
299.1007	6	C16H15N2O4+
300.0792	11	C15[13]CH13NO5+
301.0913	86	C16H15NO5+
302.0944	16	C15[13]CH15NO5+
315.0986	6	C16H15N2O5+
317.0884	8	C16H15NO6+
