Mass spectrum: Metolachlor; LC-ESI-QTOF; MS2; CE: 40 eV; R=35000; [M+H]+
Name: Metolachlor
Name: 2-chloro-N-(2-ethyl-6-methylphenyl)-N-(1-methoxypropan-2-yl)acetamide
Formula: C15H22ClNO2
Exact mass: 283.1339066
SMILES: CCC1=C(N(C(C)COC)C(=O)CCl)C(C)=CC=C1
InChI: InChI=1S/C15H22ClNO2/c1-5-13-8-6-7-11(2)15(13)17(14(18)9-16)12(3)10-19-4/h6-8,12H,5,9-10H2,1-4H3
Instrument: Bruker maXis Impact
Instrument type: LC-ESI-QTOF
Ms type: MS2
Ion mode: POSITIVE
Ionization: ESI
Fragmentation mode: CID
Collision energy: 40 eV
Resolution: 35000
Column name: Acclaim RSLC C18 2.2um, 2.1x100mm, Thermo
Retention time: 10.2 min
Base peak: 284.1411
Precursor m/z: 284.1412
Precursor type: [M+H]+
m/z	relative intensity	assigned
115.0532	17	C9H7+
117.0562	10	C8H7N+
117.0689	23	C9H9+
118.0644	32	C8H8N+
119.0719	54	C8H9N+
119.0844	26	C3H16ClO2+
120.0801	42	C8H10N+
129.0685	5	C4H14ClO2+
130.0642	46	C9H8N+
131.0714	52	C3H14ClNO2+
131.0843	13	C4H16ClO2+
132.0797	94	C9H10N+
133.0875	197	C9H11N+
134.0954	380	C9H12N+
135.0793	9	C9H11O+
135.0991	33	C3H18ClNO2+
136.1106	10	C3H19ClNO2+
143.072	52	C10H9N+
144.0797	82	C4H15ClNO2+
145.0872	76	C4H16ClNO2+
146.0588	12	C9H8NO+
146.0954	191	C10H12N+
147.0669	9	C9H9NO+
147.1016	42	C4H18ClNO2+
148.0742	15	C9H10NO+
148.1107	48	C4H19ClNO2+
149.1139	5	C5H15N3O2+
158.0954	103	C11H12N+
159.1028	64	C5H18ClNO2+
160.1109	168	C5H19ClNO2+
161.1161	26	C5H20ClNO2+
162.0901	36	C10H12NO+
166.0401	9	C12H6O+
174.0911	5	C11H12NO+
174.1265	18	C6H21ClNO2+
175.1326	6	C6H22ClNO2+
176.1426	999	C12H18N+
177.1457	96	C11[13]CH18N+
178.1484	7	C10H23Cl+
182.0346	5	C12H6O2+
184.0512	103	C12H8O2+
185.0551	8	C4H12ClN3O3+
186.0484	27	C15H6+
188.1055	13	C12H14NO+
194.072	24	C14H10O+
196.0513	5	C13H8O2+
196.0692	6	C11H13ClO+
202.1221	10	C13H16NO+
212.083	29	C14H12O2+
214.0803	7	C11H15ClO2+
252.1146	134	
253.1168	22	
254.1118	42	
255.1145	5	C13[13]CH19[37]ClNO+
