Mass spectrum: 7-Diethylamino-4-methylcoumarin; LC-ESI-QTOF; MS2; CE: 50 eV; R=35000; [M+H]+
Name: 7-Diethylamino-4-methylcoumarin
Name: 7-(diethylamino)-4-methylchromen-2-one
Formula: C14H17NO2
Exact mass: 231.1259288
SMILES: CCN(CC)C1=CC=C2C(C)=CC(=O)OC2=C1
InChI: InChI=1S/C14H17NO2/c1-4-15(5-2)11-6-7-12-10(3)8-14(16)17-13(12)9-11/h6-9H,4-5H2,1-3H3
Instrument: Bruker maXis Impact
Instrument type: LC-ESI-QTOF
Ms type: MS2
Ion mode: POSITIVE
Ionization: ESI
Fragmentation mode: CID
Collision energy: 50 eV
Resolution: 35000
Column name: Acclaim RSLC C18 2.2um, 2.1x100mm, Thermo
Retention time: 9.830 min
Base peak: 232.1329
Precursor m/z: 232.1332
Precursor type: [M+H]+
m/z	relative intensity	assigned
115.0535	283	C9H7+
116.061	148	C9H8+
117.0565	88	C8H7N+
118.0409	15	C8H6O+
118.0639	66	C8H8N+
119.0712	19	C8H9N+
120.0788	32	C8H10N+
128.0627	18	C10H8+
129.0693	34	C10H9+
130.0646	73	C9H8N+
131.048	405	C9H7O+
131.0711	45	C9H9N+
132.0557	453	C9H8O+
132.0796	242	C9H10N+
133.0605	66	C8[13]CH8O+
133.0839	34	C8[13]CH10N+
134.0953	36	C9H12N+
142.0639	43	C10H8N+
143.0719	142	C10H9N+
144.0426	21	C9H6NO+
144.0798	173	C10H10N+
145.0513	82	C9H7NO+
145.0635	51	C10H9O+
145.0838	31	C9[13]CH10N+
146.0596	147	C9H8NO+
146.0953	77	C10H12N+
147.0621	21	C8[13]CH8NO+
148.1101	29	C10H14N+
158.0946	29	C11H12N+
159.067	26	C10H9NO+
160.0505	51	C10H8O2+
160.0745	311	C10H10NO+
160.1123	43	C11H14N+
161.0574	17	C10H9O2+
161.0779	23	C9[13]CH10NO+
172.1115	17	C12H14N+
174.0665	289	C11H10O2+
174.0897	215	C11H12NO+
175.0695	42	C10[13]CH10O2+
175.0955	34	C10[13]CH12NO+
176.1427	37	C12H18N+
188.0698	999	C11H10NO2+
189.0728	142	C10[13]CH10NO2+
192.0419	29	C13H6NO+
202.0847	76	C12H12NO2+
216.1015	28	C13H14NO2+
232.1339	16	C14H18NO2+
