Mass spectrum: Amisulpride N-Oxide; LC-ESI-QTOF; MS2; CE: 50 eV; R=35000; [M+H]+
Name: Amisulpride N-Oxide
Name: 4-amino-N-[(1-ethyl-1-oxidopyrrolidin-1-ium-2-yl)methyl]-5-ethylsulfonyl-2-methoxybenzamide
Formula: C17H27N3O5S
Exact mass: 385.1671420
SMILES: CC[N+]1([O-])CCCC1CNC(=O)C1=CC(=C(N)C=C1OC)S(=O)(=O)CC
InChI: InChI=1S/C17H27N3O5S/c1-4-20(22)8-6-7-12(20)11-19-17(21)13-9-16(26(23,24)5-2)14(18)10-15(13)25-3/h9-10,12H,4-8,11,18H2,1-3H3,(H,19,21)
Instrument: Bruker maXis Impact
Instrument type: LC-ESI-QTOF
Ms type: MS2
Ion mode: POSITIVE
Ionization: ESI
Fragmentation mode: CID
Collision energy: 50 eV
Resolution: 35000
Column name: Acclaim RSLC C18 2.2um, 2.1x100mm, Thermo
Retention time: 4.2 min
Base peak: 386.1741
Precursor m/z: 386.1744
Precursor type: [M+H]+
m/z	relative intensity	assigned
132.007	7	C7H2NO2+
140.015	11	C3H8O4S+
149.046	113	H11N3O4S+
168.0102	53	C7H6NO2S+
177.9945	21	C8H4NO2S+
196.0054	851	C8H6NO3S+
197.0084	60	C7[13]CH6NO3S+
198.0016	21	C8H6NO3[34]S+
214.0161	170	C14H2N2O+
215.019	12	C13[13]CH2N2O+
216.0223	5	C12[13]C2H2N2O+
242.0476	999	C16H6N2O+
243.0502	84	C9[13]CH12NO4S+
244.0447	21	C10H12NO4[34]S+
