Mass spectrum: Tolfenpyrad; LC-ESI-QTOF; MS2; CE: 40 eV; R=35000; [M+H]+
Name: Tolfenpyrad
Name: 4-chloro-5-ethyl-2-methyl-N-[[4-(4-methylphenoxy)phenyl]methyl]pyrazole-3-carboxamide
Formula: C21H22ClN3O2
Exact mass: 383.1400546
SMILES: CCC1=NN(C(=C1Cl)C(=O)NCC2=CC=C(C=C2)OC3=CC=C(C=C3)C)C
InChI: InChI=1S/C21H22ClN3O2/c1-4-18-19(22)20(25(3)24-18)21(26)23-13-15-7-11-17(12-8-15)27-16-9-5-14(2)6-10-16/h5-12H,4,13H2,1-3H3,(H,23,26)
Instrument: Bruker maXis Impact
Instrument type: LC-ESI-QTOF
Ms type: MS2
Ion mode: POSITIVE
Ionization: ESI
Fragmentation mode: CID
Collision energy: 40 eV
Resolution: 35000
Column name: Acclaim RSLC C18 2.2um, 2.1x100mm, Thermo
Retention time: 12.463 min
Base peak: 150.1127
Precursor m/z: 384.1473
Precursor type: [M+H]+
m/z	relative intensity	assigned
117.0214	98	C4H6ClN2+
119.0192	20	C4H6[37]ClN2+
129.0693	13	C10H9+
141.0703	44	C11H9+
145.0531	208	C6H10ClN2+
147.0505	51	C6H10[37]ClN2+
152.0614	17	C12H8+
153.0695	52	C12H9+
154.0781	185	C12H10+
155.0837	22	C11[13]CH10+
167.0872	15	C13H11+
169.1016	215	C13H13+
170.1051	34	C12[13]CH13+
171.0318	93	C7H8ClN2O+
172.0366	12	C10H6NO2+
173.03	18	C7H8[37]ClN2O+
182.0716	13	C11H8N3+
197.0964	999	C11H16ClN+
198.0999	148	C10[13]CH16ClN+
200.0597	19	C10H13ClO2+
233.0377	21	C19H5+
251.0468	11	C17H5N3+
327.0796	71	C17H14ClN3O2+
328.0817	20	C17H15ClN3O2+
384.1508	25	C21H23ClN3O2+
