Mass spectrum: delta9-Tetrahydrocannabinol; LC-ESI-QTOF; MS2; CE: 30 eV; R=35000; [M+H]+
Name: delta9-Tetrahydrocannabinol
Name: 6,6,9-trimethyl-3-pentyl-6a,7,8,10a-tetrahydrobenzo[c]chromen-1-ol
Formula: C21H30O2
Exact mass: 314.2245802
SMILES: CCCCCC1=CC2=C(C3C=C(CCC3C(O2)(C)C)C)C(=C1)O
InChI: InChI=1S/C21H30O2/c1-5-6-7-8-15-12-18(22)20-16-11-14(2)9-10-17(16)21(3,4)23-19(20)13-15/h11-13,16-17,22H,5-10H2,1-4H3
Instrument: Bruker maXis Impact
Instrument type: LC-ESI-QTOF
Ms type: MS2
Ion mode: POSITIVE
Ionization: ESI
Fragmentation mode: CID
Collision energy: 30 eV
Resolution: 35000
Column name: Acclaim RSLC C18 2.2um, 2.1x100mm, Thermo
Retention time: 13.805 min
Base peak: 315.2347
Precursor m/z: 315.2319
Precursor type: [M+H]+
m/z	relative intensity	assigned
119.086	28	C9H11+
121.0644	20	C8H9O+
121.1013	25	C9H13+
123.0452	174	C7H7O2+
123.1179	52	C9H15+
124.0488	23	C7H8O2+
131.0863	26	C10H11+
133.1026	18	C10H13+
135.0431	24	C8H7O2+
135.0807	12	C9H11O+
135.1177	206	C10H15+
136.1211	31	C9[13]CH15+
137.0612	75	C8H9O2+
147.081	15	C10H11O+
147.1167	11	C11H15+
149.0604	18	C9H9O2+
149.0975	14	C10H13O+
149.1318	16	C11H17+
151.0771	47	C9H11O2+
159.0816	27	C11H11O+
161.0615	17	C10H9O2+
161.0975	16	C11H13O+
163.076	39	C10H11O2+
165.0913	72	C10H13O2+
166.096	15	C10H14O2+
171.0817	16	C12H11O+
175.0771	12	C11H11O2+
177.0925	46	C11H13O2+
177.1284	48	C12H17O+
178.1333	21	C12H18O+
181.1232	81	C11H17O2+
182.1265	13	C11H18O2+
189.0945	30	C12H13O2+
189.1292	13	C13H17O+
193.1236	999	C12H17O2+
194.1273	150	C11[13]CH17O2+
203.1097	16	C13H15O2+
205.1235	28	C13H17O2+
207.1391	80	C13H19O2+
208.1444	17	C13H20O2+
217.1247	59	C14H17O2+
217.1617	12	C15H21O+
218.1275	16	C14H18O2+
219.1401	31	C14H19O2+
219.177	13	C15H23O+
221.156	106	C14H21O2+
222.159	20	C14H22O2+
227.1439	17	C16H19O+
229.1598	19	C16H21O+
231.1403	132	C15H19O2+
231.1764	20	C16H23O+
232.1425	33	C15H20O2+
233.1553	149	C15H21O2+
234.1586	21	C14[13]CH21O2+
235.1709	126	C15H23O2+
236.1745	25	C15H24O2+
241.1602	22	C17H21O+
245.1554	35	C16H21O2+
246.161	12	C16H22O2+
247.1707	141	C16H23O2+
248.174	23	C15[13]CH23O2+
255.1737	11	C18H23O+
259.1716	297	C17H23O2+
260.1743	48	C16[13]CH23O2+
272.1834	14	C18H24O2+
273.1853	38	C18H25O2+
297.2224	22	C21H29O+
315.235	149	C21H31O2+
316.2373	50	C20[13]CH31O2+
