Mass spectrum: Prednisone; LC-ESI-QTOF; MS2; CE: 10 eV; R=35000; [M+H]+
Name: Prednisone
Name: (8S,9S,10R,13S,14S,17R)-17-hydroxy-17-(2-hydroxyacetyl)-10,13-dimethyl-6,7,8,9,12,14,15,16-octahydrocyclopenta[a]phenanthrene-3,11-dione
Formula: C21H26O5
Exact mass: 358.1780239
SMILES: C[C@]12CC(=O)[C@H]3[C@H]([C@@H]1CC[C@@]2(C(=O)CO)O)CCC4=CC(=O)C=C[C@]34C
InChI: InChI=1S/C21H26O5/c1-19-7-5-13(23)9-12(19)3-4-14-15-6-8-21(26,17(25)11-22)20(15,2)10-16(24)18(14)19/h5,7,9,14-15,18,22,26H,3-4,6,8,10-11H2,1-2H3/t14-,15-,18+,19-,20-,21-/m0/s1
Instrument: Bruker maXis Impact
Instrument type: LC-ESI-QTOF
Ms type: MS2
Ion mode: POSITIVE
Ionization: ESI
Fragmentation mode: CID
Collision energy: 10 eV
Resolution: 35000
Column name: Acclaim RSLC C18 2.2um, 2.1x100mm, Thermo
Retention time: 7.161 min
Base peak: 359.1876
Precursor m/z: 359.1853
Precursor type: [M+H]+
m/z	relative intensity	assigned
135.0816	5	C9H11O+
137.0957	5	C9H13O+
147.0806	32	C10H11O+
159.0808	5	C11H11O+
161.0967	7	C11H13O+
171.0813	10	C12H11O+
173.0978	5	C12H13O+
181.0852	9	C10H13O3+
183.1025	10	C10H15O3+
197.0959	8	C14H13O+
213.1281	10	C15H17O+
237.1263	26	C17H17O+
239.1079	15	C16H15O2+
253.1223	7	C17H17O2+
255.136	6	C17H19O2+
261.1303	14	C19H17O+
263.1423	12	C19H19O+
264.1515	5	C19H20O+
265.1594	29	C19H21O+
266.1632	9	C19H22O+
267.1389	34	C18H19O2+
268.1408	7	C18H20O2+
277.1597	12	C20H21O+
281.1552	10	C19H21O2+
283.1701	13	C19H23O2+
287.1458	6	C21H19O+
293.1539	10	C20H21O2+
295.1707	55	C20H23O2+
296.1751	9	C20H24O2+
297.1483	5	C19H21O3+
305.154	45	C21H21O2+
306.1582	9	C21H22O2+
311.1639	15	C20H23O3+
313.1801	93	C20H25O3+
314.1844	21	C19[13]CH25O3+
323.1659	72	C21H23O3+
324.1701	14	C20[13]CH23O3+
341.1769	248	C21H25O4+
342.1797	77	C21H26O4+
343.182	12	C20[13]CH26O4+
359.1877	999	C21H27O5+
360.1908	198	C20[13]CH27O5+
361.1936	39	C19[13]C2H27O5+
