Mass spectrum: Candesartan; LC-ESI-QTOF; MS2; CE: 30 eV; R=35000; [M+H]+
Name: Candesartan
Name: 2-ethoxy-3-[[4-[2-(2H-tetrazol-5-yl)phenyl]phenyl]methyl]benzimidazole-4-carboxylic acid
Formula: C24H20N6O3
Exact mass: 440.1596885
SMILES: CCOC1=NC2=CC=CC(C(O)=O)=C2N1CC1=CC=C(C=C1)C1=CC=CC=C1C1=NNN=N1
InChI: InChI=1S/C24H20N6O3/c1-2-33-24-25-20-9-5-8-19(23(31)32)21(20)30(24)14-15-10-12-16(13-11-15)17-6-3-4-7-18(17)22-26-28-29-27-22/h3-13H,2,14H2,1H3,(H,31,32)(H,26,27,28,29)
Instrument: Bruker maXis Impact
Instrument type: LC-ESI-QTOF
Ms type: MS2
Ion mode: POSITIVE
Ionization: ESI
Fragmentation mode: CID
Collision energy: 30 eV
Resolution: 35000
Column name: Acclaim RSLC C18 2.2um, 2.1x100mm, Thermo
Retention time: 7.7 min
Base peak: 251.1541
Precursor m/z: 441.167
Precursor type: [M+H]+
m/z	relative intensity	assigned
153.0693	29	C12H9+
161.0341	24	C8H5N2O2+
165.0693	59	C13H9+
167.0835	43	C13H11+
178.0764	118	C14H10+
179.043	41	C6H5N5O2+
179.0842	25	C14H11+
180.0796	218	C13H10N+
181.085	32	C8H11N3O2+
189.0655	73	C10H9N2O2+
190.0639	155	C14H8N+
191.0441	41	C7H5N5O2+
191.071	64	C11H11O3+
192.079	225	C11H12O3+
193.0869	145	C11H13O3+
194.095	310	C11H14O3+
195.0983	45	C7H11N6O+
205.076	30	C14H9N2+
206.0828	116	C14H10N2+
207.0907	999	C14H11N2+
208.0937	165	C13[13]CH11N2+
208.1107	99	C12H16O3+
209.0987	37	C15H13O+
209.1126	42	C8H13N6O+
210.0901	413	C12H10N4+
211.0939	52	C7H11N6O2+
218.0954	85	C16H12N+
219.0924	45	C15H11N2+
220.0988	101	C15H12N2+
233.1072	24	C16H13N2+
234.1159	81	C16H14N2+
235.0974	317	C14H11N4+
235.1224	546	C16H15N2+
236.0997	58	C9H12N6O2+
236.1257	114	C15[13]CH15N2+
263.1285	441	C16H15N4+
264.1335	70	C15[13]CH15N4+
309.1064	31	C15H13N6O2+
310.111	25	C21H14N2O+
337.0981	31	C22H13N2O2+
338.1028	167	C20H12N5O+
339.1107	43	C20H13N5O+
349.1067	78	C22H13N4O+
350.0931	121	C24H14O3+
351.0976	48	C20H11N6O+
352.1073	310	C20H12N6O+
367.1219	65	C24H17NO3+
380.1403	91	C24H18N3O2+
381.1401	36	C23H17N4O2+
395.1476	115	C24H19N4O2+
396.1531	59	C24H20N4O2+
423.1561	63	C24H19N6O2+
