Mass spectrum: Methadone; LC-ESI-QTOF; MS2; CE: 20 eV; R=35000; [M+H]+
Name: Methadone
Name: 6-(dimethylamino)-4,4-diphenylheptan-3-one
Formula: C21H27NO
Exact mass: 309.2092645
SMILES: CCC(=O)C(CC(C)N(C)C)(C1=CC=CC=C1)C1=CC=CC=C1
InChI: InChI=1S/C21H27NO/c1-5-20(23)21(16-17(2)22(3)4,18-12-8-6-9-13-18)19-14-10-7-11-15-19/h6-15,17H,5,16H2,1-4H3
Instrument: Bruker maXis Impact
Instrument type: LC-ESI-QTOF
Ms type: MS2
Ion mode: POSITIVE
Ionization: ESI
Fragmentation mode: CID
Collision energy: 20 eV
Resolution: 35000
Column name: Acclaim RSLC C18 2.2um, 2.1x100mm, Thermo
Retention time: 8.0 min
Base peak: 310.2163
Precursor m/z: 310.2165
Precursor type: [M+H]+
m/z	relative intensity	assigned
223.1107	56	C16H15O+
247.1473	30	C19H19+
265.1581	999	C19H21O+
310.2157	40	C21H28NO+
