Mass spectrum: Dieldrin; GC-APCI-QTOF; MS2; CE: 40 eV; R=35000; [M]+
Name: Dieldrin
Name: (1R,2S,3S,6R,7R,8S,9S,11R)-3,4,5,6,13,13-hexachloro-10-oxapentacyclo[6.3.1.13,6.02,7.09,11]tridec-4-ene
Formula: C12H8Cl6O
Exact mass: 377.8706
SMILES: ClC1=C(Cl)[C@]2(Cl)[C@@H]3[C@@H]4C[C@@H]([C@H]5O[C@@H]45)[C@@H]3[C@@]1(Cl)C2(Cl)Cl
InChI: InChI=1S/C12H8Cl6O/c13-8-9(14)11(16)5-3-1-2(6-7(3)19-6)4(5)10(8,15)12(11,17)18/h2-7H,1H2/t2-,3+,4+,5-,6-,7+,10+,11-
Instrument: Bruker 450 GC coupled to maXis Impact
Instrument type: GC-APCI-QTOF
Ms type: MS2
Ion mode: POSITIVE
Ionization: APCI
Fragmentation mode: CID
Collision energy: 40 eV
Resolution: 35000
Column name: Rxi-5Sil MS column, 30m, 0.25mm i.d., 0.25Âµm film thickness (Restek)
Retention time: 20.306 min
Base peak: 377.8685
Precursor m/z: 377.8701
Precursor type: [M]+
m/z	relative intensity	assigned
129.0097	224	C6H6ClO+
146.9741	723	C6H5Cl2+
203.9248	329	C8H3Cl3+
204.9344	290	C8H4Cl3+
206.9282	260	C5H7Cl4+
206.9723	227	C11H5Cl2+
208.9914	302	C11H7Cl2+
226.8946	598	C7H3Cl4+
228.8912	370	C4H6Cl5+
235.9771	334	C12H6Cl2O+
238.8983	311	C8H3Cl4+
240.8933	251	C5H6Cl5+
241.8994	227	C5H7Cl5+
242.9506	595	C11H6Cl3+
252.8935	260	C6H6Cl5+
253.9441	999	C12H5Cl3+
254.9558	290	C12H6Cl3+
255.9415	445	C9H8Cl4+
260.8582	397	C7H2Cl5+
263.905	260	C10H4Cl4+
276.9141	233	C11H5Cl4+
288.9168	284	C12H5Cl4+
289.9194	574	C12H6Cl4+
