Mass spectrum: Dichlorvos; LC-ESI-QTOF; MS2; CE: Ramp 18.8-28.1 eV; R=35000; [M+H]+
Name: Dichlorvos
Name: 2,2-dichloroethenyl dimethyl phosphate
Formula: C4H7Cl2O4P
Exact mass: 219.9459007
SMILES: COP(=O)(OC)OC=C(Cl)Cl
InChI: InChI=1S/C4H7Cl2O4P/c1-8-11(7,9-2)10-3-4(5)6/h3H,1-2H3
Instrument: Bruker maXis Impact
Instrument type: LC-ESI-QTOF
Ms type: MS2
Ion mode: POSITIVE
Ionization: ESI
Fragmentation mode: CID
Collision energy: Ramp 18.8-28.1 eV
Resolution: 35000
Column name: Acclaim RSLC C18 2.2um, 2.1x100mm, Thermo
Retention time: 6.967 min
Base peak: 224.0916
Precursor m/z: 220.9532
Precursor type: [M+H]+
m/z	relative intensity	assigned
46.9678	6	OP+
48.9835	9	H2OP+
53.0386	19	C4H5+
59.0487	481	C3H7O+
76.9787	9	CH2O2P+
78.9944	87	CH4O2P+
96.9606	19	C2H3Cl2+
97.0058	6	C2H6ClO2+
113.0006	19	C2H6ClO3+
127.0145	999	C3H8ClO3+
128.0174	30	C2[13]CH8ClO3+
130.9651	7	CH5ClO3P+
144.9805	82	C2H7ClO3P+
146.9772	17	C2H7[37]ClO3P+
220.952	238	C4H8Cl2O4P+
221.9549	13	C3[13]CH8Cl2O4P+
222.9495	159	C4H8Cl[37]ClO4P+
