Mass spectrum: 17alpha-Methyltestosterone; LC-ESI-QTOF; MS2; CE: Ramp 21.7-32.5 eV; R=35000; [M+H]+
Name: 17alpha-Methyltestosterone
Name: Methyltestosterone
Name: (8R,9S,10R,13S,14S,17S)-17-hydroxy-10,13,17-trimethyl-2,6,7,8,9,11,12,14,15,16-decahydro-1H-cyclopenta[a]phenanthren-3-one
Formula: C20H30O2
Exact mass: 302.2245802
SMILES: C[C@]1(O)CC[C@H]2[C@@H]3CCC4=CC(=O)CC[C@]4(C)[C@H]3CC[C@]12C
InChI: InChI=1S/C20H30O2/c1-18-9-6-14(21)12-13(18)4-5-15-16(18)7-10-19(2)17(15)8-11-20(19,3)22/h12,15-17,22H,4-11H2,1-3H3/t15-,16+,17+,18+,19+,20+/m1/s1
Instrument: Bruker maXis Impact
Instrument type: LC-ESI-QTOF
Ms type: MS2
Ion mode: POSITIVE
Ionization: ESI
Fragmentation mode: CID
Collision energy: Ramp 21.7-32.5 eV
Resolution: 35000
Column name: Acclaim RSLC C18 2.2um, 2.1x100mm, Thermo
Retention time: 10.352 min
Base peak: 303.2319
Precursor m/z: 303.2319
Precursor type: [M+H]+
m/z	relative intensity	assigned
55.0539	6	C4H7+
67.0538	21	C5H7+
69.0693	21	C5H9+
71.0484	6	C4H7O+
79.054	42	C6H7+
81.0697	71	C6H9+
83.0489	79	C5H7O+
83.085	6	C6H11+
85.0647	11	C5H9O+
91.0545	17	C7H7+
93.0704	47	C7H9+
95.086	127	C7H11+
96.0889	9	C6[13]CH11+
97.0655	999	C6H9O+
98.0687	60	C5[13]CH9O+
105.0711	22	C8H9+
107.0868	52	C8H11+
109.0665	659	C7H9O+
110.0694	39	C6[13]CH9O+
119.0857	44	C9H11+
121.0647	24	C8H9O+
121.1014	52	C9H13+
122.1048	6	C8[13]CH13+
123.0803	71	C8H11O+
123.1159	6	C9H15+
124.0841	6	C7[13]CH11O+
131.0848	15	C10H11+
133.1008	47	C10H13+
135.0794	5	C9H11O+
135.116	33	C10H15+
137.0961	11	C9H13O+
137.1314	9	C10H17+
143.0844	9	C11H11+
145.1003	28	C11H13+
147.116	37	C11H15+
149.095	20	C10H13O+
149.132	29	C11H17+
151.1109	5	C10H15O+
155.0841	5	C12H11+
157.1002	22	C12H13+
159.1162	58	C12H15+
160.1194	9	C11[13]CH15+
161.0945	8	C11H13O+
161.1316	48	C12H17+
162.1348	7	C11[13]CH17+
163.1107	23	C11H15O+
163.147	14	C12H19+
169.101	8	C13H13+
171.1163	30	C13H15+
173.1318	29	C13H17+
175.1102	10	C12H15O+
175.1475	46	C13H19+
177.1265	53	C12H17O+
177.1631	58	C13H21+
178.13	7	C11[13]CH17O+
178.1653	10	C12[13]CH21+
183.115	5	C14H15+
185.1319	39	C14H17+
186.1345	5	C13[13]CH17+
187.1473	27	C14H19+
188.151	6	C13[13]CH19+
189.127	15	C13H17O+
189.1634	131	C14H21+
190.1668	19	C13[13]CH21+
191.143	15	C13H19O+
197.1319	14	C15H17+
199.1474	21	C15H19+
201.1632	33	C15H21+
202.1661	5	C14[13]CH21+
203.1427	6	C14H19O+
203.1791	33	C15H23+
204.1825	5	C14[13]CH23+
211.1481	42	C16H19+
212.1517	8	C15[13]CH19+
215.1419	13	C15H19O+
215.179	23	C16H23+
225.1634	21	C17H21+
227.1796	114	C17H23+
228.183	21	C16[13]CH23+
229.1586	28	C16H21O+
230.1619	6	C15[13]CH21O+
239.1803	5	C18H23+
241.1952	7	C18H25+
243.1746	12	C17H23O+
243.2113	5	C18H27+
245.1904	108	C17H25O+
246.1938	17	C16[13]CH25O+
267.2113	157	C20H27+
268.214	37	C19[13]CH27+
285.2218	347	C20H29O+
286.225	75	C19[13]CH29O+
287.2269	5	C18[13]C2H29O+
303.2322	899	C20H31O2+
304.236	256	C19[13]CH31O2+
305.239	23	C18[13]C2H31O2+
