Mass spectrum: 2,2`-Methylenebis(6-tert-butyl-p-cresol); GC-APCI-QTOF; MS2; CE: 40 eV; R=35000; [M+H]+
Name: 2,2`-Methylenebis(6-tert-butyl-p-cresol)
Formula: C23H32O2
Exact mass: 340.2402
SMILES: CC1=CC(=C(C(=C1)C(C)(C)C)O)CC2=C(C(=CC(=C2)C)C(C)(C)C)O
InChI: InChI=1S/C23H32O2/c1-14-9-16(20(24)18(11-14)22(3,4)5)13-17-10-15(2)12-19(21(17)25)23(6,7)8/h9-12,24-25H,13H2,1-8H3
Instrument: Bruker 450 GC coupled to maXis Impact
Instrument type: GC-APCI-QTOF
Ms type: MS2
Ion mode: POSITIVE
Ionization: APCI
Fragmentation mode: CID
Collision energy: 40 eV
Resolution: 35000
Column name: Rxi-5Sil MS column, 30m, 0.25mm i.d., 0.25Âµm film thickness, Restek
Retention time: 24.027 min
Base peak: 283.2618
Precursor m/z: 341.2475
Precursor type: [M+H]+
m/z	relative intensity	assigned
55.0536	783	C4H7+
57.0346	729	C3H5O+
69.0707	837	C5H9+
121.1007	999	C9H13+
131.0858	891	C10H11+
135.117	702	C10H15+
