Mass spectrum: Lidocaine-N-Oxide; LC-ESI-QTOF; MS2; CE: 30 eV; R=35000; [M+H]+
Name: Lidocaine-N-Oxide
Name: Lidocaine N-oxide
Name: 2-(2,6-dimethylanilino)-N,N-diethyl-2-oxoethanamine oxide
Formula: C14H22N2O2
Exact mass: 250.1681279
SMILES: CC[N+]([O-])(CC)CC(=O)NC1=C(C)C=CC=C1C
InChI: InChI=1S/C14H22N2O2/c1-5-16(18,6-2)10-13(17)15-14-11(3)8-7-9-12(14)4/h7-9H,5-6,10H2,1-4H3,(H,15,17)
Instrument: Bruker maXis Impact
Instrument type: LC-ESI-QTOF
Ms type: MS2
Ion mode: POSITIVE
Ionization: ESI
Fragmentation mode: CID
Collision energy: 30 eV
Resolution: 35000
Column name: Acclaim RSLC C18 2.2um, 2.1x100mm, Thermo
Retention time: 5.2 min
Base peak: 251.1749
Precursor m/z: 251.1754
Precursor type: [M+H]+
m/z	relative intensity	assigned
118.063	10	C8H8N+
119.0855	10	C9H11+
120.0799	999	C8H10N+
121.0651	11	C8H9O+
121.0846	83	C7[13]CH10N+
122.0954	314	C8H12N+
123.0796	14	C8H11O+
123.0993	32	C3H13N3O2+
130.0859	29	C6H12NO2+
132.0798	23	C9H10N+
134.095	100	C9H12N+
135.0992	11	C4H13N3O2+
144.0802	14	C10H10N+
146.0963	28	C10H12N+
147.0668	35	C9H9NO+
148.0743	397	C9H10NO+
149.0779	37	C8[13]CH10NO+
150.0894	26	C9H12NO+
160.0749	8	C10H10NO+
160.1112	9	C11H14N+
162.0907	26	C10H12NO+
163.0615	32	C9H9NO2+
163.0978	35	C10H13NO+
164.1058	251	C10H14NO+
165.109	27	C9[13]CH14NO+
178.0846	9	C10H12NO2+
205.1336	22	C12H17N2O+
223.1445	9	C12H19N2O2+
233.1646	34	C14H21N2O+
234.1707	9	C14H22N2O+
251.1744	53	C14H23N2O2+
