Mass spectrum: Atenolol; LC-APCI-QFT; MS2; CE: Ramp 20%-70% (nominal); R=30000; [M+H]+
Name: Atenolol
Name: 2-[4-[2-hydroxy-3-(propan-2-ylamino)propoxy]phenyl]acetamide
Class: Drugs; Agent Affecting Nervous System; Beta-Adrenergic Antagonist
Formula: C14H22N2O3
Exact mass: 266.1630
SMILES: O=C(N)CC1=CC=C(OCC(O)CNC(C)C)C=C1
InChI: InChI=1S/C14H22N2O3/c1-10(2)16-8-12(17)9-19-13-5-3-11(4-6-13)7-14(15)18/h3-6,10,12,16-17H,7-9H2,1-2H3,(H2,15,18)
Instrument: QExactive Orbitrap HF-X (Thermo Scientific)
Instrument type: LC-APCI-QFT
Ms type: MS2
Ion mode: POSITIVE
Ionization: APCI
Fragmentation mode: HCD
Collision energy: Ramp 20%-70% (nominal)
Resolution: 30000
Column name: Waters; Acquity UPLC BEH C18, 2.1 x 100 mm, 1.7 um, Waters
Retention time: 7.162600
Base peak: 267.17090
Precursor m/z: 267.1701
Ion type: [M+H]+
m/z	relative intensity
56.04987	65.297
72.08086	24.591
74.06009	53.941
91.05445	10.559
107.04916	16.291
116.10738	15.621
117.06984	12.853
119.04918	14.502
121.06519	14.031
133.06479	51.815
145.06477	121.43
190.08629	14.512
225.12367	20.02
267.1709	999
