Mass spectrum: Fenuron; LC-ESI-QFT; MS2; CE: Ramp 20%-70% (nominal); R=30000; [M-H]-
Name: Fenuron
Name: 1,1-dimethyl-3-phenylurea
Class: Pesticides; Herbicides; Urea Derivatives; Benzene Derivatives
Formula: C9H12N2O
Exact mass: 164.0950
SMILES: O=C(NC=1C=CC=CC1)N(C)C
InChI: InChI=1S/C9H12N2O/c1-11(2)9(12)10-8-6-4-3-5-7-8/h3-7H,1-2H3,(H,10,12)
Instrument: QExactive Orbitrap HF-X (Thermo Scientific)
Instrument type: LC-ESI-QFT
Ms type: MS2
Ion mode: NEGATIVE
Ionization: ESI
Fragmentation mode: HCD
Collision energy: Ramp 20%-70% (nominal)
Resolution: 30000
Column name: Waters; Acquity UPLC BEH C18, 2.1 x 100 mm, 1.7 um, Waters
Retention time: 9.585800
Base peak: 163.08784
Precursor m/z: 163.0879
Ion type: [M-H]-
m/z	relative intensity
92.05087	84.215
118.03033	271.524
162.88737	15.054
163.08784	999
