Mass spectrum: Pyrazosulfuron-ethyl; LC-APCI-QFT; MS2; CE: Ramp 20%-70% (nominal); R=30000; [M+H]+
Name: Pyrazosulfuron-ethyl
Name: Ethyl 5-[(4,6-dimethoxypyrimidin-2-yl)carbamoylsulfamoyl]-1-methylpyrazole-4-carboxylate
Class: Pesticides; Herbicides; Sulfonylurea; Pyrazoles
Formula: C14H18N6O7S
Exact mass: 414.0958
SMILES: O=C(OCC)C=1C=NN(C1S(=O)(=O)NC(=O)NC=2N=C(OC)C=C(N2)OC)C
InChI: InChI=1S/C14H18N6O7S/c1-5-27-12(21)8-7-15-20(2)11(8)28(23,24)19-14(22)18-13-16-9(25-3)6-10(17-13)26-4/h6-7H,5H2,1-4H3,(H2,16,17,18,19,22)
Instrument: QExactive Orbitrap HF-X (Thermo Scientific)
Instrument type: LC-APCI-QFT
Ms type: MS2
Ion mode: POSITIVE
Ionization: APCI
Fragmentation mode: HCD
Collision energy: Ramp 20%-70% (nominal)
Resolution: 30000
Column name: Waters; Acquity UPLC BEH C18, 2.1 x 100 mm, 1.7 um, Waters
Retention time: 12.503500
Base peak: 130.06502
Precursor m/z: 415.1036
Ion type: [M+H]+
m/z	relative intensity
139.05074	68
156.07658	18
157.06094	102
182.05608	999
188.01265	38
188.99629	13
211.1158	10
213.99236	17
234.05429	14
369.06268	42
415.10321	30
