Mass spectrum: Carbofuran; LC-APCI-QFT; MS2; CE: Ramp 20%-70% (nominal); R=30000; [M+H]+
Name: Carbofuran
Name: (2,2-dimethyl-3H-1-benzofuran-7-yl) N-methylcarbamate
Class: Pesticides; Carbamate Insecticides; Phenylcarbamates
Formula: C12H15NO3
Exact mass: 221.1052
SMILES: O=C(OC1=CC=CC2=C1OC(C)(C)C2)NC
InChI: InChI=1S/C12H15NO3/c1-12(2)7-8-5-4-6-9(10(8)16-12)15-11(14)13-3/h4-6H,7H2,1-3H3,(H,13,14)
Instrument: QExactive Orbitrap HF-X (Thermo Scientific)
Instrument type: LC-APCI-QFT
Ms type: MS2
Ion mode: POSITIVE
Ionization: APCI
Fragmentation mode: HCD
Collision energy: Ramp 20%-70% (nominal)
Resolution: 30000
Column name: Waters; Acquity UPLC BEH C18, 2.1 x 100 mm, 1.7 um, Waters
Retention time: 13.027100
Base peak: 274.99771
Precursor m/z: 222.1125
Ion type: [M+H]+
m/z	relative intensity
55.05455	75
58.02907	18
67.05441	11
91.05391	42
95.04939	31
111.04433	6
119.04967	9
119.08575	18
123.0441	681
137.06006	30
147.08044	13
165.09152	999
213.68864	6
213.70163	6
222.11331	169
