Mass spectrum: Imidacloprid; LC-APCI-QFT; MS2; CE: Ramp 20%-70% (nominal); R=30000; [M-H]-
Name: Imidacloprid
Name: (NE)-N-[1-[(6-chloropyridin-3-yl)methyl]imidazolidin-2-ylidene]nitramide
Class: Pesticides; Insecticides; Neonicotinoids
Formula: C9H10ClN5O2
Exact mass: 255.0523
SMILES: O=[N+]([O-])N=C1NCCN1CC2=CN=C(Cl)C=C2
InChI: InChI=1S/C9H10ClN5O2/c10-8-2-1-7(5-12-8)6-14-4-3-11-9(14)13-15(16)17/h1-2,5H,3-4,6H2,(H,11,13)
Instrument: QExactive Orbitrap HF-X (Thermo Scientific)
Instrument type: LC-APCI-QFT
Ms type: MS2
Ion mode: NEGATIVE
Ionization: APCI
Fragmentation mode: HCD
Collision energy: Ramp 20%-70% (nominal)
Resolution: 30000
Column name: Waters; Acquity UPLC BEH C18, 2.1 x 100 mm, 1.7 um, Waters
Retention time: 9.561300
Base peak: 255.23064
Precursor m/z: 254.0453
Ion type: [M-H]-
m/z	relative intensity
63.96257	231.836
63.96449	7.199
65.95839	17.352
85.99979	14.154
92.05057	48.453
108.04501	6.469
153.02234	17.349
156.00789	6.624
156.01285	636.845
157.01651	77.342
158.00858	58.064
158.01604	7.82
213.71626	17.645
252.04417	143.61
253.04852	39.906
253.21552	10.734
254.04477	175.824
255.04799	14.924
255.23064	999
255.23557	979.2
256.04233	34.33
256.23318	37.62
