Mass spectrum: 2-Bromo-4,6-dinitroaniline; LC-ESI-QFT; MS2; CE: Ramp 20%-70% (nominal); R=30000; [M-H]-
Name: 2-Bromo-4,6-dinitroaniline
Name: 6-Bromo-2,4-dinitroaniline
Class: Nitroanilines
Formula: C6H4BrN3O4
Exact mass: 260.9385
SMILES: O=[N+]([O-])C1=CC(Br)=C(N)C(=C1)[N+](=O)[O-]
InChI: InChI=1S/C6H4BrN3O4/c7-4-1-3(9(11)12)2-5(6(4)8)10(13)14/h1-2H,8H2
Instrument: QExactive Orbitrap HF-X (Thermo Scientific)
Instrument type: LC-ESI-QFT
Ms type: MS2
Ion mode: NEGATIVE
Ionization: ESI
Fragmentation mode: HCD
Collision energy: Ramp 20%-70% (nominal)
Resolution: 30000
Column name: Waters; Acquity UPLC BEH C18, 2.1 x 100 mm, 1.7 um, Waters
Retention time: 13.455900
Base peak: 160.95686
Precursor m/z: 218.9623
Ion type: [M-H]-
m/z	relative intensity
50.00346	13.194
68.99841	17.458
78.91896	261.972
120.00941	70.95
199.936	24.293
212.93132	44.076
229.93304	11.516
259.93168	999
