Mass spectrum: 3,3,5,5-Tetrabromobisphenol A; LC-APCI-QFT; MS2; CE: Ramp 20%-70% (nominal); R=30000; [M-H]-
Name: 3,3,5,5-Tetrabromobisphenol A
Name: 2,6-dibromo-4-[2-(3,5-dibromo-4-hydroxyphenyl)propan-2-yl]phenol
Class: Halogenated Polyaromatics; Benzene Derivatives; Biphenyl Compounds; Polybrominated Biphenyls; Bisphenols; Bromobisphenols; Flame retardants
Formula: C15H12Br4O2
Exact mass: 539.7571
SMILES: BrC=1C=C(C=C(Br)C1O)C(C2=CC(Br)=C(O)C(Br)=C2)(C)C
InChI: InChI=1S/C15H12Br4O2/c1-15(2,7-3-9(16)13(20)10(17)4-7)8-5-11(18)14(21)12(19)6-8/h3-6,20-21H,1-2H3
Instrument: QExactive Orbitrap HF-X (Thermo Scientific)
Instrument type: LC-APCI-QFT
Ms type: MS2
Ion mode: NEGATIVE
Ionization: APCI
Fragmentation mode: HCD
Collision energy: Ramp 20%-70% (nominal)
Resolution: 30000
Column name: Waters; Acquity UPLC BEH C18, 2.1 x 100 mm, 1.7 um, Waters
Retention time: 18.832400
Base peak: 78.91890
Precursor m/z: 538.7506
Ion type: [M-H]-
m/z	relative intensity
78.9189	999
80.91692	244
97.41287	23
134.46782	24
210.12175	44
210.13647	218
210.15118	49
271.97409	23
280.56705	23
290.88477	33
320.43054	25
498.87955	28
498.9259	24
538.75098	288
539.75244	52
540.74994	631
