Mass spectrum: Atrazine; LC-APCI-QFT; MS2; CE: Ramp 20%-70% (nominal); R=30000; [M+H]+
Name: Atrazine
Name: 6-chloro-4-N-ethyl-2-N-propan-2-yl-1,3,5-triazine-2,4-diamine
Class: Pesticides; Herbicides; Triazines
Formula: C8H14ClN5
Exact mass: 215.0938
SMILES: ClC=1N=C(N=C(N1)NC(C)C)NCC
InChI: InChI=1S/C8H14ClN5/c1-4-10-7-12-6(9)13-8(14-7)11-5(2)3/h5H,4H2,1-3H3,(H2,10,11,12,13,14)
Instrument: QExactive Orbitrap HF-X (Thermo Scientific)
Instrument type: LC-APCI-QFT
Ms type: MS2
Ion mode: POSITIVE
Ionization: APCI
Fragmentation mode: HCD
Collision energy: Ramp 20%-70% (nominal)
Resolution: 30000
Column name: Waters; Acquity UPLC BEH C18, 2.1 x 100 mm, 1.7 um, Waters
Retention time: 14.264900
Base peak: 198.13460
Precursor m/z: 216.1014
Ion type: [M+H]+
m/z	relative intensity
61.97958	6.102
68.02438	72.115
71.0605	35.829
79.0055	81.826
96.05506	126.809
104.0014	125.912
110.04622	16.771
132.03253	78.189
138.0771	20.777
146.02257	56.256
174.05467	198.23
214.61044	5.768
216.10168	999
