Mass spectrum: Diazinon; LC-APCI-QFT; MS2; CE: Ramp 20%-70% (nominal); R=30000; [M-H]-
Name: Diazinon
Name: Diethoxy-(6-methyl-2-propan-2-ylpyrimidin-4-yl)oxy-sulfanylidene-lambda5-phosphane
Class: Pesticides; Organophosphate Insecticides; Organothiophosphates
Formula: C12H21N2O3PS
Exact mass: 304.1011
SMILES: S=P(OC=1N=C(N=C(C1)C)C(C)C)(OCC)OCC
InChI: InChI=1S/C12H21N2O3PS/c1-6-15-18(19,16-7-2)17-11-8-10(5)13-12(14-11)9(3)4/h8-9H,6-7H2,1-5H3
Instrument: QExactive Orbitrap HF-X (Thermo Scientific)
Instrument type: LC-APCI-QFT
Ms type: MS2
Ion mode: NEGATIVE
Ionization: APCI
Fragmentation mode: HCD
Collision energy: Ramp 20%-70% (nominal)
Resolution: 30000
Column name: Waters; Acquity UPLC BEH C18, 2.1 x 100 mm, 1.7 um, Waters
Retention time: 17.721400
Base peak: 94.93628
Precursor m/z: 303.0941
Ion type: [M-H]-
m/z	relative intensity
62.96417	46
68.02556	10
78.95909	29
94.93628	999
96.93228	25
133.07701	16
140.97795	253
142.97386	9
167.06525	8
169.00978	768
170.01279	20
171.00494	17
186.03062	8
214.02507	22
214.19279	25
215.03401	51
217.0052	14
229.02127	80
275.06265	14
301.10699	8
302.1149	55
303.09314	192
303.11511	11
304.08615	16
304.10037	9
305.08759	9
