Mass spectrum: Melamine; LC-APCI-QFT; MS2; CE: Ramp 20%-70% (nominal); R=30000; [M+H]+
Name: Melamine
Name: 1,3,5-triazine-2,4,6-triamine
Class: Xenobiotic transformation products; Flame retardants; Triazines
Formula: C3H6N6
Exact mass: 126.0654
SMILES: N=1C(=NC(=NC1N)N)N
InChI: InChI=1S/C3H6N6/c4-1-7-2(5)9-3(6)8-1/h(H6,4,5,6,7,8,9)
Instrument: QExactive Orbitrap HF-X (Thermo Scientific)
Instrument type: LC-APCI-QFT
Ms type: MS2
Ion mode: POSITIVE
Ionization: APCI
Fragmentation mode: HCD
Collision energy: Ramp 20%-70% (nominal)
Resolution: 30000
Column name: Waters; Acquity UPLC BEH C18, 2.1 x 100 mm, 1.7 um, Waters
Retention time: 3.252100
Base peak: 163.14798
Precursor m/z: 127.0728
Ion type: [M+H]+
m/z	relative intensity
60.05589	18
68.02451	32
85.05075	395
109.02785	31
110.04617	10
127.03745	15
127.04053	20
127.04936	17
127.073	999
