Mass spectrum: Quinoline; LC-APCI-QFT; MS2; CE: Ramp 20%-70% (nominal); R=30000; [M+H]+
Name: Quinoline
Name: Leucoline
Class: Quinolines
Formula: C9H7N
Exact mass: 129.0578
SMILES: N=1C=CC=C2C=CC=CC12
InChI: InChI=1S/C9H7N/c1-2-6-9-8(4-1)5-3-7-10-9/h1-7H
Instrument: QExactive Orbitrap HF-X (Thermo Scientific)
Instrument type: LC-APCI-QFT
Ms type: MS2
Ion mode: POSITIVE
Ionization: APCI
Fragmentation mode: HCD
Collision energy: Ramp 20%-70% (nominal)
Resolution: 30000
Column name: Waters; Acquity UPLC BEH C18, 2.1 x 100 mm, 1.7 um, Waters
Retention time: 12.019000
Base peak: 249.14937
Precursor m/z: 130.0651
Ion type: [M+H]+
m/z	relative intensity
103.05666	28.473
130.06502	999
