Mass spectrum: Memantine; LC-APCI-QFT; MS2; CE: Ramp 20%-70% (nominal); R=30000; [M+H]+
Name: Memantine
Name: 3,5-dimethyladamantan-1-amine
Class: Pharmaceutical; Alzheimer Disease Agents; Antiparkinsonian Agents; Adamantane; Amantadine
Formula: C12H21N
Exact mass: 179.1674
SMILES: NC12CC3CC(C)(C1)CC(C)(C3)C2
InChI: InChI=1S/C12H21N/c1-10-3-9-4-11(2,6-10)8-12(13,5-9)7-10/h9H,3-8,13H2,1-2H3
Instrument: QExactive Orbitrap HF-X (Thermo Scientific)
Instrument type: LC-APCI-QFT
Ms type: MS2
Ion mode: POSITIVE
Ionization: APCI
Fragmentation mode: HCD
Collision energy: Ramp 20%-70% (nominal)
Resolution: 30000
Column name: Waters; Acquity UPLC BEH C18, 2.1 x 100 mm, 1.7 um, Waters
Retention time: 13.360100
Base peak: 220.13301
Precursor m/z: 180.1747
Ion type: [M+H]+
m/z	relative intensity
69.06995	12
81.06998	18
93.06981	38
95.08542	16
107.08585	397
121.10074	31
135.11598	12
135.11766	13
163.14798	999
180.1743	448
