Mass spectrum: 1-Naphthalenesulfonic acid; LC-ESI-QFT; MS2; CE: Ramp 20%-70% (nominal); R=30000; [M-H]-
Name: 1-Naphthalenesulfonic acid
Name: Naphthalene-1-sulfonic acid
Class: Polycyclic Aromatic Hydrocarbons; Naphthalenes; Naphthalenesulfonates; Organosulfonic acids; Arenesulfonic acids
Formula: C10H8O3S
Exact mass: 208.0194
SMILES: O=S(=O)(O)C1=CC=CC=2C=CC=CC21
InChI: InChI=1S/C10H8O3S/c11-14(12,13)10-7-3-5-8-4-1-2-6-9(8)10/h1-7H,(H,11,12,13)
Instrument: QExactive Orbitrap HF-X (Thermo Scientific)
Instrument type: LC-ESI-QFT
Ms type: MS2
Ion mode: NEGATIVE
Ionization: ESI
Fragmentation mode: HCD
Collision energy: Ramp 20%-70% (nominal)
Resolution: 30000
Column name: Waters; Acquity UPLC BEH C18, 2.1 x 100 mm, 1.7 um, Waters
Retention time: 8.847500
Base peak: 117.04610
Precursor m/z: 117.0461
Ion type: [M-H]-
m/z	relative intensity
79.95752	315
87.00912	19
111.00876	55
143.05017	403
144.05367	39
207.01218	999
208.01521	92
