Mass spectrum: Bis(2-ethylhexyl) phosphate; LC-APCI-QFT; MS2; CE: Ramp 20%-70% (nominal); R=30000; [M-H]-
Name: Bis(2-ethylhexyl) phosphate
Name: Bis(2-ethylhexyl) hydrogen phosphate
Class: Organophosphates; Fragrance Components; Lubricant additives, Corrosion inhibitors
Formula: C16H35O4P
Exact mass: 322.2273
SMILES: O=P(O)(OCC(CC)CCCC)OCC(CC)CCCC
InChI: InChI=1S/C16H35O4P/c1-5-9-11-15(7-3)13-19-21(17,18)20-14-16(8-4)12-10-6-2/h15-16H,5-14H2,1-4H3,(H,17,18)
Instrument: QExactive Orbitrap HF-X (Thermo Scientific)
Instrument type: LC-APCI-QFT
Ms type: MS2
Ion mode: NEGATIVE
Ionization: APCI
Fragmentation mode: HCD
Collision energy: Ramp 20%-70% (nominal)
Resolution: 30000
Column name: Waters; Acquity UPLC BEH C18, 2.1 x 100 mm, 1.7 um, Waters
Retention time: 19.119200
Base peak: 78.95915
Precursor m/z: 321.2201
Ion type: [M-H]-
m/z	relative intensity
78.94635	8
78.95915	999
96.96965	5
209.09535	47
212.30112	9
321.22028	635
322.22379	103
323.22577	7
