Mass spectrum: Atrazine-2-hydroxy; LC-ESI-QFT; MS2; CE: Ramp 20%-70% (nominal); R=30000; [M+H]+
Name: Atrazine-2-hydroxy
Name: 4-(ethylamino)-6-(propan-2-ylamino)-1H-1,3,5-triazin-2-one
Class: Pesticide metabolites; Herbicides; Triazines
Formula: C8H15N5O
Exact mass: 197.1277
SMILES: O=C1N=C(N=C(N1)NC(C)C)NCC
InChI: InChI=1S/C8H15N5O/c1-4-9-6-11-7(10-5(2)3)13-8(14)12-6/h5H,4H2,1-3H3,(H3,9,10,11,12,13,14)
Instrument: QExactive Orbitrap HF-X (Thermo Scientific)
Instrument type: LC-ESI-QFT
Ms type: MS2
Ion mode: POSITIVE
Ionization: ESI
Fragmentation mode: HCD
Collision energy: Ramp 20%-70% (nominal)
Resolution: 30000
Column name: Waters; Acquity UPLC BEH C18, 2.1 x 100 mm, 1.7 um, Waters
Retention time: 11.562500
Base peak: NA
Precursor m/z: NA
Ion type: [M+H]+
m/z	relative intensity
69.00838	70
71.06059	21
86.04182	157
97.043	79
113.08212	5
114.06656	116
128.05705	8
128.08194	9
156.08847	159
198.13458	999
