Mass spectrum: Imidacloprid; LC-ESI-QFT; MS2; CE: Ramp 20%-70% (nominal); R=30000; [M+H]+
Name: Imidacloprid
Name: (NE)-N-[1-[(6-chloropyridin-3-yl)methyl]imidazolidin-2-ylidene]nitramide
Class: Pesticides; Insecticides; Neonicotinoids
Formula: C9H10ClN5O2
Exact mass: 255.0523
SMILES: O=[N+]([O-])N=C1NCCN1CC2=CN=C(Cl)C=C2
InChI: InChI=1S/C9H10ClN5O2/c10-8-2-1-7(5-12-8)6-14-4-3-11-9(14)13-15(16)17/h1-2,5H,3-4,6H2,(H,11,13)
Instrument: QExactive Orbitrap HF-X (Thermo Scientific)
Instrument type: LC-ESI-QFT
Ms type: MS2
Ion mode: POSITIVE
Ionization: ESI
Fragmentation mode: HCD
Collision energy: Ramp 20%-70% (nominal)
Resolution: 30000
Column name: Waters; Acquity UPLC BEH C18, 2.1 x 100 mm, 1.7 um, Waters
Retention time: 9.582100
Base peak: NA
Precursor m/z: NA
Ion type: [M+H]+
m/z	relative intensity
56.04984	36
65.03879	12
84.06233	213
92.04953	23
93.05763	13
99.05588	24
105.04462	11
106.06531	15
107.06094	15
108.04585	11
119.06071	15
126.01082	61
127.01857	11
128.02603	76
131.06035	17
133.06378	34
133.07635	28
134.07164	25
141.02121	27
146.05844	13
146.07172	65
147.06641	77
148.08725	30
158.07187	36
159.0795	45
167.0376	16
173.08232	97
174.09027	108
175.09834	752
181.02748	23
191.09338	15
194.0484	14
208.0508	14
209.05927	999
210.06732	210
212.05943	153
213.5174	17
256.05893	342
