Mass spectrum: Triclocarban; LC-APCI-QFT; MS2; CE: Ramp 20%-70% (nominal); R=30000; [M-H]-
Name: Triclocarban
Name: 1-(4-chlorophenyl)-3-(3,4-dichlorophenyl)urea
Class: Biocides; Disinfectants; Aniline Compounds; Anilides; Carbanilides
Formula: C13H9Cl3N2O
Exact mass: 313.9780
SMILES: O=C(NC1=CC=C(Cl)C=C1)NC2=CC=C(Cl)C(Cl)=C2
InChI: InChI=1S/C13H9Cl3N2O/c14-8-1-3-9(4-2-8)17-13(19)18-10-5-6-11(15)12(16)7-10/h1-7H,(H2,17,18,19)
Instrument: QExactive Orbitrap HF-X (Thermo Scientific)
Instrument type: LC-APCI-QFT
Ms type: MS2
Ion mode: NEGATIVE
Ionization: APCI
Fragmentation mode: HCD
Collision energy: Ramp 20%-70% (nominal)
Resolution: 30000
Column name: Waters; Acquity UPLC BEH C18, 2.1 x 100 mm, 1.7 um, Waters
Retention time: 18.581000
Base peak: 159.97249
Precursor m/z: 312.9713
Ion type: [M-H]-
m/z	relative intensity
65.99866	10.785
92.05067	25.524
94.0294	28.828
94.03062	24.763
94.93626	7.911
122.02428	90.524
122.02573	84.615
123.03287	48.7
123.996	7.31
126.01154	806.623
128.00896	9.165
155.02292	21.07
159.9353	6.934
159.97249	999
160.97601	34.659
161.96965	208.517
183.01189	6.874
212.45911	11.954
279.00952	816.775
311.16928	11.835
311.29602	7.388
312.97198	14.876
314.98685	39.219
