Mass spectrum: Sulfamethoxazole; LC-APCI-QFT; MS2; CE: Ramp 20%-70% (nominal); R=30000; [M+H]+
Name: Sulfamethoxazole
Name: 4-amino-N-(5-methyl-1,2-oxazol-3-yl)benzenesulfonamide
Class: Drugs; Antiinfective Agents; Amines; Aniline Compounds; Sulfanilamides
Formula: C10H11N3O3S
Exact mass: 253.0521
SMILES: O=S(=O)(NC1=NOC(=C1)C)C2=CC=C(N)C=C2
InChI: InChI=1S/C10H11N3O3S/c1-7-6-10(12-16-7)13-17(14,15)9-4-2-8(11)3-5-9/h2-6H,11H2,1H3,(H,12,13)
Instrument: QExactive Orbitrap HF-X (Thermo Scientific)
Instrument type: LC-APCI-QFT
Ms type: MS2
Ion mode: POSITIVE
Ionization: APCI
Fragmentation mode: HCD
Collision energy: Ramp 20%-70% (nominal)
Resolution: 30000
Column name: Waters; Acquity UPLC BEH C18, 2.1 x 100 mm, 1.7 um, Waters
Retention time: 8.517400
Base peak: 314.98663
Precursor m/z: 254.0596
Ion type: [M+H]+
m/z	relative intensity
65.0387	127.204
68.04956	43.069
80.04954	37.326
92.04976	316.049
93.05757	129.202
94.06506	10.825
99.05532	69.065
108.04457	372.851
110.06004	40.442
146.07159	20.985
147.07945	57.487
148.08737	13.768
156.01146	365.761
160.08714	25.077
188.08188	87.225
190.09738	37.81
194.03842	14.845
254.05948	999
