Mass spectrum: Perfluoropentanoic acid; LC-ESI-QFT; MS2; CE:40; R=30000; [M-H]-
Name: Perfluoropentanoic acid
Name: 2,2,3,3,4,4,5,5,5-nonafluoropentanoic acid
Class: Perfluoroalkyl Acids; Carboxylic acid; Valerates; Fluoroalkanoic acid; PFAS
Formula: C5HF9O2
Exact mass: 263.9833
SMILES: O=C(O)C(F)(F)C(F)(F)C(F)(F)C(F)(F)F
InChI: InChI=1S/C5HF9O2/c6-2(7,1(15)16)3(8,9)4(10,11)5(12,13)14/h(H,15,16)
Instrument: QExactive Orbitrap HF-X (Thermo Scientific)
Instrument type: LC-ESI-QFT
Ms type: MS2
Ion mode: NEGATIVE
Ionization: ESI
Collision energy: 40
Column name: Acquity UPLC BEH C18, 3.0 x 100 mm, 1.7 um, Waters
Ion type: [M-H]-
m/z	relative intensity
61.98822	89.354
68.99587	218.039
76.9702	80.67
79.95732	72.859
123.00867	24.607
136.93668	70.863
153.00717	60.02
154.94754	95.339
176.92926	23.806
183.00481	119.134
196.90401	21.045
213.0549	144.796
214.9137	30.454
215.23181	58.726
217.00378	34.623
218.9854	999
255.23225	279.318
256.2355	44.921
