Mass spectrum: Diazinon; LC-ESI-QFT; MS2; CE: Ramp 20%-70% (nominal); R=30000; [M+H]+
Name: Diazinon
Name: Diethoxy-(6-methyl-2-propan-2-ylpyrimidin-4-yl)oxy-sulfanylidene-lambda5-phosphane
Class: Pesticides; Organophosphate Insecticides; Organothiophosphates
Formula: C12H21N2O3PS
Exact mass: 304.1011
SMILES: S=P(OC=1N=C(N=C(C1)C)C(C)C)(OCC)OCC
InChI: InChI=1S/C12H21N2O3PS/c1-6-15-18(19,16-7-2)17-11-8-10(5)13-12(14-11)9(3)4/h8-9H,6-7H2,1-5H3
Instrument: QExactive Orbitrap HF-X (Thermo Scientific)
Instrument type: LC-ESI-QFT
Ms type: MS2
Ion mode: POSITIVE
Ionization: ESI
Fragmentation mode: HCD
Collision energy: Ramp 20%-70% (nominal)
Resolution: 30000
Column name: Waters; Acquity UPLC BEH C18, 2.1 x 100 mm, 1.7 um, Waters
Retention time: 17.753900
Base peak: NA
Precursor m/z: NA
Ion type: [M+H]+
m/z	relative intensity
70.06517	53.01
84.04412	96.684
96.95072	97.729
98.98403	20.788
100.02198	170.379
109.00482	18.026
114.96138	196.741
153.1026	224.033
169.0797	443.309
277.07681	9.433
305.1084	999
