Mass spectrum: Oxybenzone; LC-ESI-QFT; MS2; CE: Ramp 20%-70% (nominal); R=30000; [M-H]-
Name: Oxybenzone
Name: (2-hydroxy-4-methoxyphenyl)-phenylmethanone
Class: Personnal Care Products; Sunscreens Agents; Cosmetics
Formula: C14H12O3
Exact mass: 228.0786
SMILES: O=C(C=1C=CC=CC1)C2=CC=C(OC)C=C2O
InChI: InChI=1S/C14H12O3/c1-17-11-7-8-12(13(15)9-11)14(16)10-5-3-2-4-6-10/h2-9,15H,1H3
Instrument: QExactive Orbitrap HF-X (Thermo Scientific)
Instrument type: LC-ESI-QFT
Ms type: MS2
Ion mode: NEGATIVE
Ionization: ESI
Fragmentation mode: HCD
Collision energy: Ramp 20%-70% (nominal)
Resolution: 30000
Column name: Waters; Acquity UPLC BEH C18, 2.1 x 100 mm, 1.7 um, Waters
Retention time: 17.072100
Base peak: 227.07177
Precursor m/z: 227.0718
Ion type: [M-H]-
m/z	relative intensity
167.05077	11.587
183.04578	19.03
184.05347	29.976
211.04095	873.322
212.04874	35.363
227.07177	999
