Mass spectrum: Octocrylene; LC-APCI-QFT; MS2; CE: Ramp 20%-70% (nominal); R=30000; [M+H]+
Name: Octocrylene
Name: 2-ethylhexyl 2-cyano-3,3-diphenylprop-2-enoate
Class: Acrylates; Personnal Care Products; Sunscreens Agents; UV Stabilizers
Formula: C24H27NO2
Exact mass: 361.2042
SMILES: CCCCC(CC)COC(=O)C(=C(C1=CC=CC=C1)C2=CC=CC=C2)C#N
InChI: InChI=1S/C24H27NO2/c1-3-5-12-19(4-2)18-27-24(26)22(17-25)23(20-13-8-6-9-14-20)21-15-10-7-11-16-21/h6-11,13-16,19H,3-5,12,18H2,1-2H3
Instrument: QExactive Orbitrap HF-X (Thermo Scientific)
Instrument type: LC-APCI-QFT
Ms type: MS2
Ion mode: POSITIVE
Ionization: APCI
Fragmentation mode: HCD
Collision energy: Ramp 20%-70% (nominal)
Resolution: 30000
Column name: Waters; Acquity UPLC BEH C18, 2.1 x 100 mm, 1.7 um, Waters
Retention time: 20.252200
Base peak: 229.08647
Precursor m/z: 362.2113
Ion type: [M+H]+
m/z	relative intensity
51.80074	18
57.07016	52
69.01421	18
71.08562	53
95.04911	23
104.04973	23
105.03353	138
116.94281	19
150.32619	21
167.48962	23
176.06221	91
177.0704	110
178.07771	59
201.1869	20
203.07317	195
204.08044	315
214.53098	33
214.54446	59
232.07539	391
250.08711	999
259.13504	22
