Mass spectrum: Thiamethoxam; LC-ESI-QFT; MS2; CE: Ramp 20%-70% (nominal); R=30000; [M-H]-
Name: Thiamethoxam
Name: N-[3-[(2-chloro-1,3-thiazol-5-yl)methyl]-5-methyl-1,3,5-oxadiazinan-4-ylidene]nitramide
Class: Pesticides; Insecticides; Neonicotinoids
Formula: C8H10ClN5O3S
Exact mass: 291.0193
SMILES: O=[N+]([O-])N=C1N(C)COCN1CC=2SC(Cl)=NC2
InChI: InChI=1S/C8H10ClN5O3S/c1-12-4-17-5-13(8(12)11-14(15)16)3-6-2-10-7(9)18-6/h2H,3-5H2,1H3
Instrument: QExactive Orbitrap HF-X (Thermo Scientific)
Instrument type: LC-ESI-QFT
Ms type: MS2
Ion mode: NEGATIVE
Ionization: ESI
Fragmentation mode: HCD
Collision energy: Ramp 20%-70% (nominal)
Resolution: 30000
Column name: Waters; Acquity UPLC BEH C18, 2.1 x 100 mm, 1.7 um, Waters
Retention time: 8.427700
Base peak: 290.04608
Precursor m/z: 290.0125
Ion type: [M-H]-
m/z	relative intensity
57.97562	654
65.99872	51
79.03047	17
97.04109	40
122.03645	23
141.03105	29
169.06123	63
169.063	63
185.99883	25
212.91298	17
290.01291	699
290.04608	999
