Mass spectrum: Dehydrocostus lactone; LC-ESI-QFT; MS2; CE: Ramp 20%-70% (nominal); R=30000; [M+H]+
Name: Dehydrocostus lactone
Name: (3aS,6aR,9aR,9bS)-3,6,9-trimethylidene-3a,4,5,6a,7,8,9a,9b-octahydroazuleno[4,5-b]furan-2-one
Class: Terpenes; Sesquiterpenes
Formula: C15H18O2
Exact mass: 230.1307
SMILES: C=C1CC[C@@H]2[C@@H]([C@@H]3[C@H]1CCC3=C)OC(=O)C2=C
InChI: InChI=1S/C15H18O2/c1-8-4-7-12-10(3)15(16)17-14(12)13-9(2)5-6-11(8)13/h11-14H,1-7H2/t11-,12-,13-,14-/m0/s1
Instrument: QExactive Orbitrap HF-X (Thermo Scientific)
Instrument type: LC-ESI-QFT
Ms type: MS2
Ion mode: POSITIVE
Ionization: ESI
Fragmentation mode: HCD
Collision energy: Ramp 20%-70% (nominal)
Resolution: 30000
Column name: Waters; Acquity UPLC BEH C18, 2.1 x 100 mm, 1.7 um, Waters
Retention time: 17.281900
Base peak: NA
Precursor m/z: NA
Ion type: [M+H]+
m/z	relative intensity
55.0545	30
67.05414	22
79.05881	51
81.07719	94
91.05443	130
93.07413	48
95.08957	31
103.05669	21
105.0702	158
107.08629	23
115.05429	23
117.06985	70
119.08527	77
128.06158	116
129.0697	160
130.07761	34
131.08549	180
141.06996	30
142.07732	67
143.08539	212
144.09308	22
145.10114	129
147.07979	27
151.07471	25
155.08549	75
156.0932	32
157.06424	69
157.10123	110
159.11638	67
165.06995	43
170.10864	21
171.08018	44
175.075	75
180.09361	24
185.13254	605
187.14777	85
189.09134	39
195.11678	198
203.14304	33
213.12769	175
231.1373	999
