Mass spectrum: Chrysoidine G; LC-APCI-QFT; MS2; CE: Ramp 20%-70% (nominal); R=30000; [M-H]-
Name: Chrysoidine G
Name: 4-phenyldiazenylbenzene-1,3-diamine
Class: Azo Dyes; Aniline Compounds
Formula: C12H12N4
Exact mass: 212.1062
SMILES: N(=NC1=CC=C(N)C=C1N)C=2C=CC=CC2
InChI: InChI=1S/C12H12N4/c13-9-6-7-12(11(14)8-9)16-15-10-4-2-1-3-5-10/h1-8H,13-14H2
Instrument: QExactive Orbitrap HF-X (Thermo Scientific)
Instrument type: LC-APCI-QFT
Ms type: MS2
Ion mode: NEGATIVE
Ionization: APCI
Fragmentation mode: HCD
Collision energy: Ramp 20%-70% (nominal)
Resolution: 30000
Column name: Waters; Acquity UPLC BEH C18, 2.1 x 100 mm, 1.7 um, Waters
Retention time: 14.350100
Base peak: 211.09959
Precursor m/z: 211.0990
Ion type: [M-H]-
m/z	relative intensity
65.01463	9
69.04602	10
78.91884	7
83.06157	14
91.03009	7
92.05121	13
93.03407	33
104.03838	210
105.04161	11
105.04581	16
106.05385	61
118.04114	5
133.0522	61
142.06671	7
143.99657	6
169.06628	8
194.07234	12
209.0592	8
209.08356	7
209.15416	8
209.98787	8
210.05608	13
210.09163	9
210.13699	26
211.07985	6
211.09959	999
211.13252	19
211.17041	12
212.10242	130
212.9305	7
213.05479	16
213.0573	15
213.14828	9
213.1842	20
214.96112	10
