Mass spectrum: 2,4-Dinitroaniline; LC-ESI-QFT; MS2; CE: Ramp 20%-70% (nominal); R=30000; [M-H]-
Name: 2,4-Dinitroaniline
Name: 1-Amino-2,4-Dinitrobenzene
Class: Aromatic Amines; Aniline Compounds
Formula: C6H5N3O4
Exact mass: 183.0280
SMILES: O=[N+]([O-])C1=CC=C(N)C(=C1)[N+](=O)[O-]
InChI: InChI=1S/C6H5N3O4/c7-5-2-1-4(8(10)11)3-6(5)9(12)13/h1-3H,7H2
Instrument: QExactive Orbitrap HF-X (Thermo Scientific)
Instrument type: LC-ESI-QFT
Ms type: MS2
Ion mode: NEGATIVE
Ionization: ESI
Fragmentation mode: HCD
Collision energy: Ramp 20%-70% (nominal)
Resolution: 30000
Column name: Waters; Acquity UPLC BEH C18, 2.1 x 100 mm, 1.7 um, Waters
Retention time: 10.951100
Base peak: 207.01207
Precursor m/z: 207.0121
Ion type: [M-H]-
m/z	relative intensity
89.01472	11.428
105.02242	11.234
122.02513	154.426
135.0201	19.673
139.01514	10.142
152.0229	38.312
182.02126	999
