Mass spectrum: 2,4-Dinitroaniline; LC-APCI-QFT; MS2; CE: Ramp 20%-70% (nominal); R=30000; [M-H]-
Name: 2,4-Dinitroaniline
Name: 1-Amino-2,4-Dinitrobenzene
Class: Aromatic Amines; Aniline Compounds
Formula: C6H5N3O4
Exact mass: 183.0280
SMILES: O=[N+]([O-])C1=CC=C(N)C(=C1)[N+](=O)[O-]
InChI: InChI=1S/C6H5N3O4/c7-5-2-1-4(8(10)11)3-6(5)9(12)13/h1-3H,7H2
Instrument: QExactive Orbitrap HF-X (Thermo Scientific)
Instrument type: LC-APCI-QFT
Ms type: MS2
Ion mode: NEGATIVE
Ionization: APCI
Fragmentation mode: HCD
Collision energy: Ramp 20%-70% (nominal)
Resolution: 30000
Column name: Waters; Acquity UPLC BEH C18, 2.1 x 100 mm, 1.7 um, Waters
Retention time: 10.951000
Base peak: 182.02065
Precursor m/z: 182.0210
Ion type: [M-H]-
m/z	relative intensity
50.00345	6.169
57.03467	5.503
64.01944	8.076
65.0146	5.898
65.99866	6.222
76.01945	7.926
89.01466	12.368
100.96715	15.912
105.02219	18.178
117.00966	7.707
122.02411	145.807
122.02573	148.742
123.02756	9.277
123.02921	9.338
135.02016	26.883
139.01498	17.501
152.02322	74.874
153.02641	5.907
160.93439	32.609
165.01779	9.342
180.03362	10.269
180.94072	8.546
180.98906	9.038
181.0858	5.293
182.02065	999
183.0242	58.194
183.09998	6.446
184.02435	5.657
