Mass spectrum: Perfluorooctanesulfonic acid; LC-ESI-QFT; MS2; CE:40; R=30000; [M-H]-
Name: Perfluorooctanesulfonic acid
Name: 1,1,2,2,3,3,4,4,5,5,6,6,7,7,8,8,8-heptadecafluorooctane-1-sulfonic acid
Class: Perfluoroalkyl Acids; Organosulfonic acid; PFAS
Formula: C8HF17O3S
Exact mass: 499.9375
SMILES: C(C(C(C(C(F)(F)S(=O)(=O)O)(F)F)(F)F)(F)F)(C(C(C(F)(F)F)(F)F)(F)F)(F)F
InChI: InChI=1S/C8HF17O3S/c9-1(10,3(13,14)5(17,18)7(21,22)23)2(11,12)4(15,16)6(19,20)8(24,25)29(26,27)28/h(H,26,27,28)
Instrument: QExactive Orbitrap HF-X (Thermo Scientific)
Instrument type: LC-ESI-QFT
Ms type: MS2
Ion mode: NEGATIVE
Ionization: ESI
Collision energy: 40
Column name: Acquity UPLC BEH C18, 3.0 x 100 mm, 1.7 um, Waters
Ion type: [M-H]-
m/z	relative intensity
79.95731	452.565
98.95609	158.074
168.98935	528.215
171.99934	99.005
218.98679	580.995
219.98877	23.899
223.00023	102.772
268.98355	97.917
269.98566	26.733
272.99689	22.888
307.18784	33.487
313.23795	63.864
330.97919	22.692
418.97366	237.258
422.98859	105.358
498.92871	999
