Mass spectrum: Metalaxyl; LC-APCI-QFT; MS2; CE: Ramp 20%-70% (nominal); R=30000; [M+H]+
Name: Metalaxyl
Name: Methyl 2-(N-(2-methoxyacetyl)-2,6-dimethylanilino)propanoate
Class: Pesticides; Fungicides; Carboxamides
Formula: C15H21NO4
Exact mass: 279.1471
SMILES: O=C(OC)C(N(C(=O)COC)C=1C(=CC=CC1C)C)C
InChI: InChI=1S/C15H21NO4/c1-10-7-6-8-11(2)14(10)16(13(17)9-19-4)12(3)15(18)20-5/h6-8,12H,9H2,1-5H3
Instrument: QExactive Orbitrap HF-X (Thermo Scientific)
Instrument type: LC-APCI-QFT
Ms type: MS2
Ion mode: POSITIVE
Ionization: APCI
Fragmentation mode: HCD
Collision energy: Ramp 20%-70% (nominal)
Resolution: 30000
Column name: Waters; Acquity UPLC BEH C18, 2.1 x 100 mm, 1.7 um, Waters
Retention time: 14.769400
Base peak: 60.05592
Precursor m/z: 280.1546
Ion type: [M+H]+
m/z	relative intensity
105.06983	23.318
118.06554	11.442
119.086	7.533
121.08864	8.23
130.06509	17.673
131.07344	12.616
132.07562	5.689
132.08072	70.388
133.08871	47.103
134.09665	79.272
144.08104	12.094
145.08896	95.514
146.09636	23.91
147.10448	5.412
148.11241	78.156
150.09198	9.434
160.1123	213.738
162.12794	51.659
164.10651	5.446
165.11552	9.788
192.13852	181.364
212.99249	6.886
213.00584	13.471
220.13301	999
248.12845	456.979
252.15759	5.12
280.15414	221.018
