Mass spectrum: Dehydrocostus lactone; LC-APCI-QFT; MS2; CE: Ramp 20%-70% (nominal); R=30000; [M-H]-
Name: Dehydrocostus lactone
Name: (3aS,6aR,9aR,9bS)-3,6,9-trimethylidene-3a,4,5,6a,7,8,9a,9b-octahydroazuleno[4,5-b]furan-2-one
Class: Terpenes; Sesquiterpenes
Formula: C15H18O2
Exact mass: 230.1307
SMILES: C=C1CC[C@@H]2[C@@H]([C@@H]3[C@H]1CCC3=C)OC(=O)C2=C
InChI: InChI=1S/C15H18O2/c1-8-4-7-12-10(3)15(16)17-14(12)13-9(2)5-6-11(8)13/h11-14H,1-7H2/t11-,12-,13-,14-/m0/s1
Instrument: QExactive Orbitrap HF-X (Thermo Scientific)
Instrument type: LC-APCI-QFT
Ms type: MS2
Ion mode: NEGATIVE
Ionization: APCI
Fragmentation mode: HCD
Collision energy: Ramp 20%-70% (nominal)
Resolution: 30000
Column name: Waters; Acquity UPLC BEH C18, 2.1 x 100 mm, 1.7 um, Waters
Retention time: 17.239500
Base peak: 211.03975
Precursor m/z: 229.1233
Ion type: [M-H]-
m/z	relative intensity
91.01933	15
105.07118	14
121.03076	10
123.04626	12
161.06241	9
164.90752	9
167.05025	22
168.05367	13
169.02959	6
182.03781	14
183.04416	27
183.04649	32
184.05286	29
185.05673	11
185.13377	51
185.95174	8
186.13696	9
192.90211	157
193.90543	7
194.89905	98
194.91805	6
200.02769	10
210.03221	16
211.03975	999
211.11217	21
212.04379	551
213.04543	34
214.35493	7
214.36841	8
227.07138	863
227.0856	5
227.10628	13
227.19998	29
227.20412	28
228.022	20
228.07513	485
228.20692	7
228.87822	293
228.89262	8
229.07721	47
229.12328	305
229.1591	7
229.88278	14
230.01939	6
230.03813	8
230.12663	53
230.87561	318
230.98532	10
231.00981	36
231.17528	53
