Mass spectrum: Imidacloprid; LC-APCI-QFT; MS2; CE: Ramp 20%-70% (nominal); R=30000; [M+H]+
Name: Imidacloprid
Name: (NE)-N-[1-[(6-chloropyridin-3-yl)methyl]imidazolidin-2-ylidene]nitramide
Class: Pesticides; Insecticides; Neonicotinoids
Formula: C9H10ClN5O2
Exact mass: 255.0523
SMILES: O=[N+]([O-])N=C1NCCN1CC2=CN=C(Cl)C=C2
InChI: InChI=1S/C9H10ClN5O2/c10-8-2-1-7(5-12-8)6-14-4-3-11-9(14)13-15(16)17/h1-2,5H,3-4,6H2,(H,11,13)
Instrument: QExactive Orbitrap HF-X (Thermo Scientific)
Instrument type: LC-APCI-QFT
Ms type: MS2
Ion mode: POSITIVE
Ionization: APCI
Fragmentation mode: HCD
Collision energy: Ramp 20%-70% (nominal)
Resolution: 30000
Column name: Waters; Acquity UPLC BEH C18, 2.1 x 100 mm, 1.7 um, Waters
Retention time: 9.568900
Base peak: 207.09183
Precursor m/z: 256.0594
Ion type: [M+H]+
m/z	relative intensity
56.04971	33
84.05533	207
92.04982	17
99.05549	22
106.06533	15
107.06049	20
119.0609	11
126.01083	55
128.02605	82
131.06056	13
133.06381	25
133.07617	24
134.07146	25
141.02124	30
146.05847	12
146.07175	68
147.06619	72
148.08728	32
151.01822	12
158.07164	34
159.07954	46
167.03764	21
173.08237	91
174.09032	132
175.09839	831
181.02753	32
191.09309	17
194.04846	12
208.05167	17
209.05893	999
210.0674	240
212.05908	183
213.52417	12
256.05905	419
