Mass spectrum: Salbutamol; LC-ESI-QFT; MS2; CE: Ramp 20%-70% (nominal); R=30000; [M-H]-
Name: Salbutamol
Name: Albuterol
Class: Drugs; Amines; Ethylamines; Phenethylamines
Formula: C13H21NO3
Exact mass: 239.1521
SMILES: OC1=CC=C(C=C1CO)C(O)CNC(C)(C)C
InChI: InChI=1S/C13H21NO3/c1-13(2,3)14-7-12(17)9-4-5-11(16)10(6-9)8-15/h4-6,12,14-17H,7-8H2,1-3H3
Instrument: QExactive Orbitrap HF-X (Thermo Scientific)
Instrument type: LC-ESI-QFT
Ms type: MS2
Ion mode: NEGATIVE
Ionization: ESI
Fragmentation mode: HCD
Collision energy: Ramp 20%-70% (nominal)
Resolution: 30000
Column name: Waters; Acquity UPLC BEH C18, 2.1 x 100 mm, 1.7 um, Waters
Retention time: 7.053200
Base peak: 238.14488
Precursor m/z: 238.1451
Ion type: [M-H]-
m/z	relative intensity
106.04253	162
134.03766	65
136.05325	23
161.04825	33
163.06454	104
190.12386	259
218.11905	169
220.1351	532
238.14488	999
