Mass spectrum: Daidzein; LC-ESI-QFT; MS2; CE: Ramp 20%-70% (nominal); R=30000; [M-H]-
Name: Daidzein
Name: 7-hydroxy-3-(4-hydroxyphenyl)chromen-4-one
Class: Phytoestrogens; Benzopyrans; Chromones; Flavonoids; Isoflavones
Formula: C15H10O4
Exact mass: 254.0579
SMILES: O=C1C(=COC2=CC(O)=CC=C12)C=3C=CC(O)=CC3
InChI: InChI=1S/C15H10O4/c16-10-3-1-9(2-4-10)13-8-19-14-7-11(17)5-6-12(14)15(13)18/h1-8,16-17H
Instrument: QExactive Orbitrap HF-X (Thermo Scientific)
Instrument type: LC-ESI-QFT
Ms type: MS2
Ion mode: NEGATIVE
Ionization: ESI
Fragmentation mode: HCD
Collision energy: Ramp 20%-70% (nominal)
Resolution: 30000
Column name: Waters; Acquity UPLC BEH C18, 2.1 x 100 mm, 1.7 um, Waters
Retention time: 12.806100
Base peak: 253.05063
Precursor m/z: 253.0506
Ion type: [M-H]-
m/z	relative intensity
91.01915	26.753
132.02223	16.323
133.02962	31.199
135.00897	23.325
180.05792	12.643
196.0531	14.945
208.05354	35.012
209.06065	21.947
223.0405	34.83
224.04868	38.952
253.05063	999
