Mass spectrum: Octocrylene; LC-ESI-QFT; MS2; CE: Ramp 20%-70% (nominal); R=30000; [M+H]+
Name: Octocrylene
Name: 2-ethylhexyl 2-cyano-3,3-diphenylprop-2-enoate
Class: Acrylates; Personnal Care Products; Sunscreens Agents; UV Stabilizers
Formula: C24H27NO2
Exact mass: 361.2042
SMILES: N
InChI: InChI=1S/C24H27NO2/c1-3-5-12-19(4-2)18-27-24(26)22(17-25)23(20-13-8-6-9-14-20)21-15-10-7-11-16-21/h6-11,13-16,19H,3-5,12,18H2,1-2H3
Instrument: QExactive Orbitrap HF-X (Thermo Scientific)
Instrument type: LC-ESI-QFT
Ms type: MS2
Ion mode: POSITIVE
Ionization: ESI
Fragmentation mode: HCD
Collision energy: Ramp 20%-70% (nominal)
Resolution: 30000
Column name: Waters; Acquity UPLC BEH C18, 2.1 x 100 mm, 1.7 um, Waters
Retention time: 20.253700
Base peak: NA
Precursor m/z: NA
Ion type: [M+H]+
m/z	relative intensity
53.03899	25.345
57.07016	42.506
71.0856	49.338
95.04959	21.008
104.0497	37.718
105.03376	208.674
129.03366	16.798
176.06244	111.246
177.07033	179.413
178.07764	46.724
203.07306	229.336
204.08072	306.723
205.07619	27.858
232.07526	456.998
250.08694	999
