Mass spectrum: Chrysoidine G; LC-ESI-QFT; MS2; CE: Ramp 20%-70% (nominal); R=30000; [M+H]+
Name: Chrysoidine G
Name: 4-phenyldiazenylbenzene-1,3-diamine
Class: Azo Dyes; Aniline Compounds
Formula: C12H13ClN4
Exact mass: 212.1062
SMILES: N(=NC1=CC=C(N)C=C1N)C=2C=CC=CC2
InChI: InChI=1S/C12H12N4.ClH/c13-9-6-7-12(11(14)8-9)16-15-10-4-2-1-3-5-10
Instrument: QExactive Orbitrap HF-X (Thermo Scientific)
Instrument type: LC-ESI-QFT
Ms type: MS2
Ion mode: POSITIVE
Ionization: ESI
Fragmentation mode: HCD
Collision energy: Ramp 20%-70% (nominal)
Resolution: 30000
Column name: Waters; Acquity UPLC BEH C18, 2.1 x 100 mm, 1.7 um, Waters
Retention time: 14.431100
Base peak: NA
Precursor m/z: NA
Ion type: [M+H]+
m/z	relative intensity
51.02333	11.048
53.03896	79.162
77.04088	18.548
80.05446	10.567
93.06163	51.888
94.05701	134.724
94.06914	13.027
95.05365	69.5
95.06459	18.037
105.04581	57.203
107.06149	15.227
108.06938	34.221
120.056	108.821
121.06363	249.625
196.08759	20.148
213.11319	999
