Mass spectrum: 2,4-Dinitrophenol; LC-ESI-QFT; MS2; CE:40; R=30000; [M-H]-
Name: 2,4-Dinitrophenol
Name: alpha-Dinitrophenol
Class: Benzene Derivatives; Phenols; Nitrophenols; Dinitrophenols
Formula: C6H4N2O5
Exact mass: 184.0120
SMILES: Oc1ccc(cc1N(=O)=O)N(=O)=O
InChI: InChI=1S/C6H4N2O5/c9-6-2-1-4(7(10)11)3-5(6)8(12)13/h1-3,9H
Instrument: QExactive Orbitrap HF-X (Thermo Scientific)
Instrument type: LC-ESI-QFT
Ms type: MS2
Ion mode: NEGATIVE
Ionization: ESI
Fragmentation mode: HCD
Collision energy: 40
Resolution: 30000
Column name: Acquity UPLC BEH C18, 3.0 x 100 mm, 1.7 um, Waters
Retention time:  8.780350
Base peak: 183.00467
Precursor m/z: 183.0050
Ion type: [M-H]-
m/z	relative intensity
59.01379	119
59.96718	107
61.98832	18
67.01904	26
68.99815	17
69.03477	14
75.96223	69
76.97005	399
77.96951	18
79.01883	23
94.98076	17
95.01409	172
109.01685	47
111.01996	24
123.00861	517
124.01204	34
125.01207	31
136.93642	22
137.01224	115
153.00699	490
154.01036	30
154.94737	787
155.94708	74
156.94391	50
168.96381	24
183.00467	999
