Mass spectrum: Rupestonic acid; LC-APCI-QFT; MS2; CE: Ramp 20%-70% (nominal); R=30000; [M-H]-
Name: Rupestonic acid
Name: Pechueloic Acid
Class: Natural Products; Terpenes; Sesquiterpenes
Formula: C15H20O3
Exact mass: 248.1412
SMILES: C[C@H]1CC[C@H](CC2=C(C(=O)C[C@@H]12)C)C(=C)C(=O)O
InChI: InChI=1S/C15H20O3/c1-8-4-5-11(9(2)15(17)18)6-13-10(3)14(16)7-12(8)13/h8,11-12H,2,4-7H2,1,3H3,(H,17,18)/t8-,11+,12-/m0/s1
Instrument: QExactive Orbitrap HF-X (Thermo Scientific)
Instrument type: LC-APCI-QFT
Ms type: MS2
Ion mode: NEGATIVE
Ionization: APCI
Fragmentation mode: HCD
Collision energy: Ramp 20%-70% (nominal)
Resolution: 30000
Column name: Waters; Acquity UPLC BEH C18, 2.1 x 100 mm, 1.7 um, Waters
Retention time: 12.362400
Base peak: 249.03270
Precursor m/z: 247.1339
Ion type: [M-H]-
m/z	relative intensity
65.03995	13
78.95911	39
91.04314	10
92.02548	15
93.0343	709
93.03516	631
94.04144	11
107.03783	46
109.06537	11
119.04942	11
121.06529	10
135.0809	22
149.09738	13
154.99066	43
155.00516	38
161.0979	18
163.11288	14
175.11382	8
180.94086	11
183.0928	9
185.08455	34
188.12103	13
201.12866	17
203.14467	173
204.14761	23
213.87584	23
228.93929	19
235.16986	8
245.11819	41
245.15475	11
245.91882	78
245.9333	13
246.12231	11
246.16222	57
247.05444	130
247.07632	10
247.09978	25
247.13419	256
247.17015	172
247.20718	20
248.05844	17
248.13814	36
248.17487	27
249.0327	999
249.04536	88
249.11499	15
249.14981	26
249.18675	10
