Mass spectrum: Chlorantraniliprole; LC-ESI-QFT; MS2; CE: Ramp 20%-70% (nominal); R=30000; [M+H]+
Name: Chlorantraniliprole
Name: 5-bromo-N-[4-chloro-2-methyl-6-(methylcarbamoyl)phenyl]-2-(3-chloropyridin-2-yl)pyrazole-3-carboxamide
Class: Pesticides; Insecticides; Aminobenzoates
Formula: C18H14BrCl2N5O2
Exact mass: 480.9708
SMILES: O=C(NC=1C(=CC(Cl)=CC1C)C(=O)NC)C2=CC(Br)=NN2C3=NC=CC=C3Cl
InChI: InChI=1S/C18H14BrCl2N5O2/c1-9-6-10(20)7-11(17(27)22-2)15(9)24-18(28)13-8-14(19)25-26(13)16-12(21)4-3-5-23-16/h3-8H,1-2H3,(H,22,27)(H,24,28)
Instrument: QExactive Orbitrap HF-X (Thermo Scientific)
Instrument type: LC-ESI-QFT
Ms type: MS2
Ion mode: POSITIVE
Ionization: ESI
Fragmentation mode: HCD
Collision energy: Ramp 20%-70% (nominal)
Resolution: 30000
Column name: Waters; Acquity UPLC BEH C18, 2.1 x 100 mm, 1.7 um, Waters
Retention time: 15.365400
Base peak: NA
Precursor m/z: NA
Ion type: [M+H]+
m/z	relative intensity
76.02055	21
111.99507	121
130.0054	698
130.04022	28
138.01083	162
172.93454	23
177.00941	459
194.00058	102
195.01996	66
197.01094	25
205.00423	50
210.55569	23
244.04007	15
283.92233	999
301.93198	22
450.9379	904
