Mass spectrum: Malathion; LC-APCI-QFT; MS2; CE: Ramp 20%-70% (nominal); R=30000; [M+H]+
Name: Malathion
Name: Diethyl 2-dimethoxyphosphinothioylsulfanylbutanedioate
Class: Pesticides; Organophosphate Insecticides; Organothiophosphates
Formula: C10H19O6PS2
Exact mass: 330.0361
SMILES: O=C(OCC)CC(SP(=S)(OC)OC)C(=O)OCC
InChI: InChI=1S/C10H19O6PS2/c1-5-15-9(11)7-8(10(12)16-6-2)19-17(18,13-3)14-4/h8H,5-7H2,1-4H3
Instrument: QExactive Orbitrap HF-X (Thermo Scientific)
Instrument type: LC-APCI-QFT
Ms type: MS2
Ion mode: POSITIVE
Ionization: APCI
Fragmentation mode: HCD
Collision energy: Ramp 20%-70% (nominal)
Resolution: 30000
Column name: Waters; Acquity UPLC BEH C18, 2.1 x 100 mm, 1.7 um, Waters
Retention time: 16.207600
Base peak: 127.07300
Precursor m/z: 331.0432
Ion type: [M+H]+
m/z	relative intensity
71.01292	69
113.02348	13
114.98502	15
124.98224	122
127.0392	999
128.97676	13
142.99274	177
143.01637	15
146.99352	12
158.9698	16
174.99092	25
174.99373	22
176.98833	43
187.00096	11
189.05801	12
210.9648	44
212.13547	14
252.9944	11
257.00705	69
285.00226	34
