Mass spectrum: (R,S)-Equol; LC-APCI-QFT; MS2; CE: Ramp 20%-70% (nominal); R=30000; [M+H]+
Name: (R,S)-Equol
Name: 3-(4-hydroxyphenyl)-3,4-dihydro-2H-chromen-7-ol
Class: Benzopyrans; Flavonoids; Isoflavones
Formula: C15H14O3
Exact mass: 242.0943
SMILES: OC1=CC=C(C=C1)C2COC3=CC(O)=CC=C3C2
InChI: InChI=1S/C15H14O3/c16-13-4-1-10(2-5-13)12-7-11-3-6-14(17)8-15(11)18-9-12/h1-6,8,12,16-17H,7,9H2
Instrument: QExactive Orbitrap HF-X (Thermo Scientific)
Instrument type: LC-APCI-QFT
Ms type: MS2
Ion mode: POSITIVE
Ionization: APCI
Fragmentation mode: HCD
Collision energy: Ramp 20%-70% (nominal)
Resolution: 30000
Column name: Waters; Acquity UPLC BEH C18, 2.1 x 100 mm, 1.7 um, Waters
Retention time: 13.417100
Base peak: 123.04416
Precursor m/z: 243.1017
Ion type: [M+H]+
m/z	relative intensity
53.03899	18.071
55.01816	26.543
67.0545	36.315
79.0591	102.375
105.0702	547.396
107.04961	663.832
115.05414	33.496
121.06513	23.006
123.04416	999
133.06461	766.028
137.05882	20.57
137.06076	19.218
149.05891	27.691
149.06087	29.319
213.83435	15.149
216.08275	23.394
243.10289	447.752
