Mass spectrum: Cyanazine; LC-APCI-QFT; MS2; CE: Ramp 20%-70% (nominal); R=30000; [M+H]+
Name: Cyanazine
Name: 2-[[4-chloro-6-(ethylamino)-1,3,5-triazin-2-yl]amino]-2-methylpropanenitrile
Class: Pesticides; Herbicides; Triazines
Formula: C9H13ClN6
Exact mass: 240.0890
SMILES: N
InChI: InChI=1S/C9H13ClN6/c1-4-12-7-13-6(10)14-8(15-7)16-9(2,3)5-11/h4H2,1-3H3,(H2,12,13,14,15,16)
Instrument: QExactive Orbitrap HF-X (Thermo Scientific)
Instrument type: LC-APCI-QFT
Ms type: MS2
Ion mode: POSITIVE
Ionization: APCI
Fragmentation mode: HCD
Collision energy: Ramp 20%-70% (nominal)
Resolution: 30000
Column name: Waters; Acquity UPLC BEH C18, 2.1 x 100 mm, 1.7 um, Waters
Retention time: 12.465500
Base peak: 255.06487
Precursor m/z: 241.0961
Ion type: [M+H]+
m/z	relative intensity
61.97963	11.226
68.02437	89.132
71.06047	87.088
79.00547	36.173
83.06073	42.068
96.05561	97.829
104.00134	154.099
119.0372	30.549
132.03247	79.355
136.08685	25.937
146.02344	14.634
173.05885	10.155
174.05458	19.077
214.08513	327.081
241.09697	999
