Mass spectrum: Sulfadiazine; LC-ESI-QFT; MS2; CE: Ramp 20%-70% (nominal); R=30000; [M-H]-
Name: Sulfadiazine
Name: 4-amino-N-pyrimidin-2-ylbenzenesulfonamide
Class: Drugs; Antiinfective Agents; Amines; Aniline Compounds; Sulfanilamides
Formula: C10H10N4O2S
Exact mass: 250.0524
SMILES: O=S(=O)(NC1=NC=CC=N1)C2=CC=C(N)C=C2
InChI: InChI=1S/C10H10N4O2S/c11-8-2-4-9(5-3-8)17(15,16)14-10-12-6-1-7-13-10/h1-7H,11H2,(H,12,13,14)
Instrument: QExactive Orbitrap HF-X (Thermo Scientific)
Instrument type: LC-ESI-QFT
Ms type: MS2
Ion mode: NEGATIVE
Ionization: ESI
Fragmentation mode: HCD
Collision energy: Ramp 20%-70% (nominal)
Resolution: 30000
Column name: Waters; Acquity UPLC BEH C18, 2.1 x 100 mm, 1.7 um, Waters
Retention time: 6.563800
Base peak: 249.04568
Precursor m/z: 249.0456
Ion type: [M-H]-
m/z	relative intensity
65.01474	16
92.0257	155
93.03355	30
94.04129	122
185.08412	91
249.04568	999
