Mass spectrum: Trimethoprim; LC-APCI-QFT; MS2; CE: Ramp 20%-70% (nominal); R=30000; [M+H]+
Name: Trimethoprim
Name: 5-[(3,4,5-trimethoxyphenyl)methyl]pyrimidine-2,4-diamine
Class: Drugs; Antiinfective Agents; Amines; Aminopyridines; Cytochrome P-450 Enzyme Inhibitors; Cytochrome P-450 CYP2C8 Inhibitors
Formula: C14H18N4O3
Exact mass: 290.1379
SMILES: N=1C=C(C(=NC1N)N)CC2=CC(OC)=C(OC)C(OC)=C2
InChI: InChI=1S/C14H18N4O3/c1-19-10-5-8(6-11(20-2)12(10)21-3)4-9-7-17-14(16)18-13(9)15/h5-7H,4H2,1-3H3,(H4,15,16,17,18)
Instrument: QExactive Orbitrap HF-X (Thermo Scientific)
Instrument type: LC-APCI-QFT
Ms type: MS2
Ion mode: POSITIVE
Ionization: APCI
Fragmentation mode: HCD
Collision energy: Ramp 20%-70% (nominal)
Resolution: 30000
Column name: Waters; Acquity UPLC BEH C18, 2.1 x 100 mm, 1.7 um, Waters
Retention time: 9.587800
Base peak: 123.04416
Precursor m/z: 291.1452
Ion type: [M+H]+
m/z	relative intensity
81.04478	57.585
110.0589	19.063
111.06693	19.207
123.04424	11.882
123.06676	183.377
124.0744	7.192
137.05913	6.596
149.07146	7.574
151.03896	11.858
174.06667	12.48
187.09813	21.996
191.09319	7.948
199.09827	5.959
201.11429	30.504
215.09349	6.493
229.10896	50.669
230.11615	21.441
231.08754	6.607
232.09642	19.558
233.10332	38.432
245.10326	39.143
247.08289	14.29
247.11833	6.491
257.10388	52.171
259.08316	12.186
261.09897	58.615
275.11349	33.046
291.14627	999
