Mass spectrum: Benzoylecgonine; LC-APCI-QFT; MS2; CE: Ramp 20%-70% (nominal); R=30000; [M+H]+
Name: Benzoylecgonine
Name: (1R,2R,3S,5S)-3-benzoyloxy-8-methyl-8-azabicyclo[3.2.1]octane-2-carboxylic acid
Class: Drugs; Tropanes
Formula: C16H19NO4
Exact mass: 289.1314
SMILES: CN1[C@H]2CC[C@@H]1[C@H]([C@H](C2)OC(=O)C3=CC=CC=C3)C(=O)O
InChI: InChI=1S/C16H19NO4/c1-17-11-7-8-12(17)14(15(18)19)13(9-11)21-16(20)10-5-3-2-4-6-10/h2-6,11-14H,7-9H2,1H3,(H,18,19)/t11-,12+,13-,14+/m0/s1
Instrument: QExactive Orbitrap HF-X (Thermo Scientific)
Instrument type: LC-APCI-QFT
Ms type: MS2
Ion mode: POSITIVE
Ionization: APCI
Fragmentation mode: HCD
Collision energy: Ramp 20%-70% (nominal)
Resolution: 30000
Column name: Waters; Acquity UPLC BEH C18, 2.1 x 100 mm, 1.7 um, Waters
Retention time: 9.426900
Base peak: 98.98375
Precursor m/z: 290.1385
Ion type: [M+H]+
m/z	relative intensity
53.03897	36
67.0544	19
68.04961	14
82.06562	101
83.04944	42
91.05427	49
93.0707	18
95.04904	21
105.03327	255
119.04907	37
122.09578	17
122.09723	19
150.09081	15
150.09229	14
168.10197	234
290.13806	999
