Mass spectrum: Cypermethrin; LC-ESI-QFT; MS2; CE: Ramp 20%-70% (nominal); R=30000; [M+H]+
Name: Cypermethrin
Name: [cyano-(3-phenoxyphenyl)methyl] 3-(2,2-dichloroethenyl)-2,2-dimethylcyclopropane-1-carboxylate
Class: Pesticides; Insecticides; Acaricides; Molluscicides; Organochlorines; Pyrethroid ester; Monoterpenes; Pyrethrins
Formula: C22H19Cl2NO3
Exact mass: 415.0742
SMILES: CC1(C(C1C(=O)OC(C#N)C2=CC(=CC=C2)OC3=CC=CC=C3)C=C(Cl)Cl)C
InChI: InChI=1S/C22H19Cl2NO3/c1-22(2)17(12-19(23)24)20(22)21(26)28-18(13-25)14-7-6-10-16(11-14)27-15-8-4-3-5-9-15/h3-12,17-18,20H,1-2H3
Instrument: QExactive Orbitrap HF-X (Thermo Scientific)
Instrument type: LC-ESI-QFT
Ms type: MS2
Ion mode: POSITIVE
Ionization: ESI
Fragmentation mode: HCD
Collision energy: Ramp 20%-70% (nominal)
Resolution: 30000
Column name: Waters; Acquity UPLC BEH C18, 2.1 x 100 mm, 1.7 um, Waters
Retention time: 20.291500
Base peak: NA
Precursor m/z: NA
Ion type: [M+H]+
m/z	relative intensity
65.03876	34
83.03177	179
84.0343	37
91.05956	345
108.96077	32
127.03099	139
139.0502	57
140.05383	29
155.02621	27
157.06052	84
158.06392	50
163.00774	53
182.05579	468
183.05956	367
188.01256	23
191.00266	999
199.07549	24
226.08687	20
370.06412	34
416.10651	23
