Mass spectrum: Diphenyl Phosphate; LC-APCI-QFT; MS2; CE: Ramp 20%-70% (nominal); R=30000; [M-H]-
Name: Diphenyl Phosphate
Name: Phosphoric acid diphenyl ester
Class: Aryl phosphate
Formula: C12H11O4P
Exact mass: 250.0395
SMILES: O=P(O)(OC=1C=CC=CC1)OC=2C=CC=CC2
InChI: InChI=1S/C12H11O4P/c13-17(14,15-11-7-3-1-4-8-11)16-12-9-5-2-6-10-12/h1-10H,(H,13,14)
Instrument: QExactive Orbitrap HF-X (Thermo Scientific)
Instrument type: LC-APCI-QFT
Ms type: MS2
Ion mode: NEGATIVE
Ionization: APCI
Fragmentation mode: HCD
Collision energy: Ramp 20%-70% (nominal)
Resolution: 30000
Column name: Waters; Acquity UPLC BEH C18, 2.1 x 100 mm, 1.7 um, Waters
Retention time: 11.952000
Base peak: 249.03227
Precursor m/z: 249.0325
Ion type: [M-H]-
m/z	relative intensity
65.03969	16.854
78.95912	53.133
93.03482	923.382
94.03806	54.58
100.96722	7.897
154.99072	48.286
213.82556	6.633
213.84026	13.236
247.05505	5.482
247.16869	5.528
247.17233	6.185
249.03227	999
250.03563	130.309
251.03813	7.048
