Mass spectrum: Propiconazole; LC-ESI-QFT; MS2; CE: Ramp 20%-70% (nominal); R=30000; [M+H]+
Name: Propiconazole
Name: 1-[[2-(2,4-dichlorophenyl)-4-propyl-1,3-dioxolan-2-yl]methyl]-1,2,4-triazole
Class: Pesticides; Fungicides; Triazoles
Formula: C15H17Cl2N3O2
Exact mass: 341.0698
SMILES: ClC1=CC=C(C(Cl)=C1)C2(OCC(O2)CCC)CN3N=CN=C3
InChI: InChI=1S/C15H17Cl2N3O2/c1-2-3-12-7-21-15(22-12,8-20-10-18-9-19-20)13-5-4-11(16)6-14(13)17/h4-6,9-10,12H,2-3,7-8H2,1H3
Instrument: QExactive Orbitrap HF-X (Thermo Scientific)
Instrument type: LC-ESI-QFT
Ms type: MS2
Ion mode: POSITIVE
Ionization: ESI
Fragmentation mode: HCD
Collision energy: Ramp 20%-70% (nominal)
Resolution: 30000
Column name: Waters; Acquity UPLC BEH C18, 2.1 x 100 mm, 1.7 um, Waters
Retention time: 17.810400
Base peak: NA
Precursor m/z: NA
Ion type: [M+H]+
m/z	relative intensity
53.00253	10
69.06996	178
70.04002	29
122.99951	23
158.97621	750
172.95627	59
186.97072	11
204.98183	41
211.12439	24
273.04428	16
342.07651	999
