Mass spectrum: Diclofenac; LC-ESI-QFT; MS2; CE: Ramp 20%-70% (nominal); R=30000; [M+H]+
Name: Diclofenac
Name: 2-[2-(2,6-dichloroanilino)phenyl]acetic acid
Class: Drugs; Nonsteroidal Antiinflammatory Drugs; Carboxylic Acids; Phenylacetates
Formula: C14H11Cl2NO2
Exact mass: 295.0167
SMILES: O=C(O)CC=1C=CC=CC1NC=2C(Cl)=CC=CC2Cl
InChI: InChI=1S/C14H11Cl2NO2/c15-10-5-3-6-11(16)14(10)17-12-7-2-1-4-9(12)8-13(18)19/h1-7,17H,8H2,(H,18,19)
Instrument: QExactive Orbitrap HF-X (Thermo Scientific)
Instrument type: LC-ESI-QFT
Ms type: MS2
Ion mode: POSITIVE
Ionization: ESI
Fragmentation mode: HCD
Collision energy: Ramp 20%-70% (nominal)
Resolution: 30000
Column name: Waters; Acquity UPLC BEH C18, 2.1 x 100 mm, 1.7 um, Waters
Retention time: 15.346600
Base peak: NA
Precursor m/z: NA
Ion type: [M+H]+
m/z	relative intensity
179.0732	6.744
180.08081	25.222
214.04071	943.013
214.04112	999
215.04993	194.343
250.01779	457.215
278.01395	148.755
296.02368	66.699
