Mass spectrum: Paracetamol; LC-ESI-QFT; MS2; CE: Ramp 20%-70% (nominal); R=30000; [M-H]-
Name: Paracetamol
Name: Acetaminophen
Class: Drugs; Amines; Anilides; Acetanilides
Formula: C8H9NO2
Exact mass: 151.0633
SMILES: O=C(NC1=CC=C(O)C=C1)C
InChI: InChI=1S/C8H9NO2/c1-6(10)9-7-2-4-8(11)5-3-7/h2-5,11H,1H3,(H,9,10)
Instrument: QExactive Orbitrap HF-X (Thermo Scientific)
Instrument type: LC-ESI-QFT
Ms type: MS2
Ion mode: NEGATIVE
Ionization: ESI
Fragmentation mode: HCD
Collision energy: Ramp 20%-70% (nominal)
Resolution: 30000
Column name: Waters; Acquity UPLC BEH C18, 2.1 x 100 mm, 1.7 um, Waters
Retention time: 6.300200
Base peak: 150.05621
Precursor m/z: 150.0563
Ion type: [M-H]-
m/z	relative intensity
107.03799	663
108.04523	39
108.0463	43
132.04579	14
134.02499	10
150.05621	999
