Mass spectrum: Simazine-2-hydroxy; LC-ESI-QFT; MS2; CE: Ramp 20%-70% (nominal); R=30000; [M+H]+
Name: Simazine-2-hydroxy
Name: 4,6-bis(ethylamino)-1H-1,3,5-triazin-2-one
Class: Pesticide metabolites; Herbicides; Triazines
Formula: C7H13N5O
Exact mass: 183.1120
SMILES: O=C1N=C(N=C(N1)NCC)NCC
InChI: InChI=1S/C7H13N5O/c1-3-8-5-10-6(9-4-2)12-7(13)11-5/h3-4H2,1-2H3,(H3,8,9,10,11,12,13)
Instrument: QExactive Orbitrap HF-X (Thermo Scientific)
Instrument type: LC-ESI-QFT
Ms type: MS2
Ion mode: POSITIVE
Ionization: ESI
Fragmentation mode: HCD
Collision energy: Ramp 20%-70% (nominal)
Resolution: 30000
Column name: Waters; Acquity UPLC BEH C18, 2.1 x 100 mm, 1.7 um, Waters
Retention time: 9.695000
Base peak: NA
Precursor m/z: NA
Ion type: [M+H]+
m/z	relative intensity
69.00858	183
71.06052	51
86.03496	23
96.05595	10
97.04021	121
114.0661	370
156.08815	11
184.11977	999
