Mass spectrum: Atrazine-desethyl-2-hydroxy; LC-ESI-QFT; MS2; CE: Ramp 20%-70% (nominal); R=30000; [M-H]-
Name: Atrazine-desethyl-2-hydroxy
Name: 6-amino-4-(propan-2-ylamino)-1H-1,3,5-triazin-2-one
Class: Pesticide metabolites; Herbicides; Triazines
Formula: C6H11N5O
Exact mass: 169.0964
SMILES: O=C1N=C(N=C(N)N1)NC(C)C
InChI: InChI=1S/C6H11N5O/c1-3(2)8-5-9-4(7)10-6(12)11-5/h3H,1-2H3,(H4,7,8,9,10,11,12)
Instrument: QExactive Orbitrap HF-X (Thermo Scientific)
Instrument type: LC-ESI-QFT
Ms type: MS2
Ion mode: NEGATIVE
Ionization: ESI
Fragmentation mode: HCD
Collision energy: Ramp 20%-70% (nominal)
Resolution: 30000
Column name: Waters; Acquity UPLC BEH C18, 2.1 x 100 mm, 1.7 um, Waters
Retention time: 6.554400
Base peak: 214.08673
Precursor m/z: 214.0869
Ion type: [M-H]-
m/z	relative intensity
69.04607	23
83.06174	32
93.03441	225
93.03525	230
94.03824	246
104.01799	16
170.06949	101
178.11002	23
212.63814	17
214.05983	266
214.08673	999
214.15399	11
