Mass spectrum: Atrazine-2-hydroxy; LC-ESI-QFT; MS2; CE: Ramp 20%-70% (nominal); R=30000; [M-H]-
Name: Atrazine-2-hydroxy
Name: 4-(ethylamino)-6-(propan-2-ylamino)-1H-1,3,5-triazin-2-one
Class: Pesticide metabolites; Herbicides; Triazines
Formula: C8H15N5O
Exact mass: 197.1277
SMILES: O=C1N=C(N=C(N1)NC(C)C)NCC
InChI: InChI=1S/C8H15N5O/c1-4-9-6-11-7(10-5(2)3)13-8(14)12-6/h5H,4H2,1-3H3,(H3,9,10,11,12,13,14)
Instrument: QExactive Orbitrap HF-X (Thermo Scientific)
Instrument type: LC-ESI-QFT
Ms type: MS2
Ion mode: NEGATIVE
Ionization: ESI
Fragmentation mode: HCD
Collision energy: Ramp 20%-70% (nominal)
Resolution: 30000
Column name: Waters; Acquity UPLC BEH C18, 2.1 x 100 mm, 1.7 um, Waters
Retention time: 11.516100
Base peak: 168.08965
Precursor m/z: 168.0895
Ion type: [M-H]-
m/z	relative intensity
67.03036	15
69.04608	112
83.06174	228
111.06776	46
125.08328	47
154.07378	60
168.08942	24
196.12065	999
