Mass spectrum: Chloramphenicol; LC-ESI-QFT; MS2; CE: Ramp 20%-70% (nominal); R=30000; [M-H]-
Name: Chloramphenicol
Name: 2,2-dichloro-N-[(1R,2R)-1,3-dihydroxy-1-(4-nitrophenyl)propan-2-yl]acetamide
Class: Drugs; Antiinfective Agents; Alcohols; Glycols; Propylene Glycols
Formula: C11H12Cl2N2O5
Exact mass: 322.0123
SMILES: C1=CC(=CC=C1[C@H]([C@@H](CO)NC(=O)C(Cl)Cl)O)[N+](=O)[O-]
InChI: InChI=1S/C11H12Cl2N2O5/c12-10(13)11(18)14-8(5-16)9(17)6-1-3-7(4-2-6)15(19)20/h1-4,8-10,16-17H,5H2,(H,14,18)/t8-,9-/m1/s1
Instrument: QExactive Orbitrap HF-X (Thermo Scientific)
Instrument type: LC-ESI-QFT
Ms type: MS2
Ion mode: NEGATIVE
Ionization: ESI
Fragmentation mode: HCD
Collision energy: Ramp 20%-70% (nominal)
Resolution: 30000
Column name: Waters; Acquity UPLC BEH C18, 2.1 x 100 mm, 1.7 um, Waters
Retention time: 10.687400
Base peak: 321.00559
Precursor m/z: 321.0054
Ion type: [M-H]-
m/z	relative intensity
78.03506	23
82.94638	39
84.00948	12
106.02997	18
121.02922	350
122.02438	53
122.02583	58
125.95187	23
126.93651	53
148.04068	16
150.01971	18
151.02777	340
152.03595	668
166.01518	20
176.03603	213
194.04558	418
207.04196	18
215.56555	12
219.04144	31
237.05205	50
249.05292	106
257.03461	661
321.00559	999
