Mass spectrum: Dimethoate; LC-APCI-QFT; MS2; CE: Ramp 20%-70% (nominal); R=30000; [M+H]+
Name: Dimethoate
Name: 2-dimethoxyphosphinothioylsulfanyl-N-methylacetamide
Class: Pesticides; Organophosphate Insecticides; Organothiophosphates
Formula: C5H12NO3PS2
Exact mass: 228.9996
SMILES: O=C(NC)CSP(=S)(OC)OC
InChI: InChI=1S/C5H12NO3PS2/c1-6-5(7)4-12-10(11,8-2)9-3/h4H2,1-3H3,(H,6,7)
Instrument: QExactive Orbitrap HF-X (Thermo Scientific)
Instrument type: LC-APCI-QFT
Ms type: MS2
Ion mode: POSITIVE
Ionization: APCI
Fragmentation mode: HCD
Collision energy: Ramp 20%-70% (nominal)
Resolution: 30000
Column name: Waters; Acquity UPLC BEH C18, 2.1 x 100 mm, 1.7 um, Waters
Retention time: 9.929100
Base peak: 251.04721
Precursor m/z: 230.0068
Ion type: [M+H]+
m/z	relative intensity
61.01083	10.042
62.01862	24.551
78.99438	161.146
88.02163	360.838
93.01033	53.268
123.99783	20.143
124.98224	342.65
128.97676	21.025
142.99274	583.441
156.95427	47.684
170.96986	307.279
188.98094	19.778
197.98061	56.271
198.96524	999
214.18575	11.947
230.00703	58.591
