Mass spectrum: Atrazine; LC-ESI-QFT; MS2; CE: Ramp 20%-70% (nominal); R=30000; [M+H]+
Name: Atrazine
Name: 6-chloro-4-N-ethyl-2-N-propan-2-yl-1,3,5-triazine-2,4-diamine
Class: Pesticides; Herbicides; Triazines
Formula: C8H14ClN5
Exact mass: 215.0938
SMILES: ClC=1N=C(N=C(N1)NC(C)C)NCC
InChI: InChI=1S/C8H14ClN5/c1-4-10-7-12-6(9)13-8(14-7)11-5(2)3/h5H,4H2,1-3H3,(H2,10,11,12,13,14)
Instrument: QExactive Orbitrap HF-X (Thermo Scientific)
Instrument type: LC-ESI-QFT
Ms type: MS2
Ion mode: POSITIVE
Ionization: ESI
Fragmentation mode: HCD
Collision energy: Ramp 20%-70% (nominal)
Resolution: 30000
Column name: Waters; Acquity UPLC BEH C18, 2.1 x 100 mm, 1.7 um, Waters
Retention time: 14.327200
Base peak: NA
Precursor m/z: NA
Ion type: [M+H]+
m/z	relative intensity
68.02464	6.205
69.00861	20.488
85.05174	33.462
86.0359	400.772
110.04599	5.005
128.05695	515.176
170.10423	999
