Mass spectrum: Fluconazole; LC-ESI-QFT; MS2; CE: Ramp 20%-70% (nominal); R=30000; [M+H]+
Name: Fluconazole
Name: 2-(2,4-difluorophenyl)-1,3-bis(1,2,4-triazol-1-yl)propan-2-ol
Class: Drugs; Antifungal Agents; Cytochrome P-450 Enzyme Inhibitors; 14-alpha Demethylase Inhibitors
Formula: C13H12F2N6O
Exact mass: 306.1041
SMILES: FC1=CC=C(C(F)=C1)C(O)(CN2N=CN=C2)CN3N=CN=C3
InChI: InChI=1S/C13H12F2N6O/c14-10-1-2-11(12(15)3-10)13(22,4-20-8-16-6-18-20)5-21-9-17-7-19-21/h1-3,6-9,22H,4-5H2
Instrument: QExactive Orbitrap HF-X (Thermo Scientific)
Instrument type: LC-ESI-QFT
Ms type: MS2
Ion mode: POSITIVE
Ionization: ESI
Fragmentation mode: HCD
Collision energy: Ramp 20%-70% (nominal)
Resolution: 30000
Column name: Waters; Acquity UPLC BEH C18, 2.1 x 100 mm, 1.7 um, Waters
Retention time: 10.487300
Base peak: NA
Precursor m/z: NA
Ion type: [M+H]+
m/z	relative intensity
70.03998	312
77.04092	13
82.04052	12
91.05477	13
119.04965	12
121.04495	250
127.03542	269
129.04446	58
139.0356	317
141.01485	41
141.05103	127
146.04036	10
147.03593	18
151.03578	211
166.04645	26
169.04643	135
173.05167	47
200.06137	23
212.51093	15
220.06801	451
238.0788	602
289.10117	83
307.11188	999
