Mass spectrum: Prometon; LC-ESI-QFT; MS2; CE: Ramp 20%-70% (nominal); R=30000; [M+H]+
Name: Prometon
Name: 6-methoxy-2-N,4-N-di(propan-2-yl)-1,3,5-triazine-2,4-diamine
Class: Pesticides; Herbicides; Triazine
Formula: C10H19N5O
Exact mass: 225.1590
SMILES: N=1C(=NC(=NC1NC(C)C)NC(C)C)OC
InChI: InChI=1S/C10H19N5O/c1-6(2)11-8-13-9(12-7(3)4)15-10(14-8)16-5/h6-7H,1-5H3,(H2,11,12,13,14,15)
Instrument: QExactive Orbitrap HF-X (Thermo Scientific)
Instrument type: LC-ESI-QFT
Ms type: MS2
Ion mode: POSITIVE
Ionization: ESI
Fragmentation mode: HCD
Collision energy: Ramp 20%-70% (nominal)
Resolution: 30000
Column name: Waters; Acquity UPLC BEH C18, 2.1 x 100 mm, 1.7 um, Waters
Retention time: 15.431300
Base peak: NA
Precursor m/z: NA
Ion type: [M+H]+
m/z	relative intensity
57.0451	38.193
68.02438	29.195
75.05769	17.245
82.0405	7
86.03464	125.61
99.06671	12.673
100.05039	83.045
110.07133	5.097
142.07271	266.3
184.11975	71.632
226.16663	999
