Mass spectrum: Benzoylecgonine; LC-APCI-QFT; MS2; CE: Ramp 20%-70% (nominal); R=30000; [M-H]-
Name: Benzoylecgonine
Name: (1R,2R,3S,5S)-3-benzoyloxy-8-methyl-8-azabicyclo[3.2.1]octane-2-carboxylic acid
Class: Drugs; Tropanes
Formula: C16H19NO4
Exact mass: 289.1314
SMILES: O=C(OC1CC2N(C)C(CC2)C1C(=O)O)C=3C=CC=CC3
InChI: InChI=1S/C16H19NO4/c1-17-11-7-8-12(17)14(15(18)19)13(9-11)21-16(20)10-5-3-2-4-6-10/h2-6,11-14H,7-9H2,1H3,(H,18,19)/t11-,12+,13-,14+/m0/s1
Instrument: QExactive Orbitrap HF-X (Thermo Scientific)
Instrument type: LC-APCI-QFT
Ms type: MS2
Ion mode: NEGATIVE
Ionization: APCI
Fragmentation mode: HCD
Collision energy: Ramp 20%-70% (nominal)
Resolution: 30000
Column name: Waters; Acquity UPLC BEH C18, 2.1 x 100 mm, 1.7 um, Waters
Retention time: 9.428200
Base peak: 121.02898
Precursor m/z: 288.1246
Ion type: [M-H]-
m/z	relative intensity
55.83444	6.498
57.97552	122.728
77.03967	21.178
84.10118	7.406
85.87697	6.42
88.55031	7.593
121.02898	999
121.0304	911.94
122.03227	70.347
122.03391	63.677
153.7197	6.792
212.93703	21.503
212.95204	20.062
223.98798	9.558
287.12967	7.375
287.16623	7.637
288.12393	43.377
289.12729	14.441
289.21704	8.72
289.97684	10.161
290.01263	79.411
