Mass spectrum: Disperse Orange 1; LC-APCI-QFT; MS2; CE: Ramp 20%-70% (nominal); R=30000; [M+H]+
Name: Disperse Orange 1
Name: 4-[(4-nitrophenyl)diazenyl]-N-phenylaniline
Class: Azo Dyes
Formula: C18H14N4O2
Exact mass: 318.1117
SMILES: O=[N+]([O-])C1=CC=C(N=NC2=CC=C(C=C2)NC=3C=CC=CC3)C=C1
InChI: InChI=1S/C18H14N4O2/c23-22(24)18-12-10-17(11-13-18)21-20-16-8-6-15(7-9-16)19-14-4-2-1-3-5-14/h1-13,19H
Instrument: QExactive Orbitrap HF-X (Thermo Scientific)
Instrument type: LC-APCI-QFT
Ms type: MS2
Ion mode: POSITIVE
Ionization: APCI
Fragmentation mode: HCD
Collision energy: Ramp 20%-70% (nominal)
Resolution: 30000
Column name: Waters; Acquity UPLC BEH C18, 2.1 x 100 mm, 1.7 um, Waters
Retention time: 19.774400
Base peak: 270.12363
Precursor m/z: 319.1193
Ion type: [M+H]+
m/z	relative intensity
75.02253	116.455
76.03305	96.808
150.02974	40.011
168.07933	138.74
168.08109	207.22
169.08926	191.108
181.07614	183.797
319.11801	999
