Mass spectrum: Carbamazepine; LC-ESI-QFT; MS2; CE: Ramp 20%-70% (nominal); R=30000; [M+H]+
Name: Carbamazepine
Name: Benzo[b][1]benzazepine-11-carboxamide
Class: Drug; Anticonvulsants; Cytochrome P-450 Enzyme Inducers
Formula: C15H12N2O
Exact mass: 236.0950
SMILES: O=C(N)N1C=2C=CC=CC2C=CC=3C=CC=CC31
InChI: InChI=1S/C15H12N2O/c16-15(18)17-13-7-3-1-5-11(13)9-10-12-6-2-4-8-14(12)17/h1-10H,(H2,16,18)
Instrument: QExactive Orbitrap HF-X (Thermo Scientific)
Instrument type: LC-ESI-QFT
Ms type: MS2
Ion mode: POSITIVE
Ionization: ESI
Fragmentation mode: HCD
Collision energy: Ramp 20%-70% (nominal)
Resolution: 30000
Column name: Waters; Acquity UPLC BEH C18, 2.1 x 100 mm, 1.7 um, Waters
Retention time: 13.921300
Base peak: NA
Precursor m/z: NA
Ion type: [M+H]+
m/z	relative intensity
91.05923	6
152.06268	12
165.06999	47
166.07759	5
167.07414	9
167.08632	21
177.07042	12
179.07309	104
190.06491	10
191.07323	29
192.08101	268
193.08852	234
194.09634	994
213.03259	5
213.99896	5
220.0761	19
237.10194	999
