Mass spectrum: 1-Naphthalenesulfonic acid; LC-APCI-QFT; MS2; CE: Ramp 20%-70% (nominal); R=30000; [M-H]-
Name: 1-Naphthalenesulfonic acid
Name: Naphthalene-1-sulfonic acid
Class: Polycyclic Aromatic Hydrocarbons; Naphthalenes; Naphthalenesulfonates; Organosulfonic acids; Arenesulfonic acids
Formula: C10H8O3S
Exact mass: 208.0194
SMILES: O=S(=O)(O)C1=CC=CC=2C=CC=CC21
InChI: InChI=1S/C10H8O3S/c11-14(12,13)10-7-3-5-8-4-1-2-6-9(8)10/h1-7H,(H,11,12,13)
Instrument: QExactive Orbitrap HF-X (Thermo Scientific)
Instrument type: LC-APCI-QFT
Ms type: MS2
Ion mode: NEGATIVE
Ionization: APCI
Fragmentation mode: HCD
Collision energy: Ramp 20%-70% (nominal)
Resolution: 30000
Column name: Waters; Acquity UPLC BEH C18, 2.1 x 100 mm, 1.7 um, Waters
Retention time: 8.743200
Base peak: 207.01286
Precursor m/z: 207.0122
Ion type: [M-H]-
m/z	relative intensity
79.95743	442
80.96536	212
81.95334	7
115.05556	14
143.05074	252
144.05396	29
205.12666	10
205.15979	12
207.01286	999
208.01566	117
209.0083	22
209.01762	7
