Mass spectrum: Atrazine-desethyl-2-hydroxy; LC-APCI-QFT; MS2; CE: Ramp 20%-70% (nominal); R=30000; [M-H]-
Name: Atrazine-desethyl-2-hydroxy
Name: 6-amino-4-(propan-2-ylamino)-1H-1,3,5-triazin-2-one
Class: Pesticide metabolites; Herbicides; Triazines
Formula: C6H11N5O
Exact mass: 169.0964
SMILES: O=C1N=C(N=C(N)N1)NC(C)C
InChI: InChI=1S/C6H11N5O/c1-3(2)8-5-9-4(7)10-6(12)11-5/h3H,1-2H3,(H4,7,8,9,10,11,12)
Instrument: QExactive Orbitrap HF-X (Thermo Scientific)
Instrument type: LC-APCI-QFT
Ms type: MS2
Ion mode: NEGATIVE
Ionization: APCI
Fragmentation mode: HCD
Collision energy: Ramp 20%-70% (nominal)
Resolution: 30000
Column name: Waters; Acquity UPLC BEH C18, 2.1 x 100 mm, 1.7 um, Waters
Retention time: 6.566000
Base peak: 126.03123
Precursor m/z: 168.0894
Ion type: [M-H]-
m/z	relative intensity
57.03441	22
65.00163	17
65.00339	101
67.03018	23
83.03641	45
83.06158	275
84.02048	48
84.06482	14
86.15921	11
94.93623	48
95.02466	61
95.02579	50
96.03307	117
97.02899	61
97.03027	62
97.06529	9
100.96738	997
100.96806	933
101.96744	46
110.0361	43
125.08356	343
125.09651	19
125.09801	21
126.02725	16
126.03123	999
126.04262	41
126.08669	22
136.00351	12
140.04639	115
146.97052	59
167.03653	6
167.06058	11
167.07303	21
167.10925	9
167.97643	28
168.02872	11
168.08894	610
168.972	142
169.01622	41
169.06635	18
169.08524	50
169.0932	34
169.12241	16
