Mass spectrum: Sulfadiazine; LC-ESI-QFT; MS2; CE: Ramp 20%-70% (nominal); R=30000; [M+H]+
Name: Sulfadiazine
Name: 4-amino-N-pyrimidin-2-ylbenzenesulfonamide
Class: Drugs; Antiinfective Agents; Amines; Aniline Compounds; Sulfanilamides
Formula: C10H10N4O2S
Exact mass: 250.0524
SMILES: O=S(=O)(NC1=NC=CC=N1)C2=CC=C(N)C=C2
InChI: InChI=1S/C10H10N4O2S/c11-8-2-4-9(5-3-8)17(15,16)14-10-12-6-1-7-13-10/h1-7H,11H2,(H,12,13,14)
Instrument: QExactive Orbitrap HF-X (Thermo Scientific)
Instrument type: LC-ESI-QFT
Ms type: MS2
Ion mode: POSITIVE
Ionization: ESI
Fragmentation mode: HCD
Collision energy: Ramp 20%-70% (nominal)
Resolution: 30000
Column name: Waters; Acquity UPLC BEH C18, 2.1 x 100 mm, 1.7 um, Waters
Retention time: 6.461300
Base peak: NA
Precursor m/z: NA
Ion type: [M+H]+
m/z	relative intensity
65.03877	164
68.04964	45
80.04954	35
92.0495	418
94.06534	59
96.05567	185
108.04481	461
110.05959	52
110.06067	53
156.01154	383
158.00249	19
174.02242	48
176.01262	35
185.08282	18
251.06055	999
