Mass spectrum: Aspirin; LC-ESI-QFT; MS2; CE: Ramp 20%-70% (nominal); R=30000; [M+H]+
Name: Aspirin
Name: Acetylsalicylic acid
Class: Drugs; Benzoates; Hydroxybenzoates; Salicylates
Formula: C9H8O4
Exact mass: 180.0423
SMILES: O=C(O)C=1C=CC=CC1OC(=O)C
InChI: InChI=1S/C9H8O4/c1-6(10)13-8-5-3-2-4-7(8)9(11)12/h2-5H,1H3,(H,11,12)
Instrument: QExactive Orbitrap HF-X (Thermo Scientific)
Instrument type: LC-ESI-QFT
Ms type: MS2
Ion mode: POSITIVE
Ionization: ESI
Fragmentation mode: HCD
Collision energy: Ramp 20%-70% (nominal)
Resolution: 30000
Column name: Waters; Acquity UPLC BEH C18, 2.1 x 100 mm, 1.7 um, Waters
Retention time: 11.194600
Base peak: NA
Precursor m/z: NA
Ion type: [M+H]+
m/z	relative intensity
53.03892	44
55.01831	20
64.97769	36
65.03871	63
67.05442	27
79.05908	64
81.07756	27
82.0603	38
91.05968	47
93.03803	26
93.07408	57
95.05355	66
95.0899	27
105.03479	25
105.04641	22
105.07116	28
107.08695	59
111.04429	23
121.02859	162
121.0398	36
121.06501	23
121.10153	94
123.08081	47
133.02835	75
134.99643	20
135.04436	87
135.08069	33
135.11694	31
149.02348	999
163.03931	624
163.07509	128
163.11201	53
167.03409	41
181.04079	65
181.04994	28
181.07237	77
181.08656	69
181.12311	101
