Mass spectrum: Tetradecyl sulfate; LC-APCI-QFT; MS2; CE: Ramp 20%-70% (nominal); R=30000; [M-H]-
Name: Tetradecyl sulfate
Name: Tetradecyl hydrogen sulfate
Class: Surfactants
Formula: C14H30O4S
Exact mass: 294.1865
SMILES: O=S(=O)(O)OCCCCCCCCCCCCCC
InChI: InChI=1S/C14H30O4S/c1-2-3-4-5-6-7-8-9-10-11-12-13-14-18-19(15,16)17/h2-14H2,1H3,(H,15,16,17)
Instrument: QExactive Orbitrap HF-X (Thermo Scientific)
Instrument type: LC-APCI-QFT
Ms type: MS2
Ion mode: NEGATIVE
Ionization: APCI
Fragmentation mode: HCD
Collision energy: Ramp 20%-70% (nominal)
Resolution: 30000
Column name: Waters; Acquity UPLC BEH C18, 2.1 x 100 mm, 1.7 um, Waters
Retention time: 19.364500
Base peak: 96.96037
Precursor m/z: 293.1794
Ion type: [M-H]-
m/z	relative intensity
79.95737	156.436
81.95338	6.735
95.95264	50.85
96.96037	999
98.95549	16.149
98.95641	19.528
98.96434	5.555
212.80708	14.623
293.18036	709.052
294.1832	100.261
295.17352	16.952
