Mass spectrum: Salbutamol; LC-ESI-QFT; MS2; CE: Ramp 20%-70% (nominal); R=30000; [M+H]+
Name: Salbutamol
Name: Albuterol
Class: Drugs; Amines; Ethylamines; Phenethylamines
Formula: C13H21NO3
Exact mass: 239.1521
SMILES: OC1=CC=C(C=C1CO)C(O)CNC(C)(C)C
InChI: InChI=1S/C13H21NO3/c1-13(2,3)14-7-12(17)9-4-5-11(16)10(6-9)8-15/h4-6,12,14-17H,7-8H2,1-3H3
Instrument: QExactive Orbitrap HF-X (Thermo Scientific)
Instrument type: LC-ESI-QFT
Ms type: MS2
Ion mode: POSITIVE
Ionization: ESI
Fragmentation mode: HCD
Collision energy: Ramp 20%-70% (nominal)
Resolution: 30000
Column name: Waters; Acquity UPLC BEH C18, 2.1 x 100 mm, 1.7 um, Waters
Retention time: 7.073500
Base peak: NA
Precursor m/z: NA
Ion type: [M+H]+
m/z	relative intensity
55.01813	14
57.07013	77
79.0541	42
80.04943	23
81.03361	17
91.05433	55
93.07025	56
94.06521	8
103.05467	49
106.06527	22
118.06548	27
119.04967	11
120.08081	106
121.06516	275
130.06502	175
131.049	27
133.05238	165
148.07579	823
166.08664	557
204.13853	9
213.9084	15
213.92184	9
222.14877	999
240.15936	341
