Mass spectrum: Sulfamethoxazole; LC-ESI-QFT; MS2; CE: Ramp 20%-70% (nominal); R=30000; [M+H]+
Name: Sulfamethoxazole
Name: 4-amino-N-(5-methyl-1,2-oxazol-3-yl)benzenesulfonamide
Class: Drugs; Antiinfective Agents; Amines; Aniline Compounds; Sulfanilamides
Formula: C10H11N3O3S
Exact mass: 253.0521
SMILES: O=S(=O)(NC1=NOC(=C1)C)C2=CC=C(N)C=C2
InChI: InChI=1S/C10H11N3O3S/c1-7-6-10(12-16-7)13-17(14,15)9-4-2-8(11)3-5-9/h2-6H,11H2,1H3,(H,12,13)
Instrument: QExactive Orbitrap HF-X (Thermo Scientific)
Instrument type: LC-ESI-QFT
Ms type: MS2
Ion mode: POSITIVE
Ionization: ESI
Fragmentation mode: HCD
Collision energy: Ramp 20%-70% (nominal)
Resolution: 30000
Column name: Waters; Acquity UPLC BEH C18, 2.1 x 100 mm, 1.7 um, Waters
Retention time: 8.450300
Base peak: NA
Precursor m/z: NA
Ion type: [M+H]+
m/z	relative intensity
65.03874	175.911
68.04961	50.174
72.04437	8.42
79.01762	7.312
80.04938	47.768
92.04968	423.141
93.05755	147.167
94.06529	14.666
99.05521	98.794
107.0604	26.554
108.04476	456.094
110.05969	64.397
146.07159	28.969
147.07945	64.746
148.08737	14.766
156.01146	376.841
160.08714	29.559
188.08189	90.333
190.0974	43.476
194.03844	18.48
254.05954	999
