Mass spectrum: 5-Nitrosalicylic acid; LC-ESI-QFT; MS2; CE:40; R=30000; [M-H]-
Name: 5-Nitrosalicylic acid
Name: 2-hydroxy-5-nitrobenzoic acid
Class: Nitrobenzoic Acids; Phenols; Hydroxybenzoic acid
Formula: C7H5NO5
Exact mass: 183.0168
SMILES: Nc1c(O)c(cc(c1)[N+](=O)[O-])C(=O)O
InChI: InChI=1S/C7H5NO5/c9-6-2-1-4(8(12)13)3-5(6)7(10)11/h1-3,9H,(H,10,11)
Instrument: QExactive Orbitrap HF-X (Thermo Scientific)
Instrument type: LC-ESI-QFT
Ms type: MS2
Ion mode: NEGATIVE
Ionization: ESI
Collision energy: 40
Column name: Acquity UPLC BEH C18, 3.0 x 100 mm, 1.7 um, Waters
Ion type: [M-H]-
m/z	relative intensity
59.96715	0
92.02689	1.631
95.01385	0.128
108.02213	493.958
109.02513	31.427
110.02621	1.056
136.01691	0.395
136.9369	1.69
138.00975	495.495
138.02016	999
139.02034	68.614
139.02298	68.615
140.02376	5.445
141.02774	0.138
164.53304	0.058
182.00996	26.122
