Mass spectrum: Fluconazole; LC-APCI-QFT; MS2; CE: Ramp 20%-70% (nominal); R=30000; [M-H]-
Name: Fluconazole
Name: 2-(2,4-difluorophenyl)-1,3-bis(1,2,4-triazol-1-yl)propan-2-ol
Class: Drugs; Antifungal Agents; Cytochrome P-450 Enzyme Inhibitors; 14-alpha Demethylase Inhibitors
Formula: C13H12F2N6O
Exact mass: 306.1041
SMILES: FC1=CC=C(C(F)=C1)C(O)(CN2N=CN=C2)CN3N=CN=C3
InChI: InChI=1S/C13H12F2N6O/c14-10-1-2-11(12(15)3-10)13(22,4-20-8-16-6-18-20)5-21-9-17-7-19-21/h1-3,6-9,22H,4-5H2
Instrument: QExactive Orbitrap HF-X (Thermo Scientific)
Instrument type: LC-APCI-QFT
Ms type: MS2
Ion mode: NEGATIVE
Ionization: APCI
Fragmentation mode: HCD
Collision energy: Ramp 20%-70% (nominal)
Resolution: 30000
Column name: Waters; Acquity UPLC BEH C18, 2.1 x 100 mm, 1.7 um, Waters
Retention time: 10.456100
Base peak: 191.06902
Precursor m/z: 305.0970
Ion type: [M-H]-
m/z	relative intensity
67.03023	6
68.02557	622
68.03604	5
69.02261	7
69.02901	9
93.01469	13
94.04109	25
108.02052	32
113.02098	5
122.0363	27
159.10143	11
159.10413	11
191.06902	999
191.11864	5
192.06804	7
192.07304	67
212.60358	12
222.0486	11
305.09674	11
