Mass spectrum: Sucralose; LC-APCI-QFT; MS2; CE: Ramp 20%-70% (nominal); R=30000; [M-H]-
Name: Sucralose
Name: (2R,3R,4R,5R,6R)-2-[(2R,3S,4S,5S)-2,5-bis(chloromethyl)-3,4-dihydroxyoxolan-2-yl]oxy-5-chloro-6-(hydroxymethyl)oxane-3,4-diol
Class: Food Additives; Flavoring Agents; Artifical Sweetners
Formula: C12H19Cl3O8
Exact mass: 396.0145
SMILES: C([C@@H]1[C@@H]([C@@H]([C@H]([C@H](O1)O[C@]2([C@H]([C@@H]([C@H](O2)CCl)O)O)CCl)O)O)Cl)O
InChI: InChI=1S/C12H19Cl3O8/c13-1-4-7(17)10(20)12(3-14,22-4)23-11-9(19)8(18)6(15)5(2-16)21-11/h4-11,16-20H,1-3H2/t4-,5-,6+,7-,8+,9-,10+,11-,12+/m1/s1
Instrument: QExactive Orbitrap HF-X (Thermo Scientific)
Instrument type: LC-APCI-QFT
Ms type: MS2
Ion mode: NEGATIVE
Ionization: APCI
Fragmentation mode: HCD
Collision energy: Ramp 20%-70% (nominal)
Resolution: 30000
Column name: Waters; Acquity UPLC BEH C18, 2.1 x 100 mm, 1.7 um, Waters
Retention time: 9.057000
Base peak: 395.00778
Precursor m/z: 395.0068
Ion type: [M-H]-
m/z	relative intensity
52.47009	60
57.93439	79
59.21208	60
59.28772	62
62.29631	75
71.15475	75
89.32178	61
101.02356	42
117.04691	53
145.82312	75
173.38416	56
175.14265	68
211.32518	453
211.33836	107
217.7916	71
252.31294	88
288.90576	68
289.90726	108
290.90402	92
303.56628	62
359.03152	429
361.02887	132
394.05618	75
395.00778	999
396.01151	239
397.00314	672
