Mass spectrum: Simazine-2-hydroxy; LC-APCI-QFT; MS2; CE: Ramp 20%-70% (nominal); R=30000; [M-H]-
Name: Simazine-2-hydroxy
Name: 4,6-bis(ethylamino)-1H-1,3,5-triazin-2-one
Class: Pesticide metabolites; Herbicides; Triazines
Formula: C7H13N5O
Exact mass: 183.1120
SMILES: O=C1N=C(N=C(N1)NCC)NCC
InChI: InChI=1S/C7H13N5O/c1-3-8-5-10-6(9-4-2)12-7(13)11-5/h3-4H2,1-2H3,(H3,8,9,10,11,12,13)
Instrument: QExactive Orbitrap HF-X (Thermo Scientific)
Instrument type: LC-APCI-QFT
Ms type: MS2
Ion mode: NEGATIVE
Ionization: APCI
Fragmentation mode: HCD
Collision energy: Ramp 20%-70% (nominal)
Resolution: 30000
Column name: Waters; Acquity UPLC BEH C18, 2.1 x 100 mm, 1.7 um, Waters
Retention time: 9.656400
Base peak: 182.10497
Precursor m/z: 182.1048
Ion type: [M-H]-
m/z	relative intensity
67.03011	26
69.04605	446
70.04926	15
100.96712	20
111.06754	235
138.98833	16
154.07338	113
160.93433	80
178.01765	20
179.02135	17
180.0154	63
180.03094	15
180.03354	116
180.94032	25
180.98834	19
180.99095	21
181.01775	18
181.03767	81
181.99422	22
182.03113	329
182.10497	999
183.03444	31
183.04373	12
183.11021	62
183.13782	17
183.14081	17
