Mass spectrum: Nicotine; LC-ESI-QFT; MS2; CE: Ramp 20%-70% (nominal); R=30000; [M+H]+
Name: Nicotine
Name: 3-[(2S)-1-methylpyrrolidin-2-yl]pyridine
Class: Alkaloids; Cholinergic Agonists
Formula: C10H14N2
Exact mass: 162.1157
SMILES: N=1C=CC=C(C1)C2N(C)CCC2
InChI: InChI=1S/C10H14N2/c1-12-7-3-5-10(12)9-4-2-6-11-8-9/h2,4,6,8,10H,3,5,7H2,1H3/t10-/m0/s1
Instrument: QExactive Orbitrap HF-X (Thermo Scientific)
Instrument type: LC-ESI-QFT
Ms type: MS2
Ion mode: POSITIVE
Ionization: ESI
Fragmentation mode: HCD
Collision energy: Ramp 20%-70% (nominal)
Resolution: 30000
Column name: Waters; Acquity UPLC BEH C18, 2.1 x 100 mm, 1.7 um, Waters
Retention time: 6.404600
Base peak: NA
Precursor m/z: NA
Ion type: [M+H]+
m/z	relative intensity
80.05244	23
84.08346	45
106.06531	189
115.05415	17
117.05746	284
120.0807	82
130.06509	474
132.0807	495
163.1232	999
