Mass spectrum: Salbutamol; LC-APCI-QFT; MS2; CE: Ramp 20%-70% (nominal); R=30000; [M+H]+
Name: Salbutamol
Name: Albuterol
Class: Drugs; Amines; Ethylamines; Phenethylamines
Formula: C13H21NO3
Exact mass: 239.1521
SMILES: OC1=CC=C(C=C1CO)C(O)CNC(C)(C)C
InChI: InChI=1S/C13H21NO3/c1-13(2,3)14-7-12(17)9-4-5-11(16)10(6-9)8-15/h4-6,12,14-17H,7-8H2,1-3H3
Instrument: QExactive Orbitrap HF-X (Thermo Scientific)
Instrument type: LC-APCI-QFT
Ms type: MS2
Ion mode: POSITIVE
Ionization: APCI
Fragmentation mode: HCD
Collision energy: Ramp 20%-70% (nominal)
Resolution: 30000
Column name: Waters; Acquity UPLC BEH C18, 2.1 x 100 mm, 1.7 um, Waters
Retention time: 7.049400
Base peak: 184.11993
Precursor m/z: 240.1593
Ion type: [M+H]+
m/z	relative intensity
57.07011	76
79.0541	37
80.04943	23
91.05415	45
93.07002	41
93.07378	36
103.05469	54
106.06538	18
118.06465	21
120.08084	97
121.065	261
130.06506	156
131.04903	31
133.05222	169
148.07585	779
166.08672	537
213.9115	16
222.14894	999
240.15906	385
