Mass spectrum: Cotinine; LC-APCI-QFT; MS2; CE: Ramp 20%-70% (nominal); R=30000; [M+H]+
Name: Cotinine
Name: (5S)-1-methyl-5-pyridin-3-ylpyrrolidin-2-one
Class: Drugs; Pyrrolidines; Pyrrolidinones; Cholinergic Agonists
Formula: C10H12N2O
Exact mass: 176.0950
SMILES: O=C1N(C)C(C=2C=NC=CC2)CC1
InChI: InChI=1S/C10H12N2O/c1-12-9(4-5-10(12)13)8-3-2-6-11-7-8/h2-3,6-7,9H,4-5H2,1H3/t9-/m0/s1
Instrument: QExactive Orbitrap HF-X (Thermo Scientific)
Instrument type: LC-APCI-QFT
Ms type: MS2
Ion mode: POSITIVE
Ionization: APCI
Fragmentation mode: HCD
Collision energy: Ramp 20%-70% (nominal)
Resolution: 30000
Column name: Waters; Acquity UPLC BEH C18, 2.1 x 100 mm, 1.7 um, Waters
Retention time: 8.148200
Base peak: 241.09697
Precursor m/z: 177.1023
Ion type: [M+H]+
m/z	relative intensity
70.06519	16.001
80.04944	541.955
98.06039	163.146
118.06537	15.758
120.08141	12.186
146.06036	24.552
177.10205	999
