Mass spectrum: 1H-Benzimidazole; LC-APCI-QFT; MS2; CE: Ramp 20%-70% (nominal); R=30000; [M+H]+
Name: 1H-Benzimidazole
Name: Benzimidazole
Class: Pesticides; Fungicides; Benzimidazoles
Formula: C7H6N2
Exact mass: 118.0531
SMILES: N1=CNC=2C=CC=CC12
InChI: InChI=1S/C7H6N2/c1-2-4-7-6(3-1)8-5-9-7/h1-5H,(H,8,9)
Instrument: QExactive Orbitrap HF-X (Thermo Scientific)
Instrument type: LC-APCI-QFT
Ms type: MS2
Ion mode: POSITIVE
Ionization: APCI
Fragmentation mode: HCD
Collision energy: Ramp 20%-70% (nominal)
Resolution: 30000
Column name: Waters; Acquity UPLC BEH C18, 2.1 x 100 mm, 1.7 um, Waters
Retention time: 8.034500
Base peak: 119.06079
Precursor m/z: 119.0605
Ion type: [M+H]+
m/z	relative intensity
65.03868	16
92.04987	49
119.06079	999
