Mass spectrum: Dehydrocostus lactone; LC-APCI-QFT; MS2; CE: Ramp 20%-70% (nominal); R=30000; [M+H]+
Name: Dehydrocostus lactone
Name: (3aS,6aR,9aR,9bS)-3,6,9-trimethylidene-3a,4,5,6a,7,8,9a,9b-octahydroazuleno[4,5-b]furan-2-one
Class: Terpenes; Sesquiterpenes
Formula: C15H18O2
Exact mass: 230.1307
SMILES: C=C1CC[C@@H]2[C@@H]([C@@H]3[C@H]1CCC3=C)OC(=O)C2=C
InChI: InChI=1S/C15H18O2/c1-8-4-7-12-10(3)15(16)17-14(12)13-9(2)5-6-11(8)13/h11-14H,1-7H2/t11-,12-,13-,14-/m0/s1
Instrument: QExactive Orbitrap HF-X (Thermo Scientific)
Instrument type: LC-APCI-QFT
Ms type: MS2
Ion mode: POSITIVE
Ionization: APCI
Fragmentation mode: HCD
Collision energy: Ramp 20%-70% (nominal)
Resolution: 30000
Column name: Waters; Acquity UPLC BEH C18, 2.1 x 100 mm, 1.7 um, Waters
Retention time: 17.237900
Base peak: 305.10812
Precursor m/z: 231.1382
Ion type: [M+H]+
m/z	relative intensity
55.05455	29
67.05443	21
79.05291	47
81.06889	78
91.05433	111
93.06889	44
105.07058	140
107.08627	21
117.06984	70
119.08525	52
128.06235	105
129.06987	129
130.07779	22
131.08546	139
141.06995	35
142.0782	68
143.08559	194
145.10133	99
155.08548	46
156.09343	34
157.065	40
157.1012	100
159.11742	53
165.06992	33
170.10892	25
171.08044	34
175.0762	51
185.13284	492
187.14807	58
189.09201	27
195.11673	125
203.14415	24
213.12805	128
231.13866	999
