Mass spectrum: Carbofuran; LC-ESI-QFT; MS2; CE: Ramp 20%-70% (nominal); R=30000; [M+H]+
Name: Carbofuran
Name: (2,2-dimethyl-3H-1-benzofuran-7-yl) N-methylcarbamate
Class: Pesticides; Carbamate Insecticides; Phenylcarbamates
Formula: C12H15NO3
Exact mass: 221.1052
SMILES: O=C(OC1=CC=CC2=C1OC(C)(C)C2)NC
InChI: InChI=1S/C12H15NO3/c1-12(2)7-8-5-4-6-9(10(8)16-12)15-11(14)13-3/h4-6H,7H2,1-3H3,(H,13,14)
Instrument: QExactive Orbitrap HF-X (Thermo Scientific)
Instrument type: LC-ESI-QFT
Ms type: MS2
Ion mode: POSITIVE
Ionization: ESI
Fragmentation mode: HCD
Collision energy: Ramp 20%-70% (nominal)
Resolution: 30000
Column name: Waters; Acquity UPLC BEH C18, 2.1 x 100 mm, 1.7 um, Waters
Retention time: 13.081800
Base peak: NA
Precursor m/z: NA
Ion type: [M+H]+
m/z	relative intensity
55.05453	74
58.02895	19
67.05414	12
91.05391	46
95.04919	34
119.08594	17
123.04411	710
137.06006	34
147.08069	13
165.09152	999
222.11333	147
