Mass spectrum: Carbamazepine; LC-APCI-QFT; MS2; CE: Ramp 20%-70% (nominal); R=30000; [M+H]+
Name: Carbamazepine
Name: Benzo[b][1]benzazepine-11-carboxamide
Class: Drug; Anticonvulsants; Cytochrome P-450 Enzyme Inducers
Formula: C15H12N2O
Exact mass: 236.0950
SMILES: O=C(N)N1C=2C=CC=CC2C=CC=3C=CC=CC31
InChI: InChI=1S/C15H12N2O/c16-15(18)17-13-7-3-1-5-11(13)9-10-12-6-2-4-8-14(12)17/h1-10H,(H2,16,18)
Instrument: QExactive Orbitrap HF-X (Thermo Scientific)
Instrument type: LC-APCI-QFT
Ms type: MS2
Ion mode: POSITIVE
Ionization: APCI
Fragmentation mode: HCD
Collision energy: Ramp 20%-70% (nominal)
Resolution: 30000
Column name: Waters; Acquity UPLC BEH C18, 2.1 x 100 mm, 1.7 um, Waters
Retention time: 13.855300
Base peak: 160.05029
Precursor m/z: 237.1023
Ion type: [M+H]+
m/z	relative intensity
116.04965	5.14
152.06241	9.133
165.06996	37.651
167.07353	8.698
167.08513	17.719
177.07039	10.327
179.07304	82.98
190.06522	6.492
191.07318	22.629
192.08133	212.809
193.08847	187.333
194.09666	795.252
212.38472	5.357
220.07646	14.399
237.10187	999
