Mass spectrum: Cotinine; LC-ESI-QFT; MS2; CE: Ramp 20%-70% (nominal); R=30000; [M+H]+
Name: Cotinine
Name: (5S)-1-methyl-5-pyridin-3-ylpyrrolidin-2-one
Class: Drugs; Pyrrolidines; Pyrrolidinones; Cholinergic Agonists
Formula: C10H12N2O
Exact mass: 176.0950
SMILES: O=C1N(C)C(C=2C=NC=CC2)CC1
InChI: InChI=1S/C10H12N2O/c1-12-9(4-5-10(12)13)8-3-2-6-11-7-8/h2-3,6-7,9H,4-5H2,1H3/t9-/m0/s1
Instrument: QExactive Orbitrap HF-X (Thermo Scientific)
Instrument type: LC-ESI-QFT
Ms type: MS2
Ion mode: POSITIVE
Ionization: ESI
Fragmentation mode: HCD
Collision energy: Ramp 20%-70% (nominal)
Resolution: 30000
Column name: Waters; Acquity UPLC BEH C18, 2.1 x 100 mm, 1.7 um, Waters
Retention time: 8.158100
Base peak: NA
Precursor m/z: NA
Ion type: [M+H]+
m/z	relative intensity
70.06525	16.515
80.04941	486.46
98.06034	161.599
118.06546	15.967
120.08061	11.594
146.06023	27.481
149.07124	6.009
177.08794	5.276
177.10216	999
