Mass spectrum: Perfluorooctanoic acid; LC-ESI-QFT; MS2; CE:40; R=30000; [M-H]-
Name: Perfluorooctanoic acid
Name: 2,2,3,3,4,4,5,5,6,6,7,7,8,8,8-pentadecafluorooctanoic acid
Class: Perfluoroalkyl Acids; Caprylates; Carboxylic acid; Fluoroalkanoic acid; Water repellant; PFAS
Formula: C8HF15O2
Exact mass: 413.9737
SMILES: OC(=O)C(F)(F)C(F)(F)C(F)(F)C(F)(F)C(F)(F)C(F)(F)C(F)(F)F
InChI: InChI=1S/C8HF15O2/c9-2(10,1(24)25)3(11,12)4(13,14)5(15,16)6(17,18)7(19,20)8(21,22)23/h(H,24,25)
Instrument: QExactive Orbitrap HF-X (Thermo Scientific)
Instrument type: LC-ESI-QFT
Ms type: MS2
Ion mode: NEGATIVE
Ionization: ESI
Collision energy: 40
Column name: Acquity UPLC BEH C18, 3.0 x 100 mm, 1.7 um, Waters
Ion type: [M-H]-
m/z	relative intensity
79.95728	227.737
80.96526	288.251
118.99259	64.317
168.98938	999
169.99263	32.681
171.99934	169.685
218.98685	240.619
221.9955	45.162
280.98334	26.789
368.97708	196.847
369.97995	15.764
371.98578	88.157
406.96143	71.245
408.97009	35.33
