Mass spectrum: Diphenyl Phosphate; LC-ESI-QFT; MS2; CE: Ramp 20%-70% (nominal); R=30000; [M+H]+
Name: Diphenyl Phosphate
Name: Phosphoric acid diphenyl ester
Class: Aryl phosphate
Formula: C12H11O4P
Exact mass: 126.0082
SMILES: O=P(O)(OC=1C=CC=CC1)OC=2C=CC=CC2
InChI: InChI=1S/C12H11O4P/c13-17(14,15-11-7-3-1-4-8-11)16-12-9-5-2-6-10-12/h1-10H,(H,13,14)
Instrument: QExactive Orbitrap HF-X (Thermo Scientific)
Instrument type: LC-ESI-QFT
Ms type: MS2
Ion mode: POSITIVE
Ionization: ESI
Fragmentation mode: HCD
Collision energy: Ramp 20%-70% (nominal)
Resolution: 30000
Column name: Waters; Acquity UPLC BEH C18, 2.1 x 100 mm, 1.7 um, Waters
Retention time: 11.987200
Base peak: NA
Precursor m/z: NA
Ion type: [M+H]+
m/z	relative intensity
51.02338	31
53.03896	111
77.04088	46
81.04079	10
95.04963	152
105.04579	57
152.06244	127
153.07025	23
168.0575	23
175.0154	39
215.02609	9
233.03731	12
251.04739	999
