Mass spectrum: 3,5-Dinitrosalicylic acid; LC-ESI-QFT; MS2; CE:40; R=30000; [M-H]-
Name: 3,5-Dinitrosalicylic acid
Name: 2-hydroxy-3,5-dinitrobenzoic acid
Class: Nitrobenzoic Acids; Phenols; Hydroxybenzoic acid; Salicylates
Formula: C7H4N2O7
Exact mass: 228.0018
SMILES: OC(=O)c1cc(cc(c1O)[N+](=O)[O-])[N+](=O)[O-]
InChI: InChI=1S/C7H4N2O7/c10-6-4(7(11)12)1-3(8(13)14)2-5(6)9(15)16/h1-2,10H,(H,11,12)
Instrument: QExactive Orbitrap HF-X (Thermo Scientific)
Instrument type: LC-ESI-QFT
Ms type: MS2
Ion mode: NEGATIVE
Ionization: ESI
Collision energy: 40
Column name: Acquity UPLC BEH C18, 3.0 x 100 mm, 1.7 um, Waters
Ion type: [M-H]-
m/z	relative intensity
58.02972	24.814
59.01377	8.969
67.01891	5.641
68.99619	12.038
68.99834	12.038
83.05057	6.174
95.0139	37.583
109.01714	8.722
123.0089	154.035
124.01244	8.453
153.00732	240.993
154.00981	17.659
182.15495	23.156
183.00505	999
184.00879	68.261
226.99513	23.156
