Mass spectrum: Paracetamol; LC-ESI-QFT; MS2; CE: Ramp 20%-70% (nominal); R=30000; [M+H]+
Name: Paracetamol
Name: Acetaminophen
Class: Drugs; Amines; Anilides; Acetanilides
Formula: C8H9NO2
Exact mass: 151.0633
SMILES: O=C(NC1=CC=C(O)C=C1)C
InChI: InChI=1S/C8H9NO2/c1-6(10)9-7-2-4-8(11)5-3-7/h2-5,11H,1H3,(H,9,10)
Instrument: QExactive Orbitrap HF-X (Thermo Scientific)
Instrument type: LC-ESI-QFT
Ms type: MS2
Ion mode: POSITIVE
Ionization: ESI
Fragmentation mode: HCD
Collision energy: Ramp 20%-70% (nominal)
Resolution: 30000
Column name: Waters; Acquity UPLC BEH C18, 2.1 x 100 mm, 1.7 um, Waters
Retention time: 6.451800
Base peak: NA
Precursor m/z: NA
Ion type: [M+H]+
m/z	relative intensity
58.06543	17
59.07315	21
65.03873	61
82.06526	25
92.04984	65
93.03372	112
109.05246	6
110.06029	939
111.04431	47
121.04024	5
134.05983	17
152.04639	28
152.04865	34
152.0708	999
