Mass spectrum: Malathion; LC-ESI-QFT; MS2; CE: Ramp 20%-70% (nominal); R=30000; [M-H]-
Name: Malathion
Name: Diethyl 2-dimethoxyphosphinothioylsulfanylbutanedioate
Class: Pesticides; Organophosphate Insecticides; Organothiophosphates
Formula: C10H19O6PS2
Exact mass: 330.0361
SMILES: O=C(OCC)CC(SP(=S)(OC)OC)C(=O)OCC
InChI: InChI=1S/C10H19O6PS2/c1-5-15-9(11)7-8(10(12)16-6-2)19-17(18,13-3)14-4/h8H,5-7H2,1-4H3
Instrument: QExactive Orbitrap HF-X (Thermo Scientific)
Instrument type: LC-ESI-QFT
Ms type: MS2
Ion mode: NEGATIVE
Ionization: ESI
Fragmentation mode: HCD
Collision energy: Ramp 20%-70% (nominal)
Resolution: 30000
Column name: Waters; Acquity UPLC BEH C18, 2.1 x 100 mm, 1.7 um, Waters
Retention time: 16.243300
Base peak: 124.98332
Precursor m/z: 329.0288
Ion type: [M-H]-
m/z	relative intensity
78.95918	160.555
94.93643	675.06
124.98332	999
203.03871	124.084
212.25923	19.969
329.23215	18.162
