Mass spectrum: Diuron; LC-APCI-QFT; MS2; CE: Ramp 20%-70% (nominal); R=30000; [M+H]+
Name: Diuron
Name: 3-(3,4-dichlorophenyl)-1,1-dimethylurea
Class: Pesticides; Herbicides; Urea Derivatives; Benzene Derivatives
Formula: C9H10Cl2N2O
Exact mass: 232.0170
SMILES: O=C(NC1=CC=C(Cl)C(Cl)=C1)N(C)C
InChI: InChI=1S/C9H10Cl2N2O/c1-13(2)9(14)12-6-3-4-7(10)8(11)5-6/h3-5H,1-2H3,(H,12,14)
Instrument: QExactive Orbitrap HF-X (Thermo Scientific)
Instrument type: LC-APCI-QFT
Ms type: MS2
Ion mode: POSITIVE
Ionization: APCI
Fragmentation mode: HCD
Collision energy: Ramp 20%-70% (nominal)
Resolution: 30000
Column name: Waters; Acquity UPLC BEH C18, 2.1 x 100 mm, 1.7 um, Waters
Retention time: 14.645700
Base peak: 158.11751
Precursor m/z: 233.0246
Ion type: [M+H]+
m/z	relative intensity
56.0134	9
72.0444	999
132.96088	7
159.97188	64
211.11903	5
211.13097	17
233.024	992
