Mass spectrum: Aspirin; LC-APCI-QFT; MS2; CE: Ramp 20%-70% (nominal); R=30000; [M+H]+
Name: Aspirin
Name: Acetylsalicylic acid
Class: Drugs; Benzoates; Hydroxybenzoates; Salicylates
Formula: C9H8O4
Exact mass: 180.0423
SMILES: O=C(O)C=1C=CC=CC1OC(=O)C
InChI: InChI=1S/C9H8O4/c1-6(10)13-8-5-3-2-4-7(8)9(11)12/h2-5H,1H3,(H,11,12)
Instrument: QExactive Orbitrap HF-X (Thermo Scientific)
Instrument type: LC-APCI-QFT
Ms type: MS2
Ion mode: POSITIVE
Ionization: APCI
Fragmentation mode: HCD
Collision energy: Ramp 20%-70% (nominal)
Resolution: 30000
Column name: Waters; Acquity UPLC BEH C18, 2.1 x 100 mm, 1.7 um, Waters
Retention time: 11.163700
Base peak: 149.02261
Precursor m/z: 181.0497
Ion type: [M+H]+
m/z	relative intensity
53.039	52
65.03879	86
79.05413	36
93.03392	34
95.04932	38
105.03342	21
121.02809	176
121.03934	54
133.02843	95
135.04321	93
135.04491	99
149.02261	999
149.02432	962
163.03806	621
163.04001	601
167.03308	36
167.03511	34
181.0567	46
181.06978	34
181.07239	63
181.08482	25
181.1208	28
