Mass spectrum: Losartan; LC-APCI-QFT; MS2; CE: Ramp 20%-70% (nominal); R=30000; [M-H]-
Name: Losartan
Name: [2-butyl-5-chloro-3-[[4-[2-(2H-tetrazol-5-yl)phenyl]phenyl]methyl]imidazol-4-yl]methanol
Class: Drugs; Angiotensin II Receptor Antagonists; Benzene Derivatives; Biphenyl Compounds
Formula: C22H23ClN6O
Exact mass: 422.1622
SMILES: ClC=1N=C(N(C1CO)CC2=CC=C(C=C2)C3=CC=CC=C3C=4N=NNN4)CCCC
InChI: InChI=1S/C22H23ClN6O/c1-2-3-8-20-24-21(23)19(14-30)29(20)13-15-9-11-16(12-10-15)17-6-4-5-7-18(17)22-25-27-28-26-22/h4-7,9-12,30H,2-3,8,13-14H2,1H3,(H,25,26,27,28)
Instrument: QExactive Orbitrap HF-X (Thermo Scientific)
Instrument type: LC-APCI-QFT
Ms type: MS2
Ion mode: NEGATIVE
Ionization: APCI
Fragmentation mode: HCD
Collision energy: Ramp 20%-70% (nominal)
Resolution: 30000
Column name: Waters; Acquity UPLC BEH C18, 2.1 x 100 mm, 1.7 um, Waters
Retention time: 14.547200
Base peak: 421.15741
Precursor m/z: 421.1550
Ion type: [M-H]-
m/z	relative intensity
113.99915	56
127.00673	573
128.01039	17
129.00436	101
141.994	25
143.99051	17
155.03854	81
157.05357	248
159.05106	44
165.07024	19
179.08678	318
180.09077	27
185.04837	123
187.04301	30
187.04611	73
187.0643	160
188.03447	17
189.06207	17
193.06589	15
195.08183	57
211.02095	70
211.02425	119
291.06931	25
335.13187	90
336.13516	19
363.14062	28
385.23413	18
393.15005	29
421.15741	999
422.15771	264
423.15344	173
