Mass spectrum: 5,6-Dimethylbenzimidazole; LC-ESI-QFT; MS2; CE: Ramp 20%-70% (nominal); R=30000; [M+H]+
Name: 5,6-Dimethylbenzimidazole
Name: 5,6-dimethyl-1H-benzimidazole
Class: Benzimidazoles
Formula: C9H10N2
Exact mass: 146.0844
SMILES: N1=CNC=2C=C(C(=CC12)C)C
InChI: InChI=1S/C9H10N2/c1-6-3-8-9(4-7(6)2)11-5-10-8/h3-5H,1-2H3,(H,10,11)
Instrument: QExactive Orbitrap HF-X (Thermo Scientific)
Instrument type: LC-ESI-QFT
Ms type: MS2
Ion mode: POSITIVE
Ionization: ESI
Fragmentation mode: HCD
Collision energy: Ramp 20%-70% (nominal)
Resolution: 30000
Column name: Waters; Acquity UPLC BEH C18, 2.1 x 100 mm, 1.7 um, Waters
Retention time: 12.156900
Base peak: NA
Precursor m/z: NA
Ion type: [M+H]+
m/z	relative intensity
93.07423	7.902
106.06641	7.29
120.08064	27.257
131.06047	28.731
132.06535	8.902
132.06821	103.802
145.07599	21.736
146.0842	6.094
147.09195	999
