Mass spectrum: 2-Naphthalenesulfonic acid; LC-ESI-QFT; MS2; CE: Ramp 20%-70% (nominal); R=30000; [M-H]-
Name: 2-Naphthalenesulfonic acid
Name: Naphthalene-2-sulfonic acid
Class: Polycyclic Aromatic Hydrocarbons; Naphthalenes; Naphthalenesulfonates; Organosulfonic acids; Arenesulfonic acids
Formula: C10H8O3S
Exact mass: 208.0194
SMILES: O=S(=O)(O)C=1C=CC=2C=CC=CC2C1
InChI: InChI=1S/C10H8O3S/c11-14(12,13)10-6-5-8-3-1-2-4-9(8)7-10/h1-7H,(H,11,12,13)
Instrument: QExactive Orbitrap HF-X (Thermo Scientific)
Instrument type: LC-ESI-QFT
Ms type: MS2
Ion mode: NEGATIVE
Ionization: ESI
Fragmentation mode: HCD
Collision energy: Ramp 20%-70% (nominal)
Resolution: 30000
Column name: Waters; Acquity UPLC BEH C18, 2.1 x 100 mm, 1.7 um, Waters
Retention time: 9.378700
Base peak: 182.02126
Precursor m/z: 182.0210
Ion type: [M-H]-
m/z	relative intensity
79.95751	214.373
115.05521	10.022
143.05013	398.972
207.01207	999
