Mass spectrum: Metronidazole; LC-APCI-QFT; MS2; CE: Ramp 20%-70% (nominal); R=30000; [M+H]+
Name: Metronidazole
Name: 2-(2-methyl-5-nitroimidazol-1-yl)ethanol
Class: Drugs; Antiinfective Agents; Nitroimidazoles
Formula: C6H9N3O3
Exact mass: 171.0644
SMILES: O=[N+]([O-])C1=CN=C(N1CCO)C
InChI: InChI=1S/C6H9N3O3/c1-5-7-4-6(9(11)12)8(5)2-3-10/h4,10H,2-3H2,1H3
Instrument: QExactive Orbitrap HF-X (Thermo Scientific)
Instrument type: LC-APCI-QFT
Ms type: MS2
Ion mode: POSITIVE
Ionization: APCI
Fragmentation mode: HCD
Collision energy: Ramp 20%-70% (nominal)
Resolution: 30000
Column name: Waters; Acquity UPLC BEH C18, 2.1 x 100 mm, 1.7 um, Waters
Retention time: 6.876500
Base peak: 62.06032
Precursor m/z: 172.0716
Ion type: [M+H]+
m/z	relative intensity
56.03719	50
69.04494	9
82.05251	26
98.04759	49
111.04292	47
128.04538	999
172.07175	649
