Mass spectrum: Chlorpyrifos; LC-APCI-QFT; MS2; CE: Ramp 20%-70% (nominal); R=30000; [M+H]+
Name: Chlorpyrifos
Name: Diethoxy-sulfanylidene-(3,5,6-trichloropyridin-2-yl)oxy-lambda5-phosphane
Class: Pesticides; Organophosphate Insecticides; Organothiophosphates
Formula: C9H11Cl3NO3PS
Exact mass: 348.9263
SMILES: S=P(OC1=NC(Cl)=C(Cl)C=C1Cl)(OCC)OCC
InChI: InChI=1S/C9H11Cl3NO3PS/c1-3-14-17(18,15-4-2)16-9-7(11)5-6(10)8(12)13-9/h5H,3-4H2,1-2H3
Instrument: QExactive Orbitrap HF-X (Thermo Scientific)
Instrument type: LC-APCI-QFT
Ms type: MS2
Ion mode: POSITIVE
Ionization: APCI
Fragmentation mode: HCD
Collision energy: Ramp 20%-70% (nominal)
Resolution: 30000
Column name: Waters; Acquity UPLC BEH C18, 2.1 x 100 mm, 1.7 um, Waters
Retention time: 19.401900
Base peak: 213.11406
Precursor m/z: 349.9336
Ion type: [M+H]+
m/z	relative intensity
64.97881	22
78.94022	10
96.95042	197
106.94464	63
114.9614	999
124.98228	17
128.97701	11
132.97229	15
133.9558	138
142.9928	21
150.91753	21
153.01347	95
161.95068	7
171.02397	241
177.92847	21
179.91724	13
179.96161	143
185.03955	6
195.93863	5
197.92804	983
212.58415	5
212.89648	9
213.90474	60
225.95868	6
229.89865	5
275.85995	12
293.87167	204
303.8923	7
321.90234	254
349.93301	152
