Mass spectrum: 5,6-Dimethylbenzimidazole; LC-APCI-QFT; MS2; CE: Ramp 20%-70% (nominal); R=30000; [M-H]-
Name: 5,6-Dimethylbenzimidazole
Name: 5,6-dimethyl-1H-benzimidazole
Class: Benzimidazoles
Formula: C9H10N2
Exact mass: 146.0844
SMILES: N1=CNC=2C=C(C(=CC12)C)C
InChI: InChI=1S/C9H10N2/c1-6-3-8-9(4-7(6)2)11-5-10-8/h3-5H,1-2H3,(H,10,11)
Instrument: QExactive Orbitrap HF-X (Thermo Scientific)
Instrument type: LC-APCI-QFT
Ms type: MS2
Ion mode: NEGATIVE
Ionization: APCI
Fragmentation mode: HCD
Collision energy: Ramp 20%-70% (nominal)
Resolution: 30000
Column name: Waters; Acquity UPLC BEH C18, 2.1 x 100 mm, 1.7 um, Waters
Retention time: 12.047400
Base peak: 145.07739
Precursor m/z: 145.0772
Ion type: [M-H]-
m/z	relative intensity
130.05345	14.536
131.04922	11.903
143.05119	10.637
143.06152	24.181
143.10701	25.892
143.10884	27.121
144.04445	18.605
144.06741	16.104
144.06973	56.41
144.11082	6.623
145.0305	11.754
145.07739	999
146.02293	20.482
146.02625	28.538
146.03595	5.674
146.06201	10
146.07314	21.188
146.08072	107.003
147.04448	6.884
147.05669	9.804
147.06744	8.706
147.08276	6.108
