Mass spectrum: 2-Hydroxybenzimidazole; LC-ESI-QFT; MS2; CE: Ramp 20%-70% (nominal); R=30000; [M+H]+
Name: 2-Hydroxybenzimidazole
Name: 1,3-dihydrobenzimidazol-2-one
Class: Benzimidazoles
Formula: C7H6N2O
Exact mass: 134.0480
SMILES: O=C1NC=2C=CC=CC2N1
InChI: InChI=1S/C7H6N2O/c10-7-8-5-3-1-2-4-6(5)9-7/h1-4H,(H2,8,9,10)
Instrument: QExactive Orbitrap HF-X (Thermo Scientific)
Instrument type: LC-ESI-QFT
Ms type: MS2
Ion mode: POSITIVE
Ionization: ESI
Fragmentation mode: HCD
Collision energy: Ramp 20%-70% (nominal)
Resolution: 30000
Column name: Waters; Acquity UPLC BEH C18, 2.1 x 100 mm, 1.7 um, Waters
Retention time: 8.337200
Base peak: NA
Precursor m/z: NA
Ion type: [M+H]+
m/z	relative intensity
65.0387	10.133
80.05441	29.114
92.05478	73.79
93.0616	22.121
107.06145	162.296
135.05533	999
