Mass spectrum: Disperse Yellow 3; LC-ESI-QFT; MS2; CE: Ramp 20%-70% (nominal); R=30000; [M+H]+
Name: Disperse Yellow 3
Name: N-[4-[(2-hydroxy-5-methylphenyl)diazenyl]phenyl]acetamide
Class: Azo Dyes
Formula: C15H15N3O2
Exact mass: 269.1164
SMILES: O=C(NC1=CC=C(N=NC2=CC(=CC=C2O)C)C=C1)C
InChI: InChI=1S/C15H15N3O2/c1-10-3-8-15(20)14(9-10)18-17-13-6-4-12(5-7-13)16-11(2)19/h3-9,20H,1-2H3,(H,16,19)
Instrument: QExactive Orbitrap HF-X (Thermo Scientific)
Instrument type: LC-ESI-QFT
Ms type: MS2
Ion mode: POSITIVE
Ionization: ESI
Fragmentation mode: HCD
Collision energy: Ramp 20%-70% (nominal)
Resolution: 30000
Column name: Waters; Acquity UPLC BEH C18, 2.1 x 100 mm, 1.7 um, Waters
Retention time: 17.621900
Base peak: NA
Precursor m/z: NA
Ion type: [M+H]+
m/z	relative intensity
65.03876	40
80.05438	55
92.05486	28
94.06929	33
107.06137	880
108.06941	738
109.05246	21
109.07631	20
120.04456	51
122.06012	175
133.0762	10
149.07143	233
150.07895	410
151.08676	104
211.08647	15
228.11288	33
253.12122	23
255.09998	12
270.12326	999
