Mass spectrum: Simazine-2-hydroxy; LC-APCI-QFT; MS2; CE: Ramp 20%-70% (nominal); R=30000; [M+H]+
Name: Simazine-2-hydroxy
Name: 4,6-bis(ethylamino)-1H-1,3,5-triazin-2-one
Class: Pesticide metabolites; Herbicides; Triazines
Formula: C7H13N5O
Exact mass: 183.1120
SMILES: O=C1N=C(N=C(N1)NCC)NCC
InChI: InChI=1S/C7H13N5O/c1-3-8-5-10-6(9-4-2)12-7(13)11-5/h3-4H2,1-2H3,(H3,8,9,10,11,12,13)
Instrument: QExactive Orbitrap HF-X (Thermo Scientific)
Instrument type: LC-APCI-QFT
Ms type: MS2
Ion mode: POSITIVE
Ionization: APCI
Fragmentation mode: HCD
Collision energy: Ramp 20%-70% (nominal)
Resolution: 30000
Column name: Waters; Acquity UPLC BEH C18, 2.1 x 100 mm, 1.7 um, Waters
Retention time: 9.663400
Base peak: 251.05948
Precursor m/z: 184.1195
Ion type: [M+H]+
m/z	relative intensity
69.00844	168.004
71.06032	44.359
86.03489	21.426
96.03969	8.114
97.04308	107.74
114.06602	335.047
124.08701	5.24
156.08762	8.596
184.11993	999
