Mass spectrum: Norharman; LC-APCI-QFT; MS2; CE: Ramp 20%-70% (nominal); R=30000; [M+H]+
Name: Norharman
Name: 9H-pyrido[3,4-b]indole
Class: Indole Alkaloids; Carbolines
Formula: C11H8N2
Exact mass: 168.0687
SMILES: N=1C=CC2=C(C1)NC=3C=CC=CC32
InChI: InChI=1S/C11H8N2/c1-2-4-10-8(3-1)9-5-6-12-7-11(9)13-10/h1-7,13H
Instrument: QExactive Orbitrap HF-X (Thermo Scientific)
Instrument type: LC-APCI-QFT
Ms type: MS2
Ion mode: POSITIVE
Ionization: APCI
Fragmentation mode: HCD
Collision energy: Ramp 20%-70% (nominal)
Resolution: 30000
Column name: Waters; Acquity UPLC BEH C18, 2.1 x 100 mm, 1.7 um, Waters
Retention time: 13.150700
Base peak: 250.08711
Precursor m/z: 169.0760
Ion type: [M+H]+
m/z	relative intensity
115.05412	17.97
142.06549	10.045
168.06824	12.726
169.07631	999
