Mass spectrum: Disperse Orange 1; LC-APCI-QFT; MS2; CE: Ramp 20%-70% (nominal); R=30000; [M-H]-
Name: Disperse Orange 1
Name: 4-[(4-nitrophenyl)diazenyl]-N-phenylaniline
Class: Azo Dyes
Formula: C18H14N4O2
Exact mass: 318.1117
SMILES: O=[N+]([O-])C1=CC=C(N=NC2=CC=C(C=C2)NC=3C=CC=CC3)C=C1
InChI: InChI=1S/C18H14N4O2/c23-22(24)18-12-10-17(11-13-18)21-20-16-8-6-15(7-9-16)19-14-4-2-1-3-5-14/h1-13,19H
Instrument: QExactive Orbitrap HF-X (Thermo Scientific)
Instrument type: LC-APCI-QFT
Ms type: MS2
Ion mode: NEGATIVE
Ionization: APCI
Fragmentation mode: HCD
Collision energy: Ramp 20%-70% (nominal)
Resolution: 30000
Column name: Waters; Acquity UPLC BEH C18, 2.1 x 100 mm, 1.7 um, Waters
Retention time: 19.770100
Base peak: 318.11264
Precursor m/z: 317.1047
Ion type: [M-H]-
m/z	relative intensity
62.96402	85
74.27216	7
78.03487	10
78.95917	41
90.03511	7
92.02701	69
93.03416	7
94.93628	321
94.95255	7
95.01366	20
95.0144	18
95.94415	17
96.9323	36
108.02168	15
111.93889	9
122.02432	55
122.02557	52
134.88304	7
136.02788	32
139.97067	16
140.97867	27
151.43967	7
166.06615	45
167.0746	28
170.06078	25
183.06912	15
190.97256	8
191.97653	8
192.96976	17
207.95738	17
212.3761	23
212.39272	21
241.07347	12
260.10831	19
271.11124	40
287.10617	33
288.11407	241
289.1174	34
315.95468	154
316.95856	20
317.104	253
317.95129	33
318.11264	999
319.11688	114
