Mass spectrum: Metalaxyl; LC-APCI-QFT; MS2; CE: Ramp 20%-70% (nominal); R=30000; [M-H]-
Name: Metalaxyl
Name: Methyl 2-(N-(2-methoxyacetyl)-2,6-dimethylanilino)propanoate
Class: Pesticides; Fungicides; Carboxamides
Formula: C15H21NO4
Exact mass: 279.1471
SMILES: O=C(OC)C(N(C(=O)COC)C=1C(=CC=CC1C)C)C
InChI: InChI=1S/C15H21NO4/c1-10-7-6-8-11(2)14(10)16(13(17)9-19-4)12(3)15(18)20-5/h6-8,12H,9H2,1-5H3
Instrument: QExactive Orbitrap HF-X (Thermo Scientific)
Instrument type: LC-APCI-QFT
Ms type: MS2
Ion mode: NEGATIVE
Ionization: APCI
Fragmentation mode: HCD
Collision energy: Ramp 20%-70% (nominal)
Resolution: 30000
Column name: Waters; Acquity UPLC BEH C18, 2.1 x 100 mm, 1.7 um, Waters
Retention time: 14.781000
Base peak: 218.11829
Precursor m/z: 278.1397
Ion type: [M-H]-
m/z	relative intensity
59.01379	19
75.00899	50
87.04509	16
89.02444	25
92.99585	12
106.04144	97
122.07256	50
127.11292	10
130.06616	563
131.06932	49
142.99287	11
144.082	80
145.0851	11
146.06079	17
148.07675	13
158.06024	15
161.96935	14
170.09756	18
172.07695	48
174.09233	120
175.09621	17
186.09225	23
196.0184	13
203.0916	158
203.09509	563
204.09885	76
208.98514	12
213.10876	34
214.08768	74
216.10252	16
218.11267	55
218.11829	999
219.12239	119
221.15065	13
231.0903	37
246.11369	284
247.11768	44
259.05811	14
276.16968	20
277.07593	237
277.14218	24
277.18179	54
277.2171	13
277.996	41
278.07996	35
278.14035	134
279.14267	30
279.16205	14
279.23218	20
