Mass spectrum: Red 2G; LC-ESI-QFT; MS2; CE: Ramp 20%-70% (nominal); R=30000; [M-H]-
Name: Red 2G
Name: 5-acetamido-4-hydroxy-3-phenyldiazenylnaphthalene-2,7-disulfonic acid
Class: Dye; Food additives; Azo compounds; Naphthols; Azobenzenes
Formula: C18H15N3O8S2
Exact mass: 465.0301
SMILES: O=C(NC1=CC(=CC=2C=C(C(N=NC=3C=CC=CC3)=C(O)C21)S(=O)(=O)O)S(=O)(=O)O)C
InChI: InChI=1S/C18H15N3O8S2/c1-10(22)19-14-9-13(30(24,25)26)7-11-8-15(31(27,28)29)17(18(23)16(11)14)21-20-12-5-3-2-4-6-12/h2-9,23H,1H3,(H,19,22)(H,24,25,26)(H,27,28,29)
Instrument: QExactive Orbitrap HF-X (Thermo Scientific)
Instrument type: LC-ESI-QFT
Ms type: MS2
Ion mode: NEGATIVE
Ionization: ESI
Fragmentation mode: HCD
Collision energy: Ramp 20%-70% (nominal)
Resolution: 30000
Column name: Waters; Acquity UPLC BEH C18, 2.1 x 100 mm, 1.7 um, Waters
Retention time: 9.849500
Base peak: 464.02279
Precursor m/z: 464.0230
Ion type: [M-H]-
m/z	relative intensity
79.95764	48.271
80.96538	13.861
143.02557	24.066
156.0459	10.717
157.04037	11.066
160.04185	12.815
173.04834	16.786
184.04022	15.431
185.03589	161.499
198.05606	13.698
200.03505	88.753
210.78304	35.176
224.00204	13.665
227.04677	30.499
237.01125	26.333
253.0045	17.48
262.01813	27.459
263.99667	138.613
278.01321	20.987
343.95544	26.121
358.97803	157.908
464.02279	999
