Mass spectrum: Diazinon; LC-APCI-QFT; MS2; CE: Ramp 20%-70% (nominal); R=30000; [M+H]+
Name: Diazinon
Name: Diethoxy-(6-methyl-2-propan-2-ylpyrimidin-4-yl)oxy-sulfanylidene-lambda5-phosphane
Class: Pesticides; Organophosphate Insecticides; Organothiophosphates
Formula: C12H21N2O3PS
Exact mass: 304.1011
SMILES: S=P(OC=1N=C(N=C(C1)C)C(C)C)(OCC)OCC
InChI: InChI=1S/C12H21N2O3PS/c1-6-15-18(19,16-7-2)17-11-8-10(5)13-12(14-11)9(3)4/h8-9H,6-7H2,1-5H3
Instrument: QExactive Orbitrap HF-X (Thermo Scientific)
Instrument type: LC-APCI-QFT
Ms type: MS2
Ion mode: POSITIVE
Ionization: APCI
Fragmentation mode: HCD
Collision energy: Ramp 20%-70% (nominal)
Resolution: 30000
Column name: Waters; Acquity UPLC BEH C18, 2.1 x 100 mm, 1.7 um, Waters
Retention time: 17.724300
Base peak: 214.04253
Precursor m/z: 305.1082
Ion type: [M+H]+
m/z	relative intensity
70.06519	64.445
84.04445	122.737
96.95043	108.949
98.98446	23.914
100.02152	200.161
109.00473	23.065
114.96144	246.596
153.10196	229.822
169.07983	471.313
214.17374	10.013
305.10812	999
