Mass spectrum: Chlorpyrifos; LC-ESI-QFT; MS2; CE: Ramp 20%-70% (nominal); R=30000; [M+H]+
Name: Chlorpyrifos
Name: Diethoxy-sulfanylidene-(3,5,6-trichloropyridin-2-yl)oxy-lambda5-phosphane
Class: Pesticides; Organophosphate Insecticides; Organothiophosphates
Formula: C9H11Cl3NO3PS
Exact mass: 348.9263
SMILES: S=P(OC1=NC(Cl)=C(Cl)C=C1Cl)(OCC)OCC
InChI: InChI=1S/C9H11Cl3NO3PS/c1-3-14-17(18,15-4-2)16-9-7(11)5-6(10)8(12)13-9/h5H,3-4H2,1-2H3
Instrument: QExactive Orbitrap HF-X (Thermo Scientific)
Instrument type: LC-ESI-QFT
Ms type: MS2
Ion mode: POSITIVE
Ionization: ESI
Fragmentation mode: HCD
Collision energy: Ramp 20%-70% (nominal)
Resolution: 30000
Column name: Waters; Acquity UPLC BEH C18, 2.1 x 100 mm, 1.7 um, Waters
Retention time: 19.413700
Base peak: NA
Precursor m/z: NA
Ion type: [M+H]+
m/z	relative intensity
64.97885	29.418
78.94016	24.984
96.95015	431.51
106.94515	101.977
114.9614	999
124.98209	16.514
133.95598	216.222
150.91772	20.641
153.01341	64.274
161.95088	11.193
171.02419	53.079
177.92867	29.261
179.91743	20.227
179.9615	197.29
197.92825	721.667
212.80251	15.882
213.90495	61.251
275.85956	10.802
293.87189	82.18
321.90253	86.647
349.9332	40.851
