Mass spectrum: Atrazine-desethyl; LC-APCI-QFT; MS2; CE: Ramp 20%-70% (nominal); R=30000; [M+H]+
Name: Atrazine-desethyl
Name: 6-chloro-2-N-propan-2-yl-1,3,5-triazine-2,4-diamine
Class: Pesticide metabolites; Herbicides; Triazines
Formula: C6H10ClN5
Exact mass: 187.0625
SMILES: ClC=1N=C(N=C(N1)NC(C)C)N
InChI: InChI=1S/C6H10ClN5/c1-3(2)9-6-11-4(7)10-5(8)12-6/h3H,1-2H3,(H3,8,9,10,11,12)
Instrument: QExactive Orbitrap HF-X (Thermo Scientific)
Instrument type: LC-APCI-QFT
Ms type: MS2
Ion mode: POSITIVE
Ionization: APCI
Fragmentation mode: HCD
Collision energy: Ramp 20%-70% (nominal)
Resolution: 30000
Column name: Waters; Acquity UPLC BEH C18, 2.1 x 100 mm, 1.7 um, Waters
Retention time: 10.650300
Base peak: 170.10399
Precursor m/z: 188.0699
Ion type: [M+H]+
m/z	relative intensity
68.02452	68.812
79.00547	148.69
104.00134	169.073
110.04601	60.21
146.02318	433.27
156.01163	40.705
188.03813	22.89
188.06929	999
