Mass spectrum: Acesulfam; LC-APCI-QFT; MS2; CE: Ramp 20%-70% (nominal); R=30000; [M-H]-
Name: Acesulfam
Name: 6-methyl-2,2-dioxooxathiazin-4-one
Class: Thiazines; Artificial Sweeteners
Formula: C4H5NO4S
Exact mass: 162.9939
SMILES: O=C1C=C(OS(=O)(=O)N1)C
InChI: InChI=1S/C4H5NO4S/c1-3-2-4(6)5-10(7,8)9-3/h2H,1H3,(H,5,6)
Instrument: QExactive Orbitrap HF-X (Thermo Scientific)
Instrument type: LC-APCI-QFT
Ms type: MS2
Ion mode: NEGATIVE
Ionization: APCI
Fragmentation mode: HCD
Collision energy: Ramp 20%-70% (nominal)
Resolution: 30000
Column name: Waters; Acquity UPLC BEH C18, 2.1 x 100 mm, 1.7 um, Waters
Retention time: 3.761500
Base peak: 82.02989
Precursor m/z: 161.9866
Ion type: [M-H]-
m/z	relative intensity
51.08638	6
60.5127	6
63.33134	6
65.99861	7
70.03003	14
77.96564	276
79.19044	7
79.95737	35
82.02989	999
83.03351	43
83.77924	6
84.04575	7
94.10509	6
95.97632	178
96.95984	55
98.0244	10
98.02545	10
100.00616	6
101.96584	10
119.97606	13
121.95541	40
133.32849	6
133.85225	6
133.98285	6
135.26892	6
139.25348	6
141.05257	6
158.78	8
161.98709	631
162.99011	22
163.98277	21
164.00221	34
