Mass spectrum: Chlorantraniliprole; LC-APCI-QFT; MS2; CE: Ramp 20%-70% (nominal); R=30000; [M-H]-
Name: Chlorantraniliprole
Name: 5-bromo-N-[4-chloro-2-methyl-6-(methylcarbamoyl)phenyl]-2-(3-chloropyridin-2-yl)pyrazole-3-carboxamide
Class: Pesticides; Insecticides; Aminobenzoates
Formula: C18H14BrCl2N5O2
Exact mass: 480.9708
SMILES: O=C(NC=1C(=CC(Cl)=CC1C)C(=O)NC)C2=CC(Br)=NN2C3=NC=CC=C3Cl
InChI: InChI=1S/C18H14BrCl2N5O2/c1-9-6-10(20)7-11(17(27)22-2)15(9)24-18(28)13-8-14(19)25-26(13)16-12(21)4-3-5-23-16/h3-8H,1-2H3,(H,22,27)(H,24,28)
Instrument: QExactive Orbitrap HF-X (Thermo Scientific)
Instrument type: LC-APCI-QFT
Ms type: MS2
Ion mode: NEGATIVE
Ionization: APCI
Fragmentation mode: HCD
Collision energy: Ramp 20%-70% (nominal)
Resolution: 30000
Column name: Waters; Acquity UPLC BEH C18, 2.1 x 100 mm, 1.7 um, Waters
Retention time: 15.317600
Base peak: 80.91692
Precursor m/z: 479.9638
Ion type: [M-H]-
m/z	relative intensity
78.91917	735.533
80.91692	999
85.40862	20.067
144.94083	192.281
146.93907	48.206
159.15549	20.223
192.05365	20.227
193.01724	20.548
195.01598	21.244
195.03316	103.283
197.03108	51.067
199.94615	37.471
201.94475	145.509
201.96245	426.335
203.96016	215.784
210.51463	202.459
223.02847	44.873
225.0266	22.924
445.98413	52.377
452.80496	20.2
