Mass spectrum: Losartan; LC-APCI-QFT; MS2; CE: Ramp 20%-70% (nominal); R=30000; [M+H]+
Name: Losartan
Name: [2-butyl-5-chloro-3-[[4-[2-(2H-tetrazol-5-yl)phenyl]phenyl]methyl]imidazol-4-yl]methanol
Class: Drugs; Angiotensin II Receptor Antagonists; Benzene Derivatives; Biphenyl Compounds
Formula: C22H23ClN6O
Exact mass: 422.1622
SMILES: ClC=1N=C(N(C1CO)CC2=CC=C(C=C2)C3=CC=CC=C3C=4N=NNN4)CCCC
InChI: InChI=1S/C22H23ClN6O/c1-2-3-8-20-24-21(23)19(14-30)29(20)13-15-9-11-16(12-10-15)17-6-4-5-7-18(17)22-25-27-28-26-22/h4-7,9-12,30H,2-3,8,13-14H2,1H3,(H,25,26,27,28)
Instrument: QExactive Orbitrap HF-X (Thermo Scientific)
Instrument type: LC-APCI-QFT
Ms type: MS2
Ion mode: POSITIVE
Ionization: APCI
Fragmentation mode: HCD
Collision energy: Ramp 20%-70% (nominal)
Resolution: 30000
Column name: Waters; Acquity UPLC BEH C18, 2.1 x 100 mm, 1.7 um, Waters
Retention time: 14.560500
Base peak: 127.03926
Precursor m/z: 423.1697
Ion type: [M+H]+
m/z	relative intensity
53.03903	21
55.05449	11
79.05907	12
80.05449	25
95.05307	11
95.05394	9
102.01274	9
105.0463	8
108.08136	8
108.08272	7
129.02162	14
129.04465	18
135.09172	10
140.04987	17
142.0293	75
144.05795	8
151.05495	14
152.06255	128
153.0701	118
154.06537	10
163.05403	35
165.06984	107
166.06509	13
166.07773	8
167.07341	31
168.05762	8
168.06813	12
169.0647	43
170.06032	5
171.06836	118
177.05792	22
178.06512	60
178.07756	31
179.06038	20
179.07324	91
180.08084	446
181.07605	9
182.06107	12
183.06778	9
189.07866	17
190.06506	187
191.06062	5
191.07338	24
192.06831	168
192.08118	110
194.06023	49
196.07555	38
205.07651	401
206.08444	233
207.09183	999
208.0764	24
211.0352	21
211.05002	13
211.0636	23
214.06512	24
216.08124	12
235.09776	209
241.07707	16
242.08287	9
243.09296	5
258.10327	35
259.08771	9
280.08652	7
282.10284	5
294.07983	19
324.14914	10
341.17761	104
362.14246	53
365.15402	11
377.15192	556
380.15402	8
405.15924	481
423.1687	53
