Mass spectrum: Nicotine; LC-APCI-QFT; MS2; CE: Ramp 20%-70% (nominal); R=30000; [M+H]+
Name: Nicotine
Name: 3-[(2S)-1-methylpyrrolidin-2-yl]pyridine
Class: Alkaloids; Cholinergic Agonists
Formula: C10H14N2
Exact mass: 162.1157
SMILES: CN1CCC[C@H]1C2=CN=CC=C2
InChI: InChI=1S/C10H14N2/c1-12-7-3-5-10(12)9-4-2-6-11-8-9/h2,4,6,8,10H,3,5,7H2,1H3/t10-/m0/s1
Instrument: QExactive Orbitrap HF-X (Thermo Scientific)
Instrument type: LC-APCI-QFT
Ms type: MS2
Ion mode: POSITIVE
Ionization: APCI
Fragmentation mode: HCD
Collision energy: Ramp 20%-70% (nominal)
Resolution: 30000
Column name: Waters; Acquity UPLC BEH C18, 2.1 x 100 mm, 1.7 um, Waters
Retention time: 6.310600
Base peak: 163.12315
Precursor m/z: 163.1232
Ion type: [M+H]+
m/z	relative intensity
80.05041	34
84.08143	54
92.05009	12
106.06567	194
115.05478	25
117.05759	311
120.08031	69
120.08136	76
130.06505	519
131.07298	11
132.08066	486
163.03763	50
163.04042	52
163.05159	11
163.07394	21
163.08792	12
163.12315	999
