Mass spectrum: DEET; LC-ESI-QFT; MS2; CE: Ramp 20%-70% (nominal); R=30000; [M+H]+
Name: DEET
Name: N,N-diethyl-3-methylbenzamide
Class: Pesticides; Insect Repellents; Carboxylic Acids; Benzoates; Benzamides
Formula: C12H17NO
Exact mass: 191.1310
SMILES: O=C(C1=CC=CC(=C1)C)N(CC)CC
InChI: InChI=1S/C12H17NO/c1-4-13(5-2)12(14)11-8-6-7-10(3)9-11/h6-9H,4-5H2,1-3H3
Instrument: QExactive Orbitrap HF-X (Thermo Scientific)
Instrument type: LC-ESI-QFT
Ms type: MS2
Ion mode: POSITIVE
Ionization: ESI
Fragmentation mode: HCD
Collision energy: Ramp 20%-70% (nominal)
Resolution: 30000
Column name: Waters; Acquity UPLC BEH C18, 2.1 x 100 mm, 1.7 um, Waters
Retention time: 14.648200
Base peak: NA
Precursor m/z: NA
Ion type: [M+H]+
m/z	relative intensity
55.01813	6.652
65.03871	35.335
67.05444	17.355
72.0444	84.754
91.05433	195.659
100.07572	36.334
109.06476	127.494
118.06549	6.569
119.04898	856.963
119.06049	99.672
160.04999	11.221
192.07693	6.822
192.1384	999
