Mass spectrum: Atrazine-2-hydroxy; LC-APCI-QFT; MS2; CE: Ramp 20%-70% (nominal); R=30000; [M-H]-
Name: Atrazine-2-hydroxy
Name: 4-(ethylamino)-6-(propan-2-ylamino)-1H-1,3,5-triazin-2-one
Class: Pesticide metabolites; Herbicides; Triazines
Formula: C8H15N5O
Exact mass: 197.1277
SMILES: O=C1N=C(N=C(N1)NC(C)C)NCC
InChI: InChI=1S/C8H15N5O/c1-4-9-6-11-7(10-5(2)3)13-8(14)12-6/h5H,4H2,1-3H3,(H3,9,10,11,12,13,14)
Instrument: QExactive Orbitrap HF-X (Thermo Scientific)
Instrument type: LC-APCI-QFT
Ms type: MS2
Ion mode: NEGATIVE
Ionization: APCI
Fragmentation mode: HCD
Collision energy: Ramp 20%-70% (nominal)
Resolution: 30000
Column name: Waters; Acquity UPLC BEH C18, 2.1 x 100 mm, 1.7 um, Waters
Retention time: 11.503700
Base peak: 196.12010
Precursor m/z: 196.1206
Ion type: [M-H]-
m/z	relative intensity
65.99864	11.993
67.03026	34.062
69.04597	109.944
83.03641	10.746
83.0616	226.449
84.06483	7.534
107.01279	5.971
111.06754	59.299
125.08359	60.405
154.0621	62.153
154.07314	85.876
168.08897	36.162
195.04364	6.333
195.13907	13.381
195.91351	55.367
196.02873	11.373
196.1201	999
196.91672	5.474
196.98384	14.848
197.06845	8.402
197.12415	80.264
197.91008	47.099
