Mass spectrum: Carbendazim; LC-ESI-QFT; MS2; CE: Ramp 20%-70% (nominal); R=30000; [M+H]+
Name: Carbendazim
Name: Methyl N-(1H-benzimidazol-2-yl)carbamate
Class: Pesticides; Fungicides; Carbamates
Formula: C9H9N3O2
Exact mass: 191.0695
SMILES: O=C(OC)NC1=NC=2C=CC=CC2N1
InChI: InChI=1S/C9H9N3O2/c1-14-9(13)12-8-10-6-4-2-3-5-7(6)11-8/h2-5H,1H3,(H2,10,11,12,13)
Instrument: QExactive Orbitrap HF-X (Thermo Scientific)
Instrument type: LC-ESI-QFT
Ms type: MS2
Ion mode: POSITIVE
Ionization: ESI
Fragmentation mode: HCD
Collision energy: Ramp 20%-70% (nominal)
Resolution: 30000
Column name: Waters; Acquity UPLC BEH C18, 2.1 x 100 mm, 1.7 um, Waters
Retention time: 10.656800
Base peak: NA
Precursor m/z: NA
Ion type: [M+H]+
m/z	relative intensity
92.04982	17
105.04462	15
132.05586	105
133.06358	19
135.05537	15
160.04897	999
160.05249	977
192.06131	5
192.07703	969
