Mass spectrum: Bisphenol A; LC-APCI-QFT; MS2; CE: Ramp 20%-70% (nominal); R=30000; [M-H]-
Name: Bisphenol A
Name: 4-[2-(4-hydroxyphenyl)propan-2-yl]phenol
Class: Plastices and Rubber; Epoxy Resins; Polymers; Benzene Derivatives; Phenols; Bisphenols; Fire retardant
Formula: C15H16O2
Exact mass: 228.1150
SMILES: OC1=CC=C(C=C1)C(C2=CC=C(O)C=C2)(C)C
InChI: InChI=1S/C15H16O2/c1-15(2,11-3-7-13(16)8-4-11)12-5-9-14(17)10-6-12/h3-10,16-17H,1-2H3
Instrument: QExactive Orbitrap HF-X (Thermo Scientific)
Instrument type: LC-APCI-QFT
Ms type: MS2
Ion mode: NEGATIVE
Ionization: APCI
Fragmentation mode: HCD
Collision energy: Ramp 20%-70% (nominal)
Resolution: 30000
Column name: Waters; Acquity UPLC BEH C18, 2.1 x 100 mm, 1.7 um, Waters
Retention time: 15.039800
Base peak: 227.10783
Precursor m/z: 227.1081
Ion type: [M-H]-
m/z	relative intensity
93.03419	16.44
93.03516	16.274
133.06641	79.28
134.06953	10.255
192.90224	155.436
211.07652	226.297
212.08	33.418
214.4225	12.965
227.10783	999
227.19971	10.393
227.2043	10.373
228.11092	164.95
228.87793	377.3
229.11229	10.346
