Mass spectrum: Malaoxon; LC-ESI-QFT; MS2; CE: Ramp 20%-70% (nominal); R=30000; [M+H]+
Name: Malaoxon
Name: Diethyl 2-dimethoxyphosphorylsulfanylbutanedioate
Class: Pesticides; Organophosphate Insecticides; Organothiophosphates
Formula: C10H19O7PS
Exact mass: 314.0589
SMILES: O=C(OCC)CC(SP(=O)(OC)OC)C(=O)OCC
InChI: InChI=1S/C10H19O7PS/c1-5-16-9(11)7-8(10(12)17-6-2)19-18(13,14-3)15-4/h8H,5-7H2,1-4H3
Instrument: QExactive Orbitrap HF-X (Thermo Scientific)
Instrument type: LC-ESI-QFT
Ms type: MS2
Ion mode: POSITIVE
Ionization: ESI
Fragmentation mode: HCD
Collision energy: Ramp 20%-70% (nominal)
Resolution: 30000
Column name: Waters; Acquity UPLC BEH C18, 2.1 x 100 mm, 1.7 um, Waters
Retention time: 13.392800
Base peak: NA
Precursor m/z: NA
Ion type: [M+H]+
m/z	relative intensity
53.00256	10
71.01288	92
78.99502	9
99.07711	891
110.96638	11
117.01801	19
124.98215	27
127.01547	23
127.03911	999
128.97685	24
142.99263	155
145.04953	9
171.02373	10
173.08015	34
269.02368	9
315.0654	8
