Mass spectrum: Malaoxon; LC-APCI-QFT; MS2; CE: Ramp 20%-70% (nominal); R=30000; [M-H]-
Name: Malaoxon
Name: Diethyl 2-dimethoxyphosphorylsulfanylbutanedioate
Class: Pesticides; Organophosphate Insecticides; Organothiophosphates
Formula: C10H19O7PS
Exact mass: 314.0589
SMILES: O=C(OCC)CC(SP(=O)(OC)OC)C(=O)OCC
InChI: InChI=1S/C10H19O7PS/c1-5-16-9(11)7-8(10(12)17-6-2)19-18(13,14-3)15-4/h8H,5-7H2,1-4H3
Instrument: QExactive Orbitrap HF-X (Thermo Scientific)
Instrument type: LC-APCI-QFT
Ms type: MS2
Ion mode: NEGATIVE
Ionization: APCI
Fragmentation mode: HCD
Collision energy: Ramp 20%-70% (nominal)
Resolution: 30000
Column name: Waters; Acquity UPLC BEH C18, 2.1 x 100 mm, 1.7 um, Waters
Retention time: 13.345900
Base peak: 203.03911
Precursor m/z: 313.0516
Ion type: [M-H]-
m/z	relative intensity
62.96405	226.88
69.14714	15.285
76.97987	73.582
78.95912	899.902
78.99567	22.227
84.97565	88.641
94.93622	43.609
102.98592	21.712
109.00629	820.028
110.00899	21.444
125.00098	122.989
130.99301	40.022
131.01715	59.992
156.99635	122.979
175.00697	21.016
203.03911	999
203.04999	30.303
204.04207	92.831
205.03355	26.098
212.8972	74.02
268.98218	68.717
311.15433	15.631
311.18674	26.567
311.29578	50.324
312.974	51.53
313.95703	16.857
314.16687	22.66
315.16074	15.589
