Mass spectrum: Methamidophos; LC-APCI-QFT; MS2; CE: Ramp 20%-70% (nominal); R=30000; [M+H]+
Name: Methamidophos
Name: 2-ethylhexyl 2-cyano-3,3-diphenylprop-2-enoate
Class: Pesticides; Organophosphate Insecticides; Organothiophosphorus Compounds
Formula: C2H8NO2PS
Exact mass: 141.0013
SMILES: O=P(OC)(SC)N
InChI: InChI=1S/C2H8NO2PS/c1-5-6(3,4)7-2/h1-2H3,(H2,3,4)
Instrument: QExactive Orbitrap HF-X (Thermo Scientific)
Instrument type: LC-APCI-QFT
Ms type: MS2
Ion mode: POSITIVE
Ionization: APCI
Fragmentation mode: HCD
Collision energy: Ramp 20%-70% (nominal)
Resolution: 30000
Column name: Waters; Acquity UPLC BEH C18, 2.1 x 100 mm, 1.7 um, Waters
Retention time: 4.476000
Base peak: 128.04538
Precursor m/z: 142.0087
Ion type: [M+H]+
m/z	relative intensity
60.48097	18.267
63.99403	5.732
63.99486	27.328
78.99433	54.498
109.98254	20.27
112.01599	999
114.60333	13.749
124.03926	14.595
127.99315	24.161
129.68582	13.865
139.83224	21.276
142.00917	191.212
142.05006	34.996
142.08643	24.178
142.1228	41.44
142.15919	48.907
142.99274	365.695
