Mass spectrum: Caffeine; LC-ESI-QFT; MS2; CE: Ramp 20%-70% (nominal); R=30000; [M+H]+
Name: Caffeine
Name: 1,3,7-trimethylpurine-2,6-dione
Class: Natural Products; Drugs; Alkaloids; Xanthines
Formula: C8H10N4O2
Exact mass: 194.0804
SMILES: O=C1C2=C(N=CN2C)N(C(=O)N1C)C
InChI: InChI=1S/C8H10N4O2/c1-10-4-9-6-5(10)7(13)12(3)8(14)11(6)2/h4H,1-3H3
Instrument: QExactive Orbitrap HF-X (Thermo Scientific)
Instrument type: LC-ESI-QFT
Ms type: MS2
Ion mode: POSITIVE
Ionization: ESI
Fragmentation mode: HCD
Collision energy: Ramp 20%-70% (nominal)
Resolution: 30000
Column name: Waters; Acquity UPLC BEH C18, 2.1 x 100 mm, 1.7 um, Waters
Retention time: 8.582000
Base peak: NA
Precursor m/z: NA
Ion type: [M+H]+
m/z	relative intensity
56.0498	12.424
69.04475	45.065
83.06789	46.263
109.03984	13.962
110.07152	127.442
111.05568	6.201
123.04283	19.754
138.0665	336.325
195.08748	999
