Mass spectrum: Atrazine-desethyl; LC-ESI-QFT; MS2; CE: Ramp 20%-70% (nominal); R=30000; [M+H]+
Name: Atrazine-desethyl
Name: 6-chloro-2-N-propan-2-yl-1,3,5-triazine-2,4-diamine
Class: Pesticide metabolites; Herbicides; Triazines
Formula: C6H10ClN5
Exact mass: 187.0625
SMILES: ClC=1N=C(N=C(N1)NC(C)C)N
InChI: InChI=1S/C6H10ClN5/c1-3(2)9-6-11-4(7)10-5(8)12-6/h3H,1-2H3,(H3,8,9,10,11,12)
Instrument: QExactive Orbitrap HF-X (Thermo Scientific)
Instrument type: LC-ESI-QFT
Ms type: MS2
Ion mode: POSITIVE
Ionization: ESI
Fragmentation mode: HCD
Collision energy: Ramp 20%-70% (nominal)
Resolution: 30000
Column name: Waters; Acquity UPLC BEH C18, 2.1 x 100 mm, 1.7 um, Waters
Retention time: 10.694400
Base peak: NA
Precursor m/z: NA
Ion type: [M+H]+
m/z	relative intensity
61.97957	11
68.02461	92
71.0605	45
79.01048	97
96.05504	102
104.00337	128
110.0462	13
132.0325	95
138.07794	14
146.02324	40
174.05463	999
