Mass spectrum: Bis(1,3-dichloro-2-propyl) phosphate; LC-ESI-QFT; MS2; CE: Ramp 20%-70% (nominal); R=30000; [M+H]+
Name: Bis(1,3-dichloro-2-propyl) phosphate
Name: Bis(1,3-dichloropropan-2-yl) hydrogen phosphate
Class: Organophosphorus compound; Dialkyl phosphate
Formula: C6H11Cl4O4P
Exact mass: 317.9149
SMILES: O=P(O)(OC(CCl)CCl)OC(CCl)CCl
InChI: InChI=1S/C6H11Cl4O4P/c7-1-5(2-8)13-15(11,12)14-6(3-9)4-10/h5-6H,1-4H2,(H,11,12)
Instrument: QExactive Orbitrap HF-X (Thermo Scientific)
Instrument type: LC-ESI-QFT
Ms type: MS2
Ion mode: POSITIVE
Ionization: ESI
Fragmentation mode: HCD
Collision energy: Ramp 20%-70% (nominal)
Resolution: 30000
Column name: Waters; Acquity UPLC BEH C18, 2.1 x 100 mm, 1.7 um, Waters
Retention time: 13.044100
Base peak: NA
Precursor m/z: NA
Ion type: [M+H]+
m/z	relative intensity
75.00185	123.842
98.98438	999
116.995	49.044
208.95357	279.125
212.78085	5.917
226.96417	10.897
318.92163	34.741
