Mass spectrum: Daidzein; LC-APCI-QFT; MS2; CE: Ramp 20%-70% (nominal); R=30000; [M+H]+
Name: Daidzein
Name: 7-hydroxy-3-(4-hydroxyphenyl)chromen-4-one
Class: Phytoestrogens; Benzopyrans; Chromones; Flavonoids; Isoflavones
Formula: C15H10O4
Exact mass: 254.0579
SMILES: O=C1C(=COC2=CC(O)=CC=C12)C=3C=CC(O)=CC3
InChI: InChI=1S/C15H10O4/c16-10-3-1-9(2-4-10)13-8-19-14-7-11(17)5-6-12(14)15(13)18/h1-8,16-17H
Instrument: QExactive Orbitrap HF-X (Thermo Scientific)
Instrument type: LC-APCI-QFT
Ms type: MS2
Ion mode: POSITIVE
Ionization: APCI
Fragmentation mode: HCD
Collision energy: Ramp 20%-70% (nominal)
Resolution: 30000
Column name: Waters; Acquity UPLC BEH C18, 2.1 x 100 mm, 1.7 um, Waters
Retention time: 12.789100
Base peak: 192.13855
Precursor m/z: 255.0654
Ion type: [M+H]+
m/z	relative intensity
91.05533	75
119.04979	20
128.06236	23
129.06949	15
137.02328	98
143.0856	10
145.0282	13
152.06187	23
153.06789	24
153.07018	52
157.06502	18
171.08017	21
181.06439	86
184.05145	14
197.05948	10
199.07545	106
209.05965	10
227.07095	33
237.05481	23
255.06487	999
