Mass spectrum: N-Lauroylethanolamine; LC-APCI-QFT; MS2; CE: Ramp 20%-70% (nominal); R=30000; [M+H]+
Name: N-Lauroylethanolamine
Name: N-(2-hydroxyethyl)dodecanamide
Class: Ethanolamines; Surfactants; Antistatic agents
Formula: C14H29NO2
Exact mass: 243.2198
SMILES: O=C(NCCO)CCCCCCCCCCC
InChI: InChI=1S/C14H29NO2/c1-2-3-4-5-6-7-8-9-10-11-14(17)15-12-13-16/h16H,2-13H2,1H3,(H,15,17)
Instrument: QExactive Orbitrap HF-X (Thermo Scientific)
Instrument type: LC-APCI-QFT
Ms type: MS2
Ion mode: POSITIVE
Ionization: APCI
Fragmentation mode: HCD
Collision energy: Ramp 20%-70% (nominal)
Resolution: 30000
Column name: Waters; Acquity UPLC BEH C18, 2.1 x 100 mm, 1.7 um, Waters
Retention time: 18.720700
Base peak: 169.07631
Precursor m/z: 244.2273
Ion type: [M+H]+
m/z	relative intensity
55.05452	20
57.07014	169
62.06032	999
67.05446	27
71.08565	49
81.06994	24
95.08549	33
109.10127	12
183.17542	44
226.2162	28
227.20021	157
244.22697	672
