Mass spectrum: Fluconazole; LC-APCI-QFT; MS2; CE: Ramp 20%-70% (nominal); R=30000; [M+H]+
Name: Fluconazole
Name: 2-(2,4-difluorophenyl)-1,3-bis(1,2,4-triazol-1-yl)propan-2-ol
Class: Drugs; Antifungal Agents; Cytochrome P-450 Enzyme Inhibitors; 14-alpha Demethylase Inhibitors
Formula: C13H12F2N6O
Exact mass: 306.1041
SMILES: FC1=CC=C(C(F)=C1)C(O)(CN2N=CN=C2)CN3N=CN=C3
InChI: InChI=1S/C13H12F2N6O/c14-10-1-2-11(12(15)3-10)13(22,4-20-8-16-6-18-20)5-21-9-17-7-19-21/h1-3,6-9,22H,4-5H2
Instrument: QExactive Orbitrap HF-X (Thermo Scientific)
Instrument type: LC-APCI-QFT
Ms type: MS2
Ion mode: POSITIVE
Ionization: APCI
Fragmentation mode: HCD
Collision energy: Ramp 20%-70% (nominal)
Resolution: 30000
Column name: Waters; Acquity UPLC BEH C18, 2.1 x 100 mm, 1.7 um, Waters
Retention time: 10.451600
Base peak: 209.05893
Precursor m/z: 307.1114
Ion type: [M+H]+
m/z	relative intensity
70.03999	249
77.03857	12
82.04044	11
91.05436	13
121.04501	202
127.03549	229
129.04454	43
139.03569	238
141.01494	33
141.05113	111
147.03555	14
151.03516	187
166.04659	21
169.0457	117
173.05182	34
200.06233	21
212.50575	16
220.06783	399
238.07909	548
289.10095	80
307.11234	999
