Mass spectrum: Daidzein; LC-APCI-QFT; MS2; CE: Ramp 20%-70% (nominal); R=30000; [M-H]-
Name: Daidzein
Name: 7-hydroxy-3-(4-hydroxyphenyl)chromen-4-one
Class: Phytoestrogens; Benzopyrans; Chromones; Flavonoids; Isoflavones
Formula: C15H10O4
Exact mass: 254.0579
SMILES: O=C1C(=COC2=CC(O)=CC=C12)C=3C=CC(O)=CC3
InChI: InChI=1S/C15H10O4/c16-10-3-1-9(2-4-10)13-8-19-14-7-11(17)5-6-12(14)15(13)18/h1-8,16-17H
Instrument: QExactive Orbitrap HF-X (Thermo Scientific)
Instrument type: LC-APCI-QFT
Ms type: MS2
Ion mode: NEGATIVE
Ionization: APCI
Fragmentation mode: HCD
Collision energy: Ramp 20%-70% (nominal)
Resolution: 30000
Column name: Waters; Acquity UPLC BEH C18, 2.1 x 100 mm, 1.7 um, Waters
Retention time: 12.792000
Base peak: 253.05067
Precursor m/z: 253.0506
Ion type: [M-H]-
m/z	relative intensity
91.01895	63
117.03496	21
132.02185	62
133.02924	25
135.00856	16
156.01283	8
167.0502	8
180.05855	18
195.04514	36
208.0531	26
209.05981	12
214.07892	12
223.03955	38
224.04863	20
225.0555	11
252.04256	12
253.05067	999
254.05399	157
255.05673	9
255.23062	59
255.2361	55
