Mass spectrum: Atrazine-desisopropyl; LC-APCI-QFT; MS2; CE: Ramp 20%-70% (nominal); R=30000; [M+H]+
Name: Atrazine-desisopropyl
Name: 6-chloro-2-N-ethyl-1,3,5-triazine-2,4-diamine
Class: Pesticide metabolites; Herbicides; Triazines
Formula: C5H8ClN5
Exact mass: 173.0468
SMILES: ClC=1N=C(N=C(N1)NCC)N
InChI: InChI=1S/C5H8ClN5/c1-2-8-5-10-3(6)9-4(7)11-5/h2H2,1H3,(H3,7,8,9,10,11)
Instrument: QExactive Orbitrap HF-X (Thermo Scientific)
Instrument type: LC-APCI-QFT
Ms type: MS2
Ion mode: POSITIVE
Ionization: APCI
Fragmentation mode: HCD
Collision energy: Ramp 20%-70% (nominal)
Resolution: 30000
Column name: Waters; Acquity UPLC BEH C18, 2.1 x 100 mm, 1.7 um, Waters
Retention time: 8.744100
Base peak: 174.05455
Precursor m/z: 174.0544
Ion type: [M+H]+
m/z	relative intensity
61.97942	9.352
68.02435	115.163
71.06055	44.257
79.00545	109.251
90.0105	5.268
96.05584	115.113
104.00133	149.12
110.04599	12.408
132.03244	100.257
132.97485	11.636
138.07722	18.914
146.02246	41.744
173.98923	10.656
174.05455	999
