Mass spectrum: Clenbuterol; LC-APCI-QFT; MS2; CE: Ramp 20%-70% (nominal); R=30000; [M+H]+
Name: Clenbuterol
Name: 1-(4-amino-3,5-dichlorophenyl)-2-(tert-butylamino)ethanol
Class: Veterinary Drugs; Adrenoreceptor agonist; Amino Alcohols; Ethanolamines
Formula: C12H18Cl2N2O
Exact mass: 276.0796
SMILES: ClC=1C=C(C=C(Cl)C1N)C(O)CNC(C)(C)C
InChI: InChI=1S/C12H18Cl2N2O/c1-12(2,3)16-6-10(17)7-4-8(13)11(15)9(14)5-7/h4-5,10,16-17H,6,15H2,1-3H3
Instrument: QExactive Orbitrap HF-X (Thermo Scientific)
Instrument type: LC-APCI-QFT
Ms type: MS2
Ion mode: POSITIVE
Ionization: APCI
Fragmentation mode: HCD
Collision energy: Ramp 20%-70% (nominal)
Resolution: 30000
Column name: Waters; Acquity UPLC BEH C18, 2.1 x 100 mm, 1.7 um, Waters
Retention time: 10.290100
Base peak: 177.10205
Precursor m/z: 277.0870
Ion type: [M+H]+
m/z	relative intensity
57.07011	95
104.04974	9
123.06596	11
131.06035	91
132.06828	538
133.07533	18
133.07678	19
140.02596	56
141.03381	6
151.0182	54
167.03764	172
168.04491	540
173.98802	7
185.98781	19
190.98997	8
203.01419	999
213.061	18
221.00662	6
235.17163	7
259.0769	902
261.0983	21
277.08606	304
277.16284	5
277.18265	66
