Mass spectrum: Cyanazine; LC-ESI-QFT; MS2; CE: Ramp 20%-70% (nominal); R=30000; [M+H]+
Name: Cyanazine
Name: 2-[[4-chloro-6-(ethylamino)-1,3,5-triazin-2-yl]amino]-2-methylpropanenitrile
Class: Pesticides; Herbicides; Triazines
Formula: C9H13ClN6
Exact mass: 240.0890
SMILES: CCNC1=NC(=NC(=N1)Cl)NC(C)(C)C#N
InChI: InChI=1S/C9H13ClN6/c1-4-12-7-13-6(10)14-8(15-7)16-9(2,3)5-11/h4H2,1-3H3,(H2,12,13,14,15,16)
Instrument: QExactive Orbitrap HF-X (Thermo Scientific)
Instrument type: LC-ESI-QFT
Ms type: MS2
Ion mode: POSITIVE
Ionization: ESI
Fragmentation mode: HCD
Collision energy: Ramp 20%-70% (nominal)
Resolution: 30000
Column name: Waters; Acquity UPLC BEH C18, 2.1 x 100 mm, 1.7 um, Waters
Retention time: 12.524900
Base peak: NA
Precursor m/z: NA
Ion type: [M+H]+
m/z	relative intensity
61.97934	14
68.02441	95
71.06053	102
79.00541	35
83.0609	49
90.01056	12
96.05598	104
104.00131	164
110.07155	12
119.03717	25
132.03242	84
136.08682	29
138.07765	11
146.02315	20
174.05452	26
214.08633	283
241.09689	999
