Mass spectrum: Oxybenzone; LC-APCI-QFT; MS2; CE: Ramp 20%-70% (nominal); R=30000; [M-H]-
Name: Oxybenzone
Name: (2-hydroxy-4-methoxyphenyl)-phenylmethanone
Class: Personnal Care Products; Sunscreens Agents; Cosmetics
Formula: C14H12O3
Exact mass: 228.0786
SMILES: O=C(C=1C=CC=CC1)C2=CC=C(OC)C=C2O
InChI: InChI=1S/C14H12O3/c1-17-11-7-8-12(13(15)9-11)14(16)10-5-3-2-4-6-10/h2-9,15H,1H3
Instrument: QExactive Orbitrap HF-X (Thermo Scientific)
Instrument type: LC-APCI-QFT
Ms type: MS2
Ion mode: NEGATIVE
Ionization: APCI
Fragmentation mode: HCD
Collision energy: Ramp 20%-70% (nominal)
Resolution: 30000
Column name: Waters; Acquity UPLC BEH C18, 2.1 x 100 mm, 1.7 um, Waters
Retention time: 17.066100
Base peak: 211.04013
Precursor m/z: 227.0714
Ion type: [M-H]-
m/z	relative intensity
167.05022	19
182.03778	13
183.04646	33
184.05316	27
192.90244	20
210.0334	10
211.04013	999
212.04294	134
213.0504	10
214.02051	14
227.07133	859
228.02335	10
228.0751	132
228.8791	46
