Mass spectrum: Pyrazosulfuron-ethyl; LC-ESI-QFT; MS2; CE: Ramp 20%-70% (nominal); R=30000; [M-H]-
Name: Pyrazosulfuron-ethyl
Name: Ethyl 5-[(4,6-dimethoxypyrimidin-2-yl)carbamoylsulfamoyl]-1-methylpyrazole-4-carboxylate
Class: Pesticides; Herbicides; Sulfonylurea; Pyrazoles
Formula: C14H18N6O7S
Exact mass: 414.0958
SMILES: O=C(OCC)C=1C=NN(C1S(=O)(=O)NC(=O)NC=2N=C(OC)C=C(N2)OC)C
InChI: InChI=1S/C14H18N6O7S/c1-5-27-12(21)8-7-15-20(2)11(8)28(23,24)19-14(22)18-13-16-9(25-3)6-10(17-13)26-4/h6-7H,5H2,1-4H3,(H2,16,17,18,19,22)
Instrument: QExactive Orbitrap HF-X (Thermo Scientific)
Instrument type: LC-ESI-QFT
Ms type: MS2
Ion mode: NEGATIVE
Ionization: ESI
Fragmentation mode: HCD
Collision energy: Ramp 20%-70% (nominal)
Resolution: 30000
Column name: Waters; Acquity UPLC BEH C18, 2.1 x 100 mm, 1.7 um, Waters
Retention time: 12.561300
Base peak: 232.03944
Precursor m/z: 413.0886
Ion type: [M-H]-
m/z	relative intensity
65.01469	74.103
65.99869	91.153
77.96584	231.042
90.01007	11.738
107.01262	68.366
122.03619	111.423
124.05194	11.132
139.03915	73.659
154.06239	375.871
160.01839	14.629
185.9987	20.643
232.03944	999
413.08884	173.09
