Mass spectrum: Atrazine; LC-APCI-QFT; MS2; CE: Ramp 20%-70% (nominal); R=30000; [M-H]-
Name: Atrazine
Name: 6-chloro-4-N-ethyl-2-N-propan-2-yl-1,3,5-triazine-2,4-diamine
Class: Pesticides; Herbicides; Triazines
Formula: C8H14ClN5
Exact mass: 215.0938
SMILES: ClC=1N=C(N=C(N1)NC(C)C)NCC
InChI: InChI=1S/C8H14ClN5/c1-4-10-7-12-6(9)13-8(14-7)11-5(2)3/h5H,4H2,1-3H3,(H2,10,11,12,13,14)
Instrument: QExactive Orbitrap HF-X (Thermo Scientific)
Instrument type: LC-APCI-QFT
Ms type: MS2
Ion mode: NEGATIVE
Ionization: APCI
Fragmentation mode: HCD
Collision energy: Ramp 20%-70% (nominal)
Resolution: 30000
Column name: Waters; Acquity UPLC BEH C18, 2.1 x 100 mm, 1.7 um, Waters
Retention time: 14.264000
Base peak: 214.04349
Precursor m/z: 214.0866
Ion type: [M-H]-
m/z	relative intensity
155.98608	22
177.05901	7
178.06638	68
213.18427	7
214.04349	999
214.0872	75
214.85086	10
215.04706	131
215.98146	122
216.04066	237
216.08328	14
