Mass spectrum: Clarithromycin; LC-APCI-QFT; MS2; CE: Ramp 20%-70% (nominal); R=30000; [M+H]+
Name: Clarithromycin
Name: (3R,4S,5S,6R,7R,9R,11R,12R,13S,14R)-6-[(2S,3R,4S,6R)-4-(dimethylamino)-3-hydroxy-6-methyloxan-2-yl]oxy-14-ethyl-12,13-dihydroxy-4-[(2R,4R,5S,6S)-5-hydroxy-4-methoxy-4,6-dimethyloxan-2-yl]oxy-7-methoxy-3,5,7,9,11,13-hexamethyl-oxacyclotetradecane-2,10-dione
Class: Drugs; Antiinfective Agents; Antibiotics; Macrolides
Formula: C38H69NO13
Exact mass: 747.4769
SMILES: O=C1OC(CC)C(O)(C)C(O)C(C(=O)C(C)CC(OC)(C)C(OC2OC(C)CC(N(C)C)C2O)C(C)C(OC3OC(C)C(O)C(OC)(C)C3)C1C)C
InChI: InChI=1S/C38H69NO13/c1-15-26-38(10,45)31(42)21(4)28(40)19(2)17-37(9,47-14)33(52-35-29(41)25(39(11)12)16-20(3)48-35)22(5)30(23(6)34(44)50-26)51-27-18-36(8,46-13)32(43)24(7)49-27/h19-27,29-33,35,41-43,45H,15-18H2,1-14H3/t19-,20-,21+,22+,23-,24+,25+,26-,27+,29-,30+,31-,32+,33-,35+,36-,37-,38-/m1/s1
Instrument: QExactive Orbitrap HF-X (Thermo Scientific)
Instrument type: LC-APCI-QFT
Ms type: MS2
Ion mode: POSITIVE
Ionization: APCI
Fragmentation mode: HCD
Collision energy: Ramp 20%-70% (nominal)
Resolution: 30000
Column name: Waters; Acquity UPLC BEH C18, 2.1 x 100 mm, 1.7 um, Waters
Retention time: 16.274300
Base peak: 203.01419
Precursor m/z: 748.4860
Ion type: [M+H]+
m/z	relative intensity
53.00252	5.657
55.05455	48.419
59.04936	31.362
70.06517	6.59
71.04919	5.51
72.08086	127.421
73.0522	6.225
81.07009	12.58
83.049161	394.453
84.08054	16.935
87.04399	44.883
88.07579	24.658
98.09633	62.534
113.05987	6.733
115.07566	33.169
116.06996	28.731
116.10585	61.307
127.07446	46.862
127.07639	48.657
158.11771	999
159.10289	5.239
299.8389	6.57
316.21149	9.911
365.23297	12.791
540.35303	5.836
558.36456	75.279
590.39026	145.55
590.44415	7.196
748.48853	26.493
