Mass spectrum: Bioallethrin; LC-APCI-QFT; MS2; CE: Ramp 20%-70% (nominal); R=30000; [M-H]-
Name: Bioallethrin
Name: (2-methyl-4-oxo-3-prop-2-enylcyclopent-2-en-1-yl) (1R,3R)-2,2-dimethyl-3-(2-methylprop-1-enyl)cyclopropane-1-carboxylate
Class: Pesticides; Pyrethrins/Pyrethroids; Cyclopentane Monoterpenes; Cyclopropanecarboxylate ester; Allethrin; Trans-allethrin
Formula: C19H26O3
Exact mass: 302.1882
SMILES: O=C(OC1C(=C(C(=O)C1)CC=C)C)C2C(C=C(C)C)C2(C)C
InChI: InChI=1S/C19H26O3/c1-7-8-13-12(4)16(10-15(13)20)22-18(21)17-14(9-11(2)3)19(17,5)6/h7,9,14,16-17H,1,8,10H2,2-6H3/t14-,16?,17+/m1/s1
Instrument: QExactive Orbitrap HF-X (Thermo Scientific)
Instrument type: LC-APCI-QFT
Ms type: MS2
Ion mode: NEGATIVE
Ionization: APCI
Fragmentation mode: HCD
Collision energy: Ramp 20%-70% (nominal)
Resolution: 30000
Column name: Waters; Acquity UPLC BEH C18, 2.1 x 100 mm, 1.7 um, Waters
Retention time: 19.297800
Base peak: 301.18109
Precursor m/z: 301.1809
Ion type: [M-H]-
m/z	relative intensity
57.03445	5.523
78.06116	5.04
109.02885	12.687
131.04951	21.487
131.05132	26.89
133.06537	85.075
133.0668	78.988
134.06953	10.16
135.04445	25.427
136.05347	8.589
146.07394	13.687
149.06221	5.327
151.07555	18.097
156.39017	5.058
167.10713	175.202
167.10887	173.323
168.11107	17.058
212.64056	5.243
212.65346	9.259
212.66678	23.896
219.58997	5.26
260.14221	5.491
270.65192	5.947
283.17056	17.968
284.17322	5.471
301.18109	999
302.18512	192.66
303.1864	9.84
