Mass spectrum: Fenuron; LC-APCI-QFT; MS2; CE: Ramp 20%-70% (nominal); R=30000; [M-H]-
Name: Fenuron
Name: 1,1-dimethyl-3-phenylurea
Class: Pesticides; Herbicides; Urea Derivatives; Benzene Derivatives
Formula: C9H12N2O
Exact mass: 164.0950
SMILES: O=C(NC=1C=CC=CC1)N(C)C
InChI: InChI=1S/C9H12N2O/c1-11(2)9(12)10-8-6-4-3-5-7-8/h3-7H,1-2H3,(H,10,12)
Instrument: QExactive Orbitrap HF-X (Thermo Scientific)
Instrument type: LC-APCI-QFT
Ms type: MS2
Ion mode: NEGATIVE
Ionization: APCI
Fragmentation mode: HCD
Collision energy: Ramp 20%-70% (nominal)
Resolution: 30000
Column name: Waters; Acquity UPLC BEH C18, 2.1 x 100 mm, 1.7 um, Waters
Retention time: 9.570800
Base peak: 163.08830
Precursor m/z: 163.0880
Ion type: [M-H]-
m/z	relative intensity
89.00322	10.058
92.05074	103.94
118.02994	279.621
119.03357	20.578
120.0451	13.629
121.02884	20.671
124.98013	17.185
126.97737	23.139
149.00974	14.681
161.96066	28.916
162.01877	8.085
162.06775	10.516
162.95424	253.601
163.07544	18.221
163.07796	29.658
163.0883	999
163.95699	15.622
164.08438	10.932
164.09116	98.014
164.95082	29.754
