Mass spectrum: 1-Naphthol; LC-APCI-QFT; MS2; CE: Ramp 20%-70% (nominal); R=30000; [M-H]-
Name: 1-Naphthol
Name: Naphthalen-1-ol
Class: Pesticide transformation products; Polycyclic Aromatic Hydrocarbons; Naphthalenes; Naphthols;
Formula: C10H8O
Exact mass: 144.0575
SMILES: OC1=CC=CC=2C=CC=CC12
InChI: InChI=1S/C10H8O/c11-10-7-3-5-8-4-1-2-6-9(8)10/h1-7,11H
Instrument: QExactive Orbitrap HF-X (Thermo Scientific)
Instrument type: LC-APCI-QFT
Ms type: MS2
Ion mode: NEGATIVE
Ionization: APCI
Fragmentation mode: HCD
Collision energy: Ramp 20%-70% (nominal)
Resolution: 30000
Column name: Waters; Acquity UPLC BEH C18, 2.1 x 100 mm, 1.7 um, Waters
Retention time: 14.005500
Base peak: 143.05061
Precursor m/z: 143.0503
Ion type: [M-H]-
m/z	relative intensity
115.05563	41
116.05838	6
143.05061	999
143.08092	7
143.10756	17
144.05406	114
145.07748	7
