Mass spectrum: Disperse Yellow 3; LC-APCI-QFT; MS2; CE: Ramp 20%-70% (nominal); R=30000; [M+H]+
Name: Disperse Yellow 3
Name: N-[4-[(2-hydroxy-5-methylphenyl)diazenyl]phenyl]acetamide
Class: Azo Dyes
Formula: C15H15N3O2
Exact mass: 269.1164
SMILES: O=C(NC1=CC=C(N=NC2=CC(=CC=C2O)C)C=C1)C
InChI: InChI=1S/C15H15N3O2/c1-10-3-8-15(20)14(9-10)18-17-13-6-4-12(5-7-13)16-11(2)19/h3-9,20H,1-2H3,(H,16,19)
Instrument: QExactive Orbitrap HF-X (Thermo Scientific)
Instrument type: LC-APCI-QFT
Ms type: MS2
Ion mode: POSITIVE
Ionization: APCI
Fragmentation mode: HCD
Collision energy: Ramp 20%-70% (nominal)
Resolution: 30000
Column name: Waters; Acquity UPLC BEH C18, 2.1 x 100 mm, 1.7 um, Waters
Retention time: 17.581500
Base peak: 72.04440
Precursor m/z: 270.1237
Ion type: [M+H]+
m/z	relative intensity
65.03877	44
92.04949	30
94.06508	34
107.06043	942
120.04463	41
122.0602	150
149.07129	218
150.07907	400
151.08688	100
211.0867	14
228.11316	24
253.12099	17
255.10031	12
270.12363	999
