Mass spectrum: 5-Methyl-1H-benzotriazole; LC-APCI-QFT; MS2; CE: Ramp 20%-70% (nominal); R=30000; [M-H]-
Name: 5-Methyl-1H-benzotriazole
Name: 5-methyl-2H-benzotriazole
Class: Azoles; Triazoles; Benzotriazoles
Formula: C7H7N3
Exact mass: 133.0640
SMILES: N=1NN=C2C=C(C=CC12)C
InChI: InChI=1S/C7H7N3/c1-5-2-3-6-7(4-5)9-10-8-6/h2-4H,1H3,(H,8,9,10)
Instrument: QExactive Orbitrap HF-X (Thermo Scientific)
Instrument type: LC-APCI-QFT
Ms type: MS2
Ion mode: NEGATIVE
Ionization: APCI
Fragmentation mode: HCD
Collision energy: Ramp 20%-70% (nominal)
Resolution: 30000
Column name: Waters; Acquity UPLC BEH C18, 2.1 x 100 mm, 1.7 um, Waters
Retention time: 10.814050
Base peak: 132.05685
Precursor m/z: 132.0569
Ion type: [M-H]-
m/z	relative intensity
51.27542	1.171
53.26874	1.367
58.95228	1.125
61.17446	1.349
62.27674	1.049
70.77644	1.178
85.46586	1.323
95.60753	1.23
111.25048	1.211
126.6685	1.178
130.96005	1.259
131.04939	2.388
132.05685	999
132.08405	7.079
