Mass spectrum: Thiamethoxam; LC-ESI-QFT; MS2; CE: Ramp 20%-70% (nominal); R=30000; [M+H]+
Name: Thiamethoxam
Name: N-[3-[(2-chloro-1,3-thiazol-5-yl)methyl]-5-methyl-1,3,5-oxadiazinan-4-ylidene]nitramide
Class: Pesticides; Insecticides; Neonicotinoids
Formula: C8H10ClN5O3S
Exact mass: 291.0193
SMILES: O=[N+]([O-])N=C1N(C)COCN1CC=2SC(Cl)=NC2
InChI: InChI=1S/C8H10ClN5O3S/c1-12-4-17-5-13(8(12)11-14(15)16)3-6-2-10-7(9)18-6/h2H,3-5H2,1H3
Instrument: QExactive Orbitrap HF-X (Thermo Scientific)
Instrument type: LC-ESI-QFT
Ms type: MS2
Ion mode: POSITIVE
Ionization: ESI
Fragmentation mode: HCD
Collision energy: Ramp 20%-70% (nominal)
Resolution: 30000
Column name: Waters; Acquity UPLC BEH C18, 2.1 x 100 mm, 1.7 um, Waters
Retention time: 8.450300
Base peak: NA
Precursor m/z: NA
Ion type: [M+H]+
m/z	relative intensity
67.04176	27
69.045	147
70.99522	98
78.94525	10
81.04421	21
95.06049	12
98.00592	26
99.00149	36
108.05579	157
113.01707	16
122.07176	125
123.07945	35
125.0168	97
131.96722	714
138.01248	29
151.02007	59
152.02757	277
174.97295	27
180.04677	39
181.0551	157
210.05771	210
211.06477	999
212.76883	22
245.02551	14
246.03387	49
292.0256	39
