Mass spectrum: Disperse Yellow 3; LC-APCI-QFT; MS2; CE: Ramp 20%-70% (nominal); R=30000; [M-H]-
Name: Disperse Yellow 3
Name: N-[4-[(2-hydroxy-5-methylphenyl)diazenyl]phenyl]acetamide
Class: Azo Dyes
Formula: C15H15N3O2
Exact mass: 269.1164
SMILES: O=C(NC1=CC=C(N=NC2=CC(=CC=C2O)C)C=C1)C
InChI: InChI=1S/C15H15N3O2/c1-10-3-8-15(20)14(9-10)18-17-13-6-4-12(5-7-13)16-11(2)19/h3-9,20H,1-2H3,(H,16,19)
Instrument: QExactive Orbitrap HF-X (Thermo Scientific)
Instrument type: LC-APCI-QFT
Ms type: MS2
Ion mode: NEGATIVE
Ionization: APCI
Fragmentation mode: HCD
Collision energy: Ramp 20%-70% (nominal)
Resolution: 30000
Column name: Waters; Acquity UPLC BEH C18, 2.1 x 100 mm, 1.7 um, Waters
Retention time: 17.586400
Base peak: 268.10831
Precursor m/z: 268.1090
Ion type: [M-H]-
m/z	relative intensity
92.05077	328
93.05411	17
104.03828	15
105.03471	25
105.04555	28
105.04642	27
106.04262	12
106.05374	16
118.02931	15
118.03085	14
121.05321	36
126.99586	349
127.99881	25
128.99265	69
133.04031	51
133.0537	23
134.06128	673
135.06474	55
147.05759	11
148.06416	105
149.07133	53
149.07304	59
198.09247	25
213.33099	27
226.09918	17
253.08513	27
253.08891	16
266.99902	162
268.00229	28
268.10831	999
268.99646	118
269.11725	549
270.12	33
