Mass spectrum: Bis(2-ethylhexyl) phosphate; LC-ESI-QFT; MS2; CE: Ramp 20%-70% (nominal); R=30000; [M-H]-
Name: Bis(2-ethylhexyl) phosphate
Name: Bis(2-ethylhexyl) hydrogen phosphate
Class: Organophosphates; Fragrance Components; Lubricant additives, Corrosion inhibitors
Formula: C16H35O4P
Exact mass: 322.2273
SMILES: O=P(O)(OCC(CC)CCCC)OCC(CC)CCCC
InChI: InChI=1S/C16H35O4P/c1-5-9-11-15(7-3)13-19-21(17,18)20-14-16(8-4)12-10-6-2/h15-16H,5-14H2,1-4H3,(H,17,18)
Instrument: QExactive Orbitrap HF-X (Thermo Scientific)
Instrument type: LC-ESI-QFT
Ms type: MS2
Ion mode: NEGATIVE
Ionization: ESI
Fragmentation mode: HCD
Collision energy: Ramp 20%-70% (nominal)
Resolution: 30000
Column name: Waters; Acquity UPLC BEH C18, 2.1 x 100 mm, 1.7 um, Waters
Retention time: 19.251500
Base peak: 321.21797
Precursor m/z: 321.2177
Ion type: [M-H]-
m/z	relative intensity
78.95862	939.804
78.95993	916.551
209.09502	33.56
321.21797	999
