Mass spectrum: Pentachlorophenol; LC-APCI-QFT; MS2; CE: Ramp 20%-70% (nominal); R=30000; [M-H]-
Name: Pentachlorophenol
Name: 2,3,4,5,6-pentachlorophenol
Class: Benzene Derivatives; Chlorobenzenes; Chlorophenols
Formula: C6HCl5O
Exact mass: 263.8470
SMILES: ClC=1C(Cl)=C(Cl)C(O)=C(Cl)C1Cl
InChI: InChI=1S/C6HCl5O/c7-1-2(8)4(10)6(12)5(11)3(1)9/h12H
Instrument: QExactive Orbitrap HF-X (Thermo Scientific)
Instrument type: LC-APCI-QFT
Ms type: MS2
Ion mode: NEGATIVE
Ionization: APCI
Fragmentation mode: HCD
Collision energy: Ramp 20%-70% (nominal)
Resolution: 30000
Column name: Waters; Acquity UPLC BEH C18, 2.1 x 100 mm, 1.7 um, Waters
Retention time: 16.517600
Base peak: 262.84027
Precursor m/z: 262.8399
Ion type: [M-H]-
m/z	relative intensity
68.99828	17
78.91887	97
78.92142	12
80.91689	257
120.00917	17
201.9334	28
212.80013	46
214.92863	15
228.87805	10
243.93616	68
245.93341	72
260.93463	17
261.06589	28
261.14798	19
261.22217	10
261.92834	303
262.07401	80
262.84027	999
262.93463	18
263.07654	11
263.16589	19
263.84317	62
264.83737	967
