Mass spectrum: Disperse Orange 1; LC-ESI-QFT; MS2; CE: Ramp 20%-70% (nominal); R=30000; [M-H]-
Name: Disperse Orange 1
Name: 4-[(4-nitrophenyl)diazenyl]-N-phenylaniline
Class: Azo Dyes
Formula: C18H14N4O2
Exact mass: 318.1117
SMILES: O=[N+]([O-])C1=CC=C(N=NC2=CC=C(C=C2)NC=3C=CC=CC3)C=C1
InChI: InChI=1S/C18H14N4O2/c23-22(24)18-12-10-17(11-13-18)21-20-16-8-6-15(7-9-16)19-14-4-2-1-3-5-14/h1-13,19H
Instrument: QExactive Orbitrap HF-X (Thermo Scientific)
Instrument type: LC-ESI-QFT
Ms type: MS2
Ion mode: NEGATIVE
Ionization: ESI
Fragmentation mode: HCD
Collision energy: Ramp 20%-70% (nominal)
Resolution: 30000
Column name: Waters; Acquity UPLC BEH C18, 2.1 x 100 mm, 1.7 um, Waters
Retention time: 19.774800
Base peak: 317.10452
Precursor m/z: 317.1048
Ion type: [M-H]-
m/z	relative intensity
116.05081	21.502
122.02525	65.96
166.0668	58.742
167.07442	21.914
170.06146	42.205
198.05612	14.696
258.09344	10.001
317.10452	999
