Mass spectrum: Disperse Orange 1; LC-ESI-QFT; MS2; CE: Ramp 20%-70% (nominal); R=30000; [M+H]+
Name: Disperse Orange 1
Name: 4-[(4-nitrophenyl)diazenyl]-N-phenylaniline
Class: Azo Dyes
Formula: C18H14N4O2
Exact mass: 318.1117
SMILES: O=[N+]([O-])C1=CC=C(N=NC2=CC=C(C=C2)NC=3C=CC=CC3)C=C1
InChI: InChI=1S/C18H14N4O2/c23-22(24)18-12-10-17(11-13-18)21-20-16-8-6-15(7-9-16)19-14-4-2-1-3-5-14/h1-13,19H
Instrument: QExactive Orbitrap HF-X (Thermo Scientific)
Instrument type: LC-ESI-QFT
Ms type: MS2
Ion mode: POSITIVE
Ionization: ESI
Fragmentation mode: HCD
Collision energy: Ramp 20%-70% (nominal)
Resolution: 30000
Column name: Waters; Acquity UPLC BEH C18, 2.1 x 100 mm, 1.7 um, Waters
Retention time: 19.781900
Base peak: NA
Precursor m/z: NA
Ion type: [M+H]+
m/z	relative intensity
50.01561	18
51.02328	9
63.02315	15
64.03096	19
65.03873	7
66.04654	10
75.02521	139
76.03304	97
79.02281	14
91.02289	15
92.03113	74
94.04527	5
140.03467	7
142.07808	6
150.02986	47
154.06529	10
167.07332	14
168.08092	219
169.0891	205
181.07596	185
182.08371	6
212.52739	9
319.11966	999
