Mass spectrum: Triclocarban; LC-ESI-QFT; MS2; CE: Ramp 20%-70% (nominal); R=30000; [M+H]+
Name: Triclocarban
Name: 1-(4-chlorophenyl)-3-(3,4-dichlorophenyl)urea
Class: Biocides; Disinfectants; Aniline Compounds; Anilides; Carbanilides
Formula: C13H9Cl3N2O
Exact mass: 313.9780
SMILES: O=C(NC1=CC=C(Cl)C=C1)NC2=CC=C(Cl)C(Cl)=C2
InChI: InChI=1S/C13H9Cl3N2O/c14-8-1-3-9(4-2-8)17-13(19)18-10-5-6-11(15)12(16)7-10/h1-7H,(H2,17,18,19)
Instrument: QExactive Orbitrap HF-X (Thermo Scientific)
Instrument type: LC-ESI-QFT
Ms type: MS2
Ion mode: POSITIVE
Ionization: ESI
Fragmentation mode: HCD
Collision energy: Ramp 20%-70% (nominal)
Resolution: 30000
Column name: Waters; Acquity UPLC BEH C18, 2.1 x 100 mm, 1.7 um, Waters
Retention time: 18.592800
Base peak: NA
Precursor m/z: NA
Ion type: [M+H]+
m/z	relative intensity
92.04956	8.087
93.05754	438.595
98.99953	22.383
126.01088	113.863
127.01845	814.201
128.02649	194.356
132.96072	14.773
154.0058	16.126
159.97192	60.689
161.98711	184.976
187.96663	8.587
314.98621	999
