Mass spectrum: 2-Hydroxybenzimidazole; LC-APCI-QFT; MS2; CE: Ramp 20%-70% (nominal); R=30000; [M+H]+
Name: 2-Hydroxybenzimidazole
Name: 1,3-dihydrobenzimidazol-2-one
Class: Benzimidazoles
Formula: C7H6N2O
Exact mass: 134.0480
SMILES: O=C1NC=2C=CC=CC2N1
InChI: InChI=1S/C7H6N2O/c10-7-8-5-3-1-2-4-6(5)9-7/h1-4H,(H2,8,9,10)
Instrument: QExactive Orbitrap HF-X (Thermo Scientific)
Instrument type: LC-APCI-QFT
Ms type: MS2
Ion mode: POSITIVE
Ionization: APCI
Fragmentation mode: HCD
Collision energy: Ramp 20%-70% (nominal)
Resolution: 30000
Column name: Waters; Acquity UPLC BEH C18, 2.1 x 100 mm, 1.7 um, Waters
Retention time: 8.394600
Base peak: 135.05547
Precursor m/z: 135.0553
Ion type: [M+H]+
m/z	relative intensity
65.0387	11.949
80.04941	29.134
92.04947	80.73
93.05757	24.083
107.06046	169.825
135.05547	999
