Mass spectrum: 2-Hydroxybenzimidazole; LC-APCI-QFT; MS2; CE: Ramp 20%-70% (nominal); R=30000; [M-H]-
Name: 2-Hydroxybenzimidazole
Name: 1,3-dihydrobenzimidazol-2-one
Class: Benzimidazoles
Formula: C7H6N2O
Exact mass: 134.0480
SMILES: O=C1NC=2C=CC=CC2N1
InChI: InChI=1S/C7H6N2O/c10-7-8-5-3-1-2-4-6(5)9-7/h1-4H,(H2,8,9,10)
Instrument: QExactive Orbitrap HF-X (Thermo Scientific)
Instrument type: LC-APCI-QFT
Ms type: MS2
Ion mode: NEGATIVE
Ionization: APCI
Fragmentation mode: HCD
Collision energy: Ramp 20%-70% (nominal)
Resolution: 30000
Column name: Waters; Acquity UPLC BEH C18, 2.1 x 100 mm, 1.7 um, Waters
Retention time: 8.286700
Base peak: 133.04063
Precursor m/z: 133.0408
Ion type: [M-H]-
m/z	relative intensity
100.96718	17.467
132.03313	36.46
132.04494	5.414
132.04657	5.399
132.05614	15.85
132.05777	16.419
133.01263	7.794
133.04063	999
133.06679	13.575
134.03786	7.608
134.04411	81.701
134.894	7.467
134.89589	7.252
134.98991	9.637
135.04424	11.692
135.08087	5.838
