Mass spectrum: Sulfamethazine; LC-ESI-QFT; MS2; CE: Ramp 20%-70% (nominal); R=30000; [M+H]+
Name: Sulfamethazine
Name: 4-amino-N-(4,6-dimethylpyrimidin-2-yl)benzenesulfonamide
Class: Drugs; Antiinfective Agents; Amines; Aniline Compounds; Sulfanilamides
Formula: C12H14N4O2S
Exact mass: 278.0837
SMILES: O=S(=O)(NC=1N=C(C=C(N1)C)C)C2=CC=C(N)C=C2
InChI: InChI=1S/C12H14N4O2S/c1-8-7-9(2)15-12(14-8)16-19(17,18)11-5-3-10(13)4-6-11/h3-7H,13H2,1-2H3,(H,14,15,16)
Instrument: QExactive Orbitrap HF-X (Thermo Scientific)
Instrument type: LC-ESI-QFT
Ms type: MS2
Ion mode: POSITIVE
Ionization: ESI
Fragmentation mode: HCD
Collision energy: Ramp 20%-70% (nominal)
Resolution: 30000
Column name: Waters; Acquity UPLC BEH C18, 2.1 x 100 mm, 1.7 um, Waters
Retention time: 8.789400
Base peak: NA
Precursor m/z: NA
Ion type: [M+H]+
m/z	relative intensity
65.03874	88.061
68.04961	27.471
80.04946	21.274
81.04456	20.202
92.04982	247.92
93.05752	10.948
95.06047	44.383
108.04452	263.646
110.06026	32.193
122.07166	24.361
123.0788	8.431
124.08694	306.425
125.07074	20.586
156.01158	68.732
186.03369	26.726
204.04437	205.289
213.1143	24.494
279.09039	999
