Mass spectrum: Norharman; LC-ESI-QFT; MS2; CE: Ramp 20%-70% (nominal); R=30000; [M-H]-
Name: Norharman
Name: 9H-pyrido[3,4-b]indole
Class: Indole Alkaloids; Carbolines
Formula: C11H8N2
Exact mass: 168.0687
SMILES: N=1C=CC2=C(C1)NC=3C=CC=CC32
InChI: InChI=1S/C11H8N2/c1-2-4-10-8(3-1)9-5-6-12-7-11(9)13-10/h1-7,13H
Instrument: QExactive Orbitrap HF-X (Thermo Scientific)
Instrument type: LC-ESI-QFT
Ms type: MS2
Ion mode: NEGATIVE
Ionization: ESI
Fragmentation mode: HCD
Collision energy: Ramp 20%-70% (nominal)
Resolution: 30000
Column name: Waters; Acquity UPLC BEH C18, 2.1 x 100 mm, 1.7 um, Waters
Retention time: 13.116900
Base peak: 167.06178
Precursor m/z: 167.0618
Ion type: [M-H]-
m/z	relative intensity
140.05107	13.957
167.06178	999
