Mass spectrum: Fenuron; LC-ESI-QFT; MS2; CE: Ramp 20%-70% (nominal); R=30000; [M+H]+
Name: Fenuron
Name: 1,1-dimethyl-3-phenylurea
Class: Pesticides; Herbicides; Urea Derivatives; Benzene Derivatives
Formula: C9H12N2O
Exact mass: 164.0950
SMILES: O=C(NC=1C=CC=CC1)N(C)C
InChI: InChI=1S/C9H12N2O/c1-11(2)9(12)10-8-6-4-3-5-7-8/h3-7H,1-2H3,(H,10,12)
Instrument: QExactive Orbitrap HF-X (Thermo Scientific)
Instrument type: LC-ESI-QFT
Ms type: MS2
Ion mode: POSITIVE
Ionization: ESI
Fragmentation mode: HCD
Collision energy: Ramp 20%-70% (nominal)
Resolution: 30000
Column name: Waters; Acquity UPLC BEH C18, 2.1 x 100 mm, 1.7 um, Waters
Retention time: 9.582100
Base peak: NA
Precursor m/z: NA
Ion type: [M+H]+
m/z	relative intensity
53.03896	7.248
72.04073	8.386
72.04434	999
92.05481	34.984
95.04913	6.63
120.04468	34.071
165.10272	463.946
