Mass spectrum: Metalaxyl; LC-ESI-QFT; MS2; CE: Ramp 20%-70% (nominal); R=30000; [M+H]+
Name: Metalaxyl
Name: Methyl 2-(N-(2-methoxyacetyl)-2,6-dimethylanilino)propanoate
Class: Pesticides; Fungicides; Carboxamides
Formula: C15H21NO4
Exact mass: 279.1471
SMILES: O=C(OC)C(N(C(=O)COC)C=1C(=CC=CC1C)C)C
InChI: InChI=1S/C15H21NO4/c1-10-7-6-8-11(2)14(10)16(13(17)9-19-4)12(3)15(18)20-5/h6-8,12H,9H2,1-5H3
Instrument: QExactive Orbitrap HF-X (Thermo Scientific)
Instrument type: LC-ESI-QFT
Ms type: MS2
Ion mode: POSITIVE
Ionization: ESI
Fragmentation mode: HCD
Collision energy: Ramp 20%-70% (nominal)
Resolution: 30000
Column name: Waters; Acquity UPLC BEH C18, 2.1 x 100 mm, 1.7 um, Waters
Retention time: 14.836600
Base peak: NA
Precursor m/z: NA
Ion type: [M+H]+
m/z	relative intensity
105.06997	27.696
118.06548	10.192
119.08611	12.284
130.06502	23.709
131.07335	12.37
132.08063	67.641
133.08864	39.394
134.09656	95.037
144.08118	25.113
145.08911	100.061
146.09627	20
148.11256	87.959
160.11221	242.334
162.12784	50.489
192.13838	216.741
213.00403	11.826
220.13242	997.03
220.13461	999
248.12878	389.898
280.15457	197.116
