Mass spectrum: Ibuprofen; LC-ESI-QFT; MS2; CE: Ramp 20%-70% (nominal); R=30000; [M-H]-
Name: Ibuprofen
Name: 2-[4-(2-methylpropyl)phenyl]propanoic acid
Class: Drugs; Nonsteroidal antiiflammatory drug; Cyclooxygenase Inhibitor; Phenylpropionates
Formula: C13H18O2
Exact mass: 206.1307
SMILES: O=C(O)C(C1=CC=C(C=C1)CC(C)C)C
InChI: InChI=1S/C13H18O2/c1-9(2)8-11-4-6-12(7-5-11)10(3)13(14)15/h4-7,9-10H,8H2,1-3H3,(H,14,15)
Instrument: QExactive Orbitrap HF-X (Thermo Scientific)
Instrument type: LC-ESI-QFT
Ms type: MS2
Ion mode: NEGATIVE
Ionization: ESI
Fragmentation mode: HCD
Collision energy: Ramp 20%-70% (nominal)
Resolution: 30000
Column name: Waters; Acquity UPLC BEH C18, 2.1 x 100 mm, 1.7 um, Waters
Retention time: 16.073800
Base peak: 80.91701
Precursor m/z: 205.1235
Ion type: [M-H]-
m/z	relative intensity
57.03453	15.364
67.01907	71.266
73.02968	21.187
78.96605	10.414
80.91701	999
87.00908	344.278
100.96909	10.237
111.00827	696.232
111.00969	727.629
130.99901	11.396
143.03387	119.855
146.93939	188.743
147.93629	47.28
147.94234	243.671
159.11789	224.323
162.94366	10.502
173.01053	34.282
184.9752	12.517
204.96504	584.435
205.03751	60.043
