Mass spectrum: Diuron; LC-APCI-QFT; MS2; CE: Ramp 20%-70% (nominal); R=30000; [M-H]-
Name: Diuron
Name: 3-(3,4-dichlorophenyl)-1,1-dimethylurea
Class: Pesticides; Herbicides; Urea Derivatives; Benzene Derivatives
Formula: C9H10Cl2N2O
Exact mass: 232.0170
SMILES: O=C(NC1=CC=C(Cl)C(Cl)=C1)N(C)C
InChI: InChI=1S/C9H10Cl2N2O/c1-13(2)9(14)12-6-3-4-7(10)8(11)5-6/h3-5H,1-2H3,(H,12,14)
Instrument: QExactive Orbitrap HF-X (Thermo Scientific)
Instrument type: LC-APCI-QFT
Ms type: MS2
Ion mode: NEGATIVE
Ionization: APCI
Fragmentation mode: HCD
Collision energy: Ramp 20%-70% (nominal)
Resolution: 30000
Column name: Waters; Acquity UPLC BEH C18, 2.1 x 100 mm, 1.7 um, Waters
Retention time: 14.656500
Base peak: 230.87566
Precursor m/z: 231.0098
Ion type: [M-H]-
m/z	relative intensity
77.96571	87
78.91888	58
80.91692	36
121.98001	8
149.97473	22
151.0152	9
159.97226	9
166.90433	19
180.98845	5
185.94223	6
185.95175	114
185.99803	10
186.95613	8
187.94931	44
192.90213	92
193.90544	29
194.89908	321
195.90184	19
196.89604	63
214.96097	6
214.97281	9
229.88283	53
229.95767	13
230.03818	10
230.87566	999
230.94203	33
230.98726	128
231.0094	412
231.1758	142
231.8792	57
231.95502	14
232.01381	32
232.04036	49
232.17845	22
232.87308	386
232.93842	19
233.00713	158
233.15276	9
