Mass spectrum: Atrazine-desisopropyl; LC-ESI-QFT; MS2; CE: Ramp 20%-70% (nominal); R=30000; [M+H]+
Name: Atrazine-desisopropyl
Name: 6-chloro-2-N-ethyl-1,3,5-triazine-2,4-diamine
Class: Pesticide metabolites; Herbicides; Triazines
Formula: C5H8ClN5
Exact mass: 173.0468
SMILES: ClC=1N=C(N=C(N1)NCC)N
InChI: InChI=1S/C5H8ClN5/c1-2-8-5-10-3(6)9-4(7)11-5/h2H2,1H3,(H3,7,8,9,10,11)
Instrument: QExactive Orbitrap HF-X (Thermo Scientific)
Instrument type: LC-ESI-QFT
Ms type: MS2
Ion mode: POSITIVE
Ionization: ESI
Fragmentation mode: HCD
Collision energy: Ramp 20%-70% (nominal)
Resolution: 30000
Column name: Waters; Acquity UPLC BEH C18, 2.1 x 100 mm, 1.7 um, Waters
Retention time: 8.751800
Base peak: NA
Precursor m/z: NA
Ion type: [M+H]+
m/z	relative intensity
61.97937	6
68.02438	76
71.06058	40
79.0105	80
96.06006	125
104.00339	138
110.04607	12
132.03253	80
138.07797	20
146.02327	56
174.05467	211
216.10168	999
