Mass spectrum: Atenolol; LC-ESI-QFT; MS2; CE: Ramp 20%-70% (nominal); R=30000; [M+H]+
Name: Atenolol
Name: 2-[4-[2-hydroxy-3-(propan-2-ylamino)propoxy]phenyl]acetamide
Class: Drugs; Agent Affecting Nervous System; Beta-Adrenergic Antagonist
Formula: C14H22N2O3
Exact mass: 266.1630
SMILES: O=C(N)CC1=CC=C(OCC(O)CNC(C)C)C=C1
InChI: InChI=1S/C14H22N2O3/c1-10(2)16-8-12(17)9-19-13-5-3-11(4-6-13)7-14(15)18/h3-6,10,12,16-17H,7-9H2,1-2H3,(H2,15,18)
Instrument: QExactive Orbitrap HF-X (Thermo Scientific)
Instrument type: LC-ESI-QFT
Ms type: MS2
Ion mode: POSITIVE
Ionization: ESI
Fragmentation mode: HCD
Collision energy: Ramp 20%-70% (nominal)
Resolution: 30000
Column name: Waters; Acquity UPLC BEH C18, 2.1 x 100 mm, 1.7 um, Waters
Retention time: 7.167600
Base peak: NA
Precursor m/z: NA
Ion type: [M+H]+
m/z	relative intensity
56.04987	69.188
58.06552	6.092
72.08084	29.584
74.06006	66.043
91.05942	14.099
93.07422	10.249
98.09995	9.23
105.07129	9.447
106.06653	9.666
107.05054	14.913
115.05455	8.913
116.10747	16.157
117.06995	15.529
119.04962	13.762
121.06511	18.62
133.0649	58.35
134.06004	9.915
145.06488	132.667
147.04424	8.042
162.06625	5.661
164.07048	5.779
178.08641	5.656
190.08641	17.621
208.09723	5.815
225.12383	25.726
267.17108	999
