Mass spectrum: Diuron; LC-ESI-QFT; MS2; CE: Ramp 20%-70% (nominal); R=30000; [M+H]+
Name: Diuron
Name: 3-(3,4-dichlorophenyl)-1,1-dimethylurea
Class: Pesticides; Herbicides; Urea Derivatives; Benzene Derivatives
Formula: C9H10Cl2N2O
Exact mass: 232.0170
SMILES: O=C(NC1=CC=C(Cl)C(Cl)=C1)N(C)C
InChI: InChI=1S/C9H10Cl2N2O/c1-13(2)9(14)12-6-3-4-7(10)8(11)5-6/h3-5H,1-2H3,(H,12,14)
Instrument: QExactive Orbitrap HF-X (Thermo Scientific)
Instrument type: LC-ESI-QFT
Ms type: MS2
Ion mode: POSITIVE
Ionization: ESI
Fragmentation mode: HCD
Collision energy: Ramp 20%-70% (nominal)
Resolution: 30000
Column name: Waters; Acquity UPLC BEH C18, 2.1 x 100 mm, 1.7 um, Waters
Retention time: 14.714100
Base peak: NA
Precursor m/z: NA
Ion type: [M+H]+
m/z	relative intensity
56.01337	8.207
72.04436	857.836
132.96091	11.104
159.97189	53.598
214.11671	10.304
233.024	999
