Mass spectrum: Panthenol; LC-APCI-QFT; MS2; CE: Ramp 20%-70% (nominal); R=30000; [M+H]+
Name: Panthenol
Name: 2,4-dihydroxy-N-(3-hydroxypropyl)-3,3-dimethylbutanamide
Class: Personnal Care Products; Hair and Skin conditioning; Imides
Formula: C9H19NO4
Exact mass: 205.1314
SMILES: O=C(NCCCO)C(O)C(C)(C)CO
InChI: InChI=1S/C9H19NO4/c1-9(2,6-12)7(13)8(14)10-4-3-5-11/h7,11-13H,3-6H2,1-2H3,(H,10,14)
Instrument: QExactive Orbitrap HF-X (Thermo Scientific)
Instrument type: LC-APCI-QFT
Ms type: MS2
Ion mode: POSITIVE
Ionization: APCI
Fragmentation mode: HCD
Collision energy: Ramp 20%-70% (nominal)
Resolution: 30000
Column name: Waters; Acquity UPLC BEH C18, 2.1 x 100 mm, 1.7 um, Waters
Retention time: 6.810700
Base peak: 226.16643
Precursor m/z: 206.1389
Ion type: [M+H]+
m/z	relative intensity
56.01338	33
57.07027	31
58.06544	147
59.04953	34
67.05441	47
69.07312	25
74.02271	60
76.07582	491
84.04581	37
85.06538	29
95.05129	29
102.05563	72
103.07572	15
170.11687	50
170.11867	54
188.12865	154
206.13884	999
