Mass spectrum: Metformin; LC-ESI-QFT; MS2; CE: Ramp 20%-70% (nominal); R=30000; [M+H]+
Name: Metformin
Name: 3-(diaminomethylidene)-1,1-dimethylguanidine
Class: Drugs; Antidiabetic Agents; Amidines; Guanidines; Biguanides
Formula: C4H11N5
Exact mass: 129.1014
SMILES: N=C(N=C(N)N)N(C)C
InChI: InChI=1S/C4H11N5/c1-9(2)4(7)8-3(5)6/h1-2H3,(H5,5,6,7,8)
Instrument: QExactive Orbitrap HF-X (Thermo Scientific)
Instrument type: LC-ESI-QFT
Ms type: MS2
Ion mode: POSITIVE
Ionization: ESI
Fragmentation mode: HCD
Collision energy: Ramp 20%-70% (nominal)
Resolution: 30000
Column name: Waters; Acquity UPLC BEH C18, 2.1 x 100 mm, 1.7 um, Waters
Retention time: 3.535300
Base peak: NA
Precursor m/z: NA
Ion type: [M+H]+
m/z	relative intensity
51.64912	10.193
60.05594	999
64.67867	12.241
68.02432	27.703
71.06052	900.51
71.06245	14.515
85.0508	276.065
88.08699	267.593
96.06007	11.118
113.08223	137.816
130.1088	716.632
