Mass spectrum: Perfluorobutanoic acid; LC-ESI-QFT; MS2; CE:40; R=30000; [M-H]-
Name: Perfluorobutanoic acid
Name: 2,2,3,3,4,4,4-heptafluorobutanoic acid
Class: Perfluoroalkyl Acids; Caprylates; Carboxylic acid; Fluoroalkanoic acid; Water repellant; PFAS
Formula: C4HF7O2
Exact mass: 213.9865
SMILES: O=C(O)C(F)(F)C(F)(F)C(F)(F)F
InChI: InChI=1S/C4HF7O2/c5-2(6,1(12)13)3(7,8)4(9,10)11/h(H,12,13)
Instrument: QExactive Orbitrap HF-X (Thermo Scientific)
Instrument type: LC-ESI-QFT
Ms type: MS2
Ion mode: NEGATIVE
Ionization: ESI
Fragmentation mode: HCD
Collision energy: 40
Resolution: 30000
Column name: Acquity UPLC BEH C18, 3.0 x 100 mm, 1.7 um, Waters
Retention time:  9.688442
Base peak: 168.98988
Precursor m/z: 212.9793
Ion type: [M-H]-
m/z	relative intensity
57.03447	15
59.01376	91
78.95914	42
78.96704	42
81.95316	8
90.97125	7
95.95236	7
98.92952	13
108.02213	35
126.90485	56
128.99295	12
132.86787	19
134.86517	22
136.94894	11
138.02022	90
141.09248	6
149.09744	15
153.1284	19
157.06563	12
161.00427	9
168.98988	999
169.99306	25
171.99988	494
176.90701	17
176.92975	6
182.00974	124
185.06073	26
194.93889	9
197.11795	21
201.11298	7
211.04027	6
212.97894	8
