Mass spectrum: Diphenyl Phosphate; LC-APCI-QFT; MS2; CE: Ramp 20%-70% (nominal); R=30000; [M+H]+
Name: Diphenyl Phosphate
Name: Phosphoric acid diphenyl ester
Class: Aryl phosphate
Formula: C12H11O4P
Exact mass: 250.0395
SMILES: O=P(O)(OC=1C=CC=CC1)OC=2C=CC=CC2
InChI: InChI=1S/C12H11O4P/c13-17(14,15-11-7-3-1-4-8-11)16-12-9-5-2-6-10-12/h1-10H,(H,13,14)
Instrument: QExactive Orbitrap HF-X (Thermo Scientific)
Instrument type: LC-APCI-QFT
Ms type: MS2
Ion mode: POSITIVE
Ionization: APCI
Fragmentation mode: HCD
Collision energy: Ramp 20%-70% (nominal)
Resolution: 30000
Column name: Waters; Acquity UPLC BEH C18, 2.1 x 100 mm, 1.7 um, Waters
Retention time: 11.934000
Base peak: 319.11801
Precursor m/z: 251.0467
Ion type: [M+H]+
m/z	relative intensity
51.02332	28
53.03894	112
55.01811	7
77.03865	24
81.03376	13
95.04948	128
105.04489	45
152.06236	118
153.07018	22
157.00481	5
168.0574	20
169.06537	10
175.01624	35
215.02596	7
233.03668	16
251.04721	999
