Mass spectrum: Panthenol; LC-ESI-QFT; MS2; CE: Ramp 20%-70% (nominal); R=30000; [M+H]+
Name: Panthenol
Name: 2,4-dihydroxy-N-(3-hydroxypropyl)-3,3-dimethylbutanamide
Class: Personnal Care Products; Hair and Skin conditioning; Imides
Formula: C9H19NO4
Exact mass: 205.1314
SMILES: O=C(NCCCO)C(O)C(C)(C)CO
InChI: InChI=1S/C9H19NO4/c1-9(2,6-12)7(13)8(14)10-4-3-5-11/h7,11-13H,3-6H2,1-2H3,(H,10,14)
Instrument: QExactive Orbitrap HF-X (Thermo Scientific)
Instrument type: LC-ESI-QFT
Ms type: MS2
Ion mode: POSITIVE
Ionization: ESI
Fragmentation mode: HCD
Collision energy: Ramp 20%-70% (nominal)
Resolution: 30000
Column name: Waters; Acquity UPLC BEH C18, 2.1 x 100 mm, 1.7 um, Waters
Retention time: 6.883100
Base peak: NA
Precursor m/z: NA
Ion type: [M+H]+
m/z	relative intensity
56.01331	78
57.07021	34
58.06537	191
59.04941	30
67.05435	55
69.06987	41
74.02267	116
76.07588	709
84.04596	37
85.06555	47
95.05156	57
102.05542	158
103.07542	45
170.1174	116
188.12791	235
189.13202	22
206.13884	999
207.14223	77
