Mass spectrum: (R,S)-Equol; LC-ESI-QFT; MS2; CE: Ramp 20%-70% (nominal); R=30000; [M-H]-
Name: (R,S)-Equol
Name: 3-(4-hydroxyphenyl)-3,4-dihydro-2H-chromen-7-ol
Class: Benzopyrans; Flavonoids; Isoflavones
Formula: C15H14O3
Exact mass: 242.0943
SMILES: OC1=CC=C(C=C1)C2COC3=CC(O)=CC=C3C2
InChI: InChI=1S/C15H14O3/c16-13-4-1-10(2-5-13)12-7-11-3-6-14(17)8-15(11)18-9-12/h1-6,8,12,16-17H,7,9H2
Instrument: QExactive Orbitrap HF-X (Thermo Scientific)
Instrument type: LC-ESI-QFT
Ms type: MS2
Ion mode: NEGATIVE
Ionization: ESI
Fragmentation mode: HCD
Collision energy: Ramp 20%-70% (nominal)
Resolution: 30000
Column name: Waters; Acquity UPLC BEH C18, 2.1 x 100 mm, 1.7 um, Waters
Retention time: 13.437100
Base peak: 119.05060
Precursor m/z: 241.0875
Ion type: [M-H]-
m/z	relative intensity
65.0397	31.428
91.05545	155.826
93.03462	362.447
119.04868	266.301
119.0506	999
121.02986	739.204
133.0295	15.351
135.04526	366.215
147.04575	46.961
214.05891	17.349
241.08714	868.069
