Mass spectrum: N-Lauroylethanolamine; LC-ESI-QFT; MS2; CE: Ramp 20%-70% (nominal); R=30000; [M-H]-
Name: N-Lauroylethanolamine
Name: N-(2-hydroxyethyl)dodecanamide
Class: Ethanolamines; Surfactants; Antistatic agents
Formula: C14H29NO2
Exact mass: 243.2198
SMILES: O=C(NCCO)CCCCCCCCCCC
InChI: InChI=1S/C14H29NO2/c1-2-3-4-5-6-7-8-9-10-11-14(17)15-12-13-16/h16H,2-13H2,1H3,(H,15,17)
Instrument: QExactive Orbitrap HF-X (Thermo Scientific)
Instrument type: LC-ESI-QFT
Ms type: MS2
Ion mode: NEGATIVE
Ionization: ESI
Fragmentation mode: HCD
Collision energy: Ramp 20%-70% (nominal)
Resolution: 30000
Column name: Waters; Acquity UPLC BEH C18, 2.1 x 100 mm, 1.7 um, Waters
Retention time: 18.757800
Base peak: 242.21263
Precursor m/z: 242.2130
Ion type: [M-H]-
m/z	relative intensity
181.15977	10.638
198.1862	10.009
210.31274	11.251
240.19748	150.233
242.21263	999
