Mass spectrum: Dimethoate; LC-ESI-QFT; MS2; CE: Ramp 20%-70% (nominal); R=30000; [M+H]+
Name: Dimethoate
Name: 2-dimethoxyphosphinothioylsulfanyl-N-methylacetamide
Class: Pesticides; Organophosphate Insecticides; Organothiophosphates
Formula: C5H12NO3PS2
Exact mass: 228.9996
SMILES: O=C(NC)CSP(=S)(OC)OC
InChI: InChI=1S/C5H12NO3PS2/c1-6-5(7)4-12-10(11,8-2)9-3/h4H2,1-3H3,(H,6,7)
Instrument: QExactive Orbitrap HF-X (Thermo Scientific)
Instrument type: LC-ESI-QFT
Ms type: MS2
Ion mode: POSITIVE
Ionization: ESI
Fragmentation mode: HCD
Collision energy: Ramp 20%-70% (nominal)
Resolution: 30000
Column name: Waters; Acquity UPLC BEH C18, 2.1 x 100 mm, 1.7 um, Waters
Retention time: 9.959000
Base peak: NA
Precursor m/z: NA
Ion type: [M+H]+
m/z	relative intensity
58.99527	5.903
61.01088	7.777
62.01865	14.628
78.99413	104.244
88.02168	374.557
93.01039	41.996
110.96652	9.147
119.99382	7.846
123.99808	17.542
124.98212	328.97
128.97684	11.361
142.99281	434.643
155.96994	5.219
156.95435	44.027
170.96996	362.097
188.97964	11.914
197.9807	62.946
198.96535	999
214.18753	5.959
214.19931	5.451
230.00761	46.242
