Mass spectrum: Rupestonic acid; LC-APCI-QFT; MS2; CE: Ramp 20%-70% (nominal); R=30000; [M+H]+
Name: Rupestonic acid
Name: Pechueloic Acid
Class: Natural Products; Terpenes; Sesquiterpenes
Formula: C15H20O3
Exact mass: 248.1412
SMILES: O=C(O)C(=C)C1CC2=C(C(=O)CC2C(C)CC1)C
InChI: InChI=1S/C15H20O3/c1-8-4-5-11(9(2)15(17)18)6-13-10(3)14(16)7-12(8)13/h8,11-12H,2,4-7H2,1,3H3,(H,17,18)/t8-,11+,12-/m0/s1
Instrument: QExactive Orbitrap HF-X (Thermo Scientific)
Instrument type: LC-APCI-QFT
Ms type: MS2
Ion mode: POSITIVE
Ionization: APCI
Fragmentation mode: HCD
Collision energy: Ramp 20%-70% (nominal)
Resolution: 30000
Column name: Waters; Acquity UPLC BEH C18, 2.1 x 100 mm, 1.7 um, Waters
Retention time: 12.322700
Base peak: 222.14894
Precursor m/z: 249.1489
Ion type: [M+H]+
m/z	relative intensity
67.05446	21.151
79.05331	40.569
81.07024	112.286
91.05434	54.659
93.06854	33.079
105.06955	42.245
107.08545	42.606
119.08586	33.095
131.08537	21.242
135.07986	21.046
135.08113	20.337
177.12839	29.017
203.1432	25.325
213.12787	20.475
231.13892	65.073
249.14937	999
