Mass spectrum: N-Lauroylethanolamine; LC-APCI-QFT; MS2; CE: Ramp 20%-70% (nominal); R=30000; [M-H]-
Name: N-Lauroylethanolamine
Name: N-(2-hydroxyethyl)dodecanamide
Class: Ethanolamines; Surfactants; Antistatic agents
Formula: C14H29NO2
Exact mass: 243.2198
SMILES: O=C(NCCO)CCCCCCCCCCC
InChI: InChI=1S/C14H29NO2/c1-2-3-4-5-6-7-8-9-10-11-14(17)15-12-13-16/h16H,2-13H2,1H3,(H,15,17)
Instrument: QExactive Orbitrap HF-X (Thermo Scientific)
Instrument type: LC-APCI-QFT
Ms type: MS2
Ion mode: NEGATIVE
Ionization: APCI
Fragmentation mode: HCD
Collision energy: Ramp 20%-70% (nominal)
Resolution: 30000
Column name: Waters; Acquity UPLC BEH C18, 2.1 x 100 mm, 1.7 um, Waters
Retention time: 18.755200
Base peak: 242.21313
Precursor m/z: 242.2125
Ion type: [M-H]-
m/z	relative intensity
72.00934	8
84.04567	8
181.15918	23
183.17558	23
194.19133	6
198.187	47
199.16925	14
199.17189	13
199.18962	6
212.20184	38
213.20543	7
213.98999	13
222.18668	20
224.2023	15
240.19649	294
241.20015	43
241.21271	5
242.21313	999
243.21573	139
244.21996	7
