Mass spectrum: Clozapine; LC-ESI-ITFT; MS2; CE: 50%; R=15000; [M+H]+
Name: Clozapine
Name: 3-chloro-6-(4-methylpiperazin-1-yl)-11H-benzo[b][1,4]benzodiazepine
Formula: C18H19ClN4
Exact mass: 326.129824288
SMILES: CN1CCN(CC1)C1=NC2=C(NC3=CC=CC=C13)C=CC(Cl)=C2
InChI: InChI=1S/C18H19ClN4/c1-22-8-10-23(11-9-22)18-14-4-2-3-5-15(14)20-16-7-6-13(19)12-17(16)21-18/h2-7,12,20H,8-11H2,1H3
Instrument: LTQ Orbitrap XL Thermo Scientific
Instrument type: LC-ESI-ITFT
Ms type: MS2
Ion mode: POSITIVE
Ionization: ESI
Fragmentation mode: HCD
Collision energy: 50 % (nominal)
Resolution: 15000
Column name: Kinetex Evo C18 2.6 um 50 x 2.1 mm
Retention time: 6.810 min
Base peak: 327.1382
Precursor m/z: 327.1371
Precursor type: [M+H]+
Precursor intensity: 9721772
m/z	relative intensity	assigned
58.0649	12	C3H8N+
82.0651	3	C5H8N+
84.0807	227	C5H10N+
85.0761	8	C4H9N2+
99.0916	3	C5H11N2+
192.0683	40	C13H8N2+
226.0292	1	C13H7ClN2+
227.0371	121	C13H8ClN2+
229.0526	8	C13H10ClN2+
234.1026	1	C15H12N3+
235.111	2	C15H13N3+
244.0635	2	C13H11ClN3+
253.0528	6	C15H10ClN2+
255.0567	3	C14H10ClN3+
268.0636	1	C15H11ClN3+
270.0793	999	C15H13ClN3+
284.0947	1	C16H15ClN3+
296.0948	106	C17H15ClN3+
327.1369	35	C18H20ClN4+
