Mass spectrum: 2-Nitroaniline; LC-ESI-ITFT; MS2; CE: 80%; R=15000; [M+H]+
Name: 2-Nitroaniline
Formula: C6H6N2O2
Exact mass: 138.042927432
SMILES: NC1=C(C=CC=C1)[N+]([O-])=O
InChI: InChI=1S/C6H6N2O2/c7-5-3-1-2-4-6(5)8(9)10/h1-4H,7H2
Instrument: LTQ Orbitrap XL Thermo Scientific
Instrument type: LC-ESI-ITFT
Ms type: MS2
Ion mode: POSITIVE
Ionization: ESI
Fragmentation mode: HCD
Collision energy: 80 % (nominal)
Resolution: 15000
Column name: Kinetex Evo C18 2.6 um 50 x 2.1 mm
Retention time: 5.799 min
Base peak: 184.0872
Precursor m/z: 139.0502
Precursor type: [M+H]+
Precursor intensity: 187349.42
m/z	relative intensity	assigned
51.0228	83	C4H3+
65.0384	65	C5H5+
66.0338	43	C4H4N+
76.0181	73	C5H2N+
78.0339	117	C5H4N+
80.0132	200	C4H2NO+
91.0418	999	C6H5N+
92.0496	657	C6H6N+
103.0291	143	C6H3N2+
104.0373	51	C6H4N2+
121.0399	164	C6H5N2O+
122.0476	373	C6H6N2O+
