Mass spectrum: Paramethasone; LC-ESI-ITFT; MS2; CE: 50%; R=15000; [M+H]+
Name: Paramethasone
Name: (6S,8S,9S,10R,11S,13S,14S,16R,17R)-6-fluoro-11,17-dihydroxy-17-(2-hydroxyacetyl)-10,13,16-trimethyl-7,8,9,11,12,14,15,16-octahydro-6H-cyclopenta[a]phenanthren-3-one
Formula: C22H29FO5
Exact mass: 392.199902248
SMILES: [H][C@@]12C[C@@H](C)[C@](O)(C(=O)CO)[C@@]1(C)C[C@H](O)[C@@]1([H])[C@@]2([H])C[C@H](F)C2=CC(=O)C=C[C@]12C
InChI: InChI=1S/C22H29FO5/c1-11-6-14-13-8-16(23)15-7-12(25)4-5-20(15,2)19(13)17(26)9-21(14,3)22(11,28)18(27)10-24/h4-5,7,11,13-14,16-17,19,24,26,28H,6,8-10H2,1-3H3/t11-,13+,14+,16+,17+,19-,20+,21+,22+/m1/s1
Instrument: LTQ Orbitrap XL Thermo Scientific
Instrument type: LC-ESI-ITFT
Ms type: MS2
Ion mode: POSITIVE
Ionization: ESI
Fragmentation mode: HCD
Collision energy: 50 % (nominal)
Resolution: 15000
Column name: Kinetex Evo C18 2.6 um 50 x 2.1 mm
Retention time: 10.440 min
Base peak: 393.207
Precursor m/z: 393.2072
Precursor type: [M+H]+
Precursor intensity: 11890558
m/z	relative intensity	assigned
95.0859	122	C7H11+
121.065	407	C8H9O+
121.1014	76	C9H13+
147.0808	395	C10H11O+
171.0806	999	C12H11O+
173.0962	117	C12H13O+
185.0964	163	C13H13O+
197.0966	331	C14H13O+
209.0963	118	C15H13O+
211.1124	215	C15H15O+
222.1045	98	C13H15FO2+
223.1124	213	C13H16FO2+
225.1276	93	C16H17O+
235.112	155	C17H15O+
237.1277	230	C17H17O+
239.1431	198	C17H19O+
248.1198	68	C18H16O+
261.1268	75	C19H17O+
263.1428	129	C19H19O+
277.1601	75	C17H22FO2+
