Mass spectrum: Cashmeran; LC-ESI-ITFT; MS2; CE: 40%; R=15000; [M+H]+
Name: Cashmeran
Name: 1,1,2,3,3-pentamethyl-2,5,6,7-tetrahydroinden-4-one
Formula: C14H22O
Exact mass: 206.167065324
SMILES: CC1C(C)(C)C2=C(C(=O)CCC2)C1(C)C
InChI: InChI=1S/C14H22O/c1-9-13(2,3)10-7-6-8-11(15)12(10)14(9,4)5/h9H,6-8H2,1-5H3
Instrument: LTQ Orbitrap XL Thermo Scientific
Instrument type: LC-ESI-ITFT
Ms type: MS2
Ion mode: POSITIVE
Ionization: ESI
Fragmentation mode: HCD
Collision energy: 40 % (nominal)
Resolution: 15000
Column name: Kinetex Evo C18 2.6 um 50 x 2.1 mm
Retention time: 12.700 min
Base peak: 207.1746
Precursor m/z: 207.1743
Precursor type: [M+H]+
Precursor intensity: 36513508
m/z	relative intensity	assigned
83.0854	1	C6H11+
93.0697	2	C7H9+
95.0855	1	C7H11+
107.0853	2	C8H11+
109.1011	2	C8H13+
119.0854	5	C9H11+
121.1009	2	C9H13+
123.0799	1	C8H11O+
133.101	10	C10H13+
135.1169	1	C10H15+
137.0958	113	C9H13O+
147.1165	6	C11H15+
149.1323	2	C11H17+
151.1115	16	C10H15O+
161.1322	1	C12H17+
163.1481	1	C12H19+
165.1271	2	C11H17O+
189.1635	66	C14H21+
192.1506	3	C13H20O+
207.1739	999	C14H23O+
