Mass spectrum: Genistein; LC-ESI-ITFT; MS2; CE: 55; R=15000; [M-H]-
Name: Genistein
Name: 5,7-Dihydroxy-3-(4-hydroxyphenyl)chromen-4-one
Formula: C15H10O5
Exact mass: 270.0528
SMILES: OC1=CC=C(C=C1)C1=COC2=CC(O)=CC(O)=C2C1=O
InChI: InChI=1S/C15H10O5/c16-9-3-1-8(2-4-9)11-7-20-13-6-10(17)5-12(18)14(13)15(11)19/h1-7,16-18H
Instrument: LTQ Orbitrap XL Thermo Scientific
Instrument type: LC-ESI-ITFT
Ms type: MS2
Ion mode: NEGATIVE
Ionization: ESI
Fragmentation mode: CID
Collision energy: 55 (nominal)
Resolution: 15000
Column name: Kinetex Core-Shell C18 2.6 um, 3.0 x 100 mm, Phenomenex
Retention time: 22.733 min
Base peak: 405.1921
Precursor m/z: 269.0455
Precursor type: [M-H]-
m/z	relative intensity	assigned
91.0191	15	C6H3O-
107.0137	40	C6H3O2-
132.022	25	C8H4O2-
133.0295	243	C8H5O2-
135.0088	62	C7H3O3-
135.0447	21	C8H7O2-
151.0035	30	C7H3O4-
152.0633	17	C12H8-
155.0502	43	C11H7O-
156.0583	22	C11H8O-
157.0295	104	C10H5O2-
157.0658	97	C11H9O-
159.0453	172	C10H7O2-
161.0241	17	C9H5O3-
169.0659	279	C12H9O-
171.0452	29	C11H7O2-
173.0613	26	C11H9O2-
176.0118	30	C9H4O4-
179.0507	43	C13H7O-
180.0581	328	C13H8O-
181.0659	999	C13H9O-
182.0372	56	C12H6O2-
183.0451	278	C12H7O2-
195.0448	49	C13H7O2-
196.053	322	C13H8O2-
197.0607	454	C13H9O2-
199.0401	211	C12H7O3-
201.0557	766	C12H9O3-
210.0328	36	C13H6O3-
213.0557	247	C13H9O3-
223.0402	41	C14H7O3-
224.0478	586	C14H8O3-
225.0557	887	C14H9O3-
227.0348	257	C13H7O4-
240.0428	134	C14H8O4-
241.0505	356	C14H9O4-
