Mass spectrum: Montelukast; LC-ESI-ITFT; MS2; CE: 40%; R=15000; [M+H]+
Name: Montelukast
Name: cis-Montelukast
Name: 2-[1-[[1-[3-[2-(7-chloroquinolin-2-yl)ethenyl]phenyl]-3-[2-(2-hydroxypropan-2-yl)phenyl]propyl]sulfanylmethyl]cyclopropyl]acetic acid
Formula: C35H36ClNO3S
Exact mass: 585.210442692
SMILES: CC(C)(O)C1=CC=CC=C1CCC(SCC1(CC(O)=O)CC1)C1=CC=CC(C=CC2=NC3=C(C=CC(Cl)=C3)C=C2)=C1
InChI: InChI=1S/C35H36ClNO3S/c1-34(2,40)30-9-4-3-7-25(30)13-17-32(41-23-35(18-19-35)22-33(38)39)27-8-5-6-24(20-27)10-15-29-16-12-26-11-14-28(36)21-31(26)37-29/h3-12,14-16,20-21,32,40H,13,17-19,22-23H2,1-2H3,(H,38,39)
Instrument: LTQ Orbitrap XL Thermo Scientific
Instrument type: LC-ESI-ITFT
Ms type: MS2
Ion mode: POSITIVE
Ionization: ESI
Fragmentation mode: HCD
Collision energy: 40 % (nominal)
Resolution: 15000
Column name: Kinetex Evo C18 2.6 um 50 x 2.1 mm
Retention time: 14.180 min
Base peak: 116.9863
Precursor m/z: 586.2177
Precursor type: [M+H]+
Precursor intensity: 1056325
m/z	relative intensity	assigned
276.0586	517	C12H17ClO3S+
278.0739	706	C12H19ClO3S+
422.1674	999	C23H31ClO3S+
440.1796	36	C29H27ClNO+
