Mass spectrum: Metazachlor; LC-ESI-ITFT; MS2; CE: 55; R=15000; [M+H]+
Name: Metazachlor
Name: 2-Chloro-N-(2,6-dimethylphenyl)-N-(pyrazol-1-ylmethyl)acetamide
Formula: C14H16ClN3O
Exact mass: 277.0982
SMILES: CC1=CC=CC(C)=C1N(CN1C=CC=N1)C(=O)CCl
InChI: InChI=1S/C14H16ClN3O/c1-11-5-3-6-12(2)14(11)18(13(19)9-15)10-17-8-4-7-16-17/h3-8H,9-10H2,1-2H3
Instrument: LTQ Orbitrap XL Thermo Scientific
Instrument type: LC-ESI-ITFT
Ms type: MS2
Ion mode: POSITIVE
Ionization: ESI
Fragmentation mode: HCD
Collision energy: 55 (nominal)
Resolution: 15000
Column name: Kinetex Core-Shell C18 2.6 um, 3.0 x 100 mm, Phenomenex
Retention time: 23.009 min
Base peak: 298.2735
Precursor m/z: 278.1055
Precursor type: [M+H]+
m/z	relative intensity	assigned
76.9788	6	C2H2ClO+
134.0963	999	C9H12N+
