Mass spectrum: Clopidogrel; LC-ESI-ITFT; MS2; CE: 70%; R=15000; [M+H]+
Name: Clopidogrel
Name: Plavix
Name: methyl 2-(2-chlorophenyl)-2-(6,7-dihydro-4H-thieno[3,2-c]pyridin-5-yl)acetate
Formula: C16H16ClNO2S
Exact mass: 321.059027432
SMILES: COC(=O)C(N1CCC2=C(C1)C=CS2)C1=CC=CC=C1Cl
InChI: InChI=1S/C16H16ClNO2S/c1-20-16(19)15(12-4-2-3-5-13(12)17)18-8-6-14-11(10-18)7-9-21-14/h2-5,7,9,15H,6,8,10H2,1H3
Instrument: LTQ Orbitrap XL Thermo Scientific
Instrument type: LC-ESI-ITFT
Ms type: MS2
Ion mode: POSITIVE
Ionization: ESI
Fragmentation mode: HCD
Collision energy: 70 % (nominal)
Resolution: 15000
Column name: Kinetex Evo C18 2.6 um 50 x 2.1 mm
Retention time: 10.875 min
Base peak: 322.0673
Precursor m/z: 322.0663
Precursor type: [M+H]+
Precursor intensity: 37255120
m/z	relative intensity	assigned
77.0385	2	C6H5+
91.0542	21	C7H7+
105.0335	19	C7H5O+
111.0263	4	C6H7S+
125.0153	210	C7H6Cl+
127.0311	3	C7H8Cl+
148.052	13	C9H8O2+
152.0263	244	C8H7ClN+
154.0419	24	C8H9ClN+
155.0258	999	C8H8ClO+
183.0208	159	C9H8ClO2+
184.0524	93	C9H11ClNO+
212.0478	3	C10H11ClNO2+
