Mass spectrum: Canrenone; LC-ESI-ITFT; MS2; CE: 50%; R=15000; [M+H]+
Name: Canrenone
Name: (9S,14S)-10,13-dimethylspiro[2,8,9,11,12,14,15,16-octahydro-1H-cyclopenta[a]phenanthrene-17,5`-oxolane]-2`,3-dione
Formula: C22H28O3
Exact mass: 340.203844756
SMILES: CC12CC[C@H]3C(C=CC4=CC(=O)CCC34C)[C@@H]1CCC21CCC(=O)O1
InChI: InChI=1S/C22H28O3/c1-20-9-5-15(23)13-14(20)3-4-16-17(20)6-10-21(2)18(16)7-11-22(21)12-8-19(24)25-22/h3-4,13,16-18H,5-12H2,1-2H3/t16?,17-,18-,20?,21?,22?/m0/s1
Instrument: LTQ Orbitrap XL Thermo Scientific
Instrument type: LC-ESI-ITFT
Ms type: MS2
Ion mode: POSITIVE
Ionization: ESI
Fragmentation mode: HCD
Collision energy: 50 % (nominal)
Resolution: 15000
Column name: Kinetex Evo C18 2.6 um 50 x 2.1 mm
Retention time: 11.442 min
Base peak: 289.2164
Precursor m/z: 341.2111
Precursor type: [M+H]+
Precursor intensity: 8750145
m/z	relative intensity	assigned
67.054	5	C5H7+
71.049	12	C4H7O+
79.0542	56	C6H7+
81.07	21	C6H9+
83.0491	76	C5H7O+
91.0543	55	C7H7+
93.07	53	C7H9+
95.0855	19	C7H11+
97.0649	268	C6H9O+
99.0441	184	C5H7O2+
105.0699	104	C8H9+
107.0856	999	C8H11+
109.0647	25	C7H9O+
109.1012	11	C8H13+
111.0442	15	C6H7O2+
111.0807	5	C7H11O+
113.0598	7	C6H9O2+
117.0702	7	C9H9+
119.0856	70	C9H11+
121.0649	20	C8H9O+
121.1012	46	C9H13+
123.0804	18	C8H11O+
125.06	9	C7H9O2+
129.0697	4	C10H9+
131.0856	50	C10H11+
133.0647	9	C9H9O+
133.1012	43	C10H13+
135.0805	46	C9H11O+
135.1166	9	C10H15+
137.0962	19	C9H13O+
143.0856	131	C11H11+
145.1013	120	C11H13+
147.0805	48	C10H11O+
147.1169	27	C11H15+
149.0961	58	C10H13O+
153.0912	18	C9H13O2+
155.0856	29	C12H11+
157.1013	55	C12H13+
159.0805	47	C11H11O+
159.1169	43	C12H15+
161.0962	79	C11H13O+
163.1118	42	C11H15O+
165.0911	46	C10H13O2+
167.1065	18	C10H15O2+
169.1013	175	C13H13+
171.08	11	C12H11O+
171.117	25	C13H15+
173.0962	176	C12H13O+
175.1118	110	C12H15O+
177.1277	25	C12H17O+
179.1068	63	C11H15O2+
181.1013	20	C14H13+
183.1168	48	C14H15+
185.0962	6	C13H13O+
185.1326	51	C14H17+
187.1118	308	C13H15O+
189.1278	16	C13H17O+
195.1168	18	C15H15+
197.1329	14	C15H17+
199.1115	20	C14H15O+
199.1485	13	C15H19+
201.1268	12	C14H17O+
205.1224	129	C13H17O2+
207.117	8	C16H15+
209.1325	28	C16H17+
211.1124	9	C15H15O+
213.1272	15	C15H17O+
215.1426	4	C15H19O+
217.1233	5	C14H17O2+
221.1324	17	C17H17+
223.1484	22	C17H19+
225.1271	9	C16H17O+
227.1429	23	C16H19O+
235.148	17	C18H19+
237.1272	8	C17H17O+
237.1643	10	C18H21+
239.1423	5	C17H19O+
241.1587	19	C17H21O+
243.1743	12	C17H23O+
245.1533	9	C16H21O2+
249.1269	5	C18H17O+
253.1593	5	C18H21O+
257.1535	12	C17H21O2+
259.1698	13	C17H23O2+
261.1636	10	C20H21+
263.1425	4	C19H19O+
263.1801	13	C20H23+
265.1589	25	C19H21O+
267.1734	5	C19H23O+
268.1823	13	C19H24O+
271.1696	7	C18H23O2+
277.1949	6	C21H25+
279.1743	12	C20H23O+
281.19	23	C20H25O+
283.1692	89	C19H23O2+
287.1801	6	C22H23+
295.2058	13	C21H27O+
297.1842	9	C20H25O2+
305.1897	23	C22H25O+
323.2007	36	C22H27O2+
341.2109	244	C22H29O3+
