Mass spectrum: 4-Hydroxybenzotriazole; LC-ESI-ITFT; MS2; CE: 35; R=15000; [M+H]+
Name: 4-Hydroxybenzotriazole
Name: 1,2-dihydrobenzotriazol-4-one
Name: 2H-benzotriazol-4-ol
Name: 4-Hydroxy-1H-benzotriazole
Formula: C6H5N3O
Exact mass: 135.04326178
SMILES: C1=CC2=NNN=C2C(=C1)O
InChI: InChI=1S/C6H5N3O/c10-5-3-1-2-4-6(5)8-9-7-4/h1-3,10H,(H,7,8,9)
Instrument: LTQ Orbitrap XL Thermo Scientific
Instrument type: LC-ESI-ITFT
Ms type: MS2
Ion mode: POSITIVE
Ionization: ESI
Fragmentation mode: CID
Collision energy: 35 (nominal)
Resolution: 15000
Column name: Kinetex Core-Shell C18 2.6 um, 3.0 x 100 mm, Phenomenex
Retention time: 13.333 min
Base peak: 163.1332
Precursor m/z: 136.0505
Precursor type: [M+H]+
m/z	relative intensity	assigned
80.0497	999	C5H6N+
108.0445	136	C6H6NO+
136.0511	225	C6H6N3O+
