Mass spectrum: Metazachlor BH 479-9; LC-ESI-ITFT; MS2; CE: 90%; R=15000; [M+H]+
Name: Metazachlor BH 479-9
Name: 2-[2-[2,6-dimethyl-N-(pyrazol-1-ylmethyl)anilino]-2-oxoethyl]sulfinylacetic acid
Formula: C16H19N3O4S
Exact mass: 349.109627088
SMILES: CC1=CC=CC(C)=C1N(CN1C=CC=N1)C(=O)CS(=O)CC(O)=O
InChI: InChI=1S/C16H19N3O4S/c1-12-5-3-6-13(2)16(12)19(11-18-8-4-7-17-18)14(20)9-24(23)10-15(21)22/h3-8H,9-11H2,1-2H3,(H,21,22)
Instrument: LTQ Orbitrap XL Thermo Scientific
Instrument type: LC-ESI-ITFT
Ms type: MS2
Ion mode: POSITIVE
Ionization: ESI
Fragmentation mode: HCD
Collision energy: 90 % (nominal)
Resolution: 15000
Column name: Kinetex Evo C18 2.6 um 50 x 2.1 mm
Retention time: 8.406 min
Base peak: 350.118
Precursor m/z: 350.1169
Precursor type: [M+H]+
Precursor intensity: 5303419
m/z	relative intensity	assigned
79.0546	48	C6H7+
88.9696	126	C2HO2S+
105.0704	520	C8H9+
107.086	11	C8H11+
118.0662	7	C2H14O3S+
119.0735	13	C2H15O3S+
132.0814	56	C3H16O3S+
133.0767	23	C2H15NO3S+
133.0889	5	C3H17O3S+
134.097	999	C3H18O3S+
156.0817	8	C5H16O3S+
160.0764	4	C4H16O4S+
