Mass spectrum: Propyzamide; LC-ESI-ITFT; MS2; CE: 90%; R=15000; [M+H]+
Name: Propyzamide
Name: 3,5-dichloro-N-(2-methylbut-3-yn-2-yl)benzamide
Formula: C12H11Cl2NO
Exact mass: 255.021769332
SMILES: CC(C)(NC(=O)C1=CC(Cl)=CC(Cl)=C1)C#C
InChI: InChI=1S/C12H11Cl2NO/c1-4-12(2,3)15-11(16)8-5-9(13)7-10(14)6-8/h1,5-7H,2-3H3,(H,15,16)
Instrument: LTQ Orbitrap XL Thermo Scientific
Instrument type: LC-ESI-ITFT
Ms type: MS2
Ion mode: POSITIVE
Ionization: ESI
Fragmentation mode: HCD
Collision energy: 90 % (nominal)
Resolution: 15000
Column name: Kinetex Evo C18 2.6 um 50 x 2.1 mm
Retention time: 11.074 min
Base peak: 230.1171
Precursor m/z: 256.029
Precursor type: [M+H]+
Precursor intensity: 11500178
m/z	relative intensity	assigned
65.0383	45	C5H5+
67.054	91	C5H7+
105.0697	31	C8H9+
108.9838	45	C6H2Cl+
126.9943	18	C6H4ClO+
128.0023	19	C6H5ClO+
132.0806	18	C9H10N+
139.0056	23	C9HNO+
144.9604	50	C6H3Cl2+
146.9762	9	C6H5Cl2+
162.9711	24	C6H5Cl2O+
171.9713	21	C7H4Cl2N+
172.9555	521	C7H3Cl2O+
172.9665	999	C9ClNO+
189.9819	11	C7H6Cl2NO+
