Mass spectrum: 4-Hydroxy-1-(2-hydroxyethyl)-2,2,6,6-tetramethylpiperidine; LC-ESI-ITFT; MS2; CE: 40%; R=15000; [M+H]+
Name: 4-Hydroxy-1-(2-hydroxyethyl)-2,2,6,6-tetramethylpiperidine
Name: 1-(2-hydroxyethyl)-2,2,6,6-tetramethylpiperidin-4-ol
Formula: C11H23NO2
Exact mass: 201.172878976
SMILES: CC1(C)CC(O)CC(C)(C)N1CCO
InChI: InChI=1S/C11H23NO2/c1-10(2)7-9(14)8-11(3,4)12(10)5-6-13/h9,13-14H,5-8H2,1-4H3
Instrument: LTQ Orbitrap XL Thermo Scientific
Instrument type: LC-ESI-ITFT
Ms type: MS2
Ion mode: POSITIVE
Ionization: ESI
Fragmentation mode: HCD
Collision energy: 40 % (nominal)
Resolution: 15000
Column name: Kinetex Evo C18 2.6 um 50 x 2.1 mm
Retention time: 0.541 min
Base peak: 202.1801
Precursor m/z: 202.1802
Precursor type: [M+H]+
Precursor intensity: 10806786
m/z	relative intensity	assigned
81.0697	2	C6H9+
83.0853	2	C6H11+
84.0806	4	C5H10N+
85.0646	16	C5H9O+
88.0756	2	C4H10NO+
102.0911	323	C5H12NO+
123.1166	24	C9H15+
128.1069	1	C7H14NO+
146.1173	14	C7H16NO2+
184.1688	1	C11H22NO+
202.1798	999	C11H24NO2+
