Mass spectrum: Tri-isobutylphosphate; LC-ESI-ITFT; MS2; CE: 55; R=15000; [M+H]+
Name: Tri-isobutylphosphate
Name: Triisobutylphosphate
Name: Tris(2-methylpropyl) phosphate
Formula: C12H27O4P
Exact mass: 266.1647
SMILES: O=P(OCC(C)C)(OCC(C)C)OCC(C)C
InChI: InChI=1S/C12H27O4P/c1-10(2)7-14-17(13,15-8-11(3)4)16-9-12(5)6/h10-12H,7-9H2,1-6H3
Instrument: LTQ Orbitrap XL Thermo Scientific
Instrument type: LC-ESI-ITFT
Ms type: MS2
Ion mode: POSITIVE
Ionization: ESI
Fragmentation mode: CID
Collision energy: 55 (nominal)
Resolution: 15000
Column name: Kinetex Core-Shell C18 2.6 um, 3.0 x 100 mm, Phenomenex
Retention time: 26.725 min
Base peak: 267.1725
Precursor m/z: 267.172
Precursor type: [M+H]+
m/z	relative intensity	assigned
98.9845	999	H4O4P+
155.0474	333	C4H12O4P+
