Mass spectrum: L-Thyroxine; LC-ESI-ITFT; MS2; CE: 60%; R=15000; [M+H]+
Name: L-Thyroxine
Name: Levothyroxine
Name: (2S)-2-amino-3-[4-(4-hydroxy-3,5-diiodophenoxy)-3,5-diiodophenyl]propanoic acid
Formula: C15H11I4NO4
Exact mass: 776.686699832
SMILES: N[C@@H](CC1=CC(I)=C(OC2=CC(I)=C(O)C(I)=C2)C(I)=C1)C(O)=O
InChI: InChI=1S/C15H11I4NO4/c16-8-4-7(5-9(17)13(8)21)24-14-10(18)1-6(2-11(14)19)3-12(20)15(22)23/h1-2,4-5,12,21H,3,20H2,(H,22,23)/t12-/m0/s1
Instrument: LTQ Orbitrap XL Thermo Scientific
Instrument type: LC-ESI-ITFT
Ms type: MS2
Ion mode: POSITIVE
Ionization: ESI
Fragmentation mode: HCD
Collision energy: 60 % (nominal)
Resolution: 15000
Column name: Kinetex Evo C18 2.6 um 50 x 2.1 mm
Retention time: 11.101 min
Base peak: 777.6962
Precursor m/z: 777.694
Precursor type: [M+H]+
Precursor intensity: 8076690
m/z	relative intensity	assigned
117.0577	176	C8H7N+
118.0656	58	C8H8N+
169.0655	321	C12H9O+
181.0647	76	C13H9O+
196.0762	195	C13H10NO+
197.0604	629	C13H9O2+
216.9519	96	C7H6I+
223.0636	370	C14H9NO2+
224.0712	101	C14H10NO2+
232.9468	166	C7H6IO+
259.9576	476	C8H7INO+
309.9495	261	C12H7IO2+
322.9572	999	C13H8IO2+
323.9651	734	C13H9IO2+
333.9501	110	C14H7IO2+
336.9372	217	C13H6IO3+
345.836	88	C6H4I2O+
349.9681	126	C14H9INO2+
350.9517	97	C14H8IO3+
350.9755	325	C14H10INO2+
360.8205	59	C6H3I2O2+
448.8551	76	C13H7I2O2+
476.8741	73	C14H9I2NO2+
576.7635	76	C13H8I3O2+
