Mass spectrum: Warfarin; LC-ESI-ITFT; MS2; CE: 80; R=15000; [M+H]+
Name: Warfarin
Name: 4-Cydroxy-3-(3-oxo-1-phenylbutyl)chromen-2-one
Formula: C19H16O4
Exact mass: 308.1049
SMILES: CC(=O)CC(C1=CC=CC=C1)C1=C(O)C2=CC=CC=C2OC1=O
InChI: InChI=1S/C19H16O4/c1-12(20)11-15(13-7-3-2-4-8-13)17-18(21)14-9-5-6-10-16(14)23-19(17)22/h2-10,15,21H,11H2,1H3
Instrument: LTQ Orbitrap XL Thermo Scientific
Instrument type: LC-ESI-ITFT
Ms type: MS2
Ion mode: POSITIVE
Ionization: ESI
Fragmentation mode: HCD
Collision energy: 80 (nominal)
Resolution: 15000
Column name: Kinetex Core-Shell C18 2.6 um, 3.0 x 100 mm, Phenomenex
Retention time: 24.707 min
Base peak: 230.1163
Precursor m/z: 309.1121
Precursor type: [M+H]+
m/z	relative intensity	assigned
77.0385	143	C6H5+
91.0542	74	C7H7+
95.0491	86	C6H7O+
103.0542	133	C8H7+
105.0699	7	C8H9+
121.0284	999	C7H5O2+
128.062	26	C10H8+
129.0699	65	C10H9+
131.0491	112	C9H7O+
147.0804	24	C10H11O+
155.0855	383	C12H11+
157.0284	49	C10H5O2+
163.039	537	C9H7O3+
165.07	69	C13H9+
167.0856	137	C13H11+
173.0234	168	C10H5O3+
175.0389	4	C10H7O3+
178.0777	132	C14H10+
179.0855	22	C14H11+
183.0805	116	C13H11O+
189.0546	11	C11H9O3+
191.034	175	C10H7O4+
193.0764	10	C13H9N2+
195.0806	20	C14H11O+
205.0649	67	C15H9O+
207.0801	5	C15H11O+
223.0754	147	C15H11O2+
233.06	51	C16H9O2+
249.0549	18	C16H9O3+
251.0703	92	C16H11O3+
