Mass spectrum: Desethylatrazine; LC-ESI-ITFT; MS2; CE: 55; R=15000; [M+H]+
Name: Desethylatrazine
Name: Deethylatrazine
Name: 6-Chloro-2-N-propan-2-yl-1,3,5-triazine-2,4-diamine
Formula: C6H10ClN5
Exact mass: 187.0625
SMILES: CC(C)NC1=NC(N)=NC(Cl)=N1
InChI: InChI=1S/C6H10ClN5/c1-3(2)9-6-11-4(7)10-5(8)12-6/h3H,1-2H3,(H3,8,9,10,11,12)
Instrument: LTQ Orbitrap XL Thermo Scientific
Instrument type: LC-ESI-ITFT
Ms type: MS2
Ion mode: POSITIVE
Ionization: ESI
Fragmentation mode: CID
Collision energy: 55 (nominal)
Resolution: 15000
Column name: Kinetex Core-Shell C18 2.6 um, 3.0 x 100 mm, Phenomenex
Retention time: 19.159 min
Base peak: 163.1327
Precursor m/z: 188.0697
Precursor type: [M+H]+
m/z	relative intensity	assigned
68.0242	3	C2H2N3+
79.0057	6	CH4ClN2+
104.001	11	C2H3ClN3+
110.0461	12	C3H4N5+
146.0227	999	C3H5ClN5+
152.0928	1	C6H10N5+
