Mass spectrum: Imidacloprid-guanidine; LC-ESI-ITFT; MS2; CE: 70%; R=15000; [M+H]+
Name: Imidacloprid-guanidine
Name: (2z)-1-[(6-Chloropyridin-3-Yl)methyl]imidazolidin-2-Imine
Name: 1-[(6-chloropyridin-3-yl)methyl]-4,5-dihydroimidazol-2-amine
Formula: C9H11ClN4
Exact mass: 210.067224032
SMILES: NC1=NCCN1CC1=CN=C(Cl)C=C1
InChI: InChI=1S/C9H11ClN4/c10-8-2-1-7(5-13-8)6-14-4-3-12-9(14)11/h1-2,5H,3-4,6H2,(H2,11,12)
Instrument: LTQ Orbitrap XL Thermo Scientific
Instrument type: LC-ESI-ITFT
Ms type: MS2
Ion mode: POSITIVE
Ionization: ESI
Fragmentation mode: HCD
Collision energy: 70 % (nominal)
Resolution: 15000
Column name: Kinetex Evo C18 2.6 um 50 x 2.1 mm
Retention time: 0.556 min
Base peak: 211.0751
Precursor m/z: 211.0745
Precursor type: [M+H]+
Precursor intensity: 4577255
m/z	relative intensity	assigned
57.0447	1	C2H5N2+
84.0557	88	C3H6N3+
85.0635	2	C3H7N3+
90.0339	36	C6H4N+
91.0418	3	C6H5N+
98.9997	13	C5H4Cl+
106.0652	4	C7H8N+
126.0106	999	C6H5ClN+
128.0264	1	C6H7ClN+
132.0558	2	C7H6N3+
133.0761	46	C8H9N2+
168.0327	3	C7H7ClN3+
169.0529	9	C8H10ClN2+
175.098	32	C9H11N4+
176.1057	1	C9H12N4+
194.0482	5	C9H9ClN3+
211.0747	94	C9H12ClN4+
