Mass spectrum: N-Phenyl-1-naphthylamine; LC-ESI-ITFT; MS2; CE: 55; R=15000; [M+H]+
Name: N-Phenyl-1-naphthylamine
Name: N-Phenylnaphthalen-1-amine
Formula: C16H13N
Exact mass: 219.1048
SMILES: N(C1=CC=CC=C1)C1=CC=CC2=CC=CC=C12
InChI: InChI=1S/C16H13N/c1-2-9-14(10-3-1)17-16-12-6-8-13-7-4-5-11-15(13)16/h1-12,17H
Instrument: LTQ Orbitrap XL Thermo Scientific
Instrument type: LC-ESI-ITFT
Ms type: MS2
Ion mode: POSITIVE
Ionization: ESI
Fragmentation mode: CID
Collision energy: 55 (nominal)
Resolution: 15000
Column name: Kinetex Core-Shell C18 2.6 um, 3.0 x 100 mm, Phenomenex
Retention time: 26.816 min
Base peak: 220.1126
Precursor m/z: 220.1121
Precursor type: [M+H]+
m/z	relative intensity	assigned
92.0498	152	C6H6N+
93.0576	3	C6H7N+
104.0499	15	C7H6N+
115.0546	121	C9H7+
128.0626	76	C10H8+
142.0657	306	C10H8N+
143.0735	999	C10H9N+
178.0784	22	C14H10+
179.0862	16	C14H11+
191.0737	12	C14H9N+
192.0814	3	C14H10N+
193.102	84	C15H13+
203.0863	317	C16H11+
204.0817	67	C15H10N+
205.0894	427	C15H11N+
231.0924	5	C16H11N2+
