Mass spectrum: Gabapentin; LC-ESI-ITFT; MS2; CE: 80; R=15000; [M+H]+
Name: Gabapentin
Name: 2-[1-(Aminomethyl)cyclohexyl]acetic acid
Formula: C9H17NO2
Exact mass: 171.1259
SMILES: NCC1(CC(O)=O)CCCCC1
InChI: InChI=1S/C9H17NO2/c10-7-9(6-8(11)12)4-2-1-3-5-9/h1-7,10H2,(H,11,12)
Instrument: LTQ Orbitrap XL Thermo Scientific
Instrument type: LC-ESI-ITFT
Ms type: MS2
Ion mode: POSITIVE
Ionization: ESI
Fragmentation mode: HCD
Collision energy: 80 (nominal)
Resolution: 15000
Column name: Kinetex Core-Shell C18 2.6 um, 3.0 x 100 mm, Phenomenex
Retention time: 11.872 min
Base peak: 163.1328
Precursor m/z: 172.1332
Precursor type: [M+H]+
m/z	relative intensity	assigned
81.07	55	C6H9+
91.0543	379	C7H7+
93.07	263	C7H9+
95.0856	999	C7H11+
109.1013	349	C8H13+
110.0965	81	C7H12N+
112.1122	33	C7H14N+
119.0856	382	C9H11+
126.1278	44	C8H16N+
136.1122	95	C9H14N+
137.0962	325	C9H13O+
154.1228	308	C9H16NO+
