Mass spectrum: Celestolide; LC-ESI-ITFT; MS2; CE: 20%; R=15000; [M+H]+
Name: Celestolide
Name: 1-(6-tert-butyl-1,1-dimethyl-2,3-dihydroinden-4-yl)ethanone
Formula: C17H24O
Exact mass: 244.182715388
SMILES: CC(=O)C1=C2CCC(C)(C)C2=CC(=C1)C(C)(C)C
InChI: InChI=1S/C17H24O/c1-11(18)14-9-12(16(2,3)4)10-15-13(14)7-8-17(15,5)6/h9-10H,7-8H2,1-6H3
Instrument: LTQ Orbitrap XL Thermo Scientific
Instrument type: LC-ESI-ITFT
Ms type: MS2
Ion mode: POSITIVE
Ionization: ESI
Fragmentation mode: HCD
Collision energy: 20 % (nominal)
Resolution: 15000
Column name: Kinetex Evo C18 2.6 um 50 x 2.1 mm
Retention time: 13.870 min
Base peak: 245.1901
Precursor m/z: 245.19
Precursor type: [M+H]+
Precursor intensity: 9432123
m/z	relative intensity	assigned
131.0855	2	C10H11+
133.1009	3	C10H13+
175.1114	20	C12H15O+
189.1271	214	C13H17O+
201.1639	2	C15H21+
245.1895	999	C17H25O+
