Mass spectrum: Trimethoprim; LC-ESI-ITFT; MS2; CE: 35; R=15000; [M+H]+
Name: Trimethoprim
Name: 5-[(3,4,5-Trimethoxyphenyl)methyl]pyrimidine-2,4-diamine
Formula: C14H18N4O3
Exact mass: 290.1379
SMILES: COC1=CC(CC2=CN=C(N)N=C2N)=CC(OC)=C1OC
InChI: InChI=1S/C14H18N4O3/c1-19-10-5-8(6-11(20-2)12(10)21-3)4-9-7-17-14(16)18-13(9)15/h5-7H,4H2,1-3H3,(H4,15,16,17,18)
Instrument: LTQ Orbitrap XL Thermo Scientific
Instrument type: LC-ESI-ITFT
Ms type: MS2
Ion mode: POSITIVE
Ionization: ESI
Fragmentation mode: CID
Collision energy: 35 (nominal)
Resolution: 15000
Column name: Kinetex Core-Shell C18 2.6 um, 3.0 x 100 mm, Phenomenex
Retention time: 14.856 min
Base peak: 291.1452
Precursor m/z: 291.1452
Precursor type: [M+H]+
m/z	relative intensity	assigned
123.0668	226	C5H7N4+
148.0522	1	C9H8O2+
181.0863	38	C10H13O3+
188.1056	1	C10H12N4+
188.1188	1	C13H16O+
201.0791	2	C12H11NO2+
202.1216	1	C11H14N4+
229.1088	4	C12H13N4O+
230.1167	426	C12H14N4O+
244.096	2	C12H12N4O2+
245.1042	4	C14H15NO3+
246.1109	4	C12H14N4O2+
257.1036	2	C13H13N4O2+
258.1118	142	C13H14N4O2+
259.12	5	C13H15N4O2+
260.1276	11	C13H16N4O2+
261.0988	169	C12H13N4O3+
275.1145	87	C13H15N4O3+
276.1224	75	C13H16N4O3+
291.1458	999	C14H19N4O3+
