Mass spectrum: Triacetin; LC-ESI-ITFT; MS2; CE: 75%; R=15000; [M+Na]+
Name: Triacetin
Name: 2,3-diacetyloxypropyl acetate
Formula: C9H14O6
Exact mass: 218.0790
SMILES: CC(=O)OCC(COC(C)=O)OC(C)=O
InChI: InChI=1S/C9H14O6/c1-6(10)13-4-9(15-8(3)12)5-14-7(2)11/h9H,4-5H2,1-3H3
Instrument: LTQ Orbitrap XL Thermo Scientific
Instrument type: LC-ESI-ITFT
Ms type: MS2
Ion mode: POSITIVE
Ionization: ESI
Fragmentation mode: CID
Collision energy: 75 % (nominal)
Resolution: 15000
Column name: Kinetex Evo C18 2.6 um 50 x 2.1 mm
Retention time: 6.763 min
Base peak: 159.0648
Precursor m/z: 241.0683
Precursor type: [M+Na]+
m/z	relative intensity	assigned
99.0436	1	C5H7O2+
159.0648	50	C7H11O4+
181.0469	999	C7H10NaO4+
