Mass spectrum: Metformin; LC-ESI-ITFT; MS2; CE: 35; R=15000; [M+H]+
Name: Metformin
Name: 3-(Diaminomethylidene)-1,1-dimethylguanidine
Formula: C4H11N5
Exact mass: 129.1014
SMILES: CN(C)C(=N)NC(N)=N
InChI: InChI=1S/C4H11N5/c1-9(2)4(7)8-3(5)6/h1-2H3,(H5,5,6,7,8)
Instrument: LTQ Orbitrap XL Thermo Scientific
Instrument type: LC-ESI-ITFT
Ms type: MS2
Ion mode: POSITIVE
Ionization: ESI
Fragmentation mode: CID
Collision energy: 35 (nominal)
Resolution: 15000
Column name: Kinetex Core-Shell C18 2.6 um, 3.0 x 100 mm, Phenomenex
Retention time: 2.136 min
Base peak: 149.0029
Precursor m/z: 130.1087
Precursor type: [M+H]+
m/z	relative intensity	assigned
60.0557	999	CH6N3+
71.0606	32	C3H7N2+
85.0513	311	C2H5N4+
88.0873	134	C3H10N3+
113.0826	265	C4H9N4+
130.1093	58	C4H12N5+
