Mass spectrum: Pyridaben; LC-ESI-ITFT; MS2; CE: 50%; R=15000; [M+H]+
Name: Pyridaben
Name: 2-tert-butyl-5-[(4-tert-butylphenyl)methylsulfanyl]-4-chloropyridazin-3-one
Formula: C19H25ClN2OS
Exact mass: 364.1376121
SMILES: CC(C)(C)N1N=CC(SCC2=CC=C(C=C2)C(C)(C)C)=C(Cl)C1=O
InChI: InChI=1S/C19H25ClN2OS/c1-18(2,3)14-9-7-13(8-10-14)12-24-15-11-21-22(19(4,5)6)17(23)16(15)20/h7-11H,12H2,1-6H3
Instrument: LTQ Orbitrap XL Thermo Scientific
Instrument type: LC-ESI-ITFT
Ms type: MS2
Ion mode: POSITIVE
Ionization: ESI
Fragmentation mode: HCD
Collision energy: 50 % (nominal)
Resolution: 15000
Column name: Kinetex Evo C18 2.6 um 50 x 2.1 mm
Retention time: 14.380 min
Base peak: 116.9863
Precursor m/z: 365.1449
Precursor type: [M+H]+
Precursor intensity: 2643275.75
m/z	relative intensity	assigned
105.0703	15	C8H9+
147.1174	999	C11H15+
