Mass spectrum: Clonidine; LC-ESI-ITFT; MS2; CE: 90%; R=15000; [M+H]+
Name: Clonidine
Name: N-(2,6-dichlorophenyl)-4,5-dihydro-1H-imidazol-2-amine
Formula: C9H9Cl2N3
Exact mass: 229.017352648
SMILES: ClC1=CC=CC(Cl)=C1NC1=NCCN1
InChI: InChI=1S/C9H9Cl2N3/c10-6-2-1-3-7(11)8(6)14-9-12-4-5-13-9/h1-3H,4-5H2,(H2,12,13,14)
Instrument: LTQ Orbitrap XL Thermo Scientific
Instrument type: LC-ESI-ITFT
Ms type: MS2
Ion mode: POSITIVE
Ionization: ESI
Fragmentation mode: HCD
Collision energy: 90 % (nominal)
Resolution: 15000
Column name: Kinetex Evo C18 2.6 um 50 x 2.1 mm
Retention time: 0.548 min
Base peak: 230.0254
Precursor m/z: 230.0246
Precursor type: [M+H]+
Precursor intensity: 4795557.5
m/z	relative intensity	assigned
59.0603	220	C2H7N2+
69.0447	161	C3H5N2+
70.0526	32	C3H6N2+
123.9951	303	C6H3ClN+
132.0685	82	C8H8N2+
132.961	243	C5H3Cl2+
138.0109	64	C7H5ClN+
151.006	44	C7H4ClN2+
151.0187	251	C8H6ClN+
152.014	159	C7H5ClN2+
153.0216	98	C7H6ClN2+
158.0716	132	C9H8N3+
158.9767	41	C7H5Cl2+
159.0793	153	C9H9N3+
159.9719	999	C6H4Cl2N+
160.0872	205	C9H10N3+
160.98	57	C6H5Cl2N+
161.9872	38	C6H6Cl2N+
164.0013	290	C7H3ClN3+
166.017	68	C7H5ClN3+
166.0293	25	C8H7ClN2+
171.9719	644	C7H4Cl2N+
172.9671	582	C6H3Cl2N2+
184.9673	253	C7H3Cl2N2+
185.9876	303	C8H6Cl2N+
186.9828	742	C7H5Cl2N2+
194.0482	339	C9H9ClN3+
212.9984	991	C9H7Cl2N2+
230.0251	878	C9H10Cl2N3+
