Mass spectrum: Norgestrel; LC-ESI-ITFT; MS2; CE: 40%; R=15000; [M+H]+
Name: Norgestrel
Name: (8R,9S,10R,13S,14S)-13-ethyl-17-ethynyl-17-hydroxy-1,2,6,7,8,9,10,11,12,14,15,16-dodecahydrocyclopenta[a]phenanthren-3-one
Formula: C21H28O2
Exact mass: 312.208930136
SMILES: [H][C@@]12CCC(O)(C#C)[C@@]1(CC)CC[C@]1([H])[C@@]3([H])CCC(=O)C=C3CC[C@@]21[H]
InChI: InChI=1S/C21H28O2/c1-3-20-11-9-17-16-8-6-15(22)13-14(16)5-7-18(17)19(20)10-12-21(20,23)4-2/h2,13,16-19,23H,3,5-12H2,1H3/t16-,17+,18+,19-,20-,21?/m0/s1
Instrument: LTQ Orbitrap XL Thermo Scientific
Instrument type: LC-ESI-ITFT
Ms type: MS2
Ion mode: POSITIVE
Ionization: ESI
Fragmentation mode: HCD
Collision energy: 40 % (nominal)
Resolution: 15000
Column name: Kinetex Evo C18 2.6 um 50 x 2.1 mm
Retention time: 11.688 min
Base peak: 313.2164
Precursor m/z: 313.2162
Precursor type: [M+H]+
Precursor intensity: 20372462
m/z	relative intensity	assigned
67.0539	63	C5H7+
69.0696	23	C5H9+
79.054	86	C6H7+
81.0332	13	C5H5O+
81.0697	131	C6H9+
83.0489	246	C5H7O+
91.0541	128	C7H7+
93.0697	160	C7H9+
95.0853	155	C7H11+
97.0646	44	C6H9O+
105.0696	155	C8H9+
107.0489	141	C7H7O+
107.0853	141	C8H11+
109.0645	708	C7H9O+
109.1009	99	C8H13+
111.0804	13	C7H11O+
117.0697	106	C9H9+
119.0853	180	C9H11+
121.0646	54	C8H9O+
121.1009	114	C9H13+
123.0802	161	C8H11O+
123.1165	77	C9H15+
125.0958	63	C8H13O+
129.0696	91	C10H9+
131.0852	248	C10H11+
133.0645	43	C9H9O+
133.1009	311	C10H13+
135.0801	224	C9H11O+
135.1165	104	C10H15+
137.0957	40	C9H13O+
137.1321	37	C10H17+
141.0698	27	C11H9+
143.0853	140	C11H11+
144.093	11	C11H12+
145.1009	298	C11H13+
147.08	66	C10H11O+
147.1165	136	C11H15+
149.0958	197	C10H13O+
149.1322	50	C11H17+
151.1112	33	C10H15O+
155.0852	53	C12H11+
157.1009	214	C12H13+
159.0801	68	C11H11O+
159.1165	272	C12H15+
161.0958	123	C11H13O+
161.1321	68	C12H17+
163.1114	145	C11H15O+
163.148	13	C12H19+
167.0852	28	C13H11+
169.101	87	C13H13+
171.0797	10	C12H11O+
171.1165	184	C13H15+
173.0956	38	C12H13O+
173.1322	102	C13H17+
175.1114	114	C12H15O+
175.1478	82	C13H19+
177.1269	27	C12H17O+
179.0848	15	C14H11+
181.1008	41	C14H13+
183.1165	140	C14H15+
185.0961	50	C13H13O+
185.1322	295	C14H17+
187.1115	64	C13H15O+
187.1479	158	C14H19+
189.127	79	C13H17O+
191.1429	10	C13H19O+
193.101	22	C15H13+
195.1166	67	C15H15+
197.1321	92	C15H17+
199.1111	30	C14H15O+
199.1477	142	C15H19+
201.1271	71	C14H17O+
201.1636	24	C15H21+
203.1426	45	C14H19O+
207.1168	44	C16H15+
208.1245	11	C16H16+
209.1321	55	C16H17+
211.1117	30	C15H15O+
211.1479	38	C16H19+
213.1269	39	C15H17O+
213.1634	38	C16H21+
215.1426	25	C15H19O+
215.179	20	C16H23+
217.1587	14	C15H21O+
221.1318	63	C17H17+
223.1478	44	C17H19+
225.127	36	C16H17O+
225.1633	100	C17H21+
227.1426	19	C16H19O+
227.179	223	C17H23+
229.1587	15	C16H21O+
235.1479	66	C18H19+
237.1634	110	C18H21+
239.1421	38	C17H19O+
239.1786	16	C18H23+
241.1578	31	C17H21O+
243.1741	35	C17H23O+
245.1896	999	C17H25O+
248.156	27	C19H20+
249.1632	39	C19H21+
251.1787	33	C19H23+
253.1581	21	C18H21O+
253.195	32	C19H25+
266.1666	31	C19H22O+
267.1741	41	C19H23O+
269.1894	13	C19H25O+
277.1945	114	C21H25+
295.2051	226	C21H27O+
313.2155	770	C21H29O2+
