Mass spectrum: Picolinafen; LC-ESI-ITFT; MS2; CE: 80%; R=15000; [M+H]+
Name: Picolinafen
Name: N-(4-fluorophenyl)-6-[3-(trifluoromethyl)phenoxy]pyridine-2-carboxamide
Formula: C19H12F4N2O2
Exact mass: 376.083490504
SMILES: FC1=CC=C(NC(=O)C2=NC(OC3=CC=CC(=C3)C(F)(F)F)=CC=C2)C=C1
InChI: InChI=1S/C19H12F4N2O2/c20-13-7-9-14(10-8-13)24-18(26)16-5-2-6-17(25-16)27-15-4-1-3-12(11-15)19(21,22)23/h1-11H,(H,24,26)
Instrument: LTQ Orbitrap XL Thermo Scientific
Instrument type: LC-ESI-ITFT
Ms type: MS2
Ion mode: POSITIVE
Ionization: ESI
Fragmentation mode: HCD
Collision energy: 80 % (nominal)
Resolution: 15000
Column name: Kinetex Evo C18 2.6 um 50 x 2.1 mm
Retention time: 13.641 min
Base peak: 282.1452
Precursor m/z: 377.0908
Precursor type: [M+H]+
Precursor intensity: 568556.25
m/z	relative intensity	assigned
123.0358	78	C6H4FN2+
145.0263	999	C7H4F3+
173.0325	414	C7H4F3N2+
190.0467	173	C11H6F2N+
210.0528	276	C11H7F3N+
238.0479	976	C12H7F3NO+
