Mass spectrum: N-Phenyl-1-naphthylamine; LC-ESI-ITFT; MS2; CE: 35; R=15000; [M+H]+
Name: N-Phenyl-1-naphthylamine
Name: N-Phenylnaphthalen-1-amine
Formula: C16H13N
Exact mass: 219.1048
SMILES: N(C1=CC=CC=C1)C1=CC=CC2=CC=CC=C12
InChI: InChI=1S/C16H13N/c1-2-9-14(10-3-1)17-16-12-6-8-13-7-4-5-11-15(13)16/h1-12,17H
Instrument: LTQ Orbitrap XL Thermo Scientific
Instrument type: LC-ESI-ITFT
Ms type: MS2
Ion mode: POSITIVE
Ionization: ESI
Fragmentation mode: CID
Collision energy: 35 (nominal)
Resolution: 15000
Column name: Kinetex Core-Shell C18 2.6 um, 3.0 x 100 mm, Phenomenex
Retention time: 26.816 min
Base peak: 220.1126
Precursor m/z: 220.1121
Precursor type: [M+H]+
m/z	relative intensity	assigned
92.0499	33	C6H6N+
104.05	3	C7H6N+
115.0547	25	C9H7+
128.0626	17	C10H8+
142.0658	74	C10H8N+
143.0736	232	C10H9N+
179.0863	3	C14H11+
191.0737	2	C14H9N+
202.0787	3	C16H10+
204.0943	4	C16H12+
205.0896	103	C15H11N+
220.113	999	C16H14N+
