Mass spectrum: Medroxyprogesterone; LC-ESI-ITFT; MS2; CE: 30%; R=15000; [M+H]+
Name: Medroxyprogesterone
Name: (6S,8R,9S,10R,13S,14S,17R)-17-acetyl-17-hydroxy-6,10,13-trimethyl-2,6,7,8,9,11,12,14,15,16-decahydro-1H-cyclopenta[a]phenanthren-3-one
Formula: C22H32O3
Exact mass: 344.235144884
SMILES: [H][C@@]12CC[C@](O)(C(C)=O)[C@@]1(C)CC[C@@]1([H])[C@@]2([H])C[C@H](C)C2=CC(=O)CC[C@]12C
InChI: InChI=1S/C22H32O3/c1-13-11-16-17(20(3)8-5-15(24)12-19(13)20)6-9-21(4)18(16)7-10-22(21,25)14(2)23/h12-13,16-18,25H,5-11H2,1-4H3/t13-,16+,17-,18-,20+,21-,22-/m0/s1
Instrument: LTQ Orbitrap XL Thermo Scientific
Instrument type: LC-ESI-ITFT
Ms type: MS2
Ion mode: POSITIVE
Ionization: ESI
Fragmentation mode: HCD
Collision energy: 30 % (nominal)
Resolution: 15000
Column name: Kinetex Evo C18 2.6 um 50 x 2.1 mm
Retention time: 12.123 min
Base peak: 345.2424
Precursor m/z: 345.2424
Precursor type: [M+H]+
Precursor intensity: 16461854
m/z	relative intensity	assigned
95.0853	6	C7H11+
97.0647	338	C6H9O+
107.085	6	C8H11+
109.1009	4	C8H13+
119.0856	5	C9H11+
121.1007	8	C9H13+
123.0803	823	C8H11O+
133.1009	6	C10H13+
135.0802	5	C9H11O+
137.0958	40	C9H13O+
145.1012	13	C11H13+
147.1169	11	C11H15+
159.1168	7	C12H15+
161.1324	8	C12H17+
163.1118	16	C11H15O+
171.1166	8	C13H15+
173.1321	19	C13H17+
175.1112	7	C12H15O+
175.1478	14	C13H19+
177.1271	15	C12H17O+
185.132	9	C14H17+
187.1117	5	C13H15O+
187.1479	12	C14H19+
189.1268	4	C13H17O+
189.1638	4	C14H21+
191.1428	11	C13H19O+
197.1324	7	C15H17+
199.1481	9	C15H19+
203.1427	12	C14H19O+
205.1584	34	C14H21O+
213.1631	8	C16H21+
215.1433	8	C15H19O+
217.1583	17	C15H21O+
225.1631	9	C17H21+
227.179	12	C17H23+
231.174	13	C16H23O+
235.1702	3	C15H23O2+
239.1425	6	C17H19O+
239.1802	4	C18H23+
241.1583	3	C17H21O+
243.1736	6	C17H23O+
245.1899	12	C17H25O+
251.1788	8	C19H23+
255.1733	4	C18H23O+
257.1531	28	C17H21O2+
257.1904	5	C18H25O+
259.2061	4	C18H27O+
267.2105	47	C20H27+
269.1897	10	C19H25O+
271.2062	3	C19H27O+
273.1842	6	C18H25O2+
275.1636	52	C17H23O3+
281.2253	3	C21H29+
283.2044	8	C20H27O+
284.2134	4	C20H28O+
285.2207	60	C20H29O+
291.2117	7	C22H27+
299.2369	4	C21H31O+
309.2205	62	C22H29O+
327.2312	109	C22H31O2+
345.2416	999	C22H33O3+
