Mass spectrum: Domperidone; LC-ESI-ITFT; MS2; CE: 90%; R=15000; [M+H]+
Name: Domperidone
Name: 6-chloro-3-[1-[3-(2-oxo-3H-benzimidazol-1-yl)propyl]piperidin-4-yl]-1H-benzimidazol-2-one
Formula: C22H24ClN5O2
Exact mass: 425.161852688
SMILES: ClC1=CC2=C(C=C1)N(C1CCN(CCCN3C(=O)NC4=CC=CC=C34)CC1)C(=O)N2
InChI: InChI=1S/C22H24ClN5O2/c23-15-6-7-20-18(14-15)25-22(30)28(20)16-8-12-26(13-9-16)10-3-11-27-19-5-2-1-4-17(19)24-21(27)29/h1-2,4-7,14,16H,3,8-13H2,(H,24,29)(H,25,30)
Instrument: LTQ Orbitrap XL Thermo Scientific
Instrument type: LC-ESI-ITFT
Ms type: MS2
Ion mode: POSITIVE
Ionization: ESI
Fragmentation mode: HCD
Collision energy: 90 % (nominal)
Resolution: 15000
Column name: Kinetex Evo C18 2.6 um 50 x 2.1 mm
Retention time: 7.596 min
Base peak: 426.1705
Precursor m/z: 426.1691
Precursor type: [M+H]+
Precursor intensity: 31113170
m/z	relative intensity	assigned
67.0541	3	C5H7+
70.065	2	C4H8N+
84.0809	2	C5H10N+
92.0495	15	C6H6N+
98.0965	4	C6H12N+
119.0604	845	C7H7N2+
120.0574	3	C5H11ClN+
120.0637	41	C2H8N4O2+
130.0652	1	C9H8N+
132.0683	9	C8H8N2+
133.076	3	C8H9N2+
134.0476	40	C7H6N2O+
147.0554	999	C8H7N2O+
148.0524	3	C6H11ClNO+
160.0633	3	C6H11ClN3+
169.0164	2	C7H6ClN2O+
171.0554	14	C10H7N2O+
175.0867	82	C10H11N2O+
207.0321	4	C10H8ClN2O+
