Mass spectrum: Myclobutanil; LC-ESI-ITFT; MS2; CE: 40%; R=15000; [M+H]+
Name: Myclobutanil
Name: 2-(4-chlorophenyl)-2-(1,2,4-triazol-1-ylmethyl)hexanenitrile
Formula: C15H17ClN4
Exact mass: 288.114174224
SMILES: CCCCC(CN1C=NC=N1)(C#N)C1=CC=C(Cl)C=C1
InChI: InChI=1S/C15H17ClN4/c1-2-3-8-15(9-17,10-20-12-18-11-19-20)13-4-6-14(16)7-5-13/h4-7,11-12H,2-3,8,10H2,1H3
Instrument: LTQ Orbitrap XL Thermo Scientific
Instrument type: LC-ESI-ITFT
Ms type: MS2
Ion mode: POSITIVE
Ionization: ESI
Fragmentation mode: HCD
Collision energy: 40 % (nominal)
Resolution: 15000
Column name: Kinetex Evo C18 2.6 um 50 x 2.1 mm
Retention time: 11.366 min
Base peak: 289.1223
Precursor m/z: 289.1215
Precursor type: [M+H]+
Precursor intensity: 14227899
m/z	relative intensity	assigned
57.0697	2	C4H9+
70.0398	999	C2H4N3+
81.0698	3	C6H9+
82.0651	2	C5H8N+
83.0477	5	C3H5N3+
95.073	3	C6H9N+
125.0152	260	C7H6Cl+
139.0309	2	C8H8Cl+
150.0105	3	C8H5ClN+
151.0308	77	C9H8Cl+
164.026	22	C9H7ClN+
165.0339	6	C9H8ClN+
166.0418	11	C9H9ClN+
167.0858	1	C13H11+
168.0934	4	C13H12+
178.0419	16	C10H9ClN+
185.1201	4	C13H15N+
192.0573	4	C11H11ClN+
193.0778	28	C12H14Cl+
203.062	17	C13H12Cl+
220.0887	62	C13H15ClN+
289.1214	76	C15H18ClN4+
