Mass spectrum: Propyphenazon; LC-ESI-ITFT; MS2; CE: 55; R=15000; [M+H]+
Name: Propyphenazon
Name: Propyphenazone
Name: 1,5-dimethyl-2-phenyl-4-propan-2-ylpyrazol-3-one
Formula: C14H18N2O
Exact mass: 230.1419
SMILES: CC(C)C1=C(C)N(C)N(C1=O)C1=CC=CC=C1
InChI: InChI=1S/C14H18N2O/c1-10(2)13-11(3)15(4)16(14(13)17)12-8-6-5-7-9-12/h5-10H,1-4H3
Instrument: LTQ Orbitrap XL Thermo Scientific
Instrument type: LC-ESI-ITFT
Ms type: MS2
Ion mode: POSITIVE
Ionization: ESI
Fragmentation mode: HCD
Collision energy: 55 (nominal)
Resolution: 15000
Column name: Kinetex Core-Shell C18 2.6 um, 3.0 x 100 mm, Phenomenex
Retention time: 22.250 min
Base peak: 231.1492
Precursor m/z: 231.1492
Precursor type: [M+H]+
m/z	relative intensity	assigned
77.0387	1	C6H5+
79.0545	2	C6H7+
81.07	2	C6H9+
82.0652	4	C5H8N+
91.0545	1	C7H7+
92.0498	5	C6H6N+
94.0653	3	C6H8N+
95.0731	5	C6H9N+
96.0809	9	C6H10N+
97.0887	4	C6H11N+
98.0602	4	C5H8NO+
100.1123	3	C6H14N+
104.0496	4	C7H6N+
105.0333	1	C7H5O+
110.0966	19	C7H12N+
112.0759	8	C6H10NO+
112.1122	57	C7H14N+
118.0653	10	C8H8N+
120.0446	7	C7H6NO+
120.081	23	C8H10N+
123.0921	1	C7H11N2+
124.0759	15	C7H10NO+
130.0655	3	C9H8N+
131.0732	10	C9H9N+
132.0809	4	C9H10N+
133.0525	2	C8H7NO+
133.0763	3	C8H9N2+
134.0968	3	C9H12N+
138.0917	12	C8H12NO+
142.0652	2	C10H8N+
144.0811	17	C10H10N+
145.0652	1	C10H9O+
146.0841	9	C9H10N2+
146.0967	33	C10H12N+
147.0921	4	C9H11N2+
148.1122	4	C10H14N+
157.0887	1	C11H11N+
158.0968	1	C11H12N+
160.076	3	C10H10NO+
160.0999	8	C10H12N2+
161.1076	16	C10H13N2+
172.076	3	C11H10NO+
172.1124	11	C12H14N+
174.0791	4	C10H10N2O+
188.095	8	C11H12N2O+
189.1025	372	C11H13N2O+
201.1026	89	C12H13N2O+
203.1547	12	C13H19N2+
215.1184	6	C13H15N2O+
216.1261	24	C13H16N2O+
231.1495	999	C14H19N2O+
