Mass spectrum: Chloridazon; LC-ESI-ITFT; MS2; CE: 50%; R=15000; [M+H]+
Name: Chloridazon
Name: 5-amino-4-chloro-2-phenylpyridazin-3-one
Formula: C10H8ClN3O
Exact mass: 221.035589556
SMILES: NC1=C(Cl)C(=O)N(N=C1)C1=CC=CC=C1
InChI: InChI=1S/C10H8ClN3O/c11-9-8(12)6-13-14(10(9)15)7-4-2-1-3-5-7/h1-6H,12H2
Instrument: LTQ Orbitrap XL Thermo Scientific
Instrument type: LC-ESI-ITFT
Ms type: MS2
Ion mode: POSITIVE
Ionization: ESI
Fragmentation mode: HCD
Collision energy: 50 % (nominal)
Resolution: 15000
Column name: Kinetex Evo C18 2.6 um 50 x 2.1 mm
Retention time: 6.322 min
Base peak: 222.0433
Precursor m/z: 222.0429
Precursor type: [M+H]+
Precursor intensity: 9522603
m/z	relative intensity	assigned
65.0383	2	C5H5+
77.0384	15	C6H5+
83.0238	3	C3H3N2O+
87.9948	2	C3H3ClN+
92.0494	70	C6H6N+
93.0571	1	C6H7N+
94.065	31	C6H8N+
95.049	2	C6H7O+
100.9901	1	C3H2ClN2+
104.0493	150	C7H6N+
105.0446	4	C6H5N2+
119.0007	1	C3H4ClN2O+
119.0603	2	C7H7N2+
120.0443	1	C7H6NO+
128.9848	25	C4H2ClN2O+
130.0651	1	C9H8N+
131.0606	1	C8H7N2+
132.0442	1	C8H6NO+
146.0114	14	C4H5ClN3O+
149.0151	1	C9H6Cl+
150.0106	1	C8H5ClN+
159.0551	5	C9H7N2O+
177.0217	1	C9H6ClN2+
186.0659	15	C10H8N3O+
193.0287	10	C10H8ClNO+
195.0313	2	C9H8ClN2O+
205.0161	5	C10H6ClN2O+
222.0426	999	C10H9ClN3O+
