Mass spectrum: Simetryn; LC-ESI-ITFT; MS2; CE: 55; R=15000; [M+H]+
Name: Simetryn
Name: 2-N,4-N-Diethyl-6-methylsulfanyl-1,3,5-triazine-2,4-diamine
Formula: C8H15N5S
Exact mass: 213.1048
SMILES: CCNC1=NC(SC)=NC(NCC)=N1
InChI: InChI=1S/C8H15N5S/c1-4-9-6-11-7(10-5-2)13-8(12-6)14-3/h4-5H2,1-3H3,(H2,9,10,11,12,13)
Instrument: LTQ Orbitrap XL Thermo Scientific
Instrument type: LC-ESI-ITFT
Ms type: MS2
Ion mode: POSITIVE
Ionization: ESI
Fragmentation mode: HCD
Collision energy: 55 (nominal)
Resolution: 15000
Column name: Kinetex Core-Shell C18 2.6 um, 3.0 x 100 mm, Phenomenex
Retention time: 20.093 min
Base peak: 163.1327
Precursor m/z: 214.1121
Precursor type: [M+H]+
m/z	relative intensity	assigned
71.0603	100	C3H7N2+
74.0059	28	C2H4NS+
91.0325	10	C2H7N2S+
96.0556	353	C4H6N3+
102.0372	19	C4H8NS+
110.0459	1	C3H4N5+
113.0823	13	C4H9N4+
116.0278	107	C3H6N3S+
124.0869	696	C6H10N3+
138.0776	15	C5H8N5+
141.1136	11	C6H13N4+
144.0591	434	C5H10N3S+
158.0496	5	C4H8N5S+
159.0701	1	C5H11N4S+
166.1089	204	C7H12N5+
168.1246	2	C7H14N5+
186.0809	111	C6H12N5S+
198.0802	1	C7H12N5S+
199.089	4	C7H13N5S+
214.1122	999	C8H16N5S+
