Mass spectrum: Myclobutanil; LC-ESI-ITFT; MS2; CE: 60%; R=15000; [M+H]+
Name: Myclobutanil
Name: 2-(4-chlorophenyl)-2-(1,2,4-triazol-1-ylmethyl)hexanenitrile
Formula: C15H17ClN4
Exact mass: 288.114174224
SMILES: CCCCC(CN1C=NC=N1)(C#N)C1=CC=C(Cl)C=C1
InChI: InChI=1S/C15H17ClN4/c1-2-3-8-15(9-17,10-20-12-18-11-19-20)13-4-6-14(16)7-5-13/h4-7,11-12H,2-3,8,10H2,1H3
Instrument: LTQ Orbitrap XL Thermo Scientific
Instrument type: LC-ESI-ITFT
Ms type: MS2
Ion mode: POSITIVE
Ionization: ESI
Fragmentation mode: HCD
Collision energy: 60 % (nominal)
Resolution: 15000
Column name: Kinetex Evo C18 2.6 um 50 x 2.1 mm
Retention time: 11.366 min
Base peak: 289.1223
Precursor m/z: 289.1215
Precursor type: [M+H]+
Precursor intensity: 14227899
m/z	relative intensity	assigned
57.0697	6	C4H9+
70.0398	999	C2H4N3+
81.0698	6	C6H9+
82.0653	4	C5H8N+
83.0478	12	C3H5N3+
125.0152	671	C7H6Cl+
130.065	8	C9H8N+
139.0304	5	C8H8Cl+
150.0106	14	C8H5ClN+
151.0309	162	C9H8Cl+
164.0261	62	C9H7ClN+
165.034	9	C9H8ClN+
166.0416	9	C9H9ClN+
168.0934	8	C13H12+
178.0417	22	C10H9ClN+
192.057	3	C11H11ClN+
193.078	4	C12H14Cl+
203.063	7	C13H12Cl+
220.0881	4	C13H15ClN+
