Mass spectrum: Verapamil; LC-ESI-ITFT; MS2; CE: 40%; R=15000; [M+H]+
Name: Verapamil
Name: 2-(3,4-dimethoxyphenyl)-5-[2-(3,4-dimethoxyphenyl)ethyl-methylamino]-2-propan-2-ylpentanenitrile
Formula: C27H38N2O4
Exact mass: 454.283157696
SMILES: COC1=CC=C(CCN(C)CCCC(C#N)(C(C)C)C2=CC(OC)=C(OC)C=C2)C=C1OC
InChI: InChI=1S/C27H38N2O4/c1-20(2)27(19-28,22-10-12-24(31-5)26(18-22)33-7)14-8-15-29(3)16-13-21-9-11-23(30-4)25(17-21)32-6/h9-12,17-18,20H,8,13-16H2,1-7H3
Instrument: LTQ Orbitrap XL Thermo Scientific
Instrument type: LC-ESI-ITFT
Ms type: MS2
Ion mode: POSITIVE
Ionization: ESI
Fragmentation mode: HCD
Collision energy: 40 % (nominal)
Resolution: 15000
Column name: Kinetex Evo C18 2.6 um 50 x 2.1 mm
Retention time: 8.741 min
Base peak: 278.1915
Precursor m/z: 455.2904
Precursor type: [M+H]+
Precursor intensity: 7013928.5
m/z	relative intensity	assigned
58.065	6	C3H8N+
86.0965	1	C5H12N+
96.0808	1	C6H10N+
105.07	3	C8H9+
122.0966	2	C8H12N+
133.065	3	C9H9O+
134.0728	1	C9H10O+
135.0807	2	C9H11O+
139.0758	1	C8H11O2+
150.0678	56	C9H10O2+
151.0711	3	C4H11N2O4+
151.0755	9	C9H11O2+
158.2962	1	C10H38+
164.0835	1	C10H12O2+
165.0912	999	C10H13O2+
166.0944	90	C5H14N2O4+
177.0913	6	C11H13O2+
194.1177	1	C11H16NO2+
218.1179	2	C13H16NO2+
233.1538	2	C15H21O2+
243.1383	2	C16H19O2+
245.1414	1	C15H19NO2+
260.1649	45	C16H22NO2+
261.1602	17	C15H21N2O2+
264.1962	1	C16H26NO2+
303.2071	174	C18H27N2O2+
