Mass spectrum: Prosulfocarb; LC-ESI-ITFT; MS2; CE: 80; R=15000; [M+H]+
Name: Prosulfocarb
Name: N,N-dipropylcarbamothioate-S-benzyl
Formula: C14H21NOS
Exact mass: 251.1344
SMILES: CCCN(CCC)C(=O)SCC1=CC=CC=C1
InChI: InChI=1S/C14H21NOS/c1-3-10-15(11-4-2)14(16)17-12-13-8-6-5-7-9-13/h5-9H,3-4,10-12H2,1-2H3
Instrument: LTQ Orbitrap XL Thermo Scientific
Instrument type: LC-ESI-ITFT
Ms type: MS2
Ion mode: POSITIVE
Ionization: ESI
Fragmentation mode: HCD
Collision energy: 80 (nominal)
Resolution: 15000
Column name: Kinetex Core-Shell C18 2.6 um, 3.0 x 100 mm, Phenomenex
Retention time: 27.063 min
Base peak: 252.1415
Precursor m/z: 252.1417
Precursor type: [M+H]+
m/z	relative intensity	assigned
91.0541	999	C7H7+
