Mass spectrum: Flumequine; LC-ESI-ITFT; MS2; CE: 60%; R=15000; [M+H]+
Name: Flumequine
Name: 7-fluoro-12-methyl-4-oxo-1-azatricyclo[7.3.1.05,13]trideca-2,5,7,9(13)-tetraene-3-carboxylic acid
Formula: C14H12FNO3
Exact mass: 261.080121464
SMILES: CC1CCC2=C3N1C=C(C(O)=O)C(=O)C3=CC(F)=C2
InChI: InChI=1S/C14H12FNO3/c1-7-2-3-8-4-9(15)5-10-12(8)16(7)6-11(13(10)17)14(18)19/h4-7H,2-3H2,1H3,(H,18,19)
Instrument: LTQ Orbitrap XL Thermo Scientific
Instrument type: LC-ESI-ITFT
Ms type: MS2
Ion mode: POSITIVE
Ionization: ESI
Fragmentation mode: HCD
Collision energy: 60 % (nominal)
Resolution: 15000
Column name: Kinetex Evo C18 2.6 um 50 x 2.1 mm
Retention time: 9.262 min
Base peak: 262.0887
Precursor m/z: 262.0874
Precursor type: [M+H]+
Precursor intensity: 19786082
m/z	relative intensity	assigned
176.087	7	C11H11FN+
202.03	231	C11H5FNO2+
220.0406	94	C11H7FNO3+
244.0769	999	C14H11FNO2+
262.0875	418	C14H13FNO3+
