Mass spectrum: Tri(butoxyethyl)phosphate; LC-ESI-ITFT; MS2; CE: 55; R=15000; [M+H]+
Name: Tri(butoxyethyl)phosphate
Name: Tris(1-butoxyethyl) phosphate
Formula: C18H39O7P
Exact mass: 398.2433
SMILES: CCCCOC(C)OP(=O)(OC(C)OCCCC)OC(C)OCCCC
InChI: InChI=1S/C18H39O7P/c1-7-10-13-20-16(4)23-26(19,24-17(5)21-14-11-8-2)25-18(6)22-15-12-9-3/h16-18H,7-15H2,1-6H3
Instrument: LTQ Orbitrap XL Thermo Scientific
Instrument type: LC-ESI-ITFT
Ms type: MS2
Ion mode: POSITIVE
Ionization: ESI
Fragmentation mode: HCD
Collision energy: 55 (nominal)
Resolution: 15000
Column name: Kinetex Core-Shell C18 2.6 um, 3.0 x 100 mm, Phenomenex
Retention time: 27.217 min
Base peak: 399.2513
Precursor m/z: 399.2506
Precursor type: [M+H]+
m/z	relative intensity	assigned
98.9843	999	H4O4P+
125.0001	183	C2H6O4P+
143.0105	75	C2H8O5P+
199.0121	47	C3H8N2O6P+
