Mass spectrum: Norgestimate; LC-ESI-ITFT; MS2; CE: 30%; R=15000; [M+H]+
Name: Norgestimate
Name: [(3E,8R,9S,10R,13S,14S,17R)-13-ethyl-17-ethynyl-3-hydroxyimino-1,2,6,7,8,9,10,11,12,14,15,16-dodecahydrocyclopenta[a]phenanthren-17-yl] acetate
Formula: C23H31NO3
Exact mass: 369.230393852
SMILES: CC[C@]12CC[C@H]3[C@@H](CCC4=C\C(CC[C@H]34)=N\O)[C@@H]1CC[C@@]2(OC(C)=O)C#C
InChI: InChI=1S/C23H31NO3/c1-4-22-12-10-19-18-9-7-17(24-26)14-16(18)6-8-20(19)21(22)11-13-23(22,5-2)27-15(3)25/h2,14,18-21,26H,4,6-13H2,1,3H3/b24-17+/t18-,19+,20+,21-,22-,23-/m0/s1
Instrument: LTQ Orbitrap XL Thermo Scientific
Instrument type: LC-ESI-ITFT
Ms type: MS2
Ion mode: POSITIVE
Ionization: ESI
Fragmentation mode: HCD
Collision energy: 30 % (nominal)
Resolution: 15000
Column name: Kinetex Evo C18 2.6 um 50 x 2.1 mm
Retention time: 13.088 min
Base peak: 370.2375
Precursor m/z: 370.2377
Precursor type: [M+H]+
Precursor intensity: 21224250
m/z	relative intensity	assigned
105.0698	2	C8H9+
117.0696	1	C9H9+
119.0853	2	C9H11+
121.1009	1	C9H13+
124.0753	12	C7H10NO+
129.07	1	C10H9+
131.0851	4	C10H11+
133.1009	3	C10H13+
145.101	2	C11H13+
147.1162	2	C11H15+
157.1009	3	C12H13+
159.1166	4	C12H15+
161.132	2	C12H17+
169.1005	1	C13H13+
171.1162	1	C13H15+
173.132	1	C13H17+
176.1063	1	C11H14NO+
183.1163	3	C14H15+
185.1318	3	C14H17+
268.2065	1	C19H26N+
277.1949	1	C21H25+
310.2156	39	C21H28NO+
328.2259	2	C21H30NO2+
370.2365	999	C23H32NO3+
