Mass spectrum: Methocarbamol; LC-ESI-ITFT; MS2; CE: 75%; R=15000; [M+H]+
Name: Methocarbamol
Name: [2-hydroxy-3-(2-methoxyphenoxy)propyl] carbamate
Formula: C11H15NO5
Exact mass: 241.0950
SMILES: COC1=C(OCC(O)COC(N)=O)C=CC=C1
InChI: InChI=1S/C11H15NO5/c1-15-9-4-2-3-5-10(9)16-6-8(13)7-17-11(12)14/h2-5,8,13H,6-7H2,1H3,(H2,12,14)
Instrument: LTQ Orbitrap XL Thermo Scientific
Instrument type: LC-ESI-ITFT
Ms type: MS2
Ion mode: POSITIVE
Ionization: ESI
Fragmentation mode: HCD
Collision energy: 75 % (nominal)
Resolution: 15000
Column name: Kinetex Evo C18 2.6 um 50 x 2.1 mm
Retention time: 7.018 min
Base peak: 264.0843
Precursor m/z: 242.1023
Precursor type: [M+H]+
m/z	relative intensity	assigned
57.0334	112	C3H5O+
62.0236	213	CH4NO2+
65.0385	267	C5H5+
67.0543	31	C5H7+
75.044	92	C3H7O2+
77.0386	460	C6H5+
79.0543	370	C6H7+
91.0542	234	C7H7+
93.0335	236	C6H5O+
93.07	66	C7H9+
95.0492	538	C6H7O+
103.0543	517	C8H7+
105.0699	677	C8H9+
107.0494	129	C7H7O+
109.0648	67	C7H9O+
110.0363	338	C6H6O2+
111.0444	82	C6H7O2+
118.05	404	C4H8NO3+
120.0571	155	C8H8O+
121.0286	145	C7H5O2+
121.0646	85	C8H9O+
122.0363	999	C7H6O2+
124.0516	50	C7H8O2+
125.0598	101	C7H9O2+
131.0495	47	C9H7O+
135.0805	223	C9H11O+
137.0595	50	C8H9O2+
148.0518	91	C9H8O2+
163.0759	32	C10H11O2+
