Mass spectrum: Enalapril; LC-ESI-ITFT; MS2; CE: 50%; R=15000; [M+H]+
Name: Enalapril
Name: (2S)-1-[(2S)-2-[[(2S)-1-ethoxy-1-oxo-4-phenylbutan-2-yl]amino]propanoyl]pyrrolidine-2-carboxylic acid
Formula: C20H28N2O5
Exact mass: 376.199821996
SMILES: CCOC(=O)[C@H](CCC1=CC=CC=C1)N[C@@H](C)C(=O)N1CCC[C@H]1C(O)=O
InChI: InChI=1S/C20H28N2O5/c1-3-27-20(26)16(12-11-15-8-5-4-6-9-15)21-14(2)18(23)22-13-7-10-17(22)19(24)25/h4-6,8-9,14,16-17,21H,3,7,10-13H2,1-2H3,(H,24,25)/t14-,16-,17-/m0/s1
Instrument: LTQ Orbitrap XL Thermo Scientific
Instrument type: LC-ESI-ITFT
Ms type: MS2
Ion mode: POSITIVE
Ionization: ESI
Fragmentation mode: HCD
Collision energy: 50 % (nominal)
Resolution: 15000
Column name: Kinetex Evo C18 2.6 um 50 x 2.1 mm
Retention time: 8.086 min
Base peak: 377.208
Precursor m/z: 377.2071
Precursor type: [M+H]+
Precursor intensity: 26211124
m/z	relative intensity	assigned
56.0493	74	C3H6N+
70.0651	24	C4H8N+
73.0647	54	C4H9O+
91.0543	107	C7H7+
98.0602	9	C5H8NO+
102.055	131	C4H8NO2+
105.0701	7	C8H9+
116.0708	65	C5H10NO2+
117.0699	974	C9H9+
118.0733	59	C4H10N2O2+
119.0854	4	C9H11+
130.0863	798	C6H12NO2+
134.0965	387	C9H12N+
142.0863	8	C7H12NO2+
143.0852	4	C11H11+
144.0807	10	C10H10N+
160.1122	950	C11H14N+
162.128	16	C11H16N+
188.1075	7	C12H14NO+
206.1178	54	C12H16NO2+
232.1335	24	C14H18NO2+
234.149	999	C14H20NO2+
303.1706	83	C17H23N2O3+
