Mass spectrum: Ethofumesate; LC-ESI-ITFT; MS2; CE: 80; R=15000; [M+H]+
Name: Ethofumesate
Name: (2-Ethoxy-3,3-dimethyl-2H-1-benzofuran-5-yl) methanesulfonate
Formula: C13H18O5S
Exact mass: 286.0875
SMILES: CCOC1OC2=CC=C(OS(C)(=O)=O)C=C2C1(C)C
InChI: InChI=1S/C13H18O5S/c1-5-16-12-13(2,3)10-8-9(18-19(4,14)15)6-7-11(10)17-12/h6-8,12H,5H2,1-4H3
Instrument: LTQ Orbitrap XL Thermo Scientific
Instrument type: LC-ESI-ITFT
Ms type: MS2
Ion mode: POSITIVE
Ionization: ESI
Fragmentation mode: HCD
Collision energy: 80 (nominal)
Resolution: 15000
Column name: Kinetex Core-Shell C18 2.6 um, 3.0 x 100 mm, Phenomenex
Retention time: 24.205 min
Base peak: 404.1235
Precursor m/z: 287.0948
Precursor type: [M+H]+
m/z	relative intensity	assigned
91.0542	584	C7H7+
93.0699	244	C7H9+
103.0542	705	C8H7+
105.0698	999	C8H9+
107.0491	157	C7H7O+
109.0285	46	C6H5O2+
109.0647	162	C7H9O+
115.0541	470	C9H7+
117.0698	121	C9H9+
119.0491	110	C8H7O+
121.0647	877	C8H9O+
123.0439	50	C7H7O2+
133.0647	588	C9H9O+
134.0726	287	C9H10O+
135.0801	73	C9H11O+
137.0597	252	C8H9O2+
143.0493	49	C10H7O+
145.0646	82	C10H9O+
147.0441	71	C9H7O2+
161.0596	237	C10H9O2+
162.0674	103	C10H10O2+
173.0712	92	C10H9N2O+
