Mass spectrum: Iminostilbene; LC-ESI-ITFT; MS2; CE: 80; R=15000; [M+H]+
Name: Iminostilbene
Name: 11H-Benzo[b][1]benzazepine
Formula: C14H11N
Exact mass: 193.0891
SMILES: N1C2=CC=CC=C2C=CC2=CC=CC=C12
InChI: InChI=1S/C14H11N/c1-3-7-13-11(5-1)9-10-12-6-2-4-8-14(12)15-13/h1-10,15H
Instrument: LTQ Orbitrap XL Thermo Scientific
Instrument type: LC-ESI-ITFT
Ms type: MS2
Ion mode: POSITIVE
Ionization: ESI
Fragmentation mode: HCD
Collision energy: 80 (nominal)
Resolution: 15000
Column name: Kinetex Core-Shell C18 2.6 um, 3.0 x 100 mm, Phenomenex
Retention time: 25.114 min
Base peak: 194.0968
Precursor m/z: 194.0964
Precursor type: [M+H]+
m/z	relative intensity	assigned
116.05	11	C8H6N+
179.0738	293	C13H9N+
194.0973	999	C14H12N+
