Mass spectrum: Tricresylphosphate; LC-ESI-ITFT; MS2; CE: 30%; R=15000; [M+H]+
Name: Tricresylphosphate
Name: Tricresyl phosphate
Name: tris(4-methylphenyl) phosphate
Formula: C21H21O4P
Exact mass: 368.117745782
SMILES: CC1=CC=C(OP(=O)(OC2=CC=C(C)C=C2)OC2=CC=C(C)C=C2)C=C1
InChI: InChI=1S/C21H21O4P/c1-16-4-10-19(11-5-16)23-26(22,24-20-12-6-17(2)7-13-20)25-21-14-8-18(3)9-15-21/h4-15H,1-3H3
Instrument: LTQ Orbitrap XL Thermo Scientific
Instrument type: LC-ESI-ITFT
Ms type: MS2
Ion mode: POSITIVE
Ionization: ESI
Fragmentation mode: HCD
Collision energy: 30 % (nominal)
Resolution: 15000
Column name: Kinetex Evo C18 2.6 um 50 x 2.1 mm
Retention time: 13.886 min
Base peak: 369.1263
Precursor m/z: 369.125
Precursor type: [M+H]+
Precursor intensity: 3161037.75
m/z	relative intensity	assigned
107.0494	3	C7H7O+
165.0696	5	C13H9+
166.0777	21	C13H10+
181.1012	17	C14H13+
189.0311	4	C7H10O4P+
199.1117	6	C14H15O+
243.0574	7	C14H12O2P+
256.1245	9	C20H16+
261.0674	35	C14H14O3P+
271.1485	1	C21H19+
279.0777	6	C14H16O4P+
369.1249	999	C21H22O4P+
