Mass spectrum: Nicosulfuron; LC-ESI-ITFT; MS2; CE: 80%; R=15000; [M+H]+
Name: Nicosulfuron
Name: 2-[(4,6-dimethoxypyrimidin-2-yl)carbamoylsulfamoyl]-N,N-dimethylpyridine-3-carboxamide
Formula: C15H18N6O6S
Exact mass: 410.100853296
SMILES: COC1=CC(OC)=NC(NC(=O)NS(=O)(=O)C2=NC=CC=C2C(=O)N(C)C)=N1
InChI: InChI=1S/C15H18N6O6S/c1-21(2)13(22)9-6-5-7-16-12(9)28(24,25)20-15(23)19-14-17-10(26-3)8-11(18-14)27-4/h5-8H,1-4H3,(H2,17,18,19,20,23)
Instrument: LTQ Orbitrap XL Thermo Scientific
Instrument type: LC-ESI-ITFT
Ms type: MS2
Ion mode: POSITIVE
Ionization: ESI
Fragmentation mode: HCD
Collision energy: 80 % (nominal)
Resolution: 15000
Column name: Kinetex Evo C18 2.6 um 50 x 2.1 mm
Retention time: 9.224 min
Base peak: 411.1083
Precursor m/z: 411.1081
Precursor type: [M+H]+
Precursor intensity: 3603290
m/z	relative intensity	assigned
57.0447	14	C2H5N2+
68.9972	16	C3HO2+
71.0605	35	C3H7N2+
78.034	481	C5H4N+
81.0448	8	C4H5N2+
82.029	25	C4H4NO+
83.0242	710	C3H3N2O+
93.0087	23	C4HN2O+
96.0448	25	C5H6NO+
100.0395	91	C4H6NO2+
106.029	999	C6H4NO+
109.0399	14	C5H5N2O+
110.0599	12	C6H8NO+
119.0234	8	C6H3N2O+
124.051	29	C5H6N3O+
137.0349	14	C6H5N2O2+
139.0505	439	C6H7N2O2+
141.0535	14	C5H7N3O2+
156.077	71	C6H10N3O2+
157.0611	319	H15NO6S+
182.0564	338	CH14N2O6S+
