Mass spectrum: Acetyl-sulfamethoxazole; LC-ESI-ITFT; MS2; CE: 50%; R=15000; [M+H]+
Name: Acetyl-sulfamethoxazole
Name: Acetylsulfamethoxazole
Name: N-[4-[(5-methyl-1,2-oxazol-3-yl)sulfamoyl]phenyl]acetamide
Formula: C12H13N3O4S
Exact mass: 295.062676896
SMILES: CC(=O)NC1=CC=C(C=C1)S(=O)(=O)NC1=NOC(C)=C1
InChI: InChI=1S/C12H13N3O4S/c1-8-7-12(14-19-8)15-20(17,18)11-5-3-10(4-6-11)13-9(2)16/h3-7H,1-2H3,(H,13,16)(H,14,15)
Instrument: LTQ Orbitrap XL Thermo Scientific
Instrument type: LC-ESI-ITFT
Ms type: MS2
Ion mode: POSITIVE
Ionization: ESI
Fragmentation mode: HCD
Collision energy: 50 % (nominal)
Resolution: 15000
Column name: Kinetex Evo C18 2.6 um 50 x 2.1 mm
Retention time: 7.573 min
Base peak: 296.0711
Precursor m/z: 296.07
Precursor type: [M+H]+
Precursor intensity: 12314598
m/z	relative intensity	assigned
65.0385	116	C5H5+
92.0496	47	C6H6N+
93.0336	57	C6H5O+
93.0574	124	C6H7N+
94.0652	28	C6H8N+
98.0473	3	C4H6N2O+
99.0554	98	C4H7N2O+
106.0651	4	C7H8N+
107.0605	12	C6H7N2+
108.0445	382	C6H6NO+
110.0601	6	C6H8NO+
131.0607	5	C8H7N2+
132.0683	5	C8H8N2+
134.0602	999	C8H8NO+
135.0678	17	C8H9NO+
136.0758	134	C8H10NO+
140.0167	3	C6H6NOS+
146.0714	79	C8H8N3+
147.0554	2	C8H7N2O+
147.0793	58	C8H9N3+
148.0632	1	C8H8N2O+
148.0871	21	C8H10N3+
149.0715	2	C8H9N2O+
150.0552	30	C8H8NO2+
150.0793	2	C8H10N2O+
151.0327	4	C7H7N2S+
152.071	10	C8H10NO2+
156.0116	79	C6H6NO2S+
156.9952	3	C6H5O3S+
160.0871	155	C9H10N3+
161.0018	16	C4H5N2O3S+
161.0711	3	C9H9N2O+
162.0664	161	C8H8N3O+
172.0867	3	C10H10N3+
174.0224	2	C6H8NO3S+
174.0792	2	C10H10N2O+
176.028	24	C8H6N3S+
177.0118	1	C8H5N2OS+
188.0821	89	C10H10N3O+
189.09	21	C10H11N3O+
190.0978	27	C10H12N3O+
194.0386	52	C8H8N3OS+
198.0222	250	C8H8NO3S+
201.0664	11	C11H9N2O2+
202.0976	3	C11H12N3O+
214.0976	3	C12H12N3O+
216.0895	4	C12H12N2O2+
218.0385	3	C10H8N3OS+
236.0483	5	C10H10N3O2S+
296.0704	9	C12H14N3O4S+
