Mass spectrum: Ethyl 4-(dimethylamino)benzoate; LC-ESI-ITFT; MS2; CE: 40%; R=15000; [M+H]+
Name: Ethyl 4-(dimethylamino)benzoate
Name: Ethyl 4-dimethylaminobenzoate
Formula: C11H15NO2
Exact mass: 193.11027872
SMILES: CCOC(=O)C1=CC=C(C=C1)N(C)C
InChI: InChI=1S/C11H15NO2/c1-4-14-11(13)9-5-7-10(8-6-9)12(2)3/h5-8H,4H2,1-3H3
Instrument: LTQ Orbitrap XL Thermo Scientific
Instrument type: LC-ESI-ITFT
Ms type: MS2
Ion mode: POSITIVE
Ionization: ESI
Fragmentation mode: HCD
Collision energy: 40 % (nominal)
Resolution: 15000
Column name: Kinetex Evo C18 2.6 um 50 x 2.1 mm
Retention time: 11.173 min
Base peak: 194.1182
Precursor m/z: 194.1176
Precursor type: [M+H]+
Precursor intensity: 26913130
m/z	relative intensity	assigned
107.073	1	C7H9N+
121.0887	8	C8H11N+
122.0964	4	C8H12N+
134.0603	7	C8H8NO+
151.0629	46	C8H9NO2+
166.0864	389	C9H12NO2+
178.0867	1	C10H12NO2+
179.0942	260	C10H13NO2+
194.1174	999	C11H16NO2+
