Mass spectrum: Butylparaben; LC-ESI-ITFT; MS2; CE: 55; R=15000; [M+H]+
Name: Butylparaben
Name: 4-Hydroxybenzoate-buthyl
Formula: C11H14O3
Exact mass: 194.0943
SMILES: CCCCOC(=O)C1=CC=C(O)C=C1
InChI: InChI=1S/C11H14O3/c1-2-3-8-14-11(13)9-4-6-10(12)7-5-9/h4-7,12H,2-3,8H2,1H3
Instrument: LTQ Orbitrap XL Thermo Scientific
Instrument type: LC-ESI-ITFT
Ms type: MS2
Ion mode: POSITIVE
Ionization: ESI
Fragmentation mode: CID
Collision energy: 55 (nominal)
Resolution: 15000
Column name: Kinetex Core-Shell C18 2.6 um, 3.0 x 100 mm, Phenomenex
Retention time: 24.665 min
Base peak: 341.2101
Precursor m/z: 195.1016
Precursor type: [M+H]+
m/z	relative intensity	assigned
139.0387	999	C7H7O3+
151.0752	20	C9H11O2+
