Mass spectrum: 2-Hydroxycarbamazepine; LC-ESI-ITFT; MS2; CE: 35; R=15000; [M+H]+
Name: 2-Hydroxycarbamazepine
Name: 3-Hydroxybenzo[b][1]benzazepine-11-carboxamide
Formula: C15H12N2O2
Exact mass: 252.0899
SMILES: NC(=O)N1C2=CC=CC=C2C=CC2=CC(O)=CC=C12
InChI: InChI=1S/C15H12N2O2/c16-15(19)17-13-4-2-1-3-10(13)5-6-11-9-12(18)7-8-14(11)17/h1-9,18H,(H2,16,19)
Instrument: LTQ Orbitrap XL Thermo Scientific
Instrument type: LC-ESI-ITFT
Ms type: MS2
Ion mode: POSITIVE
Ionization: ESI
Fragmentation mode: CID
Collision energy: 35 (nominal)
Resolution: 15000
Column name: Kinetex Core-Shell C18 2.6 um, 3.0 x 100 mm, Phenomenex
Retention time: 19.668 min
Base peak: 163.1329
Precursor m/z: 253.0972
Precursor type: [M+H]+
m/z	relative intensity	assigned
179.073	1	C13H9N+
180.0808	25	C13H10N+
182.0968	4	C13H12N+
208.0762	8	C14H10NO+
210.0916	506	C14H12NO+
235.0868	2	C15H11N2O+
236.0709	999	C15H10NO2+
