Mass spectrum: Ciprofloxacin; LC-ESI-ITFT; MS2; CE: 80%; R=15000; [M+H]+
Name: Ciprofloxacin
Name: 1-cyclopropyl-6-fluoro-4-oxo-7-piperazin-1-ylquinoline-3-carboxylic acid
Formula: C17H18FN3O3
Exact mass: 331.133219656
SMILES: OC(=O)C1=CN(C2CC2)C2=C(C=C(F)C(=C2)N2CCNCC2)C1=O
InChI: InChI=1S/C17H18FN3O3/c18-13-7-11-14(8-15(13)20-5-3-19-4-6-20)21(10-1-2-10)9-12(16(11)22)17(23)24/h7-10,19H,1-6H2,(H,23,24)
Instrument: LTQ Orbitrap XL Thermo Scientific
Instrument type: LC-ESI-ITFT
Ms type: MS2
Ion mode: POSITIVE
Ionization: ESI
Fragmentation mode: HCD
Collision energy: 80 % (nominal)
Resolution: 15000
Column name: Kinetex Evo C18 2.6 um 50 x 2.1 mm
Retention time: 5.236 min
Base peak: 218.0851
Precursor m/z: 332.1405
Precursor type: [M+H]+
Precursor intensity: 1388999.62
m/z	relative intensity	assigned
56.0495	18	C3H6N+
70.0653	48	C4H8N+
135.0484	60	C8H6FN+
136.0562	104	C8H7FN+
148.0562	73	C9H7FN+
154.0658	23	C8H9FNO+
155.061	30	C7H8FN2O+
156.0685	35	C10H8N2+
161.0515	20	C9H6FN2+
162.0357	24	C9H5FNO+
163.067	25	C9H8FN2+
164.051	17	C9H7FNO+
169.0769	43	C8H10FN2O+
174.072	44	C11H9FN+
175.0673	55	C10H8FN2+
176.0514	35	C10H7FNO+
176.0751	160	C10H9FN2+
177.0578	16	C10H8FNO+
182.0847	38	C9H11FN2O+
184.064	36	C8H9FN2O2+
185.0715	23	C11H9N2O+
187.0671	32	C11H8FN2+
189.0465	336	C10H6FN2O+
189.083	77	C11H10FN2+
191.0623	121	C10H8FN2O+
201.0822	15	C12H10FN2+
202.0536	19	C11H7FN2O+
202.0665	65	C12H9FNO+
202.0904	14	C12H11FN2+
203.0621	548	C11H8FN2O+
203.0744	36	C12H10FNO+
204.0699	212	C11H9FN2O+
205.0778	256	C11H10FN2O+
215.0622	30	C12H8FN2O+
216.0702	16	C12H9FN2O+
217.0781	56	C12H10FN2O+
226.0983	18	C10H13FN3O2+
229.0776	53	C13H10FN2O+
231.0571	999	C12H8FN2O2+
231.0932	75	C13H12FN2O+
245.1092	133	C14H14FN2O+
