Mass spectrum: Methocarbamol; LC-ESI-ITFT; MS2; CE: 45%; R=15000; [M+H]+
Name: Methocarbamol
Name: [2-hydroxy-3-(2-methoxyphenoxy)propyl] carbamate
Formula: C11H15NO5
Exact mass: 241.0950
SMILES: COC1=C(OCC(O)COC(N)=O)C=CC=C1
InChI: InChI=1S/C11H15NO5/c1-15-9-4-2-3-5-10(9)16-6-8(13)7-17-11(12)14/h2-5,8,13H,6-7H2,1H3,(H2,12,14)
Instrument: LTQ Orbitrap XL Thermo Scientific
Instrument type: LC-ESI-ITFT
Ms type: MS2
Ion mode: POSITIVE
Ionization: ESI
Fragmentation mode: HCD
Collision energy: 45 % (nominal)
Resolution: 15000
Column name: Kinetex Evo C18 2.6 um 50 x 2.1 mm
Retention time: 7.061 min
Base peak: 264.084
Precursor m/z: 242.1023
Precursor type: [M+H]+
m/z	relative intensity	assigned
57.0333	81	C3H5O+
62.0235	102	CH4NO2+
65.0385	22	C5H5+
75.044	64	C3H7O2+
77.0385	19	C6H5+
79.0543	11	C6H7+
91.0545	22	C7H7+
93.0336	42	C6H5O+
93.07	26	C7H9+
95.0492	104	C6H7O+
103.0544	54	C8H7+
105.0699	105	C8H9+
107.0492	33	C7H7O+
110.0362	57	C6H6O2+
118.0499	999	C4H8NO3+
120.0572	12	C8H8O+
121.0286	23	C7H5O2+
121.0648	86	C8H9O+
122.0363	130	C7H6O2+
123.0441	90	C7H7O2+
125.0597	288	C7H9O2+
131.0494	13	C9H7O+
132.0566	16	C9H8O+
135.0805	249	C9H11O+
137.0598	78	C8H9O2+
145.0643	13	C10H9O+
148.0521	50	C9H8O2+
151.0755	94	C9H11O2+
163.0755	325	C10H11O2+
