Mass spectrum: Difenoconazole; LC-ESI-ITFT; MS2; CE: 40%; R=15000; [M+H]+
Name: Difenoconazole
Name: 1-[[2-[2-chloro-4-(4-chlorophenoxy)phenyl]-4-methyl-1,3-dioxolan-2-yl]methyl]-1,2,4-triazole
Formula: C19H17Cl2N3O3
Exact mass: 405.064696764
SMILES: CC1COC(CN2C=NC=N2)(O1)C1=C(Cl)C=C(OC2=CC=C(Cl)C=C2)C=C1
InChI: InChI=1S/C19H17Cl2N3O3/c1-13-9-25-19(27-13,10-24-12-22-11-23-24)17-7-6-16(8-18(17)21)26-15-4-2-14(20)3-5-15/h2-8,11-13H,9-10H2,1H3
Instrument: LTQ Orbitrap XL Thermo Scientific
Instrument type: LC-ESI-ITFT
Ms type: MS2
Ion mode: POSITIVE
Ionization: ESI
Fragmentation mode: HCD
Collision energy: 40 % (nominal)
Resolution: 15000
Column name: Kinetex Evo C18 2.6 um 50 x 2.1 mm
Retention time: 12.922 min
Base peak: 406.0729
Precursor m/z: 406.072
Precursor type: [M+H]+
Precursor intensity: 10746717
m/z	relative intensity	assigned
164.0386	12	C10H9Cl+
251.0024	999	C13H9Cl2O+
263.001	1	C12H7Cl2N3+
264.9813	19	C13H7Cl2O2+
291.0335	22	C16H13Cl2O+
323.0232	23	C16H13Cl2O3+
337.0389	13	C17H15Cl2O3+
