Mass spectrum: Pyrazophos; LC-ESI-ITFT; MS2; CE: 80%; R=15000; [M+H]+
Name: Pyrazophos
Name: ethyl 2-diethoxyphosphinothioyloxy-5-methylpyrazolo[1,5-a]pyrimidine-6-carboxylate
Formula: C14H20N3O5PS
Exact mass: 373.08612837
SMILES: CCOC(=O)C1=CN2N=C(OP(=S)(OCC)OCC)C=C2N=C1C
InChI: InChI=1S/C14H20N3O5PS/c1-5-19-14(18)11-9-17-12(15-10(11)4)8-13(16-17)22-23(24,20-6-2)21-7-3/h8-9H,5-7H2,1-4H3
Instrument: LTQ Orbitrap XL Thermo Scientific
Instrument type: LC-ESI-ITFT
Ms type: MS2
Ion mode: POSITIVE
Ionization: ESI
Fragmentation mode: HCD
Collision energy: 80 % (nominal)
Resolution: 15000
Column name: Kinetex Evo C18 2.6 um 50 x 2.1 mm
Retention time: 12.777 min
Base peak: 374.0945
Precursor m/z: 374.0934
Precursor type: [M+H]+
Precursor intensity: 10574441
m/z	relative intensity	assigned
64.9786	72	H2O2P+
66.0337	9	C4H4N+
68.013	5	C3H2NO+
68.0494	3	C4H6N+
78.0336	8	C5H4N+
80.0128	4	C4H2NO+
80.9734	4	H2O3P+
82.0289	7	C4H4NO+
92.0496	12	C6H6N+
93.0101	14	C2H6O2P+
93.0448	30	C5H5N2+
94.0288	28	C5H4NO+
95.0606	11	CH10N3P+
96.9508	225	H2O2PS+
97.9589	5	H3O2PS+
98.9663	3	H4O2PS+
98.9843	15	H4O4P+
99.0553	10	C4H7N2O+
105.0449	12	C2H8N3P+
106.0288	8	C6H4NO+
110.0237	5	C5H4NO2+
110.0352	3	C4H4N3O+
110.9663	4	CH4O2PS+
112.0393	6	C5H6NO2+
113.9536	113	H3O3PS+
114.9614	288	H4O3PS+
120.0557	65	C6H6N3+
121.0396	27	C6H5N2O+
123.0559	3	C2H10N3OP+
124.0506	4	C5H6N3O+
131.0477	8	C7H5N3+
133.0635	11	C7H7N3+
134.0474	7	C7H6N2O+
137.0475	5	C3H10N2O2P+
139.0503	78	C6H7N2O2+
142.9933	5	C2H8O3PS+
148.0507	357	C7H6N3O+
149.0347	47	C7H5N2O2+
149.0575	9	C2H14O5P+
150.0663	23	C7H8N3O+
159.0428	68	C8H5N3O+
160.0504	5	C8H6N3O+
164.0279	4	C7H6N3S+
166.0613	161	C7H8N3O2+
167.0646	3	C4H14N3PS+
176.0457	869	C8H6N3O2+
177.0296	88	C8H5N2O3+
177.0534	262	C8H7N3O2+
183.0224	158	C7H7N2O2S+
192.023	11	C8H6N3OS+
194.0561	999	C8H8N3O3+
195.0591	24	C5H14N3OPS+
199.0166	7	C13HN3+
205.0849	15	C10H11N3O2+
208.0173	12	C8H6N3O2S+
210.0332	17	C8H8N3O2S+
211.0537	7	C5H14N3O2PS+
222.0876	14	C10H12N3O3+
240.0171	13	C8H7N3O4P+
253.979	4	C8H5N3O3PS+
256.0116	8	C12H4N2O5+
