Mass spectrum: Diflufenican; LC-ESI-ITFT; MS2; CE: 35; R=15000; [M+H]+
Name: Diflufenican
Name: N-(2,4-Difluorophenyl)-2-[3-(trifluoromethyl)phenoxy]pyridine-3-carboxamide
Formula: C19H11F5N2O2
Exact mass: 394.0741
SMILES: FC1=CC=C(NC(=O)C2=CC=CN=C2OC2=CC=CC(=C2)C(F)(F)F)C(F)=C1
InChI: InChI=1S/C19H11F5N2O2/c20-12-6-7-16(15(21)10-12)26-17(27)14-5-2-8-25-18(14)28-13-4-1-3-11(9-13)19(22,23)24/h1-10H,(H,26,27)
Instrument: LTQ Orbitrap XL Thermo Scientific
Instrument type: LC-ESI-ITFT
Ms type: MS2
Ion mode: POSITIVE
Ionization: ESI
Fragmentation mode: CID
Collision energy: 35 (nominal)
Resolution: 15000
Column name: Kinetex Core-Shell C18 2.6 um, 3.0 x 100 mm, Phenomenex
Retention time: 26.827 min
Base peak: 409.1362
Precursor m/z: 395.0813
Precursor type: [M+H]+
m/z	relative intensity	assigned
198.0552	1	C12H8NO2+
233.0522	12	C12H7F2N2O+
238.0478	1	C12H7F3NO+
246.0362	34	C13H6F2NO2+
266.0423	999	C13H7F3NO2+
335.0628	12	C19H9F2N2O2+
355.0692	15	C19H10F3N2O2+
375.0751	162	C19H11F4N2O2+
377.0711	1	C19H10F5N2O+
