Mass spectrum: 4-Nitroquinoline-1-oxide; LC-ESI-ITFT; MS2; CE: 30%; R=15000; [M+H]+
Name: 4-Nitroquinoline-1-oxide
Name: 4-Nitroquinoline N-oxide
Name: 4-nitro-1-oxidoquinolin-1-ium
Formula: C9H6N2O3
Exact mass: 190.037842052
SMILES: [O-][N+](=O)C1=CC=[N+]([O-])C2=CC=CC=C12
InChI: InChI=1S/C9H6N2O3/c12-10-6-5-9(11(13)14)7-3-1-2-4-8(7)10/h1-6H
Instrument: LTQ Orbitrap XL Thermo Scientific
Instrument type: LC-ESI-ITFT
Ms type: MS2
Ion mode: POSITIVE
Ionization: ESI
Fragmentation mode: HCD
Collision energy: 30 % (nominal)
Resolution: 15000
Column name: Kinetex Evo C18 2.6 um 50 x 2.1 mm
Retention time: 6.232 min
Base peak: 264.1761
Precursor m/z: 191.0451
Precursor type: [M+H]+
Precursor intensity: 4210974.5
m/z	relative intensity	assigned
77.0384	2	C6H5+
90.0463	3	C7H6+
91.0414	1	C6H5N+
104.0494	6	C7H6N+
105.0576	1	C7H7N+
116.0494	6	C8H6N+
117.0574	2	C8H7N+
133.0523	2	C8H7NO+
144.0445	6	C9H6NO+
145.0522	224	C9H7NO+
161.0471	208	C9H7NO2+
191.0451	999	C9H7N2O3+
