Mass spectrum: Mycophenolic acid; LC-ESI-ITFT; MS2; CE: 35; R=15000; [M+H]+
Name: Mycophenolic acid
Name: (E)-6-(4-Hydroxy-6-methoxy-7-methyl-3-oxo-1H-2-benzofuran-5-yl)-4-methylhex-4-enoic acid
Formula: C17H20O6
Exact mass: 320.1260
SMILES: COC1=C(C)C2=C(C(=O)OC2)C(O)=C1C\C=C(/C)CCC(O)=O
InChI: InChI=1S/C17H20O6/c1-9(5-7-13(18)19)4-6-11-15(20)14-12(8-23-17(14)21)10(2)16(11)22-3/h4,20H,5-8H2,1-3H3,(H,18,19)/b9-4+
Instrument: LTQ Orbitrap XL Thermo Scientific
Instrument type: LC-ESI-ITFT
Ms type: MS2
Ion mode: POSITIVE
Ionization: ESI
Fragmentation mode: CID
Collision energy: 35 (nominal)
Resolution: 15000
Column name: Kinetex Core-Shell C18 2.6 um, 3.0 x 100 mm, Phenomenex
Retention time: 23.922 min
Base peak: 149.003
Precursor m/z: 321.1333
Precursor type: [M+H]+
m/z	relative intensity	assigned
199.0748	185	C13H11O2+
203.0602	999	C14H7N2+
207.0655	204	C11H11O4+
234.9991	375	C9H3N2O6+
265.0094	711	C10H5N2O7+
279.0248	207	C11H7N2O7+
