Mass spectrum: Flurtamone; LC-ESI-ITFT; MS2; CE: 55; R=15000; [M-H]-
Name: Flurtamone
Name: 5-(Methylamino)-2-phenyl-4-[3-(trifluoromethyl)phenyl]furan-3-one
Formula: C18H14F3NO2
Exact mass: 333.0977
SMILES: CNC1=C(C(=O)C(O1)C1=CC=CC=C1)C1=CC=CC(=C1)C(F)(F)F
InChI: InChI=1S/C18H14F3NO2/c1-22-17-14(12-8-5-9-13(10-12)18(19,20)21)15(23)16(24-17)11-6-3-2-4-7-11/h2-10,16,22H,1H3
Instrument: LTQ Orbitrap XL Thermo Scientific
Instrument type: LC-ESI-ITFT
Ms type: MS2
Ion mode: NEGATIVE
Ionization: ESI
Fragmentation mode: CID
Collision energy: 55 (nominal)
Resolution: 15000
Column name: Kinetex Core-Shell C18 2.6 um, 3.0 x 100 mm, Phenomenex
Retention time: 24.285 min
Base peak: 212.9994
Precursor m/z: 332.0904
Precursor type: [M-H]-
m/z	relative intensity	assigned
134.0612	7	C8H8NO-
145.0272	27	C7H4F3-
171.0322	9	C10H5NO2-
183.0302	20	C9H4F3N-
185.022	69	C9H4F3O-
186.0562	40	C11H8NO2-
198.0538	42	C10H7F3N-
214.0246	11	C10H5F3O2-
227.0681	19	C15H9F2-
239.0201	10	C11H4F3NO2-
245.0583	6	C15H8F3-
247.074	999	C15H10F3-
254.043	21	C12H7F3NO2-
255.0619	26	C16H9F2O-
259.0743	15	C16H10F3-
272.0728	6	C18H10NO2-
273.0766	16	C16H10F3N-
274.061	33	C16H9F3O-
275.0689	381	C16H10F3O-
277.0844	8	C16H12F3O-
286.0845	26	C17H11F3N-
304.0955	249	C17H13F3NO-
316.0588	16	C17H9F3NO2-
317.0667	153	C17H10F3NO2-
