Mass spectrum: 4-Methylbenzylidene camphor; LC-ESI-ITFT; MS2; CE: 20%; R=15000; [M+H]+
Name: 4-Methylbenzylidene camphor
Name: 1,7,7-trimethyl-3-[(4-methylphenyl)methylidene]bicyclo[2.2.1]heptan-2-one
Formula: C18H22O
Exact mass: 254.167065324
SMILES: CC1=CC=C(C=C2C3CCC(C)(C2=O)C3(C)C)C=C1
InChI: InChI=1S/C18H22O/c1-12-5-7-13(8-6-12)11-14-15-9-10-18(4,16(14)19)17(15,2)3/h5-8,11,15H,9-10H2,1-4H3
Instrument: LTQ Orbitrap XL Thermo Scientific
Instrument type: LC-ESI-ITFT
Ms type: MS2
Ion mode: POSITIVE
Ionization: ESI
Fragmentation mode: HCD
Collision energy: 20 % (nominal)
Resolution: 15000
Column name: Kinetex Evo C18 2.6 um 50 x 2.1 mm
Retention time: 13.561 min
Base peak: 255.1746
Precursor m/z: 255.1743
Precursor type: [M+H]+
Precursor intensity: 20801692
m/z	relative intensity	assigned
85.0647	1	C5H9O+
95.0855	2	C7H11+
97.0645	11	C6H9O+
99.0803	1	C6H11O+
105.0695	5	C8H9+
109.101	3	C8H13+
111.0802	18	C7H11O+
119.049	1	C8H7O+
119.0856	1	C9H11+
131.0853	4	C10H11+
143.0853	3	C11H11+
145.101	2	C11H13+
147.1162	1	C11H15+
157.1008	19	C12H13+
159.1164	3	C12H15+
163.1114	2	C11H15O+
169.1004	1	C13H13+
171.0798	4	C12H11O+
171.1165	10	C13H15+
173.0954	3	C12H13O+
183.1163	7	C14H15+
185.0957	9	C13H13O+
195.1165	4	C15H15+
197.1321	9	C15H17+
199.1113	8	C14H15O+
209.1323	2	C16H17+
211.1116	1	C15H15O+
211.1478	5	C16H19+
212.1193	8	C15H16O+
213.1269	13	C15H17O+
213.1633	5	C16H21+
227.1792	8	C17H23+
237.1633	39	C18H21+
255.1738	999	C18H23O+
