Mass spectrum: Metolachlor; LC-ESI-ITFT; MS2; CE: 60%; R=15000; [M+H]+
Name: Metolachlor
Name: 2-chloro-N-(2-ethyl-6-methylphenyl)-N-(1-methoxypropan-2-yl)acetamide
Formula: C15H22ClNO2
Exact mass: 283.133906624
SMILES: CCC1=CC=CC(C)=C1N(C(C)COC)C(=O)CCl
InChI: InChI=1S/C15H22ClNO2/c1-5-13-8-6-7-11(2)15(13)17(14(18)9-16)12(3)10-19-4/h6-8,12H,5,9-10H2,1-4H3
Instrument: LTQ Orbitrap XL Thermo Scientific
Instrument type: LC-ESI-ITFT
Ms type: MS2
Ion mode: POSITIVE
Ionization: ESI
Fragmentation mode: HCD
Collision energy: 60 % (nominal)
Resolution: 15000
Column name: Kinetex Evo C18 2.6 um 50 x 2.1 mm
Retention time: 11.802 min
Base peak: 284.1416
Precursor m/z: 284.1412
Precursor type: [M+H]+
Precursor intensity: 45288328
m/z	relative intensity	assigned
73.0646	83	C4H9O+
76.9787	24	C2H2ClO+
119.0854	25	C9H11+
133.0884	42	C9H11N+
134.0962	120	C9H12N+
135.0804	7	C9H11O+
145.0883	24	C10H11N+
146.0962	77	C10H12N+
148.1119	23	C10H14N+
158.0961	52	C11H12N+
159.1041	22	C11H13N+
160.1118	76	C11H14N+
162.1275	5	C11H16N+
174.1275	13	C12H16N+
176.1431	999	C12H18N+
194.073	32	C11H13ClN+
212.0834	43	C14H12O2+
252.1147	524	C14H19ClNO+
