Mass spectrum: Ametryn; LC-ESI-ITFT; MS2; CE: 50%; R=15000; [M+H]+
Name: Ametryn
Name: 4-N-ethyl-6-methylsulfanyl-2-N-propan-2-yl-1,3,5-triazine-2,4-diamine
Formula: C9H17N5S
Exact mass: 227.120466544
SMILES: CCNC1=NC(SC)=NC(NC(C)C)=N1
InChI: InChI=1S/C9H17N5S/c1-5-10-7-12-8(11-6(2)3)14-9(13-7)15-4/h6H,5H2,1-4H3,(H2,10,11,12,13,14)
Instrument: LTQ Orbitrap XL Thermo Scientific
Instrument type: LC-ESI-ITFT
Ms type: MS2
Ion mode: POSITIVE
Ionization: ESI
Fragmentation mode: HCD
Collision energy: 50 % (nominal)
Resolution: 15000
Column name: Kinetex Evo C18 2.6 um 50 x 2.1 mm
Retention time: 8.689 min
Base peak: 228.1287
Precursor m/z: 228.1277
Precursor type: [M+H]+
Precursor intensity: 45881356
m/z	relative intensity	assigned
68.0242	31	C2H2N3+
71.0603	28	C3H7N2+
74.0059	4	C2H4NS+
85.0509	2	C2H5N4+
85.0761	2	C4H9N2+
91.0325	61	C2H7N2S+
96.0557	130	C4H6N3+
102.0373	5	C4H8NS+
113.0823	12	C4H9N4+
116.0278	48	C3H6N3S+
138.0775	48	C5H8N5+
138.1027	33	C7H12N3+
144.0591	44	C5H10N3S+
158.0496	33	C4H8N5S+
158.0748	7	C6H12N3S+
171.0566	1	C5H9N5S+
180.1247	11	C8H14N5+
186.081	999	C6H12N5S+
200.0973	2	C7H14N5S+
213.1049	1	C8H15N5S+
228.128	538	C9H18N5S+
