Mass spectrum: 2-Bromoaniline; LC-ESI-ITFT; MS2; CE: 10%; R=15000; [M+H]+
Name: 2-Bromoaniline
Formula: C6H6BrN
Exact mass: 170.968361292
SMILES: NC1=C(Br)C=CC=C1
InChI: InChI=1S/C6H6BrN/c7-5-3-1-2-4-6(5)8/h1-4H,8H2
Instrument: LTQ Orbitrap XL Thermo Scientific
Instrument type: LC-ESI-ITFT
Ms type: MS2
Ion mode: POSITIVE
Ionization: ESI
Fragmentation mode: HCD
Collision energy: 10 % (nominal)
Resolution: 15000
Column name: Kinetex Evo C18 2.6 um 50 x 2.1 mm
Retention time: 6.435 min
Base peak: 171.9759
Precursor m/z: 171.9756
Precursor type: [M+H]+
Precursor intensity: 2315070.75
m/z	relative intensity	assigned
171.9759	999	C6H7BrN+
