Mass spectrum: Trifloxystrobin; LC-ESI-ITFT; MS2; CE: 40%; R=15000; [M+H]+
Name: Trifloxystrobin
Name: methyl (2E)-2-methoxyimino-2-[2-[[(E)-1-[3-(trifluoromethyl)phenyl]ethylideneamino]oxymethyl]phenyl]acetate
Formula: C20H19F3N2O4
Exact mass: 408.129691748
SMILES: CO\N=C(\C(=O)OC)C1=C(CO\N=C(/C)C2=CC=CC(=C2)C(F)(F)F)C=CC=C1
InChI: InChI=1S/C20H19F3N2O4/c1-13(14-8-6-9-16(11-14)20(21,22)23)24-29-12-15-7-4-5-10-17(15)18(25-28-3)19(26)27-2/h4-11H,12H2,1-3H3/b24-13+,25-18+
Instrument: LTQ Orbitrap XL Thermo Scientific
Instrument type: LC-ESI-ITFT
Ms type: MS2
Ion mode: POSITIVE
Ionization: ESI
Fragmentation mode: HCD
Collision energy: 40 % (nominal)
Resolution: 15000
Column name: Kinetex Evo C18 2.6 um 50 x 2.1 mm
Retention time: 13.183 min
Base peak: 409.1375
Precursor m/z: 409.137
Precursor type: [M+H]+
Precursor intensity: 11915940
m/z	relative intensity	assigned
91.0541	10	C7H7+
105.0699	21	C8H9+
116.0494	214	C8H6N+
117.0573	13	C8H7N+
118.065	26	C8H8N+
119.049	7	C8H7O+
130.0651	8	C9H8N+
131.0729	180	C9H9N+
132.0443	13	C8H6NO+
132.0807	115	C9H10N+
134.0599	3	C8H8NO+
143.0366	5	C9H5NO+
145.0258	23	C7H4F3+
146.06	108	C9H8NO+
147.0676	18	C9H9NO+
148.0755	9	C9H10NO+
161.0475	5	C9H7NO2+
162.0913	20	C10H12NO+
173.0321	30	C7H4F3N2+
174.055	4	C10H8NO2+
175.0628	13	C10H9NO2+
178.0861	11	C10H12NO2+
186.0525	999	C9H7F3N+
187.0557	39	C12H8FO+
206.0812	190	C11H12NO3+
207.0846	9	C6H14F3O4+
216.0055	3	C12HF3N+
254.0027	19	C20N+
254.9967	18	C13H2FNO4+
