Mass spectrum: Fenthion; LC-ESI-ITFT; MS2; CE: 50%; R=15000; [M+H]+
Name: Fenthion
Name: dimethoxy-(3-methyl-4-methylsulfanylphenoxy)-sulfanylidene-lambda5-phosphane
Formula: C10H15O3PS2
Exact mass: 278.02002297
SMILES: COP(=S)(OC)OC1=CC=C(SC)C(C)=C1
InChI: InChI=1S/C10H15O3PS2/c1-8-7-9(5-6-10(8)16-4)13-14(15,11-2)12-3/h5-7H,1-4H3
Instrument: LTQ Orbitrap XL Thermo Scientific
Instrument type: LC-ESI-ITFT
Ms type: MS2
Ion mode: POSITIVE
Ionization: ESI
Fragmentation mode: HCD
Collision energy: 50 % (nominal)
Resolution: 15000
Column name: Kinetex Evo C18 2.6 um 50 x 2.1 mm
Retention time: 11.198 min
Base peak: 116.9863
Precursor m/z: 279.0273
Precursor type: [M+H]+
Precursor intensity: 2261524.5
m/z	relative intensity	assigned
58.995	15	C2H3S+
91.0546	27	C7H7+
93.0702	20	C7H9+
103.0546	25	C8H7+
122.0188	17	C7H6S+
124.9825	97	C2H6O2PS+
137.0425	125	C8H9S+
142.9933	85	C2H8O3PS+
153.0375	669	C8H9OS+
185.9903	30	C7H7O2PS+
198.9981	14	C8H8O2PS+
200.0063	86	C8H9O2PS+
216.0014	999	C8H9O3PS+
217.0089	21	C8H10O3PS+
231.0249	584	C9H12O3PS+
247.0019	15	C9H12O2PS2+
