Mass spectrum: Diphenylphosphate; LC-ESI-ITFT; MS2; CE: 70%; R=15000; [M+H]+
Name: Diphenylphosphate
Name: Diphenyl phosphate
Name: diphenyl hydrogen phosphate
Formula: C12H11O4P
Exact mass: 250.039495462
SMILES: OP(=O)(OC1=CC=CC=C1)OC1=CC=CC=C1
InChI: InChI=1S/C12H11O4P/c13-17(14,15-11-7-3-1-4-8-11)16-12-9-5-2-6-10-12/h1-10H,(H,13,14)
Instrument: LTQ Orbitrap XL Thermo Scientific
Instrument type: LC-ESI-ITFT
Ms type: MS2
Ion mode: POSITIVE
Ionization: ESI
Fragmentation mode: HCD
Collision energy: 70 % (nominal)
Resolution: 15000
Column name: Kinetex Evo C18 2.6 um 50 x 2.1 mm
Retention time: 11.582 min
Base peak: 251.0477
Precursor m/z: 251.0468
Precursor type: [M+H]+
Precursor intensity: 4900022.5
m/z	relative intensity	assigned
53.0383	5	C4H5+
77.0385	999	C6H5+
93.0334	2	C6H5O+
94.0414	17	C6H6O+
95.0492	393	C6H7O+
98.9842	29	H4O4P+
106.0416	3	C7H6O+
109.0648	2	C7H9O+
129.0098	5	C5H6O2P+
138.9942	8	C6H4O2P+
141.0694	2	C11H9+
151.0543	27	C12H7+
152.0621	441	C12H8+
153.0699	182	C12H9+
157.0048	23	C6H6O3P+
168.057	62	C12H8O+
169.065	13	C12H9O+
171.0808	2	C12H11O+
175.0156	217	C6H8O4P+
187.0306	9	C11H8OP+
215.0258	60	C12H8O2P+
233.0363	56	C12H10O3P+
251.0468	20	C12H12O4P+
