Mass spectrum: Chloroxuron; LC-ESI-ITFT; MS2; CE: 35; R=15000; [M+H]+
Name: Chloroxuron
Name: 3-[4-(4-Chlorophenoxy)phenyl]-1,1-dimethylurea
Formula: C15H15ClN2O2
Exact mass: 290.0822
SMILES: CN(C)C(=O)NC1=CC=C(OC2=CC=C(Cl)C=C2)C=C1
InChI: InChI=1S/C15H15ClN2O2/c1-18(2)15(19)17-12-5-9-14(10-6-12)20-13-7-3-11(16)4-8-13/h3-10H,1-2H3,(H,17,19)
Instrument: LTQ Orbitrap XL Thermo Scientific
Instrument type: LC-ESI-ITFT
Ms type: MS2
Ion mode: POSITIVE
Ionization: ESI
Fragmentation mode: CID
Collision energy: 35 (nominal)
Resolution: 15000
Column name: Kinetex Core-Shell C18 2.6 um, 3.0 x 100 mm, Phenomenex
Retention time: 25.093 min
Base peak: 291.0891
Precursor m/z: 291.0895
Precursor type: [M+H]+
m/z	relative intensity	assigned
118.0649	52	C8H8N+
119.0731	15	C8H9N+
147.0679	51	C9H9NO+
163.0869	19	C9H11N2O+
164.0943	332	C9H12N2O+
246.0317	123	C13H9ClNO2+
256.1208	54	C15H16N2O2+
291.0893	999	C15H16ClN2O2+
