Mass spectrum: Bifonazol; LC-ESI-ITFT; MS2; CE: 50%; R=15000; [M+H]+
Name: Bifonazol
Name: Bifonazole
Name: 1-[phenyl-(4-phenylphenyl)methyl]imidazole
Formula: C22H18N2
Exact mass: 310.146998576
SMILES: C1=CN(C=N1)C(C1=CC=CC=C1)C1=CC=C(C=C1)C1=CC=CC=C1
InChI: InChI=1S/C22H18N2/c1-3-7-18(8-4-1)19-11-13-21(14-12-19)22(24-16-15-23-17-24)20-9-5-2-6-10-20/h1-17,22H
Instrument: LTQ Orbitrap XL Thermo Scientific
Instrument type: LC-ESI-ITFT
Ms type: MS2
Ion mode: POSITIVE
Ionization: ESI
Fragmentation mode: HCD
Collision energy: 50 % (nominal)
Resolution: 15000
Column name: Kinetex Evo C18 2.6 um 50 x 2.1 mm
Retention time: 9.600 min
Base peak: 311.1547
Precursor m/z: 311.1543
Precursor type: [M+H]+
Precursor intensity: 16178534
m/z	relative intensity	assigned
91.0544	85	C7H7+
115.0544	48	C9H7+
141.0698	6	C11H9+
165.0701	113	C13H9+
202.0778	8	C16H10+
215.0859	29	C17H11+
228.0936	91	C18H12+
241.1015	36	C19H13+
242.1092	7	C19H14+
243.1171	999	C19H15+
