Mass spectrum: Metazachlor BH 479-11; LC-ESI-ITFT; MS2; CE: 10%; R=15000; [M+H]+
Name: Metazachlor BH 479-11
Name: N-(2,6-dimethylphenyl)-2-methylsulfinyl-N-(pyrazol-1-ylmethyl)acetamide
Formula: C15H19N3O2S
Exact mass: 305.119797848
SMILES: CC1=CC=CC(C)=C1N(CN1C=CC=N1)C(=O)CS(C)=O
InChI: InChI=1S/C15H19N3O2S/c1-12-6-4-7-13(2)15(12)18(14(19)10-21(3)20)11-17-9-5-8-16-17/h4-9H,10-11H2,1-3H3
Instrument: LTQ Orbitrap XL Thermo Scientific
Instrument type: LC-ESI-ITFT
Ms type: MS2
Ion mode: POSITIVE
Ionization: ESI
Fragmentation mode: HCD
Collision energy: 10 % (nominal)
Resolution: 15000
Column name: Kinetex Evo C18 2.6 um 50 x 2.1 mm
Retention time: 7.906 min
Base peak: 306.1283
Precursor m/z: 306.1271
Precursor type: [M+H]+
Precursor intensity: 25693792
m/z	relative intensity	assigned
105.0005	83	C3H5O2S+
134.0965	752	C9H12N+
146.0966	4	C10H12N+
238.0898	999	C12H16NO2S+
306.1272	695	C15H20N3O2S+
