Mass spectrum: Flusilazole; LC-ESI-ITFT; MS2; CE: 55; R=15000; [M+H]+
Name: Flusilazole
Name: Bis(4-fluorophenyl)-methyl-(1,2,4-triazol-1-ylmethyl)silane
Formula: C16H15F2N3Si
Exact mass: 315.1003
SMILES: C[Si](CN1C=NC=N1)(C1=CC=C(F)C=C1)C1=CC=C(F)C=C1
InChI: InChI=1S/C16H15F2N3Si/c1-22(12-21-11-19-10-20-21,15-6-2-13(17)3-7-15)16-8-4-14(18)5-9-16/h2-11H,12H2,1H3
Instrument: LTQ Orbitrap XL Thermo Scientific
Instrument type: LC-ESI-ITFT
Ms type: MS2
Ion mode: POSITIVE
Ionization: ESI
Fragmentation mode: HCD
Collision energy: 55 (nominal)
Resolution: 15000
Column name: Kinetex Core-Shell C18 2.6 um, 3.0 x 100 mm, Phenomenex
Retention time: 25.585 min
Base peak: 316.107
Precursor m/z: 316.1076
Precursor type: [M+H]+
m/z	relative intensity	assigned
70.0398	31	C2H4N3+
79.0009	49	CH4FOSi+
79.0542	14	C6H7+
80.9966	28	CH3F2Si+
91.0542	30	C7H7+
95.0491	15	C6H7O+
105.0446	61	C6H5N2+
105.0698	71	C8H9+
109.0446	24	C2H5F2N3+
125.0216	30	C6H6FSi+
127.0123	25	C4H4FN2Si+
129.07	3	C10H9+
131.0598	7	C8H7N2+
141.0166	49	C6H6FOSi+
141.0699	34	C11H9+
143.0122	8	C6H5F2Si+
149.0219	5	C8H6FSi+
151.0373	78	C8H8FSi+
153.0699	61	C12H9+
155.0605	4	C10H7N2+
157.0279	64	C7H7F2Si+
159.0071	4	C6H5F2OSi+
164.0626	8	C13H8+
165.0698	999	C13H9+
166.0776	134	C8H9FN3+
169.0478	153	
171.0436	73	C8H9F2Si+
175.022	5	C10H3F2N+
179.0854	29	C9H10FN3+
181.0758	12	C12H9N2+
193.0762	6	C13H9N2+
199.0376	17	C12H8FSi+
217.0479	24	C12H10FOSi+
219.0435	168	C12H9F2Si+
225.0531	3	C14H10FSi+
227.0687	47	C14H12FSi+
231.0433	8	C13H9F2Si+
232.0511	11	C13H10F2Si+
245.0592	6	C14H11F2Si+
245.0793	23	C14H14FOSi+
247.0748	50	C14H13F2Si+
265.0857	3	C14H15F2OSi+
