Mass spectrum: Lincomycin; LC-ESI-ITFT; MS2; CE: 30%; R=15000; [M+H]+
Name: Lincomycin
Name: (2S,4R)-N-[(1R,2R)-2-hydroxy-1-[(2R,3R,4S,5R,6R)-3,4,5-trihydroxy-6-methylsulfanyloxan-2-yl]propyl]-1-methyl-4-propylpyrrolidine-2-carboxamide
Formula: C18H34N2O6S
Exact mass: 406.213757808
SMILES: CCC[C@@H]1C[C@H](N(C)C1)C(=O)N[C@H]([C@@H](C)O)[C@H]1O[C@H](SC)[C@H](O)[C@@H](O)[C@H]1O
InChI: InChI=1S/C18H34N2O6S/c1-5-6-10-7-11(20(3)8-10)17(25)19-12(9(2)21)16-14(23)13(22)15(24)18(26-16)27-4/h9-16,18,21-24H,5-8H2,1-4H3,(H,19,25)/t9-,10-,11+,12-,13+,14-,15-,16-,18-/m1/s1
Instrument: LTQ Orbitrap XL Thermo Scientific
Instrument type: LC-ESI-ITFT
Ms type: MS2
Ion mode: POSITIVE
Ionization: ESI
Fragmentation mode: HCD
Collision energy: 30 % (nominal)
Resolution: 15000
Column name: Kinetex Evo C18 2.6 um 50 x 2.1 mm
Retention time: 0.717 min
Base peak: 157.0358
Precursor m/z: 407.221
Precursor type: [M+H]+
Precursor intensity: 3053733.25
m/z	relative intensity	assigned
126.128	999	C8H16N+
172.1336	8	C3H24O5S+
216.0871	2	C9H14NO5+
234.0975	1	C9H16NO6+
264.0902	1	C10H18NO5S+
287.1963	1	C14H27N2O4+
299.1968	5	C15H27N2O4+
317.2076	12	C15H29N2O5+
341.2082	2	C17H29N2O5+
359.2181	75	C17H31N2O6+
360.2217	6	C18H34NO4S+
389.2107	10	C18H33N2O5S+
407.2214	122	C18H35N2O6S+
