Mass spectrum: Norgestrel; LC-ESI-ITFT; MS2; CE: 30%; R=15000; [M+H]+
Name: Norgestrel
Name: (8R,9S,10R,13S,14S)-13-ethyl-17-ethynyl-17-hydroxy-1,2,6,7,8,9,10,11,12,14,15,16-dodecahydrocyclopenta[a]phenanthren-3-one
Formula: C21H28O2
Exact mass: 312.208930136
SMILES: [H][C@@]12CCC(O)(C#C)[C@@]1(CC)CC[C@]1([H])[C@@]3([H])CCC(=O)C=C3CC[C@@]21[H]
InChI: InChI=1S/C21H28O2/c1-3-20-11-9-17-16-8-6-15(22)13-14(16)5-7-18(17)19(20)10-12-21(20,23)4-2/h2,13,16-19,23H,3,5-12H2,1H3/t16-,17+,18+,19-,20-,21?/m0/s1
Instrument: LTQ Orbitrap XL Thermo Scientific
Instrument type: LC-ESI-ITFT
Ms type: MS2
Ion mode: POSITIVE
Ionization: ESI
Fragmentation mode: HCD
Collision energy: 30 % (nominal)
Resolution: 15000
Column name: Kinetex Evo C18 2.6 um 50 x 2.1 mm
Retention time: 11.655 min
Base peak: 313.2161
Precursor m/z: 313.2162
Precursor type: [M+H]+
Precursor intensity: 5937474.5
m/z	relative intensity	assigned
79.054	8	C6H7+
81.0695	17	C6H9+
91.0539	12	C7H7+
93.0696	15	C7H9+
95.0852	17	C7H11+
97.0648	6	C6H9O+
105.0696	16	C8H9+
107.0488	17	C7H7O+
107.0852	18	C8H11+
109.0644	83	C7H9O+
109.1009	16	C8H13+
117.0695	11	C9H9+
119.0852	23	C9H11+
121.0646	7	C8H9O+
121.1009	17	C9H13+
123.08	31	C8H11O+
123.1163	7	C9H15+
125.0957	17	C8H13O+
129.0695	7	C10H9+
131.0852	28	C10H11+
133.1008	52	C10H13+
135.08	24	C9H11O+
135.1163	12	C10H15+
137.0955	5	C9H13O+
143.085	14	C11H11+
145.1007	39	C11H13+
147.0801	8	C10H11O+
147.1164	26	C11H15+
149.0956	39	C10H13O+
149.1321	9	C11H17+
151.1112	6	C10H15O+
155.0852	4	C12H11+
157.0642	3	C11H9O+
157.1008	29	C12H13+
159.08	10	C11H11O+
159.1163	55	C12H15+
161.1319	8	C12H17+
163.1112	23	C11H15O+
167.0853	4	C13H11+
169.1009	12	C13H13+
171.1164	25	C13H15+
173.0958	6	C12H13O+
173.1319	20	C13H17+
175.1112	21	C12H15O+
175.1479	5	C13H19+
177.1267	7	C12H17O+
181.1006	7	C14H13+
183.1162	28	C14H15+
185.0953	11	C13H13O+
185.132	52	C14H17+
187.111	15	C13H15O+
187.1477	35	C14H19+
189.1268	19	C13H17O+
189.1631	3	C14H21+
192.0932	2	C15H12+
195.1164	13	C15H15+
197.132	16	C15H17+
199.1113	9	C14H15O+
199.1475	27	C15H19+
201.1269	13	C14H17O+
201.163	3	C15H21+
203.1424	9	C14H19O+
205.159	4	C14H21O+
207.1162	11	C16H15+
209.1314	10	C16H17+
211.1476	9	C16H19+
213.1267	8	C15H17O+
213.1633	8	C16H21+
215.1423	10	C15H19O+
217.158	4	C15H21O+
221.1318	15	C17H17+
223.1473	10	C17H19+
225.1266	10	C16H17O+
225.1632	18	C17H21+
227.1429	4	C16H19O+
227.1788	37	C17H23+
229.158	4	C16H21O+
235.1473	13	C18H19+
237.1631	32	C18H21+
239.1427	6	C17H19O+
239.1784	8	C18H23+
243.1733	10	C17H23O+
245.1893	252	C17H25O+
249.1627	12	C19H21+
251.1785	7	C19H23+
253.1589	8	C18H21O+
253.1951	11	C19H25+
255.1742	5	C18H23O+
266.1656	4	C19H22O+
267.1738	13	C19H23O+
267.2106	3	C20H27+
277.1944	45	C21H25+
295.2048	122	C21H27O+
313.2152	999	C21H29O2+
