Mass spectrum: 4,4`-Thiodianiline; LC-ESI-ITFT; MS2; CE: 80%; R=15000; [M+H]+
Name: 4,4`-Thiodianiline
Name: 4-(4-aminophenyl)sulfanylaniline
Formula: C12H12N2S
Exact mass: 216.072119384
SMILES: NC1=CC=C(SC2=CC=C(N)C=C2)C=C1
InChI: InChI=1S/C12H12N2S/c13-9-1-5-11(6-2-9)15-12-7-3-10(14)4-8-12/h1-8H,13-14H2
Instrument: LTQ Orbitrap XL Thermo Scientific
Instrument type: LC-ESI-ITFT
Ms type: MS2
Ion mode: POSITIVE
Ionization: ESI
Fragmentation mode: HCD
Collision energy: 80 % (nominal)
Resolution: 15000
Column name: Kinetex Evo C18 2.6 um 50 x 2.1 mm
Retention time: 2.187 min
Base peak: 217.0796
Precursor m/z: 217.0794
Precursor type: [M+H]+
Precursor intensity: 11636274
m/z	relative intensity	assigned
66.0461	3	C5H6+
76.0305	4	C6H4+
80.0493	140	C5H6N+
93.0571	136	C6H7N+
97.0105	14	C5H5S+
106.9947	2	C6H3S+
115.0538	2	C9H7+
123.0138	3	C6H5NS+
124.0213	999	C6H6NS+
125.029	3	C6H7NS+
128.0619	1	C10H8+
129.0696	15	C10H9+
134.0182	5	C8H6S+
139.0539	138	C11H7+
140.0614	2	C11H8+
143.0724	1	C10H9N+
147.0258	1	C9H7S+
149.0292	1	C8H7NS+
154.0656	1	C11H8N+
156.0806	30	C11H10N+
166.0649	13	C12H8N+
167.0727	129	C12H9N+
168.0805	2	C12H10N+
171.0259	17	C11H7S+
172.0339	11	C11H8S+
173.0416	6	C11H9S+
183.026	123	C12H7S+
183.0915	8	C12H11N2+
184.0338	127	C12H8S+
184.0992	40	C12H12N2+
185.029	1	C11H7NS+
198.0368	7	C12H8NS+
199.0447	314	C12H9NS+
200.0526	61	C12H10NS+
211.0321	37	C12H7N2S+
215.0633	18	C12H11N2S+
216.0712	40	C12H12N2S+
217.0791	8	C12H13N2S+
