Mass spectrum: Efavirenz; LC-ESI-ITFT; MS2; CE: 80%; R=15000; [M+H]+
Name: Efavirenz
Name: 6-chloro-4-(cyclopropylethynyl)-4-(trifluoromethyl)-1,4-dihydro-2H-3,1-benzoxazin-2-one
Name: 6-chloro-4-(2-cyclopropylethynyl)-4-(trifluoromethyl)-1H-3,1-benzoxazin-2-one
Formula: C14H9ClF3NO2
Exact mass: 315.027390868
SMILES: FC(F)(F)C1(OC(=O)NC2=C1C=C(Cl)C=C2)C#CC1CC1
InChI: InChI=1S/C14H9ClF3NO2/c15-9-3-4-11-10(7-9)13(14(16,17)18,21-12(20)19-11)6-5-8-1-2-8/h3-4,7-8H,1-2H2,(H,19,20)
Instrument: LTQ Orbitrap XL Thermo Scientific
Instrument type: LC-ESI-ITFT
Ms type: MS2
Ion mode: POSITIVE
Ionization: ESI
Fragmentation mode: HCD
Collision energy: 80 % (nominal)
Resolution: 15000
Column name: Kinetex Evo C18 2.6 um 50 x 2.1 mm
Retention time: 12.229 min
Base peak: 316.0359
Precursor m/z: 316.0347
Precursor type: [M+H]+
Precursor intensity: 2178012.75
m/z	relative intensity	assigned
53.0386	732	C4H5+
138.0283	147	C5H5F3O+
141.0707	55	C8H10FO+
151.0189	90	C8H4FO2+
162.0112	134	C9H3FO2+
162.0284	25	C7H5F3O+
164.0269	152	C9H5FO2+
165.039	21	C9H5F2N+
165.0583	26	C9H8FNO+
166.0659	210	C9H9FNO+
167.0737	999	C12H9N+
168.0815	885	C12H10N+
169.0332	38	C8H5F2NO+
170.0534	46	C9H8F2O+
172.0564	46	C8H8F2NO+
172.9971	62	C8H4ClF2+
174.0114	129	C10H3FO2+
175.0191	107	C10H4FO2+
177.039	31	C7H6F3NO+
177.0579	35	C13H7N+
182.0175	39	C9H4F2O2+
183.9969	35	C5H5ClF2NO2+
185.0453	74	C9H6F3N+
185.0644	77	C9H9F2NO+
188.0268	331	C11H5FO2+
188.0442	36	C9H7F3O+
189.0393	457	C8H6F3NO+
190.0474	35	C8H7F3NO+
192.0018	157	C10H2F2O2+
195.0487	96	C10H7F2NO+
196.0564	88	C10H8F2NO+
197.0643	208	C10H9F2NO+
198.0531	31	C10H7F3N+
200.0082	44	C9H3F3O2+
201.0348	192	C12H6FO2+
202.0419	185	C12H9ClN+
204.0018	53	C11H2F2O2+
206.0425	21	C8H7F3NO2+
209.0452	70	C11H6F3N+
212.0081	201	C10H3F3O2+
214.0472	54	C13H6F2N+
215.0549	218	C10H8F3NO+
216.0377	27	C13H6F2O+
216.0626	188	C10H9F3NO+
217.0708	22	C10H10F3NO+
222.0533	163	C12H7F3N+
224.0082	632	C11H3F3O2+
232.0143	89	C10H6ClF3N+
232.0333	90	C10H9ClF2NO+
235.0611	32	C13H8F3N+
236.0693	57	C13H9F3N+
237.0159	138	C12H4F3O2+
244.0139	41	C11H6ClF3N+
250.0237	113	C13H5F3O2+
