Mass spectrum: Triphenylphosphate; LC-ESI-ITFT; MS2; CE: 80%; R=15000; [M+H]+
Name: Triphenylphosphate
Name: triphenyl phosphate
Formula: C18H15O4P
Exact mass: 326.07079559
SMILES: O=P(OC1=CC=CC=C1)(OC1=CC=CC=C1)OC1=CC=CC=C1
InChI: InChI=1S/C18H15O4P/c19-23(20-16-10-4-1-5-11-16,21-17-12-6-2-7-13-17)22-18-14-8-3-9-15-18/h1-15H
Instrument: LTQ Orbitrap XL Thermo Scientific
Instrument type: LC-ESI-ITFT
Ms type: MS2
Ion mode: POSITIVE
Ionization: ESI
Fragmentation mode: HCD
Collision energy: 80 % (nominal)
Resolution: 15000
Column name: Kinetex Evo C18 2.6 um 50 x 2.1 mm
Retention time: 12.632 min
Base peak: 327.0793
Precursor m/z: 327.0781
Precursor type: [M+H]+
Precursor intensity: 32609668
m/z	relative intensity	assigned
65.0384	21	C5H5+
77.0385	855	C6H5+
92.0255	3	C6H4O+
93.0334	11	C6H5O+
94.0412	21	C6H6O+
95.0491	234	C6H7O+
98.9841	4	H4O4P+
106.0415	4	C7H6O+
109.0648	2	C7H9O+
115.054	4	C9H7+
127.0542	3	C10H7+
128.0618	3	C10H8+
133.0202	2	C8H6P+
138.9944	22	C6H4O2P+
140.0017	3	C6H5O2P+
141.0698	16	C11H9+
145.0651	3	C10H9O+
151.0543	73	C12H7+
152.062	999	C12H8+
157.0048	13	C6H6O3P+
159.0355	4	C10H8P+
168.0569	330	C12H8O+
169.064	47	C12H9O+
170.0722	10	C12H10O+
175.0154	61	C6H8O4P+
187.0307	46	C11H8OP+
202.0777	21	C16H10+
215.0255	125	C12H8O2P+
226.0779	15	C18H10+
227.0856	42	C18H11+
228.0936	90	C18H12+
233.0362	85	C12H10O3P+
244.0883	4	C18H12O+
247.0523	3	C13H12O3P+
251.0468	47	C12H12O4P+
