Mass spectrum: Prednisone; LC-ESI-ITFT; MS2; CE: 40%; R=15000; [M+H]+
Name: Prednisone
Name: (8S,9S,10R,13S,14S,17R)-17-hydroxy-17-(2-hydroxyacetyl)-10,13-dimethyl-6,7,8,9,12,14,15,16-octahydrocyclopenta[a]phenanthrene-3,11-dione
Formula: C21H26O5
Exact mass: 358.178023932
SMILES: [H][C@@]12CC[C@](O)(C(=O)CO)[C@@]1(C)CC(=O)[C@@]1([H])[C@@]2([H])CCC2=CC(=O)C=C[C@]12C
InChI: InChI=1S/C21H26O5/c1-19-7-5-13(23)9-12(19)3-4-14-15-6-8-21(26,17(25)11-22)20(15,2)10-16(24)18(14)19/h5,7,9,14-15,18,22,26H,3-4,6,8,10-11H2,1-2H3/t14-,15-,18+,19-,20-,21-/m0/s1
Instrument: LTQ Orbitrap XL Thermo Scientific
Instrument type: LC-ESI-ITFT
Ms type: MS2
Ion mode: POSITIVE
Ionization: ESI
Fragmentation mode: HCD
Collision energy: 40 % (nominal)
Resolution: 15000
Column name: Kinetex Evo C18 2.6 um 50 x 2.1 mm
Retention time: 9.457 min
Base peak: 359.1854
Precursor m/z: 359.1853
Precursor type: [M+H]+
Precursor intensity: 19215970
m/z	relative intensity	assigned
93.0696	120	C7H9+
95.0488	85	C6H7O+
95.0853	152	C7H11+
105.0695	53	C8H9+
107.0853	119	C8H11+
109.0645	148	C7H9O+
111.0804	63	C7H11O+
121.0645	203	C8H9O+
123.0802	88	C8H11O+
135.0801	269	C9H11O+
139.0751	84	C8H11O2+
147.0801	999	C10H11O+
159.0801	329	C11H11O+
161.0958	239	C11H13O+
171.08	503	C12H11O+
173.0957	348	C12H13O+
183.081	55	C13H11O+
185.0953	108	C13H13O+
187.0749	151	C12H11O2+
187.1114	221	C13H15O+
195.0805	56	C14H11O+
197.0958	334	C14H13O+
199.1113	266	C14H15O+
209.0955	100	C15H13O+
211.1111	139	C15H15O+
213.1273	124	C15H17O+
221.096	81	C16H13O+
223.1113	157	C16H15O+
225.1271	161	C16H17O+
227.1424	161	C16H19O+
235.1115	99	C17H15O+
237.1268	592	C17H17O+
239.1058	57	C16H15O2+
239.1422	192	C17H19O+
249.1268	134	C18H17O+
251.143	90	C18H19O+
253.1224	165	C17H17O2+
253.1582	127	C18H21O+
255.1372	202	C17H19O2+
261.1268	73	C19H17O+
262.1359	54	C19H18O+
263.1427	227	C19H19O+
264.1507	82	C19H20O+
265.158	414	C19H21O+
267.1374	252	C18H19O2+
277.1575	274	C20H21O+
281.1533	102	C19H21O2+
287.1429	57	C21H19O+
293.1532	82	C20H21O2+
295.1683	182	C20H23O2+
297.1495	56	C19H21O3+
311.1638	45	C20H23O3+
313.1788	128	C20H25O3+
323.1645	112	C21H23O3+
341.1739	57	C21H25O4+
