Mass spectrum: Icaridin; LC-ESI-ITFT; MS2; CE: 80; R=15000; [M+H]+
Name: Icaridin
Name: Butan-2-yl 2-(2-hydroxyethyl)piperidine-1-carboxylate
Formula: C12H23NO3
Exact mass: 229.1678
SMILES: O=C(OC(C)CC)N1C(CCO)CCCC1
InChI: InChI=1S/C12H23NO3/c1-3-10(2)16-12(15)13-8-5-4-6-11(13)7-9-14/h10-11,14H,3-9H2,1-2H3
Instrument: LTQ Orbitrap XL Thermo Scientific
Instrument type: LC-ESI-ITFT
Ms type: MS2
Ion mode: POSITIVE
Ionization: ESI
Fragmentation mode: HCD
Collision energy: 80 (nominal)
Resolution: 15000
Column name: Kinetex Core-Shell C18 2.6 um, 3.0 x 100 mm, Phenomenex
Retention time: 23.925 min
Base peak: 230.1758
Precursor m/z: 230.1751
Precursor type: [M+H]+
m/z	relative intensity	assigned
71.0493	176	C4H7O+
95.0859	748	C7H11+
112.1126	348	C7H14N+
128.0712	237	C6H10NO2+
130.1232	999	C7H16NO+
