Mass spectrum: N-Phenyl-1-naphthylamine; LC-ESI-ITFT; MS2; CE: 80; R=15000; [M+H]+
Name: N-Phenyl-1-naphthylamine
Name: N-Phenylnaphthalen-1-amine
Formula: C16H13N
Exact mass: 219.1048
SMILES: N(C1=CC=CC=C1)C1=CC=CC2=CC=CC=C12
InChI: InChI=1S/C16H13N/c1-2-9-14(10-3-1)17-16-12-6-8-13-7-4-5-11-15(13)16/h1-12,17H
Instrument: LTQ Orbitrap XL Thermo Scientific
Instrument type: LC-ESI-ITFT
Ms type: MS2
Ion mode: POSITIVE
Ionization: ESI
Fragmentation mode: HCD
Collision energy: 80 (nominal)
Resolution: 15000
Column name: Kinetex Core-Shell C18 2.6 um, 3.0 x 100 mm, Phenomenex
Retention time: 26.816 min
Base peak: 220.1126
Precursor m/z: 220.1121
Precursor type: [M+H]+
m/z	relative intensity	assigned
92.0499	68	C6H6N+
93.0577	65	C6H7N+
104.05	1	C7H6N+
115.0547	118	C9H7+
117.0701	1	C9H9+
128.0626	71	C10H8+
142.0658	15	C10H8N+
143.0735	999	C10H9N+
155.0611	26	C10H7N2+
178.0784	7	C14H10+
202.0786	36	C16H10+
203.0865	15	C16H11+
204.0818	13	C15H10N+
204.0944	3	C16H12+
