Mass spectrum: Tetracain; LC-ESI-ITFT; MS2; CE: 50%; R=15000; [M+H]+
Name: Tetracain
Name: Tetracaine
Name: 2-(dimethylamino)ethyl 4-(butylamino)benzoate
Formula: C15H24N2O2
Exact mass: 264.183778008
SMILES: CCCCNC1=CC=C(C=C1)C(=O)OCCN(C)C
InChI: InChI=1S/C15H24N2O2/c1-4-5-10-16-14-8-6-13(7-9-14)15(18)19-12-11-17(2)3/h6-9,16H,4-5,10-12H2,1-3H3
Instrument: LTQ Orbitrap XL Thermo Scientific
Instrument type: LC-ESI-ITFT
Ms type: MS2
Ion mode: POSITIVE
Ionization: ESI
Fragmentation mode: HCD
Collision energy: 50 % (nominal)
Resolution: 15000
Column name: Kinetex Evo C18 2.6 um 50 x 2.1 mm
Retention time: 7.265 min
Base peak: 265.1919
Precursor m/z: 265.1911
Precursor type: [M+H]+
Precursor intensity: 39481968
m/z	relative intensity	assigned
70.065	1	C4H8N+
72.0807	270	C4H10N+
92.0498	1	C6H6N+
120.0444	2	C7H6NO+
148.1124	1	C10H14N+
176.1071	999	C11H14NO+
220.1333	92	C13H18NO2+
