Mass spectrum: Methocarbamol; LC-ESI-ITFT; MS2; CE: 25%; R=15000; [M+H]+
Name: Methocarbamol
Name: [2-hydroxy-3-(2-methoxyphenoxy)propyl] carbamate
Formula: C11H15NO5
Exact mass: 241.0950
SMILES: COC1=C(OCC(O)COC(N)=O)C=CC=C1
InChI: InChI=1S/C11H15NO5/c1-15-9-4-2-3-5-10(9)16-6-8(13)7-17-11(12)14/h2-5,8,13H,6-7H2,1H3,(H2,12,14)
Instrument: LTQ Orbitrap XL Thermo Scientific
Instrument type: LC-ESI-ITFT
Ms type: MS2
Ion mode: POSITIVE
Ionization: ESI
Fragmentation mode: HCD
Collision energy: 25 % (nominal)
Resolution: 15000
Column name: Kinetex Evo C18 2.6 um 50 x 2.1 mm
Retention time: 7.155 min
Base peak: 264.0843
Precursor m/z: 242.1023
Precursor type: [M+H]+
m/z	relative intensity	assigned
118.0498	999	C4H8NO3+
125.0596	211	C7H9O2+
135.0806	79	C9H11O+
151.0751	108	C9H11O2+
163.0753	535	C10H11O2+
