Mass spectrum: Gabapentin; LC-ESI-ITFT; MS2; CE: 90%; R=15000; [M+H]+
Name: Gabapentin
Name: 2-[1-(aminomethyl)cyclohexyl]acetic acid
Formula: C9H17NO2
Exact mass: 171.125928784
SMILES: NCC1(CC(O)=O)CCCCC1
InChI: InChI=1S/C9H17NO2/c10-7-9(6-8(11)12)4-2-1-3-5-9/h1-7,10H2,(H,11,12)
Instrument: LTQ Orbitrap XL Thermo Scientific
Instrument type: LC-ESI-ITFT
Ms type: MS2
Ion mode: POSITIVE
Ionization: ESI
Fragmentation mode: HCD
Collision energy: 90 % (nominal)
Resolution: 15000
Column name: Kinetex Evo C18 2.6 um 50 x 2.1 mm
Retention time: 0.628 min
Base peak: 60.0524
Precursor m/z: 172.1332
Precursor type: [M+H]+
Precursor intensity: 1195074.5
m/z	relative intensity	assigned
55.0177	426	C3H3O+
65.0385	5	C5H5+
67.0541	441	C5H7+
69.0336	3	C4H5O+
69.0698	33	C5H9+
71.0491	12	C4H7O+
72.0443	5	C3H6NO+
73.0285	6	C3H5O2+
77.0386	11	C6H5+
79.0542	16	C6H7+
80.0496	9	C5H6N+
81.0699	73	C6H9+
83.0856	14	C6H11+
91.0544	322	C7H7+
93.07	273	C7H9+
95.0856	999	C7H11+
107.0856	7	C8H11+
109.1013	250	C8H13+
110.0966	61	C7H12N+
112.1122	15	C7H14N+
119.0857	207	C9H11+
126.1279	22	C8H16N+
136.1123	64	C9H14N+
137.0963	183	C9H13O+
154.1228	121	C9H16NO+
