Mass spectrum: Dimethachlor; LC-ESI-ITFT; MS2; CE: 90%; R=15000; [M+H]+
Name: Dimethachlor
Name: 2-chloro-N-(2,6-dimethylphenyl)-N-(2-methoxyethyl)acetamide
Formula: C13H18ClNO2
Exact mass: 255.102606496
SMILES: COCCN(C(=O)CCl)C1=C(C)C=CC=C1C
InChI: InChI=1S/C13H18ClNO2/c1-10-5-4-6-11(2)13(10)15(7-8-17-3)12(16)9-14/h4-6H,7-9H2,1-3H3
Instrument: LTQ Orbitrap XL Thermo Scientific
Instrument type: LC-ESI-ITFT
Ms type: MS2
Ion mode: POSITIVE
Ionization: ESI
Fragmentation mode: HCD
Collision energy: 90 % (nominal)
Resolution: 15000
Column name: Kinetex Evo C18 2.6 um 50 x 2.1 mm
Retention time: 10.310 min
Base peak: 256.1104
Precursor m/z: 256.1099
Precursor type: [M+H]+
Precursor intensity: 32054662
m/z	relative intensity	assigned
76.9787	110	C2H2ClO+
77.0384	57	C6H5+
79.0541	198	C6H7+
91.0541	67	C7H7+
93.0698	17	C7H9+
95.049	11	C6H7O+
103.0541	118	C8H7+
105.0698	667	C8H9+
106.0776	37	C8H10+
107.0728	13	C7H9N+
107.0853	24	C8H11+
116.0619	17	C9H8+
117.0572	37	C8H7N+
118.065	142	C8H8N+
119.0726	7	C8H9N+
119.0854	42	C9H11+
120.0807	69	C8H10N+
121.0646	28	C8H9O+
121.0884	8	C8H11N+
121.1011	13	C9H13+
122.0964	15	C8H12N+
123.0805	6	C8H11O+
129.0696	9	C10H9+
130.065	17	C9H8N+
131.0728	61	C9H9N+
131.0854	40	C10H11+
132.0807	450	C9H10N+
133.0884	209	C9H11N+
134.0963	20	C9H12N+
144.0807	18	C10H10N+
145.089	4	C10H11N+
146.0964	91	C10H12N+
147.0678	6	C9H9NO+
147.1043	13	C10H13N+
148.1119	999	C10H14N+
153.0461	4	C9H10Cl+
160.0757	3	C10H10NO+
174.0912	33	C11H12NO+
198.068	3	C10H13ClNO+
224.0833	42	C12H15ClNO+
