Mass spectrum: Lauryl diethanolamide; LC-ESI-ITFT; MS2; CE: 40%; R=15000; [M+H]+
Name: Lauryl diethanolamide
Name: N,N-bis(2-hydroxyethyl)dodecanamide
Formula: C16H33NO3
Exact mass: 287.246043916
SMILES: CCCCCCCCCCCC(=O)N(CCO)CCO
InChI: InChI=1S/C16H33NO3/c1-2-3-4-5-6-7-8-9-10-11-16(20)17(12-14-18)13-15-19/h18-19H,2-15H2,1H3
Instrument: LTQ Orbitrap XL Thermo Scientific
Instrument type: LC-ESI-ITFT
Ms type: MS2
Ion mode: POSITIVE
Ionization: ESI
Fragmentation mode: HCD
Collision energy: 40 % (nominal)
Resolution: 15000
Column name: Kinetex Evo C18 2.6 um 50 x 2.1 mm
Retention time: 12.827 min
Base peak: 288.2538
Precursor m/z: 288.2533
Precursor type: [M+H]+
Precursor intensity: 29690576
m/z	relative intensity	assigned
67.054	5	C5H7+
69.0697	1	C5H9+
70.0649	78	C4H8N+
71.0853	11	C5H11+
81.0697	6	C6H9+
83.0854	5	C6H11+
85.1011	10	C6H13+
88.0755	793	C4H10NO+
95.0854	28	C7H11+
97.101	3	C7H13+
106.0861	999	C4H12NO2+
109.101	13	C8H13+
123.1167	3	C9H15+
135.0224	3	C11H3+
165.1637	1	C12H21+
227.2003	388	C14H27O2+
270.2425	34	C16H32NO2+
288.253	18	C16H34NO3+
