Mass spectrum: 4-Acetamidoantipyrin; LC-ESI-ITFT; MS2; CE: 80; R=15000; [M+H]+
Name: 4-Acetamidoantipyrin
Name: 4-Acetamidoantipyrine
Name: N-(1,5-Dimethyl-3-oxo-2-phenylpyrazol-4-yl)acetamide
Formula: C13H15N3O2
Exact mass: 245.1164
SMILES: CN1N(C(=O)C(NC(C)=O)=C1C)C1=CC=CC=C1
InChI: InChI=1S/C13H15N3O2/c1-9-12(14-10(2)17)13(18)16(15(9)3)11-7-5-4-6-8-11/h4-8H,1-3H3,(H,14,17)
Instrument: LTQ Orbitrap XL Thermo Scientific
Instrument type: LC-ESI-ITFT
Ms type: MS2
Ion mode: POSITIVE
Ionization: ESI
Fragmentation mode: HCD
Collision energy: 80 (nominal)
Resolution: 15000
Column name: Kinetex Core-Shell C18 2.6 um, 3.0 x 100 mm, Phenomenex
Retention time: 14.778 min
Base peak: 291.1451
Precursor m/z: 246.1237
Precursor type: [M+H]+
m/z	relative intensity	assigned
77.0386	105	C6H5+
83.0604	999	C4H7N2+
85.076	7	C4H9N2+
94.0651	84	C6H8N+
104.0495	538	C7H6N+
105.0449	43	C6H5N2+
145.0761	14	C9H9N2+
146.0601	17	C9H8NO+
159.0919	81	C10H11N2+
172.0632	12	C10H8N2O+
