Mass spectrum: Prochloraz; LC-ESI-ITFT; MS2; CE: 55; R=15000; [M+H]+
Name: Prochloraz
Name: N-Propyl-N-[2-(2,4,6-trichlorophenoxy)ethyl]imidazole-1-carboxamide
Formula: C15H16Cl3N3O2
Exact mass: 375.0308
SMILES: CCCN(CCOC1=C(Cl)C=C(Cl)C=C1Cl)C(=O)N1C=CN=C1
InChI: InChI=1S/C15H16Cl3N3O2/c1-2-4-20(15(22)21-5-3-19-10-21)6-7-23-14-12(17)8-11(16)9-13(14)18/h3,5,8-10H,2,4,6-7H2,1H3
Instrument: LTQ Orbitrap XL Thermo Scientific
Instrument type: LC-ESI-ITFT
Ms type: MS2
Ion mode: POSITIVE
Ionization: ESI
Fragmentation mode: CID
Collision energy: 55 (nominal)
Resolution: 15000
Column name: Kinetex Core-Shell C18 2.6 um, 3.0 x 100 mm, Phenomenex
Retention time: 25.792 min
Base peak: 376.0378
Precursor m/z: 376.0381
Precursor type: [M+H]+
m/z	relative intensity	assigned
180.1132	309	C9H14N3O+
282.0212	999	C11H15Cl3NO+
308.0009	675	C12H13Cl3NO2+
