Mass spectrum: Nicosulfuron; LC-ESI-ITFT; MS2; CE: 70%; R=15000; [M+H]+
Name: Nicosulfuron
Name: 2-[(4,6-dimethoxypyrimidin-2-yl)carbamoylsulfamoyl]-N,N-dimethylpyridine-3-carboxamide
Formula: C15H18N6O6S
Exact mass: 410.100853296
SMILES: COC1=CC(OC)=NC(NC(=O)NS(=O)(=O)C2=NC=CC=C2C(=O)N(C)C)=N1
InChI: InChI=1S/C15H18N6O6S/c1-21(2)13(22)9-6-5-7-16-12(9)28(24,25)20-15(23)19-14-17-10(26-3)8-11(18-14)27-4/h5-8H,1-4H3,(H2,17,18,19,20,23)
Instrument: LTQ Orbitrap XL Thermo Scientific
Instrument type: LC-ESI-ITFT
Ms type: MS2
Ion mode: POSITIVE
Ionization: ESI
Fragmentation mode: HCD
Collision energy: 70 % (nominal)
Resolution: 15000
Column name: Kinetex Evo C18 2.6 um 50 x 2.1 mm
Retention time: 9.224 min
Base peak: 411.1083
Precursor m/z: 411.1081
Precursor type: [M+H]+
Precursor intensity: 3603290
m/z	relative intensity	assigned
57.0446	4	C2H5N2+
68.9971	3	C3HO2+
71.0604	12	C3H7N2+
78.0339	185	C5H4N+
82.0289	10	C4H4NO+
83.024	435	C3H3N2O+
93.0085	3	C4HN2O+
96.0445	10	C5H6NO+
100.0394	64	C4H6NO2+
106.0288	999	C6H4NO+
109.0398	3	C5H5N2O+
110.06	13	C6H8NO+
119.0241	2	C6H3N2O+
124.0506	14	C5H6N3O+
137.0345	5	C6H5N2O2+
139.0503	279	C6H7N2O2+
141.0534	8	C5H7N3O2+
156.0769	106	C6H10N3O2+
157.0609	308	C6H9N2O3+
182.0562	628	C7H8N3O3+
213.0332	10	C8H9N2O3S+
