Mass spectrum: Velvione; LC-ESI-ITFT; MS2; CE: 70%; R=15000; [M+H]+
Name: Velvione
Name: cyclohexadec-5-en-1-one
Formula: C16H28O
Exact mass: 236.214015516
SMILES: O=C1CCCCCCCCCCC=CCCC1
InChI: InChI=1S/C16H28O/c17-16-14-12-10-8-6-4-2-1-3-5-7-9-11-13-15-16/h6,8H,1-5,7,9-15H2
Instrument: LTQ Orbitrap XL Thermo Scientific
Instrument type: LC-ESI-ITFT
Ms type: MS2
Ion mode: POSITIVE
Ionization: ESI
Fragmentation mode: HCD
Collision energy: 70 % (nominal)
Resolution: 15000
Column name: Kinetex Evo C18 2.6 um 50 x 2.1 mm
Retention time: 14.330 min
Base peak: 116.9859
Precursor m/z: 237.2213
Precursor type: [M+H]+
Precursor intensity: 617820.94
m/z	relative intensity	assigned
55.0541	911	C4H7+
57.0698	236	C4H9+
67.0542	727	C5H7+
69.0699	782	C5H9+
79.0544	163	C6H7+
81.07	999	C6H9+
83.0493	90	C5H7O+
83.0856	504	C6H11+
93.07	233	C7H9+
95.0857	971	C7H11+
97.1013	181	C7H13+
107.0856	124	C8H11+
109.1014	258	C8H13+
121.1015	67	C9H13+
123.1171	56	C9H15+
180.0926	59	C14H12+
193.1016	184	C15H13+
207.1172	142	C16H15+
208.1242	70	C16H16+
