Mass spectrum: Mefenamic acid; LC-ESI-ITFT; MS2; CE: 55; R=15000; [M-H]-
Name: Mefenamic acid
Name: 2-(2,3-Dimethylanilino)benzoic acid
Formula: C15H15NO2
Exact mass: 241.1103
SMILES: CC1=C(C)C(NC2=CC=CC=C2C(O)=O)=CC=C1
InChI: InChI=1S/C15H15NO2/c1-10-6-5-9-13(11(10)2)16-14-8-4-3-7-12(14)15(17)18/h3-9,16H,1-2H3,(H,17,18)
Instrument: LTQ Orbitrap XL Thermo Scientific
Instrument type: LC-ESI-ITFT
Ms type: MS2
Ion mode: NEGATIVE
Ionization: ESI
Fragmentation mode: HCD
Collision energy: 55 (nominal)
Resolution: 15000
Column name: Kinetex Core-Shell C18 2.6 um, 3.0 x 100 mm, Phenomenex
Retention time: 26.987 min
Base peak: 240.1032
Precursor m/z: 240.103
Precursor type: [M-H]-
m/z	relative intensity	assigned
196.1133	194	C14H14N-
240.1029	999	C15H14NO2-
