Mass spectrum: Telmisartan; LC-ESI-ITFT; MS2; CE: 60%; R=15000; [M+H]+
Name: Telmisartan
Name: 2-[4-[[4-methyl-6-(1-methylbenzimidazol-2-yl)-2-propylbenzimidazol-1-yl]methyl]phenyl]benzoic acid
Formula: C33H30N4O2
Exact mass: 514.2368762
SMILES: CCCC1=NC2=C(C)C=C(C=C2N1CC1=CC=C(C=C1)C1=CC=CC=C1C(O)=O)C1=NC2=CC=CC=C2N1C
InChI: InChI=1S/C33H30N4O2/c1-4-9-30-35-31-21(2)18-24(32-34-27-12-7-8-13-28(27)36(32)3)19-29(31)37(30)20-22-14-16-23(17-15-22)25-10-5-6-11-26(25)33(38)39/h5-8,10-19H,4,9,20H2,1-3H3,(H,38,39)
Instrument: LTQ Orbitrap XL Thermo Scientific
Instrument type: LC-ESI-ITFT
Ms type: MS2
Ion mode: POSITIVE
Ionization: ESI
Fragmentation mode: HCD
Collision energy: 60 % (nominal)
Resolution: 15000
Column name: Kinetex Evo C18 2.6 um 50 x 2.1 mm
Retention time: 10.396 min
Base peak: 301.075
Precursor m/z: 515.2442
Precursor type: [M+H]+
Precursor intensity: 3278724.25
m/z	relative intensity	assigned
165.0704	4	C13H9+
167.0864	5	C13H11+
193.0656	113	C14H9O+
211.0762	146	C14H11O2+
262.1226	12	C18H16NO+
276.138	999	C19H18NO+
289.1457	193	C20H19NO+
303.1614	97	C19H19N4+
305.1771	68	C21H23NO+
317.1771	33	C20H21N4+
467.1854	10	C31H23N4O+
497.2335	33	C33H29N4O+
