Mass spectrum: Propyphenazon; LC-ESI-ITFT; MS2; CE: 55; R=15000; [M+H]+
Name: Propyphenazon
Name: Propyphenazone
Name: 1,5-dimethyl-2-phenyl-4-propan-2-ylpyrazol-3-one
Formula: C14H18N2O
Exact mass: 230.1419
SMILES: CC(C)C1=C(C)N(C)N(C1=O)C1=CC=CC=C1
InChI: InChI=1S/C14H18N2O/c1-10(2)13-11(3)15(4)16(14(13)17)12-8-6-5-7-9-12/h5-10H,1-4H3
Instrument: LTQ Orbitrap XL Thermo Scientific
Instrument type: LC-ESI-ITFT
Ms type: MS2
Ion mode: POSITIVE
Ionization: ESI
Fragmentation mode: CID
Collision energy: 55 (nominal)
Resolution: 15000
Column name: Kinetex Core-Shell C18 2.6 um, 3.0 x 100 mm, Phenomenex
Retention time: 22.250 min
Base peak: 231.1492
Precursor m/z: 231.1492
Precursor type: [M+H]+
m/z	relative intensity	assigned
110.0964	9	C7H12N+
112.0757	9	C6H10NO+
112.1122	23	C7H14N+
118.065	4	C8H8N+
120.0809	13	C8H10N+
130.0652	2	C9H8N+
131.0732	7	C9H9N+
132.0811	5	C9H10N+
134.0966	2	C9H12N+
138.0916	11	C8H12NO+
142.065	1	C10H8N+
144.0809	15	C10H10N+
146.084	15	C9H10N2+
146.0966	15	C10H12N+
147.0917	2	C9H11N2+
148.0762	3	C9H10NO+
148.1119	2	C10H14N+
160.0755	2	C10H10NO+
160.0997	23	C10H12N2+
161.1075	16	C10H13N2+
172.0759	4	C11H10NO+
172.1123	27	C12H14N+
174.0788	3	C10H10N2O+
188.0944	10	C11H12N2O+
189.1024	999	C11H13N2O+
201.1025	102	C12H13N2O+
203.1546	21	C13H19N2+
215.1185	3	C13H15N2O+
216.1259	118	C13H16N2O+
