Mass spectrum: Warfarin; LC-ESI-ITFT; MS2; CE: 90%; R=15000; [M+H]+
Name: Warfarin
Name: 4-hydroxy-3-(3-oxo-1-phenylbutyl)chromen-2-one
Formula: C19H16O4
Exact mass: 308.104858992
SMILES: CC(=O)CC(C1=CC=CC=C1)C1=C(O)C2=CC=CC=C2OC1=O
InChI: InChI=1S/C19H16O4/c1-12(20)11-15(13-7-3-2-4-8-13)17-18(21)14-9-5-6-10-16(14)23-19(17)22/h2-10,15,21H,11H2,1H3
Instrument: LTQ Orbitrap XL Thermo Scientific
Instrument type: LC-ESI-ITFT
Ms type: MS2
Ion mode: POSITIVE
Ionization: ESI
Fragmentation mode: HCD
Collision energy: 90 % (nominal)
Resolution: 15000
Column name: Kinetex Evo C18 2.6 um 50 x 2.1 mm
Retention time: 11.253 min
Base peak: 309.1127
Precursor m/z: 309.1121
Precursor type: [M+H]+
Precursor intensity: 39873476
m/z	relative intensity	assigned
65.0384	84	C5H5+
68.9969	30	C3HO2+
77.0385	166	C6H5+
79.0542	10	C6H7+
89.0386	11	C7H5+
91.0542	82	C7H7+
93.0334	110	C6H5O+
95.0491	119	C6H7O+
102.0464	10	C8H6+
103.0542	169	C8H7+
105.0334	19	C7H5O+
107.0489	7	C7H7O+
111.0439	21	C6H7O2+
115.054	7	C9H7+
119.0491	14	C8H7O+
121.0283	999	C7H5O2+
128.062	29	C10H8+
129.0334	29	C9H5O+
129.0698	52	C10H9+
130.0414	15	C9H6O+
131.049	90	C9H7O+
139.0387	14	C7H7O3+
141.0702	4	C11H9+
145.0284	22	C9H5O2+
147.0802	9	C10H11O+
152.0619	44	C12H8+
153.0697	30	C12H9+
154.0778	10	C12H10+
155.0854	267	C12H11+
157.0283	35	C10H5O2+
163.0389	323	C9H7O3+
165.0698	71	C13H9+
166.0776	16	C13H10+
167.0855	106	C13H11+
173.0232	76	C10H5O3+
175.039	5	C10H7O3+
177.0697	21	C14H9+
178.0776	108	C14H10+
179.0855	10	C14H11+
181.0646	8	C13H9O+
183.0804	58	C13H11O+
189.0548	6	C11H9O3+
191.0337	110	C10H7O4+
195.0804	10	C14H11O+
205.0648	55	C15H9O+
223.0752	72	C15H11O2+
233.0597	27	C16H9O2+
249.0549	8	C16H9O3+
251.07	22	C16H11O3+
