Mass spectrum: Amoxicillin; LC-ESI-ITFT; MS2; CE: 80%; R=15000; [M+H]+
Name: Amoxicillin
Name: (2S,5R,6R)-6-[[(2R)-2-amino-2-(4-hydroxyphenyl)acetyl]amino]-3,3-dimethyl-7-oxo-4-thia-1-azabicyclo[3.2.0]heptane-2-carboxylic acid
Formula: C16H19N3O5S
Exact mass: 365.104541708
SMILES: CC1(C)S[C@@H]2[C@H](NC(=O)[C@H](N)C3=CC=C(O)C=C3)C(=O)N2[C@H]1C(O)=O
InChI: InChI=1S/C16H19N3O5S/c1-16(2)11(15(23)24)19-13(22)10(14(19)25-16)18-12(21)9(17)7-3-5-8(20)6-4-7/h3-6,9-11,14,20H,17H2,1-2H3,(H,18,21)(H,23,24)/t9-,10-,11+,14-/m1/s1
Instrument: LTQ Orbitrap XL Thermo Scientific
Instrument type: LC-ESI-ITFT
Ms type: MS2
Ion mode: POSITIVE
Ionization: ESI
Fragmentation mode: HCD
Collision energy: 80 % (nominal)
Resolution: 15000
Column name: Kinetex Evo C18 2.6 um 50 x 2.1 mm
Retention time: 5.916 min
Base peak: 116.9863
Precursor m/z: 366.1118
Precursor type: [M+H]+
Precursor intensity: 271467.47
m/z	relative intensity	assigned
70.0654	29	C4H8N+
85.04	91	C3H5N2O+
87.0266	168	C4H7S+
113.035	33	C4H5N2O2+
114.0376	999	C5H8NS+
160.0434	77	C6H10NO2S+
