Mass spectrum: Azinphos methyl; LC-ESI-ITFT; MS2; CE: 80%; R=15000; [M+H]+
Name: Azinphos methyl
Name: Azinphos-methyl
Name: 3-(dimethoxyphosphinothioylsulfanylmethyl)-1,2,3-benzotriazin-4-one
Formula: C10H12N3O3PS2
Exact mass: 317.005769874
SMILES: COP(=S)(OC)SCN1N=NC2=CC=CC=C2C1=O
InChI: InChI=1S/C10H12N3O3PS2/c1-15-17(18,16-2)19-7-13-10(14)8-5-3-4-6-9(8)11-12-13/h3-6H,7H2,1-2H3
Instrument: LTQ Orbitrap XL Thermo Scientific
Instrument type: LC-ESI-ITFT
Ms type: MS2
Ion mode: POSITIVE
Ionization: ESI
Fragmentation mode: HCD
Collision energy: 80 % (nominal)
Resolution: 15000
Column name: Kinetex Evo C18 2.6 um 50 x 2.1 mm
Retention time: 10.747 min
Base peak: 339.9962
Precursor m/z: 318.013
Precursor type: [M+H]+
Precursor intensity: 3320069.75
m/z	relative intensity	assigned
62.0188	73	C2H6S+
77.0389	583	C2H8NP+
78.9947	999	CH4O2P+
93.0103	71	C2H6O2P+
95.0497	102	C2H10NOP+
104.05	241	CH12O3S+
105.0339	208	C3H8NOP+
105.0452	524	H11NO3S+
124.9826	922	C2H6O2PS+
130.0404	187	CH10N2O3S+
132.0448	75	C4H9N2OP+
142.9932	531	C2H8O3PS+
151.9935	151	C3H7NO2PS+
167.0164	54	C4H10NO2PS+
167.9709	64	C3H7NOPS2+
