Mass spectrum: Dimethoate; LC-ESI-ITFT; MS2; CE: 10%; R=15000; [M+H]+
Name: Dimethoate
Name: 2-dimethoxyphosphinothioylsulfanyl-N-methylacetamide
Formula: C5H12NO3PS2
Exact mass: 228.999621874
SMILES: CNC(=O)CSP(=S)(OC)OC
InChI: InChI=1S/C5H12NO3PS2/c1-6-5(7)4-12-10(11,8-2)9-3/h4H2,1-3H3,(H,6,7)
Instrument: LTQ Orbitrap XL Thermo Scientific
Instrument type: LC-ESI-ITFT
Ms type: MS2
Ion mode: POSITIVE
Ionization: ESI
Fragmentation mode: HCD
Collision energy: 10 % (nominal)
Resolution: 15000
Column name: Kinetex Evo C18 2.6 um 50 x 2.1 mm
Retention time: 5.621 min
Base peak: 230.0075
Precursor m/z: 230.0069
Precursor type: [M+H]+
Precursor intensity: 10259958
m/z	relative intensity	assigned
88.0215	119	C3H6NS+
124.982	43	C2H6O2PS+
142.9927	13	C2H8O3PS+
156.954	7	C2H6O2PS2+
170.9698	277	C3H8O2PS2+
197.9808	23	C4H9NO2PS2+
198.9646	999	C4H8O3PS2+
230.0067	573	C5H13NO3PS2+
