Mass spectrum: Anastrozole; LC-ESI-ITFT; MS2; CE: 70%; R=15000; [M+H]+
Name: Anastrozole
Name: 2-[3-(2-cyanopropan-2-yl)-5-(1,2,4-triazol-1-ylmethyl)phenyl]-2-methylpropanenitrile
Formula: C17H19N5
Exact mass: 293.164045608
SMILES: CC(C)(C#N)C1=CC(=CC(CN2C=NC=N2)=C1)C(C)(C)C#N
InChI: InChI=1S/C17H19N5/c1-16(2,9-18)14-5-13(8-22-12-20-11-21-22)6-15(7-14)17(3,4)10-19/h5-7,11-12H,8H2,1-4H3
Instrument: LTQ Orbitrap XL Thermo Scientific
Instrument type: LC-ESI-ITFT
Ms type: MS2
Ion mode: POSITIVE
Ionization: ESI
Fragmentation mode: HCD
Collision energy: 70 % (nominal)
Resolution: 15000
Column name: Kinetex Evo C18 2.6 um 50 x 2.1 mm
Retention time: 9.081 min
Base peak: 294.1724
Precursor m/z: 294.1713
Precursor type: [M+H]+
Precursor intensity: 37115860
m/z	relative intensity	assigned
91.0542	3	C7H7+
115.0543	7	C9H7+
116.0622	1	C9H8+
129.0699	14	C10H9+
130.0649	3	C9H8N+
130.0778	57	C10H10+
131.0855	24	C10H11+
142.0651	49	C10H8N+
143.0731	3	C10H9N+
143.0855	6	C11H11+
156.0808	12	C11H10N+
156.0931	4	C12H12+
157.0887	64	C11H11N+
158.0966	9	C11H12N+
158.1093	1	C12H14+
168.081	15	C12H10N+
170.0964	8	C12H12N+
171.1171	10	C13H15+
182.0966	1	C13H12N+
183.1045	14	C13H13N+
195.0918	33	C13H11N2+
198.1279	38	C14H16N+
209.1074	45	C14H13N2+
210.1153	226	C14H14N2+
225.1387	999	C15H17N2+
