Mass spectrum: Methyldesphenylchloridazon; LC-ESI-ITFT; MS2; CE: 90%; R=15000; [M+H]+
Name: Methyldesphenylchloridazon
Name: 5-Amino-4-chloro-2-methyl-3(2H)-pyridazinone
Name: 5-amino-4-chloro-2-methylpyridazin-3-one
Formula: C5H6ClN3O
Exact mass: 159.019939492
SMILES: CN1N=CC(N)=C(Cl)C1=O
InChI: InChI=1S/C5H6ClN3O/c1-9-5(10)4(6)3(7)2-8-9/h2H,7H2,1H3
Instrument: LTQ Orbitrap XL Thermo Scientific
Instrument type: LC-ESI-ITFT
Ms type: MS2
Ion mode: POSITIVE
Ionization: ESI
Fragmentation mode: HCD
Collision energy: 90 % (nominal)
Resolution: 15000
Column name: Kinetex Evo C18 2.6 um 50 x 2.1 mm
Retention time: 0.964 min
Base peak: 160.0279
Precursor m/z: 160.0272
Precursor type: [M+H]+
Precursor intensity: 7875539.5
m/z	relative intensity	assigned
51.0228	2	C4H3+
53.0258	2	C3H3N+
53.0384	1	C4H5+
54.0337	8	C3H4N+
55.0178	2	C3H3O+
55.0289	19	C2H3N2+
57.0446	7	C2H5N2+
58.0286	6	C2H4NO+
63.9948	5	CH3ClN+
67.029	13	C3H3N2+
68.013	3	C3H2NO+
68.0494	32	C4H6N+
69.0447	48	C3H5N2+
69.0572	2	C4H7N+
70.0525	2	C3H6N2+
72.9839	1	C3H2Cl+
75.9949	62	C2H3ClN+
78.0106	7	C2H5ClN+
81.0448	6	C4H5N2+
83.0367	1	C4H5NO+
83.0606	2	C4H7N2+
84.0558	2	C3H6N3+
85.9919	7	C4H3Cl+
86.9997	16	C4H4Cl+
87.995	329	C3H3ClN+
89.0029	1	C3H4ClN+
90.0106	7	C3H5ClN+
96.0446	9	C5H6NO+
96.0558	2	C4H6N3+
97.0397	6	C4H5N2O+
97.0524	2	C5H7NO+
97.0636	10	C4H7N3+
99.9713	4	C4HClO+
100.9902	21	C3H2ClN2+
101.9743	10	C3HClNO+
102.0107	2	C4H5ClN+
103.0059	4	C3H4ClN2+
103.0185	8	C4H6ClN+
103.9899	25	C3H3ClNO+
105.0214	2	C3H6ClN2+
115.0059	8	C4H4ClN2+
115.9899	28	C4H3ClNO+
116.9978	273	C4H4ClNO+
124.0507	37	C5H6N3O+
125.0585	7	C5H7N3O+
128.9851	14	C4H2ClN2O+
130.0056	173	C5H5ClNO+
131.0009	22	C4H4ClN2O+
131.0134	45	C5H6ClNO+
132.0086	13	C4H5ClN2O+
133.0164	5	C4H6ClN2O+
143.001	1	C5H4ClN2O+
145.004	99	C4H4ClN3O+
158.012	8	C5H5ClN3O+
160.0274	999	C5H7ClN3O+
