Mass spectrum: Caffeine; LC-ESI-ITFT; MS2; CE: 55; R=15000; [M+H]+
Name: Caffeine
Name: 1,3,7-Trimethylpurine-2,6-dione
Formula: C8H10N4O2
Exact mass: 194.0804
SMILES: CN1C=NC2=C1C(=O)N(C)C(=O)N2C
InChI: InChI=1S/C8H10N4O2/c1-10-4-9-6-5(10)7(13)12(3)8(14)11(6)2/h4H,1-3H3
Instrument: LTQ Orbitrap XL Thermo Scientific
Instrument type: LC-ESI-ITFT
Ms type: MS2
Ion mode: POSITIVE
Ionization: ESI
Fragmentation mode: HCD
Collision energy: 55 (nominal)
Resolution: 15000
Column name: Kinetex Core-Shell C18 2.6 um, 3.0 x 100 mm, Phenomenex
Retention time: 15.780 min
Base peak: 163.1329
Precursor m/z: 195.0877
Precursor type: [M+H]+
m/z	relative intensity	assigned
83.0604	14	C4H7N2+
109.04	5	C5H5N2O+
110.0714	78	C5H8N3+
111.0554	4	C5H7N2O+
123.0424	5	C5H5N3O+
138.0663	999	C6H8N3O+
151.0979	3	C7H11N4+
195.0878	609	C8H11N4O2+
