Mass spectrum: Progesterone; LC-ESI-ITFT; MS2; CE: 20%; R=15000; [M+H]+
Name: Progesterone
Name: (8S,9S,10R,13S,14S,17S)-17-acetyl-10,13-dimethyl-1,2,6,7,8,9,11,12,14,15,16,17-dodecahydrocyclopenta[a]phenanthren-3-one
Formula: C21H30O2
Exact mass: 314.2245802
SMILES: CC(=O)[C@H]1CC[C@H]2[C@@H]3CCC4=CC(=O)CC[C@]4(C)[C@H]3CC[C@]12C
InChI: InChI=1S/C21H30O2/c1-13(22)17-6-7-18-16-5-4-14-12-15(23)8-10-20(14,2)19(16)9-11-21(17,18)3/h12,16-19H,4-11H2,1-3H3/t16-,17+,18-,19-,20-,21+/m0/s1
Instrument: LTQ Orbitrap XL Thermo Scientific
Instrument type: LC-ESI-ITFT
Ms type: MS2
Ion mode: POSITIVE
Ionization: ESI
Fragmentation mode: HCD
Collision energy: 20 % (nominal)
Resolution: 15000
Column name: Kinetex Evo C18 2.6 um 50 x 2.1 mm
Retention time: 12.363 min
Base peak: 315.2316
Precursor m/z: 315.2319
Precursor type: [M+H]+
Precursor intensity: 25864140
m/z	relative intensity	assigned
97.0644	70	C6H9O+
109.0644	32	C7H9O+
123.08	2	C8H11O+
201.1267	1	C14H17O+
233.1899	2	C16H25O+
241.1591	2	C17H21O+
273.2211	2	C19H29O+
279.2099	4	C21H27+
297.2203	26	C21H29O+
315.2307	999	C21H31O2+
