Mass spectrum: Progesterone; LC-ESI-ITFT; MS2; CE: 60%; R=15000; [M+H]+
Name: Progesterone
Name: (8S,9S,10R,13S,14S,17S)-17-acetyl-10,13-dimethyl-1,2,6,7,8,9,11,12,14,15,16,17-dodecahydrocyclopenta[a]phenanthren-3-one
Formula: C21H30O2
Exact mass: 314.2245802
SMILES: CC(=O)[C@H]1CC[C@H]2[C@@H]3CCC4=CC(=O)CC[C@]4(C)[C@H]3CC[C@]12C
InChI: InChI=1S/C21H30O2/c1-13(22)17-6-7-18-16-5-4-14-12-15(23)8-10-20(14,2)19(16)9-11-21(17,18)3/h12,16-19H,4-11H2,1-3H3/t16-,17+,18-,19-,20-,21+/m0/s1
Instrument: LTQ Orbitrap XL Thermo Scientific
Instrument type: LC-ESI-ITFT
Ms type: MS2
Ion mode: POSITIVE
Ionization: ESI
Fragmentation mode: HCD
Collision energy: 60 % (nominal)
Resolution: 15000
Column name: Kinetex Evo C18 2.6 um 50 x 2.1 mm
Retention time: 12.394 min
Base peak: 315.232
Precursor m/z: 315.2319
Precursor type: [M+H]+
Precursor intensity: 18422266
m/z	relative intensity	assigned
67.054	9	C5H7+
69.0697	4	C5H9+
79.0541	21	C6H7+
81.0697	39	C6H9+
83.049	30	C5H7O+
85.0646	19	C5H9O+
91.0541	10	C7H7+
93.0698	27	C7H9+
95.0854	49	C7H11+
97.0647	956	C6H9O+
105.0697	27	C8H9+
107.049	3	C7H7O+
107.0854	30	C8H11+
109.0646	999	C7H9O+
111.0802	6	C7H11O+
117.0699	5	C9H9+
119.0853	33	C9H11+
121.0647	10	C8H9O+
121.101	32	C9H13+
123.0802	114	C8H11O+
131.0854	24	C10H11+
133.101	29	C10H13+
135.1167	14	C10H15+
137.0959	15	C9H13O+
137.1318	2	C10H17+
143.0851	8	C11H11+
145.101	32	C11H13+
147.1166	32	C11H15+
149.0959	7	C10H13O+
149.1321	9	C11H17+
151.1118	2	C10H15O+
157.101	12	C12H13+
159.1166	34	C12H15+
161.096	4	C11H13O+
161.1322	18	C12H17+
163.1116	16	C11H15O+
163.1477	3	C12H19+
169.1012	3	C13H13+
171.1165	17	C13H15+
173.1323	24	C13H17+
175.111	3	C12H15O+
175.1476	9	C13H19+
177.127	13	C12H17O+
181.1012	2	C14H13+
183.1164	6	C14H15+
185.1324	9	C14H17+
187.1476	12	C14H19+
189.127	4	C13H17O+
189.1634	2	C14H21+
197.1323	3	C15H17+
199.1481	6	C15H19+
201.1637	6	C15H21+
209.133	2	C16H17+
213.1635	10	C16H21+
215.1799	5	C16H23+
223.1478	4	C17H19+
227.1786	4	C17H23+
237.164	2	C18H21+
239.1794	8	C18H23+
253.1948	3	C19H25+
255.211	6	C19H27+
279.2102	3	C21H27+
297.2204	3	C21H29O+
