Mass spectrum: Nitrendipin; LC-ESI-ITFT; MS2; CE: 80%; R=15000; [M+H]+
Name: Nitrendipin
Name: Nitrendipine
Name: 5-O-ethyl 3-O-methyl 2,6-dimethyl-4-(3-nitrophenyl)-1,4-dihydropyridine-3,5-dicarboxylate
Formula: C18H20N2O6
Exact mass: 360.13213636
SMILES: CCOC(=O)C1=C(C)NC(C)=C(C1C1=CC=CC(=C1)[N+]([O-])=O)C(=O)OC
InChI: InChI=1S/C18H20N2O6/c1-5-26-18(22)15-11(3)19-10(2)14(17(21)25-4)16(15)12-7-6-8-13(9-12)20(23)24/h6-9,16,19H,5H2,1-4H3
Instrument: LTQ Orbitrap XL Thermo Scientific
Instrument type: LC-ESI-ITFT
Ms type: MS2
Ion mode: POSITIVE
Ionization: ESI
Fragmentation mode: HCD
Collision energy: 80 % (nominal)
Resolution: 15000
Column name: Kinetex Evo C18 2.6 um 50 x 2.1 mm
Retention time: 11.618 min
Base peak: 361.1392
Precursor m/z: 361.1394
Precursor type: [M+H]+
Precursor intensity: 7123431.5
m/z	relative intensity	assigned
67.0178	237	C4H3O+
84.0444	238	C4H6NO+
85.0285	298	C4H5O2+
99.0441	564	C5H7O2+
106.0651	252	C7H8N+
115.0545	118	C9H7+
118.0412	73	C8H6O+
128.0621	292	C10H8+
134.0601	424	C8H8NO+
139.0541	164	C11H7+
140.0621	384	C11H8+
140.0705	112	C7H10NO2+
141.0696	196	C11H9+
142.0415	76	C10H6O+
152.0619	94	C12H8+
152.0713	81	C8H10NO2+
153.0699	174	C12H9+
154.0413	178	C11H6O+
154.0655	119	C11H8N+
155.0487	198	C11H7O+
155.0606	79	C10H7N2+
165.0697	152	C13H9+
166.0648	111	C12H8N+
166.0863	587	C9H12NO2+
167.0732	253	C12H9N+
168.0572	209	C12H8O+
168.0809	239	C12H10N+
169.0888	69	C12H11N+
180.0808	935	C13H10N+
181.0885	595	C13H11N+
182.0965	540	C13H12N+
183.0681	94	C12H9NO+
183.1047	154	C13H13N+
186.055	120	C11H8NO2+
194.0605	84	C13H8NO+
195.0679	193	C13H9NO+
196.0753	187	C13H10NO+
197.0837	103	C13H11NO+
200.0343	95	C11H6NO3+
208.0757	384	C14H10NO+
209.0835	999	C14H11NO+
210.0913	414	C14H12NO+
211.0989	93	C14H13NO+
226.0862	99	C14H12NO2+
227.0815	92	C13H11N2O2+
227.0944	79	C14H13NO2+
