Mass spectrum: Phenazone / antipyrine; LC-ESI-ITFT; MS2; CE: 55; R=15000; [M+Na]+
Name: Phenazone / antipyrine
Name: 1,5-Dimethyl-2-phenylpyrazol-3-one
Formula: C11H12N2O
Exact mass: 188.0950
SMILES: CN1N(C(=O)C=C1C)C1=CC=CC=C1
InChI: InChI=1S/C11H12N2O/c1-9-8-11(14)13(12(9)2)10-6-4-3-5-7-10/h3-8H,1-2H3
Instrument: LTQ Orbitrap XL Thermo Scientific
Instrument type: LC-ESI-ITFT
Ms type: MS2
Ion mode: POSITIVE
Ionization: ESI
Fragmentation mode: CID
Collision energy: 55 (nominal)
Resolution: 15000
Column name: Kinetex Core-Shell C18 2.6 um, 3.0 x 100 mm, Phenomenex
Retention time: 17.107 min
Base peak: 268.191
Precursor m/z: 211.0842
Precursor type: [M+Na]+
m/z	relative intensity	assigned
142.0611	999	C5H8N3O2+
155.0472	603	C9H8NaO+
183.0876	239	C7H11N4O2+
