Mass spectrum: 2-Hydroxydesethylterbuthylazine; LC-ESI-ITFT; MS2; CE: 60%; R=15000; [M+H]+
Name: 2-Hydroxydesethylterbuthylazine
Name: CID 6455361
Name: 2-amino-6-(tert-butylamino)-1H-1,3,5-triazin-4-one
Formula: C7H13N5O
Exact mass: 183.112010036
SMILES: CC(C)(C)NC1=NC(N)=NC(O)=N1
InChI: InChI=1S/C7H13N5O/c1-7(2,3)12-5-9-4(8)10-6(13)11-5/h1-3H3,(H4,8,9,10,11,12,13)
Instrument: LTQ Orbitrap XL Thermo Scientific
Instrument type: LC-ESI-ITFT
Ms type: MS2
Ion mode: POSITIVE
Ionization: ESI
Fragmentation mode: HCD
Collision energy: 60 % (nominal)
Resolution: 15000
Column name: Kinetex Evo C18 2.6 um 50 x 2.1 mm
Retention time: 0.769 min
Base peak: 184.12
Precursor m/z: 184.1193
Precursor type: [M+H]+
Precursor intensity: 12507800
m/z	relative intensity	assigned
57.0699	49	C4H9+
85.0513	14	C2H5N4+
128.0573	999	C3H6N5O+
184.1198	6	C7H14N5O+
