Mass spectrum: PHIP; APCI-ITFT; MS2; CE: 35%; R=30000; [M-H]-
Name: PHIP
Name: 1-methyl-6-phenylimidazo[4,5-b]pyridin-2-amine
Formula: C13H12N4
Exact mass: 224.1062
SMILES: Cn1c2c(ncc(c2)c2ccccc2)nc1N
InChI: InChI=1S/C13H12N4/c1-17-11-7-10(9-5-3-2-4-6-9)8-15-12(11)16-13(17)14/h2-8H,1H3,(H2,14,15,16)
Instrument: LTQ Orbitrap XL Thermo Scientific
Instrument type: APCI-ITFT
Ms type: MS2
Ion mode: NEGATIVE
Ionization: APCI
Fragmentation mode: CID
Collision energy: 35 % (nominal)
Resolution: 30000
Column name: N/A
Retention time: N/A min
Base peak: 223.0989
Precursor m/z: 223.0989
Precursor type: [M-H]-
m/z	relative intensity	assigned
117.0333	8	C6H3N3-
128.0629	9	C10H8-
208.075	999	C12H8N4-
