Mass spectrum: 1-nitropyrene; APCI-ITFT; MS2; CE: 35%; R=30000; [M+H]+
Name: 1-nitropyrene
Formula: C16H9NO2
Exact mass: 247.0633
SMILES: [O-][N+](=O)c4ccc2ccc1cccc3c1c2c4cc3
InChI: InChI=1S/C16H9NO2/c18-17(19)14-9-7-12-5-4-10-2-1-3-11-6-8-13(14)16(12)15(10)11/h1-9H
Instrument: LTQ Orbitrap XL Thermo Scientific
Instrument type: APCI-ITFT
Ms type: MS2
Ion mode: POSITIVE
Ionization: APCI
Fragmentation mode: CID
Collision energy: 35 % (nominal)
Resolution: 30000
Column name: N/A
Retention time: N/A min
Base peak: 248.0706
Precursor m/z: 248.0706
Precursor type: [M+H]+
m/z	relative intensity	assigned
190.0783	1	C15H10+
200.0612	1	C16H8+
201.0696	7	C16H9+
202.0781	156	C16H10+
217.0653	2	C16H9O+
218.073	33	C16H10O+
231.068	999	C16H9NO+
