Mass spectrum: Cortisone; LC-ESI-ITFT; MS2; CE: 40%; R=15000; [M+H]+
Name: Cortisone
Name: (8S,9S,10R,13S,14S,17R)-17-hydroxy-17-(2-hydroxyacetyl)-10,13-dimethyl-1,2,6,7,8,9,12,14,15,16-decahydrocyclopenta[a]phenanthrene-3,11-dione
Formula: C21H28O5
Exact mass: 360.193673996
SMILES: C[C@]12CC(=O)[C@H]3[C@@H](CCC4=CC(=O)CC[C@]34C)[C@@H]1CC[C@]2(O)C(=O)CO
InChI: InChI=1S/C21H28O5/c1-19-7-5-13(23)9-12(19)3-4-14-15-6-8-21(26,17(25)11-22)20(15,2)10-16(24)18(14)19/h9,14-15,18,22,26H,3-8,10-11H2,1-2H3/t14-,15-,18+,19-,20-,21-/m0/s1
Instrument: LTQ Orbitrap XL Thermo Scientific
Instrument type: LC-ESI-ITFT
Ms type: MS2
Ion mode: POSITIVE
Ionization: ESI
Fragmentation mode: HCD
Collision energy: 40 % (nominal)
Resolution: 15000
Column name: Kinetex Evo C18 2.6 um 50 x 2.1 mm
Retention time: 9.636 min
Base peak: 361.2009
Precursor m/z: 361.201
Precursor type: [M+H]+
Precursor intensity: 9268243
m/z	relative intensity	assigned
69.0696	3	C5H9+
79.054	9	C6H7+
81.0696	25	C6H9+
83.0488	9	C5H7O+
91.0541	4	C7H7+
93.0697	46	C7H9+
95.0853	17	C7H11+
97.0646	38	C6H9O+
105.0696	69	C8H9+
107.0489	3	C7H7O+
107.0853	43	C8H11+
109.0646	10	C7H9O+
109.1008	3	C8H13+
111.0802	4	C7H11O+
119.0853	35	C9H11+
121.0645	177	C8H9O+
121.1009	26	C9H13+
123.0801	32	C8H11O+
131.0852	16	C10H11+
133.0643	11	C9H9O+
133.1009	22	C10H13+
135.0801	70	C9H11O+
135.1166	50	C10H15+
137.0958	14	C9H13O+
139.075	45	C8H11O2+
143.0852	22	C11H11+
145.0644	8	C10H9O+
145.1008	105	C11H13+
147.0801	61	C10H11O+
147.1164	10	C11H15+
149.0958	26	C10H13O+
151.0753	8	C9H11O2+
151.1113	4	C10H15O+
153.091	11	C9H13O2+
155.085	8	C12H11+
157.1009	17	C12H13+
159.08	24	C11H11O+
159.1166	14	C12H15+
161.0591	3	C10H9O2+
161.0958	54	C11H13O+
163.1113	999	C11H15O+
165.0909	12	C10H13O2+
169.1006	10	C13H13+
171.0802	15	C12H11O+
171.1165	31	C13H15+
173.0957	31	C12H13O+
173.1321	5	C13H17+
175.1113	20	C12H15O+
177.0907	14	C11H13O2+
179.1063	10	C11H15O2+
181.086	5	C10H13O3+
181.101	8	C14H13+
183.1163	20	C14H15+
185.0957	18	C13H13O+
185.1322	12	C14H17+
187.0747	3	C12H11O2+
187.1116	22	C13H15O+
189.0905	22	C12H13O2+
189.1269	21	C13H17O+
191.1061	15	C12H15O2+
195.1164	14	C15H15+
197.0967	5	C14H13O+
197.1319	17	C15H17+
199.1113	20	C14H15O+
199.1475	5	C15H19+
201.0912	5	C13H13O2+
201.1269	13	C14H17O+
203.106	9	C13H15O2+
203.1425	8	C14H19O+
205.122	5	C13H17O2+
207.1012	7	C12H15O3+
207.1162	10	C16H15+
209.0953	2	C15H13O+
209.1321	15	C16H17+
211.1113	10	C15H15O+
211.1475	6	C16H19+
213.1269	15	C15H17O+
215.106	6	C14H15O2+
215.1431	6	C15H19O+
217.1217	10	C14H17O2+
219.1159	4	C17H15+
221.1321	14	C17H17+
223.1115	10	C16H15O+
223.1478	14	C17H19+
225.1269	26	C16H17O+
225.1635	13	C17H21+
227.1425	16	C16H19O+
229.1215	6	C15H17O2+
235.1481	10	C18H19+
237.127	10	C17H17O+
237.1632	16	C18H21+
239.1424	44	C17H19O+
239.179	9	C18H23+
241.1215	20	C16H17O2+
241.1582	33	C17H21O+
242.167	6	C17H22O+
243.1374	13	C16H19O2+
243.1737	18	C17H23O+
247.1472	10	C19H19+
249.1269	9	C18H17O+
249.1632	9	C19H21+
251.1418	8	C18H19O+
251.1789	3	C19H23+
253.158	12	C18H21O+
255.1373	12	C17H19O2+
255.1737	27	C18H23O+
256.1814	5	C18H24O+
257.153	22	C17H21O2+
257.1897	16	C18H25O+
258.1609	19	C17H22O2+
261.1632	4	C20H21+
263.1431	6	C19H19O+
265.1581	56	C19H21O+
266.167	7	C19H22O+
267.1379	9	C18H19O2+
267.1738	76	C19H23O+
269.1529	7	C18H21O2+
271.1688	5	C18H23O2+
277.1579	7	C20H21O+
279.1737	25	C20H23O+
281.1522	5	C19H21O2+
283.1687	72	C19H23O2+
284.1766	29	C19H24O2+
285.1482	11	C18H21O3+
285.1842	41	C19H25O2+
289.1583	9	C21H21O+
295.1686	21	C20H23O2+
297.1846	22	C20H25O2+
299.1635	62	C19H23O3+
300.1721	10	C19H24O3+
301.1793	68	C19H25O3+
307.1684	30	C21H23O2+
313.1793	25	C20H25O3+
315.1945	8	C20H27O3+
317.1735	7	C19H25O4+
325.179	36	C21H25O3+
343.1892	51	C21H27O4+
361.1999	212	C21H29O5+
