Mass spectrum: Acetyl-sulfamethoxazole; LC-ESI-ITFT; MS2; CE: 80; R=15000; [M+H]+
Name: Acetyl-sulfamethoxazole
Name: N-[4-[(5-Methyl-1,2-oxazol-3-yl)sulfamoyl]phenyl]acetamide
Formula: C12H13N3O4S
Exact mass: 295.0627
SMILES: CC(=O)NC1=CC=C(C=C1)S(=O)(=O)NC1=NOC(C)=C1
InChI: InChI=1S/C12H13N3O4S/c1-8-7-12(14-19-8)15-20(17,18)11-5-3-10(4-6-11)13-9(2)16/h3-7H,1-2H3,(H,13,16)(H,14,15)
Instrument: LTQ Orbitrap XL Thermo Scientific
Instrument type: LC-ESI-ITFT
Ms type: MS2
Ion mode: POSITIVE
Ionization: ESI
Fragmentation mode: HCD
Collision energy: 80 (nominal)
Resolution: 15000
Column name: Kinetex Core-Shell C18 2.6 um, 3.0 x 100 mm, Phenomenex
Retention time: 19.115 min
Base peak: 163.1328
Precursor m/z: 296.07
Precursor type: [M+H]+
m/z	relative intensity	assigned
79.0543	88	C6H7+
80.0495	80	C5H6N+
92.0495	645	C6H6N+
93.0335	127	C6H5O+
93.0573	315	C6H7N+
94.0651	130	C6H8N+
97.0396	4	C4H5N2O+
98.0477	10	C4H6N2O+
99.0553	107	C4H7N2O+
106.0652	193	C7H8N+
107.0605	86	C6H7N2+
108.0444	999	C6H6NO+
110.0601	60	C6H8NO+
118.0526	5	C7H6N2+
121.0399	5	C6H5N2O+
131.0605	44	C8H7N2+
132.0684	28	C8H8N2+
134.0601	778	C8H8NO+
135.0676	4	C8H9NO+
136.0757	14	C8H10NO+
140.0167	19	C6H6NOS+
146.0714	174	C8H8N3+
147.0792	119	C8H9N3+
148.0871	15	C8H10N3+
151.0325	4	C7H7N2S+
156.0111	20	C6H6NO2S+
160.0871	152	C9H10N3+
161.0015	9	C4H5N2O3S+
162.0664	6	C8H8N3O+
176.0276	14	C8H6N3S+
201.0663	14	C11H9N2O2+
