Mass spectrum: Fluvoxamine; LC-ESI-ITFT; MS2; CE: 50%; R=15000; [M+H]+
Name: Fluvoxamine
Name: 2-[[5-methoxy-1-[4-(trifluoromethyl)phenyl]pentylidene]amino]oxyethanamine
Formula: C15H21F3N2O2
Exact mass: 318.155512572
SMILES: COCCCCC(=NOCCN)C1=CC=C(C=C1)C(F)(F)F
InChI: InChI=1S/C15H21F3N2O2/c1-21-10-3-2-4-14(20-22-11-9-19)12-5-7-13(8-6-12)15(16,17)18/h5-8H,2-4,9-11,19H2,1H3
Instrument: LTQ Orbitrap XL Thermo Scientific
Instrument type: LC-ESI-ITFT
Ms type: MS2
Ion mode: POSITIVE
Ionization: ESI
Fragmentation mode: HCD
Collision energy: 50 % (nominal)
Resolution: 15000
Column name: Kinetex Evo C18 2.6 um 50 x 2.1 mm
Retention time: 8.985 min
Base peak: 319.1638
Precursor m/z: 319.1628
Precursor type: [M+H]+
Precursor intensity: 49229456
m/z	relative intensity	assigned
55.054	97	C4H7+
56.0255	2	C3H4O+
57.0696	27	C4H9+
62.0598	11	C2H8NO+
71.049	999	C4H7O+
87.0804	201	C5H11O+
130.065	5	C9H8N+
131.0728	17	C9H9N+
132.0807	2	C9H10N+
159.0417	4	C8H6F3+
172.0368	22	C8H5F3N+
174.0524	2	C8H7F3N+
180.0619	13	C10H8F2N+
185.0568	5	C10H8F3+
186.0529	5	C9H7F3N+
198.0523	13	C10H7F3N+
199.0602	2	C10H8F3N+
200.0681	163	C10H9F3N+
201.0715	8	C13H10FO+
209.0565	2	C12H8F3+
211.0598	3	C11H8F3N+
211.0734	2	C12H10F3+
212.0678	4	C11H9F3N+
214.0839	5	C11H11F3N+
226.0837	32	C12H11F3N+
228.0994	39	C12H13F3N+
240.0997	7	C13H13F3N+
244.0944	60	C12H13F3NO+
