Mass spectrum: 1-Naphthylamine; LC-ESI-ITFT; MS2; CE: 40%; R=15000; [M+H]+
Name: 1-Naphthylamine
Name: naphthalen-1-amine
Formula: C10H9N
Exact mass: 143.073499288
SMILES: NC1=C2C=CC=CC2=CC=C1
InChI: InChI=1S/C10H9N/c11-10-7-3-5-8-4-1-2-6-9(8)10/h1-7H,11H2
Instrument: LTQ Orbitrap XL Thermo Scientific
Instrument type: LC-ESI-ITFT
Ms type: MS2
Ion mode: POSITIVE
Ionization: ESI
Fragmentation mode: HCD
Collision energy: 40 % (nominal)
Resolution: 15000
Column name: Kinetex Evo C18 2.6 um 50 x 2.1 mm
Retention time: 2.563 min
Base peak: 144.0808
Precursor m/z: 144.0808
Precursor type: [M+H]+
Precursor intensity: 22473104
m/z	relative intensity	assigned
117.0696	3	C9H9+
143.0729	5	C10H9N+
144.0804	999	C10H10N+
