Mass spectrum: Diazepam; LC-ESI-ITFT; MS2; CE: 80%; R=15000; [M+H]+
Name: Diazepam
Name: 7-chloro-1-methyl-5-phenyl-3H-1,4-benzodiazepin-2-one
Formula: C16H13ClN2O
Exact mass: 284.071640716
SMILES: CN1C2=C(C=C(Cl)C=C2)C(=NCC1=O)C1=CC=CC=C1
InChI: InChI=1S/C16H13ClN2O/c1-19-14-8-7-12(17)9-13(14)16(18-10-15(19)20)11-5-3-2-4-6-11/h2-9H,10H2,1H3
Instrument: LTQ Orbitrap XL Thermo Scientific
Instrument type: LC-ESI-ITFT
Ms type: MS2
Ion mode: POSITIVE
Ionization: ESI
Fragmentation mode: HCD
Collision energy: 80 % (nominal)
Resolution: 15000
Column name: Kinetex Evo C18 2.6 um 50 x 2.1 mm
Retention time: 10.936 min
Base peak: 372.2328
Precursor m/z: 285.0789
Precursor type: [M+H]+
Precursor intensity: 40472192
m/z	relative intensity	assigned
58.0285	35	C2H4NO+
77.0385	12	C6H5+
79.0542	5	C6H7+
89.0384	11	C7H5+
90.0464	8	C7H6+
91.0542	271	C7H7+
104.0494	43	C7H6N+
105.0335	28	C7H5O+
105.0447	9	C6H5N2+
113.0152	15	C6H6Cl+
114.0103	6	C5H5ClN+
116.0494	72	C8H6N+
117.0572	130	C8H7N+
118.0651	86	C8H8N+
119.0606	7	C7H7N2+
119.0729	69	C8H9N+
122.9991	3	C7H4Cl+
124.0075	4	C7H5Cl+
125.0152	150	C7H6Cl+
126.023	17	C7H7Cl+
127.0308	11	C7H8Cl+
131.0603	20	C8H7N2+
138.0104	26	C7H5ClN+
138.9942	10	C7H4ClO+
139.0059	10	C6H4ClN2+
139.0182	31	C7H6ClN+
140.0261	28	C7H7ClN+
141.0339	23	C7H8ClN+
143.0604	81	C9H7N2+
144.0445	3	C9H6NO+
144.0681	50	C9H8N2+
145.076	14	C9H9N2+
146.0598	5	C9H8NO+
147.0678	41	C9H9NO+
150.0105	53	C8H5ClN+
151.0183	15	C8H6ClN+
152.0261	39	C8H7ClN+
153.021	3	C7H6ClN2+
154.0418	787	C8H9ClN+
157.0404	3	C9H5N2O+
162.0105	5	C9H5ClN+
163.0059	11	C8H4ClN2+
164.026	5	C9H7ClN+
165.0216	13	C8H6ClN2+
165.0699	39	C13H9+
166.0778	14	C13H10+
167.0133	53	C8H6ClNO+
168.0214	5	C8H7ClNO+
172.0631	95	C10H8N2O+
177.0213	46	C9H6ClN2+
177.0694	3	C14H9+
178.0776	3	C14H10+
179.0371	116	C9H8ClN2+
180.021	51	C9H7ClNO+
180.0809	40	C13H10N+
181.0883	13	C13H11N+
182.0369	14	C9H9ClNO+
190.0651	6	C14H8N+
191.0728	32	C14H9N+
192.0809	56	C14H10N+
193.0886	999	C14H11N+
194.0968	42	C14H12N+
195.1038	6	C14H13N+
199.0308	9	C13H8Cl+
204.0807	63	C15H10N+
205.076	11	C14H9N2+
205.0886	24	C15H11N+
206.0838	88	C14H10N2+
206.0967	9	C15H12N+
207.0917	105	C14H11N2+
208.0996	8	C14H12N2+
213.0341	3	C16H5O+
214.0419	10	C13H9ClN+
216.0575	44	C13H11ClN+
219.0914	7	C15H11N2+
220.0996	13	C15H12N2+
221.0835	25	C15H11NO+
221.1073	98	C15H13N2+
222.1151	357	C15H14N2+
226.0422	17	C14H9ClN+
227.0496	102	C14H10ClN+
228.0574	148	C14H11ClN+
230.0734	17	C14H13ClN+
239.0372	10	C14H8ClN2+
240.0573	9	C15H11ClN+
241.0527	304	C14H10ClN2+
242.0608	28	C14H11ClN2+
249.1026	4	C16H13N2O+
255.0684	81	C15H12ClN2+
257.0838	32	C15H14ClN2+
269.0477	13	C15H10ClN2O+
285.0785	15	C16H14ClN2O+
