Mass spectrum: Norfloxacin; LC-ESI-ITFT; MS2; CE: 50%; R=15000; [M+H]+
Name: Norfloxacin
Name: 1-ethyl-6-fluoro-4-oxo-7-piperazin-1-ylquinoline-3-carboxylic acid
Formula: C16H18FN3O3
Exact mass: 319.133219656
SMILES: CCN1C=C(C(O)=O)C(=O)C2=CC(F)=C(C=C12)N1CCNCC1
InChI: InChI=1S/C16H18FN3O3/c1-2-19-9-11(16(22)23)15(21)10-7-12(17)14(8-13(10)19)20-5-3-18-4-6-20/h7-9,18H,2-6H2,1H3,(H,22,23)
Instrument: LTQ Orbitrap XL Thermo Scientific
Instrument type: LC-ESI-ITFT
Ms type: MS2
Ion mode: POSITIVE
Ionization: ESI
Fragmentation mode: HCD
Collision energy: 50 % (nominal)
Resolution: 15000
Column name: Kinetex Evo C18 2.6 um 50 x 2.1 mm
Retention time: 4.133 min
Base peak: 320.1416
Precursor m/z: 320.1405
Precursor type: [M+H]+
Precursor intensity: 3012993.5
m/z	relative intensity	assigned
56.0494	5	C3H6N+
58.0651	8	C3H8N+
70.0652	42	C4H8N+
164.0511	2	C9H7FNO+
172.0765	5	C11H10NO+
177.083	5	C10H10FN2+
185.0712	5	C11H9N2O+
187.0663	2	C11H8FN2+
191.0619	10	C10H8FN2O+
191.0746	10	C11H10FNO+
192.0696	7	C10H9FN2O+
192.0822	6	C11H11FNO+
198.0668	3	C8H9FN3O2+
199.0742	2	C11H9N3O+
199.0863	2	C12H11N2O+
201.1028	7	C12H13N2O+
203.0621	30	C11H8FN2O+
204.0699	63	C11H9FN2O+
205.0777	133	C11H10FN2O+
206.0856	35	C11H11FN2O+
207.0934	27	C11H12FN2O+
212.0829	5	C9H11FN3O2+
213.1029	12	C10H14FN2O2+
214.0977	3	C12H12N3O+
215.0986	14	C13H12FN2+
217.0772	3	C12H10FN2O+
218.0853	8	C12H11FN2O+
219.0934	168	C12H12FN2O+
220.1014	10	C12H13FN2O+
227.1058	37	C13H13N3O+
227.1194	3	C11H16FN2O2+
228.1137	29	C10H15FN3O2+
230.0861	4	C13H11FN2O+
231.0568	5	C12H8FN2O2+
231.0937	6	C13H12FN2O+
233.1091	999	C13H14FN2O+
241.1216	4	C11H16FN3O2+
245.1096	5	C14H14FN2O+
247.112	6	C13H14FN3O+
248.1202	6	C13H15FN3O+
256.1451	155	C12H19FN3O2+
259.0883	7	C14H12FN2O2+
259.1243	5	C15H16FN2O+
274.1357	34	C15H17FN3O+
276.1514	345	C15H19FN3O+
277.0986	6	C14H14FN2O3+
282.1242	17	C16H16N3O2+
300.1354	7	C16H18N3O3+
302.1306	188	C16H17FN3O2+
320.1411	125	C16H19FN3O3+
