Mass spectrum: Ethion; LC-ESI-ITFT; MS2; CE: 55; R=15000; [M+H]+
Name: Ethion
Formula: C9H22O4P2S4
Exact mass: 383.9876
SMILES: CCOP(=S)(OCC)SCSP(=S)(OCC)OCC
InChI: InChI=1S/C9H22O4P2S4/c1-5-10-14(16,11-6-2)18-9-19-15(17,12-7-3)13-8-4/h5-9H2,1-4H3
Instrument: LTQ Orbitrap XL Thermo Scientific
Instrument type: LC-ESI-ITFT
Ms type: MS2
Ion mode: POSITIVE
Ionization: ESI
Fragmentation mode: CID
Collision energy: 55 (nominal)
Resolution: 15000
Column name: Kinetex Core-Shell C18 2.6 um, 3.0 x 100 mm, Phenomenex
Retention time: 27.505 min
Base peak: 377.0904
Precursor m/z: 384.9949
Precursor type: [M+H]+
m/z	relative intensity	assigned
96.951	23	H2O2PS+
124.9823	44	C2H6O2PS+
142.9386	109	CH4O2PS2+
153.0135	60	C4H10O2PS+
170.9699	115	C3H8O2PS2+
199.0011	607	C5H12O2PS2+
215.0324	999	C6H16O2PS2+
230.9724	12	C5H12O2PS3+
261.0202	165	C7H18O2PS3+
294.945	81	C5H13O4P2S3+
322.9764	170	C7H17O4P2S3+
339.0078	36	C8H21O4P2S3+
