Mass spectrum: Irgarol; LC-ESI-ITFT; MS2; CE: 80; R=15000; [M+H]+
Name: Irgarol
Name: Cybutryne
Name: 2-N-Tert-butyl-4-N-cyclopropyl-6-methylsulfanyl-1,3,5-triazine-2,4-diamine
Formula: C11H19N5S
Exact mass: 253.1361
SMILES: CSC1=NC(NC2CC2)=NC(NC(C)(C)C)=N1
InChI: InChI=1S/C11H19N5S/c1-11(2,3)16-9-13-8(12-7-5-6-7)14-10(15-9)17-4/h7H,5-6H2,1-4H3,(H2,12,13,14,15,16)
Instrument: LTQ Orbitrap XL Thermo Scientific
Instrument type: LC-ESI-ITFT
Ms type: MS2
Ion mode: POSITIVE
Ionization: ESI
Fragmentation mode: HCD
Collision energy: 80 (nominal)
Resolution: 15000
Column name: Kinetex Core-Shell C18 2.6 um, 3.0 x 100 mm, Phenomenex
Retention time: 24.007 min
Base peak: 254.1429
Precursor m/z: 254.1434
Precursor type: [M+H]+
m/z	relative intensity	assigned
74.0058	375	C2H4NS+
81.0446	165	C4H5N2+
83.0603	871	C4H7N2+
87.0263	74	C4H7S+
91.0323	799	C2H7N2S+
108.0555	999	C5H6N3+
114.0371	114	C5H8NS+
116.0276	390	C3H6N3S+
123.0668	14	C5H7N4+
125.0821	210	C5H9N4+
150.0774	155	C6H8N5+
156.0337	30	C4H6N5S+
156.0589	332	C6H10N3S+
158.0493	31	C4H8N5S+
168.0339	35	C5H6N5S+
170.0497	68	C5H8N5S+
171.0696	17	C6H11N4S+
198.0807	543	C7H12N5S+
