Mass spectrum: Verapamil; LC-ESI-ITFT; MS2; CE: 30%; R=15000; [M+H]+
Name: Verapamil
Name: 2-(3,4-dimethoxyphenyl)-5-[2-(3,4-dimethoxyphenyl)ethyl-methylamino]-2-propan-2-ylpentanenitrile
Formula: C27H38N2O4
Exact mass: 454.283157696
SMILES: COC1=CC=C(CCN(C)CCCC(C#N)(C(C)C)C2=CC(OC)=C(OC)C=C2)C=C1OC
InChI: InChI=1S/C27H38N2O4/c1-20(2)27(19-28,22-10-12-24(31-5)26(18-22)33-7)14-8-15-29(3)16-13-21-9-11-23(30-4)25(17-21)32-6/h9-12,17-18,20H,8,13-16H2,1-7H3
Instrument: LTQ Orbitrap XL Thermo Scientific
Instrument type: LC-ESI-ITFT
Ms type: MS2
Ion mode: POSITIVE
Ionization: ESI
Fragmentation mode: HCD
Collision energy: 30 % (nominal)
Resolution: 15000
Column name: Kinetex Evo C18 2.6 um 50 x 2.1 mm
Retention time: 8.685 min
Base peak: 455.2916
Precursor m/z: 455.2904
Precursor type: [M+H]+
Precursor intensity: 25343650
m/z	relative intensity	assigned
150.0676	15	C9H10O2+
151.0747	2	C9H11O2+
165.0911	999	C10H13O2+
166.0943	89	C5H14N2O4+
260.1646	20	C16H22NO2+
261.1604	6	C15H21N2O2+
264.1955	3	C16H26NO2+
303.2069	204	C18H27N2O2+
455.2905	187	C27H39N2O4+
