Mass spectrum: 2,6-Dichlorobenzamide; LC-ESI-ITFT; MS2; CE: 20%; R=15000; [M+H]+
Name: 2,6-Dichlorobenzamide
Formula: C7H5Cl2NO
Exact mass: 188.97481914
SMILES: NC(=O)C1=C(Cl)C=CC=C1Cl
InChI: InChI=1S/C7H5Cl2NO/c8-4-2-1-3-5(9)6(4)7(10)11/h1-3H,(H2,10,11)
Instrument: LTQ Orbitrap XL Thermo Scientific
Instrument type: LC-ESI-ITFT
Ms type: MS2
Ion mode: POSITIVE
Ionization: ESI
Fragmentation mode: HCD
Collision energy: 20 % (nominal)
Resolution: 15000
Column name: Kinetex Evo C18 2.6 um 50 x 2.1 mm
Retention time: 2.186 min
Base peak: 189.9828
Precursor m/z: 189.9821
Precursor type: [M+H]+
Precursor intensity: 1606158
m/z	relative intensity	assigned
189.9829	999	C7H6Cl2NO+
