Mass spectrum: Loperamide; LC-ESI-ITFT; MS2; CE: 80%; R=15000; [M+H]+
Name: Loperamide
Name: 4-[4-(4-chlorophenyl)-4-hydroxypiperidin-1-yl]-N,N-dimethyl-2,2-diphenylbutanamide
Formula: C29H33ClN2O2
Exact mass: 476.223055976
SMILES: CN(C)C(=O)C(CCN1CCC(O)(CC1)C1=CC=C(Cl)C=C1)(C1=CC=CC=C1)C1=CC=CC=C1
InChI: InChI=1S/C29H33ClN2O2/c1-31(2)27(33)29(24-9-5-3-6-10-24,25-11-7-4-8-12-25)19-22-32-20-17-28(34,18-21-32)23-13-15-26(30)16-14-23/h3-16,34H,17-22H2,1-2H3
Instrument: LTQ Orbitrap XL Thermo Scientific
Instrument type: LC-ESI-ITFT
Ms type: MS2
Ion mode: POSITIVE
Ionization: ESI
Fragmentation mode: HCD
Collision energy: 80 % (nominal)
Resolution: 15000
Column name: Kinetex Evo C18 2.6 um 50 x 2.1 mm
Retention time: 9.659 min
Base peak: 477.2297
Precursor m/z: 477.2303
Precursor type: [M+H]+
Precursor intensity: 71125960
m/z	relative intensity	assigned
91.0539	16	C7H7+
105.0331	13	C7H5O+
115.0538	83	C9H7+
117.0695	6	C9H9+
118.0649	7	C8H8N+
132.0805	4	C9H10N+
134.0959	5	C9H12N+
147.0672	5	C9H9NO+
152.0618	4	C12H8+
160.0761	1	C7H13ClN2+
160.1114	4	C11H14N+
165.0694	9	C13H9+
166.077	3	C13H10+
167.085	51	C13H11+
178.0771	36	C14H10+
179.0849	4	C14H11+
189.1139	2	C12H15NO+
191.0852	2	C15H11+
193.1005	14	C15H13+
194.0722	2	C14H10O+
194.096	4	C14H12N+
195.0803	3	C14H11O+
207.0795	1	C15H11O+
208.1114	2	C15H14N+
210.127	999	C15H16N+
220.1114	2	C16H14N+
222.0906	8	C15H12NO+
236.1065	8	C16H14NO+
238.1218	41	C16H16NO+
266.1531	58	C18H20NO+
