Mass spectrum: Linuron; LC-ESI-ITFT; MS2; CE: 55; R=15000; [M+H]+
Name: Linuron
Name: 3-(3,4-Dichlorophenyl)-1-methoxy-1-methylurea
Formula: C9H10Cl2N2O2
Exact mass: 248.0119
SMILES: CON(C)C(=O)NC1=CC=C(Cl)C(Cl)=C1
InChI: InChI=1S/C9H10Cl2N2O2/c1-13(15-2)9(14)12-6-3-4-7(10)8(11)5-6/h3-5H,1-2H3,(H,12,14)
Instrument: LTQ Orbitrap XL Thermo Scientific
Instrument type: LC-ESI-ITFT
Ms type: MS2
Ion mode: POSITIVE
Ionization: ESI
Fragmentation mode: HCD
Collision energy: 55 (nominal)
Resolution: 15000
Column name: Kinetex Core-Shell C18 2.6 um, 3.0 x 100 mm, Phenomenex
Retention time: 24.574 min
Base peak: 226.0894
Precursor m/z: 249.0192
Precursor type: [M+H]+
m/z	relative intensity	assigned
123.9949	25	C6H3ClN+
125.0027	69	C6H4ClN+
132.9606	182	C5H3Cl2+
153.0215	72	C7H6ClN2+
159.9715	999	C6H4Cl2N+
160.9794	372	C6H5Cl2N+
165.0217	8	C8H6ClN2+
181.0163	46	C8H6ClN2O+
182.0242	437	C8H7ClN2O+
187.9667	5	C7H4Cl2NO+
216.993	61	C8H7Cl2N2O+
