Mass spectrum: Verapamil; LC-ESI-ITFT; MS2; CE: 55; R=15000; [M+H]+
Name: Verapamil
Name: 2-(3,4-Dimethoxyphenyl)-5-[2-(3,4-dimethoxyphenyl)ethyl-methylamino]-2-propan-2-ylpentanenitrile
Formula: C27H38N2O4
Exact mass: 454.2832
SMILES: COC1=CC=C(CCN(C)CCCC(C#N)(C(C)C)C2=CC(OC)=C(OC)C=C2)C=C1OC
InChI: InChI=1S/C27H38N2O4/c1-20(2)27(19-28,22-10-12-24(31-5)26(18-22)33-7)14-8-15-29(3)16-13-21-9-11-23(30-4)25(17-21)32-6/h9-12,17-18,20H,8,13-16H2,1-7H3
Instrument: LTQ Orbitrap XL Thermo Scientific
Instrument type: LC-ESI-ITFT
Ms type: MS2
Ion mode: POSITIVE
Ionization: ESI
Fragmentation mode: HCD
Collision energy: 55 (nominal)
Resolution: 15000
Column name: Kinetex Core-Shell C18 2.6 um, 3.0 x 100 mm, Phenomenex
Retention time: 20.942 min
Base peak: 455.29
Precursor m/z: 455.2904
Precursor type: [M+H]+
m/z	relative intensity	assigned
77.0387	2	C6H5+
79.0543	12	C6H7+
84.081	6	C5H10N+
86.0966	3	C5H12N+
91.0543	5	C7H7+
94.0655	2	C6H8N+
95.0857	3	C7H11+
96.0809	9	C6H10N+
103.0544	13	C8H7+
104.0622	1	C8H8+
105.07	86	C8H9+
107.0494	5	C7H7O+
109.0646	2	C7H9O+
118.0414	8	C8H6O+
119.0494	6	C8H7O+
120.0572	9	C8H8O+
121.0651	15	C8H9O+
122.0729	6	C8H10O+
122.0966	18	C8H12N+
123.0805	1	C8H11O+
124.052	3	C7H8O2+
131.0491	1	C9H7O+
132.057	2	C9H8O+
133.065	72	C9H9O+
133.0764	6	C8H9N2+
134.0729	48	C9H10O+
135.0443	22	C8H7O2+
135.0807	46	C9H11O+
136.0521	8	C8H8O2+
137.0598	8	C8H9O2+
138.0679	7	C8H10O2+
139.0756	6	C8H11O2+
146.0727	1	C10H10O+
149.0602	5	C9H9O2+
150.0678	378	C9H10O2+
151.0751	55	C9H11O2+
152.083	9	C9H12O2+
164.0835	5	C10H12O2+
165.0913	999	C10H13O2+
166.0946	73	C5H14N2O4+
176.0708	2	C10H10NO2+
177.0914	41	C11H13O2+
186.0922	1	C12H12NO+
187.0995	3	C12H13NO+
190.0868	1	C11H12NO2+
191.107	7	C12H15O2+
202.087	4	C12H12NO2+
203.0945	3	C12H13NO2+
218.1181	28	C13H16NO2+
233.1542	3	C15H21O2+
243.1387	7	C16H19O2+
244.1335	1	C15H18NO2+
245.1418	7	C15H19NO2+
260.1651	56	C16H22NO2+
261.1606	28	C15H21N2O2+
303.2075	41	C18H27N2O2+
