Mass spectrum: Medroxyprogesterone; LC-ESI-ITFT; MS2; CE: 20%; R=15000; [M+H]+
Name: Medroxyprogesterone
Name: (6S,8R,9S,10R,13S,14S,17R)-17-acetyl-17-hydroxy-6,10,13-trimethyl-2,6,7,8,9,11,12,14,15,16-decahydro-1H-cyclopenta[a]phenanthren-3-one
Formula: C22H32O3
Exact mass: 344.235144884
SMILES: [H][C@@]12CC[C@](O)(C(C)=O)[C@@]1(C)CC[C@@]1([H])[C@@]2([H])C[C@H](C)C2=CC(=O)CC[C@]12C
InChI: InChI=1S/C22H32O3/c1-13-11-16-17(20(3)8-5-15(24)12-19(13)20)6-9-21(4)18(16)7-10-22(21,25)14(2)23/h12-13,16-18,25H,5-11H2,1-4H3/t13-,16+,17-,18-,20+,21-,22-/m0/s1
Instrument: LTQ Orbitrap XL Thermo Scientific
Instrument type: LC-ESI-ITFT
Ms type: MS2
Ion mode: POSITIVE
Ionization: ESI
Fragmentation mode: HCD
Collision energy: 20 % (nominal)
Resolution: 15000
Column name: Kinetex Evo C18 2.6 um 50 x 2.1 mm
Retention time: 12.123 min
Base peak: 345.2424
Precursor m/z: 345.2424
Precursor type: [M+H]+
Precursor intensity: 16461854
m/z	relative intensity	assigned
97.0645	23	C6H9O+
123.0801	77	C8H11O+
137.0956	1	C9H13O+
205.1579	3	C14H21O+
257.154	2	C17H21O2+
267.2109	3	C20H27+
275.1633	4	C17H23O3+
285.2204	5	C20H29O+
309.2206	5	C22H29O+
327.2309	22	C22H31O2+
345.2414	999	C22H33O3+
