Mass spectrum: Propiconazole; LC-ESI-ITFT; MS2; CE: 80; R=15000; [M+H]+
Name: Propiconazole
Name: 1-[[2-(2,4-Dichlorophenyl)-4-propyl-1,3-dioxolan-2-yl]methyl]-1,2,4-triazole
Formula: C15H17Cl2N3O2
Exact mass: 341.0698
SMILES: CCCC1COC(CN2C=NC=N2)(O1)C1=CC=C(Cl)C=C1Cl
InChI: InChI=1S/C15H17Cl2N3O2/c1-2-3-12-7-21-15(22-12,8-20-10-18-9-19-20)13-5-4-11(16)6-14(13)17/h4-6,9-10,12H,2-3,7-8H2,1H3
Instrument: LTQ Orbitrap XL Thermo Scientific
Instrument type: LC-ESI-ITFT
Ms type: MS2
Ion mode: POSITIVE
Ionization: ESI
Fragmentation mode: HCD
Collision energy: 80 (nominal)
Resolution: 15000
Column name: Kinetex Core-Shell C18 2.6 um, 3.0 x 100 mm, Phenomenex
Retention time: 26.146 min
Base peak: 342.0766
Precursor m/z: 342.0771
Precursor type: [M+H]+
m/z	relative intensity	assigned
70.0398	10	C2H4N3+
146.9764	2	C6H5Cl2+
158.9761	999	C7H5Cl2+
172.9554	112	C7H3Cl2O+
190.9663	5	C7H5Cl2O2+
