Mass spectrum: Imidacloprid-guanidine; LC-ESI-ITFT; MS2; CE: 80%; R=15000; [M+H]+
Name: Imidacloprid-guanidine
Name: (2z)-1-[(6-Chloropyridin-3-Yl)methyl]imidazolidin-2-Imine
Name: 1-[(6-chloropyridin-3-yl)methyl]-4,5-dihydroimidazol-2-amine
Formula: C9H11ClN4
Exact mass: 210.067224032
SMILES: NC1=NCCN1CC1=CN=C(Cl)C=C1
InChI: InChI=1S/C9H11ClN4/c10-8-2-1-7(5-13-8)6-14-4-3-12-9(14)11/h1-2,5H,3-4,6H2,(H2,11,12)
Instrument: LTQ Orbitrap XL Thermo Scientific
Instrument type: LC-ESI-ITFT
Ms type: MS2
Ion mode: POSITIVE
Ionization: ESI
Fragmentation mode: HCD
Collision energy: 80 % (nominal)
Resolution: 15000
Column name: Kinetex Evo C18 2.6 um 50 x 2.1 mm
Retention time: 0.556 min
Base peak: 211.0751
Precursor m/z: 211.0745
Precursor type: [M+H]+
Precursor intensity: 4577255
m/z	relative intensity	assigned
57.0446	1	C2H5N2+
63.0228	3	C5H3+
65.0385	1	C5H5+
72.984	1	C3H2Cl+
84.0557	73	C3H6N3+
85.0635	1	C3H7N3+
86.0716	1	C3H8N3+
90.034	87	C6H4N+
91.0418	11	C6H5N+
98.9998	48	C5H4Cl+
106.0653	9	C7H8N+
108.0445	1	C3H9ClN2+
126.0107	999	C6H5ClN+
132.0559	3	C7H6N3+
133.0762	31	C8H9N2+
168.0328	1	C7H7ClN3+
169.0527	2	C8H10ClN2+
175.0982	11	C9H11N4+
194.0481	3	C9H9ClN3+
211.0748	24	C9H12ClN4+
