Mass spectrum: Terbinafine; LC-ESI-ITFT; MS2; CE: 20%; R=15000; [M+H]+
Name: Terbinafine
Name: (E)-N,6,6-trimethyl-N-(naphthalen-1-ylmethyl)hept-2-en-4-yn-1-amine
Formula: C21H25N
Exact mass: 291.1986998
SMILES: CN(C\C=C\C#CC(C)(C)C)CC1=CC=CC2=CC=CC=C12
InChI: InChI=1S/C21H25N/c1-21(2,3)15-8-5-9-16-22(4)17-19-13-10-12-18-11-6-7-14-20(18)19/h5-7,9-14H,16-17H2,1-4H3/b9-5+
Instrument: LTQ Orbitrap XL Thermo Scientific
Instrument type: LC-ESI-ITFT
Ms type: MS2
Ion mode: POSITIVE
Ionization: ESI
Fragmentation mode: HCD
Collision energy: 20 % (nominal)
Resolution: 15000
Column name: Kinetex Evo C18 2.6 um 50 x 2.1 mm
Retention time: 9.613 min
Base peak: 292.2068
Precursor m/z: 292.206
Precursor type: [M+H]+
Precursor intensity: 112828384
m/z	relative intensity	assigned
79.0541	2	C6H7+
91.0543	3	C7H7+
93.0698	49	C7H9+
105.0699	4	C8H9+
121.1012	14	C9H13+
141.0698	497	C11H9+
150.1277	16	C10H16N+
165.0701	1	C13H9+
170.0963	23	C12H12N+
179.0856	3	C14H11+
193.1015	1	C15H13+
205.1013	16	C16H13+
219.1162	1	C17H15+
236.143	5	C17H18N+
249.1637	3	C19H21+
261.1639	8	C20H21+
292.2058	999	C21H26N+
