Mass spectrum: Ranitidine; LC-ESI-ITFT; MS2; CE: 80; R=15000; [M+H]+
Name: Ranitidine
Name: (E)-1-N`-[2-[[5-[(Dimethylamino)methyl]furan-2-yl]methylsulfanyl]ethyl]-1-N-methyl-2-nitroethene-1,1-diamine
Formula: C13H22N4O3S
Exact mass: 314.1413
SMILES: CN\C(NCCSCC1=CC=C(CN(C)C)O1)=C/N(=O)=O
InChI: InChI=1S/C13H22N4O3S/c1-14-13(9-17(18)19)15-6-7-21-10-12-5-4-11(20-12)8-16(2)3/h4-5,9,14-15H,6-8,10H2,1-3H3/b13-9+
Instrument: LTQ Orbitrap XL Thermo Scientific
Instrument type: LC-ESI-ITFT
Ms type: MS2
Ion mode: POSITIVE
Ionization: ESI
Fragmentation mode: HCD
Collision energy: 80 (nominal)
Resolution: 15000
Column name: Kinetex Core-Shell C18 2.6 um, 3.0 x 100 mm, Phenomenex
Retention time: 6.861 min
Base peak: 119.107
Precursor m/z: 315.1485
Precursor type: [M+H]+
m/z	relative intensity	assigned
81.0338	574	C5H5O+
84.0684	16	C4H8N2+
88.0219	14	C3H6NS+
95.0496	30	C6H7O+
97.0764	422	C5H9N2+
98.0842	153	C5H10N2+
101.0297	15	C4H7NS+
102.0376	999	C4H8NS+
107.0496	200	C7H7O+
110.097	73	CH18O3S+
117.0485	29	C4H9N2S+
118.032	9	C4H8NOS+
121.0766	126	CH15NO3S+
124.0761	26	C7H10NO+
125.0061	681	C6H5OS+
130.0565	140	C5H10N2S+
132.045	88	C8H6NO+
135.0924	153	C2H17NO3S+
148.0764	193	C9H10NO+
177.103	80	C10H13N2O+
178.0329	41	C9H8NOS+
181.0801	14	C9H13N2S+
191.1187	10	C11H15N2O+
192.0482	22	C10H10NOS+
199.0708	19	C8H11N2O4+
