Mass spectrum: 1,2-Benzisothiazolinone; LC-ESI-ITFT; MS2; CE: 80%; R=15000; [M+H]+
Name: 1,2-Benzisothiazolinone
Name: 1,2-Benzisothiazol-3(2H)-one
Name: 1,2-benzothiazol-3-one
Formula: C7H5NOS
Exact mass: 151.00918478
SMILES: O=C1NSC2=CC=CC=C12
InChI: InChI=1S/C7H5NOS/c9-7-5-3-1-2-4-6(5)10-8-7/h1-4H,(H,8,9)
Instrument: LTQ Orbitrap XL Thermo Scientific
Instrument type: LC-ESI-ITFT
Ms type: MS2
Ion mode: POSITIVE
Ionization: ESI
Fragmentation mode: HCD
Collision energy: 80 % (nominal)
Resolution: 15000
Column name: Kinetex Evo C18 2.6 um 50 x 2.1 mm
Retention time: 4.975 min
Base peak: 152.0169
Precursor m/z: 152.0165
Precursor type: [M+H]+
Precursor intensity: 6690627.5
m/z	relative intensity	assigned
63.0228	1	C5H3+
65.0386	3	C5H5+
77.0387	16	C6H5+
80.0496	65	C5H6N+
90.034	18	C6H4N+
92.0497	1	C6H6N+
97.0108	5	C5H5S+
105.0337	251	C7H5O+
106.9952	6	C6H3S+
108.0024	1	C6H4S+
109.0108	361	C6H5S+
119.0367	1	C7H5NO+
124.0217	14	C6H6NS+
132.9984	1	C7H3NS+
134.0061	358	C7H4NS+
135.998	5	C7H4OS+
152.0167	999	C7H6NOS+
