Mass spectrum: HARMAN; ESI-ITFT; MS2; CE: 35%; R=30000; [M+H]+
Name: HARMAN
Name: 1-methyl-9H-pyrido[3,4-b]indole
Formula: C12H10N2
Exact mass: 182.0844
SMILES: Cc1nccc2c1[nH]c1ccccc21
InChI: InChI=1S/C12H10N2/c1-8-12-10(6-7-13-8)9-4-2-3-5-11(9)14-12/h2-7,14H,1H3
Instrument: LTQ Orbitrap XL Thermo Scientific
Instrument type: ESI-ITFT
Ms type: MS2
Ion mode: POSITIVE
Ionization: ESI
Fragmentation mode: CID
Collision energy: 35 % (nominal)
Resolution: 30000
Column name: N/A
Retention time: N/A min
Base peak: 183.0917
Precursor m/z: 183.0917
Precursor type: [M+H]+
m/z	relative intensity	assigned
115.0541	2	C9H7+
142.065	3	C10H8N+
156.0807	1	C11H10N+
167.0603	1	C11H7N2+
168.0681	5	C11H8N2+
183.0915	999	C12H11N2+
