Mass spectrum: Progesterone; LC-ESI-ITFT; MS2; CE: 30%; R=15000; [M+H]+
Name: Progesterone
Name: (8S,9S,10R,13S,14S,17S)-17-acetyl-10,13-dimethyl-1,2,6,7,8,9,11,12,14,15,16,17-dodecahydrocyclopenta[a]phenanthren-3-one
Formula: C21H30O2
Exact mass: 314.2245802
SMILES: CC(=O)[C@H]1CC[C@H]2[C@@H]3CCC4=CC(=O)CC[C@]4(C)[C@H]3CC[C@]12C
InChI: InChI=1S/C21H30O2/c1-13(22)17-6-7-18-16-5-4-14-12-15(23)8-10-20(14,2)19(16)9-11-21(17,18)3/h12,16-19H,4-11H2,1-3H3/t16-,17+,18-,19-,20-,21+/m0/s1
Instrument: LTQ Orbitrap XL Thermo Scientific
Instrument type: LC-ESI-ITFT
Ms type: MS2
Ion mode: POSITIVE
Ionization: ESI
Fragmentation mode: HCD
Collision energy: 30 % (nominal)
Resolution: 15000
Column name: Kinetex Evo C18 2.6 um 50 x 2.1 mm
Retention time: 12.363 min
Base peak: 315.2316
Precursor m/z: 315.2319
Precursor type: [M+H]+
Precursor intensity: 25864140
m/z	relative intensity	assigned
81.0697	4	C6H9+
85.0645	22	C5H9O+
93.0699	3	C7H9+
95.0851	6	C7H11+
97.0645	642	C6H9O+
105.0697	2	C8H9+
107.0853	6	C8H11+
109.0644	386	C7H9O+
119.0852	7	C9H11+
121.1008	10	C9H13+
123.0801	41	C8H11O+
123.1167	2	C9H15+
131.0853	5	C10H11+
133.1009	5	C10H13+
135.1165	6	C10H15+
137.0956	10	C9H13O+
145.1007	11	C11H13+
147.1164	12	C11H15+
149.0959	2	C10H13O+
159.1163	12	C12H15+
161.132	5	C12H17+
163.1111	10	C11H15O+
171.1162	9	C13H15+
173.1322	13	C13H17+
175.1484	4	C13H19+
177.1269	17	C12H17O+
183.1162	4	C14H15+
187.1111	5	C13H15O+
187.1473	4	C14H19+
189.1269	9	C13H17O+
189.1636	7	C14H21+
191.1423	6	C13H19O+
197.1316	3	C15H17+
199.1474	4	C15H19+
201.1633	12	C15H21+
203.1425	3	C14H19O+
205.1577	3	C14H21O+
207.1746	2	C14H23O+
209.1317	4	C16H17+
213.163	9	C16H21+
215.1424	7	C15H19O+
215.1789	19	C16H23+
223.1474	7	C17H19+
227.1786	10	C17H23+
231.1733	3	C16H23O+
233.1893	10	C16H25O+
237.1633	3	C18H21+
239.1787	17	C18H23+
241.1581	10	C17H21O+
245.1896	11	C17H25O+
253.1941	13	C19H25+
255.1731	4	C18H23O+
255.2098	33	C19H27+
257.1892	6	C18H25O+
269.2253	2	C20H29+
271.2054	5	C19H27O+
273.2205	22	C19H29O+
279.2099	39	C21H27+
297.2204	156	C21H29O+
315.2309	999	C21H31O2+
