Mass spectrum: Sulfadimidin / sulfamethazin; LC-ESI-ITFT; MS2; CE: 55; R=15000; [M+H]+
Name: Sulfadimidin / sulfamethazin
Name: Sulfamethazine
Name: 4-Amino-N-(4,6-dimethylpyrimidin-2-yl)benzenesulfonamide
Formula: C12H14N4O2S
Exact mass: 278.0837
SMILES: CC1=CC(C)=NC(NS(=O)(=O)C2=CC=C(N)C=C2)=N1
InChI: InChI=1S/C12H14N4O2S/c1-8-7-9(2)15-12(14-8)16-19(17,18)11-5-3-10(13)4-6-11/h3-7H,13H2,1-2H3,(H,14,15,16)
Instrument: LTQ Orbitrap XL Thermo Scientific
Instrument type: LC-ESI-ITFT
Ms type: MS2
Ion mode: POSITIVE
Ionization: ESI
Fragmentation mode: HCD
Collision energy: 55 (nominal)
Resolution: 15000
Column name: Kinetex Core-Shell C18 2.6 um, 3.0 x 100 mm, Phenomenex
Retention time: 15.703 min
Base peak: 163.1328
Precursor m/z: 279.091
Precursor type: [M+H]+
m/z	relative intensity	assigned
80.0495	8	C5H6N+
81.0448	18	C4H5N2+
92.0495	618	C6H6N+
93.0573	21	C6H7N+
94.0654	5	C6H8N+
95.0604	66	C5H7N2+
105.0449	3	C6H5N2+
107.0604	2	C6H7N2+
108.0444	791	C6H6NO+
110.0601	24	C6H8NO+
120.0558	14	C6H6N3+
122.0714	71	C6H8N3+
123.0793	33	C6H9N3+
124.087	999	C6H10N3+
125.071	7	C6H9N2O+
149.0235	68	C8H5O3+
156.0115	362	C6H6NO2S+
186.0333	347	C6H8N3O2S+
196.0867	2	C12H10N3+
204.044	195	C12H4N4+
213.1137	151	C12H13N4+
279.0915	12	C12H15N4O2S+
