Mass spectrum: Gabapentin-lactam; LC-ESI-ITFT; MS2; CE: 70%; R=15000; [M+H]+
Name: Gabapentin-lactam
Name: 2-azaspiro[4.5]decan-3-one
Formula: C9H15NO
Exact mass: 153.1154
SMILES: O=C1CC2(CN1)CCCCC2
InChI: InChI=1S/C9H15NO/c11-8-6-9(7-10-8)4-2-1-3-5-9/h1-7H2,(H,10,11)
Instrument: LTQ Orbitrap XL Thermo Scientific
Instrument type: LC-ESI-ITFT
Ms type: MS2
Ion mode: POSITIVE
Ionization: ESI
Fragmentation mode: HCD
Collision energy: 70 % (nominal)
Resolution: 15000
Column name: Kinetex Evo C18 2.6 um 50 x 2.1 mm
Retention time: 8.072 min
Base peak: 154.1224
Precursor m/z: 154.1226
Precursor type: [M+H]+
m/z	relative intensity	assigned
54.0336	1	C3H4N+
60.0442	3	C2H6NO+
67.0542	36	C5H7+
69.0698	6	C5H9+
72.0444	12	C3H6NO+
81.0698	3	C6H9+
86.0604	1	C4H8NO+
91.0542	11	C7H7+
93.0699	22	C7H9+
95.0855	306	C7H11+
109.1013	23	C8H13+
110.0961	1	C7H12N+
112.1121	17	C7H14N+
119.0856	12	C9H11+
136.1121	1	C9H14N+
137.096	3	C9H13O+
154.1226	999	C9H16NO+
