Mass spectrum: 4-Formyl-antipyrine; LC-ESI-ITFT; MS2; CE: 80; R=15000; [M+H]+
Name: 4-Formyl-antipyrine
Name: 1,5-Dimethyl-3-oxo-2-phenylpyrazole-4-carbaldehyde
Formula: C12H12N2O2
Exact mass: 216.0899
SMILES: CN1N(C(=O)C(C=O)=C1C)C1=CC=CC=C1
InChI: InChI=1S/C12H12N2O2/c1-9-11(8-15)12(16)14(13(9)2)10-6-4-3-5-7-10/h3-8H,1-2H3
Instrument: LTQ Orbitrap XL Thermo Scientific
Instrument type: LC-ESI-ITFT
Ms type: MS2
Ion mode: POSITIVE
Ionization: ESI
Fragmentation mode: HCD
Collision energy: 80 (nominal)
Resolution: 15000
Column name: Kinetex Core-Shell C18 2.6 um, 3.0 x 100 mm, Phenomenex
Retention time: 14.922 min
Base peak: 217.0972
Precursor m/z: 217.0972
Precursor type: [M+H]+
m/z	relative intensity	assigned
77.0386	188	C6H5+
79.0543	24	C6H7+
83.0492	195	C5H7O+
86.0601	48	C4H8NO+
91.0543	58	C7H7+
92.0495	89	C6H6N+
93.0336	6	C6H5O+
95.0604	14	C5H7N2+
96.0444	20	C5H6NO+
96.0682	23	C5H8N2+
98.0601	172	C5H8NO+
103.0543	31	C8H7+
104.0495	107	C7H6N+
105.0336	30	C7H5O+
105.0448	69	C6H5N2+
106.0651	999	C7H8N+
107.0603	32	C6H7N2+
111.0441	164	C6H7O2+
115.0543	25	C9H7+
117.0572	33	C8H7N+
117.0699	56	C9H9+
118.0652	99	C8H8N+
119.0853	11	C9H11+
120.0444	24	C7H6NO+
120.0808	33	C8H10N+
130.0652	155	C9H8N+
131.0603	29	C8H7N2+
131.0729	63	C9H9N+
132.0683	63	C8H8N2+
132.0807	22	C9H10N+
133.0524	15	C8H7NO+
133.0761	11	C8H9N2+
139.0506	10	C6H7N2O2+
142.0652	32	C10H8N+
144.0809	74	C10H10N+
145.0647	14	C10H9O+
145.0761	62	C9H9N2+
145.0886	17	C10H11N+
146.0605	10	C9H8NO+
146.084	43	C9H10N2+
146.0969	5	C10H12N+
147.0917	121	C9H11N2+
149.0711	22	C8H9N2O+
156.0684	11	C10H8N2+
157.0521	18	C10H7NO+
158.0478	5	C9H6N2O+
158.0602	22	C10H8NO+
159.0554	23	C9H7N2O+
159.0918	86	C10H11N2+
160.0757	11	C10H10NO+
160.0997	15	C10H12N2+
161.1077	7	C10H13N2+
169.0758	5	C11H9N2+
171.0553	17	C10H7N2O+
171.0922	7	C11H11N2+
172.0634	35	C10H8N2O+
172.0759	15	C11H10NO+
173.0711	25	C10H9N2O+
174.0789	54	C10H10N2O+
185.0711	72	C11H9N2O+
186.0553	8	C11H8NO2+
187.0867	25	C11H11N2O+
189.1024	22	C11H13N2O+
199.0869	33	C12H11N2O+
200.0582	134	C11H8N2O2+
202.0738	23	C11H10N2O2+
213.0658	4	C12H9N2O2+
215.0817	168	C12H11N2O2+
217.0973	126	C12H13N2O2+
