Mass spectrum: Primidone; LC-ESI-ITFT; MS2; CE: 90%; R=15000; [M+H]+
Name: Primidone
Name: 5-ethyl-5-phenyl-1,3-diazinane-4,6-dione
Formula: C12H14N2O2
Exact mass: 218.105527688
SMILES: CCC1(C(=O)NCNC1=O)C1=CC=CC=C1
InChI: InChI=1S/C12H14N2O2/c1-2-12(9-6-4-3-5-7-9)10(15)13-8-14-11(12)16/h3-7H,2,8H2,1H3,(H,13,15)(H,14,16)
Instrument: LTQ Orbitrap XL Thermo Scientific
Instrument type: LC-ESI-ITFT
Ms type: MS2
Ion mode: POSITIVE
Ionization: ESI
Fragmentation mode: HCD
Collision energy: 90 % (nominal)
Resolution: 15000
Column name: Kinetex Evo C18 2.6 um 50 x 2.1 mm
Retention time: 6.005 min
Base peak: 116.9864
Precursor m/z: 219.1128
Precursor type: [M+H]+
Precursor intensity: 620545.75
m/z	relative intensity	assigned
91.0546	999	C7H7+
106.0656	86	C7H8N+
115.0546	50	C9H7+
117.0703	254	C9H9+
133.0527	29	C8H7NO+
134.097	51	C9H12N+
