Mass spectrum: Diazepam; LC-ESI-ITFT; MS2; CE: 90%; R=15000; [M+H]+
Name: Diazepam
Name: 7-chloro-1-methyl-5-phenyl-3H-1,4-benzodiazepin-2-one
Formula: C16H13ClN2O
Exact mass: 284.071640716
SMILES: CN1C2=C(C=C(Cl)C=C2)C(=NCC1=O)C1=CC=CC=C1
InChI: InChI=1S/C16H13ClN2O/c1-19-14-8-7-12(17)9-13(14)16(18-10-15(19)20)11-5-3-2-4-6-11/h2-9H,10H2,1H3
Instrument: LTQ Orbitrap XL Thermo Scientific
Instrument type: LC-ESI-ITFT
Ms type: MS2
Ion mode: POSITIVE
Ionization: ESI
Fragmentation mode: HCD
Collision energy: 90 % (nominal)
Resolution: 15000
Column name: Kinetex Evo C18 2.6 um 50 x 2.1 mm
Retention time: 10.936 min
Base peak: 372.2328
Precursor m/z: 285.0789
Precursor type: [M+H]+
Precursor intensity: 40472192
m/z	relative intensity	assigned
58.0285	34	C2H4NO+
77.0385	31	C6H5+
79.0543	9	C6H7+
89.0386	52	C7H5+
90.0464	36	C7H6+
91.0542	372	C7H7+
104.0495	69	C7H6N+
105.0335	21	C7H5O+
105.0448	22	C6H5N2+
106.0652	4	C7H8N+
113.0153	16	C6H6Cl+
114.0103	9	C5H5ClN+
116.0494	99	C8H6N+
117.0573	188	C8H7N+
118.0651	156	C8H8N+
119.0603	10	C7H7N2+
119.0729	114	C8H9N+
122.9995	9	C7H4Cl+
124.0075	10	C7H5Cl+
125.0152	269	C7H6Cl+
126.0231	25	C7H7Cl+
127.0308	14	C7H8Cl+
131.0603	18	C8H7N2+
138.0105	55	C7H5ClN+
138.9943	7	C7H4ClO+
139.0056	27	C6H4ClN2+
139.0183	40	C7H6ClN+
140.0262	33	C7H7ClN+
141.0341	19	C7H8ClN+
143.0603	150	C9H7N2+
144.0682	58	C9H8N2+
145.076	17	C9H9N2+
146.0604	4	C9H8NO+
147.0679	35	C9H9NO+
150.0105	78	C8H5ClN+
151.0181	24	C8H6ClN+
152.0262	36	C8H7ClN+
154.0418	581	C8H9ClN+
157.0399	9	C9H5N2O+
162.0104	9	C9H5ClN+
163.0058	45	C8H4ClN2+
164.0258	7	C12H4O+
165.0216	26	C8H6ClN2+
165.0699	104	C13H9+
166.0299	3	C8H7ClN2+
166.0776	30	C13H10+
167.0133	34	C8H6ClNO+
172.0632	57	C10H8N2O+
177.0214	61	C9H6ClN2+
177.0703	6	C14H9+
178.078	7	C14H10+
179.0371	81	C9H8ClN2+
180.021	28	C9H7ClNO+
180.0808	90	C13H10N+
181.0887	13	C13H11N+
190.0651	14	C14H8N+
191.0731	44	C14H9N+
192.0809	114	C14H10N+
193.0886	999	C14H11N+
194.0968	67	C14H12N+
199.0311	19	C13H8Cl+
204.0807	96	C15H10N+
205.0762	28	C14H9N2+
205.0889	18	C15H11N+
206.0839	196	C14H10N2+
206.0962	13	C15H12N+
207.0917	142	C14H11N2+
208.0999	6	C14H12N2+
213.0339	5	C16H5O+
214.0416	14	C13H9ClN+
216.0576	25	C13H11ClN+
219.0921	9	C15H11N2+
220.0999	10	C15H12N2+
221.0835	19	C15H11NO+
221.1073	110	C15H13N2+
222.1152	188	C15H14N2+
223.0999	4	C15H13NO+
226.0416	15	C14H9ClN+
227.0497	85	C14H10ClN+
228.0576	57	C14H11ClN+
230.0723	6	C14H13ClN+
239.0372	17	C14H8ClN2+
240.0577	11	C15H11ClN+
241.0527	349	C14H10ClN2+
242.0615	15	C14H11ClN2+
255.0683	41	C15H12ClN2+
257.0828	8	C15H14ClN2+
269.0471	12	C15H10ClN2O+
