Mass spectrum: Pyrazophos; LC-ESI-ITFT; MS2; CE: 20%; R=15000; [M+H]+
Name: Pyrazophos
Name: ethyl 2-diethoxyphosphinothioyloxy-5-methylpyrazolo[1,5-a]pyrimidine-6-carboxylate
Formula: C14H20N3O5PS
Exact mass: 373.08612837
SMILES: CCOC(=O)C1=CN2N=C(OP(=S)(OCC)OCC)C=C2N=C1C
InChI: InChI=1S/C14H20N3O5PS/c1-5-19-14(18)11-9-17-12(15-10(11)4)8-13(16-17)22-23(24,20-6-2)21-7-3/h8-9H,5-7H2,1-4H3
Instrument: LTQ Orbitrap XL Thermo Scientific
Instrument type: LC-ESI-ITFT
Ms type: MS2
Ion mode: POSITIVE
Ionization: ESI
Fragmentation mode: HCD
Collision energy: 20 % (nominal)
Resolution: 15000
Column name: Kinetex Evo C18 2.6 um 50 x 2.1 mm
Retention time: 12.746 min
Base peak: 374.0946
Precursor m/z: 374.0934
Precursor type: [M+H]+
Precursor intensity: 22191504
m/z	relative intensity	assigned
170.0165	1	C4H11O3PS+
194.0558	2	C8H8N3O3+
205.0843	4	C10H11N3O2+
222.0873	176	C10H12N3O3+
223.0905	8	C7H18N3OPS+
236.0485	4	C10H10N3O2S+
238.0644	35	C10H12N3O2S+
318.0312	4	C10H13N3O5PS+
346.0621	77	C12H17N3O5PS+
374.0932	999	C14H21N3O5PS+
