Mass spectrum: Methiocarb; LC-ESI-ITFT; MS2; CE: 35; R=15000; [M+H]+
Name: Methiocarb
Name: Mercaptodimethur
Name: (3,5-Dimethyl-4-methylsulfanylphenyl) N-methylcarbamate
Formula: C11H15NO2S
Exact mass: 225.0823
SMILES: CNC(=O)OC1=CC(C)=C(SC)C(C)=C1
InChI: InChI=1S/C11H15NO2S/c1-7-5-9(14-11(13)12-3)6-8(2)10(7)15-4/h5-6H,1-4H3,(H,12,13)
Instrument: LTQ Orbitrap XL Thermo Scientific
Instrument type: LC-ESI-ITFT
Ms type: MS2
Ion mode: POSITIVE
Ionization: ESI
Fragmentation mode: CID
Collision energy: 35 (nominal)
Resolution: 15000
Column name: Kinetex Core-Shell C18 2.6 um, 3.0 x 100 mm, Phenomenex
Retention time: 24.497 min
Base peak: 226.0894
Precursor m/z: 226.0896
Precursor type: [M+H]+
m/z	relative intensity	assigned
91.0542	12	C7H7+
121.0647	26	C8H9O+
148.0755	16	C9H10NO+
169.068	999	C9H13OS+
