Mass spectrum: 7-Amino-4-methylcoumarin; LC-ESI-ITFT; MS2; CE: 50%; R=15000; [M+H]+
Name: 7-Amino-4-methylcoumarin
Name: 7-amino-4-methylchromen-2-one
Formula: C10H9NO2
Exact mass: 175.063328528
SMILES: CC1=CC(=O)OC2=CC(N)=CC=C12
InChI: InChI=1S/C10H9NO2/c1-6-4-10(12)13-9-5-7(11)2-3-8(6)9/h2-5H,11H2,1H3
Instrument: LTQ Orbitrap XL Thermo Scientific
Instrument type: LC-ESI-ITFT
Ms type: MS2
Ion mode: POSITIVE
Ionization: ESI
Fragmentation mode: HCD
Collision energy: 50 % (nominal)
Resolution: 15000
Column name: Kinetex Evo C18 2.6 um 50 x 2.1 mm
Retention time: 6.817 min
Base peak: 176.0712
Precursor m/z: 176.0706
Precursor type: [M+H]+
Precursor intensity: 25195214
m/z	relative intensity	assigned
91.0544	1	C7H7+
103.0543	4	C8H7+
105.0699	10	C8H9+
109.0648	2	C7H9O+
115.0543	21	C9H7+
117.0574	42	C8H7N+
120.0808	91	C8H10N+
130.0652	10	C9H8N+
131.0493	4	C9H7O+
131.073	9	C9H9N+
132.0809	65	C9H10N+
133.0522	3	C8H7NO+
134.06	1	C8H8NO+
148.0758	38	C9H10NO+
176.0707	999	C10H10NO2+
