Mass spectrum: Diazepam; LC-ESI-ITFT; MS2; CE: 60%; R=15000; [M+H]+
Name: Diazepam
Name: 7-chloro-1-methyl-5-phenyl-3H-1,4-benzodiazepin-2-one
Formula: C16H13ClN2O
Exact mass: 284.071640716
SMILES: CN1C2=C(C=C(Cl)C=C2)C(=NCC1=O)C1=CC=CC=C1
InChI: InChI=1S/C16H13ClN2O/c1-19-14-8-7-12(17)9-13(14)16(18-10-15(19)20)11-5-3-2-4-6-11/h2-9H,10H2,1H3
Instrument: LTQ Orbitrap XL Thermo Scientific
Instrument type: LC-ESI-ITFT
Ms type: MS2
Ion mode: POSITIVE
Ionization: ESI
Fragmentation mode: HCD
Collision energy: 60 % (nominal)
Resolution: 15000
Column name: Kinetex Evo C18 2.6 um 50 x 2.1 mm
Retention time: 10.925 min
Base peak: 372.2332
Precursor m/z: 285.0789
Precursor type: [M+H]+
Precursor intensity: 32794984
m/z	relative intensity	assigned
58.0285	22	C2H4NO+
91.0542	136	C7H7+
104.0496	16	C7H6N+
105.0335	69	C7H5O+
113.0157	3	C6H6Cl+
116.0495	30	C8H6N+
117.0573	35	C8H7N+
118.0651	17	C8H8N+
119.0729	9	C8H9N+
125.0154	18	C7H6Cl+
138.9944	7	C7H4ClO+
140.0262	11	C7H7ClN+
141.0339	28	C7H8ClN+
144.0443	11	C9H6NO+
146.0603	6	C9H8NO+
147.0678	43	C9H9NO+
150.0105	21	C8H5ClN+
152.0262	21	C8H7ClN+
154.0418	999	C8H9ClN+
164.0259	5	C9H7ClN+
167.0133	84	C8H6ClNO+
172.0631	124	C10H8N2O+
179.0371	99	C9H8ClN2+
180.021	82	C9H7ClNO+
182.0367	104	C9H9ClNO+
192.0806	7	C14H10N+
193.0886	689	C14H11N+
194.0967	13	C14H12N+
204.0807	19	C15H10N+
205.0885	18	C15H11N+
206.0842	10	C14H10N2+
207.0326	11	C10H8ClN2O+
216.0574	57	C13H11ClN+
220.0989	14	C15H12N2+
221.0834	15	C15H11NO+
221.1074	66	C15H13N2+
222.1152	579	C15H14N2+
226.0419	23	C14H9ClN+
227.0496	69	C14H10ClN+
228.0574	459	C14H11ClN+
230.0731	35	C14H13ClN+
240.0575	18	C15H11ClN+
241.0527	136	C14H10ClN2+
242.0606	35	C14H11ClN2+
243.0683	12	C14H12ClN2+
250.1105	5	C16H14N2O+
255.0685	89	C15H12ClN2+
256.0766	9	C15H13ClN2+
257.0839	413	C15H14ClN2+
285.0789	604	C16H14ClN2O+
