Mass spectrum: Metoprolol acid; LC-ESI-ITFT; MS2; CE: 90%; R=15000; [M+H]+
Name: Metoprolol acid
Name: 2-[4-[2-hydroxy-3-(propan-2-ylamino)propoxy]phenyl]acetic acid
Formula: C14H21NO4
Exact mass: 267.147058152
SMILES: CC(C)NCC(O)COC1=CC=C(CC(O)=O)C=C1
InChI: InChI=1S/C14H21NO4/c1-10(2)15-8-12(16)9-19-13-5-3-11(4-6-13)7-14(17)18/h3-6,10,12,15-16H,7-9H2,1-2H3,(H,17,18)
Instrument: LTQ Orbitrap XL Thermo Scientific
Instrument type: LC-ESI-ITFT
Ms type: MS2
Ion mode: POSITIVE
Ionization: ESI
Fragmentation mode: HCD
Collision energy: 90 % (nominal)
Resolution: 15000
Column name: Kinetex Evo C18 2.6 um 50 x 2.1 mm
Retention time: 0.999 min
Base peak: 235.1813
Precursor m/z: 268.1543
Precursor type: [M+H]+
Precursor intensity: 19350924
m/z	relative intensity	assigned
56.0493	594	C3H6N+
57.0334	8	C3H5O+
58.065	57	C3H8N+
67.0542	13	C5H7+
72.0807	208	C4H10N+
74.06	218	C3H8NO+
77.0386	64	C6H5+
79.0542	679	C6H7+
81.0699	49	C6H9+
84.0808	36	C5H10N+
89.0386	263	C7H5+
91.0543	403	C7H7+
93.0699	14	C7H9+
95.0492	131	C6H7O+
98.0965	44	C6H12N+
100.1122	36	C6H14N+
103.054	9	C8H7+
105.0336	12	C7H5O+
105.07	28	C8H9+
107.0492	254	C7H7O+
109.0649	85	C7H9O+
115.0543	160	C9H7+
116.1071	23	C6H14NO+
117.0699	244	C9H9+
119.0492	133	C8H7O+
121.0647	15	C8H9O+
123.0441	53	C7H7O2+
131.0493	10	C9H7O+
133.0649	33	C9H9O+
135.0442	58	C8H7O2+
137.0598	65	C8H9O2+
144.0573	17	C10H8O+
145.0649	999	C10H9O+
153.0548	14	C8H9O3+
165.0547	38	C9H9O3+
