Mass spectrum: Ambrettolide; LC-ESI-ITFT; MS2; CE: 50%; R=15000; [M+H]+
Name: Ambrettolide
Name: (8Z)-1-oxacycloheptadec-8-en-2-one
Formula: C16H28O2
Exact mass: 252.208930136
SMILES: O=C1CCCCC\C=C/CCCCCCCCO1
InChI: InChI=1S/C16H28O2/c17-16-14-12-10-8-6-4-2-1-3-5-7-9-11-13-15-18-16/h2,4H,1,3,5-15H2/b4-2-
Instrument: LTQ Orbitrap XL Thermo Scientific
Instrument type: LC-ESI-ITFT
Ms type: MS2
Ion mode: POSITIVE
Ionization: ESI
Fragmentation mode: HCD
Collision energy: 50 % (nominal)
Resolution: 15000
Column name: Kinetex Evo C18 2.6 um 50 x 2.1 mm
Retention time: 14.612 min
Base peak: 116.986
Precursor m/z: 253.2162
Precursor type: [M+H]+
Precursor intensity: 209405.86
m/z	relative intensity	assigned
55.0541	546	C4H7+
69.07	999	C5H9+
81.07	705	C6H9+
83.0859	574	C6H11+
95.0858	764	C7H11+
121.1009	502	C9H13+
