Mass spectrum: Thiophanate-methyl; LC-ESI-ITFT; MS2; CE: 30%; R=15000; [M+H]+
Name: Thiophanate-methyl
Name: CID 3085
Name: N`-methoxycarbonyl-N-[2-[(N-methoxycarbonyl-C-sulfanylcarbonimidoyl)amino]phenyl]carbamimidothioic acid
Formula: C12H14N4O4S2
Exact mass: 342.045646928
SMILES: COC(=O)NC(=S)NC1=CC=CC=C1NC(=S)NC(=O)OC
InChI: InChI=1S/C12H14N4O4S2/c1-19-11(17)15-9(21)13-7-5-3-4-6-8(7)14-10(22)16-12(18)20-2/h3-6H,1-2H3,(H2,13,15,17,21)(H2,14,16,18,22)
Instrument: LTQ Orbitrap XL Thermo Scientific
Instrument type: LC-ESI-ITFT
Ms type: MS2
Ion mode: POSITIVE
Ionization: ESI
Fragmentation mode: HCD
Collision energy: 30 % (nominal)
Resolution: 15000
Column name: Kinetex Evo C18 2.6 um 50 x 2.1 mm
Retention time: 9.002 min
Base peak: 343.054
Precursor m/z: 343.0529
Precursor type: [M+H]+
Precursor intensity: 4558862
m/z	relative intensity	assigned
151.0331	999	CH13NO3S2+
160.0515	18	C2H12N2O4S+
192.0777	46	C11H12O3+
194.0393	35	C2H14N2O4S2+
219.0347	21	C11H9NO2S+
226.0651	9	C9H12N3O2S+
235.9955	43	C11H8O2S2+
251.0605	15	C12H13NO3S+
268.0213	18	C10H10N3O2S2+
277.0402	9	C11H9N4O3S+
311.0275	12	C11H11N4O3S2+
