Mass spectrum: Dodemorph; LC-ESI-ITFT; MS2; CE: 30%; R=15000; [M+H]+
Name: Dodemorph
Name: 4-cyclododecyl-2,6-dimethylmorpholine
Formula: C18H35NO
Exact mass: 281.27186474
SMILES: CC1CN(CC(C)O1)C1CCCCCCCCCCC1
InChI: InChI=1S/C18H35NO/c1-16-14-19(15-17(2)20-16)18-12-10-8-6-4-3-5-7-9-11-13-18/h16-18H,3-15H2,1-2H3
Instrument: LTQ Orbitrap XL Thermo Scientific
Instrument type: LC-ESI-ITFT
Ms type: MS2
Ion mode: POSITIVE
Ionization: ESI
Fragmentation mode: HCD
Collision energy: 30 % (nominal)
Resolution: 15000
Column name: Kinetex Evo C18 2.6 um 50 x 2.1 mm
Retention time: 8.644 min
Base peak: 282.2798
Precursor m/z: 282.2791
Precursor type: [M+H]+
Precursor intensity: 2842053.5
m/z	relative intensity	assigned
97.1015	4	C7H13+
98.0968	6	C6H12N+
116.1074	136	C6H14NO+
282.2798	999	C18H36NO+
