Mass spectrum: N-Phenyl-1-naphthylamine; LC-ESI-ITFT; MS2; CE: 50%; R=15000; [M+H]+
Name: N-Phenyl-1-naphthylamine
Name: N-phenylnaphthalen-1-amine
Formula: C16H13N
Exact mass: 219.104799416
SMILES: N(C1=CC=CC=C1)C1=CC=CC2=C1C=CC=C2
InChI: InChI=1S/C16H13N/c1-2-9-14(10-3-1)17-16-12-6-8-13-7-4-5-11-15(13)16/h1-12,17H
Instrument: LTQ Orbitrap XL Thermo Scientific
Instrument type: LC-ESI-ITFT
Ms type: MS2
Ion mode: POSITIVE
Ionization: ESI
Fragmentation mode: HCD
Collision energy: 50 % (nominal)
Resolution: 15000
Column name: Kinetex Evo C18 2.6 um 50 x 2.1 mm
Retention time: 12.742 min
Base peak: 220.1122
Precursor m/z: 220.1121
Precursor type: [M+H]+
Precursor intensity: 21759668
m/z	relative intensity	assigned
65.0383	3	C5H5+
92.0493	124	C6H6N+
93.0571	17	C6H7N+
104.0491	1	C7H6N+
115.054	29	C9H7+
117.07	2	C9H9+
128.0618	48	C10H8+
142.065	81	C10H8N+
143.0727	479	C10H9N+
178.0776	1	C14H10+
193.1008	6	C15H13+
202.0772	2	C16H10+
203.0852	23	C16H11+
204.0805	4	C15H10N+
204.0932	2	C16H12+
205.0883	18	C15H11N+
218.0965	4	C16H12N+
219.1048	10	C16H13N+
220.1116	999	C16H14N+
