Mass spectrum: Clothianidin; LC-ESI-ITFT; MS2; CE: 80%; R=15000; [M+H]+
Name: Clothianidin
Name: 1-[(2-chloro-1,3-thiazol-5-yl)methyl]-2-methyl-3-nitroguanidine
Formula: C6H8ClN5O2S
Exact mass: 249.008723176
SMILES: CN\C(NCC1=CN=C(Cl)S1)=N/[N+]([O-])=O
InChI: InChI=1S/C6H8ClN5O2S/c1-8-6(11-12(13)14)10-3-4-2-9-5(7)15-4/h2H,3H2,1H3,(H2,8,10,11)
Instrument: LTQ Orbitrap XL Thermo Scientific
Instrument type: LC-ESI-ITFT
Ms type: MS2
Ion mode: POSITIVE
Ionization: ESI
Fragmentation mode: HCD
Collision energy: 80 % (nominal)
Resolution: 15000
Column name: Kinetex Evo C18 2.6 um 50 x 2.1 mm
Retention time: 5.688 min
Base peak: 230.0076
Precursor m/z: 250.016
Precursor type: [M+H]+
Precursor intensity: 4023444.25
m/z	relative intensity	assigned
54.0337	29	C3H4N+
57.0446	41	C2H5N2+
70.995	160	C3H3S+
86.006	75	C3H4NS+
96.0558	39	C4H6N3+
109.0635	21	C5H7N3+
110.0715	442	C5H8N3+
111.0793	327	C5H9N3+
113.017	873	C4H5N2S+
118.9594	19	C3H2ClNS+
119.9672	36	C3H3ClNS+
131.9671	999	C4H3ClNS+
132.9749	41	C4H4ClNS+
142.0439	36	C5H8N3S+
146.9781	57	C4H4ClN2S+
147.9861	36	C4H5ClN2S+
153.023	36	C5H5N4S+
167.0392	22	C6H7N4S+
169.0545	121	C6H9N4S+
174.9731	19	C5H4ClN2OS+
