Mass spectrum: Progesterone; LC-ESI-ITFT; MS2; CE: 55; R=15000; [M+H]+
Name: Progesterone
Name: (8S,9S,10R,13S,14S,17S)-17-Acetyl-10,13-dimethyl-1,2,6,7,8,9,11,12,14,15,16,17-dodecahydrocyclopenta[a]phenanthren-3-one
Formula: C21H30O2
Exact mass: 314.2246
SMILES: CC(=O)[C@H]1CC[C@H]2[C@@H]3CCC4=CC(=O)CC[C@]4(C)[C@H]3CC[C@]12C
InChI: InChI=1S/C21H30O2/c1-13(22)17-6-7-18-16-5-4-14-12-15(23)8-10-20(14,2)19(16)9-11-21(17,18)3/h12,16-19H,4-11H2,1-3H3/t16-,17+,18-,19-,20-,21+/m0/s1
Instrument: LTQ Orbitrap XL Thermo Scientific
Instrument type: LC-ESI-ITFT
Ms type: MS2
Ion mode: POSITIVE
Ionization: ESI
Fragmentation mode: CID
Collision energy: 55 (nominal)
Resolution: 15000
Column name: Kinetex Core-Shell C18 2.6 um, 3.0 x 100 mm, Phenomenex
Retention time: 26.182 min
Base peak: 315.2309
Precursor m/z: 315.2319
Precursor type: [M+H]+
m/z	relative intensity	assigned
95.0853	6	C7H11+
97.0646	249	C6H9O+
105.0698	8	C8H9+
107.0853	7	C8H11+
109.0645	152	C7H9O+
119.0854	16	C9H11+
121.1008	13	C9H13+
123.0803	37	C8H11O+
131.0853	16	C10H11+
133.1011	16	C10H13+
135.1165	14	C10H15+
143.0852	6	C11H11+
145.101	32	C11H13+
147.1166	21	C11H15+
149.1326	8	C11H17+
155.0852	5	C12H11+
157.101	19	C12H13+
159.1167	34	C12H15+
161.1324	13	C12H17+
163.1117	16	C11H15O+
165.1273	4	C11H17O+
169.1009	9	C13H13+
171.1166	33	C13H15+
173.0959	3	C12H13O+
173.1321	37	C13H17+
175.1116	6	C12H15O+
175.1478	13	C13H19+
177.1272	23	C12H17O+
179.1433	3	C12H19O+
183.1165	22	C14H15+
185.1321	24	C14H17+
187.1113	17	C13H15O+
187.148	16	C14H19+
189.1271	30	C13H17O+
189.1634	12	C14H21+
191.1425	12	C13H19O+
195.1169	6	C15H15+
197.1322	32	C15H17+
199.1476	22	C15H19+
201.1271	12	C14H17O+
201.1635	55	C15H21+
203.1426	13	C14H19O+
205.1588	4	C14H21O+
207.1752	2	C14H23O+
209.1321	23	C16H17+
211.148	20	C16H19+
213.127	8	C15H17O+
213.1635	46	C16H21+
215.1427	67	C15H19O+
215.1791	100	C16H23+
217.1583	12	C15H21O+
219.1738	20	C15H23O+
223.1478	80	C17H19+
225.1635	17	C17H21+
227.1427	16	C16H19O+
227.179	42	C17H23+
229.1583	56	C16H21O+
231.1746	5	C16H23O+
233.1896	32	C16H25O+
237.1635	33	C18H21+
239.1791	121	C18H23+
241.1584	67	C17H21O+
245.1896	43	C17H25O+
251.1792	22	C19H23+
253.1947	90	C19H25+
255.174	30	C18H23O+
255.2103	150	C19H27+
257.1895	18	C18H25O+
269.1899	26	C19H25O+
269.2262	18	C20H29+
271.2054	23	C19H27O+
273.221	96	C19H29O+
279.2102	427	C21H27+
297.2209	999	C21H29O+
