Mass spectrum: Enrofloxacin; LC-ESI-ITFT; MS2; CE: 30%; R=15000; [M+H]+
Name: Enrofloxacin
Name: 1-cyclopropyl-7-(4-ethylpiperazin-1-yl)-6-fluoro-4-oxoquinoline-3-carboxylic acid
Formula: C19H22FN3O3
Exact mass: 359.164519784
SMILES: CCN1CCN(CC1)C1=C(F)C=C2C(=O)C(=CN(C3CC3)C2=C1)C(O)=O
InChI: InChI=1S/C19H22FN3O3/c1-2-21-5-7-22(8-6-21)17-10-16-13(9-15(17)20)18(24)14(19(25)26)11-23(16)12-3-4-12/h9-12H,2-8H2,1H3,(H,25,26)
Instrument: LTQ Orbitrap XL Thermo Scientific
Instrument type: LC-ESI-ITFT
Ms type: MS2
Ion mode: POSITIVE
Ionization: ESI
Fragmentation mode: HCD
Collision energy: 30 % (nominal)
Resolution: 15000
Column name: Kinetex Evo C18 2.6 um 50 x 2.1 mm
Retention time: 5.878 min
Base peak: 311.1323
Precursor m/z: 360.1718
Precursor type: [M+H]+
Precursor intensity: 16509000
m/z	relative intensity	assigned
169.0164	2	C7H4FNO3+
231.0928	3	C13H12FN2O+
245.1086	77	C14H14FN2O+
288.1505	6	C16H19FN3O+
314.1669	9	C18H21FN3O+
316.1821	999	C18H23FN3O+
342.1614	127	C19H21FN3O2+
360.1719	611	C19H23FN3O3+
