Mass spectrum: Finasteride; LC-ESI-ITFT; MS2; CE: 55; R=15000; [M+H]+
Name: Finasteride
Name: (1S,3aS,3bS,5aR,9aR,9bS,11aS)-N-Tert-butyl-9a,11a-dimethyl-7-oxo-1,2,3,3a,3b,4,5,5a,6,9b,10,11-dodecahydroindeno[5,4-f]quinoline-1-carboxamide
Formula: C23H36N2O2
Exact mass: 372.2777
SMILES: CC(C)(C)NC(=O)[C@H]1CC[C@H]2[C@@H]3CC[C@H]4NC(=O)C=C[C@]4(C)[C@H]3CC[C@]12C
InChI: InChI=1S/C23H36N2O2/c1-21(2,3)25-20(27)17-8-7-15-14-6-9-18-23(5,13-11-19(26)24-18)16(14)10-12-22(15,17)4/h11,13-18H,6-10,12H2,1-5H3,(H,24,26)(H,25,27)/t14-,15-,16-,17+,18+,22-,23+/m0/s1
Instrument: LTQ Orbitrap XL Thermo Scientific
Instrument type: LC-ESI-ITFT
Ms type: MS2
Ion mode: POSITIVE
Ionization: ESI
Fragmentation mode: CID
Collision energy: 55 (nominal)
Resolution: 15000
Column name: Kinetex Core-Shell C18 2.6 um, 3.0 x 100 mm, Phenomenex
Retention time: 25.045 min
Base peak: 163.1328
Precursor m/z: 373.285
Precursor type: [M+H]+
m/z	relative intensity	assigned
107.0855	1	C8H11+
117.0702	1	C9H9+
119.0857	4	C9H11+
121.1013	5	C9H13+
128.0622	2	C10H8+
129.07	1	C10H9+
131.0857	5	C10H11+
133.1014	8	C10H13+
135.117	4	C10H15+
141.0702	1	C11H9+
143.0861	3	C11H11+
145.1014	7	C11H13+
147.0806	1	C10H11O+
147.1169	9	C11H15+
149.0963	1	C10H13O+
149.1326	2	C11H17+
150.0908	1	C9H12NO+
152.1076	1	C9H14NO+
155.0859	2	C12H11+
157.1015	4	C12H13+
159.0801	1	C11H11O+
159.1171	5	C12H15+
161.0963	4	C11H13O+
161.1327	3	C12H17+
163.1124	2	C11H15O+
169.1015	2	C13H13+
171.1171	5	C13H15+
173.0966	1	C12H13O+
173.1327	9	C13H17+
175.112	2	C12H15O+
175.1484	13	C13H19+
176.1077	1	C11H14NO+
177.1641	3	C13H21+
178.1233	2	C11H16NO+
180.1391	1	C11H18NO+
181.1017	3	C14H13+
183.1172	6	C14H15+
185.1327	8	C14H17+
187.1485	11	C14H19+
189.164	28	C14H21+
190.1676	1	C9H22N2O2+
192.1382	1	C12H18NO+
195.117	8	C15H15+
197.1329	8	C15H17+
199.1123	3	C14H15O+
199.1482	3	C15H19+
201.128	1	C14H17O+
201.1643	3	C15H21+
203.1432	2	C14H19O+
203.1797	3	C15H23+
209.1329	1	C16H17+
211.1486	5	C16H19+
213.128	2	C15H17O+
213.1641	10	C16H21+
215.1432	7	C15H19O+
215.1799	7	C16H23+
220.17	13	C14H22NO+
222.1855	1	C14H24NO+
223.1486	2	C17H19+
227.1433	1	C16H19O+
227.1798	13	C17H23+
229.159	1	C16H21O+
229.1953	7	C17H25+
232.17	15	C15H22NO+
234.1861	1	C15H24NO+
237.1642	24	C18H21+
239.1798	17	C18H23+
241.1595	1	C17H21O+
246.185	1	C16H24NO+
247.1488	3	C19H19+
249.1965	15	C15H25N2O+
254.1909	16	C18H24N+
255.1748	35	C18H23O+
256.2064	12	C18H26N+
257.1905	8	C18H25O+
258.1865	1	C17H24NO+
265.1593	5	C19H21O+
272.2013	18	C18H26NO+
274.2171	21	C18H28NO+
281.2024	2	C19H25N2+
282.1857	11	C19H24NO+
283.1697	10	C19H23O2+
288.2327	4	C19H30NO+
299.2128	7	C19H27N2O+
300.1965	5	C19H26NO2+
305.2591	999	C19H33N2O+
306.2627	45	C14H34N4O3+
317.2229	27	C19H29N2O2+
331.2748	7	C21H35N2O+
355.2749	71	C23H35N2O+
356.2776	5	C18H36N4O3+
357.2549	1	C22H33N2O2+
358.2628	1	C22H34N2O2+
