Mass spectrum: Diuron; LC-ESI-ITFT; MS2; CE: 70%; R=15000; [M+H]+
Name: Diuron
Name: 3-(3,4-dichlorophenyl)-1,1-dimethylurea
Formula: C9H10Cl2N2O
Exact mass: 232.0170183
SMILES: CN(C)C(=O)NC1=CC=C(Cl)C(Cl)=C1
InChI: InChI=1S/C9H10Cl2N2O/c1-13(2)9(14)12-6-3-4-7(10)8(11)5-6/h3-5H,1-2H3,(H,12,14)
Instrument: LTQ Orbitrap XL Thermo Scientific
Instrument type: LC-ESI-ITFT
Ms type: MS2
Ion mode: POSITIVE
Ionization: ESI
Fragmentation mode: HCD
Collision energy: 70 % (nominal)
Resolution: 15000
Column name: Kinetex Evo C18 2.6 um 50 x 2.1 mm
Retention time: 10.050 min
Base peak: 192.1389
Precursor m/z: 233.0243
Precursor type: [M+H]+
Precursor intensity: 14459623
m/z	relative intensity	assigned
55.054	26	C4H7+
72.0442	999	C3H6NO+
83.0854	22	C6H11+
132.9607	4	C5H3Cl2+
152.9982	4	C4H7Cl2N2+
159.9715	94	C6H4Cl2N+
187.9665	9	C7H4Cl2NO+
