Mass spectrum: Prothioconazole-desthio; LC-ESI-ITFT; MS2; CE: 35; R=15000; [M+H]+
Name: Prothioconazole-desthio
Name: 2-(1-Chlorocyclopropyl)-1-(2-chlorophenyl)-3-(1,2,4-triazol-1-yl)propan-2-ol
Formula: C14H15Cl2N3O
Exact mass: 311.0592
SMILES: OC(CN1C=NC=N1)(CC1=CC=CC=C1Cl)C1(Cl)CC1
InChI: InChI=1S/C14H15Cl2N3O/c15-12-4-2-1-3-11(12)7-14(20,13(16)5-6-13)8-19-10-17-9-18-19/h1-4,9-10,20H,5-8H2
Instrument: LTQ Orbitrap XL Thermo Scientific
Instrument type: LC-ESI-ITFT
Ms type: MS2
Ion mode: POSITIVE
Ionization: ESI
Fragmentation mode: CID
Collision energy: 35 (nominal)
Resolution: 15000
Column name: Kinetex Core-Shell C18 2.6 um, 3.0 x 100 mm, Phenomenex
Retention time: 25.640 min
Base peak: 316.1071
Precursor m/z: 312.0665
Precursor type: [M+H]+
m/z	relative intensity	assigned
125.0151	999	C7H6Cl+
139.0313	30	C8H8Cl+
151.0307	59	C9H8Cl+
153.0697	97	C12H9+
154.0776	132	C12H10+
158.9758	90	C7H5Cl2+
163.0313	30	C10H8Cl+
177.046	38	C11H10Cl+
179.0624	40	C11H12Cl+
189.0464	947	C12H10Cl+
196.9919	34	C10H7Cl2+
207.0566	43	C12H12ClO+
225.0231	132	C12H11Cl2+
294.056	104	C14H14Cl2N3+
