Mass spectrum: Simetryn; LC-ESI-ITFT; MS2; CE: 55; R=15000; [M+H]+
Name: Simetryn
Name: 2-N,4-N-Diethyl-6-methylsulfanyl-1,3,5-triazine-2,4-diamine
Formula: C8H15N5S
Exact mass: 213.1048
SMILES: CCNC1=NC(SC)=NC(NCC)=N1
InChI: InChI=1S/C8H15N5S/c1-4-9-6-11-7(10-5-2)13-8(12-6)14-3/h4-5H2,1-3H3,(H2,9,10,11,12,13)
Instrument: LTQ Orbitrap XL Thermo Scientific
Instrument type: LC-ESI-ITFT
Ms type: MS2
Ion mode: POSITIVE
Ionization: ESI
Fragmentation mode: CID
Collision energy: 55 (nominal)
Resolution: 15000
Column name: Kinetex Core-Shell C18 2.6 um, 3.0 x 100 mm, Phenomenex
Retention time: 20.093 min
Base peak: 163.1327
Precursor m/z: 214.1121
Precursor type: [M+H]+
m/z	relative intensity	assigned
68.0242	30	C2H2N3+
71.0602	12	C3H7N2+
74.0059	5	C2H4NS+
96.0555	113	C4H6N3+
102.037	14	C4H8NS+
116.0275	15	C3H6N3S+
124.0868	999	C6H10N3+
141.1132	3	C6H13N4+
144.0589	269	C5H10N3S+
158.049	3	C4H8N5S+
159.07	5	C5H11N4S+
166.1086	275	C7H12N5+
168.1247	4	C7H14N5+
186.0806	451	C6H12N5S+
