Mass spectrum: Lauramidopropyl betaine; LC-ESI-ITFT; MS2; CE: 65%; R=15000; [M]+
Name: Lauramidopropyl betaine
Name: 3-(Dodecanoylamino)propyl(carboxymethyl)dimethylammonium
Name: carboxymethyl-[3-(dodecanoylamino)propyl]-dimethylazanium
Formula: [C19H39N2O3]+
Exact mass: 343.2961
SMILES: CCCCCCCCCCCC(=O)NCCC[N+](C)(C)CC(O)=O
InChI: InChI=1S/C19H38N2O3/c1-4-5-6-7-8-9-10-11-12-14-18(22)20-15-13-16-21(2,3)17-19(23)24/h4-17H2,1-3H3,(H-,20,22,23,24)/p+1
Instrument: LTQ Orbitrap XL Thermo Scientific
Instrument type: LC-ESI-ITFT
Ms type: MS2
Ion mode: POSITIVE
Ionization: ESI
Fragmentation mode: HCD
Collision energy: 65 % (nominal)
Resolution: 15000
Column name: Kinetex Evo C18 2.6 um 50 x 2.1 mm
Retention time: 12.523 min
Base peak: 343.2953
Precursor m/z: 343.2955
Precursor type: [M]+
m/z	relative intensity	assigned
55.0541	89	C4H7+
57.0697	190	C4H9+
67.0542	173	C5H7+
71.0856	205	C5H11+
81.0699	182	C6H9+
83.0855	113	C6H11+
85.1013	136	C6H13+
95.0855	505	C7H11+
109.1012	304	C8H13+
123.1169	60	C9H15+
158.2695	25	C5H36NO3+
240.2325	999	C15H30NO+
