Mass spectrum: N,N-Dimethyltetradecylamine-N-oxide; LC-ESI-ITFT; MS2; CE: 60%; R=15000; [M+H]+
Name: N,N-Dimethyltetradecylamine-N-oxide
Name: 1-Tetradecanamine, N,N-dimethyl-, N-oxide
Name: N,N-dimethyltetradecan-1-amine oxide
Formula: C16H35NO
Exact mass: 257.27186474
SMILES: CCCCCCCCCCCCCC[N+](C)(C)[O-]
InChI: InChI=1S/C16H35NO/c1-4-5-6-7-8-9-10-11-12-13-14-15-16-17(2,3)18/h4-16H2,1-3H3
Instrument: LTQ Orbitrap XL Thermo Scientific
Instrument type: LC-ESI-ITFT
Ms type: MS2
Ion mode: POSITIVE
Ionization: ESI
Fragmentation mode: HCD
Collision energy: 60 % (nominal)
Resolution: 15000
Column name: Kinetex Evo C18 2.6 um 50 x 2.1 mm
Retention time: 11.745 min
Base peak: 258.2795
Precursor m/z: 258.2791
Precursor type: [M+H]+
Precursor intensity: 61812228
m/z	relative intensity	assigned
57.0696	592	C4H9+
62.0597	999	C2H8NO+
69.0696	24	C5H9+
71.0853	327	C5H11+
83.0852	15	C6H11+
85.1011	108	C6H13+
100.1119	15	C6H14N+
114.1276	22	C7H16N+
226.2535	13	C15H32N+
240.2684	454	C16H34N+
258.279	391	C16H36NO+
