Mass spectrum: Promethazin; LC-ESI-ITFT; MS2; CE: 50%; R=15000; [M+H]+
Name: Promethazin
Name: Promethazine
Name: N,N-dimethyl-1-phenothiazin-10-ylpropan-2-amine
Formula: C17H20N2S
Exact mass: 284.13471964
SMILES: CC(CN1C2=CC=CC=C2SC2=CC=CC=C12)N(C)C
InChI: InChI=1S/C17H20N2S/c1-13(18(2)3)12-19-14-8-4-6-10-16(14)20-17-11-7-5-9-15(17)19/h4-11,13H,12H2,1-3H3
Instrument: LTQ Orbitrap XL Thermo Scientific
Instrument type: LC-ESI-ITFT
Ms type: MS2
Ion mode: POSITIVE
Ionization: ESI
Fragmentation mode: HCD
Collision energy: 50 % (nominal)
Resolution: 15000
Column name: Kinetex Evo C18 2.6 um 50 x 2.1 mm
Retention time: 8.263 min
Base peak: 285.1423
Precursor m/z: 285.142
Precursor type: [M+H]+
Precursor intensity: 6471145.5
m/z	relative intensity	assigned
71.0729	10	C4H9N+
84.0808	1	C5H10N+
86.0964	999	C5H12N+
105.0701	2	C8H9+
162.0372	11	C9H8NS+
198.0373	296	C12H8NS+
206.0968	2	C15H12N+
207.1043	4	C15H13N+
225.0608	10	C14H11NS+
240.0842	72	C15H14NS+
