Mass spectrum: Ciclopirox; LC-ESI-ITFT; MS2; CE: 60%; R=15000; [M+H]+
Name: Ciclopirox
Name: 6-cyclohexyl-1-hydroxy-4-methylpyridin-2-one
Formula: C12H17NO2
Exact mass: 207.125928784
SMILES: CC1=CC(=O)N(O)C(=C1)C1CCCCC1
InChI: InChI=1S/C12H17NO2/c1-9-7-11(13(15)12(14)8-9)10-5-3-2-4-6-10/h7-8,10,15H,2-6H2,1H3
Instrument: LTQ Orbitrap XL Thermo Scientific
Instrument type: LC-ESI-ITFT
Ms type: MS2
Ion mode: POSITIVE
Ionization: ESI
Fragmentation mode: HCD
Collision energy: 60 % (nominal)
Resolution: 15000
Column name: Kinetex Evo C18 2.6 um 50 x 2.1 mm
Retention time: 11.211 min
Base peak: 116.9863
Precursor m/z: 208.1332
Precursor type: [M+H]+
Precursor intensity: 714056.88
m/z	relative intensity	assigned
53.0386	63	C4H5+
55.0543	31	C4H7+
67.0542	12	C5H7+
79.0546	24	C6H7+
80.0498	45	C5H6N+
81.0702	125	C6H9+
82.0655	35	C5H8N+
83.0858	18	C6H11+
91.0547	13	C7H7+
94.0656	90	C6H8N+
105.0703	25	C8H9+
107.0733	9	C7H9N+
108.0449	26	C6H6NO+
119.0861	10	C9H11+
120.0813	24	C8H10N+
122.0606	49	C7H8NO+
123.0683	90	C7H9NO+
124.076	7	C7H10NO+
126.0555	11	C6H8NO2+
134.0968	15	C9H12N+
136.0763	185	C8H10NO+
148.0762	25	C9H10NO+
149.0835	7	C9H11NO+
150.092	12	C9H12NO+
162.092	64	C10H12NO+
162.1284	102	C11H16N+
176.1076	7	C11H14NO+
191.1312	9	C12H17NO+
208.1341	999	C12H18NO2+
