Mass spectrum: Metazachlor BH 479-11; LC-ESI-ITFT; MS2; CE: 70%; R=15000; [M+H]+
Name: Metazachlor BH 479-11
Name: N-(2,6-dimethylphenyl)-2-methylsulfinyl-N-(pyrazol-1-ylmethyl)acetamide
Formula: C15H19N3O2S
Exact mass: 305.119797848
SMILES: CC1=CC=CC(C)=C1N(CN1C=CC=N1)C(=O)CS(C)=O
InChI: InChI=1S/C15H19N3O2S/c1-12-6-4-7-13(2)15(12)18(14(19)10-21(3)20)11-17-9-5-8-16-17/h4-9H,10-11H2,1-3H3
Instrument: LTQ Orbitrap XL Thermo Scientific
Instrument type: LC-ESI-ITFT
Ms type: MS2
Ion mode: POSITIVE
Ionization: ESI
Fragmentation mode: HCD
Collision energy: 70 % (nominal)
Resolution: 15000
Column name: Kinetex Evo C18 2.6 um 50 x 2.1 mm
Retention time: 7.869 min
Base peak: 306.1282
Precursor m/z: 306.1271
Precursor type: [M+H]+
Precursor intensity: 23311596
m/z	relative intensity	assigned
61.0105	53	C2H5S+
62.9898	60	CH3OS+
77.0055	20	C2H5OS+
105.0005	174	C3H5O2S+
105.0699	43	C8H9+
107.0852	2	C8H11+
118.065	2	C8H8N+
132.081	19	C9H10N+
133.0761	2	C8H9N2+
133.0888	14	C9H11N+
134.0965	999	C9H12N+
146.0971	2	C10H12N+
156.0811	5	C11H10N+
160.0761	6	C10H10NO+
175.0992	13	C11H13NO+
