Mass spectrum: L-Thyroxine; LC-ESI-ITFT; MS2; CE: 20%; R=15000; [M+H]+
Name: L-Thyroxine
Name: Levothyroxine
Name: (2S)-2-amino-3-[4-(4-hydroxy-3,5-diiodophenoxy)-3,5-diiodophenyl]propanoic acid
Formula: C15H11I4NO4
Exact mass: 776.686699832
SMILES: N[C@@H](CC1=CC(I)=C(OC2=CC(I)=C(O)C(I)=C2)C(I)=C1)C(O)=O
InChI: InChI=1S/C15H11I4NO4/c16-8-4-7(5-9(17)13(8)21)24-14-10(18)1-6(2-11(14)19)3-12(20)15(22)23/h1-2,4-5,12,21H,3,20H2,(H,22,23)/t12-/m0/s1
Instrument: LTQ Orbitrap XL Thermo Scientific
Instrument type: LC-ESI-ITFT
Ms type: MS2
Ion mode: POSITIVE
Ionization: ESI
Fragmentation mode: HCD
Collision energy: 20 % (nominal)
Resolution: 15000
Column name: Kinetex Evo C18 2.6 um 50 x 2.1 mm
Retention time: 11.023 min
Base peak: 322.0676
Precursor m/z: 777.694
Precursor type: [M+H]+
Precursor intensity: 3408372.75
m/z	relative intensity	assigned
350.9746	6	C14H10INO2+
379.9535	55	C15H9IO4+
386.8375	6	C8H5I2O2+
464.8472	15	C13H7I2O3+
488.8471	6	C15H7I2O3+
576.7636	14	C13H8I3O2+
604.7829	26	C14H10I3NO2+
633.762	323	C15H9I3O4+
718.6577	32	C13H7I4O3+
731.6884	999	C14H10I4NO2+
760.667	29	C15H9I4O4+
777.693	118	C15H12I4NO4+
