Mass spectrum: Isoproturon; LC-ESI-ITFT; MS2; CE: 80; R=15000; [M+H]+
Name: Isoproturon
Name: 1,1-Dimethyl-3-(4-propan-2-ylphenyl)urea
Formula: C12H18N2O
Exact mass: 206.1419
SMILES: CC(C)C1=CC=C(NC(=O)N(C)C)C=C1
InChI: InChI=1S/C12H18N2O/c1-9(2)10-5-7-11(8-6-10)13-12(15)14(3)4/h5-9H,1-4H3,(H,13,15)
Instrument: LTQ Orbitrap XL Thermo Scientific
Instrument type: LC-ESI-ITFT
Ms type: MS2
Ion mode: POSITIVE
Ionization: ESI
Fragmentation mode: HCD
Collision energy: 80 (nominal)
Resolution: 15000
Column name: Kinetex Core-Shell C18 2.6 um, 3.0 x 100 mm, Phenomenex
Retention time: 23.351 min
Base peak: 242.143
Precursor m/z: 207.1492
Precursor type: [M+H]+
m/z	relative intensity	assigned
72.0442	999	C3H6NO+
107.0854	34	C8H11+
117.0698	13	C9H9+
120.0443	15	C7H6NO+
134.0963	111	C9H12N+
147.0917	17	C9H11N2+
162.0915	6	C10H12NO+
165.1019	7	C9H13N2O+
