Mass spectrum: Amitriptyline; LC-ESI-ITFT; MS2; CE: 90%; R=15000; [M+H]+
Name: Amitriptyline
Name: N,N-dimethyl-3-(2-tricyclo[9.4.0.03,8]pentadeca-1(15),3,5,7,11,13-hexaenylidene)propan-1-amine
Formula: C20H23N
Exact mass: 277.183049736
SMILES: CN(C)CCC=C1C2=CC=CC=C2CCC2=CC=CC=C12
InChI: InChI=1S/C20H23N/c1-21(2)15-7-12-20-18-10-5-3-8-16(18)13-14-17-9-4-6-11-19(17)20/h3-6,8-12H,7,13-15H2,1-2H3
Instrument: LTQ Orbitrap XL Thermo Scientific
Instrument type: LC-ESI-ITFT
Ms type: MS2
Ion mode: POSITIVE
Ionization: ESI
Fragmentation mode: HCD
Collision energy: 90 % (nominal)
Resolution: 15000
Column name: Kinetex Evo C18 2.6 um 50 x 2.1 mm
Retention time: 8.815 min
Base peak: 278.1915
Precursor m/z: 278.1903
Precursor type: [M+H]+
Precursor intensity: 17605484
m/z	relative intensity	assigned
55.054	5	C4H7+
58.065	62	C3H8N+
70.0651	74	C4H8N+
72.0808	4	C4H10N+
77.0386	32	C6H5+
79.0543	83	C6H7+
84.0809	283	C5H10N+
85.0887	25	C5H11N+
91.0544	999	C7H7+
103.0544	101	C8H7+
105.0701	651	C8H9+
115.0544	321	C9H7+
117.07	607	C9H9+
128.0623	95	C10H8+
129.0701	277	C10H9+
131.0857	7	C10H11+
141.0701	102	C11H9+
142.0777	13	C11H10+
153.0701	67	C12H9+
154.078	34	C12H10+
155.0858	116	C12H11+
165.0702	70	C13H9+
167.0857	6	C13H11+
178.078	427	C14H10+
179.0859	176	C14H11+
189.0703	63	C15H9+
190.0781	156	C15H10+
191.0859	583	C15H11+
192.0938	105	C15H12+
193.1014	34	C15H13+
202.0781	106	C16H10+
203.0859	537	C16H11+
204.0938	202	C16H12+
205.1016	112	C16H13+
215.0859	38	C17H11+
216.094	33	C17H12+
217.1016	284	C17H13+
218.1095	139	C17H14+
231.1174	6	C18H15+
