Mass spectrum: Warfarin; LC-ESI-ITFT; MS2; CE: 55; R=15000; [M+H]+
Name: Warfarin
Name: 4-Cydroxy-3-(3-oxo-1-phenylbutyl)chromen-2-one
Formula: C19H16O4
Exact mass: 308.1049
SMILES: CC(=O)CC(C1=CC=CC=C1)C1=C(O)C2=CC=CC=C2OC1=O
InChI: InChI=1S/C19H16O4/c1-12(20)11-15(13-7-3-2-4-8-13)17-18(21)14-9-5-6-10-16(14)23-19(17)22/h2-10,15,21H,11H2,1H3
Instrument: LTQ Orbitrap XL Thermo Scientific
Instrument type: LC-ESI-ITFT
Ms type: MS2
Ion mode: POSITIVE
Ionization: ESI
Fragmentation mode: CID
Collision energy: 55 (nominal)
Resolution: 15000
Column name: Kinetex Core-Shell C18 2.6 um, 3.0 x 100 mm, Phenomenex
Retention time: 24.707 min
Base peak: 230.1163
Precursor m/z: 309.1121
Precursor type: [M+H]+
m/z	relative intensity	assigned
121.0284	3	C7H5O2+
129.0699	11	C10H9+
147.0804	117	C10H11O+
163.0389	999	C9H7O3+
189.0545	2	C11H9O3+
251.0703	266	C16H11O3+
291.1016	57	C19H15O3+
