Mass spectrum: Propyphenazon; LC-ESI-ITFT; MS2; CE: 80; R=15000; [M+H]+
Name: Propyphenazon
Name: Propyphenazone
Name: 1,5-dimethyl-2-phenyl-4-propan-2-ylpyrazol-3-one
Formula: C14H18N2O
Exact mass: 230.1419
SMILES: CC(C)C1=C(C)N(C)N(C1=O)C1=CC=CC=C1
InChI: InChI=1S/C14H18N2O/c1-10(2)13-11(3)15(4)16(14(13)17)12-8-6-5-7-9-12/h5-10H,1-4H3
Instrument: LTQ Orbitrap XL Thermo Scientific
Instrument type: LC-ESI-ITFT
Ms type: MS2
Ion mode: POSITIVE
Ionization: ESI
Fragmentation mode: HCD
Collision energy: 80 (nominal)
Resolution: 15000
Column name: Kinetex Core-Shell C18 2.6 um, 3.0 x 100 mm, Phenomenex
Retention time: 22.250 min
Base peak: 231.1492
Precursor m/z: 231.1492
Precursor type: [M+H]+
m/z	relative intensity	assigned
77.0386	246	C6H5+
79.0542	119	C6H7+
81.0698	68	C6H9+
82.0652	275	C5H8N+
91.0544	59	C7H7+
92.0495	345	C6H6N+
94.0652	188	C6H8N+
95.073	165	C6H9N+
96.0685	34	C5H8N2+
96.0808	364	C6H10N+
97.0888	57	C6H11N+
98.06	81	C5H8NO+
100.112	56	C6H14N+
104.0495	356	C7H6N+
105.0337	49	C7H5O+
110.0964	151	C7H12N+
112.1121	393	C7H14N+
118.0652	550	C8H8N+
120.0445	145	C7H6NO+
120.0809	425	C8H10N+
123.0918	30	C7H11N2+
124.0758	361	C7H10NO+
130.0652	219	C9H8N+
131.073	380	C9H9N+
132.0809	149	C9H10N+
133.0523	75	C8H7NO+
133.0761	131	C8H9N2+
134.0967	70	C9H12N+
142.065	49	C10H8N+
144.081	364	C10H10N+
145.0647	50	C10H9O+
146.084	157	C9H10N2+
146.0966	400	C10H12N+
147.092	74	C9H11N2+
157.0886	39	C11H11N+
158.0959	62	C11H12N+
160.0998	39	C10H12N2+
161.1075	107	C10H13N2+
172.076	53	C11H10NO+
174.0788	86	C10H10N2O+
189.1024	999	C11H13N2O+
201.1025	962	C12H13N2O+
231.1495	481	C14H19N2O+
