Mass spectrum: 1-Naphthylamine; LC-ESI-ITFT; MS2; CE: 70%; R=15000; [M+H]+
Name: 1-Naphthylamine
Name: naphthalen-1-amine
Formula: C10H9N
Exact mass: 143.073499288
SMILES: NC1=C2C=CC=CC2=CC=C1
InChI: InChI=1S/C10H9N/c11-10-7-3-5-8-4-1-2-6-9(8)10/h1-7H,11H2
Instrument: LTQ Orbitrap XL Thermo Scientific
Instrument type: LC-ESI-ITFT
Ms type: MS2
Ion mode: POSITIVE
Ionization: ESI
Fragmentation mode: HCD
Collision energy: 70 % (nominal)
Resolution: 15000
Column name: Kinetex Evo C18 2.6 um 50 x 2.1 mm
Retention time: 2.534 min
Base peak: 144.0809
Precursor m/z: 144.0808
Precursor type: [M+H]+
Precursor intensity: 22160560
m/z	relative intensity	assigned
91.0542	1	C7H7+
103.0539	1	C8H7+
115.054	4	C9H7+
116.0496	1	C8H6N+
117.0697	124	C9H9+
127.054	38	C10H7+
128.0619	17	C10H8+
143.0729	175	C10H9N+
144.0805	999	C10H10N+
