Mass spectrum: 5-Chlorobenzotriazole; LC-ESI-ITFT; MS2; CE: 80%; R=15000; [M+H]+
Name: 5-Chlorobenzotriazole
Name: 5-chloro-2H-benzotriazole
Formula: C6H4ClN3
Exact mass: 153.009374808
SMILES: ClC1=CC2=NNN=C2C=C1
InChI: InChI=1S/C6H4ClN3/c7-4-1-2-5-6(3-4)9-10-8-5/h1-3H,(H,8,9,10)
Instrument: LTQ Orbitrap XL Thermo Scientific
Instrument type: LC-ESI-ITFT
Ms type: MS2
Ion mode: POSITIVE
Ionization: ESI
Fragmentation mode: HCD
Collision energy: 80 % (nominal)
Resolution: 15000
Column name: Kinetex Evo C18 2.6 um 50 x 2.1 mm
Retention time: 7.274 min
Base peak: 154.0167
Precursor m/z: 154.0167
Precursor type: [M+H]+
Precursor intensity: 15769845
m/z	relative intensity	assigned
64.018	2	C4H2N+
72.9837	46	C3H2Cl+
90.0336	403	C6H4N+
91.0414	96	C6H5N+
98.9993	793	C5H4Cl+
119.0475	2	C6H5N3+
125.0024	3	C6H4ClN+
126.0102	203	C6H5ClN+
154.0163	999	C6H5ClN3+
