Mass spectrum: Allethrin; LC-ESI-ITFT; MS2; CE: 60%; R=15000; [M+H]+
Name: Allethrin
Name: (2-methyl-4-oxo-3-prop-2-enylcyclopent-2-en-1-yl) 2,2-dimethyl-3-(2-methylprop-1-enyl)cyclopropane-1-carboxylate
Formula: C19H26O3
Exact mass: 302.188194692
SMILES: CC(C)=CC1C(C(=O)OC2CC(=O)C(CC=C)=C2C)C1(C)C
InChI: InChI=1S/C19H26O3/c1-7-8-13-12(4)16(10-15(13)20)22-18(21)17-14(9-11(2)3)19(17,5)6/h7,9,14,16-17H,1,8,10H2,2-6H3
Instrument: LTQ Orbitrap XL Thermo Scientific
Instrument type: LC-ESI-ITFT
Ms type: MS2
Ion mode: POSITIVE
Ionization: ESI
Fragmentation mode: HCD
Collision energy: 60 % (nominal)
Resolution: 15000
Column name: Kinetex Evo C18 2.6 um 50 x 2.1 mm
Retention time: 13.618 min
Base peak: 255.1747
Precursor m/z: 303.1955
Precursor type: [M+H]+
Precursor intensity: 1854251.75
m/z	relative intensity	assigned
69.07	90	C5H9+
79.0543	267	C6H7+
81.07	381	C6H9+
91.0544	167	C7H7+
93.0702	357	C7H9+
95.0857	245	C7H11+
105.0699	258	C8H9+
107.0857	310	C8H11+
109.065	291	C7H9O+
109.1009	54	C8H13+
119.0858	112	C9H11+
121.065	341	C8H9O+
121.1014	999	C9H13+
123.117	174	C9H15+
131.0854	76	C10H11+
133.1017	60	C10H13+
135.0806	141	C9H11O+
137.0963	150	C9H13O+
139.1116	87	C9H15O+
145.1013	66	C11H13+
149.0962	348	C10H13O+
157.1016	65	C12H13+
201.1278	54	C14H17O+
