Mass spectrum: Exemestane; LC-ESI-ITFT; MS2; CE: 80%; R=15000; [M+H]+
Name: Exemestane
Name: (8R,9S,10R,13S,14S)-10,13-dimethyl-6-methylidene-7,8,9,11,12,14,15,16-octahydrocyclopenta[a]phenanthrene-3,17-dione
Formula: C20H24O2
Exact mass: 296.177630008
SMILES: [H][C@@]12CCC(=O)[C@@]1(C)CC[C@@]1([H])[C@@]2([H])CC(=C)C2=CC(=O)C=C[C@]12C
InChI: InChI=1S/C20H24O2/c1-12-10-14-15-4-5-18(22)20(15,3)9-7-16(14)19(2)8-6-13(21)11-17(12)19/h6,8,11,14-16H,1,4-5,7,9-10H2,2-3H3/t14-,15-,16-,19+,20-/m0/s1
Instrument: LTQ Orbitrap XL Thermo Scientific
Instrument type: LC-ESI-ITFT
Ms type: MS2
Ion mode: POSITIVE
Ionization: ESI
Fragmentation mode: HCD
Collision energy: 80 % (nominal)
Resolution: 15000
Column name: Kinetex Evo C18 2.6 um 50 x 2.1 mm
Retention time: 11.126 min
Base peak: 297.1854
Precursor m/z: 297.1849
Precursor type: [M+H]+
Precursor intensity: 21084264
m/z	relative intensity	assigned
67.054	96	C5H7+
77.0383	41	C6H5+
79.054	542	C6H7+
81.0696	95	C6H9+
91.054	498	C7H7+
93.0697	999	C7H9+
95.0854	71	C7H11+
97.0645	100	C6H9O+
105.0697	700	C8H9+
107.0853	491	C8H11+
109.0645	68	C7H9O+
115.0542	50	C9H7+
117.0696	114	C9H9+
119.0852	228	C9H11+
121.0646	890	C8H9O+
121.1008	278	C9H13+
129.0696	80	C10H9+
131.0853	137	C10H11+
132.0568	75	C9H8O+
133.1006	54	C10H13+
135.0803	203	C9H11O+
145.0648	52	C10H9O+
145.1013	80	C11H13+
146.0722	59	C10H10O+
147.0801	134	C10H11O+
149.0961	89	C10H13O+
158.0718	75	C11H10O+
159.0797	87	C11H11O+
161.0955	84	C11H13O+
171.0804	53	C12H11O+
173.0954	75	C12H13O+
185.0959	124	C13H13O+
197.0966	39	C14H13O+
