Mass spectrum: Enalapril; LC-ESI-ITFT; MS2; CE: 80%; R=15000; [M+H]+
Name: Enalapril
Name: (2S)-1-[(2S)-2-[[(2S)-1-ethoxy-1-oxo-4-phenylbutan-2-yl]amino]propanoyl]pyrrolidine-2-carboxylic acid
Formula: C20H28N2O5
Exact mass: 376.199821996
SMILES: CCOC(=O)[C@H](CCC1=CC=CC=C1)N[C@@H](C)C(=O)N1CCC[C@H]1C(O)=O
InChI: InChI=1S/C20H28N2O5/c1-3-27-20(26)16(12-11-15-8-5-4-6-9-15)21-14(2)18(23)22-13-7-10-17(22)19(24)25/h4-6,8-9,14,16-17,21H,3,7,10-13H2,1-2H3,(H,24,25)/t14-,16-,17-/m0/s1
Instrument: LTQ Orbitrap XL Thermo Scientific
Instrument type: LC-ESI-ITFT
Ms type: MS2
Ion mode: POSITIVE
Ionization: ESI
Fragmentation mode: HCD
Collision energy: 80 % (nominal)
Resolution: 15000
Column name: Kinetex Evo C18 2.6 um 50 x 2.1 mm
Retention time: 8.096 min
Base peak: 377.2079
Precursor m/z: 377.2071
Precursor type: [M+H]+
Precursor intensity: 41445436
m/z	relative intensity	assigned
56.0492	159	C3H6N+
70.065	32	C4H8N+
73.0647	33	C4H9O+
74.0237	4	C2H4NO2+
82.065	7	C5H8N+
91.0542	999	C7H7+
98.0599	6	C5H8NO+
102.0549	148	C4H8NO2+
105.0699	11	C8H9+
115.0543	16	C9H7+
116.0705	11	C5H10NO2+
117.0698	799	C9H9+
128.0619	6	C10H8+
130.0862	73	C6H12NO2+
134.0964	41	C9H12N+
142.0866	5	C7H12NO2+
143.0856	7	C11H11+
160.1121	99	C11H14N+
