Mass spectrum: 7-(Ethylamino)-4-methylcoumarin; LC-ESI-ITFT; MS2; CE: 50%; R=15000; [M+H]+
Name: 7-(Ethylamino)-4-methylcoumarin
Name: 2H-1-Benzopyran-2-one, 7-(ethylamino)-4-methyl-
Name: 7-(ethylamino)-4-methylchromen-2-one
Formula: C12H13NO2
Exact mass: 203.094628656
SMILES: CCNC1=CC=C2C(C)=CC(=O)OC2=C1
InChI: InChI=1S/C12H13NO2/c1-3-13-9-4-5-10-8(2)6-12(14)15-11(10)7-9/h4-7,13H,3H2,1-2H3
Instrument: LTQ Orbitrap XL Thermo Scientific
Instrument type: LC-ESI-ITFT
Ms type: MS2
Ion mode: POSITIVE
Ionization: ESI
Fragmentation mode: HCD
Collision energy: 50 % (nominal)
Resolution: 15000
Column name: Kinetex Evo C18 2.6 um 50 x 2.1 mm
Retention time: 9.685 min
Base peak: 204.1027
Precursor m/z: 204.1019
Precursor type: [M+H]+
Precursor intensity: 33868312
m/z	relative intensity	assigned
68.0131	1	C3H2NO+
91.0542	3	C7H7+
96.0444	2	C5H6NO+
103.0543	1	C8H7+
105.0699	1	C8H9+
106.065	1	C7H8N+
117.0575	1	C8H7N+
117.07	1	C9H9+
118.0652	6	C8H8N+
119.0729	1	C8H9N+
130.0652	16	C9H8N+
131.0492	1	C9H7O+
131.073	14	C9H9N+
132.0808	13	C9H10N+
134.0965	2	C9H12N+
144.0809	10	C10H10N+
145.0887	7	C10H11N+
146.0595	1	C9H8NO+
147.0681	5	C9H9NO+
148.1122	66	C10H14N+
158.0968	5	C11H12N+
159.1044	1	C11H13N+
160.1122	44	C11H14N+
161.0836	7	C10H11NO+
162.0916	2	C10H12NO+
164.071	1	C9H10NO2+
175.063	9	C10H9NO2+
176.0709	6	C10H10NO2+
176.1071	34	C11H14NO+
189.0786	4	C11H11NO2+
204.102	999	C12H14NO2+
