Mass spectrum: Hydrocortisonacetate; LC-ESI-ITFT; MS2; CE: 80%; R=15000; [M+H]+
Name: Hydrocortisonacetate
Name: Hydrocortisone acetate
Name: [2-[(8S,9S,10R,11S,13S,14S,17R)-11,17-dihydroxy-10,13-dimethyl-3-oxo-2,6,7,8,9,11,12,14,15,16-decahydro-1H-cyclopenta[a]phenanthren-17-yl]-2-oxoethyl] acetate
Formula: C23H32O6
Exact mass: 404.219888744
SMILES: [H][C@@]12CC[C@](O)(C(=O)COC(C)=O)[C@@]1(C)C[C@H](O)[C@@]1([H])[C@@]2([H])CCC2=CC(=O)CC[C@]12C
InChI: InChI=1S/C23H32O6/c1-13(24)29-12-19(27)23(28)9-7-17-16-5-4-14-10-15(25)6-8-21(14,2)20(16)18(26)11-22(17,23)3/h10,16-18,20,26,28H,4-9,11-12H2,1-3H3/t16-,17-,18-,20+,21-,22-,23-/m0/s1
Instrument: LTQ Orbitrap XL Thermo Scientific
Instrument type: LC-ESI-ITFT
Ms type: MS2
Ion mode: POSITIVE
Ionization: ESI
Fragmentation mode: HCD
Collision energy: 80 % (nominal)
Resolution: 15000
Column name: Kinetex Evo C18 2.6 um 50 x 2.1 mm
Retention time: 10.716 min
Base peak: 271.1695
Precursor m/z: 405.2272
Precursor type: [M+H]+
Precursor intensity: 5960715
m/z	relative intensity	assigned
55.054	61	C4H7+
67.0541	120	C5H7+
69.0333	42	C4H5O+
69.0697	75	C5H9+
77.0386	32	C6H5+
79.0542	246	C6H7+
81.0698	242	C6H9+
83.049	170	C5H7O+
91.0542	439	C7H7+
93.0699	361	C7H9+
95.0491	56	C6H7O+
95.0855	155	C7H11+
97.0648	689	C6H9O+
99.044	55	C5H7O2+
105.0698	624	C8H9+
107.0491	86	C7H7O+
107.0855	194	C8H11+
109.0648	449	C7H9O+
115.0543	73	C9H7+
117.0698	287	C9H9+
119.0855	560	C9H11+
121.0648	999	C8H9O+
121.1012	77	C9H13+
123.0804	384	C8H11O+
128.0618	126	C10H8+
129.0699	258	C10H9+
130.0775	95	C10H10+
131.0855	389	C10H11+
133.0649	57	C9H9O+
133.1012	154	C10H13+
135.0805	116	C9H11O+
141.0697	158	C11H9+
142.0777	160	C11H10+
143.0854	392	C11H11+
144.0933	66	C11H12+
145.0649	62	C10H9O+
145.1011	405	C11H13+
147.0804	124	C10H11O+
147.1167	110	C11H15+
148.0882	58	C10H12O+
149.0961	58	C10H13O+
153.0697	67	C12H9+
154.0779	106	C12H10+
155.0855	239	C12H11+
156.0933	82	C12H12+
157.1011	279	C12H13+
159.0803	128	C11H11O+
159.1168	165	C12H15+
161.0959	66	C11H13O+
163.1117	235	C11H15O+
165.0697	103	C13H9+
166.0777	49	C13H10+
167.0855	108	C13H11+
168.0931	86	C13H12+
169.1011	210	C13H13+
171.0803	50	C12H11O+
171.1169	144	C13H15+
173.096	60	C12H13O+
173.1319	22	C13H17+
174.1036	21	C12H14O+
175.1115	45	C12H15O+
179.0855	82	C14H11+
180.0932	33	C14H12+
181.1013	126	C14H13+
182.1091	44	C14H14+
183.1168	131	C14H15+
185.0957	47	C13H13O+
185.1325	78	C14H17+
187.1117	52	C13H15O+
192.0933	26	C15H12+
193.1012	95	C15H13+
194.1085	27	C15H14+
195.1168	64	C15H15+
197.0962	40	C14H13O+
197.1321	50	C15H17+
199.1116	43	C14H15O+
199.1484	30	C15H19+
205.1006	37	C16H13+
206.1092	23	C16H14+
207.1173	47	C16H15+
208.1242	23	C16H16+
209.0966	18	C15H13O+
209.132	54	C16H17+
211.1118	65	C15H15O+
211.1483	37	C16H19+
213.1274	65	C15H17O+
219.1159	34	C17H15+
225.1276	39	C16H17O+
226.1345	52	C16H18O+
239.1442	20	C17H19O+
241.1582	28	C17H21O+
253.1585	82	C18H21O+
