Mass spectrum: Prothioconazole-desthio; LC-ESI-ITFT; MS2; CE: 90%; R=15000; [M+H]+
Name: Prothioconazole-desthio
Name: 2-(1-chlorocyclopropyl)-1-(2-chlorophenyl)-3-(1H-1,2,4-triazol-1-yl)propan-2-ol
Name: 2-(1-chlorocyclopropyl)-1-(2-chlorophenyl)-3-(1,2,4-triazol-1-yl)propan-2-ol
Formula: C14H15Cl2N3O
Exact mass: 311.05921746
SMILES: OC(CN1C=NC=N1)(CC1=CC=CC=C1Cl)C1(Cl)CC1
InChI: InChI=1S/C14H15Cl2N3O/c15-12-4-2-1-3-11(12)7-14(20,13(16)5-6-13)8-19-10-17-9-18-19/h1-4,9-10,20H,5-8H2
Instrument: LTQ Orbitrap XL Thermo Scientific
Instrument type: LC-ESI-ITFT
Ms type: MS2
Ion mode: POSITIVE
Ionization: ESI
Fragmentation mode: HCD
Collision energy: 90 % (nominal)
Resolution: 15000
Column name: Kinetex Evo C18 2.6 um 50 x 2.1 mm
Retention time: 11.738 min
Base peak: 312.0677
Precursor m/z: 312.0665
Precursor type: [M+H]+
Precursor intensity: 46590036
m/z	relative intensity	assigned
65.0384	11	C5H5+
70.0398	956	C2H4N3+
74.9995	6	C3H4Cl+
89.0386	48	C7H5+
103.0542	41	C8H7+
115.0543	24	C9H7+
116.062	36	C9H8+
125.0153	999	C7H6Cl+
128.062	19	C10H8+
129.07	14	C10H9+
130.0776	4	C10H10+
137.0152	8	C8H6Cl+
139.0309	9	C8H8Cl+
141.07	25	C11H9+
142.0777	27	C11H10+
149.0153	9	C9H6Cl+
151.0315	4	C9H8Cl+
152.0619	15	C12H8+
153.07	42	C12H9+
154.0779	28	C12H10+
155.0603	7	C10H7N2+
155.0855	3	C12H11+
158.9761	5	C7H5Cl2+
162.0231	9	C10H7Cl+
