Mass spectrum: Pendimethalin; LC-ESI-ITFT; MS2; CE: 55; R=15000; [M+H]+
Name: Pendimethalin
Name: 3,4-Dimethyl-2,6-dinitro-N-pentan-3-ylaniline
Formula: C13H19N3O4
Exact mass: 281.1376
SMILES: CCC(CC)NC1=C(C=C(C)C(C)=C1[N+]([O-])=O)[N+]([O-])=O
InChI: InChI=1S/C13H19N3O4/c1-5-10(6-2)14-12-11(15(17)18)7-8(3)9(4)13(12)16(19)20/h7,10,14H,5-6H2,1-4H3
Instrument: LTQ Orbitrap XL Thermo Scientific
Instrument type: LC-ESI-ITFT
Ms type: MS2
Ion mode: POSITIVE
Ionization: ESI
Fragmentation mode: HCD
Collision energy: 55 (nominal)
Resolution: 15000
Column name: Kinetex Core-Shell C18 2.6 um, 3.0 x 100 mm, Phenomenex
Retention time: 27.954 min
Base peak: 282.1445
Precursor m/z: 282.1448
Precursor type: [M+H]+
m/z	relative intensity	assigned
77.0386	27	C6H5+
78.0338	158	C5H4N+
79.0418	23	C5H5N+
80.0495	191	C5H6N+
81.0573	33	C5H7N+
90.034	20	C6H4N+
91.0417	453	C6H5N+
92.0495	215	C6H6N+
93.0449	41	C5H5N2+
93.0573	47	C6H7N+
96.0445	40	C5H6NO+
103.0417	152	C7H5N+
104.0371	34	C6H4N2+
104.0494	49	C7H6N+
105.0447	111	C6H5N2+
106.0287	28	C6H4NO+
106.0652	46	C7H8N+
107.0602	51	C6H7N2+
110.06	29	C6H8NO+
117.0448	78	C7H5N2+
117.0574	27	C8H7N+
118.0526	570	C7H6N2+
118.0653	30	C8H8N+
119.0604	552	C7H7N2+
120.0196	42	C5H2N3O+
120.0444	92	C7H6NO+
120.0682	59	C7H8N2+
121.0394	58	C6H5N2O+
122.0477	40	C6H6N2O+
126.055	101	C6H8NO2+
129.0448	63	C8H5N2+
130.0404	28	C7H4N3+
130.0526	123	C8H6N2+
131.0478	88	C7H5N3+
131.0603	167	C8H7N2+
132.0556	68	C7H6N3+
133.0397	33	C7H5N2O+
134.0601	56	C8H8NO+
135.0553	105	C7H7N2O+
136.0635	36	C7H8N2O+
147.0554	489	C8H7N2O+
148.0631	742	C8H8N2O+
149.0584	286	C7H7N3O+
160.0506	156	C8H6N3O+
163.05	35	C8H7N2O2+
164.0583	124	C8H8N2O2+
176.0456	55	C8H6N3O2+
177.0533	419	C8H7N3O2+
178.0612	505	C8H8N3O2+
188.1073	36	C12H14NO+
194.0561	999	C8H8N3O3+
212.0667	396	C8H10N3O4+
