Mass spectrum: 4-Methylbenzylidene camphor; LC-ESI-ITFT; MS2; CE: 60%; R=15000; [M+H]+
Name: 4-Methylbenzylidene camphor
Name: 1,7,7-trimethyl-3-[(4-methylphenyl)methylidene]bicyclo[2.2.1]heptan-2-one
Formula: C18H22O
Exact mass: 254.167065324
SMILES: CC1=CC=C(C=C2C3CCC(C)(C2=O)C3(C)C)C=C1
InChI: InChI=1S/C18H22O/c1-12-5-7-13(8-6-12)11-14-15-9-10-18(4,16(14)19)17(15,2)3/h5-8,11,15H,9-10H2,1-4H3
Instrument: LTQ Orbitrap XL Thermo Scientific
Instrument type: LC-ESI-ITFT
Ms type: MS2
Ion mode: POSITIVE
Ionization: ESI
Fragmentation mode: HCD
Collision energy: 60 % (nominal)
Resolution: 15000
Column name: Kinetex Evo C18 2.6 um 50 x 2.1 mm
Retention time: 13.558 min
Base peak: 255.1748
Precursor m/z: 255.1743
Precursor type: [M+H]+
Precursor intensity: 25738378
m/z	relative intensity	assigned
67.054	44	C5H7+
69.0333	51	C4H5O+
69.0696	97	C5H9+
71.049	17	C4H7O+
79.0541	53	C6H7+
81.0697	48	C6H9+
83.049	12	C5H7O+
83.0854	37	C6H11+
85.0648	22	C5H9O+
91.0541	51	C7H7+
93.0698	158	C7H9+
95.0854	87	C7H11+
97.0647	830	C6H9O+
105.0697	999	C8H9+
107.049	9	C7H7O+
107.0854	111	C8H11+
109.0647	29	C7H9O+
109.101	99	C8H13+
111.0803	479	C7H11O+
117.0697	59	C9H9+
119.049	240	C8H7O+
119.0854	541	C9H11+
121.0647	49	C8H9O+
121.101	80	C9H13+
123.0803	88	C8H11O+
123.1167	12	C9H15+
125.0959	9	C8H13O+
129.0698	44	C10H9+
131.0853	228	C10H11+
133.1009	53	C10H13+
135.0803	38	C9H11O+
135.1167	74	C10H15+
137.096	58	C9H13O+
141.0696	11	C11H9+
142.0775	85	C11H10+
143.0853	341	C11H11+
145.101	513	C11H13+
147.0801	24	C10H11O+
147.1166	49	C11H15+
149.0959	17	C10H13O+
150.1039	14	C10H14O+
155.0853	119	C12H11+
156.0932	126	C12H12+
157.101	605	C12H13+
159.0803	32	C11H11O+
159.1165	155	C12H15+
161.0963	9	C11H13O+
163.1115	101	C11H15O+
166.0776	55	C13H10+
167.0854	51	C13H11+
169.101	195	C13H13+
171.0802	134	C12H11O+
171.1166	640	C13H15+
173.096	29	C12H13O+
179.0852	45	C14H11+
180.0932	147	C14H12+
181.101	132	C14H13+
182.1088	58	C14H14+
183.1166	236	C14H15+
184.1244	7	C14H16+
185.0958	223	C13H13O+
185.1321	43	C14H17+
186.1036	30	C13H14O+
187.1116	24	C13H15O+
193.101	89	C15H13+
194.1089	93	C15H14+
195.1166	482	C15H15+
196.1242	18	C15H16+
197.0959	140	C14H13O+
197.1322	141	C15H17+
198.1035	21	C14H14O+
199.1115	265	C14H15O+
200.1193	7	C14H16O+
207.1166	103	C16H15+
208.1244	74	C16H16+
209.1323	87	C16H17+
211.1115	100	C15H15O+
211.1479	38	C16H19+
212.1193	845	C15H16O+
213.1271	216	C15H17O+
222.1401	100	C17H18+
226.1355	22	C16H18O+
227.1427	83	C16H19O+
237.1635	82	C18H21+
240.1511	41	C17H20O+
255.1742	61	C18H23O+
