Mass spectrum: Dimethachlor; LC-ESI-ITFT; MS2; CE: 30%; R=15000; [M+H]+
Name: Dimethachlor
Name: 2-chloro-N-(2,6-dimethylphenyl)-N-(2-methoxyethyl)acetamide
Formula: C13H18ClNO2
Exact mass: 255.102606496
SMILES: COCCN(C(=O)CCl)C1=C(C)C=CC=C1C
InChI: InChI=1S/C13H18ClNO2/c1-10-5-4-6-11(2)13(10)15(7-8-17-3)12(16)9-14/h4-6H,7-9H2,1-3H3
Instrument: LTQ Orbitrap XL Thermo Scientific
Instrument type: LC-ESI-ITFT
Ms type: MS2
Ion mode: POSITIVE
Ionization: ESI
Fragmentation mode: HCD
Collision energy: 30 % (nominal)
Resolution: 15000
Column name: Kinetex Evo C18 2.6 um 50 x 2.1 mm
Retention time: 11.147 min
Base peak: 334.1053
Precursor m/z: 256.1099
Precursor type: [M+H]+
Precursor intensity: 5106406
m/z	relative intensity	assigned
67.0541	54	C5H7+
85.0649	9	C5H9O+
189.9824	999	C10H3ClO2+
224.0839	501	C12H15ClNO+
