Mass spectrum: Dydrogesterone; LC-ESI-ITFT; MS2; CE: 90%; R=15000; [M+H]+
Name: Dydrogesterone
Name: (8S,9R,10S,13S,14S,17S)-17-acetyl-10,13-dimethyl-1,2,8,9,11,12,14,15,16,17-decahydrocyclopenta[a]phenanthren-3-one
Formula: C21H28O2
Exact mass: 312.208930136
SMILES: [H][C@@]12CC[C@H](C(C)=O)[C@@]1(C)CC[C@]1([H])[C@@]2([H])C=CC2=CC(=O)CC[C@@]12C
InChI: InChI=1S/C21H28O2/c1-13(22)17-6-7-18-16-5-4-14-12-15(23)8-10-20(14,2)19(16)9-11-21(17,18)3/h4-5,12,16-19H,6-11H2,1-3H3/t16-,17+,18-,19+,20+,21+/m0/s1
Instrument: LTQ Orbitrap XL Thermo Scientific
Instrument type: LC-ESI-ITFT
Ms type: MS2
Ion mode: POSITIVE
Ionization: ESI
Fragmentation mode: HCD
Collision energy: 90 % (nominal)
Resolution: 15000
Column name: Kinetex Evo C18 2.6 um 50 x 2.1 mm
Retention time: 12.059 min
Base peak: 313.2163
Precursor m/z: 313.2162
Precursor type: [M+H]+
Precursor intensity: 6661690
m/z	relative intensity	assigned
55.0177	50	C3H3O+
55.0541	160	C4H7+
67.0542	305	C5H7+
69.0699	67	C5H9+
71.0491	371	C4H7O+
77.0387	96	C6H5+
79.0544	461	C6H7+
81.07	393	C6H9+
83.0493	425	C5H7O+
85.065	89	C5H9O+
91.0544	739	C7H7+
93.0701	482	C7H9+
95.049	72	C6H7O+
95.0857	467	C7H11+
97.065	652	C6H9O+
105.0701	999	C8H9+
107.0494	138	C7H7O+
107.0857	250	C8H11+
109.065	284	C7H9O+
109.1015	75	C8H13+
115.0544	136	C9H7+
117.0701	401	C9H9+
119.0857	416	C9H11+
121.0649	253	C8H9O+
121.1014	47	C9H13+
123.0806	145	C8H11O+
128.0623	271	C10H8+
129.0701	490	C10H9+
130.0778	150	C10H10+
131.0858	568	C10H11+
133.065	81	C9H9O+
133.1015	170	C10H13+
135.0811	47	C9H11O+
141.07	276	C11H9+
142.078	318	C11H10+
143.0857	463	C11H11+
145.0649	64	C10H9O+
145.1014	342	C11H13+
146.073	49	C10H10O+
147.0805	130	C10H11O+
149.0965	75	C10H13O+
153.0705	113	C12H9+
154.078	147	C12H10+
155.0857	406	C12H11+
156.0935	162	C12H12+
157.1015	361	C12H13+
158.0725	70	C11H10O+
159.0806	90	C11H11O+
159.1169	144	C12H15+
161.0965	80	C11H13O+
163.1118	72	C11H15O+
165.0698	162	C13H9+
166.0779	105	C13H10+
167.0857	204	C13H11+
168.0938	99	C13H12+
169.1016	373	C13H13+
170.1093	69	C13H14+
171.1172	128	C13H15+
173.0964	124	C12H13O+
179.0857	129	C14H11+
180.0938	98	C14H12+
181.1015	232	C14H13+
182.1088	96	C14H14+
183.117	178	C14H15+
185.0969	44	C13H13O+
192.094	48	C15H12+
193.1015	92	C15H13+
194.1097	59	C15H14+
195.1173	178	C15H15+
199.1121	77	C14H15O+
200.119	53	C14H16O+
207.1168	71	C16H15+
209.1327	111	C16H17+
211.1118	44	C15H15O+
211.1483	47	C16H19+
213.1277	138	C15H17O+
214.1343	51	C15H18O+
225.1274	54	C16H17O+
227.1427	41	C16H19O+
