Mass spectrum: Ciclopirox; LC-ESI-ITFT; MS2; CE: 50%; R=15000; [M+H]+
Name: Ciclopirox
Name: 6-cyclohexyl-1-hydroxy-4-methylpyridin-2-one
Formula: C12H17NO2
Exact mass: 207.125928784
SMILES: CC1=CC(=O)N(O)C(=C1)C1CCCCC1
InChI: InChI=1S/C12H17NO2/c1-9-7-11(13(15)12(14)8-9)10-5-3-2-4-6-10/h7-8,10,15H,2-6H2,1H3
Instrument: LTQ Orbitrap XL Thermo Scientific
Instrument type: LC-ESI-ITFT
Ms type: MS2
Ion mode: POSITIVE
Ionization: ESI
Fragmentation mode: HCD
Collision energy: 50 % (nominal)
Resolution: 15000
Column name: Kinetex Evo C18 2.6 um 50 x 2.1 mm
Retention time: 11.211 min
Base peak: 116.9863
Precursor m/z: 208.1332
Precursor type: [M+H]+
Precursor intensity: 714056.88
m/z	relative intensity	assigned
53.0386	11	C4H5+
55.0541	6	C4H7+
79.0545	4	C6H7+
80.0498	11	C5H6N+
81.0702	39	C6H9+
82.0654	12	C5H8N+
83.0858	4	C6H11+
94.0656	25	C6H8N+
105.0703	7	C8H9+
108.0447	6	C6H6NO+
110.0603	4	C6H8NO+
123.0683	29	C7H9NO+
136.0763	41	C8H10NO+
148.0764	6	C9H10NO+
149.084	3	C9H11NO+
150.0919	3	C9H12NO+
162.092	14	C10H12NO+
162.1284	48	C11H16N+
208.134	999	C12H18NO2+
