Mass spectrum: Bisphenol S; LC-ESI-ITFT; MS2; CE: 55; R=15000; [M+H]+
Name: Bisphenol S
Name: 4,4`-Sulfonyldiphenol
Name: 4-(4-Hydroxyphenyl)sulfonylphenol
Formula: C12H10O4S
Exact mass: 250.0300
SMILES: OC1=CC=C(C=C1)S(=O)(=O)C1=CC=C(O)C=C1
InChI: InChI=1S/C12H10O4S/c13-9-1-5-11(6-2-9)17(15,16)12-7-3-10(14)4-8-12/h1-8,13-14H
Instrument: LTQ Orbitrap XL Thermo Scientific
Instrument type: LC-ESI-ITFT
Ms type: MS2
Ion mode: POSITIVE
Ionization: ESI
Fragmentation mode: HCD
Collision energy: 55 (nominal)
Resolution: 15000
Column name: Kinetex Core-Shell C18 2.6 um, 3.0 x 100 mm, Phenomenex
Retention time: 19.349 min
Base peak: 163.1324
Precursor m/z: 251.0373
Precursor type: [M+H]+
m/z	relative intensity	assigned
81.0334	13	C5H5O+
93.0333	183	C6H5O+
94.0412	12	C6H6O+
109.0283	328	C6H5O2+
110.036	3	C6H6O2+
111.0439	65	C6H7O2+
121.0394	999	C6H5N2O+
122.0365	7	C7H6O2+
141.0003	6	C6H5O2S+
142.0081	2	C6H6O2S+
156.9952	337	C6H5O3S+
251.0371	21	C12H11O4S+
