Mass spectrum: Benzidine; LC-ESI-ITFT; MS2; CE: 30%; R=15000; [M+H]+
Name: Benzidine
Name: 4-(4-aminophenyl)aniline
Formula: C12H12N2
Exact mass: 184.100048384
SMILES: NC1=CC=C(C=C1)C1=CC=C(N)C=C1
InChI: InChI=1S/C12H12N2/c13-11-5-1-9(2-6-11)10-3-7-12(14)8-4-10/h1-8H,13-14H2
Instrument: LTQ Orbitrap XL Thermo Scientific
Instrument type: LC-ESI-ITFT
Ms type: MS2
Ion mode: POSITIVE
Ionization: ESI
Fragmentation mode: HCD
Collision energy: 30 % (nominal)
Resolution: 15000
Column name: Kinetex Evo C18 2.6 um 50 x 2.1 mm
Retention time: 0.550 min
Base peak: 185.1076
Precursor m/z: 185.1073
Precursor type: [M+H]+
Precursor intensity: 36558108
m/z	relative intensity	assigned
168.0805	22	C12H10N+
184.0993	4	C12H12N2+
185.1069	999	C12H13N2+
