Mass spectrum: Paroxetine; LC-ESI-ITFT; MS2; CE: 60%; R=15000; [M+H]+
Name: Paroxetine
Name: 3-(1,3-benzodioxol-5-yloxymethyl)-4-(4-fluorophenyl)piperidine
Formula: C19H20FNO3
Exact mass: 329.14272172
SMILES: FC1=CC=C(C=C1)C1CCNCC1COC1=CC2=C(OCO2)C=C1
InChI: InChI=1S/C19H20FNO3/c20-15-3-1-13(2-4-15)17-7-8-21-10-14(17)11-22-16-5-6-18-19(9-16)24-12-23-18/h1-6,9,14,17,21H,7-8,10-12H2
Instrument: LTQ Orbitrap XL Thermo Scientific
Instrument type: LC-ESI-ITFT
Ms type: MS2
Ion mode: POSITIVE
Ionization: ESI
Fragmentation mode: HCD
Collision energy: 60 % (nominal)
Resolution: 15000
Column name: Kinetex Evo C18 2.6 um 50 x 2.1 mm
Retention time: 8.665 min
Base peak: 455.2916
Precursor m/z: 330.15
Precursor type: [M+H]+
Precursor intensity: 28460548
m/z	relative intensity	assigned
56.0494	43	C3H6N+
57.0572	7	C3H7N+
58.0651	7	C3H8N+
68.0495	40	C4H6N+
70.0652	999	C4H8N+
71.0731	8	C4H9N+
82.0654	22	C5H8N+
83.0732	8	C5H9N+
84.081	15	C5H10N+
86.0604	7	C4H8NO+
93.0338	11	C6H5O+
96.081	11	C6H10N+
97.0889	21	C6H11N+
103.0545	5	C8H7+
109.0287	16	C6H5O2+
109.0452	96	C7H6F+
123.0445	36	C7H7O2+
123.0608	142	C8H8F+
135.0609	114	C9H8F+
136.0688	53	C9H9F+
139.0393	11	C7H7O3+
147.061	28	C10H8F+
148.0687	22	C10H9F+
149.0765	17	C10H10F+
150.0717	28	C9H9FN+
150.0846	5	C10H11F+
151.0395	102	C8H7O3+
161.0766	59	C11H10F+
163.0923	161	C11H12F+
164.0876	20	C10H11FN+
176.1001	10	C12H13F+
178.1032	61	C11H13FN+
192.1189	248	C12H15FN+
330.1513	6	C19H21FNO3+
