Mass spectrum: Nonaethylene glycol; LC-ESI-ITFT; MS2; CE: 40%; R=15000; [M+Na]+
Name: Nonaethylene glycol
Name: 2-[2-[2-[2-[2-[2-[2-[2-(2-hydroxyethoxy)ethoxy]ethoxy]ethoxy]ethoxy]ethoxy]ethoxy]ethoxy]ethanol
Formula: C18H38O10
Exact mass: 414.2465
SMILES: OCCOCCOCCOCCOCCOCCOCCOCCOCCO
InChI: InChI=1S/C18H38O10/c19-1-3-21-5-7-23-9-11-25-13-15-27-17-18-28-16-14-26-12-10-24-8-6-22-4-2-20/h19-20H,1-18H2
Instrument: LTQ Orbitrap XL Thermo Scientific
Instrument type: LC-ESI-ITFT
Ms type: MS2
Ion mode: POSITIVE
Ionization: ESI
Fragmentation mode: HCD
Collision energy: 40 % (nominal)
Resolution: 15000
Column name: Kinetex Evo C18 2.6 um 50 x 2.1 mm
Retention time: 7.328 min
Base peak: 432.2801
Precursor m/z: 437.2357
Precursor type: [M+Na]+
m/z	relative intensity	assigned
437.2361	999	C18H38NaO10+
