Mass spectrum: Benalaxyl; LC-ESI-ITFT; MS2; CE: 80%; R=15000; [M+H]+
Name: Benalaxyl
Name: (+)-Benalaxyl
Name: methyl (2S)-2-(2,6-dimethyl-N-(2-phenylacetyl)anilino)propanoate
Formula: C20H23NO3
Exact mass: 325.167793596
SMILES: COC(=O)[C@H](C)N(C(=O)CC1=CC=CC=C1)C1=C(C)C=CC=C1C
InChI: InChI=1S/C20H23NO3/c1-14-9-8-10-15(2)19(14)21(16(3)20(23)24-4)18(22)13-17-11-6-5-7-12-17/h5-12,16H,13H2,1-4H3/t16-/m0/s1
Instrument: LTQ Orbitrap XL Thermo Scientific
Instrument type: LC-ESI-ITFT
Ms type: MS2
Ion mode: POSITIVE
Ionization: ESI
Fragmentation mode: HCD
Collision energy: 80 % (nominal)
Resolution: 15000
Column name: Kinetex Evo C18 2.6 um 50 x 2.1 mm
Retention time: 12.455 min
Base peak: 326.1762
Precursor m/z: 326.1751
Precursor type: [M+H]+
Precursor intensity: 26723024
m/z	relative intensity	assigned
65.0386	3	C5H5+
91.0543	999	C7H7+
105.0699	39	C8H9+
106.0652	36	C7H8N+
106.0779	2	C8H10+
107.0729	11	C7H9N+
118.0654	8	C8H8N+
119.0855	5	C9H11+
120.0809	17	C8H10N+
121.0887	523	C8H11N+
122.0964	16	C8H12N+
131.0855	6	C10H11+
132.0807	3	C9H10N+
133.0887	34	C9H11N+
146.0964	3	C10H12N+
148.1122	702	C10H14N+
196.1118	3	C14H14N+
