Mass spectrum: Exemestane; LC-ESI-ITFT; MS2; CE: 90%; R=15000; [M+H]+
Name: Exemestane
Name: (8R,9S,10R,13S,14S)-10,13-dimethyl-6-methylidene-7,8,9,11,12,14,15,16-octahydrocyclopenta[a]phenanthrene-3,17-dione
Formula: C20H24O2
Exact mass: 296.177630008
SMILES: [H][C@@]12CCC(=O)[C@@]1(C)CC[C@@]1([H])[C@@]2([H])CC(=C)C2=CC(=O)C=C[C@]12C
InChI: InChI=1S/C20H24O2/c1-12-10-14-15-4-5-18(22)20(15,3)9-7-16(14)19(2)8-6-13(21)11-17(12)19/h6,8,11,14-16H,1,4-5,7,9-10H2,2-3H3/t14-,15-,16-,19+,20-/m0/s1
Instrument: LTQ Orbitrap XL Thermo Scientific
Instrument type: LC-ESI-ITFT
Ms type: MS2
Ion mode: POSITIVE
Ionization: ESI
Fragmentation mode: HCD
Collision energy: 90 % (nominal)
Resolution: 15000
Column name: Kinetex Evo C18 2.6 um 50 x 2.1 mm
Retention time: 11.126 min
Base peak: 297.1854
Precursor m/z: 297.1849
Precursor type: [M+H]+
Precursor intensity: 21084264
m/z	relative intensity	assigned
67.0541	150	C5H7+
77.0385	153	C6H5+
79.0542	788	C6H7+
81.0698	104	C6H9+
91.0542	833	C7H7+
93.0699	999	C7H9+
95.0856	78	C7H11+
97.0647	111	C6H9O+
105.0699	839	C8H9+
107.0855	415	C8H11+
109.0648	53	C7H9O+
115.0542	118	C9H7+
117.0699	181	C9H9+
119.0855	263	C9H11+
121.0648	828	C8H9O+
121.1012	167	C9H13+
129.0699	110	C10H9+
130.0772	67	C10H10+
131.0854	111	C10H11+
132.0568	127	C9H8O+
135.0804	107	C9H11O+
145.0652	79	C10H9O+
145.1011	64	C11H13+
146.0728	42	C10H10O+
147.0801	88	C10H11O+
158.073	60	C11H10O+
159.0807	81	C11H11O+
161.0961	39	C11H13O+
171.0802	46	C12H11O+
172.0879	60	C12H12O+
185.0965	61	C13H13O+
