Mass spectrum: Oxybutynin; LC-ESI-ITFT; MS2; CE: 80%; R=15000; [M+H]+
Name: Oxybutynin
Name: 4-(diethylamino)but-2-ynyl 2-cyclohexyl-2-hydroxy-2-phenylacetate
Formula: C22H31NO3
Exact mass: 357.230393852
SMILES: CCN(CC)CC#CCOC(=O)C(O)(C1CCCCC1)C1=CC=CC=C1
InChI: InChI=1S/C22H31NO3/c1-3-23(4-2)17-11-12-18-26-21(24)22(25,19-13-7-5-8-14-19)20-15-9-6-10-16-20/h5,7-8,13-14,20,25H,3-4,6,9-10,15-18H2,1-2H3
Instrument: LTQ Orbitrap XL Thermo Scientific
Instrument type: LC-ESI-ITFT
Ms type: MS2
Ion mode: POSITIVE
Ionization: ESI
Fragmentation mode: HCD
Collision energy: 80 % (nominal)
Resolution: 15000
Column name: Kinetex Evo C18 2.6 um 50 x 2.1 mm
Retention time: 9.083 min
Base peak: 358.2377
Precursor m/z: 358.2377
Precursor type: [M+H]+
Precursor intensity: 59476636
m/z	relative intensity	assigned
72.0804	999	C4H10N+
74.0962	29	C4H12N+
77.0383	34	C6H5+
79.0539	219	C6H7+
80.0492	38	C5H6N+
81.057	46	C5H7N+
81.0696	35	C6H9+
83.0853	33	C6H11+
86.0961	33	C5H12N+
91.054	220	C7H7+
93.0696	14	C7H9+
94.0649	94	C6H8N+
95.0726	11	C6H9N+
96.0805	28	C6H10N+
97.0281	79	C5H5O2+
105.0332	372	C7H5O+
107.0488	320	C7H7O+
108.0805	53	C7H10N+
117.0694	30	C9H9+
128.0618	23	C10H8+
129.0695	137	C10H9+
141.0696	11	C11H9+
142.1223	343	C8H16NO+
143.0851	25	C11H11+
157.0643	9	C11H9O+
171.1165	18	C13H15+
