Mass spectrum: Phantolide; LC-ESI-ITFT; MS2; CE: 30%; R=15000; [M+H]+
Name: Phantolide
Name: 1-(1,1,2,3,3,6-hexamethyl-2H-inden-5-yl)ethanone
Formula: C17H24O
Exact mass: 244.182715388
SMILES: CC1C(C)(C)C2=C(C=C(C(C)=O)C(C)=C2)C1(C)C
InChI: InChI=1S/C17H24O/c1-10-8-14-15(9-13(10)11(2)18)17(6,7)12(3)16(14,4)5/h8-9,12H,1-7H3
Instrument: LTQ Orbitrap XL Thermo Scientific
Instrument type: LC-ESI-ITFT
Ms type: MS2
Ion mode: POSITIVE
Ionization: ESI
Fragmentation mode: HCD
Collision energy: 30 % (nominal)
Resolution: 15000
Column name: Kinetex Evo C18 2.6 um 50 x 2.1 mm
Retention time: 13.870 min
Base peak: 245.1901
Precursor m/z: 245.19
Precursor type: [M+H]+
Precursor intensity: 9432123
m/z	relative intensity	assigned
131.0855	22	C10H11+
133.1011	21	C10H13+
145.1013	3	C11H13+
175.1116	137	C12H15O+
187.1483	6	C14H19+
189.1273	913	C13H17O+
201.1636	16	C15H21+
245.1898	999	C17H25O+
