Mass spectrum: Ifosfamide; LC-ESI-ITFT; MS2; CE: 60%; R=15000; [M+H]+
Name: Ifosfamide
Name: N,3-bis(2-chloroethyl)-2-oxo-1,3,2lambda5-oxazaphosphinan-2-amine
Formula: C7H15Cl2N2O2P
Exact mass: 260.02481971
SMILES: ClCCNP1(=O)OCCCN1CCCl
InChI: InChI=1S/C7H15Cl2N2O2P/c8-2-4-10-14(12)11(6-3-9)5-1-7-13-14/h1-7H2,(H,10,12)
Instrument: LTQ Orbitrap XL Thermo Scientific
Instrument type: LC-ESI-ITFT
Ms type: MS2
Ion mode: POSITIVE
Ionization: ESI
Fragmentation mode: HCD
Collision energy: 60 % (nominal)
Resolution: 15000
Column name: Kinetex Evo C18 2.6 um 50 x 2.1 mm
Retention time: 7.032 min
Base peak: 307.1121
Precursor m/z: 261.0321
Precursor type: [M+H]+
Precursor intensity: 2944202.5
m/z	relative intensity	assigned
62.9994	51	CH4OP+
67.054	8	C5H7+
72.0442	4	C3H6NO+
80.026	8	CH7NOP+
82.0651	9	C5H8N+
84.0808	9	C5H10N+
92.0261	999	C3H7ClN+
114.1278	2	C7H16N+
116.9502	25	CH3Cl2O2+
118.0058	2	ClH8N2OP+
118.0417	18	C5H9ClN+
124.0157	5	C3H7ClNO2+
125.9504	13	CH2ClNO2P+
126.971	6	C2H5ClO2P+
127.9662	18	CH4ClNO2P+
128.0259	13	C5H7NOP+
139.9659	3	C2H4ClNO2P+
146.0365	34	C5H9NO2P+
153.9818	625	C3H6ClNO2P+
155.9967	4	C7H5ClO2+
164.0469	3	C6H11ClNO2+
182.0131	74	C5H10ClNO2P+
200.0231	5	C6H12Cl2NO2+
233.0007	47	C5H12Cl2N2O2P+
261.0322	17	C7H16Cl2N2O2P+
