Mass spectrum: Dimethachlor; LC-ESI-ITFT; MS2; CE: 50%; R=15000; [M+H]+
Name: Dimethachlor
Name: 2-chloro-N-(2,6-dimethylphenyl)-N-(2-methoxyethyl)acetamide
Formula: C13H18ClNO2
Exact mass: 255.102606496
SMILES: COCCN(C(=O)CCl)C1=C(C)C=CC=C1C
InChI: InChI=1S/C13H18ClNO2/c1-10-5-4-6-11(2)13(10)15(7-8-17-3)12(16)9-14/h4-6H,7-9H2,1-3H3
Instrument: LTQ Orbitrap XL Thermo Scientific
Instrument type: LC-ESI-ITFT
Ms type: MS2
Ion mode: POSITIVE
Ionization: ESI
Fragmentation mode: HCD
Collision energy: 50 % (nominal)
Resolution: 15000
Column name: Kinetex Evo C18 2.6 um 50 x 2.1 mm
Retention time: 9.973 min
Base peak: 212.0843
Precursor m/z: 256.1099
Precursor type: [M+H]+
Precursor intensity: 1247221.12
m/z	relative intensity	assigned
59.0491	26	C3H7O+
76.979	7	C2H2ClO+
105.0702	8	C8H9+
131.0734	2	C9H9N+
132.0811	18	C9H10N+
134.0968	6	C9H12N+
144.0807	3	C10H10N+
146.0969	8	C10H12N+
147.1048	12	C10H13N+
148.1124	551	C10H14N+
174.0914	3	C11H12NO+
198.0685	8	C10H13ClNO+
224.084	999	C12H15ClNO+
256.1093	5	C13H19ClNO2+
