Mass spectrum: Benz[c]acridine; ESI-ITFT; MS2; CE: 35%; R=30000; [M+H]+
Name: Benz[c]acridine
Name: benzo[a]acridine
Formula: C17H11N
Exact mass: 229.0891
SMILES: c1ccc2c(c1)ccc1nc3ccccc3cc21
InChI: InChI=1S/C17H11N/c1-3-7-14-12(5-1)9-10-17-15(14)11-13-6-2-4-8-16(13)18-17/h1-11H
Instrument: LTQ Orbitrap XL Thermo Scientific
Instrument type: ESI-ITFT
Ms type: MS2
Ion mode: POSITIVE
Ionization: ESI
Fragmentation mode: CID
Collision energy: 35 % (nominal)
Resolution: 30000
Column name: N/A
Retention time: N/A min
Base peak: 230.0964
Precursor m/z: 230.0964
Precursor type: [M+H]+
m/z	relative intensity	assigned
202.0777	1	C16H10+
229.0879	1	C17H11N+
230.0964	999	C17H12N+
