Mass spectrum: Dimethoate; LC-ESI-ITFT; MS2; CE: 35; R=15000; [M+H]+
Name: Dimethoate
Name: 2-Dimethoxyphosphinothioylsulfanyl-N-methylacetamide
Formula: C5H12NO3PS2
Exact mass: 228.9996
SMILES: CNC(=O)CSP(=S)(OC)OC
InChI: InChI=1S/C5H12NO3PS2/c1-6-5(7)4-12-10(11,8-2)9-3/h4H2,1-3H3,(H,6,7)
Instrument: LTQ Orbitrap XL Thermo Scientific
Instrument type: LC-ESI-ITFT
Ms type: MS2
Ion mode: POSITIVE
Ionization: ESI
Fragmentation mode: CID
Collision energy: 35 (nominal)
Resolution: 15000
Column name: Kinetex Core-Shell C18 2.6 um, 3.0 x 100 mm, Phenomenex
Retention time: 18.113 min
Base peak: 163.1326
Precursor m/z: 230.0069
Precursor type: [M+H]+
m/z	relative intensity	assigned
88.0214	11	C3H6NS+
124.9817	10	C2H6O2PS+
156.9539	1	C2H6O2PS2+
170.9697	70	C3H8O2PS2+
197.9806	9	C4H9NO2PS2+
198.9646	999	C4H8O3PS2+
