Mass spectrum: Simetryn; LC-ESI-ITFT; MS2; CE: 80%; R=15000; [M+H]+
Name: Simetryn
Name: 2-N,4-N-diethyl-6-methylsulfanyl-1,3,5-triazine-2,4-diamine
Formula: C8H15N5S
Exact mass: 213.10481648
SMILES: CCNC1=NC(SC)=NC(NCC)=N1
InChI: InChI=1S/C8H15N5S/c1-4-9-6-11-7(10-5-2)13-8(12-6)14-3/h4-5H2,1-3H3,(H2,9,10,11,12,13)
Instrument: LTQ Orbitrap XL Thermo Scientific
Instrument type: LC-ESI-ITFT
Ms type: MS2
Ion mode: POSITIVE
Ionization: ESI
Fragmentation mode: HCD
Collision energy: 80 % (nominal)
Resolution: 15000
Column name: Kinetex Evo C18 2.6 um 50 x 2.1 mm
Retention time: 7.428 min
Base peak: 214.1129
Precursor m/z: 214.1121
Precursor type: [M+H]+
Precursor intensity: 58471696
m/z	relative intensity	assigned
68.0242	716	C2H2N3+
71.0603	639	C3H7N2+
74.0058	129	C2H4NS+
85.0509	3	C2H5N4+
91.0325	26	C2H7N2S+
96.0557	999	C4H6N3+
102.0372	18	C4H8NS+
110.0463	5	C3H4N5+
113.0823	32	C4H9N4+
116.0277	399	C3H6N3S+
124.087	443	C6H10N3+
138.0775	32	C5H8N5+
144.0591	261	C5H10N3S+
158.05	6	C4H8N5S+
166.1089	69	C7H12N5+
186.081	33	C6H12N5S+
214.1122	54	C8H16N5S+
