Mass spectrum: Fenthion; LC-ESI-ITFT; MS2; CE: 60%; R=15000; [M+H]+
Name: Fenthion
Name: dimethoxy-(3-methyl-4-methylsulfanylphenoxy)-sulfanylidene-lambda5-phosphane
Formula: C10H15O3PS2
Exact mass: 278.02002297
SMILES: COP(=S)(OC)OC1=CC=C(SC)C(C)=C1
InChI: InChI=1S/C10H15O3PS2/c1-8-7-9(5-6-10(8)16-4)13-14(15,11-2)12-3/h5-7H,1-4H3
Instrument: LTQ Orbitrap XL Thermo Scientific
Instrument type: LC-ESI-ITFT
Ms type: MS2
Ion mode: POSITIVE
Ionization: ESI
Fragmentation mode: HCD
Collision energy: 60 % (nominal)
Resolution: 15000
Column name: Kinetex Evo C18 2.6 um 50 x 2.1 mm
Retention time: 11.198 min
Base peak: 116.9863
Precursor m/z: 279.0273
Precursor type: [M+H]+
Precursor intensity: 2261524.5
m/z	relative intensity	assigned
58.995	22	C2H3S+
91.0546	61	C7H7+
97.0111	93	C5H5S+
103.0547	46	C8H7+
122.0187	36	C7H6S+
124.9826	120	C2H6O2PS+
137.0426	126	C8H9S+
138.0503	35	C8H10S+
142.993	95	C2H8O3PS+
153.0375	751	C8H9OS+
168.9876	37	C7H6OPS+
185.9907	114	C7H7O2PS+
198.9983	32	C8H8O2PS+
216.0013	999	C8H9O3PS+
231.0248	129	C9H12O3PS+
