Mass spectrum: Metolachlor; LC-ESI-ITFT; MS2; CE: 80%; R=15000; [M+H]+
Name: Metolachlor
Name: 2-chloro-N-(2-ethyl-6-methylphenyl)-N-(1-methoxypropan-2-yl)acetamide
Formula: C15H22ClNO2
Exact mass: 283.133906624
SMILES: CCC1=CC=CC(C)=C1N(C(C)COC)C(=O)CCl
InChI: InChI=1S/C15H22ClNO2/c1-5-13-8-6-7-11(2)15(13)17(14(18)9-16)12(3)10-19-4/h6-8,12H,5,9-10H2,1-4H3
Instrument: LTQ Orbitrap XL Thermo Scientific
Instrument type: LC-ESI-ITFT
Ms type: MS2
Ion mode: POSITIVE
Ionization: ESI
Fragmentation mode: HCD
Collision energy: 80 % (nominal)
Resolution: 15000
Column name: Kinetex Evo C18 2.6 um 50 x 2.1 mm
Retention time: 11.806 min
Base peak: 284.1419
Precursor m/z: 284.1412
Precursor type: [M+H]+
Precursor intensity: 37990268
m/z	relative intensity	assigned
73.0646	182	C4H9O+
76.9786	114	C2H2ClO+
79.0543	27	C6H7+
91.054	205	C7H7+
93.0698	35	C7H9+
103.054	31	C8H7+
104.0618	14	C8H8+
105.0699	20	C8H9+
107.0852	25	C8H11+
108.0806	130	C7H10N+
109.0647	41	C7H9O+
115.054	21	C9H7+
117.0567	21	C8H7N+
117.0696	146	C9H9+
118.0648	28	C8H8N+
119.0728	107	C8H9N+
119.0854	155	C9H11+
120.0805	139	C8H10N+
130.0649	36	C9H8N+
131.0726	78	C9H9N+
131.0852	22	C10H11+
132.0807	112	C9H10N+
133.0884	398	C9H11N+
134.0962	702	C9H12N+
135.0805	24	C9H11O+
143.0726	57	C10H9N+
144.0805	99	C10H10N+
145.0884	102	C10H11N+
146.0962	351	C10H12N+
147.1041	47	C10H13N+
148.1119	87	C10H14N+
158.0961	157	C11H12N+
159.1039	94	C11H13N+
160.1118	312	C11H14N+
162.0909	49	C10H12NO+
166.041	20	C12H6O+
174.1281	17	C12H16N+
176.1431	999	C12H18N+
184.052	182	C12H8O2+
188.1065	18	C12H14NO+
194.0723	27	C14H10O+
252.1145	63	C14H19ClNO+
