Mass spectrum: Triphenylphosphate; LC-ESI-ITFT; MS2; CE: 40%; R=15000; [M+H]+
Name: Triphenylphosphate
Name: triphenyl phosphate
Formula: C18H15O4P
Exact mass: 326.07079559
SMILES: O=P(OC1=CC=CC=C1)(OC1=CC=CC=C1)OC1=CC=CC=C1
InChI: InChI=1S/C18H15O4P/c19-23(20-16-10-4-1-5-11-16,21-17-12-6-2-7-13-17)22-18-14-8-3-9-15-18/h1-15H
Instrument: LTQ Orbitrap XL Thermo Scientific
Instrument type: LC-ESI-ITFT
Ms type: MS2
Ion mode: POSITIVE
Ionization: ESI
Fragmentation mode: HCD
Collision energy: 40 % (nominal)
Resolution: 15000
Column name: Kinetex Evo C18 2.6 um 50 x 2.1 mm
Retention time: 12.625 min
Base peak: 327.079
Precursor m/z: 327.0781
Precursor type: [M+H]+
Precursor intensity: 35925056
m/z	relative intensity	assigned
65.0384	2	C5H5+
77.0385	79	C6H5+
93.0334	1	C6H5O+
95.0492	30	C6H7O+
98.9842	5	H4O4P+
151.0538	3	C12H7+
152.0621	77	C12H8+
153.07	389	C12H9+
157.0046	3	C6H6O3P+
169.0649	9	C12H9O+
171.0805	70	C12H11O+
175.0156	21	C6H8O4P+
202.0782	3	C16H10+
215.0258	121	C12H8O2P+
227.0859	6	C18H11+
228.0936	74	C18H12+
229.1016	102	C18H13+
233.0364	394	C12H10O3P+
247.0516	2	C13H12O3P+
251.047	210	C12H12O4P+
291.0566	6	C18H12O2P+
309.0678	16	C18H14O3P+
327.0782	999	C18H16O4P+
