Mass spectrum: Canrenone; LC-ESI-ITFT; MS2; CE: 80%; R=15000; [M+H]+
Name: Canrenone
Name: (9S,14S)-10,13-dimethylspiro[2,8,9,11,12,14,15,16-octahydro-1H-cyclopenta[a]phenanthrene-17,5`-oxolane]-2`,3-dione
Formula: C22H28O3
Exact mass: 340.203844756
SMILES: CC12CC[C@H]3C(C=CC4=CC(=O)CCC34C)[C@@H]1CCC21CCC(=O)O1
InChI: InChI=1S/C22H28O3/c1-20-9-5-15(23)13-14(20)3-4-16-17(20)6-10-21(2)18(16)7-11-22(21)12-8-19(24)25-22/h3-4,13,16-18H,5-12H2,1-2H3/t16?,17-,18-,20?,21?,22?/m0/s1
Instrument: LTQ Orbitrap XL Thermo Scientific
Instrument type: LC-ESI-ITFT
Ms type: MS2
Ion mode: POSITIVE
Ionization: ESI
Fragmentation mode: HCD
Collision energy: 80 % (nominal)
Resolution: 15000
Column name: Kinetex Evo C18 2.6 um 50 x 2.1 mm
Retention time: 11.465 min
Base peak: 289.2162
Precursor m/z: 341.2111
Precursor type: [M+H]+
Precursor intensity: 5398710
m/z	relative intensity	assigned
55.0178	16	C3H3O+
55.054	16	C4H7+
67.0542	28	C5H7+
71.0492	37	C4H7O+
77.0388	8	C6H5+
79.0543	225	C6H7+
81.07	48	C6H9+
83.0492	172	C5H7O+
85.0648	8	C5H9O+
91.0543	201	C7H7+
93.07	136	C7H9+
95.0857	40	C7H11+
97.0649	328	C6H9O+
99.0442	76	C5H7O2+
105.07	331	C8H9+
107.0856	999	C8H11+
109.0648	54	C7H9O+
111.044	15	C6H7O2+
117.07	64	C9H9+
119.0857	197	C9H11+
121.0651	31	C8H9O+
121.1012	50	C9H13+
123.0806	27	C8H11O+
128.0621	21	C10H8+
129.0701	51	C10H9+
130.0776	18	C10H10+
131.0856	132	C10H11+
133.0649	19	C9H9O+
133.1014	64	C10H13+
135.0804	33	C9H11O+
137.0962	9	C9H13O+
141.0699	30	C11H9+
142.0779	31	C11H10+
143.0857	149	C11H11+
145.0646	15	C10H9O+
145.1013	140	C11H13+
147.0807	32	C10H11O+
147.1171	12	C11H15+
149.0964	32	C10H13O+
154.0776	25	C12H10+
155.0857	56	C12H11+
156.0934	12	C12H12+
157.1013	63	C12H13+
159.0802	27	C11H11O+
159.1171	39	C12H15+
161.0961	34	C11H13O+
163.1121	22	C11H15O+
167.0848	10	C13H11+
168.0936	14	C13H12+
169.1012	85	C13H13+
170.1091	22	C13H14+
171.1171	30	C13H15+
173.0962	54	C12H13O+
175.1118	32	C12H15O+
179.0856	11	C14H11+
181.1015	37	C14H13+
183.1171	46	C14H15+
185.1325	23	C14H17+
187.1116	19	C13H15O+
193.1011	11	C15H13+
195.1171	24	C15H15+
197.1323	11	C15H17+
