Mass spectrum: 2-Aminobiphenyl; LC-ESI-ITFT; MS2; CE: 80%; R=15000; [M+H]+
Name: 2-Aminobiphenyl
Name: 2-phenylaniline
Formula: C12H11N
Exact mass: 169.089149352
SMILES: NC1=C(C=CC=C1)C1=CC=CC=C1
InChI: InChI=1S/C12H11N/c13-12-9-5-4-8-11(12)10-6-2-1-3-7-10/h1-9H,13H2
Instrument: LTQ Orbitrap XL Thermo Scientific
Instrument type: LC-ESI-ITFT
Ms type: MS2
Ion mode: POSITIVE
Ionization: ESI
Fragmentation mode: HCD
Collision energy: 80 % (nominal)
Resolution: 15000
Column name: Kinetex Evo C18 2.6 um 50 x 2.1 mm
Retention time: 8.183 min
Base peak: 170.0966
Precursor m/z: 170.0964
Precursor type: [M+H]+
Precursor intensity: 39864412
m/z	relative intensity	assigned
65.0383	39	C5H5+
77.0383	6	C6H5+
91.054	5	C7H7+
92.0493	152	C6H6N+
93.0571	176	C6H7N+
103.054	16	C8H7+
104.0492	11	C7H6N+
115.0539	21	C9H7+
117.0696	4	C9H9+
128.0618	148	C10H8+
129.0697	21	C10H9+
130.065	6	C9H8N+
141.0697	12	C11H9+
142.0651	5	C10H8N+
142.0771	5	C11H10+
143.0727	12	C10H9N+
143.0853	115	C11H11+
151.0541	37	C12H7+
152.0618	738	C12H8+
153.0696	999	C12H9+
154.0648	30	C11H8N+
154.0773	23	C12H10+
155.0726	62	C11H9N+
167.0724	4	C12H9N+
168.0805	43	C12H10N+
169.0883	270	C12H11N+
170.0961	924	C12H12N+
