Mass spectrum: Bendiocarb; LC-ESI-ITFT; MS2; CE: 70%; R=15000; [M+H]+
Name: Bendiocarb
Name: (2,2-dimethyl-1,3-benzodioxol-4-yl) N-methylcarbamate
Formula: C11H13NO4
Exact mass: 223.084457896
SMILES: CNC(=O)OC1=CC=CC2=C1OC(C)(C)O2
InChI: InChI=1S/C11H13NO4/c1-11(2)15-8-6-4-5-7(9(8)16-11)14-10(13)12-3/h4-6H,1-3H3,(H,12,13)
Instrument: LTQ Orbitrap XL Thermo Scientific
Instrument type: LC-ESI-ITFT
Ms type: MS2
Ion mode: POSITIVE
Ionization: ESI
Fragmentation mode: HCD
Collision energy: 70 % (nominal)
Resolution: 15000
Column name: Kinetex Evo C18 2.6 um 50 x 2.1 mm
Retention time: 8.899 min
Base peak: 224.0926
Precursor m/z: 224.0917
Precursor type: [M+H]+
Precursor intensity: 26330686
m/z	relative intensity	assigned
81.0336	454	C5H5O+
109.0285	999	C6H5O2+
132.0808	135	C9H10N+
133.0887	258	C9H11N+
148.1122	272	C10H14N+
