Mass spectrum: Desethylterbutylazine; LC-ESI-ITFT; MS2; CE: 70%; R=15000; [M+H]+
Name: Desethylterbutylazine
Name: Desethylterbuthylazine
Name: 2-N-tert-butyl-6-chloro-1,3,5-triazine-2,4-diamine
Formula: C7H12ClN5
Exact mass: 201.078123064
SMILES: CC(C)(C)NC1=NC(Cl)=NC(N)=N1
InChI: InChI=1S/C7H12ClN5/c1-7(2,3)13-6-11-4(8)10-5(9)12-6/h1-3H3,(H3,9,10,11,12,13)
Instrument: LTQ Orbitrap XL Thermo Scientific
Instrument type: LC-ESI-ITFT
Ms type: MS2
Ion mode: POSITIVE
Ionization: ESI
Fragmentation mode: HCD
Collision energy: 70 % (nominal)
Resolution: 15000
Column name: Kinetex Evo C18 2.6 um 50 x 2.1 mm
Retention time: 9.024 min
Base peak: 202.0858
Precursor m/z: 202.0854
Precursor type: [M+H]+
Precursor intensity: 50646184
m/z	relative intensity	assigned
61.9789	1	CHClN+
68.0241	86	C2H2N3+
79.0056	172	CH4ClN2+
104.0008	193	C2H3ClN3+
110.0459	89	C3H4N5+
146.0225	999	C3H5ClN5+
