Mass spectrum: Tetraglyme; LC-ESI-ITFT; MS2; CE: 50%; R=15000; [M+H]+
Name: Tetraglyme
Name: 1-methoxy-2-[2-[2-(2-methoxyethoxy)ethoxy]ethoxy]ethane
Formula: C10H22O5
Exact mass: 222.146723804
SMILES: COCCOCCOCCOCCOC
InChI: InChI=1S/C10H22O5/c1-11-3-5-13-7-9-15-10-8-14-6-4-12-2/h3-10H2,1-2H3
Instrument: LTQ Orbitrap XL Thermo Scientific
Instrument type: LC-ESI-ITFT
Ms type: MS2
Ion mode: POSITIVE
Ionization: ESI
Fragmentation mode: HCD
Collision energy: 50 % (nominal)
Resolution: 15000
Column name: Kinetex Evo C18 2.6 um 50 x 2.1 mm
Retention time: 5.934 min
Base peak: 223.1549
Precursor m/z: 223.154
Precursor type: [M+H]+
Precursor intensity: 14401129
m/z	relative intensity	assigned
59.0492	999	C3H7O+
103.0758	397	C5H11O2+
