Mass spectrum: Diphenylphosphate; LC-ESI-ITFT; MS2; CE: 90%; R=15000; [M+H]+
Name: Diphenylphosphate
Name: Diphenyl phosphate
Name: diphenyl hydrogen phosphate
Formula: C12H11O4P
Exact mass: 250.039495462
SMILES: OP(=O)(OC1=CC=CC=C1)OC1=CC=CC=C1
InChI: InChI=1S/C12H11O4P/c13-17(14,15-11-7-3-1-4-8-11)16-12-9-5-2-6-10-12/h1-10H,(H,13,14)
Instrument: LTQ Orbitrap XL Thermo Scientific
Instrument type: LC-ESI-ITFT
Ms type: MS2
Ion mode: POSITIVE
Ionization: ESI
Fragmentation mode: HCD
Collision energy: 90 % (nominal)
Resolution: 15000
Column name: Kinetex Evo C18 2.6 um 50 x 2.1 mm
Retention time: 11.582 min
Base peak: 251.0477
Precursor m/z: 251.0468
Precursor type: [M+H]+
Precursor intensity: 4900022.5
m/z	relative intensity	assigned
51.0228	42	C4H3+
53.0384	3	C4H5+
65.0385	6	C5H5+
77.0387	999	C6H5+
93.0338	2	C6H5O+
94.0416	17	C6H6O+
95.0494	296	C6H7O+
98.9844	31	H4O4P+
101.0153	4	C4H6OP+
106.0417	3	C7H6O+
138.9945	5	C6H4O2P+
141.0704	4	C11H9+
151.0548	30	C12H7+
152.0624	423	C12H8+
153.0702	22	C12H9+
157.0052	12	C6H6O3P+
168.0574	80	C12H8O+
169.0654	11	C12H9O+
175.016	61	C6H8O4P+
187.0313	7	C11H8OP+
215.0258	15	C12H8O2P+
233.0373	4	C12H10O3P+
