Mass spectrum: N-Formyl-4-aminoantipyrine; LC-ESI-ITFT; MS2; CE: 55; R=15000; [M+H]+
Name: N-Formyl-4-aminoantipyrine
Name: 4-Formylaminoantipyrine
Name: N-(1,5-Dimethyl-3-oxo-2-phenylpyrazol-4-yl)formamide
Formula: C12H13N3O2
Exact mass: 231.1008
SMILES: [H]C(=O)NC1=C(C)N(C)N(C1=O)C1=CC=CC=C1
InChI: InChI=1S/C12H13N3O2/c1-9-11(13-8-16)12(17)15(14(9)2)10-6-4-3-5-7-10/h3-8H,1-2H3,(H,13,16)
Instrument: LTQ Orbitrap XL Thermo Scientific
Instrument type: LC-ESI-ITFT
Ms type: MS2
Ion mode: POSITIVE
Ionization: ESI
Fragmentation mode: HCD
Collision energy: 55 (nominal)
Resolution: 15000
Column name: Kinetex Core-Shell C18 2.6 um, 3.0 x 100 mm, Phenomenex
Retention time: 14.603 min
Base peak: 235.1805
Precursor m/z: 232.1081
Precursor type: [M+H]+
m/z	relative intensity	assigned
77.0386	92	C6H5+
83.0604	721	C4H7N2+
94.0652	154	C6H8N+
104.0495	999	C7H6N+
105.0447	40	C6H5N2+
139.0504	20	C6H7N2O2+
145.076	30	C9H9N2+
146.06	46	C9H8NO+
159.092	90	C10H11N2+
187.0868	45	C11H11N2O+
204.1133	96	C11H14N3O+
214.0975	120	C12H12N3O+
