Mass spectrum: Bethamethasone; LC-ESI-ITFT; MS2; CE: 60%; R=15000; [M+H]+
Name: Bethamethasone
Name: Betamethasone
Name: (8S,9R,10S,11S,13S,14S,16S,17R)-9-fluoro-11,17-dihydroxy-17-(2-hydroxyacetyl)-10,13,16-trimethyl-6,7,8,11,12,14,15,16-octahydrocyclopenta[a]phenanthren-3-one
Formula: C22H29FO5
Exact mass: 392.199902248
SMILES: [H][C@@]12C[C@H](C)[C@](O)(C(=O)CO)[C@@]1(C)C[C@H](O)[C@@]1(F)[C@@]2([H])CCC2=CC(=O)C=C[C@]12C
InChI: InChI=1S/C22H29FO5/c1-12-8-16-15-5-4-13-9-14(25)6-7-19(13,2)21(15,23)17(26)10-20(16,3)22(12,28)18(27)11-24/h6-7,9,12,15-17,24,26,28H,4-5,8,10-11H2,1-3H3/t12-,15-,16-,17-,19-,20-,21-,22-/m0/s1
Instrument: LTQ Orbitrap XL Thermo Scientific
Instrument type: LC-ESI-ITFT
Ms type: MS2
Ion mode: POSITIVE
Ionization: ESI
Fragmentation mode: HCD
Collision energy: 60 % (nominal)
Resolution: 15000
Column name: Kinetex Evo C18 2.6 um 50 x 2.1 mm
Retention time: 10.440 min
Base peak: 393.207
Precursor m/z: 393.2072
Precursor type: [M+H]+
Precursor intensity: 11890558
m/z	relative intensity	assigned
121.0649	599	C8H9O+
147.0811	350	C10H11O+
171.0807	999	C12H11O+
197.0961	258	C14H13O+
209.0967	165	C15H13O+
211.1124	122	C15H15O+
222.1051	186	C13H15FO2+
235.1117	212	C17H15O+
248.1186	125	C18H16O+
289.1589	110	C18H22FO2+
