Mass spectrum: Prometryn; LC-ESI-ITFT; MS2; CE: 55; R=15000; [M+H]+
Name: Prometryn
Name: 6-Methylsulfanyl-2-N,4-N-di(propan-2-yl)-1,3,5-triazine-2,4-diamine
Formula: C10H19N5S
Exact mass: 241.1361
SMILES: CSC1=NC(NC(C)C)=NC(NC(C)C)=N1
InChI: InChI=1S/C10H19N5S/c1-6(2)11-8-13-9(12-7(3)4)15-10(14-8)16-5/h6-7H,1-5H3,(H2,11,12,13,14,15)
Instrument: LTQ Orbitrap XL Thermo Scientific
Instrument type: LC-ESI-ITFT
Ms type: MS2
Ion mode: POSITIVE
Ionization: ESI
Fragmentation mode: CID
Collision energy: 55 (nominal)
Resolution: 15000
Column name: Kinetex Core-Shell C18 2.6 um, 3.0 x 100 mm, Phenomenex
Retention time: 23.242 min
Base peak: 242.1429
Precursor m/z: 242.1434
Precursor type: [M+H]+
m/z	relative intensity	assigned
68.0241	1	C2H2N3+
110.0713	2	C5H8N3+
152.1183	6	C8H14N3+
158.0494	268	C4H8N5S+
200.0962	999	C7H14N5S+
