Mass spectrum: Chloridazon; LC-ESI-ITFT; MS2; CE: 40%; R=15000; [M+H]+
Name: Chloridazon
Name: 5-amino-4-chloro-2-phenylpyridazin-3-one
Formula: C10H8ClN3O
Exact mass: 221.035589556
SMILES: NC1=C(Cl)C(=O)N(N=C1)C1=CC=CC=C1
InChI: InChI=1S/C10H8ClN3O/c11-9-8(12)6-13-14(10(9)15)7-4-2-1-3-5-7/h1-6H,12H2
Instrument: LTQ Orbitrap XL Thermo Scientific
Instrument type: LC-ESI-ITFT
Ms type: MS2
Ion mode: POSITIVE
Ionization: ESI
Fragmentation mode: HCD
Collision energy: 40 % (nominal)
Resolution: 15000
Column name: Kinetex Evo C18 2.6 um 50 x 2.1 mm
Retention time: 6.322 min
Base peak: 222.0433
Precursor m/z: 222.0429
Precursor type: [M+H]+
Precursor intensity: 9522603
m/z	relative intensity	assigned
77.0385	1	C6H5+
92.0494	10	C6H6N+
94.065	6	C6H8N+
104.0493	28	C7H6N+
128.985	3	C4H2ClN2O+
146.0111	1	C4H5ClN3O+
186.0658	3	C10H8N3O+
205.0159	1	C10H6ClN2O+
222.0425	999	C10H9ClN3O+
