Mass spectrum: Nicosulfuron; LC-ESI-ITFT; MS2; CE: 10%; R=15000; [M+H]+
Name: Nicosulfuron
Name: 2-[(4,6-dimethoxypyrimidin-2-yl)carbamoylsulfamoyl]-N,N-dimethylpyridine-3-carboxamide
Formula: C15H18N6O6S
Exact mass: 410.100853296
SMILES: COC1=CC(OC)=NC(NC(=O)NS(=O)(=O)C2=NC=CC=C2C(=O)N(C)C)=N1
InChI: InChI=1S/C15H18N6O6S/c1-21(2)13(22)9-6-5-7-16-12(9)28(24,25)20-15(23)19-14-17-10(26-3)8-11(18-14)27-4/h5-8H,1-4H3,(H2,17,18,19,20,23)
Instrument: LTQ Orbitrap XL Thermo Scientific
Instrument type: LC-ESI-ITFT
Ms type: MS2
Ion mode: POSITIVE
Ionization: ESI
Fragmentation mode: HCD
Collision energy: 10 % (nominal)
Resolution: 15000
Column name: Kinetex Evo C18 2.6 um 50 x 2.1 mm
Retention time: 9.229 min
Base peak: 195.0879
Precursor m/z: 411.1081
Precursor type: [M+H]+
Precursor intensity: 2986908.25
m/z	relative intensity	assigned
106.0287	11	C6H4NO+
156.0768	22	C6H10N3O2+
182.056	327	C7H8N3O3+
213.0328	303	C8H9N2O3S+
230.0599	9	C8H12N3O3S+
304.1415	12	C14H18N5O3+
366.0508	71	C13H12N5O6S+
411.1076	999	C15H19N6O6S+
