Mass spectrum: Testosterone; LC-ESI-ITFT; MS2; CE: 55; R=15000; [M+H]+
Name: Testosterone
Name: (8R,9S,10R,13S,14S,17S)-17-Hydroxy-10,13-dimethyl-1,2,6,7,8,9,11,12,14,15,16,17-dodecahydrocyclopenta[a]phenanthren-3-one
Formula: C19H28O2
Exact mass: 288.2089
SMILES: C[C@]12CC[C@H]3[C@@H](CCC4=CC(=O)CC[C@]34C)[C@@H]1CC[C@@H]2O
InChI: InChI=1S/C19H28O2/c1-18-9-7-13(20)11-12(18)3-4-14-15-5-6-17(21)19(15,2)10-8-16(14)18/h11,14-17,21H,3-10H2,1-2H3/t14-,15-,16-,17-,18-,19-/m0/s1
Instrument: LTQ Orbitrap XL Thermo Scientific
Instrument type: LC-ESI-ITFT
Ms type: MS2
Ion mode: POSITIVE
Ionization: ESI
Fragmentation mode: HCD
Collision energy: 55 (nominal)
Resolution: 15000
Column name: Kinetex Core-Shell C18 2.6 um, 3.0 x 100 mm, Phenomenex
Retention time: 24.975 min
Base peak: 289.2153
Precursor m/z: 289.2162
Precursor type: [M+H]+
m/z	relative intensity	assigned
77.0382	3	C6H5+
79.054	36	C6H7+
81.0696	40	C6H9+
83.0489	30	C5H7O+
91.0541	19	C7H7+
93.0696	36	C7H9+
95.0852	38	C7H11+
97.0645	950	C6H9O+
105.0695	33	C8H9+
107.0852	34	C8H11+
109.0644	999	C7H9O+
111.0805	5	C7H11O+
119.0852	31	C9H11+
121.0644	15	C8H9O+
121.1009	28	C9H13+
123.0801	122	C8H11O+
131.0851	18	C10H11+
133.1008	25	C10H13+
135.1165	10	C10H15+
143.0852	8	C11H11+
145.1009	29	C11H13+
147.1165	38	C11H15+
149.0959	7	C10H13O+
149.132	12	C11H17+
155.0858	3	C12H11+
157.1007	18	C12H13+
159.1164	36	C12H15+
161.1321	21	C12H17+
163.1117	11	C11H15O+
171.1166	17	C13H15+
173.1319	13	C13H17+
175.1114	5	C12H15O+
175.148	21	C13H19+
177.127	17	C12H17O+
185.1322	9	C14H17+
187.1477	26	C14H19+
189.1268	5	C13H17O+
189.1632	8	C14H21+
197.1318	14	C15H17+
199.1481	14	C15H19+
201.1634	12	C15H21+
211.1477	10	C16H19+
213.1632	20	C16H21+
215.1426	4	C15H19O+
227.18	7	C17H23+
253.1944	45	C19H25+
271.2052	26	C19H27O+
289.2157	43	C19H29O2+
