Mass spectrum: Trifloxystrobin; LC-ESI-ITFT; MS2; CE: 30%; R=15000; [M+H]+
Name: Trifloxystrobin
Name: methyl (2E)-2-methoxyimino-2-[2-[[(E)-1-[3-(trifluoromethyl)phenyl]ethylideneamino]oxymethyl]phenyl]acetate
Formula: C20H19F3N2O4
Exact mass: 408.129691748
SMILES: CO\N=C(\C(=O)OC)C1=C(CO\N=C(/C)C2=CC=CC(=C2)C(F)(F)F)C=CC=C1
InChI: InChI=1S/C20H19F3N2O4/c1-13(14-8-6-9-16(11-14)20(21,22)23)24-29-12-15-7-4-5-10-17(15)18(25-28-3)19(26)27-2/h4-11H,12H2,1-3H3/b24-13+,25-18+
Instrument: LTQ Orbitrap XL Thermo Scientific
Instrument type: LC-ESI-ITFT
Ms type: MS2
Ion mode: POSITIVE
Ionization: ESI
Fragmentation mode: HCD
Collision energy: 30 % (nominal)
Resolution: 15000
Column name: Kinetex Evo C18 2.6 um 50 x 2.1 mm
Retention time: 13.232 min
Base peak: 252.142
Precursor m/z: 409.137
Precursor type: [M+H]+
Precursor intensity: 3375844.75
m/z	relative intensity	assigned
105.0702	15	C8H9+
116.0498	200	C8H6N+
118.0654	10	C8H8N+
130.0648	2	C9H8N+
131.0733	130	C9H9N+
132.0811	114	C9H10N+
146.0604	41	C9H8NO+
147.0681	8	C9H9NO+
148.0757	4	C9H10NO+
162.0918	43	C10H12NO+
175.0623	4	C10H9NO2+
178.0874	2	C7H13FNO3+
186.053	999	C9H7F3N+
206.0817	303	C11H12NO3+
253.0001	24	C14F3N2+
254.0034	29	C17HFNO+
340.0403	7	C18H8F2NO4+
