Mass spectrum: Quinoxyfen; LC-ESI-ITFT; MS2; CE: 50%; R=15000; [M+H]+
Name: Quinoxyfen
Name: 5,7-dichloro-4-(4-fluorophenoxy)quinoline
Formula: C15H8Cl2FNO
Exact mass: 306.996697456
SMILES: FC1=CC=C(OC2=C3C(Cl)=CC(Cl)=CC3=NC=C2)C=C1
InChI: InChI=1S/C15H8Cl2FNO/c16-9-7-12(17)15-13(8-9)19-6-5-14(15)20-11-3-1-10(18)2-4-11/h1-8H
Instrument: LTQ Orbitrap XL Thermo Scientific
Instrument type: LC-ESI-ITFT
Ms type: MS2
Ion mode: POSITIVE
Ionization: ESI
Fragmentation mode: HCD
Collision energy: 50 % (nominal)
Resolution: 15000
Column name: Kinetex Evo C18 2.6 um 50 x 2.1 mm
Retention time: 13.461 min
Base peak: 308.0045
Precursor m/z: 308.004
Precursor type: [M+H]+
Precursor intensity: 12103291
m/z	relative intensity	assigned
111.024	1	C6H4FO+
150.0104	14	C8H5ClN+
168.0213	2	C8H7ClNO+
178.005	2	C9H5ClNO+
195.9721	1	C9H4Cl2N+
196.9792	185	C9H5Cl2N+
212.9739	1	C9H5Cl2NO+
213.9819	63	C9H6Cl2NO+
217.0208	1	C13H7ClF+
225.0346	1	C14H8ClN+
237.0585	4	C15H8FNO+
244.032	21	C14H8ClFN+
245.04	32	C14H9ClFN+
253.0284	1	C15H8ClNO+
254.0362	3	C15H9ClNO+
260.0027	1	C14H8Cl2N+
272.027	136	C15H8ClFNO+
280.009	22	C14H9Cl2FN+
287.997	8	C15H8Cl2NO+
308.0035	999	C15H9Cl2FNO+
