Mass spectrum: 4-tert-Butylbenzenesulfonamide; LC-ESI-ITFT; MS2; CE: 50%; R=15000; [M+H]+
Name: 4-tert-Butylbenzenesulfonamide
Formula: C10H15NO2S
Exact mass: 213.08234972
SMILES: CC(C)(C)C1=CC=C(C=C1)S(N)(=O)=O
InChI: InChI=1S/C10H15NO2S/c1-10(2,3)8-4-6-9(7-5-8)14(11,12)13/h4-7H,1-3H3,(H2,11,12,13)
Instrument: LTQ Orbitrap XL Thermo Scientific
Instrument type: LC-ESI-ITFT
Ms type: MS2
Ion mode: POSITIVE
Ionization: ESI
Fragmentation mode: HCD
Collision energy: 50 % (nominal)
Resolution: 15000
Column name: Kinetex Evo C18 2.6 um 50 x 2.1 mm
Retention time: 9.307 min
Base peak: 358.238
Precursor m/z: 214.0896
Precursor type: [M+H]+
Precursor intensity: 135425.36
m/z	relative intensity	assigned
57.0697	92	C4H9+
77.0387	169	C6H5+
91.0543	794	C7H7+
93.0697	84	C7H9+
105.07	999	C8H9+
131.0856	144	C10H11+
133.1015	257	C10H13+
151.1115	239	C10H15O+
197.0639	127	C10H13O2S+
