Mass spectrum: 4-Androstene-3,17-dione; LC-ESI-ITFT; MS2; CE: 80%; R=15000; [M+H]+
Name: 4-Androstene-3,17-dione
Name: Androstenedione
Name: (8R,9S,10R,13S,14S)-10,13-dimethyl-2,6,7,8,9,11,12,14,15,16-decahydro-1H-cyclopenta[a]phenanthrene-3,17-dione
Formula: C19H26O2
Exact mass: 286.193280072
SMILES: C[C@]12CC[C@H]3[C@@H](CCC4=CC(=O)CC[C@]34C)[C@@H]1CCC2=O
InChI: InChI=1S/C19H26O2/c1-18-9-7-13(20)11-12(18)3-4-14-15-5-6-17(21)19(15,2)10-8-16(14)18/h11,14-16H,3-10H2,1-2H3/t14-,15-,16-,18-,19-/m0/s1
Instrument: LTQ Orbitrap XL Thermo Scientific
Instrument type: LC-ESI-ITFT
Ms type: MS2
Ion mode: POSITIVE
Ionization: ESI
Fragmentation mode: HCD
Collision energy: 80 % (nominal)
Resolution: 15000
Column name: Kinetex Evo C18 2.6 um 50 x 2.1 mm
Retention time: 11.075 min
Base peak: 287.2005
Precursor m/z: 287.2006
Precursor type: [M+H]+
Precursor intensity: 11393723
m/z	relative intensity	assigned
55.0176	5	C3H3O+
67.0541	18	C5H7+
69.0697	24	C5H9+
77.0385	4	C6H5+
79.0542	82	C6H7+
81.0698	95	C6H9+
83.0491	36	C5H7O+
91.0541	27	C7H7+
93.0698	37	C7H9+
95.0493	5	C6H7O+
95.0855	25	C7H11+
97.0647	999	C6H9O+
105.0698	40	C8H9+
107.0854	24	C8H11+
109.0647	802	C7H9O+
117.07	11	C9H9+
119.0854	30	C9H11+
121.0649	6	C8H9O+
121.1012	12	C9H13+
123.0803	120	C8H11O+
129.0699	6	C10H9+
131.0855	22	C10H11+
133.1011	25	C10H13+
135.1168	6	C10H15+
143.0854	15	C11H11+
144.093	4	C11H12+
145.1011	28	C11H13+
147.1167	5	C11H15+
155.0859	4	C12H11+
157.101	13	C12H13+
159.1168	14	C12H15+
169.1013	7	C13H13+
171.117	9	C13H15+
173.1327	7	C13H17+
181.1014	3	C14H13+
183.1161	5	C14H15+
185.1326	9	C14H17+
