Mass spectrum: Hydrocortisonacetate; LC-ESI-ITFT; MS2; CE: 90%; R=15000; [M+H]+
Name: Hydrocortisonacetate
Name: Hydrocortisone acetate
Name: [2-[(8S,9S,10R,11S,13S,14S,17R)-11,17-dihydroxy-10,13-dimethyl-3-oxo-2,6,7,8,9,11,12,14,15,16-decahydro-1H-cyclopenta[a]phenanthren-17-yl]-2-oxoethyl] acetate
Formula: C23H32O6
Exact mass: 404.219888744
SMILES: [H][C@@]12CC[C@](O)(C(=O)COC(C)=O)[C@@]1(C)C[C@H](O)[C@@]1([H])[C@@]2([H])CCC2=CC(=O)CC[C@]12C
InChI: InChI=1S/C23H32O6/c1-13(24)29-12-19(27)23(28)9-7-17-16-5-4-14-10-15(25)6-8-21(14,2)20(16)18(26)11-22(17,23)3/h10,16-18,20,26,28H,4-9,11-12H2,1-3H3/t16-,17-,18-,20+,21-,22-,23-/m0/s1
Instrument: LTQ Orbitrap XL Thermo Scientific
Instrument type: LC-ESI-ITFT
Ms type: MS2
Ion mode: POSITIVE
Ionization: ESI
Fragmentation mode: HCD
Collision energy: 90 % (nominal)
Resolution: 15000
Column name: Kinetex Evo C18 2.6 um 50 x 2.1 mm
Retention time: 10.716 min
Base peak: 271.1695
Precursor m/z: 405.2272
Precursor type: [M+H]+
Precursor intensity: 5960715
m/z	relative intensity	assigned
55.054	74	C4H7+
67.0542	136	C5H7+
79.0545	390	C6H7+
81.07	258	C6H9+
83.0493	228	C5H7O+
91.0545	744	C7H7+
93.0701	376	C7H9+
95.0491	60	C6H7O+
95.0857	135	C7H11+
97.065	746	C6H9O+
105.0701	796	C8H9+
107.0496	81	C7H7O+
107.0859	203	C8H11+
109.065	364	C7H9O+
115.0544	165	C9H7+
117.0702	346	C9H9+
119.0858	624	C9H11+
121.0651	999	C8H9O+
123.0808	341	C8H11O+
128.0625	305	C10H8+
129.0702	429	C10H9+
130.0781	104	C10H10+
131.0858	399	C10H11+
133.0648	72	C9H9O+
133.1015	97	C10H13+
141.0702	274	C11H9+
142.0782	215	C11H10+
143.0859	376	C11H11+
144.0934	63	C11H12+
145.1017	247	C11H13+
147.0805	129	C10H11O+
148.0886	133	C10H12O+
153.0703	140	C12H9+
154.0781	136	C12H10+
155.0857	241	C12H11+
156.0935	95	C12H12+
157.1015	235	C12H13+
163.1122	79	C11H15O+
165.0698	77	C13H9+
167.0862	136	C13H11+
168.0938	100	C13H12+
169.1016	118	C13H13+
171.1166	81	C13H15+
179.0857	95	C14H11+
181.1014	158	C14H13+
183.1166	82	C14H15+
193.1018	120	C15H13+
194.1087	68	C15H14+
213.1278	65	C15H17O+
