Mass spectrum: Diazinon; LC-ESI-ITFT; MS2; CE: 80; R=15000; [M+H]+
Name: Diazinon
Name: Diethoxy-(6-methyl-2-propan-2-ylpyrimidin-4-yl)oxy-sulfanylidene-{5}-phosphane
Formula: C12H21N2O3PS
Exact mass: 304.1011
SMILES: CCOP(=S)(OCC)OC1=NC(=NC(C)=C1)C(C)C
InChI: InChI=1S/C12H21N2O3PS/c1-6-15-18(19,16-7-2)17-11-8-10(5)13-12(14-11)9(3)4/h8-9H,6-7H2,1-5H3
Instrument: LTQ Orbitrap XL Thermo Scientific
Instrument type: LC-ESI-ITFT
Ms type: MS2
Ion mode: POSITIVE
Ionization: ESI
Fragmentation mode: HCD
Collision energy: 80 (nominal)
Resolution: 15000
Column name: Kinetex Core-Shell C18 2.6 um, 3.0 x 100 mm, Phenomenex
Retention time: 26.263 min
Base peak: 305.1079
Precursor m/z: 305.1083
Precursor type: [M+H]+
m/z	relative intensity	assigned
84.0443	344	C4H6NO+
96.9507	681	H2O2PS+
98.984	125	H4O4P+
100.0215	999	C4H6NS+
114.9613	528	H4O3PS+
153.1019	245	C8H13N2O+
169.0794	770	C8H13N2S+
188.0982	148	C8H16N2OS+
188.1163	150	C8H16N2O3+
