Mass spectrum: Quinoxyfen; LC-ESI-ITFT; MS2; CE: 55; R=15000; [M+H]+
Name: Quinoxyfen
Name: 5,7-Dichloro-4-(4-fluorophenoxy)quinoline
Formula: C15H8Cl2FNO
Exact mass: 306.9967
SMILES: FC1=CC=C(OC2=C3C(Cl)=CC(Cl)=CC3=NC=C2)C=C1
InChI: InChI=1S/C15H8Cl2FNO/c16-9-7-12(17)15-13(8-9)19-6-5-14(15)20-11-3-1-10(18)2-4-11/h1-8H
Instrument: LTQ Orbitrap XL Thermo Scientific
Instrument type: LC-ESI-ITFT
Ms type: MS2
Ion mode: POSITIVE
Ionization: ESI
Fragmentation mode: CID
Collision energy: 55 (nominal)
Resolution: 15000
Column name: Kinetex Core-Shell C18 2.6 um, 3.0 x 100 mm, Phenomenex
Retention time: 27.738 min
Base peak: 308.0038
Precursor m/z: 308.004
Precursor type: [M+H]+
m/z	relative intensity	assigned
150.0105	5	C8H5ClN+
162.0104	2	C9H5ClN+
183.9718	2	C8H4Cl2N+
188.0257	1	C14H4O+
196.9794	155	C9H5Cl2N+
209.0632	2	C14H8FN+
213.9822	36	C9H6Cl2NO+
217.0217	2	C13H7ClF+
219.0245	3	C12H7ClFN+
225.0339	1	C14H8ClN+
228.9684	1	C9H5Cl2NO2+
237.0585	13	C15H8FNO+
238.0674	3	C15H9FNO+
244.0325	74	C14H8ClFN+
245.0404	97	C14H9ClFN+
253.0287	5	C15H8ClNO+
254.0371	12	C15H9ClNO+
256.033	1	C15H8ClFN+
260.0031	3	C14H8Cl2N+
272.0274	999	C15H8ClFNO+
273.036	6	C15H9ClFNO+
280.0091	92	C14H9Cl2FN+
287.998	91	C15H8Cl2NO+
308.0042	4	C15H9Cl2FNO+
