Mass spectrum: Sulfadimidin / sulfamethazin; LC-ESI-ITFT; MS2; CE: 35; R=15000; [M+Na]+
Name: Sulfadimidin / sulfamethazin
Name: Sulfamethazine
Name: 4-Amino-N-(4,6-dimethylpyrimidin-2-yl)benzenesulfonamide
Formula: C12H14N4O2S
Exact mass: 278.0837
SMILES: CC1=CC(C)=NC(NS(=O)(=O)C2=CC=C(N)C=C2)=N1
InChI: InChI=1S/C12H14N4O2S/c1-8-7-9(2)15-12(14-8)16-19(17,18)11-5-3-10(13)4-6-11/h3-7H,13H2,1-2H3,(H,14,15,16)
Instrument: LTQ Orbitrap XL Thermo Scientific
Instrument type: LC-ESI-ITFT
Ms type: MS2
Ion mode: POSITIVE
Ionization: ESI
Fragmentation mode: CID
Collision energy: 35 (nominal)
Resolution: 15000
Column name: Kinetex Core-Shell C18 2.6 um, 3.0 x 100 mm, Phenomenex
Retention time: 15.526 min
Base peak: 163.1308
Precursor m/z: 301.073
Precursor type: [M+Na]+
m/z	relative intensity	assigned
127.0059	99	C3H6NNaOS+
146.0687	669	C6H9N3Na+
208.0176	999	C8H6N3O2S+
213.0802	66	C8H13N4OS+
226.0285	95	C9H7N4NaS+
