Mass spectrum: Imidacloprid-guanidine; LC-ESI-ITFT; MS2; CE: 60%; R=15000; [M+H]+
Name: Imidacloprid-guanidine
Name: (2z)-1-[(6-Chloropyridin-3-Yl)methyl]imidazolidin-2-Imine
Name: 1-[(6-chloropyridin-3-yl)methyl]-4,5-dihydroimidazol-2-amine
Formula: C9H11ClN4
Exact mass: 210.067224032
SMILES: NC1=NCCN1CC1=CN=C(Cl)C=C1
InChI: InChI=1S/C9H11ClN4/c10-8-2-1-7(5-13-8)6-14-4-3-12-9(14)11/h1-2,5H,3-4,6H2,(H2,11,12)
Instrument: LTQ Orbitrap XL Thermo Scientific
Instrument type: LC-ESI-ITFT
Ms type: MS2
Ion mode: POSITIVE
Ionization: ESI
Fragmentation mode: HCD
Collision energy: 60 % (nominal)
Resolution: 15000
Column name: Kinetex Evo C18 2.6 um 50 x 2.1 mm
Retention time: 0.547 min
Base peak: 211.075
Precursor m/z: 211.0745
Precursor type: [M+H]+
Precursor intensity: 4829001.5
m/z	relative intensity	assigned
84.0557	123	C3H6N3+
85.0636	2	C3H7N3+
90.034	10	C6H4N+
106.0653	2	C7H8N+
126.0107	999	C6H5ClN+
128.026	1	C6H7ClN+
132.0559	2	C7H6N3+
133.0762	54	C8H9N2+
168.0323	4	C7H7ClN3+
169.053	16	C8H10ClN2+
175.0981	74	C9H11N4+
176.1059	2	C9H12N4+
194.0483	9	C9H9ClN3+
211.0748	318	C9H12ClN4+
