Mass spectrum: Testosterone; LC-ESI-ITFT; MS2; CE: 40%; R=15000; [M+H]+
Name: Testosterone
Name: (8R,9S,10R,13S,14S,17S)-17-hydroxy-10,13-dimethyl-1,2,6,7,8,9,11,12,14,15,16,17-dodecahydrocyclopenta[a]phenanthren-3-one
Formula: C19H28O2
Exact mass: 288.208930136
SMILES: C[C@]12CC[C@H]3[C@@H](CCC4=CC(=O)CC[C@]34C)[C@@H]1CC[C@@H]2O
InChI: InChI=1S/C19H28O2/c1-18-9-7-13(20)11-12(18)3-4-14-15-5-6-17(21)19(15,2)10-8-16(14)18/h11,14-17,21H,3-10H2,1-2H3/t14-,15-,16-,17-,18-,19-/m0/s1
Instrument: LTQ Orbitrap XL Thermo Scientific
Instrument type: LC-ESI-ITFT
Ms type: MS2
Ion mode: POSITIVE
Ionization: ESI
Fragmentation mode: HCD
Collision energy: 40 % (nominal)
Resolution: 15000
Column name: Kinetex Evo C18 2.6 um 50 x 2.1 mm
Retention time: 11.385 min
Base peak: 289.2163
Precursor m/z: 289.2162
Precursor type: [M+H]+
Precursor intensity: 27703704
m/z	relative intensity	assigned
79.0539	8	C6H7+
81.0697	21	C6H9+
83.0489	44	C5H7O+
91.0539	2	C7H7+
93.0697	22	C7H9+
95.0854	25	C7H11+
97.0646	999	C6H9O+
105.0696	9	C8H9+
107.0853	18	C8H11+
109.0645	694	C7H9O+
111.08	2	C7H11O+
119.0852	9	C9H11+
121.0645	8	C8H9O+
121.1009	22	C9H13+
123.0801	66	C8H11O+
131.0852	11	C10H11+
133.1008	12	C10H13+
135.0802	2	C9H11O+
135.1166	14	C10H15+
137.0957	3	C9H13O+
143.085	5	C11H11+
145.1009	22	C11H13+
147.1165	29	C11H15+
149.1319	11	C11H17+
151.1115	2	C10H15O+
157.1007	14	C12H13+
159.1164	26	C12H15+
161.1321	23	C12H17+
163.1114	11	C11H15O+
163.1478	10	C12H19+
171.1165	18	C13H15+
173.1322	13	C13H17+
175.1112	7	C12H15O+
175.1476	33	C13H19+
177.127	19	C12H17O+
183.1168	5	C14H15+
185.1321	10	C14H17+
187.1477	31	C14H19+
189.1269	11	C13H17O+
189.1634	24	C14H21+
191.1437	3	C13H19O+
197.1321	16	C15H17+
199.1478	18	C15H19+
201.1635	17	C15H21+
211.1473	8	C16H19+
213.1634	25	C16H21+
215.1434	4	C15H19O+
217.1578	7	C15H21O+
219.1734	5	C15H23O+
225.1635	6	C17H21+
227.1793	8	C17H23+
229.1577	2	C16H21O+
229.1945	3	C17H25+
231.174	2	C16H23O+
243.2103	4	C18H27+
245.1901	5	C17H25O+
253.1945	115	C19H25+
271.205	111	C19H27O+
289.2155	629	C19H29O2+
