Mass spectrum: Isoproturon; LC-ESI-ITFT; MS2; CE: 90%; R=15000; [M+H]+
Name: Isoproturon
Name: 1,1-dimethyl-3-(4-propan-2-ylphenyl)urea
Formula: C12H18N2O
Exact mass: 206.141913196
SMILES: CC(C)C1=CC=C(NC(=O)N(C)C)C=C1
InChI: InChI=1S/C12H18N2O/c1-9(2)10-5-7-11(8-6-10)13-12(15)14(3)4/h5-9H,1-4H3,(H,13,15)
Instrument: LTQ Orbitrap XL Thermo Scientific
Instrument type: LC-ESI-ITFT
Ms type: MS2
Ion mode: POSITIVE
Ionization: ESI
Fragmentation mode: HCD
Collision energy: 90 % (nominal)
Resolution: 15000
Column name: Kinetex Evo C18 2.6 um 50 x 2.1 mm
Retention time: 10.022 min
Base peak: 207.1497
Precursor m/z: 207.1492
Precursor type: [M+H]+
Precursor intensity: 40492572
m/z	relative intensity	assigned
72.0442	999	C3H6NO+
77.0385	5	C6H5+
79.0541	3	C6H7+
91.0542	39	C7H7+
92.0494	9	C6H6N+
93.0572	1	C6H7N+
93.0698	3	C7H9+
94.0651	2	C6H8N+
106.0651	3	C7H8N+
107.0855	25	C8H11+
115.0541	3	C9H7+
117.0699	8	C9H9+
119.0729	18	C8H9N+
119.0855	1	C9H11+
120.0444	8	C7H6NO+
132.081	2	C9H10N+
134.0964	58	C9H12N+
147.0914	8	C9H11N2+
162.0914	1	C10H12NO+
165.102	1	C9H13N2O+
