Mass spectrum: Paroxetine; LC-ESI-ITFT; MS2; CE: 40%; R=15000; [M+H]+
Name: Paroxetine
Name: 3-(1,3-benzodioxol-5-yloxymethyl)-4-(4-fluorophenyl)piperidine
Formula: C19H20FNO3
Exact mass: 329.14272172
SMILES: FC1=CC=C(C=C1)C1CCNCC1COC1=CC2=C(OCO2)C=C1
InChI: InChI=1S/C19H20FNO3/c20-15-3-1-13(2-4-15)17-7-8-21-10-14(17)11-22-16-5-6-18-19(9-16)24-12-23-18/h1-6,9,14,17,21H,7-8,10-12H2
Instrument: LTQ Orbitrap XL Thermo Scientific
Instrument type: LC-ESI-ITFT
Ms type: MS2
Ion mode: POSITIVE
Ionization: ESI
Fragmentation mode: HCD
Collision energy: 40 % (nominal)
Resolution: 15000
Column name: Kinetex Evo C18 2.6 um 50 x 2.1 mm
Retention time: 8.665 min
Base peak: 455.2916
Precursor m/z: 330.15
Precursor type: [M+H]+
Precursor intensity: 28460548
m/z	relative intensity	assigned
56.0493	23	C3H6N+
57.0572	6	C3H7N+
58.065	4	C3H8N+
68.0494	22	C4H6N+
70.0651	546	C4H8N+
71.0729	4	C4H9N+
82.0652	6	C5H8N+
83.0729	3	C5H9N+
84.0809	12	C5H10N+
86.0601	10	C4H8NO+
93.0336	3	C6H5O+
96.0809	6	C6H10N+
97.0887	31	C6H11N+
109.0284	4	C6H5O2+
109.0449	51	C7H6F+
123.0442	68	C7H7O2+
123.0606	94	C8H8F+
135.0443	4	C8H7O2+
135.0606	33	C9H8F+
136.0684	12	C9H9F+
137.0763	21	C9H10F+
138.0714	9	C8H9FN+
139.0391	21	C7H7O3+
147.0606	10	C10H8F+
148.0685	3	C10H9F+
149.0762	9	C10H10F+
150.0716	15	C9H9FN+
151.0392	152	C8H7O3+
161.0601	2	C10H9O2+
161.0763	22	C11H10F+
163.092	100	C11H12F+
164.0871	16	C10H11FN+
175.092	10	C12H12F+
176.0998	37	C12H13F+
177.0549	3	C10H9O3+
178.1029	90	C11H13FN+
190.103	11	C12H13FN+
192.1186	999	C12H15FN+
193.1263	55	C12H16FN+
208.1136	12	C12H15FNO+
234.1128	2	C13H16NO3+
313.1241	11	C19H18FO3+
330.1503	784	C19H21FNO3+
