Mass spectrum: Metobromuron; LC-ESI-ITFT; MS2; CE: 60%; R=15000; [M+H]+
Name: Metobromuron
Name: 3-(4-bromophenyl)-1-methoxy-1-methylurea
Formula: C9H11BrN2O2
Exact mass: 258.000389692
SMILES: CON(C)C(=O)NC1=CC=C(Br)C=C1
InChI: InChI=1S/C9H11BrN2O2/c1-12(14-2)9(13)11-8-5-3-7(10)4-6-8/h3-6H,1-2H3,(H,11,13)
Instrument: LTQ Orbitrap XL Thermo Scientific
Instrument type: LC-ESI-ITFT
Ms type: MS2
Ion mode: POSITIVE
Ionization: ESI
Fragmentation mode: HCD
Collision energy: 60 % (nominal)
Resolution: 15000
Column name: Kinetex Evo C18 2.6 um 50 x 2.1 mm
Retention time: 9.620 min
Base peak: 259.0089
Precursor m/z: 259.0077
Precursor type: [M+H]+
Precursor intensity: 13822932
m/z	relative intensity	assigned
60.0442	44	C2H6NO+
62.0599	63	C2H8NO+
91.0417	292	C6H5N+
119.0604	109	C7H7N2+
142.9492	64	C5H4Br+
147.0553	93	C8H7N2O+
148.0632	366	C8H8N2O+
169.9601	999	C6H5BrN+
170.9679	425	C6H6BrN+
226.9812	54	C8H8BrN2O+
