Mass spectrum: Mycophenolic acid; LC-ESI-ITFT; MS2; CE: 35; R=15000; [M-H]-
Name: Mycophenolic acid
Name: (E)-6-(4-Hydroxy-6-methoxy-7-methyl-3-oxo-1H-2-benzofuran-5-yl)-4-methylhex-4-enoic acid
Formula: C17H20O6
Exact mass: 320.1260
SMILES: COC1=C(C)C2=C(C(=O)OC2)C(O)=C1C\C=C(/C)CCC(O)=O
InChI: InChI=1S/C17H20O6/c1-9(5-7-13(18)19)4-6-11-15(20)14-12(8-23-17(14)21)10(2)16(11)22-3/h4,20H,5-8H2,1-3H3,(H,18,19)/b9-4+
Instrument: LTQ Orbitrap XL Thermo Scientific
Instrument type: LC-ESI-ITFT
Ms type: MS2
Ion mode: NEGATIVE
Ionization: ESI
Fragmentation mode: CID
Collision energy: 35 (nominal)
Resolution: 15000
Column name: Kinetex Core-Shell C18 2.6 um, 3.0 x 100 mm, Phenomenex
Retention time: 23.906 min
Base peak: 212.9995
Precursor m/z: 319.1187
Precursor type: [M-H]-
m/z	relative intensity	assigned
179.0351	402	C9H7O4-
191.035	329	C10H7O4-
243.1026	85	C15H15O3-
269.0818	42	C16H13O4-
275.1289	281	C16H19O4-
287.0925	999	C16H15O5-
