Mass spectrum: Daidzein; LC-ESI-ITFT; MS2; CE: 80; R=15000; [M+H]+
Name: Daidzein
Name: 7-Hydroxy-3-(4-hydroxyphenyl)chromen-4-one
Formula: C15H10O4
Exact mass: 254.0579
SMILES: OC1=CC=C(C=C1)C1=COC2=CC(O)=CC=C2C1=O
InChI: InChI=1S/C15H10O4/c16-10-3-1-9(2-4-10)13-8-19-14-7-11(17)5-6-12(14)15(13)18/h1-8,16-17H
Instrument: LTQ Orbitrap XL Thermo Scientific
Instrument type: LC-ESI-ITFT
Ms type: MS2
Ion mode: POSITIVE
Ionization: ESI
Fragmentation mode: HCD
Collision energy: 80 (nominal)
Resolution: 15000
Column name: Kinetex Core-Shell C18 2.6 um, 3.0 x 100 mm, Phenomenex
Retention time: 21.699 min
Base peak: 255.0644
Precursor m/z: 255.0652
Precursor type: [M+H]+
m/z	relative intensity	assigned
81.0334	83	C5H5O+
89.0385	21	C7H5+
91.0541	975	C7H7+
93.0334	19	C6H5O+
105.0334	56	C7H5O+
118.0411	31	C8H6O+
119.049	276	C8H7O+
121.0283	89	C7H5O2+
121.0395	29	C6H5N2O+
128.0619	293	C10H8+
129.0697	139	C10H9+
131.049	106	C9H7O+
131.0855	15	C10H11+
133.0283	52	C8H5O2+
134.0361	91	C8H6O2+
137.0232	977	C7H5O3+
141.0697	53	C11H9+
143.0854	101	C11H11+
145.0283	86	C9H5O2+
149.0232	53	C8H5O3+
152.0619	393	C12H8+
153.0697	599	C12H9+
155.0603	78	C10H7N2+
155.0855	5	C12H11+
157.0646	145	C11H9O+
159.0443	4	C10H7O2+
165.0699	22	C13H9+
169.0647	59	C12H9O+
171.0803	188	C12H11O+
181.0646	999	C13H9O+
182.0724	83	C13H10O+
184.0516	142	C12H8O2+
185.0598	18	C12H9O2+
197.0595	152	C13H9O2+
198.0674	114	C13H10O2+
199.0751	839	C13H11O2+
209.0596	90	C14H9O2+
209.0708	54	C13H9N2O+
210.0676	39	C14H10O2+
211.0753	12	C14H11O2+
212.0466	21	C13H8O3+
213.0545	10	C13H9O3+
226.0622	46	C14H10O3+
227.07	296	C14H11O3+
237.0544	215	C15H9O3+
255.065	239	C15H11O4+
