Mass spectrum: Phenazone / antipyrine; LC-ESI-ITFT; MS2; CE: 55; R=15000; [M+H]+
Name: Phenazone / antipyrine
Name: 1,5-Dimethyl-2-phenylpyrazol-3-one
Formula: C11H12N2O
Exact mass: 188.0950
SMILES: CN1N(C(=O)C=C1C)C1=CC=CC=C1
InChI: InChI=1S/C11H12N2O/c1-9-8-11(14)13(12(9)2)10-6-4-3-5-7-10/h3-8H,1-2H3
Instrument: LTQ Orbitrap XL Thermo Scientific
Instrument type: LC-ESI-ITFT
Ms type: MS2
Ion mode: POSITIVE
Ionization: ESI
Fragmentation mode: CID
Collision energy: 55 (nominal)
Resolution: 15000
Column name: Kinetex Core-Shell C18 2.6 um, 3.0 x 100 mm, Phenomenex
Retention time: 16.961 min
Base peak: 163.1329
Precursor m/z: 189.1022
Precursor type: [M+H]+
m/z	relative intensity	assigned
58.065	22	C3H8N+
70.065	7	C4H8N+
91.0542	23	C7H7+
96.0445	19	C5H6NO+
96.0682	38	C5H8N2+
103.0544	18	C8H7+
104.0495	64	C7H6N+
105.0336	8	C7H5O+
105.0699	21	C8H9+
106.0652	21	C7H8N+
111.0552	34	C5H7N2O+
115.0546	7	C9H7+
117.0574	26	C8H7N+
117.0698	28	C9H9+
118.0652	225	C8H8N+
120.0808	233	C8H10N+
129.07	23	C10H9+
130.0652	344	C9H8N+
131.073	999	C9H9N+
132.0809	226	C9H10N+
133.0077	222	C11H+
133.0523	27	C8H7NO+
133.0761	116	C8H9N2+
134.0967	24	C9H12N+
135.0555	48	C7H7N2O+
144.0809	784	C10H10N+
145.0648	83	C10H9O+
145.0889	18	C10H11N+
146.0839	561	C9H10N2+
146.0965	487	C10H12N+
147.0917	562	C9H11N2+
148.0758	128	C9H10NO+
149.0712	19	C8H9N2O+
157.0528	8	C10H7NO+
158.0601	53	C10H8NO+
159.0922	14	C10H11N2+
160.0999	25	C10H12N2+
161.1074	829	C10H13N2+
162.0914	35	C10H12NO+
171.0918	14	C11H11N2+
172.0758	389	C11H10NO+
174.0789	342	C10H10N2O+
189.1025	50	C11H13N2O+
