Mass spectrum: Quinoline N-oxide; LC-ESI-ITFT; MS2; CE: 80%; R=15000; [M+H]+
Name: Quinoline N-oxide
Name: Quinoline 1-oxide
Name: 1-oxidoquinolin-1-ium
Formula: C9H7NO
Exact mass: 145.052763844
SMILES: [O-][N+]1=CC=CC2=CC=CC=C12
InChI: InChI=1S/C9H7NO/c11-10-7-3-5-8-4-1-2-6-9(8)10/h1-7H
Instrument: LTQ Orbitrap XL Thermo Scientific
Instrument type: LC-ESI-ITFT
Ms type: MS2
Ion mode: POSITIVE
Ionization: ESI
Fragmentation mode: HCD
Collision energy: 80 % (nominal)
Resolution: 15000
Column name: Kinetex Evo C18 2.6 um 50 x 2.1 mm
Retention time: 2.496 min
Base peak: 146.06
Precursor m/z: 146.06
Precursor type: [M+H]+
Precursor intensity: 14641477
m/z	relative intensity	assigned
77.0383	12	C6H5+
78.0462	1	C6H6+
91.054	55	C7H7+
95.0489	2	C6H7O+
101.0385	3	C8H5+
102.0462	6	C8H6+
103.0541	18	C8H7+
117.0571	17	C8H7N+
118.065	22	C8H8N+
119.0491	1	C8H7O+
128.0494	207	C9H6N+
129.057	999	C9H7N+
146.0597	436	C9H8NO+
