Mass spectrum: Norfloxacin; LC-ESI-ITFT; MS2; CE: 90%; R=15000; [M+H]+
Name: Norfloxacin
Name: 1-ethyl-6-fluoro-4-oxo-7-piperazin-1-ylquinoline-3-carboxylic acid
Formula: C16H18FN3O3
Exact mass: 319.133219656
SMILES: CCN1C=C(C(O)=O)C(=O)C2=CC(F)=C(C=C12)N1CCNCC1
InChI: InChI=1S/C16H18FN3O3/c1-2-19-9-11(16(22)23)15(21)10-7-12(17)14(8-13(10)19)20-5-3-18-4-6-20/h7-9,18H,2-6H2,1H3,(H,22,23)
Instrument: LTQ Orbitrap XL Thermo Scientific
Instrument type: LC-ESI-ITFT
Ms type: MS2
Ion mode: POSITIVE
Ionization: ESI
Fragmentation mode: HCD
Collision energy: 90 % (nominal)
Resolution: 15000
Column name: Kinetex Evo C18 2.6 um 50 x 2.1 mm
Retention time: 4.239 min
Base peak: 320.1411
Precursor m/z: 320.1405
Precursor type: [M+H]+
Precursor intensity: 4081422
m/z	relative intensity	assigned
56.0493	36	C3H6N+
58.0649	16	C3H8N+
70.065	91	C4H8N+
109.0449	32	C7H6F+
116.0496	63	C8H6N+
122.0402	30	C7H5FN+
129.0574	25	C9H7N+
130.0652	85	C9H8N+
134.0401	36	C8H5FN+
134.0603	20	C8H8NO+
135.048	99	C8H6FN+
136.0558	104	C8H7FN+
137.051	16	C7H6FN2+
143.0604	32	C9H7N2+
143.0728	18	C10H9N+
144.0447	36	C9H6NO+
144.0557	29	C8H6N3+
146.0398	17	C9H5FN+
148.0558	170	C9H7FN+
149.0512	27	C8H6FN2+
149.0638	34	C9H8FN+
150.0589	18	C8H7FN2+
150.0711	17	C9H9FN+
151.0431	29	C8H6FNO+
155.0606	50	C10H7N2+
156.0684	141	C10H8N2+
157.0762	71	C10H9N2+
158.0602	29	C10H8NO+
160.0557	20	C10H7FN+
161.0512	37	C9H6FN2+
161.0638	33	C10H8FN+
162.0352	145	C9H5FNO+
162.059	38	C9H7FN2+
162.0718	17	C10H9FN+
163.0429	202	C9H6FNO+
163.0668	116	C9H8FN2+
164.0508	144	C9H7FNO+
167.0604	43	C11H7N2+
169.0767	22	C11H9N2+
171.0551	15	C10H7N2O+
171.0915	17	C11H11N2+
172.0761	29	C11H10NO+
174.0588	29	C10H7FN2+
175.0668	186	C10H8FN2+
176.0507	95	C10H7FNO+
176.0746	660	C10H9FN2+
177.0585	99	C10H8FNO+
177.0824	66	C10H10FN2+
178.0539	90	C9H7FN2O+
178.0665	86	C10H9FNO+
178.0904	8	C10H11FN2+
179.0617	68	C9H8FN2O+
184.0632	88	C11H8N2O+
185.0711	260	C11H9N2O+
186.0588	31	C11H7FN2+
187.0667	119	C11H8FN2+
188.0508	47	C11H7FNO+
189.0461	78	C10H6FN2O+
189.0825	210	C11H10FN2+
190.0536	59	C10H7FN2O+
190.0665	118	C11H9FNO+
190.0902	18	C11H11FN2+
191.0617	295	C10H8FN2O+
191.0741	91	C11H10FNO+
192.0694	29	C10H9FN2O+
192.0825	10	C11H11FNO+
197.0702	13	C12H9N2O+
198.0661	38	C11H8N3O+
198.0788	41	C12H10N2O+
198.1026	15	C12H12N3+
199.0869	10	C12H11N2O+
202.054	10	C11H7FN2O+
202.0905	15	C12H11FN2+
203.0617	999	C11H8FN2O+
204.0695	218	C11H9FN2O+
204.1059	131	C12H13FN2+
205.0773	908	C11H10FN2O+
206.0853	31	C11H11FN2O+
207.0933	15	C11H12FN2O+
211.1101	12	C13H13N3+
212.0821	21	C12H10N3O+
213.1025	16	C13H13N2O+
215.0981	17	C13H12FN2+
216.0698	11	C12H9FN2O+
217.0774	101	C12H10FN2O+
218.0851	138	C12H11FN2O+
219.093	135	C12H12FN2O+
226.0978	58	C13H12N3O+
227.1056	8	C13H13N3O+
230.0851	7	C13H11FN2O+
231.0566	608	C12H8FN2O2+
233.1086	146	C13H14FN2O+
245.0718	14	C13H10FN2O2+
249.0675	22	C12H10FN2O3+
254.0919	23	C14H12N3O2+
302.131	9	C16H17FN3O2+
