Mass spectrum: Acetyl-sulfamethoxazole; LC-ESI-ITFT; MS2; CE: 55; R=15000; [M+H]+
Name: Acetyl-sulfamethoxazole
Name: N-[4-[(5-Methyl-1,2-oxazol-3-yl)sulfamoyl]phenyl]acetamide
Formula: C12H13N3O4S
Exact mass: 295.0627
SMILES: CC(=O)NC1=CC=C(C=C1)S(=O)(=O)NC1=NOC(C)=C1
InChI: InChI=1S/C12H13N3O4S/c1-8-7-12(14-19-8)15-20(17,18)11-5-3-10(4-6-11)13-9(2)16/h3-7H,1-2H3,(H,13,16)(H,14,15)
Instrument: LTQ Orbitrap XL Thermo Scientific
Instrument type: LC-ESI-ITFT
Ms type: MS2
Ion mode: POSITIVE
Ionization: ESI
Fragmentation mode: HCD
Collision energy: 55 (nominal)
Resolution: 15000
Column name: Kinetex Core-Shell C18 2.6 um, 3.0 x 100 mm, Phenomenex
Retention time: 19.115 min
Base peak: 163.1328
Precursor m/z: 296.07
Precursor type: [M+H]+
m/z	relative intensity	assigned
79.0543	2	C6H7+
80.0496	5	C5H6N+
92.0496	69	C6H6N+
93.0336	59	C6H5O+
93.0574	99	C6H7N+
94.0652	32	C6H8N+
97.0394	1	C4H5N2O+
98.0476	5	C4H6N2O+
99.0554	66	C4H7N2O+
106.0653	13	C7H8N+
107.0605	12	C6H7N2+
108.0445	366	C6H6NO+
110.0602	5	C6H8NO+
118.053	1	C7H6N2+
118.0656	1	C8H8N+
121.04	2	C6H5N2O+
131.0608	4	C8H7N2+
132.0684	6	C8H8N2+
134.0602	999	C8H8NO+
135.0682	3	C8H9NO+
136.0758	58	C8H10NO+
140.0167	7	C6H6NOS+
146.0715	69	C8H8N3+
147.0561	2	C2H13NO4S+
147.0793	53	C8H9N3+
148.0629	2	C8H8N2O+
148.0872	14	C8H10N3+
150.0553	12	C8H8NO2+
151.0324	2	C7H7N2S+
152.0707	2	C8H10NO2+
156.0116	55	C6H6NO2S+
160.0872	137	C9H10N3+
161.0018	13	C4H5N2O3S+
161.0709	3	C9H9N2O+
162.0664	62	C8H8N3O+
176.028	22	C8H6N3S+
188.0821	29	C10H10N3O+
189.0901	9	C10H11N3O+
190.0977	9	C10H12N3O+
194.0386	21	C8H8N3OS+
198.0222	69	C8H8NO3S+
201.0662	15	C11H9N2O2+
202.0975	2	C11H12N3O+
218.0384	1	C10H8N3OS+
