Mass spectrum: Enrofloxacin; LC-ESI-ITFT; MS2; CE: 60%; R=15000; [M+H]+
Name: Enrofloxacin
Name: 1-cyclopropyl-7-(4-ethylpiperazin-1-yl)-6-fluoro-4-oxoquinoline-3-carboxylic acid
Formula: C19H22FN3O3
Exact mass: 359.164519784
SMILES: CCN1CCN(CC1)C1=C(F)C=C2C(=O)C(=CN(C3CC3)C2=C1)C(O)=O
InChI: InChI=1S/C19H22FN3O3/c1-2-21-5-7-22(8-6-21)17-10-16-13(9-15(17)20)18(24)14(19(25)26)11-23(16)12-3-4-12/h9-12H,2-8H2,1H3,(H,25,26)
Instrument: LTQ Orbitrap XL Thermo Scientific
Instrument type: LC-ESI-ITFT
Ms type: MS2
Ion mode: POSITIVE
Ionization: ESI
Fragmentation mode: HCD
Collision energy: 60 % (nominal)
Resolution: 15000
Column name: Kinetex Evo C18 2.6 um 50 x 2.1 mm
Retention time: 5.884 min
Base peak: 311.1321
Precursor m/z: 360.1718
Precursor type: [M+H]+
Precursor intensity: 15121305
m/z	relative intensity	assigned
56.0492	24	C3H6N+
58.0649	12	C3H8N+
70.065	48	C4H8N+
72.0806	377	C4H10N+
84.0807	211	C5H10N+
85.0885	7	C5H11N+
86.0964	66	C5H12N+
96.0805	4	C6H10N+
98.0963	26	C6H12N+
99.1043	7	C6H13N+
135.0479	27	C8H6FN+
136.0556	39	C8H7FN+
150.0719	4	C9H9FN+
163.0427	7	C9H6FNO+
163.0666	30	C9H8FN2+
169.0764	11	C11H9N2+
174.0595	4	C10H7FN2+
174.0713	8	C11H9FN+
175.0669	8	C10H8FN2+
175.079	9	C11H10FN+
176.0744	34	C10H9FN2+
184.0633	15	C11H8N2O+
189.0458	51	C10H6FN2O+
189.0821	36	C11H10FN2+
191.0615	15	C10H8FN2O+
197.1069	6	C13H13N2+
202.0663	21	C12H9FNO+
203.0615	241	C11H8FN2O+
204.0693	315	C11H9FN2O+
205.0777	38	C11H10FN2O+
215.0615	16	C12H8FN2O+
215.0974	5	C13H12FN2+
216.0693	21	C12H9FN2O+
217.0772	55	C12H10FN2O+
217.0897	13	C13H12FNO+
217.1135	30	C13H14FN2+
219.0928	8	C12H12FN2O+
225.1022	22	C14H13N2O+
227.0985	14	C14H12FN2+
229.0771	53	C13H10FN2O+
230.0488	6	C12H7FN2O2+
230.0858	9	C13H11FN2O+
231.0928	114	C13H12FN2O+
243.0933	12	C14H12FN2O+
245.1085	999	C14H14FN2O+
246.1117	37	C14H16NO3+
257.1084	56	C15H14FN2O+
258.0674	19	C13H9FN3O2+
259.1243	12	C15H16FN2O+
268.1451	4	C16H18N3O+
285.1272	39	C16H16FN3O+
286.0987	160	C15H13FN3O2+
288.1512	12	C16H19FN3O+
296.1775	4	C15H23FN3O2+
300.1139	10	C16H15FN3O2+
314.1662	31	C18H21FN3O+
316.1818	76	C18H23FN3O+
342.161	99	C19H21FN3O2+
360.1715	59	C19H23FN3O3+
