Mass spectrum: Diazinon; LC-ESI-ITFT; MS2; CE: 80%; R=15000; [M+H]+
Name: Diazinon
Name: diethoxy-(6-methyl-2-propan-2-ylpyrimidin-4-yl)oxy-sulfanylidene-lambda5-phosphane
Formula: C12H21N2O3PS
Exact mass: 304.101050162
SMILES: CCOP(=S)(OCC)OC1=CC(C)=NC(=N1)C(C)C
InChI: InChI=1S/C12H21N2O3PS/c1-6-15-18(19,16-7-2)17-11-8-10(5)13-12(14-11)9(3)4/h8-9H,6-7H2,1-5H3
Instrument: LTQ Orbitrap XL Thermo Scientific
Instrument type: LC-ESI-ITFT
Ms type: MS2
Ion mode: POSITIVE
Ionization: ESI
Fragmentation mode: HCD
Collision energy: 80 % (nominal)
Resolution: 15000
Column name: Kinetex Evo C18 2.6 um 50 x 2.1 mm
Retention time: 12.467 min
Base peak: 305.1092
Precursor m/z: 305.1083
Precursor type: [M+H]+
Precursor intensity: 72933768
m/z	relative intensity	assigned
58.9948	15	C2H3S+
64.9784	4	H2O2P+
67.0416	17	C4H5N+
70.065	300	C4H8N+
78.9401	4	OPS+
80.9736	35	H2O3P+
82.995	8	C4H3S+
84.0444	503	C4H6NO+
87.0917	4	C4H11N2+
90.9943	11	C2H4O2P+
96.9508	740	H2O2PS+
100.0215	936	C4H6NS+
109.0049	100	C2H6O3P+
110.9664	14	CH4O2PS+
114.9613	533	H4O3PS+
124.9819	6	C2H6O2PS+
128.0525	4	C6H10NS+
128.9768	8	CH6O3PS+
138.0791	5	C7H10N2O+
153.1023	473	C8H13N2O+
154.0559	39	C7H10N2S+
167.064	7	C8H11N2S+
168.0714	4	C8H12N2S+
169.0795	999	C8H13N2S+
