Mass spectrum: Propoxycarbazone; LC-ESI-ITFT; MS2; CE: 55; R=15000; [M+H]+
Name: Propoxycarbazone
Name: 2-[(4-Methyl-5-oxo-3-propoxy-1,2,4-triazole-1-carbonyl)sulfamoyl]benzoate-methyl
Formula: C15H18N4O7S
Exact mass: 398.0896
SMILES: CCCOC1=NN(C(=O)NS(=O)(=O)C2=CC=CC=C2C(=O)OC)C(=O)N1C
InChI: InChI=1S/C15H18N4O7S/c1-4-9-26-14-16-19(15(22)18(14)2)13(21)17-27(23,24)11-8-6-5-7-10(11)12(20)25-3/h5-8H,4,9H2,1-3H3,(H,17,21)
Instrument: LTQ Orbitrap XL Thermo Scientific
Instrument type: LC-ESI-ITFT
Ms type: MS2
Ion mode: POSITIVE
Ionization: ESI
Fragmentation mode: CID
Collision energy: 55 (nominal)
Resolution: 15000
Column name: Kinetex Core-Shell C18 2.6 um, 3.0 x 100 mm, Phenomenex
Retention time: 22.275 min
Base peak: 202.0852
Precursor m/z: 399.0969
Precursor type: [M+H]+
m/z	relative intensity	assigned
116.0454	29	C3H6N3O2+
135.0442	29	C8H7O2+
158.0924	103	C6H12N3O2+
172.1083	24	C7H14N3O2+
199.0059	608	C8H7O4S+
209.9848	10	C8H4NO4S+
215.1138	73	C8H15N4O3+
367.0707	999	C14H15N4O6S+
