Mass spectrum: Thiacloprid; LC-ESI-ITFT; MS2; CE: 35; R=15000; [M+H]+
Name: Thiacloprid
Formula: C10H9ClN4S
Exact mass: 252.0236
SMILES: C1CSC(=NC#N)N1CC2=CN=C(C=C2)Cl
InChI: InChI=1S/C10H9ClN4S/c11-9-2-1-8(5-13-9)6-15-3-4-16-10(15)14-7-12/h1-2,5H,3-4,6H2
Instrument: LTQ Orbitrap XL Thermo Scientific
Instrument type: LC-ESI-ITFT
Ms type: MS2
Ion mode: POSITIVE
Ionization: ESI
Fragmentation mode: CID
Collision energy: 35 (nominal)
Resolution: 15000
Column name: Kinetex Core-Shell C18 2.6 um, 3.0 x 100 mm, Phenomenex
Retention time: 19.570 min
Base peak: 163.1327
Precursor m/z: 253.0309
Precursor type: [M+H]+
m/z	relative intensity	assigned
90.0339	6	C6H4N+
98.9994	1	C5H4Cl+
103.0324	1	C3H7N2S+
126.0104	999	C6H5ClN+
128.0262	4	C6H7ClN+
141.0216	1	C6H6ClN2+
151.0058	35	C7H4ClN2+
157.0509	16	C8H5N4+
158.0709	2	C9H8N3+
166.0168	3	C7H5ClN3+
186.0139	566	C8H9ClNS+
190.0433	29	C9H8N3S+
193.0277	53	C8H6ClN4+
194.048	34	C9H9ClN3+
205.0277	18	C9H6ClN4+
209.9883	2	C8H5ClN3S+
211.0091	175	C9H8ClN2S+
217.0542	235	C10H9N4S+
218.0622	5	C10H10N4S+
220.0517	1	C10H9ClN4+
224.9999	2	C8H6ClN4S+
226.02	411	C9H9ClN3S+
236.0044	107	C10H7ClN3S+
253.0309	687	C10H10ClN4S+
