Mass spectrum: Fenpropimorph; LC-ESI-ITFT; MS2; CE: 55; R=15000; [M+H]+
Name: Fenpropimorph
Name: 4-[3-(4-Tert-butylphenyl)-2-methylpropyl]-2,6-dimethylmorpholine
Formula: C20H33NO
Exact mass: 303.2562
SMILES: CC(CN1CC(C)OC(C)C1)CC1=CC=C(C=C1)C(C)(C)C
InChI: InChI=1S/C20H33NO/c1-15(12-21-13-16(2)22-17(3)14-21)11-18-7-9-19(10-8-18)20(4,5)6/h7-10,15-17H,11-14H2,1-6H3
Instrument: LTQ Orbitrap XL Thermo Scientific
Instrument type: LC-ESI-ITFT
Ms type: MS2
Ion mode: POSITIVE
Ionization: ESI
Fragmentation mode: CID
Collision energy: 55 (nominal)
Resolution: 15000
Column name: Kinetex Core-Shell C18 2.6 um, 3.0 x 100 mm, Phenomenex
Retention time: 22.432 min
Base peak: 163.1327
Precursor m/z: 304.2635
Precursor type: [M+H]+
m/z	relative intensity	assigned
88.0757	3	C4H10NO+
91.0542	23	C7H7+
98.0963	178	C6H12N+
100.112	10	C6H14N+
102.0913	53	C5H12NO+
103.054	4	C8H7+
105.0698	62	C8H9+
107.0852	6	C8H11+
112.1121	16	C7H14N+
114.091	5	C6H12NO+
115.0542	4	C9H7+
116.1069	295	C6H14NO+
117.0698	18	C9H9+
119.0855	73	C9H11+
128.1072	6	C7H14NO+
130.1226	999	C7H16NO+
131.0854	13	C10H11+
132.0932	32	C10H12+
133.1011	9	C10H13+
145.1009	6	C11H13+
147.1167	993	C11H15+
159.1172	4	C12H15+
161.1325	41	C12H17+
187.148	5	C14H19+
189.1637	132	C14H21+
246.2215	4	C17H28N+
248.2009	209	C16H26NO+
262.2166	33	C17H28NO+
286.2528	32	C20H32N+
