Mass spectrum: Velvione; LC-ESI-ITFT; MS2; CE: 80%; R=15000; [M+H]+
Name: Velvione
Name: cyclohexadec-5-en-1-one
Formula: C16H28O
Exact mass: 236.214015516
SMILES: O=C1CCCCCCCCCCC=CCCC1
InChI: InChI=1S/C16H28O/c17-16-14-12-10-8-6-4-2-1-3-5-7-9-11-13-15-16/h6,8H,1-5,7,9-15H2
Instrument: LTQ Orbitrap XL Thermo Scientific
Instrument type: LC-ESI-ITFT
Ms type: MS2
Ion mode: POSITIVE
Ionization: ESI
Fragmentation mode: HCD
Collision energy: 80 % (nominal)
Resolution: 15000
Column name: Kinetex Evo C18 2.6 um 50 x 2.1 mm
Retention time: 14.330 min
Base peak: 116.9859
Precursor m/z: 237.2213
Precursor type: [M+H]+
Precursor intensity: 617820.94
m/z	relative intensity	assigned
55.0541	999	C4H7+
57.0697	139	C4H9+
67.0542	654	C5H7+
69.0699	645	C5H9+
79.0543	144	C6H7+
81.07	834	C6H9+
83.0493	50	C5H7O+
83.0857	335	C6H11+
91.0544	32	C7H7+
93.07	164	C7H9+
95.0857	681	C7H11+
97.1014	96	C7H13+
107.0858	79	C8H11+
109.1014	145	C8H13+
179.0858	43	C14H11+
180.0933	30	C14H12+
193.1015	121	C15H13+
207.1172	110	C16H15+
