Mass spectrum: Cotinine; LC-ESI-ITFT; MS2; CE: 35; R=15000; [M+H]+
Name: Cotinine
Name: (5S)-1-methyl-5-pyridin-3-ylpyrrolidin-2-one
Formula: C10H12N2O
Exact mass: 176.0950
SMILES: CN1[C@@H](CCC1=O)C1=CC=CN=C1
InChI: InChI=1S/C10H12N2O/c1-12-9(4-5-10(12)13)8-3-2-6-11-7-8/h2-3,6-7,9H,4-5H2,1H3/t9-/m0/s1
Instrument: LTQ Orbitrap XL Thermo Scientific
Instrument type: LC-ESI-ITFT
Ms type: MS2
Ion mode: POSITIVE
Ionization: ESI
Fragmentation mode: CID
Collision energy: 35 (nominal)
Resolution: 15000
Column name: Kinetex Core-Shell C18 2.6 um, 3.0 x 100 mm, Phenomenex
Retention time: 2.635 min
Base peak: 177.1029
Precursor m/z: 177.1022
Precursor type: [M+H]+
m/z	relative intensity	assigned
70.0655	2	C4H8N+
80.0498	198	C5H6N+
98.0604	224	C5H8NO+
118.0656	36	C8H8N+
119.0734	2	C8H9N+
146.0607	287	C9H8NO+
147.006	2	C6HN3O2+
148.0762	3	C9H10NO+
149.0716	57	C8H9N2O+
160.0764	7	C10H10NO+
177.103	999	C10H13N2O+
