Mass spectrum: 4-Methylbenzylidene camphor; LC-ESI-ITFT; MS2; CE: 10%; R=15000; [M+H]+
Name: 4-Methylbenzylidene camphor
Name: 1,7,7-trimethyl-3-[(4-methylphenyl)methylidene]bicyclo[2.2.1]heptan-2-one
Formula: C18H22O
Exact mass: 254.167065324
SMILES: CC1=CC=C(C=C2C3CCC(C)(C2=O)C3(C)C)C=C1
InChI: InChI=1S/C18H22O/c1-12-5-7-13(8-6-12)11-14-15-9-10-18(4,16(14)19)17(15,2)3/h5-8,11,15H,9-10H2,1-4H3
Instrument: LTQ Orbitrap XL Thermo Scientific
Instrument type: LC-ESI-ITFT
Ms type: MS2
Ion mode: POSITIVE
Ionization: ESI
Fragmentation mode: HCD
Collision energy: 10 % (nominal)
Resolution: 15000
Column name: Kinetex Evo C18 2.6 um 50 x 2.1 mm
Retention time: 13.561 min
Base peak: 255.1746
Precursor m/z: 255.1743
Precursor type: [M+H]+
Precursor intensity: 20801692
m/z	relative intensity	assigned
97.0646	1	C6H9O+
111.0803	3	C7H11O+
157.1007	3	C12H13+
171.116	1	C13H15+
185.0964	1	C13H13O+
197.1327	1	C15H17+
199.1122	1	C14H15O+
211.1475	1	C16H19+
213.1271	1	C15H17O+
227.1796	1	C17H23+
237.1633	9	C18H21+
255.1738	999	C18H23O+
