Mass spectrum: Metribuzin; LC-ESI-ITFT; MS2; CE: 20%; R=15000; [M+H]+
Name: Metribuzin
Name: 4-amino-6-tert-butyl-3-methylsulfanyl-1,2,4-triazin-5-one
Formula: C8H14N4OS
Exact mass: 214.088832068
SMILES: CSC1=NN=C(C(=O)N1N)C(C)(C)C
InChI: InChI=1S/C8H14N4OS/c1-8(2,3)5-6(13)12(9)7(14-4)11-10-5/h9H2,1-4H3
Instrument: LTQ Orbitrap XL Thermo Scientific
Instrument type: LC-ESI-ITFT
Ms type: MS2
Ion mode: POSITIVE
Ionization: ESI
Fragmentation mode: HCD
Collision energy: 20 % (nominal)
Resolution: 15000
Column name: Kinetex Evo C18 2.6 um 50 x 2.1 mm
Retention time: 8.315 min
Base peak: 215.0964
Precursor m/z: 215.0961
Precursor type: [M+H]+
Precursor intensity: 37848192
m/z	relative intensity	assigned
187.1009	2	C7H15N4S+
215.0959	999	C8H15N4OS+
