Mass spectrum: N-Isopropyl-N-phenyl-p-phenylenediamine; LC-ESI-ITFT; MS2; CE: 35; R=15000; [M+H]+
Name: N-Isopropyl-N-phenyl-p-phenylenediamine
Name: 1-N-Phenyl-4-N-propan-2-ylbenzene-1,4-diamine
Formula: C15H18N2
Exact mass: 226.1470
SMILES: CC(C)Nc1ccc(Nc2ccccc2)cc1
InChI: InChI=1S/C15H18N2/c1-12(2)16-14-8-10-15(11-9-14)17-13-6-4-3-5-7-13/h3-12,16-17H,1-2H3
Instrument: LTQ Orbitrap XL Thermo Scientific
Instrument type: LC-ESI-ITFT
Ms type: MS2
Ion mode: POSITIVE
Ionization: ESI
Fragmentation mode: CID
Collision energy: 35 (nominal)
Resolution: 15000
Column name: Kinetex Core-Shell C18 2.6 um, 3.0 x 100 mm, Phenomenex
Retention time: 12.896 min
Base peak: 227.1549
Precursor m/z: 227.1543
Precursor type: [M+H]+
m/z	relative intensity	assigned
120.0813	379	C8H10N+
129.0704	2	C10H9+
178.0785	19	C14H10+
182.0973	2	C13H12N+
183.1175	1	C14H15+
193.1021	44	C15H13+
227.1551	999	C15H19N2+
