Mass spectrum: Epiandrosterone; LC-ESI-ITFT; MS2; CE: 35; R=15000; [M+H]+
Name: Epiandrosterone
Name: (3S,5S,8R,9S,10S,13S,14S)-3-Hydroxy-10,13-dimethyl-1,2,3,4,5,6,7,8,9,11,12,14,15,16-tetradecahydrocyclopenta[a]phenanthren-17-one
Formula: C19H30O2
Exact mass: 290.2246
SMILES: O=C2[C@]1(CC[C@H]3[C@H]([C@@H]1CC2)CC[C@H]4C[C@@H](O)CC[C@]34C)C
InChI: InChI=1S/C19H30O2/c1-18-9-7-13(20)11-12(18)3-4-14-15-5-6-17(21)19(15,2)10-8-16(14)18/h12-16,20H,3-11H2,1-2H3/t12-,13-,14-,15-,16-,18-,19-/m0/s1
Instrument: LTQ Orbitrap XL Thermo Scientific
Instrument type: LC-ESI-ITFT
Ms type: MS2
Ion mode: POSITIVE
Ionization: ESI
Fragmentation mode: CID
Collision energy: 35 (nominal)
Resolution: 15000
Column name: Kinetex Core-Shell C18 2.6 um, 3.0 x 100 mm, Phenomenex
Retention time: 26.467 min
Base peak: 315.2311
Precursor m/z: 291.2319
Precursor type: [M+H]+
m/z	relative intensity	assigned
245.0844	127	C17H11NO+
249.1845	999	C16H25O2+
273.2208	154	C19H29O+
