Mass spectrum: Lenacil; LC-ESI-ITFT; MS2; CE: 35; R=15000; [M+H]+
Name: Lenacil
Name: 3-Cyclohexyl-1,5,6,7-tetrahydrocyclopenta[d]pyrimidine-2,4-dione
Formula: C13H18N2O2
Exact mass: 234.1368
SMILES: O=C1NC2=C(CCC2)C(=O)N1C1CCCCC1
InChI: InChI=1S/C13H18N2O2/c16-12-10-7-4-8-11(10)14-13(17)15(12)9-5-2-1-3-6-9/h9H,1-8H2,(H,14,17)
Instrument: LTQ Orbitrap XL Thermo Scientific
Instrument type: LC-ESI-ITFT
Ms type: MS2
Ion mode: POSITIVE
Ionization: ESI
Fragmentation mode: CID
Collision energy: 35 (nominal)
Resolution: 15000
Column name: Kinetex Core-Shell C18 2.6 um, 3.0 x 100 mm, Phenomenex
Retention time: 23.559 min
Base peak: 207.1489
Precursor m/z: 235.1441
Precursor type: [M+H]+
m/z	relative intensity	assigned
72.0442	376	C3H6NO+
133.0074	33	C11H+
151.0184	3	C11H3O+
153.0657	999	C7H9N2O2+
179.0128	25	C12H3O2+
179.1064	24	C11H15O2+
