Mass spectrum: Diphenylphosphate; LC-ESI-ITFT; MS2; CE: 30%; R=15000; [M+H]+
Name: Diphenylphosphate
Name: Diphenyl phosphate
Name: diphenyl hydrogen phosphate
Formula: C12H11O4P
Exact mass: 250.039495462
SMILES: OP(=O)(OC1=CC=CC=C1)OC1=CC=CC=C1
InChI: InChI=1S/C12H11O4P/c13-17(14,15-11-7-3-1-4-8-11)16-12-9-5-2-6-10-12/h1-10H,(H,13,14)
Instrument: LTQ Orbitrap XL Thermo Scientific
Instrument type: LC-ESI-ITFT
Ms type: MS2
Ion mode: POSITIVE
Ionization: ESI
Fragmentation mode: HCD
Collision energy: 30 % (nominal)
Resolution: 15000
Column name: Kinetex Evo C18 2.6 um 50 x 2.1 mm
Retention time: 11.623 min
Base peak: 251.0478
Precursor m/z: 251.0468
Precursor type: [M+H]+
Precursor intensity: 3197285.5
m/z	relative intensity	assigned
77.0388	8	C6H5+
95.0495	12	C6H7O+
152.0623	1	C12H8+
153.0704	33	C12H9+
175.0163	4	C6H8O4P+
233.0369	17	C12H10O3P+
251.0476	999	C12H12O4P+
