Mass spectrum: Ofloxacin; LC-ESI-ITFT; MS2; CE: 80; R=15000; [M+H]+
Name: Ofloxacin
Formula: C18H20FN3O4
Exact mass: 361.1438
SMILES: CC1COC2=C3N1C=C(C(O)=O)C(=O)C3=CC(F)=C2N1CCN(C)CC1
InChI: InChI=1S/C18H20FN3O4/c1-10-9-26-17-14-11(16(23)12(18(24)25)8-22(10)14)7-13(19)15(17)21-5-3-20(2)4-6-21/h7-8,10H,3-6,9H2,1-2H3,(H,24,25)
Instrument: LTQ Orbitrap XL Thermo Scientific
Instrument type: LC-ESI-ITFT
Ms type: MS2
Ion mode: POSITIVE
Ionization: ESI
Fragmentation mode: HCD
Collision energy: 80 (nominal)
Resolution: 15000
Column name: Kinetex Core-Shell C18 2.6 um, 3.0 x 100 mm, Phenomenex
Retention time: 15.858 min
Base peak: 163.1328
Precursor m/z: 362.1511
Precursor type: [M+H]+
m/z	relative intensity	assigned
70.0651	111	C4H8N+
72.0809	108	C4H10N+
82.0652	30	C5H8N+
84.0812	19	C5H10N+
150.0352	298	C8H5FNO+
171.0557	156	C10H7N2O+
177.0459	23	C9H6FN2O+
178.0302	349	C9H5FNO2+
179.038	553	C9H6FNO2+
180.0459	145	C9H7FNO2+
188.051	163	C11H7FNO+
192.0459	200	C10H7FNO2+
193.0413	301	C9H6FN2O2+
194.0254	51	C9H5FNO3+
194.0491	305	C9H7FN2O2+
194.0616	101	C10H9FNO2+
195.0568	51	C9H8FN2O2+
199.0507	169	C11H7N2O2+
200.058	62	C11H8N2O2+
202.0665	21	C12H9FNO+
203.038	55	C11H6FNO2+
203.0621	131	C11H8FN2O+
204.0459	168	C11H7FNO2+
205.0412	766	C10H6FN2O2+
205.0776	288	C11H10FN2O+
206.0491	56	C10H7FN2O2+
217.0412	55	C11H6FN2O2+
218.049	104	C11H7FN2O2+
218.0621	38	C12H9FNO2+
219.0568	774	C11H8FN2O2+
219.0692	40	C12H10FNO2+
220.0647	69	C11H9FN2O2+
220.0772	20	C12H11FNO2+
221.0724	999	C11H10FN2O2+
231.0569	138	C12H8FN2O2+
232.0651	37	C12H9FN2O2+
233.0724	65	C12H10FN2O2+
233.0856	17	C13H12FNO2+
234.0806	35	C12H11FN2O2+
243.0926	17	C14H12FN2O+
245.0726	93	C13H10FN2O2+
247.0883	144	C13H12FN2O2+
253.1215	44	C15H15N3O+
254.0942	11	C16H14O3+
261.1039	652	C14H14FN2O2+
