Mass spectrum: Chloridazon; LC-ESI-ITFT; MS2; CE: 55; R=15000; [M+H]+
Name: Chloridazon
Name: 5-Amino-4-chloro-2-phenylpyridazin-3-one
Formula: C10H8ClN3O
Exact mass: 221.0356
SMILES: NC1=C(Cl)C(=O)N(N=C1)C1=CC=CC=C1
InChI: InChI=1S/C10H8ClN3O/c11-9-8(12)6-13-14(10(9)15)7-4-2-1-3-5-7/h1-6H,12H2
Instrument: LTQ Orbitrap XL Thermo Scientific
Instrument type: LC-ESI-ITFT
Ms type: MS2
Ion mode: POSITIVE
Ionization: ESI
Fragmentation mode: HCD
Collision energy: 55 (nominal)
Resolution: 15000
Column name: Kinetex Core-Shell C18 2.6 um, 3.0 x 100 mm, Phenomenex
Retention time: 18.587 min
Base peak: 163.1326
Precursor m/z: 222.0429
Precursor type: [M+H]+
m/z	relative intensity	assigned
75.9948	2	C2H3ClN+
77.0385	42	C6H5+
83.0239	3	C3H3N2O+
87.9949	5	C3H3ClN+
92.0494	122	C6H6N+
93.0573	4	C6H7N+
94.0651	48	C6H8N+
95.0491	3	C6H7O+
100.9901	5	C3H2ClN2+
101.9741	2	C3HClNO+
104.0494	218	C7H6N+
105.0446	11	C6H5N2+
116.0495	1	C8H6N+
116.9974	1	C4H4ClNO+
119.0007	3	C3H4ClN2O+
119.0605	5	C7H7N2+
120.0443	1	C7H6NO+
128.985	52	C4H2ClN2O+
130.0652	4	C9H8N+
131.0605	3	C8H7N2+
132.0444	3	C8H6NO+
142.053	1	C9H6N2+
146.0116	36	C4H5ClN3O+
149.0152	3	C9H6Cl+
150.0106	3	C8H5ClN+
158.0715	1	C9H8N3+
159.0554	8	C9H7N2O+
159.0679	1	C10H9NO+
160.0632	1	C9H8N2O+
177.0216	4	C9H6ClN2+
178.0054	2	C9H5ClNO+
186.0663	21	C10H8N3O+
187.0742	1	C10H9N3O+
193.029	27	C10H8ClNO+
195.0321	4	C9H8ClN2O+
205.0164	11	C10H6ClN2O+
222.0427	999	C10H9ClN3O+
