Mass spectrum: 11-Ketotestosterone; LC-ESI-ITFT; MS2; CE: 40%; R=15000; [M+H]+
Name: 11-Ketotestosterone
Name: (8S,9S,10R,13S,14S,17S)-17-hydroxy-10,13-dimethyl-2,6,7,8,9,12,14,15,16,17-decahydro-1H-cyclopenta[a]phenanthrene-3,11-dione
Formula: C19H26O3
Exact mass: 302.188194692
SMILES: C[C@]12CC(=O)[C@H]3[C@@H](CCC4=CC(=O)CC[C@]34C)[C@@H]1CC[C@@H]2O
InChI: InChI=1S/C19H26O3/c1-18-8-7-12(20)9-11(18)3-4-13-14-5-6-16(22)19(14,2)10-15(21)17(13)18/h9,13-14,16-17,22H,3-8,10H2,1-2H3/t13-,14-,16-,17+,18-,19-/m0/s1
Instrument: LTQ Orbitrap XL Thermo Scientific
Instrument type: LC-ESI-ITFT
Ms type: MS2
Ion mode: POSITIVE
Ionization: ESI
Fragmentation mode: HCD
Collision energy: 40 % (nominal)
Resolution: 15000
Column name: Kinetex Evo C18 2.6 um 50 x 2.1 mm
Retention time: 9.898 min
Base peak: 116.9858
Precursor m/z: 303.1955
Precursor type: [M+H]+
Precursor intensity: 2399427
m/z	relative intensity	assigned
67.054	5	C5H7+
69.0333	4	C4H5O+
69.0696	3	C5H9+
79.0541	7	C6H7+
81.0697	35	C6H9+
83.049	14	C5H7O+
85.0647	6	C5H9O+
91.0541	5	C7H7+
93.0697	39	C7H9+
95.049	7	C6H7O+
95.0854	42	C7H11+
97.0646	61	C6H9O+
99.044	3	C5H7O2+
105.0697	25	C8H9+
107.0853	58	C8H11+
109.0646	14	C7H9O+
109.101	15	C8H13+
111.0804	12	C7H11O+
119.0854	31	C9H11+
121.0646	405	C8H9O+
123.0802	41	C8H11O+
125.096	4	C8H13O+
131.0853	49	C10H11+
133.0646	8	C9H9O+
133.101	77	C10H13+
135.0802	46	C9H11O+
135.1166	16	C10H15+
137.0959	26	C9H13O+
139.0749	2	C8H11O2+
143.0853	17	C11H11+
145.0646	5	C10H9O+
145.1009	53	C11H13+
147.0802	117	C10H11O+
147.1165	23	C11H15+
149.0958	32	C10H13O+
149.1322	4	C11H17+
151.1114	18	C10H15O+
155.0855	13	C12H11+
157.0646	6	C11H9O+
157.1009	19	C12H13+
159.0802	30	C11H11O+
159.1165	45	C12H15+
161.0959	39	C11H13O+
161.1324	9	C12H17+
163.075	2	C10H11O2+
163.1115	46	C11H15O+
165.1271	3	C11H17O+
167.1064	21	C10H15O2+
169.1012	10	C13H13+
171.0801	38	C12H11O+
171.1166	34	C13H15+
173.0959	63	C12H13O+
173.1325	3	C13H17+
175.1114	19	C12H15O+
175.1486	3	C13H19+
177.127	21	C12H17O+
181.1008	5	C14H13+
183.1165	23	C14H15+
185.0959	13	C13H13O+
185.1321	19	C14H17+
187.1115	19	C13H15O+
187.1474	3	C14H19+
189.0901	2	C12H13O2+
189.1272	31	C13H17O+
191.1064	7	C12H15O2+
193.1009	4	C15H13+
193.1218	7	C12H17O2+
195.1164	6	C15H15+
197.0958	11	C14H13O+
197.1323	13	C15H17+
199.1113	13	C14H15O+
199.1479	11	C15H19+
201.127	25	C14H17O+
201.1638	2	C15H21+
203.1427	13	C14H19O+
205.1225	3	C13H17O2+
207.1167	5	C16H15+
207.1377	8	C13H19O2+
209.1322	20	C16H17+
211.1115	19	C15H15O+
211.1472	5	C16H19+
213.1271	39	C15H17O+
213.1639	6	C16H21+
215.1428	10	C15H19O+
217.158	2	C15H21O+
221.1535	13	C14H21O2+
223.1477	31	C17H19+
225.1273	14	C16H17O+
225.1634	39	C17H21+
227.1427	82	C16H19O+
229.1586	4	C16H21O+
233.1534	9	C15H21O2+
239.1427	19	C17H19O+
239.1791	32	C18H23+
241.1584	113	C17H21O+
243.174	54	C17H23O+
245.1532	33	C16H21O2+
247.1322	2	C15H19O3+
249.1634	34	C19H21+
257.1897	34	C18H25O+
259.1689	288	C17H23O2+
261.1849	3	C17H25O2+
267.174	216	C19H23O+
285.1844	144	C19H25O2+
303.195	999	C19H27O3+
