Mass spectrum: Propranolol; LC-ESI-ITFT; MS2; CE: 60%; R=15000; [M+H]+
Name: Propranolol
Name: 1-naphthalen-1-yloxy-3-(propan-2-ylamino)propan-2-ol
Formula: C16H21NO2
Exact mass: 259.157228912
SMILES: CC(C)NCC(O)COC1=C2C=CC=CC2=CC=C1
InChI: InChI=1S/C16H21NO2/c1-12(2)17-10-14(18)11-19-16-9-5-7-13-6-3-4-8-15(13)16/h3-9,12,14,17-18H,10-11H2,1-2H3
Instrument: LTQ Orbitrap XL Thermo Scientific
Instrument type: LC-ESI-ITFT
Ms type: MS2
Ion mode: POSITIVE
Ionization: ESI
Fragmentation mode: HCD
Collision energy: 60 % (nominal)
Resolution: 15000
Column name: Kinetex Evo C18 2.6 um 50 x 2.1 mm
Retention time: 7.042 min
Base peak: 116.9862
Precursor m/z: 260.1645
Precursor type: [M+H]+
Precursor intensity: 572954.75
m/z	relative intensity	assigned
56.0492	702	C3H6N+
58.0649	436	C3H8N+
60.0806	24	C3H10N+
72.0807	908	C4H10N+
74.06	999	C3H8NO+
84.0808	60	C5H10N+
86.0964	42	C5H12N+
98.0965	596	C6H12N+
100.1121	263	C6H14N+
115.0542	25	C9H7+
116.107	997	C6H14NO+
129.0699	208	C10H9+
141.0699	105	C11H9+
143.0491	53	C10H7O+
145.0649	175	C10H9O+
153.0699	92	C12H9+
155.0856	839	C12H11+
157.0648	690	C11H9O+
165.07	216	C13H9+
168.0569	54	C12H8O+
171.0804	34	C12H11O+
183.0805	637	C13H11O+
218.118	13	C13H16NO2+
260.1648	45	C16H22NO2+
