Mass spectrum: o-Toluidine; LC-ESI-ITFT; MS2; CE: 10%; R=15000; [M+H]+
Name: o-Toluidine
Name: 2-methylaniline
Formula: C7H9N
Exact mass: 107.073499288
SMILES: CC1=C(N)C=CC=C1
InChI: InChI=1S/C7H9N/c1-6-4-2-3-5-7(6)8/h2-5H,8H2,1H3
Instrument: LTQ Orbitrap XL Thermo Scientific
Instrument type: LC-ESI-ITFT
Ms type: MS2
Ion mode: POSITIVE
Ionization: ESI
Fragmentation mode: HCD
Collision energy: 10 % (nominal)
Resolution: 15000
Column name: Kinetex Evo C18 2.6 um 50 x 2.1 mm
Retention time: 0.733 min
Base peak: 108.0808
Precursor m/z: 108.0808
Precursor type: [M+H]+
Precursor intensity: 59972688
m/z	relative intensity	assigned
108.0804	999	C7H10N+
