Mass spectrum: Tri(butoxyethyl)phosphate; LC-ESI-ITFT; MS2; CE: 70%; R=15000; [M+H]+
Name: Tri(butoxyethyl)phosphate
Name: tris(2-butoxyethyl) phosphate
Formula: C18H39O7P
Exact mass: 398.243340218
SMILES: CCCCOCCOP(=O)(OCCOCCCC)OCCOCCCC
InChI: InChI=1S/C18H39O7P/c1-4-7-10-20-13-16-23-26(19,24-17-14-21-11-8-5-2)25-18-15-22-12-9-6-3/h4-18H2,1-3H3
Instrument: LTQ Orbitrap XL Thermo Scientific
Instrument type: LC-ESI-ITFT
Ms type: MS2
Ion mode: POSITIVE
Ionization: ESI
Fragmentation mode: HCD
Collision energy: 70 % (nominal)
Resolution: 15000
Column name: Kinetex Evo C18 2.6 um 50 x 2.1 mm
Retention time: 13.382 min
Base peak: 399.2517
Precursor m/z: 399.2506
Precursor type: [M+H]+
Precursor intensity: 35848508
m/z	relative intensity	assigned
83.0854	121	C6H11+
98.9841	999	H4O4P+
124.9998	142	C2H6O4P+
