Mass spectrum: Loperamide; LC-ESI-ITFT; MS2; CE: 70%; R=15000; [M+H]+
Name: Loperamide
Name: 4-[4-(4-chlorophenyl)-4-hydroxypiperidin-1-yl]-N,N-dimethyl-2,2-diphenylbutanamide
Formula: C29H33ClN2O2
Exact mass: 476.223055976
SMILES: CN(C)C(=O)C(CCN1CCC(O)(CC1)C1=CC=C(Cl)C=C1)(C1=CC=CC=C1)C1=CC=CC=C1
InChI: InChI=1S/C29H33ClN2O2/c1-31(2)27(33)29(24-9-5-3-6-10-24,25-11-7-4-8-12-25)19-22-32-20-17-28(34,18-21-32)23-13-15-26(30)16-14-23/h3-16,34H,17-22H2,1-2H3
Instrument: LTQ Orbitrap XL Thermo Scientific
Instrument type: LC-ESI-ITFT
Ms type: MS2
Ion mode: POSITIVE
Ionization: ESI
Fragmentation mode: HCD
Collision energy: 70 % (nominal)
Resolution: 15000
Column name: Kinetex Evo C18 2.6 um 50 x 2.1 mm
Retention time: 9.659 min
Base peak: 477.2297
Precursor m/z: 477.2303
Precursor type: [M+H]+
Precursor intensity: 71125960
m/z	relative intensity	assigned
91.0539	8	C7H7+
105.0331	8	C7H5O+
115.0538	54	C9H7+
118.0647	2	C8H8N+
132.0808	2	C9H10N+
134.0959	4	C9H12N+
147.0674	3	C9H9NO+
160.1113	5	C11H14N+
165.0695	2	C13H9+
167.085	35	C13H11+
178.0773	22	C14H10+
179.0857	3	C14H11+
189.1142	4	C12H15NO+
193.1006	20	C15H13+
195.0798	2	C14H11O+
207.0794	2	C15H11O+
210.127	999	C15H16N+
222.0907	4	C15H12NO+
223.0984	9	C15H13NO+
236.1059	4	C16H14NO+
238.1218	95	C16H16NO+
266.153	278	C18H20NO+
