Mass spectrum: Torasemide; LC-ESI-ITFT; MS2; CE: 20%; R=15000; [M+H]+
Name: Torasemide
Name: Torsemide
Name: 1-[4-(3-methylanilino)pyridin-3-yl]sulfonyl-3-propan-2-ylurea
Formula: C16H20N4O3S
Exact mass: 348.1256115
SMILES: CC(C)NC(=O)NS(=O)(=O)C1=CN=CC=C1NC1=CC=CC(C)=C1
InChI: InChI=1S/C16H20N4O3S/c1-11(2)18-16(21)20-24(22,23)15-10-17-8-7-14(15)19-13-6-4-5-12(3)9-13/h4-11H,1-3H3,(H,17,19)(H2,18,20,21)
Instrument: LTQ Orbitrap XL Thermo Scientific
Instrument type: LC-ESI-ITFT
Ms type: MS2
Ion mode: POSITIVE
Ionization: ESI
Fragmentation mode: HCD
Collision energy: 20 % (nominal)
Resolution: 15000
Column name: Kinetex Evo C18 2.6 um 50 x 2.1 mm
Retention time: 8.468 min
Base peak: 245.1186
Precursor m/z: 349.1329
Precursor type: [M+H]+
Precursor intensity: 25494956
m/z	relative intensity	assigned
183.0897	2	C9H13NO3+
264.0802	999	C12H14N3O2S+
265.0839	31	C15H11N3O2+
290.0595	188	C13H12N3O3S+
291.0633	5	C16H9N3O3+
349.1328	97	C16H21N4O3S+
