Mass spectrum: Ketoprofen; LC-ESI-ITFT; MS2; CE: 30%; R=15000; [M+H]+
Name: Ketoprofen
Name: 2-(3-benzoylphenyl)propanoic acid
Formula: C16H14O3
Exact mass: 254.094294308
SMILES: CC(C(O)=O)C1=CC=CC(=C1)C(=O)C1=CC=CC=C1
InChI: InChI=1S/C16H14O3/c1-11(16(18)19)13-8-5-9-14(10-13)15(17)12-6-3-2-4-7-12/h2-11H,1H3,(H,18,19)
Instrument: LTQ Orbitrap XL Thermo Scientific
Instrument type: LC-ESI-ITFT
Ms type: MS2
Ion mode: POSITIVE
Ionization: ESI
Fragmentation mode: HCD
Collision energy: 30 % (nominal)
Resolution: 15000
Column name: Kinetex Evo C18 2.6 um 50 x 2.1 mm
Retention time: 10.667 min
Base peak: 255.1022
Precursor m/z: 255.1016
Precursor type: [M+H]+
Precursor intensity: 6192519
m/z	relative intensity	assigned
77.0385	4	C6H5+
105.0335	354	C7H5O+
131.0492	2	C9H7O+
177.0547	92	C10H9O3+
194.0731	8	C14H10O+
209.096	999	C15H13O+
255.1015	262	C16H15O3+
