Mass spectrum: Imidacloprid; LC-ESI-ITFT; MS2; CE: 90%; R=15000; [M+H]+
Name: Imidacloprid
Name: N-[1-[(6-chloro-3-pyridinyl)methyl]-4,5-dihydroimidazol-2-yl]nitramide
Name: N-[1-[(6-chloropyridin-3-yl)methyl]-4,5-dihydroimidazol-2-yl]nitramide
Formula: C9H10ClN5O2
Exact mass: 255.05230224
SMILES: [O-][N+](=O)\N=C1/NCCN1CC1=CN=C(Cl)C=C1
InChI: InChI=1S/C9H10ClN5O2/c10-8-2-1-7(5-12-8)6-14-4-3-11-9(14)13-15(16)17/h1-2,5H,3-4,6H2,(H,11,13)
Instrument: LTQ Orbitrap XL Thermo Scientific
Instrument type: LC-ESI-ITFT
Ms type: MS2
Ion mode: POSITIVE
Ionization: ESI
Fragmentation mode: HCD
Collision energy: 90 % (nominal)
Resolution: 15000
Column name: Kinetex Evo C18 2.6 um 50 x 2.1 mm
Retention time: 6.012 min
Base peak: 239.1511
Precursor m/z: 256.0596
Precursor type: [M+H]+
Precursor intensity: 5876656
m/z	relative intensity	assigned
56.0493	40	C3H6N+
63.0229	8	C5H3+
65.0385	16	C5H5+
69.0447	18	C3H5N2+
71.0604	15	C3H7N2+
80.0496	23	C5H6N+
84.0558	244	C3H6N3+
90.034	123	C6H4N+
91.0418	31	C6H5N+
92.0496	32	C6H6N+
93.0574	17	C6H7N+
96.0444	9	C5H6NO+
97.0633	4	C4H7N3+
98.0715	14	C4H8N3+
98.9998	44	C5H4Cl+
99.0555	27	C4H7N2O+
104.037	9	C6H4N2+
105.0449	87	C6H5N2+
106.0653	86	C7H8N+
107.0606	76	C6H7N2+
108.0684	18	C6H8N2+
113.0029	39	C5H4ClN+
114.0108	19	C5H5ClN+
118.0528	25	C7H6N2+
119.0481	45	C6H5N3+
119.0606	70	C7H7N2+
120.0558	60	C6H6N3+
120.0683	6	C7H8N2+
121.0638	14	C6H7N3+
122.0715	13	C6H8N3+
123.0557	12	C3H10ClN3+
126.0107	189	C6H5ClN+
127.0186	43	C6H6ClN+
128.0264	79	C6H7ClN+
131.0481	14	C7H5N3+
131.0607	59	C8H7N2+
132.0559	46	C7H6N3+
132.0685	19	C8H8N2+
133.0637	114	C7H7N3+
133.0762	99	C8H9N2+
134.0715	70	C7H8N3+
135.0794	27	C7H9N3+
138.0109	6	C7H5ClN+
139.0061	21	C6H4ClN2+
140.0136	8	C6H5ClN2+
140.0265	12	C7H7ClN+
141.0217	99	C6H6ClN2+
144.0215	11	C6H7ClNO+
146.0591	32	C7H6N4+
146.0716	185	C8H8N3+
147.0668	264	C7H7N4+
147.0792	16	C8H9N3+
148.0745	15	C7H8N4+
148.0872	117	C8H10N3+
151.0187	6	C8H6ClN+
152.0138	14	C7H5ClN2+
153.0218	13	C7H6ClN2+
154.0171	7	C6H5ClN3+
155.0373	4	C7H8ClN2+
157.0638	26	C9H7N3+
158.0716	143	C9H8N3+
159.0668	24	C8H7N4+
159.0794	218	C9H9N3+
166.0171	50	C7H5ClN3+
167.0374	63	C8H8ClN2+
173.0826	419	C9H9N4+
174.0904	227	C9H10N4+
175.0982	780	C9H11N4+
180.033	21	C8H7ClN3+
181.0278	84	C7H6ClN4+
191.0931	38	C9H11N4O+
192.0332	5	C9H7ClN3+
194.0485	37	C9H9ClN3+
207.0439	21	C9H8ClN4+
208.0514	70	C9H9ClN4+
209.0592	999	C9H10ClN4+
