Mass spectrum: Gestoden; LC-ESI-ITFT; MS2; CE: 80%; R=15000; [M+H]+
Name: Gestoden
Name: Gestodene
Name: (8R,9S,10R,13S,14S,17R)-13-ethyl-17-ethynyl-17-hydroxy-1,2,6,7,8,9,10,11,12,14-decahydrocyclopenta[a]phenanthren-3-one
Formula: C21H26O2
Exact mass: 310.193280072
SMILES: [H][C@@]12C=C[C@@](O)(C#C)[C@@]1(CC)CC[C@]1([H])[C@@]3([H])CCC(=O)C=C3CC[C@@]21[H]
InChI: InChI=1S/C21H26O2/c1-3-20-11-9-17-16-8-6-15(22)13-14(16)5-7-18(17)19(20)10-12-21(20,23)4-2/h2,10,12-13,16-19,23H,3,5-9,11H2,1H3/t16-,17+,18+,19-,20-,21-/m0/s1
Instrument: LTQ Orbitrap XL Thermo Scientific
Instrument type: LC-ESI-ITFT
Ms type: MS2
Ion mode: POSITIVE
Ionization: ESI
Fragmentation mode: HCD
Collision energy: 80 % (nominal)
Resolution: 15000
Column name: Kinetex Evo C18 2.6 um 50 x 2.1 mm
Retention time: 11.320 min
Base peak: 289.2162
Precursor m/z: 311.2006
Precursor type: [M+H]+
Precursor intensity: 9641104
m/z	relative intensity	assigned
77.0382	87	C6H5+
79.0539	368	C6H7+
81.0332	315	C5H5O+
81.0696	351	C6H9+
83.0488	440	C5H7O+
91.054	524	C7H7+
93.0696	230	C7H9+
95.0489	33	C6H7O+
95.0853	84	C7H11+
103.0538	69	C8H7+
105.0332	135	C7H5O+
105.0695	316	C8H9+
107.0488	183	C7H7O+
107.0852	98	C8H11+
109.0644	999	C7H9O+
115.0538	104	C9H7+
116.0619	31	C9H8+
117.0695	227	C9H9+
119.0493	18	C8H7O+
119.0852	199	C9H11+
121.0644	48	C8H9O+
121.1007	40	C9H13+
128.0616	118	C10H8+
129.0695	192	C10H9+
130.0776	49	C10H10+
131.0852	190	C10H11+
133.0642	103	C9H9O+
133.1009	55	C10H13+
135.08	79	C9H11O+
141.0695	125	C11H9+
142.0772	88	C11H10+
143.085	109	C11H11+
144.0576	18	C10H8O+
144.0932	20	C11H12+
145.0646	39	C10H9O+
145.1005	85	C11H13+
147.0801	47	C10H11O+
149.0958	38	C10H13O+
153.0692	90	C12H9+
154.0773	53	C12H10+
155.0851	103	C12H11+
157.0641	28	C11H9O+
157.1004	56	C12H13+
159.0797	38	C11H11O+
165.0696	59	C13H9+
166.0774	37	C13H10+
167.085	62	C13H11+
168.0927	40	C13H12+
171.0804	23	C12H11O+
171.1166	23	C13H15+
173.096	21	C12H13O+
179.0855	33	C14H11+
181.1004	45	C14H13+
183.1163	23	C14H15+
193.1015	23	C15H13+
197.1324	16	C15H17+
201.1271	40	C14H17O+
