Mass spectrum: Velvione; LC-ESI-ITFT; MS2; CE: 50%; R=15000; [M+H]+
Name: Velvione
Name: cyclohexadec-5-en-1-one
Formula: C16H28O
Exact mass: 236.214015516
SMILES: O=C1CCCCCCCCCCC=CCCC1
InChI: InChI=1S/C16H28O/c17-16-14-12-10-8-6-4-2-1-3-5-7-9-11-13-15-16/h6,8H,1-5,7,9-15H2
Instrument: LTQ Orbitrap XL Thermo Scientific
Instrument type: LC-ESI-ITFT
Ms type: MS2
Ion mode: POSITIVE
Ionization: ESI
Fragmentation mode: HCD
Collision energy: 50 % (nominal)
Resolution: 15000
Column name: Kinetex Evo C18 2.6 um 50 x 2.1 mm
Retention time: 14.344 min
Base peak: 116.9859
Precursor m/z: 237.2213
Precursor type: [M+H]+
Precursor intensity: 665764.06
m/z	relative intensity	assigned
55.0541	396	C4H7+
57.0698	93	C4H9+
67.0542	448	C5H7+
69.0699	460	C5H9+
79.0544	84	C6H7+
81.07	999	C6H9+
83.0493	63	C5H7O+
83.0857	499	C6H11+
93.0701	116	C7H9+
95.0857	930	C7H11+
97.065	48	C6H9O+
97.1014	353	C7H13+
107.0857	110	C8H11+
109.1014	401	C8H13+
111.1171	52	C8H15+
121.1014	153	C9H13+
123.117	273	C9H15+
135.1171	140	C10H15+
137.1326	90	C10H17+
149.1329	97	C11H17+
163.1485	46	C12H19+
193.1013	28	C15H13+
195.1168	75	C15H15+
208.1249	39	C16H16+
209.1329	22	C16H17+
219.2105	75	C16H27+
237.2216	174	C16H29O+
