Mass spectrum: Gestoden; LC-ESI-ITFT; MS2; CE: 70%; R=15000; [M+H]+
Name: Gestoden
Name: Gestodene
Name: (8R,9S,10R,13S,14S,17R)-13-ethyl-17-ethynyl-17-hydroxy-1,2,6,7,8,9,10,11,12,14-decahydrocyclopenta[a]phenanthren-3-one
Formula: C21H26O2
Exact mass: 310.193280072
SMILES: [H][C@@]12C=C[C@@](O)(C#C)[C@@]1(CC)CC[C@]1([H])[C@@]3([H])CCC(=O)C=C3CC[C@@]21[H]
InChI: InChI=1S/C21H26O2/c1-3-20-11-9-17-16-8-6-15(22)13-14(16)5-7-18(17)19(20)10-12-21(20,23)4-2/h2,10,12-13,16-19,23H,3,5-9,11H2,1H3/t16-,17+,18+,19-,20-,21-/m0/s1
Instrument: LTQ Orbitrap XL Thermo Scientific
Instrument type: LC-ESI-ITFT
Ms type: MS2
Ion mode: POSITIVE
Ionization: ESI
Fragmentation mode: HCD
Collision energy: 70 % (nominal)
Resolution: 15000
Column name: Kinetex Evo C18 2.6 um 50 x 2.1 mm
Retention time: 11.320 min
Base peak: 289.2162
Precursor m/z: 311.2006
Precursor type: [M+H]+
Precursor intensity: 9641104
m/z	relative intensity	assigned
77.0382	41	C6H5+
79.0539	271	C6H7+
81.0332	344	C5H5O+
81.0696	240	C6H9+
83.0488	340	C5H7O+
91.0539	362	C7H7+
93.0696	213	C7H9+
95.0489	41	C6H7O+
95.0852	119	C7H11+
103.0538	31	C8H7+
105.0331	119	C7H5O+
105.0695	305	C8H9+
107.0488	199	C7H7O+
107.0852	113	C8H11+
109.0644	999	C7H9O+
115.0539	58	C9H7+
116.0619	31	C9H8+
117.0695	185	C9H9+
119.0487	16	C8H7O+
119.0851	188	C9H11+
121.0645	52	C8H9O+
121.1008	51	C9H13+
123.0801	55	C8H11O+
128.0617	75	C10H8+
129.0694	192	C10H9+
130.0772	25	C10H10+
131.0851	182	C10H11+
133.0643	128	C9H9O+
133.1008	95	C10H13+
135.08	96	C9H11O+
135.117	12	C10H15+
141.0694	92	C11H9+
142.0771	55	C11H10+
143.0851	137	C11H11+
144.0565	17	C10H8O+
145.0644	42	C10H9O+
145.1007	114	C11H13+
147.0801	71	C10H11O+
147.1165	37	C11H15+
149.0956	61	C10H13O+
153.0693	56	C12H9+
154.0771	42	C12H10+
155.085	117	C12H11+
157.0641	23	C11H9O+
157.1008	62	C12H13+
159.0801	59	C11H11O+
159.1162	48	C12H15+
161.0955	58	C11H13O+
161.1321	26	C12H17+
163.1114	21	C11H15O+
165.0697	31	C13H9+
166.0769	26	C13H10+
167.0849	58	C13H11+
168.0928	32	C13H12+
169.1009	53	C13H13+
171.0807	16	C12H11O+
171.1165	58	C13H15+
173.0954	32	C12H13O+
173.132	35	C13H17+
175.1115	15	C12H15O+
179.0849	26	C14H11+
181.1007	53	C14H13+
183.1164	36	C14H15+
185.0957	12	C13H13O+
185.1319	15	C14H17+
191.0852	10	C15H11+
193.1012	19	C15H13+
195.1163	14	C15H15+
197.1317	14	C15H17+
199.1121	11	C14H15O+
201.1268	70	C14H17O+
209.133	10	C16H17+
