Mass spectrum: Ametryn; LC-ESI-ITFT; MS2; CE: 55; R=15000; [M+H]+
Name: Ametryn
Name: 4-N-Ethyl-6-methylsulfanyl-2-N-propan-2-yl-1,3,5-triazine-2,4-diamine
Formula: C9H17N5S
Exact mass: 227.1205
SMILES: CCNC1=NC(NC(C)C)=NC(SC)=N1
InChI: InChI=1S/C9H17N5S/c1-5-10-7-12-8(11-6(2)3)14-9(13-7)15-4/h6H,5H2,1-4H3,(H2,10,11,12,13,14)
Instrument: LTQ Orbitrap XL Thermo Scientific
Instrument type: LC-ESI-ITFT
Ms type: MS2
Ion mode: POSITIVE
Ionization: ESI
Fragmentation mode: HCD
Collision energy: 55 (nominal)
Resolution: 15000
Column name: Kinetex Core-Shell C18 2.6 um, 3.0 x 100 mm, Phenomenex
Retention time: 21.743 min
Base peak: 224.0915
Precursor m/z: 228.1277
Precursor type: [M+H]+
m/z	relative intensity	assigned
71.0603	28	C3H7N2+
74.0059	11	C2H4NS+
85.0509	5	C2H5N4+
91.0325	101	C2H7N2S+
96.0556	149	C4H6N3+
102.0372	5	C4H8NS+
110.0462	2	C3H4N5+
113.0822	24	C4H9N4+
116.0277	95	C3H6N3S+
138.0775	75	C5H8N5+
138.1027	15	C7H12N3+
144.059	78	C5H10N3S+
158.0496	60	C4H8N5S+
171.0572	2	C5H9N5S+
180.1245	9	C8H14N5+
184.0657	1	C6H10N5S+
186.0807	999	C6H12N5S+
200.0961	2	C7H14N5S+
228.1278	301	C9H18N5S+
