Mass spectrum: Chloridazon; LC-ESI-ITFT; MS2; CE: 90%; R=15000; [M+H]+
Name: Chloridazon
Name: 5-amino-4-chloro-2-phenylpyridazin-3-one
Formula: C10H8ClN3O
Exact mass: 221.035589556
SMILES: NC1=C(Cl)C(=O)N(N=C1)C1=CC=CC=C1
InChI: InChI=1S/C10H8ClN3O/c11-9-8(12)6-13-14(10(9)15)7-4-2-1-3-5-7/h1-6H,12H2
Instrument: LTQ Orbitrap XL Thermo Scientific
Instrument type: LC-ESI-ITFT
Ms type: MS2
Ion mode: POSITIVE
Ionization: ESI
Fragmentation mode: HCD
Collision energy: 90 % (nominal)
Resolution: 15000
Column name: Kinetex Evo C18 2.6 um 50 x 2.1 mm
Retention time: 6.338 min
Base peak: 222.0432
Precursor m/z: 222.0429
Precursor type: [M+H]+
Precursor intensity: 10095282
m/z	relative intensity	assigned
63.9946	30	C4O+
65.0383	433	C5H5+
66.0209	14	C3H2N2+
67.0288	10	C3H3N2+
73.979	14	C2HClN+
75.9947	36	C2H3ClN+
77.0384	636	C6H5+
83.0238	25	C3H3N2O+
87.9947	150	C3H3ClN+
92.0493	999	C6H6N+
93.0571	125	C6H7N+
94.065	195	C6H8N+
95.049	138	C6H7O+
100.9899	203	C3H2ClN2+
101.974	30	C3HClNO+
102.0464	7	C8H6+
103.0542	12	C8H7+
104.0493	569	C7H6N+
105.0445	358	C6H5N2+
115.054	8	C9H7+
116.0494	7	C8H6N+
116.9974	32	C4H4ClNO+
117.0572	7	C8H7N+
119.0004	4	C3H4ClN2O+
119.0602	23	C7H7N2+
120.0442	7	C7H6NO+
125.0152	6	C7H6Cl+
128.9848	211	C4H2ClN2O+
130.0649	74	C9H8N+
131.0602	28	C8H7N2+
132.0442	32	C8H6NO+
132.0678	11	C8H8N2+
133.0519	4	C8H7NO+
140.0258	9	C10H4O+
140.0493	11	C10H6N+
141.0443	4	C9H5N2+
141.057	23	C10H7N+
142.0524	13	C9H6N2+
143.0604	3	C9H7N2+
146.0113	267	C4H5ClN3O+
149.0151	40	C9H6Cl+
150.0103	55	C8H5ClN+
158.0599	11	C10H8NO+
158.0711	5	C9H8N3+
159.055	18	C9H7N2O+
159.0785	5	C9H9N3+
160.0632	5	C9H8N2O+
169.0391	5	C10H5N2O+
176.0261	9	C10H7ClN+
177.021	7	C9H6ClN2+
186.0656	11	C10H8N3O+
193.0285	47	C10H8ClNO+
195.0316	3	C9H8ClN2O+
205.0163	5	C10H6ClN2O+
222.0425	106	C10H9ClN3O+
