Mass spectrum: Testosterone; LC-ESI-ITFT; MS2; CE: 35; R=15000; [M+H]+
Name: Testosterone
Name: (8R,9S,10R,13S,14S,17S)-17-Hydroxy-10,13-dimethyl-1,2,6,7,8,9,11,12,14,15,16,17-dodecahydrocyclopenta[a]phenanthren-3-one
Formula: C19H28O2
Exact mass: 288.2089
SMILES: C[C@]12CC[C@H]3[C@@H](CCC4=CC(=O)CC[C@]34C)[C@@H]1CC[C@@H]2O
InChI: InChI=1S/C19H28O2/c1-18-9-7-13(20)11-12(18)3-4-14-15-5-6-17(21)19(15,2)10-8-16(14)18/h11,14-17,21H,3-10H2,1-2H3/t14-,15-,16-,17-,18-,19-/m0/s1
Instrument: LTQ Orbitrap XL Thermo Scientific
Instrument type: LC-ESI-ITFT
Ms type: MS2
Ion mode: POSITIVE
Ionization: ESI
Fragmentation mode: CID
Collision energy: 35 (nominal)
Resolution: 15000
Column name: Kinetex Core-Shell C18 2.6 um, 3.0 x 100 mm, Phenomenex
Retention time: 24.975 min
Base peak: 289.2153
Precursor m/z: 289.2162
Precursor type: [M+H]+
m/z	relative intensity	assigned
91.054	7	C7H7+
93.0696	12	C7H9+
95.0854	21	C7H11+
97.0646	670	C6H9O+
105.0697	16	C8H9+
107.0852	10	C8H11+
109.0645	285	C7H9O+
109.101	16	C8H13+
117.0695	6	C9H9+
119.0853	14	C9H11+
121.0645	13	C8H9O+
121.101	23	C9H13+
123.0803	70	C8H11O+
123.1164	4	C9H15+
129.0699	4	C10H9+
131.0853	36	C10H11+
133.1009	20	C10H13+
135.1166	48	C10H15+
143.0853	36	C11H11+
145.101	63	C11H13+
147.1166	43	C11H15+
149.0959	13	C10H13O+
149.132	23	C11H17+
151.1124	3	C10H15O+
155.0852	6	C12H11+
157.1009	98	C12H13+
159.1166	80	C12H15+
161.0962	11	C11H13O+
161.1323	34	C12H17+
163.1115	26	C11H15O+
163.1478	16	C12H19+
169.1012	12	C13H13+
171.1166	108	C13H15+
173.1322	67	C13H17+
175.1115	13	C12H15O+
175.1479	91	C13H19+
177.1271	35	C12H17O+
183.1165	43	C14H15+
185.1322	37	C14H17+
187.1479	119	C14H19+
189.127	33	C13H17O+
189.1635	121	C14H21+
191.1432	6	C13H19O+
197.1322	109	C15H17+
199.1478	52	C15H19+
201.1275	8	C14H17O+
201.1636	53	C15H21+
203.143	12	C14H19O+
211.1479	59	C16H19+
213.1635	123	C16H21+
215.1427	35	C15H19O+
217.1586	9	C15H21O+
219.1742	22	C15H23O+
225.1633	45	C17H21+
227.1792	35	C17H23+
229.1581	12	C16H21O+
229.1947	22	C17H25+
231.1735	4	C16H23O+
243.1741	11	C17H23O+
243.2103	47	C18H27+
245.1903	4	C17H25O+
253.1947	999	C19H25+
271.2052	769	C19H27O+
289.2158	383	C19H29O2+
