Mass spectrum: 4,4`-Thiodianiline; LC-ESI-ITFT; MS2; CE: 60%; R=15000; [M+H]+
Name: 4,4`-Thiodianiline
Name: 4-(4-aminophenyl)sulfanylaniline
Formula: C12H12N2S
Exact mass: 216.072119384
SMILES: NC1=CC=C(SC2=CC=C(N)C=C2)C=C1
InChI: InChI=1S/C12H12N2S/c13-9-1-5-11(6-2-9)15-12-7-3-10(14)4-8-12/h1-8H,13-14H2
Instrument: LTQ Orbitrap XL Thermo Scientific
Instrument type: LC-ESI-ITFT
Ms type: MS2
Ion mode: POSITIVE
Ionization: ESI
Fragmentation mode: HCD
Collision energy: 60 % (nominal)
Resolution: 15000
Column name: Kinetex Evo C18 2.6 um 50 x 2.1 mm
Retention time: 2.293 min
Base peak: 217.0797
Precursor m/z: 217.0794
Precursor type: [M+H]+
Precursor intensity: 11624007
m/z	relative intensity	assigned
80.0493	19	C5H6N+
93.0571	53	C6H7N+
94.065	2	C6H8N+
124.0213	999	C6H6NS+
125.029	2	C6H7NS+
129.0695	6	C10H9+
134.0182	3	C8H6S+
139.0539	15	C11H7+
156.0806	9	C11H10N+
167.0726	81	C12H9N+
171.0259	10	C11H7S+
173.0416	9	C11H9S+
183.026	83	C12H7S+
184.0337	72	C12H8S+
184.0993	9	C12H12N2+
199.0447	191	C12H9NS+
200.0525	329	C12H10NS+
211.0321	55	C12H7N2S+
215.0631	3	C12H11N2S+
216.0713	89	C12H12N2S+
217.079	216	C12H13N2S+
