Mass spectrum: Progesterone; LC-ESI-ITFT; MS2; CE: 40%; R=15000; [M+H]+
Name: Progesterone
Name: (8S,9S,10R,13S,14S,17S)-17-acetyl-10,13-dimethyl-1,2,6,7,8,9,11,12,14,15,16,17-dodecahydrocyclopenta[a]phenanthren-3-one
Formula: C21H30O2
Exact mass: 314.2245802
SMILES: CC(=O)[C@H]1CC[C@H]2[C@@H]3CCC4=CC(=O)CC[C@]4(C)[C@H]3CC[C@]12C
InChI: InChI=1S/C21H30O2/c1-13(22)17-6-7-18-16-5-4-14-12-15(23)8-10-20(14,2)19(16)9-11-21(17,18)3/h12,16-19H,4-11H2,1-3H3/t16-,17+,18-,19-,20-,21+/m0/s1
Instrument: LTQ Orbitrap XL Thermo Scientific
Instrument type: LC-ESI-ITFT
Ms type: MS2
Ion mode: POSITIVE
Ionization: ESI
Fragmentation mode: HCD
Collision energy: 40 % (nominal)
Resolution: 15000
Column name: Kinetex Evo C18 2.6 um 50 x 2.1 mm
Retention time: 12.394 min
Base peak: 315.232
Precursor m/z: 315.2319
Precursor type: [M+H]+
Precursor intensity: 18422266
m/z	relative intensity	assigned
69.0698	2	C5H9+
79.0541	6	C6H7+
81.0697	18	C6H9+
83.049	34	C5H7O+
85.0646	32	C5H9O+
91.0541	2	C7H7+
93.0698	10	C7H9+
95.0854	21	C7H11+
97.0646	999	C6H9O+
105.0697	9	C8H9+
107.0854	16	C8H11+
109.0646	777	C7H9O+
119.0853	20	C9H11+
121.0648	5	C8H9O+
121.101	26	C9H13+
123.0802	76	C8H11O+
123.1165	5	C9H15+
131.0853	10	C10H11+
133.1009	19	C10H13+
135.08	2	C9H11O+
135.1167	13	C10H15+
137.0959	18	C9H13O+
143.0856	3	C11H11+
145.1009	23	C11H13+
147.1166	31	C11H15+
149.0958	6	C10H13O+
149.1324	10	C11H17+
151.1114	8	C10H15O+
157.1011	9	C12H13+
159.1166	29	C12H15+
161.1322	16	C12H17+
163.1116	22	C11H15O+
163.1479	6	C12H19+
165.1272	4	C11H17O+
169.1013	2	C13H13+
171.1167	17	C13H15+
173.1323	31	C13H17+
175.1115	5	C12H15O+
175.1477	11	C13H19+
177.1271	33	C12H17O+
183.1165	6	C14H15+
185.132	11	C14H17+
187.1114	4	C13H15O+
187.1479	14	C14H19+
189.1271	15	C13H17O+
189.1634	7	C14H21+
191.1429	14	C13H19O+
197.1318	5	C15H17+
199.1479	9	C15H19+
201.1634	23	C15H21+
203.1429	3	C14H19O+
205.1594	4	C14H21O+
209.1323	4	C16H17+
211.1478	4	C16H19+
213.1635	14	C16H21+
215.1428	10	C15H19O+
215.179	19	C16H23+
219.1738	7	C15H23O+
223.1479	9	C17H19+
227.1426	3	C16H19O+
227.1793	13	C17H23+
229.1584	10	C16H21O+
231.1735	5	C16H23O+
233.1896	6	C16H25O+
237.1635	4	C18H21+
239.1789	24	C18H23+
241.1582	11	C17H21O+
245.1902	9	C17H25O+
251.1787	4	C19H23+
253.1948	14	C19H25+
255.1748	6	C18H23O+
255.2105	41	C19H27+
257.1899	8	C18H25O+
269.2263	2	C20H29+
271.2058	3	C19H27O+
273.2212	20	C19H29O+
279.2105	42	C21H27+
297.2208	107	C21H29O+
315.2313	229	C21H31O2+
