Mass spectrum: Sulfadimidin / sulfamethazin; LC-ESI-ITFT; MS2; CE: 55; R=15000; [M+H]+
Name: Sulfadimidin / sulfamethazin
Name: Sulfamethazine
Name: 4-Amino-N-(4,6-dimethylpyrimidin-2-yl)benzenesulfonamide
Formula: C12H14N4O2S
Exact mass: 278.0837
SMILES: CC1=CC(C)=NC(NS(=O)(=O)C2=CC=C(N)C=C2)=N1
InChI: InChI=1S/C12H14N4O2S/c1-8-7-9(2)15-12(14-8)16-19(17,18)11-5-3-10(13)4-6-11/h3-7H,13H2,1-2H3,(H,14,15,16)
Instrument: LTQ Orbitrap XL Thermo Scientific
Instrument type: LC-ESI-ITFT
Ms type: MS2
Ion mode: POSITIVE
Ionization: ESI
Fragmentation mode: CID
Collision energy: 55 (nominal)
Resolution: 15000
Column name: Kinetex Core-Shell C18 2.6 um, 3.0 x 100 mm, Phenomenex
Retention time: 15.703 min
Base peak: 163.1328
Precursor m/z: 279.091
Precursor type: [M+H]+
m/z	relative intensity	assigned
92.0496	16	C6H6N+
95.0605	1	C5H7N2+
108.0445	15	C6H6NO+
122.0715	5	C6H8N3+
124.0871	113	C6H10N3+
149.0235	30	C8H5O3+
156.0116	109	C6H6NO2S+
174.0221	1	C12H2N2+
186.0333	999	C6H8N3O2S+
203.0595	12	C6H11N4O2S+
204.044	143	C12H4N4+
213.1138	16	C12H13N4+
218.0597	4	C7H12N3O3S+
261.081	10	C12H13N4OS+
279.0911	1	C12H15N4O2S+
