Mass spectrum: Canrenone; LC-ESI-ITFT; MS2; CE: 35; R=15000; [M+H]+
Name: Canrenone
Name: (8R,9S,10R,13S,14S,17R)-10,13-Dimethylspiro[2,8,9,11,12,14,15,16-octahydro-1H-cyclopenta[a]phenanthrene-17,5`-oxolane]-2`,3-dione
Formula: C22H28O3
Exact mass: 340.2038
SMILES: C[C@]12CC[C@H]3[C@@H](C=CC4=CC(=O)CC[C@]34C)[C@@H]1CC[C@@]21CCC(=O)O1
InChI: InChI=1S/C22H28O3/c1-20-9-5-15(23)13-14(20)3-4-16-17(20)6-10-21(2)18(16)7-11-22(21)12-8-19(24)25-22/h3-4,13,16-18H,5-12H2,1-2H3/t16-,17+,18+,20+,21+,22-/m1/s1
Instrument: LTQ Orbitrap XL Thermo Scientific
Instrument type: LC-ESI-ITFT
Ms type: MS2
Ion mode: POSITIVE
Ionization: ESI
Fragmentation mode: CID
Collision energy: 35 (nominal)
Resolution: 15000
Column name: Kinetex Core-Shell C18 2.6 um, 3.0 x 100 mm, Phenomenex
Retention time: 24.610 min
Base peak: 299.1997
Precursor m/z: 341.2111
Precursor type: [M+H]+
m/z	relative intensity	assigned
103.0542	3	C8H7+
105.0696	18	C8H9+
107.0853	71	C8H11+
115.0543	4	C9H7+
117.07	12	C9H9+
119.0854	20	C9H11+
121.101	16	C9H13+
128.0617	12	C10H8+
129.0695	5	C10H9+
131.0855	20	C10H11+
133.0643	5	C9H9O+
133.1009	8	C10H13+
135.0802	14	C9H11O+
135.1168	4	C10H15+
137.096	23	C9H13O+
141.0697	30	C11H9+
143.0853	147	C11H11+
145.0646	5	C10H9O+
145.1009	88	C11H13+
147.0801	23	C10H11O+
147.1168	6	C11H15+
149.0958	13	C10H13O+
153.0912	8	C9H13O2+
154.0776	10	C12H10+
155.0853	28	C12H11+
157.1011	23	C12H13+
159.0803	35	C11H11O+
159.1165	22	C12H15+
161.0959	59	C11H13O+
163.1116	26	C11H15O+
165.0913	7	C10H13O2+
167.0859	3	C13H11+
167.1066	7	C10H15O2+
169.1009	362	C13H13+
171.0801	32	C12H11O+
171.1165	12	C13H15+
173.0958	198	C12H13O+
175.1115	54	C12H15O+
177.1272	7	C12H17O+
179.1064	35	C11H15O2+
181.1009	16	C14H13+
183.1166	21	C14H15+
185.0955	7	C13H13O+
185.1325	15	C14H17+
187.1114	999	C13H15O+
189.1271	10	C13H17O+
193.1006	6	C15H13+
195.1169	17	C15H15+
197.0958	6	C14H13O+
197.1319	10	C15H17+
199.1115	30	C14H15O+
199.1481	10	C15H19+
201.1275	15	C14H17O+
205.122	203	C13H17O2+
207.1163	8	C16H15+
207.1384	9	C13H19O2+
209.0956	5	C15H13O+
209.1322	38	C16H17+
211.1115	13	C15H15O+
211.1476	4	C16H19+
213.127	34	C15H17O+
215.1427	8	C15H19O+
217.1222	5	C14H17O2+
219.1386	5	C14H19O2+
221.1321	21	C17H17+
223.1114	10	C16H15O+
223.1478	31	C17H19+
225.127	21	C16H17O+
225.163	10	C17H21+
227.1426	32	C16H19O+
231.1165	8	C18H15+
231.1372	4	C15H19O2+
235.1475	17	C18H19+
237.1271	7	C17H17O+
237.163	7	C18H21+
239.1425	11	C17H19O+
241.1585	55	C17H21O+
243.1747	5	C17H23O+
245.1325	11	C19H17+
245.1534	25	C16H21O2+
247.1478	30	C19H19+
249.1272	21	C18H17O+
249.1634	18	C19H21+
251.1432	5	C18H19O+
253.1587	19	C18H21O+
257.1531	13	C17H21O2+
259.1475	13	C20H19+
259.1689	38	C17H23O2+
261.1637	35	C20H21+
263.1429	28	C19H19O+
263.1791	47	C20H23+
265.1584	117	C19H21O+
267.138	9	C18H19O2+
267.1741	13	C19H23O+
268.1821	33	C19H24O+
271.1679	7	C18H23O2+
277.1582	24	C20H21O+
277.1946	36	C21H25+
279.1741	45	C20H23O+
281.1535	22	C19H21O2+
281.1899	56	C20H25O+
283.1689	355	C19H23O2+
287.1791	85	C22H23+
295.1682	10	C20H23O2+
295.2053	55	C21H27O+
297.1844	12	C20H25O2+
305.1896	287	C22H25O+
323.2001	342	C22H27O2+
341.2107	29	C22H29O3+
