Mass spectrum: Gabapentin-lactam; LC-ESI-ITFT; MS2; CE: 80%; R=15000; [M+H]+
Name: Gabapentin-lactam
Name: 2-azaspiro[4.5]decan-3-one
Formula: C9H15NO
Exact mass: 153.1154
SMILES: O=C1CC2(CN1)CCCCC2
InChI: InChI=1S/C9H15NO/c11-8-6-9(7-10-8)4-2-1-3-5-9/h1-7H2,(H,10,11)
Instrument: LTQ Orbitrap XL Thermo Scientific
Instrument type: LC-ESI-ITFT
Ms type: MS2
Ion mode: POSITIVE
Ionization: ESI
Fragmentation mode: HCD
Collision energy: 80 % (nominal)
Resolution: 15000
Column name: Kinetex Evo C18 2.6 um 50 x 2.1 mm
Retention time: 8.072 min
Base peak: 154.1224
Precursor m/z: 154.1226
Precursor type: [M+H]+
m/z	relative intensity	assigned
54.0337	2	C3H4N+
55.0541	2	C4H7+
60.0443	4	C2H6NO+
65.0385	1	C5H5+
67.0542	104	C5H7+
69.0698	17	C5H9+
70.065	2	C4H8N+
72.0444	31	C3H6NO+
77.0387	2	C6H5+
79.0543	2	C6H7+
81.0699	9	C6H9+
86.0601	3	C4H8NO+
91.0542	21	C7H7+
93.0699	49	C7H9+
95.0855	625	C7H11+
100.0757	2	C5H10NO+
109.1012	37	C8H13+
110.0963	2	C7H12N+
112.1122	29	C7H14N+
119.0855	17	C9H11+
136.112	2	C9H14N+
137.0959	3	C9H13O+
154.1226	999	C9H16NO+
