Mass spectrum: Cyproconazole; LC-ESI-ITFT; MS2; CE: 80%; R=15000; [M+H]+
Name: Cyproconazole
Name: 2-(4-chlorophenyl)-3-cyclopropyl-1-(1,2,4-triazol-1-yl)butan-2-ol
Formula: C15H18ClN3O
Exact mass: 291.113839876
SMILES: CC(C1CC1)C(O)(CN1C=NC=N1)C1=CC=C(Cl)C=C1
InChI: InChI=1S/C15H18ClN3O/c1-11(12-2-3-12)15(20,8-19-10-17-9-18-19)13-4-6-14(16)7-5-13/h4-7,9-12,20H,2-3,8H2,1H3
Instrument: LTQ Orbitrap XL Thermo Scientific
Instrument type: LC-ESI-ITFT
Ms type: MS2
Ion mode: POSITIVE
Ionization: ESI
Fragmentation mode: HCD
Collision energy: 80 % (nominal)
Resolution: 15000
Column name: Kinetex Evo C18 2.6 um 50 x 2.1 mm
Retention time: 11.333 min
Base peak: 292.122
Precursor m/z: 292.1211
Precursor type: [M+H]+
Precursor intensity: 5425866
m/z	relative intensity	assigned
70.0399	999	C2H4N3+
71.037	23	ClH8N2+
89.0389	12	C7H5+
125.0154	543	C7H6Cl+
138.9947	20	C7H4ClO+
139.0057	12	C6H4ClN2+
