Mass spectrum: 1H-Benzotriazole; LC-ESI-ITFT; MS2; CE: 35; R=15000; [M+H]+
Name: 1H-Benzotriazole
Name: 2H-Benzotriazole
Formula: C6H5N3
Exact mass: 119.0483
SMILES: N1N=NC2=CC=CC=C12
InChI: InChI=1S/C6H5N3/c1-2-4-6-5(3-1)7-9-8-6/h1-4H,(H,7,8,9)
Instrument: LTQ Orbitrap XL Thermo Scientific
Instrument type: LC-ESI-ITFT
Ms type: MS2
Ion mode: POSITIVE
Ionization: ESI
Fragmentation mode: CID
Collision energy: 35 (nominal)
Resolution: 15000
Column name: Kinetex Core-Shell C18 2.6 um, 3.0 x 100 mm, Phenomenex
Retention time: 16.478 min
Base peak: 163.1332
Precursor m/z: 120.0556
Precursor type: [M+H]+
m/z	relative intensity	assigned
65.0386	115	C5H5+
92.0496	439	C6H6N+
120.0559	999	C6H6N3+
