Mass spectrum: Dibutyl phthalate; LC-ESI-ITFT; MS2; CE: 80; R=15000; [M+H]+
Name: Dibutyl phthalate
Name: Benzene-1,2-dicarboxylate-dibuthyl
Formula: C16H22O4
Exact mass: 278.1518
SMILES: CCCCOC(=O)C1=CC=CC=C1C(=O)OCCCC
InChI: InChI=1S/C16H22O4/c1-3-5-11-19-15(17)13-9-7-8-10-14(13)16(18)20-12-6-4-2/h7-10H,3-6,11-12H2,1-2H3
Instrument: LTQ Orbitrap XL Thermo Scientific
Instrument type: LC-ESI-ITFT
Ms type: MS2
Ion mode: POSITIVE
Ionization: ESI
Fragmentation mode: HCD
Collision energy: 80 (nominal)
Resolution: 15000
Column name: Kinetex Core-Shell C18 2.6 um, 3.0 x 100 mm, Phenomenex
Retention time: 27.060 min
Base peak: 279.16
Precursor m/z: 279.1591
Precursor type: [M+H]+
m/z	relative intensity	assigned
121.0288	411	C7H5O2+
149.0239	999	C8H5O3+
