Mass spectrum: Mono-iso-butyl phthalate; LC-ESI-ITFT; MS2; CE: 55; R=15000; [M+H]+
Name: Mono-iso-butyl phthalate
Name: Monoisobutylphthalic Acid
Name: 3-(2-Methylpropyl)phthalic acid
Formula: C12H14O4
Exact mass: 222.0892
SMILES: CC(C)CC1=CC=CC(C(O)=O)=C1C(O)=O
InChI: InChI=1S/C12H14O4/c1-7(2)6-8-4-3-5-9(11(13)14)10(8)12(15)16/h3-5,7H,6H2,1-2H3,(H,13,14)(H,15,16)
Instrument: LTQ Orbitrap XL Thermo Scientific
Instrument type: LC-ESI-ITFT
Ms type: MS2
Ion mode: POSITIVE
Ionization: ESI
Fragmentation mode: HCD
Collision energy: 55 (nominal)
Resolution: 15000
Column name: Kinetex Core-Shell C18 2.6 um, 3.0 x 100 mm, Phenomenex
Retention time: 23.296 min
Base peak: 192.1388
Precursor m/z: 223.0965
Precursor type: [M+H]+
m/z	relative intensity	assigned
121.0288	43	C7H5O2+
149.0239	999	C8H5O3+
