Mass spectrum: N-Nitrosomorpholine; LC-ESI-ITFT; MS2; CE: 55; R=15000; [M+H]+
Name: N-Nitrosomorpholine
Name: 4-Nitrosomorpholine
Formula: C4H8N2O2
Exact mass: 116.0586
SMILES: O=NN1CCOCC1
InChI: InChI=1S/C4H8N2O2/c7-5-6-1-3-8-4-2-6/h1-4H2
Instrument: LTQ Orbitrap XL Thermo Scientific
Instrument type: LC-ESI-ITFT
Ms type: MS2
Ion mode: POSITIVE
Ionization: ESI
Fragmentation mode: HCD
Collision energy: 55 (nominal)
Resolution: 15000
Column name: Kinetex Core-Shell C18 2.6 um, 3.0 x 100 mm, Phenomenex
Retention time: 4.445 min
Base peak: 119.1071
Precursor m/z: 117.0659
Precursor type: [M+H]+
m/z	relative intensity	assigned
73.0399	29	C2H5N2O+
86.0604	169	C4H8NO+
87.0683	147	C4H9NO+
117.0664	999	C4H9N2O2+
