Mass spectrum: Flumethasone; LC-ESI-ITFT; MS2; CE: 20%; R=15000; [M+H]+
Name: Flumethasone
Name: (6S,8S,9R,10S,11S,13S,14S,16R,17R)-6,9-difluoro-11,17-dihydroxy-17-(2-hydroxyacetyl)-10,13,16-trimethyl-6,7,8,11,12,14,15,16-octahydrocyclopenta[a]phenanthren-3-one
Formula: C22H28F2O5
Exact mass: 410.190480436
SMILES: [H][C@@]12C[C@@H](C)[C@](O)(C(=O)CO)[C@@]1(C)C[C@H](O)[C@@]1(F)[C@@]2([H])C[C@H](F)C2=CC(=O)C=C[C@]12C
InChI: InChI=1S/C22H28F2O5/c1-11-6-13-14-8-16(23)15-7-12(26)4-5-19(15,2)21(14,24)17(27)9-20(13,3)22(11,29)18(28)10-25/h4-5,7,11,13-14,16-17,25,27,29H,6,8-10H2,1-3H3/t11-,13+,14+,16+,17+,19+,20+,21+,22+/m1/s1
Instrument: LTQ Orbitrap XL Thermo Scientific
Instrument type: LC-ESI-ITFT
Ms type: MS2
Ion mode: POSITIVE
Ionization: ESI
Fragmentation mode: HCD
Collision energy: 20 % (nominal)
Resolution: 15000
Column name: Kinetex Evo C18 2.6 um 50 x 2.1 mm
Retention time: 10.208 min
Base peak: 411.1978
Precursor m/z: 411.1978
Precursor type: [M+H]+
Precursor intensity: 9864294
m/z	relative intensity	assigned
121.0651	157	C8H9O+
168.9922	132	C10HO3+
237.1278	155	C17H17O+
253.1223	999	C17H17O2+
273.1266	103	C20H17O+
277.1595	173	C20H21O+
295.1685	96	C20H23O2+
305.1555	114	C18H22FO3+
335.1656	190	C19H24FO4+
