Mass spectrum: Ethion; LC-ESI-ITFT; MS2; CE: 80; R=15000; [M+H]+
Name: Ethion
Formula: C9H22O4P2S4
Exact mass: 383.9876
SMILES: CCOP(=S)(OCC)SCSP(=S)(OCC)OCC
InChI: InChI=1S/C9H22O4P2S4/c1-5-10-14(16,11-6-2)18-9-19-15(17,12-7-3)13-8-4/h5-9H2,1-4H3
Instrument: LTQ Orbitrap XL Thermo Scientific
Instrument type: LC-ESI-ITFT
Ms type: MS2
Ion mode: POSITIVE
Ionization: ESI
Fragmentation mode: HCD
Collision energy: 80 (nominal)
Resolution: 15000
Column name: Kinetex Core-Shell C18 2.6 um, 3.0 x 100 mm, Phenomenex
Retention time: 27.505 min
Base peak: 377.0904
Precursor m/z: 384.9949
Precursor type: [M+H]+
m/z	relative intensity	assigned
75.0262	56	C3H7S+
96.9507	999	H2O2PS+
114.9613	768	H4O3PS+
142.9384	107	CH4O2PS2+
198.9069	46	C6O2PS2+
