Mass spectrum: Propyphenazon; LC-ESI-ITFT; MS2; CE: 35; R=15000; [M+H]+
Name: Propyphenazon
Name: Propyphenazone
Name: 1,5-dimethyl-2-phenyl-4-propan-2-ylpyrazol-3-one
Formula: C14H18N2O
Exact mass: 230.1419
SMILES: CC(C)C1=C(C)N(C)N(C1=O)C1=CC=CC=C1
InChI: InChI=1S/C14H18N2O/c1-10(2)13-11(3)15(4)16(14(13)17)12-8-6-5-7-9-12/h5-10H,1-4H3
Instrument: LTQ Orbitrap XL Thermo Scientific
Instrument type: LC-ESI-ITFT
Ms type: MS2
Ion mode: POSITIVE
Ionization: ESI
Fragmentation mode: CID
Collision energy: 35 (nominal)
Resolution: 15000
Column name: Kinetex Core-Shell C18 2.6 um, 3.0 x 100 mm, Phenomenex
Retention time: 22.250 min
Base peak: 231.1492
Precursor m/z: 231.1492
Precursor type: [M+H]+
m/z	relative intensity	assigned
98.0603	1	C5H8NO+
104.0494	1	C7H6N+
110.0966	5	C7H12N+
112.0758	5	C6H10NO+
112.1122	15	C7H14N+
118.0654	2	C8H8N+
120.081	7	C8H10N+
130.0653	2	C9H8N+
131.0732	6	C9H9N+
132.0808	5	C9H10N+
133.076	1	C8H9N2+
134.0967	1	C9H12N+
138.0916	7	C8H12NO+
144.0811	9	C10H10N+
146.0841	9	C9H10N2+
146.0967	10	C10H12N+
147.0921	2	C9H11N2+
148.0758	2	C9H10NO+
160.0998	15	C10H12N2+
161.1075	11	C10H13N2+
172.0759	3	C11H10NO+
172.1122	16	C12H14N+
174.0788	2	C10H10N2O+
188.0946	7	C11H12N2O+
189.1025	682	C11H13N2O+
201.1026	65	C12H13N2O+
203.1547	15	C13H19N2+
215.1182	2	C13H15N2O+
216.126	74	C13H16N2O+
231.1495	999	C14H19N2O+
