Mass spectrum: Fenpropimorph; LC-ESI-ITFT; MS2; CE: 50%; R=15000; [M+H]+
Name: Fenpropimorph
Name: (2S,6R)-4-[3-(4-tert-butylphenyl)-2-methylpropyl]-2,6-dimethylmorpholine
Formula: C20H33NO
Exact mass: 303.256214676
SMILES: CC(CN1C[C@H](C)O[C@H](C)C1)CC1=CC=C(C=C1)C(C)(C)C
InChI: InChI=1S/C20H33NO/c1-15(12-21-13-16(2)22-17(3)14-21)11-18-7-9-19(10-8-18)20(4,5)6/h7-10,15-17H,11-14H2,1-6H3/t15?,16-,17+
Instrument: LTQ Orbitrap XL Thermo Scientific
Instrument type: LC-ESI-ITFT
Ms type: MS2
Ion mode: POSITIVE
Ionization: ESI
Fragmentation mode: HCD
Collision energy: 50 % (nominal)
Resolution: 15000
Column name: Kinetex Evo C18 2.6 um 50 x 2.1 mm
Retention time: 9.321 min
Base peak: 304.2642
Precursor m/z: 304.2635
Precursor type: [M+H]+
Precursor intensity: 33165298
m/z	relative intensity	assigned
57.0696	93	C4H9+
58.0649	1	C3H8N+
59.0489	1	C3H7O+
70.065	3	C4H8N+
72.0807	6	C4H10N+
88.0756	3	C4H10NO+
91.0542	7	C7H7+
98.0964	135	C6H12N+
102.0913	6	C5H12NO+
105.0698	8	C8H9+
112.112	6	C7H14N+
114.0914	3	C6H12NO+
116.1069	238	C6H14NO+
119.0854	9	C9H11+
128.107	3	C7H14NO+
130.1226	279	C7H16NO+
131.0856	2	C10H11+
132.0933	2	C10H12+
133.1012	4	C10H13+
147.1167	613	C11H15+
161.1323	17	C12H17+
189.1637	51	C14H21+
246.222	1	C17H28N+
248.2006	9	C16H26NO+
286.2529	3	C20H32N+
304.2634	999	C20H34NO+
