Mass spectrum: 4-methyl-2-nitrophenol; APCI-ITFT; MS2; CE: 35%; R=30000; [M]-
Name: 4-methyl-2-nitrophenol
Formula: C7H7NO3
Exact mass: 153.0426
SMILES: Cc1cc(c(cc1)O)[N+](=O)[O-]
InChI: InChI=1S/C7H7NO3/c1-5-2-3-7(9)6(4-5)8(10)11/h2-4,9H,1H3
Instrument: LTQ Orbitrap XL Thermo Scientific
Instrument type: APCI-ITFT
Ms type: MS2
Ion mode: NEGATIVE
Ionization: APCI
Fragmentation mode: CID
Collision energy: 35 % (nominal)
Resolution: 30000
Column name: N/A
Retention time: N/A min
Base peak: 153.0431
Precursor m/z: 153.0431
Precursor type: [M]-
m/z	relative intensity	assigned
75.0239	144	C6H3-
123.0451	999	C7H7O2-
136.0403	957	C7H6NO2-
138.0195	373	C6H4NO3-
