Mass spectrum: Capecitabine; LC-ESI-ITFT; MS2; CE: 55; R=15000; [M-H]-
Name: Capecitabine
Name: N-[1-[(2R,3R,4S,5R)-3,4-Dihydroxy-5-methyloxolan-2-yl]-5-fluoro-2-oxopyrimidin-4-yl]carbamate-pentyl
Formula: C15H22FN3O6
Exact mass: 359.1493
SMILES: CCCCCOC(=O)NC1=NC(=O)N(C=C1F)[C@@H]1O[C@H](C)[C@@H](O)[C@H]1O
InChI: InChI=1S/C15H22FN3O6/c1-3-4-5-6-24-15(23)18-12-9(16)7-19(14(22)17-12)13-11(21)10(20)8(2)25-13/h7-8,10-11,13,20-21H,3-6H2,1-2H3,(H,17,18,22,23)/t8-,10-,11-,13-/m1/s1
Instrument: LTQ Orbitrap XL Thermo Scientific
Instrument type: LC-ESI-ITFT
Ms type: MS2
Ion mode: NEGATIVE
Ionization: ESI
Fragmentation mode: CID
Collision energy: 55 (nominal)
Resolution: 15000
Column name: Kinetex Core-Shell C18 2.6 um, 3.0 x 100 mm, Phenomenex
Retention time: 22.243 min
Base peak: 212.9995
Precursor m/z: 358.142
Precursor type: [M-H]-
m/z	relative intensity	assigned
154.006	999	C10H2O2-
199.0889	61	C9H12FN2O2-
203.0152	16	C11H4FO3-
284.1055	24	C12H15FN3O4-
