Mass spectrum: Kresoxim-methyl; LC-ESI-ITFT; MS2; CE: 40%; R=15000; [M+H]+
Name: Kresoxim-methyl
Name: (E)-Methyl 2-(methoxyimino)-2-(2-((o-tolyloxy)methyl)phenyl)acetate
Name: methyl (2Z)-2-methoxyimino-2-[2-[(2-methylphenoxy)methyl]phenyl]acetate
Formula: C18H19NO4
Exact mass: 313.131408088
SMILES: CO\N=C(/C(=O)OC)C1=C(COC2=C(C)C=CC=C2)C=CC=C1
InChI: InChI=1S/C18H19NO4/c1-13-8-4-7-11-16(13)23-12-14-9-5-6-10-15(14)17(19-22-3)18(20)21-2/h4-11H,12H2,1-3H3/b19-17-
Instrument: LTQ Orbitrap XL Thermo Scientific
Instrument type: LC-ESI-ITFT
Ms type: MS2
Ion mode: POSITIVE
Ionization: ESI
Fragmentation mode: HCD
Collision energy: 40 % (nominal)
Resolution: 15000
Column name: Kinetex Evo C18 2.6 um 50 x 2.1 mm
Retention time: 12.264 min
Base peak: 353.0235
Precursor m/z: 314.1387
Precursor type: [M+H]+
Precursor intensity: 6681718.5
m/z	relative intensity	assigned
222.0905	999	C15H12NO+
