Mass spectrum: Celecoxib; LC-ESI-ITFT; MS2; CE: 80%; R=15000; [M+H]+
Name: Celecoxib
Name: 4-[5-(4-methylphenyl)-3-(trifluoromethyl)pyrazol-1-yl]benzenesulfonamide
Formula: C17H14F3N3O2S
Exact mass: 381.075882348
SMILES: CC1=CC=C(C=C1)C1=CC(=NN1C1=CC=C(C=C1)S(N)(=O)=O)C(F)(F)F
InChI: InChI=1S/C17H14F3N3O2S/c1-11-2-4-12(5-3-11)15-10-16(17(18,19)20)22-23(15)13-6-8-14(9-7-13)26(21,24)25/h2-10H,1H3,(H2,21,24,25)
Instrument: LTQ Orbitrap XL Thermo Scientific
Instrument type: LC-ESI-ITFT
Ms type: MS2
Ion mode: POSITIVE
Ionization: ESI
Fragmentation mode: HCD
Collision energy: 80 % (nominal)
Resolution: 15000
Column name: Kinetex Evo C18 2.6 um 50 x 2.1 mm
Retention time: 12.021 min
Base peak: 552.1919
Precursor m/z: 382.0832
Precursor type: [M+H]+
Precursor intensity: 3202943.5
m/z	relative intensity	assigned
58.0652	30	C3H8N+
65.0387	53	C5H5+
75.0232	171	C6H3+
91.0546	222	C7H7+
108.0446	83	C6H6NO+
109.0288	43	C6H5O2+
112.1124	37	C7H14N+
115.0548	119	CH7F2N3O+
116.0626	40	CH8F2N3O+
117.0577	43	C8H7N+
117.0703	27	C9H9+
118.0655	71	C8H8N+
119.0611	44	C4H8FN2O+
130.0656	128	C9H8N+
131.0734	162	C6H10FNO+
133.0461	33	CH6F3N3O+
142.0656	34	C10H8N+
165.0391	329	C6H6F3NO+
179.0861	43	C6H11F2N3O+
180.0634	76	C7H9F3NO+
184.018	63	C14H2N+
185.0451	83	C9H6F3N+
190.0655	40	C11H9FNO+
191.0737	59	C11H10FNO+
192.0811	48	C14H10N+
193.0896	64	C11H12FNO+
204.0816	83	C12H11FNO+
205.0894	37	C12H12FNO+
206.0974	200	C12H13FNO+
207.105	139	C12H14FNO+
212.0441	30	C14H6F2+
218.085	108	C12H11FN2O+
221.0199	46	C15H3F2+
231.0924	116	C13H12FN2O+
232.1002	178	C13H13FN2O+
233.108	291	C13H14FN2O+
234.0709	37	C16H9FN+
236.0877	54	C13H12F2NO+
240.0621	32	C12H9F3NO+
247.0676	97	C13H9F2N2O+
254.0781	72	C13H11F3NO+
255.074	103	C12H10F3N2O+
261.0827	270	C14H11F2N2O+
263.0987	162	C17H12FN2+
267.0734	408	C16H9F2N2+
281.0893	999	C14H12F3N2O+
282.0971	369	C14H13F3N2O+
283.1055	38	C14H14F3N2O+
300.0881	102	C17H11F3N2+
301.0953	203	C17H12F3N2+
302.1035	35	C17H13F3N2+
