Mass spectrum: 4-Androsten-11beta-ol-3,17-dione; LC-ESI-ITFT; MS2; CE: 90%; R=15000; [M+H]+
Name: 4-Androsten-11beta-ol-3,17-dione
Name: 11beta-Hydroxyandrostenedione
Name: (8S,9S,10R,11S,13S,14S)-11-hydroxy-10,13-dimethyl-2,6,7,8,9,11,12,14,15,16-decahydro-1H-cyclopenta[a]phenanthrene-3,17-dione
Formula: C19H26O3
Exact mass: 302.188194692
SMILES: C[C@]12C[C@H](O)[C@H]3[C@@H](CCC4=CC(=O)CC[C@]34C)[C@@H]1CCC2=O
InChI: InChI=1S/C19H26O3/c1-18-8-7-12(20)9-11(18)3-4-13-14-5-6-16(22)19(14,2)10-15(21)17(13)18/h9,13-15,17,21H,3-8,10H2,1-2H3/t13-,14-,15-,17+,18-,19-/m0/s1
Instrument: LTQ Orbitrap XL Thermo Scientific
Instrument type: LC-ESI-ITFT
Ms type: MS2
Ion mode: POSITIVE
Ionization: ESI
Fragmentation mode: HCD
Collision energy: 90 % (nominal)
Resolution: 15000
Column name: Kinetex Evo C18 2.6 um 50 x 2.1 mm
Retention time: 10.156 min
Base peak: 303.1956
Precursor m/z: 303.1955
Precursor type: [M+H]+
Precursor intensity: 7055896.5
m/z	relative intensity	assigned
55.0178	71	C3H3O+
55.0541	103	C4H7+
67.0543	225	C5H7+
69.0334	43	C4H5O+
69.0699	55	C5H9+
77.0388	66	C6H5+
79.0544	470	C6H7+
81.07	305	C6H9+
83.0493	152	C5H7O+
91.0544	599	C7H7+
93.0701	657	C7H9+
95.0495	85	C6H7O+
95.0858	267	C7H11+
97.065	868	C6H9O+
103.0547	53	C8H7+
105.0701	999	C8H9+
107.0493	74	C7H7O+
107.0858	363	C8H11+
109.0651	361	C7H9O+
109.1015	64	C8H13+
115.0545	85	C9H7+
117.0701	287	C9H9+
119.0858	447	C9H11+
121.0651	684	C8H9O+
121.1015	112	C9H13+
123.0807	481	C8H11O+
128.0625	179	C10H8+
129.0701	226	C10H9+
130.0779	150	C10H10+
131.0857	276	C10H11+
133.0652	51	C9H9O+
133.1014	171	C10H13+
135.0809	63	C9H11O+
141.0704	90	C11H9+
142.0779	113	C11H10+
143.0858	233	C11H11+
145.1015	301	C11H13+
147.0809	83	C10H11O+
148.0887	55	C10H12O+
149.0965	38	C10H13O+
155.086	149	C12H11+
156.0938	36	C12H12+
157.1015	124	C12H13+
159.0805	40	C11H11O+
159.1174	60	C12H15+
161.0959	76	C11H13O+
163.1121	90	C11H15O+
167.0851	43	C13H11+
169.1018	129	C13H13+
171.1171	59	C13H15+
181.1015	47	C14H13+
183.1171	52	C14H15+
