Mass spectrum: Dimethachlor; LC-ESI-ITFT; MS2; CE: 80%; R=15000; [M+H]+
Name: Dimethachlor
Name: 2-chloro-N-(2,6-dimethylphenyl)-N-(2-methoxyethyl)acetamide
Formula: C13H18ClNO2
Exact mass: 255.102606496
SMILES: COCCN(C(=O)CCl)C1=C(C)C=CC=C1C
InChI: InChI=1S/C13H18ClNO2/c1-10-5-4-6-11(2)13(10)15(7-8-17-3)12(16)9-14/h4-6H,7-9H2,1-3H3
Instrument: LTQ Orbitrap XL Thermo Scientific
Instrument type: LC-ESI-ITFT
Ms type: MS2
Ion mode: POSITIVE
Ionization: ESI
Fragmentation mode: HCD
Collision energy: 80 % (nominal)
Resolution: 15000
Column name: Kinetex Evo C18 2.6 um 50 x 2.1 mm
Retention time: 10.310 min
Base peak: 256.1104
Precursor m/z: 256.1099
Precursor type: [M+H]+
Precursor intensity: 32054662
m/z	relative intensity	assigned
76.9787	78	C2H2ClO+
77.0384	12	C6H5+
79.0541	60	C6H7+
91.0541	23	C7H7+
93.0697	6	C7H9+
95.0488	1	C6H7O+
103.0541	33	C8H7+
105.0697	303	C8H9+
106.0775	14	C8H10+
107.0728	2	C7H9N+
107.0854	13	C8H11+
116.0618	7	C9H8+
117.0571	6	C8H7N+
118.065	53	C8H8N+
119.0729	2	C8H9N+
119.0854	23	C9H11+
120.0806	27	C8H10N+
121.0646	22	C8H9O+
121.0884	1	C8H11N+
121.1011	6	C9H13+
122.0962	7	C8H12N+
123.0804	5	C8H11O+
129.0697	5	C10H9+
130.0652	5	C9H8N+
131.0728	33	C9H9N+
131.0853	27	C10H11+
132.0806	228	C9H10N+
133.0884	103	C9H11N+
134.0962	10	C9H12N+
144.0806	12	C10H10N+
145.0883	3	C10H11N+
146.0963	48	C10H12N+
147.0678	4	C9H9NO+
147.1042	17	C10H13N+
148.1119	999	C10H14N+
153.0464	4	C9H10Cl+
160.075	3	C10H10NO+
174.091	24	C11H12NO+
198.068	4	C10H13ClNO+
224.0833	100	C12H15ClNO+
