Mass spectrum: Metribuzin; LC-ESI-ITFT; MS2; CE: 60%; R=15000; [M+H]+
Name: Metribuzin
Name: 4-amino-6-tert-butyl-3-methylsulfanyl-1,2,4-triazin-5-one
Formula: C8H14N4OS
Exact mass: 214.088832068
SMILES: CSC1=NN=C(C(=O)N1N)C(C)(C)C
InChI: InChI=1S/C8H14N4OS/c1-8(2,3)5-6(13)12(9)7(14-4)11-10-5/h9H2,1-4H3
Instrument: LTQ Orbitrap XL Thermo Scientific
Instrument type: LC-ESI-ITFT
Ms type: MS2
Ion mode: POSITIVE
Ionization: ESI
Fragmentation mode: HCD
Collision energy: 60 % (nominal)
Resolution: 15000
Column name: Kinetex Evo C18 2.6 um 50 x 2.1 mm
Retention time: 8.276 min
Base peak: 215.0964
Precursor m/z: 215.0961
Precursor type: [M+H]+
Precursor intensity: 52106540
m/z	relative intensity	assigned
62.0056	39	CH4NS+
69.0081	6	C2HN2O+
69.0696	22	C5H9+
74.0056	89	C2H4NS+
76.0213	24	C2H6NS+
82.065	33	C5H8N+
83.0237	2	C3H3N2O+
84.0806	154	C5H10N+
87.001	20	C2H3N2S+
89.0166	77	C2H5N2S+
89.0418	7	C4H9S+
97.0646	34	C6H9O+
99.0915	11	C5H11N2+
104.0275	27	C2H6N3S+
108.0679	8	C6H8N2+
110.0601	6	C6H8NO+
114.9958	43	C3H3N2OS+
130.0683	4	C6H12NS+
131.0272	12	C4H7N2OS+
131.0383	144	C3H7N4S+
132.0227	5	C3H6N3OS+
140.1053	7	C6H12N4+
143.064	6	C6H11N2S+
145.0539	40	C4H9N4S+
155.0637	4	C7H11N2S+
157.0426	8	C6H9N2OS+
167.0924	3	C7H11N4O+
171.0583	70	C7H11N2OS+
172.0775	16	C6H12N4S+
183.046	6	C7H9N3OS+
184.0536	18	C7H10N3OS+
186.0819	42	C8H14N2OS+
187.1009	999	C7H15N4S+
200.0719	4	C7H12N4OS+
215.0958	432	C8H15N4OS+
