Mass spectrum: Ebastin; LC-ESI-ITFT; MS2; CE: 90%; R=15000; [M+H]+
Name: Ebastin
Name: Ebastine
Name: 4-(4-benzhydryloxypiperidin-1-yl)-1-(4-tert-butylphenyl)butan-1-one
Formula: C32H39NO2
Exact mass: 469.298079488
SMILES: CC(C)(C)C1=CC=C(C=C1)C(=O)CCCN1CCC(CC1)OC(C1=CC=CC=C1)C1=CC=CC=C1
InChI: InChI=1S/C32H39NO2/c1-32(2,3)28-18-16-25(17-19-28)30(34)15-10-22-33-23-20-29(21-24-33)35-31(26-11-6-4-7-12-26)27-13-8-5-9-14-27/h4-9,11-14,16-19,29,31H,10,15,20-24H2,1-3H3
Instrument: LTQ Orbitrap XL Thermo Scientific
Instrument type: LC-ESI-ITFT
Ms type: MS2
Ion mode: POSITIVE
Ionization: ESI
Fragmentation mode: HCD
Collision energy: 90 % (nominal)
Resolution: 15000
Column name: Kinetex Evo C18 2.6 um 50 x 2.1 mm
Retention time: 11.355 min
Base peak: 470.3049
Precursor m/z: 470.3054
Precursor type: [M+H]+
Precursor intensity: 9368825
m/z	relative intensity	assigned
55.054	6	C4H7+
57.0697	4	C4H9+
91.0543	80	C7H7+
93.0701	6	C7H9+
105.07	112	C8H9+
117.07	15	C9H9+
118.0779	97	C9H10+
128.0623	10	C10H8+
131.086	14	C10H11+
132.0935	52	C10H12+
133.1014	18	C10H13+
141.0699	17	C11H9+
146.0728	198	C10H10O+
151.0544	14	C12H7+
152.0622	470	C12H8+
161.0963	999	C11H13O+
165.0701	443	C13H9+
166.0778	153	C13H10+
167.0857	411	C13H11+
169.0653	7	C12H9O+
173.0965	34	C12H13O+
188.1197	41	C13H16O+
203.1432	45	C14H19O+
