Mass spectrum: DEET; LC-ESI-ITFT; MS2; CE: 80; R=15000; [M+Na]+
Name: DEET
Name: Diethyltoluamide
Name: N,N-Diethyl-3-methylbenzamide
Formula: C12H17NO
Exact mass: 191.1310
SMILES: CCN(CC)C(=O)C1=CC=CC(C)=C1
InChI: InChI=1S/C12H17NO/c1-4-13(5-2)12(14)11-8-6-7-10(3)9-11/h6-9H,4-5H2,1-3H3
Instrument: LTQ Orbitrap XL Thermo Scientific
Instrument type: LC-ESI-ITFT
Ms type: MS2
Ion mode: POSITIVE
Ionization: ESI
Fragmentation mode: HCD
Collision energy: 80 (nominal)
Resolution: 15000
Column name: Kinetex Core-Shell C18 2.6 um, 3.0 x 100 mm, Phenomenex
Retention time: 22.729 min
Base peak: 214.0897
Precursor m/z: 214.1202
Precursor type: [M+Na]+
m/z	relative intensity	assigned
77.0386	999	C6H5+
94.0413	6	C6H6O+
95.049	133	C6H7O+
105.0446	455	C6H5N2+
