Mass spectrum: Terbinafine; LC-ESI-ITFT; MS2; CE: 50%; R=15000; [M+H]+
Name: Terbinafine
Name: (E)-N,6,6-trimethyl-N-(naphthalen-1-ylmethyl)hept-2-en-4-yn-1-amine
Formula: C21H25N
Exact mass: 291.1986998
SMILES: CN(C\C=C\C#CC(C)(C)C)CC1=CC=CC2=CC=CC=C12
InChI: InChI=1S/C21H25N/c1-21(2,3)15-8-5-9-16-22(4)17-19-13-10-12-18-11-6-7-14-20(18)19/h5-7,9-14H,16-17H2,1-4H3/b9-5+
Instrument: LTQ Orbitrap XL Thermo Scientific
Instrument type: LC-ESI-ITFT
Ms type: MS2
Ion mode: POSITIVE
Ionization: ESI
Fragmentation mode: HCD
Collision energy: 50 % (nominal)
Resolution: 15000
Column name: Kinetex Evo C18 2.6 um 50 x 2.1 mm
Retention time: 9.665 min
Base peak: 292.2069
Precursor m/z: 292.206
Precursor type: [M+H]+
Precursor intensity: 41812240
m/z	relative intensity	assigned
77.0386	5	C6H5+
79.0542	19	C6H7+
91.0543	22	C7H7+
93.0699	122	C7H9+
103.0543	1	C8H7+
105.0699	30	C8H9+
106.0778	3	C8H10+
119.0856	6	C9H11+
121.1012	7	C9H13+
141.0699	999	C11H9+
150.1277	5	C10H16N+
165.0695	1	C13H9+
170.0964	9	C12H12N+
179.0858	1	C14H11+
204.0942	1	C16H12+
205.1012	3	C16H13+
261.1633	1	C20H21+
