Mass spectrum: 2-Aminobenzimidazole; LC-ESI-ITFT; MS2; CE: 80; R=15000; [M+H]+
Name: 2-Aminobenzimidazole
Name: 1H-Benzimidazol-2-amine
Formula: C7H7N3
Exact mass: 133.0640
SMILES: NC1=NC2=CC=CC=C2N1
InChI: InChI=1S/C7H7N3/c8-7-9-5-3-1-2-4-6(5)10-7/h1-4H,(H3,8,9,10)
Instrument: LTQ Orbitrap XL Thermo Scientific
Instrument type: LC-ESI-ITFT
Ms type: MS2
Ion mode: POSITIVE
Ionization: ESI
Fragmentation mode: HCD
Collision energy: 80 (nominal)
Resolution: 15000
Column name: Kinetex Core-Shell C18 2.6 um, 3.0 x 100 mm, Phenomenex
Retention time: 8.044 min
Base peak: 163.1326
Precursor m/z: 134.0713
Precursor type: [M+H]+
m/z	relative intensity	assigned
92.0494	151	C6H6N+
134.0711	999	C7H8N3+
