Mass spectrum: 7-Amino-4-methylcoumarin; LC-ESI-ITFT; MS2; CE: 80%; R=15000; [M+H]+
Name: 7-Amino-4-methylcoumarin
Name: 7-amino-4-methylchromen-2-one
Formula: C10H9NO2
Exact mass: 175.063328528
SMILES: CC1=CC(=O)OC2=CC(N)=CC=C12
InChI: InChI=1S/C10H9NO2/c1-6-4-10(12)13-9-5-7(11)2-3-8(6)9/h2-5H,11H2,1H3
Instrument: LTQ Orbitrap XL Thermo Scientific
Instrument type: LC-ESI-ITFT
Ms type: MS2
Ion mode: POSITIVE
Ionization: ESI
Fragmentation mode: HCD
Collision energy: 80 % (nominal)
Resolution: 15000
Column name: Kinetex Evo C18 2.6 um 50 x 2.1 mm
Retention time: 6.791 min
Base peak: 176.0712
Precursor m/z: 176.0706
Precursor type: [M+H]+
Precursor intensity: 18525778
m/z	relative intensity	assigned
54.0336	4	C3H4N+
67.0178	2	C4H3O+
67.0541	2	C5H7+
68.013	10	C3H2NO+
77.0386	15	C6H5+
79.0542	28	C6H7+
80.0494	6	C5H6N+
81.07	2	C6H9+
91.0543	33	C7H7+
92.0496	5	C6H6N+
93.0574	24	C6H7N+
93.0699	47	C7H9+
94.0652	26	C6H8N+
95.0491	2	C6H7O+
103.0543	258	C8H7+
104.0495	7	C7H6N+
105.0574	20	C7H7N+
105.0699	67	C8H9+
106.0652	20	C7H8N+
109.0649	6	C7H9O+
110.0601	4	C6H8NO+
115.0544	164	C9H7+
116.0623	4	C9H8+
117.0574	229	C8H7N+
118.0653	31	C8H8N+
119.0731	15	C8H9N+
120.0808	999	C8H10N+
121.0648	5	C8H9O+
130.0653	82	C9H8N+
131.0492	35	C9H7O+
131.073	74	C9H9N+
132.0809	80	C9H10N+
133.0523	117	C8H7NO+
134.0601	15	C8H8NO+
136.0394	9	C7H6NO2+
146.0601	7	C9H8NO+
147.068	8	C9H9NO+
148.0758	83	C9H10NO+
176.0708	387	C10H10NO2+
