Mass spectrum: 2(4-morpholinyl)benzothiazole; LC-ESI-ITFT; MS2; CE: 10%; R=15000; [M+H]+
Name: 2(4-morpholinyl)benzothiazole
Name: 2-(4-Morpholinyl)benzothiazole
Name: 4-(1,3-benzothiazol-2-yl)morpholine
Formula: C11H12N2OS
Exact mass: 220.067034004
SMILES: C1CN(CCO1)C1=NC2=CC=CC=C2S1
InChI: InChI=1S/C11H12N2OS/c1-2-4-10-9(3-1)12-11(15-10)13-5-7-14-8-6-13/h1-4H,5-8H2
Instrument: LTQ Orbitrap XL Thermo Scientific
Instrument type: LC-ESI-ITFT
Ms type: MS2
Ion mode: POSITIVE
Ionization: ESI
Fragmentation mode: HCD
Collision energy: 10 % (nominal)
Resolution: 15000
Column name: Kinetex Evo C18 2.6 um 50 x 2.1 mm
Retention time: 9.187 min
Base peak: 221.0751
Precursor m/z: 221.0743
Precursor type: [M+H]+
Precursor intensity: 49239448
m/z	relative intensity	assigned
221.0743	999	C11H13N2OS+
