Mass spectrum: Sulcotrione; LC-ESI-ITFT; MS2; CE: 80; R=15000; [M+H]+
Name: Sulcotrione
Name: 2-(2-Chloro-4-methylsulfonylbenzoyl)cyclohexane-1,3-dione
Formula: C14H13ClO5S
Exact mass: 328.0172
SMILES: CS(=O)(=O)C1=CC=C(C(=O)C2C(=O)CCCC2=O)C(Cl)=C1
InChI: InChI=1S/C14H13ClO5S/c1-21(19,20)8-5-6-9(10(15)7-8)14(18)13-11(16)3-2-4-12(13)17/h5-7,13H,2-4H2,1H3
Instrument: LTQ Orbitrap XL Thermo Scientific
Instrument type: LC-ESI-ITFT
Ms type: MS2
Ion mode: POSITIVE
Ionization: ESI
Fragmentation mode: HCD
Collision energy: 80 (nominal)
Resolution: 15000
Column name: Kinetex Core-Shell C18 2.6 um, 3.0 x 100 mm, Phenomenex
Retention time: 21.259 min
Base peak: 163.1325
Precursor m/z: 329.0245
Precursor type: [M+H]+
m/z	relative intensity	assigned
97.0282	46	C5H5O2+
111.044	999	C6H7O2+
139.0388	143	C7H7O3+
214.0623	272	C13H10O3+
240.971	57	C10H6ClO3S+
