Mass spectrum: Ketoprofen; LC-ESI-ITFT; MS2; CE: 35; R=15000; [M+H]+
Name: Ketoprofen
Name: 2-(3-Benzoylphenyl)propanoic acid
Formula: C16H14O3
Exact mass: 254.0943
SMILES: CC(C(O)=O)C1=CC=CC(=C1)C(=O)C1=CC=CC=C1
InChI: InChI=1S/C16H14O3/c1-11(16(18)19)13-8-5-9-14(10-13)15(17)12-6-3-2-4-7-12/h2-11H,1H3,(H,18,19)
Instrument: LTQ Orbitrap XL Thermo Scientific
Instrument type: LC-ESI-ITFT
Ms type: MS2
Ion mode: POSITIVE
Ionization: ESI
Fragmentation mode: CID
Collision energy: 35 (nominal)
Resolution: 15000
Column name: Kinetex Core-Shell C18 2.6 um, 3.0 x 100 mm, Phenomenex
Retention time: 23.842 min
Base peak: 163.1328
Precursor m/z: 255.1016
Precursor type: [M+H]+
m/z	relative intensity	assigned
105.0334	19	C7H5O+
105.07	1	C8H9+
177.0547	10	C10H9O3+
209.096	999	C15H13O+
