Mass spectrum: Isoxaben; LC-ESI-ITFT; MS2; CE: 90%; R=15000; [M+H]+
Name: Isoxaben
Name: 2,6-dimethoxy-N-[3-(3-methylpentan-3-yl)-1,2-oxazol-5-yl]benzamide
Formula: C18H24N2O4
Exact mass: 332.173607248
SMILES: CCC(C)(CC)C1=NOC(NC(=O)C2=C(OC)C=CC=C2OC)=C1
InChI: InChI=1S/C18H24N2O4/c1-6-18(3,7-2)14-11-15(24-20-14)19-17(21)16-12(22-4)9-8-10-13(16)23-5/h8-11H,6-7H2,1-5H3,(H,19,21)
Instrument: LTQ Orbitrap XL Thermo Scientific
Instrument type: LC-ESI-ITFT
Ms type: MS2
Ion mode: POSITIVE
Ionization: ESI
Fragmentation mode: HCD
Collision energy: 90 % (nominal)
Resolution: 15000
Column name: Kinetex Evo C18 2.6 um 50 x 2.1 mm
Retention time: 11.495 min
Base peak: 333.1818
Precursor m/z: 333.1809
Precursor type: [M+H]+
Precursor intensity: 24204142
m/z	relative intensity	assigned
75.0229	14	C6H3+
77.0385	109	C6H5+
79.0542	55	C6H7+
81.0335	3	C5H5O+
81.0698	4	C6H9+
91.0542	2	C7H7+
92.0257	43	C6H4O+
94.0413	11	C6H6O+
95.0492	16	C6H7O+
105.0336	22	C7H5O+
105.0448	79	C6H5N2+
107.0128	368	C6H3O2+
107.0492	47	C7H7O+
109.0648	34	C7H9O+
120.0206	22	C7H4O2+
121.0285	8	C7H5O2+
122.0362	817	C7H6O2+
123.0395	11	C2H7N2O4+
125.0596	6	C7H9O2+
135.0441	76	C8H7O2+
135.0552	13	C7H7N2O+
137.0597	7	C8H9O2+
150.0312	999	C8H6O3+
165.0546	770	C9H9O3+
168.0417	84	C8H8O4+
182.0575	9	C9H10O4+
