Mass spectrum: 2-Methylbenzothiazole; LC-ESI-ITFT; MS2; CE: 30%; R=15000; [M+H]+
Name: 2-Methylbenzothiazole
Name: 2-methyl-1,3-benzothiazole
Formula: C8H7NS
Exact mass: 149.029920224
SMILES: CC1=NC2=CC=CC=C2S1
InChI: InChI=1S/C8H7NS/c1-6-9-7-4-2-3-5-8(7)10-6/h2-5H,1H3
Instrument: LTQ Orbitrap XL Thermo Scientific
Instrument type: LC-ESI-ITFT
Ms type: MS2
Ion mode: POSITIVE
Ionization: ESI
Fragmentation mode: HCD
Collision energy: 30 % (nominal)
Resolution: 15000
Column name: Kinetex Evo C18 2.6 um 50 x 2.1 mm
Retention time: 9.228 min
Base peak: 221.0751
Precursor m/z: 150.0372
Precursor type: [M+H]+
Precursor intensity: 12095769
m/z	relative intensity	assigned
150.0373	999	C8H8NS+
