Mass spectrum: Quinmerac; LC-ESI-ITFT; MS2; CE: 80%; R=15000; [M+H]+
Name: Quinmerac
Name: 7-chloro-3-methylquinoline-8-carboxylic acid
Formula: C11H8ClNO2
Exact mass: 221.024356176
SMILES: CC1=CC2=C(N=C1)C(C(O)=O)=C(Cl)C=C2
InChI: InChI=1S/C11H8ClNO2/c1-6-4-7-2-3-8(12)9(11(14)15)10(7)13-5-6/h2-5H,1H3,(H,14,15)
Instrument: LTQ Orbitrap XL Thermo Scientific
Instrument type: LC-ESI-ITFT
Ms type: MS2
Ion mode: POSITIVE
Ionization: ESI
Fragmentation mode: HCD
Collision energy: 80 % (nominal)
Resolution: 15000
Column name: Kinetex Evo C18 2.6 um 50 x 2.1 mm
Retention time: 5.811 min
Base peak: 222.0321
Precursor m/z: 222.0316
Precursor type: [M+H]+
Precursor intensity: 6965257.5
m/z	relative intensity	assigned
114.0465	3	C9H6+
140.0494	300	C10H6N+
141.0572	635	C10H7N+
149.0151	415	C9H6Cl+
158.0597	4	C10H8NO+
174.01	1	C10H5ClN+
175.0179	3	C10H6ClN+
176.0261	590	C10H7ClN+
194.0366	119	C10H9ClNO+
204.0209	999	C11H7ClNO+
222.0314	39	C11H9ClNO2+
