Mass spectrum: Acetaminophen / paracetamol; LC-ESI-ITFT; MS2; CE: 55; R=15000; [M+H]+
Name: Acetaminophen / paracetamol
Name: Acetaminophen
Name: N-(4-Hydroxyphenyl)acetamide
Formula: C8H9NO2
Exact mass: 151.0633
SMILES: CC(=O)NC1=CC=C(O)C=C1
InChI: InChI=1S/C8H9NO2/c1-6(10)9-7-2-4-8(11)5-3-7/h2-5,11H,1H3,(H,9,10)
Instrument: LTQ Orbitrap XL Thermo Scientific
Instrument type: LC-ESI-ITFT
Ms type: MS2
Ion mode: POSITIVE
Ionization: ESI
Fragmentation mode: HCD
Collision energy: 55 (nominal)
Resolution: 15000
Column name: Kinetex Core-Shell C18 2.6 um, 3.0 x 100 mm, Phenomenex
Retention time: 8.610 min
Base peak: 163.1328
Precursor m/z: 152.0706
Precursor type: [M+H]+
m/z	relative intensity	assigned
92.0495	20	C6H6N+
93.0336	16	C6H5O+
110.06	999	C6H8NO+
134.0603	20	C8H8NO+
152.0707	407	C8H10NO2+
