Mass spectrum: Daidzein; LC-ESI-ITFT; MS2; CE: 55; R=15000; [M+H]+
Name: Daidzein
Name: 7-Hydroxy-3-(4-hydroxyphenyl)chromen-4-one
Formula: C15H10O4
Exact mass: 254.0579
SMILES: OC1=CC=C(C=C1)C1=COC2=CC(O)=CC=C2C1=O
InChI: InChI=1S/C15H10O4/c16-10-3-1-9(2-4-10)13-8-19-14-7-11(17)5-6-12(14)15(13)18/h1-8,16-17H
Instrument: LTQ Orbitrap XL Thermo Scientific
Instrument type: LC-ESI-ITFT
Ms type: MS2
Ion mode: POSITIVE
Ionization: ESI
Fragmentation mode: CID
Collision energy: 55 (nominal)
Resolution: 15000
Column name: Kinetex Core-Shell C18 2.6 um, 3.0 x 100 mm, Phenomenex
Retention time: 21.699 min
Base peak: 255.0644
Precursor m/z: 255.0652
Precursor type: [M+H]+
m/z	relative intensity	assigned
81.0333	4	C5H5O+
89.039	1	C7H5+
91.0538	4	C7H7+
119.049	14	C8H7O+
121.0282	17	C7H5O2+
128.062	2	C10H8+
129.0697	13	C10H9+
131.0857	3	C10H11+
133.0282	32	C8H5O2+
137.023	709	C7H5O3+
141.0696	12	C11H9+
143.0858	3	C11H11+
145.0281	139	C9H5O2+
149.023	31	C8H5O3+
153.0696	24	C12H9+
155.0854	10	C12H11+
157.0646	65	C11H9O+
159.0441	5	C10H7O2+
165.0696	39	C13H9+
169.0648	4	C12H9O+
171.0802	28	C12H11O+
181.0646	69	C13H9O+
183.0799	6	C13H11O+
184.0511	2	C12H8O2+
185.0595	55	C12H9O2+
187.0751	5	C12H11O2+
193.0647	5	C14H9O+
199.075	999	C13H11O2+
209.0593	46	C14H9O2+
209.0709	11	C13H9N2O+
210.0675	7	C14H10O2+
211.075	49	C14H11O2+
213.0542	14	C13H9O3+
227.0698	524	C14H11O3+
237.0542	239	C15H9O3+
255.0657	4	C15H11O4+
