Mass spectrum: Daminozide; LC-ESI-ITFT; MS2; CE: 90%; R=15000; [M+H]+
Name: Daminozide
Name: 4-(2,2-dimethylhydrazinyl)-4-oxobutanoic acid
Formula: C6H12N2O3
Exact mass: 160.084792244
SMILES: CN(C)NC(=O)CCC(O)=O
InChI: InChI=1S/C6H12N2O3/c1-8(2)7-5(9)3-4-6(10)11/h3-4H2,1-2H3,(H,7,9)(H,10,11)
Instrument: LTQ Orbitrap XL Thermo Scientific
Instrument type: LC-ESI-ITFT
Ms type: MS2
Ion mode: POSITIVE
Ionization: ESI
Fragmentation mode: HCD
Collision energy: 90 % (nominal)
Resolution: 15000
Column name: Kinetex Evo C18 2.6 um 50 x 2.1 mm
Retention time: 0.541 min
Base peak: 161.0927
Precursor m/z: 161.0921
Precursor type: [M+H]+
Precursor intensity: 26756536
m/z	relative intensity	assigned
54.0336	125	C3H4N+
55.0176	482	C3H3O+
58.0649	267	C3H8N+
59.0601	811	C2H7N2+
61.0758	999	C2H9N2+
72.0443	721	C3H6NO+
72.0807	168	C4H10N+
73.0283	336	C3H5O2+
82.0287	184	C4H4NO+
87.0553	624	C3H7N2O+
100.0394	290	C4H6NO2+
100.0633	126	C4H8N2O+
101.0233	222	C4H5O3+
101.071	128	C4H9N2O+
115.0866	496	C5H11N2O+
143.0814	806	C6H11N2O2+
