Mass spectrum: Tamoxifen; LC-ESI-ITFT; MS2; CE: 90%; R=15000; [M+H]+
Name: Tamoxifen
Name: 2-[4-[(Z)-1,2-diphenylbut-1-enyl]phenoxy]-N,N-dimethylethanamine
Formula: C26H29NO
Exact mass: 371.224914548
SMILES: CC\C(=C(/C1=CC=CC=C1)C1=CC=C(OCCN(C)C)C=C1)C1=CC=CC=C1
InChI: InChI=1S/C26H29NO/c1-4-25(21-11-7-5-8-12-21)26(22-13-9-6-10-14-22)23-15-17-24(18-16-23)28-20-19-27(2)3/h5-18H,4,19-20H2,1-3H3/b26-25-
Instrument: LTQ Orbitrap XL Thermo Scientific
Instrument type: LC-ESI-ITFT
Ms type: MS2
Ion mode: POSITIVE
Ionization: ESI
Fragmentation mode: HCD
Collision energy: 90 % (nominal)
Resolution: 15000
Column name: Kinetex Evo C18 2.6 um 50 x 2.1 mm
Retention time: 10.986 min
Base peak: 372.2328
Precursor m/z: 372.2322
Precursor type: [M+H]+
Precursor intensity: 19754200
m/z	relative intensity	assigned
56.0492	15	C3H6N+
57.057	29	C3H7N+
58.0649	11	C3H8N+
70.065	128	C4H8N+
72.0806	999	C4H10N+
91.0542	44	C7H7+
103.0542	4	C8H7+
105.0698	12	C8H9+
107.0492	3	C7H7O+
115.0542	8	C9H7+
128.062	32	C10H8+
129.0698	27	C10H9+
145.0645	2	C10H9O+
152.0621	4	C12H8+
165.0698	11	C13H9+
167.0852	2	C13H11+
178.0777	38	C14H10+
179.0855	5	C14H11+
183.0804	3	C13H11O+
190.077	1	C15H10+
191.0854	21	C15H11+
194.0725	5	C14H10O+
202.0781	4	C16H10+
203.0856	5	C16H11+
207.0805	13	C15H11O+
215.0857	5	C17H11+
228.0932	6	C18H12+
239.0852	10	C19H11+
241.1014	9	C19H13+
252.0933	16	C20H12+
253.1016	16	C20H13+
254.1097	4	C20H14+
265.1002	2	C21H13+
