Mass spectrum: Ametryn; LC-ESI-ITFT; MS2; CE: 35; R=15000; [M+H]+
Name: Ametryn
Name: 4-N-Ethyl-6-methylsulfanyl-2-N-propan-2-yl-1,3,5-triazine-2,4-diamine
Formula: C9H17N5S
Exact mass: 227.1205
SMILES: CCNC1=NC(NC(C)C)=NC(SC)=N1
InChI: InChI=1S/C9H17N5S/c1-5-10-7-12-8(11-6(2)3)14-9(13-7)15-4/h6H,5H2,1-4H3,(H2,10,11,12,13,14)
Instrument: LTQ Orbitrap XL Thermo Scientific
Instrument type: LC-ESI-ITFT
Ms type: MS2
Ion mode: POSITIVE
Ionization: ESI
Fragmentation mode: CID
Collision energy: 35 (nominal)
Resolution: 15000
Column name: Kinetex Core-Shell C18 2.6 um, 3.0 x 100 mm, Phenomenex
Retention time: 21.743 min
Base peak: 224.0915
Precursor m/z: 228.1277
Precursor type: [M+H]+
m/z	relative intensity	assigned
91.0326	1	C2H7N2S+
96.0556	6	C4H6N3+
138.0775	2	C5H8N5+
138.1027	6	C7H12N3+
144.0592	1	C5H10N3S+
158.0497	6	C4H8N5S+
171.0567	1	C5H9N5S+
186.0807	999	C6H12N5S+
200.0966	1	C7H14N5S+
228.1277	850	C9H18N5S+
