Mass spectrum: Dodemorph; LC-ESI-ITFT; MS2; CE: 80%; R=15000; [M+H]+
Name: Dodemorph
Name: 4-cyclododecyl-2,6-dimethylmorpholine
Formula: C18H35NO
Exact mass: 281.27186474
SMILES: CC1CN(CC(C)O1)C1CCCCCCCCCCC1
InChI: InChI=1S/C18H35NO/c1-16-14-19(15-17(2)20-16)18-12-10-8-6-4-3-5-7-9-11-13-18/h16-18H,3-15H2,1-2H3
Instrument: LTQ Orbitrap XL Thermo Scientific
Instrument type: LC-ESI-ITFT
Ms type: MS2
Ion mode: POSITIVE
Ionization: ESI
Fragmentation mode: HCD
Collision energy: 80 % (nominal)
Resolution: 15000
Column name: Kinetex Evo C18 2.6 um 50 x 2.1 mm
Retention time: 8.713 min
Base peak: 116.9862
Precursor m/z: 282.2791
Precursor type: [M+H]+
Precursor intensity: 1338963
m/z	relative intensity	assigned
53.0384	5	C4H5+
55.054	244	C4H7+
56.0492	38	C3H6N+
57.0696	26	C4H9+
58.0649	18	C3H8N+
59.0489	5	C3H7O+
67.0541	9	C5H7+
69.0697	242	C5H9+
70.065	37	C4H8N+
71.0854	5	C5H11+
74.06	3	C3H8NO+
79.0542	8	C6H7+
81.0698	35	C6H9+
83.0855	117	C6H11+
85.1012	1	C6H13+
95.0855	9	C7H11+
96.0808	6	C6H10N+
97.1012	51	C7H13+
98.0964	999	C6H12N+
109.1012	7	C8H13+
111.1168	3	C8H15+
114.0908	1	C6H12NO+
116.107	311	C6H14NO+
