Mass spectrum: Sulfapyridine; LC-ESI-ITFT; MS2; CE: 40%; R=15000; [M+H]+
Name: Sulfapyridine
Name: 4-amino-N-pyridin-2-ylbenzenesulfonamide
Formula: C11H11N3O2S
Exact mass: 249.057197592
SMILES: NC1=CC=C(C=C1)S(=O)(=O)NC1=NC=CC=C1
InChI: InChI=1S/C11H11N3O2S/c12-9-4-6-10(7-5-9)17(15,16)14-11-3-1-2-8-13-11/h1-8H,12H2,(H,13,14)
Instrument: LTQ Orbitrap XL Thermo Scientific
Instrument type: LC-ESI-ITFT
Ms type: MS2
Ion mode: POSITIVE
Ionization: ESI
Fragmentation mode: HCD
Collision energy: 40 % (nominal)
Resolution: 15000
Column name: Kinetex Evo C18 2.6 um 50 x 2.1 mm
Retention time: 1.658 min
Base peak: 291.1463
Precursor m/z: 250.0645
Precursor type: [M+H]+
Precursor intensity: 4474248.5
m/z	relative intensity	assigned
65.0385	9	C5H5+
92.0496	234	C6H6N+
93.0449	3	C5H5N2+
93.0574	26	C6H7N+
94.0527	28	C5H6N2+
94.0653	5	C6H8N+
95.0605	314	C5H7N2+
108.0445	336	C6H6NO+
110.0602	3	C6H8NO+
120.0558	4	C6H6N3+
156.0116	999	C6H6NO2S+
157.0068	87	C5H5N2O2S+
184.0872	423	C11H10N3+
186.1029	12	C11H12N3+
232.0542	2	C11H10N3OS+
250.0649	393	C11H12N3O2S+
