Mass spectrum: Bethamethasone; LC-ESI-ITFT; MS2; CE: 40%; R=15000; [M+H]+
Name: Bethamethasone
Name: Betamethasone
Name: (8S,9R,10S,11S,13S,14S,16S,17R)-9-fluoro-11,17-dihydroxy-17-(2-hydroxyacetyl)-10,13,16-trimethyl-6,7,8,11,12,14,15,16-octahydrocyclopenta[a]phenanthren-3-one
Formula: C22H29FO5
Exact mass: 392.199902248
SMILES: [H][C@@]12C[C@H](C)[C@](O)(C(=O)CO)[C@@]1(C)C[C@H](O)[C@@]1(F)[C@@]2([H])CCC2=CC(=O)C=C[C@]12C
InChI: InChI=1S/C22H29FO5/c1-12-8-16-15-5-4-13-9-14(25)6-7-19(13,2)21(15,23)17(26)10-20(16,3)22(12,28)18(27)11-24/h6-7,9,12,15-17,24,26,28H,4-5,8,10-11H2,1-3H3/t12-,15-,16-,17-,19-,20-,21-,22-/m0/s1
Instrument: LTQ Orbitrap XL Thermo Scientific
Instrument type: LC-ESI-ITFT
Ms type: MS2
Ion mode: POSITIVE
Ionization: ESI
Fragmentation mode: HCD
Collision energy: 40 % (nominal)
Resolution: 15000
Column name: Kinetex Evo C18 2.6 um 50 x 2.1 mm
Retention time: 10.440 min
Base peak: 393.207
Precursor m/z: 393.2072
Precursor type: [M+H]+
Precursor intensity: 11890558
m/z	relative intensity	assigned
95.0859	158	C7H11+
121.065	440	C8H9O+
121.1014	113	C9H13+
147.0807	417	C10H11O+
171.0807	999	C12H11O+
173.0964	180	C12H13O+
185.0962	169	C13H13O+
197.0968	277	C14H13O+
209.0966	104	C15H13O+
211.1116	211	C15H15O+
215.1074	89	C14H15O2+
223.1128	316	C13H16FO2+
225.1279	153	C16H17O+
235.1118	212	C17H15O+
237.1272	425	C17H17O+
239.1433	513	C17H19O+
249.1271	149	C18H17O+
277.1585	192	C17H22FO2+
279.1742	311	C20H23O+
289.1611	87	C18H22FO2+
291.174	118	C21H23O+
