Mass spectrum: Efavirenz; LC-ESI-ITFT; MS2; CE: 90%; R=15000; [M+H]+
Name: Efavirenz
Name: 6-chloro-4-(cyclopropylethynyl)-4-(trifluoromethyl)-1,4-dihydro-2H-3,1-benzoxazin-2-one
Name: 6-chloro-4-(2-cyclopropylethynyl)-4-(trifluoromethyl)-1H-3,1-benzoxazin-2-one
Formula: C14H9ClF3NO2
Exact mass: 315.027390868
SMILES: FC(F)(F)C1(OC(=O)NC2=C1C=C(Cl)C=C2)C#CC1CC1
InChI: InChI=1S/C14H9ClF3NO2/c15-9-3-4-11-10(7-9)13(14(16,17)18,21-12(20)19-11)6-5-8-1-2-8/h3-4,7-8H,1-2H2,(H,19,20)
Instrument: LTQ Orbitrap XL Thermo Scientific
Instrument type: LC-ESI-ITFT
Ms type: MS2
Ion mode: POSITIVE
Ionization: ESI
Fragmentation mode: HCD
Collision energy: 90 % (nominal)
Resolution: 15000
Column name: Kinetex Evo C18 2.6 um 50 x 2.1 mm
Retention time: 12.229 min
Base peak: 316.0359
Precursor m/z: 316.0347
Precursor type: [M+H]+
Precursor intensity: 2178012.75
m/z	relative intensity	assigned
53.0386	477	C4H5+
138.0282	196	C5H5F3O+
141.0705	59	C8H10FO+
151.019	62	C8H4FO2+
162.0112	139	C9H3FO2+
162.0282	50	C7H5F3O+
164.027	126	C9H5FO2+
165.0389	21	C9H5F2N+
165.0581	32	C9H8FNO+
166.0658	227	C9H9FNO+
167.0737	999	C12H9N+
168.0815	423	C12H10N+
169.0329	69	C8H5F2NO+
170.0534	46	C9H8F2O+
171.0485	15	C11H6FN+
172.0567	63	C8H8F2NO+
172.997	50	C8H4ClF2+
174.0114	122	C10H3FO2+
175.0188	82	C10H4FO2+
177.0395	23	C7H6F3NO+
177.058	35	C13H7N+
183.9972	30	C5H5ClF2NO2+
184.9972	31	C6H5ClF3O+
185.0644	61	C9H9F2NO+
185.9924	50	C8HF3O2+
188.0269	236	C11H5FO2+
188.044	47	C9H7F3O+
189.0392	417	C8H6F3NO+
190.0473	32	C8H7F3NO+
192.0019	152	C10H2F2O2+
195.0488	95	C10H7F2NO+
196.0564	126	C10H8F2NO+
197.0644	125	C10H9F2NO+
200.0085	29	C9H3F3O2+
200.0273	20	C9H8ClFNO+
201.0347	103	C12H6FO2+
202.0412	64	C12H9ClN+
206.0425	16	C8H7F3NO2+
209.0451	39	C11H6F3N+
212.008	84	C10H3F3O2+
214.0471	56	C13H6F2N+
215.0548	118	C10H8F3NO+
216.0381	20	C13H6F2O+
216.0628	141	C10H9F3NO+
219.0246	13	C12H7ClFN+
222.053	72	C12H7F3N+
224.0081	262	C11H3F3O2+
232.0336	27	C10H9ClF2NO+
237.0158	56	C12H4F3O2+
