Mass spectrum: Quinmerac BH518-2; LC-ESI-ITFT; MS2; CE: 60%; R=15000; [M+H]+
Name: Quinmerac BH518-2
Name: 7-chloroquinoline-3,8-dicarboxylic acid
Formula: C11H6ClNO4
Exact mass: 250.998535352
SMILES: OC(=O)C1=CN=C2C(C=CC(Cl)=C2C(O)=O)=C1
InChI: InChI=1S/C11H6ClNO4/c12-7-2-1-5-3-6(10(14)15)4-13-9(5)8(7)11(16)17/h1-4H,(H,14,15)(H,16,17)
Instrument: LTQ Orbitrap XL Thermo Scientific
Instrument type: LC-ESI-ITFT
Ms type: MS2
Ion mode: POSITIVE
Ionization: ESI
Fragmentation mode: HCD
Collision energy: 60 % (nominal)
Resolution: 15000
Column name: Kinetex Evo C18 2.6 um 50 x 2.1 mm
Retention time: 7.336 min
Base peak: 252.0068
Precursor m/z: 252.0058
Precursor type: [M+H]+
Precursor intensity: 3111558.75
m/z	relative intensity	assigned
162.0112	43	C9H5ClN+
224.0118	91	C10H7ClNO3+
233.9961	999	C11H5ClNO3+
252.0068	77	C11H7ClNO4+
