Mass spectrum: Atrazine; LC-ESI-ITFT; MS2; CE: 90%; R=15000; [M+H]+
Name: Atrazine
Name: 6-chloro-4-N-ethyl-2-N-propan-2-yl-1,3,5-triazine-2,4-diamine
Formula: C8H14ClN5
Exact mass: 215.093773128
SMILES: CCNC1=NC(NC(C)C)=NC(Cl)=N1
InChI: InChI=1S/C8H14ClN5/c1-4-10-7-12-6(9)13-8(14-7)11-5(2)3/h5H,4H2,1-3H3,(H2,10,11,12,13,14)
Instrument: LTQ Orbitrap XL Thermo Scientific
Instrument type: LC-ESI-ITFT
Ms type: MS2
Ion mode: POSITIVE
Ionization: ESI
Fragmentation mode: HCD
Collision energy: 90 % (nominal)
Resolution: 15000
Column name: Kinetex Evo C18 2.6 um 50 x 2.1 mm
Retention time: 9.863 min
Base peak: 216.1014
Precursor m/z: 216.101
Precursor type: [M+H]+
Precursor intensity: 38091068
m/z	relative intensity	assigned
61.9789	45	CHClN+
68.0241	723	C2H2N3+
71.0601	344	C3H7N2+
79.0056	447	CH4ClN2+
90.0103	26	C3H5ClN+
96.0555	687	C4H6N3+
104.0008	999	C2H3ClN3+
110.046	97	C3H4N5+
132.0321	305	C4H7ClN3+
138.0772	98	C5H8N5+
146.0226	236	C3H5ClN5+
174.0538	234	C5H9ClN5+
