Mass spectrum: Paroxetine; LC-ESI-ITFT; MS2; CE: 50%; R=15000; [M+H]+
Name: Paroxetine
Name: 3-(1,3-benzodioxol-5-yloxymethyl)-4-(4-fluorophenyl)piperidine
Formula: C19H20FNO3
Exact mass: 329.14272172
SMILES: FC1=CC=C(C=C1)C1CCNCC1COC1=CC2=C(OCO2)C=C1
InChI: InChI=1S/C19H20FNO3/c20-15-3-1-13(2-4-15)17-7-8-21-10-14(17)11-22-16-5-6-18-19(9-16)24-12-23-18/h1-6,9,14,17,21H,7-8,10-12H2
Instrument: LTQ Orbitrap XL Thermo Scientific
Instrument type: LC-ESI-ITFT
Ms type: MS2
Ion mode: POSITIVE
Ionization: ESI
Fragmentation mode: HCD
Collision energy: 50 % (nominal)
Resolution: 15000
Column name: Kinetex Evo C18 2.6 um 50 x 2.1 mm
Retention time: 8.665 min
Base peak: 455.2916
Precursor m/z: 330.15
Precursor type: [M+H]+
Precursor intensity: 28460548
m/z	relative intensity	assigned
56.0493	49	C3H6N+
57.0572	10	C3H7N+
58.0649	4	C3H8N+
68.0494	46	C4H6N+
70.065	999	C4H8N+
71.0728	9	C4H9N+
82.0652	17	C5H8N+
83.0729	7	C5H9N+
84.0808	19	C5H10N+
86.0601	9	C4H8NO+
93.0336	7	C6H5O+
96.081	10	C6H10N+
97.0887	44	C6H11N+
109.0283	12	C6H5O2+
109.0449	96	C7H6F+
123.0441	66	C7H7O2+
123.0605	151	C8H8F+
135.0606	75	C9H8F+
136.0684	39	C9H9F+
137.0761	12	C9H10F+
138.0713	11	C8H9FN+
139.0391	27	C7H7O3+
147.0606	25	C10H8F+
148.0685	14	C10H9F+
149.0763	16	C10H10F+
150.0716	31	C9H9FN+
150.0837	5	C10H11F+
151.0391	174	C8H7O3+
161.0762	54	C11H10F+
163.0919	200	C11H12F+
164.0873	32	C10H11FN+
175.0924	7	C12H12F+
176.0997	40	C12H13F+
178.1028	112	C11H13FN+
190.1025	8	C12H13FN+
192.1185	745	C12H15FN+
193.1265	27	C12H16FN+
208.1138	3	C12H15FNO+
330.1503	135	C19H21FNO3+
