Mass spectrum: Monobenzyl phthalate; LC-ESI-ITFT; MS2; CE: 80; R=15000; [M-H]-
Name: Monobenzyl phthalate
Name: 2-Phenylmethoxycarbonylbenzoic acid
Formula: C15H12O4
Exact mass: 256.0736
SMILES: OC(=O)C1=CC=CC=C1C(=O)OCC1=CC=CC=C1
InChI: InChI=1S/C15H12O4/c16-14(17)12-8-4-5-9-13(12)15(18)19-10-11-6-2-1-3-7-11/h1-9H,10H2,(H,16,17)
Instrument: LTQ Orbitrap XL Thermo Scientific
Instrument type: LC-ESI-ITFT
Ms type: MS2
Ion mode: NEGATIVE
Ionization: ESI
Fragmentation mode: HCD
Collision energy: 80 (nominal)
Resolution: 15000
Column name: Kinetex Core-Shell C18 2.6 um, 3.0 x 100 mm, Phenomenex
Retention time: 23.562 min
Base peak: 255.0665
Precursor m/z: 255.0663
Precursor type: [M-H]-
m/z	relative intensity	assigned
77.0399	698	C6H5-
105.0347	673	C7H5O-
107.0501	999	C7H7O-
