Mass spectrum: Thiophanate-methyl; LC-ESI-ITFT; MS2; CE: 80%; R=15000; [M+H]+
Name: Thiophanate-methyl
Name: CID 3085
Name: N`-methoxycarbonyl-N-[2-[(N-methoxycarbonyl-C-sulfanylcarbonimidoyl)amino]phenyl]carbamimidothioic acid
Formula: C12H14N4O4S2
Exact mass: 342.045646928
SMILES: COC(=O)NC(=S)NC1=CC=CC=C1NC(=S)NC(=O)OC
InChI: InChI=1S/C12H14N4O4S2/c1-19-11(17)15-9(21)13-7-5-3-4-6-8(7)14-10(22)16-12(18)20-2/h3-6H,1-2H3,(H2,13,15,17,21)(H2,14,16,18,22)
Instrument: LTQ Orbitrap XL Thermo Scientific
Instrument type: LC-ESI-ITFT
Ms type: MS2
Ion mode: POSITIVE
Ionization: ESI
Fragmentation mode: HCD
Collision energy: 80 % (nominal)
Resolution: 15000
Column name: Kinetex Evo C18 2.6 um 50 x 2.1 mm
Retention time: 8.979 min
Base peak: 343.054
Precursor m/z: 343.0529
Precursor type: [M+H]+
Precursor intensity: 10717109
m/z	relative intensity	assigned
59.0126	3	C2H3O2+
65.0385	4	C5H5+
74.0059	157	C2H4NS+
76.0393	55	C2H6NO2+
80.0496	2	C5H6N+
85.9696	150	C2NOS+
92.0496	94	C6H6N+
93.0574	241	C6H7N+
107.0604	30	C6H7N2+
108.0683	2	C6H8N2+
109.0761	97	C6H9N2+
117.9959	21	C3H4NO2S+
118.0527	136	C7H6N2+
119.0605	46	C7H7N2+
132.0558	12	C7H6N3+
134.0714	17	C7H8N3+
135.0136	6	C7H5NS+
135.0554	10	C7H7N2O+
149.0171	90	C7H5N2S+
150.0014	2	CH10O4S2+
150.0248	13	C7H6N2S+
151.0326	999	C7H7N2S+
152.0359	5	C2H8N4O2S+
160.0507	133	C8H6N3O+
174.0129	3	C2H10N2O3S2+
175.02	9	C2H11N2O3S2+
177.0121	9	C2H11NO4S2+
192.9891	13	C8H5N2S2+
