Mass spectrum: Tri(butoxyethyl)phosphate; LC-ESI-ITFT; MS2; CE: 30%; R=15000; [M+H]+
Name: Tri(butoxyethyl)phosphate
Name: tris(2-butoxyethyl) phosphate
Formula: C18H39O7P
Exact mass: 398.243340218
SMILES: CCCCOCCOP(=O)(OCCOCCCC)OCCOCCCC
InChI: InChI=1S/C18H39O7P/c1-4-7-10-20-13-16-23-26(19,24-17-14-21-11-8-5-2)25-18-15-22-12-9-6-3/h4-18H2,1-3H3
Instrument: LTQ Orbitrap XL Thermo Scientific
Instrument type: LC-ESI-ITFT
Ms type: MS2
Ion mode: POSITIVE
Ionization: ESI
Fragmentation mode: HCD
Collision energy: 30 % (nominal)
Resolution: 15000
Column name: Kinetex Evo C18 2.6 um 50 x 2.1 mm
Retention time: 13.378 min
Base peak: 399.2521
Precursor m/z: 399.2506
Precursor type: [M+H]+
Precursor intensity: 30518920
m/z	relative intensity	assigned
57.0697	532	C4H9+
59.049	42	C3H7O+
83.0856	203	C6H11+
98.9844	99	H4O4P+
101.0963	227	C6H13O+
125	47	C2H6O4P+
143.0107	174	C2H8O5P+
199.0734	999	C6H16O5P+
225.0896	21	C8H18O5P+
243.1	38	C8H20O6P+
299.1622	220	C12H28O6P+
