Mass spectrum: Tricresylphosphate; LC-ESI-ITFT; MS2; CE: 60%; R=15000; [M+H]+
Name: Tricresylphosphate
Name: Tricresyl phosphate
Name: tris(4-methylphenyl) phosphate
Formula: C21H21O4P
Exact mass: 368.117745782
SMILES: CC1=CC=C(OP(=O)(OC2=CC=C(C)C=C2)OC2=CC=C(C)C=C2)C=C1
InChI: InChI=1S/C21H21O4P/c1-16-4-10-19(11-5-16)23-26(22,24-20-12-6-17(2)7-13-20)25-21-14-8-18(3)9-15-21/h4-15H,1-3H3
Instrument: LTQ Orbitrap XL Thermo Scientific
Instrument type: LC-ESI-ITFT
Ms type: MS2
Ion mode: POSITIVE
Ionization: ESI
Fragmentation mode: HCD
Collision energy: 60 % (nominal)
Resolution: 15000
Column name: Kinetex Evo C18 2.6 um 50 x 2.1 mm
Retention time: 13.959 min
Base peak: 369.1262
Precursor m/z: 369.125
Precursor type: [M+H]+
Precursor intensity: 57246580
m/z	relative intensity	assigned
65.0384	30	C5H5+
77.0385	8	C6H5+
79.0542	92	C6H7+
91.0543	915	C7H7+
105.0703	3	C8H9+
107.0492	418	C7H7O+
108.0571	18	C7H8O+
109.0648	63	C7H9O+
121.0643	3	C8H9O+
129.07	3	C10H9+
141.07	27	C11H9+
152.0622	9	C12H8+
153.0102	28	C7H6O2P+
153.0699	50	C12H9+
154.0179	42	C7H7O2P+
155.0253	10	C7H8O2P+
165.0701	622	C13H9+
166.0778	999	C13H10+
169.1013	6	C13H13+
171.0203	8	C7H8O3P+
178.0779	16	C14H10+
179.0857	79	C14H11+
180.0934	27	C14H12+
181.1013	90	C14H13+
184.0883	7	C13H12O+
187.0158	4	C7H8O4P+
189.0314	25	C7H10O4P+
195.0807	5	C14H11O+
196.0884	128	C14H12O+
197.0961	6	C14H13O+
198.1041	3	C14H14O+
199.1116	10	C14H15O+
215.0621	24	C13H12OP+
229.101	4	C18H13+
233.0731	5	C13H14O2P+
240.0941	4	C19H12+
241.1015	53	C19H13+
243.0571	234	C14H12O2P+
255.117	31	C20H15+
256.1251	60	C20H16+
261.0677	195	C14H14O3P+
275.0836	10	C15H16O3P+
279.0782	182	C14H16O4P+
333.1029	3	C21H18O2P+
369.1254	10	C21H22O4P+
