Mass spectrum: Diuron; LC-ESI-ITFT; MS2; CE: 60%; R=15000; [M+H]+
Name: Diuron
Name: 3-(3,4-dichlorophenyl)-1,1-dimethylurea
Formula: C9H10Cl2N2O
Exact mass: 232.0170183
SMILES: CN(C)C(=O)NC1=CC=C(Cl)C(Cl)=C1
InChI: InChI=1S/C9H10Cl2N2O/c1-13(2)9(14)12-6-3-4-7(10)8(11)5-6/h3-5H,1-2H3,(H,12,14)
Instrument: LTQ Orbitrap XL Thermo Scientific
Instrument type: LC-ESI-ITFT
Ms type: MS2
Ion mode: POSITIVE
Ionization: ESI
Fragmentation mode: HCD
Collision energy: 60 % (nominal)
Resolution: 15000
Column name: Kinetex Evo C18 2.6 um 50 x 2.1 mm
Retention time: 10.116 min
Base peak: 192.1388
Precursor m/z: 233.0243
Precursor type: [M+H]+
Precursor intensity: 5676850
m/z	relative intensity	assigned
55.0541	91	C4H7+
72.0445	999	C3H6NO+
83.0857	119	C6H11+
159.9719	67	C6H4Cl2N+
187.9671	19	C7H4Cl2NO+
233.0253	6	C9H11Cl2N2O+
