Mass spectrum: Quinoxyfen; LC-ESI-ITFT; MS2; CE: 90%; R=15000; [M+H]+
Name: Quinoxyfen
Name: 5,7-dichloro-4-(4-fluorophenoxy)quinoline
Formula: C15H8Cl2FNO
Exact mass: 306.996697456
SMILES: FC1=CC=C(OC2=C3C(Cl)=CC(Cl)=CC3=NC=C2)C=C1
InChI: InChI=1S/C15H8Cl2FNO/c16-9-7-12(17)15-13(8-9)19-6-5-14(15)20-11-3-1-10(18)2-4-11/h1-8H
Instrument: LTQ Orbitrap XL Thermo Scientific
Instrument type: LC-ESI-ITFT
Ms type: MS2
Ion mode: POSITIVE
Ionization: ESI
Fragmentation mode: HCD
Collision energy: 90 % (nominal)
Resolution: 15000
Column name: Kinetex Evo C18 2.6 um 50 x 2.1 mm
Retention time: 13.421 min
Base peak: 308.0047
Precursor m/z: 308.004
Precursor type: [M+H]+
Precursor intensity: 29930630
m/z	relative intensity	assigned
75.0228	131	C6H3+
83.029	7	C5H4F+
93.0334	4	C6H5O+
95.029	126	C6H4F+
109.0446	11	C7H6F+
112.0317	4	C6H5FO+
113.0396	39	C6H6FO+
114.0337	14	C8H4N+
115.0415	39	C8H5N+
122.9995	99	C7H4Cl+
132.0442	3	C8H6NO+
133.0522	7	C8H7NO+
150.0104	176	C8H5ClN+
156.9604	6	C7H3Cl2+
161.0025	14	C9H4ClN+
162.0104	999	C9H5ClN+
168.021	32	C8H7ClNO+
169.9684	32	C8H4Cl2+
178.0054	12	C9H5ClNO+
179.0132	55	C9H6ClNO+
180.0208	16	C9H7ClNO+
182.0522	6	C13H7F+
183.0603	30	C13H8F+
183.9715	16	C8H4Cl2N+
184.9792	156	C8H5Cl2N+
190.0651	20	C14H8N+
195.9714	15	C9H4Cl2N+
196.9792	955	C9H5Cl2N+
208.0554	23	C14H7FN+
209.0634	68	C14H8FN+
210.0713	47	C14H9FN+
212.9741	6	C9H5Cl2NO+
213.9819	712	C9H6Cl2NO+
217.0211	19	C13H7ClF+
219.0245	10	C12H7ClFN+
224.0255	4	C14H7ClN+
225.0338	35	C14H8ClN+
226.0424	4	C14H9ClN+
237.0582	117	C15H8FNO+
238.0667	8	C15H9FNO+
243.0244	17	C14H7ClFN+
244.0321	48	C14H8ClFN+
245.0399	65	C14H9ClFN+
253.029	11	C15H8ClNO+
254.0365	6	C15H9ClNO+
255.0236	4	C15H7ClFN+
272.027	88	C15H8ClFNO+
279.0006	3	C14H8Cl2FN+
308.0038	7	C15H9Cl2FNO+
