Mass spectrum: Fluconazole; LC-ESI-ITFT; MS2; CE: 90%; R=15000; [M+H]+
Name: Fluconazole
Name: 2-(2,4-difluorophenyl)-1,3-bis(1,2,4-triazol-1-yl)propan-2-ol
Formula: C13H12F2N6O
Exact mass: 306.104065444
SMILES: OC(CN1C=NC=N1)(CN1C=NC=N1)C1=C(F)C=C(F)C=C1
InChI: InChI=1S/C13H12F2N6O/c14-10-1-2-11(12(15)3-10)13(22,4-20-8-16-6-18-20)5-21-9-17-7-19-21/h1-3,6-9,22H,4-5H2
Instrument: LTQ Orbitrap XL Thermo Scientific
Instrument type: LC-ESI-ITFT
Ms type: MS2
Ion mode: POSITIVE
Ionization: ESI
Fragmentation mode: HCD
Collision energy: 90 % (nominal)
Resolution: 15000
Column name: Kinetex Evo C18 2.6 um 50 x 2.1 mm
Retention time: 6.975 min
Base peak: 307.1122
Precursor m/z: 307.1113
Precursor type: [M+H]+
Precursor intensity: 24094390
m/z	relative intensity	assigned
55.0176	48	C3H3O+
70.0398	763	C2H4N3+
82.0399	51	C3H4N3+
83.0478	36	C3H5N3+
84.0557	7	C3H6N3+
91.0542	40	C7H7+
100.0504	4	C3H6N3O+
101.0386	103	C8H5+
115.0353	28	C6H5F2+
119.0292	24	C8H4F+
119.0491	56	C8H7O+
121.0448	843	C8H6F+
127.0354	872	C7H5F2+
129.0447	758	C8H5N2+
139.0354	999	C8H5F2+
140.0307	8	C7H4F2N+
141.0146	137	C7H3F2O+
141.051	320	C8H7F2+
146.04	30	C9H5FN+
147.0353	285	C8H4FN2+
149.0397	11	C9H6FO+
151.0354	788	C9H5F2+
153.0385	5	C8H5F2N+
153.0446	7	C5H4FN5+
164.0433	19	C10H6F2+
166.0463	49	C9H6F2N+
169.046	116	C9H7F2O+
173.051	74	C10H6FN2+
176.0306	4	C10H4F2N+
177.046	14	C9H6FN2O+
193.0572	10	C10H7F2N2+
200.0619	21	C11H7FN3+
220.0682	18	C11H8F2N3+
