Mass spectrum: Propranolol; LC-ESI-ITFT; MS2; CE: 80%; R=15000; [M+H]+
Name: Propranolol
Name: 1-naphthalen-1-yloxy-3-(propan-2-ylamino)propan-2-ol
Formula: C16H21NO2
Exact mass: 259.157228912
SMILES: CC(C)NCC(O)COC1=C2C=CC=CC2=CC=C1
InChI: InChI=1S/C16H21NO2/c1-12(2)17-10-14(18)11-19-16-9-5-7-13-6-3-4-8-15(13)16/h3-9,12,14,17-18H,10-11H2,1-2H3
Instrument: LTQ Orbitrap XL Thermo Scientific
Instrument type: LC-ESI-ITFT
Ms type: MS2
Ion mode: POSITIVE
Ionization: ESI
Fragmentation mode: HCD
Collision energy: 80 % (nominal)
Resolution: 15000
Column name: Kinetex Evo C18 2.6 um 50 x 2.1 mm
Retention time: 7.010 min
Base peak: 180.1752
Precursor m/z: 260.1645
Precursor type: [M+H]+
Precursor intensity: 106144.84
m/z	relative intensity	assigned
56.0495	999	C3H6N+
58.0651	512	C3H8N+
72.081	776	C4H10N+
74.0602	926	C3H8NO+
77.0388	11	C6H5+
84.0811	100	C5H10N+
86.0969	7	C5H12N+
91.0546	15	C7H7+
98.0968	200	C6H12N+
100.1125	385	C6H14N+
115.0547	198	C9H7+
116.1074	286	C6H14NO+
117.0703	59	C9H9+
127.0546	18	C10H7+
128.0626	122	C10H8+
129.0704	724	C10H9+
141.0705	104	C11H9+
143.0498	40	C10H7O+
144.0573	17	C10H8O+
145.0654	226	C10H9O+
152.0621	9	C12H8+
153.0705	318	C12H9+
154.0782	112	C12H10+
155.0861	913	C12H11+
157.0654	433	C11H9O+
165.0705	326	C13H9+
168.0576	95	C12H8O+
171.081	20	C12H11O+
183.0812	89	C13H11O+
