Mass spectrum: Metoprolol; LC-ESI-ITFT; MS2; CE: 55; R=15000; [M+H]+
Name: Metoprolol
Name: 1-[4-(2-Methoxyethyl)phenoxy]-3-(propan-2-ylamino)propan-2-ol
Formula: C15H25NO3
Exact mass: 267.1834
SMILES: COCCC1=CC=C(OCC(O)CNC(C)C)C=C1
InChI: InChI=1S/C15H25NO3/c1-12(2)16-10-14(17)11-19-15-6-4-13(5-7-15)8-9-18-3/h4-7,12,14,16-17H,8-11H2,1-3H3
Instrument: LTQ Orbitrap XL Thermo Scientific
Instrument type: LC-ESI-ITFT
Ms type: MS2
Ion mode: POSITIVE
Ionization: ESI
Fragmentation mode: CID
Collision energy: 55 (nominal)
Resolution: 15000
Column name: Kinetex Core-Shell C18 2.6 um, 3.0 x 100 mm, Phenomenex
Retention time: 17.049 min
Base peak: 189.1022
Precursor m/z: 268.1907
Precursor type: [M+H]+
m/z	relative intensity	assigned
74.06	7	C3H8NO+
86.0965	10	C5H12N+
91.0543	4	C7H7+
93.0699	2	C7H9+
96.0809	5	C6H10N+
98.0965	152	C6H12N+
105.07	3	C8H9+
116.1071	818	C6H14NO+
117.0698	4	C9H9+
121.0649	208	C8H9O+
129.0702	4	C10H9+
131.0857	28	C10H11+
133.0649	108	C9H9O+
135.0807	10	C9H11O+
141.0703	7	C11H9+
143.0856	12	C11H11+
144.057	5	C10H8O+
147.0807	19	C10H11O+
148.076	3	C9H10NO+
149.0962	3	C10H13O+
150.0915	9	C9H12NO+
158.0964	2	C11H12N+
159.0806	446	C11H11O+
161.0963	89	C11H13O+
163.112	35	C11H15O+
165.0913	46	C10H13O2+
169.0763	5	C11H9N2+
176.1072	194	C11H14NO+
177.0912	91	C11H13O2+
179.1069	16	C11H15O2+
191.1069	999	C12H15O2+
194.1177	154	C11H16NO2+
201.1276	18	C14H17O+
218.1541	438	C14H20NO+
226.144	256	C12H20NO3+
233.1537	11	C15H21O2+
250.1806	110	C15H24NO2+
268.1895	2	C15H26NO3+
