Mass spectrum: Quinoxyfen; LC-ESI-ITFT; MS2; CE: 40%; R=15000; [M+H]+
Name: Quinoxyfen
Name: 5,7-dichloro-4-(4-fluorophenoxy)quinoline
Formula: C15H8Cl2FNO
Exact mass: 306.996697456
SMILES: FC1=CC=C(OC2=C3C(Cl)=CC(Cl)=CC3=NC=C2)C=C1
InChI: InChI=1S/C15H8Cl2FNO/c16-9-7-12(17)15-13(8-9)19-6-5-14(15)20-11-3-1-10(18)2-4-11/h1-8H
Instrument: LTQ Orbitrap XL Thermo Scientific
Instrument type: LC-ESI-ITFT
Ms type: MS2
Ion mode: POSITIVE
Ionization: ESI
Fragmentation mode: HCD
Collision energy: 40 % (nominal)
Resolution: 15000
Column name: Kinetex Evo C18 2.6 um 50 x 2.1 mm
Retention time: 13.461 min
Base peak: 308.0045
Precursor m/z: 308.004
Precursor type: [M+H]+
Precursor intensity: 12103291
m/z	relative intensity	assigned
196.9791	15	C9H5Cl2N+
213.9816	3	C9H6Cl2NO+
244.0322	1	C14H8ClFN+
245.0401	3	C14H9ClFN+
272.0268	23	C15H8ClFNO+
280.0077	4	C14H9Cl2FN+
308.0034	999	C15H9Cl2FNO+
