Mass spectrum: Capecitabine; LC-ESI-ITFT; MS2; CE: 80%; R=15000; [M+H]+
Name: Capecitabine
Name: pentyl N-[1-[(2R,3R,4S,5R)-3,4-dihydroxy-5-methyloxolan-2-yl]-5-fluoro-2-oxopyrimidin-4-yl]carbamate
Formula: C15H22FN3O6
Exact mass: 359.149263644
SMILES: CCCCCOC(=O)NC1=NC(=O)N(C=C1F)[C@@H]1O[C@H](C)[C@@H](O)[C@H]1O
InChI: InChI=1S/C15H22FN3O6/c1-3-4-5-6-24-15(23)18-12-9(16)7-19(14(22)17-12)13-11(21)10(20)8(2)25-13/h7-8,10-11,13,20-21H,3-6H2,1-2H3,(H,17,18,22,23)/t8-,10-,11-,13-/m1/s1
Instrument: LTQ Orbitrap XL Thermo Scientific
Instrument type: LC-ESI-ITFT
Ms type: MS2
Ion mode: POSITIVE
Ionization: ESI
Fragmentation mode: HCD
Collision energy: 80 % (nominal)
Resolution: 15000
Column name: Kinetex Evo C18 2.6 um 50 x 2.1 mm
Retention time: 9.491 min
Base peak: 360.1578
Precursor m/z: 360.1565
Precursor type: [M+H]+
Precursor intensity: 11020254
m/z	relative intensity	assigned
71.0857	13	C5H11+
73.0287	18	C3H5O2+
87.0356	47	C3H4FN2+
112.0311	43	C9H4+
113.0151	118	C4H2FN2O+
130.0416	999	C9H6O+
156.021	42	C10H4O2+
174.0317	27	C10H6O3+
185.9991	7	C10HFNO2+
