Mass spectrum: Allethrin; LC-ESI-ITFT; MS2; CE: 40%; R=15000; [M+H]+
Name: Allethrin
Name: (2-methyl-4-oxo-3-prop-2-enylcyclopent-2-en-1-yl) 2,2-dimethyl-3-(2-methylprop-1-enyl)cyclopropane-1-carboxylate
Formula: C19H26O3
Exact mass: 302.188194692
SMILES: CC(C)=CC1C(C(=O)OC2CC(=O)C(CC=C)=C2C)C1(C)C
InChI: InChI=1S/C19H26O3/c1-7-8-13-12(4)16(10-15(13)20)22-18(21)17-14(9-11(2)3)19(17,5)6/h7,9,14,16-17H,1,8,10H2,2-6H3
Instrument: LTQ Orbitrap XL Thermo Scientific
Instrument type: LC-ESI-ITFT
Ms type: MS2
Ion mode: POSITIVE
Ionization: ESI
Fragmentation mode: HCD
Collision energy: 40 % (nominal)
Resolution: 15000
Column name: Kinetex Evo C18 2.6 um 50 x 2.1 mm
Retention time: 13.618 min
Base peak: 255.1747
Precursor m/z: 303.1955
Precursor type: [M+H]+
Precursor intensity: 1854251.75
m/z	relative intensity	assigned
69.0698	45	C5H9+
79.0543	111	C6H7+
81.07	164	C6H9+
83.0492	29	C5H7O+
93.0701	209	C7H9+
95.0856	93	C7H11+
107.0857	225	C8H11+
109.0649	67	C7H9O+
109.1014	81	C8H13+
121.0651	108	C8H9O+
121.1014	999	C9H13+
123.1171	354	C9H15+
125.0594	56	C7H9O2+
135.0807	374	C9H11O+
137.0963	336	C9H13O+
139.1121	252	C9H15O+
143.0857	31	C11H11+
145.1014	32	C11H13+
147.1168	47	C11H15+
149.0963	837	C10H13O+
157.1013	40	C12H13+
159.1166	35	C12H15+
161.0963	42	C11H13O+
161.1325	34	C12H17+
163.1115	34	C11H15O+
167.1068	130	C10H15O2+
173.1325	51	C13H17+
201.1276	75	C14H17O+
203.1434	121	C14H19O+
215.144	59	C15H19O+
257.1901	35	C18H25O+
