Mass spectrum: Diazinon; LC-ESI-ITFT; MS2; CE: 40%; R=15000; [M+H]+
Name: Diazinon
Name: diethoxy-(6-methyl-2-propan-2-ylpyrimidin-4-yl)oxy-sulfanylidene-lambda5-phosphane
Formula: C12H21N2O3PS
Exact mass: 304.101050162
SMILES: CCOP(=S)(OCC)OC1=CC(C)=NC(=N1)C(C)C
InChI: InChI=1S/C12H21N2O3PS/c1-6-15-18(19,16-7-2)17-11-8-10(5)13-12(14-11)9(3)4/h8-9H,6-7H2,1-5H3
Instrument: LTQ Orbitrap XL Thermo Scientific
Instrument type: LC-ESI-ITFT
Ms type: MS2
Ion mode: POSITIVE
Ionization: ESI
Fragmentation mode: HCD
Collision energy: 40 % (nominal)
Resolution: 15000
Column name: Kinetex Evo C18 2.6 um 50 x 2.1 mm
Retention time: 12.492 min
Base peak: 305.1093
Precursor m/z: 305.1083
Precursor type: [M+H]+
Precursor intensity: 47252096
m/z	relative intensity	assigned
96.9507	91	H2O2PS+
109.0047	7	C2H6O3P+
114.9613	82	H4O3PS+
124.982	21	C2H6O2PS+
153.1022	578	C8H13N2O+
169.0794	999	C8H13N2S+
181.1335	34	C10H17N2O+
197.1104	5	C10H17N2S+
206.0938	4	C12H14O3+
231.0346	3	C12H9NO2S+
249.0461	4	C8H14N2O3PS+
305.1084	97	C12H22N2O3PS+
