Mass spectrum: Pendimethalin; LC-ESI-ITFT; MS2; CE: 35; R=15000; [M+H]+
Name: Pendimethalin
Name: 3,4-Dimethyl-2,6-dinitro-N-pentan-3-ylaniline
Formula: C13H19N3O4
Exact mass: 281.1376
SMILES: CCC(CC)NC1=C(C=C(C)C(C)=C1[N+]([O-])=O)[N+]([O-])=O
InChI: InChI=1S/C13H19N3O4/c1-5-10(6-2)14-12-11(15(17)18)7-8(3)9(4)13(12)16(19)20/h7,10,14H,5-6H2,1-4H3
Instrument: LTQ Orbitrap XL Thermo Scientific
Instrument type: LC-ESI-ITFT
Ms type: MS2
Ion mode: POSITIVE
Ionization: ESI
Fragmentation mode: CID
Collision energy: 35 (nominal)
Resolution: 15000
Column name: Kinetex Core-Shell C18 2.6 um, 3.0 x 100 mm, Phenomenex
Retention time: 27.954 min
Base peak: 282.1445
Precursor m/z: 282.1448
Precursor type: [M+H]+
m/z	relative intensity	assigned
188.1076	1	C12H14NO+
194.056	3	C8H8N3O3+
212.0665	999	C8H10N3O4+
266.02	2	C13H4N3O4+
