Mass spectrum: Bupirimate; LC-ESI-ITFT; MS2; CE: 30%; R=15000; [M+H]+
Name: Bupirimate
Name: [5-butyl-2-(ethylamino)-6-methylpyrimidin-4-yl] N,N-dimethylsulfamate
Formula: C13H24N4O3S
Exact mass: 316.156911628
SMILES: CCCCC1=C(C)N=C(NCC)N=C1OS(=O)(=O)N(C)C
InChI: InChI=1S/C13H24N4O3S/c1-6-8-9-11-10(3)15-13(14-7-2)16-12(11)20-21(18,19)17(4)5/h6-9H2,1-5H3,(H,14,15,16)
Instrument: LTQ Orbitrap XL Thermo Scientific
Instrument type: LC-ESI-ITFT
Ms type: MS2
Ion mode: POSITIVE
Ionization: ESI
Fragmentation mode: HCD
Collision energy: 30 % (nominal)
Resolution: 15000
Column name: Kinetex Evo C18 2.6 um 50 x 2.1 mm
Retention time: 10.821 min
Base peak: 317.1648
Precursor m/z: 317.1642
Precursor type: [M+H]+
Precursor intensity: 68308424
m/z	relative intensity	assigned
150.1024	43	C8H12N3+
151.1231	4	C9H15N2+
166.0974	118	C8H12N3O+
167.105	11	C8H13N3O+
180.1491	6	C10H18N3+
192.1494	20	C11H18N3+
193.1332	7	C3H21N4O3S+
194.1283	7	C10H16N3O+
208.1443	44	C11H18N3O+
209.1522	54	C11H19N3O+
210.1599	89	C11H20N3O+
237.2071	100	C13H25N4+
253.2024	3	C13H25N4O+
272.106	104	C11H18N3O3S+
317.1638	999	C13H25N4O3S+
