Mass spectrum: Benzothiazole; LC-ESI-ITFT; MS2; CE: 50%; R=15000; [M+H]+
Name: Benzothiazole
Name: 1,3-benzothiazole
Formula: C7H5NS
Exact mass: 135.01427016
SMILES: S1C=NC2=CC=CC=C12
InChI: InChI=1S/C7H5NS/c1-2-4-7-6(3-1)8-5-9-7/h1-5H
Instrument: LTQ Orbitrap XL Thermo Scientific
Instrument type: LC-ESI-ITFT
Ms type: MS2
Ion mode: POSITIVE
Ionization: ESI
Fragmentation mode: HCD
Collision energy: 50 % (nominal)
Resolution: 15000
Column name: Kinetex Evo C18 2.6 um 50 x 2.1 mm
Retention time: 7.759 min
Base peak: 136.0219
Precursor m/z: 136.0215
Precursor type: [M+H]+
Precursor intensity: 13103831
m/z	relative intensity	assigned
109.0107	1	C6H5S+
136.0216	999	C7H6NS+
