Mass spectrum: 2-(2-(Chlorophenyl)amino)benzaldehyde; LC-ESI-ITFT; MS2; CE: 80; R=15000; [M+H]+
Name: 2-(2-(Chlorophenyl)amino)benzaldehyde
Name: 2-(2-Chloroanilino)benzaldehyde
Formula: C13H10ClNO
Exact mass: 231.0451
SMILES: ClC1=CC=CC=C1NC1=CC=CC=C1C=O
InChI: InChI=1S/C13H10ClNO/c14-11-6-2-4-8-13(11)15-12-7-3-1-5-10(12)9-16/h1-9,15H
Instrument: LTQ Orbitrap XL Thermo Scientific
Instrument type: LC-ESI-ITFT
Ms type: MS2
Ion mode: POSITIVE
Ionization: ESI
Fragmentation mode: HCD
Collision energy: 80 (nominal)
Resolution: 15000
Column name: Kinetex Core-Shell C18 2.6 um, 3.0 x 100 mm, Phenomenex
Retention time: 26.608 min
Base peak: 163.1329
Precursor m/z: 232.0524
Precursor type: [M+H]+
m/z	relative intensity	assigned
168.0811	27	C12H10N+
178.0653	278	C13H8N+
179.0731	193	C13H9N+
180.0809	204	C13H10N+
196.076	44	C13H10NO+
214.0419	999	C13H9ClN+
