Mass spectrum: Thiabendazole; LC-ESI-ITFT; MS2; CE: 80; R=15000; [M+H]+
Name: Thiabendazole
Name: 4-(1H-Benzimidazol-2-yl)-1,3-thiazole
Formula: C10H7N3S
Exact mass: 201.0361
SMILES: N1C2=CC=CC=C2N=C1C1=CSC=N1
InChI: InChI=1S/C10H7N3S/c1-2-4-8-7(3-1)12-10(13-8)9-5-14-6-11-9/h1-6H,(H,12,13)
Instrument: LTQ Orbitrap XL Thermo Scientific
Instrument type: LC-ESI-ITFT
Ms type: MS2
Ion mode: POSITIVE
Ionization: ESI
Fragmentation mode: HCD
Collision energy: 80 (nominal)
Resolution: 15000
Column name: Kinetex Core-Shell C18 2.6 um, 3.0 x 100 mm, Phenomenex
Retention time: 15.483 min
Base peak: 163.1325
Precursor m/z: 202.0433
Precursor type: [M+H]+
m/z	relative intensity	assigned
92.0494	73	C6H6N+
131.0603	241	C8H7N2+
143.0604	36	C9H7N2+
158.0713	39	C9H8N3+
170.0714	15	C10H8N3+
175.0324	999	C9H7N2S+
202.0433	681	C10H8N3S+
