Mass spectrum: Ethyl 4-(dimethylamino)benzoate; LC-ESI-ITFT; MS2; CE: 50%; R=15000; [M+H]+
Name: Ethyl 4-(dimethylamino)benzoate
Name: Ethyl 4-dimethylaminobenzoate
Formula: C11H15NO2
Exact mass: 193.11027872
SMILES: CCOC(=O)C1=CC=C(C=C1)N(C)C
InChI: InChI=1S/C11H15NO2/c1-4-14-11(13)9-5-7-10(8-6-9)12(2)3/h5-8H,4H2,1-3H3
Instrument: LTQ Orbitrap XL Thermo Scientific
Instrument type: LC-ESI-ITFT
Ms type: MS2
Ion mode: POSITIVE
Ionization: ESI
Fragmentation mode: HCD
Collision energy: 50 % (nominal)
Resolution: 15000
Column name: Kinetex Evo C18 2.6 um 50 x 2.1 mm
Retention time: 11.173 min
Base peak: 194.1182
Precursor m/z: 194.1176
Precursor type: [M+H]+
Precursor intensity: 26913130
m/z	relative intensity	assigned
107.073	20	C7H9N+
121.0887	24	C8H11N+
122.0965	17	C8H12N+
134.0601	91	C8H8NO+
134.0968	5	C9H12N+
135.0678	8	C8H9NO+
148.0757	4	C9H10NO+
150.055	4	C8H8NO2+
151.0629	411	C8H9NO2+
164.071	11	C9H10NO2+
166.0864	999	C9H12NO2+
178.0866	8	C10H12NO2+
179.0942	859	C10H13NO2+
194.1174	852	C11H16NO2+
