Mass spectrum: Finasteride; LC-ESI-ITFT; MS2; CE: 60%; R=15000; [M+H]+
Name: Finasteride
Name: (1S,3aS,3bS,5aR,9aR,9bS,11aS)-N-tert-butyl-9a,11a-dimethyl-7-oxo-1,2,3,3a,3b,4,5,5a,6,9b,10,11-dodecahydroindeno[5,4-f]quinoline-1-carboxamide
Formula: C23H36N2O2
Exact mass: 372.277678392
SMILES: CC(C)(C)NC(=O)[C@H]1CC[C@H]2[C@@H]3CC[C@H]4NC(=O)C=C[C@]4(C)[C@H]3CC[C@]12C
InChI: InChI=1S/C23H36N2O2/c1-21(2,3)25-20(27)17-8-7-15-14-6-9-18-23(5,13-11-19(26)24-18)16(14)10-12-22(15,17)4/h11,13-18H,6-10,12H2,1-5H3,(H,24,26)(H,25,27)/t14-,15-,16-,17+,18+,22-,23+/m0/s1
Instrument: LTQ Orbitrap XL Thermo Scientific
Instrument type: LC-ESI-ITFT
Ms type: MS2
Ion mode: POSITIVE
Ionization: ESI
Fragmentation mode: HCD
Collision energy: 60 % (nominal)
Resolution: 15000
Column name: Kinetex Evo C18 2.6 um 50 x 2.1 mm
Retention time: 11.885 min
Base peak: 373.2859
Precursor m/z: 373.285
Precursor type: [M+H]+
Precursor intensity: 6633156
m/z	relative intensity	assigned
57.0698	355	C4H9+
67.0542	8	C5H7+
69.0335	267	C4H5O+
72.0445	45	C3H6NO+
72.0808	93	C4H10N+
81.07	80	C6H9+
86.0603	20	C4H8NO+
93.0702	68	C7H9+
95.0858	221	C7H11+
96.0446	29	C5H6NO+
98.0603	62	C5H8NO+
105.0702	33	C8H9+
107.0858	69	C8H11+
109.1014	36	C8H13+
110.0602	19	C6H8NO+
119.086	41	C9H11+
121.1014	72	C9H13+
124.076	25	C7H10NO+
126.0918	18	C7H12NO+
131.0859	22	C10H11+
133.1015	80	C10H13+
135.1171	46	C10H15+
138.0913	18	C8H12NO+
143.0862	16	C11H11+
145.1015	47	C11H13+
147.0806	8	C10H11O+
147.117	75	C11H15+
149.096	10	C10H13O+
149.133	21	C11H17+
157.1016	7	C12H13+
159.1171	27	C12H15+
161.0966	20	C11H13O+
161.1329	31	C12H17+
171.1172	13	C13H15+
173.1329	55	C13H17+
175.1124	13	C12H15O+
175.1485	160	C13H19+
176.107	7	C11H14NO+
177.1638	16	C13H21+
178.1234	11	C11H16NO+
185.133	48	C14H17+
187.1485	80	C14H19+
189.1642	101	C14H21+
197.1329	14	C15H17+
199.1485	16	C15H19+
201.1273	15	C14H17O+
203.1435	11	C14H19O+
211.1489	8	C16H19+
213.1642	23	C16H21+
215.1436	33	C15H19O+
215.1791	22	C16H23+
220.1701	53	C14H22NO+
227.18	25	C17H23+
232.1703	30	C15H22NO+
237.1642	28	C18H21+
239.1789	8	C18H23+
241.1575	7	C17H21O+
249.1964	39	C15H25N2O+
254.1913	15	C18H24N+
255.1749	48	C18H23O+
256.205	8	C18H26N+
272.2015	21	C18H26NO+
274.217	20	C18H28NO+
305.2592	999	C19H33N2O+
317.2225	27	C19H29N2O2+
355.275	31	C23H35N2O+
373.2851	571	C23H37N2O2+
