Mass spectrum: Denatonium; LC-ESI-ITFT; MS2; CE: 30%; R=15000; [M]+
Name: Denatonium
Name: benzyl-[2-(2,6-dimethylanilino)-2-oxoethyl]-diethylazanium
Formula: C21H29N2O
Exact mass: 325.227439968091
SMILES: CC[N+](CC)(CC(=O)NC1=C(C)C=CC=C1C)CC1=CC=CC=C1
InChI: InChI=1S/C21H28N2O/c1-5-23(6-2,15-19-13-8-7-9-14-19)16-20(24)22-21-17(3)11-10-12-18(21)4/h7-14H,5-6,15-16H2,1-4H3/p+1
Instrument: LTQ Orbitrap XL Thermo Scientific
Instrument type: LC-ESI-ITFT
Ms type: MS2
Ion mode: POSITIVE
Ionization: ESI
Fragmentation mode: HCD
Collision energy: 30 % (nominal)
Resolution: 15000
Column name: Kinetex Evo C18 2.6 um 50 x 2.1 mm
Retention time: 7.633 min
Base peak: 325.2286
Precursor m/z: 325.2274
Precursor type: [M]+
Precursor intensity: 33177502
m/z	relative intensity	assigned
86.0965	999	C5H12N+
91.0543	397	C7H7+
233.1647	612	C14H21N2O+
325.2277	447	C21H29N2O+
