Mass spectrum: Terbutryn; LC-ESI-ITFT; MS2; CE: 60%; R=15000; [M+H]+
Name: Terbutryn
Name: 2-N-tert-butyl-4-N-ethyl-6-methylsulfanyl-1,3,5-triazine-2,4-diamine
Formula: C10H19N5S
Exact mass: 241.136116608
SMILES: CCNC1=NC(NC(C)(C)C)=NC(SC)=N1
InChI: InChI=1S/C10H19N5S/c1-6-11-7-12-8(15-10(2,3)4)14-9(13-7)16-5/h6H2,1-5H3,(H2,11,12,13,14,15)
Instrument: LTQ Orbitrap XL Thermo Scientific
Instrument type: LC-ESI-ITFT
Ms type: MS2
Ion mode: POSITIVE
Ionization: ESI
Fragmentation mode: HCD
Collision energy: 60 % (nominal)
Resolution: 15000
Column name: Kinetex Evo C18 2.6 um 50 x 2.1 mm
Retention time: 9.784 min
Base peak: 242.1441
Precursor m/z: 242.1434
Precursor type: [M+H]+
Precursor intensity: 92223448
m/z	relative intensity	assigned
57.0696	10	C4H9+
68.0242	16	C2H2N3+
71.0603	63	C3H7N2+
74.0058	5	C2H4NS+
85.0509	9	C2H5N4+
91.0324	143	C2H7N2S+
96.0556	74	C4H6N3+
102.0372	7	C4H8NS+
113.0821	22	C4H9N4+
116.0277	32	C3H6N3S+
138.0774	74	C5H8N5+
144.059	55	C5H10N3S+
158.0495	64	C4H8N5S+
171.0572	2	C5H9N5S+
186.0808	999	C6H12N5S+
242.1434	12	C10H20N5S+
