Mass spectrum: Velvione; LC-ESI-ITFT; MS2; CE: 40%; R=15000; [M+H]+
Name: Velvione
Name: cyclohexadec-5-en-1-one
Formula: C16H28O
Exact mass: 236.214015516
SMILES: O=C1CCCCCCCCCCC=CCCC1
InChI: InChI=1S/C16H28O/c17-16-14-12-10-8-6-4-2-1-3-5-7-9-11-13-15-16/h6,8H,1-5,7,9-15H2
Instrument: LTQ Orbitrap XL Thermo Scientific
Instrument type: LC-ESI-ITFT
Ms type: MS2
Ion mode: POSITIVE
Ionization: ESI
Fragmentation mode: HCD
Collision energy: 40 % (nominal)
Resolution: 15000
Column name: Kinetex Evo C18 2.6 um 50 x 2.1 mm
Retention time: 14.344 min
Base peak: 116.9859
Precursor m/z: 237.2213
Precursor type: [M+H]+
Precursor intensity: 665764.06
m/z	relative intensity	assigned
55.0541	202	C4H7+
57.0698	52	C4H9+
67.0542	318	C5H7+
69.0699	208	C5H9+
79.0543	45	C6H7+
81.07	877	C6H9+
83.0493	52	C5H7O+
83.0857	361	C6H11+
93.0699	46	C7H9+
95.0857	611	C7H11+
97.1014	212	C7H13+
107.0859	72	C8H11+
109.1014	364	C8H13+
111.117	37	C8H15+
121.1014	162	C9H13+
123.1171	336	C9H15+
135.1171	150	C10H15+
137.1328	161	C10H17+
149.1326	98	C11H17+
163.1483	63	C12H19+
169.0078	22	C14H+
195.1171	80	C15H15+
208.1247	32	C16H16+
219.211	187	C16H27+
237.2217	999	C16H29O+
