Mass spectrum: Fenpropimorph; LC-ESI-ITFT; MS2; CE: 35; R=15000; [M+H]+
Name: Fenpropimorph
Name: 4-[3-(4-Tert-butylphenyl)-2-methylpropyl]-2,6-dimethylmorpholine
Formula: C20H33NO
Exact mass: 303.2562
SMILES: CC(CN1CC(C)OC(C)C1)CC1=CC=C(C=C1)C(C)(C)C
InChI: InChI=1S/C20H33NO/c1-15(12-21-13-16(2)22-17(3)14-21)11-18-7-9-19(10-8-18)20(4,5)6/h7-10,15-17H,11-14H2,1-6H3
Instrument: LTQ Orbitrap XL Thermo Scientific
Instrument type: LC-ESI-ITFT
Ms type: MS2
Ion mode: POSITIVE
Ionization: ESI
Fragmentation mode: CID
Collision energy: 35 (nominal)
Resolution: 15000
Column name: Kinetex Core-Shell C18 2.6 um, 3.0 x 100 mm, Phenomenex
Retention time: 22.432 min
Base peak: 163.1327
Precursor m/z: 304.2635
Precursor type: [M+H]+
m/z	relative intensity	assigned
91.0542	4	C7H7+
98.0964	51	C6H12N+
100.1121	2	C6H14N+
102.0913	14	C5H12NO+
105.0698	12	C8H9+
107.0858	1	C8H11+
112.112	3	C7H14N+
116.107	57	C6H14NO+
117.0699	2	C9H9+
119.0855	17	C9H11+
128.1072	1	C7H14NO+
130.1226	239	C7H16NO+
131.0856	3	C10H11+
132.0934	8	C10H12+
133.1011	3	C10H13+
145.1007	1	C11H13+
147.1168	238	C11H15+
161.1326	10	C12H17+
187.1486	1	C14H19+
189.1639	34	C14H21+
246.2218	1	C17H28N+
248.2012	51	C16H26NO+
262.2167	9	C17H28NO+
286.2532	8	C20H32N+
304.2637	999	C20H34NO+
