Mass spectrum: Phenazone; LC-ESI-ITFT; MS2; CE: 90%; R=15000; [M+H]+
Name: Phenazone
Name: Antipyrine
Name: 1,5-dimethyl-2-phenylpyrazol-3-one
Formula: C11H12N2O
Exact mass: 188.094963004
SMILES: CN1N(C(=O)C=C1C)C1=CC=CC=C1
InChI: InChI=1S/C11H12N2O/c1-9-8-11(14)13(12(9)2)10-6-4-3-5-7-10/h3-8H,1-2H3
Instrument: LTQ Orbitrap XL Thermo Scientific
Instrument type: LC-ESI-ITFT
Ms type: MS2
Ion mode: POSITIVE
Ionization: ESI
Fragmentation mode: HCD
Collision energy: 90 % (nominal)
Resolution: 15000
Column name: Kinetex Evo C18 2.6 um 50 x 2.1 mm
Retention time: 5.809 min
Base peak: 189.1031
Precursor m/z: 189.1022
Precursor type: [M+H]+
Precursor intensity: 20516604
m/z	relative intensity	assigned
55.0177	26	C3H3O+
55.0415	7	C3H5N+
55.0541	5	C4H7+
56.0493	999	C3H6N+
58.065	570	C3H8N+
65.0385	184	C5H5+
68.0494	28	C4H6N+
69.0573	37	C4H7N+
70.0651	16	C4H8N+
77.0386	407	C6H5+
79.0543	69	C6H7+
81.0448	88	C4H5N2+
83.0604	6	C4H7N2+
86.0603	9	C4H8NO+
91.0544	189	C7H7+
92.0496	68	C6H6N+
93.0336	28	C6H5O+
93.0574	26	C6H7N+
93.07	9	C7H9+
94.0653	48	C6H8N+
95.0493	85	C6H7O+
95.0605	110	C5H7N2+
96.0445	23	C5H6NO+
96.0683	235	C5H8N2+
98.0602	202	C5H8NO+
103.0544	131	C8H7+
104.0496	816	C7H6N+
105.0337	37	C7H5O+
105.0449	198	C6H5N2+
105.0574	57	C7H7N+
105.07	43	C8H9+
106.0652	821	C7H8N+
107.0605	10	C6H7N2+
111.0555	8	C5H7N2O+
115.0543	108	C9H7+
117.0574	132	C8H7N+
117.07	283	C9H9+
118.0652	295	C8H8N+
119.0604	7	C7H7N2+
119.0731	14	C8H9N+
120.0809	207	C8H10N+
121.0763	10	C7H9N2+
128.0497	17	C9H6N+
129.0575	80	C9H7N+
130.0653	381	C9H8N+
131.0605	139	C8H7N2+
131.0731	282	C9H9N+
132.0446	12	C8H6NO+
132.0683	109	C8H8N2+
132.0809	116	C9H10N+
133.0524	67	C8H7NO+
133.0761	33	C8H9N2+
134.0476	15	C7H6N2O+
134.0965	41	C9H12N+
135.0557	5	C7H7N2O+
143.0731	32	C10H9N+
144.081	215	C10H10N+
145.065	65	C10H9O+
145.0762	161	C9H9N2+
146.084	212	C9H10N2+
146.0966	30	C10H12N+
147.0918	430	C9H11N2+
148.0753	9	C9H10NO+
149.0712	34	C8H9N2O+
155.0604	14	C10H7N2+
157.0524	44	C10H7NO+
158.0602	9	C10H8NO+
159.0555	33	C9H7N2O+
159.092	12	C10H11N2+
160.1001	11	C10H12N2+
161.1076	69	C10H13N2+
172.0757	27	C11H10NO+
173.0711	40	C10H9N2O+
174.079	148	C10H10N2O+
189.1025	290	C11H13N2O+
