Mass spectrum: Methiocarb; LC-ESI-ITFT; MS2; CE: 60%; R=15000; [M+H]+
Name: Methiocarb
Name: (3,5-dimethyl-4-methylsulfanylphenyl) N-methylcarbamate
Formula: C11H15NO2S
Exact mass: 225.08234972
SMILES: CNC(=O)OC1=CC(C)=C(SC)C(C)=C1
InChI: InChI=1S/C11H15NO2S/c1-7-5-9(14-11(13)12-3)6-8(2)10(7)15-4/h5-6H,1-4H3,(H,12,13)
Instrument: LTQ Orbitrap XL Thermo Scientific
Instrument type: LC-ESI-ITFT
Ms type: MS2
Ion mode: POSITIVE
Ionization: ESI
Fragmentation mode: HCD
Collision energy: 60 % (nominal)
Resolution: 15000
Column name: Kinetex Evo C18 2.6 um 50 x 2.1 mm
Retention time: 10.950 min
Base peak: 226.0903
Precursor m/z: 226.0896
Precursor type: [M+H]+
Precursor intensity: 18729534
m/z	relative intensity	assigned
77.0387	32	C6H5+
79.0542	4	C6H7+
80.0498	4	C5H6N+
82.0652	5	C5H8N+
91.0544	78	C7H7+
92.0497	14	C6H6N+
93.0575	39	C6H7N+
93.0701	156	C7H9+
106.0654	34	C7H8N+
107.0493	18	C7H7O+
108.081	130	C7H10N+
116.0497	7	C8H6N+
117.0574	4	C8H7N+
118.0653	14	C8H8N+
121.065	999	C8H9O+
122.0728	402	C8H10O+
123.0806	8	C8H11O+
144.081	45	C10H10N+
153.0372	11	C8H9OS+
154.0449	21	C8H10OS+
169.0685	55	C9H13OS+
