Mass spectrum: Ondansetron; LC-ESI-ITFT; MS2; CE: 40%; R=15000; [M+H]+
Name: Ondansetron
Name: 9-methyl-3-[(2-methylimidazol-1-yl)methyl]-2,3-dihydro-1H-carbazol-4-one
Formula: C18H19N3O
Exact mass: 293.152812228
SMILES: CN1C2=C(C3=CC=CC=C13)C(=O)C(CN1C=CN=C1C)CC2
InChI: InChI=1S/C18H19N3O/c1-12-19-9-10-21(12)11-13-7-8-16-17(18(13)22)14-5-3-4-6-15(14)20(16)2/h3-6,9-10,13H,7-8,11H2,1-2H3
Instrument: LTQ Orbitrap XL Thermo Scientific
Instrument type: LC-ESI-ITFT
Ms type: MS2
Ion mode: POSITIVE
Ionization: ESI
Fragmentation mode: HCD
Collision energy: 40 % (nominal)
Resolution: 15000
Column name: Kinetex Evo C18 2.6 um 50 x 2.1 mm
Retention time: 6.084 min
Base peak: 294.1612
Precursor m/z: 294.1601
Precursor type: [M+H]+
Precursor intensity: 34222276
m/z	relative intensity	assigned
83.0603	12	C4H7N2+
170.0965	947	C12H12N+
182.0965	4	C13H12N+
184.1122	609	C13H14N+
212.1071	602	C14H14NO+
294.1602	999	C18H20N3O+
