Mass spectrum: Torasemide; LC-ESI-ITFT; MS2; CE: 50%; R=15000; [M+H]+
Name: Torasemide
Name: Torsemide
Name: 1-[4-(3-methylanilino)pyridin-3-yl]sulfonyl-3-propan-2-ylurea
Formula: C16H20N4O3S
Exact mass: 348.1256115
SMILES: CC(C)NC(=O)NS(=O)(=O)C1=CN=CC=C1NC1=CC=CC(C)=C1
InChI: InChI=1S/C16H20N4O3S/c1-11(2)18-16(21)20-24(22,23)15-10-17-8-7-14(15)19-13-6-4-5-12(3)9-13/h4-11H,1-3H3,(H,17,19)(H2,18,20,21)
Instrument: LTQ Orbitrap XL Thermo Scientific
Instrument type: LC-ESI-ITFT
Ms type: MS2
Ion mode: POSITIVE
Ionization: ESI
Fragmentation mode: HCD
Collision energy: 50 % (nominal)
Resolution: 15000
Column name: Kinetex Evo C18 2.6 um 50 x 2.1 mm
Retention time: 8.465 min
Base peak: 245.1183
Precursor m/z: 349.1329
Precursor type: [M+H]+
Precursor intensity: 41515252
m/z	relative intensity	assigned
122.0601	20	C7H8NO+
125.0168	90	C5H5N2S+
126.0006	5	C5H4NOS+
128.0164	3	C5H6NOS+
137.0168	7	C6H5N2S+
153.0117	5	C6H5N2OS+
168.0682	30	C11H8N2+
182.0839	11	C12H10N2+
183.0917	363	C12H11N2+
184.0949	12	C7H12N4O2+
185.0711	5	C11H9N2O+
191.0638	16	C10H11N2S+
198.0788	40	C12H10N2O+
199.0867	36	C12H11N2O+
201.0483	30	C11H9N2S+
214.0737	5	C12H10N2O2+
219.0587	95	C11H11N2OS+
229.0429	11	C12H9N2OS+
230.0509	53	C12H10N2OS+
247.0536	85	C12H11N2O2S+
264.0801	999	C12H14N3O2S+
265.0839	38	C15H11N3O2+
290.0594	128	C13H12N3O3S+
291.0626	4	C16H9N3O3+
