Mass spectrum: Dydrogesterone; LC-ESI-ITFT; MS2; CE: 30%; R=15000; [M+H]+
Name: Dydrogesterone
Name: (8S,9R,10S,13S,14S,17S)-17-acetyl-10,13-dimethyl-1,2,8,9,11,12,14,15,16,17-decahydrocyclopenta[a]phenanthren-3-one
Formula: C21H28O2
Exact mass: 312.208930136
SMILES: [H][C@@]12CC[C@H](C(C)=O)[C@@]1(C)CC[C@]1([H])[C@@]2([H])C=CC2=CC(=O)CC[C@@]12C
InChI: InChI=1S/C21H28O2/c1-13(22)17-6-7-18-16-5-4-14-12-15(23)8-10-20(14,2)19(16)9-11-21(17,18)3/h4-5,12,16-19H,6-11H2,1-3H3/t16-,17+,18-,19+,20+,21+/m0/s1
Instrument: LTQ Orbitrap XL Thermo Scientific
Instrument type: LC-ESI-ITFT
Ms type: MS2
Ion mode: POSITIVE
Ionization: ESI
Fragmentation mode: HCD
Collision energy: 30 % (nominal)
Resolution: 15000
Column name: Kinetex Evo C18 2.6 um 50 x 2.1 mm
Retention time: 12.022 min
Base peak: 313.2162
Precursor m/z: 313.2162
Precursor type: [M+H]+
Precursor intensity: 14193134
m/z	relative intensity	assigned
85.0649	55	C5H9O+
95.0857	19	C7H11+
97.0649	31	C6H9O+
105.07	5	C8H9+
107.0856	8	C8H11+
109.1013	13	C8H13+
119.0854	7	C9H11+
121.0651	13	C8H9O+
121.1013	14	C9H13+
127.0757	8	C7H11O2+
131.0856	11	C10H11+
133.1015	16	C10H13+
135.1171	11	C10H15+
137.0966	11	C9H13O+
143.0859	10	C11H11+
145.1014	13	C11H13+
147.0807	11	C10H11O+
147.117	14	C11H15+
149.0962	14	C10H13O+
155.0855	9	C12H11+
157.1014	20	C12H13+
159.1171	47	C12H15+
161.0962	23	C11H13O+
163.1122	17	C11H15O+
169.102	5	C13H13+
171.0807	26	C12H11O+
171.1171	32	C13H15+
173.0964	48	C12H13O+
173.1328	12	C13H17+
175.1122	25	C12H15O+
177.1276	28	C12H17O+
183.117	13	C14H15+
185.0965	8	C13H13O+
185.1326	15	C14H17+
187.112	13	C13H15O+
187.1484	16	C14H19+
189.1276	17	C13H17O+
191.1435	7	C13H19O+
195.1176	8	C15H15+
197.133	21	C15H17+
199.112	50	C14H15O+
199.1479	12	C15H19+
201.1277	16	C14H17O+
203.1439	10	C14H19O+
207.1173	5	C16H15+
209.1326	9	C16H17+
211.1122	6	C15H15O+
211.1485	38	C16H19+
213.1276	16	C15H17O+
213.1646	12	C16H21+
215.1424	7	C15H19O+
215.1798	7	C16H23+
217.159	16	C15H21O+
221.133	18	C17H17+
225.1274	23	C16H17O+
225.1637	18	C17H21+
227.1432	8	C16H19O+
229.1589	59	C16H21O+
231.1745	11	C16H23O+
235.1491	12	C18H19+
237.1641	44	C18H21+
239.1431	42	C17H19O+
243.1742	13	C17H23O+
245.1908	20	C17H25O+
251.1795	20	C19H23+
253.1595	9	C18H21O+
253.1953	88	C19H25+
255.1747	65	C18H23O+
267.1742	15	C19H23O+
267.2107	16	C20H27+
269.1903	65	C19H25O+
271.2057	62	C19H27O+
277.1953	59	C21H25+
295.2059	402	C21H27O+
313.2163	999	C21H29O2+
