Mass spectrum: Irgarol; LC-ESI-ITFT; MS2; CE: 60%; R=15000; [M+H]+
Name: Irgarol
Name: Cybutryne
Name: 2-N-tert-butyl-4-N-cyclopropyl-6-methylsulfanyl-1,3,5-triazine-2,4-diamine
Formula: C11H19N5S
Exact mass: 253.136116608
SMILES: CSC1=NC(NC2CC2)=NC(NC(C)(C)C)=N1
InChI: InChI=1S/C11H19N5S/c1-11(2,3)16-9-13-8(12-7-5-6-7)14-10(15-9)17-4/h7H,5-6H2,1-4H3,(H2,12,13,14,15,16)
Instrument: LTQ Orbitrap XL Thermo Scientific
Instrument type: LC-ESI-ITFT
Ms type: MS2
Ion mode: POSITIVE
Ionization: ESI
Fragmentation mode: HCD
Collision energy: 60 % (nominal)
Resolution: 15000
Column name: Kinetex Evo C18 2.6 um 50 x 2.1 mm
Retention time: 10.360 min
Base peak: 254.1441
Precursor m/z: 254.1434
Precursor type: [M+H]+
Precursor intensity: 30237826
m/z	relative intensity	assigned
56.0492	44	C3H6N+
57.0696	11	C4H9+
58.0649	11	C3H8N+
68.0241	8	C2H2N3+
74.0058	14	C2H4NS+
81.0447	7	C4H5N2+
83.0603	134	C4H7N2+
87.0263	9	C4H7S+
91.0324	204	C2H7N2S+
108.0556	113	C5H6N3+
114.0372	20	C5H8NS+
116.0276	52	C3H6N3S+
125.0821	77	C5H9N4+
150.0774	50	C6H8N5+
152.0929	4	C6H10N5+
156.0338	17	C4H6N5S+
156.0589	80	C6H10N3S+
158.0494	4	C4H8N5S+
170.0495	18	C5H8N5S+
171.0699	11	C6H11N4S+
183.0569	1	C6H9N5S+
198.0808	999	C7H12N5S+
254.143	9	C11H20N5S+
