Mass spectrum: Ethofumesate; LC-ESI-ITFT; MS2; CE: 55; R=15000; [M+H]+
Name: Ethofumesate
Name: (2-Ethoxy-3,3-dimethyl-2H-1-benzofuran-5-yl) methanesulfonate
Formula: C13H18O5S
Exact mass: 286.0875
SMILES: CCOC1OC2=CC=C(OS(C)(=O)=O)C=C2C1(C)C
InChI: InChI=1S/C13H18O5S/c1-5-16-12-13(2,3)10-8-9(18-19(4,14)15)6-7-11(10)17-12/h6-8,12H,5H2,1-4H3
Instrument: LTQ Orbitrap XL Thermo Scientific
Instrument type: LC-ESI-ITFT
Ms type: MS2
Ion mode: POSITIVE
Ionization: ESI
Fragmentation mode: HCD
Collision energy: 55 (nominal)
Resolution: 15000
Column name: Kinetex Core-Shell C18 2.6 um, 3.0 x 100 mm, Phenomenex
Retention time: 24.205 min
Base peak: 404.1235
Precursor m/z: 287.0948
Precursor type: [M+H]+
m/z	relative intensity	assigned
91.0543	33	C7H7+
93.0699	44	C7H9+
103.0542	24	C8H7+
105.0698	108	C8H9+
107.0491	13	C7H7O+
109.0286	8	C6H5O2+
109.0647	29	C7H9O+
115.0541	35	C9H7+
117.0697	22	C9H9+
119.0494	9	C8H7O+
121.0647	999	C8H9O+
123.0443	9	C7H7O2+
133.0648	279	C9H9O+
134.0727	65	C9H10O+
135.0803	36	C9H11O+
137.0597	242	C8H9O2+
143.049	8	C10H7O+
145.0648	57	C10H9O+
147.0442	12	C9H7O2+
149.096	27	C10H13O+
161.0597	540	C10H9O2+
162.0675	212	C10H10O2+
163.0754	61	C10H11O2+
173.071	118	C10H9N2O+
