Mass spectrum: Ketoconazole; LC-ESI-ITFT; MS2; CE: 55; R=15000; [M+H]+
Name: Ketoconazole
Name: 1-[4-[4-[[(2R,4S)-2-(2,4-Dichlorophenyl)-2-(imidazol-1-ylmethyl)-1,3-dioxolan-4-yl]methoxy]phenyl]piperazin-1-yl]ethanone
Formula: C26H28Cl2N4O4
Exact mass: 530.1488
SMILES: CC(=O)N1CCN(CC1)C1=CC=C(OC[C@H]2CO[C@@](CN3C=CN=C3)(O2)C2=CC=C(Cl)C=C2Cl)C=C1
InChI: InChI=1S/C26H28Cl2N4O4/c1-19(33)31-10-12-32(13-11-31)21-3-5-22(6-4-21)34-15-23-16-35-26(36-23,17-30-9-8-29-18-30)24-7-2-20(27)14-25(24)28/h2-9,14,18,23H,10-13,15-17H2,1H3/t23-,26-/m0/s1
Instrument: LTQ Orbitrap XL Thermo Scientific
Instrument type: LC-ESI-ITFT
Ms type: MS2
Ion mode: POSITIVE
Ionization: ESI
Fragmentation mode: HCD
Collision energy: 55 (nominal)
Resolution: 15000
Column name: Kinetex Core-Shell C18 2.6 um, 3.0 x 100 mm, Phenomenex
Retention time: 21.827 min
Base peak: 531.1556
Precursor m/z: 531.156
Precursor type: [M+H]+
m/z	relative intensity	assigned
70.0651	30	C4H8N+
71.0604	60	C3H7N2+
81.0448	168	C4H5N2+
82.0526	999	C4H6N2+
83.0604	20	C4H7N2+
86.0601	66	C4H8NO+
109.0397	8	C5H5N2O+
112.0758	410	C6H10NO+
118.0648	18	C8H8N+
120.0445	41	C7H6NO+
120.081	24	C8H10N+
122.0602	93	C7H8NO+
130.0655	16	C9H8N+
132.0809	24	C9H10N+
134.0603	62	C8H8NO+
135.068	253	C8H9NO+
136.0758	129	C8H10NO+
144.0809	70	C10H10N+
146.0966	90	C10H12N+
148.0759	367	C9H10NO+
150.0236	12	C9H7Cl+
158.0966	47	C11H12N+
158.9765	161	C7H5Cl2+
160.0758	36	C10H10NO+
162.0915	31	C10H12NO+
163.0311	23	C10H8Cl+
167.0262	52	C6H11Cl2N+
167.0818	286	C5H14ClN3O+
169.9687	105	C8H4Cl2+
170.9762	11	C8H5Cl2+
172.0759	44	C11H10NO+
172.9558	132	C7H3Cl2O+
174.0916	285	C11H12NO+
177.1025	535	C10H13N2O+
184.9921	109	C9H7Cl2+
185.9636	234	C8H4Cl2O+
186.9715	15	C8H5Cl2O+
192.1025	52	C8H17ClN2O+
200.1074	32	C10H17ClN2+
203.0373	73	C11H8ClN2+
216.1255	9	C10H19ClN3+
217.1339	136	C10H20ClN3+
220.1209	74	C9H19ClN3O+
234.1128	18	C10H19ClN2O2+
235.1446	41	C10H22ClN3O+
238.0061	99	C11H8Cl2N2+
244.0057	167	C18N2+
247.0638	43	C10H15Cl2N3+
255.0091	374	C11H9Cl2N2O+
267.0089	176	C12H9Cl2N2O+
281.0247	31	C22H3N+
378.0668	59	C23H11ClN4+
420.0753	10	C21H20Cl2NO4+
489.1452	27	C24H27Cl2N4O3+
531.1563	10	C26H29Cl2N4O4+
