Mass spectrum: Methocarbamol; LC-ESI-ITFT; MS2; CE: 120%; R=15000; [M+H]+
Name: Methocarbamol
Name: [2-hydroxy-3-(2-methoxyphenoxy)propyl] carbamate
Formula: C11H15NO5
Exact mass: 241.0950
SMILES: COC1=C(OCC(O)COC(N)=O)C=CC=C1
InChI: InChI=1S/C11H15NO5/c1-15-9-4-2-3-5-10(9)16-6-8(13)7-17-11(12)14/h2-5,8,13H,6-7H2,1H3,(H2,12,14)
Instrument: LTQ Orbitrap XL Thermo Scientific
Instrument type: LC-ESI-ITFT
Ms type: MS2
Ion mode: POSITIVE
Ionization: ESI
Fragmentation mode: HCD
Collision energy: 120 % (nominal)
Resolution: 15000
Column name: Kinetex Evo C18 2.6 um 50 x 2.1 mm
Retention time: 7.015 min
Base peak: 264.084
Precursor m/z: 242.1023
Precursor type: [M+H]+
m/z	relative intensity	assigned
62.0235	66	CH4NO2+
65.0385	242	C5H5+
77.0386	999	C6H5+
79.0543	219	C6H7+
81.0336	73	C5H5O+
91.0543	329	C7H7+
92.0257	153	C6H4O+
94.0414	25	C6H6O+
95.0492	227	C6H7O+
103.0542	265	C8H7+
105.0699	45	C8H9+
109.0285	50	C6H5O2+
110.0363	260	C6H6O2+
120.0567	32	C8H8O+
121.0284	687	C7H5O2+
122.0362	320	C7H6O2+
