Mass spectrum: Diethylstilbestrol; LC-ESI-ITFT; MS2; CE: 55; R=15000; [M+H]+
Name: Diethylstilbestrol
Name: 4-[(E)-4-(4-Hydroxyphenyl)hex-3-en-3-yl]phenol
Formula: C18H20O2
Exact mass: 268.1463
SMILES: CC\C(=C(\CC)C1=CC=C(O)C=C1)C1=CC=C(O)C=C1
InChI: InChI=1S/C18H20O2/c1-3-17(13-5-9-15(19)10-6-13)18(4-2)14-7-11-16(20)12-8-14/h5-12,19-20H,3-4H2,1-2H3/b18-17+
Instrument: LTQ Orbitrap XL Thermo Scientific
Instrument type: LC-ESI-ITFT
Ms type: MS2
Ion mode: POSITIVE
Ionization: ESI
Fragmentation mode: HCD
Collision energy: 55 (nominal)
Resolution: 15000
Column name: Kinetex Core-Shell C18 2.6 um, 3.0 x 100 mm, Phenomenex
Retention time: 24.897 min
Base peak: 341.2103
Precursor m/z: 269.1536
Precursor type: [M+H]+
m/z	relative intensity	assigned
79.0541	19	C6H7+
81.0696	22	C6H9+
91.054	18	C7H7+
93.0697	29	C7H9+
95.0853	11	C7H11+
105.0697	20	C8H9+
107.0489	999	C7H7O+
109.101	10	C8H13+
117.0698	10	C9H9+
119.0487	8	C8H7O+
119.0852	8	C9H11+
121.0645	239	C8H9O+
123.0438	61	C7H7O2+
129.0698	8	C10H9+
133.0645	67	C9H9O+
133.1007	9	C10H13+
135.0802	318	C9H11O+
137.0599	17	C8H9O2+
143.0852	12	C11H11+
145.0644	33	C10H9O+
147.1167	16	C11H15+
149.0595	26	C9H9O2+
153.0694	14	C12H9+
157.0646	18	C11H9O+
159.0802	29	C11H11O+
159.116	12	C12H15+
161.0594	26	C10H9O2+
165.0696	7	C13H9+
166.0772	7	C13H10+
167.0851	37	C13H11+
171.0803	30	C12H11O+
173.0594	118	C11H9O2+
175.0751	42	C11H11O2+
181.0644	41	C13H9O+
181.1006	17	C14H13+
183.0813	9	C13H11O+
185.0957	18	C13H13O+
194.0727	9	C14H10O+
195.0801	41	C14H11O+
195.1166	13	C15H15+
199.075	355	C13H11O2+
207.0802	18	C15H11O+
208.0886	15	C15H12O+
209.0959	17	C15H13O+
211.1118	10	C15H15O+
213.0906	64	C14H13O2+
213.1264	13	C15H17O+
214.0987	60	C14H14O2+
222.1036	47	C16H14O+
223.111	41	C16H15O+
223.1478	18	C17H19+
227.1064	45	C15H15O2+
241.1585	19	C17H21O+
251.1424	37	C18H19O+
