Mass spectrum: 7-(Ethylamino)-4-methylcoumarin; LC-ESI-ITFT; MS2; CE: 60%; R=15000; [M+H]+
Name: 7-(Ethylamino)-4-methylcoumarin
Name: 2H-1-Benzopyran-2-one, 7-(ethylamino)-4-methyl-
Name: 7-(ethylamino)-4-methylchromen-2-one
Formula: C12H13NO2
Exact mass: 203.094628656
SMILES: CCNC1=CC=C2C(C)=CC(=O)OC2=C1
InChI: InChI=1S/C12H13NO2/c1-3-13-9-4-5-10-8(2)6-12(14)15-11(10)7-9/h4-7,13H,3H2,1-2H3
Instrument: LTQ Orbitrap XL Thermo Scientific
Instrument type: LC-ESI-ITFT
Ms type: MS2
Ion mode: POSITIVE
Ionization: ESI
Fragmentation mode: HCD
Collision energy: 60 % (nominal)
Resolution: 15000
Column name: Kinetex Evo C18 2.6 um 50 x 2.1 mm
Retention time: 9.685 min
Base peak: 204.1027
Precursor m/z: 204.1019
Precursor type: [M+H]+
Precursor intensity: 33868312
m/z	relative intensity	assigned
68.013	8	C3H2NO+
91.0543	14	C7H7+
96.0445	5	C5H6NO+
103.0542	10	C8H7+
105.07	11	C8H9+
106.0652	8	C7H8N+
115.0544	7	C9H7+
117.0574	10	C8H7N+
117.0699	7	C9H9+
118.0652	20	C8H8N+
119.073	13	C8H9N+
120.0809	14	C8H10N+
128.0623	3	C10H8+
130.0652	59	C9H8N+
131.0493	4	C9H7O+
131.073	48	C9H9N+
132.0809	43	C9H10N+
133.0649	1	C9H9O+
134.0601	5	C8H8NO+
134.0965	8	C9H12N+
138.0916	2	C8H12NO+
143.0733	2	C10H9N+
143.0853	1	C11H11+
144.0809	37	C10H10N+
145.0887	23	C10H11N+
146.0602	14	C9H8NO+
147.068	27	C9H9NO+
148.1122	293	C10H14N+
158.0966	17	C11H12N+
159.1045	5	C11H13N+
160.1122	91	C11H14N+
161.0836	36	C10H11NO+
162.0914	8	C10H12NO+
164.0707	5	C9H10NO2+
174.0916	3	C11H12NO+
175.063	25	C10H9NO2+
176.0707	11	C10H10NO2+
176.1071	77	C11H14NO+
189.0787	16	C11H11NO2+
204.102	999	C12H14NO2+
