Mass spectrum: Triphenylphosphate; LC-ESI-ITFT; MS2; CE: 60%; R=15000; [M+H]+
Name: Triphenylphosphate
Name: triphenyl phosphate
Formula: C18H15O4P
Exact mass: 326.07079559
SMILES: O=P(OC1=CC=CC=C1)(OC1=CC=CC=C1)OC1=CC=CC=C1
InChI: InChI=1S/C18H15O4P/c19-23(20-16-10-4-1-5-11-16,21-17-12-6-2-7-13-17)22-18-14-8-3-9-15-18/h1-15H
Instrument: LTQ Orbitrap XL Thermo Scientific
Instrument type: LC-ESI-ITFT
Ms type: MS2
Ion mode: POSITIVE
Ionization: ESI
Fragmentation mode: HCD
Collision energy: 60 % (nominal)
Resolution: 15000
Column name: Kinetex Evo C18 2.6 um 50 x 2.1 mm
Retention time: 12.625 min
Base peak: 327.079
Precursor m/z: 327.0781
Precursor type: [M+H]+
Precursor intensity: 35925056
m/z	relative intensity	assigned
65.0384	14	C5H5+
77.0385	856	C6H5+
93.0336	28	C6H5O+
94.0413	19	C6H6O+
95.0492	246	C6H7O+
98.9842	4	H4O4P+
138.9943	21	C6H4O2P+
143.0856	8	C11H11+
151.0544	61	C12H7+
152.0621	999	C12H8+
153.0698	908	C12H9+
157.0049	18	C6H6O3P+
168.057	223	C12H8O+
169.0646	60	C12H9O+
170.0723	17	C12H10O+
171.0804	46	C12H11O+
175.0155	70	C6H8O4P+
187.0309	39	C11H8OP+
202.0778	25	C16H10+
203.0861	6	C16H11+
205.0416	6	C11H10O2P+
215.0257	470	C12H8O2P+
226.0776	8	C18H10+
227.0857	48	C18H11+
228.0935	236	C18H12+
233.0363	567	C12H10O3P+
247.0517	11	C13H12O3P+
251.0469	599	C12H12O4P+
291.0566	7	C18H12O2P+
309.0671	4	C18H14O3P+
327.0781	54	C18H16O4P+
