Mass spectrum: Flusilazole; LC-ESI-ITFT; MS2; CE: 30%; R=15000; [M+H]+
Name: Flusilazole
Name: bis(4-fluorophenyl)-methyl-(1,2,4-triazol-1-ylmethyl)silane
Formula: C16H15F2N3Si
Exact mass: 315.10033045
SMILES: C[Si](CN1C=NC=N1)(C1=CC=C(F)C=C1)C1=CC=C(F)C=C1
InChI: InChI=1S/C16H15F2N3Si/c1-22(12-21-11-19-10-20-21,15-6-2-13(17)3-7-15)16-8-4-14(18)5-9-16/h2-11H,12H2,1H3
Instrument: LTQ Orbitrap XL Thermo Scientific
Instrument type: LC-ESI-ITFT
Ms type: MS2
Ion mode: POSITIVE
Ionization: ESI
Fragmentation mode: HCD
Collision energy: 30 % (nominal)
Resolution: 15000
Column name: Kinetex Evo C18 2.6 um 50 x 2.1 mm
Retention time: 12.105 min
Base peak: 327.1709
Precursor m/z: 316.1076
Precursor type: [M+H]+
Precursor intensity: 20970506
m/z	relative intensity	assigned
91.0543	19	C7H7+
105.0697	29	C3H8FN3+
165.07	91	C13H9+
166.0779	24	C13H10+
247.0751	320	C14H13F2Si+
316.1077	999	C16H16F2N3Si+
