Mass spectrum: Imazapyr; LC-ESI-ITFT; MS2; CE: 60%; R=15000; [M+H]+
Name: Imazapyr
Name: 2-(4-methyl-5-oxo-4-propan-2-yl-1H-imidazol-2-yl)pyridine-3-carboxylic acid
Formula: C13H15N3O3
Exact mass: 261.11134134
SMILES: CC(C)C1(C)N=C(NC1=O)C1=NC=CC=C1C(O)=O
InChI: InChI=1S/C13H15N3O3/c1-7(2)13(3)12(19)15-10(16-13)9-8(11(17)18)5-4-6-14-9/h4-7H,1-3H3,(H,17,18)(H,15,16,19)
Instrument: LTQ Orbitrap XL Thermo Scientific
Instrument type: LC-ESI-ITFT
Ms type: MS2
Ion mode: POSITIVE
Ionization: ESI
Fragmentation mode: HCD
Collision energy: 60 % (nominal)
Resolution: 15000
Column name: Kinetex Evo C18 2.6 um 50 x 2.1 mm
Retention time: 5.845 min
Base peak: 262.1197
Precursor m/z: 262.1186
Precursor type: [M+H]+
Precursor intensity: 24205770
m/z	relative intensity	assigned
58.065	6	C3H8N+
67.0542	9	C5H7+
69.0697	715	C5H9+
86.0964	999	C5H12N+
97.0648	37	C6H9O+
105.0448	58	C6H5N2+
131.0239	96	C7H3N2O+
147.0553	118	C8H7N2O+
148.0506	148	C7H6N3O+
149.0346	950	C7H5N2O2+
173.1074	81	C11H13N2+
174.0662	392	C9H8N3O+
175.0866	35	C10H11N2O+
176.0703	7	C10H10NO2+
176.0821	13	C9H10N3O+
177.0658	12	C9H9N2O2+
178.0609	7	C8H8N3O2+
191.0691	48	C9H9N3O2+
199.0866	178	C12H11N2O+
201.0534	22	C10H7N3O2+
202.0612	648	C10H8N3O2+
216.1133	43	C12H14N3O+
217.0972	668	C12H13N2O2+
219.0636	24	C10H9N3O3+
220.0716	194	C10H10N3O3+
234.1238	70	C12H16N3O2+
262.1187	55	C13H16N3O3+
