Mass spectrum: Miconazole; LC-ESI-ITFT; MS2; CE: 90%; R=15000; [M+H]+
Name: Miconazole
Name: 1-[2-(2,4-dichlorophenyl)-2-[(2,4-dichlorophenyl)methoxy]ethyl]imidazole
Formula: C18H14Cl4N2O
Exact mass: 413.986023788
SMILES: ClC1=CC(Cl)=C(COC(CN2C=CN=C2)C2=C(Cl)C=C(Cl)C=C2)C=C1
InChI: InChI=1S/C18H14Cl4N2O/c19-13-2-1-12(16(21)7-13)10-25-18(9-24-6-5-23-11-24)15-4-3-14(20)8-17(15)22/h1-8,11,18H,9-10H2
Instrument: LTQ Orbitrap XL Thermo Scientific
Instrument type: LC-ESI-ITFT
Ms type: MS2
Ion mode: POSITIVE
Ionization: ESI
Fragmentation mode: HCD
Collision energy: 90 % (nominal)
Resolution: 15000
Column name: Kinetex Evo C18 2.6 um 50 x 2.1 mm
Retention time: 10.850 min
Base peak: 204.1389
Precursor m/z: 414.9933
Precursor type: [M+H]+
Precursor intensity: 860885.12
m/z	relative intensity	assigned
69.0447	19	C3H5N2+
82.0526	5	C4H6N2+
98.9999	28	C5H4Cl+
123	156	C7H4Cl+
124.0078	60	C7H5Cl+
132.9611	19	C5H3Cl2+
158.9768	999	C7H5Cl2+
