Mass spectrum: Azoxystrobin acid; LC-ESI-ITFT; MS2; CE: 70%; R=15000; [M+H]+
Name: Azoxystrobin acid
Name: (E)-2-[2-[6-(2-cyanophenoxy)pyrimidin-4-yl]oxyphenyl]-3-methoxyprop-2-enoic acid
Formula: C21H15N3O5
Exact mass: 389.10117058
SMILES: CO\C=C(\C(O)=O)c1ccccc1Oc1cc(Oc2ccccc2C#N)ncn1
InChI: InChI=1S/C21H15N3O5/c1-27-12-16(21(25)26)15-7-3-5-9-18(15)29-20-10-19(23-13-24-20)28-17-8-4-2-6-14(17)11-22/h2-10,12-13H,1H3,(H,25,26)/b16-12+
Instrument: LTQ Orbitrap XL Thermo Scientific
Instrument type: LC-ESI-ITFT
Ms type: MS2
Ion mode: POSITIVE
Ionization: ESI
Fragmentation mode: HCD
Collision energy: 70 % (nominal)
Resolution: 15000
Column name: Kinetex Evo C18 2.6 um 50 x 2.1 mm
Retention time: 10.518 min
Base peak: 390.1093
Precursor m/z: 390.1084
Precursor type: [M+H]+
Precursor intensity: 16338711
m/z	relative intensity	assigned
120.0447	72	C7H6NO+
129.0446	286	C8H5N2+
130.04	203	C7H4N3+
133.052	274	C8H7NO+
134.06	303	C8H8NO+
141.0449	117	C9H5N2+
143.0605	168	C9H7N2+
145.0524	175	C9H7NO+
156.0443	751	C10H6NO+
169.0397	78	C10H5N2O+
170.0478	101	C10H6N2O+
171.0558	124	C10H7N2O+
172.0393	999	C10H6NO2+
183.0553	825	C11H7N2O+
199.0502	336	C11H7N2O2+
200.0342	545	C11H6NO3+
201.0418	170	C11H7NO3+
210.042	216	C12H6N2O2+
272.0812	206	C17H10N3O+
273.0663	161	C17H9N2O2+
273.0892	76	C17H11N3O+
300.0763	242	C18H10N3O2+
328.0716	439	C19H10N3O3+
