Mass spectrum: 11-Ketotestosterone; LC-ESI-ITFT; MS2; CE: 50%; R=15000; [M+H]+
Name: 11-Ketotestosterone
Name: (8S,9S,10R,13S,14S,17S)-17-hydroxy-10,13-dimethyl-2,6,7,8,9,12,14,15,16,17-decahydro-1H-cyclopenta[a]phenanthrene-3,11-dione
Formula: C19H26O3
Exact mass: 302.188194692
SMILES: C[C@]12CC(=O)[C@H]3[C@@H](CCC4=CC(=O)CC[C@]34C)[C@@H]1CC[C@@H]2O
InChI: InChI=1S/C19H26O3/c1-18-8-7-12(20)9-11(18)3-4-13-14-5-6-16(22)19(14,2)10-15(21)17(13)18/h9,13-14,16-17,22H,3-8,10H2,1-2H3/t13-,14-,16-,17+,18-,19-/m0/s1
Instrument: LTQ Orbitrap XL Thermo Scientific
Instrument type: LC-ESI-ITFT
Ms type: MS2
Ion mode: POSITIVE
Ionization: ESI
Fragmentation mode: HCD
Collision energy: 50 % (nominal)
Resolution: 15000
Column name: Kinetex Evo C18 2.6 um 50 x 2.1 mm
Retention time: 9.898 min
Base peak: 116.9858
Precursor m/z: 303.1955
Precursor type: [M+H]+
Precursor intensity: 2399427
m/z	relative intensity	assigned
67.054	25	C5H7+
69.0332	14	C4H5O+
69.0696	34	C5H9+
79.054	35	C6H7+
81.0697	133	C6H9+
83.049	43	C5H7O+
83.0855	6	C6H11+
85.0646	18	C5H9O+
91.0541	34	C7H7+
93.0697	144	C7H9+
95.049	32	C6H7O+
95.0854	138	C7H11+
97.0646	203	C6H9O+
99.0438	12	C5H7O2+
105.0696	121	C8H9+
107.049	9	C7H7O+
107.0853	184	C8H11+
109.0645	64	C7H9O+
109.101	50	C8H13+
111.0802	49	C7H11O+
113.0594	6	C6H9O2+
117.0696	19	C9H9+
119.0853	131	C9H11+
121.0646	999	C8H9O+
121.1009	71	C9H13+
123.0802	141	C8H11O+
125.0959	8	C8H13O+
129.0695	18	C10H9+
131.0853	142	C10H11+
133.0646	19	C9H9O+
133.1009	180	C10H13+
135.0802	122	C9H11O+
135.1166	52	C10H15+
137.0958	60	C9H13O+
139.0752	9	C8H11O2+
143.0853	74	C11H11+
145.0646	18	C10H9O+
145.1009	190	C11H13+
147.0802	267	C10H11O+
147.1165	72	C11H15+
149.0958	104	C10H13O+
149.1323	10	C11H17+
151.1115	31	C10H15O+
155.0852	48	C12H11+
157.0641	10	C11H9O+
157.1009	69	C12H13+
159.0801	61	C11H11O+
159.1165	123	C12H15+
161.0958	136	C11H13O+
161.1322	37	C12H17+
163.1115	169	C11H15O+
165.1269	7	C11H17O+
167.1063	41	C10H15O2+
169.1009	48	C13H13+
171.0801	73	C12H11O+
171.1166	90	C13H15+
173.0958	136	C12H13O+
173.1324	21	C13H17+
174.1042	4	C12H14O+
175.1114	60	C12H15O+
175.1484	11	C13H19+
177.127	56	C12H17O+
179.1061	5	C11H15O2+
181.1011	26	C14H13+
183.1165	94	C14H15+
185.0959	36	C13H13O+
185.1323	73	C14H17+
187.1115	48	C13H15O+
187.1477	12	C14H19+
189.1271	124	C13H17O+
191.1064	10	C12H15O2+
193.1011	16	C15H13+
193.1224	12	C12H17O2+
195.1168	22	C15H15+
197.0958	20	C14H13O+
197.132	53	C15H17+
199.1114	41	C14H15O+
199.1479	59	C15H19+
201.127	78	C14H17O+
201.1633	7	C15H21+
203.1427	38	C14H19O+
205.1221	6	C13H17O2+
207.1164	24	C16H15+
207.1376	17	C13H19O2+
209.1322	55	C16H17+
211.1115	33	C15H15O+
211.1478	18	C16H19+
213.1271	84	C15H17O+
213.1635	26	C16H21+
215.1428	23	C15H19O+
215.1787	5	C16H23+
217.1222	8	C14H17O2+
217.1592	8	C15H21O+
221.1318	13	C17H17+
221.1533	31	C14H21O2+
223.1477	84	C17H19+
225.127	35	C16H17O+
225.1634	67	C17H21+
226.1363	5	C16H18O+
227.1426	157	C16H19O+
229.1594	8	C16H21O+
233.1532	21	C15H21O2+
239.1428	29	C17H19O+
239.179	62	C18H23+
241.1583	297	C17H21O+
243.1739	71	C17H23O+
244.1449	12	C16H20O2+
245.1532	70	C16H21O2+
249.1633	53	C19H21+
257.1536	6	C17H21O2+
257.1894	48	C18H25O+
259.1689	748	C17H23O2+
267.1739	238	C19H23O+
285.1845	172	C19H25O2+
303.195	446	C19H27O3+
