Mass spectrum: Daidzein; LC-ESI-ITFT; MS2; CE: 55; R=15000; [M-H]-
Name: Daidzein
Name: 7-Hydroxy-3-(4-hydroxyphenyl)chromen-4-one
Formula: C15H10O4
Exact mass: 254.0579
SMILES: OC1=CC=C(C=C1)C1=COC2=CC(O)=CC=C2C1=O
InChI: InChI=1S/C15H10O4/c16-10-3-1-9(2-4-10)13-8-19-14-7-11(17)5-6-12(14)15(13)18/h1-8,16-17H
Instrument: LTQ Orbitrap XL Thermo Scientific
Instrument type: LC-ESI-ITFT
Ms type: MS2
Ion mode: NEGATIVE
Ionization: ESI
Fragmentation mode: CID
Collision energy: 55 (nominal)
Resolution: 15000
Column name: Kinetex Core-Shell C18 2.6 um, 3.0 x 100 mm, Phenomenex
Retention time: 21.658 min
Base peak: 212.9994
Precursor m/z: 253.0506
Precursor type: [M-H]-
m/z	relative intensity	assigned
91.019	44	C6H3O-
117.0343	51	C8H5O-
133.0295	75	C8H5O2-
135.0088	274	C7H3O3-
160.0167	32	C9H4O3-
167.0504	38	C12H7O-
169.0661	85	C12H9O-
179.0495	24	C13H7O-
180.0581	90	C13H8O-
181.066	94	C13H9O-
183.0452	65	C12H7O2-
185.0606	77	C12H9O2-
195.0451	59	C13H7O2-
196.0531	146	C13H8O2-
197.0607	404	C13H9O2-
207.0448	43	C14H7O2-
208.0529	396	C14H8O2-
209.0608	899	C14H9O2-
210.0329	38	C13H6O3-
211.0404	135	C13H7O3-
223.0395	121	C14H7O3-
224.0479	999	C14H8O3-
225.0558	850	C14H9O3-
