Mass spectrum: Isoproturon; LC-ESI-ITFT; MS2; CE: 70%; R=15000; [M+H]+
Name: Isoproturon
Name: 1,1-dimethyl-3-(4-propan-2-ylphenyl)urea
Formula: C12H18N2O
Exact mass: 206.141913196
SMILES: CC(C)C1=CC=C(NC(=O)N(C)C)C=C1
InChI: InChI=1S/C12H18N2O/c1-9(2)10-5-7-11(8-6-10)13-12(15)14(3)4/h5-9H,1-4H3,(H,13,15)
Instrument: LTQ Orbitrap XL Thermo Scientific
Instrument type: LC-ESI-ITFT
Ms type: MS2
Ion mode: POSITIVE
Ionization: ESI
Fragmentation mode: HCD
Collision energy: 70 % (nominal)
Resolution: 15000
Column name: Kinetex Evo C18 2.6 um 50 x 2.1 mm
Retention time: 10.022 min
Base peak: 207.1497
Precursor m/z: 207.1492
Precursor type: [M+H]+
Precursor intensity: 40492572
m/z	relative intensity	assigned
72.0442	999	C3H6NO+
91.0542	11	C7H7+
92.0494	3	C6H6N+
93.0699	3	C7H9+
107.0855	13	C8H11+
117.0697	4	C9H9+
119.0731	3	C8H9N+
120.0443	12	C7H6NO+
134.0964	100	C9H12N+
147.0915	11	C9H11N2+
162.0913	8	C10H12NO+
165.1022	32	C9H13N2O+
207.1487	4	C12H19N2O+
