Mass spectrum: Methocarbamol; LC-ESI-ITFT; MS2; CE: 60%; R=15000; [M+H]+
Name: Methocarbamol
Name: [2-hydroxy-3-(2-methoxyphenoxy)propyl] carbamate
Formula: C11H15NO5
Exact mass: 241.0950
SMILES: COC1=C(OCC(O)COC(N)=O)C=CC=C1
InChI: InChI=1S/C11H15NO5/c1-15-9-4-2-3-5-10(9)16-6-8(13)7-17-11(12)14/h2-5,8,13H,6-7H2,1H3,(H2,12,14)
Instrument: LTQ Orbitrap XL Thermo Scientific
Instrument type: LC-ESI-ITFT
Ms type: MS2
Ion mode: POSITIVE
Ionization: ESI
Fragmentation mode: HCD
Collision energy: 60 % (nominal)
Resolution: 15000
Column name: Kinetex Evo C18 2.6 um 50 x 2.1 mm
Retention time: 7.108 min
Base peak: 264.0839
Precursor m/z: 242.1023
Precursor type: [M+H]+
m/z	relative intensity	assigned
57.0334	131	C3H5O+
62.0236	242	CH4NO2+
65.0385	163	C5H5+
75.0441	104	C3H7O2+
77.0386	138	C6H5+
79.0543	114	C6H7+
91.0543	123	C7H7+
93.0336	186	C6H5O+
93.0699	92	C7H9+
95.0492	402	C6H7O+
103.0543	265	C8H7+
105.0699	520	C8H9+
107.0492	149	C7H7O+
110.0363	166	C6H6O2+
118.05	999	C4H8NO3+
120.0568	64	C8H8O+
121.0285	78	C7H5O2+
121.0648	161	C8H9O+
122.0363	529	C7H6O2+
123.044	101	C7H7O2+
124.0523	20	C7H8O2+
125.0598	298	C7H9O2+
132.057	47	C9H8O+
135.0805	412	C9H11O+
137.0596	79	C8H9O2+
145.0645	36	C10H9O+
148.0521	112	C9H8O2+
151.0754	53	C9H11O2+
163.0755	169	C10H11O2+
