Mass spectrum: Acetyl-sulfamethoxazole; LC-ESI-ITFT; MS2; CE: 80%; R=15000; [M+H]+
Name: Acetyl-sulfamethoxazole
Name: Acetylsulfamethoxazole
Name: N-[4-[(5-methyl-1,2-oxazol-3-yl)sulfamoyl]phenyl]acetamide
Formula: C12H13N3O4S
Exact mass: 295.062676896
SMILES: CC(=O)NC1=CC=C(C=C1)S(=O)(=O)NC1=NOC(C)=C1
InChI: InChI=1S/C12H13N3O4S/c1-8-7-12(14-19-8)15-20(17,18)11-5-3-10(4-6-11)13-9(2)16/h3-7H,1-2H3,(H,13,16)(H,14,15)
Instrument: LTQ Orbitrap XL Thermo Scientific
Instrument type: LC-ESI-ITFT
Ms type: MS2
Ion mode: POSITIVE
Ionization: ESI
Fragmentation mode: HCD
Collision energy: 80 % (nominal)
Resolution: 15000
Column name: Kinetex Evo C18 2.6 um 50 x 2.1 mm
Retention time: 7.620 min
Base peak: 325.1721
Precursor m/z: 296.07
Precursor type: [M+H]+
Precursor intensity: 6730892
m/z	relative intensity	assigned
65.0387	999	C5H5+
77.0388	7	C6H5+
79.0545	34	C6H7+
80.0498	25	C5H6N+
92.0499	325	C6H6N+
93.0339	204	C6H5O+
93.0577	181	C6H7N+
94.0655	80	H14O3S+
99.0557	63	C4H7N2O+
105.0454	5	H11NO3S+
106.0656	73	CH14O3S+
108.0449	486	H12O4S+
110.0606	33	H14O4S+
119.0608	13	CH13NO3S+
131.0609	14	C2H13NO3S+
133.0765	5	C8H9N2+
134.0606	451	C2H14O4S+
136.0761	8	C8H10NO+
143.0609	8	C3H13NO3S+
146.0719	94	C2H14N2O3S+
147.0796	54	C8H9N3+
148.0875	5	C8H10N3+
156.0121	17	C6H6NO2S+
160.0876	82	C9H10N3+
162.0666	9	C2H14N2O4S+
173.0581	4	C9H7N3O+
176.0284	6	C10H8OS+
