Mass spectrum: Azoxystrobin acid; LC-ESI-ITFT; MS2; CE: 90%; R=15000; [M+H]+
Name: Azoxystrobin acid
Name: (E)-2-[2-[6-(2-cyanophenoxy)pyrimidin-4-yl]oxyphenyl]-3-methoxyprop-2-enoic acid
Formula: C21H15N3O5
Exact mass: 389.10117058
SMILES: CO\C=C(\C(O)=O)c1ccccc1Oc1cc(Oc2ccccc2C#N)ncn1
InChI: InChI=1S/C21H15N3O5/c1-27-12-16(21(25)26)15-7-3-5-9-18(15)29-20-10-19(23-13-24-20)28-17-8-4-2-6-14(17)11-22/h2-10,12-13H,1H3,(H,25,26)/b16-12+
Instrument: LTQ Orbitrap XL Thermo Scientific
Instrument type: LC-ESI-ITFT
Ms type: MS2
Ion mode: POSITIVE
Ionization: ESI
Fragmentation mode: HCD
Collision energy: 90 % (nominal)
Resolution: 15000
Column name: Kinetex Evo C18 2.6 um 50 x 2.1 mm
Retention time: 10.518 min
Base peak: 390.1093
Precursor m/z: 390.1084
Precursor type: [M+H]+
Precursor intensity: 16338711
m/z	relative intensity	assigned
89.0386	75	C7H5+
103.0415	27	C7H5N+
104.0494	63	C7H6N+
114.0339	52	C8H4N+
116.0494	99	C8H6N+
117.0334	41	C8H5O+
120.0442	53	C7H6NO+
127.0419	28	C9H5N+
128.0496	55	C9H6N+
129.0447	137	C8H5N2+
130.0289	23	C8H4NO+
130.04	153	C7H4N3+
132.0448	25	C8H6NO+
133.0525	61	C8H7NO+
134.0602	70	C8H8NO+
141.0446	44	C9H5N2+
143.0604	27	C9H7N2+
144.0444	125	C9H6NO+
145.0523	54	C9H7NO+
146.0235	28	C8H4NO2+
155.0604	43	C10H7N2+
156.0445	498	C10H6NO+
170.0475	48	C10H6N2O+
171.0555	108	C10H7N2O+
172.0394	999	C10H6NO2+
182.0471	37	C11H6N2O+
183.0553	77	C11H7N2O+
199.0502	45	C11H7N2O2+
200.0345	142	C11H6NO3+
245.0706	33	C16H9N2O+
272.0815	44	C17H10N3O+
300.0767	45	C18H10N3O2+
328.0708	39	C19H10N3O3+
