Mass spectrum: Methocarbamol; LC-ESI-ITFT; MS2; CE: 90%; R=15000; [M+H]+
Name: Methocarbamol
Name: [2-hydroxy-3-(2-methoxyphenoxy)propyl] carbamate
Formula: C11H15NO5
Exact mass: 241.0950
SMILES: COC1=C(OCC(O)COC(N)=O)C=CC=C1
InChI: InChI=1S/C11H15NO5/c1-15-9-4-2-3-5-10(9)16-6-8(13)7-17-11(12)14/h2-5,8,13H,6-7H2,1H3,(H2,12,14)
Instrument: LTQ Orbitrap XL Thermo Scientific
Instrument type: LC-ESI-ITFT
Ms type: MS2
Ion mode: POSITIVE
Ionization: ESI
Fragmentation mode: HCD
Collision energy: 90 % (nominal)
Resolution: 15000
Column name: Kinetex Evo C18 2.6 um 50 x 2.1 mm
Retention time: 7.070 min
Base peak: 264.0841
Precursor m/z: 242.1023
Precursor type: [M+H]+
m/z	relative intensity	assigned
57.0334	69	C3H5O+
62.0236	204	CH4NO2+
65.0385	367	C5H5+
75.0443	45	C3H7O2+
77.0386	965	C6H5+
79.0542	444	C6H7+
91.0542	366	C7H7+
93.0335	148	C6H5O+
93.0701	53	C7H9+
95.0491	476	C6H7O+
103.0542	684	C8H7+
105.0698	478	C8H9+
107.0491	80	C7H7O+
109.0284	58	C6H5O2+
110.0363	395	C6H6O2+
111.0439	47	C6H7O2+
118.0497	122	C4H8NO3+
120.0571	135	C8H8O+
121.0284	367	C7H5O2+
122.0362	999	C7H6O2+
132.0574	47	C9H8O+
135.0804	90	C9H11O+
148.0523	46	C9H8O2+
