Mass spectrum: Clonidine; LC-ESI-ITFT; MS2; CE: 70%; R=15000; [M+H]+
Name: Clonidine
Name: N-(2,6-dichlorophenyl)-4,5-dihydro-1H-imidazol-2-amine
Formula: C9H9Cl2N3
Exact mass: 229.017352648
SMILES: ClC1=CC=CC(Cl)=C1NC1=NCCN1
InChI: InChI=1S/C9H9Cl2N3/c10-6-2-1-3-7(11)8(6)14-9-12-4-5-13-9/h1-3H,4-5H2,(H2,12,13,14)
Instrument: LTQ Orbitrap XL Thermo Scientific
Instrument type: LC-ESI-ITFT
Ms type: MS2
Ion mode: POSITIVE
Ionization: ESI
Fragmentation mode: HCD
Collision energy: 70 % (nominal)
Resolution: 15000
Column name: Kinetex Evo C18 2.6 um 50 x 2.1 mm
Retention time: 0.548 min
Base peak: 230.0254
Precursor m/z: 230.0246
Precursor type: [M+H]+
Precursor intensity: 4795557.5
m/z	relative intensity	assigned
59.0602	47	C2H7N2+
69.0446	35	C3H5N2+
123.995	2	C6H3ClN+
132.0683	3	C8H8N2+
151.0186	8	C8H6ClN+
152.0134	3	C7H5ClN2+
153.0216	8	C7H6ClN2+
158.0716	2	C9H8N3+
159.0794	11	C9H9N3+
159.9717	25	C6H4Cl2N+
160.087	14	C9H10N3+
161.9872	14	C6H6Cl2N+
164.0013	5	C7H3ClN3+
171.9716	49	C7H4Cl2N+
172.9667	8	C6H3Cl2N2+
184.9668	9	C7H3Cl2N2+
185.9873	15	C8H6Cl2N+
186.9825	69	C7H5Cl2N2+
194.048	37	C9H9ClN3+
195.056	8	C9H10ClN3+
212.9981	195	C9H7Cl2N2+
230.0247	999	C9H10Cl2N3+
