Mass spectrum: Promethazin; LC-ESI-ITFT; MS2; CE: 70%; R=15000; [M+H]+
Name: Promethazin
Name: Promethazine
Name: N,N-dimethyl-1-phenothiazin-10-ylpropan-2-amine
Formula: C17H20N2S
Exact mass: 284.13471964
SMILES: CC(CN1C2=CC=CC=C2SC2=CC=CC=C12)N(C)C
InChI: InChI=1S/C17H20N2S/c1-13(18(2)3)12-19-14-8-4-6-10-16(14)20-17-11-7-5-9-15(17)19/h4-11,13H,12H2,1-3H3
Instrument: LTQ Orbitrap XL Thermo Scientific
Instrument type: LC-ESI-ITFT
Ms type: MS2
Ion mode: POSITIVE
Ionization: ESI
Fragmentation mode: HCD
Collision energy: 70 % (nominal)
Resolution: 15000
Column name: Kinetex Evo C18 2.6 um 50 x 2.1 mm
Retention time: 8.146 min
Base peak: 285.142
Precursor m/z: 285.142
Precursor type: [M+H]+
Precursor intensity: 19886328
m/z	relative intensity	assigned
70.0648	2	C4H8N+
71.0726	92	C4H9N+
84.0805	14	C5H10N+
86.0961	999	C5H12N+
105.0695	17	C8H9+
106.0647	2	C7H8N+
109.0103	2	C6H5S+
130.0649	2	C9H8N+
131.0723	2	C9H9N+
136.0211	5	C7H6NS+
148.0213	2	C8H6NS+
154.0645	5	C11H8N+
162.0367	24	C9H8NS+
180.0806	1	C13H10N+
193.0894	1	C14H11N+
197.0286	1	C12H7NS+
198.0366	445	C12H8NS+
206.0958	12	C15H12N+
207.1038	10	C15H13N+
208.1119	3	C15H14N+
224.0523	10	C14H10NS+
225.0599	33	C14H11NS+
240.0834	16	C15H14NS+
