Mass spectrum: Pirimiphos-methyl; LC-ESI-ITFT; MS2; CE: 35; R=15000; [M+H]+
Name: Pirimiphos-methyl
Name: 4-Dimethoxyphosphinothioyloxy-N,N-diethyl-6-methylpyrimidin-2-amine
Formula: C11H20N3O3PS
Exact mass: 305.0963
SMILES: CCN(CC)C1=NC(C)=CC(OP(=S)(OC)OC)=N1
InChI: InChI=1S/C11H20N3O3PS/c1-6-14(7-2)11-12-9(3)8-10(13-11)17-18(19,15-4)16-5/h8H,6-7H2,1-5H3
Instrument: LTQ Orbitrap XL Thermo Scientific
Instrument type: LC-ESI-ITFT
Ms type: MS2
Ion mode: POSITIVE
Ionization: ESI
Fragmentation mode: CID
Collision energy: 35 (nominal)
Resolution: 15000
Column name: Kinetex Core-Shell C18 2.6 um, 3.0 x 100 mm, Phenomenex
Retention time: 26.211 min
Base peak: 305.1079
Precursor m/z: 306.1036
Precursor type: [M+H]+
m/z	relative intensity	assigned
95.0603	54	C5H7N2+
108.0555	58	C5H6N3+
109.0047	3	C2H6O3P+
109.0759	24	C6H9N2+
123.0916	13	C7H11N2+
124.982	13	C2H6O2PS+
136.0869	41	C7H10N3+
151.0267	15	C3H8N2O3P+
153.1022	77	C8H13N2O+
154.0996	10	C5H17NO2P+
154.1056	121	C3H14N4O3+
164.1182	898	C9H14N3+
168.1132	16	C8H14N3O+
169.0794	127	C8H13N2S+
170.0826	215	C3H14N4O2S+
171.0244	6	C4H12O3PS+
179.0581	24	C5H12N2O3P+
196.1445	100	C10H18N3O+
207.0893	140	C7H16N2O3P+
208.0191	10	C6H11NO3PS+
214.111	5	C9H17N3OP+
220.0272	19	C9H7N3O2P+
233.0144	84	C7H10N2O3PS+
246.0461	138	C8H13N3O2PS+
247.1204	18	C10H20N2O3P+
250.0411	60	C7H13N3O3PS+
258.1002	13	C10H17N3O3P+
264.0574	3	C8H15N3O3PS+
274.0773	613	C10H17N3O2PS+
276.0569	6	C9H15N3O3PS+
278.0721	999	C9H17N3O3PS+
306.1035	10	C11H21N3O3PS+
