Mass spectrum: 4-Androstene-3,17-dione; LC-ESI-ITFT; MS2; CE: 90%; R=15000; [M+H]+
Name: 4-Androstene-3,17-dione
Name: Androstenedione
Name: (8R,9S,10R,13S,14S)-10,13-dimethyl-2,6,7,8,9,11,12,14,15,16-decahydro-1H-cyclopenta[a]phenanthrene-3,17-dione
Formula: C19H26O2
Exact mass: 286.193280072
SMILES: C[C@]12CC[C@H]3[C@@H](CCC4=CC(=O)CC[C@]34C)[C@@H]1CCC2=O
InChI: InChI=1S/C19H26O2/c1-18-9-7-13(20)11-12(18)3-4-14-15-5-6-17(21)19(15,2)10-8-16(14)18/h11,14-16H,3-10H2,1-2H3/t14-,15-,16-,18-,19-/m0/s1
Instrument: LTQ Orbitrap XL Thermo Scientific
Instrument type: LC-ESI-ITFT
Ms type: MS2
Ion mode: POSITIVE
Ionization: ESI
Fragmentation mode: HCD
Collision energy: 90 % (nominal)
Resolution: 15000
Column name: Kinetex Evo C18 2.6 um 50 x 2.1 mm
Retention time: 11.075 min
Base peak: 287.2005
Precursor m/z: 287.2006
Precursor type: [M+H]+
Precursor intensity: 11393723
m/z	relative intensity	assigned
55.0177	14	C3H3O+
67.0542	41	C5H7+
69.0699	46	C5H9+
77.0389	6	C6H5+
79.0543	166	C6H7+
81.07	167	C6H9+
83.0492	36	C5H7O+
91.0544	61	C7H7+
93.07	54	C7H9+
95.0492	9	C6H7O+
95.0857	42	C7H11+
97.0649	999	C6H9O+
105.07	65	C8H9+
107.0858	20	C8H11+
109.0649	755	C7H9O+
117.07	22	C9H9+
119.0857	34	C9H11+
121.0651	6	C8H9O+
121.1013	11	C9H13+
123.0805	110	C8H11O+
129.0701	9	C10H9+
131.0855	25	C10H11+
133.1015	20	C10H13+
143.0856	14	C11H11+
144.0936	5	C11H12+
145.1014	24	C11H13+
155.0862	11	C12H11+
157.1015	8	C12H13+
159.117	4	C12H15+
169.101	7	C13H13+
183.1167	5	C14H15+
