Mass spectrum: Gabapentin-lactam; LC-ESI-ITFT; MS2; CE: 105%; R=15000; [M+H]+
Name: Gabapentin-lactam
Name: 2-azaspiro[4.5]decan-3-one
Formula: C9H15NO
Exact mass: 153.1154
SMILES: O=C1CC2(CN1)CCCCC2
InChI: InChI=1S/C9H15NO/c11-8-6-9(7-10-8)4-2-1-3-5-9/h1-7H2,(H,10,11)
Instrument: LTQ Orbitrap XL Thermo Scientific
Instrument type: LC-ESI-ITFT
Ms type: MS2
Ion mode: POSITIVE
Ionization: ESI
Fragmentation mode: HCD
Collision energy: 105 % (nominal)
Resolution: 15000
Column name: Kinetex Evo C18 2.6 um 50 x 2.1 mm
Retention time: 8.247 min
Base peak: 154.1225
Precursor m/z: 154.1226
Precursor type: [M+H]+
m/z	relative intensity	assigned
54.0336	6	C3H4N+
60.0441	8	C2H6NO+
65.0384	8	C5H5+
67.0541	306	C5H7+
69.0697	28	C5H9+
70.0651	4	C4H8N+
72.0443	88	C3H6NO+
77.0385	9	C6H5+
79.0541	8	C6H7+
80.062	5	C6H8+
81.0698	18	C6H9+
86.0601	4	C4H8NO+
91.0541	48	C7H7+
93.0698	120	C7H9+
95.0854	999	C7H11+
109.1011	35	C8H13+
112.1119	33	C7H14N+
119.0854	12	C9H11+
137.0957	2	C9H13O+
154.1225	360	C9H16NO+
