Mass spectrum: Chloridazon; LC-ESI-ITFT; MS2; CE: 55; R=15000; [M+H]+
Name: Chloridazon
Name: 5-Amino-4-chloro-2-phenylpyridazin-3-one
Formula: C10H8ClN3O
Exact mass: 221.0356
SMILES: NC1=C(Cl)C(=O)N(N=C1)C1=CC=CC=C1
InChI: InChI=1S/C10H8ClN3O/c11-9-8(12)6-13-14(10(9)15)7-4-2-1-3-5-7/h1-6H,12H2
Instrument: LTQ Orbitrap XL Thermo Scientific
Instrument type: LC-ESI-ITFT
Ms type: MS2
Ion mode: POSITIVE
Ionization: ESI
Fragmentation mode: CID
Collision energy: 55 (nominal)
Resolution: 15000
Column name: Kinetex Core-Shell C18 2.6 um, 3.0 x 100 mm, Phenomenex
Retention time: 18.587 min
Base peak: 163.1326
Precursor m/z: 222.0429
Precursor type: [M+H]+
m/z	relative intensity	assigned
77.0384	90	C6H5+
92.0494	84	C6H6N+
94.065	119	C6H8N+
100.9901	6	C3H2ClN2+
104.0493	999	C7H6N+
105.0447	15	C6H5N2+
119.0008	7	C3H4ClN2O+
119.0603	22	C7H7N2+
128.9849	103	C4H2ClN2O+
130.0648	12	C9H8N+
131.0602	7	C8H7N2+
132.0444	10	C8H6NO+
142.0527	5	C9H6N2+
143.0599	6	C9H7N2+
146.0115	56	C4H5ClN3O+
149.0152	27	C9H6Cl+
159.0552	38	C9H7N2O+
159.0678	8	C10H9NO+
177.0212	15	C9H6ClN2+
178.0048	6	C9H5ClNO+
186.066	163	C10H8N3O+
193.0288	141	C10H8ClNO+
195.0321	27	C9H8ClN2O+
205.0162	155	C10H6ClN2O+
