Mass spectrum: 2-Isopropylthioxanthon; LC-ESI-ITFT; MS2; CE: 80; R=15000; [M+H]+
Name: 2-Isopropylthioxanthon
Name: Isopropylthioxanthone
Name: 1-Propan-2-ylthioxanthen-9-one
Formula: C16H14OS
Exact mass: 254.0765
SMILES: CC(C)C1=C2C(SC3=C(C=CC=C3)C2=O)=CC=C1
InChI: InChI=1S/C16H14OS/c1-10(2)11-7-5-9-14-15(11)16(17)12-6-3-4-8-13(12)18-14/h3-10H,1-2H3
Instrument: LTQ Orbitrap XL Thermo Scientific
Instrument type: LC-ESI-ITFT
Ms type: MS2
Ion mode: POSITIVE
Ionization: ESI
Fragmentation mode: HCD
Collision energy: 80 (nominal)
Resolution: 15000
Column name: Kinetex Core-Shell C18 2.6 um, 3.0 x 100 mm, Phenomenex
Retention time: 28.180 min
Base peak: 255.0845
Precursor m/z: 255.0838
Precursor type: [M+H]+
m/z	relative intensity	assigned
213.0372	122	C13H9OS+
214.0414	999	C16H6O+
