Mass spectrum: 1,3-Dimethyl-2-imidazolidinone; LC-ESI-ITFT; MS2; CE: 30%; R=15000; [M+H]+
Name: 1,3-Dimethyl-2-imidazolidinone
Name: 1,3-dimethylimidazolidin-2-one
Formula: C5H10N2O
Exact mass: 114.07931294
SMILES: CN1CCN(C)C1=O
InChI: InChI=1S/C5H10N2O/c1-6-3-4-7(2)5(6)8/h3-4H2,1-2H3
Instrument: LTQ Orbitrap XL Thermo Scientific
Instrument type: LC-ESI-ITFT
Ms type: MS2
Ion mode: POSITIVE
Ionization: ESI
Fragmentation mode: HCD
Collision energy: 30 % (nominal)
Resolution: 15000
Column name: Kinetex Evo C18 2.6 um 50 x 2.1 mm
Retention time: 1.038 min
Base peak: 115.0868
Precursor m/z: 115.0866
Precursor type: [M+H]+
Precursor intensity: 15848135
m/z	relative intensity	assigned
87.0916	17	C4H11N2+
115.0865	999	C5H11N2O+
