Mass spectrum: Labetalol; LC-ESI-ITFT; MS2; CE: 60%; R=15000; [M+H]+
Name: Labetalol
Name: 2-hydroxy-5-[1-hydroxy-2-(4-phenylbutan-2-ylamino)ethyl]benzamide
Formula: C19H24N2O3
Exact mass: 328.178692628
SMILES: CC(CCC1=CC=CC=C1)NCC(O)C1=CC(C(N)=O)=C(O)C=C1
InChI: InChI=1S/C19H24N2O3/c1-13(7-8-14-5-3-2-4-6-14)21-12-18(23)15-9-10-17(22)16(11-15)19(20)24/h2-6,9-11,13,18,21-23H,7-8,12H2,1H3,(H2,20,24)
Instrument: LTQ Orbitrap XL Thermo Scientific
Instrument type: LC-ESI-ITFT
Ms type: MS2
Ion mode: POSITIVE
Ionization: ESI
Fragmentation mode: HCD
Collision energy: 60 % (nominal)
Resolution: 15000
Column name: Kinetex Evo C18 2.6 um 50 x 2.1 mm
Retention time: 7.162 min
Base peak: 329.187
Precursor m/z: 329.186
Precursor type: [M+H]+
Precursor intensity: 43695192
m/z	relative intensity	assigned
91.0543	870	C7H7+
105.0699	2	C8H9+
106.0652	25	C7H8N+
107.0492	15	C7H7O+
119.0492	9	C8H7O+
120.0444	10	C7H6NO+
133.1016	2	C10H13+
134.0601	83	C8H8NO+
135.0442	10	C8H7O2+
136.0758	7	C8H10NO+
144.0446	17	C9H6NO+
145.0288	4	C9H5O2+
147.0441	47	C9H7O2+
162.055	999	C9H8NO2+
164.0706	33	C9H10NO2+
165.0546	46	C9H9O3+
179.0814	11	C9H11N2O2+
180.0656	17	C9H10NO3+
190.0864	33	C11H12NO2+
207.1135	4	C11H15N2O2+
294.1488	12	C19H20NO2+
