Mass spectrum: Di-n-butyl phosphate; LC-ESI-ITFT; MS2; CE: 30%; R=15000; [M+H]+
Name: Di-n-butyl phosphate
Name: Dibutyl phosphate
Name: dibutyl hydrogen phosphate
Formula: C8H19O4P
Exact mass: 210.102095718
SMILES: CCCCOP(O)(=O)OCCCC
InChI: InChI=1S/C8H19O4P/c1-3-5-7-11-13(9,10)12-8-6-4-2/h3-8H2,1-2H3,(H,9,10)
Instrument: LTQ Orbitrap XL Thermo Scientific
Instrument type: LC-ESI-ITFT
Ms type: MS2
Ion mode: POSITIVE
Ionization: ESI
Fragmentation mode: HCD
Collision energy: 30 % (nominal)
Resolution: 15000
Column name: Kinetex Evo C18 2.6 um 50 x 2.1 mm
Retention time: 11.975 min
Base peak: 211.1103
Precursor m/z: 211.1094
Precursor type: [M+H]+
Precursor intensity: 5602361.5
m/z	relative intensity	assigned
57.0699	16	C4H9+
98.9846	999	H4O4P+
155.0473	3	C4H12O4P+
