Mass spectrum: 1-nitropyrene; APCI-ITFT; MS2; CE: 35%; R=30000; [M]-
Name: 1-nitropyrene
Formula: C16H9NO2
Exact mass: 247.0633
SMILES: [O-][N+](=O)c4ccc2ccc1cccc3c1c2c4cc3
InChI: InChI=1S/C16H9NO2/c18-17(19)14-9-7-12-5-4-10-2-1-3-11-6-8-13(14)16(12)15(10)11/h1-9H
Instrument: LTQ Orbitrap XL Thermo Scientific
Instrument type: APCI-ITFT
Ms type: MS2
Ion mode: NEGATIVE
Ionization: APCI
Fragmentation mode: CID
Collision energy: 35 % (nominal)
Resolution: 30000
Column name: N/A
Retention time: N/A min
Base peak: 247.0639
Precursor m/z: 247.0639
Precursor type: [M]-
m/z	relative intensity	assigned
198.0222	1	C14H2N2-
217.0655	999	C16H9O-
247.0635	22	C16H9NO2-
