Mass spectrum: 3-nitrobenzanthrone; ESI-ITFT; MS2; CE: 35%; R=30000; [M+H]+
Name: 3-nitrobenzanthrone
Name: 3-nitrobenzo[b]phenalen-7-one
Formula: C17H9NO3
Exact mass: 275.0582
SMILES: c1ccc2c(c1)c1c3c(c(cc1)[N+](=O)[O-])cccc3C2=O
InChI: InChI=1S/C17H9NO3/c19-17-12-5-2-1-4-10(12)11-8-9-15(18(20)21)13-6-3-7-14(17)16(11)13/h1-9H
Instrument: LTQ Orbitrap XL Thermo Scientific
Instrument type: ESI-ITFT
Ms type: MS2
Ion mode: POSITIVE
Ionization: ESI
Fragmentation mode: CID
Collision energy: 35 % (nominal)
Resolution: 30000
Column name: N/A
Retention time: N/A min
Base peak: 276.0655
Precursor m/z: 276.0655
Precursor type: [M+H]+
m/z	relative intensity	assigned
123.0229	1	C10H3+
209.9827	2	C11NO4+
218.0728	15	C16H10O+
230.0728	999	C17H10O+
231.0674	1	C16H9NO+
233.0605	2	C16H9O2+
246.0678	977	C17H10O2+
259.0632	235	C17H9NO2+
276.0666	2	C17H10NO3+
