Mass spectrum: 2-Methylbenzothiazole; LC-ESI-ITFT; MS2; CE: 90%; R=15000; [M+H]+
Name: 2-Methylbenzothiazole
Name: 2-methyl-1,3-benzothiazole
Formula: C8H7NS
Exact mass: 149.029920224
SMILES: CC1=NC2=CC=CC=C2S1
InChI: InChI=1S/C8H7NS/c1-6-9-7-4-2-3-5-8(7)10-6/h2-5H,1H3
Instrument: LTQ Orbitrap XL Thermo Scientific
Instrument type: LC-ESI-ITFT
Ms type: MS2
Ion mode: POSITIVE
Ionization: ESI
Fragmentation mode: HCD
Collision energy: 90 % (nominal)
Resolution: 15000
Column name: Kinetex Evo C18 2.6 um 50 x 2.1 mm
Retention time: 9.247 min
Base peak: 221.0749
Precursor m/z: 150.0372
Precursor type: [M+H]+
Precursor intensity: 11572361
m/z	relative intensity	assigned
65.0384	48	C5H5+
68.9793	3	C3HS+
106.0652	5	C7H8N+
108.0031	3	C6H4S+
109.0107	999	C6H5S+
111.0263	4	C6H7S+
116.0496	1	C8H6N+
117.0573	20	C8H7N+
123.0265	1	C7H7S+
135.0136	2	C7H5NS+
149.0296	7	C8H7NS+
150.0372	821	C8H8NS+
