Mass spectrum: Metolachlor; LC-ESI-ITFT; MS2; CE: 50%; R=15000; [M+H]+
Name: Metolachlor
Name: 2-chloro-N-(2-ethyl-6-methylphenyl)-N-(1-methoxypropan-2-yl)acetamide
Formula: C15H22ClNO2
Exact mass: 283.133906624
SMILES: CCC1=CC=CC(C)=C1N(C(C)COC)C(=O)CCl
InChI: InChI=1S/C15H22ClNO2/c1-5-13-8-6-7-11(2)15(13)17(14(18)9-16)12(3)10-19-4/h6-8,12H,5,9-10H2,1-4H3
Instrument: LTQ Orbitrap XL Thermo Scientific
Instrument type: LC-ESI-ITFT
Ms type: MS2
Ion mode: POSITIVE
Ionization: ESI
Fragmentation mode: HCD
Collision energy: 50 % (nominal)
Resolution: 15000
Column name: Kinetex Evo C18 2.6 um 50 x 2.1 mm
Retention time: 11.802 min
Base peak: 284.1416
Precursor m/z: 284.1412
Precursor type: [M+H]+
Precursor intensity: 45288328
m/z	relative intensity	assigned
73.0645	84	C4H9O+
76.9787	6	C2H2ClO+
119.0857	8	C9H11+
133.0887	7	C9H11N+
134.0963	23	C9H12N+
135.0801	5	C9H11O+
145.0887	8	C10H11N+
146.0962	30	C10H12N+
148.1119	10	C10H14N+
158.096	16	C11H12N+
159.1043	8	C11H13N+
160.1118	26	C11H14N+
174.1275	8	C12H16N+
176.1431	628	C12H18N+
184.0522	21	C9H11ClNO+
194.073	21	C11H13ClN+
212.0833	46	C14H12O2+
252.1146	999	C14H19ClNO+
