Mass spectrum: 2-Amino-3,8-dimethylimidazo-[4,5-f]quinoxaline (MeIQx); LC-ESI-ITFT; MS2; CE: 80%; R=15000; [M+H]+
Name: 2-Amino-3,8-dimethylimidazo-[4,5-f]quinoxaline (MeIQx)
Name: Meiqx
Name: 3,8-dimethylimidazo[4,5-f]quinoxalin-2-amine
Formula: C11H11N5
Exact mass: 213.101445352
SMILES: CN1C(N)=NC2=C1C=CC1=NC=C(C)N=C21
InChI: InChI=1S/C11H11N5/c1-6-5-13-7-3-4-8-10(9(7)14-6)15-11(12)16(8)2/h3-5H,1-2H3,(H2,12,15)
Instrument: LTQ Orbitrap XL Thermo Scientific
Instrument type: LC-ESI-ITFT
Ms type: MS2
Ion mode: POSITIVE
Ionization: ESI
Fragmentation mode: HCD
Collision energy: 80 % (nominal)
Resolution: 15000
Column name: Kinetex Evo C18 2.6 um 50 x 2.1 mm
Retention time: 1.867 min
Base peak: 136.1122
Precursor m/z: 214.1087
Precursor type: [M+H]+
Precursor intensity: 10408160
m/z	relative intensity	assigned
82.0523	6	C4H6N2+
104.0493	14	C7H6N+
105.0445	12	C6H5N2+
117.0446	2	C7H5N2+
118.0649	5	C8H8N+
119.0602	8	C7H7N2+
129.0445	8	C8H5N2+
131.0476	50	C7H5N3+
131.0601	5	C8H7N2+
132.0557	3	C7H6N3+
132.0678	2	C8H8N2+
133.0758	3	C8H9N2+
143.0602	11	C9H7N2+
144.0556	1	C8H6N3+
144.0681	5	C9H8N2+
145.063	2	C8H7N3+
145.0759	22	C9H9N2+
146.0711	201	C8H8N3+
156.0554	42	C9H6N3+
157.0633	5	C9H7N3+
158.0584	10	C8H6N4+
158.0712	9	C9H8N3+
159.0665	1	C8H7N4+
159.0787	4	C9H9N3+
160.0867	53	C9H10N3+
161.0824	3	C8H9N4+
170.0711	23	C10H8N3+
171.0664	15	C9H7N4+
171.0788	3	C10H9N3+
172.0742	103	C9H8N4+
172.0867	124	C10H10N3+
173.0819	233	C9H9N4+
174.0771	19	C8H8N5+
185.0818	7	C10H9N4+
187.0976	98	C10H11N4+
188.0929	2	C9H10N5+
195.0657	1	C11H7N4+
197.082	66	C11H9N4+
198.0771	10	C10H8N5+
198.0899	10	C11H10N4+
199.0849	999	C10H9N5+
212.0923	3	C11H10N5+
213.1008	12	C11H11N5+
214.1083	672	C11H12N5+
