Mass spectrum: Imazapyr; LC-ESI-ITFT; MS2; CE: 80%; R=15000; [M+H]+
Name: Imazapyr
Name: 2-(4-methyl-5-oxo-4-propan-2-yl-1H-imidazol-2-yl)pyridine-3-carboxylic acid
Formula: C13H15N3O3
Exact mass: 261.11134134
SMILES: CC(C)C1(C)N=C(NC1=O)C1=NC=CC=C1C(O)=O
InChI: InChI=1S/C13H15N3O3/c1-7(2)13(3)12(19)15-10(16-13)9-8(11(17)18)5-4-6-14-9/h4-7H,1-3H3,(H,17,18)(H,15,16,19)
Instrument: LTQ Orbitrap XL Thermo Scientific
Instrument type: LC-ESI-ITFT
Ms type: MS2
Ion mode: POSITIVE
Ionization: ESI
Fragmentation mode: HCD
Collision energy: 80 % (nominal)
Resolution: 15000
Column name: Kinetex Evo C18 2.6 um 50 x 2.1 mm
Retention time: 5.912 min
Base peak: 262.1196
Precursor m/z: 262.1186
Precursor type: [M+H]+
Precursor intensity: 28598478
m/z	relative intensity	assigned
58.065	5	C3H8N+
67.0541	20	C5H7+
69.0698	918	C5H9+
70.065	8	C4H8N+
71.0729	26	C4H9N+
72.0443	4	C3H6NO+
78.0338	66	C5H4N+
79.0417	17	C5H5N+
86.0965	999	C5H12N+
94.0288	9	C5H4NO+
96.0445	41	C5H6NO+
97.0648	13	C6H9O+
103.0291	26	C6H3N2+
104.037	80	C6H4N2+
105.0448	107	C6H5N2+
106.0288	16	C6H4NO+
107.0605	8	C6H7N2+
108.0445	6	C6H6NO+
110.06	6	C6H8NO+
121.0397	24	C6H5N2O+
124.0394	55	C6H6NO2+
130.065	5	C9H8N+
131.0241	654	C7H3N2O+
133.0397	130	C7H5N2O+
136.0396	14	C7H6NO2+
145.063	5	C8H7N3+
146.0718	4	C8H8N3+
147.0555	494	C8H7N2O+
148.0507	120	C7H6N3O+
149.0347	875	C7H5N2O2+
156.069	5	C10H8N2+
158.0845	6	C10H10N2+
171.0919	9	C11H11N2+
172.0513	5	C9H6N3O+
173.0585	25	C9H7N3O+
173.1076	9	C11H13N2+
174.0663	469	C9H8N3O+
175.0866	19	C10H11N2O+
177.0661	8	C9H9N2O2+
184.0631	11	C11H8N2O+
191.0691	34	C9H9N3O2+
199.0868	43	C12H11N2O+
201.0536	13	C10H7N3O2+
202.0613	280	C10H8N3O2+
217.0973	30	C12H13N2O2+
220.0718	9	C10H10N3O3+
