Mass spectrum: N-lauroylethanolamine; LC-ESI-ITFT; MS2; CE: 90%; R=15000; [M+H]+
Name: N-lauroylethanolamine
Name: N-(2-hydroxyethyl)dodecanamide
Formula: C14H29NO2
Exact mass: 243.2198
SMILES: CCCCCCCCCCCC(=O)NCCO
InChI: InChI=1S/C14H29NO2/c1-2-3-4-5-6-7-8-9-10-11-14(17)15-12-13-16/h16H,2-13H2,1H3,(H,15,17)
Instrument: LTQ Orbitrap XL Thermo Scientific
Instrument type: LC-ESI-ITFT
Ms type: MS2
Ion mode: POSITIVE
Ionization: ESI
Fragmentation mode: HCD
Collision energy: 90 % (nominal)
Resolution: 15000
Column name: Kinetex Evo C18 2.6 um 50 x 2.1 mm
Retention time: 13.015 min
Base peak: 244.227
Precursor m/z: 244.2271
Precursor type: [M+H]+
m/z	relative intensity	assigned
57.0697	237	C4H9+
62.0599	999	C2H8NO+
67.0541	359	C5H7+
71.0854	192	C5H11+
81.0699	435	C6H9+
95.0855	575	C7H11+
109.1011	110	C8H13+
