Mass spectrum: Imazalil; LC-ESI-ITFT; MS2; CE: 60%; R=15000; [M+H]+
Name: Imazalil
Name: Enilconazole
Name: 1-[2-(2,4-dichlorophenyl)-2-prop-2-enoxyethyl]imidazole
Formula: C14H14Cl2N2O
Exact mass: 296.048318428
SMILES: ClC1=CC=C(C(CN2C=CN=C2)OCC=C)C(Cl)=C1
InChI: InChI=1S/C14H14Cl2N2O/c1-2-7-19-14(9-18-6-5-17-10-18)12-4-3-11(15)8-13(12)16/h2-6,8,10,14H,1,7,9H2
Instrument: LTQ Orbitrap XL Thermo Scientific
Instrument type: LC-ESI-ITFT
Ms type: MS2
Ion mode: POSITIVE
Ionization: ESI
Fragmentation mode: HCD
Collision energy: 60 % (nominal)
Resolution: 15000
Column name: Kinetex Evo C18 2.6 um 50 x 2.1 mm
Retention time: 8.401 min
Base peak: 297.0569
Precursor m/z: 297.0556
Precursor type: [M+H]+
Precursor intensity: 16059361
m/z	relative intensity	assigned
69.0447	334	C3H5N2+
81.0448	164	C4H5N2+
82.0525	28	C4H6N2+
82.0652	42	C5H8N+
109.0762	223	C6H9N2+
141.07	37	C11H9+
149.0158	12	C9H6Cl+
150.0233	20	C9H7Cl+
158.9765	999	C7H5Cl2+
163.0314	5	C10H8Cl+
164.0389	24	C10H9Cl+
172.9921	207	C8H7Cl2+
175.0313	15	C11H8Cl+
176.0389	179	C11H9Cl+
184.9916	15	C9H7Cl2+
186.9714	22	C8H5Cl2O+
199.0073	11	C10H9Cl2+
200.9872	51	C9H7Cl2O+
203.0373	13	C11H8ClN2+
211.0074	6	C11H9Cl2+
255.0089	87	C11H9Cl2N2O+
297.0551	6	C14H15Cl2N2O+
