Mass spectrum: 2-Isopropylthioxanthone; LC-ESI-ITFT; MS2; CE: 20%; R=15000; [M+H]+
Name: 2-Isopropylthioxanthone
Name: 2-propan-2-ylthioxanthen-9-one
Formula: C16H14OS
Exact mass: 254.076536068
SMILES: CC(C)C1=CC=C2SC3=C(C=CC=C3)C(=O)C2=C1
InChI: InChI=1S/C16H14OS/c1-10(2)11-7-8-15-13(9-11)16(17)12-5-3-4-6-14(12)18-15/h3-10H,1-2H3
Instrument: LTQ Orbitrap XL Thermo Scientific
Instrument type: LC-ESI-ITFT
Ms type: MS2
Ion mode: POSITIVE
Ionization: ESI
Fragmentation mode: HCD
Collision energy: 20 % (nominal)
Resolution: 15000
Column name: Kinetex Evo C18 2.6 um 50 x 2.1 mm
Retention time: 13.621 min
Base peak: 255.0848
Precursor m/z: 255.0838
Precursor type: [M+H]+
Precursor intensity: 8795858
m/z	relative intensity	assigned
213.0369	9	C13H9OS+
255.0838	999	C16H15OS+
