Mass spectrum: Benalaxyl; LC-ESI-ITFT; MS2; CE: 20%; R=15000; [M+H]+
Name: Benalaxyl
Name: (+)-Benalaxyl
Name: methyl (2S)-2-(2,6-dimethyl-N-(2-phenylacetyl)anilino)propanoate
Formula: C20H23NO3
Exact mass: 325.167793596
SMILES: COC(=O)[C@H](C)N(C(=O)CC1=CC=CC=C1)C1=C(C)C=CC=C1C
InChI: InChI=1S/C20H23NO3/c1-14-9-8-10-15(2)19(14)21(16(3)20(23)24-4)18(22)13-17-11-6-5-7-12-17/h5-12,16H,13H2,1-4H3/t16-/m0/s1
Instrument: LTQ Orbitrap XL Thermo Scientific
Instrument type: LC-ESI-ITFT
Ms type: MS2
Ion mode: POSITIVE
Ionization: ESI
Fragmentation mode: HCD
Collision energy: 20 % (nominal)
Resolution: 15000
Column name: Kinetex Evo C18 2.6 um 50 x 2.1 mm
Retention time: 12.439 min
Base peak: 326.1763
Precursor m/z: 326.1751
Precursor type: [M+H]+
Precursor intensity: 38533980
m/z	relative intensity	assigned
91.0543	137	C7H7+
121.0886	8	C8H11N+
148.1122	730	C10H14N+
208.1334	999	C12H18NO2+
266.1542	239	C18H20NO+
294.1491	651	C19H20NO2+
326.1753	269	C20H24NO3+
