Mass spectrum: Pirimiphos-methyl; LC-ESI-ITFT; MS2; CE: 55; R=15000; [M+H]+
Name: Pirimiphos-methyl
Name: 4-Dimethoxyphosphinothioyloxy-N,N-diethyl-6-methylpyrimidin-2-amine
Formula: C11H20N3O3PS
Exact mass: 305.0963
SMILES: CCN(CC)C1=NC(C)=CC(OP(=S)(OC)OC)=N1
InChI: InChI=1S/C11H20N3O3PS/c1-6-14(7-2)11-12-9(3)8-10(13-11)17-18(19,15-4)16-5/h8H,6-7H2,1-5H3
Instrument: LTQ Orbitrap XL Thermo Scientific
Instrument type: LC-ESI-ITFT
Ms type: MS2
Ion mode: POSITIVE
Ionization: ESI
Fragmentation mode: CID
Collision energy: 55 (nominal)
Resolution: 15000
Column name: Kinetex Core-Shell C18 2.6 um, 3.0 x 100 mm, Phenomenex
Retention time: 26.211 min
Base peak: 305.1079
Precursor m/z: 306.1036
Precursor type: [M+H]+
m/z	relative intensity	assigned
95.0603	55	C5H7N2+
108.0556	58	C5H6N3+
109.076	22	C6H9N2+
123.0917	12	C7H11N2+
124.9821	13	C2H6O2PS+
136.0869	41	C7H10N3+
142.9926	5	C2H8O3PS+
151.027	11	C3H8N2O3P+
153.1023	73	C8H13N2O+
154.1056	102	C3H14N4O3+
164.1182	836	C9H14N3+
168.1133	16	C8H14N3O+
169.0794	133	C8H13N2S+
170.0827	218	C3H14N4O2S+
171.0243	4	C4H12O3PS+
179.058	25	C5H12N2O3P+
196.1445	100	C10H18N3O+
207.0894	133	C7H16N2O3P+
208.0195	7	C6H11NO3PS+
214.1104	6	C9H17N3OP+
220.0275	17	C9H7N3O2P+
233.0144	83	C7H10N2O3PS+
246.0462	133	C8H13N3O2PS+
247.1204	21	C10H20N2O3P+
250.0414	53	C7H13N3O3PS+
258.0998	10	C10H17N3O3P+
264.0555	4	C8H15N3O3PS+
274.0773	608	C10H17N3O2PS+
276.0566	9	C9H15N3O3PS+
278.0722	999	C9H17N3O3PS+
