Mass spectrum: 2-Isopropyl-6-methyl-pyrimidin-4-ol; LC-ESI-ITFT; MS2; CE: 70%; R=15000; [M+H]+
Name: 2-Isopropyl-6-methyl-pyrimidin-4-ol
Name: CID 17777
Name: 6-methyl-2-propan-2-yl-1H-pyrimidin-4-one
Formula: C8H12N2O
Exact mass: 152.094963004
SMILES: CC(C)C1=NC(C)=CC(=O)N1
InChI: InChI=1S/C8H12N2O/c1-5(2)8-9-6(3)4-7(11)10-8/h4-5H,1-3H3,(H,9,10,11)
Instrument: LTQ Orbitrap XL Thermo Scientific
Instrument type: LC-ESI-ITFT
Ms type: MS2
Ion mode: POSITIVE
Ionization: ESI
Fragmentation mode: HCD
Collision energy: 70 % (nominal)
Resolution: 15000
Column name: Kinetex Evo C18 2.6 um 50 x 2.1 mm
Retention time: 1.545 min
Base peak: 153.1028
Precursor m/z: 153.1022
Precursor type: [M+H]+
Precursor intensity: 18562942
m/z	relative intensity	assigned
70.065	296	C4H8N+
84.0444	999	C4H6NO+
108.0809	2	C7H10N+
112.0756	2	C6H10NO+
136.0758	2	C8H10NO+
137.0711	3	C7H9N2O+
138.0789	11	C7H10N2O+
153.1024	813	C8H13N2O+
