Mass spectrum: Lauric isopropanolamide; LC-ESI-ITFT; MS2; CE: 70%; R=15000; [M+H]+
Name: Lauric isopropanolamide
Name: N-(2-hydroxypropyl)dodecanamide
Formula: C15H31NO2
Exact mass: 257.235479232
SMILES: CCCCCCCCCCCC(=O)NCC(C)O
InChI: InChI=1S/C15H31NO2/c1-3-4-5-6-7-8-9-10-11-12-15(18)16-13-14(2)17/h14,17H,3-13H2,1-2H3,(H,16,18)
Instrument: LTQ Orbitrap XL Thermo Scientific
Instrument type: LC-ESI-ITFT
Ms type: MS2
Ion mode: POSITIVE
Ionization: ESI
Fragmentation mode: HCD
Collision energy: 70 % (nominal)
Resolution: 15000
Column name: Kinetex Evo C18 2.6 um 50 x 2.1 mm
Retention time: 13.132 min
Base peak: 258.2433
Precursor m/z: 258.2428
Precursor type: [M+H]+
Precursor intensity: 54071488
m/z	relative intensity	assigned
67.054	76	C5H7+
69.0697	22	C5H9+
71.0853	214	C5H11+
76.0755	999	C3H10NO+
81.0698	67	C6H9+
83.0854	23	C6H11+
85.1011	55	C6H13+
95.0854	183	C7H11+
109.1011	37	C8H13+
