Mass spectrum: Diclofenac; LC-ESI-ITFT; MS2; CE: 40%; R=15000; [M+H]+
Name: Diclofenac
Name: 2-[2-(2,6-dichloroanilino)phenyl]acetic acid
Formula: C14H11Cl2NO2
Exact mass: 295.016683952
SMILES: OC(=O)CC1=C(NC2=C(Cl)C=CC=C2Cl)C=CC=C1
InChI: InChI=1S/C14H11Cl2NO2/c15-10-5-3-6-11(16)14(10)17-12-7-2-1-4-9(12)8-13(18)19/h1-7,17H,8H2,(H,18,19)
Instrument: LTQ Orbitrap XL Thermo Scientific
Instrument type: LC-ESI-ITFT
Ms type: MS2
Ion mode: POSITIVE
Ionization: ESI
Fragmentation mode: HCD
Collision energy: 40 % (nominal)
Resolution: 15000
Column name: Kinetex Evo C18 2.6 um 50 x 2.1 mm
Retention time: 12.070 min
Base peak: 116.9863
Precursor m/z: 296.024
Precursor type: [M+H]+
Precursor intensity: 101878.37
m/z	relative intensity	assigned
214.0427	172	C13H9ClN+
215.0505	999	C13H10ClN+
250.0194	80	C13H10Cl2N+
