Mass spectrum: Atenolol; LC-ESI-ITFT; MS2; CE: 80; R=15000; [M+H]+
Name: Atenolol
Name: 2-[4-[2-Hydroxy-3-(propan-2-ylamino)propoxy]phenyl]acetamide
Formula: C14H22N2O3
Exact mass: 266.1630
SMILES: CC(C)NCC(O)COC1=CC=C(CC(N)=O)C=C1
InChI: InChI=1S/C14H22N2O3/c1-10(2)16-8-12(17)9-19-13-5-3-11(4-6-13)7-14(15)18/h3-6,10,12,16-17H,7-9H2,1-2H3,(H2,15,18)
Instrument: LTQ Orbitrap XL Thermo Scientific
Instrument type: LC-ESI-ITFT
Ms type: MS2
Ion mode: POSITIVE
Ionization: ESI
Fragmentation mode: HCD
Collision energy: 80 (nominal)
Resolution: 15000
Column name: Kinetex Core-Shell C18 2.6 um, 3.0 x 100 mm, Phenomenex
Retention time: 6.668 min
Base peak: 163.1328
Precursor m/z: 267.1703
Precursor type: [M+H]+
m/z	relative intensity	assigned
72.0808	66	C4H10N+
74.0601	201	C3H8NO+
91.0543	176	C7H7+
93.0699	102	C7H9+
98.0965	34	C6H12N+
107.0492	181	C7H7O+
116.1071	46	C6H14NO+
117.0701	140	C9H9+
119.0492	119	C8H7O+
121.0649	154	C8H9O+
122.0601	30	C7H8NO+
133.0649	499	C9H9O+
134.0602	152	C8H8NO+
145.0649	999	C10H9O+
147.0441	43	C9H7O2+
162.0664	95	C8H8N3O+
162.0916	13	C10H12NO+
164.0709	30	C9H10NO2+
173.0604	18	C11H9O2+
178.0863	29	C10H12NO2+
