Mass spectrum: Gabapentin; LC-ESI-ITFT; MS2; CE: 80%; R=15000; [M+H]+
Name: Gabapentin
Name: 2-[1-(aminomethyl)cyclohexyl]acetic acid
Formula: C9H17NO2
Exact mass: 171.125928784
SMILES: NCC1(CC(O)=O)CCCCC1
InChI: InChI=1S/C9H17NO2/c10-7-9(6-8(11)12)4-2-1-3-5-9/h1-7,10H2,(H,11,12)
Instrument: LTQ Orbitrap XL Thermo Scientific
Instrument type: LC-ESI-ITFT
Ms type: MS2
Ion mode: POSITIVE
Ionization: ESI
Fragmentation mode: HCD
Collision energy: 80 % (nominal)
Resolution: 15000
Column name: Kinetex Evo C18 2.6 um 50 x 2.1 mm
Retention time: 0.628 min
Base peak: 60.0524
Precursor m/z: 172.1332
Precursor type: [M+H]+
Precursor intensity: 1195074.5
m/z	relative intensity	assigned
55.0179	471	C3H3O+
65.0388	3	C5H5+
67.0544	361	C5H7+
69.0337	5	C4H5O+
69.0701	22	C5H9+
71.0494	10	C4H7O+
72.0446	8	C3H6NO+
73.0285	8	C3H5O2+
77.0388	5	C6H5+
79.0546	14	C6H7+
80.0499	5	C5H6N+
81.0702	56	C6H9+
83.0859	12	C6H11+
91.0546	293	C7H7+
93.0703	275	C7H9+
95.0859	999	C7H11+
107.0858	6	C8H11+
109.1016	354	C8H13+
110.0969	73	C7H12N+
112.1125	26	C7H14N+
119.0861	366	C9H11+
126.1283	35	C8H16N+
136.1127	87	C9H14N+
137.0967	447	C9H13O+
154.1233	354	C9H16NO+
155.1074	6	C9H15O2+
172.1338	7	C9H18NO2+
