Mass spectrum: Trifloxystrobin; LC-ESI-ITFT; MS2; CE: 90%; R=15000; [M+H]+
Name: Trifloxystrobin
Name: methyl (2E)-2-methoxyimino-2-[2-[[(E)-1-[3-(trifluoromethyl)phenyl]ethylideneamino]oxymethyl]phenyl]acetate
Formula: C20H19F3N2O4
Exact mass: 408.129691748
SMILES: CO\N=C(\C(=O)OC)C1=C(CO\N=C(/C)C2=CC=CC(=C2)C(F)(F)F)C=CC=C1
InChI: InChI=1S/C20H19F3N2O4/c1-13(14-8-6-9-16(11-14)20(21,22)23)24-29-12-15-7-4-5-10-17(15)18(25-28-3)19(26)27-2/h4-11H,12H2,1-3H3/b24-13+,25-18+
Instrument: LTQ Orbitrap XL Thermo Scientific
Instrument type: LC-ESI-ITFT
Ms type: MS2
Ion mode: POSITIVE
Ionization: ESI
Fragmentation mode: HCD
Collision energy: 90 % (nominal)
Resolution: 15000
Column name: Kinetex Evo C18 2.6 um 50 x 2.1 mm
Retention time: 13.200 min
Base peak: 409.1376
Precursor m/z: 409.137
Precursor type: [M+H]+
Precursor intensity: 6942883
m/z	relative intensity	assigned
65.0387	5	C5H5+
79.0544	6	C6H7+
89.0389	105	C7H5+
90.0468	49	C7H6+
91.0546	91	C7H7+
103.0546	13	C8H7+
104.0498	8	C7H6N+
105.0448	5	C6H5N2+
105.0703	10	C8H9+
115.0421	33	C8H5N+
115.0548	4	C6H8FO+
116.05	218	C8H6N+
117.0578	98	C8H7N+
118.0656	77	C8H8N+
119.0495	8	C8H7O+
123.0358	82	C6H4FN2+
125.0203	33	C7H3F2+
130.0657	107	C9H8N+
131.0735	129	C9H9N+
132.045	42	C8H6NO+
132.0814	18	C9H10N+
133.0528	3	C8H7NO+
139.0064	9	C6H2FNO2+
141.0034	9	C3H2F3NO2+
143.0371	8	C9H5NO+
145.0265	999	C7H4F3+
146.0605	28	C9H8NO+
147.0684	3	C9H9NO+
152.0627	3	C12H8+
161.0476	8	C9H7NO2+
173.0329	46	C7H4F3N2+
186.0532	41	C9H7F3N+
189.0425	3	C10H7NO3+
