Mass spectrum: Fenpropimorph; LC-ESI-ITFT; MS2; CE: 60%; R=15000; [M+H]+
Name: Fenpropimorph
Name: (2S,6R)-4-[3-(4-tert-butylphenyl)-2-methylpropyl]-2,6-dimethylmorpholine
Formula: C20H33NO
Exact mass: 303.256214676
SMILES: CC(CN1C[C@H](C)O[C@H](C)C1)CC1=CC=C(C=C1)C(C)(C)C
InChI: InChI=1S/C20H33NO/c1-15(12-21-13-16(2)22-17(3)14-21)11-18-7-9-19(10-8-18)20(4,5)6/h7-10,15-17H,11-14H2,1-6H3/t15?,16-,17+
Instrument: LTQ Orbitrap XL Thermo Scientific
Instrument type: LC-ESI-ITFT
Ms type: MS2
Ion mode: POSITIVE
Ionization: ESI
Fragmentation mode: HCD
Collision energy: 60 % (nominal)
Resolution: 15000
Column name: Kinetex Evo C18 2.6 um 50 x 2.1 mm
Retention time: 9.321 min
Base peak: 304.2642
Precursor m/z: 304.2635
Precursor type: [M+H]+
Precursor intensity: 33165298
m/z	relative intensity	assigned
57.0696	158	C4H9+
58.0649	3	C3H8N+
59.0489	3	C3H7O+
70.065	7	C4H8N+
72.0807	17	C4H10N+
88.0757	7	C4H10NO+
91.0543	19	C7H7+
98.0964	266	C6H12N+
100.1124	2	C6H14N+
102.0913	8	C5H12NO+
105.0699	49	C8H9+
107.0855	4	C8H11+
112.1121	10	C7H14N+
114.0913	5	C6H12NO+
116.107	225	C6H14NO+
119.0855	48	C9H11+
128.1071	2	C7H14NO+
130.1227	264	C7H16NO+
131.0854	3	C10H11+
132.0934	27	C10H12+
133.1011	4	C10H13+
145.1014	2	C11H13+
147.1168	999	C11H15+
161.1326	28	C12H17+
189.1639	30	C14H21+
248.2016	5	C16H26NO+
304.2636	253	C20H34NO+
