Mass spectrum: Climbazole; LC-ESI-ITFT; MS2; CE: 40%; R=15000; [M+H]+
Name: Climbazole
Name: 1-(4-chlorophenoxy)-1-imidazol-1-yl-3,3-dimethylbutan-2-one
Formula: C15H17ClN2O2
Exact mass: 292.097855464
SMILES: CC(C)(C)C(=O)C(OC1=CC=C(Cl)C=C1)N1C=CN=C1
InChI: InChI=1S/C15H17ClN2O2/c1-15(2,3)13(19)14(18-9-8-17-10-18)20-12-6-4-11(16)5-7-12/h4-10,14H,1-3H3
Instrument: LTQ Orbitrap XL Thermo Scientific
Instrument type: LC-ESI-ITFT
Ms type: MS2
Ion mode: POSITIVE
Ionization: ESI
Fragmentation mode: HCD
Collision energy: 40 % (nominal)
Resolution: 15000
Column name: Kinetex Evo C18 2.6 um 50 x 2.1 mm
Retention time: 8.794 min
Base peak: 293.1063
Precursor m/z: 293.1051
Precursor type: [M+H]+
Precursor intensity: 58793668
m/z	relative intensity	assigned
57.0696	187	C4H9+
67.0541	13	C5H7+
69.0697	661	C5H9+
70.0774	6	C5H10+
82.0525	53	C4H6N2+
85.065	7	C5H9O+
103.0308	9	C5H8Cl+
109.0397	42	C5H5N2O+
113.0156	5	C6H6Cl+
115.0756	13	C6H11O2+
126.9946	19	C6H4ClO+
129.0101	125	C6H6ClO+
137.1073	31	C8H13N2+
141.0102	169	C7H6ClO+
155.0258	79	C8H8ClO+
161.0961	11	C11H13O+
166.11	34	C9H14N2O+
190.0994	4	C9H17ClNO+
197.0729	999	C11H14ClO+
225.0677	24	C12H14ClO2+
293.1052	49	C15H18ClN2O2+
