Mass spectrum: Fluvoxamine; LC-ESI-ITFT; MS2; CE: 40%; R=15000; [M+H]+
Name: Fluvoxamine
Name: 2-[[5-methoxy-1-[4-(trifluoromethyl)phenyl]pentylidene]amino]oxyethanamine
Formula: C15H21F3N2O2
Exact mass: 318.155512572
SMILES: COCCCCC(=NOCCN)C1=CC=C(C=C1)C(F)(F)F
InChI: InChI=1S/C15H21F3N2O2/c1-21-10-3-2-4-14(20-22-11-9-19)12-5-7-13(8-6-12)15(16,17)18/h5-8H,2-4,9-11,19H2,1H3
Instrument: LTQ Orbitrap XL Thermo Scientific
Instrument type: LC-ESI-ITFT
Ms type: MS2
Ion mode: POSITIVE
Ionization: ESI
Fragmentation mode: HCD
Collision energy: 40 % (nominal)
Resolution: 15000
Column name: Kinetex Evo C18 2.6 um 50 x 2.1 mm
Retention time: 8.985 min
Base peak: 319.1638
Precursor m/z: 319.1628
Precursor type: [M+H]+
Precursor intensity: 49229456
m/z	relative intensity	assigned
57.0696	28	C4H9+
62.0598	14	C2H8NO+
71.049	999	C4H7O+
87.0804	298	C5H11O+
131.0729	4	C9H9N+
172.0369	12	C8H5F3N+
174.0523	2	C8H7F3N+
185.0575	4	C10H8F3+
198.0527	5	C10H7F3N+
199.0606	3	C10H8F3N+
200.0681	156	C10H9F3N+
201.0708	4	C13H10FO+
212.0676	2	C11H9F3N+
214.0836	3	C11H11F3N+
224.0681	2	C12H9F3N+
226.0837	43	C12H11F3N+
227.0931	4	C14H13NO2+
228.0994	48	C12H13F3N+
229.1024	2	C15H14FO+
240.0997	4	C13H13F3N+
242.0911	6	C13H13F3O+
244.0943	53	C12H13F3NO+
258.1098	8	C13H15F3NO+
259.1173	6	C13H16F3NO+
260.1255	4	C13H17F3NO+
272.1253	4	C14H17F3NO+
302.1353	7	C15H19F3NO2+
