Mass spectrum: Pindolol; LC-ESI-ITFT; MS2; CE: 80; R=15000; [M+H]+
Name: Pindolol
Name: 1-(1H-Indol-4-yloxy)-3-(propan-2-ylamino)propan-2-ol
Formula: C14H20N2O2
Exact mass: 248.1525
SMILES: CC(C)NCC(O)COC1=CC=CC2=C1C=CN2
InChI: InChI=1S/C14H20N2O2/c1-10(2)16-8-11(17)9-18-14-5-3-4-13-12(14)6-7-15-13/h3-7,10-11,15-17H,8-9H2,1-2H3
Instrument: LTQ Orbitrap XL Thermo Scientific
Instrument type: LC-ESI-ITFT
Ms type: MS2
Ion mode: POSITIVE
Ionization: ESI
Fragmentation mode: HCD
Collision energy: 80 (nominal)
Resolution: 15000
Column name: Kinetex Core-Shell C18 2.6 um, 3.0 x 100 mm, Phenomenex
Retention time: 14.015 min
Base peak: 163.1328
Precursor m/z: 249.1598
Precursor type: [M+H]+
m/z	relative intensity	assigned
72.0807	251	C4H10N+
74.06	731	C3H8NO+
84.0808	22	C5H10N+
98.0964	131	C6H12N+
100.1121	177	C6H14N+
106.0651	164	C7H8N+
116.107	666	C6H14NO+
117.0699	273	C9H9+
118.0651	668	C8H8N+
129.0699	12	C10H9+
130.0652	77	C9H8N+
132.0445	108	C8H6NO+
132.0808	69	C9H10N+
133.0523	79	C8H7NO+
134.0601	999	C8H8NO+
143.0731	126	C10H9N+
144.0808	957	C10H10N+
145.0646	26	C10H9O+
146.06	382	C9H8NO+
154.0652	44	C11H8N+
155.0605	102	C10H7N2+
157.0525	26	C10H7NO+
160.0758	35	C10H10NO+
170.0605	22	C11H8NO+
172.0759	155	C11H10NO+
