Mass spectrum: Enalapril; LC-ESI-ITFT; MS2; CE: 30%; R=15000; [M+H]+
Name: Enalapril
Name: (2S)-1-[(2S)-2-[[(2S)-1-ethoxy-1-oxo-4-phenylbutan-2-yl]amino]propanoyl]pyrrolidine-2-carboxylic acid
Formula: C20H28N2O5
Exact mass: 376.199821996
SMILES: CCOC(=O)[C@H](CCC1=CC=CC=C1)N[C@@H](C)C(=O)N1CCC[C@H]1C(O)=O
InChI: InChI=1S/C20H28N2O5/c1-3-27-20(26)16(12-11-15-8-5-4-6-9-15)21-14(2)18(23)22-13-7-10-17(22)19(24)25/h4-6,8-9,14,16-17,21H,3,7,10-13H2,1-2H3,(H,24,25)/t14-,16-,17-/m0/s1
Instrument: LTQ Orbitrap XL Thermo Scientific
Instrument type: LC-ESI-ITFT
Ms type: MS2
Ion mode: POSITIVE
Ionization: ESI
Fragmentation mode: HCD
Collision energy: 30 % (nominal)
Resolution: 15000
Column name: Kinetex Evo C18 2.6 um 50 x 2.1 mm
Retention time: 8.091 min
Base peak: 377.2081
Precursor m/z: 377.2071
Precursor type: [M+H]+
Precursor intensity: 45257664
m/z	relative intensity	assigned
102.0551	3	C4H8NO2+
117.07	12	C9H9+
130.0864	41	C6H12NO2+
134.0966	14	C9H12N+
160.1123	20	C11H14N+
206.118	2	C12H16NO2+
206.1533	1	C13H20NO+
234.1491	999	C14H20NO2+
280.1545	2	C15H22NO4+
303.1706	178	C17H23N2O3+
377.2073	64	C20H29N2O5+
