Mass spectrum: Benalaxyl; ESI-ITFT; MS2; CE: 35%; R=30000; [M+H]+
Name: Benalaxyl
Name: methyl 2-(2,6-dimethyl-N-(2-phenylacetyl)anilino)propanoate
Formula: C20H23NO3
Exact mass: 325.1678
SMILES: O=C(N(c1c(cccc1C)C)C(C(=O)OC)C)Cc2ccccc2
InChI: InChI=1S/C20H23NO3/c1-14-9-8-10-15(2)19(14)21(16(3)20(23)24-4)18(22)13-17-11-6-5-7-12-17/h5-12,16H,13H2,1-4H3
Instrument: LTQ Orbitrap XL Thermo Scientific
Instrument type: ESI-ITFT
Ms type: MS2
Ion mode: POSITIVE
Ionization: ESI
Fragmentation mode: CID
Collision energy: 35 % (nominal)
Resolution: 30000
Column name: N/A
Retention time: N/A min
Base peak: 326.1751
Precursor m/z: 326.1751
Precursor type: [M+H]+
m/z	relative intensity	assigned
121.0887	1	C8H11N+
148.1123	46	C10H14N+
208.1334	153	C12H18NO2+
266.1546	124	C18H20NO+
294.15	999	C19H20NO2+
