Mass spectrum: Dimethylaminophenazone; LC-ESI-ITFT; MS2; CE: 55; R=15000; [M+H]+
Name: Dimethylaminophenazone
Name: Aminopyrin
Name: 4-(Dimethylamino)-1,5-dimethyl-2-phenylpyrazol-3-one
Formula: C13H17N3O
Exact mass: 231.1372
SMILES: CN(C)C1=C(C)N(C)N(C1=O)C1=CC=CC=C1
InChI: InChI=1S/C13H17N3O/c1-10-12(14(2)3)13(17)16(15(10)4)11-8-6-5-7-9-11/h5-9H,1-4H3
Instrument: LTQ Orbitrap XL Thermo Scientific
Instrument type: LC-ESI-ITFT
Ms type: MS2
Ion mode: POSITIVE
Ionization: ESI
Fragmentation mode: CID
Collision energy: 55 (nominal)
Resolution: 15000
Column name: Kinetex Core-Shell C18 2.6 um, 3.0 x 100 mm, Phenomenex
Retention time: 7.760 min
Base peak: 163.1328
Precursor m/z: 232.1444
Precursor type: [M+H]+
m/z	relative intensity	assigned
70.0651	76	C4H8N+
72.0808	30	C4H10N+
82.0652	6	C5H8N+
84.0808	17	C5H10N+
87.0917	27	C4H11N2+
97.0761	134	C5H9N2+
98.0839	154	C5H10N2+
99.0918	32	C5H11N2+
106.0654	8	C7H8N+
111.0917	611	C6H11N2+
113.1074	999	C6H13N2+
118.0654	24	C8H8N+
139.0868	112	C7H11N2O+
146.0602	70	C9H8NO+
147.092	25	C9H11N2+
149.1075	123	C9H13N2+
159.0919	189	C10H11N2+
175.0868	74	C10H11N2O+
177.1027	25	C10H13N2O+
187.0867	615	C11H11N2O+
188.0947	123	C11H12N2O+
189.1024	13	C11H13N2O+
201.1021	13	C12H13N2O+
204.1497	46	C12H18N3+
217.1214	34	C12H15N3O+
