Mass spectrum: Celecoxib; LC-ESI-ITFT; MS2; CE: 60%; R=15000; [M+H]+
Name: Celecoxib
Name: 4-[5-(4-methylphenyl)-3-(trifluoromethyl)pyrazol-1-yl]benzenesulfonamide
Formula: C17H14F3N3O2S
Exact mass: 381.075882348
SMILES: CC1=CC=C(C=C1)C1=CC(=NN1C1=CC=C(C=C1)S(N)(=O)=O)C(F)(F)F
InChI: InChI=1S/C17H14F3N3O2S/c1-11-2-4-12(5-3-11)15-10-16(17(18,19)20)22-23(15)13-6-8-14(9-7-13)26(21,24)25/h2-10H,1H3,(H2,21,24,25)
Instrument: LTQ Orbitrap XL Thermo Scientific
Instrument type: LC-ESI-ITFT
Ms type: MS2
Ion mode: POSITIVE
Ionization: ESI
Fragmentation mode: HCD
Collision energy: 60 % (nominal)
Resolution: 15000
Column name: Kinetex Evo C18 2.6 um 50 x 2.1 mm
Retention time: 12.023 min
Base peak: 552.1917
Precursor m/z: 382.0832
Precursor type: [M+H]+
Precursor intensity: 3841961.75
m/z	relative intensity	assigned
112.1126	131	C7H14N+
116.0626	70	C9H8+
117.0704	131	C9H9+
131.0741	58	C6H10FNO+
185.0455	76	C9H6F3N+
207.105	246	C12H14FNO+
208.1125	64	C15H14N+
232.1008	84	C13H13FN2O+
233.108	259	C13H14FN2O+
261.084	83	C14H11F2N2O+
262.0903	127	C17H11FN2+
263.0989	187	C14H13F2N2O+
267.0735	209	C13H10F3N2O+
275.0795	44	C15H10F3N2+
281.0893	478	C14H12F3N2O+
282.0972	999	C14H13F3N2O+
287.0794	220	C16H10F3N2+
300.0877	391	C17H11F3N2+
301.0954	583	C17H12F3N2+
302.1031	364	C17H13F3N2+
303.1113	179	C17H14F3N2+
342.0716	64	C17H13FN3O2S+
362.0775	902	C17H14F2N3O2S+
382.0823	59	C17H15F3N3O2S+
