Mass spectrum: Imidacloprid-guanidine; LC-ESI-ITFT; MS2; CE: 90%; R=15000; [M+H]+
Name: Imidacloprid-guanidine
Name: (2z)-1-[(6-Chloropyridin-3-Yl)methyl]imidazolidin-2-Imine
Name: 1-[(6-chloropyridin-3-yl)methyl]-4,5-dihydroimidazol-2-amine
Formula: C9H11ClN4
Exact mass: 210.067224032
SMILES: NC1=NCCN1CC1=CN=C(Cl)C=C1
InChI: InChI=1S/C9H11ClN4/c10-8-2-1-7(5-13-8)6-14-4-3-12-9(14)11/h1-2,5H,3-4,6H2,(H2,11,12)
Instrument: LTQ Orbitrap XL Thermo Scientific
Instrument type: LC-ESI-ITFT
Ms type: MS2
Ion mode: POSITIVE
Ionization: ESI
Fragmentation mode: HCD
Collision energy: 90 % (nominal)
Resolution: 15000
Column name: Kinetex Evo C18 2.6 um 50 x 2.1 mm
Retention time: 0.556 min
Base peak: 211.0751
Precursor m/z: 211.0745
Precursor type: [M+H]+
Precursor intensity: 4577255
m/z	relative intensity	assigned
57.0445	2	C2H5N2+
63.0227	10	C5H3+
65.0384	4	C5H5+
72.9839	8	C3H2Cl+
84.0556	63	C3H6N3+
85.0632	1	C3H7N3+
86.0714	2	C3H8N3+
90.0338	178	C6H4N+
91.0416	27	C6H5N+
98.9996	126	C5H4Cl+
106.0651	14	C7H8N+
108.0444	5	C3H9ClN2+
126.0105	999	C6H5ClN+
132.0556	2	C7H6N3+
133.076	22	C8H9N2+
134.0838	1	C8H10N2+
169.0528	1	C8H10ClN2+
175.098	4	C9H11N4+
176.1051	1	C9H12N4+
194.0474	1	C9H9ClN3+
211.0744	5	C9H12ClN4+
