Mass spectrum: Sulfapyridine; LC-ESI-ITFT; MS2; CE: 55; R=15000; [M+H]+
Name: Sulfapyridine
Name: 4-Amino-N-pyridin-2-ylbenzenesulfonamide
Formula: C11H11N3O2S
Exact mass: 249.0572
SMILES: NC1=CC=C(C=C1)S(=O)(=O)NC1=NC=CC=C1
InChI: InChI=1S/C11H11N3O2S/c12-9-4-6-10(7-5-9)17(15,16)14-11-3-1-2-8-13-11/h1-8H,12H2,(H,13,14)
Instrument: LTQ Orbitrap XL Thermo Scientific
Instrument type: LC-ESI-ITFT
Ms type: MS2
Ion mode: POSITIVE
Ionization: ESI
Fragmentation mode: HCD
Collision energy: 55 (nominal)
Resolution: 15000
Column name: Kinetex Core-Shell C18 2.6 um, 3.0 x 100 mm, Phenomenex
Retention time: 12.653 min
Base peak: 163.1328
Precursor m/z: 250.0645
Precursor type: [M+H]+
m/z	relative intensity	assigned
92.0495	804	C6H6N+
93.0444	24	C5H5N2+
93.0574	61	C6H7N+
94.0525	72	C5H6N2+
95.0604	429	C5H7N2+
108.0445	999	C6H6NO+
110.0602	26	C6H8NO+
156.0116	591	C6H6NO2S+
157.0068	82	C5H5N2O2S+
184.0872	476	C11H10N3+
250.065	35	C11H12N3O2S+
