Mass spectrum: N,N-Dimethyltetradecylamine-N-oxide; LC-ESI-ITFT; MS2; CE: 30%; R=15000; [M+H]+
Name: N,N-Dimethyltetradecylamine-N-oxide
Name: 1-Tetradecanamine, N,N-dimethyl-, N-oxide
Name: N,N-dimethyltetradecan-1-amine oxide
Formula: C16H35NO
Exact mass: 257.27186474
SMILES: CCCCCCCCCCCCCC[N+](C)(C)[O-]
InChI: InChI=1S/C16H35NO/c1-4-5-6-7-8-9-10-11-12-13-14-15-16-17(2,3)18/h4-16H2,1-3H3
Instrument: LTQ Orbitrap XL Thermo Scientific
Instrument type: LC-ESI-ITFT
Ms type: MS2
Ion mode: POSITIVE
Ionization: ESI
Fragmentation mode: HCD
Collision energy: 30 % (nominal)
Resolution: 15000
Column name: Kinetex Evo C18 2.6 um 50 x 2.1 mm
Retention time: 11.803 min
Base peak: 258.2794
Precursor m/z: 258.2791
Precursor type: [M+H]+
Precursor intensity: 15117801
m/z	relative intensity	assigned
240.2687	19	C16H34N+
258.2791	999	C16H36NO+
