Mass spectrum: Mebendazole; LC-ESI-ITFT; MS2; CE: 70%; R=15000; [M+H]+
Name: Mebendazole
Name: methyl N-(6-benzoyl-1H-benzimidazol-2-yl)carbamate
Formula: C16H13N3O3
Exact mass: 295.095691276
SMILES: COC(=O)NC1=NC2=C(N1)C=C(C=C2)C(=O)C1=CC=CC=C1
InChI: InChI=1S/C16H13N3O3/c1-22-16(21)19-15-17-12-8-7-11(9-13(12)18-15)14(20)10-5-3-2-4-6-10/h2-9H,1H3,(H2,17,18,19,21)
Instrument: LTQ Orbitrap XL Thermo Scientific
Instrument type: LC-ESI-ITFT
Ms type: MS2
Ion mode: POSITIVE
Ionization: ESI
Fragmentation mode: HCD
Collision energy: 70 % (nominal)
Resolution: 15000
Column name: Kinetex Evo C18 2.6 um 50 x 2.1 mm
Retention time: 9.741 min
Base peak: 296.1037
Precursor m/z: 296.103
Precursor type: [M+H]+
Precursor intensity: 53404820
m/z	relative intensity	assigned
77.0385	130	C6H5+
94.0416	1	C6H6O+
95.0491	26	C6H7O+
105.0335	911	C7H5O+
105.0446	77	C6H5N2+
130.0399	1	C7H4N3+
159.0427	15	C8H5N3O+
160.0505	20	C8H6N3O+
166.0652	4	C12H8N+
181.0757	1	C12H9N2+
186.0298	57	C9H4N3O2+
208.0869	14	C13H10N3+
236.082	12	C14H10N3O+
246.0662	3	C15H8N3O+
264.0767	999	C15H10N3O2+
