Mass spectrum: Ebastin; LC-ESI-ITFT; MS2; CE: 80%; R=15000; [M+H]+
Name: Ebastin
Name: Ebastine
Name: 4-(4-benzhydryloxypiperidin-1-yl)-1-(4-tert-butylphenyl)butan-1-one
Formula: C32H39NO2
Exact mass: 469.298079488
SMILES: CC(C)(C)C1=CC=C(C=C1)C(=O)CCCN1CCC(CC1)OC(C1=CC=CC=C1)C1=CC=CC=C1
InChI: InChI=1S/C32H39NO2/c1-32(2,3)28-18-16-25(17-19-28)30(34)15-10-22-33-23-20-29(21-24-33)35-31(26-11-6-4-7-12-26)27-13-8-5-9-14-27/h4-9,11-14,16-19,29,31H,10,15,20-24H2,1-3H3
Instrument: LTQ Orbitrap XL Thermo Scientific
Instrument type: LC-ESI-ITFT
Ms type: MS2
Ion mode: POSITIVE
Ionization: ESI
Fragmentation mode: HCD
Collision energy: 80 % (nominal)
Resolution: 15000
Column name: Kinetex Evo C18 2.6 um 50 x 2.1 mm
Retention time: 11.355 min
Base peak: 470.3049
Precursor m/z: 470.3054
Precursor type: [M+H]+
Precursor intensity: 9368825
m/z	relative intensity	assigned
55.054	3	C4H7+
57.0697	4	C4H9+
91.0542	31	C7H7+
93.0696	4	C7H9+
105.0698	46	C8H9+
117.07	5	C9H9+
118.0777	28	C9H10+
128.062	3	C10H8+
131.0854	6	C10H11+
132.0933	27	C10H12+
133.1012	8	C10H13+
141.0697	5	C11H9+
146.0726	113	C10H10O+
151.0541	8	C12H7+
152.062	263	C12H8+
161.0961	999	C11H13O+
165.0698	241	C13H9+
166.0776	101	C13H10+
167.0854	606	C13H11+
169.0647	5	C12H9O+
173.096	18	C12H13O+
188.1195	51	C13H16O+
203.1429	121	C14H19O+
