Mass spectrum: Diphenylphosphate; LC-ESI-ITFT; MS2; CE: 50%; R=15000; [M+H]+
Name: Diphenylphosphate
Name: Diphenyl phosphate
Name: diphenyl hydrogen phosphate
Formula: C12H11O4P
Exact mass: 250.039495462
SMILES: OP(=O)(OC1=CC=CC=C1)OC1=CC=CC=C1
InChI: InChI=1S/C12H11O4P/c13-17(14,15-11-7-3-1-4-8-11)16-12-9-5-2-6-10-12/h1-10H,(H,13,14)
Instrument: LTQ Orbitrap XL Thermo Scientific
Instrument type: LC-ESI-ITFT
Ms type: MS2
Ion mode: POSITIVE
Ionization: ESI
Fragmentation mode: HCD
Collision energy: 50 % (nominal)
Resolution: 15000
Column name: Kinetex Evo C18 2.6 um 50 x 2.1 mm
Retention time: 11.598 min
Base peak: 251.0477
Precursor m/z: 251.0468
Precursor type: [M+H]+
Precursor intensity: 4320617
m/z	relative intensity	assigned
53.0385	4	C4H5+
77.0387	871	C6H5+
94.0415	9	C6H6O+
95.0494	571	C6H7O+
98.9844	44	H4O4P+
129.0104	8	C5H6O2P+
151.0547	17	C12H7+
152.0625	303	C12H8+
153.0702	900	C12H9+
157.0052	69	C6H6O3P+
168.0575	5	C12H8O+
169.0654	10	C12H9O+
171.0809	21	C12H11O+
175.0159	342	C6H8O4P+
215.0261	136	C12H8O2P+
233.0368	362	C12H10O3P+
251.0474	999	C12H12O4P+
