Mass spectrum: Phenazone; LC-ESI-ITFT; MS2; CE: 70%; R=15000; [M+H]+
Name: Phenazone
Name: Antipyrine
Name: 1,5-dimethyl-2-phenylpyrazol-3-one
Formula: C11H12N2O
Exact mass: 188.094963004
SMILES: CN1N(C(=O)C=C1C)C1=CC=CC=C1
InChI: InChI=1S/C11H12N2O/c1-9-8-11(14)13(12(9)2)10-6-4-3-5-7-10/h3-8H,1-2H3
Instrument: LTQ Orbitrap XL Thermo Scientific
Instrument type: LC-ESI-ITFT
Ms type: MS2
Ion mode: POSITIVE
Ionization: ESI
Fragmentation mode: HCD
Collision energy: 70 % (nominal)
Resolution: 15000
Column name: Kinetex Evo C18 2.6 um 50 x 2.1 mm
Retention time: 5.809 min
Base peak: 189.1031
Precursor m/z: 189.1022
Precursor type: [M+H]+
Precursor intensity: 20516604
m/z	relative intensity	assigned
55.0177	11	C3H3O+
55.0541	5	C4H7+
56.0493	265	C3H6N+
58.065	243	C3H8N+
65.0385	31	C5H5+
68.0494	12	C4H6N+
69.0573	8	C4H7N+
70.0651	15	C4H8N+
77.0386	38	C6H5+
79.0543	6	C6H7+
81.0448	20	C4H5N2+
83.0604	2	C4H7N2+
86.0602	5	C4H8NO+
91.0544	57	C7H7+
92.0495	14	C6H6N+
93.0337	15	C6H5O+
93.0575	4	C6H7N+
94.0653	9	C6H8N+
95.0494	8	C6H7O+
95.0605	24	C5H7N2+
96.0445	20	C5H6NO+
96.0684	136	C5H8N2+
98.0602	54	C5H8NO+
103.0544	18	C8H7+
104.0497	317	C7H6N+
105.0337	16	C7H5O+
105.0449	14	C6H5N2+
105.0574	9	C7H7N+
105.0701	18	C8H9+
106.0653	193	C7H8N+
107.0607	2	C6H7N2+
107.0726	2	C7H9N+
111.0557	9	C5H7N2O+
115.0544	15	C9H7+
117.0575	31	C8H7N+
117.0701	83	C9H9+
118.0653	128	C8H8N+
120.0809	104	C8H10N+
121.0763	3	C7H9N2+
128.0492	2	C9H6N+
129.0575	9	C9H7N+
129.0701	2	C10H9+
130.0654	138	C9H8N+
131.0605	20	C8H7N2+
131.0731	171	C9H9N+
132.0683	14	C8H8N2+
132.081	82	C9H10N+
133.0524	25	C8H7NO+
133.0763	20	C8H9N2+
133.0891	2	C9H11N+
134.0966	27	C9H12N+
135.0552	5	C7H7N2O+
143.0735	5	C10H9N+
144.081	157	C10H10N+
145.0651	66	C10H9O+
145.0762	33	C9H9N2+
145.0891	10	C10H11N+
146.0841	160	C9H10N2+
146.0967	34	C10H12N+
147.0919	284	C9H11N2+
148.0759	17	C9H10NO+
149.0711	24	C8H9N2O+
155.0601	3	C10H7N2+
157.0525	23	C10H7NO+
158.0606	9	C10H8NO+
159.0557	5	C9H7N2O+
159.092	6	C10H11N2+
160.0999	11	C10H12N2+
161.1076	142	C10H13N2+
162.0906	3	C10H12NO+
172.076	27	C11H10NO+
173.0711	5	C10H9N2O+
174.079	138	C10H10N2O+
189.1025	999	C11H13N2O+
