Mass spectrum: Finasteride; LC-ESI-ITFT; MS2; CE: 80%; R=15000; [M+H]+
Name: Finasteride
Name: (1S,3aS,3bS,5aR,9aR,9bS,11aS)-N-tert-butyl-9a,11a-dimethyl-7-oxo-1,2,3,3a,3b,4,5,5a,6,9b,10,11-dodecahydroindeno[5,4-f]quinoline-1-carboxamide
Formula: C23H36N2O2
Exact mass: 372.277678392
SMILES: CC(C)(C)NC(=O)[C@H]1CC[C@H]2[C@@H]3CC[C@H]4NC(=O)C=C[C@]4(C)[C@H]3CC[C@]12C
InChI: InChI=1S/C23H36N2O2/c1-21(2,3)25-20(27)17-8-7-15-14-6-9-18-23(5,13-11-19(26)24-18)16(14)10-12-22(15,17)4/h11,13-18H,6-10,12H2,1-5H3,(H,24,26)(H,25,27)/t14-,15-,16-,17+,18+,22-,23+/m0/s1
Instrument: LTQ Orbitrap XL Thermo Scientific
Instrument type: LC-ESI-ITFT
Ms type: MS2
Ion mode: POSITIVE
Ionization: ESI
Fragmentation mode: HCD
Collision energy: 80 % (nominal)
Resolution: 15000
Column name: Kinetex Evo C18 2.6 um 50 x 2.1 mm
Retention time: 11.836 min
Base peak: 373.2855
Precursor m/z: 373.285
Precursor type: [M+H]+
Precursor intensity: 40029556
m/z	relative intensity	assigned
55.0176	7	C3H3O+
56.0493	13	C3H6N+
57.0696	999	C4H9+
67.0541	89	C5H7+
69.0333	725	C4H5O+
70.065	25	C4H8N+
72.0443	106	C3H6NO+
72.0806	9	C4H10N+
77.0386	6	C6H5+
79.0542	119	C6H7+
81.0698	265	C6H9+
82.065	11	C5H8N+
83.0855	29	C6H11+
86.06	58	C4H8NO+
91.0542	104	C7H7+
93.0699	322	C7H9+
94.0733	17	C2H10N2O2+
95.0855	699	C7H11+
96.0444	86	C5H6NO+
96.0807	13	C6H10N+
97.1009	10	C7H13+
98.06	101	C5H8NO+
105.0699	211	C8H9+
106.0654	5	C7H8N+
107.0855	248	C8H11+
108.0809	22	C7H10N+
109.0522	24	C6H7NO+
109.0648	16	C7H9O+
109.1012	97	C8H13+
110.06	82	C6H8NO+
110.0965	16	C7H12N+
117.0699	33	C9H9+
119.0855	188	C9H11+
120.0811	7	C8H10N+
120.0891	13	C4H12N2O2+
121.0648	21	C8H9O+
121.1012	121	C9H13+
122.06	63	C7H8NO+
122.0962	8	C8H12N+
123.0679	16	C7H9NO+
124.0757	59	C7H10NO+
126.0912	24	C7H12NO+
128.0616	6	C10H8+
129.0699	21	C10H9+
131.0855	120	C10H11+
132.0893	7	C5H12N2O2+
133.1012	211	C10H13+
134.1044	14	C5H14N2O2+
135.0803	8	C9H11O+
135.1168	60	C10H15+
136.0755	24	C8H10NO+
138.0912	36	C8H12NO+
140.1072	17	C8H14NO+
141.0699	7	C11H9+
143.0856	74	C11H11+
145.1012	158	C11H13+
146.1047	15	C6H14N2O2+
147.0808	16	C10H11O+
147.1168	170	C11H15+
148.1202	16	C6H16N2O2+
149.0958	7	C10H13O+
149.1327	21	C11H17+
150.0917	13	C9H12NO+
152.107	5	C9H14NO+
155.0854	25	C12H11+
157.1013	50	C12H13+
159.0807	16	C11H11O+
159.1168	73	C12H15+
160.1126	10	C11H14N+
161.0961	37	C11H13O+
161.1324	59	C12H17+
164.1069	12	C10H14NO+
167.0854	6	C13H11+
169.1012	23	C13H13+
171.1169	40	C13H15+
173.0959	22	C12H13O+
173.1325	78	C13H17+
174.1357	8	C8H18N2O2+
175.1117	19	C12H15O+
175.1482	95	C13H19+
176.1075	6	C11H14NO+
176.1518	11	C8H20N2O2+
178.123	6	C11H16NO+
181.1014	15	C14H13+
183.117	14	C14H15+
185.1325	62	C14H17+
186.136	5	C9H18N2O2+
187.1482	160	C14H19+
188.1515	17	C9H20N2O2+
189.1638	50	C14H21+
194.154	8	C12H20NO+
195.1165	22	C15H15+
197.1328	29	C15H17+
199.1117	11	C14H15O+
199.1479	11	C15H19+
201.127	6	C14H17O+
204.1752	8	C14H22N+
209.1322	6	C16H17+
211.1484	6	C16H19+
213.1641	21	C16H21+
215.143	44	C15H19O+
220.1699	10	C14H22NO+
227.1788	9	C17H23+
232.1696	13	C15H22NO+
237.1638	8	C18H21+
240.1752	8	C17H22N+
249.1964	29	C15H25N2O+
254.1907	12	C18H24N+
255.1752	8	C18H23O+
272.2013	7	C18H26NO+
299.2119	24	C19H27N2O+
301.1898	8	C18H25N2O2+
305.2586	166	C19H33N2O+
357.2533	24	C22H33N2O2+
373.2859	13	C23H37N2O2+
