Mass spectrum: Monoethyl phthalate; LC-ESI-ITFT; MS2; CE: 35; R=15000; [M-H]-
Name: Monoethyl phthalate
Name: 2-Ethoxycarbonylbenzoic acid
Formula: C10H10O4
Exact mass: 194.0579
SMILES: CCOC(=O)C1=CC=CC=C1C(O)=O
InChI: InChI=1S/C10H10O4/c1-2-14-10(13)8-6-4-3-5-7(8)9(11)12/h3-6H,2H2,1H3,(H,11,12)
Instrument: LTQ Orbitrap XL Thermo Scientific
Instrument type: LC-ESI-ITFT
Ms type: MS2
Ion mode: NEGATIVE
Ionization: ESI
Fragmentation mode: CID
Collision energy: 35 (nominal)
Resolution: 15000
Column name: Kinetex Core-Shell C18 2.6 um, 3.0 x 100 mm, Phenomenex
Retention time: 20.516 min
Base peak: 212.9995
Precursor m/z: 193.0506
Precursor type: [M-H]-
m/z	relative intensity	assigned
77.0398	168	C6H5-
121.0295	376	C7H5O2-
121.0659	999	C8H9O-
147.0087	253	C8H3O3-
149.0608	627	C9H9O2-
165.0194	118	C8H5O4-
