Mass spectrum: Trifloxystrobin; LC-ESI-ITFT; MS2; CE: 35; R=15000; [M+H]+
Name: Trifloxystrobin
Name: (2E)-2-Methoxyimino-2-[2-[[(E)-1-[3-(trifluoromethyl)phenyl]ethylideneamino]oxymethyl]phenyl]acetate-methyl
Formula: C20H19F3N2O4
Exact mass: 408.1297
SMILES: CO\N=C(\C(=O)OC)C1=CC=CC=C1CO\N=C(/C)C1=CC(=CC=C1)C(F)(F)F
InChI: InChI=1S/C20H19F3N2O4/c1-13(14-8-6-9-16(11-14)20(21,22)23)24-29-12-15-7-4-5-10-17(15)18(25-28-3)19(26)27-2/h4-11H,12H2,1-3H3/b24-13+,25-18+
Instrument: LTQ Orbitrap XL Thermo Scientific
Instrument type: LC-ESI-ITFT
Ms type: MS2
Ion mode: POSITIVE
Ionization: ESI
Fragmentation mode: CID
Collision energy: 35 (nominal)
Resolution: 15000
Column name: Kinetex Core-Shell C18 2.6 um, 3.0 x 100 mm, Phenomenex
Retention time: 26.689 min
Base peak: 409.1365
Precursor m/z: 409.137
Precursor type: [M+H]+
m/z	relative intensity	assigned
116.0495	22	C8H6N+
117.0572	5	C8H7N+
118.0653	2	C8H8N+
119.0489	1	C8H7O+
128.0494	1	C9H6N+
130.0651	10	C9H8N+
131.073	30	C9H9N+
132.0445	6	C8H6NO+
132.0809	44	C9H10N+
143.0367	7	C9H5NO+
145.026	34	C7H4F3+
146.0601	80	C9H8NO+
147.068	3	C9H9NO+
148.0759	3	C9H10NO+
162.0916	15	C10H12NO+
173.0322	4	C7H4F3N2+
174.0549	4	C10H8NO2+
175.0629	12	C10H9NO2+
178.0866	11	C10H12NO2+
186.0526	662	C9H7F3N+
188.0973	2	C5H14F2N2O3+
206.0812	999	C11H12NO3+
377.1107	2	C19H16F3N2O3+
