Mass spectrum: Ethyl 4-(dimethylamino)benzoate; LC-ESI-ITFT; MS2; CE: 70%; R=15000; [M+H]+
Name: Ethyl 4-(dimethylamino)benzoate
Name: Ethyl 4-dimethylaminobenzoate
Formula: C11H15NO2
Exact mass: 193.11027872
SMILES: CCOC(=O)C1=CC=C(C=C1)N(C)C
InChI: InChI=1S/C11H15NO2/c1-4-14-11(13)9-5-7-10(8-6-9)12(2)3/h5-8H,4H2,1-3H3
Instrument: LTQ Orbitrap XL Thermo Scientific
Instrument type: LC-ESI-ITFT
Ms type: MS2
Ion mode: POSITIVE
Ionization: ESI
Fragmentation mode: HCD
Collision energy: 70 % (nominal)
Resolution: 15000
Column name: Kinetex Evo C18 2.6 um 50 x 2.1 mm
Retention time: 11.191 min
Base peak: 180.0815
Precursor m/z: 194.1176
Precursor type: [M+H]+
Precursor intensity: 18754966
m/z	relative intensity	assigned
91.0542	4	C7H7+
106.0653	6	C7H8N+
107.073	56	C7H9N+
116.0496	9	C8H6N+
120.0808	3	C8H10N+
121.0887	17	C8H11N+
122.0965	10	C8H12N+
134.0602	478	C8H8NO+
135.068	22	C8H9NO+
148.0757	2	C9H10NO+
150.0552	39	C8H8NO2+
151.0629	999	C8H9NO2+
164.0709	24	C9H10NO2+
166.0864	336	C9H12NO2+
178.0866	12	C10H12NO2+
179.0942	332	C10H13NO2+
