Mass spectrum: Metazachlor BH 479-9; LC-ESI-ITFT; MS2; CE: 60%; R=15000; [M+H]+
Name: Metazachlor BH 479-9
Name: 2-[2-[2,6-dimethyl-N-(pyrazol-1-ylmethyl)anilino]-2-oxoethyl]sulfinylacetic acid
Formula: C16H19N3O4S
Exact mass: 349.109627088
SMILES: CC1=CC=CC(C)=C1N(CN1C=CC=N1)C(=O)CS(=O)CC(O)=O
InChI: InChI=1S/C16H19N3O4S/c1-12-5-3-6-13(2)16(12)19(11-18-8-4-7-17-18)14(20)9-24(23)10-15(21)22/h3-8H,9-11H2,1-2H3,(H,21,22)
Instrument: LTQ Orbitrap XL Thermo Scientific
Instrument type: LC-ESI-ITFT
Ms type: MS2
Ion mode: POSITIVE
Ionization: ESI
Fragmentation mode: HCD
Collision energy: 60 % (nominal)
Resolution: 15000
Column name: Kinetex Evo C18 2.6 um 50 x 2.1 mm
Retention time: 8.253 min
Base peak: 116.9863
Precursor m/z: 350.1169
Precursor type: [M+H]+
Precursor intensity: 1236185.75
m/z	relative intensity	assigned
69.0446	1	C3H5N2+
88.9692	37	C2HO2S+
105.0699	11	C8H9+
106.9798	2	C2H3O3S+
130.9799	12	C4H3O3S+
132.0809	5	C9H10N+
133.0888	9	C3H17O3S+
134.0965	999	C9H12N+
146.0964	1	C10H12N+
148.9904	16	C4H5O4S+
160.076	4	C4H16O4S+
168.9934	2	C5H3N3O2S+
175.0993	11	C11H13NO+
