Mass spectrum: 2-(Methylthio)benzothiazole; LC-ESI-ITFT; MS2; CE: 90%; R=15000; [M+H]+
Name: 2-(Methylthio)benzothiazole
Name: 2-methylsulfanyl-1,3-benzothiazole
Formula: C8H7NS2
Exact mass: 181.001991224
SMILES: CSC1=NC2=CC=CC=C2S1
InChI: InChI=1S/C8H7NS2/c1-10-8-9-6-4-2-3-5-7(6)11-8/h2-5H,1H3
Instrument: LTQ Orbitrap XL Thermo Scientific
Instrument type: LC-ESI-ITFT
Ms type: MS2
Ion mode: POSITIVE
Ionization: ESI
Fragmentation mode: HCD
Collision energy: 90 % (nominal)
Resolution: 15000
Column name: Kinetex Evo C18 2.6 um 50 x 2.1 mm
Retention time: 10.788 min
Base peak: 182.0098
Precursor m/z: 182.0093
Precursor type: [M+H]+
Precursor intensity: 7767739.5
m/z	relative intensity	assigned
63.9435	7	S2+
91.0418	25	C6H5N+
103.0419	8	C7H5N+
108.003	3	C6H4S+
109.0109	54	C6H5S+
123.014	43	C6H5NS+
124.0344	1	C7H8S+
134.0065	1	C7H4NS+
135.014	61	C7H5NS+
136.0218	7	C7H6NS+
139.9752	13	C6H4S2+
149.0297	2	C8H7NS+
150.0374	1	C8H8NS+
165.9786	2	C7H4NS2+
166.9861	999	C7H5NS2+
182.0096	103	C8H8NS2+
