Mass spectrum: Pethoxamid; LC-ESI-ITFT; MS2; CE: 55; R=15000; [M+H]+
Name: Pethoxamid
Name: 2-Chloro-N-(2-ethoxyethyl)-N-(2-methyl-1-phenylprop-1-enyl)acetamide
Formula: C16H22ClNO2
Exact mass: 295.1339
SMILES: CCOCCN(C(=O)CCl)C(=C(C)C)C1=CC=CC=C1
InChI: InChI=1S/C16H22ClNO2/c1-4-20-11-10-18(15(19)12-17)16(13(2)3)14-8-6-5-7-9-14/h5-9H,4,10-12H2,1-3H3
Instrument: LTQ Orbitrap XL Thermo Scientific
Instrument type: LC-ESI-ITFT
Ms type: MS2
Ion mode: POSITIVE
Ionization: ESI
Fragmentation mode: HCD
Collision energy: 55 (nominal)
Resolution: 15000
Column name: Kinetex Core-Shell C18 2.6 um, 3.0 x 100 mm, Phenomenex
Retention time: 25.309 min
Base peak: 296.1409
Precursor m/z: 296.1412
Precursor type: [M+H]+
m/z	relative intensity	assigned
73.0647	14	C4H9O+
91.0541	180	C7H7+
103.0541	4	C8H7+
104.0494	7	C7H6N+
105.0698	31	C8H9+
115.054	5	C9H7+
116.0619	24	C9H8+
120.021	7	C4H7ClNO+
129.0699	57	C10H9+
131.0854	999	C10H11+
132.0807	4	C9H10N+
134.0365	3	C5H9ClNO+
146.0964	8	C10H12N+
148.1119	8	C10H14N+
158.0964	2	C11H12N+
159.1038	2	C11H13N+
160.112	130	C11H14N+
172.1123	5	C12H14N+
174.1278	24	C12H16N+
220.1696	87	C14H22NO+
250.0993	8	C14H17ClNO+
