Mass spectrum: Finasteride; LC-ESI-ITFT; MS2; CE: 70%; R=15000; [M+H]+
Name: Finasteride
Name: (1S,3aS,3bS,5aR,9aR,9bS,11aS)-N-tert-butyl-9a,11a-dimethyl-7-oxo-1,2,3,3a,3b,4,5,5a,6,9b,10,11-dodecahydroindeno[5,4-f]quinoline-1-carboxamide
Formula: C23H36N2O2
Exact mass: 372.277678392
SMILES: CC(C)(C)NC(=O)[C@H]1CC[C@H]2[C@@H]3CC[C@H]4NC(=O)C=C[C@]4(C)[C@H]3CC[C@]12C
InChI: InChI=1S/C23H36N2O2/c1-21(2,3)25-20(27)17-8-7-15-14-6-9-18-23(5,13-11-19(26)24-18)16(14)10-12-22(15,17)4/h11,13-18H,6-10,12H2,1-5H3,(H,24,26)(H,25,27)/t14-,15-,16-,17+,18+,22-,23+/m0/s1
Instrument: LTQ Orbitrap XL Thermo Scientific
Instrument type: LC-ESI-ITFT
Ms type: MS2
Ion mode: POSITIVE
Ionization: ESI
Fragmentation mode: HCD
Collision energy: 70 % (nominal)
Resolution: 15000
Column name: Kinetex Evo C18 2.6 um 50 x 2.1 mm
Retention time: 11.836 min
Base peak: 373.2855
Precursor m/z: 373.285
Precursor type: [M+H]+
Precursor intensity: 40029556
m/z	relative intensity	assigned
57.0696	999	C4H9+
67.054	56	C5H7+
69.0333	734	C4H5O+
70.065	18	C4H8N+
72.0442	93	C3H6NO+
79.0542	65	C6H7+
81.0698	233	C6H9+
83.0853	26	C6H11+
86.06	76	C4H8NO+
91.0541	60	C7H7+
93.0698	251	C7H9+
95.0855	642	C7H11+
96.0443	78	C5H6NO+
96.0807	14	C6H10N+
98.0599	131	C5H8NO+
105.0698	130	C8H9+
107.0854	250	C8H11+
108.0811	17	C7H10N+
109.0651	11	C7H9O+
109.1011	96	C8H13+
110.06	61	C6H8NO+
110.0961	12	C7H12N+
117.0702	22	C9H9+
119.0854	147	C9H11+
121.0646	29	C8H9O+
121.101	155	C9H13+
122.0599	52	C7H8NO+
124.0756	56	C7H10NO+
126.0914	50	C7H12NO+
129.0695	13	C10H9+
131.0854	81	C10H11+
133.1011	185	C10H13+
135.0802	12	C9H11O+
135.1168	86	C10H15+
136.0757	16	C8H10NO+
138.0912	55	C8H12NO+
143.0853	58	C11H11+
145.1011	140	C11H13+
147.0805	21	C10H11O+
147.1167	200	C11H15+
149.0962	24	C10H13O+
149.1323	37	C11H17+
150.0915	18	C9H12NO+
152.1067	17	C9H14NO+
155.0855	24	C12H11+
157.1011	43	C12H13+
159.0804	17	C11H11O+
159.1168	78	C12H15+
161.0958	40	C11H13O+
161.1323	69	C12H17+
164.1066	19	C10H14NO+
166.1231	13	C10H16NO+
169.1006	23	C13H13+
171.1167	41	C13H15+
173.1324	109	C13H17+
175.1116	30	C12H15O+
175.148	244	C13H19+
176.1065	21	C11H14NO+
177.1634	11	C13H21+
178.1225	20	C11H16NO+
183.1167	22	C14H15+
185.1324	97	C14H17+
187.148	218	C14H19+
189.1635	145	C14H21+
190.1223	11	C12H16NO+
195.1165	26	C15H15+
197.132	35	C15H17+
199.1124	13	C14H15O+
199.1475	19	C15H19+
201.1275	20	C14H17O+
201.1631	16	C15H21+
203.1432	26	C14H19O+
213.1637	38	C16H21+
215.1429	79	C15H19O+
215.1797	11	C16H23+
220.1693	59	C14H22NO+
227.1796	34	C17H23+
232.1693	35	C15H22NO+
237.1636	42	C18H21+
249.1958	63	C15H25N2O+
254.1904	16	C18H24N+
255.1744	40	C18H23O+
272.2013	22	C18H26NO+
274.2168	15	C18H28NO+
299.2112	23	C19H27N2O+
305.2584	877	C19H33N2O+
317.2222	21	C19H29N2O2+
331.275	15	C21H35N2O+
355.274	32	C23H35N2O+
357.2532	31	C22H33N2O2+
373.2844	185	C23H37N2O2+
