Mass spectrum: Epoxiconazole; LC-ESI-ITFT; MS2; CE: 30%; R=15000; [M+H]+
Name: Epoxiconazole
Name: 1-{[3-(2-chlorophenyl)-2-(4-fluorophenyl)oxiran-2-yl]methyl}-1H-1,2,4-triazole
Name: 1-[[3-(2-chlorophenyl)-2-(4-fluorophenyl)oxiran-2-yl]methyl]-1,2,4-triazole
Formula: C17H13ClFN3O
Exact mass: 329.073117936
SMILES: FC1=CC=C(C=C1)C1(CN2C=NC=N2)OC1C1=C(Cl)C=CC=C1
InChI: InChI=1S/C17H13ClFN3O/c18-15-4-2-1-3-14(15)16-17(23-16,9-22-11-20-10-21-22)12-5-7-13(19)8-6-12/h1-8,10-11,16H,9H2
Instrument: LTQ Orbitrap XL Thermo Scientific
Instrument type: LC-ESI-ITFT
Ms type: MS2
Ion mode: POSITIVE
Ionization: ESI
Fragmentation mode: HCD
Collision energy: 30 % (nominal)
Resolution: 15000
Column name: Kinetex Evo C18 2.6 um 50 x 2.1 mm
Retention time: 11.886 min
Base peak: 330.081
Precursor m/z: 330.0804
Precursor type: [M+H]+
Precursor intensity: 35596012
m/z	relative intensity	assigned
70.0397	75	C2H4N3+
113.0156	1	C6H6Cl+
121.0447	999	C8H6F+
123.0239	259	C7H4FO+
129.0445	6	C8H5N2+
138.9945	13	C7H4ClO+
141.0101	147	C7H6ClO+
190.0776	3	C10H9FN3+
233.0527	3	C14H11ClF+
261.0475	4	C15H11ClFO+
330.0801	110	C17H14ClFN3O+
