Mass spectrum: Warfarin; LC-ESI-ITFT; MS2; CE: 55; R=15000; [M+H]+
Name: Warfarin
Name: 4-Cydroxy-3-(3-oxo-1-phenylbutyl)chromen-2-one
Formula: C19H16O4
Exact mass: 308.1049
SMILES: CC(=O)CC(C1=CC=CC=C1)C1=C(O)C2=CC=CC=C2OC1=O
InChI: InChI=1S/C19H16O4/c1-12(20)11-15(13-7-3-2-4-8-13)17-18(21)14-9-5-6-10-16(14)23-19(17)22/h2-10,15,21H,11H2,1H3
Instrument: LTQ Orbitrap XL Thermo Scientific
Instrument type: LC-ESI-ITFT
Ms type: MS2
Ion mode: POSITIVE
Ionization: ESI
Fragmentation mode: HCD
Collision energy: 55 (nominal)
Resolution: 15000
Column name: Kinetex Core-Shell C18 2.6 um, 3.0 x 100 mm, Phenomenex
Retention time: 24.707 min
Base peak: 230.1163
Precursor m/z: 309.1121
Precursor type: [M+H]+
m/z	relative intensity	assigned
77.0384	5	C6H5+
91.0542	8	C7H7+
95.0492	5	C6H7O+
103.054	5	C8H7+
105.0698	3	C8H9+
121.0283	101	C7H5O2+
129.0699	39	C10H9+
131.0491	51	C9H7O+
147.0804	102	C10H11O+
155.0855	63	C12H11+
157.0284	15	C10H5O2+
163.039	719	C9H7O3+
165.0695	6	C13H9+
167.0855	19	C13H11+
173.0233	135	C10H5O3+
175.0391	7	C10H7O3+
178.0775	7	C14H10+
179.0855	13	C14H11+
183.0804	169	C13H11O+
189.0548	17	C11H9O3+
191.0339	146	C10H7O4+
193.0761	2	C13H9N2+
195.0804	15	C14H11O+
205.065	17	C15H9O+
207.0807	5	C15H11O+
223.0753	97	C15H11O2+
233.0597	33	C16H9O2+
249.0542	4	C16H9O3+
251.0702	999	C16H11O3+
