Mass spectrum: Tepraloxydim; LC-ESI-ITFT; MS2; CE: 10%; R=15000; [M+H]+
Name: Tepraloxydim
Name: 2-Cyclohexen-1-one, 2-(1-((((2E)-3-chloro-2-propenyl)oxy)imino)propyl)-3-hydroxy-5-(tetrahydro-2H-pyran-4-yl)-
Name: 2-[N-[(E)-3-chloroprop-2-enoxy]-C-ethylcarbonimidoyl]-3-hydroxy-5-(oxan-4-yl)cyclohex-2-en-1-one
Formula: C17H24ClNO4
Exact mass: 341.139385928
SMILES: [H]\C(Cl)=C(\[H])CON=C(CC)C1=C(O)CC(CC1=O)C1CCOCC1
InChI: InChI=1S/C17H24ClNO4/c1-2-14(19-23-7-3-6-18)17-15(20)10-13(11-16(17)21)12-4-8-22-9-5-12/h3,6,12-13,20H,2,4-5,7-11H2,1H3/b6-3+,19-14?
Instrument: LTQ Orbitrap XL Thermo Scientific
Instrument type: LC-ESI-ITFT
Ms type: MS2
Ion mode: POSITIVE
Ionization: ESI
Fragmentation mode: HCD
Collision energy: 10 % (nominal)
Resolution: 15000
Column name: Kinetex Evo C18 2.6 um 50 x 2.1 mm
Retention time: 9.736 min
Base peak: 261.0066
Precursor m/z: 342.1467
Precursor type: [M+H]+
Precursor intensity: 1019065.19
m/z	relative intensity	assigned
250.1447	301	C14H20NO3+
252.1596	34	C14H22NO3+
342.1476	999	C17H25ClNO4+
