Mass spectrum: Paroxetine; LC-ESI-ITFT; MS2; CE: 35; R=15000; [M+H]+
Name: Paroxetine
Name: 3-(1,3-Benzodioxol-5-yloxymethyl)-4-(4-fluorophenyl)piperidine
Formula: C19H20FNO3
Exact mass: 329.1427
SMILES: FC1=CC=C(C=C1)C1CCNCC1COC1=CC2=C(OCO2)C=C1
InChI: InChI=1S/C19H20FNO3/c20-15-3-1-13(2-4-15)17-7-8-21-10-14(17)11-22-16-5-6-18-19(9-16)24-12-23-18/h1-6,9,14,17,21H,7-8,10-12H2
Instrument: LTQ Orbitrap XL Thermo Scientific
Instrument type: LC-ESI-ITFT
Ms type: MS2
Ion mode: POSITIVE
Ionization: ESI
Fragmentation mode: CID
Collision energy: 35 (nominal)
Resolution: 15000
Column name: Kinetex Core-Shell C18 2.6 um, 3.0 x 100 mm, Phenomenex
Retention time: 21.605 min
Base peak: 330.1499
Precursor m/z: 330.15
Precursor type: [M+H]+
m/z	relative intensity	assigned
103.0543	3	C8H7+
109.0449	39	C7H6F+
123.0443	19	C7H7O2+
123.0606	33	C8H8F+
133.0453	1	C9H6F+
135.0442	8	C8H7O2+
135.0606	18	C9H8F+
137.0764	16	C9H10F+
138.0719	3	C8H9FN+
139.039	2	C7H7O3+
147.0606	16	C10H8F+
149.0763	5	C10H10F+
150.0715	2	C9H9FN+
151.0391	210	C8H7O3+
160.0686	5	C11H9F+
161.06	9	C10H9O2+
161.0761	5	C11H10F+
163.092	51	C11H12F+
164.0866	2	C10H11FN+
165.0546	3	C9H9O3+
175.0391	7	C10H7O3+
175.092	65	C12H12F+
177.0549	4	C10H9O3+
178.103	24	C11H13FN+
180.1183	2	C11H15FN+
187.0759	3	C9H12FO3+
190.103	37	C12H13FN+
191.0702	2	C11H11O3+
192.1185	999	C12H15FN+
193.1264	13	C12H16FN+
203.0699	2	C12H11O3+
208.1135	49	C12H15FNO+
217.0859	4	C13H13O3+
234.1128	6	C13H16NO3+
255.0826	1	C16H12FO2+
255.1189	2	C17H16FO+
257.0984	2	C16H14FO2+
269.0978	8	C17H14FO2+
271.0775	1	C16H12FO3+
282.1294	2	C18H17FNO+
283.1133	10	C18H16FO2+
285.0934	4	C17H14FO3+
300.14	12	C18H19FNO2+
302.156	7	C18H21FNO2+
312.1391	2	C19H19FNO2+
313.1241	152	C19H18FO3+
330.1506	541	C19H21FNO3+
