Mass spectrum: Pindolol; LC-ESI-ITFT; MS2; CE: 70%; R=15000; [M+H]+
Name: Pindolol
Name: 1-(1H-indol-4-yloxy)-3-(propan-2-ylamino)propan-2-ol
Formula: C14H20N2O2
Exact mass: 248.15247788
SMILES: CC(C)NCC(O)COC1=CC=CC2=C1C=CN2
InChI: InChI=1S/C14H20N2O2/c1-10(2)16-8-11(17)9-18-14-5-3-4-13-12(14)6-7-15-13/h3-7,10-11,15-17H,8-9H2,1-2H3
Instrument: LTQ Orbitrap XL Thermo Scientific
Instrument type: LC-ESI-ITFT
Ms type: MS2
Ion mode: POSITIVE
Ionization: ESI
Fragmentation mode: HCD
Collision energy: 70 % (nominal)
Resolution: 15000
Column name: Kinetex Evo C18 2.6 um 50 x 2.1 mm
Retention time: 1.051 min
Base peak: 152.144
Precursor m/z: 249.1598
Precursor type: [M+H]+
Precursor intensity: 14101574
m/z	relative intensity	assigned
56.0493	435	C3H6N+
58.0649	156	C3H8N+
60.0806	5	C3H10N+
72.0807	586	C4H10N+
74.06	807	C3H8NO+
84.0808	15	C5H10N+
86.0964	13	C5H12N+
91.0544	6	C7H7+
98.0965	233	C6H12N+
100.1121	122	C6H14N+
104.0495	12	C7H6N+
106.0653	32	C7H8N+
115.0546	6	C9H7+
116.1071	999	C6H14NO+
117.0574	14	C8H7N+
117.0699	77	C9H9+
118.0652	213	C8H8N+
130.0653	48	C9H8N+
132.0445	52	C8H6NO+
132.0809	36	C9H10N+
133.0524	21	C8H7NO+
134.0602	524	C8H8NO+
143.0731	25	C10H9N+
144.0809	606	C10H10N+
145.0648	14	C10H9O+
146.0602	322	C9H8NO+
154.0653	19	C11H8N+
155.0605	20	C10H7N2+
157.052	8	C10H7NO+
160.0758	39	C10H10NO+
170.0596	6	C11H8NO+
171.068	7	C11H9NO+
172.0758	253	C11H10NO+
