Mass spectrum: Lenacil; LC-ESI-ITFT; MS2; CE: 90%; R=15000; [M+H]+
Name: Lenacil
Name: 3-cyclohexyl-1,5,6,7-tetrahydrocyclopenta[d]pyrimidine-2,4-dione
Formula: C13H18N2O2
Exact mass: 234.136827816
SMILES: O=C1NC2=C(CCC2)C(=O)N1C1CCCCC1
InChI: InChI=1S/C13H18N2O2/c16-12-10-7-4-8-11(10)14-13(17)15(12)9-5-2-1-3-6-9/h9H,1-8H2,(H,14,17)
Instrument: LTQ Orbitrap XL Thermo Scientific
Instrument type: LC-ESI-ITFT
Ms type: MS2
Ion mode: POSITIVE
Ionization: ESI
Fragmentation mode: HCD
Collision energy: 90 % (nominal)
Resolution: 15000
Column name: Kinetex Evo C18 2.6 um 50 x 2.1 mm
Retention time: 10.072 min
Base peak: 278.1061
Precursor m/z: 235.1441
Precursor type: [M+H]+
Precursor intensity: 4436803.5
m/z	relative intensity	assigned
55.0542	63	C4H7+
65.0386	9	C5H5+
67.0416	7	C4H5N+
80.0497	26	C5H6N+
82.0654	229	C5H8N+
83.0858	22	C6H11+
108.0448	8	C6H6NO+
109.0762	19	C6H9N2+
110.0604	257	C6H8NO+
135.0557	287	C7H7N2O+
136.0398	504	C7H6NO2+
153.0664	999	C7H9N2O2+
