Mass spectrum: Clonidine; LC-ESI-ITFT; MS2; CE: 60%; R=15000; [M+H]+
Name: Clonidine
Name: N-(2,6-dichlorophenyl)-4,5-dihydro-1H-imidazol-2-amine
Formula: C9H9Cl2N3
Exact mass: 229.017352648
SMILES: ClC1=CC=CC(Cl)=C1NC1=NCCN1
InChI: InChI=1S/C9H9Cl2N3/c10-6-2-1-3-7(11)8(6)14-9-12-4-5-13-9/h1-3H,4-5H2,(H2,12,13,14)
Instrument: LTQ Orbitrap XL Thermo Scientific
Instrument type: LC-ESI-ITFT
Ms type: MS2
Ion mode: POSITIVE
Ionization: ESI
Fragmentation mode: HCD
Collision energy: 60 % (nominal)
Resolution: 15000
Column name: Kinetex Evo C18 2.6 um 50 x 2.1 mm
Retention time: 0.556 min
Base peak: 230.0254
Precursor m/z: 230.0246
Precursor type: [M+H]+
Precursor intensity: 4227135.5
m/z	relative intensity	assigned
59.0603	16	C2H7N2+
69.0449	16	C3H5N2+
186.9831	17	C7H5Cl2N2+
194.0484	8	C9H9ClN3+
212.9989	63	C9H7Cl2N2+
230.0255	999	C9H10Cl2N3+
