Mass spectrum: Terbuthylazine; LC-ESI-ITFT; MS2; CE: 55; R=15000; [M+H]+
Name: Terbuthylazine
Name: 2-N-Tert-butyl-6-chloro-4-N-ethyl-1,3,5-triazine-2,4-diamine
Formula: C9H16ClN5
Exact mass: 229.1094
SMILES: CCNC1=NC(Cl)=NC(NC(C)(C)C)=N1
InChI: InChI=1S/C9H16ClN5/c1-5-11-7-12-6(10)13-8(14-7)15-9(2,3)4/h5H2,1-4H3,(H2,11,12,13,14,15)
Instrument: LTQ Orbitrap XL Thermo Scientific
Instrument type: LC-ESI-ITFT
Ms type: MS2
Ion mode: POSITIVE
Ionization: ESI
Fragmentation mode: HCD
Collision energy: 55 (nominal)
Resolution: 15000
Column name: Kinetex Core-Shell C18 2.6 um, 3.0 x 100 mm, Phenomenex
Retention time: 24.653 min
Base peak: 230.1163
Precursor m/z: 230.1167
Precursor type: [M+H]+
m/z	relative intensity	assigned
71.0603	7	C3H7N2+
79.0057	57	CH4ClN2+
90.0104	2	C3H5ClN+
96.0556	56	C4H6N3+
104.001	38	C2H3ClN3+
110.046	4	C3H4N5+
132.0323	87	C4H7ClN3+
138.0774	23	C5H8N5+
146.0227	81	C3H5ClN5+
174.054	999	C5H9ClN5+
230.1168	9	C9H17ClN5+
