Mass spectrum: Desisopropylatrazine; LC-ESI-ITFT; MS2; CE: 55; R=15000; [M+H]+
Name: Desisopropylatrazine
Name: 6-Chloro-2-N-ethyl-1,3,5-triazine-2,4-diamine
Formula: C5H8ClN5
Exact mass: 173.0468
SMILES: CCNC1=NC(Cl)=NC(N)=N1
InChI: InChI=1S/C5H8ClN5/c1-2-8-5-10-3(6)9-4(7)11-5/h2H2,1H3,(H3,7,8,9,10,11)
Instrument: LTQ Orbitrap XL Thermo Scientific
Instrument type: LC-ESI-ITFT
Ms type: MS2
Ion mode: POSITIVE
Ionization: ESI
Fragmentation mode: HCD
Collision energy: 55 (nominal)
Resolution: 15000
Column name: Kinetex Core-Shell C18 2.6 um, 3.0 x 100 mm, Phenomenex
Retention time: 16.341 min
Base peak: 163.1326
Precursor m/z: 174.0541
Precursor type: [M+H]+
m/z	relative intensity	assigned
71.0603	34	C3H7N2+
79.0057	175	CH4ClN2+
90.0106	8	C3H5ClN+
96.0556	221	C4H6N3+
104.001	195	C2H3ClN3+
110.0461	14	C3H4N5+
132.0323	324	C4H7ClN3+
138.0774	65	C5H8N5+
146.0228	175	C3H5ClN5+
174.0541	999	C5H9ClN5+
