Mass spectrum: Quinoline; LC-ESI-ITFT; MS2; CE: 30%; R=15000; [M+H]+
Name: Quinoline
Formula: C9H7N
Exact mass: 129.057849224
SMILES: C1=CC=C2N=CC=CC2=C1
InChI: InChI=1S/C9H7N/c1-2-6-9-8(4-1)5-3-7-10-9/h1-7H
Instrument: LTQ Orbitrap XL Thermo Scientific
Instrument type: LC-ESI-ITFT
Ms type: MS2
Ion mode: POSITIVE
Ionization: ESI
Fragmentation mode: HCD
Collision energy: 30 % (nominal)
Resolution: 15000
Column name: Kinetex Evo C18 2.6 um 50 x 2.1 mm
Retention time: 0.796 min
Base peak: 130.065
Precursor m/z: 130.0651
Precursor type: [M+H]+
Precursor intensity: 11795323
m/z	relative intensity	assigned
130.065	999	C9H8N+
