Mass spectrum: Prednisone; LC-ESI-ITFT; MS2; CE: 30%; R=15000; [M+H]+
Name: Prednisone
Name: (8S,9S,10R,13S,14S,17R)-17-hydroxy-17-(2-hydroxyacetyl)-10,13-dimethyl-6,7,8,9,12,14,15,16-octahydrocyclopenta[a]phenanthrene-3,11-dione
Formula: C21H26O5
Exact mass: 358.178023932
SMILES: [H][C@@]12CC[C@](O)(C(=O)CO)[C@@]1(C)CC(=O)[C@@]1([H])[C@@]2([H])CCC2=CC(=O)C=C[C@]12C
InChI: InChI=1S/C21H26O5/c1-19-7-5-13(23)9-12(19)3-4-14-15-6-8-21(26,17(25)11-22)20(15,2)10-16(24)18(14)19/h5,7,9,14-15,18,22,26H,3-4,6,8,10-11H2,1-2H3/t14-,15-,18+,19-,20-,21-/m0/s1
Instrument: LTQ Orbitrap XL Thermo Scientific
Instrument type: LC-ESI-ITFT
Ms type: MS2
Ion mode: POSITIVE
Ionization: ESI
Fragmentation mode: HCD
Collision energy: 30 % (nominal)
Resolution: 15000
Column name: Kinetex Evo C18 2.6 um 50 x 2.1 mm
Retention time: 9.464 min
Base peak: 359.1856
Precursor m/z: 359.1853
Precursor type: [M+H]+
Precursor intensity: 19658242
m/z	relative intensity	assigned
93.0701	140	C7H9+
119.0857	56	C9H11+
135.0806	279	C9H11O+
137.096	54	C9H13O+
147.0806	999	C10H11O+
153.0913	126	C9H13O2+
159.0808	255	C11H11O+
161.0962	172	C11H13O+
163.0756	89	C10H11O2+
171.0807	399	C12H11O+
173.0964	217	C12H13O+
181.0863	98	C10H13O3+
183.1022	97	C10H15O3+
187.0756	173	C12H11O2+
197.0963	326	C14H13O+
209.0962	78	C15H13O+
211.1118	59	C15H15O+
213.1278	184	C15H17O+
221.0951	46	C16H13O+
223.1123	86	C16H15O+
225.1272	93	C16H17O+
235.1113	74	C17H15O+
237.1276	569	C17H17O+
239.1071	97	C16H15O2+
239.143	152	C17H19O+
253.1226	280	C17H17O2+
253.159	127	C18H21O+
255.1381	351	C17H19O2+
261.1277	135	C19H17O+
263.1432	320	C19H19O+
265.159	523	C19H21O+
267.1381	463	C18H19O2+
275.1433	69	C20H19O+
277.1589	343	C20H21O+
279.138	47	C19H19O2+
281.1538	162	C19H21O2+
283.1695	55	C19H23O2+
287.1424	68	C21H19O+
293.1533	145	C20H21O2+
295.1693	611	C20H23O2+
297.1495	77	C19H21O3+
305.1535	321	C21H21O2+
311.1647	81	C20H23O3+
313.1798	396	C20H25O3+
323.1638	355	C21H23O3+
341.1748	468	C21H25O4+
359.1841	70	C21H27O5+
