Mass spectrum: Trifloxystrobin; LC-ESI-ITFT; MS2; CE: 80; R=15000; [M+H]+
Name: Trifloxystrobin
Name: (2E)-2-Methoxyimino-2-[2-[[(E)-1-[3-(trifluoromethyl)phenyl]ethylideneamino]oxymethyl]phenyl]acetate-methyl
Formula: C20H19F3N2O4
Exact mass: 408.1297
SMILES: CO\N=C(\C(=O)OC)C1=CC=CC=C1CO\N=C(/C)C1=CC(=CC=C1)C(F)(F)F
InChI: InChI=1S/C20H19F3N2O4/c1-13(14-8-6-9-16(11-14)20(21,22)23)24-29-12-15-7-4-5-10-17(15)18(25-28-3)19(26)27-2/h4-11H,12H2,1-3H3/b24-13+,25-18+
Instrument: LTQ Orbitrap XL Thermo Scientific
Instrument type: LC-ESI-ITFT
Ms type: MS2
Ion mode: POSITIVE
Ionization: ESI
Fragmentation mode: HCD
Collision energy: 80 (nominal)
Resolution: 15000
Column name: Kinetex Core-Shell C18 2.6 um, 3.0 x 100 mm, Phenomenex
Retention time: 26.689 min
Base peak: 409.1365
Precursor m/z: 409.137
Precursor type: [M+H]+
m/z	relative intensity	assigned
79.0542	8	C6H7+
89.0386	142	C7H5+
90.0464	75	C7H6+
91.0542	176	C7H7+
103.0543	24	C8H7+
105.0699	23	C8H9+
115.0544	7	C9H7+
116.0495	444	C8H6N+
117.0573	220	C8H7N+
118.0651	154	C8H8N+
119.0492	18	C8H7O+
119.0603	3	C7H7N2+
128.0493	6	C9H6N+
130.0651	196	C9H8N+
131.0729	293	C9H9N+
132.0444	100	C8H6NO+
132.0808	43	C9H10N+
133.0522	9	C8H7NO+
134.0601	4	C8H8NO+
143.0367	24	C9H5NO+
144.0447	3	C9H6NO+
145.026	999	C7H4F3+
146.06	84	C9H8NO+
147.0678	17	C9H9NO+
148.0753	6	C9H10NO+
159.0418	14	C8H6F3+
161.0471	31	C9H7NO2+
173.0322	82	C7H4F3N2+
186.0526	96	C9H7F3N+
