Mass spectrum: Verapamil; LC-ESI-ITFT; MS2; CE: 60%; R=15000; [M+H]+
Name: Verapamil
Name: 2-(3,4-dimethoxyphenyl)-5-[2-(3,4-dimethoxyphenyl)ethyl-methylamino]-2-propan-2-ylpentanenitrile
Formula: C27H38N2O4
Exact mass: 454.283157696
SMILES: COC1=CC=C(CCN(C)CCCC(C#N)(C(C)C)C2=CC(OC)=C(OC)C=C2)C=C1OC
InChI: InChI=1S/C27H38N2O4/c1-20(2)27(19-28,22-10-12-24(31-5)26(18-22)33-7)14-8-15-29(3)16-13-21-9-11-23(30-4)25(17-21)32-6/h9-12,17-18,20H,8,13-16H2,1-7H3
Instrument: LTQ Orbitrap XL Thermo Scientific
Instrument type: LC-ESI-ITFT
Ms type: MS2
Ion mode: POSITIVE
Ionization: ESI
Fragmentation mode: HCD
Collision energy: 60 % (nominal)
Resolution: 15000
Column name: Kinetex Evo C18 2.6 um 50 x 2.1 mm
Retention time: 8.741 min
Base peak: 278.1915
Precursor m/z: 455.2904
Precursor type: [M+H]+
Precursor intensity: 7013928.5
m/z	relative intensity	assigned
58.0651	42	C3H8N+
79.0544	17	C6H7+
84.0809	8	C5H10N+
86.0967	8	C5H12N+
96.0811	14	C6H10N+
103.0546	19	C8H7+
105.0702	128	C8H9+
110.0967	3	C7H12N+
118.0418	12	C8H6O+
120.0574	16	C8H8O+
121.0652	24	C8H9O+
122.0968	18	C8H12N+
123.081	2	C8H11O+
131.0497	4	C9H7O+
133.0652	91	C9H9O+
134.0731	67	C9H10O+
135.0445	26	C8H7O2+
135.0809	47	C9H11O+
136.0523	7	C8H8O2+
137.0603	9	C8H9O2+
137.096	3	C9H13O+
138.068	9	C8H10O2+
139.0759	9	C8H11O2+
146.0732	3	C10H10O+
149.0603	7	C9H9O2+
150.068	462	C9H10O2+
151.0758	66	C9H11O2+
152.0838	9	C9H12O2+
164.0838	6	C10H12O2+
165.0915	999	C10H13O2+
166.0949	5	C5H14N2O4+
177.0915	43	C11H13O2+
179.1067	3	C11H15O2+
186.0917	3	C12H12NO+
191.1075	8	C12H15O2+
194.1181	3	C11H16NO2+
202.0869	4	C12H12NO2+
203.0946	4	C12H13NO2+
217.1107	8	C13H15NO2+
218.1183	28	C13H16NO2+
243.1389	5	C16H19O2+
245.1417	6	C15H19NO2+
260.1651	36	C16H22NO2+
261.1604	18	C15H21N2O2+
303.2078	16	C18H27N2O2+
