Mass spectrum: Picolinafen; LC-ESI-ITFT; MS2; CE: 55; R=15000; [M+H]+
Name: Picolinafen
Name: N-(4-Fluorophenyl)-6-[3-(trifluoromethyl)phenoxy]pyridine-2-carboxamide
Formula: C19H12F4N2O2
Exact mass: 376.0835
SMILES: FC1=CC=C(NC(=O)C2=NC(OC3=CC=CC(=C3)C(F)(F)F)=CC=C2)C=C1
InChI: InChI=1S/C19H12F4N2O2/c20-13-7-9-14(10-8-13)24-18(26)16-5-2-6-17(25-16)27-15-4-1-3-12(11-15)19(21,22)23/h1-11H,(H,24,26)
Instrument: LTQ Orbitrap XL Thermo Scientific
Instrument type: LC-ESI-ITFT
Ms type: MS2
Ion mode: POSITIVE
Ionization: ESI
Fragmentation mode: CID
Collision energy: 55 (nominal)
Resolution: 15000
Column name: Kinetex Core-Shell C18 2.6 um, 3.0 x 100 mm, Phenomenex
Retention time: 27.356 min
Base peak: 163.1327
Precursor m/z: 377.0908
Precursor type: [M+H]+
m/z	relative intensity	assigned
236.0524	4	C12H8F2NO2+
238.0475	260	C12H7F3NO+
256.0582	94	C12H9F3NO2+
266.0425	261	C13H7F3NO2+
270.0737	5	C13H11F3NO2+
298.069	5	C14H11F3NO3+
337.0786	313	C19H11F2N2O2+
357.0848	282	C19H12F3N2O2+
359.0803	999	C19H11F4N2O+
