Mass spectrum: Methyldesphenylchloridazon; LC-ESI-ITFT; MS2; CE: 80%; R=15000; [M+H]+
Name: Methyldesphenylchloridazon
Name: 5-Amino-4-chloro-2-methyl-3(2H)-pyridazinone
Name: 5-amino-4-chloro-2-methylpyridazin-3-one
Formula: C5H6ClN3O
Exact mass: 159.019939492
SMILES: CN1N=CC(N)=C(Cl)C1=O
InChI: InChI=1S/C5H6ClN3O/c1-9-5(10)4(6)3(7)2-8-9/h2H,7H2,1H3
Instrument: LTQ Orbitrap XL Thermo Scientific
Instrument type: LC-ESI-ITFT
Ms type: MS2
Ion mode: POSITIVE
Ionization: ESI
Fragmentation mode: HCD
Collision energy: 80 % (nominal)
Resolution: 15000
Column name: Kinetex Evo C18 2.6 um 50 x 2.1 mm
Retention time: 0.964 min
Base peak: 160.0279
Precursor m/z: 160.0272
Precursor type: [M+H]+
Precursor intensity: 7875539.5
m/z	relative intensity	assigned
51.0227	1	C4H3+
53.026	1	C3H3N+
53.0384	1	C4H5+
54.0337	3	C3H4N+
55.0177	1	C3H3O+
55.0289	8	C2H3N2+
57.0445	4	C2H5N2+
58.0286	3	C2H4NO+
63.9947	3	CH3ClN+
67.0291	5	C3H3N2+
68.013	1	C3H2NO+
68.0494	19	C4H6N+
69.0447	22	C3H5N2+
69.0573	1	C4H7N+
70.0526	1	C3H6N2+
75.9949	30	C2H3ClN+
78.0106	4	C2H5ClN+
81.0449	2	C4H5N2+
83.0604	1	C4H7N2+
84.0557	2	C3H6N3+
85.992	2	C4H3Cl+
86.9997	9	C4H4Cl+
87.9949	127	C3H3ClN+
89.0031	1	C3H4ClN+
90.0106	6	C3H5ClN+
96.0446	4	C5H6NO+
96.0556	1	C4H6N3+
97.0398	3	C4H5N2O+
97.0523	3	C5H7NO+
97.0635	5	C4H7N3+
99.9714	1	C4HClO+
100.9902	8	C3H2ClN2+
101.9742	5	C3HClNO+
102.0108	1	C4H5ClN+
103.0058	2	C3H4ClN2+
103.0186	4	C4H6ClN+
103.9899	12	C3H3ClNO+
115.0058	3	C4H4ClN2+
115.9899	12	C4H3ClNO+
116.9978	148	C4H4ClNO+
124.0507	25	C5H6N3O+
125.0585	5	C5H7N3O+
128.9853	8	C4H2ClN2O+
130.0056	97	C5H5ClNO+
131.0008	17	C4H4ClN2O+
131.0134	32	C5H6ClNO+
132.0087	9	C4H5ClN2O+
133.0165	5	C4H6ClN2O+
143.0009	1	C5H4ClN2O+
145.004	51	C4H4ClN3O+
158.012	6	C5H5ClN3O+
160.0274	999	C5H7ClN3O+
