Mass spectrum: Fluconazole; LC-ESI-ITFT; MS2; CE: 10%; R=15000; [M+H]+
Name: Fluconazole
Name: 2-(2,4-difluorophenyl)-1,3-bis(1,2,4-triazol-1-yl)propan-2-ol
Formula: C13H12F2N6O
Exact mass: 306.104065444
SMILES: OC(CN1C=NC=N1)(CN1C=NC=N1)C1=C(F)C=C(F)C=C1
InChI: InChI=1S/C13H12F2N6O/c14-10-1-2-11(12(15)3-10)13(22,4-20-8-16-6-18-20)5-21-9-17-7-19-21/h1-3,6-9,22H,4-5H2
Instrument: LTQ Orbitrap XL Thermo Scientific
Instrument type: LC-ESI-ITFT
Ms type: MS2
Ion mode: POSITIVE
Ionization: ESI
Fragmentation mode: HCD
Collision energy: 10 % (nominal)
Resolution: 15000
Column name: Kinetex Evo C18 2.6 um 50 x 2.1 mm
Retention time: 6.957 min
Base peak: 307.1125
Precursor m/z: 307.1113
Precursor type: [M+H]+
Precursor intensity: 32058248
m/z	relative intensity	assigned
220.0682	8	C11H8F2N3+
238.0789	17	C11H10F2N3O+
289.1009	6	C13H11F2N6+
307.1117	999	C13H13F2N6O+
