Mass spectrum: Citalopram; LC-ESI-ITFT; MS2; CE: 55; R=15000; [M+H]+
Name: Citalopram
Name: 1-[3-(Dimethylamino)propyl]-1-(4-fluorophenyl)-3H-2-benzofuran-5-carbonitrile
Formula: C20H21FN2O
Exact mass: 324.1638
SMILES: CN(C)CCCC1(OCC2=CC(=CC=C12)C#N)C1=CC=C(F)C=C1
InChI: InChI=1S/C20H21FN2O/c1-23(2)11-3-10-20(17-5-7-18(21)8-6-17)19-9-4-15(13-22)12-16(19)14-24-20/h4-9,12H,3,10-11,14H2,1-2H3
Instrument: LTQ Orbitrap XL Thermo Scientific
Instrument type: LC-ESI-ITFT
Ms type: MS2
Ion mode: POSITIVE
Ionization: ESI
Fragmentation mode: HCD
Collision energy: 55 (nominal)
Resolution: 15000
Column name: Kinetex Core-Shell C18 2.6 um, 3.0 x 100 mm, Phenomenex
Retention time: 19.979 min
Base peak: 260.1644
Precursor m/z: 325.1711
Precursor type: [M+H]+
m/z	relative intensity	assigned
70.0652	2	C4H8N+
72.0809	2	C4H10N+
83.0291	1	C5H4F+
84.0809	18	C5H10N+
97.0451	1	C6H6F+
103.0543	1	C8H7+
109.0449	999	C7H6F+
116.0496	161	C8H6N+
121.045	15	C8H6F+
123.0243	13	C7H4FO+
123.0607	8	C8H8F+
129.0701	13	C10H9+
130.0653	12	C9H8N+
133.0451	6	C9H6F+
135.0608	1	C9H8F+
140.0498	18	C10H6N+
142.0654	9	C10H8N+
144.0447	15	C9H6NO+
146.0529	2	C10H7F+
147.0607	7	C10H8F+
154.0655	12	C11H8N+
156.081	50	C11H10N+
158.0605	2	C10H8NO+
159.0607	6	C11H8F+
166.0654	121	C12H8N+
168.0812	5	C12H10N+
183.0609	1	C13H8F+
184.0762	5	C12H10NO+
190.0651	2	C14H8N+
203.0739	3	C15H9N+
209.076	1	C15H10F+
215.0859	26	C17H11+
218.0605	12	C15H8NO+
220.0563	4	C15H7FN+
220.0688	14	C16H9F+
221.064	77	C15H8FN+
222.0722	47	C15H9FN+
223.0923	1	C16H12F+
224.0875	3	C15H11FN+
227.0733	70	C17H9N+
233.0767	13	C17H10F+
234.0718	267	C16H9FN+
235.0922	38	C17H12F+
236.0881	25	C16H11FN+
237.0587	2	C15H8FNO+
238.0667	51	C15H9FNO+
242.0969	69	C18H12N+
245.0633	1	C17H8FN+
245.0769	8	C18H10F+
246.0721	18	C17H9FN+
247.0796	224	C17H10FN+
250.1031	45	C17H13FN+
259.0797	2	C18H10FN+
260.0876	23	C18H11FN+
261.0958	22	C18H12FN+
262.1031	257	C18H13FN+
263.1066	41	
307.1614	17	C20H20FN2+
325.1718	21	C20H22FN2O+
326.175	2	C18H22N4O2+
