Mass spectrum: Prothioconazole-desthio; LC-ESI-ITFT; MS2; CE: 50%; R=15000; [M+H]+
Name: Prothioconazole-desthio
Name: 2-(1-chlorocyclopropyl)-1-(2-chlorophenyl)-3-(1H-1,2,4-triazol-1-yl)propan-2-ol
Name: 2-(1-chlorocyclopropyl)-1-(2-chlorophenyl)-3-(1,2,4-triazol-1-yl)propan-2-ol
Formula: C14H15Cl2N3O
Exact mass: 311.05921746
SMILES: OC(CN1C=NC=N1)(CC1=CC=CC=C1Cl)C1(Cl)CC1
InChI: InChI=1S/C14H15Cl2N3O/c15-12-4-2-1-3-11(12)7-14(20,13(16)5-6-13)8-19-10-17-9-18-19/h1-4,9-10,20H,5-8H2
Instrument: LTQ Orbitrap XL Thermo Scientific
Instrument type: LC-ESI-ITFT
Ms type: MS2
Ion mode: POSITIVE
Ionization: ESI
Fragmentation mode: HCD
Collision energy: 50 % (nominal)
Resolution: 15000
Column name: Kinetex Evo C18 2.6 um 50 x 2.1 mm
Retention time: 11.799 min
Base peak: 312.0673
Precursor m/z: 312.0665
Precursor type: [M+H]+
Precursor intensity: 20752244
m/z	relative intensity	assigned
57.0571	3	C3H7N+
65.0384	5	C5H5+
67.0541	3	C5H7+
70.0398	999	C2H4N3+
70.0649	91	C4H8N+
83.049	6	C5H7O+
85.0883	4	C5H11N+
98.0602	5	C5H8NO+
101.015	5	C5H6Cl+
115.0548	2	C9H7+
125.0151	486	C7H6Cl+
139.0308	39	C8H8Cl+
142.0775	11	C11H10+
143.0851	3	C11H11+
144.0929	4	C11H12+
149.0149	6	C9H6Cl+
151.0308	45	C9H8Cl+
153.0698	18	C12H9+
154.0776	31	C12H10+
155.0259	9	C8H8ClO+
158.9759	7	C7H5Cl2+
163.0309	9	C10H8Cl+
165.0464	4	C10H10Cl+
177.0464	16	C11H10Cl+
179.062	4	C11H12Cl+
189.0465	31	C12H10Cl+
312.0662	38	C14H16Cl2N3O+
