Mass spectrum: Ebastin; LC-ESI-ITFT; MS2; CE: 70%; R=15000; [M+H]+
Name: Ebastin
Name: Ebastine
Name: 4-(4-benzhydryloxypiperidin-1-yl)-1-(4-tert-butylphenyl)butan-1-one
Formula: C32H39NO2
Exact mass: 469.298079488
SMILES: CC(C)(C)C1=CC=C(C=C1)C(=O)CCCN1CCC(CC1)OC(C1=CC=CC=C1)C1=CC=CC=C1
InChI: InChI=1S/C32H39NO2/c1-32(2,3)28-18-16-25(17-19-28)30(34)15-10-22-33-23-20-29(21-24-33)35-31(26-11-6-4-7-12-26)27-13-8-5-9-14-27/h4-9,11-14,16-19,29,31H,10,15,20-24H2,1-3H3
Instrument: LTQ Orbitrap XL Thermo Scientific
Instrument type: LC-ESI-ITFT
Ms type: MS2
Ion mode: POSITIVE
Ionization: ESI
Fragmentation mode: HCD
Collision energy: 70 % (nominal)
Resolution: 15000
Column name: Kinetex Evo C18 2.6 um 50 x 2.1 mm
Retention time: 11.355 min
Base peak: 470.3049
Precursor m/z: 470.3054
Precursor type: [M+H]+
Precursor intensity: 9368825
m/z	relative intensity	assigned
91.0539	9	C7H7+
105.0696	12	C8H9+
117.0696	1	C9H9+
118.0774	5	C9H10+
128.0619	1	C10H8+
132.0929	10	C10H12+
141.0696	2	C11H9+
146.0722	41	C10H10O+
151.0541	2	C12H7+
152.0616	110	C12H8+
161.0957	999	C11H13O+
165.0694	117	C13H9+
167.085	746	C13H11+
173.0954	8	C12H13O+
188.119	56	C13H16O+
203.1424	322	C14H19O+
