Mass spectrum: Chloridazon; LC-ESI-ITFT; MS2; CE: 10%; R=15000; [M+H]+
Name: Chloridazon
Name: 5-amino-4-chloro-2-phenylpyridazin-3-one
Formula: C10H8ClN3O
Exact mass: 221.035589556
SMILES: NC1=C(Cl)C(=O)N(N=C1)C1=CC=CC=C1
InChI: InChI=1S/C10H8ClN3O/c11-9-8(12)6-13-14(10(9)15)7-4-2-1-3-5-7/h1-6H,12H2
Instrument: LTQ Orbitrap XL Thermo Scientific
Instrument type: LC-ESI-ITFT
Ms type: MS2
Ion mode: POSITIVE
Ionization: ESI
Fragmentation mode: HCD
Collision energy: 10 % (nominal)
Resolution: 15000
Column name: Kinetex Evo C18 2.6 um 50 x 2.1 mm
Retention time: 6.324 min
Base peak: 222.0432
Precursor m/z: 222.0429
Precursor type: [M+H]+
Precursor intensity: 10760732
m/z	relative intensity	assigned
222.0425	999	C10H9ClN3O+
