Mass spectrum: 3,4-Dichlorophenylurea; LC-ESI-ITFT; MS2; CE: 55; R=15000; [M+H]+
Name: 3,4-Dichlorophenylurea
Name: 1-(3,4-Dichlorophenyl)urea
Name: (3,4-Dichlorophenyl)urea
Formula: C7H6Cl2N2O
Exact mass: 203.9857
SMILES: NC(=O)NC1=CC(Cl)=C(Cl)C=C1
InChI: InChI=1S/C7H6Cl2N2O/c8-5-2-1-4(3-6(5)9)11-7(10)12/h1-3H,(H3,10,11,12)
Instrument: LTQ Orbitrap XL Thermo Scientific
Instrument type: LC-ESI-ITFT
Ms type: MS2
Ion mode: POSITIVE
Ionization: ESI
Fragmentation mode: CID
Collision energy: 55 (nominal)
Resolution: 15000
Column name: Kinetex Core-Shell C18 2.6 um, 3.0 x 100 mm, Phenomenex
Retention time: 22.812 min
Base peak: 163.1327
Precursor m/z: 204.993
Precursor type: [M+H]+
m/z	relative intensity	assigned
127.0182	28	C6H6ClN+
161.9871	999	C6H6Cl2N+
187.9665	104	C7H4Cl2NO+
