Mass spectrum: Picolinafen; LC-ESI-ITFT; MS2; CE: 55; R=15000; [M+H]+
Name: Picolinafen
Name: N-(4-Fluorophenyl)-6-[3-(trifluoromethyl)phenoxy]pyridine-2-carboxamide
Formula: C19H12F4N2O2
Exact mass: 376.0835
SMILES: FC1=CC=C(NC(=O)C2=NC(OC3=CC=CC(=C3)C(F)(F)F)=CC=C2)C=C1
InChI: InChI=1S/C19H12F4N2O2/c20-13-7-9-14(10-8-13)24-18(26)16-5-2-6-17(25-16)27-15-4-1-3-12(11-15)19(21,22)23/h1-11H,(H,24,26)
Instrument: LTQ Orbitrap XL Thermo Scientific
Instrument type: LC-ESI-ITFT
Ms type: MS2
Ion mode: POSITIVE
Ionization: ESI
Fragmentation mode: HCD
Collision energy: 55 (nominal)
Resolution: 15000
Column name: Kinetex Core-Shell C18 2.6 um, 3.0 x 100 mm, Phenomenex
Retention time: 27.356 min
Base peak: 163.1327
Precursor m/z: 377.0908
Precursor type: [M+H]+
m/z	relative intensity	assigned
123.0354	6	C6H4FN2+
145.0259	16	C7H4F3+
163.0366	1	C7H6F3O+
173.0323	44	C7H4F3N2+
183.0418	8	C10H6F3+
188.0508	2	C11H7FNO+
190.0465	19	C11H6F2N+
210.0527	37	C11H7F3N+
218.0415	8	C12H6F2NO+
236.0521	10	C12H8F2NO2+
238.0475	999	C12H7F3NO+
239.0511	1	C15H8FO2+
256.0582	369	C12H9F3NO2+
270.0747	3	C13H11F3NO2+
289.0774	7	C18H10FN2O+
337.0782	1	C19H11F2N2O2+
359.0803	203	C19H11F4N2O+
