Mass spectrum: Piperine; LC-ESI-ITFT; MS2; CE: 80%; R=15000; [M+H]+
Name: Piperine
Name: (2E,4E)-5-(1,3-benzodioxol-5-yl)-1-piperidin-1-ylpenta-2,4-dien-1-one
Formula: C17H19NO3
Exact mass: 285.136493468
SMILES: O=C(\C=C\C=C\C1=CC2=C(OCO2)C=C1)N1CCCCC1
InChI: InChI=1S/C17H19NO3/c19-17(18-10-4-1-5-11-18)7-3-2-6-14-8-9-15-16(12-14)21-13-20-15/h2-3,6-9,12H,1,4-5,10-11,13H2/b6-2+,7-3+
Instrument: LTQ Orbitrap XL Thermo Scientific
Instrument type: LC-ESI-ITFT
Ms type: MS2
Ion mode: POSITIVE
Ionization: ESI
Fragmentation mode: HCD
Collision energy: 80 % (nominal)
Resolution: 15000
Column name: Kinetex Evo C18 2.6 um 50 x 2.1 mm
Retention time: 11.786 min
Base peak: 286.1441
Precursor m/z: 286.1438
Precursor type: [M+H]+
Precursor intensity: 14650078
m/z	relative intensity	assigned
77.0383	14	C6H5+
79.054	17	C6H7+
81.057	8	C5H7N+
84.0805	26	C5H10N+
86.0961	16	C5H12N+
91.0538	4	C7H7+
103.0539	28	C8H7+
105.0332	16	C7H5O+
112.0754	26	C6H10NO+
115.0539	999	C9H7+
117.0695	39	C9H9+
122.0961	11	C8H12N+
127.0541	5	C10H7+
129.07	2	C10H9+
131.0489	7	C9H7O+
134.0961	5	C9H12N+
135.0437	395	C8H7O2+
143.0487	528	C10H7O+
145.0643	9	C10H9O+
150.091	7	C9H12NO+
151.0987	34	C9H13NO+
159.0436	95	C10H7O2+
171.0435	245	C11H7O2+
173.0591	66	C11H9O2+
201.054	222	C12H9O3+
