Mass spectrum: Benzidine; LC-ESI-ITFT; MS2; CE: 60%; R=15000; [M+H]+
Name: Benzidine
Name: 4-(4-aminophenyl)aniline
Formula: C12H12N2
Exact mass: 184.100048384
SMILES: NC1=CC=C(C=C1)C1=CC=C(N)C=C1
InChI: InChI=1S/C12H12N2/c13-11-5-1-9(2-6-11)10-3-7-12(14)8-4-10/h1-8H,13-14H2
Instrument: LTQ Orbitrap XL Thermo Scientific
Instrument type: LC-ESI-ITFT
Ms type: MS2
Ion mode: POSITIVE
Ionization: ESI
Fragmentation mode: HCD
Collision energy: 60 % (nominal)
Resolution: 15000
Column name: Kinetex Evo C18 2.6 um 50 x 2.1 mm
Retention time: 0.596 min
Base peak: 94.0653
Precursor m/z: 185.1073
Precursor type: [M+H]+
Precursor intensity: 6262756.5
m/z	relative intensity	assigned
92.0496	27	C6H6N+
93.0575	75	C6H7N+
118.0654	12	C8H8N+
141.0701	52	C11H9+
143.0731	10	C10H9N+
144.081	24	C10H10N+
151.0544	18	C12H7+
158.0966	30	C11H12N+
167.0732	189	C12H9N+
168.0811	999	C12H10N+
169.0757	4	C11H9N2+
169.0889	73	C12H11N+
170.0839	8	C11H10N2+
184.0999	158	C12H12N2+
185.1078	561	C12H13N2+
