Mass spectrum: Triphenylphosphate; LC-ESI-ITFT; MS2; CE: 50%; R=15000; [M+H]+
Name: Triphenylphosphate
Name: triphenyl phosphate
Formula: C18H15O4P
Exact mass: 326.07079559
SMILES: O=P(OC1=CC=CC=C1)(OC1=CC=CC=C1)OC1=CC=CC=C1
InChI: InChI=1S/C18H15O4P/c19-23(20-16-10-4-1-5-11-16,21-17-12-6-2-7-13-17)22-18-14-8-3-9-15-18/h1-15H
Instrument: LTQ Orbitrap XL Thermo Scientific
Instrument type: LC-ESI-ITFT
Ms type: MS2
Ion mode: POSITIVE
Ionization: ESI
Fragmentation mode: HCD
Collision energy: 50 % (nominal)
Resolution: 15000
Column name: Kinetex Evo C18 2.6 um 50 x 2.1 mm
Retention time: 12.625 min
Base peak: 327.079
Precursor m/z: 327.0781
Precursor type: [M+H]+
Precursor intensity: 35925056
m/z	relative intensity	assigned
65.0387	7	C5H5+
77.0385	426	C6H5+
93.0334	15	C6H5O+
94.0415	8	C6H6O+
95.0492	122	C6H7O+
98.9842	7	H4O4P+
138.9946	9	C6H4O2P+
143.0857	6	C11H11+
151.0542	27	C12H7+
152.0621	506	C12H8+
153.0699	999	C12H9+
157.0044	10	C6H6O3P+
168.0571	51	C12H8O+
169.0648	30	C12H9O+
170.0728	10	C12H10O+
171.0805	108	C12H11O+
175.0154	52	C6H8O4P+
187.0306	13	C11H8OP+
202.0776	18	C16H10+
203.0849	5	C16H11+
205.0415	5	C11H10O2P+
215.0257	418	C12H8O2P+
227.0855	31	C18H11+
228.0935	223	C18H12+
229.1013	145	C18H13+
233.0363	786	C12H10O3P+
247.052	12	C13H12O3P+
251.0469	678	C12H12O4P+
291.0572	13	C18H12O2P+
309.0673	18	C18H14O3P+
327.0781	435	C18H16O4P+
