Mass spectrum: Triethylphosphate; LC-ESI-ITFT; MS2; CE: 50%; R=15000; [M+H]+
Name: Triethylphosphate
Name: triethyl phosphate
Formula: C6H15O4P
Exact mass: 182.07079559
SMILES: CCOP(=O)(OCC)OCC
InChI: InChI=1S/C6H15O4P/c1-4-8-11(7,9-5-2)10-6-3/h4-6H2,1-3H3
Instrument: LTQ Orbitrap XL Thermo Scientific
Instrument type: LC-ESI-ITFT
Ms type: MS2
Ion mode: POSITIVE
Ionization: ESI
Fragmentation mode: HCD
Collision energy: 50 % (nominal)
Resolution: 15000
Column name: Kinetex Evo C18 2.6 um 50 x 2.1 mm
Retention time: 7.581 min
Base peak: 183.0788
Precursor m/z: 183.0781
Precursor type: [M+H]+
Precursor intensity: 16380179
m/z	relative intensity	assigned
80.9737	1	H2O3P+
98.9842	999	H4O4P+
127.0155	135	C2H8O4P+
155.0468	22	C4H12O4P+
