Mass spectrum: Albendazole; LC-ESI-ITFT; MS2; CE: 70%; R=15000; [M+H]+
Name: Albendazole
Name: methyl N-(6-propylsulfanyl-1H-benzimidazol-2-yl)carbamate
Formula: C12H15N3O2S
Exact mass: 265.08849772
SMILES: CCCSC1=CC2=C(NC(NC(=O)OC)=N2)C=C1
InChI: InChI=1S/C12H15N3O2S/c1-3-6-18-8-4-5-9-10(7-8)14-11(13-9)15-12(16)17-2/h4-5,7H,3,6H2,1-2H3,(H2,13,14,15,16)
Instrument: LTQ Orbitrap XL Thermo Scientific
Instrument type: LC-ESI-ITFT
Ms type: MS2
Ion mode: POSITIVE
Ionization: ESI
Fragmentation mode: HCD
Collision energy: 70 % (nominal)
Resolution: 15000
Column name: Kinetex Evo C18 2.6 um 50 x 2.1 mm
Retention time: 9.215 min
Base peak: 266.0966
Precursor m/z: 266.0958
Precursor type: [M+H]+
Precursor intensity: 47753372
m/z	relative intensity	assigned
159.0428	252	C8H5N3O+
160.0504	10	C8H6N3O+
163.02	9	C7H5N3S+
164.0278	20	C7H6N3S+
165.0359	5	C7H7N3S+
179.0514	12	C8H9N3S+
186.0663	3	C10H8N3O+
190.0072	8	C8H4N3OS+
191.0149	999	C8H5N3OS+
192.0226	605	C8H6N3OS+
204.0223	2	C9H6N3OS+
205.0308	9	C9H7N3OS+
223.0408	7	C9H9N3O2S+
234.0696	850	C11H12N3OS+
