Mass spectrum: Cortisone; LC-ESI-ITFT; MS2; CE: 60%; R=15000; [M+H]+
Name: Cortisone
Name: (8S,9S,10R,13S,14S,17R)-17-hydroxy-17-(2-hydroxyacetyl)-10,13-dimethyl-1,2,6,7,8,9,12,14,15,16-decahydrocyclopenta[a]phenanthrene-3,11-dione
Formula: C21H28O5
Exact mass: 360.193673996
SMILES: C[C@]12CC(=O)[C@H]3[C@@H](CCC4=CC(=O)CC[C@]34C)[C@@H]1CC[C@]2(O)C(=O)CO
InChI: InChI=1S/C21H28O5/c1-19-7-5-13(23)9-12(19)3-4-14-15-6-8-21(26,17(25)11-22)20(15,2)10-16(24)18(14)19/h9,14-15,18,22,26H,3-8,10-11H2,1-2H3/t14-,15-,18+,19-,20-,21-/m0/s1
Instrument: LTQ Orbitrap XL Thermo Scientific
Instrument type: LC-ESI-ITFT
Ms type: MS2
Ion mode: POSITIVE
Ionization: ESI
Fragmentation mode: HCD
Collision energy: 60 % (nominal)
Resolution: 15000
Column name: Kinetex Evo C18 2.6 um 50 x 2.1 mm
Retention time: 9.636 min
Base peak: 361.2009
Precursor m/z: 361.201
Precursor type: [M+H]+
Precursor intensity: 9268243
m/z	relative intensity	assigned
93.0701	196	C7H9+
97.065	94	C6H9O+
105.07	188	C8H9+
107.0854	152	C8H11+
119.086	122	C9H11+
121.065	344	C8H9O+
121.1015	60	C9H13+
123.0809	75	C8H11O+
135.1165	77	C10H15+
145.1016	219	C11H13+
163.1119	999	C11H15O+
171.1162	62	C13H15+
