Mass spectrum: DEET; LC-ESI-ITFT; MS2; CE: 35; R=15000; [M+H]+
Name: DEET
Name: Diethyltoluamide
Name: N,N-Diethyl-3-methylbenzamide
Formula: C12H17NO
Exact mass: 191.1310
SMILES: CCN(CC)C(=O)C1=CC=CC(C)=C1
InChI: InChI=1S/C12H17NO/c1-4-13(5-2)12(14)11-8-6-7-10(3)9-11/h6-9H,4-5H2,1-3H3
Instrument: LTQ Orbitrap XL Thermo Scientific
Instrument type: LC-ESI-ITFT
Ms type: MS2
Ion mode: POSITIVE
Ionization: ESI
Fragmentation mode: CID
Collision energy: 35 (nominal)
Resolution: 15000
Column name: Kinetex Core-Shell C18 2.6 um, 3.0 x 100 mm, Phenomenex
Retention time: 23.167 min
Base peak: 192.1387
Precursor m/z: 192.1383
Precursor type: [M+H]+
m/z	relative intensity	assigned
72.0445	4	C3H6NO+
72.081	2	C4H10N+
91.0544	11	C7H7+
100.076	20	C5H10NO+
119.0494	999	C8H7O+
192.1388	143	C12H18NO+
