Mass spectrum: 4,4`-Methylene-bis(2-methyl aniline); LC-ESI-ITFT; MS2; CE: 80%; R=15000; [M+H]+
Name: 4,4`-Methylene-bis(2-methyl aniline)
Name: 4,4`-Methylenebis(2-methylaniline)
Name: 4-[(4-amino-3-methylphenyl)methyl]-2-methylaniline
Formula: C15H18N2
Exact mass: 226.146998576
SMILES: CC1=C(N)C=CC(CC2=CC(C)=C(N)C=C2)=C1
InChI: InChI=1S/C15H18N2/c1-10-7-12(3-5-14(10)16)9-13-4-6-15(17)11(2)8-13/h3-8H,9,16-17H2,1-2H3
Instrument: LTQ Orbitrap XL Thermo Scientific
Instrument type: LC-ESI-ITFT
Ms type: MS2
Ion mode: POSITIVE
Ionization: ESI
Fragmentation mode: HCD
Collision energy: 80 % (nominal)
Resolution: 15000
Column name: Kinetex Evo C18 2.6 um 50 x 2.1 mm
Retention time: 0.964 min
Base peak: 108.0809
Precursor m/z: 227.1543
Precursor type: [M+H]+
Precursor intensity: 10531212
m/z	relative intensity	assigned
77.0384	6	C6H5+
79.0542	3	C6H7+
80.0493	3	C5H6N+
81.0573	2	C5H7N+
91.0541	5	C7H7+
93.0699	4	C7H9+
94.065	1	C6H8N+
103.0542	32	C8H7+
105.0447	2	C6H5N2+
105.057	1	C7H7N+
105.0698	2	C8H9+
106.0649	1	C7H8N+
107.0727	3	C7H9N+
118.065	2	C8H8N+
119.0731	2	C8H9N+
120.0806	999	C8H10N+
128.0619	5	C10H8+
129.0697	17	C10H9+
130.0649	2	C9H8N+
141.0697	2	C11H9+
142.0775	4	C11H10+
143.0854	2	C11H11+
144.0807	3	C10H10N+
145.0887	1	C10H11N+
152.062	2	C12H8+
153.0697	3	C12H9+
154.0776	3	C12H10+
155.0604	1	C10H7N2+
155.0854	8	C12H11+
157.0886	1	C11H11N+
165.0696	4	C13H9+
166.0775	2	C13H10+
167.0728	3	C12H9N+
167.0852	3	C13H11+
168.0804	2	C12H10N+
168.0933	4	C13H12+
169.1012	2	C13H13+
170.096	2	C12H12N+
177.0693	1	C14H9+
178.0776	95	C14H10+
179.0854	5	C14H11+
180.0806	109	C13H10N+
181.0882	5	C13H11N+
181.1012	1	C14H13+
182.0964	3	C13H12N+
183.1164	1	C14H15+
191.0851	1	C15H11+
192.0932	5	C15H12+
193.0885	5	C14H11N+
193.101	26	C15H13+
194.0963	65	C14H12N+
195.1041	69	C14H13N+
208.1119	4	C15H14N+
209.1198	3	C15H15N+
210.1275	7	C15H16N+
211.1229	3	C14H15N2+
225.138	2	C15H17N2+
227.1541	16	C15H19N2+
