Mass spectrum: Metamitron; LC-ESI-ITFT; MS2; CE: 40%; R=15000; [M+H]+
Name: Metamitron
Name: 4-amino-3-methyl-6-phenyl-1,2,4-triazin-5-one
Formula: C10H10N4O
Exact mass: 202.08546094
SMILES: CC1=NN=C(C(=O)N1N)C1=CC=CC=C1
InChI: InChI=1S/C10H10N4O/c1-7-12-13-9(10(15)14(7)11)8-5-3-2-4-6-8/h2-6H,11H2,1H3
Instrument: LTQ Orbitrap XL Thermo Scientific
Instrument type: LC-ESI-ITFT
Ms type: MS2
Ion mode: POSITIVE
Ionization: ESI
Fragmentation mode: HCD
Collision energy: 40 % (nominal)
Resolution: 15000
Column name: Kinetex Evo C18 2.6 um 50 x 2.1 mm
Retention time: 5.330 min
Base peak: 203.0931
Precursor m/z: 203.0927
Precursor type: [M+H]+
Precursor intensity: 13283390
m/z	relative intensity	assigned
72.0441	10	C3H6NO+
72.0553	4	C2H6N3+
77.0386	2	C6H5+
79.0541	15	C6H7+
83.0238	8	C3H3N2O+
89.0385	6	C7H5+
100.0505	4	C3H6N3O+
103.0539	1	C8H7+
104.0493	48	C7H6N+
105.0571	3	C7H7N+
106.065	34	C7H8N+
116.0492	1	C8H6N+
117.0443	1	C7H5N2+
117.0575	1	C8H7N+
118.065	2	C8H8N+
119.0603	5	C7H7N2+
120.0806	1	C8H10N+
130.0649	11	C9H8N+
132.0678	1	C8H8N2+
134.0598	1	C8H8NO+
134.0711	5	C7H8N3+
145.0394	16	C8H5N2O+
158.0598	2	C10H8NO+
158.071	6	C9H8N3+
159.0789	2	C9H9N3+
174.0786	80	C10H10N2O+
175.0976	350	C9H11N4+
186.066	5	C10H8N3O+
187.0746	1	C10H9N3O+
203.0924	999	C10H11N4O+
