Mass spectrum: Isoxaben; LC-ESI-ITFT; MS2; CE: 80%; R=15000; [M+H]+
Name: Isoxaben
Name: 2,6-dimethoxy-N-[3-(3-methylpentan-3-yl)-1,2-oxazol-5-yl]benzamide
Formula: C18H24N2O4
Exact mass: 332.173607248
SMILES: CCC(C)(CC)C1=NOC(NC(=O)C2=C(OC)C=CC=C2OC)=C1
InChI: InChI=1S/C18H24N2O4/c1-6-18(3,7-2)14-11-15(24-20-14)19-17(21)16-12(22-4)9-8-10-13(16)23-5/h8-11H,6-7H2,1-5H3,(H,19,21)
Instrument: LTQ Orbitrap XL Thermo Scientific
Instrument type: LC-ESI-ITFT
Ms type: MS2
Ion mode: POSITIVE
Ionization: ESI
Fragmentation mode: HCD
Collision energy: 80 % (nominal)
Resolution: 15000
Column name: Kinetex Evo C18 2.6 um 50 x 2.1 mm
Retention time: 11.495 min
Base peak: 333.1818
Precursor m/z: 333.1809
Precursor type: [M+H]+
Precursor intensity: 24204142
m/z	relative intensity	assigned
75.0229	3	C6H3+
77.0385	46	C6H5+
79.0542	33	C6H7+
81.0338	1	C5H5O+
81.0697	3	C6H9+
91.0543	1	C7H7+
92.0256	12	C6H4O+
94.0413	5	C6H6O+
95.0491	6	C6H7O+
105.0335	12	C7H5O+
105.0448	25	C6H5N2+
107.0128	75	C6H3O2+
107.0491	38	C7H7O+
109.0648	23	C7H9O+
120.0207	7	C7H4O2+
121.0283	1	C7H5O2+
122.0362	293	C7H6O2+
123.0395	4	C2H7N2O4+
125.0598	4	C7H9O2+
135.0441	48	C8H7O2+
135.0555	7	C7H7N2O+
137.0598	6	C8H9O2+
150.0312	646	C8H6O3+
165.0546	999	C9H9O3+
168.0416	51	C8H8O4+
182.0573	5	C9H10O4+
