Mass spectrum: 4-Formyl-antipyrine; LC-ESI-ITFT; MS2; CE: 35; R=15000; [M+H]+
Name: 4-Formyl-antipyrine
Name: 1,5-Dimethyl-3-oxo-2-phenylpyrazole-4-carbaldehyde
Formula: C12H12N2O2
Exact mass: 216.0899
SMILES: CN1N(C(=O)C(C=O)=C1C)C1=CC=CC=C1
InChI: InChI=1S/C12H12N2O2/c1-9-11(8-15)12(16)14(13(9)2)10-6-4-3-5-7-10/h3-8H,1-2H3
Instrument: LTQ Orbitrap XL Thermo Scientific
Instrument type: LC-ESI-ITFT
Ms type: MS2
Ion mode: POSITIVE
Ionization: ESI
Fragmentation mode: CID
Collision energy: 35 (nominal)
Resolution: 15000
Column name: Kinetex Core-Shell C18 2.6 um, 3.0 x 100 mm, Phenomenex
Retention time: 14.922 min
Base peak: 217.0972
Precursor m/z: 217.0972
Precursor type: [M+H]+
m/z	relative intensity	assigned
77.0384	1	C6H5+
83.0492	3	C5H7O+
106.0652	114	C7H8N+
107.0605	7	C6H7N2+
111.0441	42	C6H7O2+
118.0651	3	C8H8N+
119.0858	3	C9H11+
120.0812	1	C8H10N+
130.0653	15	C9H8N+
131.0732	4	C9H9N+
132.0683	12	C8H8N2+
132.0804	1	C9H10N+
135.0556	3	C7H7N2O+
142.0651	1	C10H8N+
144.081	9	C10H10N+
145.0761	2	C9H9N2+
145.0889	2	C10H11N+
146.0841	3	C9H10N2+
146.0968	3	C10H12N+
147.0918	103	C9H11N2+
149.071	3	C8H9N2O+
155.0705	1	C8H11O3+
158.0607	3	C10H8NO+
159.0556	2	C9H7N2O+
159.0919	10	C10H11N2+
160.076	1	C10H10NO+
161.1076	2	C10H13N2+
169.0764	1	C11H9N2+
171.092	1	C11H11N2+
172.0635	8	C10H8N2O+
172.0757	2	C11H10NO+
173.0711	2	C10H9N2O+
174.0791	3	C10H10N2O+
185.071	1	C11H9N2O+
186.0553	3	C11H8NO2+
187.0869	23	C11H11N2O+
189.1025	48	C11H13N2O+
197.0714	1	C12H9N2O+
199.0872	4	C12H11N2O+
200.0584	21	C11H8N2O2+
202.074	1	C11H10N2O2+
213.0661	1	C12H9N2O2+
215.082	10	C12H11N2O2+
217.0972	999	C12H13N2O2+
