Mass spectrum: Verapamil; LC-ESI-ITFT; MS2; CE: 35; R=15000; [M+H]+
Name: Verapamil
Name: 2-(3,4-Dimethoxyphenyl)-5-[2-(3,4-dimethoxyphenyl)ethyl-methylamino]-2-propan-2-ylpentanenitrile
Formula: C27H38N2O4
Exact mass: 454.2832
SMILES: COC1=CC=C(CCN(C)CCCC(C#N)(C(C)C)C2=CC(OC)=C(OC)C=C2)C=C1OC
InChI: InChI=1S/C27H38N2O4/c1-20(2)27(19-28,22-10-12-24(31-5)26(18-22)33-7)14-8-15-29(3)16-13-21-9-11-23(30-4)25(17-21)32-6/h9-12,17-18,20H,8,13-16H2,1-7H3
Instrument: LTQ Orbitrap XL Thermo Scientific
Instrument type: LC-ESI-ITFT
Ms type: MS2
Ion mode: POSITIVE
Ionization: ESI
Fragmentation mode: CID
Collision energy: 35 (nominal)
Resolution: 15000
Column name: Kinetex Core-Shell C18 2.6 um, 3.0 x 100 mm, Phenomenex
Retention time: 20.942 min
Base peak: 455.29
Precursor m/z: 455.2904
Precursor type: [M+H]+
m/z	relative intensity	assigned
131.0495	2	C9H7O+
133.0651	9	C9H9O+
134.0731	4	C9H10O+
135.0443	24	C8H7O2+
135.0804	4	C9H11O+
149.0602	6	C9H9O2+
150.0678	123	C9H10O2+
151.0756	4	C9H11O2+
165.0914	816	C10H13O2+
177.0913	5	C11H13O2+
218.1176	2	C13H16NO2+
233.154	5	C15H21O2+
243.1389	11	C16H19O2+
260.1651	128	C16H22NO2+
261.1606	8	C15H21N2O2+
264.197	4	C16H26NO2+
291.2076	7	C17H27N2O2+
303.2074	999	C18H27N2O2+
386.2336	18	C23H32NO4+
