Mass spectrum: Chloridazon; LC-ESI-ITFT; MS2; CE: 35; R=15000; [M+H]+
Name: Chloridazon
Name: 5-Amino-4-chloro-2-phenylpyridazin-3-one
Formula: C10H8ClN3O
Exact mass: 221.0356
SMILES: NC1=C(Cl)C(=O)N(N=C1)C1=CC=CC=C1
InChI: InChI=1S/C10H8ClN3O/c11-9-8(12)6-13-14(10(9)15)7-4-2-1-3-5-7/h1-6H,12H2
Instrument: LTQ Orbitrap XL Thermo Scientific
Instrument type: LC-ESI-ITFT
Ms type: MS2
Ion mode: POSITIVE
Ionization: ESI
Fragmentation mode: CID
Collision energy: 35 (nominal)
Resolution: 15000
Column name: Kinetex Core-Shell C18 2.6 um, 3.0 x 100 mm, Phenomenex
Retention time: 18.587 min
Base peak: 163.1326
Precursor m/z: 222.0429
Precursor type: [M+H]+
m/z	relative intensity	assigned
77.0385	8	C6H5+
92.0494	6	C6H6N+
94.065	12	C6H8N+
104.0494	98	C7H6N+
105.0444	1	C6H5N2+
119.0604	1	C7H7N2+
128.985	10	C4H2ClN2O+
130.0649	1	C9H8N+
146.0115	5	C4H5ClN3O+
149.0151	2	C9H6Cl+
159.0552	3	C9H7N2O+
159.0682	1	C10H9NO+
177.0208	1	C9H6ClN2+
186.0662	17	C10H8N3O+
193.0289	13	C10H8ClNO+
195.0318	1	C9H8ClN2O+
205.0164	14	C10H6ClN2O+
222.0426	999	C10H9ClN3O+
