Mass spectrum: Metoprolol; LC-ESI-ITFT; MS2; CE: 35; R=15000; [M+H]+
Name: Metoprolol
Name: 1-[4-(2-Methoxyethyl)phenoxy]-3-(propan-2-ylamino)propan-2-ol
Formula: C15H25NO3
Exact mass: 267.1834
SMILES: COCCC1=CC=C(OCC(O)CNC(C)C)C=C1
InChI: InChI=1S/C15H25NO3/c1-12(2)16-10-14(17)11-19-15-6-4-13(5-7-15)8-9-18-3/h4-7,12,14,16-17H,8-11H2,1-3H3
Instrument: LTQ Orbitrap XL Thermo Scientific
Instrument type: LC-ESI-ITFT
Ms type: MS2
Ion mode: POSITIVE
Ionization: ESI
Fragmentation mode: CID
Collision energy: 35 (nominal)
Resolution: 15000
Column name: Kinetex Core-Shell C18 2.6 um, 3.0 x 100 mm, Phenomenex
Retention time: 17.049 min
Base peak: 189.1022
Precursor m/z: 268.1907
Precursor type: [M+H]+
m/z	relative intensity	assigned
74.06	3	C3H8NO+
86.0965	3	C5H12N+
91.0543	2	C7H7+
96.0809	2	C6H10N+
98.0965	73	C6H12N+
105.0701	3	C8H9+
116.1071	433	C6H14NO+
117.0703	1	C9H9+
121.0649	89	C8H9O+
129.0701	2	C10H9+
131.0856	13	C10H11+
133.065	49	C9H9O+
135.0807	5	C9H11O+
141.0698	2	C11H9+
143.0856	4	C11H11+
144.0572	2	C10H8O+
147.0807	8	C10H11O+
150.0916	4	C9H12NO+
159.0807	199	C11H11O+
161.0964	43	C11H13O+
163.112	15	C11H15O+
165.0914	23	C10H13O2+
176.1073	90	C11H14NO+
177.0913	42	C11H13O2+
179.107	7	C11H15O2+
188.1281	2	C9H18NO3+
191.1069	487	C12H15O2+
194.1178	73	C11H16NO2+
201.1279	9	C14H17O+
218.1542	217	C14H20NO+
226.1441	133	C12H20NO3+
233.1535	5	C15H21O2+
250.1807	59	C15H24NO2+
268.1911	999	C15H26NO3+
