Mass spectrum: Metamitron; LC-ESI-ITFT; MS2; CE: 50%; R=15000; [M+H]+
Name: Metamitron
Name: 4-amino-3-methyl-6-phenyl-1,2,4-triazin-5-one
Formula: C10H10N4O
Exact mass: 202.08546094
SMILES: CC1=NN=C(C(=O)N1N)C1=CC=CC=C1
InChI: InChI=1S/C10H10N4O/c1-7-12-13-9(10(15)14(7)11)8-5-3-2-4-6-8/h2-6H,11H2,1H3
Instrument: LTQ Orbitrap XL Thermo Scientific
Instrument type: LC-ESI-ITFT
Ms type: MS2
Ion mode: POSITIVE
Ionization: ESI
Fragmentation mode: HCD
Collision energy: 50 % (nominal)
Resolution: 15000
Column name: Kinetex Evo C18 2.6 um 50 x 2.1 mm
Retention time: 5.330 min
Base peak: 203.0931
Precursor m/z: 203.0927
Precursor type: [M+H]+
Precursor intensity: 13283390
m/z	relative intensity	assigned
72.0442	20	C3H6NO+
72.0554	30	C2H6N3+
77.0384	10	C6H5+
79.0541	53	C6H7+
83.0238	28	C3H3N2O+
89.0385	22	C7H5+
91.0541	5	C7H7+
92.0493	7	C6H6N+
93.0568	3	C6H7N+
100.0503	6	C3H6N3O+
103.0538	3	C8H7+
104.0493	195	C7H6N+
105.0447	3	C6H5N2+
105.0571	23	C7H7N+
106.0649	89	C7H8N+
107.0601	3	C6H7N2+
116.0494	5	C8H6N+
117.0337	2	C8H5O+
117.0446	4	C7H5N2+
118.0649	5	C8H8N+
119.0602	15	C7H7N2+
120.0808	4	C8H10N+
130.0649	33	C9H8N+
132.0683	4	C8H8N2+
134.0599	3	C8H8NO+
134.0711	23	C7H8N3+
145.0395	43	C8H5N2O+
158.0601	2	C10H8NO+
158.0711	26	C9H8N3+
159.079	16	C9H9N3+
174.0786	212	C10H10N2O+
175.0976	999	C9H11N4+
186.0659	11	C10H8N3O+
187.0735	4	C10H9N3O+
203.0924	949	C10H11N4O+
