Mass spectrum: 1,4-Chrysenequinone; ESI-ITFT; MS2; CE: 35%; R=30000; [M+H]+
Name: 1,4-Chrysenequinone
Name: chrysene-1,4-dione
Formula: C18H10O2
Exact mass: 258.0681
SMILES: O=C\4c3c(ccc2c1ccccc1ccc23)C(=O)/C=C/4
InChI: InChI=1S/C18H10O2/c19-16-9-10-17(20)18-14-6-5-11-3-1-2-4-12(11)13(14)7-8-15(16)18/h1-10H
Instrument: LTQ Orbitrap XL Thermo Scientific
Instrument type: ESI-ITFT
Ms type: MS2
Ion mode: POSITIVE
Ionization: ESI
Fragmentation mode: CID
Collision energy: 35 % (nominal)
Resolution: 30000
Column name: N/A
Retention time: N/A min
Base peak: 259.0754
Precursor m/z: 259.0754
Precursor type: [M+H]+
m/z	relative intensity	assigned
189.0699	6	C15H9+
202.0771	1	C16H10+
203.0855	17	C16H11+
215.0364	1	C15H5NO+
215.0856	3	C17H11+
217.0649	13	C16H9O+
227.0008	2	C15HNO2+
227.073	1	C17H9N+
231.0806	999	C17H11O+
241.0649	1	C18H9O+
242.0726	1	C18H10O+
