Mass spectrum: Clothianidin; LC-ESI-ITFT; MS2; CE: 70%; R=15000; [M+H]+
Name: Clothianidin
Name: 1-[(2-chloro-1,3-thiazol-5-yl)methyl]-2-methyl-3-nitroguanidine
Formula: C6H8ClN5O2S
Exact mass: 249.008723176
SMILES: CN\C(NCC1=CN=C(Cl)S1)=N/[N+]([O-])=O
InChI: InChI=1S/C6H8ClN5O2S/c1-8-6(11-12(13)14)10-3-4-2-9-5(7)15-4/h2H,3H2,1H3,(H2,8,10,11)
Instrument: LTQ Orbitrap XL Thermo Scientific
Instrument type: LC-ESI-ITFT
Ms type: MS2
Ion mode: POSITIVE
Ionization: ESI
Fragmentation mode: HCD
Collision energy: 70 % (nominal)
Resolution: 15000
Column name: Kinetex Evo C18 2.6 um 50 x 2.1 mm
Retention time: 5.688 min
Base peak: 230.0076
Precursor m/z: 250.016
Precursor type: [M+H]+
Precursor intensity: 4023444.25
m/z	relative intensity	assigned
54.0337	15	C3H4N+
57.0447	16	C2H5N2+
70.9951	74	C3H3S+
86.0061	42	C3H4NS+
109.0638	15	C5H7N3+
110.0716	414	C5H8N3+
111.0795	208	C5H9N3+
113.0171	669	C4H5N2S+
131.9673	999	C4H3ClNS+
132.9752	15	C4H4ClNS+
142.0438	37	C5H8N3S+
146.9783	48	C4H4ClN2S+
147.9862	33	C4H5ClN2S+
153.0232	22	C5H5N4S+
167.039	25	C6H7N4S+
168.0472	26	C6H8N4S+
169.0547	250	C6H9N4S+
174.9731	41	C5H4ClN2OS+
