Mass spectrum: Fenpropimorph; LC-ESI-ITFT; MS2; CE: 40%; R=15000; [M+H]+
Name: Fenpropimorph
Name: (2S,6R)-4-[3-(4-tert-butylphenyl)-2-methylpropyl]-2,6-dimethylmorpholine
Formula: C20H33NO
Exact mass: 303.256214676
SMILES: CC(CN1C[C@H](C)O[C@H](C)C1)CC1=CC=C(C=C1)C(C)(C)C
InChI: InChI=1S/C20H33NO/c1-15(12-21-13-16(2)22-17(3)14-21)11-18-7-9-19(10-8-18)20(4,5)6/h7-10,15-17H,11-14H2,1-6H3/t15?,16-,17+
Instrument: LTQ Orbitrap XL Thermo Scientific
Instrument type: LC-ESI-ITFT
Ms type: MS2
Ion mode: POSITIVE
Ionization: ESI
Fragmentation mode: HCD
Collision energy: 40 % (nominal)
Resolution: 15000
Column name: Kinetex Evo C18 2.6 um 50 x 2.1 mm
Retention time: 9.321 min
Base peak: 304.2642
Precursor m/z: 304.2635
Precursor type: [M+H]+
Precursor intensity: 33165298
m/z	relative intensity	assigned
57.0696	9	C4H9+
98.0964	9	C6H12N+
116.107	38	C6H14NO+
130.1226	41	C7H16NO+
147.1168	61	C11H15+
189.1638	12	C14H21+
248.2	1	C16H26NO+
304.2634	999	C20H34NO+
