Mass spectrum: N,N-Dimethyldodecylamine N-oxide; LC-ESI-ITFT; MS2; CE: 80%; R=15000; [M+H]+
Name: N,N-Dimethyldodecylamine N-oxide
Name: Lauramine oxide
Name: N,N-dimethyldodecan-1-amine oxide
Formula: C14H31NO
Exact mass: 229.240564612
SMILES: CCCCCCCCCCCC[N+](C)(C)[O-]
InChI: InChI=1S/C14H31NO/c1-4-5-6-7-8-9-10-11-12-13-14-15(2,3)16/h4-14H2,1-3H3
Instrument: LTQ Orbitrap XL Thermo Scientific
Instrument type: LC-ESI-ITFT
Ms type: MS2
Ion mode: POSITIVE
Ionization: ESI
Fragmentation mode: HCD
Collision energy: 80 % (nominal)
Resolution: 15000
Column name: Kinetex Evo C18 2.6 um 50 x 2.1 mm
Retention time: 10.730 min
Base peak: 230.2482
Precursor m/z: 230.2478
Precursor type: [M+H]+
Precursor intensity: 84757728
m/z	relative intensity	assigned
62.0597	999	C2H8NO+
71.0853	256	C5H11+
212.2371	207	C14H30N+
