Mass spectrum: o-Dianisidine; LC-ESI-ITFT; MS2; CE: 35; R=15000; [M+H]+
Name: o-Dianisidine
Name: 3,3`-Dimethodybenzidine
Name: 4-(4-Amino-3-methoxyphenyl)-2-methoxyaniline
Formula: C14H16N2O2
Exact mass: 244.1212
SMILES: COc1cc(ccc1N)-c1ccc(N)c(OC)c1
InChI: InChI=1S/C14H16N2O2/c1-17-13-7-9(3-5-11(13)15)10-4-6-12(16)14(8-10)18-2/h3-8H,15-16H2,1-2H3
Instrument: LTQ Orbitrap XL Thermo Scientific
Instrument type: LC-ESI-ITFT
Ms type: MS2
Ion mode: POSITIVE
Ionization: ESI
Fragmentation mode: CID
Collision energy: 35 (nominal)
Resolution: 15000
Column name: Kinetex Core-Shell C18 2.6 um, 3.0 x 100 mm, Phenomenex
Retention time: 9.299 min
Base peak: 119.1068
Precursor m/z: 245.1285
Precursor type: [M+H]+
m/z	relative intensity	assigned
181.0764	4	C12H9N2+
182.0845	4	C12H10N2+
201.1029	3	C12H13N2O+
202.1062	17	C7H14N4O3+
213.1029	251	C13H13N2O+
214.1107	37	C13H14N2O+
217.0977	8	C12H13N2O2+
229.0979	10	C13H13N2O2+
230.1058	999	C13H14N2O2+
