Mass spectrum: Lorazepam; LC-ESI-ITFT; MS2; CE: 60%; R=15000; [M+H]+
Name: Lorazepam
Name: 7-chloro-5-(2-chlorophenyl)-3-hydroxy-1,3-dihydro-1,4-benzodiazepin-2-one
Formula: C15H10Cl2N2O2
Exact mass: 320.01193292
SMILES: OC1N=C(C2=CC=CC=C2Cl)C2=C(NC1=O)C=CC(Cl)=C2
InChI: InChI=1S/C15H10Cl2N2O2/c16-8-5-6-12-10(7-8)13(19-15(21)14(20)18-12)9-3-1-2-4-11(9)17/h1-7,15,21H,(H,18,20)
Instrument: LTQ Orbitrap XL Thermo Scientific
Instrument type: LC-ESI-ITFT
Ms type: MS2
Ion mode: POSITIVE
Ionization: ESI
Fragmentation mode: HCD
Collision energy: 60 % (nominal)
Resolution: 15000
Column name: Kinetex Evo C18 2.6 um 50 x 2.1 mm
Retention time: 10.313 min
Base peak: 515.2449
Precursor m/z: 321.0192
Precursor type: [M+H]+
Precursor intensity: 13486388
m/z	relative intensity	assigned
93.0577	29	C6H7N+
128.0267	74	C6H7ClN+
138.0111	213	C7H5ClN+
153.022	30	C7H6ClN2+
163.0064	161	C8H4ClN2+
166.0063	18	C5H8Cl2N2+
214.0425	7	C13H9ClN+
229.0536	885	C13H10ClN2+
239.0377	32	C14H8ClN2+
257.0475	13	C14H10ClN2O+
265.0303	27	C13H11Cl2N2+
275.0147	999	C14H9Cl2N2+
291.0096	13	C14H9Cl2N2O+
303.0093	30	C15H9Cl2N2O+
