Mass spectrum: Medroxyprogesteroneacetate; LC-ESI-ITFT; MS2; CE: 30%; R=15000; [M+H]+
Name: Medroxyprogesteroneacetate
Name: Medroxyprogesterone acetate
Name: [(6S,8R,9S,10R,13S,14S,17R)-17-acetyl-6,10,13-trimethyl-3-oxo-2,6,7,8,9,11,12,14,15,16-decahydro-1H-cyclopenta[a]phenanthren-17-yl] acetate
Formula: C24H34O4
Exact mass: 386.245709568
SMILES: C[C@H]1C[C@H]2[C@@H]3CC[C@](OC(C)=O)(C(C)=O)[C@@]3(C)CC[C@@H]2[C@@]2(C)CCC(=O)C=C12
InChI: InChI=1S/C24H34O4/c1-14-12-18-19(22(4)9-6-17(27)13-21(14)22)7-10-23(5)20(18)8-11-24(23,15(2)25)28-16(3)26/h13-14,18-20H,6-12H2,1-5H3/t14-,18+,19-,20-,22+,23-,24-/m0/s1
Instrument: LTQ Orbitrap XL Thermo Scientific
Instrument type: LC-ESI-ITFT
Ms type: MS2
Ion mode: POSITIVE
Ionization: ESI
Fragmentation mode: HCD
Collision energy: 30 % (nominal)
Resolution: 15000
Column name: Kinetex Evo C18 2.6 um 50 x 2.1 mm
Retention time: 12.421 min
Base peak: 315.2317
Precursor m/z: 387.253
Precursor type: [M+H]+
Precursor intensity: 10381708
m/z	relative intensity	assigned
97.0649	398	C6H9O+
111.0807	49	C7H11O+
123.0806	999	C8H11O+
137.0963	130	C9H13O+
145.1015	60	C11H13+
147.1168	39	C11H15+
171.1167	63	C13H15+
173.1325	106	C13H17+
175.1116	33	C12H15O+
175.1483	130	C13H19+
177.128	31	C12H17O+
187.111	34	C13H15O+
187.1484	69	C14H19+
191.1428	25	C13H19O+
197.1325	33	C15H17+
199.148	38	C15H19+
203.1433	44	C14H19O+
205.1588	176	C14H21O+
215.1432	47	C15H19O+
217.1586	53	C15H21O+
225.1647	37	C17H21+
227.1797	40	C17H23+
245.1902	42	C17H25O+
251.1786	18	C19H23+
257.1537	149	C17H21O2+
267.211	293	C20H27+
283.206	135	C20H27O+
285.2213	966	C20H29O+
291.2096	43	C22H27+
309.2212	273	C22H29O+
327.2317	986	C22H31O2+
345.2423	25	C22H33O3+
387.2535	285	C24H35O4+
