Mass spectrum: Metamitron; LC-ESI-ITFT; MS2; CE: 55; R=15000; [M+H]+
Name: Metamitron
Name: 4-Amino-3-methyl-6-phenyl-1,2,4-triazin-5-one
Formula: C10H10N4O
Exact mass: 202.0855
SMILES: CC1=NN=C(C(=O)N1N)C1=CC=CC=C1
InChI: InChI=1S/C10H10N4O/c1-7-12-13-9(10(15)14(7)11)8-5-3-2-4-6-8/h2-6H,11H2,1H3
Instrument: LTQ Orbitrap XL Thermo Scientific
Instrument type: LC-ESI-ITFT
Ms type: MS2
Ion mode: POSITIVE
Ionization: ESI
Fragmentation mode: CID
Collision energy: 55 (nominal)
Resolution: 15000
Column name: Kinetex Core-Shell C18 2.6 um, 3.0 x 100 mm, Phenomenex
Retention time: 17.809 min
Base peak: 163.1326
Precursor m/z: 203.0927
Precursor type: [M+H]+
m/z	relative intensity	assigned
72.0443	34	C3H6NO+
77.0385	47	C6H5+
79.0541	118	C6H7+
83.0239	8	C3H3N2O+
89.0385	34	C7H5+
91.0542	5	C7H7+
93.0571	3	C6H7N+
94.0652	8	C6H8N+
100.0505	17	C3H6N3O+
103.0542	19	C8H7+
104.0494	272	C7H6N+
105.0573	2	C7H7N+
106.065	393	C7H8N+
115.054	5	C9H7+
116.0494	29	C8H6N+
117.0336	8	C8H5O+
117.0446	8	C7H5N2+
117.0571	18	C8H7N+
118.0651	15	C8H8N+
119.0604	40	C7H7N2+
120.0807	32	C8H10N+
130.065	201	C9H8N+
131.0491	6	C9H7O+
132.0682	22	C8H8N2+
132.0806	10	C9H10N+
134.06	10	C8H8NO+
134.0712	18	C7H8N3+
143.0605	11	C9H7N2+
145.0395	288	C8H5N2O+
147.0917	3	C9H11N2+
148.0752	6	C9H10NO+
158.06	56	C10H8NO+
158.0712	29	C9H8N3+
159.0787	2	C9H9N3+
160.0633	4	C9H8N2O+
168.056	5	C10H6N3+
173.0705	3	C10H9N2O+
174.0787	795	C10H10N2O+
175.0866	114	C10H11N2O+
175.0977	999	C9H11N4+
186.0661	49	C10H8N3O+
187.074	10	C10H9N3O+
