Mass spectrum: Daminozide; LC-ESI-ITFT; MS2; CE: 20%; R=15000; [M+H]+
Name: Daminozide
Name: 4-(2,2-dimethylhydrazinyl)-4-oxobutanoic acid
Formula: C6H12N2O3
Exact mass: 160.084792244
SMILES: CN(C)NC(=O)CCC(O)=O
InChI: InChI=1S/C6H12N2O3/c1-8(2)7-5(9)3-4-6(10)11/h3-4H2,1-2H3,(H,7,9)(H,10,11)
Instrument: LTQ Orbitrap XL Thermo Scientific
Instrument type: LC-ESI-ITFT
Ms type: MS2
Ion mode: POSITIVE
Ionization: ESI
Fragmentation mode: HCD
Collision energy: 20 % (nominal)
Resolution: 15000
Column name: Kinetex Evo C18 2.6 um 50 x 2.1 mm
Retention time: 0.547 min
Base peak: 161.0927
Precursor m/z: 161.0921
Precursor type: [M+H]+
Precursor intensity: 32486900
m/z	relative intensity	assigned
61.0758	79	C2H9N2+
100.0398	1	C4H6NO2+
101.0234	7	C4H5O3+
115.0868	3	C5H11N2O+
143.0817	898	C6H11N2O2+
161.0923	999	C6H13N2O3+
