Mass spectrum: 2,6-Dichlorobenzamide; LC-ESI-ITFT; MS2; CE: 60%; R=15000; [M+H]+
Name: 2,6-Dichlorobenzamide
Formula: C7H5Cl2NO
Exact mass: 188.97481914
SMILES: NC(=O)C1=C(Cl)C=CC=C1Cl
InChI: InChI=1S/C7H5Cl2NO/c8-4-2-1-3-5(9)6(4)7(10)11/h1-3H,(H2,10,11)
Instrument: LTQ Orbitrap XL Thermo Scientific
Instrument type: LC-ESI-ITFT
Ms type: MS2
Ion mode: POSITIVE
Ionization: ESI
Fragmentation mode: HCD
Collision energy: 60 % (nominal)
Resolution: 15000
Column name: Kinetex Evo C18 2.6 um 50 x 2.1 mm
Retention time: 2.017 min
Base peak: 189.9828
Precursor m/z: 189.9821
Precursor type: [M+H]+
Precursor intensity: 4227276
m/z	relative intensity	assigned
146.9766	11	C6H5Cl2+
171.9721	57	C7H4Cl2N+
172.956	999	C7H3Cl2O+
189.9826	161	C7H6Cl2NO+
