Mass spectrum: Chloroxuron; LC-ESI-ITFT; MS2; CE: 55; R=15000; [M+H]+
Name: Chloroxuron
Name: 3-[4-(4-Chlorophenoxy)phenyl]-1,1-dimethylurea
Formula: C15H15ClN2O2
Exact mass: 290.0822
SMILES: CN(C)C(=O)NC1=CC=C(OC2=CC=C(Cl)C=C2)C=C1
InChI: InChI=1S/C15H15ClN2O2/c1-18(2)15(19)17-12-5-9-14(10-6-12)20-13-7-3-11(16)4-8-13/h3-10H,1-2H3,(H,17,19)
Instrument: LTQ Orbitrap XL Thermo Scientific
Instrument type: LC-ESI-ITFT
Ms type: MS2
Ion mode: POSITIVE
Ionization: ESI
Fragmentation mode: HCD
Collision energy: 55 (nominal)
Resolution: 15000
Column name: Kinetex Core-Shell C18 2.6 um, 3.0 x 100 mm, Phenomenex
Retention time: 25.093 min
Base peak: 291.0891
Precursor m/z: 291.0895
Precursor type: [M+H]+
m/z	relative intensity	assigned
72.0442	999	C3H6NO+
106.0649	15	C7H8N+
118.065	42	C8H8N+
119.0728	3	C8H9N+
147.0674	9	C9H9NO+
163.0308	24	C10H8Cl+
163.0867	14	C9H11N2O+
164.0942	9	C9H12N2O+
190.041	2	C14H6O+
246.0314	7	C13H9ClNO2+
291.0898	4	C15H16ClN2O2+
