Mass spectrum: Gestoden; LC-ESI-ITFT; MS2; CE: 50%; R=15000; [M+H]+
Name: Gestoden
Name: Gestodene
Name: (8R,9S,10R,13S,14S,17R)-13-ethyl-17-ethynyl-17-hydroxy-1,2,6,7,8,9,10,11,12,14-decahydrocyclopenta[a]phenanthren-3-one
Formula: C21H26O2
Exact mass: 310.193280072
SMILES: [H][C@@]12C=C[C@@](O)(C#C)[C@@]1(CC)CC[C@]1([H])[C@@]3([H])CCC(=O)C=C3CC[C@@]21[H]
InChI: InChI=1S/C21H26O2/c1-3-20-11-9-17-16-8-6-15(22)13-14(16)5-7-18(17)19(20)10-12-21(20,23)4-2/h2,10,12-13,16-19,23H,3,5-9,11H2,1H3/t16-,17+,18+,19-,20-,21-/m0/s1
Instrument: LTQ Orbitrap XL Thermo Scientific
Instrument type: LC-ESI-ITFT
Ms type: MS2
Ion mode: POSITIVE
Ionization: ESI
Fragmentation mode: HCD
Collision energy: 50 % (nominal)
Resolution: 15000
Column name: Kinetex Evo C18 2.6 um 50 x 2.1 mm
Retention time: 11.298 min
Base peak: 311.2006
Precursor m/z: 311.2006
Precursor type: [M+H]+
Precursor intensity: 12725767
m/z	relative intensity	assigned
79.054	114	C6H7+
81.0332	317	C5H5O+
81.0696	128	C6H9+
83.0489	274	C5H7O+
91.054	168	C7H7+
93.0696	173	C7H9+
95.049	37	C6H7O+
95.0853	165	C7H11+
97.0646	28	C6H9O+
105.0333	67	C7H5O+
105.0695	179	C8H9+
107.0489	188	C7H7O+
107.0853	131	C8H11+
109.0645	999	C7H9O+
109.1009	72	C8H13+
115.0538	21	C9H7+
117.0696	107	C9H9+
119.0488	16	C8H7O+
119.0852	209	C9H11+
121.0644	91	C8H9O+
121.1008	82	C9H13+
123.08	66	C8H11O+
128.0615	22	C10H8+
129.0695	126	C10H9+
131.0489	13	C9H7O+
131.0852	186	C10H11+
133.0645	162	C9H9O+
133.1009	146	C10H13+
135.08	179	C9H11O+
135.1164	18	C10H15+
137.0958	26	C9H13O+
141.0694	76	C11H9+
142.0772	24	C11H10+
143.0851	163	C11H11+
145.0643	38	C10H9O+
145.1008	199	C11H13+
147.08	156	C10H11O+
147.1164	68	C11H15+
149.0956	147	C10H13O+
149.1324	22	C11H17+
154.077	19	C12H10+
155.0852	116	C12H11+
156.0932	14	C12H12+
157.065	16	C11H9O+
157.1008	113	C12H13+
159.0801	111	C11H11O+
159.1165	102	C12H15+
161.0958	105	C11H13O+
161.1321	52	C12H17+
163.1113	76	C11H15O+
167.0853	47	C13H11+
168.0929	28	C13H12+
169.1008	84	C13H13+
171.0805	18	C12H11O+
171.1164	122	C13H15+
173.0957	66	C12H13O+
173.1322	79	C13H17+
175.1114	74	C12H15O+
175.148	24	C13H19+
179.0855	18	C14H11+
181.1007	76	C14H13+
183.1163	133	C14H15+
185.0953	31	C13H13O+
185.1323	76	C14H17+
187.1114	49	C13H15O+
187.1474	20	C14H19+
189.127	23	C13H17O+
193.1007	19	C15H13+
195.1159	51	C15H15+
197.1322	47	C15H17+
199.1108	29	C14H15O+
199.1475	20	C15H19+
201.127	150	C14H17O+
201.1632	38	C15H21+
203.1424	18	C14H19O+
207.1167	17	C16H15+
209.096	12	C15H13O+
209.1317	41	C16H17+
211.1481	21	C16H19+
213.1263	15	C15H17O+
213.1636	52	C16H21+
215.1428	16	C15H19O+
219.1166	21	C17H15+
221.1322	12	C17H17+
223.1121	21	C16H15O+
223.1478	39	C17H19+
225.1631	41	C17H21+
230.1661	21	C16H22O+
231.1737	42	C16H23O+
235.1484	21	C18H19+
243.1739	46	C17H23O+
251.18	17	C19H23+
273.1648	10	C21H21+
293.189	20	C21H25O+
