Mass spectrum: 4-Methylbenzylidene camphor; LC-ESI-ITFT; MS2; CE: 30%; R=15000; [M+H]+
Name: 4-Methylbenzylidene camphor
Name: 1,7,7-trimethyl-3-[(4-methylphenyl)methylidene]bicyclo[2.2.1]heptan-2-one
Formula: C18H22O
Exact mass: 254.167065324
SMILES: CC1=CC=C(C=C2C3CCC(C)(C2=O)C3(C)C)C=C1
InChI: InChI=1S/C18H22O/c1-12-5-7-13(8-6-12)11-14-15-9-10-18(4,16(14)19)17(15,2)3/h5-8,11,15H,9-10H2,1-4H3
Instrument: LTQ Orbitrap XL Thermo Scientific
Instrument type: LC-ESI-ITFT
Ms type: MS2
Ion mode: POSITIVE
Ionization: ESI
Fragmentation mode: HCD
Collision energy: 30 % (nominal)
Resolution: 15000
Column name: Kinetex Evo C18 2.6 um 50 x 2.1 mm
Retention time: 13.561 min
Base peak: 255.1746
Precursor m/z: 255.1743
Precursor type: [M+H]+
Precursor intensity: 20801692
m/z	relative intensity	assigned
81.0699	2	C6H9+
85.0646	9	C5H9O+
95.0855	11	C7H11+
97.0647	89	C6H9O+
99.0803	8	C6H11O+
105.0697	39	C8H9+
107.0855	2	C8H11+
109.1011	17	C8H13+
111.0803	93	C7H11O+
119.0489	18	C8H7O+
119.0854	20	C9H11+
121.1009	7	C9H13+
123.0803	4	C8H11O+
123.1165	4	C9H15+
131.0853	25	C10H11+
133.1011	5	C10H13+
135.1169	3	C10H15+
137.0957	5	C9H13O+
143.0853	17	C11H11+
145.101	20	C11H13+
147.1166	10	C11H15+
149.0956	3	C10H13O+
155.0855	4	C12H11+
157.101	107	C12H13+
159.0803	7	C11H11O+
159.1166	23	C12H15+
163.1115	26	C11H15O+
169.1008	11	C13H13+
171.0803	21	C12H11O+
171.1167	76	C13H15+
173.0959	15	C12H13O+
181.1013	6	C14H13+
183.1166	46	C14H15+
185.0959	39	C13H13O+
185.1323	6	C14H17+
187.1114	5	C13H15O+
195.1166	45	C15H15+
197.1322	43	C15H17+
199.1114	60	C14H15O+
208.1241	3	C16H16+
209.1323	14	C16H17+
211.1114	12	C15H15O+
211.1479	23	C16H19+
212.1193	84	C15H16O+
213.1271	94	C15H17O+
213.1634	20	C16H21+
222.1409	2	C17H18+
227.1425	14	C16H19O+
227.1791	25	C17H23+
237.1635	153	C18H21+
255.174	999	C18H23O+
