Mass spectrum: Cortisone; LC-ESI-ITFT; MS2; CE: 30%; R=15000; [M+H]+
Name: Cortisone
Name: (8S,9S,10R,13S,14S,17R)-17-hydroxy-17-(2-hydroxyacetyl)-10,13-dimethyl-1,2,6,7,8,9,12,14,15,16-decahydrocyclopenta[a]phenanthrene-3,11-dione
Formula: C21H28O5
Exact mass: 360.193673996
SMILES: C[C@]12CC(=O)[C@H]3[C@@H](CCC4=CC(=O)CC[C@]34C)[C@@H]1CC[C@]2(O)C(=O)CO
InChI: InChI=1S/C21H28O5/c1-19-7-5-13(23)9-12(19)3-4-14-15-6-8-21(26,17(25)11-22)20(15,2)10-16(24)18(14)19/h9,14-15,18,22,26H,3-8,10-11H2,1-2H3/t14-,15-,18+,19-,20-,21-/m0/s1
Instrument: LTQ Orbitrap XL Thermo Scientific
Instrument type: LC-ESI-ITFT
Ms type: MS2
Ion mode: POSITIVE
Ionization: ESI
Fragmentation mode: HCD
Collision energy: 30 % (nominal)
Resolution: 15000
Column name: Kinetex Evo C18 2.6 um 50 x 2.1 mm
Retention time: 9.574 min
Base peak: 361.201
Precursor m/z: 361.201
Precursor type: [M+H]+
Precursor intensity: 16716732
m/z	relative intensity	assigned
93.0697	9	C7H9+
105.0696	23	C8H9+
107.0852	13	C8H11+
119.0853	11	C9H11+
121.0645	79	C8H9O+
121.1011	6	C9H13+
123.0801	10	C8H11O+
131.0855	9	C10H11+
133.0645	3	C9H9O+
133.1008	5	C10H13+
135.0801	30	C9H11O+
135.1165	19	C10H15+
137.0961	7	C9H13O+
139.075	24	C8H11O2+
143.0855	3	C11H11+
145.1008	37	C11H13+
147.0801	25	C10H11O+
147.1165	3	C11H15+
149.096	8	C10H13O+
153.0905	6	C9H13O2+
157.1009	6	C12H13+
159.0801	7	C11H11O+
159.1164	4	C12H15+
161.0958	17	C11H13O+
163.1114	551	C11H15O+
165.0905	4	C10H13O2+
165.1275	3	C11H17O+
171.0801	7	C12H11O+
171.1168	11	C13H15+
173.0957	10	C12H13O+
175.1111	5	C12H15O+
177.0901	4	C11H13O2+
181.1007	5	C14H13+
183.1167	5	C14H15+
185.0955	5	C13H13O+
187.1113	6	C13H15O+
189.0904	9	C12H13O2+
189.1268	6	C13H17O+
197.1326	3	C15H17+
199.111	10	C14H15O+
201.1267	6	C14H17O+
207.1017	5	C12H15O3+
207.1161	4	C16H15+
211.111	5	C15H15O+
213.1274	4	C15H17O+
215.1423	2	C15H19O+
217.1216	3	C14H17O2+
221.1319	7	C17H17+
223.1107	3	C16H15O+
223.1483	7	C17H19+
225.1274	7	C16H17O+
227.142	6	C16H19O+
229.1212	6	C15H17O2+
237.1635	4	C18H21+
239.1424	22	C17H19O+
239.1787	4	C18H23+
241.1216	13	C16H17O2+
241.1586	9	C17H21O+
243.1377	4	C16H19O2+
243.1735	8	C17H23O+
247.1479	7	C19H19+
249.1641	5	C19H21+
253.1575	5	C18H21O+
255.1369	4	C17H19O2+
255.1739	7	C18H23O+
257.1529	14	C17H21O2+
257.1891	7	C18H25O+
263.1422	4	C19H19O+
265.1582	38	C19H21O+
267.1377	10	C18H19O2+
267.1739	43	C19H23O+
279.1735	15	C20H23O+
283.1686	55	C19H23O2+
284.1763	2	C19H24O2+
285.184	38	C19H25O2+
289.1585	6	C21H21O+
295.1681	18	C20H23O2+
297.1838	16	C20H25O2+
299.1634	39	C19H23O3+
301.1791	63	C19H25O3+
307.1683	28	C21H23O2+
313.1789	29	C20H25O3+
317.1743	3	C19H25O4+
325.1789	45	C21H25O3+
343.1895	99	C21H27O4+
361.2	999	C21H29O5+
