Mass spectrum: Diethylstilbestrol; LC-ESI-ITFT; MS2; CE: 35; R=15000; [M+H]+
Name: Diethylstilbestrol
Name: 4-[(E)-4-(4-Hydroxyphenyl)hex-3-en-3-yl]phenol
Formula: C18H20O2
Exact mass: 268.1463
SMILES: CC\C(=C(\CC)C1=CC=C(O)C=C1)C1=CC=C(O)C=C1
InChI: InChI=1S/C18H20O2/c1-3-17(13-5-9-15(19)10-6-13)18(4-2)14-7-11-16(20)12-8-14/h5-12,19-20H,3-4H2,1-2H3/b18-17+
Instrument: LTQ Orbitrap XL Thermo Scientific
Instrument type: LC-ESI-ITFT
Ms type: MS2
Ion mode: POSITIVE
Ionization: ESI
Fragmentation mode: CID
Collision energy: 35 (nominal)
Resolution: 15000
Column name: Kinetex Core-Shell C18 2.6 um, 3.0 x 100 mm, Phenomenex
Retention time: 24.897 min
Base peak: 341.2103
Precursor m/z: 269.1536
Precursor type: [M+H]+
m/z	relative intensity	assigned
105.0698	7	C8H9+
107.049	239	C7H7O+
107.0854	12	C8H11+
109.1012	10	C8H13+
121.0647	118	C8H9O+
123.0439	21	C7H7O2+
133.0647	109	C9H9O+
133.101	15	C10H13+
135.0803	999	C9H11O+
137.0597	26	C8H9O2+
145.101	9	C11H13+
147.1169	24	C11H15+
149.0593	15	C9H9O2+
159.1168	55	C12H15+
161.0595	22	C10H9O2+
173.0596	336	C11H9O2+
173.0959	21	C12H13O+
175.0752	87	C11H11O2+
175.1116	82	C12H15O+
181.0648	11	C13H9O+
185.0965	9	C13H13O+
187.0754	27	C12H11O2+
195.0807	18	C14H11O+
195.1174	12	C15H15+
199.0751	782	C13H11O2+
201.0911	20	C13H13O2+
209.096	24	C15H13O+
211.1112	9	C15H15O+
213.0907	108	C14H13O2+
213.1267	10	C15H17O+
214.0984	10	C14H14O2+
222.1035	21	C16H14O+
223.1115	68	C16H15O+
223.1483	38	C17H19+
227.1062	54	C15H15O2+
227.1432	21	C16H19O+
239.1062	18	C16H15O2+
241.1219	80	C16H17O2+
241.1585	52	C17H21O+
251.1428	424	C18H19O+
