Mass spectrum: Diflufenican; LC-ESI-ITFT; MS2; CE: 40%; R=15000; [M+H]+
Name: Diflufenican
Name: N-(2,4-difluorophenyl)-2-[3-(trifluoromethyl)phenoxy]pyridine-3-carboxamide
Formula: C19H11F5N2O2
Exact mass: 394.074068692
SMILES: FC1=CC=C(NC(=O)C2=CC=CN=C2OC2=CC=CC(=C2)C(F)(F)F)C(F)=C1
InChI: InChI=1S/C19H11F5N2O2/c20-12-6-7-16(15(21)10-12)26-17(27)14-5-2-8-25-18(14)28-13-4-1-3-11(9-13)19(22,23)24/h1-10H,(H,26,27)
Instrument: LTQ Orbitrap XL Thermo Scientific
Instrument type: LC-ESI-ITFT
Ms type: MS2
Ion mode: POSITIVE
Ionization: ESI
Fragmentation mode: HCD
Collision energy: 40 % (nominal)
Resolution: 15000
Column name: Kinetex Evo C18 2.6 um 50 x 2.1 mm
Retention time: 13.129 min
Base peak: 65.0596
Precursor m/z: 395.0813
Precursor type: [M+H]+
Precursor intensity: 2086623.38
m/z	relative intensity	assigned
122.0238	4	C6H4NO2+
178.0276	1	C7H4F4N+
198.0553	3	C12H8NO2+
233.0524	47	C12H7F2N2O+
238.0472	5	C12H7F3NO+
246.0364	52	C13H6F2NO2+
247.0443	9	C13H7F2NO2+
266.0427	999	C13H7F3NO2+
284.0531	26	C16H8F2NO2+
335.0629	6	C19H9F2N2O2+
355.0689	3	C19H10F3N2O2+
375.0746	11	C19H11F4N2O2+
377.0698	5	C19H10F5N2O+
