Mass spectrum: Diazepam; LC-ESI-ITFT; MS2; CE: 40%; R=15000; [M+H]+
Name: Diazepam
Name: 7-chloro-1-methyl-5-phenyl-3H-1,4-benzodiazepin-2-one
Formula: C16H13ClN2O
Exact mass: 284.071640716
SMILES: CN1C2=C(C=C(Cl)C=C2)C(=NCC1=O)C1=CC=CC=C1
InChI: InChI=1S/C16H13ClN2O/c1-19-14-8-7-12(17)9-13(14)16(18-10-15(19)20)11-5-3-2-4-6-11/h2-9H,10H2,1H3
Instrument: LTQ Orbitrap XL Thermo Scientific
Instrument type: LC-ESI-ITFT
Ms type: MS2
Ion mode: POSITIVE
Ionization: ESI
Fragmentation mode: HCD
Collision energy: 40 % (nominal)
Resolution: 15000
Column name: Kinetex Evo C18 2.6 um 50 x 2.1 mm
Retention time: 10.925 min
Base peak: 372.2332
Precursor m/z: 285.0789
Precursor type: [M+H]+
Precursor intensity: 32794984
m/z	relative intensity	assigned
91.0543	4	C7H7+
105.0335	18	C7H5O+
147.068	1	C9H9NO+
154.0418	76	C8H9ClN+
167.0134	1	C8H6ClNO+
172.0634	2	C10H8N2O+
179.037	4	C9H8ClN2+
180.0211	6	C9H7ClNO+
182.0368	29	C9H9ClNO+
193.0887	15	C14H11N+
207.0324	2	C10H8ClN2O+
221.1073	2	C15H13N2+
222.1152	33	C15H14N2+
227.0496	1	C14H10ClN+
228.0575	41	C14H11ClN+
230.0733	1	C14H13ClN+
241.0529	2	C14H10ClN2+
255.0679	2	C15H12ClN2+
256.0768	1	C15H13ClN2+
257.0841	101	C15H14ClN2+
285.079	999	C16H14ClN2O+
