Mass spectrum: ISO E Super; LC-ESI-ITFT; MS2; CE: 30%; R=15000; [M+H]+
Name: ISO E Super
Name: 1-(2,3,8,8-Tetramethyl-1,2,3,4,5,6,7,8-octahydronaphthalen-2-yl)ethanone
Name: 1-(2,3,8,8-tetramethyl-1,3,4,5,6,7-hexahydronaphthalen-2-yl)ethanone
Formula: C16H26O
Exact mass: 234.198365452
SMILES: CC1CC2=C(CC1(C)C(C)=O)C(C)(C)CCC2
InChI: InChI=1S/C16H26O/c1-11-9-13-7-6-8-15(3,4)14(13)10-16(11,5)12(2)17/h11H,6-10H2,1-5H3
Instrument: LTQ Orbitrap XL Thermo Scientific
Instrument type: LC-ESI-ITFT
Ms type: MS2
Ion mode: POSITIVE
Ionization: ESI
Fragmentation mode: HCD
Collision energy: 30 % (nominal)
Resolution: 15000
Column name: Kinetex Evo C18 2.6 um 50 x 2.1 mm
Retention time: 13.863 min
Base peak: 116.986
Precursor m/z: 235.2056
Precursor type: [M+H]+
Precursor intensity: 277059.66
m/z	relative intensity	assigned
81.07	15	C6H9+
95.0857	48	C7H11+
109.1014	27	C8H13+
119.0856	31	C9H11+
121.1015	17	C9H13+
123.117	14	C9H15+
133.1015	16	C10H13+
135.1173	11	C10H15+
139.1117	10	C9H15O+
147.1169	22	C11H15+
153.1274	11	C10H17O+
161.1327	22	C12H17+
175.1484	55	C13H19+
177.164	51	C13H21+
191.1796	55	C14H23+
217.1953	295	C16H25+
235.2058	999	C16H27O+
