Mass spectrum: ISO E Super; LC-ESI-ITFT; MS2; CE: 80%; R=15000; [M+H]+
Name: ISO E Super
Name: 1-(2,3,8,8-Tetramethyl-1,2,3,4,5,6,7,8-octahydronaphthalen-2-yl)ethanone
Name: 1-(2,3,8,8-tetramethyl-1,3,4,5,6,7-hexahydronaphthalen-2-yl)ethanone
Formula: C16H26O
Exact mass: 234.198365452
SMILES: CC1CC2=C(CC1(C)C(C)=O)C(C)(C)CCC2
InChI: InChI=1S/C16H26O/c1-11-9-13-7-6-8-15(3,4)14(13)10-16(11,5)12(2)17/h11H,6-10H2,1-5H3
Instrument: LTQ Orbitrap XL Thermo Scientific
Instrument type: LC-ESI-ITFT
Ms type: MS2
Ion mode: POSITIVE
Ionization: ESI
Fragmentation mode: HCD
Collision energy: 80 % (nominal)
Resolution: 15000
Column name: Kinetex Evo C18 2.6 um 50 x 2.1 mm
Retention time: 13.849 min
Base peak: 116.9859
Precursor m/z: 235.2056
Precursor type: [M+H]+
Precursor intensity: 382039.38
m/z	relative intensity	assigned
55.054	302	C4H7+
57.0697	202	C4H9+
59.049	436	C3H7O+
67.0542	210	C5H7+
69.0698	458	C5H9+
81.07	385	C6H9+
83.0854	94	C6H11+
85.0649	191	C5H9O+
91.0545	136	C7H7+
93.07	328	C7H9+
95.0856	999	C7H11+
99.0804	100	C6H11O+
105.0699	225	C8H9+
107.0856	467	C8H11+
109.1012	547	C8H13+
119.0855	386	C9H11+
121.1013	453	C9H13+
123.1169	175	C9H15+
133.1013	265	C10H13+
135.117	173	C10H15+
147.1169	204	C11H15+
