Mass spectrum: 2-Hydroxyquinoline; LC-ESI-ITFT; MS2; CE: 90%; R=15000; [M+H]+
Name: 2-Hydroxyquinoline
Name: 1H-quinolin-2-one
Formula: C9H7NO
Exact mass: 145.052763844
SMILES: OC1=NC2=CC=CC=C2C=C1
InChI: InChI=1S/C9H7NO/c11-9-6-5-7-3-1-2-4-8(7)10-9/h1-6H,(H,10,11)
Instrument: LTQ Orbitrap XL Thermo Scientific
Instrument type: LC-ESI-ITFT
Ms type: MS2
Ion mode: POSITIVE
Ionization: ESI
Fragmentation mode: HCD
Collision energy: 90 % (nominal)
Resolution: 15000
Column name: Kinetex Evo C18 2.6 um 50 x 2.1 mm
Retention time: 6.023 min
Base peak: 240.1815
Precursor m/z: 146.06
Precursor type: [M+H]+
Precursor intensity: 1051414.62
m/z	relative intensity	assigned
77.0385	10	C6H5+
91.0543	8	C7H7+
95.0492	1	C6H7O+
101.0386	6	C8H5+
118.0652	3	C8H8N+
128.0495	999	C9H6N+
146.06	682	C9H8NO+
