Mass spectrum: Diphenylphosphate; LC-ESI-ITFT; MS2; CE: 80%; R=15000; [M+H]+
Name: Diphenylphosphate
Name: Diphenyl phosphate
Name: diphenyl hydrogen phosphate
Formula: C12H11O4P
Exact mass: 250.039495462
SMILES: OP(=O)(OC1=CC=CC=C1)OC1=CC=CC=C1
InChI: InChI=1S/C12H11O4P/c13-17(14,15-11-7-3-1-4-8-11)16-12-9-5-2-6-10-12/h1-10H,(H,13,14)
Instrument: LTQ Orbitrap XL Thermo Scientific
Instrument type: LC-ESI-ITFT
Ms type: MS2
Ion mode: POSITIVE
Ionization: ESI
Fragmentation mode: HCD
Collision energy: 80 % (nominal)
Resolution: 15000
Column name: Kinetex Evo C18 2.6 um 50 x 2.1 mm
Retention time: 11.582 min
Base peak: 251.0477
Precursor m/z: 251.0468
Precursor type: [M+H]+
Precursor intensity: 4900022.5
m/z	relative intensity	assigned
51.0228	19	C4H3+
53.0385	3	C4H5+
65.0386	4	C5H5+
77.0387	999	C6H5+
94.0415	16	C6H6O+
95.0493	349	C6H7O+
98.9844	25	H4O4P+
101.0153	4	C4H6OP+
109.0644	2	C7H9O+
129.0099	3	C5H6O2P+
138.9947	8	C6H4O2P+
141.0703	2	C11H9+
151.0546	25	C12H7+
152.0623	455	C12H8+
153.0702	64	C12H9+
157.0053	19	C6H6O3P+
168.0573	78	C12H8O+
169.0651	14	C12H9O+
175.0158	124	C6H8O4P+
187.0312	8	C11H8OP+
215.0261	30	C12H8O2P+
233.0368	19	C12H10O3P+
