Mass spectrum: Ciprofloxacin; LC-ESI-ITFT; MS2; CE: 30%; R=15000; [M+H]+
Name: Ciprofloxacin
Name: 1-cyclopropyl-6-fluoro-4-oxo-7-piperazin-1-ylquinoline-3-carboxylic acid
Formula: C17H18FN3O3
Exact mass: 331.133219656
SMILES: OC(=O)C1=CN(C2CC2)C2=C(C=C(F)C(=C2)N2CCNCC2)C1=O
InChI: InChI=1S/C17H18FN3O3/c18-13-7-11-14(8-15(13)20-5-3-19-4-6-20)21(10-1-2-10)9-12(16(11)22)17(23)24/h7-10,19H,1-6H2,(H,23,24)
Instrument: LTQ Orbitrap XL Thermo Scientific
Instrument type: LC-ESI-ITFT
Ms type: MS2
Ion mode: POSITIVE
Ionization: ESI
Fragmentation mode: HCD
Collision energy: 30 % (nominal)
Resolution: 15000
Column name: Kinetex Evo C18 2.6 um 50 x 2.1 mm
Retention time: 5.025 min
Base peak: 116.9863
Precursor m/z: 332.1405
Precursor type: [M+H]+
Precursor intensity: 1311348
m/z	relative intensity	assigned
231.0936	12	C13H12FN2O+
245.1094	142	C14H14FN2O+
268.1457	31	C13H19FN3O2+
288.1516	999	C16H19FN3O+
314.1309	150	C17H17FN3O2+
332.1414	838	C17H19FN3O3+
