Mass spectrum: Carbendazim; LC-ESI-ITFT; MS2; CE: 55; R=15000; [M+H]+
Name: Carbendazim
Name: N-(1H-Benzimidazol-2-yl)carbamate-metjyl
Formula: C9H9N3O2
Exact mass: 191.0695
SMILES: COC(=O)NC1=NC2=CC=CC=C2N1
InChI: InChI=1S/C9H9N3O2/c1-14-9(13)12-8-10-6-4-2-3-5-7(6)11-8/h2-5H,1H3,(H2,10,11,12,13)
Instrument: LTQ Orbitrap XL Thermo Scientific
Instrument type: LC-ESI-ITFT
Ms type: MS2
Ion mode: POSITIVE
Ionization: ESI
Fragmentation mode: CID
Collision energy: 55 (nominal)
Resolution: 15000
Column name: Kinetex Core-Shell C18 2.6 um, 3.0 x 100 mm, Phenomenex
Retention time: 13.381 min
Base peak: 163.1326
Precursor m/z: 192.0768
Precursor type: [M+H]+
m/z	relative intensity	assigned
160.0504	999	C8H6N3O+
