Mass spectrum: Fenpropimorph; LC-ESI-ITFT; MS2; CE: 55; R=15000; [M+H]+
Name: Fenpropimorph
Name: 4-[3-(4-Tert-butylphenyl)-2-methylpropyl]-2,6-dimethylmorpholine
Formula: C20H33NO
Exact mass: 303.2562
SMILES: CC(CN1CC(C)OC(C)C1)CC1=CC=C(C=C1)C(C)(C)C
InChI: InChI=1S/C20H33NO/c1-15(12-21-13-16(2)22-17(3)14-21)11-18-7-9-19(10-8-18)20(4,5)6/h7-10,15-17H,11-14H2,1-6H3
Instrument: LTQ Orbitrap XL Thermo Scientific
Instrument type: LC-ESI-ITFT
Ms type: MS2
Ion mode: POSITIVE
Ionization: ESI
Fragmentation mode: HCD
Collision energy: 55 (nominal)
Resolution: 15000
Column name: Kinetex Core-Shell C18 2.6 um, 3.0 x 100 mm, Phenomenex
Retention time: 22.432 min
Base peak: 163.1327
Precursor m/z: 304.2635
Precursor type: [M+H]+
m/z	relative intensity	assigned
70.0651	5	C4H8N+
72.0807	8	C4H10N+
81.0698	4	C6H9+
86.0964	3	C5H12N+
88.0757	4	C4H10NO+
91.0543	21	C7H7+
98.0964	223	C6H12N+
100.1121	3	C6H14N+
102.0913	9	C5H12NO+
105.0699	38	C8H9+
107.0855	3	C8H11+
112.1122	7	C7H14N+
114.0913	7	C6H12NO+
116.107	265	C6H14NO+
117.0698	2	C9H9+
119.0856	33	C9H11+
128.107	3	C7H14NO+
130.1227	307	C7H16NO+
131.0853	2	C10H11+
132.0934	17	C10H12+
133.1013	4	C10H13+
147.1168	999	C11H15+
148.1201	44	C6H16N2O2+
161.1326	28	C12H17+
189.164	43	C14H21+
248.201	11	C16H26NO+
262.2162	2	C17H28NO+
286.2529	2	C20H32N+
304.2637	770	C20H34NO+
