Mass spectrum: Canrenone; LC-ESI-ITFT; MS2; CE: 55; R=15000; [M+H]+
Name: Canrenone
Name: (8R,9S,10R,13S,14S,17R)-10,13-Dimethylspiro[2,8,9,11,12,14,15,16-octahydro-1H-cyclopenta[a]phenanthrene-17,5`-oxolane]-2`,3-dione
Formula: C22H28O3
Exact mass: 340.2038
SMILES: C[C@]12CC[C@H]3[C@@H](C=CC4=CC(=O)CC[C@]34C)[C@@H]1CC[C@@]21CCC(=O)O1
InChI: InChI=1S/C22H28O3/c1-20-9-5-15(23)13-14(20)3-4-16-17(20)6-10-21(2)18(16)7-11-22(21)12-8-19(24)25-22/h3-4,13,16-18H,5-12H2,1-2H3/t16-,17+,18+,20+,21+,22-/m1/s1
Instrument: LTQ Orbitrap XL Thermo Scientific
Instrument type: LC-ESI-ITFT
Ms type: MS2
Ion mode: POSITIVE
Ionization: ESI
Fragmentation mode: CID
Collision energy: 55 (nominal)
Resolution: 15000
Column name: Kinetex Core-Shell C18 2.6 um, 3.0 x 100 mm, Phenomenex
Retention time: 24.610 min
Base peak: 299.1997
Precursor m/z: 341.2111
Precursor type: [M+H]+
m/z	relative intensity	assigned
105.0697	23	C8H9+
107.0854	76	C8H11+
109.0647	3	C7H9O+
115.0543	7	C9H7+
117.0696	14	C9H9+
119.0854	23	C9H11+
121.101	16	C9H13+
123.0807	3	C8H11O+
128.0617	10	C10H8+
129.0698	8	C10H9+
131.0853	22	C10H11+
133.1013	6	C10H13+
135.0802	13	C9H11O+
135.1173	3	C10H15+
137.0959	25	C9H13O+
141.0697	34	C11H9+
143.0854	161	C11H11+
145.0647	6	C10H9O+
145.101	96	C11H13+
147.0804	20	C10H11O+
147.1168	13	C11H15+
149.0958	16	C10H13O+
153.0911	6	C9H13O2+
154.0775	13	C12H10+
155.0853	31	C12H11+
157.101	27	C12H13+
159.0802	43	C11H11O+
159.1167	29	C12H15+
161.096	67	C11H13O+
163.1116	30	C11H15O+
165.091	6	C10H13O2+
167.0851	4	C13H11+
167.1068	4	C10H15O2+
169.101	411	C13H13+
171.0804	33	C12H11O+
171.1168	17	C13H15+
173.0959	201	C12H13O+
175.1115	56	C12H15O+
177.1269	10	C12H17O+
179.1064	32	C11H15O2+
181.1011	21	C14H13+
183.1168	20	C14H15+
185.096	7	C13H13O+
185.1321	22	C14H17+
187.1115	999	C13H15O+
189.1273	12	C13H17O+
193.1013	8	C15H13+
193.1222	4	C12H17O2+
195.1166	23	C15H15+
197.0967	5	C14H13O+
197.1326	15	C15H17+
199.1114	34	C14H15O+
199.1484	11	C15H19+
201.1274	11	C14H17O+
205.1221	206	C13H17O2+
207.1168	13	C16H15+
207.1379	12	C13H19O2+
209.096	7	C15H13O+
209.1321	37	C16H17+
211.1114	18	C15H15O+
213.1272	32	C15H17O+
215.1426	6	C15H19O+
217.1214	5	C14H17O2+
221.132	24	C17H17+
223.1112	16	C16H15O+
223.1479	41	C17H19+
225.1269	19	C16H17O+
225.1643	11	C17H21+
227.1428	39	C16H19O+
231.1161	7	C18H15+
231.1374	6	C15H19O2+
235.148	23	C18H19+
237.1274	9	C17H17O+
237.1638	12	C18H21+
239.1426	10	C17H19O+
241.1586	57	C17H21O+
243.1738	7	C17H23O+
245.1322	13	C19H17+
245.1533	22	C16H21O2+
247.148	34	C19H19+
249.1272	26	C18H17O+
249.1634	16	C19H21+
251.1433	7	C18H19O+
251.1801	5	C19H23+
253.1589	20	C18H21O+
257.1536	15	C17H21O2+
259.148	11	C20H19+
259.1691	43	C17H23O2+
261.1636	36	C20H21+
263.1428	25	C19H19O+
263.1791	50	C20H23+
265.1585	125	C19H21O+
267.1378	10	C18H19O2+
267.1731	11	C19H23O+
268.1822	37	C19H24O+
271.1693	10	C18H23O2+
277.1585	29	C20H21O+
277.1949	40	C21H25+
279.1743	44	C20H23O+
281.1535	22	C19H21O2+
281.1897	58	C20H25O+
283.169	388	C19H23O2+
287.1793	95	C22H23+
295.1694	9	C20H23O2+
295.2055	60	C21H27O+
297.1848	20	C20H25O2+
299.2002	6	C20H27O2+
305.1897	299	C22H25O+
323.2003	346	C22H27O2+
326.1884	4	C21H26O3+
