Mass spectrum: 4-Androstene-3,17-dione; LC-ESI-ITFT; MS2; CE: 30%; R=15000; [M+H]+
Name: 4-Androstene-3,17-dione
Name: Androstenedione
Name: (8R,9S,10R,13S,14S)-10,13-dimethyl-2,6,7,8,9,11,12,14,15,16-decahydro-1H-cyclopenta[a]phenanthrene-3,17-dione
Formula: C19H26O2
Exact mass: 286.193280072
SMILES: C[C@]12CC[C@H]3[C@@H](CCC4=CC(=O)CC[C@]34C)[C@@H]1CCC2=O
InChI: InChI=1S/C19H26O2/c1-18-9-7-13(20)11-12(18)3-4-14-15-5-6-17(21)19(15,2)10-8-16(14)18/h11,14-16H,3-10H2,1-2H3/t14-,15-,16-,18-,19-/m0/s1
Instrument: LTQ Orbitrap XL Thermo Scientific
Instrument type: LC-ESI-ITFT
Ms type: MS2
Ion mode: POSITIVE
Ionization: ESI
Fragmentation mode: HCD
Collision energy: 30 % (nominal)
Resolution: 15000
Column name: Kinetex Evo C18 2.6 um 50 x 2.1 mm
Retention time: 11.064 min
Base peak: 287.2006
Precursor m/z: 287.2006
Precursor type: [M+H]+
Precursor intensity: 14662505
m/z	relative intensity	assigned
97.0649	336	C6H9O+
109.0649	148	C7H9O+
123.0807	13	C8H11O+
133.1006	3	C10H13+
147.117	4	C11H15+
173.1327	12	C13H17+
185.1327	5	C14H17+
187.1476	6	C14H19+
209.1334	3	C16H17+
211.1482	14	C16H19+
229.1592	4	C16H21O+
251.1797	11	C19H23+
269.1899	39	C19H25O+
287.2005	999	C19H27O2+
