Mass spectrum: Thiacloprid; LC-ESI-ITFT; MS2; CE: 70%; R=15000; [M+H]+
Name: Thiacloprid
Name: CID 6011129
Name: (E)-[3-[(6-chloropyridin-3-yl)methyl]-1,3-thiazolidin-2-ylidene]cyanamide
Formula: C10H9ClN4S
Exact mass: 252.023644968
SMILES: ClC1=CC=C(CN2CCS\C2=N\C#N)C=N1
InChI: InChI=1S/C10H9ClN4S/c11-9-2-1-8(5-13-9)6-15-3-4-16-10(15)14-7-12/h1-2,5H,3-4,6H2/b14-10+
Instrument: LTQ Orbitrap XL Thermo Scientific
Instrument type: LC-ESI-ITFT
Ms type: MS2
Ion mode: POSITIVE
Ionization: ESI
Fragmentation mode: HCD
Collision energy: 70 % (nominal)
Resolution: 15000
Column name: Kinetex Evo C18 2.6 um 50 x 2.1 mm
Retention time: 7.715 min
Base peak: 253.0318
Precursor m/z: 253.0309
Precursor type: [M+H]+
Precursor intensity: 16516681
m/z	relative intensity	assigned
63.0228	2	C5H3+
65.0383	1	C5H5+
72.9839	1	C3H2Cl+
90.0338	75	C6H4N+
91.0416	8	C6H5N+
98.9996	39	C5H4Cl+
108.0443	2	C3H9ClN2+
126.0105	999	C6H5ClN+
151.0056	4	C7H4ClN2+
211.0097	1	C9H8ClN2S+
