Mass spectrum: Pentoxifylline; LC-ESI-ITFT; MS2; CE: 60%; R=15000; [M+H]+
Name: Pentoxifylline
Name: 3,7-dimethyl-1-(5-oxohexyl)purine-2,6-dione
Formula: C13H18N4O3
Exact mass: 278.137890436
SMILES: CN1C=NC2=C1C(=O)N(CCCCC(C)=O)C(=O)N2C
InChI: InChI=1S/C13H18N4O3/c1-9(18)6-4-5-7-17-12(19)10-11(14-8-15(10)2)16(3)13(17)20/h8H,4-7H2,1-3H3
Instrument: LTQ Orbitrap XL Thermo Scientific
Instrument type: LC-ESI-ITFT
Ms type: MS2
Ion mode: POSITIVE
Ionization: ESI
Fragmentation mode: HCD
Collision energy: 60 % (nominal)
Resolution: 15000
Column name: Kinetex Evo C18 2.6 um 50 x 2.1 mm
Retention time: 7.936 min
Base peak: 279.1461
Precursor m/z: 279.1452
Precursor type: [M+H]+
Precursor intensity: 16108363
m/z	relative intensity	assigned
81.07	15	C6H9+
83.0605	64	C4H7N2+
99.0806	414	C6H11O+
110.0715	152	C5H8N3+
112.0871	23	C5H10N3+
137.0824	50	C6H9N4+
138.0664	494	C6H8N3O+
156.0771	21	C6H10N3O2+
163.0617	53	C7H7N4O+
181.0722	999	C7H9N4O2+
193.0722	32	C8H9N4O2+
279.1444	2	C13H19N4O3+
