Mass spectrum: Lincomycin; LC-ESI-ITFT; MS2; CE: 35; R=15000; [M+H]+
Name: Lincomycin
Name: (2S,4R)-N-[(1R,2R)-2-Hydroxy-1-[(2R,3R,4S,5R,6R)-3,4,5-trihydroxy-6-methylsulfanyloxan-2-yl]propyl]-1-methyl-4-propylpyrrolidine-2-carboxamide
Formula: C18H34N2O6S
Exact mass: 406.2138
SMILES: CCC[C@@H]1C[C@H](N(C)C1)C(=O)N[C@H]([C@@H](C)O)[C@H]1O[C@H](SC)[C@H](O)[C@@H](O)[C@H]1O
InChI: InChI=1S/C18H34N2O6S/c1-5-6-10-7-11(20(3)8-10)17(25)19-12(9(2)21)16-14(23)13(22)15(24)18(26-16)27-4/h9-16,18,21-24H,5-8H2,1-4H3,(H,19,25)/t9-,10-,11+,12-,13+,14-,15-,16-,18-/m1/s1
Instrument: LTQ Orbitrap XL Thermo Scientific
Instrument type: LC-ESI-ITFT
Ms type: MS2
Ion mode: POSITIVE
Ionization: ESI
Fragmentation mode: CID
Collision energy: 35 (nominal)
Resolution: 15000
Column name: Kinetex Core-Shell C18 2.6 um, 3.0 x 100 mm, Phenomenex
Retention time: 13.488 min
Base peak: 163.1328
Precursor m/z: 407.221
Precursor type: [M+H]+
m/z	relative intensity	assigned
126.1278	324	C8H16N+
171.1493	2	C9H19N2O+
216.0869	7	C9H14NO5+
218.085	5	C9H16NO3S+
228.0693	2	C10H14NO3S+
234.0975	7	C9H16NO6+
236.0956	3	C9H18NO4S+
257.1848	2	C13H25N2O3+
264.0905	8	C10H18NO5S+
269.1876	2	C8H31NO6S+
287.1976	4	C14H27N2O4+
299.1972	42	C15H27N2O4+
317.2077	36	C15H29N2O5+
323.1975	3	C17H27N2O4+
341.2077	30	C17H29N2O5+
359.2181	999	C17H31N2O6+
371.2003	19	C18H31N2O4S+
389.2108	444	C18H33N2O5S+
