Mass spectrum: Sulfapyridine; LC-ESI-ITFT; MS2; CE: 70%; R=15000; [M+H]+
Name: Sulfapyridine
Name: 4-amino-N-pyridin-2-ylbenzenesulfonamide
Formula: C11H11N3O2S
Exact mass: 249.057197592
SMILES: NC1=CC=C(C=C1)S(=O)(=O)NC1=NC=CC=C1
InChI: InChI=1S/C11H11N3O2S/c12-9-4-6-10(7-5-9)17(15,16)14-11-3-1-2-8-13-11/h1-8H,12H2,(H,13,14)
Instrument: LTQ Orbitrap XL Thermo Scientific
Instrument type: LC-ESI-ITFT
Ms type: MS2
Ion mode: POSITIVE
Ionization: ESI
Fragmentation mode: HCD
Collision energy: 70 % (nominal)
Resolution: 15000
Column name: Kinetex Evo C18 2.6 um 50 x 2.1 mm
Retention time: 1.683 min
Base peak: 250.0655
Precursor m/z: 250.0645
Precursor type: [M+H]+
Precursor intensity: 8514793
m/z	relative intensity	assigned
65.0385	98	C5H5+
67.0416	8	C4H5N+
80.0495	8	C5H6N+
92.0496	999	C6H6N+
93.0448	39	C5H5N2+
93.0574	56	C6H7N+
94.0527	95	C5H6N2+
95.0605	373	C5H7N2+
96.0444	1	C5H6NO+
108.0445	764	C6H6NO+
110.0601	66	C6H8NO+
120.0558	20	C6H6N3+
140.0167	2	C6H6NOS+
156.0116	128	C6H6NO2S+
157.0069	19	C5H5N2O2S+
167.0607	22	C11H7N2+
168.0687	4	C11H8N2+
169.0766	4	C11H9N2+
183.0796	5	C11H9N3+
184.0872	251	C11H10N3+
