Mass spectrum: Metoprolol acid; LC-ESI-ITFT; MS2; CE: 60%; R=15000; [M+H]+
Name: Metoprolol acid
Name: 2-[4-[2-hydroxy-3-(propan-2-ylamino)propoxy]phenyl]acetic acid
Formula: C14H21NO4
Exact mass: 267.147058152
SMILES: CC(C)NCC(O)COC1=CC=C(CC(O)=O)C=C1
InChI: InChI=1S/C14H21NO4/c1-10(2)15-8-12(16)9-19-13-5-3-11(4-6-13)7-14(17)18/h3-6,10,12,15-16H,7-9H2,1-2H3,(H,17,18)
Instrument: LTQ Orbitrap XL Thermo Scientific
Instrument type: LC-ESI-ITFT
Ms type: MS2
Ion mode: POSITIVE
Ionization: ESI
Fragmentation mode: HCD
Collision energy: 60 % (nominal)
Resolution: 15000
Column name: Kinetex Evo C18 2.6 um 50 x 2.1 mm
Retention time: 1.032 min
Base peak: 235.1817
Precursor m/z: 268.1543
Precursor type: [M+H]+
Precursor intensity: 16525449
m/z	relative intensity	assigned
56.0493	382	C3H6N+
58.065	30	C3H8N+
60.0806	4	C3H10N+
72.0807	376	C4H10N+
74.06	303	C3H8NO+
79.0542	16	C6H7+
81.0699	6	C6H9+
84.0809	17	C5H10N+
86.0961	3	C5H12N+
91.0543	88	C7H7+
93.07	11	C7H9+
95.0493	30	C6H7O+
98.0965	224	C6H12N+
100.1122	18	C6H14N+
107.0492	32	C7H7O+
109.0649	44	C7H9O+
116.1071	164	C6H14NO+
117.07	30	C9H9+
119.0493	82	C8H7O+
123.0442	21	C7H7O2+
133.0649	26	C9H9O+
137.0599	89	C8H9O2+
145.0649	999	C10H9O+
147.0439	4	C9H7O2+
149.0591	4	C9H9O2+
162.0914	18	C10H12NO+
163.0755	41	C10H11O2+
165.0548	312	C9H9O3+
179.0704	15	C10H11O3+
191.0705	303	C11H11O3+
226.1077	40	C11H16NO4+
250.1443	3	C14H20NO3+
268.1546	37	C14H22NO4+
