Mass spectrum: Propiconazole; LC-ESI-ITFT; MS2; CE: 55; R=15000; [M+H]+
Name: Propiconazole
Name: 1-[[2-(2,4-Dichlorophenyl)-4-propyl-1,3-dioxolan-2-yl]methyl]-1,2,4-triazole
Formula: C15H17Cl2N3O2
Exact mass: 341.0698
SMILES: CCCC1COC(CN2C=NC=N2)(O1)C1=CC=C(Cl)C=C1Cl
InChI: InChI=1S/C15H17Cl2N3O2/c1-2-3-12-7-21-15(22-12,8-20-10-18-9-19-20)13-5-4-11(16)6-14(13)17/h4-6,9-10,12H,2-3,7-8H2,1H3
Instrument: LTQ Orbitrap XL Thermo Scientific
Instrument type: LC-ESI-ITFT
Ms type: MS2
Ion mode: POSITIVE
Ionization: ESI
Fragmentation mode: HCD
Collision energy: 55 (nominal)
Resolution: 15000
Column name: Kinetex Core-Shell C18 2.6 um, 3.0 x 100 mm, Phenomenex
Retention time: 26.146 min
Base peak: 342.0766
Precursor m/z: 342.0771
Precursor type: [M+H]+
m/z	relative intensity	assigned
70.0398	13	C2H4N3+
146.9764	1	C6H5Cl2+
158.9761	999	C7H5Cl2+
172.9555	61	C7H3Cl2O+
172.9919	3	C8H7Cl2+
186.9712	40	C8H5Cl2O+
190.966	29	C7H5Cl2O2+
204.9827	2	C8H7Cl2O2+
256.0048	3	C10H8Cl2N3O+
259.0281	3	C12H13Cl2O2+
