Mass spectrum: 4,4`-Methylen-bis(2-methyl aniline); LC-ESI-ITFT; MS2; CE: 80; R=15000; [M+H]+
Name: 4,4`-Methylen-bis(2-methyl aniline)
Name: 4-[(4-Amino-3-methylphenyl)methyl]-2-methylaniline
Formula: C15H18N2
Exact mass: 226.1470
SMILES: Cc1cc(Cc2ccc(N)c(C)c2)ccc1N
InChI: InChI=1S/C15H18N2/c1-10-7-12(3-5-14(10)16)9-13-4-6-15(17)11(2)8-13/h3-8H,9,16-17H2,1-2H3
Instrument: LTQ Orbitrap XL Thermo Scientific
Instrument type: LC-ESI-ITFT
Ms type: MS2
Ion mode: POSITIVE
Ionization: ESI
Fragmentation mode: HCD
Collision energy: 80 (nominal)
Resolution: 15000
Column name: Kinetex Core-Shell C18 2.6 um, 3.0 x 100 mm, Phenomenex
Retention time: 19.644 min
Base peak: 149.003
Precursor m/z: 227.1543
Precursor type: [M+H]+
m/z	relative intensity	assigned
184.1003	999	C12H12N2+
