Mass spectrum: Progesterone; LC-ESI-ITFT; MS2; CE: 35; R=15000; [M+H]+
Name: Progesterone
Name: (8S,9S,10R,13S,14S,17S)-17-Acetyl-10,13-dimethyl-1,2,6,7,8,9,11,12,14,15,16,17-dodecahydrocyclopenta[a]phenanthren-3-one
Formula: C21H30O2
Exact mass: 314.2246
SMILES: CC(=O)[C@H]1CC[C@H]2[C@@H]3CCC4=CC(=O)CC[C@]4(C)[C@H]3CC[C@]12C
InChI: InChI=1S/C21H30O2/c1-13(22)17-6-7-18-16-5-4-14-12-15(23)8-10-20(14,2)19(16)9-11-21(17,18)3/h12,16-19H,4-11H2,1-3H3/t16-,17+,18-,19-,20-,21+/m0/s1
Instrument: LTQ Orbitrap XL Thermo Scientific
Instrument type: LC-ESI-ITFT
Ms type: MS2
Ion mode: POSITIVE
Ionization: ESI
Fragmentation mode: CID
Collision energy: 35 (nominal)
Resolution: 15000
Column name: Kinetex Core-Shell C18 2.6 um, 3.0 x 100 mm, Phenomenex
Retention time: 26.182 min
Base peak: 315.2309
Precursor m/z: 315.2319
Precursor type: [M+H]+
m/z	relative intensity	assigned
91.0539	4	C7H7+
93.0698	2	C7H9+
95.0852	6	C7H11+
97.0646	248	C6H9O+
105.0697	7	C8H9+
107.0851	5	C8H11+
109.0645	148	C7H9O+
119.0853	12	C9H11+
121.1011	10	C9H13+
123.0803	31	C8H11O+
131.0853	15	C10H11+
133.101	12	C10H13+
135.1166	11	C10H15+
137.0958	6	C9H13O+
143.0851	8	C11H11+
145.101	28	C11H13+
147.1166	18	C11H15+
149.0961	3	C10H13O+
149.1319	6	C11H17+
151.1116	2	C10H15O+
155.0852	5	C12H11+
157.1009	18	C12H13+
159.1166	37	C12H15+
161.1323	11	C12H17+
163.1115	14	C11H15O+
163.1485	2	C12H19+
165.1269	6	C11H17O+
169.101	8	C13H13+
171.1166	27	C13H15+
173.0952	3	C12H13O+
173.1322	33	C13H17+
175.1115	5	C12H15O+
175.1481	12	C13H19+
177.127	19	C12H17O+
179.1433	4	C12H19O+
183.1165	19	C14H15+
185.1323	23	C14H17+
187.1115	19	C13H15O+
187.148	13	C14H19+
189.1271	27	C13H17O+
189.1636	12	C14H21+
191.1428	13	C13H19O+
195.1165	9	C15H15+
197.1322	32	C15H17+
199.1479	20	C15H19+
201.1274	13	C14H17O+
201.1636	54	C15H21+
203.1429	12	C14H19O+
205.1588	3	C14H21O+
207.1745	4	C14H23O+
209.1322	30	C16H17+
211.148	18	C16H19+
213.1272	7	C15H17O+
213.1634	43	C16H21+
215.1427	63	C15H19O+
215.1791	105	C16H23+
217.1581	8	C15H21O+
219.1738	20	C15H23O+
223.1478	72	C17H19+
225.1635	13	C17H21+
227.1429	18	C16H19O+
227.1791	37	C17H23+
229.1584	53	C16H21O+
231.1743	7	C16H23O+
233.1896	37	C16H25O+
237.1635	32	C18H21+
239.1791	117	C18H23+
241.1584	66	C17H21O+
245.1896	44	C17H25O+
251.1793	18	C19H23+
253.1949	82	C19H25+
255.174	25	C18H23O+
255.2103	133	C19H27+
257.1897	17	C18H25O+
269.1899	22	C19H25O+
269.2259	19	C20H29+
271.2054	17	C19H27O+
273.2211	88	C19H29O+
279.2103	420	C21H27+
297.2209	999	C21H29O+
315.2316	69	C21H31O2+
