Mass spectrum: 1,2-Benzisothiazolinone; LC-ESI-ITFT; MS2; CE: 90%; R=15000; [M+H]+
Name: 1,2-Benzisothiazolinone
Name: 1,2-Benzisothiazol-3(2H)-one
Name: 1,2-benzothiazol-3-one
Formula: C7H5NOS
Exact mass: 151.00918478
SMILES: O=C1NSC2=CC=CC=C12
InChI: InChI=1S/C7H5NOS/c9-7-5-3-1-2-4-6(5)10-8-7/h1-4H,(H,8,9)
Instrument: LTQ Orbitrap XL Thermo Scientific
Instrument type: LC-ESI-ITFT
Ms type: MS2
Ion mode: POSITIVE
Ionization: ESI
Fragmentation mode: HCD
Collision energy: 90 % (nominal)
Resolution: 15000
Column name: Kinetex Evo C18 2.6 um 50 x 2.1 mm
Retention time: 4.975 min
Base peak: 152.0169
Precursor m/z: 152.0165
Precursor type: [M+H]+
Precursor intensity: 6690627.5
m/z	relative intensity	assigned
63.023	7	C5H3+
65.0386	16	C5H5+
77.0387	61	C6H5+
80.0496	141	C5H6N+
90.034	80	C6H4N+
92.0499	1	C6H6N+
97.0109	14	C5H5S+
105.0338	443	C7H5O+
106.9953	31	C6H3S+
108.0032	2	C6H4S+
109.0109	571	C6H5S+
119.0367	2	C7H5NO+
124.0218	21	C6H6NS+
132.9986	4	C7H3NS+
134.0062	658	C7H4NS+
135.998	13	C7H4OS+
152.0168	999	C7H6NOS+
