Mass spectrum: Fluoxastrobin; LC-ESI-ITFT; MS2; CE: 50%; R=15000; [M+H]+
Name: Fluoxastrobin
Name: (E)-1-[2-[6-(2-chlorophenoxy)-5-fluoropyrimidin-4-yl]oxyphenyl]-1-(5,6-dihydro-1,4,2-dioxazin-3-yl)-N-methoxymethanimine
Formula: C21H16ClFN4O5
Exact mass: 458.079325512
SMILES: CO\N=C(\C1=NOCCO1)C1=C(OC2=C(F)C(OC3=C(Cl)C=CC=C3)=NC=N2)C=CC=C1
InChI: InChI=1S/C21H16ClFN4O5/c1-28-26-18(21-27-30-11-10-29-21)13-6-2-4-8-15(13)31-19-17(23)20(25-12-24-19)32-16-9-5-3-7-14(16)22/h2-9,12H,10-11H2,1H3/b26-18+
Instrument: LTQ Orbitrap XL Thermo Scientific
Instrument type: LC-ESI-ITFT
Ms type: MS2
Ion mode: POSITIVE
Ionization: ESI
Fragmentation mode: HCD
Collision energy: 50 % (nominal)
Resolution: 15000
Column name: Kinetex Evo C18 2.6 um 50 x 2.1 mm
Retention time: 11.951 min
Base peak: 330.0812
Precursor m/z: 459.0866
Precursor type: [M+H]+
Precursor intensity: 5999302.5
m/z	relative intensity	assigned
65.0384	18	FH4N3+
77.0386	23	C6H5+
78.0338	8	C5H4N+
79.0542	4	CH6FN3+
86.0236	5	C3H4NO2+
90.0339	86	C6H4N+
93.0335	19	C6H5O+
104.0495	36	C7H6N+
105.0446	23	C6H5N2+
106.0289	34	C6H4NO+
110.9998	9	C6H4Cl+
111.0441	5	CH6FN3O2+
118.0525	20	C7H6N2+
119.0367	30	C7H5NO+
120.0444	97	C7H6NO+
122.0401	14	C7H5FN+
129.0097	17	C4H2FN2O2+
129.0448	30	C8H5N2+
130.0289	41	C8H4NO+
130.04	60	C7H4N3+
130.0522	7	C8H6N2+
132.0444	23	C8H6NO+
133.052	5	C3H6FN4O+
134.0402	12	C8H5FN+
134.0601	14	C8H8NO+
138.0106	378	C7H5ClN+
138.9945	29	C7H4ClO+
139.0058	118	C6H4ClN2+
144.0319	20	C8H4N2O+
144.0559	13	CH14ClFO4+
145.0397	171	C8H5N2O+
146.0237	51	C8H4NO2+
148.0431	7	C8H5FN2+
150.035	156	C8H5FNO+
151.0057	8	C7H4ClN2+
154.0404	10	C2H12ClFO4+
159.0351	11	C9H4FN2+
160.0268	26	C8H4N2O2+
160.0504	9	C8H6N3O+
161.0347	58	C8H5N2O2+
162.0351	26	C9H5FNO+
162.0425	14	C5H9ClN3O+
163.0059	33	C8H4ClN2+
163.0505	17	C5H10ClN3O+
164.0343	84	C8H6NO3+
166.006	9	C8H3FO3+
168.0012	63	C8H4ClFN+
170.035	44	C9H4N3O+
175.0304	44	C9H4FN2O+
176.0384	21	C6H8ClFN3+
177.0458	9	C9H6FN2O+
178.03	156	C9H5FNO2+
179.0008	73	C8H4ClN2O+
182.0355	8	C7H7ClN4+
183.0126	7	C8H5ClFN2+
183.996	20	C8H4ClFNO+
187.03	7	C10H4FN2O+
188.0382	999	C10H5FN2O+
189.0418	8	C5H6FN4O3+
189.0466	11	C10H6FN2O+
190.041	19	C9H5FN3O+
190.05	17	C10H8NO3+
195.0124	6	C9H5ClFN2+
195.996	6	C9H4ClFNO+
198.0306	6	C7H7ClN4O+
202.0414	15	C15H6O+
203.0253	12	C10H4FN2O2+
205.041	55	C10H6FN2O2+
205.0608	54	C10H9N2O3+
214.0067	35	C9H6ClFNO2+
214.0412	16	C11H5FN3O+
214.0602	13	C7H15ClO5+
223.0069	13	C10H5ClFN2O+
223.9913	20	C10H4ClFNO2+
225.0582	10	C14H8FNO+
228.0444	13	C16H6NO+
229.0285	17	C16H5O2+
230.0361	90	C11H5FN3O2+
231.0197	11	C11H4FN2O3+
232.0513	7	C11H9ClN4+
240.0444	24	C17H6NO+
241.0181	8	C10H7ClFN2O2+
255.0329	13	C14H6FNO3+
266.0129	34	C16H7ClO2+
267.034	8	C12H9ClFN2O2+
278.0723	19	C16H9FN3O+
280.064	25	C16H9FN2O2+
306.0674	313	C17H9FN3O2+
313.0423	8	C16H9ClFN3O+
315.0334	46	C16H9ClFN2O2+
318.0669	16	C18H11ClN4+
331.0628	23	C18H8FN4O2+
340.0287	39	C20H7ClN3O+
342.0446	19	C17H10ClFN3O2+
367.0389	31	C21H6FN3O3+
383.0346	13	C18H9ClFN4O3+
