Mass spectrum: 2-Hydroxycarbamazepine; LC-ESI-ITFT; MS2; CE: 80%; R=15000; [M+H]+
Name: 2-Hydroxycarbamazepine
Name: 3-hydroxybenzo[b][1]benzazepine-11-carboxamide
Formula: C15H12N2O2
Exact mass: 252.089877624
SMILES: NC(=O)N1C2=CC=CC=C2C=CC2=CC(O)=CC=C12
InChI: InChI=1S/C15H12N2O2/c16-15(19)17-13-4-2-1-3-10(13)5-6-11-9-12(18)7-8-14(11)17/h1-9,18H,(H2,16,19)
Instrument: LTQ Orbitrap XL Thermo Scientific
Instrument type: LC-ESI-ITFT
Ms type: MS2
Ion mode: POSITIVE
Ionization: ESI
Fragmentation mode: HCD
Collision energy: 80 % (nominal)
Resolution: 15000
Column name: Kinetex Evo C18 2.6 um 50 x 2.1 mm
Retention time: 8.436 min
Base peak: 253.0982
Precursor m/z: 253.0972
Precursor type: [M+H]+
Precursor intensity: 22015168
m/z	relative intensity	assigned
91.0542	6	C7H7+
104.0497	8	C7H6N+
107.0491	4	C7H7O+
115.0544	6	C9H7+
116.0494	7	C8H6N+
117.0574	53	C8H7N+
132.0446	4	C8H6NO+
133.0528	3	C8H7NO+
141.07	8	C11H9+
152.0624	7	C12H8+
153.0701	40	C12H9+
154.0656	3	C11H8N+
155.0855	11	C12H11+
156.0811	3	C11H10N+
165.0702	145	C13H9+
166.0655	7	C12H8N+
167.0732	441	C12H9N+
168.081	8	C12H10N+
179.0729	5	C13H9N+
180.0811	195	C13H10N+
181.0651	44	C13H9O+
181.0889	90	C13H11N+
182.0967	347	C13H12N+
183.068	9	C12H9NO+
183.0805	19	C13H11O+
190.0654	55	C14H8N+
191.0732	45	C14H9N+
192.0811	63	C14H10N+
193.0763	6	C13H9N2+
193.0889	98	C14H11N+
194.0731	7	C14H10O+
195.0682	323	C13H9NO+
206.0601	6	C14H8NO+
207.0684	33	C14H9NO+
208.0761	806	C14H10NO+
209.0838	393	C14H11NO+
210.0915	999	C14H12NO+
