Mass spectrum: 4-Hydroxytamoxifen; LC-ESI-ITFT; MS2; CE: 60%; R=15000; [M+H]+
Name: 4-Hydroxytamoxifen
Name: 4-[1-[4-[2-(dimethylamino)ethoxy]phenyl]-2-phenylbut-1-enyl]phenol
Formula: C26H29NO2
Exact mass: 387.219829168
SMILES: CCC(=C(C1=CC=C(O)C=C1)C1=CC=C(OCCN(C)C)C=C1)C1=CC=CC=C1
InChI: InChI=1S/C26H29NO2/c1-4-25(20-8-6-5-7-9-20)26(21-10-14-23(28)15-11-21)22-12-16-24(17-13-22)29-19-18-27(2)3/h5-17,28H,4,18-19H2,1-3H3
Instrument: LTQ Orbitrap XL Thermo Scientific
Instrument type: LC-ESI-ITFT
Ms type: MS2
Ion mode: POSITIVE
Ionization: ESI
Fragmentation mode: HCD
Collision energy: 60 % (nominal)
Resolution: 15000
Column name: Kinetex Evo C18 2.6 um 50 x 2.1 mm
Retention time: 10.079 min
Base peak: 388.228
Precursor m/z: 388.2271
Precursor type: [M+H]+
Precursor intensity: 12292502
m/z	relative intensity	assigned
58.0649	9	C3H8N+
70.0651	26	C4H8N+
72.0808	999	C4H10N+
91.0544	14	C7H7+
105.0701	4	C8H9+
107.0493	27	C7H7O+
121.065	6	C8H9O+
128.0621	2	C10H8+
129.07	36	C10H9+
145.065	29	C10H9O+
166.1228	3	C10H16NO+
194.0727	11	C14H10O+
195.0803	4	C14H11O+
199.0756	2	C13H11O2+
207.0806	12	C15H11O+
208.0888	5	C15H12O+
209.0959	2	C15H13O+
221.0971	3	C16H13O+
222.1039	7	C16H14O+
225.0911	4	C15H13O2+
301.1232	7	C21H17O2+
