Mass spectrum: Carbendazim; LC-ESI-ITFT; MS2; CE: 60%; R=15000; [M+H]+
Name: Carbendazim
Name: methyl N-(1H-benzimidazol-2-yl)carbamate
Formula: C9H9N3O2
Exact mass: 191.069476528
SMILES: COC(=O)NC1=NC2=CC=CC=C2N1
InChI: InChI=1S/C9H9N3O2/c1-14-9(13)12-8-10-6-4-2-3-5-7(6)11-8/h2-5H,1H3,(H2,10,11,12,13)
Instrument: LTQ Orbitrap XL Thermo Scientific
Instrument type: LC-ESI-ITFT
Ms type: MS2
Ion mode: POSITIVE
Ionization: ESI
Fragmentation mode: HCD
Collision energy: 60 % (nominal)
Resolution: 15000
Column name: Kinetex Evo C18 2.6 um 50 x 2.1 mm
Retention time: 1.107 min
Base peak: 192.0774
Precursor m/z: 192.0768
Precursor type: [M+H]+
Precursor intensity: 17063262
m/z	relative intensity	assigned
119.0493	7	C8H7O+
133.0635	6	C7H7N3+
148.087	2	C8H10N3+
160.0506	999	C8H6N3O+
192.0769	34	C9H10N3O2+
