Mass spectrum: Genistein; LC-ESI-ITFT; MS2; CE: 55; R=15000; [M+H]+
Name: Genistein
Name: 5,7-Dihydroxy-3-(4-hydroxyphenyl)chromen-4-one
Formula: C15H10O5
Exact mass: 270.0528
SMILES: OC1=CC=C(C=C1)C1=COC2=CC(O)=CC(O)=C2C1=O
InChI: InChI=1S/C15H10O5/c16-9-3-1-8(2-4-9)11-7-20-13-6-10(17)5-12(18)14(13)15(11)19/h1-7,16-18H
Instrument: LTQ Orbitrap XL Thermo Scientific
Instrument type: LC-ESI-ITFT
Ms type: MS2
Ion mode: POSITIVE
Ionization: ESI
Fragmentation mode: HCD
Collision energy: 55 (nominal)
Resolution: 15000
Column name: Kinetex Core-Shell C18 2.6 um, 3.0 x 100 mm, Phenomenex
Retention time: 22.703 min
Base peak: 361.2
Precursor m/z: 271.0601
Precursor type: [M+H]+
m/z	relative intensity	assigned
91.0542	32	C7H7+
95.0127	1	C5H3O2+
105.0334	2	C7H5O+
105.0699	1	C8H9+
107.0491	2	C7H7O+
109.0283	1	C6H5O2+
111.0076	6	C5H3O3+
117.0702	1	C9H9+
119.0491	29	C8H7O+
121.0283	7	C7H5O2+
128.062	1	C10H8+
129.0697	2	C10H9+
131.049	7	C9H7O+
131.0853	2	C10H11+
133.0284	3	C8H5O2+
133.0647	2	C9H9O+
135.044	2	C8H7O2+
137.0232	3	C7H5O3+
141.0699	8	C11H9+
145.0284	42	C9H5O2+
145.0648	5	C10H9O+
147.044	5	C9H7O2+
147.0803	3	C10H11O+
149.0232	73	C8H5O3+
153.0181	211	C7H5O4+
155.0488	1	C11H7O+
157.0648	2	C11H9O+
159.044	30	C10H7O2+
159.0805	5	C11H11O+
165.0182	23	C8H5O4+
169.0647	29	C12H9O+
173.0597	7	C11H9O2+
175.0754	5	C11H11O2+
178.0258	1	C9H6O4+
181.0649	3	C13H9O+
183.0289	3	C8H7O5+
183.0441	3	C12H7O2+
185.06	2	C12H9O2+
187.039	9	C11H7O3+
187.0753	18	C12H11O2+
191.0345	2	C10H7O4+
197.0597	40	C13H9O2+
200.0466	4	C12H8O3+
201.0546	7	C12H9O3+
203.0703	2	C12H11O3+
211.0388	2	C13H7O3+
213.0546	2	C13H9O3+
215.0702	260	C13H11O3+
225.0546	18	C14H9O3+
226.0634	2	C14H10O3+
227.0702	6	C14H11O3+
228.0418	2	C13H8O4+
229.0494	5	C13H9O4+
242.0575	3	C14H10O4+
243.0651	215	C14H11O4+
253.0495	96	C15H9O4+
271.06	999	C15H11O5+
