Mass spectrum: 2-Morpholinothiobenzothiazole; LC-ESI-ITFT; MS2; CE: 70%; R=15000; [M+H]+
Name: 2-Morpholinothiobenzothiazole
Name: 2-(Morpholinothio)benzothiazole
Name: 4-(1,3-benzothiazol-2-ylsulfanyl)morpholine
Formula: C11H12N2OS2
Exact mass: 252.039105004
SMILES: C1CN(CCO1)SC1=NC2=CC=CC=C2S1
InChI: InChI=1S/C11H12N2OS2/c1-2-4-10-9(3-1)12-11(15-10)16-13-5-7-14-8-6-13/h1-4H,5-8H2
Instrument: LTQ Orbitrap XL Thermo Scientific
Instrument type: LC-ESI-ITFT
Ms type: MS2
Ion mode: POSITIVE
Ionization: ESI
Fragmentation mode: HCD
Collision energy: 70 % (nominal)
Resolution: 15000
Column name: Kinetex Evo C18 2.6 um 50 x 2.1 mm
Retention time: 11.187 min
Base peak: 309.1128
Precursor m/z: 253.0464
Precursor type: [M+H]+
Precursor intensity: 20010630
m/z	relative intensity	assigned
56.0492	381	C3H6N+
57.057	223	C3H7N+
58.0649	60	C3H8N+
68.0493	3	C4H6N+
86.06	999	C4H8NO+
87.0678	348	C4H9NO+
92.0495	2	C6H6N+
108.0028	17	C6H4S+
109.0108	2	C6H5S+
118.032	6	C4H8NOS+
122.006	12	C6H4NS+
135.0134	5	C7H5NS+
136.0215	42	C7H6NS+
138.9671	5	C6H3S2+
148.0216	2	C8H6NS+
149.0293	3	C8H7NS+
162.0372	4	C9H8NS+
163.0323	10	C8H7N2S+
163.045	7	C9H9NS+
165.978	211	C7H4NS2+
166.9858	39	C7H5NS2+
167.9936	70	C7H6NS2+
175.0324	4	C9H7N2S+
190.0552	1	C10H10N2S+
219.0582	3	C11H11N2OS+
