Mass spectrum: 4-Methylbenzylidene camphor; LC-ESI-ITFT; MS2; CE: 70%; R=15000; [M+H]+
Name: 4-Methylbenzylidene camphor
Name: 1,7,7-trimethyl-3-[(4-methylphenyl)methylidene]bicyclo[2.2.1]heptan-2-one
Formula: C18H22O
Exact mass: 254.167065324
SMILES: CC1=CC=C(C=C2C3CCC(C)(C2=O)C3(C)C)C=C1
InChI: InChI=1S/C18H22O/c1-12-5-7-13(8-6-12)11-14-15-9-10-18(4,16(14)19)17(15,2)3/h5-8,11,15H,9-10H2,1-4H3
Instrument: LTQ Orbitrap XL Thermo Scientific
Instrument type: LC-ESI-ITFT
Ms type: MS2
Ion mode: POSITIVE
Ionization: ESI
Fragmentation mode: HCD
Collision energy: 70 % (nominal)
Resolution: 15000
Column name: Kinetex Evo C18 2.6 um 50 x 2.1 mm
Retention time: 13.579 min
Base peak: 255.1745
Precursor m/z: 255.1743
Precursor type: [M+H]+
Precursor intensity: 19049432
m/z	relative intensity	assigned
67.0539	43	C5H7+
69.0332	38	C4H5O+
69.0696	102	C5H9+
71.0488	13	C4H7O+
77.0383	12	C6H5+
79.054	75	C6H7+
81.0697	50	C6H9+
83.0489	19	C5H7O+
83.0854	25	C6H11+
85.0647	11	C5H9O+
91.054	115	C7H7+
92.0619	11	C7H8+
93.0697	192	C7H9+
95.0491	5	C6H7O+
95.0853	68	C7H11+
97.0646	557	C6H9O+
103.0541	8	C8H7+
105.0696	999	C8H9+
107.0488	21	C7H7O+
107.0853	100	C8H11+
108.0568	7	C7H8O+
109.0645	31	C7H9O+
109.1009	59	C8H13+
111.0802	326	C7H11O+
115.0539	10	C9H7+
117.0697	78	C9H9+
119.0489	181	C8H7O+
119.0853	485	C9H11+
121.0646	41	C8H9O+
121.1009	56	C9H13+
123.0802	59	C8H11O+
123.1167	6	C9H15+
128.062	34	C10H8+
129.0696	82	C10H9+
130.0775	72	C10H10+
131.0852	185	C10H11+
133.1009	32	C10H13+
135.0802	31	C9H11O+
135.1166	33	C10H15+
137.096	34	C9H13O+
141.0695	25	C11H9+
142.0774	171	C11H10+
143.0853	316	C11H11+
144.0933	22	C11H12+
145.1009	360	C11H13+
147.0802	17	C10H11O+
147.1167	19	C11H15+
149.0962	10	C10H13O+
153.0698	25	C12H9+
154.0775	21	C12H10+
155.0853	137	C12H11+
156.0931	232	C12H12+
157.1009	404	C12H13+
158.0728	9	C11H10O+
159.0802	32	C11H11O+
159.1164	76	C12H15+
163.1116	36	C11H15O+
165.0696	111	C13H9+
166.0774	85	C13H10+
167.0852	64	C13H11+
168.0931	44	C13H12+
169.1009	193	C13H13+
170.1086	30	C13H14+
171.0801	110	C12H11O+
171.1165	369	C13H15+
172.0887	9	C12H12O+
173.0959	17	C12H13O+
178.077	7	C14H10+
179.0853	92	C14H11+
180.0931	207	C14H12+
181.1008	84	C14H13+
182.1087	68	C14H14+
183.0797	10	C13H11O+
183.1165	136	C14H15+
184.0878	28	C13H12O+
184.1242	8	C14H16+
185.0957	151	C13H13O+
185.132	24	C14H17+
186.1035	20	C13H14O+
187.1115	10	C13H15O+
192.0932	15	C15H12+
193.1008	125	C15H13+
194.1088	99	C15H14+
195.1165	264	C15H15+
196.0879	31	C14H12O+
197.0957	243	C14H13O+
197.1322	54	C15H17+
198.1038	25	C14H14O+
199.1114	110	C14H15O+
207.1165	104	C16H15+
208.1245	35	C16H16+
209.132	42	C16H17+
211.1113	120	C15H15O+
211.1476	10	C16H19+
212.1192	490	C15H16O+
213.127	66	C15H17O+
222.1399	47	C17H18+
225.1269	19	C16H17O+
226.1344	15	C16H18O+
227.1429	32	C16H19O+
237.1642	8	C18H21+
240.1504	18	C17H20O+
