Mass spectrum: (Benzothiazol-2-ylthio)methyl thiocyanate; LC-ESI-ITFT; MS2; CE: 70%; R=15000; [M+H]+
Name: (Benzothiazol-2-ylthio)methyl thiocyanate
Name: 2-(Thiocyanomethylthio)benzothiazole
Name: 1,3-benzothiazol-2-ylsulfanylmethyl thiocyanate
Formula: C9H6N2S3
Exact mass: 237.969311192
SMILES: N#CSCSC1=NC2=CC=CC=C2S1
InChI: InChI=1S/C9H6N2S3/c10-5-12-6-13-9-11-7-3-1-2-4-8(7)14-9/h1-4H,6H2
Instrument: LTQ Orbitrap XL Thermo Scientific
Instrument type: LC-ESI-ITFT
Ms type: MS2
Ion mode: POSITIVE
Ionization: ESI
Fragmentation mode: HCD
Collision energy: 70 % (nominal)
Resolution: 15000
Column name: Kinetex Evo C18 2.6 um 50 x 2.1 mm
Retention time: 10.851 min
Base peak: 116.9863
Precursor m/z: 238.9766
Precursor type: [M+H]+
Precursor intensity: 1979782.5
m/z	relative intensity	assigned
71.9904	97	C2H2NS+
109.0111	23	C6H5S+
116.0499	75	C8H6N+
122.019	17	C7H6S+
136.0221	999	C7H6NS+
152.9832	14	C7H5S2+
166.9864	89	C7H5NS2+
179.9942	425	C8H6NS2+
