Mass spectrum: Diazepam; LC-ESI-ITFT; MS2; CE: 55; R=15000; [M+H]+
Name: Diazepam
Name: 7-Chloro-1-methyl-5-phenyl-3H-1,4-benzodiazepin-2-one
Formula: C16H13ClN2O
Exact mass: 284.0716
SMILES: CN1C2=CC=C(Cl)C=C2C(=NCC1=O)C1=CC=CC=C1
InChI: InChI=1S/C16H13ClN2O/c1-19-14-8-7-12(17)9-13(14)16(18-10-15(19)20)11-5-3-2-4-6-11/h2-9H,10H2,1H3
Instrument: LTQ Orbitrap XL Thermo Scientific
Instrument type: LC-ESI-ITFT
Ms type: MS2
Ion mode: POSITIVE
Ionization: ESI
Fragmentation mode: CID
Collision energy: 55 (nominal)
Resolution: 15000
Column name: Kinetex Core-Shell C18 2.6 um, 3.0 x 100 mm, Phenomenex
Retention time: 24.416 min
Base peak: 204.1381
Precursor m/z: 285.0789
Precursor type: [M+H]+
m/z	relative intensity	assigned
91.0543	6	C7H7+
104.05	1	C7H6N+
105.0336	113	C7H5O+
118.0654	3	C8H8N+
119.0734	1	C8H9N+
125.0154	2	C7H6Cl+
141.0342	3	C7H8ClN+
152.0265	4	C8H7ClN+
154.042	448	C8H9ClN+
167.0135	38	C8H6ClNO+
172.0634	12	C10H8N2O+
179.0374	24	C9H8ClN2+
180.0214	37	C9H7ClNO+
182.0369	288	C9H9ClNO+
193.0889	110	C14H11N+
194.0973	2	C14H12N+
204.0813	6	C15H10N+
206.0844	2	C14H10N2+
207.0322	5	C10H8ClN2O+
216.0581	5	C13H11ClN+
220.0998	18	C15H12N2+
221.1077	51	C15H13N2+
222.1154	374	C15H14N2+
226.0421	5	C14H9ClN+
227.0504	6	C14H10ClN+
228.0577	327	C14H11ClN+
230.0737	4	C14H13ClN+
240.0581	6	C15H11ClN+
241.0531	8	C14H10ClN2+
242.0608	4	C14H11ClN2+
243.0684	3	C14H12ClN2+
249.1025	1	C16H13N2O+
250.1098	4	C16H14N2O+
255.0689	16	C15H12ClN2+
256.0768	9	C15H13ClN2+
257.0843	999	C15H14ClN2+
