Mass spectrum: Metconazole; LC-ESI-ITFT; MS2; CE: 30%; R=15000; [M+H]+
Name: Metconazole
Name: 5-[(4-chlorophenyl)methyl]-2,2-dimethyl-1-(1,2,4-triazol-1-ylmethyl)cyclopentan-1-ol
Formula: C17H22ClN3O
Exact mass: 319.145140004
SMILES: CC1(C)CCC(CC2=CC=C(Cl)C=C2)C1(O)CN1C=NC=N1
InChI: InChI=1S/C17H22ClN3O/c1-16(2)8-7-14(9-13-3-5-15(18)6-4-13)17(16,22)10-21-12-19-11-20-21/h3-6,11-12,14,22H,7-10H2,1-2H3
Instrument: LTQ Orbitrap XL Thermo Scientific
Instrument type: LC-ESI-ITFT
Ms type: MS2
Ion mode: POSITIVE
Ionization: ESI
Fragmentation mode: HCD
Collision energy: 30 % (nominal)
Resolution: 15000
Column name: Kinetex Evo C18 2.6 um 50 x 2.1 mm
Retention time: 12.533 min
Base peak: 320.1531
Precursor m/z: 320.1524
Precursor type: [M+H]+
Precursor intensity: 15278381
m/z	relative intensity	assigned
70.0399	915	C2H4N3+
125.0153	12	C7H6Cl+
177.0469	7	C11H10Cl+
233.1094	24	C15H18Cl+
320.1526	999	C17H23ClN3O+
