Mass spectrum: 4-Androstene-3,17-dione; LC-ESI-ITFT; MS2; CE: 50%; R=15000; [M+H]+
Name: 4-Androstene-3,17-dione
Name: Androstenedione
Name: (8R,9S,10R,13S,14S)-10,13-dimethyl-2,6,7,8,9,11,12,14,15,16-decahydro-1H-cyclopenta[a]phenanthrene-3,17-dione
Formula: C19H26O2
Exact mass: 286.193280072
SMILES: C[C@]12CC[C@H]3[C@@H](CCC4=CC(=O)CC[C@]34C)[C@@H]1CCC2=O
InChI: InChI=1S/C19H26O2/c1-18-9-7-13(20)11-12(18)3-4-14-15-5-6-17(21)19(15,2)10-8-16(14)18/h11,14-16H,3-10H2,1-2H3/t14-,15-,16-,18-,19-/m0/s1
Instrument: LTQ Orbitrap XL Thermo Scientific
Instrument type: LC-ESI-ITFT
Ms type: MS2
Ion mode: POSITIVE
Ionization: ESI
Fragmentation mode: HCD
Collision energy: 50 % (nominal)
Resolution: 15000
Column name: Kinetex Evo C18 2.6 um 50 x 2.1 mm
Retention time: 11.080 min
Base peak: 287.2007
Precursor m/z: 287.2006
Precursor type: [M+H]+
Precursor intensity: 10230983
m/z	relative intensity	assigned
79.0542	6	C6H7+
81.07	13	C6H9+
83.0492	32	C5H7O+
93.0699	8	C7H9+
95.0857	10	C7H11+
97.0649	999	C6H9O+
105.07	9	C8H9+
107.0856	9	C8H11+
109.0649	683	C7H9O+
119.0857	15	C9H11+
121.1013	8	C9H13+
123.0806	75	C8H11O+
131.0859	9	C10H11+
133.1013	26	C10H13+
135.1168	4	C10H15+
137.0958	5	C9H13O+
143.0857	8	C11H11+
145.1013	24	C11H13+
147.117	15	C11H15+
149.0963	3	C10H13O+
157.101	7	C12H13+
159.1171	21	C12H15+
161.133	7	C12H17+
169.1013	6	C13H13+
171.1173	11	C13H15+
173.1326	34	C13H17+
175.1119	3	C12H15O+
177.1281	3	C12H17O+
183.1171	6	C14H15+
185.1327	20	C14H17+
187.1483	11	C14H19+
191.1431	3	C13H19O+
195.1166	5	C15H15+
199.1484	6	C15H19+
209.1325	6	C16H17+
211.1483	31	C16H19+
217.1583	6	C15H21O+
223.1485	3	C17H19+
225.1637	4	C17H21+
227.1426	3	C16H19O+
227.1791	9	C17H23+
229.1586	16	C16H21O+
251.1795	13	C19H23+
269.1902	31	C19H25O+
287.2007	86	C19H27O2+
