Mass spectrum: Metamitron; LC-ESI-ITFT; MS2; CE: 55; R=15000; [M+H]+
Name: Metamitron
Name: 4-Amino-3-methyl-6-phenyl-1,2,4-triazin-5-one
Formula: C10H10N4O
Exact mass: 202.0855
SMILES: CC1=NN=C(C(=O)N1N)C1=CC=CC=C1
InChI: InChI=1S/C10H10N4O/c1-7-12-13-9(10(15)14(7)11)8-5-3-2-4-6-8/h2-6H,11H2,1H3
Instrument: LTQ Orbitrap XL Thermo Scientific
Instrument type: LC-ESI-ITFT
Ms type: MS2
Ion mode: POSITIVE
Ionization: ESI
Fragmentation mode: HCD
Collision energy: 55 (nominal)
Resolution: 15000
Column name: Kinetex Core-Shell C18 2.6 um, 3.0 x 100 mm, Phenomenex
Retention time: 17.809 min
Base peak: 163.1326
Precursor m/z: 203.0927
Precursor type: [M+H]+
m/z	relative intensity	assigned
72.0442	6	C3H6NO+
72.0555	12	C2H6N3+
77.0385	34	C6H5+
79.0541	48	C6H7+
83.0239	29	C3H3N2O+
89.0385	26	C7H5+
91.0539	2	C7H7+
92.0494	15	C6H6N+
93.0576	3	C6H7N+
95.0494	3	C6H7O+
100.0504	4	C3H6N3O+
103.0543	3	C8H7+
104.0494	279	C7H6N+
105.0446	11	C6H5N2+
105.0572	29	C7H7N+
106.065	68	C7H8N+
107.0602	6	C6H7N2+
116.0494	5	C8H6N+
117.0447	9	C7H5N2+
117.0571	4	C8H7N+
118.0524	2	C7H6N2+
118.0654	4	C8H8N+
119.0603	14	C7H7N2+
120.0806	3	C8H10N+
130.065	37	C9H8N+
131.0603	3	C8H7N2+
132.068	3	C8H8N2+
134.0713	26	C7H8N3+
143.0605	3	C9H7N2+
145.0395	64	C8H5N2O+
158.0713	33	C9H8N3+
159.079	32	C9H9N3+
160.0628	1	C9H8N2O+
173.071	2	C10H9N2O+
174.0787	201	C10H10N2O+
175.0977	999	C9H11N4+
186.0661	7	C10H8N3O+
187.074	6	C10H9N3O+
203.0926	564	C10H11N4O+
