Mass spectrum: Flurtamone; LC-ESI-ITFT; MS2; CE: 35; R=15000; [M-H]-
Name: Flurtamone
Name: 5-(Methylamino)-2-phenyl-4-[3-(trifluoromethyl)phenyl]furan-3-one
Formula: C18H14F3NO2
Exact mass: 333.0977
SMILES: CNC1=C(C(=O)C(O1)C1=CC=CC=C1)C1=CC=CC(=C1)C(F)(F)F
InChI: InChI=1S/C18H14F3NO2/c1-22-17-14(12-8-5-9-13(10-12)18(19,20)21)15(23)16(24-17)11-6-3-2-4-7-11/h2-10,16,22H,1H3
Instrument: LTQ Orbitrap XL Thermo Scientific
Instrument type: LC-ESI-ITFT
Ms type: MS2
Ion mode: NEGATIVE
Ionization: ESI
Fragmentation mode: CID
Collision energy: 35 (nominal)
Resolution: 15000
Column name: Kinetex Core-Shell C18 2.6 um, 3.0 x 100 mm, Phenomenex
Retention time: 24.285 min
Base peak: 212.9994
Precursor m/z: 332.0904
Precursor type: [M-H]-
m/z	relative intensity	assigned
134.0611	10	C8H8NO-
145.0271	41	C7H4F3-
171.0326	13	C10H5NO2-
183.0303	21	C9H4F3N-
185.022	76	C9H4F3O-
186.0561	35	C11H8NO2-
198.0537	42	C10H7F3N-
214.0248	29	C10H5F3O2-
227.068	22	C15H9F2-
239.0199	11	C11H4F3NO2-
245.0585	10	C15H8F3-
247.0741	999	C15H10F3-
254.043	26	C12H7F3NO2-
255.0618	26	C16H9F2O-
259.0742	20	C16H10F3-
272.0719	10	C18H10NO2-
273.0772	28	C16H10F3N-
274.0611	51	C16H9F3O-
275.0688	376	C16H10F3O-
277.085	11	C16H12F3O-
286.0849	34	C17H11F3N-
304.0955	242	C17H13F3NO-
316.0594	40	C17H9F3NO2-
317.0669	208	C17H10F3NO2-
332.0906	50	C18H13F3NO2-
