Mass spectrum: 1,8-dinitropyrene; APCI-ITFT; MS2; CE: 35%; R=30000; [M]-
Name: 1,8-dinitropyrene
Formula: C16H8N2O4
Exact mass: 292.0484
SMILES: [O-][N+](=O)c4ccc2ccc1ccc([N+]([O-])=O)c3c1c2c4cc3
InChI: InChI=1S/C16H8N2O4/c19-17(20)13-7-3-9-1-2-10-4-8-14(18(21)22)12-6-5-11(13)15(9)16(10)12/h1-8H
Instrument: LTQ Orbitrap XL Thermo Scientific
Instrument type: APCI-ITFT
Ms type: MS2
Ion mode: NEGATIVE
Ionization: APCI
Fragmentation mode: CID
Collision energy: 35 % (nominal)
Resolution: 30000
Column name: N/A
Retention time: N/A min
Base peak: 292.049
Precursor m/z: 292.049
Precursor type: [M]-
m/z	relative intensity	assigned
262.0506	999	C16H8NO3-
292.0484	10	C16H8N2O4-
