Mass spectrum: Prothioconazole-desthio; LC-ESI-ITFT; MS2; CE: 60%; R=15000; [M+H]+
Name: Prothioconazole-desthio
Name: 2-(1-chlorocyclopropyl)-1-(2-chlorophenyl)-3-(1H-1,2,4-triazol-1-yl)propan-2-ol
Name: 2-(1-chlorocyclopropyl)-1-(2-chlorophenyl)-3-(1,2,4-triazol-1-yl)propan-2-ol
Formula: C14H15Cl2N3O
Exact mass: 311.05921746
SMILES: OC(CN1C=NC=N1)(CC1=CC=CC=C1Cl)C1(Cl)CC1
InChI: InChI=1S/C14H15Cl2N3O/c15-12-4-2-1-3-11(12)7-14(20,13(16)5-6-13)8-19-10-17-9-18-19/h1-4,9-10,20H,5-8H2
Instrument: LTQ Orbitrap XL Thermo Scientific
Instrument type: LC-ESI-ITFT
Ms type: MS2
Ion mode: POSITIVE
Ionization: ESI
Fragmentation mode: HCD
Collision energy: 60 % (nominal)
Resolution: 15000
Column name: Kinetex Evo C18 2.6 um 50 x 2.1 mm
Retention time: 11.799 min
Base peak: 312.0673
Precursor m/z: 312.0665
Precursor type: [M+H]+
Precursor intensity: 20752244
m/z	relative intensity	assigned
57.057	4	C3H7N+
65.0384	9	C5H5+
67.054	3	C5H7+
70.0399	999	C2H4N3+
70.065	138	C4H8N+
83.0493	4	C5H7O+
85.0885	5	C5H11N+
98.06	8	C5H8NO+
101.0149	5	C5H6Cl+
115.0542	6	C9H7+
125.0153	664	C7H6Cl+
129.0696	4	C10H9+
139.031	41	C8H8Cl+
142.0777	21	C11H10+
144.0932	7	C11H12+
149.0153	8	C9H6Cl+
151.031	36	C9H8Cl+
153.07	27	C12H9+
154.0778	46	C12H10+
155.0258	4	C8H8ClO+
158.976	10	C7H5Cl2+
163.0314	9	C10H8Cl+
165.0461	5	C10H10Cl+
177.0464	9	C11H10Cl+
189.0464	13	C12H10Cl+
312.0665	3	C14H16Cl2N3O+
