Mass spectrum: Fenthion; LC-ESI-ITFT; MS2; CE: 80%; R=15000; [M+H]+
Name: Fenthion
Name: dimethoxy-(3-methyl-4-methylsulfanylphenoxy)-sulfanylidene-lambda5-phosphane
Formula: C10H15O3PS2
Exact mass: 278.02002297
SMILES: COP(=S)(OC)OC1=CC=C(SC)C(C)=C1
InChI: InChI=1S/C10H15O3PS2/c1-8-7-9(5-6-10(8)16-4)13-14(15,11-2)12-3/h5-7H,1-4H3
Instrument: LTQ Orbitrap XL Thermo Scientific
Instrument type: LC-ESI-ITFT
Ms type: MS2
Ion mode: POSITIVE
Ionization: ESI
Fragmentation mode: HCD
Collision energy: 80 % (nominal)
Resolution: 15000
Column name: Kinetex Evo C18 2.6 um 50 x 2.1 mm
Retention time: 11.166 min
Base peak: 279.0282
Precursor m/z: 279.0273
Precursor type: [M+H]+
Precursor intensity: 5561889
m/z	relative intensity	assigned
53.0386	10	C4H5+
58.995	54	C2H3S+
62.0185	12	C2H6S+
77.0388	82	C6H5+
78.0466	71	C6H6+
78.9947	119	CH4O2P+
79.0545	104	C6H7+
81.0702	27	C6H9+
91.0546	385	C7H7+
92.0624	24	C7H8+
93.0703	97	C7H9+
97.0111	430	C5H5S+
103.0547	109	C8H7+
104.0625	114	C8H8+
105.0338	26	C7H5O+
105.0703	36	C8H9+
107.0495	35	C7H7O+
109.0111	97	C6H5S+
109.0652	77	C7H9O+
110.0189	319	C6H6S+
121.0111	71	C7H5S+
122.019	271	C7H6S+
123.0265	23	C7H7S+
124.9826	179	C2H6O2PS+
125.0425	483	C7H9S+
135.0268	55	C8H7S+
136.0347	24	C8H8S+
137.0426	87	C8H9S+
138.0139	121	C7H6OS+
138.0503	69	C8H10S+
142.9932	160	C2H8O3PS+
152.0294	21	C8H8OS+
153.0106	128	C7H6O2P+
153.0375	999	C8H9OS+
154.0453	39	C8H10OS+
154.9717	10	C6H4OPS+
167.98	25	C7H5OPS+
168.9877	96	C7H6OPS+
183.0213	56	C8H8O3P+
184.9826	33	C7H6O2PS+
185.9907	717	C7H7O2PS+
200.0063	103	C8H9O2PS+
200.9778	108	C7H6O3PS+
214.9936	58	C8H8O3PS+
216.0013	738	C8H9O3PS+
