Mass spectrum: Prochloraz BTS40348; LC-ESI-ITFT; MS2; CE: 90%; R=15000; [M+H]+
Name: Prochloraz BTS40348
Name: N-(2-(2,4,6-Trichlorophenoxy)ethyl)propan-1-amine
Name: N-[2-(2,4,6-trichlorophenoxy)ethyl]propan-1-amine
Formula: C11H14Cl3NO
Exact mass: 281.014097108
SMILES: CCCNCCOC1=C(Cl)C=C(Cl)C=C1Cl
InChI: InChI=1S/C11H14Cl3NO/c1-2-3-15-4-5-16-11-9(13)6-8(12)7-10(11)14/h6-7,15H,2-5H2,1H3
Instrument: LTQ Orbitrap XL Thermo Scientific
Instrument type: LC-ESI-ITFT
Ms type: MS2
Ion mode: POSITIVE
Ionization: ESI
Fragmentation mode: HCD
Collision energy: 90 % (nominal)
Resolution: 15000
Column name: Kinetex Evo C18 2.6 um 50 x 2.1 mm
Retention time: 7.497 min
Base peak: 282.0228
Precursor m/z: 282.0214
Precursor type: [M+H]+
Precursor intensity: 33145954
m/z	relative intensity	assigned
58.0649	999	C3H8N+
72.0806	158	C4H10N+
86.0965	480	C5H12N+
132.9607	341	C5H3Cl2+
158.9762	197	C7H5Cl2+
161.9633	423	C6H4Cl2O+
166.9217	941	C5H2Cl3+
194.9168	102	C6H2Cl3O+
