Mass spectrum: Imidacloprid-guanidine; LC-ESI-ITFT; MS2; CE: 40%; R=15000; [M+H]+
Name: Imidacloprid-guanidine
Name: (2z)-1-[(6-Chloropyridin-3-Yl)methyl]imidazolidin-2-Imine
Name: 1-[(6-chloropyridin-3-yl)methyl]-4,5-dihydroimidazol-2-amine
Formula: C9H11ClN4
Exact mass: 210.067224032
SMILES: NC1=NCCN1CC1=CN=C(Cl)C=C1
InChI: InChI=1S/C9H11ClN4/c10-8-2-1-7(5-13-8)6-14-4-3-12-9(14)11/h1-2,5H,3-4,6H2,(H2,11,12)
Instrument: LTQ Orbitrap XL Thermo Scientific
Instrument type: LC-ESI-ITFT
Ms type: MS2
Ion mode: POSITIVE
Ionization: ESI
Fragmentation mode: HCD
Collision energy: 40 % (nominal)
Resolution: 15000
Column name: Kinetex Evo C18 2.6 um 50 x 2.1 mm
Retention time: 0.547 min
Base peak: 211.075
Precursor m/z: 211.0745
Precursor type: [M+H]+
Precursor intensity: 4829001.5
m/z	relative intensity	assigned
84.0556	49	C3H6N3+
126.0106	206	C6H5ClN+
133.0761	12	C8H9N2+
168.0326	2	C7H7ClN3+
169.0528	8	C8H10ClN2+
175.098	55	C9H11N4+
194.0481	6	C9H9ClN3+
211.0746	999	C9H12ClN4+
