Mass spectrum: Dydrogesterone; LC-ESI-ITFT; MS2; CE: 70%; R=15000; [M+H]+
Name: Dydrogesterone
Name: (8S,9R,10S,13S,14S,17S)-17-acetyl-10,13-dimethyl-1,2,8,9,11,12,14,15,16,17-decahydrocyclopenta[a]phenanthren-3-one
Formula: C21H28O2
Exact mass: 312.208930136
SMILES: [H][C@@]12CC[C@H](C(C)=O)[C@@]1(C)CC[C@]1([H])[C@@]2([H])C=CC2=CC(=O)CC[C@@]12C
InChI: InChI=1S/C21H28O2/c1-13(22)17-6-7-18-16-5-4-14-12-15(23)8-10-20(14,2)19(16)9-11-21(17,18)3/h4-5,12,16-19H,6-11H2,1-3H3/t16-,17+,18-,19+,20+,21+/m0/s1
Instrument: LTQ Orbitrap XL Thermo Scientific
Instrument type: LC-ESI-ITFT
Ms type: MS2
Ion mode: POSITIVE
Ionization: ESI
Fragmentation mode: HCD
Collision energy: 70 % (nominal)
Resolution: 15000
Column name: Kinetex Evo C18 2.6 um 50 x 2.1 mm
Retention time: 12.059 min
Base peak: 313.2163
Precursor m/z: 313.2162
Precursor type: [M+H]+
Precursor intensity: 6661690
m/z	relative intensity	assigned
55.0541	130	C4H7+
67.0542	148	C5H7+
69.0699	90	C5H9+
71.0491	545	C4H7O+
79.0543	247	C6H7+
81.0699	370	C6H9+
83.0492	431	C5H7O+
85.0649	324	C5H9O+
91.0543	315	C7H7+
93.07	580	C7H9+
95.0856	692	C7H11+
97.0649	999	C6H9O+
99.0441	33	C5H7O2+
105.07	675	C8H9+
107.0493	167	C7H7O+
107.0856	430	C8H11+
109.0649	425	C7H9O+
109.1014	212	C8H13+
111.0804	79	C7H11O+
115.0544	37	C9H7+
117.07	207	C9H9+
119.0857	500	C9H11+
121.0649	264	C8H9O+
121.1013	212	C9H13+
123.0806	326	C8H11O+
128.0621	64	C10H8+
129.07	293	C10H9+
130.0779	44	C10H10+
131.0857	781	C10H11+
133.0648	89	C9H9O+
133.1013	459	C10H13+
135.0808	138	C9H11O+
135.117	133	C10H15+
137.096	94	C9H13O+
141.0699	144	C11H9+
142.0778	148	C11H10+
143.0857	601	C11H11+
144.0936	55	C11H12+
145.0653	53	C10H9O+
145.1013	701	C11H13+
147.0806	235	C10H11O+
147.117	246	C11H15+
149.0962	227	C10H13O+
154.078	65	C12H10+
155.0857	497	C12H11+
156.0936	122	C12H12+
157.1014	694	C12H13+
158.0725	67	C11H10O+
159.0805	84	C11H11O+
159.117	554	C12H15+
160.0886	34	C11H12O+
161.0963	329	C11H13O+
161.1327	67	C12H17+
162.1044	32	C11H14O+
163.1119	261	C11H15O+
165.0699	37	C13H9+
166.078	44	C13H10+
167.0856	99	C13H11+
168.0933	85	C13H12+
169.1014	526	C13H13+
170.1094	79	C13H14+
171.0809	83	C12H11O+
171.117	465	C13H15+
173.0963	518	C12H13O+
173.1326	152	C13H17+
175.112	289	C12H15O+
175.1487	26	C13H19+
177.127	32	C12H17O+
179.0859	54	C14H11+
180.0936	56	C14H12+
181.1015	261	C14H13+
182.1094	127	C14H14+
183.117	425	C14H15+
184.1249	62	C14H16+
185.0961	86	C13H13O+
185.1326	205	C14H17+
187.1119	82	C13H15O+
187.1484	136	C14H19+
189.1278	58	C13H17O+
192.0932	43	C15H12+
193.1015	65	C15H13+
194.1097	30	C15H14+
195.117	366	C15H15+
196.1246	107	C15H16+
197.0956	29	C14H13O+
197.1327	285	C15H17+
199.1118	141	C14H15O+
199.1484	89	C15H19+
201.1274	95	C14H17O+
201.1633	28	C15H21+
207.1173	99	C16H15+
209.1328	182	C16H17+
211.1122	60	C15H15O+
211.1483	340	C16H19+
212.1196	52	C15H16O+
213.1277	188	C15H17O+
213.1635	55	C16H21+
214.1348	56	C15H18O+
215.1436	79	C15H19O+
221.1326	74	C17H17+
223.148	71	C17H19+
225.1277	105	C16H17O+
225.1639	187	C17H21+
227.1432	116	C16H19O+
228.1512	90	C16H20O+
229.1589	103	C16H21O+
235.1484	39	C18H19+
237.1638	133	C18H21+
239.1431	73	C17H19O+
251.1801	52	C19H23+
253.1592	80	C18H21O+
253.1948	47	C19H25+
255.175	95	C18H23O+
269.1901	32	C19H25O+
277.1958	21	C21H25+
280.1829	25	C20H24O+
295.2044	29	C21H27O+
