Mass spectrum: Propyzamide; LC-ESI-ITFT; MS2; CE: 50%; R=15000; [M+H]+
Name: Propyzamide
Name: 3,5-dichloro-N-(2-methylbut-3-yn-2-yl)benzamide
Formula: C12H11Cl2NO
Exact mass: 255.021769332
SMILES: CC(C)(NC(=O)C1=CC(Cl)=CC(Cl)=C1)C#C
InChI: InChI=1S/C12H11Cl2NO/c1-4-12(2,3)15-11(16)8-5-9(13)7-10(14)6-8/h1,5-7H,2-3H3,(H,15,16)
Instrument: LTQ Orbitrap XL Thermo Scientific
Instrument type: LC-ESI-ITFT
Ms type: MS2
Ion mode: POSITIVE
Ionization: ESI
Fragmentation mode: HCD
Collision energy: 50 % (nominal)
Resolution: 15000
Column name: Kinetex Evo C18 2.6 um 50 x 2.1 mm
Retention time: 11.075 min
Base peak: 230.1171
Precursor m/z: 256.029
Precursor type: [M+H]+
Precursor intensity: 9818008
m/z	relative intensity	assigned
65.0383	45	C5H5+
67.054	135	C5H7+
85.0647	7	C5H9O+
146.976	40	C6H5Cl2+
172.9553	999	C7H3Cl2O+
189.9818	688	C7H6Cl2NO+
256.0287	141	C12H12Cl2NO+
