Mass spectrum: Desethylterbutylazine; LC-ESI-ITFT; MS2; CE: 60%; R=15000; [M+H]+
Name: Desethylterbutylazine
Name: Desethylterbuthylazine
Name: 2-N-tert-butyl-6-chloro-1,3,5-triazine-2,4-diamine
Formula: C7H12ClN5
Exact mass: 201.078123064
SMILES: CC(C)(C)NC1=NC(Cl)=NC(N)=N1
InChI: InChI=1S/C7H12ClN5/c1-7(2,3)13-6-11-4(8)10-5(9)12-6/h1-3H3,(H3,9,10,11,12,13)
Instrument: LTQ Orbitrap XL Thermo Scientific
Instrument type: LC-ESI-ITFT
Ms type: MS2
Ion mode: POSITIVE
Ionization: ESI
Fragmentation mode: HCD
Collision energy: 60 % (nominal)
Resolution: 15000
Column name: Kinetex Evo C18 2.6 um 50 x 2.1 mm
Retention time: 9.061 min
Base peak: 202.0857
Precursor m/z: 202.0854
Precursor type: [M+H]+
Precursor intensity: 36674688
m/z	relative intensity	assigned
68.0241	30	C2H2N3+
79.0056	70	CH4ClN2+
104.0008	67	C2H3ClN3+
110.046	39	C3H4N5+
124.0869	1	C6H10N3+
132.0318	1	C4H7ClN3+
146.0225	999	C3H5ClN5+
202.0852	8	C7H13ClN5+
