Mass spectrum: Iminostilbene; LC-ESI-ITFT; MS2; CE: 70%; R=15000; [M+H]+
Name: Iminostilbene
Name: 11H-benzo[b][1]benzazepine
Formula: C14H11N
Exact mass: 193.089149352
SMILES: N1C2=CC=CC=C2C=CC2=CC=CC=C12
InChI: InChI=1S/C14H11N/c1-3-7-13-11(5-1)9-10-12-6-2-4-8-14(12)15-13/h1-10,15H
Instrument: LTQ Orbitrap XL Thermo Scientific
Instrument type: LC-ESI-ITFT
Ms type: MS2
Ion mode: POSITIVE
Ionization: ESI
Fragmentation mode: HCD
Collision energy: 70 % (nominal)
Resolution: 15000
Column name: Kinetex Evo C18 2.6 um 50 x 2.1 mm
Retention time: 11.191 min
Base peak: 180.0815
Precursor m/z: 194.0964
Precursor type: [M+H]+
Precursor intensity: 18754966
m/z	relative intensity	assigned
91.0542	2	C7H7+
106.0653	3	C7H8N+
107.073	30	C7H9N+
116.0496	4	C8H6N+
120.0808	1	C8H10N+
121.0887	9	C8H11N+
122.0965	5	C8H12N+
152.0623	3	C12H8+
165.0702	3	C13H9+
167.073	5	C12H9N+
167.0856	11	C13H11+
176.0621	1	C14H8+
177.0701	11	C14H9+
178.0654	2	C13H8N+
178.0779	4	C14H10+
179.0732	79	C13H9N+
192.0813	5	C14H10N+
193.0891	142	C14H11N+
194.0965	999	C14H12N+
