Mass spectrum: Exemestane; LC-ESI-ITFT; MS2; CE: 40%; R=15000; [M+H]+
Name: Exemestane
Name: (8R,9S,10R,13S,14S)-10,13-dimethyl-6-methylidene-7,8,9,11,12,14,15,16-octahydrocyclopenta[a]phenanthrene-3,17-dione
Formula: C20H24O2
Exact mass: 296.177630008
SMILES: [H][C@@]12CCC(=O)[C@@]1(C)CC[C@@]1([H])[C@@]2([H])CC(=C)C2=CC(=O)C=C[C@]12C
InChI: InChI=1S/C20H24O2/c1-12-10-14-15-4-5-18(22)20(15,3)9-7-16(14)19(2)8-6-13(21)11-17(12)19/h6,8,11,14-16H,1,4-5,7,9-10H2,2-3H3/t14-,15-,16-,19+,20-/m0/s1
Instrument: LTQ Orbitrap XL Thermo Scientific
Instrument type: LC-ESI-ITFT
Ms type: MS2
Ion mode: POSITIVE
Ionization: ESI
Fragmentation mode: HCD
Collision energy: 40 % (nominal)
Resolution: 15000
Column name: Kinetex Evo C18 2.6 um 50 x 2.1 mm
Retention time: 11.172 min
Base peak: 297.1852
Precursor m/z: 297.1849
Precursor type: [M+H]+
Precursor intensity: 4689975
m/z	relative intensity	assigned
55.0541	17	C4H7+
67.0541	41	C5H7+
79.0543	74	C6H7+
81.0699	169	C6H9+
83.0492	344	C5H7O+
91.0544	80	C7H7+
93.07	154	C7H9+
95.0856	149	C7H11+
105.07	195	C8H9+
107.0493	135	C7H7O+
107.0857	158	C8H11+
109.0649	999	C7H9O+
109.1013	77	C8H13+
111.0806	78	C7H11O+
117.0701	101	C9H9+
119.0857	378	C9H11+
121.0649	53	C8H9O+
121.1013	145	C9H13+
123.0806	109	C8H11O+
129.07	73	C10H9+
131.0856	287	C10H11+
133.0646	34	C9H9O+
133.1013	166	C10H13+
135.0805	223	C9H11O+
135.1169	48	C10H15+
137.0962	36	C9H13O+
141.0701	22	C11H9+
143.0856	192	C11H11+
145.1013	414	C11H13+
147.0807	78	C10H11O+
147.117	101	C11H15+
149.0964	188	C10H13O+
149.1329	25	C11H17+
155.0855	47	C12H11+
157.1013	199	C12H13+
159.0804	72	C11H11O+
159.117	167	C12H15+
161.0962	104	C11H13O+
161.1327	93	C12H17+
163.112	140	C11H15O+
167.0855	30	C13H11+
169.1014	156	C13H13+
171.0804	26	C12H11O+
171.117	367	C13H15+
173.0959	41	C12H13O+
173.1327	213	C13H17+
175.1117	81	C12H15O+
177.1275	22	C12H17O+
179.0851	18	C14H11+
181.1014	75	C14H13+
183.1171	96	C14H15+
185.0961	64	C13H13O+
185.1327	176	C14H17+
187.1118	55	C13H15O+
187.1481	23	C14H19+
189.1278	42	C13H17O+
193.1014	33	C15H13+
195.1169	92	C15H15+
197.1326	91	C15H17+
199.1124	38	C14H15O+
199.1483	83	C15H19+
201.1275	61	C14H17O+
207.1163	61	C16H15+
209.1332	49	C16H17+
211.1122	33	C15H15O+
211.1483	144	C16H19+
213.1274	30	C15H17O+
213.1639	242	C16H21+
221.1326	119	C17H17+
223.1483	170	C17H19+
225.1277	52	C16H17O+
227.1433	28	C16H19O+
229.1585	40	C16H21O+
231.1745	766	C16H23O+
235.1484	64	C18H19+
237.1631	40	C18H21+
239.1431	39	C17H19O+
239.1795	76	C18H23+
241.1586	28	C17H21O+
248.1565	15	C19H20+
253.1585	53	C18H21O+
253.1957	29	C19H25+
263.1796	175	C20H23+
281.1901	339	C20H25O+
