Mass spectrum: Acridone; LC-ESI-ITFT; MS2; CE: 80%; R=15000; [M+H]+
Name: Acridone
Name: 10H-acridin-9-one
Formula: C13H9NO
Exact mass: 195.068413908
SMILES: O=C1C2=CC=CC=C2NC2=CC=CC=C12
InChI: InChI=1S/C13H9NO/c15-13-9-5-1-3-7-11(9)14-12-8-4-2-6-10(12)13/h1-8H,(H,14,15)
Instrument: LTQ Orbitrap XL Thermo Scientific
Instrument type: LC-ESI-ITFT
Ms type: MS2
Ion mode: POSITIVE
Ionization: ESI
Fragmentation mode: HCD
Collision energy: 80 % (nominal)
Resolution: 15000
Column name: Kinetex Evo C18 2.6 um 50 x 2.1 mm
Retention time: 9.134 min
Base peak: 358.2375
Precursor m/z: 196.0757
Precursor type: [M+H]+
Precursor intensity: 12847263
m/z	relative intensity	assigned
141.0694	2	C11H9+
166.0648	1	C12H8N+
167.0726	172	C12H9N+
178.0648	12	C13H8N+
195.0676	50	C13H9NO+
196.0751	999	C13H10NO+
