Mass spectrum: Warfarin; LC-ESI-ITFT; MS2; CE: 80%; R=15000; [M+H]+
Name: Warfarin
Name: 4-hydroxy-3-(3-oxo-1-phenylbutyl)chromen-2-one
Formula: C19H16O4
Exact mass: 308.104858992
SMILES: CC(=O)CC(C1=CC=CC=C1)C1=C(O)C2=CC=CC=C2OC1=O
InChI: InChI=1S/C19H16O4/c1-12(20)11-15(13-7-3-2-4-8-13)17-18(21)14-9-5-6-10-16(14)23-19(17)22/h2-10,15,21H,11H2,1H3
Instrument: LTQ Orbitrap XL Thermo Scientific
Instrument type: LC-ESI-ITFT
Ms type: MS2
Ion mode: POSITIVE
Ionization: ESI
Fragmentation mode: HCD
Collision energy: 80 % (nominal)
Resolution: 15000
Column name: Kinetex Evo C18 2.6 um 50 x 2.1 mm
Retention time: 11.253 min
Base peak: 309.1127
Precursor m/z: 309.1121
Precursor type: [M+H]+
Precursor intensity: 39873476
m/z	relative intensity	assigned
65.0383	33	C5H5+
68.9969	29	C3HO2+
77.0384	141	C6H5+
79.0541	8	C6H7+
89.0385	9	C7H5+
91.0542	86	C7H7+
93.0334	73	C6H5O+
95.049	122	C6H7O+
102.0466	3	C8H6+
103.0541	126	C8H7+
105.0335	22	C7H5O+
105.0698	14	C8H9+
107.0489	11	C7H7O+
111.0441	9	C6H7O2+
115.0539	5	C9H7+
119.0491	18	C8H7O+
121.0283	999	C7H5O2+
128.062	21	C10H8+
129.0334	26	C9H5O+
129.0698	100	C10H9+
130.0411	17	C9H6O+
131.049	161	C9H7O+
139.0389	17	C7H7O3+
141.0697	5	C11H9+
143.0852	6	C11H11+
145.0284	18	C9H5O2+
147.0803	41	C10H11O+
152.062	27	C12H8+
153.0696	23	C12H9+
154.0774	8	C12H10+
155.0854	431	C12H11+
157.0283	55	C10H5O2+
163.0388	719	C9H7O3+
165.0698	64	C13H9+
166.0775	8	C13H10+
167.0854	149	C13H11+
171.0801	7	C12H11O+
173.0232	186	C10H5O3+
175.0395	6	C10H7O3+
177.0696	23	C14H9+
178.0776	111	C14H10+
179.0854	22	C14H11+
181.0645	7	C13H9O+
183.0803	206	C13H11O+
189.0547	14	C11H9O3+
191.0337	259	C10H7O4+
195.0804	21	C14H11O+
205.049	4	C11H9O4+
205.0646	67	C15H9O+
223.0752	164	C15H11O2+
233.0596	53	C16H9O2+
249.0546	14	C16H9O3+
251.07	128	C16H11O3+
