Mass spectrum: 1-chloro-2,4-dinitrobenzene; APCI-ITFT; MS2; CE: 35%; R=30000; [M]-
Name: 1-chloro-2,4-dinitrobenzene
Formula: C6H3ClN2O4
Exact mass: 201.9781
SMILES: O=[N+]([O-])c1cc(ccc1Cl)[N+]([O-])=O
InChI: InChI=1S/C6H3ClN2O4/c7-5-2-1-4(8(10)11)3-6(5)9(12)13/h1-3H
Instrument: LTQ Orbitrap XL Thermo Scientific
Instrument type: APCI-ITFT
Ms type: MS2
Ion mode: NEGATIVE
Ionization: APCI
Fragmentation mode: CID
Collision energy: 35 % (nominal)
Resolution: 30000
Column name: N/A
Retention time: N/A min
Base peak: 201.9787
Precursor m/z: 201.9787
Precursor type: [M]-
m/z	relative intensity	assigned
155.9856	19	C6H3ClNO2-
171.9805	999	C6H3ClNO3-
