Mass spectrum: Clomazone; LC-ESI-ITFT; MS2; CE: 55; R=15000; [M+H]+
Name: Clomazone
Name: 2-[(2-Chlorophenyl)methyl]-4,4-dimethyl-1,2-oxazolidin-3-one
Formula: C12H14ClNO2
Exact mass: 239.0713
SMILES: CC1(C)CON(CC2=CC=CC=C2Cl)C1=O
InChI: InChI=1S/C12H14ClNO2/c1-12(2)8-16-14(11(12)15)7-9-5-3-4-6-10(9)13/h3-6H,7-8H2,1-2H3
Instrument: LTQ Orbitrap XL Thermo Scientific
Instrument type: LC-ESI-ITFT
Ms type: MS2
Ion mode: POSITIVE
Ionization: ESI
Fragmentation mode: CID
Collision energy: 55 (nominal)
Resolution: 15000
Column name: Kinetex Core-Shell C18 2.6 um, 3.0 x 100 mm, Phenomenex
Retention time: 23.949 min
Base peak: 240.078
Precursor m/z: 240.0786
Precursor type: [M+H]+
m/z	relative intensity	assigned
55.0541	1	C4H7+
73.0647	2	C4H9O+
89.0385	1	C7H5+
100.0756	20	C5H10NO+
114.055	6	C5H8NO2+
125.0151	999	C7H6Cl+
128.0704	126	C6H10NO2+
140.0261	17	C7H7ClN+
204.1017	1	C12H14NO2+
