Mass spectrum: Testosterone; LC-ESI-ITFT; MS2; CE: 55; R=15000; [M+H]+
Name: Testosterone
Name: (8R,9S,10R,13S,14S,17S)-17-Hydroxy-10,13-dimethyl-1,2,6,7,8,9,11,12,14,15,16,17-dodecahydrocyclopenta[a]phenanthren-3-one
Formula: C19H28O2
Exact mass: 288.2089
SMILES: C[C@]12CC[C@H]3[C@@H](CCC4=CC(=O)CC[C@]34C)[C@@H]1CC[C@@H]2O
InChI: InChI=1S/C19H28O2/c1-18-9-7-13(20)11-12(18)3-4-14-15-5-6-17(21)19(15,2)10-8-16(14)18/h11,14-17,21H,3-10H2,1-2H3/t14-,15-,16-,17-,18-,19-/m0/s1
Instrument: LTQ Orbitrap XL Thermo Scientific
Instrument type: LC-ESI-ITFT
Ms type: MS2
Ion mode: POSITIVE
Ionization: ESI
Fragmentation mode: CID
Collision energy: 55 (nominal)
Resolution: 15000
Column name: Kinetex Core-Shell C18 2.6 um, 3.0 x 100 mm, Phenomenex
Retention time: 24.975 min
Base peak: 289.2153
Precursor m/z: 289.2162
Precursor type: [M+H]+
m/z	relative intensity	assigned
83.049	3	C5H7O+
91.0541	7	C7H7+
93.0697	10	C7H9+
95.0854	19	C7H11+
97.0646	655	C6H9O+
105.0697	15	C8H9+
107.0852	13	C8H11+
109.0646	300	C7H9O+
109.101	15	C8H13+
117.0697	4	C9H9+
119.0853	13	C9H11+
121.0645	17	C8H9O+
121.101	23	C9H13+
123.0802	73	C8H11O+
123.1164	4	C9H15+
129.0694	5	C10H9+
131.0853	39	C10H11+
133.1011	19	C10H13+
135.1166	40	C10H15+
137.0963	4	C9H13O+
143.0853	36	C11H11+
145.101	66	C11H13+
147.1167	49	C11H15+
149.0961	13	C10H13O+
149.1322	23	C11H17+
151.1111	4	C10H15O+
155.0852	6	C12H11+
157.101	95	C12H13+
159.1166	86	C12H15+
161.0956	11	C11H13O+
161.1323	39	C12H17+
163.1115	26	C11H15O+
163.148	17	C12H19+
169.1007	13	C13H13+
171.1166	114	C13H15+
173.1323	70	C13H17+
175.1116	17	C12H15O+
175.1479	94	C13H19+
177.1273	38	C12H17O+
183.1166	46	C14H15+
185.1322	45	C14H17+
187.1479	114	C14H19+
189.1272	29	C13H17O+
189.1635	131	C14H21+
191.1431	9	C13H19O+
197.1322	116	C15H17+
199.148	64	C15H19+
201.127	5	C14H17O+
201.1635	62	C15H21+
203.1425	12	C14H19O+
211.1479	58	C16H19+
213.1635	128	C16H21+
215.1428	32	C15H19O+
217.158	9	C15H21O+
219.1741	28	C15H23O+
225.1635	43	C17H21+
227.1792	39	C17H23+
229.1589	10	C16H21O+
229.195	25	C17H25+
231.174	4	C16H23O+
243.1743	11	C17H23O+
243.2105	47	C18H27+
245.1888	3	C17H25O+
253.1947	999	C19H25+
271.2052	755	C19H27O+
