Mass spectrum: Fluvoxamine; LC-ESI-ITFT; MS2; CE: 10%; R=15000; [M+H]+
Name: Fluvoxamine
Name: 2-[[5-methoxy-1-[4-(trifluoromethyl)phenyl]pentylidene]amino]oxyethanamine
Formula: C15H21F3N2O2
Exact mass: 318.155512572
SMILES: COCCCCC(=NOCCN)C1=CC=C(C=C1)C(F)(F)F
InChI: InChI=1S/C15H21F3N2O2/c1-21-10-3-2-4-14(20-22-11-9-19)12-5-7-13(8-6-12)15(16,17)18/h5-8H,2-4,9-11,19H2,1H3
Instrument: LTQ Orbitrap XL Thermo Scientific
Instrument type: LC-ESI-ITFT
Ms type: MS2
Ion mode: POSITIVE
Ionization: ESI
Fragmentation mode: HCD
Collision energy: 10 % (nominal)
Resolution: 15000
Column name: Kinetex Evo C18 2.6 um 50 x 2.1 mm
Retention time: 8.989 min
Base peak: 319.1637
Precursor m/z: 319.1628
Precursor type: [M+H]+
Precursor intensity: 41197488
m/z	relative intensity	assigned
71.0489	54	C4H7O+
87.0803	14	C5H11O+
200.0683	4	C10H9F3N+
226.0839	10	C12H11F3N+
228.0997	3	C12H13F3N+
258.1101	79	C13H15F3NO+
259.118	15	C13H16F3NO+
260.1256	37	C13H17F3NO+
319.1627	999	C15H22F3N2O2+
