Mass spectrum: Genistein; LC-ESI-ITFT; MS2; CE: 55; R=15000; [M+H]+
Name: Genistein
Name: 5,7-Dihydroxy-3-(4-hydroxyphenyl)chromen-4-one
Formula: C15H10O5
Exact mass: 270.0528
SMILES: OC1=CC=C(C=C1)C1=COC2=CC(O)=CC(O)=C2C1=O
InChI: InChI=1S/C15H10O5/c16-9-3-1-8(2-4-9)11-7-20-13-6-10(17)5-12(18)14(13)15(11)19/h1-7,16-18H
Instrument: LTQ Orbitrap XL Thermo Scientific
Instrument type: LC-ESI-ITFT
Ms type: MS2
Ion mode: POSITIVE
Ionization: ESI
Fragmentation mode: CID
Collision energy: 55 (nominal)
Resolution: 15000
Column name: Kinetex Core-Shell C18 2.6 um, 3.0 x 100 mm, Phenomenex
Retention time: 22.703 min
Base peak: 361.2
Precursor m/z: 271.0601
Precursor type: [M+H]+
m/z	relative intensity	assigned
89.0386	4	C7H5+
91.0539	4	C7H7+
109.0282	2	C6H5O2+
111.0075	7	C5H3O3+
115.0541	3	C9H7+
119.049	10	C8H7O+
121.0283	16	C7H5O2+
131.049	9	C9H7O+
133.0283	23	C8H5O2+
133.0647	9	C9H9O+
141.0701	2	C11H9+
145.0283	192	C9H5O2+
147.0438	7	C9H7O2+
147.0805	3	C10H11O+
149.0231	284	C8H5O3+
153.018	999	C7H5O4+
157.0648	5	C11H9O+
159.0438	197	C10H7O2+
165.0181	49	C8H5O4+
169.0646	25	C12H9O+
173.0595	19	C11H9O2+
175.0748	3	C11H11O2+
177.0184	4	C9H5O4+
181.0645	14	C13H9O+
183.0437	5	C12H7O2+
185.0597	8	C12H9O2+
187.0388	57	C11H7O3+
187.0751	27	C12H11O2+
197.0595	57	C13H9O2+
200.046	2	C12H8O3+
201.0545	17	C12H9O3+
203.0701	12	C12H11O3+
215.07	778	C13H11O3+
225.0543	98	C14H9O3+
226.0617	2	C14H10O3+
227.07	25	C14H11O3+
229.0494	13	C13H9O4+
243.0649	630	C14H11O4+
253.0492	357	C15H9O4+
271.0598	459	C15H11O5+
