Mass spectrum: Prednisolone; LC-ESI-ITFT; MS2; CE: 60%; R=15000; [M+H]+
Name: Prednisolone
Name: (8S,9S,10R,11S,13S,14S,17R)-11,17-dihydroxy-17-(2-hydroxyacetyl)-10,13-dimethyl-7,8,9,11,12,14,15,16-octahydro-6H-cyclopenta[a]phenanthren-3-one
Formula: C21H28O5
Exact mass: 360.193673996
SMILES: C[C@]12C[C@H](O)[C@H]3[C@@H](CCC4=CC(=O)C=C[C@]34C)[C@@H]1CC[C@]2(O)C(=O)CO
InChI: InChI=1S/C21H28O5/c1-19-7-5-13(23)9-12(19)3-4-14-15-6-8-21(26,17(25)11-22)20(15,2)10-16(24)18(14)19/h5,7,9,14-16,18,22,24,26H,3-4,6,8,10-11H2,1-2H3/t14-,15-,16-,18+,19-,20-,21-/m0/s1
Instrument: LTQ Orbitrap XL Thermo Scientific
Instrument type: LC-ESI-ITFT
Ms type: MS2
Ion mode: POSITIVE
Ionization: ESI
Fragmentation mode: HCD
Collision energy: 60 % (nominal)
Resolution: 15000
Column name: Kinetex Evo C18 2.6 um 50 x 2.1 mm
Retention time: 9.727 min
Base peak: 361.2011
Precursor m/z: 361.201
Precursor type: [M+H]+
Precursor intensity: 10902699
m/z	relative intensity	assigned
121.0651	478	C8H9O+
135.0808	123	C9H11O+
147.0807	999	C10H11O+
171.0807	434	C12H11O+
173.0966	393	C12H13O+
211.1118	97	C15H15O+
223.1113	106	C16H15O+
