Mass spectrum: Hexazinone; LC-ESI-ITFT; MS2; CE: 40%; R=15000; [M+H]+
Name: Hexazinone
Name: 3-cyclohexyl-6-(dimethylamino)-1-methyl-1,3,5-triazine-2,4-dione
Formula: C12H20N4O2
Exact mass: 252.15862588
SMILES: CN(C)C1=NC(=O)N(C2CCCCC2)C(=O)N1C
InChI: InChI=1S/C12H20N4O2/c1-14(2)10-13-11(17)16(12(18)15(10)3)9-7-5-4-6-8-9/h9H,4-8H2,1-3H3
Instrument: LTQ Orbitrap XL Thermo Scientific
Instrument type: LC-ESI-ITFT
Ms type: MS2
Ion mode: POSITIVE
Ionization: ESI
Fragmentation mode: HCD
Collision energy: 40 % (nominal)
Resolution: 15000
Column name: Kinetex Evo C18 2.6 um 50 x 2.1 mm
Retention time: 8.824 min
Base peak: 253.1671
Precursor m/z: 253.1659
Precursor type: [M+H]+
Precursor intensity: 57449652
m/z	relative intensity	assigned
55.054	1	C4H7+
71.0603	22	C3H7N2+
83.0856	6	C6H11+
85.076	31	C4H9N2+
101.0347	1	C3H5N2O2+
114.0661	1	C4H8N3O+
171.0878	999	C6H11N4O2+
253.1661	43	C12H21N4O2+
