Mass spectrum: Cyclophosphamide; LC-ESI-ITFT; MS2; CE: 70%; R=15000; [M+H]+
Name: Cyclophosphamide
Name: N,N-bis(2-chloroethyl)-2-oxo-1,3,2lambda5-oxazaphosphinan-2-amine
Formula: C7H15Cl2N2O2P
Exact mass: 260.02481971
SMILES: ClCCN(CCCl)P1(=O)NCCCO1
InChI: InChI=1S/C7H15Cl2N2O2P/c8-2-5-11(6-3-9)14(12)10-4-1-7-13-14/h1-7H2,(H,10,12)
Instrument: LTQ Orbitrap XL Thermo Scientific
Instrument type: LC-ESI-ITFT
Ms type: MS2
Ion mode: POSITIVE
Ionization: ESI
Fragmentation mode: HCD
Collision energy: 70 % (nominal)
Resolution: 15000
Column name: Kinetex Evo C18 2.6 um 50 x 2.1 mm
Retention time: 7.502 min
Base peak: 261.0332
Precursor m/z: 261.0321
Precursor type: [M+H]+
Precursor intensity: 9886308
m/z	relative intensity	assigned
56.0492	201	C3H6N+
58.0649	129	C3H8N+
62.9994	164	CH4OP+
70.065	30	C4H8N+
78.0104	36	C2H5ClN+
94.0052	13	CH5NO2P+
102.0103	21	C3H5NOP+
104.0261	19	C4H7ClN+
106.0418	209	C4H9ClN+
110.0001	63	C2H5ClNO2+
111.9716	4	C2H4Cl2N+
112.0157	29	C2H7ClNO2+
120.0208	170	C3H7NO2P+
124.0155	4	C3H7ClNO2+
138.0315	137	C4H9ClNO2+
140.0028	999	C4H8Cl2N+
141.9819	46	C2H6ClNO2P+
142.0184	259	C4H10Cl2N+
233.0002	10	C5H12Cl2N2O2P+
