Mass spectrum: Fenthion; LC-ESI-ITFT; MS2; CE: 40%; R=15000; [M+H]+
Name: Fenthion
Name: dimethoxy-(3-methyl-4-methylsulfanylphenoxy)-sulfanylidene-lambda5-phosphane
Formula: C10H15O3PS2
Exact mass: 278.02002297
SMILES: COP(=S)(OC)OC1=CC=C(SC)C(C)=C1
InChI: InChI=1S/C10H15O3PS2/c1-8-7-9(5-6-10(8)16-4)13-14(15,11-2)12-3/h5-7H,1-4H3
Instrument: LTQ Orbitrap XL Thermo Scientific
Instrument type: LC-ESI-ITFT
Ms type: MS2
Ion mode: POSITIVE
Ionization: ESI
Fragmentation mode: HCD
Collision energy: 40 % (nominal)
Resolution: 15000
Column name: Kinetex Evo C18 2.6 um 50 x 2.1 mm
Retention time: 11.198 min
Base peak: 116.9863
Precursor m/z: 279.0273
Precursor type: [M+H]+
Precursor intensity: 2261524.5
m/z	relative intensity	assigned
91.0546	3	C7H7+
93.0703	4	C7H9+
97.0111	11	C5H5S+
122.0189	2	C7H6S+
124.9826	55	C2H6O2PS+
137.0425	60	C8H9S+
138.0504	14	C8H10S+
142.9932	45	C2H8O3PS+
149.0239	9	C8H5O3+
153.0375	313	C8H9OS+
168.9879	23	C7H6OPS+
198.9986	11	C8H8O2PS+
200.0064	37	C8H9O2PS+
216.0013	385	C8H9O3PS+
217.0092	11	C8H10O3PS+
231.0248	999	C9H12O3PS+
247.002	28	C9H12O2PS2+
