Mass spectrum: Trifloxystrobin; LC-ESI-ITFT; MS2; CE: 60%; R=15000; [M+H]+
Name: Trifloxystrobin
Name: methyl (2E)-2-methoxyimino-2-[2-[[(E)-1-[3-(trifluoromethyl)phenyl]ethylideneamino]oxymethyl]phenyl]acetate
Formula: C20H19F3N2O4
Exact mass: 408.129691748
SMILES: CO\N=C(\C(=O)OC)C1=C(CO\N=C(/C)C2=CC=CC(=C2)C(F)(F)F)C=CC=C1
InChI: InChI=1S/C20H19F3N2O4/c1-13(14-8-6-9-16(11-14)20(21,22)23)24-29-12-15-7-4-5-10-17(15)18(25-28-3)19(26)27-2/h4-11H,12H2,1-3H3/b24-13+,25-18+
Instrument: LTQ Orbitrap XL Thermo Scientific
Instrument type: LC-ESI-ITFT
Ms type: MS2
Ion mode: POSITIVE
Ionization: ESI
Fragmentation mode: HCD
Collision energy: 60 % (nominal)
Resolution: 15000
Column name: Kinetex Evo C18 2.6 um 50 x 2.1 mm
Retention time: 13.183 min
Base peak: 409.1375
Precursor m/z: 409.137
Precursor type: [M+H]+
Precursor intensity: 11915940
m/z	relative intensity	assigned
91.0546	65	C7H7+
103.0545	12	C8H7+
105.0703	31	C8H9+
115.0546	6	C9H7+
116.0499	380	C8H6N+
117.0577	103	C8H7N+
118.0655	90	C8H8N+
119.0497	26	C8H7O+
130.0656	46	C9H8N+
131.0734	347	C9H9N+
132.0448	46	C8H6NO+
132.0812	100	C9H10N+
133.0528	3	C8H7NO+
134.0605	4	C8H8NO+
143.0372	21	C9H5NO+
145.0265	586	C7H4F3+
146.0606	140	C9H8NO+
147.0684	48	C9H9NO+
148.0763	9	C9H10NO+
161.0477	35	C9H7NO2+
163.0373	7	C7H6F3O+
173.0327	326	C7H4F3N2+
175.0636	10	C10H9NO2+
178.0869	7	C10H12NO2+
186.0531	999	C9H7F3N+
206.0819	23	C11H12NO3+
253.0004	28	C14F3N2+
254.0037	60	C17HFNO+
