Mass spectrum: Prothioconazole-desthio; LC-ESI-ITFT; MS2; CE: 40%; R=15000; [M+H]+
Name: Prothioconazole-desthio
Name: 2-(1-chlorocyclopropyl)-1-(2-chlorophenyl)-3-(1H-1,2,4-triazol-1-yl)propan-2-ol
Name: 2-(1-chlorocyclopropyl)-1-(2-chlorophenyl)-3-(1,2,4-triazol-1-yl)propan-2-ol
Formula: C14H15Cl2N3O
Exact mass: 311.05921746
SMILES: OC(CN1C=NC=N1)(CC1=CC=CC=C1Cl)C1(Cl)CC1
InChI: InChI=1S/C14H15Cl2N3O/c15-12-4-2-1-3-11(12)7-14(20,13(16)5-6-13)8-19-10-17-9-18-19/h1-4,9-10,20H,5-8H2
Instrument: LTQ Orbitrap XL Thermo Scientific
Instrument type: LC-ESI-ITFT
Ms type: MS2
Ion mode: POSITIVE
Ionization: ESI
Fragmentation mode: HCD
Collision energy: 40 % (nominal)
Resolution: 15000
Column name: Kinetex Evo C18 2.6 um 50 x 2.1 mm
Retention time: 11.799 min
Base peak: 312.0673
Precursor m/z: 312.0665
Precursor type: [M+H]+
Precursor intensity: 20752244
m/z	relative intensity	assigned
65.0384	2	C5H5+
67.0539	3	C5H7+
70.0398	999	C2H4N3+
83.0491	4	C5H7O+
98.0597	1	C5H8NO+
101.0152	2	C5H6Cl+
113.0151	4	C6H6Cl+
125.0151	305	C7H6Cl+
129.0702	1	C10H9+
139.0308	34	C8H8Cl+
142.0776	4	C11H10+
143.0852	2	C11H11+
144.0931	5	C11H12+
149.0149	2	C9H6Cl+
151.0308	33	C9H8Cl+
153.0697	10	C12H9+
154.0774	15	C12H10+
155.0254	7	C8H8ClO+
158.9758	5	C7H5Cl2+
163.0307	6	C10H8Cl+
165.0464	5	C10H10Cl+
177.0463	13	C11H10Cl+
179.0622	5	C11H12Cl+
189.0465	45	C12H10Cl+
196.9914	2	C10H7Cl2+
207.0569	4	C12H12ClO+
225.0232	4	C12H11Cl2+
312.0661	311	C14H16Cl2N3O+
