Mass spectrum: Oxybutynin; LC-ESI-ITFT; MS2; CE: 50%; R=15000; [M+H]+
Name: Oxybutynin
Name: 4-(diethylamino)but-2-ynyl 2-cyclohexyl-2-hydroxy-2-phenylacetate
Formula: C22H31NO3
Exact mass: 357.230393852
SMILES: CCN(CC)CC#CCOC(=O)C(O)(C1CCCCC1)C1=CC=CC=C1
InChI: InChI=1S/C22H31NO3/c1-3-23(4-2)17-11-12-18-26-21(24)22(25,19-13-7-5-8-14-19)20-15-9-6-10-16-20/h5,7-8,13-14,20,25H,3-4,6,9-10,15-18H2,1-2H3
Instrument: LTQ Orbitrap XL Thermo Scientific
Instrument type: LC-ESI-ITFT
Ms type: MS2
Ion mode: POSITIVE
Ionization: ESI
Fragmentation mode: HCD
Collision energy: 50 % (nominal)
Resolution: 15000
Column name: Kinetex Evo C18 2.6 um 50 x 2.1 mm
Retention time: 9.039 min
Base peak: 358.2382
Precursor m/z: 358.2377
Precursor type: [M+H]+
Precursor intensity: 79092048
m/z	relative intensity	assigned
68.0492	114	C4H6N+
69.0332	123	C4H5O+
69.0696	24	C5H9+
70.0649	34	C4H8N+
72.0805	470	C4H10N+
73.0883	21	C4H11N+
77.0384	7	C6H5+
79.054	98	C6H7+
80.0492	30	C5H6N+
81.0571	26	C5H7N+
81.0697	55	C6H9+
82.0649	151	C5H8N+
83.0853	35	C6H11+
84.0806	20	C5H10N+
86.0962	24	C5H12N+
91.054	71	C7H7+
94.0649	112	C6H8N+
95.0727	47	C6H9N+
95.0852	9	C7H11+
96.0806	199	C6H10N+
97.0282	413	C5H5O2+
105.0333	399	C7H5O+
107.0489	153	C7H7O+
107.0853	8	C8H11+
108.0805	50	C7H10N+
109.0883	62	C7H11N+
113.023	7	C5H5O3+
117.0699	8	C9H9+
121.0645	5	C8H9O+
122.0961	48	C8H12N+
124.1118	245	C8H14N+
125.1196	17	C8H15N+
128.0622	5	C10H8+
129.0696	83	C10H9+
142.1223	999	C8H16NO+
143.085	17	C11H11+
157.0642	15	C11H9O+
171.1165	106	C13H15+
173.0591	5	C11H9O2+
181.1009	10	C14H13+
185.059	8	C12H9O2+
187.0747	9	C12H11O2+
189.127	189	C13H17O+
199.1113	57	C14H15O+
203.0704	7	C12H11O3+
258.1494	7	C16H20NO2+
340.2277	6	C22H30NO2+
358.2363	27	C22H32NO3+
