Mass spectrum: 4-Aminoantipyrin; LC-ESI-ITFT; MS2; CE: 35; R=15000; [M+H]+
Name: 4-Aminoantipyrin
Name: 4-Aminoantipyrine
Name: 4-Amino-1,5-dimethyl-2-phenylpyrazol-3-one
Formula: C11H13N3O
Exact mass: 203.1059
SMILES: CN1N(C(=O)C(N)=C1C)C1=CC=CC=C1
InChI: InChI=1S/C11H13N3O/c1-8-10(12)11(15)14(13(8)2)9-6-4-3-5-7-9/h3-7H,12H2,1-2H3
Instrument: LTQ Orbitrap XL Thermo Scientific
Instrument type: LC-ESI-ITFT
Ms type: MS2
Ion mode: POSITIVE
Ionization: ESI
Fragmentation mode: CID
Collision energy: 35 (nominal)
Resolution: 15000
Column name: Kinetex Core-Shell C18 2.6 um, 3.0 x 100 mm, Phenomenex
Retention time: 7.553 min
Base peak: 163.1328
Precursor m/z: 204.1131
Precursor type: [M+H]+
m/z	relative intensity	assigned
56.0493	53	C3H6N+
83.0604	35	C4H7N2+
85.076	33	C4H9N2+
94.0651	44	C6H8N+
111.0553	71	C5H7N2O+
118.0651	10	C8H8N+
131.0603	5	C8H7N2+
145.076	36	C9H9N2+
146.0601	46	C9H8NO+
158.0606	20	C10H8NO+
159.0917	755	C10H11N2+
173.0711	318	C10H9N2O+
176.1183	29	C10H14N3+
187.0866	999	C11H11N2O+
189.0898	99	C10H11N3O+
