Mass spectrum: Myristamidopropyl betaine; LC-ESI-ITFT; MS2; CE: 55%; R=15000; [M]+
Name: Myristamidopropyl betaine
Name: carboxymethyl-dimethyl-[3-(tetradecanoylamino)propyl]azanium
Formula: [C21H43N2O3]+
Exact mass: 371.3274
SMILES: CCCCCCCCCCCCCC(=O)NCCC[N+](C)(C)CC(O)=O
InChI: InChI=1S/C21H42N2O3/c1-4-5-6-7-8-9-10-11-12-13-14-16-20(24)22-17-15-18-23(2,3)19-21(25)26/h4-19H2,1-3H3,(H-,22,24,25,26)/p+1
Instrument: LTQ Orbitrap XL Thermo Scientific
Instrument type: LC-ESI-ITFT
Ms type: MS2
Ion mode: POSITIVE
Ionization: ESI
Fragmentation mode: HCD
Collision energy: 55 % (nominal)
Resolution: 15000
Column name: Kinetex Evo C18 2.6 um 50 x 2.1 mm
Retention time: 13.450 min
Base peak: 371.3265
Precursor m/z: 371.3268
Precursor type: [M]+
m/z	relative intensity	assigned
57.0697	108	C4H9+
67.0542	92	C5H7+
69.0698	42	C5H9+
71.0855	150	C5H11+
81.0699	98	C6H9+
85.1012	60	C6H13+
95.0855	170	C7H11+
109.1012	57	C8H13+
268.2633	999	C17H34NO+
