Mass spectrum: Metazachlor BH 479-9; LC-ESI-ITFT; MS2; CE: 30%; R=15000; [M+H]+
Name: Metazachlor BH 479-9
Name: 2-[2-[2,6-dimethyl-N-(pyrazol-1-ylmethyl)anilino]-2-oxoethyl]sulfinylacetic acid
Formula: C16H19N3O4S
Exact mass: 349.109627088
SMILES: CC1=CC=CC(C)=C1N(CN1C=CC=N1)C(=O)CS(=O)CC(O)=O
InChI: InChI=1S/C16H19N3O4S/c1-12-5-3-6-13(2)16(12)19(11-18-8-4-7-17-18)14(20)9-24(23)10-15(21)22/h3-8H,9-11H2,1-2H3,(H,21,22)
Instrument: LTQ Orbitrap XL Thermo Scientific
Instrument type: LC-ESI-ITFT
Ms type: MS2
Ion mode: POSITIVE
Ionization: ESI
Fragmentation mode: HCD
Collision energy: 30 % (nominal)
Resolution: 15000
Column name: Kinetex Evo C18 2.6 um 50 x 2.1 mm
Retention time: 8.250 min
Base peak: 116.9863
Precursor m/z: 350.1169
Precursor type: [M+H]+
Precursor intensity: 920042.62
m/z	relative intensity	assigned
69.0446	2	C3H5N2+
134.0965	999	C3H18O3S+
148.9904	37	C4H5O4S+
236.0751	1	C12H14NO2S+
264.0694	2	C13H14NO3S+
282.0796	10	C13H16NO4S+
