Mass spectrum: Candesartan; LC-ESI-ITFT; MS2; CE: 30%; R=15000; [M+H]+
Name: Candesartan
Name: 2-ethoxy-3-[[4-[2-(2H-tetrazol-5-yl)phenyl]phenyl]methyl]benzimidazole-4-carboxylic acid
Formula: C24H20N6O3
Exact mass: 440.1596885
SMILES: CCOC1=NC2=CC=CC(C(O)=O)=C2N1CC1=CC=C(C=C1)C1=CC=CC=C1C1=NN=NN1
InChI: InChI=1S/C24H20N6O3/c1-2-33-24-25-20-9-5-8-19(23(31)32)21(20)30(24)14-15-10-12-16(13-11-15)17-6-3-4-7-18(17)22-26-28-29-27-22/h3-13H,2,14H2,1H3,(H,31,32)(H,26,27,28,29)
Instrument: LTQ Orbitrap XL Thermo Scientific
Instrument type: LC-ESI-ITFT
Ms type: MS2
Ion mode: POSITIVE
Ionization: ESI
Fragmentation mode: HCD
Collision energy: 30 % (nominal)
Resolution: 15000
Column name: Kinetex Evo C18 2.6 um 50 x 2.1 mm
Retention time: 11.276 min
Base peak: 441.1683
Precursor m/z: 441.167
Precursor type: [M+H]+
Precursor intensity: 8480090
m/z	relative intensity	assigned
192.0816	123	C14H10N+
207.0925	388	C14H11N2+
208.113	49	C15H14N+
210.0921	145	C14H12NO+
219.0764	22	C11H11N2O3+
235.0988	218	C14H11N4+
235.1239	449	C16H15N2+
263.1301	999	C18H17NO+
395.1516	75	C24H19N4O2+
423.1582	45	C24H19N6O2+
