Mass spectrum: Methotrexate; LC-ESI-ITFT; MS2; CE: 90%; R=15000; [M+H]+
Name: Methotrexate
Name: (2S)-2-[[4-[(2,4-diaminopteridin-6-yl)methyl-methylamino]benzoyl]amino]pentanedioic acid
Formula: C20H22N8O5
Exact mass: 454.171315804
SMILES: CN(CC1=NC2=C(N=C1)N=C(N)N=C2N)C1=CC=C(C=C1)C(=O)N[C@@H](CCC(O)=O)C(O)=O
InChI: InChI=1S/C20H22N8O5/c1-28(9-11-8-23-17-15(24-11)16(21)26-20(22)27-17)12-4-2-10(3-5-12)18(31)25-13(19(32)33)6-7-14(29)30/h2-5,8,13H,6-7,9H2,1H3,(H,25,31)(H,29,30)(H,32,33)(H4,21,22,23,26,27)/t13-/m0/s1
Instrument: LTQ Orbitrap XL Thermo Scientific
Instrument type: LC-ESI-ITFT
Ms type: MS2
Ion mode: POSITIVE
Ionization: ESI
Fragmentation mode: HCD
Collision energy: 90 % (nominal)
Resolution: 15000
Column name: Kinetex Evo C18 2.6 um 50 x 2.1 mm
Retention time: 5.132 min
Base peak: 455.1799
Precursor m/z: 455.1786
Precursor type: [M+H]+
Precursor intensity: 4464565
m/z	relative intensity	assigned
79.0293	12	C4H3N2+
79.0544	51	C6H7+
80.0244	16	C3H2N3+
81.0448	3	C4H5N2+
106.0403	141	C5H4N3+
106.0654	146	C7H8N+
107.0481	24	C5H5N3+
108.0559	28	C5H6N3+
110.0589	5	C4H6N4+
118.0402	9	C6H4N3+
121.0511	127	C5H5N4+
133.0513	621	C6H5N4+
134.0602	511	C8H8NO+
135.0542	32	C5H5N5+
135.0668	33	C6H7N4+
136.0508	6	C6H6N3O+
146.0465	16	C6H4N5+
148.0622	209	C6H6N5+
149.0699	26	C6H7N5+
150.0778	31	C6H8N5+
151.0615	4	C6H7N4O+
158.0465	20	C7H4N5+
159.0544	82	C7H5N5+
160.0622	96	C7H6N5+
163.0731	15	C6H7N6+
175.0731	999	C7H7N6+
176.0809	296	C7H8N6+
177.0888	27	C7H9N6+
