Mass spectrum: Sulfamethoxazole; LC-ESI-ITFT; MS2; CE: 90%; R=15000; [M+H]+
Name: Sulfamethoxazole
Name: 4-amino-N-(5-methyl-1,2-oxazol-3-yl)benzenesulfonamide
Formula: C10H11N3O3S
Exact mass: 253.052112212
SMILES: CC1=CC(NS(=O)(=O)C2=CC=C(N)C=C2)=NO1
InChI: InChI=1S/C10H11N3O3S/c1-7-6-10(12-16-7)13-17(14,15)9-4-2-8(11)3-5-9/h2-6H,11H2,1H3,(H,12,13)
Instrument: LTQ Orbitrap XL Thermo Scientific
Instrument type: LC-ESI-ITFT
Ms type: MS2
Ion mode: POSITIVE
Ionization: ESI
Fragmentation mode: HCD
Collision energy: 90 % (nominal)
Resolution: 15000
Column name: Kinetex Evo C18 2.6 um 50 x 2.1 mm
Retention time: 5.636 min
Base peak: 189.1029
Precursor m/z: 254.0594
Precursor type: [M+H]+
Precursor intensity: 7394437
m/z	relative intensity	assigned
56.0493	2	C3H6N+
65.0385	407	C5H5+
68.0496	1	C4H6N+
71.0604	3	C3H7N2+
72.0444	10	C3H6NO+
80.0495	114	C5H6N+
92.0496	999	C6H6N+
93.0573	181	C6H7N+
94.0652	6	C6H8N+
99.0554	92	C4H7N2O+
106.0527	2	C6H6N2+
107.0606	22	C6H7N2+
108.0445	606	C6H6NO+
110.0601	90	C6H8NO+
119.0603	5	C7H7N2+
120.0558	12	C6H6N3+
121.0761	3	C7H9N2+
131.0606	4	C8H7N2+
132.0685	3	C8H8N2+
143.0605	4	C9H7N2+
145.0635	3	C8H7N3+
146.0714	28	C8H8N3+
147.0793	16	C8H9N3+
156.0116	6	C6H6NO2S+
159.0794	1	C9H9N3+
160.087	10	C9H10N3+
161.0019	1	C4H5N2O3S+
