Mass spectrum: Norgestrel; LC-ESI-ITFT; MS2; CE: 50%; R=15000; [M+H]+
Name: Norgestrel
Name: (8R,9S,10R,13S,14S)-13-ethyl-17-ethynyl-17-hydroxy-1,2,6,7,8,9,10,11,12,14,15,16-dodecahydrocyclopenta[a]phenanthren-3-one
Formula: C21H28O2
Exact mass: 312.208930136
SMILES: [H][C@@]12CCC(O)(C#C)[C@@]1(CC)CC[C@]1([H])[C@@]3([H])CCC(=O)C=C3CC[C@@]21[H]
InChI: InChI=1S/C21H28O2/c1-3-20-11-9-17-16-8-6-15(22)13-14(16)5-7-18(17)19(20)10-12-21(20,23)4-2/h2,13,16-19,23H,3,5-12H2,1H3/t16-,17+,18+,19-,20-,21?/m0/s1
Instrument: LTQ Orbitrap XL Thermo Scientific
Instrument type: LC-ESI-ITFT
Ms type: MS2
Ion mode: POSITIVE
Ionization: ESI
Fragmentation mode: HCD
Collision energy: 50 % (nominal)
Resolution: 15000
Column name: Kinetex Evo C18 2.6 um 50 x 2.1 mm
Retention time: 11.688 min
Base peak: 313.2164
Precursor m/z: 313.2162
Precursor type: [M+H]+
Precursor intensity: 20372462
m/z	relative intensity	assigned
67.0539	101	C5H7+
69.0697	28	C5H9+
79.054	141	C6H7+
81.0333	20	C5H5O+
81.0697	201	C6H9+
83.0489	379	C5H7O+
91.054	239	C7H7+
93.0697	243	C7H9+
95.0492	22	C6H7O+
95.0854	222	C7H11+
97.0646	59	C6H9O+
105.0697	262	C8H9+
107.0489	196	C7H7O+
107.0853	201	C8H11+
109.0646	999	C7H9O+
109.1009	134	C8H13+
111.0801	15	C7H11O+
116.0619	14	C9H8+
117.0697	190	C9H9+
119.0853	300	C9H11+
121.0645	55	C8H9O+
121.101	119	C9H13+
123.0801	182	C8H11O+
123.1166	121	C9H15+
125.0959	35	C8H13O+
128.0619	8	C10H8+
129.0696	133	C10H9+
130.0773	14	C10H10+
131.0853	354	C10H11+
133.0645	53	C9H9O+
133.101	363	C10H13+
135.0802	317	C9H11O+
135.1166	144	C10H15+
137.0959	41	C9H13O+
137.1324	28	C10H17+
141.0696	35	C11H9+
142.0776	15	C11H10+
143.0853	211	C11H11+
144.0927	18	C11H12+
145.1009	364	C11H13+
147.0801	77	C10H11O+
147.1166	121	C11H15+
149.0958	216	C10H13O+
149.1322	41	C11H17+
151.1114	20	C10H15O+
155.0853	79	C12H11+
156.093	17	C12H12+
157.1009	272	C12H13+
159.0802	63	C11H11O+
159.1165	273	C12H15+
161.0958	164	C11H13O+
161.132	49	C12H17+
163.1114	122	C11H15O+
167.0853	40	C13H11+
168.0933	11	C13H12+
169.101	95	C13H13+
170.1088	18	C13H14+
171.1165	193	C13H15+
173.0956	26	C12H13O+
173.1322	108	C13H17+
175.1115	104	C12H15O+
175.1479	97	C13H19+
177.1269	16	C12H17O+
179.0849	19	C14H11+
181.101	53	C14H13+
183.1165	121	C14H15+
185.0962	36	C13H13O+
185.1322	257	C14H17+
187.1112	35	C13H15O+
187.1478	133	C14H19+
188.1194	15	C13H16O+
189.1271	63	C13H17O+
193.101	34	C15H13+
195.1167	61	C15H15+
197.0964	11	C14H13O+
197.1322	83	C15H17+
199.1115	15	C14H15O+
199.1477	111	C15H19+
201.1273	41	C14H17O+
201.164	22	C15H21+
203.1425	26	C14H19O+
205.1008	11	C16H13+
207.1166	39	C16H15+
208.1247	14	C16H16+
209.1321	46	C16H17+
211.1109	14	C15H15O+
211.148	27	C16H19+
213.127	21	C15H17O+
213.1637	20	C16H21+
215.1799	13	C16H23+
220.1246	10	C17H16+
221.1323	40	C17H17+
223.1478	35	C17H19+
225.1271	28	C16H17O+
225.1634	68	C17H21+
227.1434	13	C16H19O+
227.1791	185	C17H23+
235.1479	34	C18H19+
237.1634	66	C18H21+
239.1424	17	C17H19O+
241.1585	12	C17H21O+
243.1746	17	C17H23O+
245.1896	462	C17H25O+
247.1472	10	C19H19+
248.1555	20	C19H20+
249.1641	22	C19H21+
251.1787	13	C19H23+
253.1951	12	C19H25+
266.1658	14	C19H22O+
267.1741	21	C19H23O+
277.1945	35	C21H25+
295.2056	62	C21H27O+
313.2156	77	C21H29O2+
