Mass spectrum: Pioglitazone; LC-ESI-ITFT; MS2; CE: 50%; R=15000; [M+H]+
Name: Pioglitazone
Name: 5-[[4-[2-(5-ethylpyridin-2-yl)ethoxy]phenyl]methyl]-1,3-thiazolidine-2,4-dione
Formula: C19H20N2O3S
Exact mass: 356.1194635
SMILES: CCC1=CN=C(CCOC2=CC=C(CC3SC(=O)NC3=O)C=C2)C=C1
InChI: InChI=1S/C19H20N2O3S/c1-2-13-3-6-15(20-12-13)9-10-24-16-7-4-14(5-8-16)11-17-18(22)21-19(23)25-17/h3-8,12,17H,2,9-11H2,1H3,(H,21,22,23)
Instrument: LTQ Orbitrap XL Thermo Scientific
Instrument type: LC-ESI-ITFT
Ms type: MS2
Ion mode: POSITIVE
Ionization: ESI
Fragmentation mode: HCD
Collision energy: 50 % (nominal)
Resolution: 15000
Column name: Kinetex Evo C18 2.6 um 50 x 2.1 mm
Retention time: 7.985 min
Base peak: 357.1278
Precursor m/z: 357.1267
Precursor type: [M+H]+
Precursor intensity: 30617210
m/z	relative intensity	assigned
106.0651	3	C7H8N+
107.073	2	C7H9N+
119.073	31	C8H9N+
120.0809	14	C8H10N+
121.0887	12	C8H11N+
124.0757	1	C7H10NO+
134.0966	999	C9H12N+
135.104	237	C9H13N+
240.1386	6	C16H18NO+
241.1467	5	C16H19NO+
286.1262	5	C17H20NOS+
357.1269	44	C19H21N2O3S+
