Mass spectrum: Metolachlor ESA; LC-ESI-ITFT; MS2; CE: 55; R=15000; [M-H]-
Name: Metolachlor ESA
Name: 2-[2-Ethyl-N-(1-methoxypropan-2-yl)-6-methylanilino]-2-oxoethanesulfonic acid
Formula: C15H23NO5S
Exact mass: 329.1297
SMILES: CCC1=CC=CC(C)=C1N(C(C)COC)C(=O)CS(O)(=O)=O
InChI: InChI=1S/C15H23NO5S/c1-5-13-8-6-7-11(2)15(13)16(12(3)9-21-4)14(17)10-22(18,19)20/h6-8,12H,5,9-10H2,1-4H3,(H,18,19,20)
Instrument: LTQ Orbitrap XL Thermo Scientific
Instrument type: LC-ESI-ITFT
Ms type: MS2
Ion mode: NEGATIVE
Ionization: ESI
Fragmentation mode: CID
Collision energy: 55 (nominal)
Resolution: 15000
Column name: Kinetex Core-Shell C18 2.6 um, 3.0 x 100 mm, Phenomenex
Retention time: 22.858 min
Base peak: 328.1226
Precursor m/z: 328.1224
Precursor type: [M-H]-
m/z	relative intensity	assigned
118.9682	97	C2HNO3S-
119.9761	208	C2H2NO3S-
120.9601	999	C2HO4S-
135.0816	101	C9H11O-
174.1289	50	C12H16N-
177.0099	34	C5H7NO4S-
192.0336	468	C6H10NO4S-
199.1364	37	C14H17N-
232.1343	27	C14H18NO2-
238.0538	16	C11H12NO3S-
248.1655	21	C15H22NO2-
256.0649	142	C11H14NO4S-
264.1602	29	C15H22NO3-
296.096	247	C14H18NO4S-
