Mass spectrum: Acetamiprid; LC-ESI-ITFT; MS2; CE: 80%; R=15000; [M+H]+
Name: Acetamiprid
Name: N-[(6-chloropyridin-3-yl)methyl]-N`-cyano-N-methylethanimidamide
Formula: C10H11ClN4
Exact mass: 222.067224032
SMILES: CN(CC1=CC=C(Cl)N=C1)C(C)=NC#N
InChI: InChI=1S/C10H11ClN4/c1-8(14-7-12)15(2)6-9-3-4-10(11)13-5-9/h3-5H,6H2,1-2H3
Instrument: LTQ Orbitrap XL Thermo Scientific
Instrument type: LC-ESI-ITFT
Ms type: MS2
Ion mode: POSITIVE
Ionization: ESI
Fragmentation mode: HCD
Collision energy: 80 % (nominal)
Resolution: 15000
Column name: Kinetex Evo C18 2.6 um 50 x 2.1 mm
Retention time: 6.859 min
Base peak: 223.0752
Precursor m/z: 223.0745
Precursor type: [M+H]+
Precursor intensity: 16738768
m/z	relative intensity	assigned
56.0492	117	C3H6N+
63.0228	10	C5H3+
65.0384	3	C5H5+
72.9839	7	C3H2Cl+
80.0495	1	C5H6N+
90.0339	171	C6H4N+
91.0416	27	C6H5N+
98.9996	122	C5H4Cl+
108.0444	5	C3H9ClN2+
119.0602	1	C7H7N2+
126.0105	999	C6H5ClN+
