Mass spectrum: Ketoprofen; LC-ESI-ITFT; MS2; CE: 40%; R=15000; [M+H]+
Name: Ketoprofen
Name: 2-(3-benzoylphenyl)propanoic acid
Formula: C16H14O3
Exact mass: 254.094294308
SMILES: CC(C(O)=O)C1=CC=CC(=C1)C(=O)C1=CC=CC=C1
InChI: InChI=1S/C16H14O3/c1-11(16(18)19)13-8-5-9-14(10-13)15(17)12-6-3-2-4-7-12/h2-11H,1H3,(H,18,19)
Instrument: LTQ Orbitrap XL Thermo Scientific
Instrument type: LC-ESI-ITFT
Ms type: MS2
Ion mode: POSITIVE
Ionization: ESI
Fragmentation mode: HCD
Collision energy: 40 % (nominal)
Resolution: 15000
Column name: Kinetex Evo C18 2.6 um 50 x 2.1 mm
Retention time: 10.763 min
Base peak: 416.9909
Precursor m/z: 255.1016
Precursor type: [M+H]+
Precursor intensity: 10229253
m/z	relative intensity	assigned
77.0385	11	C6H5+
103.0541	2	C8H7+
105.0335	726	C7H5O+
131.0491	17	C9H7O+
177.0546	183	C10H9O3+
181.1011	3	C14H13+
194.0726	33	C14H10O+
209.096	999	C15H13O+
255.1016	39	C16H15O3+
