Mass spectrum: Propyzamide; LC-ESI-ITFT; MS2; CE: 10%; R=15000; [M+H]+
Name: Propyzamide
Name: 3,5-dichloro-N-(2-methylbut-3-yn-2-yl)benzamide
Formula: C12H11Cl2NO
Exact mass: 255.021769332
SMILES: CC(C)(NC(=O)C1=CC(Cl)=CC(Cl)=C1)C#C
InChI: InChI=1S/C12H11Cl2NO/c1-4-12(2,3)15-11(16)8-5-9(13)7-10(14)6-8/h1,5-7H,2-3H3,(H,15,16)
Instrument: LTQ Orbitrap XL Thermo Scientific
Instrument type: LC-ESI-ITFT
Ms type: MS2
Ion mode: POSITIVE
Ionization: ESI
Fragmentation mode: HCD
Collision energy: 10 % (nominal)
Resolution: 15000
Column name: Kinetex Evo C18 2.6 um 50 x 2.1 mm
Retention time: 11.147 min
Base peak: 334.1053
Precursor m/z: 256.029
Precursor type: [M+H]+
Precursor intensity: 5106406
m/z	relative intensity	assigned
172.9558	5	C7H3Cl2O+
189.9822	82	C7H6Cl2NO+
256.029	999	C12H12Cl2NO+
