Mass spectrum: L-Tyrosine; LC-ESI-QFT; MS2; CE: 50%; R=35000; [M+H]+
Name: L-Tyrosine
Name: (2S)-2-Azaniumyl-3-(4-hydroxyphenyl)propanoate
Formula: C9H11NO3
Exact mass: 181.0739
SMILES: c1cc(ccc1C[C@@H](C(=O)O)N)O
InChI: InChI=1S/C9H11NO3/c10-8(9(12)13)5-6-1-3-7(11)4-2-6/h1-4,8,11H,5,10H2,(H,12,13)/t8-/m0/s1
Instrument: Q Exactive Plus Orbitrap Thermo Scientific
Instrument type: LC-ESI-QFT
Ms type: MS2
Ion mode: POSITIVE
Ionization: ESI
Fragmentation mode: HCD
Collision energy: 50 % (nominal)
Resolution: 35000
Column name: Accucore PhenylHexyl 2.6um, 3x150mm, Thermo
Retention time: 4.483 min
Base peak: 182.0813
Precursor m/z: 182.0812
Precursor type: [M+H]+
m/z	relative intensity	assigned
91.0542	495	C7H7+
95.0491	197	C6H7O+
103.0542	15	C8H7+
107.0491	20	C7H7O+
109.0648	17	C7H9O+
118.0651	19	C8H8N+
119.0492	432	C8H7O+
123.0441	492	C7H7O2+
136.0757	999	C8H10NO+
147.0441	166	C9H7O2+
165.0546	381	C9H9O3+
182.0812	49	C9H12NO3+
