Mass spectrum: Norethisterone / norethindrone; LC-ESI-ITFT; MS2; CE: 55; R=15000; [M+H]+
Name: Norethisterone / norethindrone
Name: Norethindrone
Name: (8R,9S,10R,13S,14S,17R)-17-Ethynyl-17-hydroxy-13-methyl-1,2,6,7,8,9,10,11,12,14,15,16-dodecahydrocyclopenta[a]phenanthren-3-one
Formula: C20H26O2
Exact mass: 298.1933
SMILES: C[C@]12CC[C@H]3[C@@H](CCC4=CC(=O)CC[C@H]34)[C@@H]1CC[C@@]2(O)C#C
InChI: InChI=1S/C20H26O2/c1-3-20(22)11-9-18-17-6-4-13-12-14(21)5-7-15(13)16(17)8-10-19(18,20)2/h1,12,15-18,22H,4-11H2,2H3/t15-,16+,17+,18-,19-,20-/m0/s1
Instrument: LTQ Orbitrap XL Thermo Scientific
Instrument type: LC-ESI-ITFT
Ms type: MS2
Ion mode: POSITIVE
Ionization: ESI
Fragmentation mode: HCD
Collision energy: 55 (nominal)
Resolution: 15000
Column name: Kinetex Core-Shell C18 2.6 um, 3.0 x 100 mm, Phenomenex
Retention time: 24.366 min
Base peak: 287.1996
Precursor m/z: 299.2006
Precursor type: [M+H]+
m/z	relative intensity	assigned
79.0541	119	C6H7+
81.0697	146	C6H9+
83.049	295	C5H7O+
91.0541	208	C7H7+
93.0697	166	C7H9+
95.0492	14	C6H7O+
95.0854	91	C7H11+
97.0647	30	C6H9O+
105.0697	280	C8H9+
107.0489	106	C7H7O+
107.0852	111	C8H11+
109.0645	999	C7H9O+
109.1008	79	C8H13+
111.0802	22	C7H11O+
115.0541	36	C9H7+
117.0697	180	C9H9+
119.0853	335	C9H11+
121.0646	36	C8H9O+
121.101	109	C9H13+
123.0802	67	C8H11O+
123.1167	24	C9H15+
128.0621	19	C10H8+
129.0697	112	C10H9+
130.0778	17	C10H10+
131.0853	244	C10H11+
133.0644	30	C9H9O+
133.101	92	C10H13+
135.0802	183	C9H11O+
135.1166	41	C10H15+
137.0957	19	C9H13O+
141.0695	35	C11H9+
143.0853	203	C11H11+
144.0933	12	C11H12+
145.101	267	C11H13+
147.0802	43	C10H11O+
147.1164	55	C11H15+
149.0959	78	C10H13O+
155.0853	58	C12H11+
156.0932	35	C12H12+
157.1008	164	C12H13+
159.0803	35	C11H11O+
159.1167	96	C12H15+
161.0958	93	C11H13O+
161.1321	60	C12H17+
163.1115	76	C11H15O+
167.0854	35	C13H11+
169.1011	105	C13H13+
171.1165	204	C13H15+
173.0955	14	C12H13O+
173.1321	74	C13H17+
175.1118	59	C12H15O+
181.1011	45	C14H13+
182.1086	13	C14H14+
183.1165	65	C14H15+
185.132	80	C14H17+
187.1112	18	C13H15O+
187.1475	16	C14H19+
193.1004	24	C15H13+
195.1168	40	C15H15+
197.1323	43	C15H17+
199.148	22	C15H19+
201.1268	24	C14H17O+
207.116	29	C16H15+
209.1323	25	C16H17+
211.1479	43	C16H19+
213.1634	105	C16H21+
221.1319	36	C17H17+
223.1471	48	C17H19+
225.1278	14	C16H17O+
229.1582	18	C16H21O+
231.174	183	C16H23O+
235.1488	16	C18H19+
239.1426	12	C17H19O+
239.1791	12	C18H23+
253.1589	22	C18H21O+
263.1789	21	C20H23+
281.1902	48	C20H25O+
299.2007	75	C20H27O2+
