Mass spectrum: Linuron; LC-ESI-ITFT; MS2; CE: 80; R=15000; [M+H]+
Name: Linuron
Name: 3-(3,4-Dichlorophenyl)-1-methoxy-1-methylurea
Formula: C9H10Cl2N2O2
Exact mass: 248.0119
SMILES: CON(C)C(=O)NC1=CC=C(Cl)C(Cl)=C1
InChI: InChI=1S/C9H10Cl2N2O2/c1-13(15-2)9(14)12-6-3-4-7(10)8(11)5-6/h3-5H,1-2H3,(H,12,14)
Instrument: LTQ Orbitrap XL Thermo Scientific
Instrument type: LC-ESI-ITFT
Ms type: MS2
Ion mode: POSITIVE
Ionization: ESI
Fragmentation mode: HCD
Collision energy: 80 (nominal)
Resolution: 15000
Column name: Kinetex Core-Shell C18 2.6 um, 3.0 x 100 mm, Phenomenex
Retention time: 24.574 min
Base peak: 226.0894
Precursor m/z: 249.0192
Precursor type: [M+H]+
m/z	relative intensity	assigned
123.9949	95	C6H3ClN+
125.0027	482	C6H4ClN+
132.9606	999	C5H3Cl2+
153.0214	338	C7H6ClN2+
159.9716	475	C6H4Cl2N+
160.9794	685	C6H5Cl2N+
165.0215	20	C8H6ClN2+
181.0164	134	C8H6ClN2O+
182.0242	134	C8H7ClN2O+
216.993	37	C8H7Cl2N2O+
