Mass spectrum: Gabapentin-lactam; LC-ESI-ITFT; MS2; CE: 50%; R=15000; [M+H]+
Name: Gabapentin-lactam
Name: 2-azaspiro[4.5]decan-3-one
Formula: C9H15NO
Exact mass: 153.1154
SMILES: O=C1CC2(CN1)CCCCC2
InChI: InChI=1S/C9H15NO/c11-8-6-9(7-10-8)4-2-1-3-5-9/h1-7H2,(H,10,11)
Instrument: LTQ Orbitrap XL Thermo Scientific
Instrument type: LC-ESI-ITFT
Ms type: MS2
Ion mode: POSITIVE
Ionization: ESI
Fragmentation mode: HCD
Collision energy: 50 % (nominal)
Resolution: 15000
Column name: Kinetex Evo C18 2.6 um 50 x 2.1 mm
Retention time: 8.268 min
Base peak: 154.1225
Precursor m/z: 154.1226
Precursor type: [M+H]+
m/z	relative intensity	assigned
67.0541	2	C5H7+
93.0699	2	C7H9+
95.0855	32	C7H11+
109.1012	1	C8H13+
112.1119	2	C7H14N+
119.0857	2	C9H11+
154.1225	999	C9H16NO+
