Mass spectrum: 4,4`-Thiodianiline; LC-ESI-ITFT; MS2; CE: 40%; R=15000; [M+H]+
Name: 4,4`-Thiodianiline
Name: 4-(4-aminophenyl)sulfanylaniline
Formula: C12H12N2S
Exact mass: 216.072119384
SMILES: NC1=CC=C(SC2=CC=C(N)C=C2)C=C1
InChI: InChI=1S/C12H12N2S/c13-9-1-5-11(6-2-9)15-12-7-3-10(14)4-8-12/h1-8H,13-14H2
Instrument: LTQ Orbitrap XL Thermo Scientific
Instrument type: LC-ESI-ITFT
Ms type: MS2
Ion mode: POSITIVE
Ionization: ESI
Fragmentation mode: HCD
Collision energy: 40 % (nominal)
Resolution: 15000
Column name: Kinetex Evo C18 2.6 um 50 x 2.1 mm
Retention time: 2.293 min
Base peak: 217.0797
Precursor m/z: 217.0794
Precursor type: [M+H]+
Precursor intensity: 11624007
m/z	relative intensity	assigned
93.0571	4	C6H7N+
124.0213	376	C6H6NS+
167.0728	5	C12H9N+
183.0259	3	C12H7S+
184.0337	3	C12H8S+
199.0449	9	C12H9NS+
200.0526	149	C12H10NS+
211.0326	3	C12H7N2S+
216.0716	23	C12H12N2S+
217.0791	999	C12H13N2S+
