Mass spectrum: 2(4-morpholinyl)benzothiazole; LC-ESI-ITFT; MS2; CE: 60%; R=15000; [M+H]+
Name: 2(4-morpholinyl)benzothiazole
Name: 2-(4-Morpholinyl)benzothiazole
Name: 4-(1,3-benzothiazol-2-yl)morpholine
Formula: C11H12N2OS
Exact mass: 220.067034004
SMILES: C1CN(CCO1)C1=NC2=CC=CC=C2S1
InChI: InChI=1S/C11H12N2OS/c1-2-4-10-9(3-1)12-11(15-10)13-5-7-14-8-6-13/h1-4H,5-8H2
Instrument: LTQ Orbitrap XL Thermo Scientific
Instrument type: LC-ESI-ITFT
Ms type: MS2
Ion mode: POSITIVE
Ionization: ESI
Fragmentation mode: HCD
Collision energy: 60 % (nominal)
Resolution: 15000
Column name: Kinetex Evo C18 2.6 um 50 x 2.1 mm
Retention time: 9.220 min
Base peak: 221.0749
Precursor m/z: 221.0743
Precursor type: [M+H]+
Precursor intensity: 34178508
m/z	relative intensity	assigned
109.0106	13	C6H5S+
117.0573	10	C8H7N+
124.0216	7	C6H6NS+
136.0216	100	C7H6NS+
144.068	3	C9H8N2+
150.0372	151	C8H8NS+
160.0219	2	C9H6NS+
163.0325	1	C8H7N2S+
175.0325	11	C9H7N2S+
176.0406	5	C9H8N2S+
177.0481	577	C9H9N2S+
189.0478	2	C10H9N2S+
190.0558	4	C10H10N2S+
193.0423	2	C9H9N2OS+
203.0637	12	C11H11N2S+
219.059	8	C11H11N2OS+
221.0743	999	C11H13N2OS+
