Mass spectrum: Sulfathiazole; LC-ESI-ITFT; MS2; CE: 60%; R=15000; [M+H]+
Name: Sulfathiazole
Name: 4-amino-N-(1,3-thiazol-2-yl)benzenesulfonamide
Formula: C9H9N3O2S2
Exact mass: 255.013618528
SMILES: NC1=CC=C(C=C1)S(=O)(=O)NC1=NC=CS1
InChI: InChI=1S/C9H9N3O2S2/c10-7-1-3-8(4-2-7)16(13,14)12-9-11-5-6-15-9/h1-6H,10H2,(H,11,12)
Instrument: LTQ Orbitrap XL Thermo Scientific
Instrument type: LC-ESI-ITFT
Ms type: MS2
Ion mode: POSITIVE
Ionization: ESI
Fragmentation mode: HCD
Collision energy: 60 % (nominal)
Resolution: 15000
Column name: Kinetex Evo C18 2.6 um 50 x 2.1 mm
Retention time: 1.721 min
Base peak: 157.0357
Precursor m/z: 256.0209
Precursor type: [M+H]+
Precursor intensity: 3837261.5
m/z	relative intensity	assigned
65.0385	70	C5H5+
80.0495	2	C5H6N+
92.0497	999	C6H6N+
94.0655	2	C6H8N+
100.0091	7	C3H4N2S+
101.017	112	C3H5N2S+
108.0446	828	C6H6NO+
110.0602	53	C6H8NO+
120.0558	20	C6H6N3+
156.0117	324	C6H6NO2S+
190.0439	6	C9H8N3S+
