Mass spectrum: Amitriptyline; LC-ESI-ITFT; MS2; CE: 70%; R=15000; [M+H]+
Name: Amitriptyline
Name: N,N-dimethyl-3-(2-tricyclo[9.4.0.03,8]pentadeca-1(15),3,5,7,11,13-hexaenylidene)propan-1-amine
Formula: C20H23N
Exact mass: 277.183049736
SMILES: CN(C)CCC=C1C2=CC=CC=C2CCC2=CC=CC=C12
InChI: InChI=1S/C20H23N/c1-21(2)15-7-12-20-18-10-5-3-8-16(18)13-14-17-9-4-6-11-19(17)20/h3-6,8-12H,7,13-15H2,1-2H3
Instrument: LTQ Orbitrap XL Thermo Scientific
Instrument type: LC-ESI-ITFT
Ms type: MS2
Ion mode: POSITIVE
Ionization: ESI
Fragmentation mode: HCD
Collision energy: 70 % (nominal)
Resolution: 15000
Column name: Kinetex Evo C18 2.6 um 50 x 2.1 mm
Retention time: 8.815 min
Base peak: 278.1915
Precursor m/z: 278.1903
Precursor type: [M+H]+
Precursor intensity: 17605484
m/z	relative intensity	assigned
55.054	7	C4H7+
58.065	58	C3H8N+
70.065	40	C4H8N+
72.0809	5	C4H10N+
77.0386	6	C6H5+
79.0542	18	C6H7+
84.0808	326	C5H10N+
85.0887	58	C5H11N+
91.0543	999	C7H7+
103.0543	42	C8H7+
105.07	905	C8H9+
115.0543	106	C9H7+
117.07	783	C9H9+
128.062	13	C10H8+
129.07	258	C10H9+
131.0855	6	C10H11+
141.0701	72	C11H9+
142.0777	16	C11H10+
153.07	32	C12H9+
154.0782	15	C12H10+
155.0857	275	C12H11+
165.0701	16	C13H9+
167.0854	6	C13H11+
178.0779	207	C14H10+
179.0858	236	C14H11+
189.0693	6	C15H9+
190.078	44	C15H10+
191.0858	603	C15H11+
192.0936	102	C15H12+
193.1014	105	C15H13+
202.0782	11	C16H10+
203.0858	269	C16H11+
204.0936	206	C16H12+
205.1014	323	C16H13+
207.1169	13	C16H15+
215.0854	4	C17H11+
216.0935	19	C17H12+
217.1014	93	C17H13+
218.1092	410	C17H14+
231.1171	21	C18H15+
233.1327	85	C18H17+
