Mass spectrum: Lauramidopropyl betaine; LC-ESI-ITFT; MS2; CE: 115%; R=15000; [M]+
Name: Lauramidopropyl betaine
Name: 3-(Dodecanoylamino)propyl(carboxymethyl)dimethylammonium
Name: carboxymethyl-[3-(dodecanoylamino)propyl]-dimethylazanium
Formula: [C19H39N2O3]+
Exact mass: 343.2961
SMILES: CCCCCCCCCCCC(=O)NCCC[N+](C)(C)CC(O)=O
InChI: InChI=1S/C19H38N2O3/c1-4-5-6-7-8-9-10-11-12-14-18(22)20-15-13-16-21(2,3)17-19(23)24/h4-17H2,1-3H3,(H-,20,22,23,24)/p+1
Instrument: LTQ Orbitrap XL Thermo Scientific
Instrument type: LC-ESI-ITFT
Ms type: MS2
Ion mode: POSITIVE
Ionization: ESI
Fragmentation mode: HCD
Collision energy: 115 % (nominal)
Resolution: 15000
Column name: Kinetex Evo C18 2.6 um 50 x 2.1 mm
Retention time: 12.536 min
Base peak: 343.2959
Precursor m/z: 343.2955
Precursor type: [M]+
m/z	relative intensity	assigned
67.0541	996	C5H7+
81.07	994	C6H9+
95.0855	999	C7H11+
