Mass spectrum: Sulfadimidin / sulfamethazin; LC-ESI-ITFT; MS2; CE: 80; R=15000; [M+H]+
Name: Sulfadimidin / sulfamethazin
Name: Sulfamethazine
Name: 4-Amino-N-(4,6-dimethylpyrimidin-2-yl)benzenesulfonamide
Formula: C12H14N4O2S
Exact mass: 278.0837
SMILES: CC1=CC(C)=NC(NS(=O)(=O)C2=CC=C(N)C=C2)=N1
InChI: InChI=1S/C12H14N4O2S/c1-8-7-9(2)15-12(14-8)16-19(17,18)11-5-3-10(13)4-6-11/h3-7H,13H2,1-2H3,(H,14,15,16)
Instrument: LTQ Orbitrap XL Thermo Scientific
Instrument type: LC-ESI-ITFT
Ms type: MS2
Ion mode: POSITIVE
Ionization: ESI
Fragmentation mode: HCD
Collision energy: 80 (nominal)
Resolution: 15000
Column name: Kinetex Core-Shell C18 2.6 um, 3.0 x 100 mm, Phenomenex
Retention time: 15.703 min
Base peak: 163.1328
Precursor m/z: 279.091
Precursor type: [M+H]+
m/z	relative intensity	assigned
80.0496	67	C5H6N+
81.0448	28	C4H5N2+
92.0495	954	C6H6N+
93.0574	33	C6H7N+
94.0649	4	C6H8N+
95.0604	116	C5H7N2+
105.0448	6	C6H5N2+
107.0605	58	C6H7N2+
108.0445	865	C6H6NO+
110.0601	69	C6H8NO+
120.0558	10	C6H6N3+
122.0715	39	C6H8N3+
123.0793	29	C6H9N3+
124.087	999	C6H10N3+
125.071	61	C6H9N2O+
149.0236	37	C8H5O3+
156.0116	18	C6H6NO2S+
186.0335	22	C6H8N3O2S+
196.0873	28	C12H10N3+
204.044	14	C12H4N4+
213.1137	61	C12H13N4+
