Mass spectrum: DINCH; LC-ESI-ITFT; MS2; CE: 40%; R=15000; [M+H]+
Name: DINCH
Name: bis(7-methyloctyl) cyclohexane-1,2-dicarboxylate
Formula: C26H48O4
Exact mass: 424.355260016
SMILES: CC(C)CCCCCCOC(=O)C1CCCCC1C(=O)OCCCCCCC(C)C
InChI: InChI=1S/C26H48O4/c1-21(2)15-9-5-7-13-19-29-25(27)23-17-11-12-18-24(23)26(28)30-20-14-8-6-10-16-22(3)4/h21-24H,5-20H2,1-4H3
Instrument: LTQ Orbitrap XL Thermo Scientific
Instrument type: LC-ESI-ITFT
Ms type: MS2
Ion mode: POSITIVE
Ionization: ESI
Fragmentation mode: HCD
Collision energy: 40 % (nominal)
Resolution: 15000
Column name: Kinetex Evo C18 2.6 um 50 x 2.1 mm
Retention time: 16.355 min
Base peak: 425.3625
Precursor m/z: 425.3625
Precursor type: [M+H]+
Precursor intensity: 2979516.25
m/z	relative intensity	assigned
57.0698	396	C4H9+
71.0856	999	C5H11+
81.07	838	C6H9+
85.1015	563	C6H13+
127.0755	291	C7H11O2+
155.0706	516	C8H11O3+
