Mass spectrum: Flurtamone; LC-ESI-ITFT; MS2; CE: 35; R=15000; [M+H]+
Name: Flurtamone
Name: 5-(Methylamino)-2-phenyl-4-[3-(trifluoromethyl)phenyl]furan-3-one
Formula: C18H14F3NO2
Exact mass: 333.0977
SMILES: CNC1=C(C(=O)C(O1)C1=CC=CC=C1)C1=CC=CC(=C1)C(F)(F)F
InChI: InChI=1S/C18H14F3NO2/c1-22-17-14(12-8-5-9-13(10-12)18(19,20)21)15(23)16(24-17)11-6-3-2-4-7-11/h2-10,16,22H,1H3
Instrument: LTQ Orbitrap XL Thermo Scientific
Instrument type: LC-ESI-ITFT
Ms type: MS2
Ion mode: POSITIVE
Ionization: ESI
Fragmentation mode: CID
Collision energy: 35 (nominal)
Resolution: 15000
Column name: Kinetex Core-Shell C18 2.6 um, 3.0 x 100 mm, Phenomenex
Retention time: 24.282 min
Base peak: 304.121
Precursor m/z: 334.1049
Precursor type: [M+H]+
m/z	relative intensity	assigned
103.0543	19	C8H7+
105.0332	10	C7H5O+
120.0807	7	C8H10N+
131.0492	22	C9H7O+
171.0418	39	C9H6F3+
189.0697	1	C15H9+
199.0367	61	C10H6F3O+
209.0761	3	C15H10F+
225.016	53	C11H4F3O2+
227.0665	2	C15H9F2+
228.0633	10	C11H9F3NO+
237.0712	13	C16H10FO+
238.0478	8	C12H7F3NO+
247.0732	178	C15H10F3+
249.0889	19	C15H12F3+
256.0583	84	C12H9F3NO2+
257.0775	394	C16H11F2O+
259.073	3	C16H10F3+
262.0602	1	C15H9F3O+
269.0981	3	C17H14FO2+
275.068	460	C16H10F3O+
277.0837	499	C16H12F3O+
283.0565	2	C17H9F2O2+
288.0998	51	C17H13F3N+
303.0632	702	C17H10F3O2+
306.1102	620	C17H15F3NO+
314.099	63	C18H14F2NO2+
316.0947	103	C18H13F3NO+
334.1052	999	C18H15F3NO2+
335.1089	21	C16H15F2N3O3+
