Mass spectrum: 11-Ketotestosterone; LC-ESI-ITFT; MS2; CE: 30%; R=15000; [M+H]+
Name: 11-Ketotestosterone
Name: (8S,9S,10R,13S,14S,17S)-17-hydroxy-10,13-dimethyl-2,6,7,8,9,12,14,15,16,17-decahydro-1H-cyclopenta[a]phenanthrene-3,11-dione
Formula: C19H26O3
Exact mass: 302.188194692
SMILES: C[C@]12CC(=O)[C@H]3[C@@H](CCC4=CC(=O)CC[C@]34C)[C@@H]1CC[C@@H]2O
InChI: InChI=1S/C19H26O3/c1-18-8-7-12(20)9-11(18)3-4-13-14-5-6-16(22)19(14,2)10-15(21)17(13)18/h9,13-14,16-17,22H,3-8,10H2,1-2H3/t13-,14-,16-,17+,18-,19-/m0/s1
Instrument: LTQ Orbitrap XL Thermo Scientific
Instrument type: LC-ESI-ITFT
Ms type: MS2
Ion mode: POSITIVE
Ionization: ESI
Fragmentation mode: HCD
Collision energy: 30 % (nominal)
Resolution: 15000
Column name: Kinetex Evo C18 2.6 um 50 x 2.1 mm
Retention time: 9.898 min
Base peak: 116.9859
Precursor m/z: 303.1955
Precursor type: [M+H]+
Precursor intensity: 2999005.5
m/z	relative intensity	assigned
81.0696	3	C6H9+
93.0696	2	C7H9+
95.0853	4	C7H11+
97.0645	3	C6H9O+
105.0698	1	C8H9+
107.0852	8	C8H11+
109.0644	2	C7H9O+
119.0853	2	C9H11+
121.0645	51	C8H9O+
123.0802	4	C8H11O+
131.0852	7	C10H11+
133.1008	9	C10H13+
135.0801	6	C9H11O+
137.0957	4	C9H13O+
145.101	6	C11H13+
147.0801	19	C10H11O+
147.1164	3	C11H15+
151.1115	4	C10H15O+
157.1007	2	C12H13+
159.0802	3	C11H11O+
159.1165	6	C12H15+
161.0957	4	C11H13O+
163.1111	3	C11H15O+
167.1066	2	C10H15O2+
169.1004	1	C13H13+
171.0801	6	C12H11O+
171.1165	2	C13H15+
173.0955	12	C12H13O+
175.1116	3	C12H15O+
177.1272	3	C12H17O+
183.1166	2	C14H15+
185.0954	1	C13H13O+
185.1324	1	C14H17+
187.1115	2	C13H15O+
189.1267	3	C13H17O+
199.1109	1	C14H15O+
201.1272	2	C14H17O+
203.1424	2	C14H19O+
209.1329	2	C16H17+
211.1112	2	C15H15O+
213.1273	5	C15H17O+
221.1535	3	C14H21O2+
223.1474	4	C17H19+
225.1267	1	C16H17O+
225.1631	6	C17H21+
227.1426	11	C16H19O+
233.1525	1	C15H21O2+
239.1429	1	C17H19O+
239.1791	4	C18H23+
241.158	12	C17H21O+
243.174	14	C17H23O+
245.1529	5	C16H21O2+
249.163	7	C19H21+
257.1899	6	C18H25O+
259.1687	28	C17H23O2+
267.1738	59	C19H23O+
285.1842	38	C19H25O2+
303.1947	999	C19H27O3+
