Mass spectrum: Isophorone; LC-ESI-ITFT; MS2; CE: 70%; R=15000; [M+H]+
Name: Isophorone
Name: 3,5,5-trimethylcyclohex-2-en-1-one
Formula: C9H14O
Exact mass: 138.104465068
SMILES: CC1=CC(=O)CC(C)(C)C1
InChI: InChI=1S/C9H14O/c1-7-4-8(10)6-9(2,3)5-7/h4H,5-6H2,1-3H3
Instrument: LTQ Orbitrap XL Thermo Scientific
Instrument type: LC-ESI-ITFT
Ms type: MS2
Ion mode: POSITIVE
Ionization: ESI
Fragmentation mode: HCD
Collision energy: 70 % (nominal)
Resolution: 15000
Column name: Kinetex Evo C18 2.6 um 50 x 2.1 mm
Retention time: 8.537 min
Base peak: 139.1116
Precursor m/z: 139.1117
Precursor type: [M+H]+
Precursor intensity: 25312300
m/z	relative intensity	assigned
77.0382	18	C6H5+
79.0539	65	C6H7+
81.0696	32	C6H9+
83.0488	201	C5H7O+
91.0539	28	C7H7+
93.0696	198	C7H9+
95.0488	11	C6H7O+
95.0852	91	C7H11+
96.0566	12	C6H8O+
97.0645	367	C6H9O+
105.0695	92	C8H9+
106.0773	8	C8H10+
109.1008	9	C8H13+
110.0722	8	C7H10O+
111.08	19	C7H11O+
119.0851	13	C9H11+
121.1008	244	C9H13+
123.0802	3	C8H11O+
139.1113	999	C9H15O+
