Mass spectrum: Bisoprolol; LC-ESI-ITFT; MS2; CE: 30%; R=15000; [M]+
Name: Bisoprolol
Name: 1-(propan-2-ylamino)-3-[4-(2-propan-2-yloxyethoxymethyl)phenoxy]propan-2-ol
Formula: C18H31NO4
Exact mass: 325.225308472
SMILES: CC(C)NCC(O)COC1=CC=C(COCCOC(C)C)C=C1
InChI: InChI=1S/C18H31NO4/c1-14(2)19-11-17(20)13-23-18-7-5-16(6-8-18)12-21-9-10-22-15(3)4/h5-8,14-15,17,19-20H,9-13H2,1-4H3
Instrument: LTQ Orbitrap XL Thermo Scientific
Instrument type: LC-ESI-ITFT
Ms type: MS2
Ion mode: POSITIVE
Ionization: ESI
Fragmentation mode: HCD
Collision energy: 30 % (nominal)
Resolution: 15000
Column name: Kinetex Evo C18 2.6 um 50 x 2.1 mm
Retention time: 7.715 min
Base peak: 325.1725
Precursor m/z: 325.2248
Precursor type: [M]+
Precursor intensity: 24915022
m/z	relative intensity	assigned
116.0494	999	C8H6N+
144.0445	78	C9H6NO+
156.0809	328	C11H10N+
166.0652	575	C12H8N+
184.076	141	C12H10NO+
238.0654	151	C18H8N+
242.0972	117	C18H12N+
263.1062	251	C18H15O2+
