Mass spectrum: Pendimethalin; LC-ESI-ITFT; MS2; CE: 70%; R=15000; [M+H]+
Name: Pendimethalin
Name: 3,4-dimethyl-2,6-dinitro-N-pentan-3-ylaniline
Formula: C13H19N3O4
Exact mass: 281.137556088
SMILES: CCC(CC)NC1=C(C(C)=C(C)C=C1[N+]([O-])=O)[N+]([O-])=O
InChI: InChI=1S/C13H19N3O4/c1-5-10(6-2)14-12-11(15(17)18)7-8(3)9(4)13(12)16(19)20/h7,10,14H,5-6H2,1-4H3
Instrument: LTQ Orbitrap XL Thermo Scientific
Instrument type: LC-ESI-ITFT
Ms type: MS2
Ion mode: POSITIVE
Ionization: ESI
Fragmentation mode: HCD
Collision energy: 70 % (nominal)
Resolution: 15000
Column name: Kinetex Evo C18 2.6 um 50 x 2.1 mm
Retention time: 13.728 min
Base peak: 282.1451
Precursor m/z: 282.1448
Precursor type: [M+H]+
Precursor intensity: 4877907
m/z	relative intensity	assigned
53.0385	104	C4H5+
65.0386	172	C5H5+
66.0339	89	C4H4N+
66.0464	78	C5H6+
67.0417	56	C4H5N+
68.0496	36	C4H6N+
77.0386	38	C6H5+
78.0339	253	C5H4N+
80.0496	267	C5H6N+
81.0576	45	C5H7N+
90.034	59	C6H4N+
91.0419	694	C6H5N+
92.0372	34	C5H4N2+
92.0497	475	C6H6N+
93.045	81	C5H5N2+
93.0576	107	C6H7N+
96.0446	59	C5H6NO+
96.0571	65	C6H8O+
103.0419	273	C7H5N+
104.0371	69	C6H4N2+
104.0498	102	C7H6N+
105.045	244	C6H5N2+
106.0653	70	C7H8N+
110.0602	49	C6H8NO+
117.0451	102	C7H5N2+
117.0575	63	C8H7N+
118.0529	337	C7H6N2+
118.0653	54	C8H8N+
119.0606	793	C7H7N2+
120.0195	86	C5H2N3O+
120.0447	161	C7H6NO+
120.0685	110	C7H8N2+
121.04	43	C6H5N2O+
122.0478	63	C6H6N2O+
126.0551	90	C6H8NO2+
129.0452	147	C8H5N2+
130.0403	45	C7H4N3+
130.053	135	C8H6N2+
131.0607	247	C8H7N2+
132.0558	124	C7H6N3+
133.0396	67	C7H5N2O+
135.0556	93	C7H7N2O+
147.0556	395	C8H7N2O+
148.0634	999	C8H8N2O+
160.0509	144	C8H6N3O+
178.0615	397	C8H8N3O2+
194.0564	238	C8H8N3O3+
