Mass spectrum: Medroxyprogesteroneacetate; LC-ESI-ITFT; MS2; CE: 10%; R=15000; [M+H]+
Name: Medroxyprogesteroneacetate
Name: Medroxyprogesterone acetate
Name: [(6S,8R,9S,10R,13S,14S,17R)-17-acetyl-6,10,13-trimethyl-3-oxo-2,6,7,8,9,11,12,14,15,16-decahydro-1H-cyclopenta[a]phenanthren-17-yl] acetate
Formula: C24H34O4
Exact mass: 386.245709568
SMILES: C[C@H]1C[C@H]2[C@@H]3CC[C@](OC(C)=O)(C(C)=O)[C@@]3(C)CC[C@@H]2[C@@]2(C)CCC(=O)C=C12
InChI: InChI=1S/C24H34O4/c1-14-12-18-19(22(4)9-6-17(27)13-21(14)22)7-10-23(5)20(18)8-11-24(23,15(2)25)28-16(3)26/h13-14,18-20H,6-12H2,1-5H3/t14-,18+,19-,20-,22+,23-,24-/m0/s1
Instrument: LTQ Orbitrap XL Thermo Scientific
Instrument type: LC-ESI-ITFT
Ms type: MS2
Ion mode: POSITIVE
Ionization: ESI
Fragmentation mode: HCD
Collision energy: 10 % (nominal)
Resolution: 15000
Column name: Kinetex Evo C18 2.6 um 50 x 2.1 mm
Retention time: 12.421 min
Base peak: 315.2317
Precursor m/z: 387.253
Precursor type: [M+H]+
Precursor intensity: 10381708
m/z	relative intensity	assigned
327.2312	127	C22H31O2+
387.252	999	C24H35O4+
