Mass spectrum: Warfarin; LC-ESI-ITFT; MS2; CE: 80; R=15000; [M-H]-
Name: Warfarin
Name: 4-Cydroxy-3-(3-oxo-1-phenylbutyl)chromen-2-one
Formula: C19H16O4
Exact mass: 308.1049
SMILES: CC(=O)CC(C1=CC=CC=C1)C1=C(O)C2=CC=CC=C2OC1=O
InChI: InChI=1S/C19H16O4/c1-12(20)11-15(13-7-3-2-4-8-13)17-18(21)14-9-5-6-10-16(14)23-19(17)22/h2-10,15,21H,11H2,1H3
Instrument: LTQ Orbitrap XL Thermo Scientific
Instrument type: LC-ESI-ITFT
Ms type: MS2
Ion mode: NEGATIVE
Ionization: ESI
Fragmentation mode: HCD
Collision energy: 80 (nominal)
Resolution: 15000
Column name: Kinetex Core-Shell C18 2.6 um, 3.0 x 100 mm, Phenomenex
Retention time: 24.566 min
Base peak: 332.0905
Precursor m/z: 307.0976
Precursor type: [M-H]-
m/z	relative intensity	assigned
161.0243	456	C9H5O3-
250.0636	325	C16H10O3-
307.0973	999	C19H15O4-
