Mass spectrum: Prednisone; LC-ESI-ITFT; MS2; CE: 60%; R=15000; [M+H]+
Name: Prednisone
Name: (8S,9S,10R,13S,14S,17R)-17-hydroxy-17-(2-hydroxyacetyl)-10,13-dimethyl-6,7,8,9,12,14,15,16-octahydrocyclopenta[a]phenanthrene-3,11-dione
Formula: C21H26O5
Exact mass: 358.178023932
SMILES: [H][C@@]12CC[C@](O)(C(=O)CO)[C@@]1(C)CC(=O)[C@@]1([H])[C@@]2([H])CCC2=CC(=O)C=C[C@]12C
InChI: InChI=1S/C21H26O5/c1-19-7-5-13(23)9-12(19)3-4-14-15-6-8-21(26,17(25)11-22)20(15,2)10-16(24)18(14)19/h5,7,9,14-15,18,22,26H,3-4,6,8,10-11H2,1-2H3/t14-,15-,18+,19-,20-,21-/m0/s1
Instrument: LTQ Orbitrap XL Thermo Scientific
Instrument type: LC-ESI-ITFT
Ms type: MS2
Ion mode: POSITIVE
Ionization: ESI
Fragmentation mode: HCD
Collision energy: 60 % (nominal)
Resolution: 15000
Column name: Kinetex Evo C18 2.6 um 50 x 2.1 mm
Retention time: 9.457 min
Base peak: 359.1854
Precursor m/z: 359.1853
Precursor type: [M+H]+
Precursor intensity: 19215970
m/z	relative intensity	assigned
79.0543	77	C6H7+
81.0699	115	C6H9+
93.0699	175	C7H9+
95.0492	76	C6H7O+
95.0856	189	C7H11+
97.0648	41	C6H9O+
105.07	108	C8H9+
107.0856	172	C8H11+
109.0649	159	C7H9O+
111.0807	58	C7H11O+
117.07	85	C9H9+
119.0857	90	C9H11+
121.0649	340	C8H9O+
123.0805	49	C8H11O+
135.0805	199	C9H11O+
145.065	127	C10H9O+
147.0805	999	C10H11O+
159.0806	460	C11H11O+
161.096	185	C11H13O+
171.0805	685	C12H11O+
173.0961	340	C12H13O+
183.0806	96	C13H11O+
185.0961	128	C13H13O+
187.0759	63	C12H11O2+
187.1118	102	C13H15O+
195.0803	75	C14H11O+
196.0882	62	C14H12O+
197.0963	206	C14H13O+
199.1118	115	C14H15O+
208.0882	86	C15H12O+
209.0964	136	C15H13O+
211.1118	116	C15H15O+
212.1195	74	C15H16O+
213.1275	71	C15H17O+
221.0963	139	C16H13O+
222.104	198	C16H14O+
223.1118	146	C16H15O+
225.1277	87	C16H17O+
227.1438	60	C16H19O+
235.1118	100	C17H15O+
237.1276	234	C17H17O+
239.1432	87	C17H19O+
247.1124	67	C18H15O+
248.12	64	C18H16O+
249.1271	156	C18H17O+
251.1422	72	C18H19O+
253.1223	35	C17H17O2+
262.1358	75	C19H18O+
263.1435	61	C19H19O+
264.1513	46	C19H20O+
265.1591	62	C19H21O+
