Mass spectrum: Loperamide; LC-ESI-ITFT; MS2; CE: 90%; R=15000; [M+H]+
Name: Loperamide
Name: 4-[4-(4-chlorophenyl)-4-hydroxypiperidin-1-yl]-N,N-dimethyl-2,2-diphenylbutanamide
Formula: C29H33ClN2O2
Exact mass: 476.223055976
SMILES: CN(C)C(=O)C(CCN1CCC(O)(CC1)C1=CC=C(Cl)C=C1)(C1=CC=CC=C1)C1=CC=CC=C1
InChI: InChI=1S/C29H33ClN2O2/c1-31(2)27(33)29(24-9-5-3-6-10-24,25-11-7-4-8-12-25)19-22-32-20-17-28(34,18-21-32)23-13-15-26(30)16-14-23/h3-16,34H,17-22H2,1-2H3
Instrument: LTQ Orbitrap XL Thermo Scientific
Instrument type: LC-ESI-ITFT
Ms type: MS2
Ion mode: POSITIVE
Ionization: ESI
Fragmentation mode: HCD
Collision energy: 90 % (nominal)
Resolution: 15000
Column name: Kinetex Evo C18 2.6 um 50 x 2.1 mm
Retention time: 9.659 min
Base peak: 477.2297
Precursor m/z: 477.2303
Precursor type: [M+H]+
Precursor intensity: 71125960
m/z	relative intensity	assigned
91.0539	38	C7H7+
105.0331	20	C7H5O+
115.0539	119	C9H7+
117.0696	10	C9H9+
118.0647	34	C8H8N+
134.0958	9	C9H12N+
147.0676	3	C9H9NO+
152.0615	21	C12H8+
160.0759	3	C7H13ClN2+
160.1115	5	C11H14N+
165.0693	29	C13H9+
166.0772	7	C13H10+
167.085	69	C13H11+
178.0772	62	C14H10+
179.085	7	C14H11+
191.0853	3	C15H11+
193.1008	9	C15H13+
194.072	3	C14H10O+
194.0958	18	C14H12N+
208.1115	11	C15H14N+
210.1271	999	C15H16N+
220.111	2	C16H14N+
223.0982	10	C15H13NO+
236.1066	9	C16H14NO+
238.1218	18	C16H16NO+
266.1532	10	C18H20NO+
