Mass spectrum: Fluorometholone; LC-ESI-ITFT; MS2; CE: 70%; R=15000; [M+H]+
Name: Fluorometholone
Name: (6S,8S,9R,10S,11S,13S,14S,17R)-17-acetyl-9-fluoro-11,17-dihydroxy-6,10,13-trimethyl-6,7,8,11,12,14,15,16-octahydrocyclopenta[a]phenanthren-3-one
Formula: C22H29FO4
Exact mass: 376.204987628
SMILES: [H][C@@]12CC[C@](O)(C(C)=O)[C@@]1(C)C[C@H](O)[C@@]1(F)[C@@]2([H])C[C@H](C)C2=CC(=O)C=C[C@]12C
InChI: InChI=1S/C22H29FO4/c1-12-9-17-15-6-8-21(27,13(2)24)20(15,4)11-18(26)22(17,23)19(3)7-5-14(25)10-16(12)19/h5,7,10,12,15,17-18,26-27H,6,8-9,11H2,1-4H3/t12-,15-,17-,18-,19-,20-,21-,22-/m0/s1
Instrument: LTQ Orbitrap XL Thermo Scientific
Instrument type: LC-ESI-ITFT
Ms type: MS2
Ion mode: POSITIVE
Ionization: ESI
Fragmentation mode: HCD
Collision energy: 70 % (nominal)
Resolution: 15000
Column name: Kinetex Evo C18 2.6 um 50 x 2.1 mm
Retention time: 10.829 min
Base peak: 377.2121
Precursor m/z: 377.2123
Precursor type: [M+H]+
Precursor intensity: 7599394
m/z	relative intensity	assigned
91.0542	194	C7H7+
105.0701	241	C8H9+
107.0855	251	C8H11+
119.0855	267	C9H11+
121.0649	575	C8H9O+
135.0805	999	C9H11O+
161.0961	729	C11H13O+
237.1266	147	C17H17O+
249.127	134	C18H17O+
