Mass spectrum: Simazine; LC-ESI-ITFT; MS2; CE: 80%; R=15000; [M+H]+
Name: Simazine
Name: 6-chloro-2-N,4-N-diethyl-1,3,5-triazine-2,4-diamine
Formula: C7H12ClN5
Exact mass: 201.078123064
SMILES: CCNC1=NC(NCC)=NC(Cl)=N1
InChI: InChI=1S/C7H12ClN5/c1-3-9-6-11-5(8)12-7(13-6)10-4-2/h3-4H2,1-2H3,(H2,9,10,11,12,13)
Instrument: LTQ Orbitrap XL Thermo Scientific
Instrument type: LC-ESI-ITFT
Ms type: MS2
Ion mode: POSITIVE
Ionization: ESI
Fragmentation mode: HCD
Collision energy: 80 % (nominal)
Resolution: 15000
Column name: Kinetex Evo C18 2.6 um 50 x 2.1 mm
Retention time: 8.699 min
Base peak: 228.1286
Precursor m/z: 202.0854
Precursor type: [M+H]+
Precursor intensity: 42494856
m/z	relative intensity	assigned
61.9791	58	CHClN+
68.0243	580	C2H2N3+
71.0604	671	C3H7N2+
79.0058	61	CH4ClN2+
90.0106	34	C3H5ClN+
96.0558	808	C4H6N3+
104.0011	999	C2H3ClN3+
107.0372	6	C3H8ClN2+
110.0463	11	C3H4N5+
124.0871	380	C6H10N3+
132.0325	532	C4H7ClN3+
138.0777	45	C5H8N5+
146.023	30	C3H5ClN5+
166.109	71	C7H12N5+
174.0544	85	C5H9ClN5+
202.0857	80	C7H13ClN5+
