Mass spectrum: Propiconazole; LC-ESI-ITFT; MS2; CE: 10%; R=15000; [M+H]+
Name: Propiconazole
Name: 1-[[2-(2,4-dichlorophenyl)-4-propyl-1,3-dioxolan-2-yl]methyl]-1,2,4-triazole
Formula: C15H17Cl2N3O2
Exact mass: 341.069782144
SMILES: CCCC1COC(CN2C=NC=N2)(O1)C1=C(Cl)C=C(Cl)C=C1
InChI: InChI=1S/C15H17Cl2N3O2/c1-2-3-12-7-21-15(22-12,8-20-10-18-9-19-20)13-5-4-11(16)6-14(13)17/h4-6,9-10,12H,2-3,7-8H2,1H3
Instrument: LTQ Orbitrap XL Thermo Scientific
Instrument type: LC-ESI-ITFT
Ms type: MS2
Ion mode: POSITIVE
Ionization: ESI
Fragmentation mode: HCD
Collision energy: 10 % (nominal)
Resolution: 15000
Column name: Kinetex Evo C18 2.6 um 50 x 2.1 mm
Retention time: 12.449 min
Base peak: 320.1532
Precursor m/z: 342.0771
Precursor type: [M+H]+
Precursor intensity: 3469561.75
m/z	relative intensity	assigned
342.0771	999	C15H18Cl2N3O2+
