Mass spectrum: Pyrazophos; LC-ESI-ITFT; MS2; CE: 55; R=15000; [M+H]+
Name: Pyrazophos
Name: 2-Diethoxyphosphinothioyloxy-5-methylpyrazolo[1,5-a]pyrimidine-6-carboxylate-ethyl
Formula: C14H20N3O5PS
Exact mass: 373.0861
SMILES: CCOC(=O)C1=CN2N=C(OP(=S)(OCC)OCC)C=C2N=C1C
InChI: InChI=1S/C14H20N3O5PS/c1-5-19-14(18)11-9-17-12(15-10(11)4)8-13(16-17)22-23(24,20-6-2)21-7-3/h8-9H,5-7H2,1-4H3
Instrument: LTQ Orbitrap XL Thermo Scientific
Instrument type: LC-ESI-ITFT
Ms type: MS2
Ion mode: POSITIVE
Ionization: ESI
Fragmentation mode: CID
Collision energy: 55 (nominal)
Resolution: 15000
Column name: Kinetex Core-Shell C18 2.6 um, 3.0 x 100 mm, Phenomenex
Retention time: 26.552 min
Base peak: 374.0929
Precursor m/z: 374.0934
Precursor type: [M+H]+
m/z	relative intensity	assigned
148.0502	1	C7H6N3O+
170.0162	3	C4H11O3PS+
176.0455	9	C8H6N3O2+
177.0533	4	C8H7N3O2+
183.0224	14	C7H7N2O2S+
192.0229	13	C8H6N3OS+
194.0563	56	C8H8N3O3+
205.085	15	C4H17N2O5S+
208.0182	1	C12H5N2P+
209.0384	1	C5H12N3O2PS+
210.0335	34	C8H8N3O2S+
211.0538	59	C5H14N3O2PS+
222.0875	735	C10H12N3O3+
223.0909	8	C7H18N3OPS+
236.0493	33	C10H10N3O2S+
238.0647	663	C10H12N3O2S+
239.0684	9	C13H9N3O2+
254.0601	1	C10H12N3O3S+
264.0796	1	C12H14N3O2S+
266.0963	24	C12H16N3O2S+
271.9895	2	C8H7N3O4PS+
290.0003	2	C8H9N3O5PS+
300.0208	59	C10H11N3O4PS+
301.0051	1	C10H10N2O5PS+
318.0314	118	C10H13N3O5PS+
328.0522	43	C14H17O5PS+
346.0625	999	C12H17N3O5PS+
