Mass spectrum: Diethylstilbestrol; LC-ESI-ITFT; MS2; CE: 80; R=15000; [M+H]+
Name: Diethylstilbestrol
Name: 4-[(E)-4-(4-Hydroxyphenyl)hex-3-en-3-yl]phenol
Formula: C18H20O2
Exact mass: 268.1463
SMILES: CC\C(=C(\CC)C1=CC=C(O)C=C1)C1=CC=C(O)C=C1
InChI: InChI=1S/C18H20O2/c1-3-17(13-5-9-15(19)10-6-13)18(4-2)14-7-11-16(20)12-8-14/h5-12,19-20H,3-4H2,1-2H3/b18-17+
Instrument: LTQ Orbitrap XL Thermo Scientific
Instrument type: LC-ESI-ITFT
Ms type: MS2
Ion mode: POSITIVE
Ionization: ESI
Fragmentation mode: HCD
Collision energy: 80 (nominal)
Resolution: 15000
Column name: Kinetex Core-Shell C18 2.6 um, 3.0 x 100 mm, Phenomenex
Retention time: 24.897 min
Base peak: 341.2103
Precursor m/z: 269.1536
Precursor type: [M+H]+
m/z	relative intensity	assigned
79.054	49	C6H7+
81.0698	19	C6H9+
91.0541	67	C7H7+
93.0697	39	C7H9+
95.0852	10	C7H11+
105.0696	52	C8H9+
107.0489	999	C7H7O+
117.0695	26	C9H9+
119.049	7	C8H7O+
119.0855	10	C9H11+
121.0646	91	C8H9O+
123.0439	45	C7H7O2+
129.0696	33	C10H9+
133.0645	21	C9H9O+
135.0801	13	C9H11O+
143.0853	16	C11H11+
145.0647	25	C10H9O+
149.0597	12	C9H9O2+
153.0696	61	C12H9+
157.0644	28	C11H9O+
159.0804	11	C11H11O+
161.0593	23	C10H9O2+
165.0697	49	C13H9+
166.0776	28	C13H10+
167.0852	49	C13H11+
171.0799	12	C12H11O+
173.0595	67	C11H9O2+
175.0746	13	C11H11O2+
181.0646	107	C13H9O+
181.101	17	C14H13+
183.08	17	C13H11O+
194.0723	11	C14H10O+
195.0804	33	C14H11O+
199.0751	69	C13H11O2+
207.0802	35	C15H11O+
208.0888	16	C15H12O+
213.0902	19	C14H13O2+
214.0985	20	C14H14O2+
227.1066	16	C15H15O2+
