Mass spectrum: Diphenylphosphate; LC-ESI-ITFT; MS2; CE: 20%; R=15000; [M+H]+
Name: Diphenylphosphate
Name: Diphenyl phosphate
Name: diphenyl hydrogen phosphate
Formula: C12H11O4P
Exact mass: 250.039495462
SMILES: OP(=O)(OC1=CC=CC=C1)OC1=CC=CC=C1
InChI: InChI=1S/C12H11O4P/c13-17(14,15-11-7-3-1-4-8-11)16-12-9-5-2-6-10-12/h1-10H,(H,13,14)
Instrument: LTQ Orbitrap XL Thermo Scientific
Instrument type: LC-ESI-ITFT
Ms type: MS2
Ion mode: POSITIVE
Ionization: ESI
Fragmentation mode: HCD
Collision energy: 20 % (nominal)
Resolution: 15000
Column name: Kinetex Evo C18 2.6 um 50 x 2.1 mm
Retention time: 11.623 min
Base peak: 251.0478
Precursor m/z: 251.0468
Precursor type: [M+H]+
Precursor intensity: 3197285.5
m/z	relative intensity	assigned
251.0479	999	C12H12O4P+
