Mass spectrum: Torasemide; LC-ESI-ITFT; MS2; CE: 40%; R=15000; [M+H]+
Name: Torasemide
Name: Torsemide
Name: 1-[4-(3-methylanilino)pyridin-3-yl]sulfonyl-3-propan-2-ylurea
Formula: C16H20N4O3S
Exact mass: 348.1256115
SMILES: CC(C)NC(=O)NS(=O)(=O)C1=CN=CC=C1NC1=CC=CC(C)=C1
InChI: InChI=1S/C16H20N4O3S/c1-11(2)18-16(21)20-24(22,23)15-10-17-8-7-14(15)19-13-6-4-5-12(3)9-13/h4-11H,1-3H3,(H,17,19)(H2,18,20,21)
Instrument: LTQ Orbitrap XL Thermo Scientific
Instrument type: LC-ESI-ITFT
Ms type: MS2
Ion mode: POSITIVE
Ionization: ESI
Fragmentation mode: HCD
Collision energy: 40 % (nominal)
Resolution: 15000
Column name: Kinetex Evo C18 2.6 um 50 x 2.1 mm
Retention time: 8.465 min
Base peak: 245.1183
Precursor m/z: 349.1329
Precursor type: [M+H]+
Precursor intensity: 41515252
m/z	relative intensity	assigned
122.0603	3	C7H8NO+
125.0168	13	C5H5N2S+
183.0918	40	C12H11N2+
191.0635	1	C10H11N2S+
198.0788	5	C12H10N2O+
199.0867	5	C12H11N2O+
201.0481	5	C11H9N2S+
219.0587	21	C11H11N2OS+
229.0429	2	C12H9N2OS+
230.0511	9	C12H10N2OS+
247.0537	22	C12H11N2O2S+
264.0802	999	C12H14N3O2S+
265.0841	14	C15H11N3O2+
290.0595	139	C13H12N3O3S+
