Mass spectrum: Phenazone; LC-ESI-ITFT; MS2; CE: 80%; R=15000; [M+H]+
Name: Phenazone
Name: Antipyrine
Name: 1,5-dimethyl-2-phenylpyrazol-3-one
Formula: C11H12N2O
Exact mass: 188.094963004
SMILES: CN1N(C(=O)C=C1C)C1=CC=CC=C1
InChI: InChI=1S/C11H12N2O/c1-9-8-11(14)13(12(9)2)10-6-4-3-5-7-10/h3-8H,1-2H3
Instrument: LTQ Orbitrap XL Thermo Scientific
Instrument type: LC-ESI-ITFT
Ms type: MS2
Ion mode: POSITIVE
Ionization: ESI
Fragmentation mode: HCD
Collision energy: 80 % (nominal)
Resolution: 15000
Column name: Kinetex Evo C18 2.6 um 50 x 2.1 mm
Retention time: 5.809 min
Base peak: 189.1031
Precursor m/z: 189.1022
Precursor type: [M+H]+
Precursor intensity: 20516604
m/z	relative intensity	assigned
55.0176	32	C3H3O+
55.0414	6	C3H5N+
55.054	11	C4H7+
56.0493	883	C3H6N+
58.0649	629	C3H8N+
65.0385	141	C5H5+
68.0494	29	C4H6N+
69.0572	30	C4H7N+
70.0651	31	C4H8N+
77.0386	239	C6H5+
79.0542	41	C6H7+
81.0447	76	C4H5N2+
86.0602	17	C4H8NO+
91.0543	170	C7H7+
92.0495	61	C6H6N+
93.0336	31	C6H5O+
93.0574	17	C6H7N+
93.0701	6	C7H9+
94.0652	43	C6H8N+
95.0492	44	C6H7O+
95.0605	99	C5H7N2+
96.0445	45	C5H6NO+
96.0683	318	C5H8N2+
98.0601	190	C5H8NO+
103.0543	96	C8H7+
104.0496	913	C7H6N+
105.0336	40	C7H5O+
105.0448	108	C6H5N2+
105.0574	43	C7H7N+
105.07	47	C8H9+
106.0652	743	C7H8N+
107.0603	15	C6H7N2+
107.0729	5	C7H9N+
111.0553	11	C5H7N2O+
115.0543	71	C9H7+
117.0574	124	C8H7N+
117.07	283	C9H9+
118.0652	348	C8H8N+
119.06	8	C7H7N2+
119.0732	11	C8H9N+
120.0809	256	C8H10N+
128.0493	8	C9H6N+
129.0574	47	C9H7N+
130.0653	412	C9H8N+
131.0604	93	C8H7N2+
131.073	416	C9H9N+
132.0445	15	C8H6NO+
132.0683	78	C8H8N2+
132.0809	180	C9H10N+
133.0523	76	C8H7NO+
133.0761	50	C8H9N2+
133.0889	8	C9H11N+
134.0478	13	C7H6N2O+
134.0966	63	C9H12N+
135.0557	9	C7H7N2O+
143.0732	26	C10H9N+
144.0809	324	C10H10N+
145.065	137	C10H9O+
145.0761	143	C9H9N2+
145.0887	19	C10H11N+
146.084	350	C9H10N2+
146.0966	53	C10H12N+
147.0918	646	C9H11N2+
148.0756	22	C9H10NO+
149.071	50	C8H9N2O+
155.0602	15	C10H7N2+
157.0524	68	C10H7NO+
158.0602	21	C10H8NO+
159.0554	27	C9H7N2O+
159.0918	24	C10H11N2+
160.0997	19	C10H12N2+
161.1075	176	C10H13N2+
172.0759	54	C11H10NO+
173.0713	33	C10H9N2O+
174.0789	275	C10H10N2O+
189.1024	999	C11H13N2O+
