Mass spectrum: Citalopram; LC-ESI-ITFT; MS2; CE: 80; R=15000; [M+H]+
Name: Citalopram
Name: 1-[3-(Dimethylamino)propyl]-1-(4-fluorophenyl)-3H-2-benzofuran-5-carbonitrile
Formula: C20H21FN2O
Exact mass: 324.1638
SMILES: CN(C)CCCC1(OCC2=CC(=CC=C12)C#N)C1=CC=C(F)C=C1
InChI: InChI=1S/C20H21FN2O/c1-23(2)11-3-10-20(17-5-7-18(21)8-6-17)19-9-4-15(13-22)12-16(19)14-24-20/h4-9,12H,3,10-11,14H2,1-2H3
Instrument: LTQ Orbitrap XL Thermo Scientific
Instrument type: LC-ESI-ITFT
Ms type: MS2
Ion mode: POSITIVE
Ionization: ESI
Fragmentation mode: HCD
Collision energy: 80 (nominal)
Resolution: 15000
Column name: Kinetex Core-Shell C18 2.6 um, 3.0 x 100 mm, Phenomenex
Retention time: 19.979 min
Base peak: 260.1644
Precursor m/z: 325.1711
Precursor type: [M+H]+
m/z	relative intensity	assigned
70.0649	2	C4H8N+
72.0807	3	C4H10N+
83.0291	12	C5H4F+
84.0808	10	C5H10N+
97.0449	4	C6H6F+
103.0543	14	C8H7+
109.0448	999	C7H6F+
116.0495	184	C8H6N+
121.0449	18	C8H6F+
123.024	11	C7H4FO+
123.0607	5	C8H8F+
129.07	25	C10H9+
130.065	8	C9H8N+
133.045	13	C9H6F+
135.0606	4	C9H8F+
140.0496	76	C10H6N+
142.0652	12	C10H8N+
144.0449	5	C9H6NO+
146.0527	6	C10H7F+
147.0599	3	C10H8F+
154.0653	18	C11H8N+
156.0808	15	C11H10N+
159.0607	7	C11H8F+
166.0653	110	C12H8N+
183.0608	14	C13H8F+
190.0651	30	C14H8N+
203.0727	8	C15H9N+
209.076	4	C15H10F+
215.0856	38	C17H11+
218.0601	23	C15H8NO+
220.0559	24	C15H7FN+
220.0685	56	C16H9F+
221.0637	125	C15H8FN+
222.0715	36	C15H9FN+
223.0913	4	C16H12F+
227.073	159	C17H9N+
233.0764	38	C17H10F+
234.0715	209	C16H9FN+
235.0924	4	C17H12F+
236.0881	2	C16H11FN+
237.0587	15	C15H8FNO+
238.0665	12	C15H9FNO+
242.0966	10	C18H12N+
245.0635	19	C17H8FN+
245.0765	4	C18H10F+
246.0715	235	C17H9FN+
247.0793	218	C17H10FN+
250.1028	8	C17H13FN+
259.0795	7	C18H10FN+
260.0874	28	C18H11FN+
261.0951	30	C18H12FN+
262.1026	19	C18H13FN+
