Mass spectrum: Canrenone; LC-ESI-ITFT; MS2; CE: 70%; R=15000; [M+H]+
Name: Canrenone
Name: (9S,14S)-10,13-dimethylspiro[2,8,9,11,12,14,15,16-octahydro-1H-cyclopenta[a]phenanthrene-17,5`-oxolane]-2`,3-dione
Formula: C22H28O3
Exact mass: 340.203844756
SMILES: CC12CC[C@H]3C(C=CC4=CC(=O)CCC34C)[C@@H]1CCC21CCC(=O)O1
InChI: InChI=1S/C22H28O3/c1-20-9-5-15(23)13-14(20)3-4-16-17(20)6-10-21(2)18(16)7-11-22(21)12-8-19(24)25-22/h3-4,13,16-18H,5-12H2,1-2H3/t16?,17-,18-,20?,21?,22?/m0/s1
Instrument: LTQ Orbitrap XL Thermo Scientific
Instrument type: LC-ESI-ITFT
Ms type: MS2
Ion mode: POSITIVE
Ionization: ESI
Fragmentation mode: HCD
Collision energy: 70 % (nominal)
Resolution: 15000
Column name: Kinetex Evo C18 2.6 um 50 x 2.1 mm
Retention time: 11.465 min
Base peak: 289.2162
Precursor m/z: 341.2111
Precursor type: [M+H]+
Precursor intensity: 5398710
m/z	relative intensity	assigned
55.0176	9	C3H3O+
67.0539	15	C5H7+
71.0489	23	C4H7O+
77.0382	3	C6H5+
79.0541	120	C6H7+
81.0697	38	C6H9+
83.049	128	C5H7O+
85.0647	8	C5H9O+
91.0541	116	C7H7+
93.0698	98	C7H9+
95.0855	31	C7H11+
97.0647	282	C6H9O+
99.0439	118	C5H7O2+
105.0698	224	C8H9+
107.0854	999	C8H11+
109.0646	40	C7H9O+
111.0439	20	C6H7O2+
117.0697	32	C9H9+
119.0853	164	C9H11+
121.0646	22	C8H9O+
121.1011	51	C9H13+
123.0803	30	C8H11O+
128.0621	8	C10H8+
129.0697	26	C10H9+
130.0774	5	C10H10+
131.0853	106	C10H11+
133.0647	18	C9H9O+
133.101	74	C10H13+
135.0802	31	C9H11O+
135.1169	7	C10H15+
137.096	9	C9H13O+
141.0697	17	C11H9+
142.0775	12	C11H10+
143.0854	137	C11H11+
145.0645	9	C10H9O+
145.101	142	C11H13+
147.0803	48	C10H11O+
147.1166	27	C11H15+
149.0959	42	C10H13O+
154.0774	13	C12H10+
155.0853	39	C12H11+
156.093	9	C12H12+
157.101	76	C12H13+
158.0726	4	C11H10O+
159.0802	30	C11H11O+
159.1167	47	C12H15+
161.0959	52	C11H13O+
163.1116	27	C11H15O+
165.0908	10	C10H13O2+
167.0854	9	C13H11+
168.0932	10	C13H12+
169.101	99	C13H13+
170.1088	17	C13H14+
171.0806	8	C12H11O+
171.1166	27	C13H15+
173.0958	81	C12H13O+
175.1115	46	C12H15O+
177.1278	10	C12H17O+
179.0855	6	C14H11+
179.1067	12	C11H15O2+
181.101	31	C14H13+
183.1166	54	C14H15+
185.1323	37	C14H17+
187.1115	42	C13H15O+
189.127	5	C13H17O+
193.1011	6	C15H13+
195.1166	23	C15H15+
197.0954	4	C14H13O+
197.1321	14	C15H17+
199.1112	9	C14H15O+
205.1218	13	C13H17O2+
207.1169	7	C16H15+
209.1321	15	C16H17+
213.127	8	C15H17O+
221.1322	12	C17H17+
223.1479	15	C17H19+
225.1263	3	C16H17O+
227.143	5	C16H19O+
235.1477	9	C18H19+
237.1633	6	C18H21+
253.159	6	C18H21O+
261.164	4	C20H21+
283.1684	6	C19H23O2+
