Mass spectrum: Terbuthylazine; LC-ESI-ITFT; MS2; CE: 60%; R=15000; [M+H]+
Name: Terbuthylazine
Name: 2-N-tert-butyl-6-chloro-4-N-ethyl-1,3,5-triazine-2,4-diamine
Formula: C9H16ClN5
Exact mass: 229.109423192
SMILES: CCNC1=NC(Cl)=NC(NC(C)(C)C)=N1
InChI: InChI=1S/C9H16ClN5/c1-5-11-7-12-6(10)13-8(14-7)15-9(2,3)4/h5H2,1-4H3,(H2,11,12,13,14,15)
Instrument: LTQ Orbitrap XL Thermo Scientific
Instrument type: LC-ESI-ITFT
Ms type: MS2
Ion mode: POSITIVE
Ionization: ESI
Fragmentation mode: HCD
Collision energy: 60 % (nominal)
Resolution: 15000
Column name: Kinetex Evo C18 2.6 um 50 x 2.1 mm
Retention time: 11.032 min
Base peak: 230.1171
Precursor m/z: 230.1167
Precursor type: [M+H]+
Precursor intensity: 59071612
m/z	relative intensity	assigned
68.0241	36	C2H2N3+
71.0601	24	C3H7N2+
79.0056	93	CH4ClN2+
90.0104	5	C3H5ClN+
96.0555	139	C4H6N3+
104.0008	54	C2H3ClN3+
110.0459	7	C3H4N5+
132.0321	134	C4H7ClN3+
138.0772	40	C5H8N5+
146.0226	109	C3H5ClN5+
174.0539	999	C5H9ClN5+
230.1163	4	C9H17ClN5+
