Mass spectrum: Progesterone; LC-ESI-ITFT; MS2; CE: 55; R=15000; [M+H]+
Name: Progesterone
Name: (8S,9S,10R,13S,14S,17S)-17-Acetyl-10,13-dimethyl-1,2,6,7,8,9,11,12,14,15,16,17-dodecahydrocyclopenta[a]phenanthren-3-one
Formula: C21H30O2
Exact mass: 314.2246
SMILES: CC(=O)[C@H]1CC[C@H]2[C@@H]3CCC4=CC(=O)CC[C@]4(C)[C@H]3CC[C@]12C
InChI: InChI=1S/C21H30O2/c1-13(22)17-6-7-18-16-5-4-14-12-15(23)8-10-20(14,2)19(16)9-11-21(17,18)3/h12,16-19H,4-11H2,1-3H3/t16-,17+,18-,19-,20-,21+/m0/s1
Instrument: LTQ Orbitrap XL Thermo Scientific
Instrument type: LC-ESI-ITFT
Ms type: MS2
Ion mode: POSITIVE
Ionization: ESI
Fragmentation mode: HCD
Collision energy: 55 (nominal)
Resolution: 15000
Column name: Kinetex Core-Shell C18 2.6 um, 3.0 x 100 mm, Phenomenex
Retention time: 26.182 min
Base peak: 315.2309
Precursor m/z: 315.2319
Precursor type: [M+H]+
m/z	relative intensity	assigned
77.0384	3	C6H5+
79.0541	30	C6H7+
81.0697	41	C6H9+
83.049	29	C5H7O+
85.0646	15	C5H9O+
91.0541	13	C7H7+
93.0697	29	C7H9+
95.0854	46	C7H11+
97.0646	902	C6H9O+
105.0697	27	C8H9+
107.0853	29	C8H11+
109.0645	999	C7H9O+
111.0804	5	C7H11O+
117.0698	7	C9H9+
119.0853	37	C9H11+
121.0645	8	C8H9O+
121.1009	34	C9H13+
123.0802	127	C8H11O+
131.0853	28	C10H11+
133.101	39	C10H13+
135.1166	18	C10H15+
137.0959	17	C9H13O+
143.0852	7	C11H11+
145.101	38	C11H13+
147.1166	37	C11H15+
149.0959	10	C10H13O+
149.1321	12	C11H17+
151.1118	3	C10H15O+
155.0858	3	C12H11+
157.101	13	C12H13+
159.1166	39	C12H15+
161.1322	23	C12H17+
163.1115	20	C11H15O+
163.148	5	C12H19+
165.1269	2	C11H17O+
169.1006	5	C13H13+
171.1164	19	C13H15+
173.1323	36	C13H17+
175.1118	4	C12H15O+
175.1479	10	C13H19+
177.1271	20	C12H17O+
183.1165	9	C14H15+
185.1322	11	C14H17+
187.1114	2	C13H15O+
187.1477	17	C14H19+
189.1274	7	C13H17O+
189.1629	5	C14H21+
191.143	4	C13H19O+
197.1321	8	C15H17+
199.1479	14	C15H19+
201.1637	10	C15H21+
209.1322	3	C16H17+
211.1473	4	C16H19+
213.1639	14	C16H21+
215.1421	4	C15H19O+
215.1788	10	C16H23+
223.1474	5	C17H19+
227.179	7	C17H23+
229.1592	2	C16H21O+
237.1646	2	C18H21+
239.1789	16	C18H23+
241.1577	3	C17H21O+
253.1947	8	C19H25+
255.2105	16	C19H27+
257.1892	2	C18H25O+
273.221	3	C19H29O+
279.2103	9	C21H27+
297.2209	20	C21H29O+
315.2315	5	C21H31O2+
