Mass spectrum: Clonidine; LC-ESI-ITFT; MS2; CE: 80%; R=15000; [M+H]+
Name: Clonidine
Name: N-(2,6-dichlorophenyl)-4,5-dihydro-1H-imidazol-2-amine
Formula: C9H9Cl2N3
Exact mass: 229.017352648
SMILES: ClC1=CC=CC(Cl)=C1NC1=NCCN1
InChI: InChI=1S/C9H9Cl2N3/c10-6-2-1-3-7(11)8(6)14-9-12-4-5-13-9/h1-3H,4-5H2,(H2,12,13,14)
Instrument: LTQ Orbitrap XL Thermo Scientific
Instrument type: LC-ESI-ITFT
Ms type: MS2
Ion mode: POSITIVE
Ionization: ESI
Fragmentation mode: HCD
Collision energy: 80 % (nominal)
Resolution: 15000
Column name: Kinetex Evo C18 2.6 um 50 x 2.1 mm
Retention time: 0.548 min
Base peak: 230.0254
Precursor m/z: 230.0246
Precursor type: [M+H]+
Precursor intensity: 4795557.5
m/z	relative intensity	assigned
59.0603	91	C2H7N2+
69.0448	65	C3H5N2+
70.0526	8	C3H6N2+
123.9951	37	C6H3ClN+
132.0689	18	C8H8N2+
132.961	19	C5H3Cl2+
138.0109	12	C7H5ClN+
151.0065	7	C7H4ClN2+
151.0187	59	C8H6ClN+
152.0143	17	C7H5ClN2+
153.0218	40	C7H6ClN2+
158.0716	19	C9H8N3+
158.9767	10	C7H5Cl2+
159.0794	48	C9H9N3+
159.972	187	C6H4Cl2N+
160.0872	56	C9H10N3+
160.9798	14	C6H5Cl2N+
161.9873	30	C6H6Cl2N+
164.0014	44	C7H3ClN3+
166.0167	13	C7H5ClN3+
166.0284	8	C8H7ClN2+
171.972	191	C7H4Cl2N+
172.9672	83	C6H3Cl2N2+
184.9673	58	C7H3Cl2N2+
185.9877	87	C8H6Cl2N+
186.9829	257	C7H5Cl2N2+
194.0484	100	C9H9ClN3+
195.0562	21	C9H10ClN3+
212.9985	475	C9H7Cl2N2+
230.0252	999	C9H10Cl2N3+
