Mass spectrum: Pindolol; LC-ESI-ITFT; MS2; CE: 50%; R=15000; [M+H]+
Name: Pindolol
Name: 1-(1H-indol-4-yloxy)-3-(propan-2-ylamino)propan-2-ol
Formula: C14H20N2O2
Exact mass: 248.15247788
SMILES: CC(C)NCC(O)COC1=CC=CC2=C1C=CN2
InChI: InChI=1S/C14H20N2O2/c1-10(2)16-8-11(17)9-18-14-5-3-4-13-12(14)6-7-15-13/h3-7,10-11,15-17H,8-9H2,1-2H3
Instrument: LTQ Orbitrap XL Thermo Scientific
Instrument type: LC-ESI-ITFT
Ms type: MS2
Ion mode: POSITIVE
Ionization: ESI
Fragmentation mode: HCD
Collision energy: 50 % (nominal)
Resolution: 15000
Column name: Kinetex Evo C18 2.6 um 50 x 2.1 mm
Retention time: 0.883 min
Base peak: 235.1815
Precursor m/z: 249.1598
Precursor type: [M+H]+
Precursor intensity: 9462054
m/z	relative intensity	assigned
56.0493	68	C3H6N+
58.065	65	C3H8N+
60.0807	5	C3H10N+
72.0808	242	C4H10N+
74.06	210	C3H8NO+
84.0808	1	C5H10N+
86.0965	16	C5H12N+
98.0966	189	C6H12N+
100.1122	19	C6H14N+
116.1071	999	C6H14NO+
118.0652	25	C8H8N+
130.0653	11	C9H8N+
132.0446	14	C8H6NO+
132.081	2	C9H10N+
133.0525	3	C8H7NO+
134.0602	151	C8H8NO+
144.081	119	C10H10N+
145.065	2	C10H9O+
146.0603	184	C9H8NO+
154.0654	3	C11H8N+
160.076	20	C10H10NO+
172.0759	318	C11H10NO+
188.1069	1	C12H14NO+
207.1129	10	C11H15N2O2+
249.1602	122	C14H21N2O2+
