Mass spectrum: Metolachlor; LC-ESI-ITFT; MS2; CE: 55; R=15000; [M+H]+
Name: Metolachlor
Name: 2-Chloro-N-(2-ethyl-6-methylphenyl)-N-(1-methoxypropan-2-yl)acetamide
Formula: C15H22ClNO2
Exact mass: 283.1339
SMILES: CCC1=CC=CC(C)=C1N(C(C)COC)C(=O)CCl
InChI: InChI=1S/C15H22ClNO2/c1-5-13-8-6-7-11(2)15(13)17(14(18)9-16)12(3)10-19-4/h6-8,12H,5,9-10H2,1-4H3
Instrument: LTQ Orbitrap XL Thermo Scientific
Instrument type: LC-ESI-ITFT
Ms type: MS2
Ion mode: POSITIVE
Ionization: ESI
Fragmentation mode: CID
Collision energy: 55 (nominal)
Resolution: 15000
Column name: Kinetex Core-Shell C18 2.6 um, 3.0 x 100 mm, Phenomenex
Retention time: 25.526 min
Base peak: 284.1409
Precursor m/z: 284.1412
Precursor type: [M+H]+
m/z	relative intensity	assigned
252.1148	999	C14H19ClNO+
