Mass spectrum: Thiophanate-methyl; LC-ESI-ITFT; MS2; CE: 10%; R=15000; [M+H]+
Name: Thiophanate-methyl
Name: CID 3085
Name: N`-methoxycarbonyl-N-[2-[(N-methoxycarbonyl-C-sulfanylcarbonimidoyl)amino]phenyl]carbamimidothioic acid
Formula: C12H14N4O4S2
Exact mass: 342.045646928
SMILES: COC(=O)NC(=S)NC1=CC=CC=C1NC(=S)NC(=O)OC
InChI: InChI=1S/C12H14N4O4S2/c1-19-11(17)15-9(21)13-7-5-3-4-6-8(7)14-10(22)16-12(18)20-2/h3-6H,1-2H3,(H2,13,15,17,21)(H2,14,16,18,22)
Instrument: LTQ Orbitrap XL Thermo Scientific
Instrument type: LC-ESI-ITFT
Ms type: MS2
Ion mode: POSITIVE
Ionization: ESI
Fragmentation mode: HCD
Collision energy: 10 % (nominal)
Resolution: 15000
Column name: Kinetex Evo C18 2.6 um 50 x 2.1 mm
Retention time: 9.002 min
Base peak: 343.054
Precursor m/z: 343.0529
Precursor type: [M+H]+
Precursor intensity: 4558862
m/z	relative intensity	assigned
160.0505	4	C2H12N2O4S+
194.039	7	C2H14N2O4S2+
226.0649	115	C9H12N3O2S+
268.0214	126	C10H10N3O2S2+
279.0011	4	C10H7N4O2S2+
311.0271	189	C11H11N4O3S2+
343.0534	999	C12H15N4O4S2+
