Mass spectrum: Lauryl diethanolamide; LC-ESI-ITFT; MS2; CE: 90%; R=15000; [M+H]+
Name: Lauryl diethanolamide
Name: N,N-bis(2-hydroxyethyl)dodecanamide
Formula: C16H33NO3
Exact mass: 287.246043916
SMILES: CCCCCCCCCCCC(=O)N(CCO)CCO
InChI: InChI=1S/C16H33NO3/c1-2-3-4-5-6-7-8-9-10-11-16(20)17(12-14-18)13-15-19/h18-19H,2-15H2,1H3
Instrument: LTQ Orbitrap XL Thermo Scientific
Instrument type: LC-ESI-ITFT
Ms type: MS2
Ion mode: POSITIVE
Ionization: ESI
Fragmentation mode: HCD
Collision energy: 90 % (nominal)
Resolution: 15000
Column name: Kinetex Evo C18 2.6 um 50 x 2.1 mm
Retention time: 12.955 min
Base peak: 288.2538
Precursor m/z: 288.2533
Precursor type: [M+H]+
Precursor intensity: 4500156.5
m/z	relative intensity	assigned
55.0543	47	C4H7+
57.0698	464	C4H9+
67.0543	86	C5H7+
70.0652	999	C4H8N+
71.0856	88	C5H11+
81.07	63	C6H9+
88.0759	928	C4H10NO+
95.0857	62	C7H11+
106.0866	488	C4H12NO2+
