Mass spectrum: Fluvoxamine; LC-ESI-ITFT; MS2; CE: 80%; R=15000; [M+H]+
Name: Fluvoxamine
Name: 2-[[5-methoxy-1-[4-(trifluoromethyl)phenyl]pentylidene]amino]oxyethanamine
Formula: C15H21F3N2O2
Exact mass: 318.155512572
SMILES: COCCCCC(=NOCCN)C1=CC=C(C=C1)C(F)(F)F
InChI: InChI=1S/C15H21F3N2O2/c1-21-10-3-2-4-14(20-22-11-9-19)12-5-7-13(8-6-12)15(16,17)18/h5-8H,2-4,9-11,19H2,1H3
Instrument: LTQ Orbitrap XL Thermo Scientific
Instrument type: LC-ESI-ITFT
Ms type: MS2
Ion mode: POSITIVE
Ionization: ESI
Fragmentation mode: HCD
Collision energy: 80 % (nominal)
Resolution: 15000
Column name: Kinetex Evo C18 2.6 um 50 x 2.1 mm
Retention time: 8.950 min
Base peak: 319.1637
Precursor m/z: 319.1628
Precursor type: [M+H]+
Precursor intensity: 94429984
m/z	relative intensity	assigned
53.0383	14	C4H5+
55.054	219	C4H7+
56.0254	19	C3H4O+
71.049	999	C4H7O+
87.0805	57	C5H11O+
130.0652	109	C9H8N+
131.073	86	C9H9N+
145.0259	70	C7H4F3+
159.0415	19	C8H6F3+
165.0512	17	C10H7F2+
171.042	26	C9H6F3+
172.0369	68	C8H5F3N+
173.0321	30	C7H4F3N2+
180.0622	64	C10H8F2N+
183.0418	20	C10H6F3+
185.0455	19	C9H6F3N+
185.0568	7	C10H8F3+
186.0523	20	C9H7F3N+
198.0526	42	C10H7F3N+
200.0683	91	C10H9F3N+
211.0604	14	C11H8F3N+
212.068	11	C11H9F3N+
226.0837	13	C12H11F3N+
