Mass spectrum: Norgestimate; LC-ESI-ITFT; MS2; CE: 90%; R=15000; [M+H]+
Name: Norgestimate
Name: [(3E,8R,9S,10R,13S,14S,17R)-13-ethyl-17-ethynyl-3-hydroxyimino-1,2,6,7,8,9,10,11,12,14,15,16-dodecahydrocyclopenta[a]phenanthren-17-yl] acetate
Formula: C23H31NO3
Exact mass: 369.230393852
SMILES: CC[C@]12CC[C@H]3[C@@H](CCC4=C\C(CC[C@H]34)=N\O)[C@@H]1CC[C@@]2(OC(C)=O)C#C
InChI: InChI=1S/C23H31NO3/c1-4-22-12-10-19-18-9-7-17(24-26)14-16(18)6-8-20(19)21(22)11-13-23(22,5-2)27-15(3)25/h2,14,18-21,26H,4,6-13H2,1,3H3/b24-17+/t18-,19+,20+,21-,22-,23-/m0/s1
Instrument: LTQ Orbitrap XL Thermo Scientific
Instrument type: LC-ESI-ITFT
Ms type: MS2
Ion mode: POSITIVE
Ionization: ESI
Fragmentation mode: HCD
Collision energy: 90 % (nominal)
Resolution: 15000
Column name: Kinetex Evo C18 2.6 um 50 x 2.1 mm
Retention time: 13.044 min
Base peak: 370.2374
Precursor m/z: 370.2377
Precursor type: [M+H]+
Precursor intensity: 42908068
m/z	relative intensity	assigned
69.0696	13	C5H9+
77.0383	164	C6H5+
79.054	873	C6H7+
80.0492	146	C5H6N+
81.057	34	C5H7N+
81.0696	136	C6H9+
82.0648	54	C5H8N+
91.054	999	C7H7+
92.0492	39	C6H6N+
92.0618	13	C7H8+
93.0569	22	C6H7N+
93.0696	209	C7H9+
94.0649	60	C6H8N+
95.0489	38	C6H7O+
95.0727	34	C6H9N+
95.0853	47	C7H11+
96.0442	20	C5H6NO+
96.0806	17	C6H10N+
98.0598	619	C5H8NO+
103.0539	140	C8H7+
104.0492	21	C7H6N+
105.0696	569	C8H9+
106.0648	196	C7H8N+
107.0726	61	C7H9N+
107.0852	70	C8H11+
108.0804	136	C7H10N+
109.0646	11	C7H9O+
109.0883	53	C7H11N+
110.0597	31	C6H8NO+
111.0674	21	C6H9NO+
115.054	239	C9H7+
116.0617	187	C9H8+
117.0569	27	C8H7N+
117.0696	356	C9H9+
118.0649	43	C8H8N+
118.0774	20	C9H10+
119.0727	13	C8H9N+
119.0852	203	C9H11+
120.0804	48	C8H10N+
121.0888	13	C8H11N+
121.1006	12	C9H13+
122.0596	26	C7H8NO+
122.096	30	C8H12N+
124.0754	996	C7H10NO+
128.0617	268	C10H8+
129.0695	425	C10H9+
130.0647	42	C9H8N+
130.0772	95	C10H10+
131.0851	256	C10H11+
132.0804	74	C9H10N+
133.1007	55	C10H13+
134.0961	39	C9H12N+
135.0801	12	C9H11O+
138.0914	26	C8H12NO+
141.0695	166	C11H9+
142.0773	146	C11H10+
143.0725	21	C10H9N+
143.0851	192	C11H11+
144.0804	34	C10H10N+
145.1008	99	C11H13+
146.0961	57	C10H12N+
148.1114	24	C10H14N+
150.0911	14	C9H12NO+
153.0695	67	C12H9+
154.0772	52	C12H10+
155.0851	143	C12H11+
157.0883	12	C11H11N+
157.1007	92	C12H13+
158.0959	43	C11H12N+
159.1037	11	C11H13N+
159.1165	26	C12H15+
160.1118	46	C11H14N+
161.1197	11	C11H15N+
165.0695	67	C13H9+
166.0772	25	C13H10+
167.0849	73	C13H11+
168.0927	33	C13H12+
169.1008	56	C13H13+
170.0963	15	C12H12N+
171.1161	30	C13H15+
178.0776	34	C14H10+
178.1222	10	C11H16NO+
179.085	46	C14H11+
180.0929	24	C14H12+
181.1008	50	C14H13+
182.0959	14	C13H12N+
183.1161	26	C14H15+
185.1321	13	C14H17+
186.1274	10	C13H16N+
191.0854	26	C15H11+
192.0929	23	C15H12+
193.1006	33	C15H13+
194.1091	14	C15H14+
195.1163	20	C15H15+
203.0851	14	C16H11+
205.1008	22	C16H13+
207.116	23	C16H15+
208.1125	14	C15H14N+
221.133	8	C17H17+
222.1275	9	C16H16N+
282.1862	10	C19H24NO+
