Mass spectrum: Temazepam; LC-ESI-ITFT; MS2; CE: 20%; R=15000; [M+H]+
Name: Temazepam
Name: 7-chloro-3-hydroxy-1-methyl-5-phenyl-3H-1,4-benzodiazepin-2-one
Formula: C16H13ClN2O2
Exact mass: 300.066555336
SMILES: CN1C2=CC=C(Cl)C=C2C(=NC(O)C1=O)C1=CC=CC=C1
InChI: InChI=1S/C16H13ClN2O2/c1-19-13-8-7-11(17)9-12(13)14(18-15(20)16(19)21)10-5-3-2-4-6-10/h2-9,15,20H,1H3
Instrument: LTQ Orbitrap XL Thermo Scientific
Instrument type: LC-ESI-ITFT
Ms type: MS2
Ion mode: POSITIVE
Ionization: ESI
Fragmentation mode: HCD
Collision energy: 20 % (nominal)
Resolution: 15000
Column name: Kinetex Evo C18 2.6 um 50 x 2.1 mm
Retention time: 10.500 min
Base peak: 301.075
Precursor m/z: 301.0738
Precursor type: [M+H]+
Precursor intensity: 6147626
m/z	relative intensity	assigned
228.0584	4	C14H11ClN+
255.0692	114	C15H12ClN2+
283.0641	330	C16H12ClN2O+
301.0747	999	C16H14ClN2O2+
