Mass spectrum: Clomazone; LC-ESI-ITFT; MS2; CE: 55; R=15000; [M+H]+
Name: Clomazone
Name: 2-[(2-Chlorophenyl)methyl]-4,4-dimethyl-1,2-oxazolidin-3-one
Formula: C12H14ClNO2
Exact mass: 239.0713
SMILES: CC1(C)CON(CC2=CC=CC=C2Cl)C1=O
InChI: InChI=1S/C12H14ClNO2/c1-12(2)8-16-14(11(12)15)7-9-5-3-4-6-10(9)13/h3-6H,7-8H2,1-2H3
Instrument: LTQ Orbitrap XL Thermo Scientific
Instrument type: LC-ESI-ITFT
Ms type: MS2
Ion mode: POSITIVE
Ionization: ESI
Fragmentation mode: HCD
Collision energy: 55 (nominal)
Resolution: 15000
Column name: Kinetex Core-Shell C18 2.6 um, 3.0 x 100 mm, Phenomenex
Retention time: 23.949 min
Base peak: 240.078
Precursor m/z: 240.0786
Precursor type: [M+H]+
m/z	relative intensity	assigned
89.0384	1	C7H5+
125.0151	999	C7H6Cl+
240.0783	2	C12H15ClNO2+
