Mass spectrum: Methyldesphenylchloridazon; LC-ESI-ITFT; MS2; CE: 70%; R=15000; [M+H]+
Name: Methyldesphenylchloridazon
Name: 5-Amino-4-chloro-2-methyl-3(2H)-pyridazinone
Name: 5-amino-4-chloro-2-methylpyridazin-3-one
Formula: C5H6ClN3O
Exact mass: 159.019939492
SMILES: CN1N=CC(N)=C(Cl)C1=O
InChI: InChI=1S/C5H6ClN3O/c1-9-5(10)4(6)3(7)2-8-9/h2H,7H2,1H3
Instrument: LTQ Orbitrap XL Thermo Scientific
Instrument type: LC-ESI-ITFT
Ms type: MS2
Ion mode: POSITIVE
Ionization: ESI
Fragmentation mode: HCD
Collision energy: 70 % (nominal)
Resolution: 15000
Column name: Kinetex Evo C18 2.6 um 50 x 2.1 mm
Retention time: 0.964 min
Base peak: 160.0279
Precursor m/z: 160.0272
Precursor type: [M+H]+
Precursor intensity: 7875539.5
m/z	relative intensity	assigned
55.0289	3	C2H3N2+
57.0445	1	C2H5N2+
58.0285	1	C2H4NO+
63.9948	1	CH3ClN+
67.029	2	C3H3N2+
68.0494	8	C4H6N+
69.0447	8	C3H5N2+
75.9949	12	C2H3ClN+
78.0105	1	C2H5ClN+
81.0448	1	C4H5N2+
86.9997	6	C4H4Cl+
87.9949	42	C3H3ClN+
90.0106	2	C3H5ClN+
96.0446	2	C5H6NO+
97.0398	1	C4H5N2O+
97.0524	1	C5H7NO+
97.0635	3	C4H7N3+
100.9903	2	C3H2ClN2+
101.9742	1	C3HClNO+
103.0059	1	C3H4ClN2+
103.0185	2	C4H6ClN+
103.9899	6	C3H3ClNO+
115.0058	2	C4H4ClN2+
115.9899	5	C4H3ClNO+
116.9977	77	C4H4ClNO+
124.0507	14	C5H6N3O+
125.0586	2	C5H7N3O+
128.9852	4	C4H2ClN2O+
130.0056	47	C5H5ClNO+
131.0008	12	C4H4ClN2O+
131.0134	20	C5H6ClNO+
132.0087	5	C4H5ClN2O+
133.0165	3	C4H6ClN2O+
145.004	20	C4H4ClN3O+
158.0118	3	C5H5ClN3O+
160.0274	999	C5H7ClN3O+
