Mass spectrum: Testosterone; LC-ESI-ITFT; MS2; CE: 60%; R=15000; [M+H]+
Name: Testosterone
Name: (8R,9S,10R,13S,14S,17S)-17-hydroxy-10,13-dimethyl-1,2,6,7,8,9,11,12,14,15,16,17-dodecahydrocyclopenta[a]phenanthren-3-one
Formula: C19H28O2
Exact mass: 288.208930136
SMILES: C[C@]12CC[C@H]3[C@@H](CCC4=CC(=O)CC[C@]34C)[C@@H]1CC[C@@H]2O
InChI: InChI=1S/C19H28O2/c1-18-9-7-13(20)11-12(18)3-4-14-15-5-6-17(21)19(15,2)10-8-16(14)18/h11,14-17,21H,3-10H2,1-2H3/t14-,15-,16-,17-,18-,19-/m0/s1
Instrument: LTQ Orbitrap XL Thermo Scientific
Instrument type: LC-ESI-ITFT
Ms type: MS2
Ion mode: POSITIVE
Ionization: ESI
Fragmentation mode: HCD
Collision energy: 60 % (nominal)
Resolution: 15000
Column name: Kinetex Evo C18 2.6 um 50 x 2.1 mm
Retention time: 11.385 min
Base peak: 289.2163
Precursor m/z: 289.2162
Precursor type: [M+H]+
Precursor intensity: 27703704
m/z	relative intensity	assigned
67.054	7	C5H7+
69.0696	7	C5H9+
79.054	23	C6H7+
81.0697	47	C6H9+
83.0489	39	C5H7O+
83.0852	1	C6H11+
91.054	11	C7H7+
93.0697	48	C7H9+
95.0854	51	C7H11+
97.0646	999	C6H9O+
105.0697	33	C8H9+
107.0853	40	C8H11+
109.0645	940	C7H9O+
111.0801	5	C7H11O+
117.0694	4	C9H9+
119.0853	31	C9H11+
121.0644	11	C8H9O+
121.1009	27	C9H13+
123.0801	112	C8H11O+
129.0695	2	C10H9+
131.0853	14	C10H11+
133.1009	26	C10H13+
135.1165	14	C10H15+
137.0958	6	C9H13O+
143.0852	10	C11H11+
145.1009	26	C11H13+
147.1165	34	C11H15+
149.0956	7	C10H13O+
149.1322	10	C11H17+
151.1115	2	C10H15O+
155.086	2	C12H11+
157.1008	15	C12H13+
159.1165	30	C12H15+
161.0955	4	C11H13O+
161.1321	21	C12H17+
163.1115	10	C11H15O+
163.1476	4	C12H19+
169.1013	4	C13H13+
171.1166	14	C13H15+
173.1322	8	C13H17+
175.1114	6	C12H15O+
175.1478	17	C13H19+
177.1271	11	C12H17O+
183.1162	5	C14H15+
185.132	9	C14H17+
187.1478	19	C14H19+
189.1267	4	C13H17O+
189.1634	4	C14H21+
197.1321	15	C15H17+
199.1478	11	C15H19+
201.1268	1	C14H17O+
201.1637	8	C15H21+
211.1477	10	C16H19+
213.1634	15	C16H21+
227.1789	4	C17H23+
245.1902	1	C17H25O+
253.1947	20	C19H25+
271.2056	10	C19H27O+
289.216	10	C19H29O2+
