Mass spectrum: Trifloxystrobin; LC-ESI-ITFT; MS2; CE: 20%; R=15000; [M+H]+
Name: Trifloxystrobin
Name: methyl (2E)-2-methoxyimino-2-[2-[[(E)-1-[3-(trifluoromethyl)phenyl]ethylideneamino]oxymethyl]phenyl]acetate
Formula: C20H19F3N2O4
Exact mass: 408.129691748
SMILES: CO\N=C(\C(=O)OC)C1=C(CO\N=C(/C)C2=CC=CC(=C2)C(F)(F)F)C=CC=C1
InChI: InChI=1S/C20H19F3N2O4/c1-13(14-8-6-9-16(11-14)20(21,22)23)24-29-12-15-7-4-5-10-17(15)18(25-28-3)19(26)27-2/h4-11H,12H2,1-3H3/b24-13+,25-18+
Instrument: LTQ Orbitrap XL Thermo Scientific
Instrument type: LC-ESI-ITFT
Ms type: MS2
Ion mode: POSITIVE
Ionization: ESI
Fragmentation mode: HCD
Collision energy: 20 % (nominal)
Resolution: 15000
Column name: Kinetex Evo C18 2.6 um 50 x 2.1 mm
Retention time: 13.232 min
Base peak: 252.142
Precursor m/z: 409.137
Precursor type: [M+H]+
Precursor intensity: 3375844.75
m/z	relative intensity	assigned
105.0701	6	C8H9+
116.0497	181	C8H6N+
118.0647	3	C8H8N+
131.0733	55	C9H9N+
132.0811	86	C9H10N+
146.0604	12	C9H8NO+
148.0764	3	C9H10NO+
162.0917	62	C10H12NO+
186.0529	999	C9H7F3N+
206.0816	412	C11H12NO3+
409.1371	22	C20H20F3N2O4+
