Mass spectrum: Quinmerac; LC-ESI-ITFT; MS2; CE: 60%; R=15000; [M+H]+
Name: Quinmerac
Name: 7-chloro-3-methylquinoline-8-carboxylic acid
Formula: C11H8ClNO2
Exact mass: 221.024356176
SMILES: CC1=CC2=C(N=C1)C(C(O)=O)=C(Cl)C=C2
InChI: InChI=1S/C11H8ClNO2/c1-6-4-7-2-3-8(12)9(11(14)15)10(7)13-5-6/h2-5H,1H3,(H,14,15)
Instrument: LTQ Orbitrap XL Thermo Scientific
Instrument type: LC-ESI-ITFT
Ms type: MS2
Ion mode: POSITIVE
Ionization: ESI
Fragmentation mode: HCD
Collision energy: 60 % (nominal)
Resolution: 15000
Column name: Kinetex Evo C18 2.6 um 50 x 2.1 mm
Retention time: 5.716 min
Base peak: 222.032
Precursor m/z: 222.0316
Precursor type: [M+H]+
Precursor intensity: 6350100
m/z	relative intensity	assigned
140.0494	13	C10H6N+
141.0572	26	C10H7N+
149.0152	16	C9H6Cl+
176.0261	94	C10H7ClN+
194.0367	23	C10H9ClNO+
204.0209	999	C11H7ClNO+
222.0314	44	C11H9ClNO2+
