Mass spectrum: Pirimicarb; LC-ESI-ITFT; MS2; CE: 40%; R=15000; [M+H]+
Name: Pirimicarb
Name: [2-(dimethylamino)-5,6-dimethylpyrimidin-4-yl] N,N-dimethylcarbamate
Formula: C11H18N4O2
Exact mass: 238.142975816
SMILES: CN(C)C(=O)OC1=C(C)C(C)=NC(=N1)N(C)C
InChI: InChI=1S/C11H18N4O2/c1-7-8(2)12-10(14(3)4)13-9(7)17-11(16)15(5)6/h1-6H3
Instrument: LTQ Orbitrap XL Thermo Scientific
Instrument type: LC-ESI-ITFT
Ms type: MS2
Ion mode: POSITIVE
Ionization: ESI
Fragmentation mode: HCD
Collision energy: 40 % (nominal)
Resolution: 15000
Column name: Kinetex Evo C18 2.6 um 50 x 2.1 mm
Retention time: 6.145 min
Base peak: 239.151
Precursor m/z: 239.1503
Precursor type: [M+H]+
Precursor intensity: 43036760
m/z	relative intensity	assigned
72.0443	999	C3H6NO+
85.0759	7	C4H9N2+
137.071	8	C7H9N2O+
150.1023	7	C8H12N3+
166.0977	2	C8H12N3O+
182.1288	838	C9H16N3O+
195.1603	45	C10H19N4+
239.1502	205	C11H19N4O2+
