Mass spectrum: Lorazepam; LC-ESI-ITFT; MS2; CE: 30%; R=15000; [M+H]+
Name: Lorazepam
Name: 7-chloro-5-(2-chlorophenyl)-3-hydroxy-1,3-dihydro-1,4-benzodiazepin-2-one
Formula: C15H10Cl2N2O2
Exact mass: 320.01193292
SMILES: OC1N=C(C2=CC=CC=C2Cl)C2=C(NC1=O)C=CC(Cl)=C2
InChI: InChI=1S/C15H10Cl2N2O2/c16-8-5-6-12-10(7-8)13(19-15(21)14(20)18-12)9-3-1-2-4-11(9)17/h1-7,15,21H,(H,18,20)
Instrument: LTQ Orbitrap XL Thermo Scientific
Instrument type: LC-ESI-ITFT
Ms type: MS2
Ion mode: POSITIVE
Ionization: ESI
Fragmentation mode: HCD
Collision energy: 30 % (nominal)
Resolution: 15000
Column name: Kinetex Evo C18 2.6 um 50 x 2.1 mm
Retention time: 10.252 min
Base peak: 321.0205
Precursor m/z: 321.0192
Precursor type: [M+H]+
Precursor intensity: 6397892
m/z	relative intensity	assigned
275.0144	999	C14H9Cl2N2+
303.0093	817	C15H9Cl2N2O+
321.0198	591	C15H11Cl2N2O2+
