Mass spectrum: Canrenone; LC-ESI-ITFT; MS2; CE: 55; R=15000; [M+H]+
Name: Canrenone
Name: (8R,9S,10R,13S,14S,17R)-10,13-Dimethylspiro[2,8,9,11,12,14,15,16-octahydro-1H-cyclopenta[a]phenanthrene-17,5`-oxolane]-2`,3-dione
Formula: C22H28O3
Exact mass: 340.2038
SMILES: C[C@]12CC[C@H]3[C@@H](C=CC4=CC(=O)CC[C@]34C)[C@@H]1CC[C@@]21CCC(=O)O1
InChI: InChI=1S/C22H28O3/c1-20-9-5-15(23)13-14(20)3-4-16-17(20)6-10-21(2)18(16)7-11-22(21)12-8-19(24)25-22/h3-4,13,16-18H,5-12H2,1-2H3/t16-,17+,18+,20+,21+,22-/m1/s1
Instrument: LTQ Orbitrap XL Thermo Scientific
Instrument type: LC-ESI-ITFT
Ms type: MS2
Ion mode: POSITIVE
Ionization: ESI
Fragmentation mode: HCD
Collision energy: 55 (nominal)
Resolution: 15000
Column name: Kinetex Core-Shell C18 2.6 um, 3.0 x 100 mm, Phenomenex
Retention time: 24.610 min
Base peak: 299.1997
Precursor m/z: 341.2111
Precursor type: [M+H]+
m/z	relative intensity	assigned
71.049	25	C4H7O+
77.0385	8	C6H5+
79.0541	159	C6H7+
81.0698	33	C6H9+
83.049	113	C5H7O+
91.0542	114	C7H7+
93.0698	90	C7H9+
95.0855	26	C7H11+
97.0647	298	C6H9O+
99.0439	149	C5H7O2+
105.0698	192	C8H9+
107.0854	999	C8H11+
109.0647	41	C7H9O+
109.1011	11	C8H13+
111.044	24	C6H7O2+
117.0698	22	C9H9+
119.0603	8	C7H7N2+
119.0854	149	C9H11+
121.0647	30	C8H9O+
121.1011	66	C9H13+
123.0804	37	C8H11O+
125.0596	12	C7H9O2+
128.062	3	C10H8+
129.0699	19	C10H9+
131.0854	92	C10H11+
133.0647	24	C9H9O+
133.1011	83	C10H13+
135.0804	61	C9H11O+
135.1167	15	C10H15+
137.096	17	C9H13O+
141.0698	12	C11H9+
142.0776	8	C11H10+
143.0854	173	C11H11+
145.0648	12	C10H9O+
145.1011	174	C11H13+
147.0803	74	C10H11O+
147.1167	42	C11H15+
149.096	81	C10H13O+
153.0909	10	C9H13O2+
154.0772	3	C12H10+
155.0855	42	C12H11+
157.1011	86	C12H13+
158.0728	2	C11H10O+
159.0804	54	C11H11O+
159.1168	63	C12H15+
161.096	100	C11H13O+
163.1117	47	C11H15O+
165.0909	31	C10H13O2+
167.0854	8	C13H11+
167.1067	13	C10H15O2+
168.0932	5	C13H12+
169.1011	191	C13H13+
171.0804	14	C12H11O+
171.1167	41	C13H15+
173.096	187	C12H13O+
173.1323	16	C13H17+
175.1116	126	C12H15O+
177.1273	25	C12H17O+
179.0855	6	C14H11+
179.1066	49	C11H15O2+
181.101	37	C14H13+
183.1168	86	C14H15+
185.096	10	C13H13O+
185.1324	74	C14H17+
187.1115	204	C13H15O+
189.1273	14	C13H17O+
193.1009	8	C15H13+
193.1224	3	C12H17O2+
195.1168	32	C15H15+
197.0953	4	C14H13O+
197.1324	25	C15H17+
199.1117	25	C14H15O+
199.148	17	C15H19+
201.1274	12	C14H17O+
205.1222	88	C13H17O2+
207.1171	11	C16H15+
207.1384	2	C13H19O2+
209.1325	36	C16H17+
211.1114	8	C15H15O+
211.1488	9	C16H19+
213.1274	24	C15H17O+
215.1432	5	C15H19O+
217.1221	6	C14H17O2+
219.1374	3	C14H19O2+
221.1323	28	C17H17+
223.1112	5	C16H15O+
223.1481	34	C17H19+
225.1275	13	C16H17O+
225.1639	10	C17H21+
227.1431	27	C16H19O+
231.1376	4	C15H19O2+
235.1481	19	C18H19+
237.1275	5	C17H17O+
237.1639	16	C18H21+
239.1433	10	C17H19O+
241.1588	16	C17H21O+
243.1744	14	C17H23O+
245.1327	2	C19H17+
245.1533	8	C16H21O2+
247.1488	9	C19H19+
249.1269	5	C18H17O+
249.1632	5	C19H21+
251.1439	2	C18H19O+
251.1799	2	C19H23+
253.1585	18	C18H21O+
257.1537	12	C17H21O2+
259.1696	7	C17H23O2+
261.1636	15	C20H21+
263.1427	4	C19H19O+
263.1792	18	C20H23+
265.1586	20	C19H21O+
267.1385	2	C18H19O2+
267.1744	8	C19H23O+
268.1823	46	C19H24O+
271.1692	10	C18H23O2+
277.1594	5	C20H21O+
277.1953	6	C21H25+
279.1743	14	C20H23O+
281.1529	4	C19H21O2+
281.1901	21	C20H25O+
283.1692	75	C19H23O2+
287.1791	6	C22H23+
295.206	10	C21H27O+
297.185	10	C20H25O2+
299.2005	3	C20H27O2+
305.1898	19	C22H25O+
323.2004	39	C22H27O2+
326.1877	11	C21H26O3+
341.2112	147	C22H29O3+
