Mass spectrum: Desethylatrazine; LC-ESI-ITFT; MS2; CE: 60%; R=15000; [M+H]+
Name: Desethylatrazine
Name: Deethylatrazine
Name: 6-chloro-2-N-propan-2-yl-1,3,5-triazine-2,4-diamine
Formula: C6H10ClN5
Exact mass: 187.062473
SMILES: CC(C)NC1=NC(N)=NC(Cl)=N1
InChI: InChI=1S/C6H10ClN5/c1-3(2)9-6-11-4(7)10-5(8)12-6/h3H,1-2H3,(H3,8,9,10,11,12)
Instrument: LTQ Orbitrap XL Thermo Scientific
Instrument type: LC-ESI-ITFT
Ms type: MS2
Ion mode: POSITIVE
Ionization: ESI
Fragmentation mode: HCD
Collision energy: 60 % (nominal)
Resolution: 15000
Column name: Kinetex Evo C18 2.6 um 50 x 2.1 mm
Retention time: 6.466 min
Base peak: 188.0701
Precursor m/z: 188.0697
Precursor type: [M+H]+
Precursor intensity: 28661848
m/z	relative intensity	assigned
68.0241	54	C2H2N3+
79.0056	123	CH4ClN2+
104.0009	153	C2H3ClN3+
110.046	69	C3H4N5+
146.0226	999	C3H5ClN5+
188.0695	234	C6H11ClN5+
