Mass spectrum: EDDP; LC-ESI-ITFT; MS2; CE: 90%; R=15000; [M+H]+
Name: EDDP
Name: 2-Ethylidene-1,5-dimethyl-3,3-diphenylpyrrolidine
Name: (2Z)-2-ethylidene-1,5-dimethyl-3,3-diphenylpyrrolidine
Formula: C20H23N
Exact mass: 277.183049736
SMILES: C\C=C1/N(C)C(C)CC1(C1=CC=CC=C1)C1=CC=CC=C1
InChI: InChI=1S/C20H23N/c1-4-19-20(15-16(2)21(19)3,17-11-7-5-8-12-17)18-13-9-6-10-14-18/h4-14,16H,15H2,1-3H3/b19-4-
Instrument: LTQ Orbitrap XL Thermo Scientific
Instrument type: LC-ESI-ITFT
Ms type: MS2
Ion mode: POSITIVE
Ionization: ESI
Fragmentation mode: HCD
Collision energy: 90 % (nominal)
Resolution: 15000
Column name: Kinetex Evo C18 2.6 um 50 x 2.1 mm
Retention time: 7.735 min
Base peak: 278.1914
Precursor m/z: 278.1903
Precursor type: [M+H]+
Precursor intensity: 49019252
m/z	relative intensity	assigned
58.065	13	C3H8N+
70.065	13	C4H8N+
91.0543	72	C7H7+
98.0965	4	C6H12N+
103.0543	22	C8H7+
105.07	28	C8H9+
115.0543	41	C9H7+
117.07	11	C9H9+
118.0652	24	C8H8N+
124.1122	7	C8H14N+
128.0622	11	C10H8+
129.07	27	C10H9+
130.0653	5	C9H8N+
131.0857	3	C10H11+
132.0811	7	C9H10N+
143.0862	4	C11H11+
144.0809	13	C10H10N+
146.0965	3	C10H12N+
156.0811	19	C11H10N+
157.0888	113	C11H11N+
158.0966	241	C11H12N+
165.0701	6	C13H9+
167.0854	6	C13H11+
170.0966	37	C12H12N+
171.1045	68	C12H13N+
172.1123	67	C12H14N+
178.0779	18	C14H10+
179.0856	5	C14H11+
185.1203	4	C13H15N+
186.128	625	C13H16N+
191.0858	12	C15H11+
192.0934	5	C15H12+
193.0888	10	C14H11N+
193.1014	21	C15H13+
200.1436	51	C14H18N+
201.152	14	C14H19N+
203.086	6	C16H11+
204.0936	6	C16H12+
205.1014	9	C16H13+
206.0967	29	C15H12N+
207.1046	64	C15H13N+
217.1016	6	C17H13+
218.0967	37	C16H12N+
219.1046	319	C16H13N+
232.1124	15	C17H14N+
233.1203	38	C17H15N+
234.128	999	C17H16N+
248.1436	60	C18H18N+
262.1593	7	C19H20N+
278.191	5	C20H24N+
