Mass spectrum: Ebastin; LC-ESI-ITFT; MS2; CE: 30%; R=15000; [M+H]+
Name: Ebastin
Name: Ebastine
Name: 4-(4-benzhydryloxypiperidin-1-yl)-1-(4-tert-butylphenyl)butan-1-one
Formula: C32H39NO2
Exact mass: 469.298079488
SMILES: CC(C)(C)C1=CC=C(C=C1)C(=O)CCCN1CCC(CC1)OC(C1=CC=CC=C1)C1=CC=CC=C1
InChI: InChI=1S/C32H39NO2/c1-32(2,3)28-18-16-25(17-19-28)30(34)15-10-22-33-23-20-29(21-24-33)35-31(26-11-6-4-7-12-26)27-13-8-5-9-14-27/h4-9,11-14,16-19,29,31H,10,15,20-24H2,1-3H3
Instrument: LTQ Orbitrap XL Thermo Scientific
Instrument type: LC-ESI-ITFT
Ms type: MS2
Ion mode: POSITIVE
Ionization: ESI
Fragmentation mode: HCD
Collision energy: 30 % (nominal)
Resolution: 15000
Column name: Kinetex Evo C18 2.6 um 50 x 2.1 mm
Retention time: 11.349 min
Base peak: 470.3052
Precursor m/z: 470.3054
Precursor type: [M+H]+
Precursor intensity: 12969034
m/z	relative intensity	assigned
167.0856	999	C13H11+
203.143	435	C14H19O+
284.2	2	C19H26NO+
302.2113	22	C19H28NO2+
470.3041	174	C32H40NO2+
