Mass spectrum: Metoprolol acid; LC-ESI-ITFT; MS2; CE: 50%; R=15000; [M+H]+
Name: Metoprolol acid
Name: 2-[4-[2-hydroxy-3-(propan-2-ylamino)propoxy]phenyl]acetic acid
Formula: C14H21NO4
Exact mass: 267.147058152
SMILES: CC(C)NCC(O)COC1=CC=C(CC(O)=O)C=C1
InChI: InChI=1S/C14H21NO4/c1-10(2)15-8-12(16)9-19-13-5-3-11(4-6-13)7-14(17)18/h3-6,10,12,15-16H,7-9H2,1-2H3,(H,17,18)
Instrument: LTQ Orbitrap XL Thermo Scientific
Instrument type: LC-ESI-ITFT
Ms type: MS2
Ion mode: POSITIVE
Ionization: ESI
Fragmentation mode: HCD
Collision energy: 50 % (nominal)
Resolution: 15000
Column name: Kinetex Evo C18 2.6 um 50 x 2.1 mm
Retention time: 1.032 min
Base peak: 235.1817
Precursor m/z: 268.1543
Precursor type: [M+H]+
Precursor intensity: 16525449
m/z	relative intensity	assigned
56.0493	420	C3H6N+
58.0649	45	C3H8N+
60.0806	10	C3H10N+
72.0807	557	C4H10N+
74.06	373	C3H8NO+
79.0542	4	C6H7+
81.0697	4	C6H9+
84.0808	15	C5H10N+
86.0965	7	C5H12N+
91.0543	40	C7H7+
93.0699	5	C7H9+
95.0493	11	C6H7O+
98.0965	451	C6H12N+
100.112	12	C6H14N+
107.0493	18	C7H7O+
109.0649	21	C7H9O+
116.1071	371	C6H14NO+
117.07	12	C9H9+
119.0492	53	C8H7O+
123.0441	10	C7H7O2+
133.0649	20	C9H9O+
137.0598	58	C8H9O2+
145.0649	999	C10H9O+
147.0439	5	C9H7O2+
162.0915	29	C10H12NO+
163.0755	51	C10H11O2+
165.0548	394	C9H9O3+
179.0704	36	C10H11O3+
191.0705	902	C11H11O3+
204.1392	3	C13H18NO+
208.0967	11	C11H14NO3+
209.0817	3	C11H13O4+
226.1076	234	C11H16NO4+
250.1443	31	C14H20NO3+
268.1547	454	C14H22NO4+
