Mass spectrum: 4-Methylbenzylidene camphor; LC-ESI-ITFT; MS2; CE: 40%; R=15000; [M+H]+
Name: 4-Methylbenzylidene camphor
Name: 1,7,7-trimethyl-3-[(4-methylphenyl)methylidene]bicyclo[2.2.1]heptan-2-one
Formula: C18H22O
Exact mass: 254.167065324
SMILES: CC1=CC=C(C=C2C3CCC(C)(C2=O)C3(C)C)C=C1
InChI: InChI=1S/C18H22O/c1-12-5-7-13(8-6-12)11-14-15-9-10-18(4,16(14)19)17(15,2)3/h5-8,11,15H,9-10H2,1-4H3
Instrument: LTQ Orbitrap XL Thermo Scientific
Instrument type: LC-ESI-ITFT
Ms type: MS2
Ion mode: POSITIVE
Ionization: ESI
Fragmentation mode: HCD
Collision energy: 40 % (nominal)
Resolution: 15000
Column name: Kinetex Evo C18 2.6 um 50 x 2.1 mm
Retention time: 13.558 min
Base peak: 255.1748
Precursor m/z: 255.1743
Precursor type: [M+H]+
Precursor intensity: 25738378
m/z	relative intensity	assigned
67.0539	5	C5H7+
69.0332	10	C4H5O+
69.0696	26	C5H9+
81.0697	17	C6H9+
83.0491	8	C5H7O+
83.0854	19	C6H11+
85.0647	28	C5H9O+
93.0698	15	C7H9+
95.0854	44	C7H11+
97.0647	424	C6H9O+
99.0803	16	C6H11O+
105.0697	265	C8H9+
107.0854	19	C8H11+
109.0645	7	C7H9O+
109.101	76	C8H13+
111.0803	338	C7H11O+
117.0697	5	C9H9+
119.0489	107	C8H7O+
119.0853	152	C9H11+
121.0646	11	C8H9O+
121.101	32	C9H13+
123.0803	35	C8H11O+
123.1167	15	C9H15+
125.0961	7	C8H13O+
131.0853	100	C10H11+
133.101	29	C10H13+
135.0801	11	C9H11O+
135.1165	29	C10H15+
137.096	37	C9H13O+
143.0853	84	C11H11+
145.101	151	C11H13+
147.0801	8	C10H11O+
147.1167	53	C11H15+
149.0957	12	C10H13O+
155.0855	23	C12H11+
156.094	3	C12H12+
157.101	404	C12H13+
159.0804	28	C11H11O+
159.1166	106	C12H15+
163.1115	117	C11H15O+
169.101	62	C13H13+
171.0802	79	C12H11O+
171.1166	375	C13H15+
173.0958	51	C12H13O+
173.1329	5	C13H17+
181.101	38	C14H13+
183.1166	173	C14H15+
185.0959	135	C13H13O+
185.1321	40	C14H17+
186.1036	5	C13H14O+
187.1116	21	C13H15O+
193.1009	9	C15H13+
194.1087	5	C15H14+
195.1166	259	C15H15+
197.1322	170	C15H17+
199.1114	256	C14H15O+
207.1167	7	C16H15+
208.1244	29	C16H16+
209.1322	61	C16H17+
211.1114	46	C15H15O+
211.1479	70	C16H19+
212.1193	461	C15H16O+
213.1271	343	C15H17O+
213.1634	39	C16H21+
222.1399	32	C17H18+
226.1352	9	C16H18O+
227.1427	77	C16H19O+
227.1794	44	C17H23+
237.1635	333	C18H21+
240.1506	9	C17H20O+
255.174	999	C18H23O+
