Mass spectrum: Labetalol; LC-ESI-ITFT; MS2; CE: 40%; R=15000; [M+H]+
Name: Labetalol
Name: 2-hydroxy-5-[1-hydroxy-2-(4-phenylbutan-2-ylamino)ethyl]benzamide
Formula: C19H24N2O3
Exact mass: 328.178692628
SMILES: CC(CCC1=CC=CC=C1)NCC(O)C1=CC(C(N)=O)=C(O)C=C1
InChI: InChI=1S/C19H24N2O3/c1-13(7-8-14-5-3-2-4-6-14)21-12-18(23)15-9-10-17(22)16(11-15)19(20)24/h2-6,9-11,13,18,21-23H,7-8,12H2,1H3,(H2,20,24)
Instrument: LTQ Orbitrap XL Thermo Scientific
Instrument type: LC-ESI-ITFT
Ms type: MS2
Ion mode: POSITIVE
Ionization: ESI
Fragmentation mode: HCD
Collision energy: 40 % (nominal)
Resolution: 15000
Column name: Kinetex Evo C18 2.6 um 50 x 2.1 mm
Retention time: 7.162 min
Base peak: 329.187
Precursor m/z: 329.186
Precursor type: [M+H]+
Precursor intensity: 43695192
m/z	relative intensity	assigned
91.0542	539	C7H7+
133.1012	20	C10H13+
134.06	8	C8H8NO+
136.0755	4	C8H10NO+
144.0442	3	C9H6NO+
147.0441	16	C9H7O2+
148.1123	3	C10H14N+
161.0593	5	C10H9O2+
162.055	999	C9H8NO2+
164.0706	101	C9H10NO2+
165.0549	8	C9H9O3+
179.0816	228	C9H11N2O2+
180.066	7	C9H10NO3+
190.0863	132	C11H12NO2+
207.1128	193	C11H15N2O2+
252.102	5	C16H14NO2+
294.149	388	C19H20NO2+
311.1755	172	C19H23N2O2+
312.1592	11	C19H22NO3+
