Mass spectrum: Propranolol; LC-ESI-ITFT; MS2; CE: 70%; R=15000; [M+H]+
Name: Propranolol
Name: 1-naphthalen-1-yloxy-3-(propan-2-ylamino)propan-2-ol
Formula: C16H21NO2
Exact mass: 259.157228912
SMILES: CC(C)NCC(O)COC1=C2C=CC=CC2=CC=C1
InChI: InChI=1S/C16H21NO2/c1-12(2)17-10-14(18)11-19-16-9-5-7-13-6-3-4-8-15(13)16/h3-9,12,14,17-18H,10-11H2,1-2H3
Instrument: LTQ Orbitrap XL Thermo Scientific
Instrument type: LC-ESI-ITFT
Ms type: MS2
Ion mode: POSITIVE
Ionization: ESI
Fragmentation mode: HCD
Collision energy: 70 % (nominal)
Resolution: 15000
Column name: Kinetex Evo C18 2.6 um 50 x 2.1 mm
Retention time: 7.010 min
Base peak: 180.1752
Precursor m/z: 260.1645
Precursor type: [M+H]+
Precursor intensity: 106144.84
m/z	relative intensity	assigned
56.0495	766	C3H6N+
58.0653	141	C3H8N+
72.081	525	C4H10N+
74.0603	999	C3H8NO+
116.1075	435	C6H14NO+
155.0862	673	C12H11+
157.0652	287	C11H9O+
