Mass spectrum: Irgarol; LC-ESI-ITFT; MS2; CE: 40%; R=15000; [M+H]+
Name: Irgarol
Name: Cybutryne
Name: 2-N-tert-butyl-4-N-cyclopropyl-6-methylsulfanyl-1,3,5-triazine-2,4-diamine
Formula: C11H19N5S
Exact mass: 253.136116608
SMILES: CSC1=NC(NC2CC2)=NC(NC(C)(C)C)=N1
InChI: InChI=1S/C11H19N5S/c1-11(2,3)16-9-13-8(12-7-5-6-7)14-10(15-9)17-4/h7H,5-6H2,1-4H3,(H2,12,13,14,15,16)
Instrument: LTQ Orbitrap XL Thermo Scientific
Instrument type: LC-ESI-ITFT
Ms type: MS2
Ion mode: POSITIVE
Ionization: ESI
Fragmentation mode: HCD
Collision energy: 40 % (nominal)
Resolution: 15000
Column name: Kinetex Evo C18 2.6 um 50 x 2.1 mm
Retention time: 10.360 min
Base peak: 254.1441
Precursor m/z: 254.1434
Precursor type: [M+H]+
Precursor intensity: 30237826
m/z	relative intensity	assigned
56.0493	1	C3H6N+
57.0696	1	C4H9+
58.065	1	C3H8N+
83.0604	4	C4H7N2+
91.0324	11	C2H7N2S+
108.0557	3	C5H6N3+
116.0277	1	C3H6N3S+
125.0821	6	C5H9N4+
150.0774	1	C6H8N5+
156.0341	1	C4H6N5S+
156.0592	2	C6H10N3S+
170.0498	2	C5H8N5S+
198.0809	999	C7H12N5S+
254.1434	321	C11H20N5S+
