Mass spectrum: Propoxycarbazone; LC-ESI-ITFT; MS2; CE: 80; R=15000; [M+H]+
Name: Propoxycarbazone
Name: 2-[(4-Methyl-5-oxo-3-propoxy-1,2,4-triazole-1-carbonyl)sulfamoyl]benzoate-methyl
Formula: C15H18N4O7S
Exact mass: 398.0896
SMILES: CCCOC1=NN(C(=O)NS(=O)(=O)C2=CC=CC=C2C(=O)OC)C(=O)N1C
InChI: InChI=1S/C15H18N4O7S/c1-4-9-26-14-16-19(15(22)18(14)2)13(21)17-27(23,24)11-8-6-5-7-10(11)12(20)25-3/h5-8H,4,9H2,1-3H3,(H,17,21)
Instrument: LTQ Orbitrap XL Thermo Scientific
Instrument type: LC-ESI-ITFT
Ms type: MS2
Ion mode: POSITIVE
Ionization: ESI
Fragmentation mode: HCD
Collision energy: 80 (nominal)
Resolution: 15000
Column name: Kinetex Core-Shell C18 2.6 um, 3.0 x 100 mm, Phenomenex
Retention time: 22.275 min
Base peak: 202.0852
Precursor m/z: 399.0969
Precursor type: [M+H]+
m/z	relative intensity	assigned
77.0385	403	C6H5+
79.0543	41	C6H7+
90.0338	359	C6H4N+
105.0446	188	C6H5N2+
116.0454	999	C3H6N3O2+
120.0203	51	C7H4O2+
135.0439	231	C8H7O2+
