Mass spectrum: Metamitron; LC-ESI-ITFT; MS2; CE: 35%; R=30000; [M+H]+
Name: Metamitron
Name: 4-Amino-3-methyl-6-phenyl-1,2,4-triazin-5-one
Formula: C10H10N4O
Exact mass: 202.0855
SMILES: Cc1nnc(c(=O)n1N)c2ccccc2
InChI: InChI=1S/C10H10N4O/c1-7-12-13-9(10(15)14(7)11)8-5-3-2-4-6-8/h2-6H,11H2,1H3
Instrument: LTQ Orbitrap XL Thermo Scientific
Instrument type: LC-ESI-ITFT
Ms type: MS2
Ion mode: POSITIVE
Ionization: ESI
Fragmentation mode: CID
Collision energy: 35 % (nominal)
Resolution: 30000
Column name: Accucore PhenylHexyl 2.6um, 3x150mm, Thermo
Retention time: 19.187 min
Base peak: 203.0922
Precursor m/z: 203.0927
Precursor type: [M+H]+
m/z	relative intensity	assigned
79.0543	24	C6H7+
104.0495	50	C7H6N+
106.0652	82	C7H8N+
130.0652	43	C9H8N+
145.0396	44	C8H5N2O+
158.06	10	C10H8NO+
174.0788	158	C10H10N2O+
175.0867	21	C10H11N2O+
175.0978	207	C9H11N4+
186.0663	10	C10H8N3O+
203.0927	999	C10H11N4O+
