Mass spectrum: Warfarin; LC-ESI-ITFT; MS2; CE: 70%; R=15000; [M+H]+
Name: Warfarin
Name: 4-hydroxy-3-(3-oxo-1-phenylbutyl)chromen-2-one
Formula: C19H16O4
Exact mass: 308.104858992
SMILES: CC(=O)CC(C1=CC=CC=C1)C1=C(O)C2=CC=CC=C2OC1=O
InChI: InChI=1S/C19H16O4/c1-12(20)11-15(13-7-3-2-4-8-13)17-18(21)14-9-5-6-10-16(14)23-19(17)22/h2-10,15,21H,11H2,1H3
Instrument: LTQ Orbitrap XL Thermo Scientific
Instrument type: LC-ESI-ITFT
Ms type: MS2
Ion mode: POSITIVE
Ionization: ESI
Fragmentation mode: HCD
Collision energy: 70 % (nominal)
Resolution: 15000
Column name: Kinetex Evo C18 2.6 um 50 x 2.1 mm
Retention time: 11.253 min
Base peak: 309.1127
Precursor m/z: 309.1121
Precursor type: [M+H]+
Precursor intensity: 39873476
m/z	relative intensity	assigned
65.0383	9	C5H5+
68.9969	10	C3HO2+
77.0385	61	C6H5+
91.0542	53	C7H7+
93.0334	23	C6H5O+
95.0491	65	C6H7O+
103.0542	45	C8H7+
105.0335	13	C7H5O+
105.0697	8	C8H9+
107.0489	7	C7H7O+
111.0442	2	C6H7O2+
119.049	13	C8H7O+
121.0283	582	C7H5O2+
128.062	8	C10H8+
129.0335	9	C9H5O+
129.0698	106	C10H9+
130.0412	11	C9H6O+
131.049	156	C9H7O+
139.0388	10	C7H7O3+
141.0697	5	C11H9+
143.0852	5	C11H11+
145.0284	11	C9H5O2+
147.0803	95	C10H11O+
152.0621	4	C12H8+
153.0698	10	C12H9+
155.0855	376	C12H11+
157.0283	48	C10H5O2+
163.0389	999	C9H7O3+
165.0699	36	C13H9+
167.0855	103	C13H11+
171.0804	13	C12H11O+
173.0232	240	C10H5O3+
175.039	13	C10H7O3+
177.0697	10	C14H9+
178.0777	59	C14H10+
179.0855	31	C14H11+
181.0653	7	C13H9O+
183.0804	338	C13H11O+
189.0544	24	C11H9O3+
191.0338	330	C10H7O4+
195.0802	30	C14H11O+
205.0494	9	C11H9O4+
205.0646	49	C15H9O+
223.0752	210	C15H11O2+
233.0596	63	C16H9O2+
249.0545	13	C16H9O3+
251.0702	420	C16H11O3+
