Mass spectrum: Trifloxystrobin; LC-ESI-ITFT; MS2; CE: 50%; R=15000; [M+H]+
Name: Trifloxystrobin
Name: methyl (2E)-2-methoxyimino-2-[2-[[(E)-1-[3-(trifluoromethyl)phenyl]ethylideneamino]oxymethyl]phenyl]acetate
Formula: C20H19F3N2O4
Exact mass: 408.129691748
SMILES: CO\N=C(\C(=O)OC)C1=C(CO\N=C(/C)C2=CC=CC(=C2)C(F)(F)F)C=CC=C1
InChI: InChI=1S/C20H19F3N2O4/c1-13(14-8-6-9-16(11-14)20(21,22)23)24-29-12-15-7-4-5-10-17(15)18(25-28-3)19(26)27-2/h4-11H,12H2,1-3H3/b24-13+,25-18+
Instrument: LTQ Orbitrap XL Thermo Scientific
Instrument type: LC-ESI-ITFT
Ms type: MS2
Ion mode: POSITIVE
Ionization: ESI
Fragmentation mode: HCD
Collision energy: 50 % (nominal)
Resolution: 15000
Column name: Kinetex Evo C18 2.6 um 50 x 2.1 mm
Retention time: 13.183 min
Base peak: 409.1375
Precursor m/z: 409.137
Precursor type: [M+H]+
Precursor intensity: 11915940
m/z	relative intensity	assigned
91.0543	29	C7H7+
103.0544	2	C8H7+
105.07	24	C8H9+
115.0545	3	C9H7+
116.0496	258	C8H6N+
117.0575	44	C8H7N+
118.0652	50	C8H8N+
119.0492	14	C8H7O+
130.0654	16	C9H8N+
131.0731	235	C9H9N+
132.0445	24	C8H6NO+
132.0809	106	C9H10N+
133.0522	3	C8H7NO+
134.0601	5	C8H8NO+
143.0368	9	C9H5NO+
145.0261	136	C7H4F3+
146.0602	144	C9H8NO+
147.068	30	C9H9NO+
148.0758	8	C9H10NO+
161.0472	18	C9H7NO2+
162.0917	5	C10H12NO+
163.0365	3	C7H6F3O+
173.0323	136	C7H4F3N2+
174.0547	5	C10H8NO2+
175.0633	13	C10H9NO2+
178.0864	8	C10H12NO2+
186.0527	999	C9H7F3N+
187.0562	10	C9H9F2O2+
206.0814	77	C11H12NO3+
253	31	C14F3N2+
254.0032	52	C17HFNO+
254.9971	25	C13H2FNO4+
