Mass spectrum: Pendimethalin; LC-ESI-ITFT; MS2; CE: 60%; R=15000; [M+H]+
Name: Pendimethalin
Name: 3,4-dimethyl-2,6-dinitro-N-pentan-3-ylaniline
Formula: C13H19N3O4
Exact mass: 281.137556088
SMILES: CCC(CC)NC1=C(C(C)=C(C)C=C1[N+]([O-])=O)[N+]([O-])=O
InChI: InChI=1S/C13H19N3O4/c1-5-10(6-2)14-12-11(15(17)18)7-8(3)9(4)13(12)16(19)20/h7,10,14H,5-6H2,1-4H3
Instrument: LTQ Orbitrap XL Thermo Scientific
Instrument type: LC-ESI-ITFT
Ms type: MS2
Ion mode: POSITIVE
Ionization: ESI
Fragmentation mode: HCD
Collision energy: 60 % (nominal)
Resolution: 15000
Column name: Kinetex Evo C18 2.6 um 50 x 2.1 mm
Retention time: 13.718 min
Base peak: 282.1452
Precursor m/z: 282.1448
Precursor type: [M+H]+
Precursor intensity: 5672277.5
m/z	relative intensity	assigned
53.0384	86	C4H5+
66.0339	136	C4H4N+
66.0462	63	C5H6+
67.0418	56	C4H5N+
71.0856	228	C5H11+
78.0339	177	C5H4N+
80.0497	221	C5H6N+
91.0419	744	C6H5N+
92.0498	286	C6H6N+
96.0447	67	C5H6NO+
103.0417	163	C7H5N+
105.0449	137	C6H5N2+
108.0448	96	C6H6NO+
117.045	116	C7H5N2+
118.0528	586	C7H6N2+
119.0607	640	C7H7N2+
120.0444	112	C7H6NO+
121.0396	73	C6H5N2O+
126.0552	114	C6H8NO2+
130.0528	162	C8H6N2+
131.0479	78	C7H5N3+
131.0607	172	C8H7N2+
135.0556	141	C7H7N2O+
147.0556	524	C8H7N2O+
148.0634	999	C8H8N2O+
149.0589	341	C7H7N3O+
160.0507	173	C8H6N3O+
164.0584	140	C8H8N2O2+
165.0658	75	C8H9N2O2+
176.0454	81	C8H6N3O2+
177.0537	414	C8H7N3O2+
178.0615	564	C8H8N3O2+
194.0564	745	C8H8N3O3+
195.0645	442	C8H9N3O3+
212.0674	214	C8H10N3O4+
