Mass spectrum: Naproxen; LC-ESI-ITFT; MS2; CE: 55; R=15000; [M+H]+
Name: Naproxen
Name: 2-(6-Methoxynaphthalen-2-yl)propanoic acid
Formula: C14H14O3
Exact mass: 230.0943
SMILES: COC1=CC2=CC=C(C=C2C=C1)C(C)C(O)=O
InChI: InChI=1S/C14H14O3/c1-9(14(15)16)10-3-4-12-8-13(17-2)6-5-11(12)7-10/h3-9H,1-2H3,(H,15,16)
Instrument: LTQ Orbitrap XL Thermo Scientific
Instrument type: LC-ESI-ITFT
Ms type: MS2
Ion mode: POSITIVE
Ionization: ESI
Fragmentation mode: HCD
Collision energy: 55 (nominal)
Resolution: 15000
Column name: Kinetex Core-Shell C18 2.6 um, 3.0 x 100 mm, Phenomenex
Retention time: 24.337 min
Base peak: 204.1382
Precursor m/z: 231.1016
Precursor type: [M+H]+
m/z	relative intensity	assigned
115.0544	3	C9H7+
128.062	1	C10H8+
129.0701	5	C10H9+
142.078	7	C11H10+
143.0491	1	C10H7O+
152.0626	2	C12H8+
153.0701	58	C12H9+
154.0779	77	C12H10+
155.0857	64	C12H11+
156.0569	7	C11H8O+
157.065	8	C11H9O+
158.0728	79	C11H10O+
169.0649	5	C12H9O+
170.0728	260	C12H10O+
181.0763	12	C12H9N2+
185.0963	999	C13H13O+
189.1021	9	C11H13N2O+
201.1031	2	C12H13N2O+
