Mass spectrum: Butylparaben; LC-ESI-ITFT; MS2; CE: 80; R=15000; [M+H]+
Name: Butylparaben
Name: 4-Hydroxybenzoate-butyl
Formula: C11H14O3
Exact mass: 194.0943
SMILES: CCCCOC(=O)C1=CC=C(O)C=C1
InChI: InChI=1S/C11H14O3/c1-2-3-8-14-11(13)9-4-6-10(12)7-5-9/h4-7,12H,2-3,8H2,1H3
Instrument: LTQ Orbitrap XL Thermo Scientific
Instrument type: LC-ESI-ITFT
Ms type: MS2
Ion mode: POSITIVE
Ionization: ESI
Fragmentation mode: HCD
Collision energy: 80 (nominal)
Resolution: 15000
Column name: Kinetex Core-Shell C18 2.6 um, 3.0 x 100 mm, Phenomenex
Retention time: 24.665 min
Base peak: 341.2101
Precursor m/z: 195.1016
Precursor type: [M+H]+
m/z	relative intensity	assigned
77.0384	83	C6H5+
83.0602	999	C4H7N2+
95.049	299	C6H7O+
109.0395	404	C5H5N2O+
111.0551	134	C5H7N2O+
121.0282	345	C7H5O2+
