Mass spectrum: 2,6-Xylidine; LC-ESI-ITFT; MS2; CE: 80; R=15000; [M+H]+
Name: 2,6-Xylidine
Name: 2,6-Dimethylaniline
Formula: C8H11N
Exact mass: 121.0891
SMILES: CC1=CC=CC(C)=C1N
InChI: InChI=1S/C8H11N/c1-6-4-3-5-7(2)8(6)9/h3-5H,9H2,1-2H3
Instrument: LTQ Orbitrap XL Thermo Scientific
Instrument type: LC-ESI-ITFT
Ms type: MS2
Ion mode: POSITIVE
Ionization: ESI
Fragmentation mode: HCD
Collision energy: 80 (nominal)
Resolution: 15000
Column name: Kinetex Core-Shell C18 2.6 um, 3.0 x 100 mm, Phenomenex
Retention time: 13.256 min
Base peak: 163.1334
Precursor m/z: 122.0964
Precursor type: [M+H]+
m/z	relative intensity	assigned
77.0389	76	C6H5+
79.0545	182	C6H7+
105.0703	999	C8H9+
106.0655	17	C7H8N+
107.0733	312	C7H9N+
120.0814	8	C8H10N+
122.0969	456	C8H12N+
133.0766	30	C8H9N2+
