Mass spectrum: Cyproterone; LC-ESI-ITFT; MS2; CE: 50%; R=15000; [M+H]+
Name: Cyproterone
Name: (1S,2S,3S,5R,11R,12S,15R,16S)-15-acetyl-9-chloro-15-hydroxy-2,16-dimethylpentacyclo[9.7.0.02,8.03,5.012,16]octadeca-7,9-dien-6-one
Formula: C22H27ClO3
Exact mass: 374.164872404
SMILES: CC(=O)[C@@]1(O)CC[C@H]2[C@@H]3C=C(Cl)C4=CC(=O)[C@@H]5C[C@@H]5[C@]4(C)[C@H]3CC[C@]12C
InChI: InChI=1S/C22H27ClO3/c1-11(24)22(26)7-5-14-12-9-18(23)17-10-19(25)13-8-16(13)21(17,3)15(12)4-6-20(14,22)2/h9-10,12-16,26H,4-8H2,1-3H3/t12-,13+,14-,15-,16-,20-,21-,22-/m0/s1
Instrument: LTQ Orbitrap XL Thermo Scientific
Instrument type: LC-ESI-ITFT
Ms type: MS2
Ion mode: POSITIVE
Ionization: ESI
Fragmentation mode: HCD
Collision energy: 50 % (nominal)
Resolution: 15000
Column name: Kinetex Evo C18 2.6 um 50 x 2.1 mm
Retention time: 11.744 min
Base peak: 303.232
Precursor m/z: 375.1721
Precursor type: [M+H]+
Precursor intensity: 9443394
m/z	relative intensity	assigned
55.0176	29	C3H3O+
55.0541	33	C4H7+
59.0491	51	C3H7O+
61.0282	67	C2H5O2+
67.0541	82	C5H7+
69.0334	58	C4H5O+
69.0699	42	C5H9+
79.0544	54	C6H7+
81.07	158	C6H9+
83.0492	129	C5H7O+
85.0649	135	C5H9O+
87.0442	369	C4H7O2+
91.0543	82	C7H7+
93.0701	236	C7H9+
95.0494	110	C6H7O+
95.0857	161	C7H11+
97.0651	108	C6H9O+
105.07	285	C8H9+
107.0857	308	C8H11+
109.065	228	C7H9O+
109.1013	108	C8H13+
111.0806	271	C7H11O+
117.0702	75	C9H9+
119.0857	346	C9H11+
121.065	241	C8H9O+
121.1014	237	C9H13+
123.0805	148	C8H11O+
129.0702	94	C10H9+
131.0857	287	C10H11+
133.1014	746	C10H13+
135.0805	117	C9H11O+
135.1172	81	C10H15+
137.0961	48	C9H13O+
141.0471	34	C8H10Cl+
141.0701	36	C11H9+
142.0778	40	C11H10+
143.0858	220	C11H11+
145.065	169	C10H9O+
145.1014	385	C11H13+
147.0805	210	C10H11O+
147.117	736	C11H15+
149.0961	116	C10H13O+
151.1119	104	C10H15O+
155.026	91	C8H8ClO+
155.0857	200	C12H11+
157.1014	362	C12H13+
159.0807	260	C11H11O+
159.1169	208	C12H15+
161.096	114	C11H13O+
163.1122	133	C11H15O+
165.0462	65	C10H10Cl+
167.0259	44	C9H8ClO+
167.0854	76	C13H11+
169.0421	75	C9H10ClO+
169.1012	201	C13H13+
171.0805	138	C12H11O+
171.1173	193	C13H15+
173.0964	84	C12H13O+
173.1331	28	C13H17+
175.1119	459	C12H15O+
177.0467	224	C11H10Cl+
177.1276	71	C12H17O+
179.0261	61	C10H8ClO+
179.0853	55	C14H11+
181.0417	334	C10H10ClO+
181.0782	43	C11H14Cl+
181.1015	144	C14H13+
182.1081	30	C14H14+
183.0578	56	C10H12ClO+
183.0806	100	C13H11O+
183.117	234	C14H15+
184.0885	85	C13H12O+
185.0963	392	C13H13O+
185.1332	78	C14H17+
187.112	100	C13H15O+
189.0461	69	C12H10Cl+
189.1276	62	C13H17O+
191.026	103	C11H8ClO+
191.0622	153	C12H12Cl+
193.0417	152	C11H10ClO+
193.1016	203	C15H13+
195.0574	98	C11H12ClO+
195.1172	347	C15H15+
196.125	58	C15H16+
197.0964	76	C14H13O+
197.1329	148	C15H17+
199.1115	95	C14H15O+
201.0461	40	C13H10Cl+
201.128	83	C14H17O+
203.0626	122	C13H12Cl+
205.0416	157	C12H10ClO+
205.0777	37	C13H14Cl+
205.1014	127	C16H13+
207.0575	119	C12H12ClO+
207.117	275	C16H15+
209.0958	134	C15H13O+
209.1326	227	C16H17+
211.1121	140	C15H15O+
211.1486	59	C16H19+
215.0621	51	C14H12Cl+
217.0781	105	C14H14Cl+
217.1007	48	C17H13+
218.1088	40	C17H14+
219.0573	947	C13H12ClO+
219.1169	198	C17H15+
220.1252	46	C17H16+
221.0735	111	C13H14ClO+
221.0966	77	C16H13O+
221.1328	214	C17H17+
222.1034	41	C16H14O+
223.112	172	C16H15O+
223.1484	167	C17H19+
224.12	36	C16H16O+
225.1278	86	C16H17O+
229.078	64	C15H14Cl+
231.0933	92	C15H16Cl+
231.1175	57	C18H15+
232.1251	53	C18H16+
233.0731	43	C14H14ClO+
233.1326	260	C18H17+
234.1406	42	C18H18+
235.0876	63	C14H16ClO+
235.1114	150	C17H15O+
235.1485	306	C18H19+
236.1196	93	C17H16O+
237.1275	241	C17H17O+
237.164	103	C18H21+
238.135	81	C17H18O+
239.1433	104	C17H19O+
241.0771	28	C16H14Cl+
243.0943	52	C16H16Cl+
245.0732	152	C15H14ClO+
245.1095	67	C16H18Cl+
245.1331	93	C19H17+
246.1403	88	C19H18+
247.1478	157	C19H19+
248.1196	42	C18H16O+
249.1282	136	C18H17O+
249.164	180	C19H21+
250.1354	83	C18H18O+
250.1722	100	C19H22+
251.1435	331	C18H19O+
251.18	127	C19H23+
253.1585	99	C18H21O+
257.1087	39	C17H18Cl+
259.0881	72	C16H16ClO+
259.1489	111	C20H19+
260.1559	84	C20H20+
261.1286	58	C19H17O+
261.1637	275	C20H21+
262.1352	86	C19H18O+
263.1432	612	C19H19O+
264.1515	83	C19H20O+
265.1587	112	C19H21O+
269.1092	55	C18H18Cl+
270.1409	34	C21H18+
273.104	86	C17H18ClO+
275.142	34	C20H19O+
275.1801	131	C21H23+
277.1591	557	C20H21O+
278.1669	420	C20H22O+
279.1744	999	C20H23O+
281.1094	29	C19H18Cl+
285.1045	68	C18H18ClO+
287.1201	89	C18H20ClO+
288.1512	52	C21H20O+
293.1535	317	C20H21O2+
293.1904	107	C21H25O+
299.1197	119	C19H20ClO+
303.1741	207	C22H23O+
306.1606	121	C21H22O2+
313.1355	323	C20H22ClO+
314.1436	235	C20H23ClO+
315.1514	119	C20H24ClO+
321.185	565	C22H25O2+
329.1677	32	C21H26ClO+
357.1612	70	C22H26ClO2+
375.1715	128	C22H28ClO3+
