Mass spectrum: Azoxystrobin; LC-ESI-ITFT; MS2; CE: 80%; R=15000; [M+H]+
Name: Azoxystrobin
Name: methyl (E)-2-[2-[6-(2-cyanophenoxy)pyrimidin-4-yl]oxyphenyl]-3-methoxy-prop-2-enoate
Name: methyl 2-[2-[6-(2-cyanophenoxy)pyrimidin-4-yl]oxyphenyl]-3-methoxyprop-2-enoate
Formula: C22H17N3O5
Exact mass: 403.116820644
SMILES: COC=C(C(=O)OC)C1=C(OC2=NC=NC(OC3=C(C=CC=C3)C#N)=C2)C=CC=C1
InChI: InChI=1S/C22H17N3O5/c1-27-13-17(22(26)28-2)16-8-4-6-10-19(16)30-21-11-20(24-14-25-21)29-18-9-5-3-7-15(18)12-23/h3-11,13-14H,1-2H3
Instrument: LTQ Orbitrap XL Thermo Scientific
Instrument type: LC-ESI-ITFT
Ms type: MS2
Ion mode: POSITIVE
Ionization: ESI
Fragmentation mode: HCD
Collision energy: 80 % (nominal)
Resolution: 15000
Column name: Kinetex Evo C18 2.6 um 50 x 2.1 mm
Retention time: 11.262 min
Base peak: 292.1221
Precursor m/z: 404.1241
Precursor type: [M+H]+
Precursor intensity: 17580142
m/z	relative intensity	assigned
89.0385	48	C7H5+
103.0418	18	C7H5N+
104.0493	52	C7H6N+
105.0574	32	C7H7N+
114.0339	40	C8H4N+
115.0417	30	C8H5N+
116.0495	60	C8H6N+
117.0334	28	C8H5O+
119.0367	16	C7H5NO+
120.0443	44	C7H6NO+
127.0414	28	C9H5N+
128.0492	31	C9H6N+
129.034	28	C9H5O+
129.0447	181	C8H5N2+
130.0284	17	C8H4NO+
130.0399	127	C7H4N3+
132.044	21	C8H6NO+
133.0522	147	C8H7NO+
134.0601	125	C8H8NO+
141.0448	56	C9H5N2+
143.0367	39	C9H5NO+
143.0603	61	C9H7N2+
144.0444	83	C9H6NO+
145.0283	24	C9H5O2+
145.0523	96	C9H7NO+
146.0236	44	C8H4NO2+
155.0369	20	C10H5NO+
155.0605	53	C10H7N2+
156.0443	656	C10H6NO+
157.0284	16	C10H5O2+
169.0391	22	C10H5N2O+
170.0478	30	C10H6N2O+
171.0553	111	C10H7N2O+
172.0393	999	C10H6NO2+
182.0474	42	C11H6N2O+
183.0553	273	C11H7N2O+
197.0351	16	C11H5N2O2+
199.0502	132	C11H7N2O2+
200.0342	269	C11H6NO3+
201.0422	54	C11H7NO3+
210.0426	57	C12H6N2O2+
211.0496	29	C12H7N2O2+
245.0705	36	C16H9N2O+
246.0786	21	C16H10N2O+
272.0818	109	C17H10N3O+
273.0662	57	C17H9N2O2+
274.0741	19	C17H10N2O2+
300.0765	120	C18H10N3O2+
301.0834	29	C18H11N3O2+
328.0717	174	C19H10N3O3+
329.0792	33	C19H11N3O3+
