Mass spectrum: Atrazine; ESI-ITFT; MS2; CE: 35%; R=30000; [M+H]+
Name: Atrazine
Name: 6-chloro-4-N-ethyl-2-N-propan-2-yl-1,3,5-triazine-2,4-diamine
Formula: C8H14ClN5
Exact mass: 215.0938
SMILES: CCNc1nc(nc(n1)Cl)NC(C)C
InChI: InChI=1S/C8H14ClN5/c1-4-10-7-12-6(9)13-8(14-7)11-5(2)3/h5H,4H2,1-3H3,(H2,10,11,12,13,14)
Instrument: LTQ Orbitrap XL Thermo Scientific
Instrument type: ESI-ITFT
Ms type: MS2
Ion mode: POSITIVE
Ionization: ESI
Fragmentation mode: CID
Collision energy: 35 % (nominal)
Resolution: 30000
Column name: N/A
Retention time: N/A min
Base peak: 216.101
Precursor m/z: 216.101
Precursor type: [M+H]+
m/z	relative intensity	assigned
68.0242	4	C2H2N3+
79.0057	3	CH4ClN2+
96.0556	22	C4H6N3+
104.001	15	C2H3ClN3+
132.0323	7	C4H7ClN3+
138.0774	3	C5H8N5+
138.1026	18	C7H12N3+
146.0228	11	C3H5ClN5+
146.048	10	C5H9ClN3+
174.0541	999	C5H9ClN5+
180.1243	2	C8H14N5+
188.0697	7	C6H11ClN5+
216.101	422	C8H15ClN5+
