Mass spectrum: 7-Diethylamino-4-methylcoumarin; LC-ESI-ITFT; MS2; CE: 50%; R=15000; [M+H]+
Name: 7-Diethylamino-4-methylcoumarin
Name: 7-(diethylamino)-4-methylchromen-2-one
Formula: C14H17NO2
Exact mass: 231.125928784
SMILES: CCN(CC)C1=CC=C2C(C)=CC(=O)OC2=C1
InChI: InChI=1S/C14H17NO2/c1-4-15(5-2)11-6-7-12-10(3)8-14(16)17-13(12)9-11/h6-9H,4-5H2,1-3H3
Instrument: LTQ Orbitrap XL Thermo Scientific
Instrument type: LC-ESI-ITFT
Ms type: MS2
Ion mode: POSITIVE
Ionization: ESI
Fragmentation mode: HCD
Collision energy: 50 % (nominal)
Resolution: 15000
Column name: Kinetex Evo C18 2.6 um 50 x 2.1 mm
Retention time: 11.301 min
Base peak: 232.134
Precursor m/z: 232.1332
Precursor type: [M+H]+
Precursor intensity: 49409348
m/z	relative intensity	assigned
68.013	4	C3H2NO+
96.0445	9	C5H6NO+
132.0807	3	C9H10N+
134.0967	1	C9H12N+
144.081	6	C10H10N+
148.1121	2	C10H14N+
158.0963	2	C11H12N+
159.104	2	C11H13N+
160.0757	6	C10H10NO+
160.1123	6	C11H14N+
172.1116	1	C12H14N+
174.0913	2	C11H12NO+
175.0628	9	C10H9NO2+
175.0993	68	C11H13NO+
176.0708	16	C10H10NO2+
176.1071	19	C11H14NO+
176.1434	16	C12H18N+
186.1275	1	C13H16N+
188.0707	276	C11H10NO2+
188.1435	18	C13H18N+
189.1154	2	C12H15NO+
202.0865	16	C12H12NO2+
203.0942	999	C12H13NO2+
204.1019	329	C12H14NO2+
217.11	4	C13H15NO2+
232.1333	949	C14H18NO2+
