Mass spectrum: Tamoxifen; LC-ESI-ITFT; MS2; CE: 30%; R=15000; [M+H]+
Name: Tamoxifen
Name: 2-[4-[(Z)-1,2-diphenylbut-1-enyl]phenoxy]-N,N-dimethylethanamine
Formula: C26H29NO
Exact mass: 371.224914548
SMILES: CC\C(=C(/C1=CC=CC=C1)C1=CC=C(OCCN(C)C)C=C1)C1=CC=CC=C1
InChI: InChI=1S/C26H29NO/c1-4-25(21-11-7-5-8-12-21)26(22-13-9-6-10-14-22)23-15-17-24(18-16-23)28-20-19-27(2)3/h5-18H,4,19-20H2,1-3H3/b26-25-
Instrument: LTQ Orbitrap XL Thermo Scientific
Instrument type: LC-ESI-ITFT
Ms type: MS2
Ion mode: POSITIVE
Ionization: ESI
Fragmentation mode: HCD
Collision energy: 30 % (nominal)
Resolution: 15000
Column name: Kinetex Evo C18 2.6 um 50 x 2.1 mm
Retention time: 10.962 min
Base peak: 372.2328
Precursor m/z: 372.2322
Precursor type: [M+H]+
Precursor intensity: 36657664
m/z	relative intensity	assigned
72.0806	999	C4H10N+
107.0491	2	C7H7O+
129.0699	24	C10H9+
167.0856	4	C13H11+
207.1168	17	C16H15+
209.0964	8	C15H13O+
221.0966	2	C16H13O+
249.1276	5	C18H17O+
271.1125	1	C20H15O+
298.1348	1	C22H18O+
299.1429	2	C22H19O+
300.1507	3	C22H20O+
327.1745	14	C24H23O+
372.2322	621	C26H30NO+
