Mass spectrum: Tricresylphosphate; LC-ESI-ITFT; MS2; CE: 40%; R=15000; [M+H]+
Name: Tricresylphosphate
Name: Tricresyl phosphate
Name: tris(4-methylphenyl) phosphate
Formula: C21H21O4P
Exact mass: 368.117745782
SMILES: CC1=CC=C(OP(=O)(OC2=CC=C(C)C=C2)OC2=CC=C(C)C=C2)C=C1
InChI: InChI=1S/C21H21O4P/c1-16-4-10-19(11-5-16)23-26(22,24-20-12-6-17(2)7-13-20)25-21-14-8-18(3)9-15-21/h4-15H,1-3H3
Instrument: LTQ Orbitrap XL Thermo Scientific
Instrument type: LC-ESI-ITFT
Ms type: MS2
Ion mode: POSITIVE
Ionization: ESI
Fragmentation mode: HCD
Collision energy: 40 % (nominal)
Resolution: 15000
Column name: Kinetex Evo C18 2.6 um 50 x 2.1 mm
Retention time: 13.959 min
Base peak: 369.1262
Precursor m/z: 369.125
Precursor type: [M+H]+
Precursor intensity: 57246580
m/z	relative intensity	assigned
79.0541	13	C6H7+
91.0543	141	C7H7+
105.0702	4	C8H9+
107.0492	149	C7H7O+
109.0649	24	C7H9O+
141.07	11	C11H9+
153.0101	8	C7H6O2P+
153.07	37	C12H9+
154.0178	7	C7H7O2P+
155.0257	5	C7H8O2P+
165.07	162	C13H9+
166.0778	548	C13H10+
179.0856	53	C14H11+
180.0934	8	C14H12+
181.1013	200	C14H13+
187.0154	3	C7H8O4P+
189.0313	45	C7H10O4P+
196.0875	3	C14H12O+
197.0962	11	C14H13O+
199.1119	71	C14H15O+
233.0724	4	C13H14O2P+
241.1013	18	C19H13+
243.0571	170	C14H12O2P+
255.1173	5	C20H15+
256.1249	132	C20H16+
261.0677	398	C14H14O3P+
263.0839	3	C14H16O3P+
271.1482	14	C21H19+
275.0834	7	C15H16O3P+
277.0629	6	C14H14O4P+
279.0782	136	C14H16O4P+
333.1054	5	C21H18O2P+
351.1145	8	C21H20O3P+
369.1251	999	C21H22O4P+
