Mass spectrum: Fluoxastrobin; LC-ESI-ITFT; MS2; CE: 70%; R=15000; [M+H]+
Name: Fluoxastrobin
Name: (E)-1-[2-[6-(2-chlorophenoxy)-5-fluoropyrimidin-4-yl]oxyphenyl]-1-(5,6-dihydro-1,4,2-dioxazin-3-yl)-N-methoxymethanimine
Formula: C21H16ClFN4O5
Exact mass: 458.079325512
SMILES: CO\N=C(\C1=NOCCO1)C1=C(OC2=C(F)C(OC3=C(Cl)C=CC=C3)=NC=N2)C=CC=C1
InChI: InChI=1S/C21H16ClFN4O5/c1-28-26-18(21-27-30-11-10-29-21)13-6-2-4-8-15(13)31-19-17(23)20(25-12-24-19)32-16-9-5-3-7-14(16)22/h2-9,12H,10-11H2,1H3/b26-18+
Instrument: LTQ Orbitrap XL Thermo Scientific
Instrument type: LC-ESI-ITFT
Ms type: MS2
Ion mode: POSITIVE
Ionization: ESI
Fragmentation mode: HCD
Collision energy: 70 % (nominal)
Resolution: 15000
Column name: Kinetex Evo C18 2.6 um 50 x 2.1 mm
Retention time: 11.951 min
Base peak: 330.0811
Precursor m/z: 459.0866
Precursor type: [M+H]+
Precursor intensity: 5257151.5
m/z	relative intensity	assigned
75.0228	20	CH2FN3+
77.0385	27	C6H5+
78.0338	20	C5H4N+
90.0338	110	C6H4N+
92.0256	16	C6H4O+
92.0495	12	C6H6N+
93.0335	38	C6H5O+
98.9996	21	C5H4Cl+
102.0336	14	C7H4N+
103.0413	12	C7H5N+
104.026	6	C7H4O+
104.0368	6	C6H4N2+
104.0497	20	C7H6N+
105.0335	43	C7H5O+
105.0447	32	C6H5N2+
106.0288	19	C6H4NO+
107.0292	19	C7H4F+
110.9995	43	C6H4Cl+
111.0442	7	C6H7O2+
112.0073	11	C6H5Cl+
115.0416	13	C8H5N+
116.0368	10	C7H4N2+
117.0447	13	C7H5N2+
118.0525	17	C7H6N2+
119.0366	37	C7H5NO+
120.0443	74	C7H6NO+
121.0318	9	C7H4FN+
122.04	67	C7H5FN+
123.0354	33	C6H4FN2+
128.0024	27	C6H5ClO+
129.0098	26	CH5ClFN3O+
129.0447	192	C8H5N2+
130.0287	70	C8H4NO+
130.04	283	C7H4N3+
132.0245	12	C8H3FN+
132.0445	11	C8H6NO+
133.0322	47	C8H4FN+
134.0401	31	C8H5FN+
138.0105	349	C7H5ClN+
138.9945	64	C7H4ClO+
139.0057	460	C6H4ClN2+
140.99	17	C7H3ClF+
144.0318	30	C5H7ClN3+
145.0396	110	C8H5N2O+
146.0236	37	C5H7ClN2O+
147.0351	23	C8H4FN2+
148.0431	10	C8H5FN2+
149.0275	28	C5H7ClFN2+
150.035	397	C8H5FNO+
151.0052	13	C7H4ClN2+
154.9896	9	C7H4ClO2+
157.0402	7	C6H8ClN3+
159.0352	29	C9H4FN2+
160.0266	24	C8H4N2O2+
160.043	44	C9H5FN2+
161.027	21	C9H4FNO+
161.0345	35	C8H5N2O2+
162.0349	24	C9H5FNO+
162.0426	12	C8H6N2O2+
164.0342	49	C8H6NO3+
168.0011	97	C8H4ClFN+
169.0398	16	C10H5N2O+
174.0471	10	C14H6+
175.0303	49	C9H4FN2O+
178.0299	182	C9H5FNO2+
188.038	999	C10H5FN2O+
191.0249	17	C9H4FN2O2+
197.0636	14	C13H8FN+
223.0671	10	C14H8FN2+
225.0585	24	C14H8FNO+
230.036	58	C11H5FN3O2+
250.0525	5	C15H7FN2O+
252.0687	8	C18H8N2+
315.0346	5	C16H9ClFN2O2+
340.0259	8	C20H7ClN3O+
