Mass spectrum: Norgestrel; LC-ESI-ITFT; MS2; CE: 20%; R=15000; [M+H]+
Name: Norgestrel
Name: (8R,9S,10R,13S,14S)-13-ethyl-17-ethynyl-17-hydroxy-1,2,6,7,8,9,10,11,12,14,15,16-dodecahydrocyclopenta[a]phenanthren-3-one
Formula: C21H28O2
Exact mass: 312.208930136
SMILES: [H][C@@]12CCC(O)(C#C)[C@@]1(CC)CC[C@]1([H])[C@@]3([H])CCC(=O)C=C3CC[C@@]21[H]
InChI: InChI=1S/C21H28O2/c1-3-20-11-9-17-16-8-6-15(22)13-14(16)5-7-18(17)19(20)10-12-21(20,23)4-2/h2,13,16-19,23H,3,5-12H2,1H3/t16-,17+,18+,19-,20-,21?/m0/s1
Instrument: LTQ Orbitrap XL Thermo Scientific
Instrument type: LC-ESI-ITFT
Ms type: MS2
Ion mode: POSITIVE
Ionization: ESI
Fragmentation mode: HCD
Collision energy: 20 % (nominal)
Resolution: 15000
Column name: Kinetex Evo C18 2.6 um 50 x 2.1 mm
Retention time: 11.655 min
Base peak: 313.2161
Precursor m/z: 313.2162
Precursor type: [M+H]+
Precursor intensity: 5937474.5
m/z	relative intensity	assigned
95.0855	2	C7H11+
107.0489	1	C7H7O+
109.0643	5	C7H9O+
119.0852	2	C9H11+
125.0958	2	C8H13O+
131.0852	2	C10H11+
133.1012	4	C10H13+
135.1165	1	C10H15+
145.1007	1	C11H13+
157.1009	2	C12H13+
159.1161	3	C12H15+
163.1113	2	C11H15O+
183.1165	2	C14H15+
185.1319	4	C14H17+
187.1477	3	C14H19+
189.1271	2	C13H17O+
199.1471	3	C15H19+
203.1426	1	C14H19O+
209.132	1	C16H17+
213.1265	1	C15H17O+
237.1634	3	C18H21+
239.1422	2	C17H19O+
241.158	1	C17H21O+
245.1893	23	C17H25O+
253.1582	1	C18H21O+
255.1738	1	C18H23O+
277.1948	5	C21H25+
295.2048	30	C21H27O+
313.2152	999	C21H29O2+
