Mass spectrum: Picolinafen; LC-ESI-ITFT; MS2; CE: 40%; R=15000; [M+H]+
Name: Picolinafen
Name: N-(4-fluorophenyl)-6-[3-(trifluoromethyl)phenoxy]pyridine-2-carboxamide
Formula: C19H12F4N2O2
Exact mass: 376.083490504
SMILES: FC1=CC=C(NC(=O)C2=NC(OC3=CC=CC(=C3)C(F)(F)F)=CC=C2)C=C1
InChI: InChI=1S/C19H12F4N2O2/c20-13-7-9-14(10-8-13)24-18(26)16-5-2-6-17(25-16)27-15-4-1-3-12(11-15)19(21,22)23/h1-11H,(H,24,26)
Instrument: LTQ Orbitrap XL Thermo Scientific
Instrument type: LC-ESI-ITFT
Ms type: MS2
Ion mode: POSITIVE
Ionization: ESI
Fragmentation mode: HCD
Collision energy: 40 % (nominal)
Resolution: 15000
Column name: Kinetex Evo C18 2.6 um 50 x 2.1 mm
Retention time: 13.618 min
Base peak: 116.986
Precursor m/z: 377.0908
Precursor type: [M+H]+
Precursor intensity: 1238731.12
m/z	relative intensity	assigned
236.0523	28	C12H8F2NO2+
238.0478	424	C12H7F3NO+
256.0584	999	C12H9F3NO2+
266.0433	16	C13H7F3NO2+
270.0732	17	C13H11F3NO2+
337.0779	6	C19H11F2N2O2+
359.0802	227	C19H11F4N2O+
