Mass spectrum: Paroxetine; LC-ESI-ITFT; MS2; CE: 80; R=15000; [M+H]+
Name: Paroxetine
Name: 3-(1,3-Benzodioxol-5-yloxymethyl)-4-(4-fluorophenyl)piperidine
Formula: C19H20FNO3
Exact mass: 329.1427
SMILES: FC1=CC=C(C=C1)C1CCNCC1COC1=CC2=C(OCO2)C=C1
InChI: InChI=1S/C19H20FNO3/c20-15-3-1-13(2-4-15)17-7-8-21-10-14(17)11-22-16-5-6-18-19(9-16)24-12-23-18/h1-6,9,14,17,21H,7-8,10-12H2
Instrument: LTQ Orbitrap XL Thermo Scientific
Instrument type: LC-ESI-ITFT
Ms type: MS2
Ion mode: POSITIVE
Ionization: ESI
Fragmentation mode: HCD
Collision energy: 80 (nominal)
Resolution: 15000
Column name: Kinetex Core-Shell C18 2.6 um, 3.0 x 100 mm, Phenomenex
Retention time: 21.605 min
Base peak: 330.1499
Precursor m/z: 330.15
Precursor type: [M+H]+
m/z	relative intensity	assigned
70.0651	999	C4H8N+
82.0653	51	C5H8N+
83.073	9	C5H9N+
84.0809	10	C5H10N+
93.0337	34	C6H5O+
96.0809	12	C6H10N+
103.0543	133	C8H7+
109.0285	66	C6H5O2+
109.0449	535	C7H6F+
115.0544	69	C9H7+
123.0443	25	C7H7O2+
123.0606	316	C8H8F+
133.0449	64	C9H6F+
135.0606	775	C9H8F+
136.0685	119	C9H9F+
143.0859	9	C11H11+
147.0607	89	C10H8F+
148.0685	100	C10H9F+
149.0765	35	C10H10F+
150.0717	52	C9H9FN+
151.0392	133	C8H7O3+
161.0763	116	C11H10F+
163.092	128	C11H12F+
164.0876	19	C10H11FN+
175.0917	8	C12H12F+
178.1027	15	C11H13FN+
192.1186	68	C12H15FN+
