Mass spectrum: Lauryl diethanolamide; LC-ESI-ITFT; MS2; CE: 20%; R=15000; [M+H]+
Name: Lauryl diethanolamide
Name: N,N-bis(2-hydroxyethyl)dodecanamide
Formula: C16H33NO3
Exact mass: 287.246043916
SMILES: CCCCCCCCCCCC(=O)N(CCO)CCO
InChI: InChI=1S/C16H33NO3/c1-2-3-4-5-6-7-8-9-10-11-16(20)17(12-14-18)13-15-19/h18-19H,2-15H2,1H3
Instrument: LTQ Orbitrap XL Thermo Scientific
Instrument type: LC-ESI-ITFT
Ms type: MS2
Ion mode: POSITIVE
Ionization: ESI
Fragmentation mode: HCD
Collision energy: 20 % (nominal)
Resolution: 15000
Column name: Kinetex Evo C18 2.6 um 50 x 2.1 mm
Retention time: 12.837 min
Base peak: 288.2537
Precursor m/z: 288.2533
Precursor type: [M+H]+
Precursor intensity: 36984632
m/z	relative intensity	assigned
70.0648	10	C4H8N+
88.0755	176	C4H10NO+
106.0861	617	C4H12NO2+
227.2003	80	C14H27O2+
270.2425	17	C16H32NO2+
288.2528	999	C16H34NO3+
