Mass spectrum: Linuron; LC-ESI-ITFT; MS2; CE: 35; R=15000; [M+H]+
Name: Linuron
Name: 3-(3,4-Dichlorophenyl)-1-methoxy-1-methylurea
Formula: C9H10Cl2N2O2
Exact mass: 248.0119
SMILES: CON(C)C(=O)NC1=CC=C(Cl)C(Cl)=C1
InChI: InChI=1S/C9H10Cl2N2O2/c1-13(15-2)9(14)12-6-3-4-7(10)8(11)5-6/h3-5H,1-2H3,(H,12,14)
Instrument: LTQ Orbitrap XL Thermo Scientific
Instrument type: LC-ESI-ITFT
Ms type: MS2
Ion mode: POSITIVE
Ionization: ESI
Fragmentation mode: CID
Collision energy: 35 (nominal)
Resolution: 15000
Column name: Kinetex Core-Shell C18 2.6 um, 3.0 x 100 mm, Phenomenex
Retention time: 24.574 min
Base peak: 226.0894
Precursor m/z: 249.0192
Precursor type: [M+H]+
m/z	relative intensity	assigned
60.0441	14	C2H6NO+
159.9715	532	C6H4Cl2N+
181.0164	6	C8H6ClN2O+
182.0241	999	C8H7ClN2O+
187.9664	125	C7H4Cl2NO+
216.9929	22	C8H7Cl2N2O+
218.0009	29	C8H8Cl2N2O+
