Mass spectrum: Tetracain; LC-ESI-ITFT; MS2; CE: 90%; R=15000; [M+H]+
Name: Tetracain
Name: Tetracaine
Name: 2-(dimethylamino)ethyl 4-(butylamino)benzoate
Formula: C15H24N2O2
Exact mass: 264.183778008
SMILES: CCCCNC1=CC=C(C=C1)C(=O)OCCN(C)C
InChI: InChI=1S/C15H24N2O2/c1-4-5-10-16-14-8-6-13(7-9-14)15(18)19-12-11-17(2)3/h6-9,16H,4-5,10-12H2,1-3H3
Instrument: LTQ Orbitrap XL Thermo Scientific
Instrument type: LC-ESI-ITFT
Ms type: MS2
Ion mode: POSITIVE
Ionization: ESI
Fragmentation mode: HCD
Collision energy: 90 % (nominal)
Resolution: 15000
Column name: Kinetex Evo C18 2.6 um 50 x 2.1 mm
Retention time: 7.272 min
Base peak: 265.1919
Precursor m/z: 265.1911
Precursor type: [M+H]+
Precursor intensity: 38824324
m/z	relative intensity	assigned
55.054	4	C4H7+
56.0493	9	C3H6N+
57.0571	9	C3H7N+
57.0697	45	C4H9+
65.0384	84	C5H5+
70.065	46	C4H8N+
72.0807	819	C4H10N+
79.0542	25	C6H7+
91.0544	20	C7H7+
92.0495	641	C6H6N+
93.0572	9	C6H7N+
93.0698	6	C7H9+
94.0651	14	C6H8N+
105.0573	260	C7H7N+
106.0652	113	C7H8N+
110.0601	51	C6H8NO+
118.0652	35	C8H8N+
119.073	26	C8H9N+
119.0856	4	C9H11+
120.0444	461	C7H6NO+
131.0857	5	C10H11+
132.0811	10	C9H10N+
133.0521	5	C8H7NO+
133.0887	18	C9H11N+
146.0963	4	C10H12N+
148.1122	40	C10H14N+
176.1071	999	C11H14NO+
220.1332	7	C13H18NO2+
