Mass spectrum: 2,8-Phenazinediamine; LC-ESI-QFT; MS2; CE: 50%; R=35000; [M+H]+
Name: 2,8-Phenazinediamine
Name: 2,8-Diaminophenazine
Name: Phenazine-2,8-diamine
Formula: C12H10N4
Exact mass: 210.0905
SMILES: c1cc2c(cc1N)nc3cc(ccc3n2)N
InChI: InChI=1S/C12H10N4/c13-7-1-3-9-11(5-7)16-12-6-8(14)2-4-10(12)15-9/h1-6H,13-14H2
Instrument: Q Exactive Plus Orbitrap Thermo Scientific
Instrument type: LC-ESI-QFT
Ms type: MS2
Ion mode: POSITIVE
Ionization: ESI
Fragmentation mode: HCD
Collision energy: 50 % (nominal)
Resolution: 35000
Column name: Accucore PhenylHexyl 2.6um, 3x150mm, Thermo
Retention time: 17.188 min
Base peak: 211.0976
Precursor m/z: 211.0978
Precursor type: [M+H]+
m/z	relative intensity	assigned
184.0866	39	C11H10N3+
194.0711	58	C12H8N3+
210.0898	23	C12H10N4+
211.0975	999	C12H11N4+
