Mass spectrum: Flusilazole; LC-ESI-ITFT; MS2; CE: 80; R=15000; [M+H]+
Name: Flusilazole
Name: Bis(4-fluorophenyl)-methyl-(1,2,4-triazol-1-ylmethyl)silane
Formula: C16H15F2N3Si
Exact mass: 315.1003
SMILES: C[Si](CN1C=NC=N1)(C1=CC=C(F)C=C1)C1=CC=C(F)C=C1
InChI: InChI=1S/C16H15F2N3Si/c1-22(12-21-11-19-10-20-21,15-6-2-13(17)3-7-15)16-8-4-14(18)5-9-16/h2-11H,12H2,1H3
Instrument: LTQ Orbitrap XL Thermo Scientific
Instrument type: LC-ESI-ITFT
Ms type: MS2
Ion mode: POSITIVE
Ionization: ESI
Fragmentation mode: HCD
Collision energy: 80 (nominal)
Resolution: 15000
Column name: Kinetex Core-Shell C18 2.6 um, 3.0 x 100 mm, Phenomenex
Retention time: 25.585 min
Base peak: 316.107
Precursor m/z: 316.1076
Precursor type: [M+H]+
m/z	relative intensity	assigned
70.0399	27	C2H4N3+
79.001	39	CH4FOSi+
79.0542	44	C6H7+
80.9966	17	CH3F2Si+
91.0542	177	C7H7+
95.0491	25	C6H7O+
105.0447	91	C6H5N2+
105.0698	98	C8H9+
109.0447	197	C2H5F2N3+
125.0217	65	C6H6FSi+
127.0123	47	C4H4FN2Si+
129.0701	4	C10H9+
131.0601	3	C8H7N2+
141.0167	61	C6H6FOSi+
141.07	18	C11H9+
143.0126	7	C6H5F2Si+
149.0219	22	C8H6FSi+
151.0374	40	C8H8FSi+
152.0621	191	C12H8+
153.0699	72	C12H9+
155.0606	18	C10H7N2+
157.028	73	C7H7F2Si+
159.0074	3	C6H5F2OSi+
164.0622	77	C13H8+
165.0699	999	C13H9+
166.0775	16	C8H9FN3+
167.0324	52	
169.048	55	C8H10FOSi+
171.0442	10	C8H9F2Si+
175.0224	6	C10H3F2N+
179.0856	19	C14H11+
181.0759	7	C12H9N2+
185.0761	91	C13H10F+
199.0379	25	C12H8FSi+
217.0284	13	C12H7F2Si+
217.0482	29	C12H10FOSi+
219.0437	150	C12H9F2Si+
225.0533	3	C14H10FSi+
227.0687	9	C14H12FSi+
231.0438	6	C13H9F2Si+
232.0513	2	C13H10F2Si+
245.0793	3	C14H14FOSi+
