Mass spectrum: Anastrozole; LC-ESI-ITFT; MS2; CE: 90%; R=15000; [M+H]+
Name: Anastrozole
Name: 2-[3-(2-cyanopropan-2-yl)-5-(1,2,4-triazol-1-ylmethyl)phenyl]-2-methylpropanenitrile
Formula: C17H19N5
Exact mass: 293.164045608
SMILES: CC(C)(C#N)C1=CC(=CC(CN2C=NC=N2)=C1)C(C)(C)C#N
InChI: InChI=1S/C17H19N5/c1-16(2,9-18)14-5-13(8-22-12-20-11-21-22)6-15(7-14)17(3,4)10-19/h5-7,11-12H,8H2,1-4H3
Instrument: LTQ Orbitrap XL Thermo Scientific
Instrument type: LC-ESI-ITFT
Ms type: MS2
Ion mode: POSITIVE
Ionization: ESI
Fragmentation mode: HCD
Collision energy: 90 % (nominal)
Resolution: 15000
Column name: Kinetex Evo C18 2.6 um 50 x 2.1 mm
Retention time: 9.081 min
Base peak: 294.1724
Precursor m/z: 294.1713
Precursor type: [M+H]+
Precursor intensity: 37115860
m/z	relative intensity	assigned
57.0697	9	C4H9+
68.0494	11	C4H6N+
91.0543	76	C7H7+
103.0543	21	C8H7+
105.0699	7	C8H9+
115.0543	308	C9H7+
116.0496	20	C8H6N+
116.0622	46	C9H8+
117.0574	14	C8H7N+
117.07	22	C9H9+
118.0648	5	C8H8N+
128.0622	46	C10H8+
129.07	315	C10H9+
130.0653	37	C9H8N+
130.0778	365	C10H10+
131.0856	140	C10H11+
140.0497	18	C10H6N+
141.0575	20	C10H7N+
141.07	112	C11H9+
142.0652	999	C10H8N+
143.0726	55	C10H9N+
143.0856	81	C11H11+
144.0806	10	C10H10N+
144.0933	4	C11H12+
145.1013	4	C11H13+
153.0575	23	C11H7N+
154.0653	60	C11H8N+
155.0605	12	C10H7N2+
155.073	63	C11H9N+
155.0856	14	C12H11+
156.0809	118	C11H10N+
156.0935	51	C12H12+
157.0887	282	C11H11N+
158.0964	45	C11H12N+
158.109	4	C12H14+
165.0699	9	C13H9+
167.0732	40	C12H9N+
168.0809	482	C12H10N+
169.0762	25	C11H9N2+
169.0879	13	C12H11N+
170.0966	78	C12H12N+
171.1044	4	C12H13N+
171.1171	31	C13H15+
182.0841	4	C12H10N2+
182.0966	73	C13H12N+
183.1044	123	C13H13N+
184.1123	9	C13H14N+
195.0919	549	C13H11N2+
198.1279	88	C14H16N+
209.1075	507	C14H13N2+
210.1154	747	C14H14N2+
225.1388	615	C15H17N2+
