Mass spectrum: 5-Chlorobenzotriazole; LC-ESI-ITFT; MS2; CE: 60%; R=15000; [M+H]+
Name: 5-Chlorobenzotriazole
Name: 5-chloro-2H-benzotriazole
Formula: C6H4ClN3
Exact mass: 153.009374808
SMILES: ClC1=CC2=NNN=C2C=C1
InChI: InChI=1S/C6H4ClN3/c7-4-1-2-5-6(3-4)9-10-8-5/h1-3H,(H,8,9,10)
Instrument: LTQ Orbitrap XL Thermo Scientific
Instrument type: LC-ESI-ITFT
Ms type: MS2
Ion mode: POSITIVE
Ionization: ESI
Fragmentation mode: HCD
Collision energy: 60 % (nominal)
Resolution: 15000
Column name: Kinetex Evo C18 2.6 um 50 x 2.1 mm
Retention time: 7.278 min
Base peak: 154.0166
Precursor m/z: 154.0167
Precursor type: [M+H]+
Precursor intensity: 21053186
m/z	relative intensity	assigned
72.9837	3	C3H2Cl+
90.0336	110	C6H4N+
91.0414	16	C6H5N+
98.9994	143	C5H4Cl+
126.0102	86	C6H5ClN+
154.0163	999	C6H5ClN3+
