Mass spectrum: Oxazepam; LC-ESI-ITFT; MS2; CE: 70%; R=15000; [M+H]+
Name: Oxazepam
Name: 7-chloro-3-hydroxy-5-phenyl-1,3-dihydro-1,4-benzodiazepin-2-one
Formula: C15H11ClN2O2
Exact mass: 286.050905272
SMILES: OC1N=C(C2=CC=CC=C2)C2=C(NC1=O)C=CC(Cl)=C2
InChI: InChI=1S/C15H11ClN2O2/c16-10-6-7-12-11(8-10)13(9-4-2-1-3-5-9)18-15(20)14(19)17-12/h1-8,15,20H,(H,17,19)
Instrument: LTQ Orbitrap XL Thermo Scientific
Instrument type: LC-ESI-ITFT
Ms type: MS2
Ion mode: POSITIVE
Ionization: ESI
Fragmentation mode: HCD
Collision energy: 70 % (nominal)
Resolution: 15000
Column name: Kinetex Evo C18 2.6 um 50 x 2.1 mm
Retention time: 10.194 min
Base peak: 287.0591
Precursor m/z: 287.0582
Precursor type: [M+H]+
Precursor intensity: 17547636
m/z	relative intensity	assigned
77.0387	8	C6H5+
79.0543	6	C6H7+
93.0574	97	C6H7N+
95.0497	1	C3H10ClN+
104.0496	682	C7H6N+
105.045	4	C6H5N2+
117.0452	1	C7H5N2+
118.0527	19	C7H6N2+
126.0107	10	C6H5ClN+
128.0263	190	C6H7ClN+
129.0449	3	C8H5N2+
138.0107	43	C7H5ClN+
139.006	9	C6H4ClN2+
152.0141	4	C7H5ClN2+
152.0617	1	C12H8+
153.0216	189	C7H6ClN2+
156.0213	5	C7H7ClNO+
163.006	204	C8H4ClN2+
164.001	5	C10N2O+
166.0057	35	C8H5ClNO+
178.0653	6	C13H8N+
179.0008	1	C8H4ClN2O+
179.0737	4	C13H9N+
180.0812	1	C13H10N+
181.0167	5	C8H6ClN2O+
181.089	2	C13H11N+
195.092	30	C13H11N2+
205.0762	10	C14H9N2+
206.0843	7	C14H10N2+
207.0682	19	C11H12ClN2+
214.0422	24	C13H9ClN+
216.0575	2	C13H11ClN+
224.0261	1	C14H7ClN+
229.0531	35	C13H10ClN2+
231.0688	153	C13H12ClN2+
239.0381	4	C14H8ClN2+
240.0449	1	C14H9ClN2+
241.0531	999	C14H10ClN2+
242.0368	6	C14H9ClNO+
257.048	37	C14H10ClN2O+
269.0482	17	C15H10ClN2O+
