Mass spectrum: Pyrazophos; LC-ESI-ITFT; MS2; CE: 55; R=15000; [M+H]+
Name: Pyrazophos
Name: 2-Diethoxyphosphinothioyloxy-5-methylpyrazolo[1,5-a]pyrimidine-6-carboxylate-ethyl
Formula: C14H20N3O5PS
Exact mass: 373.0861
SMILES: CCOC(=O)C1=CN2N=C(OP(=S)(OCC)OCC)C=C2N=C1C
InChI: InChI=1S/C14H20N3O5PS/c1-5-19-14(18)11-9-17-12(15-10(11)4)8-13(16-17)22-23(24,20-6-2)21-7-3/h8-9H,5-7H2,1-4H3
Instrument: LTQ Orbitrap XL Thermo Scientific
Instrument type: LC-ESI-ITFT
Ms type: MS2
Ion mode: POSITIVE
Ionization: ESI
Fragmentation mode: HCD
Collision energy: 55 (nominal)
Resolution: 15000
Column name: Kinetex Core-Shell C18 2.6 um, 3.0 x 100 mm, Phenomenex
Retention time: 26.552 min
Base peak: 374.0929
Precursor m/z: 374.0934
Precursor type: [M+H]+
m/z	relative intensity	assigned
80.9736	2	H2O3P+
96.9508	62	H2O2PS+
98.984	2	H4O4P+
113.9535	78	H3O3PS+
114.9613	93	H4O3PS+
133.0637	2	C7H7N3+
139.0501	1	C6H7N2O2+
148.0507	16	C7H6N3O+
149.0342	1	C7H5N2O2+
150.0665	2	C7H8N3O+
151.0506	2	C3H10N3O2P+
155.0475	1	C4H12O4P+
159.0429	9	C2H11N2O4S+
165.0118	4	C7H5N2OS+
166.0613	16	C7H8N3O2+
167.0454	1	C3H10N3O3P+
170.0162	1	C4H11O3PS+
176.0456	233	C8H6N3O2+
177.0296	9	C8H5N2O3+
177.0534	105	C8H7N3O2+
178.0607	2	C8H8N3O2+
183.0224	66	C7H7N2O2S+
192.0228	20	C8H6N3OS+
194.0561	999	C8H8N3O3+
195.0592	7	C5H14N3OPS+
205.0847	60	C10H11N3O2+
208.0178	28	C8H6N3O2S+
209.0382	7	C5H12N3O2PS+
210.0333	83	C8H8N3O2S+
222.0874	393	C10H12N3O3+
236.0491	21	C10H10N3O2S+
238.0646	45	C10H12N3O2S+
253.9786	12	C8H5N3O3PS+
256.0125	7	C8H7N3O5P+
271.9893	28	C8H7N3O4PS+
300.0206	10	C10H11N3O4PS+
