Mass spectrum: Sulfapyridine; LC-ESI-ITFT; MS2; CE: 90%; R=15000; [M+H]+
Name: Sulfapyridine
Name: 4-amino-N-pyridin-2-ylbenzenesulfonamide
Formula: C11H11N3O2S
Exact mass: 249.057197592
SMILES: NC1=CC=C(C=C1)S(=O)(=O)NC1=NC=CC=C1
InChI: InChI=1S/C11H11N3O2S/c12-9-4-6-10(7-5-9)17(15,16)14-11-3-1-2-8-13-11/h1-8H,12H2,(H,13,14)
Instrument: LTQ Orbitrap XL Thermo Scientific
Instrument type: LC-ESI-ITFT
Ms type: MS2
Ion mode: POSITIVE
Ionization: ESI
Fragmentation mode: HCD
Collision energy: 90 % (nominal)
Resolution: 15000
Column name: Kinetex Evo C18 2.6 um 50 x 2.1 mm
Retention time: 1.683 min
Base peak: 250.0655
Precursor m/z: 250.0645
Precursor type: [M+H]+
Precursor intensity: 8514793
m/z	relative intensity	assigned
65.0385	341	C5H5+
66.0338	5	C4H4N+
67.0416	41	C4H5N+
78.0338	12	C5H4N+
80.0495	70	C5H6N+
92.0496	999	C6H6N+
93.0448	38	C5H5N2+
93.0574	69	C6H7N+
94.0526	101	C5H6N2+
95.0604	357	C5H7N2+
96.0445	15	C5H6NO+
108.0445	664	C6H6NO+
110.0601	87	C6H8NO+
120.0558	13	C6H6N3+
156.0114	9	C6H6NO2S+
157.0764	9	C10H9N2+
167.0606	74	C11H7N2+
168.0684	21	C11H8N2+
169.0766	3	C11H9N2+
183.0793	24	C11H9N3+
184.0871	113	C11H10N3+
