Mass spectrum: Pendimethalin; LC-ESI-ITFT; MS2; CE: 80; R=15000; [M+H]+
Name: Pendimethalin
Name: 3,4-Dimethyl-2,6-dinitro-N-pentan-3-ylaniline
Formula: C13H19N3O4
Exact mass: 281.1376
SMILES: CCC(CC)NC1=C(C=C(C)C(C)=C1[N+]([O-])=O)[N+]([O-])=O
InChI: InChI=1S/C13H19N3O4/c1-5-10(6-2)14-12-11(15(17)18)7-8(3)9(4)13(12)16(19)20/h7,10,14H,5-6H2,1-4H3
Instrument: LTQ Orbitrap XL Thermo Scientific
Instrument type: LC-ESI-ITFT
Ms type: MS2
Ion mode: POSITIVE
Ionization: ESI
Fragmentation mode: HCD
Collision energy: 80 (nominal)
Resolution: 15000
Column name: Kinetex Core-Shell C18 2.6 um, 3.0 x 100 mm, Phenomenex
Retention time: 27.954 min
Base peak: 282.1445
Precursor m/z: 282.1448
Precursor type: [M+H]+
m/z	relative intensity	assigned
77.0385	154	C6H5+
78.0338	273	C5H4N+
79.0417	33	C5H5N+
80.0494	203	C5H6N+
81.0571	25	C5H7N+
90.0339	81	C6H4N+
91.0416	504	C6H5N+
92.0494	654	C6H6N+
93.0446	76	C5H5N2+
93.0573	120	C6H7N+
96.0444	47	C5H6NO+
103.0416	356	C7H5N+
104.0366	67	C6H4N2+
104.0495	262	C7H6N+
105.0446	457	C6H5N2+
106.0285	35	C6H4NO+
106.065	60	C7H8N+
107.0602	54	C6H7N2+
110.06	102	C6H8NO+
117.0447	162	C7H5N2+
117.0572	106	C8H7N+
118.0526	198	C7H6N2+
118.0652	127	C8H8N+
119.0603	999	C7H7N2+
120.0192	106	C5H2N3O+
120.0443	158	C7H6NO+
120.0682	226	C7H8N2+
121.0397	69	C6H5N2O+
122.0474	54	C6H6N2O+
126.0544	35	C6H8NO2+
129.0447	174	C8H5N2+
130.04	118	C7H4N3+
130.0526	77	C8H6N2+
131.0476	47	C7H5N3+
131.0603	308	C8H7N2+
132.0556	139	C7H6N3+
133.0398	82	C7H5N2O+
134.0601	40	C8H8NO+
135.0552	85	C7H7N2O+
136.063	49	C7H8N2O+
147.0553	299	C8H7N2O+
148.0631	825	C8H8N2O+
149.0586	57	C7H7N3O+
160.0508	103	C8H6N3O+
163.05	47	C8H7N2O2+
164.0584	37	C8H8N2O2+
176.046	49	C8H6N3O2+
177.0533	70	C8H7N3O2+
178.061	171	C8H8N3O2+
194.0557	52	C8H8N3O3+
