Mass spectrum: Azoxystrobin; LC-ESI-ITFT; MS2; CE: 80; R=15000; [M+H]+
Name: Azoxystrobin
Name: Methyl (E)-2-[2-[6-(2-cyanophenoxy)pyrimidin-4-YL]oxyphenyl]-3-methoxy-prop-2-enoate
Formula: C22H17N3O5
Exact mass: 403.1168206
SMILES: CO/C=C(\C1=CC=CC=C1OC2=NC=NC(=C2)OC3=CC=CC=C3C#N)/C(=O)OC
InChI: InChI=1S/C22H17N3O5/c1-27-13-17(22(26)28-2)16-8-4-6-10-19(16)30-21-11-20(24-14-25-21)29-18-9-5-3-7-15(18)12-23/h3-11,13-14H,1-2H3/b17-13+
Instrument: LTQ Orbitrap XL Thermo Scientific
Instrument type: LC-ESI-ITFT
Ms type: MS2
Ion mode: POSITIVE
Ionization: ESI
Fragmentation mode: HCD
Collision energy: 80 (nominal)
Resolution: 15000
Column name: Kinetex Core-Shell C18 2.6 um, 3.0 x 100 mm, Phenomenex
Retention time: 24.061 min
Base peak: 254.1429
Precursor m/z: 404.1241
Precursor type: [M+H]+
m/z	relative intensity	assigned
129.0446	189	C8H5N2+
133.052	110	C8H7NO+
134.06	112	C8H8NO+
156.0443	580	C10H6NO+
171.0551	181	C10H7N2O+
172.0392	999	C10H6NO2+
183.055	169	C11H7N2O+
199.0503	136	C11H7N2O2+
200.0339	238	C11H6NO3+
245.0944	99	C16H11N3+
272.0818	271	C17H10N3O+
273.091	72	C17H11N3O+
300.0766	139	C18H10N3O2+
328.0713	181	C19H10N3O3+
