Mass spectrum: Metoprolol acid; LC-ESI-ITFT; MS2; CE: 70%; R=15000; [M+H]+
Name: Metoprolol acid
Name: 2-[4-[2-hydroxy-3-(propan-2-ylamino)propoxy]phenyl]acetic acid
Formula: C14H21NO4
Exact mass: 267.147058152
SMILES: CC(C)NCC(O)COC1=CC=C(CC(O)=O)C=C1
InChI: InChI=1S/C14H21NO4/c1-10(2)15-8-12(16)9-19-13-5-3-11(4-6-13)7-14(17)18/h3-6,10,12,15-16H,7-9H2,1-2H3,(H,17,18)
Instrument: LTQ Orbitrap XL Thermo Scientific
Instrument type: LC-ESI-ITFT
Ms type: MS2
Ion mode: POSITIVE
Ionization: ESI
Fragmentation mode: HCD
Collision energy: 70 % (nominal)
Resolution: 15000
Column name: Kinetex Evo C18 2.6 um 50 x 2.1 mm
Retention time: 0.999 min
Base peak: 235.1813
Precursor m/z: 268.1543
Precursor type: [M+H]+
Precursor intensity: 19350924
m/z	relative intensity	assigned
56.0493	404	C3H6N+
57.0334	5	C3H5O+
58.065	31	C3H8N+
72.0807	300	C4H10N+
74.06	238	C3H8NO+
79.0542	83	C6H7+
81.0699	14	C6H9+
84.0809	19	C5H10N+
89.0387	26	C7H5+
91.0543	139	C7H7+
93.0699	14	C7H9+
95.0492	59	C6H7O+
98.0965	115	C6H12N+
100.1121	21	C6H14N+
105.0337	5	C7H5O+
105.07	7	C8H9+
107.0492	74	C7H7O+
109.0649	67	C7H9O+
115.0542	10	C9H7+
116.1071	83	C6H14NO+
117.07	60	C9H9+
119.0493	105	C8H7O+
121.0649	7	C8H9O+
123.0441	36	C7H7O2+
133.065	31	C9H9O+
135.0443	16	C8H7O2+
137.0599	103	C8H9O2+
145.065	999	C10H9O+
153.0547	9	C8H9O3+
162.0916	8	C10H12NO+
163.0756	28	C10H11O2+
165.0548	204	C9H9O3+
179.0703	7	C10H11O3+
191.0705	77	C11H11O3+
