Mass spectrum: N-Methyldodecylamine; LC-ESI-ITFT; MS2; CE: 30%; R=15000; [M+H]+
Name: N-Methyldodecylamine
Name: N-methyldodecan-1-amine
Formula: C13H29N
Exact mass: 199.229999928
SMILES: CCCCCCCCCCCCNC
InChI: InChI=1S/C13H29N/c1-3-4-5-6-7-8-9-10-11-12-13-14-2/h14H,3-13H2,1-2H3
Instrument: LTQ Orbitrap XL Thermo Scientific
Instrument type: LC-ESI-ITFT
Ms type: MS2
Ion mode: POSITIVE
Ionization: ESI
Fragmentation mode: HCD
Collision energy: 30 % (nominal)
Resolution: 15000
Column name: Kinetex Evo C18 2.6 um 50 x 2.1 mm
Retention time: 10.531 min
Base peak: 200.2376
Precursor m/z: 200.2373
Precursor type: [M+H]+
Precursor intensity: 57558748
m/z	relative intensity	assigned
71.0852	2	C5H11+
85.1012	1	C6H13+
200.237	999	C13H30N+
