Mass spectrum: Pyrazophos; LC-ESI-ITFT; MS2; CE: 35; R=15000; [M+H]+
Name: Pyrazophos
Name: 2-Diethoxyphosphinothioyloxy-5-methylpyrazolo[1,5-a]pyrimidine-6-carboxylate-ethyl
Formula: C14H20N3O5PS
Exact mass: 373.0861
SMILES: CCOC(=O)C1=CN2N=C(OP(=S)(OCC)OCC)C=C2N=C1C
InChI: InChI=1S/C14H20N3O5PS/c1-5-19-14(18)11-9-17-12(15-10(11)4)8-13(16-17)22-23(24,20-6-2)21-7-3/h8-9H,5-7H2,1-4H3
Instrument: LTQ Orbitrap XL Thermo Scientific
Instrument type: LC-ESI-ITFT
Ms type: MS2
Ion mode: POSITIVE
Ionization: ESI
Fragmentation mode: CID
Collision energy: 35 (nominal)
Resolution: 15000
Column name: Kinetex Core-Shell C18 2.6 um, 3.0 x 100 mm, Phenomenex
Retention time: 26.552 min
Base peak: 374.0929
Precursor m/z: 374.0934
Precursor type: [M+H]+
m/z	relative intensity	assigned
165.0116	1	C7H5N2OS+
170.0166	3	C4H11O3PS+
176.0458	12	C8H6N3O2+
192.0231	16	C8H6N3OS+
194.0564	70	C8H8N3O3+
205.0851	17	C4H17N2O5S+
208.0184	2	C12H5N2P+
209.0382	1	C5H12N3O2PS+
210.0336	44	C8H8N3O2S+
211.054	64	C5H14N3O2PS+
222.0876	766	C10H12N3O3+
223.091	7	C7H18N3OPS+
238.0648	690	C10H12N3O2S+
239.0683	5	C13H9N3O2+
254.0585	1	C10H12N3O3S+
264.0811	1	C12H14N3O2S+
266.0964	26	C12H16N3O2S+
271.9896	1	C8H7N3O4PS+
289.9998	2	C8H9N3O5PS+
301.0057	1	C10H10N2O5PS+
318.0316	123	C10H13N3O5PS+
328.0525	47	C14H17O5PS+
346.0627	999	C12H17N3O5PS+
