Mass spectrum: N-Cyclohexyl-2-benzothiazole-amine; LC-ESI-ITFT; MS2; CE: 80%; R=15000; [M+H]+
Name: N-Cyclohexyl-2-benzothiazole-amine
Name: N-cyclohexyl-1,3-benzothiazol-2-amine
Formula: C13H16N2S
Exact mass: 232.103419512
SMILES: C1CCC(CC1)NC1=NC2=CC=CC=C2S1
InChI: InChI=1S/C13H16N2S/c1-2-6-10(7-3-1)14-13-15-11-8-4-5-9-12(11)16-13/h4-5,8-10H,1-3,6-7H2,(H,14,15)
Instrument: LTQ Orbitrap XL Thermo Scientific
Instrument type: LC-ESI-ITFT
Ms type: MS2
Ion mode: POSITIVE
Ionization: ESI
Fragmentation mode: HCD
Collision energy: 80 % (nominal)
Resolution: 15000
Column name: Kinetex Evo C18 2.6 um 50 x 2.1 mm
Retention time: 9.481 min
Base peak: 233.1113
Precursor m/z: 233.1107
Precursor type: [M+H]+
Precursor intensity: 76010480
m/z	relative intensity	assigned
83.0854	85	C6H11+
92.0494	24	C6H6N+
109.0106	50	C6H5S+
118.0524	2	C7H6N2+
124.0215	69	C6H6NS+
151.0323	999	C7H7N2S+
233.11	3	C13H17N2S+
