Mass spectrum: Testosterone; LC-ESI-ITFT; MS2; CE: 70%; R=15000; [M+H]+
Name: Testosterone
Name: (8R,9S,10R,13S,14S,17S)-17-hydroxy-10,13-dimethyl-1,2,6,7,8,9,11,12,14,15,16,17-dodecahydrocyclopenta[a]phenanthren-3-one
Formula: C19H28O2
Exact mass: 288.208930136
SMILES: C[C@]12CC[C@H]3[C@@H](CCC4=CC(=O)CC[C@]34C)[C@@H]1CC[C@@H]2O
InChI: InChI=1S/C19H28O2/c1-18-9-7-13(20)11-12(18)3-4-14-15-5-6-17(21)19(15,2)10-8-16(14)18/h11,14-17,21H,3-10H2,1-2H3/t14-,15-,16-,17-,18-,19-/m0/s1
Instrument: LTQ Orbitrap XL Thermo Scientific
Instrument type: LC-ESI-ITFT
Ms type: MS2
Ion mode: POSITIVE
Ionization: ESI
Fragmentation mode: HCD
Collision energy: 70 % (nominal)
Resolution: 15000
Column name: Kinetex Evo C18 2.6 um 50 x 2.1 mm
Retention time: 11.403 min
Base peak: 289.2162
Precursor m/z: 289.2162
Precursor type: [M+H]+
Precursor intensity: 22066992
m/z	relative intensity	assigned
67.0539	15	C5H7+
69.0696	11	C5H9+
77.0383	3	C6H5+
79.054	52	C6H7+
81.0696	78	C6H9+
83.0489	40	C5H7O+
91.054	28	C7H7+
93.0696	64	C7H9+
95.0488	3	C6H7O+
95.0853	55	C7H11+
97.0645	999	C6H9O+
105.0696	52	C8H9+
107.049	4	C7H7O+
107.0852	46	C8H11+
109.0645	967	C7H9O+
111.0802	6	C7H11O+
117.0695	7	C9H9+
119.0852	41	C9H11+
121.0645	13	C8H9O+
121.1009	27	C9H13+
123.0801	140	C8H11O+
129.0695	5	C10H9+
131.0852	20	C10H11+
133.1009	28	C10H13+
135.0803	2	C9H11O+
135.1165	9	C10H15+
137.0956	5	C9H13O+
143.0852	12	C11H11+
145.1008	29	C11H13+
147.0807	2	C10H11O+
147.1165	30	C11H15+
149.0957	4	C10H13O+
149.132	5	C11H17+
155.0853	3	C12H11+
157.1009	15	C12H13+
159.1164	25	C12H15+
161.0959	2	C11H13O+
161.132	13	C12H17+
163.1114	7	C11H15O+
169.1008	4	C13H13+
171.1162	11	C13H15+
173.1321	6	C13H17+
175.1118	2	C12H15O+
175.1477	7	C13H19+
177.1268	6	C12H17O+
183.1165	6	C14H15+
185.1322	6	C14H17+
187.1478	10	C14H19+
197.1318	8	C15H17+
199.1478	5	C15H19+
201.1276	1	C14H17O+
201.1635	4	C15H21+
211.1478	4	C16H19+
213.1634	8	C16H21+
227.1792	3	C17H23+
253.1949	5	C19H25+
