Mass spectrum: N-Phenyl-1-naphthylamine; LC-ESI-ITFT; MS2; CE: 30%; R=15000; [M+H]+
Name: N-Phenyl-1-naphthylamine
Name: N-phenylnaphthalen-1-amine
Formula: C16H13N
Exact mass: 219.104799416
SMILES: N(C1=CC=CC=C1)C1=CC=CC2=C1C=CC=C2
InChI: InChI=1S/C16H13N/c1-2-9-14(10-3-1)17-16-12-6-8-13-7-4-5-11-15(13)16/h1-12,17H
Instrument: LTQ Orbitrap XL Thermo Scientific
Instrument type: LC-ESI-ITFT
Ms type: MS2
Ion mode: POSITIVE
Ionization: ESI
Fragmentation mode: HCD
Collision energy: 30 % (nominal)
Resolution: 15000
Column name: Kinetex Evo C18 2.6 um 50 x 2.1 mm
Retention time: 12.748 min
Base peak: 220.1121
Precursor m/z: 220.1121
Precursor type: [M+H]+
Precursor intensity: 24356114
m/z	relative intensity	assigned
92.0493	2	C6H6N+
142.0645	1	C10H8N+
143.0726	7	C10H9N+
220.1114	999	C16H14N+
