Mass spectrum: Triclocarban; LC-ESI-ITFT; MS2; CE: 35; R=15000; [M-H]-
Name: Triclocarban
Name: 1-(4-Chlorophenyl)-3-(3,4-dichlorophenyl)urea
Formula: C13H9Cl3N2O
Exact mass: 313.9780
SMILES: ClC1=CC=C(NC(=O)NC2=CC=C(Cl)C(Cl)=C2)C=C1
InChI: InChI=1S/C13H9Cl3N2O/c14-8-1-3-9(4-2-8)17-13(19)18-10-5-6-11(15)12(16)7-10/h1-7H,(H2,17,18,19)
Instrument: LTQ Orbitrap XL Thermo Scientific
Instrument type: LC-ESI-ITFT
Ms type: MS2
Ion mode: NEGATIVE
Ionization: ESI
Fragmentation mode: CID
Collision energy: 35 (nominal)
Resolution: 15000
Column name: Kinetex Core-Shell C18 2.6 um, 3.0 x 100 mm, Phenomenex
Retention time: 26.892 min
Base peak: 112.9857
Precursor m/z: 312.9708
Precursor type: [M-H]-
m/z	relative intensity	assigned
159.9727	999	C6H4Cl2N-
197.948	19	Cl3H5N4O2-
