Mass spectrum: Telmisartan; LC-ESI-ITFT; MS2; CE: 40%; R=15000; [M+H]+
Name: Telmisartan
Name: 2-[4-[[4-methyl-6-(1-methylbenzimidazol-2-yl)-2-propylbenzimidazol-1-yl]methyl]phenyl]benzoic acid
Formula: C33H30N4O2
Exact mass: 514.2368762
SMILES: CCCC1=NC2=C(C)C=C(C=C2N1CC1=CC=C(C=C1)C1=CC=CC=C1C(O)=O)C1=NC2=CC=CC=C2N1C
InChI: InChI=1S/C33H30N4O2/c1-4-9-30-35-31-21(2)18-24(32-34-27-12-7-8-13-28(27)36(32)3)19-29(31)37(30)20-22-14-16-23(17-15-22)25-10-5-6-11-26(25)33(38)39/h5-8,10-19H,4,9,20H2,1-3H3,(H,38,39)
Instrument: LTQ Orbitrap XL Thermo Scientific
Instrument type: LC-ESI-ITFT
Ms type: MS2
Ion mode: POSITIVE
Ionization: ESI
Fragmentation mode: HCD
Collision energy: 40 % (nominal)
Resolution: 15000
Column name: Kinetex Evo C18 2.6 um 50 x 2.1 mm
Retention time: 10.396 min
Base peak: 301.075
Precursor m/z: 515.2442
Precursor type: [M+H]+
Precursor intensity: 3278724.25
m/z	relative intensity	assigned
193.0649	80	C14H9O+
211.0755	163	C14H11O2+
250.1107	11	C16H14N2O+
275.1292	4	C17H15N4+
276.1371	292	C17H16N4+
289.145	48	C18H17N4+
303.1606	30	C19H19N4+
305.1761	228	C19H21N4+
317.1763	55	C20H21N4+
355.0168	6	C26HN3+
497.2328	736	C33H29N4O+
515.2433	999	C33H31N4O2+
