Mass spectrum: Finasteride; LC-ESI-ITFT; MS2; CE: 90%; R=15000; [M+H]+
Name: Finasteride
Name: (1S,3aS,3bS,5aR,9aR,9bS,11aS)-N-tert-butyl-9a,11a-dimethyl-7-oxo-1,2,3,3a,3b,4,5,5a,6,9b,10,11-dodecahydroindeno[5,4-f]quinoline-1-carboxamide
Formula: C23H36N2O2
Exact mass: 372.277678392
SMILES: CC(C)(C)NC(=O)[C@H]1CC[C@H]2[C@@H]3CC[C@H]4NC(=O)C=C[C@]4(C)[C@H]3CC[C@]12C
InChI: InChI=1S/C23H36N2O2/c1-21(2,3)25-20(27)17-8-7-15-14-6-9-18-23(5,13-11-19(26)24-18)16(14)10-12-22(15,17)4/h11,13-18H,6-10,12H2,1-5H3,(H,24,26)(H,25,27)/t14-,15-,16-,17+,18+,22-,23+/m0/s1
Instrument: LTQ Orbitrap XL Thermo Scientific
Instrument type: LC-ESI-ITFT
Ms type: MS2
Ion mode: POSITIVE
Ionization: ESI
Fragmentation mode: HCD
Collision energy: 90 % (nominal)
Resolution: 15000
Column name: Kinetex Evo C18 2.6 um 50 x 2.1 mm
Retention time: 11.836 min
Base peak: 373.2855
Precursor m/z: 373.285
Precursor type: [M+H]+
Precursor intensity: 40029556
m/z	relative intensity	assigned
55.0176	19	C3H3O+
56.0492	14	C3H6N+
57.0696	999	C4H9+
67.054	158	C5H7+
69.0333	723	C4H5O+
70.0649	39	C4H8N+
72.0442	123	C3H6NO+
72.0807	14	C4H10N+
77.0384	11	C6H5+
79.0541	178	C6H7+
81.0698	317	C6H9+
82.065	14	C5H8N+
83.0854	30	C6H11+
86.06	46	C4H8NO+
91.0542	182	C7H7+
93.0698	375	C7H9+
94.0733	16	C2H10N2O2+
95.0855	701	C7H11+
96.0443	83	C5H6NO+
96.0807	28	C6H10N+
97.1011	7	C7H13+
98.06	79	C5H8NO+
105.0698	279	C8H9+
106.0648	7	C7H8N+
107.0855	224	C8H11+
108.0808	26	C7H10N+
109.0523	38	C6H7NO+
109.0649	6	C7H9O+
109.1011	71	C8H13+
110.0599	84	C6H8NO+
110.0963	17	C7H12N+
117.0698	55	C9H9+
119.0854	229	C9H11+
120.0806	11	C8H10N+
120.0889	20	C4H12N2O2+
121.0648	27	C8H9O+
121.1011	82	C9H13+
122.06	74	C7H8NO+
122.0963	11	C8H12N+
123.0678	13	C7H9NO+
124.0756	47	C7H10NO+
126.0913	20	C7H12NO+
128.0618	9	C10H8+
129.0698	37	C10H9+
130.0778	9	C10H10+
131.0854	142	C10H11+
132.0889	12	C5H12N2O2+
133.1011	167	C10H13+
134.1046	8	C5H14N2O2+
135.0806	9	C9H11O+
135.1167	32	C10H15+
136.0754	11	C8H10NO+
138.0913	23	C8H12NO+
140.1067	8	C8H14NO+
141.0702	6	C11H9+
143.0854	71	C11H11+
145.1011	152	C11H13+
146.1049	16	C6H14N2O2+
147.0804	14	C10H11O+
147.1167	125	C11H15+
148.1203	11	C6H16N2O2+
149.1325	13	C11H17+
150.0911	9	C9H12NO+
155.0853	38	C12H11+
157.1012	53	C12H13+
159.08	6	C11H11O+
159.1168	68	C12H15+
161.0959	18	C11H13O+
161.1324	36	C12H17+
164.1076	6	C10H14NO+
167.0856	7	C13H11+
169.1013	26	C13H13+
171.1168	33	C13H15+
173.096	11	C12H13O+
173.1326	40	C13H17+
174.1357	5	C8H18N2O2+
175.1112	10	C12H15O+
175.148	45	C13H19+
181.1012	13	C14H13+
183.1168	13	C14H15+
185.1327	42	C14H17+
187.1481	81	C14H19+
189.1637	12	C14H21+
195.1164	12	C15H15+
197.1323	18	C15H17+
199.1114	5	C14H15O+
211.149	6	C16H19+
213.1641	9	C16H21+
215.1427	14	C15H19O+
240.1742	10	C17H22N+
249.1955	7	C15H25N2O+
299.2116	20	C19H27N2O+
301.1909	14	C18H25N2O2+
305.2587	21	C19H33N2O+
357.2537	20	C22H33N2O2+
