Mass spectrum: 17alpha-Hydroxyprogesterone; LC-ESI-ITFT; MS2; CE: 40%; R=15000; [M+H]+
Name: 17alpha-Hydroxyprogesterone
Name: 17Alpha-hydroxy progesterone
Name: 17-acetyl-17-hydroxy-10,13-dimethyl-2,6,7,8,9,11,12,14,15,16-decahydro-1H-cyclopenta[a]phenanthren-3-one
Formula: C21H30O3
Exact mass: 330.21949482
SMILES: CC(=O)C1(O)CCC2C3CCC4=CC(=O)CCC4(C)C3CCC12C
InChI: InChI=1S/C21H30O3/c1-13(22)21(24)11-8-18-16-5-4-14-12-15(23)6-9-19(14,2)17(16)7-10-20(18,21)3/h12,16-18,24H,4-11H2,1-3H3
Instrument: LTQ Orbitrap XL Thermo Scientific
Instrument type: LC-ESI-ITFT
Ms type: MS2
Ion mode: POSITIVE
Ionization: ESI
Fragmentation mode: HCD
Collision energy: 40 % (nominal)
Resolution: 15000
Column name: Kinetex Evo C18 2.6 um 50 x 2.1 mm
Retention time: 11.531 min
Base peak: 331.2269
Precursor m/z: 331.2268
Precursor type: [M+H]+
Precursor intensity: 29251834
m/z	relative intensity	assigned
81.0696	14	C6H9+
83.0489	44	C5H7O+
85.0645	11	C5H9O+
93.0696	16	C7H9+
95.0853	33	C7H11+
97.0645	999	C6H9O+
99.0801	9	C6H11O+
105.0696	14	C8H9+
107.0852	19	C8H11+
109.0644	811	C7H9O+
111.0799	10	C7H11O+
119.0853	26	C9H11+
121.0644	18	C8H9O+
121.1008	17	C9H13+
123.0801	88	C8H11O+
131.0852	11	C10H11+
133.1009	22	C10H13+
135.0799	17	C9H11O+
135.1164	18	C10H15+
137.0957	47	C9H13O+
143.0852	17	C11H11+
145.1007	58	C11H13+
147.0805	7	C10H11O+
147.1163	35	C11H15+
149.0957	21	C10H13O+
149.132	9	C11H17+
151.1111	9	C10H15O+
155.0852	4	C12H11+
157.101	21	C12H13+
159.1164	54	C12H15+
161.0954	12	C11H13O+
161.132	36	C12H17+
163.1113	90	C11H15O+
163.1476	11	C12H19+
169.1007	16	C13H13+
171.1162	43	C13H15+
173.1321	43	C13H17+
175.1113	32	C12H15O+
175.1477	40	C13H19+
177.1269	64	C12H17O+
181.1008	5	C14H13+
183.1166	14	C14H15+
185.1322	32	C14H17+
187.1111	14	C13H15O+
187.1476	34	C14H19+
189.1271	24	C13H17O+
189.163	9	C14H21+
191.1427	17	C13H19O+
195.1159	9	C15H15+
197.132	22	C15H17+
199.1477	38	C15H19+
201.127	10	C14H17O+
201.1636	5	C15H21+
203.1427	26	C14H19O+
203.1794	3	C15H23+
205.1581	51	C14H21O+
209.1316	7	C16H17+
211.1477	34	C16H19+
213.1264	9	C15H17O+
213.1635	40	C16H21+
215.1424	16	C15H19O+
217.1581	38	C15H21O+
223.1476	8	C17H19+
225.1629	17	C17H21+
227.1424	7	C16H19O+
227.1786	11	C17H23+
229.1583	25	C16H21O+
231.1739	23	C16H23O+
235.1476	7	C18H19+
237.1632	24	C18H21+
239.1425	7	C17H19O+
241.1579	14	C17H21O+
243.1736	16	C17H23O+
245.1895	8	C17H25O+
251.1797	12	C19H23+
252.187	6	C19H24+
253.1944	136	C19H25+
255.1737	34	C18H23O+
259.1683	13	C17H23O2+
267.1734	8	C19H23O+
269.1892	29	C19H25O+
270.1972	13	C19H26O+
271.2049	150	C19H27O+
277.1947	30	C21H25+
285.2199	6	C20H29O+
289.2154	13	C19H29O2+
295.2049	121	C21H27O+
313.2152	169	C21H29O2+
331.2257	264	C21H31O3+
