Mass spectrum: Acetamiprid; LC-ESI-ITFT; MS2; CE: 50%; R=15000; [M+H]+
Name: Acetamiprid
Name: N-[(6-chloropyridin-3-yl)methyl]-N`-cyano-N-methylethanimidamide
Formula: C10H11ClN4
Exact mass: 222.067224032
SMILES: CN(CC1=CC=C(Cl)N=C1)C(C)=NC#N
InChI: InChI=1S/C10H11ClN4/c1-8(14-7-12)15(2)6-9-3-4-10(11)13-5-9/h3-5H,6H2,1-2H3
Instrument: LTQ Orbitrap XL Thermo Scientific
Instrument type: LC-ESI-ITFT
Ms type: MS2
Ion mode: POSITIVE
Ionization: ESI
Fragmentation mode: HCD
Collision energy: 50 % (nominal)
Resolution: 15000
Column name: Kinetex Evo C18 2.6 um 50 x 2.1 mm
Retention time: 6.713 min
Base peak: 116.9862
Precursor m/z: 223.0745
Precursor type: [M+H]+
Precursor intensity: 243959.42
m/z	relative intensity	assigned
56.0494	200	C3H6N+
90.0341	6	C6H4N+
126.0109	999	C6H5ClN+
146.0716	1	C8H8N3+
151.0063	1	C7H4ClN2+
155.0371	1	C7H8ClN2+
181.0532	8	C9H10ClN2+
187.0984	8	C10H11N4+
196.0641	2	C9H11ClN3+
206.0486	3	C10H9ClN3+
223.0752	48	C10H12ClN4+
