Mass spectrum: EDDP; LC-ESI-ITFT; MS2; CE: 80%; R=15000; [M+H]+
Name: EDDP
Name: 2-Ethylidene-1,5-dimethyl-3,3-diphenylpyrrolidine
Name: (2Z)-2-ethylidene-1,5-dimethyl-3,3-diphenylpyrrolidine
Formula: C20H23N
Exact mass: 277.183049736
SMILES: C\C=C1/N(C)C(C)CC1(C1=CC=CC=C1)C1=CC=CC=C1
InChI: InChI=1S/C20H23N/c1-4-19-20(15-16(2)21(19)3,17-11-7-5-8-12-17)18-13-9-6-10-14-18/h4-14,16H,15H2,1-3H3/b19-4-
Instrument: LTQ Orbitrap XL Thermo Scientific
Instrument type: LC-ESI-ITFT
Ms type: MS2
Ion mode: POSITIVE
Ionization: ESI
Fragmentation mode: HCD
Collision energy: 80 % (nominal)
Resolution: 15000
Column name: Kinetex Evo C18 2.6 um 50 x 2.1 mm
Retention time: 7.735 min
Base peak: 278.1914
Precursor m/z: 278.1903
Precursor type: [M+H]+
Precursor intensity: 49019252
m/z	relative intensity	assigned
58.0649	8	C3H8N+
70.065	7	C4H8N+
91.0543	25	C7H7+
98.0966	5	C6H12N+
103.0542	6	C8H7+
105.0699	14	C8H9+
115.0543	9	C9H7+
117.07	3	C9H9+
118.0652	10	C8H8N+
124.1122	4	C8H14N+
128.0621	3	C10H8+
129.07	13	C10H9+
130.0655	1	C9H8N+
131.0854	1	C10H11+
132.0805	2	C9H10N+
143.0853	3	C11H11+
144.081	5	C10H10N+
156.0809	5	C11H10N+
157.0887	22	C11H11N+
158.0966	68	C11H12N+
165.0697	1	C13H9+
167.0858	3	C13H11+
170.0966	11	C12H12N+
171.1044	35	C12H13N+
172.1123	49	C12H14N+
178.0779	5	C14H10+
179.0858	1	C14H11+
185.1205	2	C13H15N+
186.128	429	C13H16N+
191.0857	4	C15H11+
192.0937	2	C15H12+
193.0887	4	C14H11N+
193.1012	7	C15H13+
200.1436	44	C14H18N+
201.1514	35	C14H19N+
203.0852	1	C16H11+
204.0941	1	C16H12+
205.1013	4	C16H13+
206.0967	11	C15H12N+
207.1044	46	C15H13N+
208.1124	4	C15H14N+
217.101	1	C17H13+
218.0968	6	C16H12N+
219.1045	91	C16H13N+
220.1131	9	C16H14N+
221.1205	4	C16H15N+
232.1123	3	C17H14N+
233.1203	12	C17H15N+
234.128	999	C17H16N+
236.143	1	C17H18N+
248.1436	60	C18H18N+
249.1515	64	C18H19N+
262.1593	9	C19H20N+
278.1906	25	C20H24N+
