Mass spectrum: Finasteride; LC-ESI-ITFT; MS2; CE: 35; R=15000; [M+H]+
Name: Finasteride
Name: (1S,3aS,3bS,5aR,9aR,9bS,11aS)-N-Tert-butyl-9a,11a-dimethyl-7-oxo-1,2,3,3a,3b,4,5,5a,6,9b,10,11-dodecahydroindeno[5,4-f]quinoline-1-carboxamide
Formula: C23H36N2O2
Exact mass: 372.2777
SMILES: CC(C)(C)NC(=O)[C@H]1CC[C@H]2[C@@H]3CC[C@H]4NC(=O)C=C[C@]4(C)[C@H]3CC[C@]12C
InChI: InChI=1S/C23H36N2O2/c1-21(2,3)25-20(27)17-8-7-15-14-6-9-18-23(5,13-11-19(26)24-18)16(14)10-12-22(15,17)4/h11,13-18H,6-10,12H2,1-5H3,(H,24,26)(H,25,27)/t14-,15-,16-,17+,18+,22-,23+/m0/s1
Instrument: LTQ Orbitrap XL Thermo Scientific
Instrument type: LC-ESI-ITFT
Ms type: MS2
Ion mode: POSITIVE
Ionization: ESI
Fragmentation mode: CID
Collision energy: 35 (nominal)
Resolution: 15000
Column name: Kinetex Core-Shell C18 2.6 um, 3.0 x 100 mm, Phenomenex
Retention time: 25.045 min
Base peak: 163.1328
Precursor m/z: 373.285
Precursor type: [M+H]+
m/z	relative intensity	assigned
119.0856	3	C9H11+
120.0812	1	C8H10N+
121.1014	6	C9H13+
128.0625	1	C10H8+
129.07	1	C10H9+
131.0859	4	C10H11+
133.1013	6	C10H13+
135.1172	4	C10H15+
141.0697	1	C11H9+
143.0859	2	C11H11+
145.1013	5	C11H13+
147.0806	1	C10H11O+
147.1171	7	C11H15+
149.0956	1	C10H13O+
149.1326	1	C11H17+
155.0858	3	C12H11+
157.1013	4	C12H13+
159.0806	1	C11H11O+
159.1171	4	C12H15+
161.0965	4	C11H13O+
161.1325	3	C12H17+
164.107	1	C10H14NO+
169.1014	2	C13H13+
171.1171	4	C13H15+
173.1329	7	C13H17+
175.112	1	C12H15O+
175.1484	11	C13H19+
177.1643	4	C13H21+
180.1383	1	C11H18NO+
181.1016	3	C14H13+
183.1173	6	C14H15+
185.1326	7	C14H17+
187.1486	9	C14H19+
189.1641	27	C14H21+
195.1172	7	C15H15+
197.1327	6	C15H17+
199.1125	2	C14H15O+
199.1484	3	C15H19+
203.1437	2	C14H19O+
203.1797	3	C15H23+
209.1329	1	C16H17+
211.1486	5	C16H19+
213.1276	1	C15H17O+
213.1642	10	C16H21+
215.1437	6	C15H19O+
215.1799	8	C16H23+
220.17	15	C14H22NO+
222.1859	1	C14H24NO+
223.1487	2	C17H19+
227.1799	13	C17H23+
229.1955	9	C17H25+
232.17	14	C15H22NO+
237.1642	24	C18H21+
239.1798	17	C18H23+
247.1491	3	C19H19+
249.1968	13	C15H25N2O+
254.1908	16	C18H24N+
255.1749	35	C18H23O+
256.2066	11	C18H26N+
257.1905	8	C18H25O+
265.1592	6	C19H21O+
272.2015	17	C18H26NO+
274.2172	24	C18H28NO+
281.2015	1	C19H25N2+
282.1859	11	C19H24NO+
283.1698	10	C19H23O2+
288.2334	3	C19H30NO+
299.2127	6	C19H27N2O+
300.1968	7	C19H26NO2+
305.2593	999	C19H33N2O+
317.2232	28	C19H29N2O2+
331.275	6	C21H35N2O+
355.2752	67	C23H35N2O+
358.2611	1	C22H34N2O2+
373.2855	463	C23H37N2O2+
