Mass spectrum: Metolachlor; LC-ESI-ITFT; MS2; CE: 90%; R=15000; [M+H]+
Name: Metolachlor
Name: 2-chloro-N-(2-ethyl-6-methylphenyl)-N-(1-methoxypropan-2-yl)acetamide
Formula: C15H22ClNO2
Exact mass: 283.133906624
SMILES: CCC1=CC=CC(C)=C1N(C(C)COC)C(=O)CCl
InChI: InChI=1S/C15H22ClNO2/c1-5-13-8-6-7-11(2)15(13)17(14(18)9-16)12(3)10-19-4/h6-8,12H,5,9-10H2,1-4H3
Instrument: LTQ Orbitrap XL Thermo Scientific
Instrument type: LC-ESI-ITFT
Ms type: MS2
Ion mode: POSITIVE
Ionization: ESI
Fragmentation mode: HCD
Collision energy: 90 % (nominal)
Resolution: 15000
Column name: Kinetex Evo C18 2.6 um 50 x 2.1 mm
Retention time: 11.806 min
Base peak: 284.1419
Precursor m/z: 284.1412
Precursor type: [M+H]+
Precursor intensity: 37990268
m/z	relative intensity	assigned
73.0645	242	C4H9O+
76.9786	156	C2H2ClO+
79.054	72	C6H7+
91.054	586	C7H7+
93.0698	98	C7H9+
103.0539	106	C8H7+
104.0619	65	C8H8+
105.0699	105	C8H9+
107.0852	54	C8H11+
108.0806	366	C7H10N+
109.0644	97	C7H9O+
115.054	103	C9H7+
117.057	34	C8H7N+
117.0696	370	C9H9+
118.0649	144	C8H8N+
119.0728	404	C8H9N+
119.0853	255	C9H11+
120.0805	359	C8H10N+
130.0647	103	C9H8N+
131.0728	241	C9H9N+
132.0806	339	C9H10N+
133.0884	929	C9H11N+
134.0962	999	C9H12N+
135.0803	28	C9H11O+
136.1119	31	C9H14N+
143.0727	146	C10H9N+
144.0805	318	C10H10N+
145.0882	237	C10H11N+
146.0962	614	C10H12N+
147.1039	70	C10H13N+
148.112	104	C10H14N+
158.0962	246	C11H12N+
159.1041	144	C11H13N+
160.1118	479	C11H14N+
162.0909	74	C10H12NO+
166.0408	24	C12H6O+
176.1431	613	C12H18N+
184.0521	170	C12H8O2+
