Mass spectrum: Trifloxystrobin CGA 321113; LC-ESI-ITFT; MS2; CE: 10%; R=15000; [M+H]+
Name: Trifloxystrobin CGA 321113
Name: Trifloxystrobin acid
Name: (2E)-2-methoxyimino-2-[2-[[(E)-1-[3-(trifluoromethyl)phenyl]ethylideneamino]oxymethyl]phenyl]acetic acid
Formula: C19H17F3N2O4
Exact mass: 394.114041684
SMILES: CO\N=C(\C(O)=O)C1=CC=CC=C1CO\N=C(/C)C1=CC=CC(=C1)C(F)(F)F
InChI: InChI=1S/C19H17F3N2O4/c1-12(13-7-5-8-15(10-13)19(20,21)22)23-28-11-14-6-3-4-9-16(14)17(18(25)26)24-27-2/h3-10H,11H2,1-2H3,(H,25,26)/b23-12+,24-17+
Instrument: LTQ Orbitrap XL Thermo Scientific
Instrument type: LC-ESI-ITFT
Ms type: MS2
Ion mode: POSITIVE
Ionization: ESI
Fragmentation mode: HCD
Collision energy: 10 % (nominal)
Resolution: 15000
Column name: Kinetex Evo C18 2.6 um 50 x 2.1 mm
Retention time: 12.857 min
Base peak: 406.0727
Precursor m/z: 395.1213
Precursor type: [M+H]+
Precursor intensity: 16466081
m/z	relative intensity	assigned
116.0492	42	C8H6N+
134.0598	18	C8H8NO+
148.0755	539	C9H10NO+
186.0523	999	C9H7F3N+
192.0651	61	C10H10NO3+
204.0628	12	C9H9F3NO+
351.1308	66	C18H18F3N2O2+
395.1205	667	C19H18F3N2O4+
