Mass spectrum: N-Ethyl-o-toluenesulfonamide; LC-ESI-ITFT; MS2; CE: 30%; R=15000; [M+H]+
Name: N-Ethyl-o-toluenesulfonamide
Name: N-ethyl-2-methylbenzenesulfonamide
Formula: C9H13NO2S
Exact mass: 199.066699656
SMILES: CCNS(=O)(=O)C1=CC=CC=C1C
InChI: InChI=1S/C9H13NO2S/c1-3-10-13(11,12)9-7-5-4-6-8(9)2/h4-7,10H,3H2,1-2H3
Instrument: LTQ Orbitrap XL Thermo Scientific
Instrument type: LC-ESI-ITFT
Ms type: MS2
Ion mode: POSITIVE
Ionization: ESI
Fragmentation mode: HCD
Collision energy: 30 % (nominal)
Resolution: 15000
Column name: Kinetex Evo C18 2.6 um 50 x 2.1 mm
Retention time: 8.436 min
Base peak: 200.0748
Precursor m/z: 200.074
Precursor type: [M+H]+
Precursor intensity: 2450169.25
m/z	relative intensity	assigned
65.0384	8	C5H5+
91.0542	529	C7H7+
108.0571	7	C7H8O+
109.0648	181	C7H9O+
120.0574	8	C8H8O+
155.0162	999	C7H7O2S+
172.0434	1	C7H10NO2S+
200.0741	179	C9H14NO2S+
