Mass spectrum: Bisphenol S; LC-ESI-ITFT; MS2; CE: 55; R=15000; [M-H]-
Name: Bisphenol S
Name: 4,4`-Sulfonyldiphenol
Name: 4-(4-Hydroxyphenyl)sulfonylphenol
Formula: C12H10O4S
Exact mass: 250.0300
SMILES: OC1=CC=C(C=C1)S(=O)(=O)C1=CC=C(O)C=C1
InChI: InChI=1S/C12H10O4S/c13-9-1-5-11(6-2-9)17(15,16)12-7-3-10(14)4-8-12/h1-8,13-14H
Instrument: LTQ Orbitrap XL Thermo Scientific
Instrument type: LC-ESI-ITFT
Ms type: MS2
Ion mode: NEGATIVE
Ionization: ESI
Fragmentation mode: CID
Collision energy: 55 (nominal)
Resolution: 15000
Column name: Kinetex Core-Shell C18 2.6 um, 3.0 x 100 mm, Phenomenex
Retention time: 19.259 min
Base peak: 138.0198
Precursor m/z: 249.0227
Precursor type: [M-H]-
m/z	relative intensity	assigned
92.0268	32	C6H4O-
108.0217	999	C6H4O2-
155.9886	849	C6H4O3S-
157.066	31	C11H9O-
184.0529	379	C12H8O2-
185.0608	492	C12H9O2-
