Mass spectrum: 2-(Piperazin-1-yl)ethanamine; LC-ESI-ITFT; MS2; CE: 50%; R=15000; [M+H]+
Name: 2-(Piperazin-1-yl)ethanamine
Name: N-(2-Aminoethyl)piperazine
Name: 2-piperazin-1-ylethanamine
Formula: C6H15N3
Exact mass: 129.12659748
SMILES: NCCN1CCNCC1
InChI: InChI=1S/C6H15N3/c7-1-4-9-5-2-8-3-6-9/h8H,1-7H2
Instrument: LTQ Orbitrap XL Thermo Scientific
Instrument type: LC-ESI-ITFT
Ms type: MS2
Ion mode: POSITIVE
Ionization: ESI
Fragmentation mode: HCD
Collision energy: 50 % (nominal)
Resolution: 15000
Column name: Kinetex Evo C18 2.6 um 50 x 2.1 mm
Retention time: 0.460 min
Base peak: 202.1801
Precursor m/z: 130.1339
Precursor type: [M+H]+
Precursor intensity: 3579541.75
m/z	relative intensity	assigned
56.0494	7	C3H6N+
58.065	8	C3H8N+
70.0651	3	C4H8N+
84.0684	5	C4H8N2+
84.0809	24	C5H10N+
87.0919	27	C4H11N2+
113.1076	999	C6H13N2+
130.1341	519	C6H16N3+
