Mass spectrum: Oxybutynin; LC-ESI-ITFT; MS2; CE: 40%; R=15000; [M+H]+
Name: Oxybutynin
Name: 4-(diethylamino)but-2-ynyl 2-cyclohexyl-2-hydroxy-2-phenylacetate
Formula: C22H31NO3
Exact mass: 357.230393852
SMILES: CCN(CC)CC#CCOC(=O)C(O)(C1CCCCC1)C1=CC=CC=C1
InChI: InChI=1S/C22H31NO3/c1-3-23(4-2)17-11-12-18-26-21(24)22(25,19-13-7-5-8-14-19)20-15-9-6-10-16-20/h5,7-8,13-14,20,25H,3-4,6,9-10,15-18H2,1-2H3
Instrument: LTQ Orbitrap XL Thermo Scientific
Instrument type: LC-ESI-ITFT
Ms type: MS2
Ion mode: POSITIVE
Ionization: ESI
Fragmentation mode: HCD
Collision energy: 40 % (nominal)
Resolution: 15000
Column name: Kinetex Evo C18 2.6 um 50 x 2.1 mm
Retention time: 9.039 min
Base peak: 358.2382
Precursor m/z: 358.2377
Precursor type: [M+H]+
Precursor intensity: 79092048
m/z	relative intensity	assigned
68.0492	92	C4H6N+
69.0332	78	C4H5O+
70.0648	53	C4H8N+
72.0805	287	C4H10N+
73.0884	15	C4H11N+
79.054	81	C6H7+
80.0493	14	C5H6N+
81.0571	13	C5H7N+
81.0696	70	C6H9+
82.0649	230	C5H8N+
83.0853	39	C6H11+
84.0806	24	C5H10N+
86.0962	23	C5H12N+
91.054	43	C7H7+
94.0649	99	C6H8N+
95.0727	66	C6H9N+
95.0854	16	C7H11+
96.0806	259	C6H10N+
97.0282	409	C5H5O2+
105.0332	318	C7H5O+
107.0489	55	C7H7O+
107.0852	19	C8H11+
108.0805	37	C7H10N+
109.0883	88	C7H11N+
113.0229	6	C5H5O3+
122.0962	96	C8H12N+
124.1118	818	C8H14N+
125.1193	15	C8H15N+
129.0696	50	C10H9+
142.1223	999	C8H16NO+
143.0854	6	C11H11+
157.0645	8	C11H9O+
171.1164	114	C13H15+
173.0594	12	C11H9O2+
185.0593	11	C12H9O2+
187.075	24	C12H11O2+
189.127	211	C13H17O+
199.1113	63	C14H15O+
203.0696	15	C12H11O3+
229.1097	8	C14H15NO2+
258.1484	31	C16H20NO2+
267.1377	15	C18H19O2+
340.2265	72	C22H30NO2+
358.2367	414	C22H32NO3+
