Mass spectrum: Bupirimate; LC-ESI-ITFT; MS2; CE: 20%; R=15000; [M+H]+
Name: Bupirimate
Name: [5-butyl-2-(ethylamino)-6-methylpyrimidin-4-yl] N,N-dimethylsulfamate
Formula: C13H24N4O3S
Exact mass: 316.156911628
SMILES: CCCCC1=C(C)N=C(NCC)N=C1OS(=O)(=O)N(C)C
InChI: InChI=1S/C13H24N4O3S/c1-6-8-9-11-10(3)15-13(14-7-2)16-12(11)20-21(18,19)17(4)5/h6-9H2,1-5H3,(H,14,15,16)
Instrument: LTQ Orbitrap XL Thermo Scientific
Instrument type: LC-ESI-ITFT
Ms type: MS2
Ion mode: POSITIVE
Ionization: ESI
Fragmentation mode: HCD
Collision energy: 20 % (nominal)
Resolution: 15000
Column name: Kinetex Evo C18 2.6 um 50 x 2.1 mm
Retention time: 10.821 min
Base peak: 317.1648
Precursor m/z: 317.1642
Precursor type: [M+H]+
Precursor intensity: 68308424
m/z	relative intensity	assigned
209.152	4	C11H19N3O+
210.1599	2	C11H20N3O+
237.2074	9	C13H25N4+
272.1059	4	C11H18N3O3S+
317.1639	999	C13H25N4O3S+
