Mass spectrum: Quinoline N-oxide; LC-ESI-ITFT; MS2; CE: 40%; R=15000; [M+H]+
Name: Quinoline N-oxide
Name: Quinoline 1-oxide
Name: 1-oxidoquinolin-1-ium
Formula: C9H7NO
Exact mass: 145.052763844
SMILES: [O-][N+]1=CC=CC2=CC=CC=C12
InChI: InChI=1S/C9H7NO/c11-10-7-3-5-8-4-1-2-6-9(8)10/h1-7H
Instrument: LTQ Orbitrap XL Thermo Scientific
Instrument type: LC-ESI-ITFT
Ms type: MS2
Ion mode: POSITIVE
Ionization: ESI
Fragmentation mode: HCD
Collision energy: 40 % (nominal)
Resolution: 15000
Column name: Kinetex Evo C18 2.6 um 50 x 2.1 mm
Retention time: 2.526 min
Base peak: 146.0601
Precursor m/z: 146.06
Precursor type: [M+H]+
Precursor intensity: 18459402
m/z	relative intensity	assigned
91.0538	1	C7H7+
118.0649	3	C8H8N+
128.0492	24	C9H6N+
129.057	26	C9H7N+
146.0597	999	C9H8NO+
