Mass spectrum: 17beta estradiol; LC-ESI-ITFT; MS2; CE: 55; R=15000; [M+H]+
Name: 17beta estradiol
Name: Estradiol
Name: (8R,9S,13S,14S,17S)-13-Methyl-6,7,8,9,11,12,14,15,16,17-decahydrocyclopenta[a]phenanthrene-3,17-diol
Formula: C18H24O2
Exact mass: 272.1776
SMILES: C[C@]12CC[C@H]3[C@@H](CCC4=CC(O)=CC=C34)[C@@H]1CC[C@@H]2O
InChI: InChI=1S/C18H24O2/c1-18-9-8-14-13-5-3-12(19)10-11(13)2-4-15(14)16(18)6-7-17(18)20/h3,5,10,14-17,19-20H,2,4,6-9H2,1H3/t14-,15-,16+,17+,18+/m1/s1
Instrument: LTQ Orbitrap XL Thermo Scientific
Instrument type: LC-ESI-ITFT
Ms type: MS2
Ion mode: POSITIVE
Ionization: ESI
Fragmentation mode: CID
Collision energy: 55 (nominal)
Resolution: 15000
Column name: Kinetex Core-Shell C18 2.6 um, 3.0 x 100 mm, Phenomenex
Retention time: 24.434 min
Base peak: 299.1994
Precursor m/z: 273.1849
Precursor type: [M+H]+
m/z	relative intensity	assigned
100.0754	18	C5H10NO+
109.0645	61	C7H9O+
143.0854	29	C11H11+
145.101	23	C11H13+
147.1169	24	C11H15+
159.1166	21	C12H15+
181.1005	23	C14H13+
185.1323	36	C14H17+
195.1162	143	C15H15+
197.1321	999	C15H17+
199.1113	23	C14H15O+
201.1264	23	C14H17O+
209.1329	27	C16H17+
213.1636	26	C16H21+
215.1425	109	C15H19O+
227.1783	36	C17H23+
237.1633	297	C18H21+
255.1738	486	C18H23O+
