Mass spectrum: 1,3-Dimethyl-2-imidazolidinone; LC-ESI-ITFT; MS2; CE: 90%; R=15000; [M+H]+
Name: 1,3-Dimethyl-2-imidazolidinone
Name: 1,3-dimethylimidazolidin-2-one
Formula: C5H10N2O
Exact mass: 114.07931294
SMILES: CN1CCN(C)C1=O
InChI: InChI=1S/C5H10N2O/c1-6-3-4-7(2)5(6)8/h3-4H2,1-2H3
Instrument: LTQ Orbitrap XL Thermo Scientific
Instrument type: LC-ESI-ITFT
Ms type: MS2
Ion mode: POSITIVE
Ionization: ESI
Fragmentation mode: HCD
Collision energy: 90 % (nominal)
Resolution: 15000
Column name: Kinetex Evo C18 2.6 um 50 x 2.1 mm
Retention time: 0.996 min
Base peak: 115.0869
Precursor m/z: 115.0866
Precursor type: [M+H]+
Precursor intensity: 33594136
m/z	relative intensity	assigned
56.0492	93	C3H6N+
58.0648	999	C3H8N+
72.068	20	C3H8N2+
85.0759	3	C4H9N2+
86.0838	11	C4H10N2+
87.0916	234	C4H11N2+
99.0552	24	C4H7N2O+
100.063	6	C4H8N2O+
113.071	18	C5H9N2O+
115.0865	978	C5H11N2O+
