Mass spectrum: Imazalil; LC-ESI-ITFT; MS2; CE: 80%; R=15000; [M+H]+
Name: Imazalil
Name: Enilconazole
Name: 1-[2-(2,4-dichlorophenyl)-2-prop-2-enoxyethyl]imidazole
Formula: C14H14Cl2N2O
Exact mass: 296.048318428
SMILES: ClC1=CC=C(C(CN2C=CN=C2)OCC=C)C(Cl)=C1
InChI: InChI=1S/C14H14Cl2N2O/c1-2-7-19-14(9-18-6-5-17-10-18)12-4-3-11(15)8-13(12)16/h2-6,8,10,14H,1,7,9H2
Instrument: LTQ Orbitrap XL Thermo Scientific
Instrument type: LC-ESI-ITFT
Ms type: MS2
Ion mode: POSITIVE
Ionization: ESI
Fragmentation mode: HCD
Collision energy: 80 % (nominal)
Resolution: 15000
Column name: Kinetex Evo C18 2.6 um 50 x 2.1 mm
Retention time: 8.313 min
Base peak: 297.0566
Precursor m/z: 297.0556
Precursor type: [M+H]+
Precursor intensity: 46708960
m/z	relative intensity	assigned
67.0415	15	C4H5N+
68.0496	8	C4H6N+
69.0446	334	C3H5N2+
80.0493	14	C5H6N+
81.0447	197	C4H5N2+
82.0525	55	C4H6N2+
82.065	44	C5H8N+
102.0463	20	C8H6+
109.076	72	C6H9N2+
115.0542	12	C9H7+
122.9996	25	C7H4Cl+
125.0151	7	C7H6Cl+
128.0619	6	C10H8+
129.0698	23	C10H9+
137.0154	25	C8H6Cl+
138.023	23	C8H7Cl+
141.0698	86	C11H9+
149.0158	12	C9H6Cl+
150.0232	19	C9H7Cl+
158.9763	999	C7H5Cl2+
172.9919	113	C8H7Cl2+
175.0311	11	C11H8Cl+
176.0387	48	C11H9Cl+
186.9703	6	C8H5Cl2O+
