Mass spectrum: Phenazone / antipyrine; LC-ESI-ITFT; MS2; CE: 55; R=15000; [M+H]+
Name: Phenazone / antipyrine
Name: 1,5-Dimethyl-2-phenylpyrazol-3-one
Formula: C11H12N2O
Exact mass: 188.0950
SMILES: CN1N(C(=O)C=C1C)C1=CC=CC=C1
InChI: InChI=1S/C11H12N2O/c1-9-8-11(14)13(12(9)2)10-6-4-3-5-7-10/h3-8H,1-2H3
Instrument: LTQ Orbitrap XL Thermo Scientific
Instrument type: LC-ESI-ITFT
Ms type: MS2
Ion mode: POSITIVE
Ionization: ESI
Fragmentation mode: HCD
Collision energy: 55 (nominal)
Resolution: 15000
Column name: Kinetex Core-Shell C18 2.6 um, 3.0 x 100 mm, Phenomenex
Retention time: 16.961 min
Base peak: 163.1329
Precursor m/z: 189.1022
Precursor type: [M+H]+
m/z	relative intensity	assigned
70.0653	2	C4H8N+
77.0387	5	C6H5+
81.0449	4	C4H5N2+
91.0544	11	C7H7+
92.0497	1	C6H6N+
93.0336	1	C6H5O+
95.0606	4	C5H7N2+
96.0447	3	C5H6NO+
96.0684	19	C5H8N2+
98.0603	7	C5H8NO+
103.0545	3	C8H7+
104.0497	48	C7H6N+
105.0337	2	C7H5O+
105.0452	1	C6H5N2+
105.0702	2	C8H9+
106.0653	25	C7H8N+
111.0556	2	C5H7N2O+
115.0545	1	C9H7+
117.0575	4	C8H7N+
117.0702	10	C9H9+
118.0654	27	C8H8N+
120.081	27	C8H10N+
130.0654	31	C9H8N+
131.0732	45	C9H9N+
132.081	23	C9H10N+
133.0525	4	C8H7NO+
133.0764	6	C8H9N2+
134.0968	5	C9H12N+
135.0558	2	C7H7N2O+
144.0811	45	C10H10N+
145.0652	18	C10H9O+
145.0764	3	C9H9N2+
145.0886	1	C10H11N+
146.0841	50	C9H10N2+
146.0967	14	C10H12N+
147.092	83	C9H11N2+
148.0761	7	C9H10NO+
149.0713	5	C8H9N2O+
157.0525	4	C10H7NO+
158.0603	3	C10H8NO+
159.0916	1	C10H11N2+
160.0997	2	C10H12N2+
161.1076	75	C10H13N2+
171.0922	1	C11H11N2+
172.0763	11	C11H10NO+
174.0792	49	C10H10N2O+
189.1025	999	C11H13N2O+
