Mass spectrum: Boscalid; LC-ESI-ITFT; MS2; CE: 60%; R=15000; [M+H]+
Name: Boscalid
Name: 2-chloro-N-[2-(4-chlorophenyl)phenyl]pyridine-3-carboxamide
Formula: C18H12Cl2N2O
Exact mass: 342.032668364
SMILES: ClC1=CC=C(C=C1)C1=CC=CC=C1NC(=O)C1=CC=CN=C1Cl
InChI: InChI=1S/C18H12Cl2N2O/c19-13-9-7-12(8-10-13)14-4-1-2-6-16(14)22-18(23)15-5-3-11-21-17(15)20/h1-11H,(H,22,23)
Instrument: LTQ Orbitrap XL Thermo Scientific
Instrument type: LC-ESI-ITFT
Ms type: MS2
Ion mode: POSITIVE
Ionization: ESI
Fragmentation mode: HCD
Collision energy: 60 % (nominal)
Resolution: 15000
Column name: Kinetex Evo C18 2.6 um 50 x 2.1 mm
Retention time: 11.206 min
Base peak: 404.1245
Precursor m/z: 343.0399
Precursor type: [M+H]+
Precursor intensity: 8692095
m/z	relative intensity	assigned
78.0339	129	C5H4N+
94.0288	30	C5H4NO+
96.0445	179	C5H6NO+
111.995	63	C5H3ClN+
112.0395	29	C2H9ClN2O+
114.0106	133	C5H5ClN+
130.0056	20	C5H5ClNO+
139.99	409	C6H3ClNO+
230.037	11	C13H9ClNO+
243.0919	96	C17H11N2+
244.1	43	C17H12N2+
253.0763	51	C18H9N2+
254.0842	88	C18H10N2+
264.0577	16	C17H11ClN+
271.0869	956	C18H11N2O+
272.0947	999	C18H12N2O+
279.0692	15	C17H12ClN2+
289.0529	223	C18H10ClN2+
305.0478	12	C18H10ClN2O+
307.0636	725	C18H12ClN2O+
