Mass spectrum: Ofloxacin; LC-ESI-ITFT; MS2; CE: 55; R=15000; [M+H]+
Name: Ofloxacin
Formula: C18H20FN3O4
Exact mass: 361.1438
SMILES: CC1COC2=C3N1C=C(C(O)=O)C(=O)C3=CC(F)=C2N1CCN(C)CC1
InChI: InChI=1S/C18H20FN3O4/c1-10-9-26-17-14-11(16(23)12(18(24)25)8-22(10)14)7-13(19)15(17)21-5-3-20(2)4-6-21/h7-8,10H,3-6,9H2,1-2H3,(H,24,25)
Instrument: LTQ Orbitrap XL Thermo Scientific
Instrument type: LC-ESI-ITFT
Ms type: MS2
Ion mode: POSITIVE
Ionization: ESI
Fragmentation mode: CID
Collision energy: 55 (nominal)
Resolution: 15000
Column name: Kinetex Core-Shell C18 2.6 um, 3.0 x 100 mm, Phenomenex
Retention time: 15.858 min
Base peak: 163.1328
Precursor m/z: 362.1511
Precursor type: [M+H]+
m/z	relative intensity	assigned
261.104	25	C14H14FN2O2+
298.1556	2	C14H21FN3O3+
316.1464	6	C17H19FN3O2+
318.1617	999	C17H21FN3O2+
344.1412	56	C18H19FN3O3+
362.1515	2	C18H21FN3O4+
