Mass spectrum: Dodemorph; LC-ESI-ITFT; MS2; CE: 90%; R=15000; [M+H]+
Name: Dodemorph
Name: 4-cyclododecyl-2,6-dimethylmorpholine
Formula: C18H35NO
Exact mass: 281.27186474
SMILES: CC1CN(CC(C)O1)C1CCCCCCCCCCC1
InChI: InChI=1S/C18H35NO/c1-16-14-19(15-17(2)20-16)18-12-10-8-6-4-3-5-7-9-11-13-18/h16-18H,3-15H2,1-2H3
Instrument: LTQ Orbitrap XL Thermo Scientific
Instrument type: LC-ESI-ITFT
Ms type: MS2
Ion mode: POSITIVE
Ionization: ESI
Fragmentation mode: HCD
Collision energy: 90 % (nominal)
Resolution: 15000
Column name: Kinetex Evo C18 2.6 um 50 x 2.1 mm
Retention time: 8.713 min
Base peak: 116.9862
Precursor m/z: 282.2791
Precursor type: [M+H]+
Precursor intensity: 1338963
m/z	relative intensity	assigned
57.0696	33	C4H9+
58.0649	31	C3H8N+
59.049	7	C3H7O+
67.054	10	C5H7+
69.0697	287	C5H9+
70.0649	64	C4H8N+
71.0853	4	C5H11+
79.0541	11	C6H7+
81.0698	46	C6H9+
83.0854	112	C6H11+
95.0856	14	C7H11+
96.0807	6	C6H10N+
97.1011	29	C7H13+
98.0963	999	C6H12N+
109.1013	9	C8H13+
116.1069	188	C6H14NO+
