Mass spectrum: Finasteride; LC-ESI-ITFT; MS2; CE: 80; R=15000; [M+H]+
Name: Finasteride
Name: (1S,3aS,3bS,5aR,9aR,9bS,11aS)-N-Tert-butyl-9a,11a-dimethyl-7-oxo-1,2,3,3a,3b,4,5,5a,6,9b,10,11-dodecahydroindeno[5,4-f]quinoline-1-carboxamide
Formula: C23H36N2O2
Exact mass: 372.2777
SMILES: CC(C)(C)NC(=O)[C@H]1CC[C@H]2[C@@H]3CC[C@H]4NC(=O)C=C[C@]4(C)[C@H]3CC[C@]12C
InChI: InChI=1S/C23H36N2O2/c1-21(2,3)25-20(27)17-8-7-15-14-6-9-18-23(5,13-11-19(26)24-18)16(14)10-12-22(15,17)4/h11,13-18H,6-10,12H2,1-5H3,(H,24,26)(H,25,27)/t14-,15-,16-,17+,18+,22-,23+/m0/s1
Instrument: LTQ Orbitrap XL Thermo Scientific
Instrument type: LC-ESI-ITFT
Ms type: MS2
Ion mode: POSITIVE
Ionization: ESI
Fragmentation mode: HCD
Collision energy: 80 (nominal)
Resolution: 15000
Column name: Kinetex Core-Shell C18 2.6 um, 3.0 x 100 mm, Phenomenex
Retention time: 25.045 min
Base peak: 163.1328
Precursor m/z: 373.285
Precursor type: [M+H]+
m/z	relative intensity	assigned
70.0651	36	C4H8N+
72.0444	94	C3H6NO+
77.0386	35	C6H5+
79.0542	255	C6H7+
81.0699	376	C6H9+
83.0855	19	C6H11+
86.0601	69	C4H8NO+
91.0543	263	C7H7+
93.0699	448	C7H9+
95.0855	999	C7H11+
96.0444	120	C5H6NO+
96.0889	14	C2H12N2O2+
98.06	116	C5H8NO+
105.0699	365	C8H9+
107.0855	346	C8H11+
108.081	31	C7H10N+
109.0649	21	C7H9O+
109.1012	127	C8H13+
110.06	131	C6H8NO+
112.0758	13	C6H10NO+
117.0701	76	C9H9+
119.0856	376	C9H11+
120.0807	14	C8H10N+
121.0649	49	C8H9O+
121.1013	159	C9H13+
122.0602	112	C7H8NO+
124.0757	94	C7H10NO+
126.0915	34	C7H12NO+
128.0622	17	C10H8+
129.07	51	C10H9+
131.0857	228	C10H11+
133.1012	296	C10H13+
135.117	72	C10H15+
136.0756	36	C8H10NO+
138.0913	54	C8H12NO+
141.0693	13	C11H9+
143.0856	125	C11H11+
145.1013	264	C11H13+
147.0803	25	C10H11O+
147.1169	277	C11H15+
148.121	12	C6H16N2O2+
149.1329	31	C11H17+
150.0911	23	C9H12NO+
155.0856	56	C12H11+
157.1015	80	C12H13+
159.117	124	C12H15+
161.0963	53	C11H13O+
161.1327	85	C12H17+
164.1071	12	C10H14NO+
169.1013	33	C13H13+
171.1168	61	C13H15+
173.096	29	C12H13O+
173.1326	139	C13H17+
175.1119	27	C12H15O+
175.1483	124	C13H19+
181.1018	30	C14H13+
183.1171	32	C14H15+
185.1325	120	C14H17+
187.1483	221	C14H19+
189.164	56	C14H21+
195.1175	43	C15H15+
197.1328	57	C15H17+
199.1122	12	C14H15O+
199.1483	17	C15H19+
201.1641	15	C15H21+
204.175	17	C14H22N+
209.133	12	C16H17+
211.1476	19	C16H19+
213.1277	11	C15H17O+
213.1645	37	C16H21+
215.1431	59	C15H19O+
220.1701	28	C14H22NO+
232.1698	19	C15H22NO+
237.1645	12	C18H21+
249.1962	42	C15H25N2O+
254.1904	18	C18H24N+
299.2125	76	C19H27N2O+
305.2591	252	C19H33N2O+
355.2755	36	C23H35N2O+
357.2544	91	C22H33N2O2+
373.2855	26	C23H37N2O2+
