Mass spectrum: Exemestane; LC-ESI-ITFT; MS2; CE: 60%; R=15000; [M+H]+
Name: Exemestane
Name: (8R,9S,10R,13S,14S)-10,13-dimethyl-6-methylidene-7,8,9,11,12,14,15,16-octahydrocyclopenta[a]phenanthrene-3,17-dione
Formula: C20H24O2
Exact mass: 296.177630008
SMILES: [H][C@@]12CCC(=O)[C@@]1(C)CC[C@@]1([H])[C@@]2([H])CC(=C)C2=CC(=O)C=C[C@]12C
InChI: InChI=1S/C20H24O2/c1-12-10-14-15-4-5-18(22)20(15,3)9-7-16(14)19(2)8-6-13(21)11-17(12)19/h6,8,11,14-16H,1,4-5,7,9-10H2,2-3H3/t14-,15-,16-,19+,20-/m0/s1
Instrument: LTQ Orbitrap XL Thermo Scientific
Instrument type: LC-ESI-ITFT
Ms type: MS2
Ion mode: POSITIVE
Ionization: ESI
Fragmentation mode: HCD
Collision energy: 60 % (nominal)
Resolution: 15000
Column name: Kinetex Evo C18 2.6 um 50 x 2.1 mm
Retention time: 11.172 min
Base peak: 297.1852
Precursor m/z: 297.1849
Precursor type: [M+H]+
Precursor intensity: 4689975
m/z	relative intensity	assigned
55.0541	48	C4H7+
67.0543	67	C5H7+
79.0544	157	C6H7+
81.0701	147	C6H9+
83.0493	386	C5H7O+
91.0544	184	C7H7+
93.0701	252	C7H9+
95.0857	161	C7H11+
105.0701	246	C8H9+
107.0495	119	C7H7O+
107.0859	111	C8H11+
109.065	999	C7H9O+
109.1013	103	C8H13+
115.0547	31	C9H7+
117.0701	148	C9H9+
119.0858	251	C9H11+
121.0649	76	C8H9O+
121.1016	113	C9H13+
123.081	59	C8H11O+
129.0702	110	C10H9+
131.0857	222	C10H11+
133.1014	95	C10H13+
135.0807	205	C9H11O+
141.0699	36	C11H9+
143.0858	149	C11H11+
145.1014	200	C11H13+
147.0807	73	C10H11O+
147.1174	50	C11H15+
149.0961	63	C10H13O+
155.0856	64	C12H11+
156.0929	37	C12H12+
157.1015	115	C12H13+
159.0806	36	C11H11O+
159.1169	39	C12H15+
161.0961	101	C11H13O+
161.1326	77	C12H17+
163.1119	53	C11H15O+
169.1015	60	C13H13+
171.1172	171	C13H15+
173.1327	84	C13H17+
175.112	40	C12H15O+
181.102	31	C14H13+
183.1169	39	C14H15+
185.1328	69	C14H17+
195.1173	51	C15H15+
209.1328	28	C16H17+
213.1639	70	C16H21+
223.149	32	C17H19+
231.1748	107	C16H23O+
