Mass spectrum: Desonide; LC-ESI-ITFT; MS2; CE: 50%; R=15000; [M+H]+
Name: Desonide
Name: (1S,2S,4R,8S,9S,11S,12S,13R)-11-hydroxy-8-(2-hydroxyacetyl)-6,6,9,13-tetramethyl-5,7-dioxapentacyclo[10.8.0.02,9.04,8.013,18]icosa-14,17-dien-16-one
Formula: C24H32O6
Exact mass: 416.219888744
SMILES: CC1(C)O[C@@H]2C[C@H]3[C@@H]4CCC5=CC(=O)C=C[C@]5(C)[C@H]4[C@@H](O)C[C@]3(C)[C@@]2(O1)C(=O)CO
InChI: InChI=1S/C24H32O6/c1-21(2)29-19-10-16-15-6-5-13-9-14(26)7-8-22(13,3)20(15)17(27)11-23(16,4)24(19,30-21)18(28)12-25/h7-9,15-17,19-20,25,27H,5-6,10-12H2,1-4H3/t15-,16-,17-,19+,20+,22-,23-,24+/m0/s1
Instrument: LTQ Orbitrap XL Thermo Scientific
Instrument type: LC-ESI-ITFT
Ms type: MS2
Ion mode: POSITIVE
Ionization: ESI
Fragmentation mode: HCD
Collision energy: 50 % (nominal)
Resolution: 15000
Column name: Kinetex Evo C18 2.6 um 50 x 2.1 mm
Retention time: 10.844 min
Base peak: 417.2271
Precursor m/z: 417.2272
Precursor type: [M+H]+
Precursor intensity: 12786204
m/z	relative intensity	assigned
121.0651	189	C8H9O+
147.0806	999	C10H11O+
173.0962	579	C12H13O+
211.1122	178	C15H15O+
225.1276	456	C16H17O+
226.1351	297	C16H18O+
