Mass spectrum: Imidacloprid-urea; LC-ESI-ITFT; MS2; CE: 40%; R=15000; [M+H]+
Name: Imidacloprid-urea
Name: 1-[(6-chloropyridin-3-yl)methyl]imidazolidin-2-one
Formula: C9H10ClN3O
Exact mass: 211.05123962
SMILES: ClC1=NC=C(CN2CCNC2=O)C=C1
InChI: InChI=1S/C9H10ClN3O/c10-8-2-1-7(5-12-8)6-13-4-3-11-9(13)14/h1-2,5H,3-4,6H2,(H,11,14)
Instrument: LTQ Orbitrap XL Thermo Scientific
Instrument type: LC-ESI-ITFT
Ms type: MS2
Ion mode: POSITIVE
Ionization: ESI
Fragmentation mode: HCD
Collision energy: 40 % (nominal)
Resolution: 15000
Column name: Kinetex Evo C18 2.6 um 50 x 2.1 mm
Retention time: 5.334 min
Base peak: 212.0593
Precursor m/z: 212.0585
Precursor type: [M+H]+
Precursor intensity: 9376431
m/z	relative intensity	assigned
56.0492	4	C3H6N+
71.0602	1	C3H7N2+
85.0396	3	C3H5N2O+
92.0496	1	C6H6N+
99.0553	156	C4H7N2O+
114.0106	2	C5H5ClN+
126.0106	63	C6H5ClN+
128.0262	641	C6H7ClN+
169.0527	6	C8H10ClN2+
170.0375	1	C8H9ClNO+
176.0819	15	C9H10N3O+
194.0483	4	C9H9ClN3+
195.0321	22	C9H8ClN2O+
212.0586	999	C9H11ClN3O+
