Mass spectrum: Dimethachlor; LC-ESI-ITFT; MS2; CE: 70%; R=15000; [M+H]+
Name: Dimethachlor
Name: 2-chloro-N-(2,6-dimethylphenyl)-N-(2-methoxyethyl)acetamide
Formula: C13H18ClNO2
Exact mass: 255.102606496
SMILES: COCCN(C(=O)CCl)C1=C(C)C=CC=C1C
InChI: InChI=1S/C13H18ClNO2/c1-10-5-4-6-11(2)13(10)15(7-8-17-3)12(16)9-14/h4-6H,7-9H2,1-3H3
Instrument: LTQ Orbitrap XL Thermo Scientific
Instrument type: LC-ESI-ITFT
Ms type: MS2
Ion mode: POSITIVE
Ionization: ESI
Fragmentation mode: HCD
Collision energy: 70 % (nominal)
Resolution: 15000
Column name: Kinetex Evo C18 2.6 um 50 x 2.1 mm
Retention time: 10.310 min
Base peak: 256.1104
Precursor m/z: 256.1099
Precursor type: [M+H]+
Precursor intensity: 32054662
m/z	relative intensity	assigned
76.9787	56	C2H2ClO+
77.0384	4	C6H5+
79.0541	13	C6H7+
91.0541	7	C7H7+
93.0699	1	C7H9+
103.0541	8	C8H7+
105.0697	133	C8H9+
106.078	3	C8H10+
107.073	1	C7H9N+
107.0854	7	C8H11+
118.065	16	C8H8N+
119.0854	10	C9H11+
120.0806	10	C8H10N+
121.0647	13	C8H9O+
121.1009	2	C9H13+
122.0962	3	C8H12N+
123.0804	3	C8H11O+
131.0728	18	C9H9N+
131.0854	14	C10H11+
132.0806	118	C9H10N+
133.0884	43	C9H11N+
134.0964	5	C9H12N+
144.0807	9	C10H10N+
145.0886	2	C10H11N+
146.0964	27	C10H12N+
147.0678	2	C9H9NO+
147.1043	20	C10H13N+
148.1119	999	C10H14N+
153.0461	2	C9H10Cl+
160.0758	2	C10H10NO+
174.0911	18	C11H12NO+
224.0834	255	C12H15ClNO+
