Mass spectrum: Sulfapyridine; LC-ESI-ITFT; MS2; CE: 20%; R=15000; [M+H]+
Name: Sulfapyridine
Name: 4-amino-N-pyridin-2-ylbenzenesulfonamide
Formula: C11H11N3O2S
Exact mass: 249.057197592
SMILES: NC1=CC=C(C=C1)S(=O)(=O)NC1=NC=CC=C1
InChI: InChI=1S/C11H11N3O2S/c12-9-4-6-10(7-5-9)17(15,16)14-11-3-1-2-8-13-11/h1-8H,12H2,(H,13,14)
Instrument: LTQ Orbitrap XL Thermo Scientific
Instrument type: LC-ESI-ITFT
Ms type: MS2
Ion mode: POSITIVE
Ionization: ESI
Fragmentation mode: HCD
Collision energy: 20 % (nominal)
Resolution: 15000
Column name: Kinetex Evo C18 2.6 um 50 x 2.1 mm
Retention time: 1.744 min
Base peak: 250.0654
Precursor m/z: 250.0645
Precursor type: [M+H]+
Precursor intensity: 4547338
m/z	relative intensity	assigned
92.0498	5	C6H6N+
95.0607	7	C5H7N2+
108.0448	8	C6H6NO+
156.0118	50	C6H6NO2S+
157.0071	3	C5H5N2O2S+
184.0875	24	C11H10N3+
250.065	999	C11H12N3O2S+
