Mass spectrum: L-Thyroxine; LC-ESI-ITFT; MS2; CE: 40%; R=15000; [M+H]+
Name: L-Thyroxine
Name: Levothyroxine
Name: (2S)-2-amino-3-[4-(4-hydroxy-3,5-diiodophenoxy)-3,5-diiodophenyl]propanoic acid
Formula: C15H11I4NO4
Exact mass: 776.686699832
SMILES: N[C@@H](CC1=CC(I)=C(OC2=CC(I)=C(O)C(I)=C2)C(I)=C1)C(O)=O
InChI: InChI=1S/C15H11I4NO4/c16-8-4-7(5-9(17)13(8)21)24-14-10(18)1-6(2-11(14)19)3-12(20)15(22)23/h1-2,4-5,12,21H,3,20H2,(H,22,23)/t12-/m0/s1
Instrument: LTQ Orbitrap XL Thermo Scientific
Instrument type: LC-ESI-ITFT
Ms type: MS2
Ion mode: POSITIVE
Ionization: ESI
Fragmentation mode: HCD
Collision energy: 40 % (nominal)
Resolution: 15000
Column name: Kinetex Evo C18 2.6 um 50 x 2.1 mm
Retention time: 11.101 min
Base peak: 777.6962
Precursor m/z: 777.694
Precursor type: [M+H]+
Precursor intensity: 8076690
m/z	relative intensity	assigned
104.0497	8	C7H6N+
117.0576	81	C8H7N+
118.0653	27	C8H8N+
169.0647	9	C12H9O+
179.0483	4	C13H7O+
181.0652	12	C13H9O+
196.0759	29	C13H10NO+
197.0602	75	C13H9O2+
216.9514	80	C7H6I+
223.0633	172	C14H9NO2+
224.0716	100	C14H10NO2+
225.0553	10	C14H9O3+
232.9463	99	C7H6IO+
242.9547	25	C8H6IN+
243.9621	17	C8H7IN+
253.0501	40	C15H9O4+
259.9572	128	C8H7INO+
295.9698	7	C12H9IO+
309.9491	209	C12H7IO2+
322.9569	202	C13H8IO2+
323.9648	755	C13H9IO2+
333.949	26	C14H7IO2+
335.9644	71	C14H9IO2+
336.9364	34	C13H6IO3+
337.944	165	C13H7IO3+
345.8352	83	C6H4I2O+
349.9677	152	C14H9INO2+
350.9754	999	C14H10INO2+
351.9607	124	C14H9IO3+
358.8433	30	C7H5I2O+
360.8219	50	C6H3I2O2+
378.9462	27	C15H8IO4+
379.9542	291	C15H9IO4+
386.8383	4	C8H5I2O2+
432.8587	36	C13H7I2O+
448.8532	158	C13H7I2O2+
449.8601	66	C13H8I2O2+
450.8685	287	C13H9I2O2+
476.8712	89	C14H9I2NO2+
478.8637	54	C14H9I2O3+
488.8471	50	C15H7I2O3+
576.7652	202	C13H8I3O2+
577.7723	118	C13H9I3O2+
604.7836	605	C14H10I3NO2+
633.7598	16	C15H9I3O4+
718.6563	15	C13H7I4O3+
731.6888	176	C14H10I4NO2+
