Mass spectrum: Propyphenazone; LC-ESI-ITFT; MS2; CE: 30%; R=15000; [M+H]+
Name: Propyphenazone
Name: 1,5-dimethyl-2-phenyl-4-propan-2-ylpyrazol-3-one
Formula: C14H18N2O
Exact mass: 230.141913196
SMILES: CC(C)C1=C(C)N(C)N(C1=O)C1=CC=CC=C1
InChI: InChI=1S/C14H18N2O/c1-10(2)13-11(3)15(4)16(14(13)17)12-8-6-5-7-9-12/h5-10H,1-4H3
Instrument: LTQ Orbitrap XL Thermo Scientific
Instrument type: LC-ESI-ITFT
Ms type: MS2
Ion mode: POSITIVE
Ionization: ESI
Fragmentation mode: HCD
Collision energy: 30 % (nominal)
Resolution: 15000
Column name: Kinetex Evo C18 2.6 um 50 x 2.1 mm
Retention time: 9.582 min
Base peak: 231.1502
Precursor m/z: 231.1492
Precursor type: [M+H]+
Precursor intensity: 23774632
m/z	relative intensity	assigned
189.1024	5	C11H13N2O+
216.1261	1	C13H16N2O+
231.1495	999	C14H19N2O+
