Mass spectrum: Testosterone; LC-ESI-ITFT; MS2; CE: 80; R=15000; [M+H]+
Name: Testosterone
Name: (8R,9S,10R,13S,14S,17S)-17-Hydroxy-10,13-dimethyl-1,2,6,7,8,9,11,12,14,15,16,17-dodecahydrocyclopenta[a]phenanthren-3-one
Formula: C19H28O2
Exact mass: 288.2089
SMILES: C[C@]12CC[C@H]3[C@@H](CCC4=CC(=O)CC[C@]34C)[C@@H]1CC[C@@H]2O
InChI: InChI=1S/C19H28O2/c1-18-9-7-13(20)11-12(18)3-4-14-15-5-6-17(21)19(15,2)10-8-16(14)18/h11,14-17,21H,3-10H2,1-2H3/t14-,15-,16-,17-,18-,19-/m0/s1
Instrument: LTQ Orbitrap XL Thermo Scientific
Instrument type: LC-ESI-ITFT
Ms type: MS2
Ion mode: POSITIVE
Ionization: ESI
Fragmentation mode: HCD
Collision energy: 80 (nominal)
Resolution: 15000
Column name: Kinetex Core-Shell C18 2.6 um, 3.0 x 100 mm, Phenomenex
Retention time: 24.975 min
Base peak: 289.2153
Precursor m/z: 289.2162
Precursor type: [M+H]+
m/z	relative intensity	assigned
77.0383	20	C6H5+
79.054	131	C6H7+
81.0696	142	C6H9+
83.0489	29	C5H7O+
91.054	73	C7H7+
93.0697	75	C7H9+
95.0853	66	C7H11+
97.0645	936	C6H9O+
105.0696	95	C8H9+
107.0852	42	C8H11+
109.0645	999	C7H9O+
111.08	5	C7H11O+
117.0696	19	C9H9+
119.0853	64	C9H11+
121.0647	12	C8H9O+
121.1008	18	C9H13+
123.0801	174	C8H11O+
129.0696	10	C10H9+
131.0852	28	C10H11+
133.1008	29	C10H13+
135.1168	6	C10H15+
137.0962	5	C9H13O+
143.0852	17	C11H11+
145.1009	27	C11H13+
147.1167	18	C11H15+
149.0957	4	C10H13O+
149.1321	2	C11H17+
155.0853	6	C12H11+
157.1007	18	C12H13+
159.1166	21	C12H15+
161.1323	7	C12H17+
169.1009	5	C13H13+
171.1163	9	C13H15+
183.1164	5	C14H15+
187.1474	4	C14H19+
