Mass spectrum: Finasteride; LC-ESI-ITFT; MS2; CE: 40%; R=15000; [M+H]+
Name: Finasteride
Name: (1S,3aS,3bS,5aR,9aR,9bS,11aS)-N-tert-butyl-9a,11a-dimethyl-7-oxo-1,2,3,3a,3b,4,5,5a,6,9b,10,11-dodecahydroindeno[5,4-f]quinoline-1-carboxamide
Formula: C23H36N2O2
Exact mass: 372.277678392
SMILES: CC(C)(C)NC(=O)[C@H]1CC[C@H]2[C@@H]3CC[C@H]4NC(=O)C=C[C@]4(C)[C@H]3CC[C@]12C
InChI: InChI=1S/C23H36N2O2/c1-21(2,3)25-20(27)17-8-7-15-14-6-9-18-23(5,13-11-19(26)24-18)16(14)10-12-22(15,17)4/h11,13-18H,6-10,12H2,1-5H3,(H,24,26)(H,25,27)/t14-,15-,16-,17+,18+,22-,23+/m0/s1
Instrument: LTQ Orbitrap XL Thermo Scientific
Instrument type: LC-ESI-ITFT
Ms type: MS2
Ion mode: POSITIVE
Ionization: ESI
Fragmentation mode: HCD
Collision energy: 40 % (nominal)
Resolution: 15000
Column name: Kinetex Evo C18 2.6 um 50 x 2.1 mm
Retention time: 11.885 min
Base peak: 373.2859
Precursor m/z: 373.285
Precursor type: [M+H]+
Precursor intensity: 6633156
m/z	relative intensity	assigned
57.0697	7	C4H9+
69.0334	7	C4H5O+
72.0807	11	C4H10N+
81.07	3	C6H9+
95.0855	6	C7H11+
98.06	2	C5H8NO+
107.0857	1	C8H11+
121.1012	4	C9H13+
175.1481	6	C13H19+
177.1635	4	C13H21+
187.1484	1	C14H19+
189.1636	5	C14H21+
220.17	5	C14H22NO+
232.1689	1	C15H22NO+
255.1742	4	C18H23O+
257.1899	2	C18H25O+
272.2009	2	C18H26NO+
274.2165	4	C18H28NO+
305.2587	115	C19H33N2O+
317.2222	3	C19H29N2O2+
373.2847	999	C23H37N2O2+
