Mass spectrum: L-Thyroxine; LC-ESI-ITFT; MS2; CE: 70%; R=15000; [M+H]+
Name: L-Thyroxine
Name: Levothyroxine
Name: (2S)-2-amino-3-[4-(4-hydroxy-3,5-diiodophenoxy)-3,5-diiodophenyl]propanoic acid
Formula: C15H11I4NO4
Exact mass: 776.686699832
SMILES: N[C@@H](CC1=CC(I)=C(OC2=CC(I)=C(O)C(I)=C2)C(I)=C1)C(O)=O
InChI: InChI=1S/C15H11I4NO4/c16-8-4-7(5-9(17)13(8)21)24-14-10(18)1-6(2-11(14)19)3-12(20)15(22)23/h1-2,4-5,12,21H,3,20H2,(H,22,23)/t12-/m0/s1
Instrument: LTQ Orbitrap XL Thermo Scientific
Instrument type: LC-ESI-ITFT
Ms type: MS2
Ion mode: POSITIVE
Ionization: ESI
Fragmentation mode: HCD
Collision energy: 70 % (nominal)
Resolution: 15000
Column name: Kinetex Evo C18 2.6 um 50 x 2.1 mm
Retention time: 11.094 min
Base peak: 777.6963
Precursor m/z: 777.694
Precursor type: [M+H]+
Precursor intensity: 7964067.5
m/z	relative intensity	assigned
168.0573	376	C12H8O+
169.0651	608	C12H9O+
197.0601	670	C13H9O2+
223.0631	443	C14H9NO2+
322.9565	999	C13H8IO2+
633.6005	163	C4I4NO4+
