Mass spectrum: Octaethylene glycol; LC-ESI-ITFT; MS2; CE: 70%; R=15000; [M+Na]+
Name: Octaethylene glycol
Name: 3,6,9,12,15,18,21-Heptaoxatricosane-1,23-diol
Name: 2-[2-[2-[2-[2-[2-[2-(2-hydroxyethoxy)ethoxy]ethoxy]ethoxy]ethoxy]ethoxy]ethoxy]ethanol
Formula: C16H34O9
Exact mass: 370.2203
SMILES: OCCOCCOCCOCCOCCOCCOCCOCCO
InChI: InChI=1S/C16H34O9/c17-1-3-19-5-7-21-9-11-23-13-15-25-16-14-24-12-10-22-8-6-20-4-2-18/h17-18H,1-16H2
Instrument: LTQ Orbitrap XL Thermo Scientific
Instrument type: LC-ESI-ITFT
Ms type: MS2
Ion mode: POSITIVE
Ionization: ESI
Fragmentation mode: CID
Collision energy: 70 % (nominal)
Resolution: 15000
Column name: Kinetex Evo C18 2.6 um 50 x 2.1 mm
Retention time: 6.822 min
Base peak: 388.2545
Precursor m/z: 393.2095
Precursor type: [M+Na]+
m/z	relative intensity	assigned
261.1301	102	C10H22NaO6+
287.1465	80	C12H24NaO6+
305.1569	141	C12H26NaO7+
331.1728	114	C14H28NaO7+
349.1834	999	C14H30NaO8+
