Mass spectrum: Cetirizine; LC-ESI-ITFT; MS2; CE: 80%; R=15000; [M+H]+
Name: Cetirizine
Name: 2-[2-[4-[(4-chlorophenyl)-phenylmethyl]piperazin-1-yl]ethoxy]acetic acid
Formula: C21H25ClN2O3
Exact mass: 388.15537034
SMILES: OC(=O)COCCN1CCN(CC1)C(C1=CC=CC=C1)C1=CC=C(Cl)C=C1
InChI: InChI=1S/C21H25ClN2O3/c22-19-8-6-18(7-9-19)21(17-4-2-1-3-5-17)24-12-10-23(11-13-24)14-15-27-16-20(25)26/h1-9,21H,10-16H2,(H,25,26)
Instrument: LTQ Orbitrap XL Thermo Scientific
Instrument type: LC-ESI-ITFT
Ms type: MS2
Ion mode: POSITIVE
Ionization: ESI
Fragmentation mode: HCD
Collision energy: 80 % (nominal)
Resolution: 15000
Column name: Kinetex Evo C18 2.6 um 50 x 2.1 mm
Retention time: 9.969 min
Base peak: 389.1636
Precursor m/z: 389.1626
Precursor type: [M+H]+
Precursor intensity: 36086532
m/z	relative intensity	assigned
57.0571	2	C3H7N+
58.0649	1	C3H8N+
70.065	9	C4H8N+
72.0807	150	C4H10N+
84.0681	2	C4H8N2+
91.0544	1	C7H7+
107.0493	3	C7H7O+
128.0624	1	C10H8+
129.0699	3	C10H9+
165.07	516	C13H9+
166.0777	999	C13H10+
183.0806	5	C13H11O+
193.076	39	C13H9N2+
199.0309	15	C13H8Cl+
201.0466	146	C13H10Cl+
