Mass spectrum: Gabapentin; LC-ESI-ITFT; MS2; CE: 60%; R=15000; [M+H]+
Name: Gabapentin
Name: 2-[1-(aminomethyl)cyclohexyl]acetic acid
Formula: C9H17NO2
Exact mass: 171.125928784
SMILES: NCC1(CC(O)=O)CCCCC1
InChI: InChI=1S/C9H17NO2/c10-7-9(6-8(11)12)4-2-1-3-5-9/h1-7,10H2,(H,11,12)
Instrument: LTQ Orbitrap XL Thermo Scientific
Instrument type: LC-ESI-ITFT
Ms type: MS2
Ion mode: POSITIVE
Ionization: ESI
Fragmentation mode: HCD
Collision energy: 60 % (nominal)
Resolution: 15000
Column name: Kinetex Evo C18 2.6 um 50 x 2.1 mm
Retention time: 0.817 min
Base peak: 172.134
Precursor m/z: 172.1332
Precursor type: [M+H]+
Precursor intensity: 25571354
m/z	relative intensity	assigned
55.0177	190	C3H3O+
67.0542	102	C5H7+
79.0543	4	C6H7+
81.07	12	C6H9+
91.0544	91	C7H7+
93.07	104	C7H9+
95.0857	342	C7H11+
109.1014	195	C8H13+
110.0966	30	C7H12N+
112.1123	13	C7H14N+
113.096	2	C7H13O+
119.0857	331	C9H11+
126.1279	28	C8H16N+
136.1124	46	C9H14N+
137.0963	668	C9H13O+
154.1229	999	C9H16NO+
155.1068	33	C9H15O2+
172.1335	143	C9H18NO2+
