Mass spectrum: 4-Androstene-3,17-dione; LC-ESI-ITFT; MS2; CE: 55; R=15000; [M+H]+
Name: 4-Androstene-3,17-dione
Name: Androstenedione
Name: (8R,9S,10R,13S,14S)-10,13-Dimethyl-2,6,7,8,9,11,12,14,15,16-decahydro-1H-cyclopenta[a]phenanthrene-3,17-dione
Formula: C19H26O2
Exact mass: 286.1933
SMILES: C[C@]12CC[C@H]3[C@@H](CCC4=CC(=O)CC[C@]34C)[C@@H]1CCC2=O
InChI: InChI=1S/C19H26O2/c1-18-9-7-13(20)11-12(18)3-4-14-15-5-6-17(21)19(15,2)10-8-16(14)18/h11,14-16H,3-10H2,1-2H3/t14-,15-,16-,18-,19-/m0/s1
Instrument: LTQ Orbitrap XL Thermo Scientific
Instrument type: LC-ESI-ITFT
Ms type: MS2
Ion mode: POSITIVE
Ionization: ESI
Fragmentation mode: HCD
Collision energy: 55 (nominal)
Resolution: 15000
Column name: Kinetex Core-Shell C18 2.6 um, 3.0 x 100 mm, Phenomenex
Retention time: 24.312 min
Base peak: 163.1324
Precursor m/z: 287.2006
Precursor type: [M+H]+
m/z	relative intensity	assigned
77.0384	2	C6H5+
79.0541	31	C6H7+
81.0698	26	C6H9+
83.049	30	C5H7O+
91.0541	9	C7H7+
93.0697	19	C7H9+
95.0854	18	C7H11+
97.0646	999	C6H9O+
105.0697	23	C8H9+
107.0854	19	C8H11+
109.0645	850	C7H9O+
117.0697	6	C9H9+
119.0854	30	C9H11+
121.0645	6	C8H9O+
121.101	19	C9H13+
123.0802	151	C8H11O+
129.0697	3	C10H9+
131.0853	18	C10H11+
133.101	36	C10H13+
135.0805	4	C9H11O+
135.1165	9	C10H15+
137.0959	5	C9H13O+
143.0853	16	C11H11+
145.1009	47	C11H13+
147.0799	3	C10H11O+
147.1166	22	C11H15+
149.0959	5	C10H13O+
155.0854	4	C12H11+
157.101	14	C12H13+
159.0805	2	C11H11O+
159.1166	37	C12H15+
161.0959	6	C11H13O+
161.1322	8	C12H17+
163.1117	8	C11H15O+
169.101	13	C13H13+
171.1166	20	C13H15+
173.0959	2	C12H13O+
173.1323	41	C13H17+
175.1119	4	C12H15O+
177.1269	6	C12H17O+
181.101	3	C14H13+
183.1166	12	C14H15+
185.1323	30	C14H17+
187.1114	1	C13H15O+
187.1479	13	C14H19+
189.1269	3	C13H17O+
191.1425	2	C13H19O+
195.1164	10	C15H15+
197.1322	3	C15H17+
199.1114	1	C14H15O+
199.1477	10	C15H19+
201.1268	3	C14H17O+
209.1322	10	C16H17+
211.1479	32	C16H19+
213.127	5	C15H17O+
213.1632	2	C16H21+
217.1582	3	C15H21O+
223.1481	3	C17H19+
225.1636	9	C17H21+
227.1431	7	C16H19O+
227.1794	14	C17H23+
229.1583	20	C16H21O+
241.159	1	C17H21O+
241.195	4	C18H25+
251.1795	17	C19H23+
269.1896	24	C19H25O+
287.2003	42	C19H27O2+
