Mass spectrum: Fenthion; LC-ESI-ITFT; MS2; CE: 90%; R=15000; [M+H]+
Name: Fenthion
Name: dimethoxy-(3-methyl-4-methylsulfanylphenoxy)-sulfanylidene-lambda5-phosphane
Formula: C10H15O3PS2
Exact mass: 278.02002297
SMILES: COP(=S)(OC)OC1=CC=C(SC)C(C)=C1
InChI: InChI=1S/C10H15O3PS2/c1-8-7-9(5-6-10(8)16-4)13-14(15,11-2)12-3/h5-7H,1-4H3
Instrument: LTQ Orbitrap XL Thermo Scientific
Instrument type: LC-ESI-ITFT
Ms type: MS2
Ion mode: POSITIVE
Ionization: ESI
Fragmentation mode: HCD
Collision energy: 90 % (nominal)
Resolution: 15000
Column name: Kinetex Evo C18 2.6 um 50 x 2.1 mm
Retention time: 11.166 min
Base peak: 279.0282
Precursor m/z: 279.0273
Precursor type: [M+H]+
Precursor intensity: 5561889
m/z	relative intensity	assigned
58.9951	114	C2H3S+
77.0389	261	C6H5+
78.0467	304	C6H6+
78.9947	264	CH4O2P+
79.0546	202	C6H7+
81.0703	67	C6H9+
91.0547	948	C7H7+
92.0623	116	C7H8+
97.0111	740	C5H5S+
103.0547	211	C8H7+
104.0625	193	C8H8+
107.0496	99	C7H7O+
109.0112	284	C6H5S+
109.065	85	C7H9O+
110.019	999	C6H6S+
122.0191	514	C7H6S+
123.0266	45	C7H7S+
124.9827	185	C2H6O2PS+
125.0425	793	C7H9S+
135.0267	46	C8H7S+
138.0138	224	C7H6OS+
138.0501	64	C8H10S+
139.0218	180	C7H7OS+
142.9933	155	C2H8O3PS+
153.0106	319	C7H6O2P+
153.0376	969	C8H9OS+
184.9826	69	C7H6O2PS+
185.9907	964	C7H7O2PS+
214.993	101	C8H8O3PS+
216.0013	431	C8H9O3PS+
