Mass spectrum: 2-Aminobiphenyl; LC-ESI-ITFT; MS2; CE: 70%; R=15000; [M+H]+
Name: 2-Aminobiphenyl
Name: 2-phenylaniline
Formula: C12H11N
Exact mass: 169.089149352
SMILES: NC1=C(C=CC=C1)C1=CC=CC=C1
InChI: InChI=1S/C12H11N/c13-12-9-5-4-8-11(12)10-6-2-1-3-7-10/h1-9H,13H2
Instrument: LTQ Orbitrap XL Thermo Scientific
Instrument type: LC-ESI-ITFT
Ms type: MS2
Ion mode: POSITIVE
Ionization: ESI
Fragmentation mode: HCD
Collision energy: 70 % (nominal)
Resolution: 15000
Column name: Kinetex Evo C18 2.6 um 50 x 2.1 mm
Retention time: 8.183 min
Base peak: 170.0966
Precursor m/z: 170.0964
Precursor type: [M+H]+
Precursor intensity: 39864412
m/z	relative intensity	assigned
65.0383	9	C5H5+
77.0383	1	C6H5+
91.054	2	C7H7+
92.0493	72	C6H6N+
93.0571	63	C6H7N+
103.054	5	C8H7+
104.0493	4	C7H6N+
115.054	8	C9H7+
117.0695	1	C9H9+
128.0618	65	C10H8+
129.0696	16	C10H9+
130.0649	3	C9H8N+
141.0696	6	C11H9+
142.0648	2	C10H8N+
142.0772	1	C11H10+
143.0852	89	C11H11+
151.054	8	C12H7+
152.0618	208	C12H8+
153.0696	571	C12H9+
154.0648	9	C11H8N+
154.0772	12	C12H10+
155.0725	38	C11H9N+
168.0806	16	C12H10N+
169.0884	120	C12H11N+
170.0961	999	C12H12N+
