Mass spectrum: 4-Amino-N,N-dimethylbenzenesulfonamide; LC-ESI-ITFT; MS2; CE: 80; R=15000; [M+H]+
Name: 4-Amino-N,N-dimethylbenzenesulfonamide
Formula: C8H12N2O2S
Exact mass: 200.0619
SMILES: CN(C)S(=O)(=O)C1=CC=C(N)C=C1
InChI: InChI=1S/C8H12N2O2S/c1-10(2)13(11,12)8-5-3-7(9)4-6-8/h3-6H,9H2,1-2H3
Instrument: LTQ Orbitrap XL Thermo Scientific
Instrument type: LC-ESI-ITFT
Ms type: MS2
Ion mode: POSITIVE
Ionization: ESI
Fragmentation mode: HCD
Collision energy: 80 (nominal)
Resolution: 15000
Column name: Kinetex Core-Shell C18 2.6 um, 3.0 x 100 mm, Phenomenex
Retention time: 16.063 min
Base peak: 163.1333
Precursor m/z: 201.0692
Precursor type: [M+H]+
m/z	relative intensity	assigned
80.0497	55	C5H6N+
92.0497	999	C6H6N+
108.0446	655	C6H6NO+
110.0603	77	C6H8NO+
120.0562	10	H12N2O3S+
199.0169	11	C7H7N2O3S+
