Mass spectrum: Ranitidine; LC-ESI-ITFT; MS2; CE: 55; R=15000; [M+H]+
Name: Ranitidine
Name: (E)-1-N`-[2-[[5-[(Dimethylamino)methyl]furan-2-yl]methylsulfanyl]ethyl]-1-N-methyl-2-nitroethene-1,1-diamine
Formula: C13H22N4O3S
Exact mass: 314.1413
SMILES: CN\C(NCCSCC1=CC=C(CN(C)C)O1)=C/N(=O)=O
InChI: InChI=1S/C13H22N4O3S/c1-14-13(9-17(18)19)15-6-7-21-10-12-5-4-11(20-12)8-16(2)3/h4-5,9,14-15H,6-8,10H2,1-3H3/b13-9+
Instrument: LTQ Orbitrap XL Thermo Scientific
Instrument type: LC-ESI-ITFT
Ms type: MS2
Ion mode: POSITIVE
Ionization: ESI
Fragmentation mode: CID
Collision energy: 55 (nominal)
Resolution: 15000
Column name: Kinetex Core-Shell C18 2.6 um, 3.0 x 100 mm, Phenomenex
Retention time: 6.861 min
Base peak: 119.107
Precursor m/z: 315.1485
Precursor type: [M+H]+
m/z	relative intensity	assigned
95.0496	6	C6H7O+
98.0843	31	C5H10N2+
102.0377	37	C4H8NS+
110.0969	7	CH18O3S+
117.0486	14	C4H9N2S+
122.0971	10	C2H18O3S+
124.0762	580	C7H10NO+
125.0061	5	C6H5OS+
130.0565	41	C5H10N2S+
144.0775	130	C7H12O3+
145.0434	3	C5H9N2OS+
147.0231	12	C12H3+
153.0374	6	C8H9OS+
167.0647	5	C2H9N5O4+
176.0497	996	C13H6N+
181.08	10	C9H13N2S+
188.05	21	C8H12O3S+
199.0713	5	C8H11N2O4+
210.0883	8	C9H12N3O3+
224.0989	432	C11H16N2OS+
254.1332	5	C12H20N3OS+
270.092	999	C11H16N3O3S+
