Mass spectrum: Nitrendipin; LC-ESI-ITFT; MS2; CE: 70%; R=15000; [M+H]+
Name: Nitrendipin
Name: Nitrendipine
Name: 5-O-ethyl 3-O-methyl 2,6-dimethyl-4-(3-nitrophenyl)-1,4-dihydropyridine-3,5-dicarboxylate
Formula: C18H20N2O6
Exact mass: 360.13213636
SMILES: CCOC(=O)C1=C(C)NC(C)=C(C1C1=CC=CC(=C1)[N+]([O-])=O)C(=O)OC
InChI: InChI=1S/C18H20N2O6/c1-5-26-18(22)15-11(3)19-10(2)14(17(21)25-4)16(15)12-7-6-8-13(9-12)20(23)24/h6-9,16,19H,5H2,1-4H3
Instrument: LTQ Orbitrap XL Thermo Scientific
Instrument type: LC-ESI-ITFT
Ms type: MS2
Ion mode: POSITIVE
Ionization: ESI
Fragmentation mode: HCD
Collision energy: 70 % (nominal)
Resolution: 15000
Column name: Kinetex Evo C18 2.6 um 50 x 2.1 mm
Retention time: 11.618 min
Base peak: 361.1392
Precursor m/z: 361.1394
Precursor type: [M+H]+
Precursor intensity: 7123431.5
m/z	relative intensity	assigned
67.0178	148	C4H3O+
84.0444	172	C4H6NO+
85.0284	177	C4H5O2+
99.0441	536	C5H7O2+
106.0652	112	C7H8N+
115.0543	49	C9H7+
118.0416	37	C8H6O+
128.0621	124	C10H8+
134.06	212	C8H8NO+
139.0541	56	C11H7+
140.0622	176	C11H8+
140.0706	113	C7H10NO2+
141.0698	100	C11H9+
142.0412	23	C10H6O+
152.0624	29	C12H8+
152.0707	69	C8H10NO2+
153.07	66	C12H9+
154.0413	145	C11H6O+
154.0651	56	C11H8N+
155.0493	101	C11H7O+
165.0701	83	C13H9+
166.0652	63	C12H8N+
166.0863	627	C9H12NO2+
167.0732	155	C12H9N+
168.057	290	C12H8O+
168.0809	183	C12H10N+
169.0887	75	C12H11N+
180.0808	430	C13H10N+
181.0886	473	C13H11N+
182.0965	349	C13H12N+
183.0679	43	C12H9NO+
183.1042	154	C13H13N+
186.0549	146	C11H8NO2+
194.0605	43	C13H8NO+
195.0679	136	C13H9NO+
196.0755	126	C13H10NO+
197.0839	79	C13H11NO+
200.0343	169	C11H6NO3+
208.0756	262	C14H10NO+
209.0835	999	C14H11NO+
210.0913	388	C14H12NO+
211.0993	132	C14H13NO+
226.0862	82	C14H12NO2+
227.0815	236	C13H11N2O2+
227.0941	114	C14H13NO2+
255.0765	173	C14H11N2O3+
