Mass spectrum: Norethindrone; LC-ESI-ITFT; MS2; CE: 50%; R=15000; [M+H]+
Name: Norethindrone
Name: (8R,9S,10R,13S,14S,17R)-17-ethynyl-17-hydroxy-13-methyl-1,2,6,7,8,9,10,11,12,14,15,16-dodecahydrocyclopenta[a]phenanthren-3-one
Formula: C20H26O2
Exact mass: 298.193280072
SMILES: C[C@]12CC[C@H]3[C@@H](CCC4=CC(=O)CC[C@H]34)[C@@H]1CC[C@@]2(O)C#C
InChI: InChI=1S/C20H26O2/c1-3-20(22)11-9-18-17-6-4-13-12-14(21)5-7-15(13)16(17)8-10-19(18,20)2/h1,12,15-18,22H,4-11H2,2H3/t15-,16+,17+,18-,19-,20-/m0/s1
Instrument: LTQ Orbitrap XL Thermo Scientific
Instrument type: LC-ESI-ITFT
Ms type: MS2
Ion mode: POSITIVE
Ionization: ESI
Fragmentation mode: HCD
Collision energy: 50 % (nominal)
Resolution: 15000
Column name: Kinetex Evo C18 2.6 um 50 x 2.1 mm
Retention time: 11.161 min
Base peak: 299.2009
Precursor m/z: 299.2006
Precursor type: [M+H]+
Precursor intensity: 27607700
m/z	relative intensity	assigned
67.054	46	C5H7+
69.0697	14	C5H9+
79.054	107	C6H7+
81.0332	10	C5H5O+
81.0697	146	C6H9+
83.049	358	C5H7O+
91.0541	150	C7H7+
93.0697	184	C7H9+
95.0489	12	C6H7O+
95.0854	127	C7H11+
97.0646	40	C6H9O+
105.0697	233	C8H9+
107.049	125	C7H7O+
107.0853	132	C8H11+
109.0646	999	C7H9O+
109.1009	95	C8H13+
111.0802	38	C7H11O+
115.0544	12	C9H7+
117.0697	164	C9H9+
119.0853	332	C9H11+
121.0645	46	C8H9O+
121.1009	124	C9H13+
123.0802	70	C8H11O+
123.1166	35	C9H15+
128.0619	7	C10H8+
129.0697	94	C10H9+
130.0776	11	C10H10+
131.0853	256	C10H11+
133.0645	25	C9H9O+
133.1009	129	C10H13+
135.0802	197	C9H11O+
135.1166	45	C10H15+
137.0957	29	C9H13O+
141.0698	26	C11H9+
142.0776	12	C11H10+
143.0853	195	C11H11+
144.0929	9	C11H12+
145.1009	315	C11H13+
147.0802	51	C10H11O+
147.1165	61	C11H15+
149.0958	143	C10H13O+
149.1323	16	C11H17+
155.0853	55	C12H11+
156.093	20	C12H12+
157.0645	9	C11H9O+
157.101	162	C12H13+
158.1086	9	C12H14+
159.0802	40	C11H11O+
159.1165	117	C12H15+
161.0958	106	C11H13O+
161.1322	74	C12H17+
163.1114	113	C11H15O+
166.077	4	C13H10+
167.0855	19	C13H11+
169.1009	116	C13H13+
170.1085	7	C13H14+
171.1165	264	C13H15+
172.1242	10	C13H16+
173.0959	23	C12H13O+
173.1323	143	C13H17+
175.1115	64	C12H15O+
177.1276	12	C12H17O+
179.0848	18	C14H11+
180.0934	6	C14H12+
181.101	59	C14H13+
182.109	11	C14H14+
183.1165	72	C14H15+
185.0959	32	C13H13O+
185.1322	106	C14H17+
187.1113	34	C13H15O+
187.1478	25	C14H19+
188.1188	7	C13H16O+
189.1272	26	C13H17O+
192.0935	7	C15H12+
193.1009	21	C15H13+
194.1091	6	C15H14+
195.1164	45	C15H15+
197.0954	7	C14H13O+
197.1321	53	C15H17+
199.1117	21	C14H15O+
199.1477	35	C15H19+
201.1271	30	C14H17O+
201.1637	7	C15H21+
203.1426	11	C14H19O+
206.1088	8	C16H14+
207.1167	41	C16H15+
208.1245	14	C16H16+
209.1323	27	C16H17+
211.1114	16	C15H15O+
211.1479	84	C16H19+
213.1272	11	C15H17O+
213.1635	155	C16H21+
215.1423	11	C15H19O+
219.1164	5	C17H15+
221.1322	56	C17H17+
222.1409	6	C17H18+
223.1477	84	C17H19+
225.1273	17	C16H17O+
225.1633	10	C17H21+
227.1426	10	C16H19O+
229.158	14	C16H21O+
231.1739	364	C16H23O+
234.1394	7	C18H18+
235.1475	37	C18H19+
237.163	19	C18H21+
239.1426	12	C17H19O+
239.1788	19	C18H23+
241.158	14	C17H21O+
248.1559	11	C19H20+
252.1511	6	C18H20O+
253.1577	24	C18H21O+
263.179	50	C20H23+
266.1665	11	C19H22O+
281.1895	75	C20H25O+
299.2	159	C20H27O2+
