Mass spectrum: Quinoxyfen; LC-ESI-ITFT; MS2; CE: 70%; R=15000; [M+H]+
Name: Quinoxyfen
Name: 5,7-dichloro-4-(4-fluorophenoxy)quinoline
Formula: C15H8Cl2FNO
Exact mass: 306.996697456
SMILES: FC1=CC=C(OC2=C3C(Cl)=CC(Cl)=CC3=NC=C2)C=C1
InChI: InChI=1S/C15H8Cl2FNO/c16-9-7-12(17)15-13(8-9)19-6-5-14(15)20-11-3-1-10(18)2-4-11/h1-8H
Instrument: LTQ Orbitrap XL Thermo Scientific
Instrument type: LC-ESI-ITFT
Ms type: MS2
Ion mode: POSITIVE
Ionization: ESI
Fragmentation mode: HCD
Collision energy: 70 % (nominal)
Resolution: 15000
Column name: Kinetex Evo C18 2.6 um 50 x 2.1 mm
Retention time: 13.421 min
Base peak: 308.0047
Precursor m/z: 308.004
Precursor type: [M+H]+
Precursor intensity: 29930630
m/z	relative intensity	assigned
75.0228	6	C6H3+
83.0292	3	C5H4F+
93.0334	3	C6H5O+
95.029	31	C6H4F+
109.0448	3	C7H6F+
111.0238	4	C6H4FO+
113.0396	16	C6H6FO+
115.0415	2	C8H5N+
122.9996	13	C7H4Cl+
132.0441	3	C8H6NO+
133.0522	2	C8H7NO+
150.0104	98	C8H5ClN+
161.0025	2	C9H4ClN+
162.0103	107	C9H5ClN+
168.021	20	C8H7ClNO+
169.9689	1	C8H4Cl2+
178.0053	10	C9H5ClNO+
183.0604	5	C13H8F+
183.9715	16	C8H4Cl2N+
184.9792	36	C8H5Cl2N+
195.9715	7	C9H4Cl2N+
196.9792	999	C9H5Cl2N+
208.0549	2	C14H7FN+
209.0633	27	C14H8FN+
210.0712	18	C14H9FN+
212.974	20	C9H5Cl2NO+
213.9819	459	C9H6Cl2NO+
217.0213	8	C13H7ClF+
219.0245	7	C12H7ClFN+
224.0251	3	C14H7ClN+
225.0338	22	C14H8ClN+
226.0427	2	C14H9ClN+
237.0582	49	C15H8FNO+
238.0661	7	C15H9FNO+
243.0241	4	C14H7ClFN+
244.0321	67	C14H8ClFN+
245.04	109	C14H9ClFN+
253.0285	14	C15H8ClNO+
254.0371	8	C15H9ClNO+
260.0025	6	C14H8Cl2N+
265.9938	2	C13H7Cl2FN+
272.027	216	C15H8ClFNO+
279.0019	2	C14H8Cl2FN+
280.0089	22	C14H9Cl2FN+
287.9975	16	C15H8Cl2NO+
308.0036	226	C15H9Cl2FNO+
