Mass spectrum: Quinmerac BH518-2; LC-ESI-ITFT; MS2; CE: 90%; R=15000; [M+H]+
Name: Quinmerac BH518-2
Name: 7-chloroquinoline-3,8-dicarboxylic acid
Formula: C11H6ClNO4
Exact mass: 250.998535352
SMILES: OC(=O)C1=CN=C2C(C=CC(Cl)=C2C(O)=O)=C1
InChI: InChI=1S/C11H6ClNO4/c12-7-2-1-5-3-6(10(14)15)4-13-9(5)8(7)11(16)17/h1-4H,(H,14,15)(H,16,17)
Instrument: LTQ Orbitrap XL Thermo Scientific
Instrument type: LC-ESI-ITFT
Ms type: MS2
Ion mode: POSITIVE
Ionization: ESI
Fragmentation mode: HCD
Collision energy: 90 % (nominal)
Resolution: 15000
Column name: Kinetex Evo C18 2.6 um 50 x 2.1 mm
Retention time: 7.320 min
Base peak: 252.0067
Precursor m/z: 252.0058
Precursor type: [M+H]+
Precursor intensity: 3303917.5
m/z	relative intensity	assigned
123.0002	96	C7H4Cl+
127.0423	821	C9H5N+
150.0112	370	C8H5ClN+
154.0407	396	C11H6O+
162.0113	999	C9H5ClN+
162.995	10	C9H4ClO+
163.9905	114	C8H3ClNO+
164.0017	27	C9H5ClO+
168.0218	18	C8H7ClNO+
178.0063	150	C9H5ClNO+
180.0218	44	C9H7ClNO+
187.9907	172	C10H3ClNO+
188.0018	33	C11H5ClO+
190.0059	14	C10H5ClNO+
206.0013	220	C10H5ClNO2+
224.0119	306	C10H7ClNO3+
233.9963	337	C11H5ClNO3+
