Mass spectrum: Imidacloprid; LC-ESI-ITFT; MS2; CE: 30%; R=15000; [M+H]+
Name: Imidacloprid
Name: N-[1-[(6-chloro-3-pyridinyl)methyl]-4,5-dihydroimidazol-2-yl]nitramide
Name: N-[1-[(6-chloropyridin-3-yl)methyl]-4,5-dihydroimidazol-2-yl]nitramide
Formula: C9H10ClN5O2
Exact mass: 255.05230224
SMILES: [O-][N+](=O)\N=C1/NCCN1CC1=CN=C(Cl)C=C1
InChI: InChI=1S/C9H10ClN5O2/c10-8-2-1-7(5-12-8)6-14-4-3-11-9(14)13-15(16)17/h1-2,5H,3-4,6H2,(H,11,13)
Instrument: LTQ Orbitrap XL Thermo Scientific
Instrument type: LC-ESI-ITFT
Ms type: MS2
Ion mode: POSITIVE
Ionization: ESI
Fragmentation mode: HCD
Collision energy: 30 % (nominal)
Resolution: 15000
Column name: Kinetex Evo C18 2.6 um 50 x 2.1 mm
Retention time: 6.010 min
Base peak: 256.0602
Precursor m/z: 256.0596
Precursor type: [M+H]+
Precursor intensity: 4828771.5
m/z	relative intensity	assigned
84.0556	261	C3H6N3+
99.0554	18	CH10ClN3+
126.0106	49	C6H5ClN+
128.0262	109	C6H7ClN+
151.0184	11	C8H6ClN+
173.0825	10	C9H9N4+
174.0903	132	C9H10N4+
175.098	997	C9H11N4+
194.048	5	C9H9ClN3+
209.059	999	C9H10ClN4+
210.0668	227	C9H11ClN4+
212.0586	295	C9H11ClN3O+
256.0597	178	C9H11ClN5O2+
