Mass spectrum: Pirimicarb; LC-ESI-ITFT; MS2; CE: 30%; R=15000; [M+H]+
Name: Pirimicarb
Name: [2-(dimethylamino)-5,6-dimethylpyrimidin-4-yl] N,N-dimethylcarbamate
Formula: C11H18N4O2
Exact mass: 238.142975816
SMILES: CN(C)C(=O)OC1=C(C)C(C)=NC(=N1)N(C)C
InChI: InChI=1S/C11H18N4O2/c1-7-8(2)12-10(14(3)4)13-9(7)17-11(16)15(5)6/h1-6H3
Instrument: LTQ Orbitrap XL Thermo Scientific
Instrument type: LC-ESI-ITFT
Ms type: MS2
Ion mode: POSITIVE
Ionization: ESI
Fragmentation mode: HCD
Collision energy: 30 % (nominal)
Resolution: 15000
Column name: Kinetex Evo C18 2.6 um 50 x 2.1 mm
Retention time: 6.171 min
Base peak: 239.1508
Precursor m/z: 239.1503
Precursor type: [M+H]+
Precursor intensity: 40688068
m/z	relative intensity	assigned
72.0442	703	C3H6NO+
166.0976	4	C8H12N3O+
182.1287	753	C9H16N3O+
195.1603	59	C10H19N4+
239.1501	999	C11H19N4O2+
