Mass spectrum: Triphenylphosphate; LC-ESI-ITFT; MS2; CE: 35; R=15000; [M-H]-
Name: Triphenylphosphate
Name: Triphenyl phosphate
Formula: C18H15O4P
Exact mass: 326.0708
SMILES: O=P(OC1=CC=CC=C1)(OC1=CC=CC=C1)OC1=CC=CC=C1
InChI: InChI=1S/C18H15O4P/c19-23(20-16-10-4-1-5-11-16,21-17-12-6-2-7-13-17)22-18-14-8-3-9-15-18/h1-15H
Instrument: LTQ Orbitrap XL Thermo Scientific
Instrument type: LC-ESI-ITFT
Ms type: MS2
Ion mode: NEGATIVE
Ionization: ESI
Fragmentation mode: CID
Collision energy: 35 (nominal)
Resolution: 15000
Column name: Kinetex Core-Shell C18 2.6 um, 3.0 x 100 mm, Phenomenex
Retention time: 26.133 min
Base peak: 112.9858
Precursor m/z: 325.0635
Precursor type: [M-H]-
m/z	relative intensity	assigned
169.066	999	C12H9O-
183.0121	515	C10H4N2P-
231.0219	109	C12H8O3P-
