Mass spectrum: Promethazin; LC-ESI-ITFT; MS2; CE: 30%; R=15000; [M+H]+
Name: Promethazin
Name: Promethazine
Name: N,N-dimethyl-1-phenothiazin-10-ylpropan-2-amine
Formula: C17H20N2S
Exact mass: 284.13471964
SMILES: CC(CN1C2=CC=CC=C2SC2=CC=CC=C12)N(C)C
InChI: InChI=1S/C17H20N2S/c1-13(18(2)3)12-19-14-8-4-6-10-16(14)20-17-11-7-5-9-15(17)19/h4-11,13H,12H2,1-3H3
Instrument: LTQ Orbitrap XL Thermo Scientific
Instrument type: LC-ESI-ITFT
Ms type: MS2
Ion mode: POSITIVE
Ionization: ESI
Fragmentation mode: HCD
Collision energy: 30 % (nominal)
Resolution: 15000
Column name: Kinetex Evo C18 2.6 um 50 x 2.1 mm
Retention time: 8.126 min
Base peak: 285.1425
Precursor m/z: 285.142
Precursor type: [M+H]+
Precursor intensity: 4274956.5
m/z	relative intensity	assigned
71.0727	4	C4H9N+
84.0804	1	C5H10N+
86.0962	999	C5H12N+
198.0369	167	C12H8NS+
240.0837	89	C15H14NS+
285.1415	92	C17H21N2S+
