Mass spectrum: 7-Diethylamino-4-methylcoumarin; LC-ESI-ITFT; MS2; CE: 80%; R=15000; [M+H]+
Name: 7-Diethylamino-4-methylcoumarin
Name: 7-(diethylamino)-4-methylchromen-2-one
Formula: C14H17NO2
Exact mass: 231.125928784
SMILES: CCN(CC)C1=CC=C2C(C)=CC(=O)OC2=C1
InChI: InChI=1S/C14H17NO2/c1-4-15(5-2)11-6-7-12-10(3)8-14(16)17-13(12)9-11/h6-9H,4-5H2,1-3H3
Instrument: LTQ Orbitrap XL Thermo Scientific
Instrument type: LC-ESI-ITFT
Ms type: MS2
Ion mode: POSITIVE
Ionization: ESI
Fragmentation mode: HCD
Collision energy: 80 % (nominal)
Resolution: 15000
Column name: Kinetex Evo C18 2.6 um 50 x 2.1 mm
Retention time: 11.287 min
Base peak: 232.1341
Precursor m/z: 232.1332
Precursor type: [M+H]+
Precursor intensity: 52989100
m/z	relative intensity	assigned
67.0177	4	C4H3O+
68.013	19	C3H2NO+
72.0808	1	C4H10N+
79.0544	2	C6H7+
91.0543	6	C7H7+
93.0699	2	C7H9+
96.0444	7	C5H6NO+
103.0543	8	C8H7+
105.07	14	C8H9+
106.0652	4	C7H8N+
109.0649	1	C7H9O+
110.0602	1	C6H8NO+
115.0544	5	C9H7+
116.0622	6	C9H8+
117.0572	3	C8H7N+
117.07	7	C9H9+
118.0652	4	C8H8N+
119.073	4	C8H9N+
120.0809	6	C8H10N+
121.065	5	C8H9O+
130.0653	7	C9H8N+
131.0491	3	C9H7O+
131.0729	5	C9H9N+
131.0855	1	C10H11+
132.057	7	C9H8O+
132.0809	29	C9H10N+
133.0649	3	C9H9O+
133.0887	3	C9H11N+
134.0602	5	C8H8NO+
134.0965	5	C9H12N+
138.0917	3	C8H12NO+
143.0732	2	C10H9N+
144.0809	40	C10H10N+
145.0888	3	C10H11N+
146.0603	4	C9H8NO+
146.0966	12	C10H12N+
147.068	16	C9H9NO+
147.1044	5	C10H13N+
148.0758	4	C9H10NO+
148.1122	28	C10H14N+
157.088	1	C11H11N+
158.0966	9	C11H12N+
159.0441	1	C10H7O2+
159.1045	3	C11H13N+
160.0759	299	C10H10NO+
161.0597	2	C10H9O2+
161.0832	4	C10H11NO+
161.1202	9	C11H15N+
162.0914	3	C10H12NO+
172.1124	9	C12H14N+
173.1203	2	C12H15N+
174.0677	7	C11H10O2+
174.0916	47	C11H12NO+
175.063	9	C10H9NO2+
175.0994	131	C11H13NO+
176.0709	8	C10H10NO2+
176.1071	18	C11H14NO+
176.1435	56	C12H18N+
186.1281	1	C13H16N+
188.0708	999	C11H10NO2+
189.1148	5	C12H15NO+
190.1227	1	C12H16NO+
192.1016	1	C11H14NO2+
202.0865	48	C12H12NO2+
203.0942	75	C12H13NO2+
204.1021	28	C12H14NO2+
204.1386	8	C13H18NO+
216.1021	10	C13H14NO2+
217.1098	2	C13H15NO2+
232.1334	55	C14H18NO2+
