Mass spectrum: 4,4`-Thiodianiline; LC-ESI-ITFT; MS2; CE: 55; R=15000; [M+H]+
Name: 4,4`-Thiodianiline
Name: 4-(4-Aminophenyl)sulfanylaniline
Formula: C12H12N2S
Exact mass: 216.0721
SMILES: NC1=CC=C(SC2=CC=C(N)C=C2)C=C1
InChI: InChI=1S/C12H12N2S/c13-9-1-5-11(6-2-9)15-12-7-3-10(14)4-8-12/h1-8H,13-14H2
Instrument: LTQ Orbitrap XL Thermo Scientific
Instrument type: LC-ESI-ITFT
Ms type: MS2
Ion mode: POSITIVE
Ionization: ESI
Fragmentation mode: HCD
Collision energy: 55 (nominal)
Resolution: 15000
Column name: Kinetex Core-Shell C18 2.6 um, 3.0 x 100 mm, Phenomenex
Retention time: 16.228 min
Base peak: 217.0801
Precursor m/z: 217.0794
Precursor type: [M+H]+
m/z	relative intensity	assigned
80.0498	15	C5H6N+
93.0577	32	C6H7N+
124.022	999	C6H6NS+
129.0705	6	C10H9+
134.0187	3	C8H6S+
143.0732	1	C10H9N+
156.0814	8	C11H10N+
167.0737	90	C12H9N+
183.0272	76	C12H7S+
184.0349	73	C12H8S+
199.0459	210	C12H9NS+
200.0537	408	C12H10NS+
201.0376	2	C12H9OS+
211.0334	75	C12H7N2S+
217.0803	377	C12H13N2S+
