Mass spectrum: Tetracain; LC-ESI-ITFT; MS2; CE: 70%; R=15000; [M+H]+
Name: Tetracain
Name: Tetracaine
Name: 2-(dimethylamino)ethyl 4-(butylamino)benzoate
Formula: C15H24N2O2
Exact mass: 264.183778008
SMILES: CCCCNC1=CC=C(C=C1)C(=O)OCCN(C)C
InChI: InChI=1S/C15H24N2O2/c1-4-5-10-16-14-8-6-13(7-9-14)15(18)19-12-11-17(2)3/h6-9,16H,4-5,10-12H2,1-3H3
Instrument: LTQ Orbitrap XL Thermo Scientific
Instrument type: LC-ESI-ITFT
Ms type: MS2
Ion mode: POSITIVE
Ionization: ESI
Fragmentation mode: HCD
Collision energy: 70 % (nominal)
Resolution: 15000
Column name: Kinetex Evo C18 2.6 um 50 x 2.1 mm
Retention time: 7.272 min
Base peak: 265.1919
Precursor m/z: 265.1911
Precursor type: [M+H]+
Precursor intensity: 38824324
m/z	relative intensity	assigned
57.0696	2	C4H9+
65.0384	5	C5H5+
70.0651	6	C4H8N+
72.0807	334	C4H10N+
79.0542	3	C6H7+
91.0539	2	C7H7+
92.0495	70	C6H6N+
94.0652	1	C6H8N+
105.0573	19	C7H7N+
106.0651	20	C7H8N+
110.06	5	C6H8NO+
118.0651	2	C8H8N+
119.0729	3	C8H9N+
120.0444	79	C7H6NO+
131.0855	1	C10H11+
133.0885	2	C9H11N+
148.1121	16	C10H14N+
176.107	999	C11H14NO+
220.1333	35	C13H18NO2+
