Mass spectrum: Oxybutynin; LC-ESI-ITFT; MS2; CE: 20%; R=15000; [M+H]+
Name: Oxybutynin
Name: 4-(diethylamino)but-2-ynyl 2-cyclohexyl-2-hydroxy-2-phenylacetate
Formula: C22H31NO3
Exact mass: 357.230393852
SMILES: CCN(CC)CC#CCOC(=O)C(O)(C1CCCCC1)C1=CC=CC=C1
InChI: InChI=1S/C22H31NO3/c1-3-23(4-2)17-11-12-18-26-21(24)22(25,19-13-7-5-8-14-19)20-15-9-6-10-16-20/h5,7-8,13-14,20,25H,3-4,6,9-10,15-18H2,1-2H3
Instrument: LTQ Orbitrap XL Thermo Scientific
Instrument type: LC-ESI-ITFT
Ms type: MS2
Ion mode: POSITIVE
Ionization: ESI
Fragmentation mode: HCD
Collision energy: 20 % (nominal)
Resolution: 15000
Column name: Kinetex Evo C18 2.6 um 50 x 2.1 mm
Retention time: 9.043 min
Base peak: 358.2381
Precursor m/z: 358.2377
Precursor type: [M+H]+
Precursor intensity: 64067528
m/z	relative intensity	assigned
122.0962	2	C8H12N+
124.1117	30	C8H14N+
142.1221	12	C8H16NO+
258.1483	3	C16H20NO2+
340.2258	17	C22H30NO2+
358.2365	999	C22H32NO3+
