Mass spectrum: 3-nitrobenzanthrone; APCI-ITFT; MS2; CE: 35%; R=30000; [M+H]+
Name: 3-nitrobenzanthrone
Name: 3-nitrobenzo[b]phenalen-7-one
Formula: C17H9NO3
Exact mass: 275.0582
SMILES: c1ccc2c(c1)c1c3c(c(cc1)[N+](=O)[O-])cccc3C2=O
InChI: InChI=1S/C17H9NO3/c19-17-12-5-2-1-4-10(12)11-8-9-15(18(20)21)13-6-3-7-14(17)16(11)13/h1-9H
Instrument: LTQ Orbitrap XL Thermo Scientific
Instrument type: APCI-ITFT
Ms type: MS2
Ion mode: POSITIVE
Ionization: APCI
Fragmentation mode: CID
Collision energy: 35 % (nominal)
Resolution: 30000
Column name: N/A
Retention time: N/A min
Base peak: 276.0655
Precursor m/z: 276.0655
Precursor type: [M+H]+
m/z	relative intensity	assigned
189.0694	1	C15H9+
201.0656	2	C11H9N2O2+
202.0735	1	C11H10N2O2+
202.078	1	C16H10+
229.0658	2	C17H9O+
230.0738	999	
231.0689	2	C16H9NO+
246.0688	984	
259.0641	244	C17H9NO2+
276.0668	1	C17H10NO3+
