Mass spectrum: Finasteride; LC-ESI-ITFT; MS2; CE: 50%; R=15000; [M+H]+
Name: Finasteride
Name: (1S,3aS,3bS,5aR,9aR,9bS,11aS)-N-tert-butyl-9a,11a-dimethyl-7-oxo-1,2,3,3a,3b,4,5,5a,6,9b,10,11-dodecahydroindeno[5,4-f]quinoline-1-carboxamide
Formula: C23H36N2O2
Exact mass: 372.277678392
SMILES: CC(C)(C)NC(=O)[C@H]1CC[C@H]2[C@@H]3CC[C@H]4NC(=O)C=C[C@]4(C)[C@H]3CC[C@]12C
InChI: InChI=1S/C23H36N2O2/c1-21(2,3)25-20(27)17-8-7-15-14-6-9-18-23(5,13-11-19(26)24-18)16(14)10-12-22(15,17)4/h11,13-18H,6-10,12H2,1-5H3,(H,24,26)(H,25,27)/t14-,15-,16-,17+,18+,22-,23+/m0/s1
Instrument: LTQ Orbitrap XL Thermo Scientific
Instrument type: LC-ESI-ITFT
Ms type: MS2
Ion mode: POSITIVE
Ionization: ESI
Fragmentation mode: HCD
Collision energy: 50 % (nominal)
Resolution: 15000
Column name: Kinetex Evo C18 2.6 um 50 x 2.1 mm
Retention time: 11.885 min
Base peak: 373.2859
Precursor m/z: 373.285
Precursor type: [M+H]+
Precursor intensity: 6633156
m/z	relative intensity	assigned
57.0697	76	C4H9+
67.0542	3	C5H7+
69.0335	61	C4H5O+
72.0444	9	C3H6NO+
72.0808	40	C4H10N+
81.07	24	C6H9+
86.0603	5	C4H8NO+
93.0699	9	C7H9+
95.0857	53	C7H11+
96.0447	6	C5H6NO+
98.0602	19	C5H8NO+
105.0698	5	C8H9+
107.0857	13	C8H11+
109.1016	7	C8H13+
110.0602	5	C6H8NO+
119.0858	7	C9H11+
121.1014	25	C9H13+
124.0759	4	C7H10NO+
126.0917	4	C7H12NO+
131.0861	5	C10H11+
133.1013	11	C10H13+
135.117	14	C10H15+
138.0913	3	C8H12NO+
145.1015	8	C11H13+
147.1171	14	C11H15+
149.1325	5	C11H17+
161.0962	5	C11H13O+
161.1328	4	C12H17+
173.1328	17	C13H17+
175.1484	56	C13H19+
177.1642	17	C13H21+
183.1169	4	C14H15+
185.1331	13	C14H17+
187.1486	13	C14H19+
189.164	27	C14H21+
197.1328	3	C15H17+
201.1274	3	C14H17O+
203.1434	7	C14H19O+
213.1646	7	C16H21+
215.1432	4	C15H19O+
215.1794	4	C16H23+
220.1701	24	C14H22NO+
227.1803	7	C17H23+
232.17	7	C15H22NO+
237.1638	10	C18H21+
239.1799	6	C18H23+
249.1963	11	C15H25N2O+
255.1745	28	C18H23O+
256.2068	4	C18H26N+
257.1906	3	C18H25O+
272.2018	14	C18H26NO+
274.2168	15	C18H28NO+
283.1694	5	C19H23O2+
300.1966	4	C19H26NO2+
305.2591	535	C19H33N2O+
317.2222	11	C19H29N2O2+
331.2746	3	C21H35N2O+
355.2744	5	C23H35N2O+
373.285	999	C23H37N2O2+
