Mass spectrum: Diazinon; LC-ESI-ITFT; MS2; CE: 90%; R=15000; [M+H]+
Name: Diazinon
Name: diethoxy-(6-methyl-2-propan-2-ylpyrimidin-4-yl)oxy-sulfanylidene-lambda5-phosphane
Formula: C12H21N2O3PS
Exact mass: 304.101050162
SMILES: CCOP(=S)(OCC)OC1=CC(C)=NC(=N1)C(C)C
InChI: InChI=1S/C12H21N2O3PS/c1-6-15-18(19,16-7-2)17-11-8-10(5)13-12(14-11)9(3)4/h8-9H,6-7H2,1-5H3
Instrument: LTQ Orbitrap XL Thermo Scientific
Instrument type: LC-ESI-ITFT
Ms type: MS2
Ion mode: POSITIVE
Ionization: ESI
Fragmentation mode: HCD
Collision energy: 90 % (nominal)
Resolution: 15000
Column name: Kinetex Evo C18 2.6 um 50 x 2.1 mm
Retention time: 12.467 min
Base peak: 305.1092
Precursor m/z: 305.1083
Precursor type: [M+H]+
Precursor intensity: 72933768
m/z	relative intensity	assigned
58.9948	22	C2H3S+
64.9785	13	H2O2P+
67.0415	32	C4H5N+
70.065	385	C4H8N+
78.9401	15	OPS+
80.9736	46	H2O3P+
82.995	15	C4H3S+
84.0444	528	C4H6NO+
87.0918	4	C4H11N2+
90.9943	14	C2H4O2P+
96.9508	765	H2O2PS+
100.0216	999	C4H6NS+
109.0049	97	C2H6O3P+
110.9665	18	CH4O2PS+
114.9613	558	H4O3PS+
128.053	6	C6H10NS+
128.977	8	CH6O3PS+
138.0787	4	C7H10N2O+
153.1023	214	C8H13N2O+
154.0559	39	C7H10N2S+
168.0713	5	C8H12N2S+
169.0795	485	C8H13N2S+
