Mass spectrum: Lauramidopropyl betaine; LC-ESI-ITFT; MS2; CE: 55%; R=15000; [M]+
Name: Lauramidopropyl betaine
Name: 3-(Dodecanoylamino)propyl(carboxymethyl)dimethylammonium
Name: carboxymethyl-[3-(dodecanoylamino)propyl]-dimethylazanium
Formula: [C19H39N2O3]+
Exact mass: 343.2961
SMILES: CCCCCCCCCCCC(=O)NCCC[N+](C)(C)CC(O)=O
InChI: InChI=1S/C19H38N2O3/c1-4-5-6-7-8-9-10-11-12-14-18(22)20-15-13-16-21(2,3)17-19(23)24/h4-17H2,1-3H3,(H-,20,22,23,24)/p+1
Instrument: LTQ Orbitrap XL Thermo Scientific
Instrument type: LC-ESI-ITFT
Ms type: MS2
Ion mode: POSITIVE
Ionization: ESI
Fragmentation mode: HCD
Collision energy: 55 % (nominal)
Resolution: 15000
Column name: Kinetex Evo C18 2.6 um 50 x 2.1 mm
Retention time: 12.523 min
Base peak: 343.2953
Precursor m/z: 343.2955
Precursor type: [M]+
m/z	relative intensity	assigned
55.054	22	C4H7+
57.0698	52	C4H9+
67.0542	43	C5H7+
71.0855	44	C5H11+
81.0699	42	C6H9+
83.0856	23	C6H11+
85.1013	46	C6H13+
95.0855	143	C7H11+
109.1012	100	C8H13+
123.1173	21	C9H15+
240.2324	999	C15H30NO+
