Mass spectrum: Trenbolone; LC-ESI-ITFT; MS2; CE: 80%; R=15000; [M+H]+
Name: Trenbolone
Name: Trenbolone:17-Hydroxyestra-4,9,11-trien-3-one
Name: (13S,17S)-17-hydroxy-13-methyl-2,6,7,8,14,15,16,17-octahydro-1H-cyclopenta[a]phenanthren-3-one
Formula: C18H22O2
Exact mass: 270.161979944
SMILES: C[C@]12C=CC3=C4CCC(=O)C=C4CCC3C1CC[C@@H]2O
InChI: InChI=1S/C18H22O2/c1-18-9-8-14-13-5-3-12(19)10-11(13)2-4-15(14)16(18)6-7-17(18)20/h8-10,15-17,20H,2-7H2,1H3/t15?,16?,17-,18-/m0/s1
Instrument: LTQ Orbitrap XL Thermo Scientific
Instrument type: LC-ESI-ITFT
Ms type: MS2
Ion mode: POSITIVE
Ionization: ESI
Fragmentation mode: HCD
Collision energy: 80 % (nominal)
Resolution: 15000
Column name: Kinetex Evo C18 2.6 um 50 x 2.1 mm
Retention time: 10.670 min
Base peak: 271.1693
Precursor m/z: 271.1693
Precursor type: [M+H]+
Precursor intensity: 15699972
m/z	relative intensity	assigned
67.054	79	C5H7+
69.0696	20	C5H9+
71.0489	45	C4H7O+
77.0383	21	C6H5+
79.054	150	C6H7+
81.0697	109	C6H9+
83.049	429	C5H7O+
91.0541	244	C7H7+
93.0697	139	C7H9+
95.0488	42	C6H7O+
95.0855	46	C7H11+
97.0649	25	C6H9O+
103.054	29	C8H7+
105.0697	322	C8H9+
107.0489	560	C7H7O+
107.0854	98	C8H11+
109.0647	95	C7H9O+
115.054	50	C9H7+
116.062	21	C9H8+
117.0697	174	C9H9+
119.0852	106	C9H11+
121.0647	85	C8H9O+
123.0799	14	C8H11O+
128.0618	82	C10H8+
129.0696	233	C10H9+
130.0777	50	C10H10+
131.0488	66	C9H7O+
131.0853	233	C10H11+
132.0568	20	C9H8O+
133.0646	320	C9H9O+
133.101	32	C10H13+
135.0802	126	C9H11O+
141.0697	316	C11H9+
142.0775	111	C11H10+
143.0852	254	C11H11+
144.0566	71	C10H8O+
145.0645	134	C10H9O+
145.1009	167	C11H13+
146.0726	37	C10H10O+
147.0801	100	C10H11O+
148.0881	62	C10H12O+
153.0698	80	C12H9+
154.0774	78	C12H10+
155.0853	320	C12H11+
156.093	75	C12H12+
157.0645	357	C11H9O+
157.1009	143	C12H13+
158.0723	56	C11H10O+
159.0802	312	C11H11O+
159.1168	24	C12H15+
161.096	66	C11H13O+
165.0696	208	C13H9+
166.0775	189	C13H10+
167.0853	272	C13H11+
168.0934	116	C13H12+
169.0646	31	C12H9O+
169.1009	268	C13H13+
170.0725	33	C12H10O+
170.1083	18	C13H14+
171.0803	147	C12H11O+
171.1167	74	C13H15+
172.0879	22	C12H12O+
173.0959	62	C12H13O+
178.0775	130	C14H10+
179.0853	232	C14H11+
180.0931	104	C14H12+
181.0646	21	C13H9O+
181.1009	264	C14H13+
182.0725	34	C13H10O+
182.1086	47	C14H14+
183.0801	127	C13H11O+
183.1165	167	C14H15+
184.0881	139	C13H12O+
185.0958	299	C13H13O+
185.1323	19	C14H17+
186.1037	151	C13H14O+
187.1113	63	C13H15O+
191.0852	42	C15H11+
192.0932	83	C15H12+
193.1009	103	C15H13+
194.1087	47	C15H14+
195.0801	43	C14H11O+
195.1166	142	C15H15+
196.0882	62	C14H12O+
197.0959	227	C14H13O+
197.1322	36	C15H17+
198.1036	213	C14H14O+
199.1114	999	C14H15O+
200.1192	242	C14H16O+
205.1009	70	C16H13+
206.1083	27	C16H14+
207.1164	102	C16H15+
209.0958	64	C15H13O+
209.1324	67	C16H17+
210.1034	53	C15H14O+
211.1115	102	C15H15O+
211.148	42	C16H19+
212.1192	120	C15H16O+
213.127	102	C15H17O+
214.1347	276	C15H18O+
215.1427	27	C15H19O+
219.1167	29	C17H15+
220.1244	59	C17H16+
223.1115	55	C16H15O+
223.1484	16	C17H19+
224.1189	59	C16H16O+
225.1267	115	C16H17O+
227.1426	185	C16H19O+
235.1476	68	C18H19+
237.1268	68	C17H17O+
238.1351	141	C17H18O+
253.1582	192	C18H21O+
271.1687	62	C18H23O2+
