Mass spectrum: Dydrogesterone; LC-ESI-ITFT; MS2; CE: 80%; R=15000; [M+H]+
Name: Dydrogesterone
Name: (8S,9R,10S,13S,14S,17S)-17-acetyl-10,13-dimethyl-1,2,8,9,11,12,14,15,16,17-decahydrocyclopenta[a]phenanthren-3-one
Formula: C21H28O2
Exact mass: 312.208930136
SMILES: [H][C@@]12CC[C@H](C(C)=O)[C@@]1(C)CC[C@]1([H])[C@@]2([H])C=CC2=CC(=O)CC[C@@]12C
InChI: InChI=1S/C21H28O2/c1-13(22)17-6-7-18-16-5-4-14-12-15(23)8-10-20(14,2)19(16)9-11-21(17,18)3/h4-5,12,16-19H,6-11H2,1-3H3/t16-,17+,18-,19+,20+,21+/m0/s1
Instrument: LTQ Orbitrap XL Thermo Scientific
Instrument type: LC-ESI-ITFT
Ms type: MS2
Ion mode: POSITIVE
Ionization: ESI
Fragmentation mode: HCD
Collision energy: 80 % (nominal)
Resolution: 15000
Column name: Kinetex Evo C18 2.6 um 50 x 2.1 mm
Retention time: 12.059 min
Base peak: 313.2163
Precursor m/z: 313.2162
Precursor type: [M+H]+
Precursor intensity: 6661690
m/z	relative intensity	assigned
55.0176	54	C3H3O+
55.054	140	C4H7+
67.0541	303	C5H7+
69.0698	90	C5H9+
71.0491	467	C4H7O+
77.0389	40	C6H5+
79.0543	398	C6H7+
81.0699	434	C6H9+
83.0492	464	C5H7O+
85.0648	160	C5H9O+
91.0543	587	C7H7+
93.07	628	C7H9+
95.049	72	C6H7O+
95.0856	649	C7H11+
97.0649	912	C6H9O+
99.0442	37	C5H7O2+
105.07	999	C8H9+
107.0493	176	C7H7O+
107.0856	416	C8H11+
109.0649	385	C7H9O+
109.1013	152	C8H13+
111.0806	59	C7H11O+
115.0542	68	C9H7+
117.0699	309	C9H9+
119.0857	614	C9H11+
121.0649	271	C8H9O+
121.1011	124	C9H13+
123.0805	251	C8H11O+
128.0623	160	C10H8+
129.0699	496	C10H9+
130.0778	98	C10H10+
131.0856	767	C10H11+
133.0649	116	C9H9O+
133.1013	385	C10H13+
135.0803	109	C9H11O+
135.117	63	C10H15+
141.0701	222	C11H9+
142.0778	265	C11H10+
143.0856	604	C11H11+
144.0934	101	C11H12+
145.0646	43	C10H9O+
145.1013	581	C11H13+
146.0726	65	C10H10O+
147.0806	189	C10H11O+
147.1169	107	C11H15+
149.0962	149	C10H13O+
153.0701	83	C12H9+
154.078	80	C12H10+
155.0856	579	C12H11+
156.0934	202	C12H12+
157.1013	552	C12H13+
158.0725	102	C11H10O+
159.117	338	C12H15+
160.0888	41	C11H12O+
161.0963	239	C11H13O+
162.104	57	C11H14O+
163.1118	174	C11H15O+
165.0704	82	C13H9+
166.0781	77	C13H10+
167.0857	218	C13H11+
168.0931	97	C13H12+
169.1014	540	C13H13+
170.1092	96	C13H14+
171.0805	69	C12H11O+
171.117	295	C13H15+
173.0961	278	C12H13O+
173.1324	79	C13H17+
175.1116	161	C12H15O+
179.0857	91	C14H11+
180.0932	76	C14H12+
181.1013	284	C14H13+
182.1094	154	C14H14+
183.1168	342	C14H15+
184.1249	50	C14H16+
185.0961	85	C13H13O+
185.1329	141	C14H17+
187.1116	79	C13H15O+
187.1475	75	C14H19+
192.0939	64	C15H12+
193.1013	89	C15H13+
194.1088	66	C15H14+
195.117	283	C15H15+
196.1248	117	C15H16+
197.0955	50	C14H13O+
197.1326	163	C15H17+
199.1119	76	C14H15O+
199.1472	42	C15H19+
200.12	61	C14H16O+
201.1273	37	C14H17O+
207.1167	79	C16H15+
209.1325	160	C16H17+
211.1125	77	C15H15O+
211.148	140	C16H19+
212.1202	51	C15H16O+
213.1275	180	C15H17O+
213.1644	46	C16H21+
214.136	59	C15H18O+
221.1325	57	C17H17+
223.1492	36	C17H19+
225.1638	74	C17H21+
227.143	80	C16H19O+
228.1511	63	C16H20O+
229.1587	41	C16H21O+
237.1636	95	C18H21+
239.1423	50	C17H19O+
253.1585	57	C18H21O+
