Mass spectrum: Pirimiphos-methyl; LC-ESI-ITFT; MS2; CE: 80; R=15000; [M+H]+
Name: Pirimiphos-methyl
Name: 4-Dimethoxyphosphinothioyloxy-N,N-diethyl-6-methylpyrimidin-2-amine
Formula: C11H20N3O3PS
Exact mass: 305.0963
SMILES: CCN(CC)C1=NC(C)=CC(OP(=S)(OC)OC)=N1
InChI: InChI=1S/C11H20N3O3PS/c1-6-14(7-2)11-12-9(3)8-10(13-11)17-18(19,15-4)16-5/h8H,6-7H2,1-5H3
Instrument: LTQ Orbitrap XL Thermo Scientific
Instrument type: LC-ESI-ITFT
Ms type: MS2
Ion mode: POSITIVE
Ionization: ESI
Fragmentation mode: HCD
Collision energy: 80 (nominal)
Resolution: 15000
Column name: Kinetex Core-Shell C18 2.6 um, 3.0 x 100 mm, Phenomenex
Retention time: 26.211 min
Base peak: 305.1079
Precursor m/z: 306.1036
Precursor type: [M+H]+
m/z	relative intensity	assigned
78.9942	81	CH4O2P+
84.0443	52	C4H6NO+
95.0603	128	C5H7N2+
96.9506	76	H2O2PS+
100.0214	115	C4H6NS+
108.0555	999	C5H6N3+
109.0048	30	C2H6O3P+
109.0759	55	C6H9N2+
114.9613	59	H4O3PS+
123.0917	18	C7H11N2+
124.9819	169	C2H6O2PS+
127.0154	98	C2H8O4P+
136.0866	35	C7H10N3+
142.9925	88	C2H8O3PS+
151.0267	42	C3H8N2O3P+
153.1019	15	C8H13N2O+
154.1057	28	C3H14N4O3+
164.1179	21	C9H14N3+
168.1131	14	C8H14N3O+
169.0791	33	C8H13N2S+
170.0825	54	C3H14N4O2S+
220.0271	20	C9H7N3O2P+
