Mass spectrum: 4-Nitroquinoline 1-oxide; ESI-ITFT; MS2; CE: 35%; R=30000; [M+H]+
Name: 4-Nitroquinoline 1-oxide
Name: 4-nitro-1-oxidoquinolin-1-ium
Formula: C9H6N2O3
Exact mass: 190.0378
SMILES: c1ccc2c(c1)c(cc[n+]2[O-])[N+](=O)[O-]
InChI: InChI=1S/C9H6N2O3/c12-10-6-5-9(11(13)14)7-3-1-2-4-8(7)10/h1-6H
Instrument: LTQ Orbitrap XL Thermo Scientific
Instrument type: ESI-ITFT
Ms type: MS2
Ion mode: POSITIVE
Ionization: ESI
Fragmentation mode: CID
Collision energy: 35 % (nominal)
Resolution: 30000
Column name: N/A
Retention time: N/A min
Base peak: 191.0451
Precursor m/z: 191.0451
Precursor type: [M+H]+
m/z	relative intensity	assigned
77.0387	12	C6H5+
90.0465	27	C7H6+
91.0418	6	C6H5N+
104.0496	51	C7H6N+
105.0448	1	C6H5N2+
105.0574	7	C7H7N+
116.0496	10	C8H6N+
117.0574	22	C8H7N+
132.0445	7	C8H6NO+
133.0523	8	C8H7NO+
143.0606	6	C9H7N2+
144.0446	17	C9H6NO+
145.0524	218	C9H7NO+
160.0396	6	C9H6NO2+
161.0473	999	C9H7NO2+
191.0453	31	C9H7N2O3+
