Mass spectrum: DEET; LC-ESI-ITFT; MS2; CE: 70%; R=15000; [M+H]+
Name: DEET
Name: Diethyltoluamide
Name: N,N-diethyl-3-methylbenzamide
Formula: C12H17NO
Exact mass: 191.131014164
SMILES: CCN(CC)C(=O)C1=CC=CC(C)=C1
InChI: InChI=1S/C12H17NO/c1-4-13(5-2)12(14)11-8-6-7-10(3)9-11/h6-9H,4-5H2,1-3H3
Instrument: LTQ Orbitrap XL Thermo Scientific
Instrument type: LC-ESI-ITFT
Ms type: MS2
Ion mode: POSITIVE
Ionization: ESI
Fragmentation mode: HCD
Collision energy: 70 % (nominal)
Resolution: 15000
Column name: Kinetex Evo C18 2.6 um 50 x 2.1 mm
Retention time: 10.011 min
Base peak: 192.1389
Precursor m/z: 192.1383
Precursor type: [M+H]+
Precursor intensity: 76967968
m/z	relative intensity	assigned
72.0443	72	C3H6NO+
91.0542	220	C7H7+
93.07	2	C7H9+
100.0757	45	C5H10NO+
108.0574	1	C7H8O+
109.0648	40	C7H9O+
118.0653	6	C8H8N+
119.0492	999	C8H7O+
192.1384	30	C12H18NO+
