Mass spectrum: 4,4`-Methylene-bis(2-methyl aniline); LC-ESI-ITFT; MS2; CE: 90%; R=15000; [M+H]+
Name: 4,4`-Methylene-bis(2-methyl aniline)
Name: 4,4`-Methylenebis(2-methylaniline)
Name: 4-[(4-amino-3-methylphenyl)methyl]-2-methylaniline
Formula: C15H18N2
Exact mass: 226.146998576
SMILES: CC1=C(N)C=CC(CC2=CC(C)=C(N)C=C2)=C1
InChI: InChI=1S/C15H18N2/c1-10-7-12(3-5-14(10)16)9-13-4-6-15(17)11(2)8-13/h3-8H,9,16-17H2,1-2H3
Instrument: LTQ Orbitrap XL Thermo Scientific
Instrument type: LC-ESI-ITFT
Ms type: MS2
Ion mode: POSITIVE
Ionization: ESI
Fragmentation mode: HCD
Collision energy: 90 % (nominal)
Resolution: 15000
Column name: Kinetex Evo C18 2.6 um 50 x 2.1 mm
Retention time: 0.964 min
Base peak: 108.0809
Precursor m/z: 227.1543
Precursor type: [M+H]+
Precursor intensity: 10531212
m/z	relative intensity	assigned
77.0385	12	C6H5+
79.0542	4	C6H7+
80.0494	3	C5H6N+
81.0575	1	C5H7N+
91.0542	11	C7H7+
92.0492	1	C6H6N+
93.0699	7	C7H9+
94.0651	1	C6H8N+
103.0543	39	C8H7+
105.0448	8	C6H5N2+
105.0572	1	C7H7N+
105.0699	1	C8H9+
106.0648	1	C7H8N+
107.0731	4	C7H9N+
117.0573	1	C8H7N+
118.0651	3	C8H8N+
119.0732	3	C8H9N+
120.0808	999	C8H10N+
128.0621	8	C10H8+
129.0699	12	C10H9+
130.0651	3	C9H8N+
141.0695	2	C11H9+
142.0777	4	C11H10+
143.0851	1	C11H11+
144.0805	3	C10H10N+
145.0883	1	C10H11N+
152.062	2	C12H8+
153.07	6	C12H9+
154.078	3	C12H10+
155.0604	2	C10H7N2+
155.0855	8	C12H11+
157.0886	2	C11H11N+
165.07	5	C13H9+
166.0777	2	C13H10+
167.073	3	C12H9N+
167.0857	3	C13H11+
168.0806	2	C12H10N+
168.0934	3	C13H12+
169.1016	1	C13H13+
170.0962	2	C12H12N+
177.0697	4	C14H9+
178.0778	81	C14H10+
179.0856	7	C14H11+
180.0808	127	C13H10N+
181.0884	2	C13H11N+
182.0967	1	C13H12N+
191.0855	2	C15H11+
192.0936	4	C15H12+
193.0886	6	C14H11N+
193.1013	9	C15H13+
194.0965	75	C14H12N+
195.1043	34	C14H13N+
208.1119	4	C15H14N+
209.1209	1	C15H15N+
210.1276	1	C15H16N+
211.1233	1	C14H15N2+
225.1389	1	C15H17N2+
227.1547	2	C15H19N2+
