Mass spectrum: Velvione; LC-ESI-ITFT; MS2; CE: 60%; R=15000; [M+H]+
Name: Velvione
Name: cyclohexadec-5-en-1-one
Formula: C16H28O
Exact mass: 236.214015516
SMILES: O=C1CCCCCCCCCCC=CCCC1
InChI: InChI=1S/C16H28O/c17-16-14-12-10-8-6-4-2-1-3-5-7-9-11-13-15-16/h6,8H,1-5,7,9-15H2
Instrument: LTQ Orbitrap XL Thermo Scientific
Instrument type: LC-ESI-ITFT
Ms type: MS2
Ion mode: POSITIVE
Ionization: ESI
Fragmentation mode: HCD
Collision energy: 60 % (nominal)
Resolution: 15000
Column name: Kinetex Evo C18 2.6 um 50 x 2.1 mm
Retention time: 14.344 min
Base peak: 116.9859
Precursor m/z: 237.2213
Precursor type: [M+H]+
Precursor intensity: 665764.06
m/z	relative intensity	assigned
55.0541	669	C4H7+
57.0698	137	C4H9+
67.0542	561	C5H7+
69.0699	630	C5H9+
79.0544	105	C6H7+
81.07	975	C6H9+
83.0857	617	C6H11+
93.07	144	C7H9+
95.0858	999	C7H11+
97.0652	74	C6H9O+
97.1014	293	C7H13+
107.0858	115	C8H11+
109.1014	305	C8H13+
121.1014	96	C9H13+
123.1171	92	C9H15+
135.1173	83	C10H15+
169.0065	36	C14H+
181.1011	37	C14H13+
193.1018	73	C15H13+
195.1171	56	C15H15+
207.1175	69	C16H15+
208.1247	68	C16H16+
209.1332	58	C16H17+
