Mass spectrum: Carbaryl; LC-ESI-ITFT; MS2; CE: 80%; R=15000; [M+H]+
Name: Carbaryl
Name: naphthalen-1-yl N-methylcarbamate
Formula: C12H11NO2
Exact mass: 201.078978592
SMILES: CNC(=O)OC1=C2C=CC=CC2=CC=C1
InChI: InChI=1S/C12H11NO2/c1-13-12(14)15-11-8-4-6-9-5-2-3-7-10(9)11/h2-8H,1H3,(H,13,14)
Instrument: LTQ Orbitrap XL Thermo Scientific
Instrument type: LC-ESI-ITFT
Ms type: MS2
Ion mode: POSITIVE
Ionization: ESI
Fragmentation mode: HCD
Collision energy: 80 % (nominal)
Resolution: 15000
Column name: Kinetex Evo C18 2.6 um 50 x 2.1 mm
Retention time: 9.357 min
Base peak: 145.0653
Precursor m/z: 202.0863
Precursor type: [M+H]+
Precursor intensity: 7930660
m/z	relative intensity	assigned
58.0288	20	C2H4NO+
91.0546	70	C7H7+
115.0548	169	C9H7+
117.0704	999	C9H9+
127.0548	116	C10H7+
146.0234	53	C8H4NO2+
174.055	87	C10H8NO2+
202.0866	77	C12H12NO2+
