Mass spectrum: 2-Amino-3,8-dimethylimidazo-[4,5-f]quinoxaline (MeIQx); LC-ESI-ITFT; MS2; CE: 70%; R=15000; [M+H]+
Name: 2-Amino-3,8-dimethylimidazo-[4,5-f]quinoxaline (MeIQx)
Name: Meiqx
Name: 3,8-dimethylimidazo[4,5-f]quinoxalin-2-amine
Formula: C11H11N5
Exact mass: 213.101445352
SMILES: CN1C(N)=NC2=C1C=CC1=NC=C(C)N=C21
InChI: InChI=1S/C11H11N5/c1-6-5-13-7-3-4-8-10(9(7)14-6)15-11(12)16(8)2/h3-5H,1-2H3,(H2,12,15)
Instrument: LTQ Orbitrap XL Thermo Scientific
Instrument type: LC-ESI-ITFT
Ms type: MS2
Ion mode: POSITIVE
Ionization: ESI
Fragmentation mode: HCD
Collision energy: 70 % (nominal)
Resolution: 15000
Column name: Kinetex Evo C18 2.6 um 50 x 2.1 mm
Retention time: 1.867 min
Base peak: 136.1122
Precursor m/z: 214.1087
Precursor type: [M+H]+
Precursor intensity: 10408160
m/z	relative intensity	assigned
82.0523	3	C4H6N2+
104.0493	3	C7H6N+
105.0445	1	C6H5N2+
118.0647	2	C8H8N+
119.0601	1	C7H7N2+
129.0449	2	C8H5N2+
131.0477	4	C7H5N3+
131.0603	1	C8H7N2+
143.0604	2	C9H7N2+
144.0687	1	C9H8N2+
145.0759	6	C9H9N2+
146.0711	92	C8H8N3+
156.0555	20	C9H6N3+
158.0587	3	C8H6N4+
158.0713	3	C9H8N3+
159.0786	1	C9H9N3+
160.0867	21	C9H10N3+
161.082	1	C8H9N4+
170.0711	8	C10H8N3+
171.0662	2	C9H7N4+
171.0785	1	C10H9N3+
172.0741	19	C9H8N4+
172.0867	74	C10H10N3+
173.0819	193	C9H9N4+
174.077	7	C8H8N5+
174.0893	1	C9H10N4+
185.0819	5	C10H9N4+
187.0976	75	C10H11N4+
197.082	50	C11H9N4+
198.0772	1	C10H8N5+
198.0901	5	C11H10N4+
199.085	532	C10H9N5+
213.1006	5	C11H11N5+
214.1083	999	C11H12N5+
