Mass spectrum: N-lauroylethanolamine; LC-ESI-ITFT; MS2; CE: 25%; R=15000; [M+H]+
Name: N-lauroylethanolamine
Name: N-(2-hydroxyethyl)dodecanamide
Formula: C14H29NO2
Exact mass: 243.2198
SMILES: CCCCCCCCCCCC(=O)NCCO
InChI: InChI=1S/C14H29NO2/c1-2-3-4-5-6-7-8-9-10-11-14(17)15-12-13-16/h16H,2-13H2,1H3,(H,15,17)
Instrument: LTQ Orbitrap XL Thermo Scientific
Instrument type: LC-ESI-ITFT
Ms type: MS2
Ion mode: POSITIVE
Ionization: ESI
Fragmentation mode: HCD
Collision energy: 25 % (nominal)
Resolution: 15000
Column name: Kinetex Evo C18 2.6 um 50 x 2.1 mm
Retention time: 13.021 min
Base peak: 244.227
Precursor m/z: 244.2271
Precursor type: [M+H]+
m/z	relative intensity	assigned
57.0699	14	C4H9+
62.0598	201	C2H8NO+
95.0854	50	C7H11+
109.101	36	C8H13+
226.2169	81	C14H28NO+
227.2005	360	C14H27O2+
244.2271	999	C14H30NO2+
