Mass spectrum: 10,11-Dihydro-10,11-dihydroxycarbamazepine; LC-ESI-ITFT; MS2; CE: 80; R=15000; [M+H]+
Name: 10,11-Dihydro-10,11-dihydroxycarbamazepine
Name: Cbz-diol
Name: 5,6-Dihydroxy-5,6-dihydrobenzo[b][1]benzazepine-11-carboxamide
Formula: C15H14N2O3
Exact mass: 270.1004
SMILES: OC1C(O)C2=CC=CC=C2N(C(O)=N)C2=CC=CC=C12
InChI: InChI=1S/C15H14N2O3/c16-15(20)17-11-7-3-1-5-9(11)13(18)14(19)10-6-2-4-8-12(10)17/h1-8,13-14,18-19H,(H2,16,20)
Instrument: LTQ Orbitrap XL Thermo Scientific
Instrument type: LC-ESI-ITFT
Ms type: MS2
Ion mode: POSITIVE
Ionization: ESI
Fragmentation mode: HCD
Collision energy: 80 (nominal)
Resolution: 15000
Column name: Kinetex Core-Shell C18 2.6 um, 3.0 x 100 mm, Phenomenex
Retention time: 19.582 min
Base peak: 163.1329
Precursor m/z: 271.1077
Precursor type: [M+H]+
m/z	relative intensity	assigned
180.0809	999	C13H10N+
182.0966	107	C13H12N+
210.0912	14	C14H12NO+
