Mass spectrum: Ciprofloxacin; LC-ESI-ITFT; MS2; CE: 60%; R=15000; [M+H]+
Name: Ciprofloxacin
Name: 1-cyclopropyl-6-fluoro-4-oxo-7-piperazin-1-ylquinoline-3-carboxylic acid
Formula: C17H18FN3O3
Exact mass: 331.133219656
SMILES: OC(=O)C1=CN(C2CC2)C2=C(C=C(F)C(=C2)N2CCNCC2)C1=O
InChI: InChI=1S/C17H18FN3O3/c18-13-7-11-14(8-15(13)20-5-3-19-4-6-20)21(10-1-2-10)9-12(16(11)22)17(23)24/h7-10,19H,1-6H2,(H,23,24)
Instrument: LTQ Orbitrap XL Thermo Scientific
Instrument type: LC-ESI-ITFT
Ms type: MS2
Ion mode: POSITIVE
Ionization: ESI
Fragmentation mode: HCD
Collision energy: 60 % (nominal)
Resolution: 15000
Column name: Kinetex Evo C18 2.6 um 50 x 2.1 mm
Retention time: 5.188 min
Base peak: 218.0851
Precursor m/z: 332.1405
Precursor type: [M+H]+
Precursor intensity: 1285445.5
m/z	relative intensity	assigned
58.0652	21	C3H8N+
70.0653	77	C4H8N+
163.0672	33	C9H8FN2+
184.064	30	C8H9FN2O2+
189.0468	83	C10H6FN2O+
191.0622	125	C10H8FN2O+
203.0623	317	C11H8FN2O+
203.0743	21	C12H10FNO+
203.0988	17	C12H12FN2+
204.07	373	C11H9FN2O+
205.0779	286	C11H10FN2O+
217.078	90	C12H10FN2O+
218.086	31	C12H11FN2O+
219.0939	34	C12H12FN2O+
231.0572	516	C12H8FN2O2+
231.0936	240	C13H12FN2O+
232.0889	16	C17H12O+
245.1093	999	C14H14FN2O+
286.1344	17	C16H17FN3O+
288.1513	86	C16H19FN3O+
294.1258	25	C14H17FN3O3+
314.1306	197	C17H17FN3O2+
332.1414	118	C17H19FN3O3+
