Mass spectrum: Loperamide; LC-ESI-ITFT; MS2; CE: 60%; R=15000; [M+H]+
Name: Loperamide
Name: 4-[4-(4-chlorophenyl)-4-hydroxypiperidin-1-yl]-N,N-dimethyl-2,2-diphenylbutanamide
Formula: C29H33ClN2O2
Exact mass: 476.223055976
SMILES: CN(C)C(=O)C(CCN1CCC(O)(CC1)C1=CC=C(Cl)C=C1)(C1=CC=CC=C1)C1=CC=CC=C1
InChI: InChI=1S/C29H33ClN2O2/c1-31(2)27(33)29(24-9-5-3-6-10-24,25-11-7-4-8-12-25)19-22-32-20-17-28(34,18-21-32)23-13-15-26(30)16-14-23/h3-16,34H,17-22H2,1-2H3
Instrument: LTQ Orbitrap XL Thermo Scientific
Instrument type: LC-ESI-ITFT
Ms type: MS2
Ion mode: POSITIVE
Ionization: ESI
Fragmentation mode: HCD
Collision energy: 60 % (nominal)
Resolution: 15000
Column name: Kinetex Evo C18 2.6 um 50 x 2.1 mm
Retention time: 9.768 min
Base peak: 477.2301
Precursor m/z: 477.2303
Precursor type: [M+H]+
Precursor intensity: 8067036
m/z	relative intensity	assigned
72.0443	158	C3H6NO+
115.0542	23	C9H7+
167.0854	17	C13H11+
193.1012	26	C15H13+
206.072	2	C15H10O+
210.1277	903	C15H16N+
224.0836	3	C12H15ClNO+
238.1225	126	C16H16NO+
266.1538	999	C18H20NO+
