Mass spectrum: Trifloxystrobin CGA 321113; LC-ESI-ITFT; MS2; CE: 40%; R=15000; [M+H]+
Name: Trifloxystrobin CGA 321113
Name: Trifloxystrobin acid
Name: (2E)-2-methoxyimino-2-[2-[[(E)-1-[3-(trifluoromethyl)phenyl]ethylideneamino]oxymethyl]phenyl]acetic acid
Formula: C19H17F3N2O4
Exact mass: 394.114041684
SMILES: CO\N=C(\C(O)=O)C1=CC=CC=C1CO\N=C(/C)C1=CC=CC(=C1)C(F)(F)F
InChI: InChI=1S/C19H17F3N2O4/c1-12(13-7-5-8-15(10-13)19(20,21)22)23-28-11-14-6-3-4-9-16(14)17(18(25)26)24-27-2/h3-10H,11H2,1-2H3,(H,25,26)/b23-12+,24-17+
Instrument: LTQ Orbitrap XL Thermo Scientific
Instrument type: LC-ESI-ITFT
Ms type: MS2
Ion mode: POSITIVE
Ionization: ESI
Fragmentation mode: HCD
Collision energy: 40 % (nominal)
Resolution: 15000
Column name: Kinetex Evo C18 2.6 um 50 x 2.1 mm
Retention time: 12.851 min
Base peak: 406.0726
Precursor m/z: 395.1213
Precursor type: [M+H]+
Precursor intensity: 19468230
m/z	relative intensity	assigned
91.0544	3	C7H7+
116.0494	224	C8H6N+
117.0572	23	C8H7N+
118.0649	5	C8H8N+
132.0443	8	C8H6NO+
134.0599	19	C8H8NO+
145.0258	21	C7H4F3+
148.0756	239	C9H10NO+
173.0319	35	C7H4F3N2+
186.0524	999	C9H7F3N+
192.0652	36	C10H10NO3+
204.0631	23	C9H9F3NO+
