Mass spectrum: Flurtamone; LC-ESI-ITFT; MS2; CE: 55; R=15000; [M+H]+
Name: Flurtamone
Name: 5-(Methylamino)-2-phenyl-4-[3-(trifluoromethyl)phenyl]furan-3-one
Formula: C18H14F3NO2
Exact mass: 333.0977
SMILES: CNC1=C(C(=O)C(O1)C1=CC=CC=C1)C1=CC=CC(=C1)C(F)(F)F
InChI: InChI=1S/C18H14F3NO2/c1-22-17-14(12-8-5-9-13(10-12)18(19,20)21)15(23)16(24-17)11-6-3-2-4-7-11/h2-10,16,22H,1H3
Instrument: LTQ Orbitrap XL Thermo Scientific
Instrument type: LC-ESI-ITFT
Ms type: MS2
Ion mode: POSITIVE
Ionization: ESI
Fragmentation mode: HCD
Collision energy: 55 (nominal)
Resolution: 15000
Column name: Kinetex Core-Shell C18 2.6 um, 3.0 x 100 mm, Phenomenex
Retention time: 24.282 min
Base peak: 304.121
Precursor m/z: 334.1049
Precursor type: [M+H]+
m/z	relative intensity	assigned
77.0386	10	C6H5+
91.0543	2	C7H7+
103.0543	31	C8H7+
105.0335	283	C7H5O+
118.0653	4	C8H8N+
120.0808	91	C8H10N+
131.0491	7	C9H7O+
159.0415	3	C8H6F3+
165.07	1	C13H9+
167.0306	2	C9H5F2O+
171.0418	29	C9H6F3+
173.021	3	C8H4F3O+
178.0777	138	C14H10+
180.0616	1	C10H8F2N+
180.0934	1	C14H12+
188.0683	4	C9H9F3N+
189.0704	1	C15H9+
196.0684	5	C14H9F+
197.0211	15	C10H4F3O+
199.0366	7	C10H6F3O+
207.0606	26	C15H8F+
209.0763	17	C15H10F+
210.0529	2	C11H7F3N+
214.0592	2	C14H8F2+
225.016	34	C11H4F3O2+
227.0668	144	C15H9F2+
229.0825	15	C15H11F2+
237.0712	8	C16H10FO+
238.048	3	C12H7F3NO+
246.0649	3	C15H9F3+
247.073	999	C15H10F3+
248.0762	66	C10H11F3N2O2+
249.0887	7	C15H12F3+
255.0617	6	C16H9F2O+
256.0582	5	C12H9F3NO2+
257.0775	23	C16H11F2O+
259.073	7	C16H10F3+
262.0598	3	C15H9F3O+
275.0679	80	C16H10F3O+
276.0718	4	C11H11F3N2O3+
277.0837	4	C16H12F3O+
283.0563	1	C17H9F2O2+
286.1042	9	C17H14F2NO+
288.0998	14	C17H13F3N+
303.0631	31	C17H10F3O2+
304.0665	2	C15H10F2N2O3+
306.1103	28	C17H15F3NO+
307.1132	2	C15H15F2N3O2+
314.0994	2	C18H14F2NO2+
316.0946	4	C18H13F3NO+
334.105	9	C18H15F3NO2+
