Mass spectrum: Amidosulfuron; LC-ESI-ITFT; MS2; CE: 60%; R=15000; [M+H]+
Name: Amidosulfuron
Name: 1-(4,6-dimethoxypyrimidin-2-yl)-3-[methyl(methylsulfonyl)sulfamoyl]urea
Formula: C9H15N5O7S2
Exact mass: 369.04128982
SMILES: COC1=CC(OC)=NC(NC(=O)NS(=O)(=O)N(C)S(C)(=O)=O)=N1
InChI: InChI=1S/C9H15N5O7S2/c1-14(22(4,16)17)23(18,19)13-9(15)12-8-10-6(20-2)5-7(11-8)21-3/h5H,1-4H3,(H2,10,11,12,13,15)
Instrument: LTQ Orbitrap XL Thermo Scientific
Instrument type: LC-ESI-ITFT
Ms type: MS2
Ion mode: POSITIVE
Ionization: ESI
Fragmentation mode: HCD
Collision energy: 60 % (nominal)
Resolution: 15000
Column name: Kinetex Evo C18 2.6 um 50 x 2.1 mm
Retention time: 9.726 min
Base peak: 252.1234
Precursor m/z: 370.0486
Precursor type: [M+H]+
Precursor intensity: 845801.19
m/z	relative intensity	assigned
97.0398	107	C4H5N2O+
124.0507	262	C5H6N3O+
127.0505	225	C5H7N2O2+
139.0378	999	C5H5N3O2+
142.0612	99	C5H8N3O2+
154.0614	406	C6H8N3O2+
181.0713	64	C7H9N4O2+
182.0562	209	C7H8N3O3+
218.0233	533	C6H8N3O4S+
236.0339	256	C6H10N3O5S+
