Mass spectrum: Clothianidin; LC-ESI-ITFT; MS2; CE: 90%; R=15000; [M+H]+
Name: Clothianidin
Name: 1-[(2-chloro-1,3-thiazol-5-yl)methyl]-2-methyl-3-nitroguanidine
Formula: C6H8ClN5O2S
Exact mass: 249.008723176
SMILES: CN\C(NCC1=CN=C(Cl)S1)=N/[N+]([O-])=O
InChI: InChI=1S/C6H8ClN5O2S/c1-8-6(11-12(13)14)10-3-4-2-9-5(7)15-4/h2H,3H2,1H3,(H2,8,10,11)
Instrument: LTQ Orbitrap XL Thermo Scientific
Instrument type: LC-ESI-ITFT
Ms type: MS2
Ion mode: POSITIVE
Ionization: ESI
Fragmentation mode: HCD
Collision energy: 90 % (nominal)
Resolution: 15000
Column name: Kinetex Evo C18 2.6 um 50 x 2.1 mm
Retention time: 5.688 min
Base peak: 230.0076
Precursor m/z: 250.016
Precursor type: [M+H]+
Precursor intensity: 4023444.25
m/z	relative intensity	assigned
54.0338	58	C3H4N+
57.0447	68	C2H5N2+
70.9951	319	C3H3S+
86.0062	155	C3H4NS+
96.0558	71	C4H6N3+
110.0716	504	C5H8N3+
111.0794	401	C5H9N3+
113.0171	967	C4H5N2S+
118.9593	20	C3H2ClNS+
119.9673	47	C3H3ClNS+
131.9673	999	C4H3ClNS+
132.9751	57	C4H4ClNS+
142.0435	30	C5H8N3S+
146.9781	67	C4H4ClN2S+
147.9859	20	C4H5ClN2S+
153.0231	23	C5H5N4S+
167.039	18	C6H7N4S+
169.0545	67	C6H9N4S+
174.9732	19	C5H4ClN2OS+
