Mass spectrum: Michler`s ketone; LC-ESI-ITFT; MS2; CE: 80%; R=15000; [M+H]+
Name: Michler`s ketone
Name: bis[4-(dimethylamino)phenyl]methanone
Formula: C17H20N2O
Exact mass: 268.15756326
SMILES: CN(C)C1=CC=C(C=C1)C(=O)C1=CC=C(C=C1)N(C)C
InChI: InChI=1S/C17H20N2O/c1-18(2)15-9-5-13(6-10-15)17(20)14-7-11-16(12-8-14)19(3)4/h5-12H,1-4H3
Instrument: LTQ Orbitrap XL Thermo Scientific
Instrument type: LC-ESI-ITFT
Ms type: MS2
Ion mode: POSITIVE
Ionization: ESI
Fragmentation mode: HCD
Collision energy: 80 % (nominal)
Resolution: 15000
Column name: Kinetex Evo C18 2.6 um 50 x 2.1 mm
Retention time: 11.848 min
Base peak: 116.9859
Precursor m/z: 269.1648
Precursor type: [M+H]+
Precursor intensity: 1627902.62
m/z	relative intensity	assigned
77.0384	22	C6H5+
79.054	93	C6H7+
80.0492	9	C5H6N+
91.054	49	C7H7+
92.0493	10	C6H6N+
92.0618	16	C7H8+
93.057	2	C6H7N+
93.0697	39	C7H9+
94.065	4	C6H8N+
95.0489	3	C6H7O+
103.054	26	C8H7+
104.0493	5	C7H6N+
105.0445	12	C6H5N2+
105.0571	88	C7H7N+
110.0599	4	C6H8NO+
118.0649	22	C8H8N+
119.0728	10	C8H9N+
120.0805	231	C8H10N+
132.044	1	C8H6NO+
148.0754	999	C9H10NO+
