Mass spectrum: Diazepam; LC-ESI-ITFT; MS2; CE: 35; R=15000; [M+H]+
Name: Diazepam
Name: 7-Chloro-1-methyl-5-phenyl-3H-1,4-benzodiazepin-2-one
Formula: C16H13ClN2O
Exact mass: 284.0716
SMILES: CN1C2=CC=C(Cl)C=C2C(=NCC1=O)C1=CC=CC=C1
InChI: InChI=1S/C16H13ClN2O/c1-19-14-8-7-12(17)9-13(14)16(18-10-15(19)20)11-5-3-2-4-6-11/h2-9H,10H2,1H3
Instrument: LTQ Orbitrap XL Thermo Scientific
Instrument type: LC-ESI-ITFT
Ms type: MS2
Ion mode: POSITIVE
Ionization: ESI
Fragmentation mode: CID
Collision energy: 35 (nominal)
Resolution: 15000
Column name: Kinetex Core-Shell C18 2.6 um, 3.0 x 100 mm, Phenomenex
Retention time: 24.416 min
Base peak: 204.1381
Precursor m/z: 285.0789
Precursor type: [M+H]+
m/z	relative intensity	assigned
91.0544	3	C7H7+
105.0336	65	C7H5O+
117.0578	1	C8H7N+
118.0652	1	C8H8N+
119.073	1	C8H9N+
147.0683	8	C6H12ClN2+
152.0264	3	C8H7ClN+
154.0421	252	C8H9ClN+
167.0136	23	C8H6ClNO+
172.0635	6	C10H8N2O+
179.0374	12	C9H8ClN2+
180.0215	20	C9H7ClNO+
182.037	156	C9H9ClNO+
193.089	63	C14H11N+
204.0812	4	C15H10N+
207.0327	3	C10H8ClN2O+
216.0579	2	C13H11ClN+
220.1	8	C15H12N2+
221.1078	28	C15H13N2+
222.1155	205	C15H14N2+
226.0411	2	C14H9ClN+
227.0496	2	C14H10ClN+
228.0578	180	C14H11ClN+
230.0741	2	C14H13ClN+
240.0581	2	C15H11ClN+
241.0534	4	C14H10ClN2+
242.0608	3	C14H11ClN2+
243.0692	2	C14H12ClN2+
250.1101	2	C16H14N2O+
255.0691	7	C15H12ClN2+
256.0767	5	C15H13ClN2+
257.0845	560	C15H14ClN2+
285.0795	999	C16H14ClN2O+
