Mass spectrum: Pyrazophos; LC-ESI-ITFT; MS2; CE: 30%; R=15000; [M+H]+
Name: Pyrazophos
Name: ethyl 2-diethoxyphosphinothioyloxy-5-methylpyrazolo[1,5-a]pyrimidine-6-carboxylate
Formula: C14H20N3O5PS
Exact mass: 373.08612837
SMILES: CCOC(=O)C1=CN2N=C(OP(=S)(OCC)OCC)C=C2N=C1C
InChI: InChI=1S/C14H20N3O5PS/c1-5-19-14(18)11-9-17-12(15-10(11)4)8-13(16-17)22-23(24,20-6-2)21-7-3/h8-9H,5-7H2,1-4H3
Instrument: LTQ Orbitrap XL Thermo Scientific
Instrument type: LC-ESI-ITFT
Ms type: MS2
Ion mode: POSITIVE
Ionization: ESI
Fragmentation mode: HCD
Collision energy: 30 % (nominal)
Resolution: 15000
Column name: Kinetex Evo C18 2.6 um 50 x 2.1 mm
Retention time: 12.746 min
Base peak: 374.0946
Precursor m/z: 374.0934
Precursor type: [M+H]+
Precursor intensity: 22191504
m/z	relative intensity	assigned
113.9536	15	H3O3PS+
170.0162	28	C4H11O3PS+
176.0457	3	C8H6N3O2+
183.0229	2	C3H10N3O2PS+
192.0227	5	C8H6N3OS+
194.0562	42	C8H8N3O3+
205.0848	41	C10H11N3O2+
210.0332	23	C8H8N3O2S+
211.0537	38	C5H14N3O2PS+
222.0874	999	C10H12N3O3+
223.0906	35	C7H18N3OPS+
236.049	56	C10H10N3O2S+
238.0646	265	C10H12N3O2S+
239.0683	9	C13H9N3O2+
266.0962	8	C12H16N3O2S+
271.989	1	C8H7N3O4PS+
300.0206	19	C10H11N3O4PS+
318.0309	30	C10H13N3O5PS+
328.0521	12	C12H15N3O4PS+
346.0622	135	C12H17N3O5PS+
374.0934	310	C14H21N3O5PS+
