Mass spectrum: Gestoden; LC-ESI-ITFT; MS2; CE: 40%; R=15000; [M+H]+
Name: Gestoden
Name: Gestodene
Name: (8R,9S,10R,13S,14S,17R)-13-ethyl-17-ethynyl-17-hydroxy-1,2,6,7,8,9,10,11,12,14-decahydrocyclopenta[a]phenanthren-3-one
Formula: C21H26O2
Exact mass: 310.193280072
SMILES: [H][C@@]12C=C[C@@](O)(C#C)[C@@]1(CC)CC[C@]1([H])[C@@]3([H])CCC(=O)C=C3CC[C@@]21[H]
InChI: InChI=1S/C21H26O2/c1-3-20-11-9-17-16-8-6-15(22)13-14(16)5-7-18(17)19(20)10-12-21(20,23)4-2/h2,10,12-13,16-19,23H,3,5-9,11H2,1H3/t16-,17+,18+,19-,20-,21-/m0/s1
Instrument: LTQ Orbitrap XL Thermo Scientific
Instrument type: LC-ESI-ITFT
Ms type: MS2
Ion mode: POSITIVE
Ionization: ESI
Fragmentation mode: HCD
Collision energy: 40 % (nominal)
Resolution: 15000
Column name: Kinetex Evo C18 2.6 um 50 x 2.1 mm
Retention time: 11.298 min
Base peak: 311.2006
Precursor m/z: 311.2006
Precursor type: [M+H]+
Precursor intensity: 12725767
m/z	relative intensity	assigned
67.0539	68	C5H7+
69.0696	30	C5H9+
79.054	125	C6H7+
81.0333	309	C5H5O+
81.0697	125	C6H9+
83.0489	312	C5H7O+
91.054	145	C7H7+
93.0697	156	C7H9+
95.0489	39	C6H7O+
95.0853	178	C7H11+
97.0648	41	C6H9O+
105.0331	33	C7H5O+
105.0697	168	C8H9+
107.0489	240	C7H7O+
107.0854	122	C8H11+
109.0645	999	C7H9O+
109.101	85	C8H13+
117.0697	120	C9H9+
119.0491	14	C8H7O+
119.0853	237	C9H11+
121.0645	124	C8H9O+
121.101	117	C9H13+
123.0801	79	C8H11O+
129.0697	147	C10H9+
131.0491	14	C9H7O+
131.0853	215	C10H11+
133.0645	187	C9H9O+
133.1009	178	C10H13+
135.0802	282	C9H11O+
135.1165	54	C10H15+
137.0959	36	C9H13O+
141.0696	67	C11H9+
143.0852	165	C11H11+
145.0645	55	C10H9O+
145.1009	247	C11H13+
147.0802	215	C10H11O+
147.1166	116	C11H15+
149.0958	251	C10H13O+
149.132	42	C11H17+
153.0695	18	C12H9+
155.0852	120	C12H11+
157.0646	39	C11H9O+
157.1009	181	C12H13+
159.0801	169	C11H11O+
159.1165	143	C12H15+
161.0959	177	C11H13O+
161.1322	106	C12H17+
163.1114	159	C11H15O+
167.0854	52	C13H11+
168.0929	21	C13H12+
169.1007	133	C13H13+
171.0799	29	C12H11O+
171.1166	206	C13H15+
173.0958	104	C12H13O+
173.1322	142	C13H17+
175.1114	182	C12H15O+
175.1482	53	C13H19+
179.0855	21	C14H11+
181.1009	118	C14H13+
183.0802	26	C13H11O+
183.1165	223	C14H15+
185.0956	58	C13H13O+
185.1323	138	C14H17+
187.1113	70	C13H15O+
187.148	25	C14H19+
189.1269	87	C13H17O+
191.0857	15	C15H11+
193.1012	44	C15H13+
195.1164	86	C15H15+
197.0957	37	C14H13O+
197.1322	99	C15H17+
199.1115	71	C14H15O+
199.1477	58	C15H19+
201.127	259	C14H17O+
201.1634	88	C15H21+
203.1427	70	C14H19O+
205.1013	18	C16H13+
206.1091	13	C16H14+
207.1163	38	C16H15+
209.0954	27	C15H13O+
209.1321	65	C16H17+
211.1114	27	C15H15O+
211.1475	45	C16H19+
213.1271	44	C15H17O+
213.1636	148	C16H21+
215.1426	60	C15H19O+
217.158	33	C15H21O+
219.1174	45	C17H15+
219.1741	78	C15H23O+
221.1319	32	C17H17+
223.1115	35	C16H15O+
223.1476	89	C17H19+
225.1272	22	C16H17O+
225.1633	95	C17H21+
227.1431	35	C16H19O+
229.1583	41	C16H21O+
230.1664	49	C16H22O+
231.1739	190	C16H23O+
233.1315	37	C18H17+
235.1477	75	C18H19+
237.1265	29	C17H17O+
237.1637	29	C18H21+
239.1425	32	C17H19O+
241.158	55	C17H21O+
243.174	122	C17H23O+
247.147	19	C19H19+
249.1636	33	C19H21+
251.1431	19	C18H19O+
251.1785	47	C19H23+
253.1582	42	C18H21O+
264.1498	14	C19H20O+
265.1584	37	C19H21O+
265.1952	23	C20H25+
267.1734	14	C19H23O+
269.1904	15	C19H25O+
275.1792	47	C21H23+
293.1893	139	C21H25O+
