Mass spectrum: Verapamil; LC-ESI-ITFT; MS2; CE: 50%; R=15000; [M+H]+
Name: Verapamil
Name: 2-(3,4-dimethoxyphenyl)-5-[2-(3,4-dimethoxyphenyl)ethyl-methylamino]-2-propan-2-ylpentanenitrile
Formula: C27H38N2O4
Exact mass: 454.283157696
SMILES: COC1=CC=C(CCN(C)CCCC(C#N)(C(C)C)C2=CC(OC)=C(OC)C=C2)C=C1OC
InChI: InChI=1S/C27H38N2O4/c1-20(2)27(19-28,22-10-12-24(31-5)26(18-22)33-7)14-8-15-29(3)16-13-21-9-11-23(30-4)25(17-21)32-6/h9-12,17-18,20H,8,13-16H2,1-7H3
Instrument: LTQ Orbitrap XL Thermo Scientific
Instrument type: LC-ESI-ITFT
Ms type: MS2
Ion mode: POSITIVE
Ionization: ESI
Fragmentation mode: HCD
Collision energy: 50 % (nominal)
Resolution: 15000
Column name: Kinetex Evo C18 2.6 um 50 x 2.1 mm
Retention time: 8.741 min
Base peak: 278.1915
Precursor m/z: 455.2904
Precursor type: [M+H]+
Precursor intensity: 7013928.5
m/z	relative intensity	assigned
58.065	23	C3H8N+
79.0543	2	C6H7+
84.0811	2	C5H10N+
86.0966	4	C5H12N+
96.081	6	C6H10N+
103.0544	3	C8H7+
105.0701	28	C8H9+
110.0968	2	C7H12N+
118.0414	2	C8H6O+
120.0571	3	C8H8O+
121.0649	2	C8H9O+
122.0967	11	C8H12N+
123.0799	1	C8H11O+
133.0651	26	C9H9O+
134.0729	15	C9H10O+
135.0445	3	C8H7O2+
135.0807	19	C9H11O+
136.052	2	C8H8O2+
137.0601	2	C8H9O2+
137.0965	1	C9H13O+
138.0676	2	C8H10O2+
139.0758	6	C8H11O2+
149.0597	1	C9H9O2+
150.0679	195	C9H10O2+
151.0753	32	C9H11O2+
152.0832	4	C9H12O2+
164.0838	2	C10H12O2+
165.0913	999	C10H13O2+
166.0945	57	C5H14N2O4+
175.076	1	C11H11O2+
177.0913	24	C11H13O2+
178.0947	1	C6H14N2O4+
179.107	1	C11H15O2+
186.0921	1	C12H12NO+
191.1067	2	C12H15O2+
194.1185	1	C11H16NO2+
203.0938	1	C12H13NO2+
217.1102	3	C13H15NO2+
218.1181	15	C13H16NO2+
233.1545	3	C15H21O2+
243.1381	5	C16H19O2+
245.1413	4	C15H19NO2+
260.1651	63	C16H22NO2+
261.1605	22	C15H21N2O2+
303.2074	72	C18H27N2O2+
