Mass spectrum: Imazalil; LC-ESI-ITFT; MS2; CE: 55; R=15000; [M+H]+
Name: Imazalil
Name: 1-[2-(2,4-Dichlorophenyl)-2-prop-2-enoxyethyl]imidazole
Formula: C14H14Cl2N2O
Exact mass: 296.0483
SMILES: ClC1=CC=C(C(CN2C=CN=C2)OCC=C)C(Cl)=C1
InChI: InChI=1S/C14H14Cl2N2O/c1-2-7-19-14(9-18-6-5-17-10-18)12-4-3-11(15)8-13(12)16/h2-6,8,10,14H,1,7,9H2
Instrument: LTQ Orbitrap XL Thermo Scientific
Instrument type: LC-ESI-ITFT
Ms type: MS2
Ion mode: POSITIVE
Ionization: ESI
Fragmentation mode: CID
Collision energy: 55 (nominal)
Resolution: 15000
Column name: Kinetex Core-Shell C18 2.6 um, 3.0 x 100 mm, Phenomenex
Retention time: 21.338 min
Base peak: 163.1326
Precursor m/z: 297.0556
Precursor type: [M+H]+
m/z	relative intensity	assigned
109.076	38	C6H9N2+
141.0698	3	C11H9+
149.0152	2	C9H6Cl+
158.9763	339	C7H5Cl2+
164.0382	2	C10H9Cl+
172.992	82	C8H7Cl2+
175.0311	8	C11H8Cl+
176.0387	220	C11H9Cl+
184.9919	69	C9H7Cl2+
186.9699	3	C9ClN2O+
199.0076	41	C10H9Cl2+
200.9868	731	C9H7Cl2O+
203.037	9	C11H8ClN2+
211.0076	62	C11H9Cl2+
229.0182	39	C11H11Cl2O+
255.0087	999	C11H9Cl2N2O+
