Mass spectrum: Flusilazole; LC-ESI-ITFT; MS2; CE: 35; R=15000; [M+H]+
Name: Flusilazole
Name: Bis(4-fluorophenyl)-methyl-(1,2,4-triazol-1-ylmethyl)silane
Formula: C16H15F2N3Si
Exact mass: 315.1003
SMILES: C[Si](CN1C=NC=N1)(C1=CC=C(F)C=C1)C1=CC=C(F)C=C1
InChI: InChI=1S/C16H15F2N3Si/c1-22(12-21-11-19-10-20-21,15-6-2-13(17)3-7-15)16-8-4-14(18)5-9-16/h2-11H,12H2,1H3
Instrument: LTQ Orbitrap XL Thermo Scientific
Instrument type: LC-ESI-ITFT
Ms type: MS2
Ion mode: POSITIVE
Ionization: ESI
Fragmentation mode: CID
Collision energy: 35 (nominal)
Resolution: 15000
Column name: Kinetex Core-Shell C18 2.6 um, 3.0 x 100 mm, Phenomenex
Retention time: 25.585 min
Base peak: 316.107
Precursor m/z: 316.1076
Precursor type: [M+H]+
m/z	relative intensity	assigned
91.0542	1	C7H7+
105.0699	2	C8H9+
109.0441	2	C2H5F2N3+
127.0124	2	C4H4FN2Si+
141.0702	1	C11H9+
151.0374	9	C8H8FSi+
152.0622	3	C12H8+
157.0272	1	C7H7F2Si+
165.07	99	C13H9+
166.0482	1	C8H9FNSi+
166.0778	21	C13H10+
169.048	274	C8H10FOSi+
171.0437	5	C8H9F2Si+
179.0856	2	C14H11+
183.0638	15	C9H12FOSi+
185.0763	4	C13H10F+
191.0437	2	C9H8FN2Si+
193.0593	2	C9H10FN2Si+
199.0374	4	C12H8FSi+
219.0437	6	C12H9F2Si+
227.069	5	C14H12FSi+
247.0749	999	C14H13F2Si+
265.0859	5	C14H15F2OSi+
