Mass spectrum: Myclobutanil; LC-ESI-ITFT; MS2; CE: 30%; R=15000; [M+H]+
Name: Myclobutanil
Name: 2-(4-chlorophenyl)-2-(1,2,4-triazol-1-ylmethyl)hexanenitrile
Formula: C15H17ClN4
Exact mass: 288.114174224
SMILES: CCCCC(CN1C=NC=N1)(C#N)C1=CC=C(Cl)C=C1
InChI: InChI=1S/C15H17ClN4/c1-2-3-8-15(9-17,10-20-12-18-11-19-20)13-4-6-14(16)7-5-13/h4-7,11-12H,2-3,8,10H2,1H3
Instrument: LTQ Orbitrap XL Thermo Scientific
Instrument type: LC-ESI-ITFT
Ms type: MS2
Ion mode: POSITIVE
Ionization: ESI
Fragmentation mode: HCD
Collision energy: 30 % (nominal)
Resolution: 15000
Column name: Kinetex Evo C18 2.6 um 50 x 2.1 mm
Retention time: 11.366 min
Base peak: 289.1224
Precursor m/z: 289.1215
Precursor type: [M+H]+
Precursor intensity: 15709582
m/z	relative intensity	assigned
70.0397	999	C2H4N3+
125.0152	103	C7H6Cl+
151.0308	25	C9H8Cl+
166.0417	6	C9H9ClN+
178.0415	5	C10H9ClN+
193.0777	23	C12H14Cl+
203.0622	9	C13H12Cl+
220.0887	70	C13H15ClN+
289.1213	585	C15H18ClN4+
