Mass spectrum: Trimethoprim; LC-ESI-ITFT; MS2; CE: 55; R=15000; [M+H]+
Name: Trimethoprim
Name: 5-[(3,4,5-Trimethoxyphenyl)methyl]pyrimidine-2,4-diamine
Formula: C14H18N4O3
Exact mass: 290.1379
SMILES: COC1=CC(CC2=CN=C(N)N=C2N)=CC(OC)=C1OC
InChI: InChI=1S/C14H18N4O3/c1-19-10-5-8(6-11(20-2)12(10)21-3)4-9-7-17-14(16)18-13(9)15/h5-7H,4H2,1-3H3,(H4,15,16,17,18)
Instrument: LTQ Orbitrap XL Thermo Scientific
Instrument type: LC-ESI-ITFT
Ms type: MS2
Ion mode: POSITIVE
Ionization: ESI
Fragmentation mode: HCD
Collision energy: 55 (nominal)
Resolution: 15000
Column name: Kinetex Core-Shell C18 2.6 um, 3.0 x 100 mm, Phenomenex
Retention time: 14.856 min
Base peak: 291.1452
Precursor m/z: 291.1452
Precursor type: [M+H]+
m/z	relative intensity	assigned
81.0448	27	C4H5N2+
110.0588	115	C4H6N4+
111.0667	24	C4H7N4+
123.0667	501	C5H7N4+
124.0745	25	C5H8N4+
151.0392	10	C8H7O3+
174.0666	6	C9H8N3O+
175.0982	3	C9H11N4+
181.0862	30	C10H13O3+
187.0981	22	C10H11N4+
188.1055	7	C10H12N4+
191.0936	6	C9H11N4O+
200.1061	16	C11H12N4+
201.0787	23	C12H11NO2+
201.1139	59	C11H13N4+
202.1219	46	C11H14N4+
213.1134	3	C12H13N4+
215.0931	14	C11H11N4O+
216.101	15	C11H12N4O+
217.1088	15	C11H13N4O+
219.0772	4	C11H11N2O3+
227.0923	3	C12H11N4O+
229.1087	147	C12H13N4O+
230.1166	909	C12H14N4O+
232.0962	25	C13H14NO3+
233.1037	128	C11H13N4O2+
243.0879	6	C12H11N4O2+
244.0723	10	C12H10N3O3+
245.1038	195	C12H13N4O2+
246.1116	87	C12H14N4O2+
247.1195	123	C12H15N4O2+
257.1038	291	C13H13N4O2+
258.1118	62	C13H14N4O2+
259.083	15	C12H11N4O3+
259.1193	20	C13H15N4O2+
261.0987	999	C12H13N4O3+
275.1143	699	C13H15N4O3+
276.1223	24	C13H16N4O3+
291.1457	281	C14H19N4O3+
