Mass spectrum: Azoxystrobin; LC-ESI-ITFT; MS2; CE: 90%; R=15000; [M+H]+
Name: Azoxystrobin
Name: methyl (E)-2-[2-[6-(2-cyanophenoxy)pyrimidin-4-yl]oxyphenyl]-3-methoxy-prop-2-enoate
Name: methyl 2-[2-[6-(2-cyanophenoxy)pyrimidin-4-yl]oxyphenyl]-3-methoxyprop-2-enoate
Formula: C22H17N3O5
Exact mass: 403.116820644
SMILES: COC=C(C(=O)OC)C1=C(OC2=NC=NC(OC3=C(C=CC=C3)C#N)=C2)C=CC=C1
InChI: InChI=1S/C22H17N3O5/c1-27-13-17(22(26)28-2)16-8-4-6-10-19(16)30-21-11-20(24-14-25-21)29-18-9-5-3-7-15(18)12-23/h3-11,13-14H,1-2H3
Instrument: LTQ Orbitrap XL Thermo Scientific
Instrument type: LC-ESI-ITFT
Ms type: MS2
Ion mode: POSITIVE
Ionization: ESI
Fragmentation mode: HCD
Collision energy: 90 % (nominal)
Resolution: 15000
Column name: Kinetex Evo C18 2.6 um 50 x 2.1 mm
Retention time: 11.262 min
Base peak: 292.1221
Precursor m/z: 404.1241
Precursor type: [M+H]+
Precursor intensity: 17580142
m/z	relative intensity	assigned
68.9968	12	C3HO2+
89.0386	80	C7H5+
103.0418	24	C7H5N+
104.0495	76	C7H6N+
105.0573	29	C7H7N+
114.034	60	C8H4N+
115.0417	20	C8H5N+
116.0495	109	C8H6N+
117.0336	32	C8H5O+
118.041	11	C8H6O+
119.0368	23	C7H5NO+
120.0444	42	C7H6NO+
127.0418	36	C9H5N+
128.0496	66	C9H6N+
129.0334	16	C9H5O+
129.0449	138	C8H5N2+
130.029	31	C8H4NO+
130.04	177	C7H4N3+
132.0445	30	C8H6NO+
133.0523	80	C8H7NO+
134.0602	73	C8H8NO+
141.045	42	C9H5N2+
143.0366	21	C9H5NO+
143.0604	30	C9H7N2+
144.0445	114	C9H6NO+
145.0284	10	C9H5O2+
145.0523	53	C9H7NO+
146.0237	25	C8H4NO2+
155.0368	13	C10H5NO+
155.0605	43	C10H7N2+
156.0445	551	C10H6NO+
169.0399	15	C10H5N2O+
170.0477	43	C10H6N2O+
171.0554	93	C10H7N2O+
172.0395	999	C10H6NO2+
182.0477	42	C11H6N2O+
183.0553	84	C11H7N2O+
184.0394	10	C11H6NO2+
197.0346	15	C11H5N2O2+
199.0503	78	C11H7N2O2+
200.0344	162	C11H6NO3+
201.042	8	C11H7NO3+
210.0427	22	C12H6N2O2+
211.0501	14	C12H7N2O2+
245.0709	44	C16H9N2O+
272.0819	59	C17H10N3O+
273.0664	21	C17H9N2O2+
274.0731	9	C17H10N2O2+
300.0769	60	C18H10N3O2+
328.0718	55	C19H10N3O3+
