Mass spectrum: Quinoxyfen; LC-ESI-ITFT; MS2; CE: 80; R=15000; [M+H]+
Name: Quinoxyfen
Name: 5,7-Dichloro-4-(4-fluorophenoxy)quinoline
Formula: C15H8Cl2FNO
Exact mass: 306.9967
SMILES: FC1=CC=C(OC2=C3C(Cl)=CC(Cl)=CC3=NC=C2)C=C1
InChI: InChI=1S/C15H8Cl2FNO/c16-9-7-12(17)15-13(8-9)19-6-5-14(15)20-11-3-1-10(18)2-4-11/h1-8H
Instrument: LTQ Orbitrap XL Thermo Scientific
Instrument type: LC-ESI-ITFT
Ms type: MS2
Ion mode: POSITIVE
Ionization: ESI
Fragmentation mode: HCD
Collision energy: 80 (nominal)
Resolution: 15000
Column name: Kinetex Core-Shell C18 2.6 um, 3.0 x 100 mm, Phenomenex
Retention time: 27.738 min
Base peak: 308.0038
Precursor m/z: 308.004
Precursor type: [M+H]+
m/z	relative intensity	assigned
95.0291	42	C6H4F+
113.0397	17	C6H6FO+
123.0353	276	C6H4FN2+
150.0105	128	C8H5ClN+
162.0106	550	C9H5ClN+
166.0053	4	C8H5ClNO+
168.0213	23	C8H7ClNO+
178.0057	7	C9H5ClNO+
178.0167	34	C8H5ClN3+
183.9716	17	C8H4Cl2N+
184.9794	106	C8H5Cl2N+
188.025	3	C14H4O+
195.9718	10	C9H4Cl2N+
196.9794	999	C9H5Cl2N+
209.0637	56	C14H8FN+
210.0715	39	C14H9FN+
212.9744	11	C9H5Cl2NO+
213.9821	742	C9H6Cl2NO+
217.0214	15	C13H7ClF+
221.9883	4	C11H6Cl2N+
225.034	35	C14H8ClN+
228.9692	79	C9H5Cl2NO2+
237.0586	115	C15H8FNO+
238.0665	14	C15H9FNO+
244.0325	67	C14H8ClFN+
245.0404	101	C14H9ClFN+
253.0292	17	C15H8ClNO+
254.0367	9	C15H9ClNO+
256.0323	4	C15H8ClFN+
260.0036	4	C14H8Cl2N+
272.0274	165	C15H8ClFNO+
280.0091	9	C14H9Cl2FN+
287.9977	7	C15H8Cl2NO+
308.0041	49	C15H9Cl2FNO+
