Mass spectrum: 4-Hydroxytamoxifen; LC-ESI-ITFT; MS2; CE: 40%; R=15000; [M+H]+
Name: 4-Hydroxytamoxifen
Name: 4-[1-[4-[2-(dimethylamino)ethoxy]phenyl]-2-phenylbut-1-enyl]phenol
Formula: C26H29NO2
Exact mass: 387.219829168
SMILES: CCC(=C(C1=CC=C(O)C=C1)C1=CC=C(OCCN(C)C)C=C1)C1=CC=CC=C1
InChI: InChI=1S/C26H29NO2/c1-4-25(20-8-6-5-7-9-20)26(21-10-14-23(28)15-11-21)22-12-16-24(17-13-22)29-19-18-27(2)3/h5-17,28H,4,18-19H2,1-3H3
Instrument: LTQ Orbitrap XL Thermo Scientific
Instrument type: LC-ESI-ITFT
Ms type: MS2
Ion mode: POSITIVE
Ionization: ESI
Fragmentation mode: HCD
Collision energy: 40 % (nominal)
Resolution: 15000
Column name: Kinetex Evo C18 2.6 um 50 x 2.1 mm
Retention time: 10.079 min
Base peak: 388.228
Precursor m/z: 388.2271
Precursor type: [M+H]+
Precursor intensity: 12292502
m/z	relative intensity	assigned
58.0649	12	C3H8N+
70.065	5	C4H8N+
72.0806	999	C4H10N+
91.0542	12	C7H7+
105.0698	3	C8H9+
107.0491	14	C7H7O+
121.0646	3	C8H9O+
129.0699	32	C10H9+
145.0648	24	C10H9O+
166.1227	21	C10H16NO+
171.0801	2	C12H11O+
183.08	2	C13H11O+
194.073	5	C14H10O+
195.0808	3	C14H11O+
195.1165	2	C15H15+
207.0808	1	C15H11O+
209.0959	3	C15H13O+
221.0959	3	C16H13O+
222.1038	2	C16H14O+
223.1118	33	C16H15O+
225.091	4	C15H13O2+
249.1276	7	C18H17O+
301.1224	3	C21H17O2+
314.1305	2	C22H18O2+
315.1387	1	C22H19O2+
316.1457	7	C22H20O2+
343.1689	3	C24H23O2+
