Mass spectrum: Ethyl 4-(dimethylamino)benzoate; LC-ESI-ITFT; MS2; CE: 90%; R=15000; [M+H]+
Name: Ethyl 4-(dimethylamino)benzoate
Name: Ethyl 4-dimethylaminobenzoate
Formula: C11H15NO2
Exact mass: 193.11027872
SMILES: CCOC(=O)C1=CC=C(C=C1)N(C)C
InChI: InChI=1S/C11H15NO2/c1-4-14-11(13)9-5-7-10(8-6-9)12(2)3/h5-8H,4H2,1-3H3
Instrument: LTQ Orbitrap XL Thermo Scientific
Instrument type: LC-ESI-ITFT
Ms type: MS2
Ion mode: POSITIVE
Ionization: ESI
Fragmentation mode: HCD
Collision energy: 90 % (nominal)
Resolution: 15000
Column name: Kinetex Evo C18 2.6 um 50 x 2.1 mm
Retention time: 11.191 min
Base peak: 180.0815
Precursor m/z: 194.1176
Precursor type: [M+H]+
Precursor intensity: 18754966
m/z	relative intensity	assigned
91.0543	36	C7H7+
106.0652	58	C7H8N+
107.073	60	C7H9N+
116.0496	37	C8H6N+
117.0573	40	C8H7N+
120.0811	6	C8H10N+
121.0886	6	C8H11N+
134.0601	916	C8H8NO+
135.068	10	C8H9NO+
150.0551	259	C8H8NO2+
151.0629	999	C8H9NO2+
164.0707	19	C9H10NO2+
166.0864	54	C9H12NO2+
178.0866	5	C10H12NO2+
179.0941	47	C10H13NO2+
