Mass spectrum: Tamoxifen; LC-ESI-ITFT; MS2; CE: 70%; R=15000; [M+H]+
Name: Tamoxifen
Name: 2-[4-[(Z)-1,2-diphenylbut-1-enyl]phenoxy]-N,N-dimethylethanamine
Formula: C26H29NO
Exact mass: 371.224914548
SMILES: CC\C(=C(/C1=CC=CC=C1)C1=CC=C(OCCN(C)C)C=C1)C1=CC=CC=C1
InChI: InChI=1S/C26H29NO/c1-4-25(21-11-7-5-8-12-21)26(22-13-9-6-10-14-22)23-15-17-24(18-16-23)28-20-19-27(2)3/h5-18H,4,19-20H2,1-3H3/b26-25-
Instrument: LTQ Orbitrap XL Thermo Scientific
Instrument type: LC-ESI-ITFT
Ms type: MS2
Ion mode: POSITIVE
Ionization: ESI
Fragmentation mode: HCD
Collision energy: 70 % (nominal)
Resolution: 15000
Column name: Kinetex Evo C18 2.6 um 50 x 2.1 mm
Retention time: 10.986 min
Base peak: 372.2328
Precursor m/z: 372.2322
Precursor type: [M+H]+
Precursor intensity: 19754200
m/z	relative intensity	assigned
57.057	7	C3H7N+
70.065	49	C4H8N+
72.0806	999	C4H10N+
91.0542	32	C7H7+
105.0698	10	C8H9+
107.0491	3	C7H7O+
115.0542	2	C9H7+
128.0619	8	C10H8+
129.0698	43	C10H9+
165.0698	3	C13H9+
167.0853	2	C13H11+
178.0776	19	C14H10+
179.0855	5	C14H11+
183.0801	2	C13H11O+
191.0854	10	C15H11+
192.093	3	C15H12+
193.1016	4	C15H13+
194.0728	5	C14H10O+
203.0858	1	C16H11+
205.1019	2	C16H13+
207.0803	8	C15H11O+
215.0854	2	C17H11+
221.0966	2	C16H13O+
228.0937	2	C18H12+
239.0856	2	C19H11+
241.1005	2	C19H13+
242.1088	2	C19H14+
253.1012	11	C20H13+
254.1091	6	C20H14+
265.1005	2	C21H13+
