Mass spectrum: Simetryn; LC-ESI-ITFT; MS2; CE: 35; R=15000; [M+H]+
Name: Simetryn
Name: 2-N,4-N-Diethyl-6-methylsulfanyl-1,3,5-triazine-2,4-diamine
Formula: C8H15N5S
Exact mass: 213.1048
SMILES: CCNC1=NC(SC)=NC(NCC)=N1
InChI: InChI=1S/C8H15N5S/c1-4-9-6-11-7(10-5-2)13-8(12-6)14-3/h4-5H2,1-3H3,(H2,9,10,11,12,13)
Instrument: LTQ Orbitrap XL Thermo Scientific
Instrument type: LC-ESI-ITFT
Ms type: MS2
Ion mode: POSITIVE
Ionization: ESI
Fragmentation mode: CID
Collision energy: 35 (nominal)
Resolution: 15000
Column name: Kinetex Core-Shell C18 2.6 um, 3.0 x 100 mm, Phenomenex
Retention time: 20.093 min
Base peak: 163.1327
Precursor m/z: 214.1121
Precursor type: [M+H]+
m/z	relative intensity	assigned
68.0242	9	C2H2N3+
71.0602	3	C3H7N2+
74.0058	1	C2H4NS+
96.0556	31	C4H6N3+
102.0372	4	C4H8NS+
116.0275	3	C3H6N3S+
124.0869	268	C6H10N3+
144.059	70	C5H10N3S+
158.0498	1	C4H8N5S+
159.0703	1	C5H11N4S+
166.1087	72	C7H12N5+
168.1244	1	C7H14N5+
186.0807	122	C6H12N5S+
199.0887	1	C7H13N5S+
214.1119	999	C8H16N5S+
