Mass spectrum: Tripropyl phosphate; LC-ESI-ITFT; MS2; CE: 40%; R=15000; [M+H]+
Name: Tripropyl phosphate
Formula: C9H21O4P
Exact mass: 224.117745782
SMILES: CCCOP(=O)(OCCC)OCCC
InChI: InChI=1S/C9H21O4P/c1-4-7-11-14(10,12-8-5-2)13-9-6-3/h4-9H2,1-3H3
Instrument: LTQ Orbitrap XL Thermo Scientific
Instrument type: LC-ESI-ITFT
Ms type: MS2
Ion mode: POSITIVE
Ionization: ESI
Fragmentation mode: HCD
Collision energy: 40 % (nominal)
Resolution: 15000
Column name: Kinetex Evo C18 2.6 um 50 x 2.1 mm
Retention time: 11.095 min
Base peak: 194.1181
Precursor m/z: 225.125
Precursor type: [M+H]+
Precursor intensity: 19871046
m/z	relative intensity	assigned
80.9737	1	H2O3P+
98.9841	999	H4O4P+
141.0311	29	C3H10O4P+
183.0782	3	C6H16O4P+
