Mass spectrum: 4,4`-Thiodianiline; LC-ESI-ITFT; MS2; CE: 90%; R=15000; [M+H]+
Name: 4,4`-Thiodianiline
Name: 4-(4-aminophenyl)sulfanylaniline
Formula: C12H12N2S
Exact mass: 216.072119384
SMILES: NC1=CC=C(SC2=CC=C(N)C=C2)C=C1
InChI: InChI=1S/C12H12N2S/c13-9-1-5-11(6-2-9)15-12-7-3-10(14)4-8-12/h1-8H,13-14H2
Instrument: LTQ Orbitrap XL Thermo Scientific
Instrument type: LC-ESI-ITFT
Ms type: MS2
Ion mode: POSITIVE
Ionization: ESI
Fragmentation mode: HCD
Collision energy: 90 % (nominal)
Resolution: 15000
Column name: Kinetex Evo C18 2.6 um 50 x 2.1 mm
Retention time: 2.187 min
Base peak: 217.0796
Precursor m/z: 217.0794
Precursor type: [M+H]+
Precursor intensity: 11636274
m/z	relative intensity	assigned
66.0462	8	C5H6+
76.0306	13	C6H4+
80.0493	240	C5H6N+
93.0572	168	C6H7N+
97.0105	27	C5H5S+
106.9949	4	C6H3S+
115.0542	4	C9H7+
123.0137	10	C6H5NS+
124.0214	999	C6H6NS+
125.0292	4	C6H7NS+
128.062	4	C10H8+
129.0696	17	C10H9+
134.0182	6	C8H6S+
139.054	212	C11H7+
140.0617	7	C11H8+
143.0728	2	C10H9N+
147.0261	4	C9H7S+
149.029	3	C8H7NS+
154.065	5	C11H8N+
156.0806	39	C11H10N+
166.065	21	C12H8N+
167.0728	127	C12H9N+
171.0261	25	C11H7S+
172.034	30	C11H8S+
173.0414	3	C11H9S+
182.0836	1	C12H10N2+
183.0262	88	C12H7S+
183.0916	11	C12H11N2+
184.0339	125	C12H8S+
184.0993	53	C12H12N2+
185.0286	2	C11H7NS+
198.0371	21	C12H8NS+
199.0448	300	C12H9NS+
200.0529	19	C12H10NS+
201.0475	1	C11H9N2S+
211.0324	20	C12H7N2S+
215.0636	17	C12H11N2S+
216.0715	20	C12H12N2S+
