Mass spectrum: Testosterone; LC-ESI-ITFT; MS2; CE: 50%; R=15000; [M+H]+
Name: Testosterone
Name: (8R,9S,10R,13S,14S,17S)-17-hydroxy-10,13-dimethyl-1,2,6,7,8,9,11,12,14,15,16,17-dodecahydrocyclopenta[a]phenanthren-3-one
Formula: C19H28O2
Exact mass: 288.208930136
SMILES: C[C@]12CC[C@H]3[C@@H](CCC4=CC(=O)CC[C@]34C)[C@@H]1CC[C@@H]2O
InChI: InChI=1S/C19H28O2/c1-18-9-7-13(20)11-12(18)3-4-14-15-5-6-17(21)19(15,2)10-8-16(14)18/h11,14-17,21H,3-10H2,1-2H3/t14-,15-,16-,17-,18-,19-/m0/s1
Instrument: LTQ Orbitrap XL Thermo Scientific
Instrument type: LC-ESI-ITFT
Ms type: MS2
Ion mode: POSITIVE
Ionization: ESI
Fragmentation mode: HCD
Collision energy: 50 % (nominal)
Resolution: 15000
Column name: Kinetex Evo C18 2.6 um 50 x 2.1 mm
Retention time: 11.385 min
Base peak: 289.2163
Precursor m/z: 289.2162
Precursor type: [M+H]+
Precursor intensity: 27703704
m/z	relative intensity	assigned
67.0539	5	C5H7+
69.0696	3	C5H9+
79.0541	14	C6H7+
81.0697	29	C6H9+
83.0489	40	C5H7O+
83.0856	2	C6H11+
91.0541	4	C7H7+
93.0697	34	C7H9+
95.0854	39	C7H11+
97.0646	999	C6H9O+
105.0697	22	C8H9+
107.0493	1	C7H7O+
107.0853	30	C8H11+
109.0645	847	C7H9O+
111.0802	4	C7H11O+
119.0852	20	C9H11+
121.0646	11	C8H9O+
121.1009	26	C9H13+
123.0802	94	C8H11O+
129.0696	2	C10H9+
131.0852	13	C10H11+
133.1009	21	C10H13+
135.0805	2	C9H11O+
135.1166	13	C10H15+
137.0959	6	C9H13O+
143.0852	8	C11H11+
145.1009	26	C11H13+
147.1165	37	C11H15+
149.0957	6	C10H13O+
149.1322	14	C11H17+
151.1114	3	C10H15O+
157.1009	14	C12H13+
159.1165	31	C12H15+
161.0961	3	C11H13O+
161.1321	28	C12H17+
163.1114	14	C11H15O+
163.1477	9	C12H19+
169.101	1	C13H13+
171.1164	15	C13H15+
173.1321	13	C13H17+
175.1114	5	C12H15O+
175.1479	25	C13H19+
177.127	19	C12H17O+
183.1162	6	C14H15+
185.1323	10	C14H17+
187.1477	28	C14H19+
189.1272	8	C13H17O+
189.1633	12	C14H21+
191.1423	4	C13H19O+
197.1321	14	C15H17+
199.1477	20	C15H19+
201.1635	12	C15H21+
211.1476	8	C16H19+
213.1632	25	C16H21+
215.1424	5	C15H19O+
217.1587	5	C15H21O+
219.1744	1	C15H23O+
225.164	3	C17H21+
227.1791	9	C17H23+
229.194	2	C17H25+
245.1891	2	C17H25O+
253.1947	65	C19H25+
271.205	42	C19H27O+
289.2157	96	C19H29O2+
