Mass spectrum: Di-n-butyl phosphate; LC-ESI-ITFT; MS2; CE: 70%; R=15000; [M+H]+
Name: Di-n-butyl phosphate
Name: Dibutyl phosphate
Name: dibutyl hydrogen phosphate
Formula: C8H19O4P
Exact mass: 210.102095718
SMILES: CCCCOP(O)(=O)OCCCC
InChI: InChI=1S/C8H19O4P/c1-3-5-7-11-13(9,10)12-8-6-4-2/h3-8H2,1-2H3,(H,9,10)
Instrument: LTQ Orbitrap XL Thermo Scientific
Instrument type: LC-ESI-ITFT
Ms type: MS2
Ion mode: POSITIVE
Ionization: ESI
Fragmentation mode: HCD
Collision energy: 70 % (nominal)
Resolution: 15000
Column name: Kinetex Evo C18 2.6 um 50 x 2.1 mm
Retention time: 11.921 min
Base peak: 211.1101
Precursor m/z: 211.1094
Precursor type: [M+H]+
Precursor intensity: 9261334
m/z	relative intensity	assigned
57.0699	26	C4H9+
80.9739	6	H2O3P+
98.9845	999	H4O4P+
