Mass spectrum: Allethrin; LC-ESI-ITFT; MS2; CE: 50%; R=15000; [M+H]+
Name: Allethrin
Name: (2-methyl-4-oxo-3-prop-2-enylcyclopent-2-en-1-yl) 2,2-dimethyl-3-(2-methylprop-1-enyl)cyclopropane-1-carboxylate
Formula: C19H26O3
Exact mass: 302.188194692
SMILES: CC(C)=CC1C(C(=O)OC2CC(=O)C(CC=C)=C2C)C1(C)C
InChI: InChI=1S/C19H26O3/c1-7-8-13-12(4)16(10-15(13)20)22-18(21)17-14(9-11(2)3)19(17,5)6/h7,9,14,16-17H,1,8,10H2,2-6H3
Instrument: LTQ Orbitrap XL Thermo Scientific
Instrument type: LC-ESI-ITFT
Ms type: MS2
Ion mode: POSITIVE
Ionization: ESI
Fragmentation mode: HCD
Collision energy: 50 % (nominal)
Resolution: 15000
Column name: Kinetex Evo C18 2.6 um 50 x 2.1 mm
Retention time: 13.618 min
Base peak: 255.1747
Precursor m/z: 303.1955
Precursor type: [M+H]+
Precursor intensity: 1854251.75
m/z	relative intensity	assigned
69.07	49	C5H9+
79.0544	183	C6H7+
81.07	246	C6H9+
83.0493	49	C5H7O+
91.0544	78	C7H7+
93.0701	282	C7H9+
95.0857	187	C7H11+
105.07	98	C8H9+
107.0857	242	C8H11+
109.065	181	C7H9O+
109.1016	85	C8H13+
119.0858	49	C9H11+
121.065	220	C8H9O+
121.1014	999	C9H13+
123.117	251	C9H15+
125.0595	51	C7H9O2+
131.0853	50	C10H11+
133.1015	40	C10H13+
135.0807	232	C9H11O+
137.0964	267	C9H13O+
139.1119	152	C9H15O+
143.0862	44	C11H11+
147.117	36	C11H15+
149.0963	653	C10H13O+
157.1007	38	C12H13+
159.1168	47	C12H15+
161.0962	52	C11H13O+
161.1332	47	C12H17+
167.1074	33	C10H15O2+
173.132	66	C13H17+
175.1118	45	C12H15O+
203.1427	57	C14H19O+
