Mass spectrum: Fluvoxamine; LC-ESI-ITFT; MS2; CE: 20%; R=15000; [M+H]+
Name: Fluvoxamine
Name: 2-[[5-methoxy-1-[4-(trifluoromethyl)phenyl]pentylidene]amino]oxyethanamine
Formula: C15H21F3N2O2
Exact mass: 318.155512572
SMILES: COCCCCC(=NOCCN)C1=CC=C(C=C1)C(F)(F)F
InChI: InChI=1S/C15H21F3N2O2/c1-21-10-3-2-4-14(20-22-11-9-19)12-5-7-13(8-6-12)15(16,17)18/h5-8H,2-4,9-11,19H2,1H3
Instrument: LTQ Orbitrap XL Thermo Scientific
Instrument type: LC-ESI-ITFT
Ms type: MS2
Ion mode: POSITIVE
Ionization: ESI
Fragmentation mode: HCD
Collision energy: 20 % (nominal)
Resolution: 15000
Column name: Kinetex Evo C18 2.6 um 50 x 2.1 mm
Retention time: 8.989 min
Base peak: 319.1637
Precursor m/z: 319.1628
Precursor type: [M+H]+
Precursor intensity: 41197488
m/z	relative intensity	assigned
62.0597	55	C2H8NO+
71.0489	999	C4H7O+
87.0804	368	C5H11O+
200.0682	88	C10H9F3N+
226.0839	96	C12H11F3N+
228.0995	51	C12H13F3N+
242.0916	15	C13H13F3O+
244.0947	24	C12H13F3NO+
258.1101	430	C13H15F3NO+
259.1181	100	C13H16F3NO+
260.1257	162	C13H17F3NO+
270.1094	6	C14H15F3NO+
276.1199	10	C13H17F3NO2+
302.1365	20	C15H19F3NO2+
319.1627	754	C15H22F3N2O2+
