Mass spectrum: Quinmerac; LC-ESI-ITFT; MS2; CE: 30%; R=15000; [M+H]+
Name: Quinmerac
Name: 7-chloro-3-methylquinoline-8-carboxylic acid
Formula: C11H8ClNO2
Exact mass: 221.024356176
SMILES: CC1=CC2=C(N=C1)C(C(O)=O)=C(Cl)C=C2
InChI: InChI=1S/C11H8ClNO2/c1-6-4-7-2-3-8(12)9(11(14)15)10(7)13-5-6/h2-5H,1H3,(H,14,15)
Instrument: LTQ Orbitrap XL Thermo Scientific
Instrument type: LC-ESI-ITFT
Ms type: MS2
Ion mode: POSITIVE
Ionization: ESI
Fragmentation mode: HCD
Collision energy: 30 % (nominal)
Resolution: 15000
Column name: Kinetex Evo C18 2.6 um 50 x 2.1 mm
Retention time: 5.756 min
Base peak: 222.0321
Precursor m/z: 222.0316
Precursor type: [M+H]+
Precursor intensity: 6670731
m/z	relative intensity	assigned
204.0208	999	C11H7ClNO+
222.0313	245	C11H9ClNO2+
