Mass spectrum: Ketoconazole; LC-ESI-ITFT; MS2; CE: 80; R=15000; [M+H]+
Name: Ketoconazole
Name: 1-[4-[4-[[(2R,4S)-2-(2,4-Dichlorophenyl)-2-(imidazol-1-ylmethyl)-1,3-dioxolan-4-yl]methoxy]phenyl]piperazin-1-yl]ethanone
Formula: C26H28Cl2N4O4
Exact mass: 530.1488
SMILES: CC(=O)N1CCN(CC1)C1=CC=C(OC[C@H]2CO[C@@](CN3C=CN=C3)(O2)C2=CC=C(Cl)C=C2Cl)C=C1
InChI: InChI=1S/C26H28Cl2N4O4/c1-19(33)31-10-12-32(13-11-31)21-3-5-22(6-4-21)34-15-23-16-35-26(36-23,17-30-9-8-29-18-30)24-7-2-20(27)14-25(24)28/h2-9,14,18,23H,10-13,15-17H2,1H3/t23-,26-/m0/s1
Instrument: LTQ Orbitrap XL Thermo Scientific
Instrument type: LC-ESI-ITFT
Ms type: MS2
Ion mode: POSITIVE
Ionization: ESI
Fragmentation mode: HCD
Collision energy: 80 (nominal)
Resolution: 15000
Column name: Kinetex Core-Shell C18 2.6 um, 3.0 x 100 mm, Phenomenex
Retention time: 21.827 min
Base peak: 531.1556
Precursor m/z: 531.156
Precursor type: [M+H]+
m/z	relative intensity	assigned
70.0651	115	C4H8N+
71.0604	40	C3H7N2+
81.0448	418	C4H5N2+
82.0526	999	C4H6N2+
83.0602	20	C4H7N2+
86.0601	48	C4H8NO+
109.0398	28	C5H5N2O+
112.0758	292	C6H10NO+
118.0653	72	C8H8N+
120.0445	314	C7H6NO+
120.0809	91	C8H10N+
122.0601	263	C7H8NO+
130.0653	81	C9H8N+
132.081	45	C9H10N+
134.0602	201	C8H8NO+
135.068	84	C8H9NO+
136.0759	145	C8H10NO+
144.0811	63	C10H10N+
146.0967	90	C10H12N+
148.0759	235	C9H10NO+
150.0234	70	C9H7Cl+
157.9686	96	C7H4Cl2+
158.0967	50	C11H12N+
158.9765	506	C7H5Cl2+
160.0758	47	C10H10NO+
162.0916	18	C10H12NO+
167.0263	26	C6H11Cl2N+
167.0818	188	C5H14ClN3O+
169.9687	263	C8H4Cl2+
170.9766	66	C8H5Cl2+
172.0755	20	C11H10NO+
172.9558	229	C7H3Cl2O+
174.0915	135	C11H12NO+
177.1024	91	C10H13N2O+
184.9923	48	C9H7Cl2+
185.9635	119	C8H4Cl2O+
186.9716	14	C8H5Cl2O+
192.102	27	C11H14NO2+
203.0376	53	C11H8ClN2+
255.0092	102	C11H9Cl2N2O+
267.009	57	C12H9Cl2N2O+
