Mass spectrum: Tricresylphosphate; LC-ESI-ITFT; MS2; CE: 50%; R=15000; [M+H]+
Name: Tricresylphosphate
Name: Tricresyl phosphate
Name: tris(4-methylphenyl) phosphate
Formula: C21H21O4P
Exact mass: 368.117745782
SMILES: CC1=CC=C(OP(=O)(OC2=CC=C(C)C=C2)OC2=CC=C(C)C=C2)C=C1
InChI: InChI=1S/C21H21O4P/c1-16-4-10-19(11-5-16)23-26(22,24-20-12-6-17(2)7-13-20)25-21-14-8-18(3)9-15-21/h4-15H,1-3H3
Instrument: LTQ Orbitrap XL Thermo Scientific
Instrument type: LC-ESI-ITFT
Ms type: MS2
Ion mode: POSITIVE
Ionization: ESI
Fragmentation mode: HCD
Collision energy: 50 % (nominal)
Resolution: 15000
Column name: Kinetex Evo C18 2.6 um 50 x 2.1 mm
Retention time: 13.959 min
Base peak: 369.1262
Precursor m/z: 369.125
Precursor type: [M+H]+
Precursor intensity: 57246580
m/z	relative intensity	assigned
65.0384	6	C5H5+
77.0386	4	C6H5+
79.0542	42	C6H7+
91.0543	519	C7H7+
105.0699	9	C8H9+
107.0492	374	C7H7O+
108.057	6	C7H8O+
109.0648	48	C7H9O+
121.0654	2	C8H9O+
129.0699	5	C10H9+
141.0701	26	C11H9+
152.0622	6	C12H8+
153.01	21	C7H6O2P+
153.07	60	C12H9+
154.0179	28	C7H7O2P+
155.0255	11	C7H8O2P+
165.0701	415	C13H9+
166.0778	999	C13H10+
169.1014	7	C13H13+
171.0204	4	C7H8O3P+
178.0777	7	C14H10+
179.0857	84	C14H11+
180.0934	26	C14H12+
181.1013	178	C14H13+
184.0888	5	C13H12O+
187.0158	8	C7H8O4P+
189.0312	40	C7H10O4P+
196.0884	44	C14H12O+
197.0965	12	C14H13O+
198.1047	2	C14H14O+
199.1119	44	C14H15O+
215.0624	10	C13H12OP+
215.085	3	C17H11+
229.102	4	C18H13+
233.0727	12	C13H14O2P+
241.1016	42	C19H13+
243.0571	310	C14H12O2P+
255.1169	21	C20H15+
256.125	120	C20H16+
261.0677	404	C14H14O3P+
271.148	7	C21H19+
275.0835	11	C15H16O3P+
277.0626	3	C14H14O4P+
279.0782	291	C14H16O4P+
351.1148	4	C21H20O3P+
369.1251	197	C21H22O4P+
