Mass spectrum: Isophorone; LC-ESI-ITFT; MS2; CE: 60%; R=15000; [M+H]+
Name: Isophorone
Name: 3,5,5-trimethylcyclohex-2-en-1-one
Formula: C9H14O
Exact mass: 138.104465068
SMILES: CC1=CC(=O)CC(C)(C)C1
InChI: InChI=1S/C9H14O/c1-7-4-8(10)6-9(2,3)5-7/h4H,5-6H2,1-3H3
Instrument: LTQ Orbitrap XL Thermo Scientific
Instrument type: LC-ESI-ITFT
Ms type: MS2
Ion mode: POSITIVE
Ionization: ESI
Fragmentation mode: HCD
Collision energy: 60 % (nominal)
Resolution: 15000
Column name: Kinetex Evo C18 2.6 um 50 x 2.1 mm
Retention time: 8.532 min
Base peak: 139.1118
Precursor m/z: 139.1117
Precursor type: [M+H]+
Precursor intensity: 25727030
m/z	relative intensity	assigned
67.054	4	C5H7+
69.0332	798	C4H5O+
79.054	19	C6H7+
81.0697	13	C6H9+
83.0489	93	C5H7O+
91.0541	5	C7H7+
93.0697	75	C7H9+
95.0853	47	C7H11+
97.0646	150	C6H9O+
105.0696	28	C8H9+
109.1009	5	C8H13+
111.0802	10	C7H11O+
111.1168	2	C8H15+
121.1009	136	C9H13+
139.1114	999	C9H15O+
