Mass spectrum: Metolachlor; LC-ESI-ITFT; MS2; CE: 55; R=15000; [M+H]+
Name: Metolachlor
Name: 2-Chloro-N-(2-ethyl-6-methylphenyl)-N-(1-methoxypropan-2-yl)acetamide
Formula: C15H22ClNO2
Exact mass: 283.1339
SMILES: CCC1=CC=CC(C)=C1N(C(C)COC)C(=O)CCl
InChI: InChI=1S/C15H22ClNO2/c1-5-13-8-6-7-11(2)15(13)17(14(18)9-16)12(3)10-19-4/h6-8,12H,5,9-10H2,1-4H3
Instrument: LTQ Orbitrap XL Thermo Scientific
Instrument type: LC-ESI-ITFT
Ms type: MS2
Ion mode: POSITIVE
Ionization: ESI
Fragmentation mode: HCD
Collision energy: 55 (nominal)
Resolution: 15000
Column name: Kinetex Core-Shell C18 2.6 um, 3.0 x 100 mm, Phenomenex
Retention time: 25.526 min
Base peak: 284.1409
Precursor m/z: 284.1412
Precursor type: [M+H]+
m/z	relative intensity	assigned
73.0647	40	C4H9O+
76.979	9	C2H2ClO+
91.0543	6	C7H7+
105.0697	2	C8H9+
108.0807	4	C7H10N+
109.0649	4	C7H9O+
117.0701	4	C9H9+
119.0854	22	C9H11+
120.0808	9	C8H10N+
132.0812	4	C9H10N+
133.0886	25	C9H11N+
134.0964	97	C9H12N+
135.0805	7	C9H11O+
143.0726	7	C10H9N+
144.0808	8	C10H10N+
145.0885	15	C10H11N+
146.0964	65	C10H12N+
147.1043	9	C10H13N+
148.0757	4	C9H10NO+
148.112	16	C10H14N+
158.0965	37	C11H12N+
159.1044	19	C11H13N+
160.112	68	C11H14N+
162.0915	13	C10H12NO+
174.1278	11	C12H16N+
176.1433	999	C12H18N+
184.0523	64	C9H11ClNO+
188.1066	4	C12H14NO+
194.0732	43	C11H13ClN+
212.0836	60	C11H15ClNO+
252.1149	941	C14H19ClNO+
