Mass spectrum: 4,4`-Thiodianiline; LC-ESI-ITFT; MS2; CE: 20%; R=15000; [M+H]+
Name: 4,4`-Thiodianiline
Name: 4-(4-aminophenyl)sulfanylaniline
Formula: C12H12N2S
Exact mass: 216.072119384
SMILES: NC1=CC=C(SC2=CC=C(N)C=C2)C=C1
InChI: InChI=1S/C12H12N2S/c13-9-1-5-11(6-2-9)15-12-7-3-10(14)4-8-12/h1-8H,13-14H2
Instrument: LTQ Orbitrap XL Thermo Scientific
Instrument type: LC-ESI-ITFT
Ms type: MS2
Ion mode: POSITIVE
Ionization: ESI
Fragmentation mode: HCD
Collision energy: 20 % (nominal)
Resolution: 15000
Column name: Kinetex Evo C18 2.6 um 50 x 2.1 mm
Retention time: 2.371 min
Base peak: 217.0795
Precursor m/z: 217.0794
Precursor type: [M+H]+
Precursor intensity: 7858915.5
m/z	relative intensity	assigned
124.0213	6	C6H6NS+
217.0788	999	C12H13N2S+
