Mass spectrum: 4-Formyl-antipyrine; LC-ESI-ITFT; MS2; CE: 55; R=15000; [M+H]+
Name: 4-Formyl-antipyrine
Name: 1,5-Dimethyl-3-oxo-2-phenylpyrazole-4-carbaldehyde
Formula: C12H12N2O2
Exact mass: 216.0899
SMILES: CN1N(C(=O)C(C=O)=C1C)C1=CC=CC=C1
InChI: InChI=1S/C12H12N2O2/c1-9-11(8-15)12(16)14(13(9)2)10-6-4-3-5-7-10/h3-8H,1-2H3
Instrument: LTQ Orbitrap XL Thermo Scientific
Instrument type: LC-ESI-ITFT
Ms type: MS2
Ion mode: POSITIVE
Ionization: ESI
Fragmentation mode: HCD
Collision energy: 55 (nominal)
Resolution: 15000
Column name: Kinetex Core-Shell C18 2.6 um, 3.0 x 100 mm, Phenomenex
Retention time: 14.922 min
Base peak: 217.0972
Precursor m/z: 217.0972
Precursor type: [M+H]+
m/z	relative intensity	assigned
77.0386	6	C6H5+
79.0542	2	C6H7+
83.0492	56	C5H7O+
86.0601	10	C4H8NO+
91.0542	3	C7H7+
92.0495	6	C6H6N+
93.0337	1	C6H5O+
95.0605	1	C5H7N2+
96.0443	3	C5H6NO+
96.0683	7	C5H8N2+
98.0601	34	C5H8NO+
103.0543	1	C8H7+
104.0496	13	C7H6N+
105.0335	7	C7H5O+
105.0448	2	C6H5N2+
106.0651	119	C7H8N+
107.0605	13	C6H7N2+
111.0441	151	C6H7O2+
117.0573	3	C8H7N+
117.07	3	C9H9+
118.0653	16	C8H8N+
119.0854	4	C9H11+
120.0446	3	C7H6NO+
120.081	7	C8H10N+
130.0653	21	C9H8N+
131.06	1	C8H7N2+
131.0731	15	C9H9N+
132.0683	9	C8H8N2+
132.0809	6	C9H10N+
133.0522	1	C8H7NO+
133.0764	2	C8H9N2+
139.0505	3	C6H7N2O2+
142.0652	7	C10H8N+
144.081	18	C10H10N+
145.0652	6	C10H9O+
145.0764	3	C9H9N2+
145.0887	2	C10H11N+
146.06	1	C9H8NO+
146.0839	10	C9H10N2+
146.0966	5	C10H12N+
147.0919	61	C9H11N2+
148.0757	2	C9H10NO+
149.0713	8	C8H9N2O+
156.0681	1	C10H8N2+
157.0527	3	C10H7NO+
158.0602	7	C10H8NO+
159.0918	28	C10H11N2+
160.0763	1	C10H10NO+
160.0996	9	C10H12N2+
161.1075	8	C10H13N2+
171.0554	1	C10H7N2O+
171.0922	2	C11H11N2+
172.0631	6	C10H8N2O+
172.0757	5	C11H10NO+
173.0712	2	C10H9N2O+
174.079	18	C10H10N2O+
185.0711	4	C11H9N2O+
186.0553	7	C11H8NO2+
187.0868	13	C11H11N2O+
188.0951	5	C11H12N2O+
189.1025	61	C11H13N2O+
199.0868	14	C12H11N2O+
200.0583	19	C11H8N2O2+
202.074	16	C11H10N2O2+
215.0817	270	C12H11N2O2+
217.0972	999	C12H13N2O2+
