Mass spectrum: Phenazone / antipyrine; LC-ESI-ITFT; MS2; CE: 80; R=15000; [M+H]+
Name: Phenazone / antipyrine
Name: 1,5-Dimethyl-2-phenylpyrazol-3-one
Formula: C11H12N2O
Exact mass: 188.0950
SMILES: CN1N(C(=O)C=C1C)C1=CC=CC=C1
InChI: InChI=1S/C11H12N2O/c1-9-8-11(14)13(12(9)2)10-6-4-3-5-7-10/h3-8H,1-2H3
Instrument: LTQ Orbitrap XL Thermo Scientific
Instrument type: LC-ESI-ITFT
Ms type: MS2
Ion mode: POSITIVE
Ionization: ESI
Fragmentation mode: HCD
Collision energy: 80 (nominal)
Resolution: 15000
Column name: Kinetex Core-Shell C18 2.6 um, 3.0 x 100 mm, Phenomenex
Retention time: 16.961 min
Base peak: 163.1329
Precursor m/z: 189.1022
Precursor type: [M+H]+
m/z	relative intensity	assigned
70.0652	23	C4H8N+
77.0386	393	C6H5+
81.0448	95	C4H5N2+
91.0543	179	C7H7+
92.0496	58	C6H6N+
93.0336	27	C6H5O+
95.0605	127	C5H7N2+
96.0445	22	C5H6NO+
96.0683	250	C5H8N2+
98.0602	192	C5H8NO+
103.0543	125	C8H7+
104.0496	999	C7H6N+
105.0337	55	C7H5O+
105.0448	123	C6H5N2+
105.07	63	C8H9+
106.0652	922	C7H8N+
111.0554	17	C5H7N2O+
115.0543	121	C9H7+
117.0575	179	C8H7N+
117.07	377	C9H9+
118.0652	452	C8H8N+
120.0809	314	C8H10N+
130.0653	511	C9H8N+
131.0731	455	C9H9N+
132.0809	189	C9H10N+
133.0523	99	C8H7NO+
133.0763	52	C8H9N2+
134.0965	56	C9H12N+
135.0555	13	C7H7N2O+
144.081	365	C10H10N+
145.065	137	C10H9O+
145.0762	178	C9H9N2+
145.089	20	C10H11N+
146.084	361	C9H10N2+
146.0967	58	C10H12N+
147.0918	750	C9H11N2+
148.0759	19	C9H10NO+
149.0711	55	C8H9N2O+
157.0525	89	C10H7NO+
158.0604	14	C10H8NO+
159.0557	34	C9H7N2O+
159.0918	33	C10H11N2+
160.0996	20	C10H12N2+
161.1076	176	C10H13N2+
172.076	66	C11H10NO+
174.079	307	C10H10N2O+
189.1024	926	C11H13N2O+
