Mass spectrum: Imazapyr; LC-ESI-ITFT; MS2; CE: 90%; R=15000; [M+H]+
Name: Imazapyr
Name: 2-(4-methyl-5-oxo-4-propan-2-yl-1H-imidazol-2-yl)pyridine-3-carboxylic acid
Formula: C13H15N3O3
Exact mass: 261.11134134
SMILES: CC(C)C1(C)N=C(NC1=O)C1=NC=CC=C1C(O)=O
InChI: InChI=1S/C13H15N3O3/c1-7(2)13(3)12(19)15-10(16-13)9-8(11(17)18)5-4-6-14-9/h4-7H,1-3H3,(H,17,18)(H,15,16,19)
Instrument: LTQ Orbitrap XL Thermo Scientific
Instrument type: LC-ESI-ITFT
Ms type: MS2
Ion mode: POSITIVE
Ionization: ESI
Fragmentation mode: HCD
Collision energy: 90 % (nominal)
Resolution: 15000
Column name: Kinetex Evo C18 2.6 um 50 x 2.1 mm
Retention time: 5.912 min
Base peak: 262.1196
Precursor m/z: 262.1186
Precursor type: [M+H]+
Precursor intensity: 28598478
m/z	relative intensity	assigned
58.0651	7	C3H8N+
67.0541	27	C5H7+
69.0698	937	C5H9+
70.065	12	C4H8N+
71.0729	78	C4H9N+
78.0338	208	C5H4N+
79.0417	47	C5H5N+
86.0965	876	C5H12N+
94.0288	31	C5H4NO+
96.0445	113	C5H6NO+
97.0648	9	C6H9O+
103.0291	108	C6H3N2+
104.037	146	C6H4N2+
105.0448	172	C6H5N2+
106.0288	33	C6H4NO+
107.0606	12	C6H7N2+
108.0445	9	C6H6NO+
110.06	8	C6H8NO+
121.0397	79	C6H5N2O+
124.0394	96	C6H6NO2+
130.0652	9	C9H8N+
131.0241	999	C7H3N2O+
133.0397	175	C7H5N2O+
136.0393	10	C7H6NO2+
145.0641	5	C8H7N3+
146.0715	9	C8H8N3+
147.0555	624	C8H7N2O+
148.0506	91	C7H6N3O+
149.0347	701	C7H5N2O2+
156.0686	8	C10H8N2+
171.0919	9	C11H11N2+
172.0503	4	C9H6N3O+
173.0588	19	C9H7N3O+
174.0664	279	C9H8N3O+
184.0632	8	C11H8N2O+
191.0689	23	C9H9N3O2+
199.0865	18	C12H11N2O+
202.0613	137	C10H8N3O2+
217.0968	6	C12H13N2O2+
