Mass spectrum: 4-Hydroxycoumarin; LC-ESI-ITFT; MS2; CE: 90%; R=15000; [M+H]+
Name: 4-Hydroxycoumarin
Name: 4-hydroxychromen-2-one
Formula: C9H6O3
Exact mass: 162.031694052
SMILES: OC1=CC(=O)OC2=CC=CC=C12
InChI: InChI=1S/C9H6O3/c10-7-5-9(11)12-8-4-2-1-3-6(7)8/h1-5,10H
Instrument: LTQ Orbitrap XL Thermo Scientific
Instrument type: LC-ESI-ITFT
Ms type: MS2
Ion mode: POSITIVE
Ionization: ESI
Fragmentation mode: HCD
Collision energy: 90 % (nominal)
Resolution: 15000
Column name: Kinetex Evo C18 2.6 um 50 x 2.1 mm
Retention time: 7.999 min
Base peak: 163.039
Precursor m/z: 163.039
Precursor type: [M+H]+
Precursor intensity: 13408374
m/z	relative intensity	assigned
77.0383	54	C6H5+
79.0539	52	C6H7+
89.0383	13	C7H5+
91.0539	346	C7H7+
93.0332	119	C6H5O+
95.0488	156	C6H7O+
101.0381	1	C8H5+
107.0489	17	C7H7O+
111.0437	20	C6H7O2+
119.0489	21	C8H7O+
121.028	999	C7H5O2+
139.0386	5	C7H7O3+
145.0279	7	C9H5O2+
163.0385	157	C9H7O3+
