Mass spectrum: Pethoxamid; LC-ESI-ITFT; MS2; CE: 35; R=15000; [M+H]+
Name: Pethoxamid
Name: 2-Chloro-N-(2-ethoxyethyl)-N-(2-methyl-1-phenylprop-1-enyl)acetamide
Formula: C16H22ClNO2
Exact mass: 295.1339
SMILES: CCOCCN(C(=O)CCl)C(=C(C)C)C1=CC=CC=C1
InChI: InChI=1S/C16H22ClNO2/c1-4-20-11-10-18(15(19)12-17)16(13(2)3)14-8-6-5-7-9-14/h5-9H,4,10-12H2,1-3H3
Instrument: LTQ Orbitrap XL Thermo Scientific
Instrument type: LC-ESI-ITFT
Ms type: MS2
Ion mode: POSITIVE
Ionization: ESI
Fragmentation mode: CID
Collision energy: 35 (nominal)
Resolution: 15000
Column name: Kinetex Core-Shell C18 2.6 um, 3.0 x 100 mm, Phenomenex
Retention time: 25.309 min
Base peak: 296.1409
Precursor m/z: 296.1412
Precursor type: [M+H]+
m/z	relative intensity	assigned
73.0647	5	C4H9O+
91.054	7	C7H7+
116.0616	1	C9H8+
120.021	2	C4H7ClNO+
129.0699	6	C10H9+
131.0854	169	C10H11+
134.0366	44	C5H9ClNO+
148.0525	5	C6H11ClNO+
176.1069	7	C11H14NO+
214.1219	2	C14H16NO+
220.1697	19	C14H22NO+
250.0991	999	C14H17ClNO+
260.1646	3	C16H22NO2+
