Mass spectrum: Cyclophosphamide; LC-ESI-ITFT; MS2; CE: 55; R=15000; [M+H]+
Name: Cyclophosphamide
Name: N,N-Bis(2-chloroethyl)-2-oxo-1,3,2$l^{5}-oxazaphosphinan-2-amine
Formula: C7H15Cl2N2O2P
Exact mass: 260.0248
SMILES: ClCCN(CCCl)P1(=O)NCCCO1
InChI: InChI=1S/C7H15Cl2N2O2P/c8-2-5-11(6-3-9)14(12)10-4-1-7-13-14/h1-7H2,(H,10,12)
Instrument: LTQ Orbitrap XL Thermo Scientific
Instrument type: LC-ESI-ITFT
Ms type: MS2
Ion mode: POSITIVE
Ionization: ESI
Fragmentation mode: HCD
Collision energy: 55 (nominal)
Resolution: 15000
Column name: Kinetex Core-Shell C18 2.6 um, 3.0 x 100 mm, Phenomenex
Retention time: 20.254 min
Base peak: 261.0332
Precursor m/z: 261.0321
Precursor type: [M+H]+
m/z	relative intensity	assigned
70.0654	12	H11N2P+
78.0109	16	C2H5ClN+
94.0057	6	C2H5ClNO+
102.0111	5	ClH8N2P+
104.0267	5	ClH10N2P+
106.0423	236	ClH12N2P+
110.0007	51	C2H5ClNO2+
112.0164	13	C2H7ClNO2+
120.0215	148	CH10Cl2N2+
138.0322	163	CH12Cl2N2O+
140.0035	999	Cl2H11N2P+
141.9828	25	C3H6Cl2NO+
142.0191	282	Cl2H13N2P+
155.9986	5	Cl2H11N2OP+
171.0093	9	C4H9Cl2N2O+
185.0254	6	C3H16Cl2O2P+
