Mass spectrum: Trifloxystrobin; LC-ESI-ITFT; MS2; CE: 55; R=15000; [M+H]+
Name: Trifloxystrobin
Name: (2E)-2-Methoxyimino-2-[2-[[(E)-1-[3-(trifluoromethyl)phenyl]ethylideneamino]oxymethyl]phenyl]acetate-methyl
Formula: C20H19F3N2O4
Exact mass: 408.1297
SMILES: CO\N=C(\C(=O)OC)C1=CC=CC=C1CO\N=C(/C)C1=CC(=CC=C1)C(F)(F)F
InChI: InChI=1S/C20H19F3N2O4/c1-13(14-8-6-9-16(11-14)20(21,22)23)24-29-12-15-7-4-5-10-17(15)18(25-28-3)19(26)27-2/h4-11H,12H2,1-3H3/b24-13+,25-18+
Instrument: LTQ Orbitrap XL Thermo Scientific
Instrument type: LC-ESI-ITFT
Ms type: MS2
Ion mode: POSITIVE
Ionization: ESI
Fragmentation mode: HCD
Collision energy: 55 (nominal)
Resolution: 15000
Column name: Kinetex Core-Shell C18 2.6 um, 3.0 x 100 mm, Phenomenex
Retention time: 26.689 min
Base peak: 409.1365
Precursor m/z: 409.137
Precursor type: [M+H]+
m/z	relative intensity	assigned
79.0543	5	C6H7+
89.0386	15	C7H5+
90.0467	5	C7H6+
91.0542	112	C7H7+
103.0543	17	C8H7+
105.0699	63	C8H9+
115.0541	8	C9H7+
116.0495	608	C8H6N+
117.0573	150	C8H7N+
118.0651	155	C8H8N+
119.0491	39	C8H7O+
119.0604	6	C7H7N2+
128.0498	6	C9H6N+
130.0652	73	C9H8N+
131.0729	604	C9H9N+
132.0443	112	C8H6NO+
132.0807	186	C9H10N+
133.0522	8	C8H7NO+
134.0601	8	C8H8NO+
143.0367	53	C9H5NO+
144.0444	6	C9H6NO+
145.0259	430	C7H4F3+
146.06	325	C9H8NO+
147.0679	106	C9H9NO+
148.0758	14	C9H10NO+
159.0415	14	C8H6F3+
161.0472	67	C9H7NO2+
173.0322	239	C7H4F3N2+
174.055	11	C10H8NO2+
175.063	22	C10H9NO2+
178.0861	15	C10H12NO2+
186.0525	999	C9H7F3N+
188.0968	9	C5H14F2N2O3+
188.1092	5	C6H16F2NO3+
206.0813	89	C11H12NO3+
