Mass spectrum: Diazepam; LC-ESI-ITFT; MS2; CE: 55; R=15000; [M+H]+
Name: Diazepam
Name: 7-Chloro-1-methyl-5-phenyl-3H-1,4-benzodiazepin-2-one
Formula: C16H13ClN2O
Exact mass: 284.0716
SMILES: CN1C2=CC=C(Cl)C=C2C(=NCC1=O)C1=CC=CC=C1
InChI: InChI=1S/C16H13ClN2O/c1-19-14-8-7-12(17)9-13(14)16(18-10-15(19)20)11-5-3-2-4-6-11/h2-9H,10H2,1H3
Instrument: LTQ Orbitrap XL Thermo Scientific
Instrument type: LC-ESI-ITFT
Ms type: MS2
Ion mode: POSITIVE
Ionization: ESI
Fragmentation mode: HCD
Collision energy: 55 (nominal)
Resolution: 15000
Column name: Kinetex Core-Shell C18 2.6 um, 3.0 x 100 mm, Phenomenex
Retention time: 24.416 min
Base peak: 204.1381
Precursor m/z: 285.0789
Precursor type: [M+H]+
m/z	relative intensity	assigned
91.0543	69	C7H7+
104.0496	8	C7H6N+
105.0336	45	C7H5O+
106.0651	2	C7H8N+
116.0497	18	C8H6N+
117.0575	17	C8H7N+
118.0653	8	C8H8N+
119.0732	3	C8H9N+
125.0154	6	C7H6Cl+
138.9944	3	C7H4ClO+
140.0267	7	C7H7ClN+
141.0343	16	C7H8ClN+
143.0604	3	C9H7N2+
144.0685	2	C9H8N2+
146.0606	4	C6H11ClN2+
147.0682	27	C6H12ClN2+
150.0108	13	C8H5ClN+
152.0266	14	C8H7ClN+
154.0421	661	C8H9ClN+
165.0216	3	C8H6ClN2+
165.0704	2	C13H9+
167.0136	55	C8H6ClNO+
172.0634	78	C10H8N2O+
179.0373	74	C9H8ClN2+
180.0214	59	C9H7ClNO+
181.0889	2	C13H11N+
182.037	95	C9H9ClNO+
192.0807	4	C14H10N+
193.0889	451	C14H11N+
194.0969	9	C14H12N+
195.1052	3	C14H13N+
204.081	12	C15H10N+
205.0889	12	C15H11N+
206.0839	8	C14H10N2+
207.0323	11	C10H8ClN2O+
207.0921	10	C14H11N2+
208.1	2	C14H12N2+
216.0579	43	C13H11ClN+
220.1	10	C15H12N2+
221.084	10	C12H14ClN2+
221.1077	46	C15H13N2+
222.1154	450	C15H14N2+
223.0987	3	C15H13NO+
226.0425	18	C14H9ClN+
227.05	47	C14H10ClN+
228.0577	418	C14H11ClN+
230.0733	28	C14H13ClN+
240.0579	13	C15H11ClN+
241.0531	106	C14H10ClN2+
242.061	33	C14H11ClN2+
243.069	10	C14H12ClN2+
249.1032	3	C16H13N2O+
250.1106	8	C16H14N2O+
255.0688	80	C15H12ClN2+
256.0772	12	C15H13ClN2+
257.0843	488	C15H14ClN2+
269.0486	2	C15H10ClN2O+
285.0794	999	C16H14ClN2O+
