Mass spectrum: Benzidine; LC-ESI-ITFT; MS2; CE: 70%; R=15000; [M+H]+
Name: Benzidine
Name: 4-(4-aminophenyl)aniline
Formula: C12H12N2
Exact mass: 184.100048384
SMILES: NC1=CC=C(C=C1)C1=CC=C(N)C=C1
InChI: InChI=1S/C12H12N2/c13-11-5-1-9(2-6-11)10-3-7-12(14)8-4-10/h1-8H,13-14H2
Instrument: LTQ Orbitrap XL Thermo Scientific
Instrument type: LC-ESI-ITFT
Ms type: MS2
Ion mode: POSITIVE
Ionization: ESI
Fragmentation mode: HCD
Collision energy: 70 % (nominal)
Resolution: 15000
Column name: Kinetex Evo C18 2.6 um 50 x 2.1 mm
Retention time: 0.598 min
Base peak: 94.0651
Precursor m/z: 185.1073
Precursor type: [M+H]+
Precursor intensity: 4330923.5
m/z	relative intensity	assigned
65.0384	4	C5H5+
92.0495	40	C6H6N+
93.0573	113	C6H7N+
107.0608	1	C6H7N2+
115.054	3	C9H7+
117.0573	2	C8H7N+
118.0652	11	C8H8N+
128.062	5	C10H8+
130.0652	6	C9H8N+
132.0807	6	C9H10N+
140.0496	5	C10H6N+
141.0699	153	C11H9+
142.0651	2	C10H8N+
143.0729	23	C10H9N+
144.0807	24	C10H10N+
151.0542	62	C12H7+
152.062	19	C12H8+
153.0573	20	C11H7N+
155.0604	4	C10H7N2+
156.0809	5	C11H10N+
158.0964	30	C11H12N+
166.0653	3	C12H8N+
167.073	496	C12H9N+
168.0808	999	C12H10N+
169.0759	7	C11H9N2+
169.0885	120	C12H11N+
170.0836	9	C11H10N2+
179.0604	32	C12H7N2+
183.0916	3	C12H11N2+
184.0996	243	C12H12N2+
