Mass spectrum: Norfloxacin; LC-ESI-ITFT; MS2; CE: 40%; R=15000; [M+H]+
Name: Norfloxacin
Name: 1-ethyl-6-fluoro-4-oxo-7-piperazin-1-ylquinoline-3-carboxylic acid
Formula: C16H18FN3O3
Exact mass: 319.133219656
SMILES: CCN1C=C(C(O)=O)C(=O)C2=CC(F)=C(C=C12)N1CCNCC1
InChI: InChI=1S/C16H18FN3O3/c1-2-19-9-11(16(22)23)15(21)10-7-12(17)14(8-13(10)19)20-5-3-18-4-6-20/h7-9,18H,2-6H2,1H3,(H,22,23)
Instrument: LTQ Orbitrap XL Thermo Scientific
Instrument type: LC-ESI-ITFT
Ms type: MS2
Ion mode: POSITIVE
Ionization: ESI
Fragmentation mode: HCD
Collision energy: 40 % (nominal)
Resolution: 15000
Column name: Kinetex Evo C18 2.6 um 50 x 2.1 mm
Retention time: 4.133 min
Base peak: 320.1416
Precursor m/z: 320.1405
Precursor type: [M+H]+
Precursor intensity: 3012993.5
m/z	relative intensity	assigned
58.0651	6	C3H8N+
70.0652	20	C4H8N+
192.0823	4	C11H11FNO+
201.1013	2	C12H13N2O+
204.0698	12	C11H9FN2O+
205.0777	22	C11H10FN2O+
206.0853	10	C11H11FN2O+
207.0934	17	C11H12FN2O+
215.0989	6	C13H12FN2+
219.0933	101	C12H12FN2O+
220.1007	6	C12H13FN2O+
227.106	19	C10H14FN3O2+
228.1137	16	C10H15FN3O2+
233.109	705	C13H14FN2O+
247.1124	4	C13H14FN3O+
248.1192	2	C13H15FN3O+
256.145	177	C15H18N3O+
259.0889	3	C14H12FN2O2+
259.1245	6	C15H16FN2O+
274.1357	37	C15H17FN3O+
276.1513	999	C15H19FN3O+
302.1305	194	C16H17FN3O2+
320.1409	232	C16H19FN3O3+
