Mass spectrum: Quinoxyfen; LC-ESI-ITFT; MS2; CE: 55; R=15000; [M+H]+
Name: Quinoxyfen
Name: 5,7-Dichloro-4-(4-fluorophenoxy)quinoline
Formula: C15H8Cl2FNO
Exact mass: 306.9967
SMILES: FC1=CC=C(OC2=C3C(Cl)=CC(Cl)=CC3=NC=C2)C=C1
InChI: InChI=1S/C15H8Cl2FNO/c16-9-7-12(17)15-13(8-9)19-6-5-14(15)20-11-3-1-10(18)2-4-11/h1-8H
Instrument: LTQ Orbitrap XL Thermo Scientific
Instrument type: LC-ESI-ITFT
Ms type: MS2
Ion mode: POSITIVE
Ionization: ESI
Fragmentation mode: HCD
Collision energy: 55 (nominal)
Resolution: 15000
Column name: Kinetex Core-Shell C18 2.6 um, 3.0 x 100 mm, Phenomenex
Retention time: 27.738 min
Base peak: 308.0038
Precursor m/z: 308.004
Precursor type: [M+H]+
m/z	relative intensity	assigned
95.0291	1	C6H4F+
113.0397	1	C6H6FO+
123.0354	21	C6H4FN2+
150.0106	26	C8H5ClN+
162.0107	3	C9H5ClN+
166.0056	1	C8H5ClNO+
168.021	5	C8H7ClNO+
178.0057	4	C9H5ClNO+
178.0168	9	C8H5ClN3+
183.9717	5	C8H4Cl2N+
184.9795	3	C8H5Cl2N+
195.9719	3	C9H4Cl2N+
196.9795	356	C9H5Cl2N+
209.0638	5	C14H8FN+
210.0715	3	C14H9FN+
212.9745	8	C9H5Cl2NO+
213.9822	156	C9H6Cl2NO+
217.0221	3	C13H7ClF+
219.025	2	C12H7ClFN+
221.987	1	C11H6Cl2N+
225.0344	5	C14H8ClN+
228.9694	29	C9H5Cl2NO2+
237.0587	14	C15H8FNO+
238.0668	4	C15H9FNO+
244.0326	44	C14H8ClFN+
245.0404	69	C14H9ClFN+
253.0294	6	C15H8ClNO+
254.037	6	C15H9ClNO+
256.0317	1	C15H8ClFN+
260.0029	5	C14H8Cl2N+
272.0274	243	C15H8ClFNO+
273.0361	6	C15H9ClFNO+
280.0092	36	C14H9Cl2FN+
287.9982	20	C15H8Cl2NO+
308.0042	999	C15H9Cl2FNO+
309.0078	9	C13H9Cl2N3O2+
