Mass spectrum: Iminostilbene; LC-ESI-ITFT; MS2; CE: 50%; R=15000; [M+H]+
Name: Iminostilbene
Name: 11H-benzo[b][1]benzazepine
Formula: C14H11N
Exact mass: 193.089149352
SMILES: N1C2=CC=CC=C2C=CC2=CC=CC=C12
InChI: InChI=1S/C14H11N/c1-3-7-13-11(5-1)9-10-12-6-2-4-8-14(12)15-13/h1-10,15H
Instrument: LTQ Orbitrap XL Thermo Scientific
Instrument type: LC-ESI-ITFT
Ms type: MS2
Ion mode: POSITIVE
Ionization: ESI
Fragmentation mode: HCD
Collision energy: 50 % (nominal)
Resolution: 15000
Column name: Kinetex Evo C18 2.6 um 50 x 2.1 mm
Retention time: 11.173 min
Base peak: 194.1182
Precursor m/z: 194.0964
Precursor type: [M+H]+
Precursor intensity: 26913130
m/z	relative intensity	assigned
107.073	6	C7H9N+
121.0887	7	C8H11N+
122.0965	5	C8H12N+
134.0968	1	C9H12N+
167.0859	1	C13H11+
193.089	7	C14H11N+
194.0965	999	C14H12N+
