Mass spectrum: Ciclopirox; LC-ESI-ITFT; MS2; CE: 40%; R=15000; [M+H]+
Name: Ciclopirox
Name: 6-cyclohexyl-1-hydroxy-4-methylpyridin-2-one
Formula: C12H17NO2
Exact mass: 207.125928784
SMILES: CC1=CC(=O)N(O)C(=C1)C1CCCCC1
InChI: InChI=1S/C12H17NO2/c1-9-7-11(13(15)12(14)8-9)10-5-3-2-4-6-10/h7-8,10,15H,2-6H2,1H3
Instrument: LTQ Orbitrap XL Thermo Scientific
Instrument type: LC-ESI-ITFT
Ms type: MS2
Ion mode: POSITIVE
Ionization: ESI
Fragmentation mode: HCD
Collision energy: 40 % (nominal)
Resolution: 15000
Column name: Kinetex Evo C18 2.6 um 50 x 2.1 mm
Retention time: 11.211 min
Base peak: 116.9863
Precursor m/z: 208.1332
Precursor type: [M+H]+
Precursor intensity: 714056.88
m/z	relative intensity	assigned
53.0385	2	C4H5+
81.07	7	C6H9+
82.0652	3	C5H8N+
94.0654	4	C6H8N+
122.0605	5	C7H8NO+
123.0683	7	C7H9NO+
136.0762	6	C8H10NO+
162.1283	13	C11H16N+
190.1234	4	C12H16NO+
208.1339	999	C12H18NO2+
