Mass spectrum: Pirimicarb; LC-ESI-ITFT; MS2; CE: 55; R=15000; [M+H]+
Name: Pirimicarb
Name: [2-(Dimethylamino)-5,6-dimethylpyrimidin-4-yl] N,N-dimethylcarbamate
Formula: C11H18N4O2
Exact mass: 238.1430
SMILES: CN(C)C(=O)OC1=NC(=NC(C)=C1C)N(C)C
InChI: InChI=1S/C11H18N4O2/c1-7-8(2)12-10(14(3)4)13-9(7)17-11(16)15(5)6/h1-6H3
Instrument: LTQ Orbitrap XL Thermo Scientific
Instrument type: LC-ESI-ITFT
Ms type: MS2
Ion mode: POSITIVE
Ionization: ESI
Fragmentation mode: CID
Collision energy: 55 (nominal)
Resolution: 15000
Column name: Kinetex Core-Shell C18 2.6 um, 3.0 x 100 mm, Phenomenex
Retention time: 17.533 min
Base peak: 165.1019
Precursor m/z: 239.1503
Precursor type: [M+H]+
m/z	relative intensity	assigned
72.0443	62	C3H6NO+
137.071	2	C7H9N2O+
150.1025	2	C8H12N3+
166.0975	27	C8H12N3O+
167.1049	1	C8H13N3O+
182.1287	999	C9H16N3O+
194.0924	6	C9H12N3O2+
195.1603	343	C10H19N4+
239.1506	1	C11H19N4O2+
