Mass spectrum: Gabapentin-lactam; LC-ESI-ITFT; MS2; CE: 120%; R=15000; [M+H]+
Name: Gabapentin-lactam
Name: 2-azaspiro[4.5]decan-3-one
Formula: C9H15NO
Exact mass: 153.1154
SMILES: O=C1CC2(CN1)CCCCC2
InChI: InChI=1S/C9H15NO/c11-8-6-9(7-10-8)4-2-1-3-5-9/h1-7H2,(H,10,11)
Instrument: LTQ Orbitrap XL Thermo Scientific
Instrument type: LC-ESI-ITFT
Ms type: MS2
Ion mode: POSITIVE
Ionization: ESI
Fragmentation mode: HCD
Collision energy: 120 % (nominal)
Resolution: 15000
Column name: Kinetex Evo C18 2.6 um 50 x 2.1 mm
Retention time: 8.251 min
Base peak: 154.1226
Precursor m/z: 154.1226
Precursor type: [M+H]+
m/z	relative intensity	assigned
60.0443	6	C2H6NO+
65.0385	22	C5H5+
67.0542	515	C5H7+
69.0698	36	C5H9+
72.0444	109	C3H6NO+
77.0386	26	C6H5+
79.0542	19	C6H7+
80.062	16	C6H8+
81.0699	25	C6H9+
91.0542	77	C7H7+
93.0699	163	C7H9+
95.0855	999	C7H11+
109.1011	22	C8H13+
112.1121	30	C7H14N+
119.0852	4	C9H11+
154.1226	149	C9H16NO+
