Mass spectrum: Genistein; LC-ESI-ITFT; MS2; CE: 70%; R=15000; [M+H]+
Name: Genistein
Name: 5,7-dihydroxy-3-(4-hydroxyphenyl)chromen-4-one
Formula: C15H10O5
Exact mass: 270.05282342
SMILES: OC1=CC=C(C=C1)C1=COC2=CC(O)=CC(O)=C2C1=O
InChI: InChI=1S/C15H10O5/c16-9-3-1-8(2-4-9)11-7-20-13-6-10(17)5-12(18)14(13)15(11)19/h1-7,16-18H
Instrument: LTQ Orbitrap XL Thermo Scientific
Instrument type: LC-ESI-ITFT
Ms type: MS2
Ion mode: POSITIVE
Ionization: ESI
Fragmentation mode: HCD
Collision energy: 70 % (nominal)
Resolution: 15000
Column name: Kinetex Evo C18 2.6 um 50 x 2.1 mm
Retention time: 9.929 min
Base peak: 192.1389
Precursor m/z: 271.0601
Precursor type: [M+H]+
Precursor intensity: 5535766
m/z	relative intensity	assigned
65.0384	11	C5H5+
67.0177	39	C4H3O+
68.997	90	C3HO2+
81.0336	10	C5H5O+
89.0385	13	C7H5+
91.0542	527	C7H7+
95.0127	20	C5H3O2+
103.0544	9	C8H7+
105.0336	19	C7H5O+
107.0491	47	C7H7O+
109.0284	12	C6H5O2+
111.0077	35	C5H3O3+
115.0542	16	C9H7+
117.0335	7	C8H5O+
117.0701	16	C9H9+
118.0416	4	C8H6O+
119.0492	227	C8H7O+
121.0285	75	C7H5O2+
128.062	11	C10H8+
129.0698	23	C10H9+
131.0492	64	C9H7O+
131.0855	25	C10H11+
133.0285	11	C8H5O2+
133.0646	11	C9H9O+
135.0441	29	C8H7O2+
137.0233	28	C7H5O3+
141.0699	143	C11H9+
144.0572	15	C10H8O+
145.0284	144	C9H5O2+
145.0648	49	C10H9O+
147.0441	46	C9H7O2+
147.0804	27	C10H11O+
149.0234	250	C8H5O3+
150.0311	21	C8H6O3+
152.0623	11	C12H8+
153.0183	999	C7H5O4+
155.0492	18	C11H7O+
157.0647	18	C11H9O+
159.0441	111	C10H7O2+
163.0391	9	C9H7O3+
165.0183	87	C8H5O4+
168.0566	5	C12H8O+
169.0649	253	C12H9O+
173.0598	46	C11H9O2+
175.0755	25	C11H11O2+
181.0647	10	C13H9O+
183.0442	37	C12H7O2+
185.0599	17	C12H9O2+
187.0392	38	C11H7O3+
187.0754	84	C12H11O2+
191.0342	14	C10H7O4+
197.0597	256	C13H9O2+
200.0468	37	C12H8O3+
201.0547	32	C12H9O3+
213.0546	23	C13H9O3+
215.0703	673	C13H11O3+
225.0547	56	C14H9O3+
227.0702	11	C14H11O3+
229.05	9	C13H9O4+
242.0574	19	C14H10O4+
243.0652	391	C14H11O4+
253.0496	208	C15H9O4+
271.0601	555	C15H11O5+
