Mass spectrum: Ethyl azinphos; LC-ESI-ITFT; MS2; CE: 70%; R=15000; [M+H]+
Name: Ethyl azinphos
Name: Azinphos-ethyl
Name: 3-(diethoxyphosphinothioylsulfanylmethyl)-1,2,3-benzotriazin-4-one
Formula: C12H16N3O3PS2
Exact mass: 345.037070002
SMILES: CCOP(=S)(OCC)SCN1N=NC2=CC=CC=C2C1=O
InChI: InChI=1S/C12H16N3O3PS2/c1-3-17-19(20,18-4-2)21-9-15-12(16)10-7-5-6-8-11(10)13-14-15/h5-8H,3-4,9H2,1-2H3
Instrument: LTQ Orbitrap XL Thermo Scientific
Instrument type: LC-ESI-ITFT
Ms type: MS2
Ion mode: POSITIVE
Ionization: ESI
Fragmentation mode: HCD
Collision energy: 70 % (nominal)
Resolution: 15000
Column name: Kinetex Evo C18 2.6 um 50 x 2.1 mm
Retention time: 11.860 min
Base peak: 346.0455
Precursor m/z: 346.0443
Precursor type: [M+H]+
Precursor intensity: 2816984.25
m/z	relative intensity	assigned
77.0388	140	C2H8NP+
105.0454	153	H11NO3S+
109.0112	374	C2H8NPS+
114.9619	999	H4O3PS+
132.0448	155	C4H9N2OP+
137.0062	981	C3H8NOPS+
142.939	109	CH4O2PS2+
176.0462	254	C8H6N3O2+
194.0569	369	C8H8N3O3+
