Mass spectrum: Benzothiazole; LC-ESI-ITFT; MS2; CE: 80; R=15000; [M+H]+
Name: Benzothiazole
Name: 1,3-Benzothiazole
Formula: C7H5NS
Exact mass: 135.0143
SMILES: S1C=NC2=CC=CC=C12
InChI: InChI=1S/C7H5NS/c1-2-4-7-6(3-1)8-5-9-7/h1-5H
Instrument: LTQ Orbitrap XL Thermo Scientific
Instrument type: LC-ESI-ITFT
Ms type: MS2
Ion mode: POSITIVE
Ionization: ESI
Fragmentation mode: HCD
Collision energy: 80 (nominal)
Resolution: 15000
Column name: Kinetex Core-Shell C18 2.6 um, 3.0 x 100 mm, Phenomenex
Retention time: 21.154 min
Base peak: 200.0744
Precursor m/z: 136.0215
Precursor type: [M+H]+
m/z	relative intensity	assigned
77.0388	19	C6H5+
105.0339	3	C7H5O+
109.011	162	C6H5S+
136.0219	999	C7H6NS+
