Mass spectrum: Ketoconazole; LC-ESI-ITFT; MS2; CE: 55; R=15000; [M+H]+
Name: Ketoconazole
Name: 1-[4-[4-[[(2R,4S)-2-(2,4-Dichlorophenyl)-2-(imidazol-1-ylmethyl)-1,3-dioxolan-4-yl]methoxy]phenyl]piperazin-1-yl]ethanone
Formula: C26H28Cl2N4O4
Exact mass: 530.1488
SMILES: CC(=O)N1CCN(CC1)C1=CC=C(OC[C@H]2CO[C@@](CN3C=CN=C3)(O2)C2=CC=C(Cl)C=C2Cl)C=C1
InChI: InChI=1S/C26H28Cl2N4O4/c1-19(33)31-10-12-32(13-11-31)21-3-5-22(6-4-21)34-15-23-16-35-26(36-23,17-30-9-8-29-18-30)24-7-2-20(27)14-25(24)28/h2-9,14,18,23H,10-13,15-17H2,1H3/t23-,26-/m0/s1
Instrument: LTQ Orbitrap XL Thermo Scientific
Instrument type: LC-ESI-ITFT
Ms type: MS2
Ion mode: POSITIVE
Ionization: ESI
Fragmentation mode: CID
Collision energy: 55 (nominal)
Resolution: 15000
Column name: Kinetex Core-Shell C18 2.6 um, 3.0 x 100 mm, Phenomenex
Retention time: 21.827 min
Base peak: 531.1556
Precursor m/z: 531.156
Precursor type: [M+H]+
m/z	relative intensity	assigned
157.9686	1	C7H4Cl2+
158.9767	3	C7H5Cl2+
163.0311	1	C10H8Cl+
172.956	2	C7H3Cl2O+
174.0916	8	C8H15ClN2+
178.1105	1	C7H17ClN3+
185.9636	12	C8H4Cl2O+
192.1022	1	C8H17ClN2O+
200.1077	1	C10H17ClN2+
203.0377	1	C11H8ClN2+
209.0366	2	C11H10ClO2+
216.1022	14	C10H17ClN2O+
216.1262	1	C10H19ClN3+
217.1338	22	C10H20ClN3+
219.1132	11	C9H18ClN3O+
220.121	9	C9H19ClN3O+
234.1128	10	C10H19ClN2O2+
235.1445	14	C10H22ClN3O+
238.0066	4	C11H8Cl2N2+
244.0057	47	C18N2+
247.0636	3	C10H15Cl2N3+
255.0091	59	C11H9Cl2N2O+
259.1445	4	C12H22ClN3O+
267.0088	9	C12H9Cl2N2O+
268.0166	1	C12H10Cl2N2O+
277.1554	3	C12H24ClN3O2+
281.0257	3	C22H3N+
282.0326	4	C13H12Cl2N2O+
311.0355	11	C21H3N4+
420.0768	9	C21H20Cl2NO4+
421.1088	14	C21H23Cl2N2O3+
463.1185	3	C23H25Cl2N2O4+
489.1455	999	C24H27Cl2N4O3+
490.1483	7	C19H28Cl2N6O5+
513.1467	5	C26H27Cl2N4O3+
