Mass spectrum: Pindolol; LC-ESI-ITFT; MS2; CE: 40%; R=15000; [M+H]+
Name: Pindolol
Name: 1-(1H-indol-4-yloxy)-3-(propan-2-ylamino)propan-2-ol
Formula: C14H20N2O2
Exact mass: 248.15247788
SMILES: CC(C)NCC(O)COC1=CC=CC2=C1C=CN2
InChI: InChI=1S/C14H20N2O2/c1-10(2)16-8-11(17)9-18-14-5-3-4-13-12(14)6-7-15-13/h3-7,10-11,15-17H,8-9H2,1-2H3
Instrument: LTQ Orbitrap XL Thermo Scientific
Instrument type: LC-ESI-ITFT
Ms type: MS2
Ion mode: POSITIVE
Ionization: ESI
Fragmentation mode: HCD
Collision energy: 40 % (nominal)
Resolution: 15000
Column name: Kinetex Evo C18 2.6 um 50 x 2.1 mm
Retention time: 0.883 min
Base peak: 235.1815
Precursor m/z: 249.1598
Precursor type: [M+H]+
Precursor intensity: 9462054
m/z	relative intensity	assigned
56.0493	24	C3H6N+
58.065	39	C3H8N+
60.0806	2	C3H10N+
72.0808	138	C4H10N+
74.06	109	C3H8NO+
86.0965	21	C5H12N+
98.0966	147	C6H12N+
100.1122	4	C6H14N+
116.1071	999	C6H14NO+
118.0652	14	C8H8N+
130.0652	5	C9H8N+
132.0447	5	C8H6NO+
132.1021	2	C6H14NO2+
134.0602	74	C8H8NO+
144.081	34	C10H10N+
146.0602	156	C9H8NO+
154.0654	1	C11H8N+
160.076	10	C10H10NO+
172.076	320	C11H10NO+
176.1071	2	C11H14NO+
188.1072	1	C12H14NO+
190.0867	1	C11H12NO2+
207.1132	25	C11H15N2O2+
214.123	1	C14H16NO+
231.1497	3	C14H19N2O+
249.1601	653	C14H21N2O2+
