Mass spectrum: Imazapyr; LC-ESI-ITFT; MS2; CE: 40%; R=15000; [M+H]+
Name: Imazapyr
Name: 2-(4-methyl-5-oxo-4-propan-2-yl-1H-imidazol-2-yl)pyridine-3-carboxylic acid
Formula: C13H15N3O3
Exact mass: 261.11134134
SMILES: CC(C)C1(C)N=C(NC1=O)C1=NC=CC=C1C(O)=O
InChI: InChI=1S/C13H15N3O3/c1-7(2)13(3)12(19)15-10(16-13)9-8(11(17)18)5-4-6-14-9/h4-7H,1-3H3,(H,17,18)(H,15,16,19)
Instrument: LTQ Orbitrap XL Thermo Scientific
Instrument type: LC-ESI-ITFT
Ms type: MS2
Ion mode: POSITIVE
Ionization: ESI
Fragmentation mode: HCD
Collision energy: 40 % (nominal)
Resolution: 15000
Column name: Kinetex Evo C18 2.6 um 50 x 2.1 mm
Retention time: 5.845 min
Base peak: 262.1197
Precursor m/z: 262.1186
Precursor type: [M+H]+
Precursor intensity: 24205770
m/z	relative intensity	assigned
58.0649	3	C3H8N+
69.0697	46	C5H9+
86.0964	173	C5H12N+
97.0648	12	C6H9O+
105.0446	6	C6H5N2+
114.0915	4	C6H12NO+
147.0554	6	C8H7N2O+
148.0507	21	C7H6N3O+
149.0346	96	C7H5N2O2+
173.1074	77	C11H13N2+
174.0662	6	C9H8N3O+
175.0866	5	C10H11N2O+
176.082	5	C9H10N3O+
190.1338	10	C11H16N3+
191.0692	4	C9H9N3O2+
199.0867	44	C12H11N2O+
202.0612	138	C10H8N3O2+
216.1133	74	C12H14N3O+
217.0973	687	C12H13N2O2+
219.064	10	C10H9N3O3+
220.0717	409	C10H10N3O3+
234.1238	380	C12H16N3O2+
244.1081	16	C13H14N3O2+
262.1187	999	C13H16N3O3+
