Mass spectrum: Thiacloprid; LC-ESI-ITFT; MS2; CE: 40%; R=15000; [M+H]+
Name: Thiacloprid
Name: CID 6011129
Name: (E)-[3-[(6-chloropyridin-3-yl)methyl]-1,3-thiazolidin-2-ylidene]cyanamide
Formula: C10H9ClN4S
Exact mass: 252.023644968
SMILES: ClC1=CC=C(CN2CCS\C2=N\C#N)C=N1
InChI: InChI=1S/C10H9ClN4S/c11-9-2-1-8(5-13-9)6-15-3-4-16-10(15)14-7-12/h1-2,5H,3-4,6H2/b14-10+
Instrument: LTQ Orbitrap XL Thermo Scientific
Instrument type: LC-ESI-ITFT
Ms type: MS2
Ion mode: POSITIVE
Ionization: ESI
Fragmentation mode: HCD
Collision energy: 40 % (nominal)
Resolution: 15000
Column name: Kinetex Evo C18 2.6 um 50 x 2.1 mm
Retention time: 7.700 min
Base peak: 253.0319
Precursor m/z: 253.0309
Precursor type: [M+H]+
Precursor intensity: 17790824
m/z	relative intensity	assigned
90.0338	3	C6H4N+
98.9996	1	C5H4Cl+
126.0105	999	C6H5ClN+
128.0257	1	C6H7ClN+
151.0058	6	C7H4ClN2+
186.0139	40	C8H9ClNS+
190.0436	1	C9H8N3S+
193.0281	1	C8H6ClN4+
211.0092	7	C9H8ClN2S+
217.0543	7	C10H9N4S+
226.0201	7	C9H9ClN3S+
236.004	3	C10H7ClN3S+
253.031	181	C10H10ClN4S+
