Mass spectrum: Propoxycarbazone; LC-ESI-ITFT; MS2; CE: 10%; R=15000; [M+H]+
Name: Propoxycarbazone
Name: methyl 2-[(4-methyl-5-oxo-3-propoxy-1,2,4-triazole-1-carbonyl)sulfamoyl]benzoate
Formula: C15H18N4O7S
Exact mass: 398.089619916
SMILES: CCCOC1=NN(C(=O)NS(=O)(=O)C2=CC=CC=C2C(=O)OC)C(=O)N1C
InChI: InChI=1S/C15H18N4O7S/c1-4-9-26-14-16-19(15(22)18(14)2)13(21)17-27(23,24)11-8-6-5-7-10(11)12(20)25-3/h5-8H,4,9H2,1-3H3,(H,17,21)
Instrument: LTQ Orbitrap XL Thermo Scientific
Instrument type: LC-ESI-ITFT
Ms type: MS2
Ion mode: POSITIVE
Ionization: ESI
Fragmentation mode: HCD
Collision energy: 10 % (nominal)
Resolution: 15000
Column name: Kinetex Evo C18 2.6 um 50 x 2.1 mm
Retention time: 10.385 min
Base peak: 256.1101
Precursor m/z: 399.0969
Precursor type: [M+H]+
Precursor intensity: 4295642.5
m/z	relative intensity	assigned
116.0456	393	C3H6N3O2+
158.0926	776	C6H12N3O2+
169.0092	23	C2H5N2O7+
199.0061	999	C8H7O4S+
215.1145	58	C8H15N4O3+
325.0238	28	C11H9N4O6S+
367.0706	392	C14H15N4O6S+
399.0969	90	C15H19N4O7S+
