Mass spectrum: Fenofibrate; LC-ESI-ITFT; MS2; CE: 80%; R=15000; [M+H]+
Name: Fenofibrate
Name: propan-2-yl 2-[4-(4-chlorobenzoyl)phenoxy]-2-methylpropanoate
Formula: C20H21ClO4
Exact mass: 360.112836832
SMILES: CC(C)OC(=O)C(C)(C)OC1=CC=C(C=C1)C(=O)C1=CC=C(Cl)C=C1
InChI: InChI=1S/C20H21ClO4/c1-13(2)24-19(23)20(3,4)25-17-11-7-15(8-12-17)18(22)14-5-9-16(21)10-6-14/h5-13H,1-4H3
Instrument: LTQ Orbitrap XL Thermo Scientific
Instrument type: LC-ESI-ITFT
Ms type: MS2
Ion mode: POSITIVE
Ionization: ESI
Fragmentation mode: HCD
Collision energy: 80 % (nominal)
Resolution: 15000
Column name: Kinetex Evo C18 2.6 um 50 x 2.1 mm
Retention time: 13.543 min
Base peak: 361.1208
Precursor m/z: 361.1201
Precursor type: [M+H]+
Precursor intensity: 23155870
m/z	relative intensity	assigned
59.0489	12	C3H7O+
65.0384	21	C5H5+
75.0226	1	C6H3+
87.044	3	C4H7O2+
93.0334	31	C6H5O+
110.9996	35	C6H4Cl+
111.044	9	C6H7O2+
121.0284	571	C7H5O2+
129.0101	19	C6H6ClO+
138.9945	999	C7H4ClO+
