Mass spectrum: Ifosfamide; LC-ESI-ITFT; MS2; CE: 90%; R=15000; [M+H]+
Name: Ifosfamide
Name: N,3-bis(2-chloroethyl)-2-oxo-1,3,2lambda5-oxazaphosphinan-2-amine
Formula: C7H15Cl2N2O2P
Exact mass: 260.02481971
SMILES: ClCCNP1(=O)OCCCN1CCCl
InChI: InChI=1S/C7H15Cl2N2O2P/c8-2-4-10-14(12)11(6-3-9)5-1-7-13-14/h1-7H2,(H,10,12)
Instrument: LTQ Orbitrap XL Thermo Scientific
Instrument type: LC-ESI-ITFT
Ms type: MS2
Ion mode: POSITIVE
Ionization: ESI
Fragmentation mode: HCD
Collision energy: 90 % (nominal)
Resolution: 15000
Column name: Kinetex Evo C18 2.6 um 50 x 2.1 mm
Retention time: 7.030 min
Base peak: 307.1122
Precursor m/z: 261.0321
Precursor type: [M+H]+
Precursor intensity: 2372248
m/z	relative intensity	assigned
58.0649	10	C3H8N+
62.9994	420	CH4OP+
63.9946	10	H3NOP+
67.0541	11	C5H7+
72.0442	6	C3H6NO+
80.0261	10	C2H7ClN+
82.0651	16	C5H8N+
84.0808	9	C5H10N+
92.0261	999	C3H7ClN+
98	10	CH5ClNO2+
106.0051	16	C2H5NO2P+
109.0048	4	C3H6ClO2+
115.966	4	ClH4NO2P+
116.9501	38	CH3Cl2O2+
118.0051	5	C3H5NO2P+
118.0417	6	C5H9ClN+
120.0574	52	C5H11ClN+
124.0158	11	C3H7ClNO2+
125.9505	21	CH2ClNO2P+
127.9661	15	CH4ClNO2P+
128.0261	15	C6H7ClN+
132.0808	3	C5H13N2P+
136.0156	13	C4H7ClNO2+
141.9817	17	C2H6ClNO2P+
153.9818	167	C3H6ClNO2P+
