Mass spectrum: Michler`s ketone; LC-ESI-ITFT; MS2; CE: 60%; R=15000; [M+H]+
Name: Michler`s ketone
Name: bis[4-(dimethylamino)phenyl]methanone
Formula: C17H20N2O
Exact mass: 268.15756326
SMILES: CN(C)C1=CC=C(C=C1)C(=O)C1=CC=C(C=C1)N(C)C
InChI: InChI=1S/C17H20N2O/c1-18(2)15-9-5-13(6-10-15)17(20)14-7-11-16(12-8-14)19(3)4/h5-12H,1-4H3
Instrument: LTQ Orbitrap XL Thermo Scientific
Instrument type: LC-ESI-ITFT
Ms type: MS2
Ion mode: POSITIVE
Ionization: ESI
Fragmentation mode: HCD
Collision energy: 60 % (nominal)
Resolution: 15000
Column name: Kinetex Evo C18 2.6 um 50 x 2.1 mm
Retention time: 11.841 min
Base peak: 116.9859
Precursor m/z: 269.1648
Precursor type: [M+H]+
Precursor intensity: 415295
m/z	relative intensity	assigned
79.0541	8	C6H7+
91.0541	3	C7H7+
93.0698	5	C7H9+
105.0572	6	C7H7N+
118.0649	2	C8H8N+
120.0806	47	C8H10N+
148.0755	999	C9H10NO+
269.1645	16	C17H21N2O+
