Mass spectrum: Diclofenac; LC-ESI-ITFT; MS2; CE: 55; R=15000; [M+H]+
Name: Diclofenac
Name: 2-[2-(2,6-Dichloroanilino)phenyl]acetic acid
Formula: C14H11Cl2NO2
Exact mass: 295.0167
SMILES: OC(=O)CC1=CC=CC=C1NC1=C(Cl)C=CC=C1Cl
InChI: InChI=1S/C14H11Cl2NO2/c15-10-5-3-6-11(16)14(10)17-12-7-2-1-4-9(12)8-13(18)19/h1-7,17H,8H2,(H,18,19)
Instrument: LTQ Orbitrap XL Thermo Scientific
Instrument type: LC-ESI-ITFT
Ms type: MS2
Ion mode: POSITIVE
Ionization: ESI
Fragmentation mode: CID
Collision energy: 55 (nominal)
Resolution: 15000
Column name: Kinetex Core-Shell C18 2.6 um, 3.0 x 100 mm, Phenomenex
Retention time: 25.979 min
Base peak: 163.1329
Precursor m/z: 296.024
Precursor type: [M+H]+
m/z	relative intensity	assigned
214.0416	11	C13H9ClN+
215.0499	27	C13H10ClN+
250.0188	227	C13H10Cl2N+
278.0138	999	C14H10Cl2NO+
