Mass spectrum: Acetochlor; LC-ESI-ITFT; MS2; CE: 10%; R=15000; [M+H]+
Name: Acetochlor
Name: 2-chloro-N-(ethoxymethyl)-N-(2-ethyl-6-methylphenyl)acetamide
Formula: C14H20ClNO2
Exact mass: 269.11825656
SMILES: CCOCN(C(=O)CCl)C1=C(C)C=CC=C1CC
InChI: InChI=1S/C14H20ClNO2/c1-4-12-8-6-7-11(3)14(12)16(10-18-5-2)13(17)9-15/h6-8H,4-5,9-10H2,1-3H3
Instrument: LTQ Orbitrap XL Thermo Scientific
Instrument type: LC-ESI-ITFT
Ms type: MS2
Ion mode: POSITIVE
Ionization: ESI
Fragmentation mode: HCD
Collision energy: 10 % (nominal)
Resolution: 15000
Column name: Kinetex Evo C18 2.6 um 50 x 2.1 mm
Retention time: 11.646 min
Base peak: 224.0845
Precursor m/z: 270.1255
Precursor type: [M+H]+
Precursor intensity: 5468045
m/z	relative intensity	assigned
59.049	7	C3H7O+
148.1123	39	C10H14N+
224.0842	551	C12H15ClNO+
270.1262	999	C14H21ClNO2+
