Mass spectrum: N-Phenyl-1-naphthylamine; LC-ESI-ITFT; MS2; CE: 55; R=15000; [M+H]+
Name: N-Phenyl-1-naphthylamine
Name: N-Phenylnaphthalen-1-amine
Formula: C16H13N
Exact mass: 219.1048
SMILES: N(C1=CC=CC=C1)C1=CC=CC2=CC=CC=C12
InChI: InChI=1S/C16H13N/c1-2-9-14(10-3-1)17-16-12-6-8-13-7-4-5-11-15(13)16/h1-12,17H
Instrument: LTQ Orbitrap XL Thermo Scientific
Instrument type: LC-ESI-ITFT
Ms type: MS2
Ion mode: POSITIVE
Ionization: ESI
Fragmentation mode: HCD
Collision energy: 55 (nominal)
Resolution: 15000
Column name: Kinetex Core-Shell C18 2.6 um, 3.0 x 100 mm, Phenomenex
Retention time: 26.816 min
Base peak: 220.1126
Precursor m/z: 220.1121
Precursor type: [M+H]+
m/z	relative intensity	assigned
92.0498	146	C6H6N+
93.0577	39	C6H7N+
104.0499	3	C7H6N+
115.0546	74	C9H7+
117.0702	3	C9H9+
128.0625	78	C10H8+
142.0657	94	C10H8N+
143.0735	999	C10H9N+
155.061	12	C10H7N2+
178.0784	4	C14H10+
193.1019	9	C15H13+
202.0784	11	C16H10+
203.0864	51	C16H11+
204.0817	9	C15H10N+
204.0939	5	C16H12+
205.0896	27	C15H11N+
220.1129	887	C16H14N+
231.0923	3	C16H11N2+
