Mass spectrum: Methiocarb; LC-ESI-ITFT; MS2; CE: 30%; R=15000; [M+H]+
Name: Methiocarb
Name: (3,5-dimethyl-4-methylsulfanylphenyl) N-methylcarbamate
Formula: C11H15NO2S
Exact mass: 225.08234972
SMILES: CNC(=O)OC1=CC(C)=C(SC)C(C)=C1
InChI: InChI=1S/C11H15NO2S/c1-7-5-9(14-11(13)12-3)6-8(2)10(7)15-4/h5-6H,1-4H3,(H,12,13)
Instrument: LTQ Orbitrap XL Thermo Scientific
Instrument type: LC-ESI-ITFT
Ms type: MS2
Ion mode: POSITIVE
Ionization: ESI
Fragmentation mode: HCD
Collision energy: 30 % (nominal)
Resolution: 15000
Column name: Kinetex Evo C18 2.6 um 50 x 2.1 mm
Retention time: 10.950 min
Base peak: 226.0902
Precursor m/z: 226.0896
Precursor type: [M+H]+
Precursor intensity: 21131478
m/z	relative intensity	assigned
91.0543	5	C7H7+
93.07	18	C7H9+
121.0649	397	C8H9O+
122.0728	45	C8H10O+
169.0684	999	C9H13OS+
