Mass spectrum: Desethylatrazine; LC-ESI-ITFT; MS2; CE: 30%; R=15000; [M+H]+
Name: Desethylatrazine
Name: Deethylatrazine
Name: 6-chloro-2-N-propan-2-yl-1,3,5-triazine-2,4-diamine
Formula: C6H10ClN5
Exact mass: 187.062473
SMILES: CC(C)NC1=NC(N)=NC(Cl)=N1
InChI: InChI=1S/C6H10ClN5/c1-3(2)9-6-11-4(7)10-5(8)12-6/h3H,1-2H3,(H3,8,9,10,11,12)
Instrument: LTQ Orbitrap XL Thermo Scientific
Instrument type: LC-ESI-ITFT
Ms type: MS2
Ion mode: POSITIVE
Ionization: ESI
Fragmentation mode: HCD
Collision energy: 30 % (nominal)
Resolution: 15000
Column name: Kinetex Evo C18 2.6 um 50 x 2.1 mm
Retention time: 6.471 min
Base peak: 188.0701
Precursor m/z: 188.0697
Precursor type: [M+H]+
Precursor intensity: 27170010
m/z	relative intensity	assigned
79.0057	1	CH4ClN2+
104.0012	1	C2H3ClN3+
146.0226	165	C3H5ClN5+
188.0695	999	C6H11ClN5+
