Mass spectrum: 2,6-Dichlorobenzamide; LC-ESI-ITFT; MS2; CE: 35; R=15000; [M+H]+
Name: 2,6-Dichlorobenzamide
Formula: C7H5Cl2NO
Exact mass: 188.9748
SMILES: NC(=O)C1=C(Cl)C=CC=C1Cl
InChI: InChI=1S/C7H5Cl2NO/c8-4-2-1-3-5(9)6(4)7(10)11/h1-3H,(H2,10,11)
Instrument: LTQ Orbitrap XL Thermo Scientific
Instrument type: LC-ESI-ITFT
Ms type: MS2
Ion mode: POSITIVE
Ionization: ESI
Fragmentation mode: CID
Collision energy: 35 (nominal)
Resolution: 15000
Column name: Kinetex Core-Shell C18 2.6 um, 3.0 x 100 mm, Phenomenex
Retention time: 14.306 min
Base peak: 163.1325
Precursor m/z: 189.9821
Precursor type: [M+H]+
m/z	relative intensity	assigned
146.9762	19	C6H5Cl2+
171.9718	12	C7H4Cl2N+
172.9554	999	C7H3Cl2O+
189.9823	4	C7H6Cl2NO+
