Mass spectrum: Imidacloprid; LC-ESI-ITFT; MS2; CE: 20%; R=15000; [M+H]+
Name: Imidacloprid
Name: N-[1-[(6-chloro-3-pyridinyl)methyl]-4,5-dihydroimidazol-2-yl]nitramide
Name: N-[1-[(6-chloropyridin-3-yl)methyl]-4,5-dihydroimidazol-2-yl]nitramide
Formula: C9H10ClN5O2
Exact mass: 255.05230224
SMILES: [O-][N+](=O)\N=C1/NCCN1CC1=CN=C(Cl)C=C1
InChI: InChI=1S/C9H10ClN5O2/c10-8-2-1-7(5-12-8)6-14-4-3-11-9(14)13-15(16)17/h1-2,5H,3-4,6H2,(H,11,13)
Instrument: LTQ Orbitrap XL Thermo Scientific
Instrument type: LC-ESI-ITFT
Ms type: MS2
Ion mode: POSITIVE
Ionization: ESI
Fragmentation mode: HCD
Collision energy: 20 % (nominal)
Resolution: 15000
Column name: Kinetex Evo C18 2.6 um 50 x 2.1 mm
Retention time: 6.010 min
Base peak: 256.0602
Precursor m/z: 256.0596
Precursor type: [M+H]+
Precursor intensity: 4828771.5
m/z	relative intensity	assigned
84.0555	156	C3H6N3+
99.0554	8	CH10ClN3+
126.0104	34	C6H5ClN+
128.0261	32	C6H7ClN+
151.0178	4	C8H6ClN+
173.0827	4	C9H9N4+
174.09	95	C9H10N4+
175.0978	615	C9H11N4+
194.0485	6	C9H9ClN3+
209.0588	706	C9H10ClN4+
210.0666	348	C9H11ClN4+
212.0584	351	C9H11ClN3O+
226.0619	7	C9H11ClN4O+
256.0595	999	C9H11ClN5O2+
