Mass spectrum: Methocarbamol; LC-ESI-ITFT; MS2; CE: 95%; R=15000; [M+H]+
Name: Methocarbamol
Name: [2-hydroxy-3-(2-methoxyphenoxy)propyl] carbamate
Formula: C11H15NO5
Exact mass: 241.0950
SMILES: COC1=C(OCC(O)COC(N)=O)C=CC=C1
InChI: InChI=1S/C11H15NO5/c1-15-9-4-2-3-5-10(9)16-6-8(13)7-17-11(12)14/h2-5,8,13H,6-7H2,1H3,(H2,12,14)
Instrument: LTQ Orbitrap XL Thermo Scientific
Instrument type: LC-ESI-ITFT
Ms type: MS2
Ion mode: POSITIVE
Ionization: ESI
Fragmentation mode: HCD
Collision energy: 95 % (nominal)
Resolution: 15000
Column name: Kinetex Evo C18 2.6 um 50 x 2.1 mm
Retention time: 7.018 min
Base peak: 264.0843
Precursor m/z: 242.1023
Precursor type: [M+H]+
m/z	relative intensity	assigned
57.0333	64	C3H5O+
62.0235	167	CH4NO2+
65.0385	378	C5H5+
77.0385	966	C6H5+
79.0542	490	C6H7+
91.0542	469	C7H7+
93.0335	152	C6H5O+
93.0697	52	C7H9+
95.0491	429	C6H7O+
103.0541	665	C8H7+
105.0698	373	C8H9+
107.0489	84	C7H7O+
109.0287	56	C6H5O2+
110.0362	449	C6H6O2+
111.0441	68	C6H7O2+
115.0538	43	C9H7+
118.0498	86	C4H8NO3+
120.0571	125	C8H8O+
121.0283	504	C7H5O2+
121.0649	37	C8H9O+
122.0361	999	C7H6O2+
124.0519	35	C7H8O2+
135.0801	68	C9H11O+
