Mass spectrum: Cyclophosphamide; LC-ESI-ITFT; MS2; CE: 55; R=15000; [M+H]+
Name: Cyclophosphamide
Name: N,N-Bis(2-chloroethyl)-2-oxo-1,3,2$l^{5}-oxazaphosphinan-2-amine
Formula: C7H15Cl2N2O2P
Exact mass: 260.0248
SMILES: ClCCN(CCCl)P1(=O)NCCCO1
InChI: InChI=1S/C7H15Cl2N2O2P/c8-2-5-11(6-3-9)14(12)10-4-1-7-13-14/h1-7H2,(H,10,12)
Instrument: LTQ Orbitrap XL Thermo Scientific
Instrument type: LC-ESI-ITFT
Ms type: MS2
Ion mode: POSITIVE
Ionization: ESI
Fragmentation mode: CID
Collision energy: 55 (nominal)
Resolution: 15000
Column name: Kinetex Core-Shell C18 2.6 um, 3.0 x 100 mm, Phenomenex
Retention time: 20.254 min
Base peak: 261.0332
Precursor m/z: 261.0321
Precursor type: [M+H]+
m/z	relative intensity	assigned
106.0423	518	ClH12N2P+
110.0003	3	C2H5ClNO2+
120.0216	27	CH10Cl2N2+
140.0036	999	Cl2H11N2P+
142.0192	398	Cl2H13N2P+
155.9988	6	Cl2H11N2OP+
185.0254	28	C3H16Cl2O2P+
197.0263	4	C4H16Cl2O2P+
199.0411	19	C2H16Cl2N3OP+
