Mass spectrum: N-Isopropyl-N-phenyl-p-phenylenediamine; LC-ESI-ITFT; MS2; CE: 55; R=15000; [M+H]+
Name: N-Isopropyl-N-phenyl-p-phenylenediamine
Name: 1-N-Phenyl-4-N-propan-2-ylbenzene-1,4-diamine
Formula: C15H18N2
Exact mass: 226.1470
SMILES: CC(C)Nc1ccc(Nc2ccccc2)cc1
InChI: InChI=1S/C15H18N2/c1-12(2)16-14-8-10-15(11-9-14)17-13-6-4-3-5-7-13/h3-12,16-17H,1-2H3
Instrument: LTQ Orbitrap XL Thermo Scientific
Instrument type: LC-ESI-ITFT
Ms type: MS2
Ion mode: POSITIVE
Ionization: ESI
Fragmentation mode: CID
Collision energy: 55 (nominal)
Resolution: 15000
Column name: Kinetex Core-Shell C18 2.6 um, 3.0 x 100 mm, Phenomenex
Retention time: 12.896 min
Base peak: 227.1549
Precursor m/z: 227.1543
Precursor type: [M+H]+
m/z	relative intensity	assigned
103.0546	1	C8H7+
118.0655	1	C8H8N+
120.0812	999	C8H10N+
129.0704	8	C10H9+
143.0858	2	C11H11+
155.0854	1	C12H11+
157.1019	2	C12H13+
165.0707	1	C13H9+
168.0812	1	C12H10N+
178.0784	58	C14H10+
181.102	2	C14H13+
182.097	8	C13H12N+
183.1176	3	C14H15+
192.0928	1	C15H12+
193.1019	129	C15H13+
194.0974	2	C14H12N+
195.105	47	C14H13N+
208.113	8	C15H14N+
210.1286	57	C15H16N+
227.155	1	C15H19N2+
