Mass spectrum: 7-Hydroxy-4-methylcoumarin; LC-ESI-ITFT; MS2; CE: 55; R=15000; [M-H]-
Name: 7-Hydroxy-4-methylcoumarin
Name: 4-Methylumbelliferone
Name: 7-Hydroxy-4-methylchromen-2-one
Formula: C10H8O3
Exact mass: 176.0473
SMILES: CC1=CC(=O)OC2=CC(O)=CC=C12
InChI: InChI=1S/C10H8O3/c1-6-4-10(12)13-9-5-7(11)2-3-8(6)9/h2-5,11H,1H3
Instrument: LTQ Orbitrap XL Thermo Scientific
Instrument type: LC-ESI-ITFT
Ms type: MS2
Ion mode: NEGATIVE
Ionization: ESI
Fragmentation mode: CID
Collision energy: 55 (nominal)
Resolution: 15000
Column name: Kinetex Core-Shell C18 2.6 um, 3.0 x 100 mm, Phenomenex
Retention time: 20.052 min
Base peak: 212.9994
Precursor m/z: 175.0401
Precursor type: [M-H]-
m/z	relative intensity	assigned
131.0503	999	C9H7O-
