Mass spectrum: Verapamil; LC-ESI-ITFT; MS2; CE: 80; R=15000; [M+H]+
Name: Verapamil
Name: 2-(3,4-Dimethoxyphenyl)-5-[2-(3,4-dimethoxyphenyl)ethyl-methylamino]-2-propan-2-ylpentanenitrile
Formula: C27H38N2O4
Exact mass: 454.2832
SMILES: COC1=CC=C(CCN(C)CCCC(C#N)(C(C)C)C2=CC(OC)=C(OC)C=C2)C=C1OC
InChI: InChI=1S/C27H38N2O4/c1-20(2)27(19-28,22-10-12-24(31-5)26(18-22)33-7)14-8-15-29(3)16-13-21-9-11-23(30-4)25(17-21)32-6/h9-12,17-18,20H,8,13-16H2,1-7H3
Instrument: LTQ Orbitrap XL Thermo Scientific
Instrument type: LC-ESI-ITFT
Ms type: MS2
Ion mode: POSITIVE
Ionization: ESI
Fragmentation mode: HCD
Collision energy: 80 (nominal)
Resolution: 15000
Column name: Kinetex Core-Shell C18 2.6 um, 3.0 x 100 mm, Phenomenex
Retention time: 20.942 min
Base peak: 455.29
Precursor m/z: 455.2904
Precursor type: [M+H]+
m/z	relative intensity	assigned
77.0386	69	C6H5+
79.0543	273	C6H7+
84.0809	41	C5H10N+
86.0965	11	C5H12N+
91.0543	140	C7H7+
94.0653	11	C6H8N+
95.0854	9	C7H11+
96.081	6	C6H10N+
103.0543	270	C8H7+
104.0621	77	C8H8+
105.0699	517	C8H9+
107.0492	214	C7H7O+
109.0648	28	C7H9O+
118.0415	141	C8H6O+
119.0492	153	C8H7O+
120.0571	134	C8H8O+
121.0649	336	C8H9O+
122.0728	100	C8H10O+
122.0965	9	C8H12N+
123.0806	5	C8H11O+
124.052	25	C7H8O2+
131.0493	70	C9H7O+
132.0571	24	C9H8O+
133.0649	244	C9H9O+
133.0762	23	C8H9N2+
134.0728	515	C9H10O+
135.0441	479	C8H7O2+
135.0805	91	C9H11O+
136.0519	36	C8H8O2+
137.0599	51	C8H9O2+
138.0676	41	C8H10O2+
139.0754	14	C8H11O2+
146.0729	38	C10H10O+
149.0599	85	C9H9O2+
150.0677	999	C9H10O2+
151.0754	146	C9H11O2+
152.0831	36	C9H12O2+
164.0833	12	C10H12O2+
165.0912	479	C10H13O2+
166.094	8	C5H14N2O4+
176.0709	31	C10H10NO2+
177.0915	40	C11H13O2+
186.0922	9	C12H12NO+
187.0996	21	C12H13NO+
190.0855	7	C11H12NO2+
191.1071	19	C12H15O2+
202.0863	33	C12H12NO2+
203.0944	15	C12H13NO2+
218.1182	13	C13H16NO2+
244.1334	6	C15H18NO2+
