Mass spectrum: Genistein; LC-ESI-ITFT; MS2; CE: 80; R=15000; [M+H]+
Name: Genistein
Name: 5,7-Dihydroxy-3-(4-hydroxyphenyl)chromen-4-one
Formula: C15H10O5
Exact mass: 270.0528
SMILES: OC1=CC=C(C=C1)C1=COC2=CC(O)=CC(O)=C2C1=O
InChI: InChI=1S/C15H10O5/c16-9-3-1-8(2-4-9)11-7-20-13-6-10(17)5-12(18)14(13)15(11)19/h1-7,16-18H
Instrument: LTQ Orbitrap XL Thermo Scientific
Instrument type: LC-ESI-ITFT
Ms type: MS2
Ion mode: POSITIVE
Ionization: ESI
Fragmentation mode: HCD
Collision energy: 80 (nominal)
Resolution: 15000
Column name: Kinetex Core-Shell C18 2.6 um, 3.0 x 100 mm, Phenomenex
Retention time: 22.703 min
Base peak: 361.2
Precursor m/z: 271.0601
Precursor type: [M+H]+
m/z	relative intensity	assigned
89.0385	26	C7H5+
91.0541	999	C7H7+
95.0127	26	C5H3O2+
105.0333	16	C7H5O+
105.0699	9	C8H9+
107.049	94	C7H7O+
109.0283	14	C6H5O2+
111.0076	23	C5H3O3+
115.0541	102	C9H7+
117.0698	32	C9H9+
119.049	267	C8H7O+
121.0283	124	C7H5O2+
128.0619	27	C10H8+
129.0697	27	C10H9+
131.049	101	C9H7O+
131.0854	33	C10H11+
133.0281	5	C8H5O2+
133.0646	7	C9H9O+
135.044	45	C8H7O2+
137.0232	26	C7H5O3+
141.0697	322	C11H9+
145.0283	79	C9H5O2+
145.0647	49	C10H9O+
147.0439	50	C9H7O2+
147.0804	23	C10H11O+
149.0232	145	C8H5O3+
152.0619	27	C12H8+
153.0181	986	C7H5O4+
155.0489	55	C11H7O+
157.0646	17	C11H9O+
159.0439	76	C10H7O2+
159.0803	38	C11H11O+
165.0181	51	C8H5O4+
169.0646	279	C12H9O+
173.0596	37	C11H9O2+
175.075	19	C11H11O2+
178.0258	8	C9H6O4+
181.0646	12	C13H9O+
183.0286	6	C8H7O5+
183.044	44	C12H7O2+
185.0598	20	C12H9O2+
187.0386	24	C11H7O3+
187.0752	52	C12H11O2+
191.0338	28	C10H7O4+
197.0595	304	C13H9O2+
200.0466	66	C12H8O3+
201.0546	27	C12H9O3+
211.0389	12	C13H7O3+
213.0542	43	C13H9O3+
215.07	301	C13H11O3+
225.0544	34	C14H9O3+
226.0625	18	C14H10O3+
227.0708	4	C14H11O3+
228.0413	17	C13H8O4+
229.05	7	C13H9O4+
241.0493	8	C14H9O4+
242.057	30	C14H10O4+
243.065	142	C14H11O4+
253.0494	124	C15H9O4+
271.0599	104	C15H11O5+
