Mass spectrum: Chlorfenvinphos; LC-ESI-ITFT; MS2; CE: 10%; R=15000; [M+H]+
Name: Chlorfenvinphos
Name: Clofenvinfos
Name: [2-chloro-1-(2,4-dichlorophenyl)ethenyl] diethyl phosphate
Formula: C12H14Cl3O4P
Exact mass: 357.969528598
SMILES: CCOP(=O)(OCC)OC(=CCl)C1=C(Cl)C=C(Cl)C=C1
InChI: InChI=1S/C12H14Cl3O4P/c1-3-17-20(16,18-4-2)19-12(8-13)10-6-5-9(14)7-11(10)15/h5-8H,3-4H2,1-2H3
Instrument: LTQ Orbitrap XL Thermo Scientific
Instrument type: LC-ESI-ITFT
Ms type: MS2
Ion mode: POSITIVE
Ionization: ESI
Fragmentation mode: HCD
Collision energy: 10 % (nominal)
Resolution: 15000
Column name: Kinetex Evo C18 2.6 um 50 x 2.1 mm
Retention time: 12.502 min
Base peak: 326.1762
Precursor m/z: 358.9768
Precursor type: [M+H]+
Precursor intensity: 6870702.5
m/z	relative intensity	assigned
98.9844	233	CH4ClO3+
127.0157	481	C3H8ClO3+
155.0471	856	C5H12ClO3+
358.9773	999	C12H15Cl3O4P+
