Mass spectrum: Pindolol; LC-ESI-ITFT; MS2; CE: 80%; R=15000; [M+H]+
Name: Pindolol
Name: 1-(1H-indol-4-yloxy)-3-(propan-2-ylamino)propan-2-ol
Formula: C14H20N2O2
Exact mass: 248.15247788
SMILES: CC(C)NCC(O)COC1=CC=CC2=C1C=CN2
InChI: InChI=1S/C14H20N2O2/c1-10(2)16-8-11(17)9-18-14-5-3-4-13-12(14)6-7-15-13/h3-7,10-11,15-17H,8-9H2,1-2H3
Instrument: LTQ Orbitrap XL Thermo Scientific
Instrument type: LC-ESI-ITFT
Ms type: MS2
Ion mode: POSITIVE
Ionization: ESI
Fragmentation mode: HCD
Collision energy: 80 % (nominal)
Resolution: 15000
Column name: Kinetex Evo C18 2.6 um 50 x 2.1 mm
Retention time: 1.051 min
Base peak: 152.144
Precursor m/z: 249.1598
Precursor type: [M+H]+
Precursor intensity: 14101574
m/z	relative intensity	assigned
56.0493	759	C3H6N+
58.0649	233	C3H8N+
60.0806	6	C3H10N+
72.0807	680	C4H10N+
74.06	999	C3H8NO+
84.0808	28	C5H10N+
91.0543	54	C7H7+
98.0965	177	C6H12N+
100.1121	190	C6H14N+
104.0496	55	C7H6N+
106.0652	98	C7H8N+
107.0492	28	C7H7O+
115.0543	31	C9H7+
116.0495	41	C8H6N+
116.107	718	C6H14NO+
117.0574	53	C8H7N+
117.0699	180	C9H9+
118.0652	431	C8H8N+
130.0652	58	C9H8N+
132.0444	77	C8H6NO+
132.0809	54	C9H10N+
133.0523	52	C8H7NO+
134.0601	753	C8H8NO+
143.073	72	C10H9N+
144.0809	798	C10H10N+
145.0649	16	C10H9O+
146.0601	303	C9H8NO+
154.0654	28	C11H8N+
155.0604	55	C10H7N2+
157.0523	25	C10H7NO+
160.0758	36	C10H10NO+
170.0595	6	C11H8NO+
171.0679	11	C11H9NO+
172.0758	151	C11H10NO+
