Mass spectrum: Thiacloprid; LC-ESI-ITFT; MS2; CE: 55; R=15000; [M+H]+
Name: Thiacloprid
Formula: C10H9ClN4S
Exact mass: 252.0236
SMILES: C1CSC(=NC#N)N1CC2=CN=C(C=C2)Cl
InChI: InChI=1S/C10H9ClN4S/c11-9-2-1-8(5-13-9)6-15-3-4-16-10(15)14-7-12/h1-2,5H,3-4,6H2
Instrument: LTQ Orbitrap XL Thermo Scientific
Instrument type: LC-ESI-ITFT
Ms type: MS2
Ion mode: POSITIVE
Ionization: ESI
Fragmentation mode: CID
Collision energy: 55 (nominal)
Resolution: 15000
Column name: Kinetex Core-Shell C18 2.6 um, 3.0 x 100 mm, Phenomenex
Retention time: 19.570 min
Base peak: 163.1327
Precursor m/z: 253.0309
Precursor type: [M+H]+
m/z	relative intensity	assigned
90.0338	7	C6H4N+
103.0325	1	C3H7N2S+
126.0104	999	C6H5ClN+
128.0259	4	C6H7ClN+
141.0215	2	C6H6ClN2+
151.0058	34	C7H4ClN2+
157.0509	14	C8H5N4+
158.0714	2	C9H8N3+
166.0169	4	C7H5ClN3+
186.0138	561	C8H9ClNS+
190.0433	28	C9H8N3S+
193.0275	52	C8H6ClN4+
194.048	38	C9H9ClN3+
205.0277	17	C9H6ClN4+
209.9886	1	C8H5ClN3S+
211.0091	177	C9H8ClN2S+
217.0541	237	C10H9N4S+
218.0623	5	C10H10N4S+
220.051	2	C10H9ClN4+
224.9991	3	C8H6ClN4S+
226.02	397	C9H9ClN3S+
236.0043	103	C10H7ClN3S+
