Mass spectrum: Oxazepam; LC-ESI-ITFT; MS2; CE: 80%; R=15000; [M+H]+
Name: Oxazepam
Name: 7-chloro-3-hydroxy-5-phenyl-1,3-dihydro-1,4-benzodiazepin-2-one
Formula: C15H11ClN2O2
Exact mass: 286.050905272
SMILES: OC1N=C(C2=CC=CC=C2)C2=C(NC1=O)C=CC(Cl)=C2
InChI: InChI=1S/C15H11ClN2O2/c16-10-6-7-12-11(8-10)13(9-4-2-1-3-5-9)18-15(20)14(19)17-12/h1-8,15,20H,(H,17,19)
Instrument: LTQ Orbitrap XL Thermo Scientific
Instrument type: LC-ESI-ITFT
Ms type: MS2
Ion mode: POSITIVE
Ionization: ESI
Fragmentation mode: HCD
Collision energy: 80 % (nominal)
Resolution: 15000
Column name: Kinetex Evo C18 2.6 um 50 x 2.1 mm
Retention time: 10.194 min
Base peak: 287.0591
Precursor m/z: 287.0582
Precursor type: [M+H]+
Precursor intensity: 17547636
m/z	relative intensity	assigned
77.0386	26	C6H5+
79.0542	13	C6H7+
90.0342	3	C6H4N+
92.0496	3	C6H6N+
93.0574	200	C6H7N+
98.9998	4	C5H4Cl+
104.0496	999	C7H6N+
105.0447	21	C6H5N2+
110.9998	4	C6H4Cl+
117.0448	5	C7H5N2+
118.0526	64	C7H6N2+
126.0106	32	C6H5ClN+
128.0263	173	C6H7ClN+
129.0448	4	C8H5N2+
138.0107	91	C7H5ClN+
139.0059	45	C6H4ClN2+
151.0543	6	C12H7+
152.014	8	C7H5ClN2+
152.062	8	C12H8+
153.0215	237	C7H6ClN2+
156.0212	2	C7H7ClNO+
163.0059	381	C8H4ClN2+
164.0012	39	C10N2O+
166.0056	27	C8H5ClNO+
178.0652	14	C13H8N+
179.0005	6	C8H4ClN2O+
179.0608	3	C12H7N2+
179.0733	15	C13H9N+
180.081	3	C13H10N+
181.0164	8	C8H6ClN2O+
181.0891	2	C13H11N+
194.0839	2	C13H10N2+
195.0918	55	C13H11N2+
205.0762	38	C14H9N2+
206.0841	16	C14H10N2+
214.042	38	C13H9ClN+
224.0257	2	C14H7ClN+
229.0529	73	C13H10ClN2+
231.0685	57	C13H12ClN2+
239.0371	8	C14H8ClN2+
240.0459	2	C14H9ClN2+
241.0529	891	C14H10ClN2+
257.0479	44	C14H10ClN2O+
269.0484	4	C15H10ClN2O+
