Mass spectrum: Metconazole; LC-ESI-ITFT; MS2; CE: 50%; R=15000; [M+H]+
Name: Metconazole
Name: 5-[(4-chlorophenyl)methyl]-2,2-dimethyl-1-(1,2,4-triazol-1-ylmethyl)cyclopentan-1-ol
Formula: C17H22ClN3O
Exact mass: 319.145140004
SMILES: CC1(C)CCC(CC2=CC=C(Cl)C=C2)C1(O)CN1C=NC=N1
InChI: InChI=1S/C17H22ClN3O/c1-16(2)8-7-14(9-13-3-5-15(18)6-4-13)17(16,22)10-21-12-19-11-20-21/h3-6,11-12,14,22H,7-10H2,1-2H3
Instrument: LTQ Orbitrap XL Thermo Scientific
Instrument type: LC-ESI-ITFT
Ms type: MS2
Ion mode: POSITIVE
Ionization: ESI
Fragmentation mode: HCD
Collision energy: 50 % (nominal)
Resolution: 15000
Column name: Kinetex Evo C18 2.6 um 50 x 2.1 mm
Retention time: 12.412 min
Base peak: 320.1534
Precursor m/z: 320.1524
Precursor type: [M+H]+
Precursor intensity: 20203934
m/z	relative intensity	assigned
59.0491	1	C3H7O+
69.0696	2	C5H9+
70.0398	999	C2H4N3+
81.0698	3	C6H9+
95.0855	20	C7H11+
107.0856	6	C8H11+
109.1011	2	C8H13+
125.0152	118	C7H6Cl+
139.0308	8	C8H8Cl+
151.0309	4	C9H8Cl+
163.031	6	C10H8Cl+
177.0465	21	C11H10Cl+
191.062	7	C12H12Cl+
233.1089	8	C15H18Cl+
320.1526	14	C17H23ClN3O+
