Mass spectrum: Ofloxacin; LC-ESI-ITFT; MS2; CE: 55; R=15000; [M+H]+
Name: Ofloxacin
Formula: C18H20FN3O4
Exact mass: 361.1438
SMILES: CC1COC2=C3N1C=C(C(O)=O)C(=O)C3=CC(F)=C2N1CCN(C)CC1
InChI: InChI=1S/C18H20FN3O4/c1-10-9-26-17-14-11(16(23)12(18(24)25)8-22(10)14)7-13(19)15(17)21-5-3-20(2)4-6-21/h7-8,10H,3-6,9H2,1-2H3,(H,24,25)
Instrument: LTQ Orbitrap XL Thermo Scientific
Instrument type: LC-ESI-ITFT
Ms type: MS2
Ion mode: POSITIVE
Ionization: ESI
Fragmentation mode: HCD
Collision energy: 55 (nominal)
Resolution: 15000
Column name: Kinetex Core-Shell C18 2.6 um, 3.0 x 100 mm, Phenomenex
Retention time: 15.858 min
Base peak: 163.1328
Precursor m/z: 362.1511
Precursor type: [M+H]+
m/z	relative intensity	assigned
70.0651	19	C4H8N+
72.0808	14	C4H10N+
82.0651	3	C5H8N+
84.0809	10	C5H10N+
150.0345	1	C8H5FNO+
171.0554	2	C10H7N2O+
178.0302	6	C9H5FNO2+
179.038	12	C9H6FNO2+
180.0458	3	C9H7FNO2+
188.0505	1	C11H7FNO+
192.046	5	C10H7FNO2+
193.0409	11	C9H6FN2O2+
194.0245	2	C9H5FNO3+
194.0491	1	C9H7FN2O2+
194.0612	3	C10H9FNO2+
195.0566	2	C9H8FN2O2+
199.0507	12	C11H7N2O2+
200.0581	2	C11H8N2O2+
202.0667	6	C12H9FNO+
203.0385	2	C11H6FNO2+
203.0618	2	C11H8FN2O+
204.0459	4	C11H7FNO2+
205.0411	27	C10H6FN2O2+
205.0775	34	C11H10FN2O+
206.0482	1	C10H7FN2O2+
217.0415	4	C11H6FN2O2+
218.0486	4	C11H7FN2O2+
218.061	2	C12H9FNO2+
219.0567	70	C11H8FN2O2+
219.0694	6	C12H10FNO2+
220.0646	11	C11H9FN2O2+
220.0771	4	C12H11FNO2+
221.0723	114	C11H10FN2O2+
231.0572	2	C12H8FN2O2+
232.0647	2	C12H9FN2O2+
233.0724	38	C12H10FN2O2+
233.0855	10	C13H12FNO2+
234.0795	2	C12H11FN2O2+
243.0938	2	C14H12FN2O+
245.0722	11	C13H10FN2O2+
247.0881	46	C13H12FN2O2+
253.1212	1	C15H15N3O+
254.0938	2	C16H14O3+
261.1036	999	C14H14FN2O2+
298.1566	6	C14H21FN3O3+
316.1462	30	C17H19FN3O2+
318.1617	95	C17H21FN3O2+
344.1412	38	C18H19FN3O3+
362.1516	19	C18H21FN3O4+
