Mass spectrum: Progesterone; LC-ESI-ITFT; MS2; CE: 80; R=15000; [M+H]+
Name: Progesterone
Name: (8S,9S,10R,13S,14S,17S)-17-Acetyl-10,13-dimethyl-1,2,6,7,8,9,11,12,14,15,16,17-dodecahydrocyclopenta[a]phenanthren-3-one
Formula: C21H30O2
Exact mass: 314.2246
SMILES: CC(=O)[C@H]1CC[C@H]2[C@@H]3CCC4=CC(=O)CC[C@]4(C)[C@H]3CC[C@]12C
InChI: InChI=1S/C21H30O2/c1-13(22)17-6-7-18-16-5-4-14-12-15(23)8-10-20(14,2)19(16)9-11-21(17,18)3/h12,16-19H,4-11H2,1-3H3/t16-,17+,18-,19-,20-,21+/m0/s1
Instrument: LTQ Orbitrap XL Thermo Scientific
Instrument type: LC-ESI-ITFT
Ms type: MS2
Ion mode: POSITIVE
Ionization: ESI
Fragmentation mode: HCD
Collision energy: 80 (nominal)
Resolution: 15000
Column name: Kinetex Core-Shell C18 2.6 um, 3.0 x 100 mm, Phenomenex
Retention time: 26.182 min
Base peak: 315.2309
Precursor m/z: 315.2319
Precursor type: [M+H]+
m/z	relative intensity	assigned
77.0383	13	C6H5+
79.054	149	C6H7+
81.0697	157	C6H9+
83.049	34	C5H7O+
85.065	4	C5H9O+
91.054	63	C7H7+
93.0697	65	C7H9+
95.0853	78	C7H11+
97.0645	897	C6H9O+
105.0696	77	C8H9+
107.0853	37	C8H11+
109.0645	999	C7H9O+
111.0799	5	C7H11O+
117.0695	20	C9H9+
119.0853	52	C9H11+
121.0644	15	C8H9O+
121.101	21	C9H13+
123.0802	155	C8H11O+
131.0852	42	C10H11+
133.101	31	C10H13+
135.1164	6	C10H15+
143.0852	16	C11H11+
145.1009	37	C11H13+
147.1167	13	C11H15+
149.0962	5	C10H13O+
149.1326	4	C11H17+
155.0854	7	C12H11+
157.1009	11	C12H13+
159.1166	19	C12H15+
163.1117	6	C11H15O+
171.1166	10	C13H15+
173.1322	13	C13H17+
183.117	4	C14H15+
197.1324	5	C15H17+
