Mass spectrum: Paroxetine; LC-ESI-ITFT; MS2; CE: 55; R=15000; [M+H]+
Name: Paroxetine
Name: 3-(1,3-Benzodioxol-5-yloxymethyl)-4-(4-fluorophenyl)piperidine
Formula: C19H20FNO3
Exact mass: 329.1427
SMILES: FC1=CC=C(C=C1)C1CCNCC1COC1=CC2=C(OCO2)C=C1
InChI: InChI=1S/C19H20FNO3/c20-15-3-1-13(2-4-15)17-7-8-21-10-14(17)11-22-16-5-6-18-19(9-16)24-12-23-18/h1-6,9,14,17,21H,7-8,10-12H2
Instrument: LTQ Orbitrap XL Thermo Scientific
Instrument type: LC-ESI-ITFT
Ms type: MS2
Ion mode: POSITIVE
Ionization: ESI
Fragmentation mode: CID
Collision energy: 55 (nominal)
Resolution: 15000
Column name: Kinetex Core-Shell C18 2.6 um, 3.0 x 100 mm, Phenomenex
Retention time: 21.605 min
Base peak: 330.1499
Precursor m/z: 330.15
Precursor type: [M+H]+
m/z	relative intensity	assigned
103.0544	3	C8H7+
109.0449	44	C7H6F+
115.0544	3	C9H7+
123.0442	19	C7H7O2+
123.0606	35	C8H8F+
135.0442	8	C8H7O2+
135.0607	18	C9H8F+
137.0763	18	C9H10F+
138.072	3	C8H9FN+
139.039	2	C7H7O3+
147.0607	23	C10H8F+
149.0764	7	C10H10F+
150.0717	2	C9H9FN+
151.0391	230	C8H7O3+
160.0686	4	C11H9F+
161.0599	12	C10H9O2+
161.0763	5	C11H10F+
163.092	56	C11H12F+
164.0874	2	C10H11FN+
165.0547	3	C9H9O3+
175.0393	6	C10H7O3+
175.092	70	C12H12F+
176.1	3	C12H13F+
177.0551	4	C10H9O3+
178.1029	28	C11H13FN+
180.1182	2	C11H15FN+
187.0761	2	C9H12FO3+
190.1029	39	C12H13FN+
191.0703	3	C11H11O3+
192.1185	999	C12H15FN+
193.1265	14	C12H16FN+
203.0704	1	C12H11O3+
208.1135	51	C12H15FNO+
217.086	4	C13H13O3+
234.1131	6	C13H16NO3+
255.0828	2	C16H12FO2+
255.1177	2	C17H16FO+
257.0978	1	C16H14FO2+
269.0975	6	C17H14FO2+
271.0761	2	C16H12FO3+
282.1294	2	C18H17FNO+
283.1134	12	C18H16FO2+
285.0933	4	C17H14FO3+
300.14	11	C18H19FNO2+
302.1555	5	C18H21FNO2+
312.1385	2	C19H19FNO2+
313.124	141	C19H18FO3+
