Mass spectrum: Finasteride; LC-ESI-ITFT; MS2; CE: 55; R=15000; [M+H]+
Name: Finasteride
Name: (1S,3aS,3bS,5aR,9aR,9bS,11aS)-N-Tert-butyl-9a,11a-dimethyl-7-oxo-1,2,3,3a,3b,4,5,5a,6,9b,10,11-dodecahydroindeno[5,4-f]quinoline-1-carboxamide
Formula: C23H36N2O2
Exact mass: 372.2777
SMILES: CC(C)(C)NC(=O)[C@H]1CC[C@H]2[C@@H]3CC[C@H]4NC(=O)C=C[C@]4(C)[C@H]3CC[C@]12C
InChI: InChI=1S/C23H36N2O2/c1-21(2,3)25-20(27)17-8-7-15-14-6-9-18-23(5,13-11-19(26)24-18)16(14)10-12-22(15,17)4/h11,13-18H,6-10,12H2,1-5H3,(H,24,26)(H,25,27)/t14-,15-,16-,17+,18+,22-,23+/m0/s1
Instrument: LTQ Orbitrap XL Thermo Scientific
Instrument type: LC-ESI-ITFT
Ms type: MS2
Ion mode: POSITIVE
Ionization: ESI
Fragmentation mode: HCD
Collision energy: 55 (nominal)
Resolution: 15000
Column name: Kinetex Core-Shell C18 2.6 um, 3.0 x 100 mm, Phenomenex
Retention time: 25.045 min
Base peak: 163.1328
Precursor m/z: 373.285
Precursor type: [M+H]+
m/z	relative intensity	assigned
70.0649	1	C4H8N+
72.0444	9	C3H6NO+
77.0387	1	C6H5+
79.0543	13	C6H7+
81.07	31	C6H9+
83.0857	2	C6H11+
86.0602	9	C4H8NO+
91.0544	10	C7H7+
93.07	29	C7H9+
95.0856	91	C7H11+
96.0445	9	C5H6NO+
96.089	5	C2H12N2O2+
98.0602	25	C5H8NO+
105.07	16	C8H9+
107.0857	30	C8H11+
108.0811	1	C7H10N+
109.0649	2	C7H9O+
109.1013	14	C8H13+
110.0602	11	C6H8NO+
112.0759	1	C6H10NO+
117.0701	2	C9H9+
119.0857	17	C9H11+
121.065	2	C8H9O+
121.1014	32	C9H13+
122.0602	8	C7H8NO+
124.0759	9	C7H10NO+
126.0916	8	C7H12NO+
129.07	1	C10H9+
131.0857	10	C10H11+
133.1014	30	C10H13+
135.1171	21	C10H15+
136.0759	4	C8H10NO+
138.0917	10	C8H12NO+
143.0858	9	C11H11+
145.1014	23	C11H13+
147.0807	4	C10H11O+
147.117	30	C11H15+
148.1205	2	C6H16N2O2+
149.0962	3	C10H13O+
149.1327	11	C11H17+
150.0915	3	C9H12NO+
152.1072	4	C9H14NO+
155.0858	3	C12H11+
157.1014	6	C12H13+
159.0807	2	C11H11O+
159.1171	12	C12H15+
161.0964	11	C11H13O+
161.1329	12	C12H17+
163.1121	3	C11H15O+
164.1073	6	C10H14NO+
166.123	3	C10H16NO+
169.1016	1	C13H13+
171.1174	6	C13H15+
173.0969	2	C12H13O+
173.1329	23	C13H17+
175.112	6	C12H15O+
175.1484	82	C13H19+
176.1072	5	C11H14NO+
177.1641	12	C13H21+
178.1229	6	C11H16NO+
180.1384	4	C11H18NO+
181.1014	3	C14H13+
183.1174	6	C14H15+
185.1327	25	C14H17+
187.1484	32	C14H19+
189.1641	49	C14H21+
190.1675	6	C9H22N2O2+
192.139	3	C12H18NO+
195.1172	7	C15H15+
197.1327	7	C15H17+
199.112	3	C14H15O+
199.1487	5	C15H19+
201.1277	6	C14H17O+
201.1639	5	C15H21+
203.1435	11	C14H19O+
203.1799	3	C15H23+
204.1751	1	C14H22N+
209.1329	2	C16H17+
211.1482	6	C16H19+
213.1277	2	C15H17O+
213.1642	15	C16H21+
215.1434	18	C15H19O+
215.1799	8	C16H23+
220.17	34	C14H22NO+
222.1856	2	C14H24NO+
227.1433	1	C16H19O+
227.1799	15	C17H23+
229.1593	1	C16H21O+
229.1955	6	C17H25+
232.1701	16	C15H22NO+
234.1847	1	C15H24NO+
237.1642	23	C18H21+
239.1799	10	C18H23+
241.1595	2	C17H21O+
246.1864	2	C16H24NO+
247.1475	1	C19H19+
249.1966	29	C15H25N2O+
254.1909	11	C18H24N+
255.1749	37	C18H23O+
256.2068	6	C18H26N+
257.1909	5	C18H25O+
258.1859	3	C17H24NO+
265.1597	4	C19H21O+
272.2013	21	C18H26NO+
274.2171	20	C18H28NO+
276.2318	2	C18H30NO+
282.1857	7	C19H24NO+
283.1695	7	C19H23O2+
288.2332	4	C19H30NO+
299.2129	6	C19H27N2O+
300.1965	5	C19H26NO2+
305.2594	838	C19H33N2O+
306.2628	170	C14H34N4O3+
317.2232	23	C19H29N2O2+
331.275	12	C21H35N2O+
355.275	26	C23H35N2O+
356.2781	6	C18H36N4O3+
357.2544	11	C22H33N2O2+
373.2855	999	C23H37N2O2+
