Mass spectrum: Clomazone; LC-ESI-ITFT; MS2; CE: 20%; R=15000; [M+H]+
Name: Clomazone
Name: 2-[(2-chlorophenyl)methyl]-4,4-dimethyl-1,2-oxazolidin-3-one
Formula: C12H14ClNO2
Exact mass: 239.071306368
SMILES: CC1(C)CON(CC2=CC=CC=C2Cl)C1=O
InChI: InChI=1S/C12H14ClNO2/c1-12(2)8-16-14(11(12)15)7-9-5-3-4-6-10(9)13/h3-6H,7-8H2,1-2H3
Instrument: LTQ Orbitrap XL Thermo Scientific
Instrument type: LC-ESI-ITFT
Ms type: MS2
Ion mode: POSITIVE
Ionization: ESI
Fragmentation mode: HCD
Collision energy: 20 % (nominal)
Resolution: 15000
Column name: Kinetex Evo C18 2.6 um 50 x 2.1 mm
Retention time: 10.552 min
Base peak: 240.0789
Precursor m/z: 240.0786
Precursor type: [M+H]+
Precursor intensity: 31458138
m/z	relative intensity	assigned
100.0753	2	C5H10NO+
114.0554	1	C5H8NO2+
125.0151	236	C7H6Cl+
128.0704	9	C6H10NO2+
240.0781	999	C12H15ClNO2+
