Mass spectrum: Triphenylphosphate; LC-ESI-ITFT; MS2; CE: 35; R=15000; [M+H]+
Name: Triphenylphosphate
Name: Triphenyl phosphate
Formula: C18H15O4P
Exact mass: 326.0708
SMILES: O=P(OC1=CC=CC=C1)(OC1=CC=CC=C1)OC1=CC=CC=C1
InChI: InChI=1S/C18H15O4P/c19-23(20-16-10-4-1-5-11-16,21-17-12-6-2-7-13-17)22-18-14-8-3-9-15-18/h1-15H
Instrument: LTQ Orbitrap XL Thermo Scientific
Instrument type: LC-ESI-ITFT
Ms type: MS2
Ion mode: POSITIVE
Ionization: ESI
Fragmentation mode: CID
Collision energy: 35 (nominal)
Resolution: 15000
Column name: Kinetex Core-Shell C18 2.6 um, 3.0 x 100 mm, Phenomenex
Retention time: 26.251 min
Base peak: 327.0788
Precursor m/z: 327.0781
Precursor type: [M+H]+
m/z	relative intensity	assigned
141.0708	3	C7H12NP+
152.0628	148	C12H8+
153.0706	254	C12H9+
179.0615	6	C10H12OP+
181.0773	4	C10H14OP+
202.0787	20	C16H10+
203.0868	4	C12H14NP+
215.0267	995	C12H8O2P+
227.0868	51	C14H14NP+
228.0944	321	C18H12+
229.1023	326	C18H13+
233.0373	999	C12H10O3P+
