Mass spectrum: Hydroxychloroquine; LC-ESI-ITFT; MS2; CE: 10%; R=15000; [M+H]+
Name: Hydroxychloroquine
Name: 2-[4-[(7-chloroquinolin-4-yl)amino]pentyl-ethylamino]ethanol
Formula: C18H26ClN3O
Exact mass: 335.176440132
SMILES: CCN(CCO)CCCC(C)NC1=C2C=CC(Cl)=CC2=NC=C1
InChI: InChI=1S/C18H26ClN3O/c1-3-22(11-12-23)10-4-5-14(2)21-17-8-9-20-18-13-15(19)6-7-16(17)18/h6-9,13-14,23H,3-5,10-12H2,1-2H3,(H,20,21)
Instrument: LTQ Orbitrap XL Thermo Scientific
Instrument type: LC-ESI-ITFT
Ms type: MS2
Ion mode: POSITIVE
Ionization: ESI
Fragmentation mode: HCD
Collision energy: 10 % (nominal)
Resolution: 15000
Column name: Kinetex Evo C18 2.6 um 50 x 2.1 mm
Retention time: 0.806 min
Base peak: 157.0355
Precursor m/z: 336.1837
Precursor type: [M+H]+
Precursor intensity: 1383088.25
m/z	relative intensity	assigned
336.1846	999	C18H27ClN3O+
