Mass spectrum: Velvione; LC-ESI-ITFT; MS2; CE: 30%; R=15000; [M+H]+
Name: Velvione
Name: cyclohexadec-5-en-1-one
Formula: C16H28O
Exact mass: 236.214015516
SMILES: O=C1CCCCCCCCCCC=CCCC1
InChI: InChI=1S/C16H28O/c17-16-14-12-10-8-6-4-2-1-3-5-7-9-11-13-15-16/h6,8H,1-5,7,9-15H2
Instrument: LTQ Orbitrap XL Thermo Scientific
Instrument type: LC-ESI-ITFT
Ms type: MS2
Ion mode: POSITIVE
Ionization: ESI
Fragmentation mode: HCD
Collision energy: 30 % (nominal)
Resolution: 15000
Column name: Kinetex Evo C18 2.6 um 50 x 2.1 mm
Retention time: 14.375 min
Base peak: 116.9859
Precursor m/z: 237.2213
Precursor type: [M+H]+
Precursor intensity: 652964.5
m/z	relative intensity	assigned
67.0541	33	C5H7+
81.07	160	C6H9+
83.0856	45	C6H11+
95.0858	97	C7H11+
97.1014	30	C7H13+
109.1016	60	C8H13+
121.1011	26	C9H13+
123.1169	116	C9H15+
135.1174	34	C10H15+
137.1323	55	C10H17+
149.1327	32	C11H17+
219.211	69	C16H27+
237.2216	999	C16H29O+
