Mass spectrum: Imazalil; LC-ESI-ITFT; MS2; CE: 80; R=15000; [M+H]+
Name: Imazalil
Name: 1-[2-(2,4-Dichlorophenyl)-2-prop-2-enoxyethyl]imidazole
Formula: C14H14Cl2N2O
Exact mass: 296.0483
SMILES: ClC1=CC=C(C(CN2C=CN=C2)OCC=C)C(Cl)=C1
InChI: InChI=1S/C14H14Cl2N2O/c1-2-7-19-14(9-18-6-5-17-10-18)12-4-3-11(15)8-13(12)16/h2-6,8,10,14H,1,7,9H2
Instrument: LTQ Orbitrap XL Thermo Scientific
Instrument type: LC-ESI-ITFT
Ms type: MS2
Ion mode: POSITIVE
Ionization: ESI
Fragmentation mode: HCD
Collision energy: 80 (nominal)
Resolution: 15000
Column name: Kinetex Core-Shell C18 2.6 um, 3.0 x 100 mm, Phenomenex
Retention time: 21.338 min
Base peak: 163.1326
Precursor m/z: 297.0556
Precursor type: [M+H]+
m/z	relative intensity	assigned
81.0446	141	C4H5N2+
109.076	42	C6H9N2+
141.0698	96	C11H9+
149.0149	13	C9H6Cl+
158.9761	999	C7H5Cl2+
164.0385	9	C10H9Cl+
172.9918	90	C8H7Cl2+
176.0387	33	C11H9Cl+
203.037	9	C11H8ClN2+
