Mass spectrum: Diazepam; LC-ESI-ITFT; MS2; CE: 70%; R=15000; [M+H]+
Name: Diazepam
Name: 7-chloro-1-methyl-5-phenyl-3H-1,4-benzodiazepin-2-one
Formula: C16H13ClN2O
Exact mass: 284.071640716
SMILES: CN1C2=C(C=C(Cl)C=C2)C(=NCC1=O)C1=CC=CC=C1
InChI: InChI=1S/C16H13ClN2O/c1-19-14-8-7-12(17)9-13(14)16(18-10-15(19)20)11-5-3-2-4-6-11/h2-9H,10H2,1H3
Instrument: LTQ Orbitrap XL Thermo Scientific
Instrument type: LC-ESI-ITFT
Ms type: MS2
Ion mode: POSITIVE
Ionization: ESI
Fragmentation mode: HCD
Collision energy: 70 % (nominal)
Resolution: 15000
Column name: Kinetex Evo C18 2.6 um 50 x 2.1 mm
Retention time: 10.936 min
Base peak: 372.2328
Precursor m/z: 285.0789
Precursor type: [M+H]+
Precursor intensity: 40472192
m/z	relative intensity	assigned
58.0285	29	C2H4NO+
77.0386	4	C6H5+
79.0541	4	C6H7+
89.0385	3	C7H5+
91.0542	212	C7H7+
104.0495	29	C7H6N+
105.0334	43	C7H5O+
105.0447	4	C6H5N2+
106.0652	6	C7H8N+
113.0153	8	C6H6Cl+
114.0105	3	C5H5ClN+
116.0494	54	C8H6N+
117.0572	80	C8H7N+
118.0651	45	C8H8N+
119.0608	3	C7H7N2+
119.0729	32	C8H9N+
125.0152	71	C7H6Cl+
126.0229	7	C7H7Cl+
127.0307	8	C7H8Cl+
131.0603	11	C8H7N2+
138.0107	14	C7H5ClN+
138.9948	9	C7H4ClO+
139.0181	15	C7H6ClN+
140.0261	18	C7H7ClN+
141.0339	35	C7H8ClN+
143.0604	29	C9H7N2+
144.0444	8	C9H6NO+
144.0682	32	C9H8N2+
145.0761	8	C9H9N2+
146.0603	4	C9H8NO+
147.0678	45	C9H9NO+
150.0105	41	C8H5ClN+
151.0185	6	C8H6ClN+
152.0263	33	C8H7ClN+
153.0217	2	C7H6ClN2+
154.0418	999	C8H9ClN+
164.026	6	C9H7ClN+
165.0212	9	C8H6ClN2+
165.0699	14	C13H9+
166.0289	3	C8H7ClN2+
166.0782	6	C13H10+
167.0132	80	C8H6ClNO+
168.0215	3	C8H7ClNO+
172.0631	139	C10H8N2O+
177.0213	23	C9H6ClN2+
179.037	126	C9H8ClN2+
180.021	72	C9H7ClNO+
180.0807	16	C13H10N+
181.0886	10	C13H11N+
182.0366	43	C9H9ClNO+
190.0659	2	C14H8N+
191.073	19	C14H9N+
192.0809	22	C14H10N+
193.0886	979	C14H11N+
194.0964	27	C14H12N+
195.1039	9	C14H13N+
204.0806	40	C15H10N+
205.0885	27	C15H11N+
206.0839	34	C14H10N2+
206.0965	6	C15H12N+
207.0319	4	C10H8ClN2O+
207.0917	60	C14H11N2+
208.1002	7	C14H12N2+
213.0326	2	C16H5O+
216.0574	62	C13H11ClN+
220.0995	12	C15H12N2+
221.0836	21	C15H11NO+
221.1073	87	C15H13N2+
222.1151	559	C15H14N2+
223.099	6	C15H13NO+
226.0417	26	C14H9ClN+
227.0496	101	C14H10ClN+
228.0574	300	C14H11ClN+
230.073	30	C14H13ClN+
239.0363	4	C14H8ClN2+
240.0575	22	C15H11ClN+
241.0527	227	C14H10ClN2+
242.0612	32	C14H11ClN2+
243.0691	5	C14H12ClN2+
249.1033	3	C16H13N2O+
255.0683	107	C15H12ClN2+
257.0838	149	C15H14ClN2+
269.0475	12	C15H10ClN2O+
285.0787	119	C16H14ClN2O+
