Mass spectrum: Cyclophosphamide; LC-ESI-ITFT; MS2; CE: 80%; R=15000; [M+H]+
Name: Cyclophosphamide
Name: N,N-bis(2-chloroethyl)-2-oxo-1,3,2lambda5-oxazaphosphinan-2-amine
Formula: C7H15Cl2N2O2P
Exact mass: 260.02481971
SMILES: ClCCN(CCCl)P1(=O)NCCCO1
InChI: InChI=1S/C7H15Cl2N2O2P/c8-2-5-11(6-3-9)14(12)10-4-1-7-13-14/h1-7H2,(H,10,12)
Instrument: LTQ Orbitrap XL Thermo Scientific
Instrument type: LC-ESI-ITFT
Ms type: MS2
Ion mode: POSITIVE
Ionization: ESI
Fragmentation mode: HCD
Collision energy: 80 % (nominal)
Resolution: 15000
Column name: Kinetex Evo C18 2.6 um 50 x 2.1 mm
Retention time: 7.502 min
Base peak: 261.0332
Precursor m/z: 261.0321
Precursor type: [M+H]+
Precursor intensity: 9886308
m/z	relative intensity	assigned
54.0338	5	C3H4N+
56.0492	370	C3H6N+
57.057	11	C3H7N+
58.0649	198	C3H8N+
62.9994	429	CH4OP+
70.065	46	C4H8N+
91.9897	11	C2H3ClNO+
94.0053	16	CH5NO2P+
102.0103	40	C3H5NOP+
104.0262	52	C4H7ClN+
106.0418	195	C4H9ClN+
110.0001	62	C2H5ClNO2+
111.9716	7	C2H4Cl2N+
112.0158	47	C2H7ClNO2+
120.0208	180	C3H7NO2P+
124.0159	14	C3H7ClNO2+
138.0315	104	C4H9ClNO2+
140.0028	999	C4H8Cl2N+
141.9818	60	C2H6ClNO2P+
142.0184	255	C4H10Cl2N+
