Mass spectrum: Metazachlor; LC-ESI-ITFT; MS2; CE: 30%; R=15000; [M+H]+
Name: Metazachlor
Name: 2-chloro-N-(2,6-dimethylphenyl)-N-(pyrazol-1-ylmethyl)acetamide
Formula: C14H16ClN3O
Exact mass: 277.098189812
SMILES: CC1=CC=CC(C)=C1N(CN1C=CC=N1)C(=O)CCl
InChI: InChI=1S/C14H16ClN3O/c1-11-5-3-6-12(2)14(11)18(13(19)9-15)10-17-8-4-7-16-17/h3-8H,9-10H2,1-2H3
Instrument: LTQ Orbitrap XL Thermo Scientific
Instrument type: LC-ESI-ITFT
Ms type: MS2
Ion mode: POSITIVE
Ionization: ESI
Fragmentation mode: HCD
Collision energy: 30 % (nominal)
Resolution: 15000
Column name: Kinetex Evo C18 2.6 um 50 x 2.1 mm
Retention time: 10.150 min
Base peak: 278.1059
Precursor m/z: 278.1055
Precursor type: [M+H]+
Precursor intensity: 18745790
m/z	relative intensity	assigned
134.0965	999	C9H12N+
210.068	411	C11H13ClNO+
