Mass spectrum: Methocarbamol; LC-ESI-ITFT; MS2; CE: 55%; R=15000; [M+H]+
Name: Methocarbamol
Name: [2-hydroxy-3-(2-methoxyphenoxy)propyl] carbamate
Formula: C11H15NO5
Exact mass: 241.0950
SMILES: COC1=C(OCC(O)COC(N)=O)C=CC=C1
InChI: InChI=1S/C11H15NO5/c1-15-9-4-2-3-5-10(9)16-6-8(13)7-17-11(12)14/h2-5,8,13H,6-7H2,1H3,(H2,12,14)
Instrument: LTQ Orbitrap XL Thermo Scientific
Instrument type: LC-ESI-ITFT
Ms type: MS2
Ion mode: POSITIVE
Ionization: ESI
Fragmentation mode: HCD
Collision energy: 55 % (nominal)
Resolution: 15000
Column name: Kinetex Evo C18 2.6 um 50 x 2.1 mm
Retention time: 7.061 min
Base peak: 264.084
Precursor m/z: 242.1023
Precursor type: [M+H]+
m/z	relative intensity	assigned
57.0332	135	C3H5O+
62.0235	160	CH4NO2+
65.0384	85	C5H5+
75.044	79	C3H7O2+
77.0385	75	C6H5+
79.0543	65	C6H7+
91.0542	74	C7H7+
93.0335	138	C6H5O+
93.0699	60	C7H9+
95.0491	271	C6H7O+
103.0542	182	C8H7+
105.0699	345	C8H9+
107.0492	73	C7H7O+
110.0361	144	C6H6O2+
118.0498	999	C4H8NO3+
120.0572	46	C8H8O+
121.0283	38	C7H5O2+
121.0648	153	C8H9O+
122.0362	353	C7H6O2+
123.044	127	C7H7O2+
124.0518	30	C7H8O2+
125.0596	330	C7H9O2+
131.0489	28	C9H7O+
132.057	42	C9H8O+
135.0804	406	C9H11O+
137.0596	100	C8H9O2+
145.0646	22	C10H9O+
148.0518	101	C9H8O2+
151.0752	56	C9H11O2+
163.0753	229	C10H11O2+
