Mass spectrum: Trenbolone; LC-ESI-ITFT; MS2; CE: 70%; R=15000; [M+H]+
Name: Trenbolone
Name: Trenbolone:17-Hydroxyestra-4,9,11-trien-3-one
Name: (13S,17S)-17-hydroxy-13-methyl-2,6,7,8,14,15,16,17-octahydro-1H-cyclopenta[a]phenanthren-3-one
Formula: C18H22O2
Exact mass: 270.161979944
SMILES: C[C@]12C=CC3=C4CCC(=O)C=C4CCC3C1CC[C@@H]2O
InChI: InChI=1S/C18H22O2/c1-18-9-8-14-13-5-3-12(19)10-11(13)2-4-15(14)16(18)6-7-17(18)20/h8-10,15-17,20H,2-7H2,1H3/t15?,16?,17-,18-/m0/s1
Instrument: LTQ Orbitrap XL Thermo Scientific
Instrument type: LC-ESI-ITFT
Ms type: MS2
Ion mode: POSITIVE
Ionization: ESI
Fragmentation mode: HCD
Collision energy: 70 % (nominal)
Resolution: 15000
Column name: Kinetex Evo C18 2.6 um 50 x 2.1 mm
Retention time: 10.670 min
Base peak: 271.1693
Precursor m/z: 271.1693
Precursor type: [M+H]+
Precursor intensity: 15699972
m/z	relative intensity	assigned
57.0333	16	C3H5O+
67.054	48	C5H7+
69.0697	17	C5H9+
71.0489	18	C4H7O+
77.0383	10	C6H5+
79.0541	85	C6H7+
81.0698	95	C6H9+
83.049	295	C5H7O+
91.0541	128	C7H7+
93.0698	98	C7H9+
95.049	15	C6H7O+
95.0854	54	C7H11+
97.0648	22	C6H9O+
103.054	13	C8H7+
105.0698	181	C8H9+
107.049	359	C7H7O+
107.0854	103	C8H11+
109.0647	63	C7H9O+
109.1011	16	C8H13+
115.0545	12	C9H7+
117.0698	95	C9H9+
119.0855	74	C9H11+
121.0647	92	C8H9O+
121.101	21	C9H13+
123.0803	15	C8H11O+
128.062	32	C10H8+
129.0697	130	C10H9+
130.0775	21	C10H10+
131.049	32	C9H7O+
131.0854	168	C10H11+
133.0647	281	C9H9O+
133.101	59	C10H13+
135.0804	114	C9H11O+
141.0697	143	C11H9+
142.0775	34	C11H10+
143.0854	189	C11H11+
144.0568	37	C10H8O+
145.0647	98	C10H9O+
145.101	222	C11H13+
146.072	19	C10H10O+
147.0803	91	C10H11O+
148.0881	61	C10H12O+
149.096	17	C10H13O+
152.0621	7	C12H8+
153.0699	34	C12H9+
154.0776	35	C12H10+
155.0854	183	C12H11+
156.093	30	C12H12+
157.0647	251	C11H9O+
157.1011	95	C12H13+
158.0722	35	C11H10O+
159.0803	329	C11H11O+
159.1165	28	C12H15+
161.0959	81	C11H13O+
165.0698	80	C13H9+
166.0776	84	C13H10+
167.0854	149	C13H11+
168.0931	58	C13H12+
169.0646	9	C12H9O+
169.101	182	C13H13+
170.0725	18	C12H10O+
170.1082	15	C13H14+
171.0803	120	C12H11O+
171.1167	89	C13H15+
172.0875	11	C12H12O+
173.096	61	C12H13O+
175.1111	8	C12H15O+
178.0777	66	C14H10+
179.0854	154	C14H11+
180.0933	47	C14H12+
181.101	192	C14H13+
182.0727	19	C13H10O+
182.1087	36	C14H14+
183.0803	91	C13H11O+
183.1167	159	C14H15+
184.0882	94	C13H12O+
185.096	195	C13H13O+
185.1326	17	C14H17+
186.1038	97	C13H14O+
187.1115	80	C13H15O+
189.1273	12	C13H17O+
191.0851	15	C15H11+
192.0932	40	C15H12+
193.1011	104	C15H13+
194.109	35	C15H14+
195.0802	21	C14H11O+
195.1167	137	C15H15+
196.0882	32	C14H12O+
196.1247	28	C15H16+
197.096	217	C14H13O+
197.1324	48	C15H17+
198.1039	214	C14H14O+
199.1116	999	C14H15O+
200.1197	217	C14H16O+
201.128	14	C14H17O+
205.1011	42	C16H13+
206.1089	19	C16H14+
207.1167	83	C16H15+
209.0961	35	C15H13O+
209.1322	80	C16H17+
210.1038	44	C15H14O+
211.1115	157	C15H15O+
211.148	75	C16H19+
212.1195	131	C15H16O+
213.1274	77	C15H17O+
214.135	346	C15H18O+
219.1167	12	C17H15+
220.1246	65	C17H16+
223.1114	33	C16H15O+
223.1479	21	C17H19+
224.1194	75	C16H16O+
225.1272	162	C16H17O+
225.1638	16	C17H21+
227.1428	360	C16H19O+
235.1479	118	C18H19+
237.1271	35	C17H17O+
238.135	187	C17H18O+
242.1301	12	C16H18O2+
243.1369	6	C16H19O2+
251.1433	7	C18H19O+
253.1585	515	C18H21O+
271.169	314	C18H23O2+
