Mass spectrum: 4-Aminoazobenzene; LC-ESI-ITFT; MS2; CE: 35; R=15000; [M+H]+
Name: 4-Aminoazobenzene
Formula: C12H11N3
Exact mass: 197.0953
SMILES: NC1=CC=C(C=C1)\N=N\C1=CC=CC=C1
InChI: InChI=1S/C12H11N3/c13-10-6-8-12(9-7-10)15-14-11-4-2-1-3-5-11/h1-9H,13H2/b15-14+
Instrument: LTQ Orbitrap XL Thermo Scientific
Instrument type: LC-ESI-ITFT
Ms type: MS2
Ion mode: POSITIVE
Ionization: ESI
Fragmentation mode: CID
Collision energy: 35 (nominal)
Resolution: 15000
Column name: Kinetex Core-Shell C18 2.6 um, 3.0 x 100 mm, Phenomenex
Retention time: 24.336 min
Base peak: 198.1032
Precursor m/z: 198.1026
Precursor type: [M+H]+
m/z	relative intensity	assigned
51.023	1	C4H3+
53.0387	4	C4H5+
77.0388	424	C6H5+
92.0499	5	C6H6N+
93.0577	9	C6H7N+
94.0418	3	C6H6O+
95.0496	16	C6H7O+
105.0451	97	C6H5N2+
143.086	1	C11H11+
198.1034	999	C12H12N3+
