Mass spectrum: Boscalid; LC-ESI-ITFT; MS2; CE: 40%; R=15000; [M+H]+
Name: Boscalid
Name: 2-chloro-N-[2-(4-chlorophenyl)phenyl]pyridine-3-carboxamide
Formula: C18H12Cl2N2O
Exact mass: 342.032668364
SMILES: ClC1=CC=C(C=C1)C1=CC=CC=C1NC(=O)C1=CC=CN=C1Cl
InChI: InChI=1S/C18H12Cl2N2O/c19-13-9-7-12(8-10-13)14-4-1-2-6-16(14)22-18(23)15-5-3-11-21-17(15)20/h1-11H,(H,22,23)
Instrument: LTQ Orbitrap XL Thermo Scientific
Instrument type: LC-ESI-ITFT
Ms type: MS2
Ion mode: POSITIVE
Ionization: ESI
Fragmentation mode: HCD
Collision energy: 40 % (nominal)
Resolution: 15000
Column name: Kinetex Evo C18 2.6 um 50 x 2.1 mm
Retention time: 11.206 min
Base peak: 404.1245
Precursor m/z: 343.0399
Precursor type: [M+H]+
Precursor intensity: 8692095
m/z	relative intensity	assigned
78.0337	5	C5H4N+
96.0442	5	C5H6NO+
111.9944	2	C5H3ClN+
114.0105	24	C5H5ClN+
139.9897	229	C6H3ClNO+
271.0864	68	C18H11N2O+
272.0942	68	C18H12N2O+
289.0525	10	C18H10ClN2+
307.063	999	C18H12ClN2O+
343.0397	66	C18H13Cl2N2O+
