Mass spectrum: Warfarin; LC-ESI-ITFT; MS2; CE: 40%; R=15000; [M+H]+
Name: Warfarin
Name: 4-hydroxy-3-(3-oxo-1-phenylbutyl)chromen-2-one
Formula: C19H16O4
Exact mass: 308.104858992
SMILES: CC(=O)CC(C1=CC=CC=C1)C1=C(O)C2=CC=CC=C2OC1=O
InChI: InChI=1S/C19H16O4/c1-12(20)11-15(13-7-3-2-4-8-13)17-18(21)14-9-5-6-10-16(14)23-19(17)22/h2-10,15,21H,11H2,1H3
Instrument: LTQ Orbitrap XL Thermo Scientific
Instrument type: LC-ESI-ITFT
Ms type: MS2
Ion mode: POSITIVE
Ionization: ESI
Fragmentation mode: HCD
Collision energy: 40 % (nominal)
Resolution: 15000
Column name: Kinetex Evo C18 2.6 um 50 x 2.1 mm
Retention time: 11.283 min
Base peak: 309.1131
Precursor m/z: 309.1121
Precursor type: [M+H]+
Precursor intensity: 23997154
m/z	relative intensity	assigned
91.0543	6	C7H7+
121.0285	6	C7H5O2+
129.0699	11	C10H9+
131.0493	4	C9H7O+
147.0805	218	C10H11O+
163.039	935	C9H7O3+
171.0803	12	C12H11O+
173.0235	8	C10H5O3+
175.0389	7	C10H7O3+
183.0805	10	C13H11O+
189.0545	14	C11H9O3+
191.034	11	C10H7O4+
223.0753	2	C15H11O2+
251.0704	999	C16H11O3+
291.1016	12	C19H15O3+
309.1115	3	C19H17O4+
