Mass spectrum: Acetyl-sulfamethoxazole; LC-ESI-ITFT; MS2; CE: 55; R=15000; [M+H]+
Name: Acetyl-sulfamethoxazole
Name: N-[4-[(5-Methyl-1,2-oxazol-3-yl)sulfamoyl]phenyl]acetamide
Formula: C12H13N3O4S
Exact mass: 295.0627
SMILES: CC(=O)NC1=CC=C(C=C1)S(=O)(=O)NC1=NOC(C)=C1
InChI: InChI=1S/C12H13N3O4S/c1-8-7-12(14-19-8)15-20(17,18)11-5-3-10(4-6-11)13-9(2)16/h3-7H,1-2H3,(H,13,16)(H,14,15)
Instrument: LTQ Orbitrap XL Thermo Scientific
Instrument type: LC-ESI-ITFT
Ms type: MS2
Ion mode: POSITIVE
Ionization: ESI
Fragmentation mode: CID
Collision energy: 55 (nominal)
Resolution: 15000
Column name: Kinetex Core-Shell C18 2.6 um, 3.0 x 100 mm, Phenomenex
Retention time: 19.115 min
Base peak: 163.1328
Precursor m/z: 296.07
Precursor type: [M+H]+
m/z	relative intensity	assigned
92.0495	6	C6H6N+
93.0336	5	C6H5O+
93.0573	3	C6H7N+
94.0652	50	C6H8N+
99.0556	11	C4H7N2O+
107.0605	3	C6H7N2+
108.0445	65	C6H6NO+
110.0602	2	C6H8NO+
118.0653	8	C8H8N+
131.0603	4	C8H7N2+
134.0603	123	C8H8NO+
135.0675	2	C8H9NO+
136.0759	675	C8H10NO+
140.0167	12	C6H6NOS+
146.0715	68	C8H8N3+
147.0556	7	C2H13NO4S+
147.0794	29	C8H9N3+
148.0632	4	C8H8N2O+
148.0872	14	C8H10N3+
149.0712	21	C8H9N2O+
150.0553	22	C8H8NO2+
151.0327	14	C7H7N2S+
152.0706	3	C8H10NO2+
156.0117	69	C6H6NO2S+
160.0873	61	C9H10N3+
161.0019	8	C4H5N2O3S+
161.0713	7	C9H9N2O+
162.0665	15	C8H8N3O+
172.0873	21	C10H10N3+
173.0713	2	C10H9N2O+
176.028	35	C8H6N3S+
177.0119	15	C8H5N2OS+
182.0273	24	C8H8NO2S+
188.0821	790	C10H10N3O+
189.0663	9	C10H9N2O2+
189.0899	147	C10H11N3O+
190.0977	297	C10H12N3O+
191.0818	25	C10H11N2O2+
193.0434	20	C9H9N2OS+
194.0385	462	C8H8N3OS+
195.0227	39	C8H7N2O2S+
198.0222	999	C8H8NO3S+
200.0375	4	C8H10NO3S+
202.0978	100	C11H12N3O+
203.0817	16	C11H11N2O2+
214.0978	94	C12H12N3O+
216.0326	9	C8H10NO4S+
218.0386	61	C10H8N3OS+
219.0227	24	C10H7N2O2S+
230.0927	185	C12H12N3O2+
232.1084	103	C12H14N3O2+
236.0491	601	C10H10N3O2S+
254.0599	89	C10H12N3O3S+
278.0599	55	C12H12N3O3S+
