Mass spectrum: Imidacloprid-urea; LC-ESI-ITFT; MS2; CE: 10%; R=15000; [M+H]+
Name: Imidacloprid-urea
Name: 1-[(6-chloropyridin-3-yl)methyl]imidazolidin-2-one
Formula: C9H10ClN3O
Exact mass: 211.05123962
SMILES: ClC1=NC=C(CN2CCNC2=O)C=C1
InChI: InChI=1S/C9H10ClN3O/c10-8-2-1-7(5-12-8)6-13-4-3-11-9(13)14/h1-2,5H,3-4,6H2,(H,11,14)
Instrument: LTQ Orbitrap XL Thermo Scientific
Instrument type: LC-ESI-ITFT
Ms type: MS2
Ion mode: POSITIVE
Ionization: ESI
Fragmentation mode: HCD
Collision energy: 10 % (nominal)
Resolution: 15000
Column name: Kinetex Evo C18 2.6 um 50 x 2.1 mm
Retention time: 5.353 min
Base peak: 212.0592
Precursor m/z: 212.0585
Precursor type: [M+H]+
Precursor intensity: 9510466
m/z	relative intensity	assigned
128.0261	9	C6H7ClN+
212.0585	999	C9H11ClN3O+
