Mass spectrum: Methocarbamol; LC-ESI-ITFT; MS2; CE: 125%; R=15000; [M+H]+
Name: Methocarbamol
Name: [2-hydroxy-3-(2-methoxyphenoxy)propyl] carbamate
Formula: C11H15NO5
Exact mass: 241.0950
SMILES: COC1=C(OCC(O)COC(N)=O)C=CC=C1
InChI: InChI=1S/C11H15NO5/c1-15-9-4-2-3-5-10(9)16-6-8(13)7-17-11(12)14/h2-5,8,13H,6-7H2,1H3,(H2,12,14)
Instrument: LTQ Orbitrap XL Thermo Scientific
Instrument type: LC-ESI-ITFT
Ms type: MS2
Ion mode: POSITIVE
Ionization: ESI
Fragmentation mode: HCD
Collision energy: 125 % (nominal)
Resolution: 15000
Column name: Kinetex Evo C18 2.6 um 50 x 2.1 mm
Retention time: 7.092 min
Base peak: 264.0839
Precursor m/z: 242.1023
Precursor type: [M+H]+
m/z	relative intensity	assigned
62.0235	63	CH4NO2+
65.0386	215	C5H5+
77.0387	999	C6H5+
79.0543	154	C6H7+
81.0336	73	C5H5O+
91.0543	341	C7H7+
92.0258	185	C6H4O+
92.0622	41	C7H8+
93.0335	24	C6H5O+
95.0493	213	C6H7O+
102.0461	35	C8H6+
103.0543	198	C8H7+
107.0493	25	C7H7O+
109.0285	61	C6H5O2+
110.0364	204	C6H6O2+
121.0285	699	C7H5O2+
122.0363	240	C7H6O2+
131.0494	24	C9H7O+
199.0964	24	C10H15O4+
