Mass spectrum: Tonalide; LC-ESI-ITFT; MS2; CE: 80%; R=15000; [M+H]+
Name: Tonalide
Name: Tonalid
Name: 1-(3,5,5,6,8,8-hexamethyl-6,7-dihydronaphthalen-2-yl)ethanone
Formula: C18H26O
Exact mass: 258.198365452
SMILES: CC1CC(C)(C)C2=C(C=C(C)C(=C2)C(C)=O)C1(C)C
InChI: InChI=1S/C18H26O/c1-11-8-16-15(9-14(11)13(3)19)17(4,5)10-12(2)18(16,6)7/h8-9,12H,10H2,1-7H3
Instrument: LTQ Orbitrap XL Thermo Scientific
Instrument type: LC-ESI-ITFT
Ms type: MS2
Ion mode: POSITIVE
Ionization: ESI
Fragmentation mode: HCD
Collision energy: 80 % (nominal)
Resolution: 15000
Column name: Kinetex Evo C18 2.6 um 50 x 2.1 mm
Retention time: 14.247 min
Base peak: 259.2057
Precursor m/z: 259.2056
Precursor type: [M+H]+
Precursor intensity: 4200188.5
m/z	relative intensity	assigned
55.0541	14	C4H7+
57.0698	31	C4H9+
69.0698	33	C5H9+
83.0857	39	C6H11+
91.0544	17	C7H7+
93.0701	19	C7H9+
105.07	168	C8H9+
117.0704	16	C9H9+
119.0858	604	C9H11+
129.07	81	C10H9+
131.086	31	C10H11+
133.1014	283	C10H13+
146.0732	19	C10H10O+
147.0807	707	C10H11O+
157.1011	21	C12H13+
161.0964	222	C11H13O+
173.1325	27	C13H17+
175.1121	999	C12H15O+
