Mass spectrum: Exemestane; LC-ESI-ITFT; MS2; CE: 30%; R=15000; [M+H]+
Name: Exemestane
Name: (8R,9S,10R,13S,14S)-10,13-dimethyl-6-methylidene-7,8,9,11,12,14,15,16-octahydrocyclopenta[a]phenanthrene-3,17-dione
Formula: C20H24O2
Exact mass: 296.177630008
SMILES: [H][C@@]12CCC(=O)[C@@]1(C)CC[C@@]1([H])[C@@]2([H])CC(=C)C2=CC(=O)C=C[C@]12C
InChI: InChI=1S/C20H24O2/c1-12-10-14-15-4-5-18(22)20(15,3)9-7-16(14)19(2)8-6-13(21)11-17(12)19/h6,8,11,14-16H,1,4-5,7,9-10H2,2-3H3/t14-,15-,16-,19+,20-/m0/s1
Instrument: LTQ Orbitrap XL Thermo Scientific
Instrument type: LC-ESI-ITFT
Ms type: MS2
Ion mode: POSITIVE
Ionization: ESI
Fragmentation mode: HCD
Collision energy: 30 % (nominal)
Resolution: 15000
Column name: Kinetex Evo C18 2.6 um 50 x 2.1 mm
Retention time: 11.167 min
Base peak: 297.1852
Precursor m/z: 297.1849
Precursor type: [M+H]+
Precursor intensity: 5888515
m/z	relative intensity	assigned
105.0697	122	C8H9+
109.065	648	C7H9O+
119.0858	314	C9H11+
121.0647	164	C8H9O+
131.086	222	C10H11+
133.1013	149	C10H13+
135.0804	277	C9H11O+
145.1015	303	C11H13+
149.0967	292	C10H13O+
157.1014	163	C12H13+
159.1168	120	C12H15+
161.0957	125	C11H13O+
163.1115	221	C11H15O+
169.1012	175	C13H13+
171.117	245	C13H15+
173.1322	235	C13H17+
183.1166	175	C14H15+
185.1325	146	C14H17+
189.1283	109	C13H17O+
199.1488	136	C15H19+
223.149	312	C17H19+
231.1746	999	C16H23O+
263.18	369	C20H23+
281.1901	862	C20H25O+
