Mass spectrum: 1,8-diaminopyrene; APCI-ITFT; MS2; CE: 35%; R=30000; [M+H]+
Name: 1,8-diaminopyrene
Name: pyrene-1,8-diamine
Formula: C16H12N2
Exact mass: 232.1000
SMILES: c4cc2ccc1ccc(N)c3c1c2c(cc3)c4N
InChI: InChI=1S/C16H12N2/c17-13-7-3-9-1-2-10-4-8-14(18)12-6-5-11(13)15(9)16(10)12/h1-8H,17-18H2
Instrument: LTQ Orbitrap XL Thermo Scientific
Instrument type: APCI-ITFT
Ms type: MS2
Ion mode: POSITIVE
Ionization: APCI
Fragmentation mode: CID
Collision energy: 35 % (nominal)
Resolution: 30000
Column name: N/A
Retention time: N/A min
Base peak: 233.1073
Precursor m/z: 233.1073
Precursor type: [M+H]+
m/z	relative intensity	assigned
216.0811	54	C16H10N+
217.0887	999	C16H11N+
231.0917	1	C16H11N2+
232.0995	4	C16H12N2+
233.1073	2	C16H13N2+
