Mass spectrum: Citalopram; LC-ESI-ITFT; MS2; CE: 35; R=15000; [M+H]+
Name: Citalopram
Name: 1-[3-(Dimethylamino)propyl]-1-(4-fluorophenyl)-3H-2-benzofuran-5-carbonitrile
Formula: C20H21FN2O
Exact mass: 324.1638
SMILES: CN(C)CCCC1(OCC2=CC(=CC=C12)C#N)C1=CC=C(F)C=C1
InChI: InChI=1S/C20H21FN2O/c1-23(2)11-3-10-20(17-5-7-18(21)8-6-17)19-9-4-15(13-22)12-16(19)14-24-20/h4-9,12H,3,10-11,14H2,1-2H3
Instrument: LTQ Orbitrap XL Thermo Scientific
Instrument type: LC-ESI-ITFT
Ms type: MS2
Ion mode: POSITIVE
Ionization: ESI
Fragmentation mode: CID
Collision energy: 35 (nominal)
Resolution: 15000
Column name: Kinetex Core-Shell C18 2.6 um, 3.0 x 100 mm, Phenomenex
Retention time: 19.979 min
Base peak: 260.1644
Precursor m/z: 325.1711
Precursor type: [M+H]+
m/z	relative intensity	assigned
109.0449	292	C7H6F+
116.0496	67	C8H6N+
123.0243	5	C7H4FO+
129.07	1	C10H9+
144.0448	3	C9H6NO+
147.0605	1	C10H8F+
156.0811	22	C11H10N+
159.0608	9	C11H8F+
166.0654	41	C12H8N+
168.0811	4	C12H10N+
184.076	8	C12H10NO+
221.064	10	C15H8FN+
222.0719	4	C15H9FN+
224.0877	5	C15H11FN+
227.072	1	C17H9N+
234.0718	60	C16H9FN+
235.0921	13	C17H12F+
236.0876	10	C16H11FN+
238.0667	7	C15H9FNO+
242.0967	9	C18H12N+
245.0766	1	C18H10F+
247.0799	10	C17H10FN+
250.1032	11	C17H13FN+
260.0863	1	C18H11FN+
262.1031	999	C18H13FN+
280.1137	163	C18H15FNO+
307.161	137	C20H20FN2+
325.1716	478	C20H22FN2O+
326.1752	6	C18H22N4O2+
