Mass spectrum: Fluoxastrobin; LC-ESI-ITFT; MS2; CE: 60%; R=15000; [M+H]+
Name: Fluoxastrobin
Name: (E)-1-[2-[6-(2-chlorophenoxy)-5-fluoropyrimidin-4-yl]oxyphenyl]-1-(5,6-dihydro-1,4,2-dioxazin-3-yl)-N-methoxymethanimine
Formula: C21H16ClFN4O5
Exact mass: 458.079325512
SMILES: CO\N=C(\C1=NOCCO1)C1=C(OC2=C(F)C(OC3=C(Cl)C=CC=C3)=NC=N2)C=CC=C1
InChI: InChI=1S/C21H16ClFN4O5/c1-28-26-18(21-27-30-11-10-29-21)13-6-2-4-8-15(13)31-19-17(23)20(25-12-24-19)32-16-9-5-3-7-14(16)22/h2-9,12H,10-11H2,1H3/b26-18+
Instrument: LTQ Orbitrap XL Thermo Scientific
Instrument type: LC-ESI-ITFT
Ms type: MS2
Ion mode: POSITIVE
Ionization: ESI
Fragmentation mode: HCD
Collision energy: 60 % (nominal)
Resolution: 15000
Column name: Kinetex Evo C18 2.6 um 50 x 2.1 mm
Retention time: 11.951 min
Base peak: 330.0812
Precursor m/z: 459.0866
Precursor type: [M+H]+
Precursor intensity: 5999302.5
m/z	relative intensity	assigned
77.0389	46	C6H5+
78.034	28	C5H4N+
90.0341	226	C6H4N+
93.0338	41	C6H5O+
104.0497	71	C7H6N+
105.0452	61	C6H5N2+
106.029	72	C6H4NO+
110.9998	71	C6H4Cl+
118.0529	40	C7H6N2+
122.0405	104	C7H5FN+
129.0451	235	C8H5N2+
134.0407	41	C8H5FN+
138.0109	999	C7H5ClN+
138.995	137	C7H4ClO+
139.0061	614	C6H4ClN2+
144.0559	33	CH14ClFO4+
148.0436	29	C8H5FN2+
151.006	39	C7H4ClN2+
154.0406	45	C2H12ClFO4+
159.0356	41	C9H4FN2+
160.0271	84	C8H4N2O2+
162.0433	38	C5H9ClN3O+
163.0505	35	C5H10ClN3O+
166.0057	34	C8H3FO3+
168.0015	244	C8H4ClFN+
174.047	20	C11H7FO+
176.0384	33	C6H8ClFN3+
183.9969	37	C8H4ClFNO+
189.0451	24	C10H6FN2O+
195.0128	19	C9H5ClFN2+
214.0069	49	C9H6ClFNO2+
216.058	20	C13H9FO2+
223.9912	25	C10H4ClFNO2+
225.0584	51	C14H8FNO+
229.0284	45	C16H5O2+
246.0309	30	C11H5FN3O3+
255.0325	22	C14H6FNO3+
262.053	20	C16H7FN2O+
277.0677	18	C15H13ClFNO+
278.0721	31	C16H9FN3O+
315.0339	32	C16H9ClFN2O2+
318.0668	54	C18H11ClN4+
340.0286	48	C20H7ClN3O+
342.0439	20	C17H10ClFN3O2+
