Mass spectrum: Celecoxib; LC-ESI-ITFT; MS2; CE: 40%; R=15000; [M+H]+
Name: Celecoxib
Name: 4-[5-(4-methylphenyl)-3-(trifluoromethyl)pyrazol-1-yl]benzenesulfonamide
Formula: C17H14F3N3O2S
Exact mass: 381.075882348
SMILES: CC1=CC=C(C=C1)C1=CC(=NN1C1=CC=C(C=C1)S(N)(=O)=O)C(F)(F)F
InChI: InChI=1S/C17H14F3N3O2S/c1-11-2-4-12(5-3-11)15-10-16(17(18,19)20)22-23(15)13-6-8-14(9-7-13)26(21,24)25/h2-10H,1H3,(H2,21,24,25)
Instrument: LTQ Orbitrap XL Thermo Scientific
Instrument type: LC-ESI-ITFT
Ms type: MS2
Ion mode: POSITIVE
Ionization: ESI
Fragmentation mode: HCD
Collision energy: 40 % (nominal)
Resolution: 15000
Column name: Kinetex Evo C18 2.6 um 50 x 2.1 mm
Retention time: 12.023 min
Base peak: 552.1917
Precursor m/z: 382.0832
Precursor type: [M+H]+
Precursor intensity: 3841961.75
m/z	relative intensity	assigned
79.9801	5	H2NO2S+
112.1123	16	C7H14N+
116.062	4	C9H8+
117.0701	31	C9H9+
184.0375	7	C9H5F3N+
207.1049	25	C12H14FNO+
233.1076	15	C16H13N2+
263.0986	6	C14H13F2N2O+
275.0799	13	C15H10F3N2+
282.0972	29	C14H13F3N2O+
283.105	24	C14H14F3N2O+
287.0779	16	C13H15F2NO2S+
300.0874	154	C17H11F3N2+
301.0955	52	C17H12F3N2+
302.1029	150	C17H13F3N2+
303.1108	236	C17H14F3N2+
317.0902	13	C17H12F3N2O+
342.0717	12	C17H13FN3O2S+
362.0772	372	C17H14F2N3O2S+
382.0834	999	C17H15F3N3O2S+
