Mass spectrum: Prothioconazole-desthio; LC-ESI-ITFT; MS2; CE: 80%; R=15000; [M+H]+
Name: Prothioconazole-desthio
Name: 2-(1-chlorocyclopropyl)-1-(2-chlorophenyl)-3-(1H-1,2,4-triazol-1-yl)propan-2-ol
Name: 2-(1-chlorocyclopropyl)-1-(2-chlorophenyl)-3-(1,2,4-triazol-1-yl)propan-2-ol
Formula: C14H15Cl2N3O
Exact mass: 311.05921746
SMILES: OC(CN1C=NC=N1)(CC1=CC=CC=C1Cl)C1(Cl)CC1
InChI: InChI=1S/C14H15Cl2N3O/c15-12-4-2-1-3-11(12)7-14(20,13(16)5-6-13)8-19-10-17-9-18-19/h1-4,9-10,20H,5-8H2
Instrument: LTQ Orbitrap XL Thermo Scientific
Instrument type: LC-ESI-ITFT
Ms type: MS2
Ion mode: POSITIVE
Ionization: ESI
Fragmentation mode: HCD
Collision energy: 80 % (nominal)
Resolution: 15000
Column name: Kinetex Evo C18 2.6 um 50 x 2.1 mm
Retention time: 11.738 min
Base peak: 312.0677
Precursor m/z: 312.0665
Precursor type: [M+H]+
Precursor intensity: 46590036
m/z	relative intensity	assigned
65.0383	8	C5H5+
67.0542	4	C5H7+
70.0398	999	C2H4N3+
74.9995	6	C3H4Cl+
89.0386	13	C7H5+
103.0542	39	C8H7+
115.0542	20	C9H7+
116.0621	32	C9H8+
125.0152	949	C7H6Cl+
128.0621	11	C10H8+
129.0697	13	C10H9+
137.0152	8	C8H6Cl+
139.031	23	C8H8Cl+
141.0701	14	C11H9+
142.0776	28	C11H10+
149.0152	12	C9H6Cl+
151.0309	13	C9H8Cl+
152.062	10	C12H8+
153.0699	38	C12H9+
154.0777	40	C12H10+
155.0605	5	C10H7N2+
155.0856	4	C12H11+
158.9764	5	C7H5Cl2+
162.0229	7	C10H7Cl+
163.0303	4	C10H8Cl+
