Mass spectrum: 4-Androsten-11beta-ol-3,17-dione; LC-ESI-ITFT; MS2; CE: 20%; R=15000; [M+H]+
Name: 4-Androsten-11beta-ol-3,17-dione
Name: 11beta-Hydroxyandrostenedione
Name: (8S,9S,10R,11S,13S,14S)-11-hydroxy-10,13-dimethyl-2,6,7,8,9,11,12,14,15,16-decahydro-1H-cyclopenta[a]phenanthrene-3,17-dione
Formula: C19H26O3
Exact mass: 302.188194692
SMILES: C[C@]12C[C@H](O)[C@H]3[C@@H](CCC4=CC(=O)CC[C@]34C)[C@@H]1CCC2=O
InChI: InChI=1S/C19H26O3/c1-18-8-7-12(20)9-11(18)3-4-13-14-5-6-16(22)19(14,2)10-15(21)17(13)18/h9,13-15,17,21H,3-8,10H2,1-2H3/t13-,14-,15-,17+,18-,19-/m0/s1
Instrument: LTQ Orbitrap XL Thermo Scientific
Instrument type: LC-ESI-ITFT
Ms type: MS2
Ion mode: POSITIVE
Ionization: ESI
Fragmentation mode: HCD
Collision energy: 20 % (nominal)
Resolution: 15000
Column name: Kinetex Evo C18 2.6 um 50 x 2.1 mm
Retention time: 10.068 min
Base peak: 303.1955
Precursor m/z: 303.1955
Precursor type: [M+H]+
Precursor intensity: 29171348
m/z	relative intensity	assigned
97.0648	2	C6H9O+
121.0646	9	C8H9O+
123.0803	12	C8H11O+
145.101	4	C11H13+
151.1119	3	C10H15O+
163.1116	3	C11H15O+
175.1115	3	C12H15O+
185.1324	1	C14H17+
189.1273	3	C13H17O+
195.1165	2	C15H15+
209.1325	2	C16H17+
225.1268	1	C16H17O+
225.1637	1	C17H21+
227.1434	2	C16H19O+
239.1427	10	C17H19O+
241.1581	1	C17H21O+
243.1742	4	C17H23O+
249.163	5	C19H21+
257.1534	4	C17H21O2+
257.1907	2	C18H25O+
267.1739	36	C19H23O+
285.1845	112	C19H25O2+
303.195	999	C19H27O3+
