Mass spectrum: 4-Androsten-11beta-ol-3,17-dione; LC-ESI-ITFT; MS2; CE: 70%; R=15000; [M+H]+
Name: 4-Androsten-11beta-ol-3,17-dione
Name: 11beta-Hydroxyandrostenedione
Name: (8S,9S,10R,11S,13S,14S)-11-hydroxy-10,13-dimethyl-2,6,7,8,9,11,12,14,15,16-decahydro-1H-cyclopenta[a]phenanthrene-3,17-dione
Formula: C19H26O3
Exact mass: 302.188194692
SMILES: C[C@]12C[C@H](O)[C@H]3[C@@H](CCC4=CC(=O)CC[C@]34C)[C@@H]1CCC2=O
InChI: InChI=1S/C19H26O3/c1-18-8-7-12(20)9-11(18)3-4-13-14-5-6-16(22)19(14,2)10-15(21)17(13)18/h9,13-15,17,21H,3-8,10H2,1-2H3/t13-,14-,15-,17+,18-,19-/m0/s1
Instrument: LTQ Orbitrap XL Thermo Scientific
Instrument type: LC-ESI-ITFT
Ms type: MS2
Ion mode: POSITIVE
Ionization: ESI
Fragmentation mode: HCD
Collision energy: 70 % (nominal)
Resolution: 15000
Column name: Kinetex Evo C18 2.6 um 50 x 2.1 mm
Retention time: 10.156 min
Base peak: 303.1956
Precursor m/z: 303.1955
Precursor type: [M+H]+
Precursor intensity: 7055896.5
m/z	relative intensity	assigned
55.0177	48	C3H3O+
55.0541	39	C4H7+
67.0541	95	C5H7+
69.0335	28	C4H5O+
69.0698	49	C5H9+
79.0543	229	C6H7+
81.0699	232	C6H9+
83.0492	192	C5H7O+
91.0543	228	C7H7+
93.07	493	C7H9+
95.0493	76	C6H7O+
95.0856	229	C7H11+
97.0649	999	C6H9O+
105.07	648	C8H9+
107.0493	59	C7H7O+
107.0856	398	C8H11+
109.0649	461	C7H9O+
109.1013	102	C8H13+
115.054	17	C9H7+
117.07	193	C9H9+
119.0856	426	C9H11+
121.0649	905	C8H9O+
121.1013	209	C9H13+
123.0805	753	C8H11O+
128.0623	29	C10H8+
129.0699	102	C10H9+
130.078	61	C10H10+
131.0856	300	C10H11+
133.0649	35	C9H9O+
133.1013	278	C10H13+
135.0805	144	C9H11O+
135.117	100	C10H15+
137.0961	22	C9H13O+
141.07	31	C11H9+
142.0778	37	C11H10+
143.0856	326	C11H11+
145.1013	705	C11H13+
147.0805	146	C10H11O+
147.1169	132	C11H15+
148.0882	18	C10H12O+
149.0961	76	C10H13O+
151.1116	34	C10H15O+
154.0775	13	C12H10+
155.0858	101	C12H11+
156.0934	25	C12H12+
157.1013	190	C12H13+
159.0806	72	C11H11O+
159.1169	147	C12H15+
161.0963	126	C11H13O+
161.1328	28	C12H17+
163.1119	239	C11H15O+
167.0856	36	C13H11+
168.0935	36	C13H12+
169.1013	134	C13H13+
171.0803	20	C12H11O+
171.117	136	C13H15+
173.0963	60	C12H13O+
173.1327	41	C13H17+
174.104	26	C12H14O+
175.1118	88	C12H15O+
179.0857	20	C14H11+
181.1012	61	C14H13+
183.1171	136	C14H15+
185.0961	28	C13H13O+
185.1326	106	C14H17+
187.1121	36	C13H15O+
189.1276	74	C13H17O+
193.101	21	C15H13+
194.1092	26	C15H14+
195.1169	42	C15H15+
197.0964	62	C14H13O+
197.1326	72	C15H17+
199.1117	41	C14H15O+
199.1483	50	C15H19+
201.1276	34	C14H17O+
207.1172	39	C16H15+
209.1325	72	C16H17+
211.1119	28	C15H15O+
211.1483	18	C16H19+
212.1199	13	C15H16O+
213.1277	30	C15H17O+
215.1434	21	C15H19O+
223.1486	25	C17H19+
225.1273	16	C16H17O+
225.1633	35	C17H21+
227.1429	37	C16H19O+
237.1275	47	C17H17O+
239.1428	21	C17H19O+
239.1784	10	C18H23+
241.1591	32	C17H21O+
243.174	21	C17H23O+
252.151	74	C18H20O+
267.1743	32	C19H23O+
