Mass spectrum: Diflufenican; LC-ESI-ITFT; MS2; CE: 80; R=15000; [M+H]+
Name: Diflufenican
Name: N-(2,4-Difluorophenyl)-2-[3-(trifluoromethyl)phenoxy]pyridine-3-carboxamide
Formula: C19H11F5N2O2
Exact mass: 394.0741
SMILES: FC1=CC=C(NC(=O)C2=CC=CN=C2OC2=CC=CC(=C2)C(F)(F)F)C(F)=C1
InChI: InChI=1S/C19H11F5N2O2/c20-12-6-7-16(15(21)10-12)26-17(27)14-5-2-8-25-18(14)28-13-4-1-3-11(9-13)19(22,23)24/h1-10H,(H,26,27)
Instrument: LTQ Orbitrap XL Thermo Scientific
Instrument type: LC-ESI-ITFT
Ms type: MS2
Ion mode: POSITIVE
Ionization: ESI
Fragmentation mode: HCD
Collision energy: 80 (nominal)
Resolution: 15000
Column name: Kinetex Core-Shell C18 2.6 um, 3.0 x 100 mm, Phenomenex
Retention time: 26.827 min
Base peak: 409.1362
Precursor m/z: 395.0813
Precursor type: [M+H]+
m/z	relative intensity	assigned
78.0338	129	C5H4N+
95.0126	10	C5H3O2+
96.0444	108	C5H6NO+
122.0236	30	C6H4NO2+
140.0312	21	C4H5F3NO+
145.026	249	C7H4F3+
169.0523	562	C11H7NO+
172.0368	33	C8H5F3N+
183.0416	727	C10H6F3+
185.051	117	C11H6FN2+
190.0464	672	C11H6F2N+
191.0546	30	C11H7F2N+
196.0367	39	C10H5F3N+
197.0478	13	C12H7NO2+
205.0575	34	C11H7F2N2+
210.0526	233	C11H7F3N+
213.0465	22	C9H7F2N2O2+
216.0452	23	C12H7FNO2+
218.0412	999	C12H6F2NO+
219.0492	26	C12H7F2NO+
233.0525	75	C12H7F2N2O+
238.0475	755	C12H7F3NO+
246.0362	557	C13H6F2NO2+
266.0425	377	C13H7F3NO2+
