Mass spectrum: 4-Androstene-3,17-dione; LC-ESI-ITFT; MS2; CE: 55; R=15000; [M+H]+
Name: 4-Androstene-3,17-dione
Name: Androstenedione
Name: (8R,9S,10R,13S,14S)-10,13-Dimethyl-2,6,7,8,9,11,12,14,15,16-decahydro-1H-cyclopenta[a]phenanthrene-3,17-dione
Formula: C19H26O2
Exact mass: 286.1933
SMILES: C[C@]12CC[C@H]3[C@@H](CCC4=CC(=O)CC[C@]34C)[C@@H]1CCC2=O
InChI: InChI=1S/C19H26O2/c1-18-9-7-13(20)11-12(18)3-4-14-15-5-6-17(21)19(15,2)10-8-16(14)18/h11,14-16H,3-10H2,1-2H3/t14-,15-,16-,18-,19-/m0/s1
Instrument: LTQ Orbitrap XL Thermo Scientific
Instrument type: LC-ESI-ITFT
Ms type: MS2
Ion mode: POSITIVE
Ionization: ESI
Fragmentation mode: CID
Collision energy: 55 (nominal)
Resolution: 15000
Column name: Kinetex Core-Shell C18 2.6 um, 3.0 x 100 mm, Phenomenex
Retention time: 24.312 min
Base peak: 163.1324
Precursor m/z: 287.2006
Precursor type: [M+H]+
m/z	relative intensity	assigned
79.054	5	C6H7+
91.0538	7	C7H7+
93.0696	9	C7H9+
95.0855	5	C7H11+
97.0646	999	C6H9O+
105.0694	11	C8H9+
107.0853	14	C8H11+
109.0645	364	C7H9O+
119.0853	17	C9H11+
121.1009	22	C9H13+
123.0802	70	C8H11O+
131.0852	16	C10H11+
133.1008	24	C10H13+
135.1167	9	C10H15+
137.0962	5	C9H13O+
143.0852	12	C11H11+
145.101	56	C11H13+
147.0798	7	C10H11O+
147.1167	49	C11H15+
149.0958	9	C10H13O+
153.0906	7	C9H13O2+
155.0852	12	C12H11+
157.1009	19	C12H13+
159.0804	7	C11H11O+
159.1166	60	C12H15+
161.0958	13	C11H13O+
161.1322	17	C12H17+
163.1112	7	C11H15O+
169.1009	35	C13H13+
171.1166	27	C13H15+
173.0958	21	C12H13O+
173.1322	74	C13H17+
175.1109	10	C12H15O+
179.1064	9	C11H15O2+
181.101	16	C14H13+
183.1164	44	C14H15+
185.1321	112	C14H17+
187.1115	19	C13H15O+
187.1478	113	C14H19+
189.1271	7	C13H17O+
191.1065	9	C12H15O2+
191.1433	7	C13H19O+
193.1221	30	C12H17O2+
195.1166	54	C15H15+
197.1324	8	C15H17+
199.1114	17	C14H15O+
199.1478	45	C15H19+
201.1268	21	C14H17O+
205.1586	25	C14H21O+
209.1321	86	C16H17+
211.1478	207	C16H19+
213.1269	32	C15H17O+
213.1636	7	C16H21+
217.1584	60	C15H21O+
223.148	33	C17H19+
225.1634	41	C17H21+
227.1435	19	C16H19O+
227.179	77	C17H23+
229.1583	66	C16H21O+
231.1374	11	C15H19O2+
241.158	16	C17H21O+
241.1949	54	C18H25+
243.1733	6	C17H23O+
251.179	366	C19H23+
269.1895	663	C19H25O+
