Mass spectrum: Sulfapyridine; LC-ESI-ITFT; MS2; CE: 60%; R=15000; [M+H]+
Name: Sulfapyridine
Name: 4-amino-N-pyridin-2-ylbenzenesulfonamide
Formula: C11H11N3O2S
Exact mass: 249.057197592
SMILES: NC1=CC=C(C=C1)S(=O)(=O)NC1=NC=CC=C1
InChI: InChI=1S/C11H11N3O2S/c12-9-4-6-10(7-5-9)17(15,16)14-11-3-1-2-8-13-11/h1-8H,12H2,(H,13,14)
Instrument: LTQ Orbitrap XL Thermo Scientific
Instrument type: LC-ESI-ITFT
Ms type: MS2
Ion mode: POSITIVE
Ionization: ESI
Fragmentation mode: HCD
Collision energy: 60 % (nominal)
Resolution: 15000
Column name: Kinetex Evo C18 2.6 um 50 x 2.1 mm
Retention time: 1.658 min
Base peak: 291.1463
Precursor m/z: 250.0645
Precursor type: [M+H]+
Precursor intensity: 4474248.5
m/z	relative intensity	assigned
65.0385	72	C5H5+
67.0416	3	C4H5N+
80.0494	2	C5H6N+
92.0496	999	C6H6N+
93.0448	31	C5H5N2+
93.0574	61	C6H7N+
94.0527	100	C5H6N2+
95.0605	452	C5H7N2+
108.0445	905	C6H6NO+
110.0601	44	C6H8NO+
120.0558	23	C6H6N3+
156.0116	474	C6H6NO2S+
157.0068	49	C5H5N2O2S+
169.0762	5	C11H9N2+
184.0872	406	C11H10N3+
186.1029	4	C11H12N3+
250.0647	11	C11H12N3O2S+
