Mass spectrum: Cetirizine; LC-ESI-ITFT; MS2; CE: 55; R=15000; [M+H]+
Name: Cetirizine
Name: 2-[2-[4-[(4-Chlorophenyl)-phenylmethyl]piperazin-1-yl]ethoxy]acetic acid
Formula: C21H25ClN2O3
Exact mass: 388.1554
SMILES: OC(=O)COCCN1CCN(CC1)C(C1=CC=CC=C1)C1=CC=C(Cl)C=C1
InChI: InChI=1S/C21H25ClN2O3/c22-19-8-6-18(7-9-19)21(17-4-2-1-3-5-17)24-12-10-23(11-13-24)14-15-27-16-20(25)26/h1-9,21H,10-16H2,(H,25,26)
Instrument: LTQ Orbitrap XL Thermo Scientific
Instrument type: LC-ESI-ITFT
Ms type: MS2
Ion mode: POSITIVE
Ionization: ESI
Fragmentation mode: CID
Collision energy: 55 (nominal)
Resolution: 15000
Column name: Kinetex Core-Shell C18 2.6 um, 3.0 x 100 mm, Phenomenex
Retention time: 22.999 min
Base peak: 389.1625
Precursor m/z: 389.1626
Precursor type: [M+H]+
m/z	relative intensity	assigned
165.0701	28	C13H9+
166.0779	63	C13H10+
171.1132	1	C8H15N2O2+
183.081	1	C10H14ClN+
187.108	49	C8H15N2O3+
193.0764	6	C13H9N2+
201.0466	999	C13H10Cl+
353.1859	2	C21H25N2O3+
