Mass spectrum: Simazine; LC-ESI-ITFT; MS2; CE: 60%; R=15000; [M+H]+
Name: Simazine
Name: 6-chloro-2-N,4-N-diethyl-1,3,5-triazine-2,4-diamine
Formula: C7H12ClN5
Exact mass: 201.078123064
SMILES: CCNC1=NC(NCC)=NC(Cl)=N1
InChI: InChI=1S/C7H12ClN5/c1-3-9-6-11-5(8)12-7(13-6)10-4-2/h3-4H2,1-2H3,(H2,9,10,11,12,13)
Instrument: LTQ Orbitrap XL Thermo Scientific
Instrument type: LC-ESI-ITFT
Ms type: MS2
Ion mode: POSITIVE
Ionization: ESI
Fragmentation mode: HCD
Collision energy: 60 % (nominal)
Resolution: 15000
Column name: Kinetex Evo C18 2.6 um 50 x 2.1 mm
Retention time: 8.740 min
Base peak: 202.0864
Precursor m/z: 202.0854
Precursor type: [M+H]+
Precursor intensity: 19742204
m/z	relative intensity	assigned
61.9792	14	CHClN+
68.0243	169	C2H2N3+
71.0604	304	C3H7N2+
79.0059	31	CH4ClN2+
90.0107	28	C3H5ClN+
96.0559	486	C4H6N3+
104.0012	400	C2H3ClN3+
107.0373	6	C3H8ClN2+
124.0872	860	C6H10N3+
132.0326	999	C4H7ClN3+
138.0777	35	C5H8N5+
146.0231	30	C3H5ClN5+
166.1091	169	C7H12N5+
174.0545	207	C5H9ClN5+
200.0706	5	C7H11ClN5+
202.0858	797	C7H13ClN5+
