Mass spectrum: Isoproturon; LC-ESI-ITFT; MS2; CE: 60%; R=15000; [M+H]+
Name: Isoproturon
Name: 1,1-dimethyl-3-(4-propan-2-ylphenyl)urea
Formula: C12H18N2O
Exact mass: 206.141913196
SMILES: CC(C)C1=CC=C(NC(=O)N(C)C)C=C1
InChI: InChI=1S/C12H18N2O/c1-9(2)10-5-7-11(8-6-10)13-12(15)14(3)4/h5-9H,1-4H3,(H,13,15)
Instrument: LTQ Orbitrap XL Thermo Scientific
Instrument type: LC-ESI-ITFT
Ms type: MS2
Ion mode: POSITIVE
Ionization: ESI
Fragmentation mode: HCD
Collision energy: 60 % (nominal)
Resolution: 15000
Column name: Kinetex Evo C18 2.6 um 50 x 2.1 mm
Retention time: 9.872 min
Base peak: 116.9861
Precursor m/z: 207.1492
Precursor type: [M+H]+
Precursor intensity: 459425.19
m/z	relative intensity	assigned
72.0442	999	C3H6NO+
92.0494	2	C6H6N+
107.0856	6	C8H11+
117.0699	2	C9H9+
120.0444	12	C7H6NO+
134.0964	93	C9H12N+
147.0916	9	C9H11N2+
162.0913	17	C10H12NO+
165.1022	100	C9H13N2O+
207.1492	34	C12H19N2O+
