Mass spectrum: Sulfadimidin / sulfamethazin; LC-ESI-ITFT; MS2; CE: 35; R=15000; [M+H]+
Name: Sulfadimidin / sulfamethazin
Name: Sulfamethazine
Name: 4-Amino-N-(4,6-dimethylpyrimidin-2-yl)benzenesulfonamide
Formula: C12H14N4O2S
Exact mass: 278.0837
SMILES: CC1=CC(C)=NC(NS(=O)(=O)C2=CC=C(N)C=C2)=N1
InChI: InChI=1S/C12H14N4O2S/c1-8-7-9(2)15-12(14-8)16-19(17,18)11-5-3-10(13)4-6-11/h3-7H,13H2,1-2H3,(H,14,15,16)
Instrument: LTQ Orbitrap XL Thermo Scientific
Instrument type: LC-ESI-ITFT
Ms type: MS2
Ion mode: POSITIVE
Ionization: ESI
Fragmentation mode: CID
Collision energy: 35 (nominal)
Resolution: 15000
Column name: Kinetex Core-Shell C18 2.6 um, 3.0 x 100 mm, Phenomenex
Retention time: 15.703 min
Base peak: 163.1328
Precursor m/z: 279.091
Precursor type: [M+H]+
m/z	relative intensity	assigned
92.0496	15	C6H6N+
95.0605	1	C5H7N2+
108.0445	12	C6H6NO+
122.0715	5	C6H8N3+
124.087	114	C6H10N3+
149.0235	29	C8H5O3+
156.0116	109	C6H6NO2S+
174.0219	2	C12H2N2+
186.0334	999	C6H8N3O2S+
203.0596	11	C6H11N4O2S+
204.044	139	C12H4N4+
213.1138	15	C12H13N4+
218.0596	4	C7H12N3O3S+
261.0809	9	C12H13N4OS+
279.0913	234	C12H15N4O2S+
