Mass spectrum: 2,6-Xylidine; LC-ESI-ITFT; MS2; CE: 70%; R=15000; [M+H]+
Name: 2,6-Xylidine
Name: 2,6-dimethylaniline
Formula: C8H11N
Exact mass: 121.089149352
SMILES: CC1=CC=CC(C)=C1N
InChI: InChI=1S/C8H11N/c1-6-4-3-5-7(2)8(6)9/h3-5H,9H2,1-2H3
Instrument: LTQ Orbitrap XL Thermo Scientific
Instrument type: LC-ESI-ITFT
Ms type: MS2
Ion mode: POSITIVE
Ionization: ESI
Fragmentation mode: HCD
Collision energy: 70 % (nominal)
Resolution: 15000
Column name: Kinetex Evo C18 2.6 um 50 x 2.1 mm
Retention time: 1.520 min
Base peak: 122.0965
Precursor m/z: 122.0964
Precursor type: [M+H]+
Precursor intensity: 25150082
m/z	relative intensity	assigned
77.0383	25	C6H5+
79.054	102	C6H7+
94.065	1	C6H8N+
103.0541	57	C8H7+
105.0696	999	C8H9+
106.0648	5	C7H8N+
107.0726	312	C7H9N+
120.0806	9	C8H10N+
122.0961	955	C8H12N+
