Mass spectrum: 2-Amino-1-methyl-6-phenylimidazo[4,5-b]pyridine (PhIP); LC-ESI-ITFT; MS2; CE: 10%; R=15000; [M+H]+
Name: 2-Amino-1-methyl-6-phenylimidazo[4,5-b]pyridine (PhIP)
Name: 2-Amino-1-methyl-6-phenylimidazo(4,5-b)pyridine
Name: 1-methyl-6-phenylimidazo[4,5-b]pyridin-2-amine
Formula: C13H12N4
Exact mass: 224.106196384
SMILES: CN1C(N)=NC2=NC=C(C=C12)C1=CC=CC=C1
InChI: InChI=1S/C13H12N4/c1-17-11-7-10(9-5-3-2-4-6-9)8-15-12(11)16-13(17)14/h2-8H,1H3,(H2,14,15,16)
Instrument: LTQ Orbitrap XL Thermo Scientific
Instrument type: LC-ESI-ITFT
Ms type: MS2
Ion mode: POSITIVE
Ionization: ESI
Fragmentation mode: HCD
Collision energy: 10 % (nominal)
Resolution: 15000
Column name: Kinetex Evo C18 2.6 um 50 x 2.1 mm
Retention time: 5.625 min
Base peak: 225.1135
Precursor m/z: 225.1135
Precursor type: [M+H]+
Precursor intensity: 6498719.5
m/z	relative intensity	assigned
225.1129	999	C13H13N4+
