Mass spectrum: ISO E Super; LC-ESI-ITFT; MS2; CE: 60%; R=15000; [M+H]+
Name: ISO E Super
Name: 1-(2,3,8,8-Tetramethyl-1,2,3,4,5,6,7,8-octahydronaphthalen-2-yl)ethanone
Name: 1-(2,3,8,8-tetramethyl-1,3,4,5,6,7-hexahydronaphthalen-2-yl)ethanone
Formula: C16H26O
Exact mass: 234.198365452
SMILES: CC1CC2=C(CC1(C)C(C)=O)C(C)(C)CCC2
InChI: InChI=1S/C16H26O/c1-11-9-13-7-6-8-15(3,4)14(13)10-16(11,5)12(2)17/h11H,6-10H2,1-5H3
Instrument: LTQ Orbitrap XL Thermo Scientific
Instrument type: LC-ESI-ITFT
Ms type: MS2
Ion mode: POSITIVE
Ionization: ESI
Fragmentation mode: HCD
Collision energy: 60 % (nominal)
Resolution: 15000
Column name: Kinetex Evo C18 2.6 um 50 x 2.1 mm
Retention time: 13.900 min
Base peak: 116.986
Precursor m/z: 235.2056
Precursor type: [M+H]+
Precursor intensity: 1069945.38
m/z	relative intensity	assigned
55.0541	133	C4H7+
57.0698	70	C4H9+
59.049	513	C3H7O+
67.0542	79	C5H7+
69.0698	268	C5H9+
81.07	339	C6H9+
83.0857	172	C6H11+
85.0649	97	C5H9O+
93.07	134	C7H9+
95.0857	999	C7H11+
97.1013	140	C7H13+
99.0805	81	C6H11O+
105.07	125	C8H9+
107.0857	511	C8H11+
109.1013	698	C8H13+
111.0809	38	C7H11O+
113.096	25	C7H13O+
119.0857	401	C9H11+
121.1013	517	C9H13+
123.0803	39	C8H11O+
123.117	311	C9H15+
133.1013	398	C10H13+
135.117	343	C10H15+
137.1327	87	C10H17+
139.112	68	C9H15O+
147.117	343	C11H15+
149.1326	93	C11H17+
151.1483	23	C11H19+
153.1277	84	C10H17O+
161.1326	266	C12H17+
163.1485	71	C12H19+
165.1276	142	C11H17O+
175.1483	240	C13H19+
177.164	330	C13H21+
179.1427	26	C12H19O+
189.1646	34	C14H21+
191.1797	173	C14H23+
193.1584	38	C13H21O+
193.1951	64	C14H25+
217.1953	312	C16H25+
235.2058	202	C16H27O+
