Mass spectrum: Candesartan; LC-ESI-ITFT; MS2; CE: 90%; R=15000; [M+H]+
Name: Candesartan
Name: 2-ethoxy-3-[[4-[2-(2H-tetrazol-5-yl)phenyl]phenyl]methyl]benzimidazole-4-carboxylic acid
Formula: C24H20N6O3
Exact mass: 440.1596885
SMILES: CCOC1=NC2=CC=CC(C(O)=O)=C2N1CC1=CC=C(C=C1)C1=CC=CC=C1C1=NN=NN1
InChI: InChI=1S/C24H20N6O3/c1-2-33-24-25-20-9-5-8-19(23(31)32)21(20)30(24)14-15-10-12-16(13-11-15)17-6-3-4-7-18(17)22-26-28-29-27-22/h3-13H,2,14H2,1H3,(H,31,32)(H,26,27,28,29)
Instrument: LTQ Orbitrap XL Thermo Scientific
Instrument type: LC-ESI-ITFT
Ms type: MS2
Ion mode: POSITIVE
Ionization: ESI
Fragmentation mode: HCD
Collision energy: 90 % (nominal)
Resolution: 15000
Column name: Kinetex Evo C18 2.6 um 50 x 2.1 mm
Retention time: 11.260 min
Base peak: 441.168
Precursor m/z: 441.167
Precursor type: [M+H]+
Precursor intensity: 29462108
m/z	relative intensity	assigned
152.062	265	C12H8+
165.07	999	C13H9+
177.0574	200	C13H7N+
178.0778	196	C14H10+
179.073	80	C13H9N+
180.0809	120	C13H10N+
190.0652	455	C14H8N+
191.0458	54	C9H7N2O3+
191.0732	214	C14H9N+
192.0808	380	C14H10N+
193.0888	112	C14H11N+
205.0765	193	C14H9N2+
206.0837	47	C14H10N2+
207.0917	41	C14H11N2+
219.0918	119	C15H11N2+
