Mass spectrum: Dimethenamid; LC-ESI-ITFT; MS2; CE: 20%; R=15000; [M+H]+
Name: Dimethenamid
Name: 2-chloro-N-(2,4-dimethylthiophen-3-yl)-N-(1-methoxypropan-2-yl)acetamide
Formula: C12H18ClNO2S
Exact mass: 275.074677496
SMILES: COCC(C)N(C(=O)CCl)C1=C(C)SC=C1C
InChI: InChI=1S/C12H18ClNO2S/c1-8-7-17-10(3)12(8)14(11(15)5-13)9(2)6-16-4/h7,9H,5-6H2,1-4H3
Instrument: LTQ Orbitrap XL Thermo Scientific
Instrument type: LC-ESI-ITFT
Ms type: MS2
Ion mode: POSITIVE
Ionization: ESI
Fragmentation mode: HCD
Collision energy: 20 % (nominal)
Resolution: 15000
Column name: Kinetex Evo C18 2.6 um 50 x 2.1 mm
Retention time: 10.926 min
Base peak: 276.0824
Precursor m/z: 276.082
Precursor type: [M+H]+
Precursor intensity: 31385838
m/z	relative intensity	assigned
169.0161	4	C10H3NO2+
244.0551	999	C11H15ClNOS+
276.0814	298	C12H19ClNO2S+
