Mass spectrum: Cotinine; LC-ESI-ITFT; MS2; CE: 55; R=15000; [M+H]+
Name: Cotinine
Name: (5S)-1-methyl-5-pyridin-3-ylpyrrolidin-2-one
Formula: C10H12N2O
Exact mass: 176.0950
SMILES: CN1[C@@H](CCC1=O)C1=CC=CN=C1
InChI: InChI=1S/C10H12N2O/c1-12-9(4-5-10(12)13)8-3-2-6-11-7-8/h2-3,6-7,9H,4-5H2,1H3/t9-/m0/s1
Instrument: LTQ Orbitrap XL Thermo Scientific
Instrument type: LC-ESI-ITFT
Ms type: MS2
Ion mode: POSITIVE
Ionization: ESI
Fragmentation mode: CID
Collision energy: 55 (nominal)
Resolution: 15000
Column name: Kinetex Core-Shell C18 2.6 um, 3.0 x 100 mm, Phenomenex
Retention time: 2.635 min
Base peak: 177.1029
Precursor m/z: 177.1022
Precursor type: [M+H]+
m/z	relative intensity	assigned
70.0654	8	C4H8N+
80.0498	675	C5H6N+
98.0604	766	C5H8NO+
118.0657	126	C8H8N+
146.0607	999	C9H8NO+
147.0059	8	C6HN3O2+
148.0763	13	C9H10NO+
149.0716	203	C8H9N2O+
159.0924	32	C10H11N2+
