Mass spectrum: Isophorondiamine; LC-ESI-ITFT; MS2; CE: 55; R=15000; [M+H]+
Name: Isophorondiamine
Name: Isophorone diamine
Name: 3-(Aminomethyl)-3,5,5-trimethylcyclohexan-1-amine
Formula: C10H22N2
Exact mass: 170.1783
SMILES: CC1(C)CC(N)CC(C)(CN)C1
InChI: InChI=1S/C10H22N2/c1-9(2)4-8(12)5-10(3,6-9)7-11/h8H,4-7,11-12H2,1-3H3
Instrument: LTQ Orbitrap XL Thermo Scientific
Instrument type: LC-ESI-ITFT
Ms type: MS2
Ion mode: POSITIVE
Ionization: ESI
Fragmentation mode: CID
Collision energy: 55 (nominal)
Resolution: 15000
Column name: Kinetex Core-Shell C18 2.6 um, 3.0 x 100 mm, Phenomenex
Retention time: 2.214 min
Base peak: 119.1069
Precursor m/z: 171.1856
Precursor type: [M+H]+
m/z	relative intensity	assigned
72.0445	2	C3H6NO+
89.0714	10	C3H9N2O+
107.0607	2	C6H7N2+
154.1596	999	C10H20N+
