Mass spectrum: Imazalil; LC-ESI-ITFT; MS2; CE: 40%; R=15000; [M+H]+
Name: Imazalil
Name: Enilconazole
Name: 1-[2-(2,4-dichlorophenyl)-2-prop-2-enoxyethyl]imidazole
Formula: C14H14Cl2N2O
Exact mass: 296.048318428
SMILES: ClC1=CC=C(C(CN2C=CN=C2)OCC=C)C(Cl)=C1
InChI: InChI=1S/C14H14Cl2N2O/c1-2-7-19-14(9-18-6-5-17-10-18)12-4-3-11(15)8-13(12)16/h2-6,8,10,14H,1,7,9H2
Instrument: LTQ Orbitrap XL Thermo Scientific
Instrument type: LC-ESI-ITFT
Ms type: MS2
Ion mode: POSITIVE
Ionization: ESI
Fragmentation mode: HCD
Collision energy: 40 % (nominal)
Resolution: 15000
Column name: Kinetex Evo C18 2.6 um 50 x 2.1 mm
Retention time: 8.401 min
Base peak: 297.0569
Precursor m/z: 297.0556
Precursor type: [M+H]+
Precursor intensity: 16059361
m/z	relative intensity	assigned
69.0446	573	C3H5N2+
81.0447	72	C4H5N2+
82.065	13	C5H8N+
109.076	481	C6H9N2+
158.9763	999	C7H5Cl2+
163.031	5	C10H8Cl+
164.0388	18	C10H9Cl+
172.9919	148	C8H7Cl2+
175.0312	12	C11H8Cl+
176.0387	277	C11H9Cl+
182.9767	9	C9H5Cl2+
184.9919	71	C9H7Cl2+
186.9714	16	C8H5Cl2O+
199.0076	67	C10H9Cl2+
200.9868	371	C9H7Cl2O+
203.0369	18	C11H8ClN2+
211.0076	64	C11H9Cl2+
229.0187	13	C11H11Cl2O+
255.0086	329	C11H9Cl2N2O+
297.0556	769	C14H15Cl2N2O+
