Mass spectrum: Diazepam; LC-ESI-ITFT; MS2; CE: 50%; R=15000; [M+H]+
Name: Diazepam
Name: 7-chloro-1-methyl-5-phenyl-3H-1,4-benzodiazepin-2-one
Formula: C16H13ClN2O
Exact mass: 284.071640716
SMILES: CN1C2=C(C=C(Cl)C=C2)C(=NCC1=O)C1=CC=CC=C1
InChI: InChI=1S/C16H13ClN2O/c1-19-14-8-7-12(17)9-13(14)16(18-10-15(19)20)11-5-3-2-4-6-11/h2-9H,10H2,1H3
Instrument: LTQ Orbitrap XL Thermo Scientific
Instrument type: LC-ESI-ITFT
Ms type: MS2
Ion mode: POSITIVE
Ionization: ESI
Fragmentation mode: HCD
Collision energy: 50 % (nominal)
Resolution: 15000
Column name: Kinetex Evo C18 2.6 um 50 x 2.1 mm
Retention time: 10.925 min
Base peak: 372.2332
Precursor m/z: 285.0789
Precursor type: [M+H]+
Precursor intensity: 32794984
m/z	relative intensity	assigned
58.0285	5	C2H4NO+
91.0542	39	C7H7+
104.0494	4	C7H6N+
105.0335	52	C7H5O+
116.0495	7	C8H6N+
117.0571	4	C8H7N+
118.065	2	C8H8N+
141.034	7	C7H8ClN+
144.044	4	C9H6NO+
147.0679	11	C9H9NO+
150.0106	4	C8H5ClN+
152.0262	6	C8H7ClN+
154.0418	382	C8H9ClN+
164.0262	2	C9H7ClN+
167.0133	22	C8H6ClNO+
172.0631	34	C10H8N2O+
179.0371	27	C9H8ClN2+
180.0211	32	C9H7ClNO+
182.0367	85	C9H9ClNO+
193.0886	158	C14H11N+
204.081	4	C15H10N+
205.0887	3	C15H11N+
207.0318	10	C10H8ClN2O+
216.0575	13	C13H11ClN+
220.0997	3	C15H12N2+
221.0837	2	C15H11NO+
221.1073	19	C15H13N2+
222.1152	201	C15H14N2+
226.0421	5	C14H9ClN+
227.0497	14	C14H10ClN+
228.0575	225	C14H11ClN+
230.0731	13	C14H13ClN+
240.0577	4	C15H11ClN+
241.0527	27	C14H10ClN2+
242.061	9	C14H11ClN2+
243.0691	4	C14H12ClN2+
255.0684	21	C15H12ClN2+
256.0769	4	C15H13ClN2+
257.084	321	C15H14ClN2+
285.0789	999	C16H14ClN2O+
