Mass spectrum: Flumequine; LC-ESI-ITFT; MS2; CE: 70%; R=15000; [M+H]+
Name: Flumequine
Name: 7-fluoro-12-methyl-4-oxo-1-azatricyclo[7.3.1.05,13]trideca-2,5,7,9(13)-tetraene-3-carboxylic acid
Formula: C14H12FNO3
Exact mass: 261.080121464
SMILES: CC1CCC2=C3N1C=C(C(O)=O)C(=O)C3=CC(F)=C2
InChI: InChI=1S/C14H12FNO3/c1-7-2-3-8-4-9(15)5-10-12(8)16(7)6-11(13(10)17)14(18)19/h4-7H,2-3H2,1H3,(H,18,19)
Instrument: LTQ Orbitrap XL Thermo Scientific
Instrument type: LC-ESI-ITFT
Ms type: MS2
Ion mode: POSITIVE
Ionization: ESI
Fragmentation mode: HCD
Collision energy: 70 % (nominal)
Resolution: 15000
Column name: Kinetex Evo C18 2.6 um 50 x 2.1 mm
Retention time: 9.262 min
Base peak: 262.0886
Precursor m/z: 262.0874
Precursor type: [M+H]+
Precursor intensity: 20263888
m/z	relative intensity	assigned
146.0399	5	C9H5FN+
148.0559	5	C9H7FN+
174.0351	41	C10H5FNO+
176.0871	22	C11H11FN+
200.0869	9	C13H11FN+
201.0594	6	C12H8FNO+
202.03	861	C11H5FNO2+
203.0383	4	C11H6FNO2+
216.0455	5	C12H7FNO2+
216.0822	9	C13H11FNO+
220.0406	389	C11H7FNO3+
234.056	12	C12H9FNO3+
244.077	999	C14H11FNO2+
262.0875	374	C14H13FNO3+
