Mass spectrum: Fenpropimorph; LC-ESI-ITFT; MS2; CE: 80; R=15000; [M+H]+
Name: Fenpropimorph
Name: 4-[3-(4-Tert-butylphenyl)-2-methylpropyl]-2,6-dimethylmorpholine
Formula: C20H33NO
Exact mass: 303.2562
SMILES: CC(CN1CC(C)OC(C)C1)CC1=CC=C(C=C1)C(C)(C)C
InChI: InChI=1S/C20H33NO/c1-15(12-21-13-16(2)22-17(3)14-21)11-18-7-9-19(10-8-18)20(4,5)6/h7-10,15-17H,11-14H2,1-6H3
Instrument: LTQ Orbitrap XL Thermo Scientific
Instrument type: LC-ESI-ITFT
Ms type: MS2
Ion mode: POSITIVE
Ionization: ESI
Fragmentation mode: HCD
Collision energy: 80 (nominal)
Resolution: 15000
Column name: Kinetex Core-Shell C18 2.6 um, 3.0 x 100 mm, Phenomenex
Retention time: 22.432 min
Base peak: 163.1327
Precursor m/z: 304.2635
Precursor type: [M+H]+
m/z	relative intensity	assigned
70.065	15	C4H8N+
72.0807	9	C4H10N+
81.0698	12	C6H9+
86.0965	4	C5H12N+
88.0757	5	C4H10NO+
91.0542	79	C7H7+
98.0964	274	C6H12N+
100.1121	2	C6H14N+
102.0914	11	C5H12NO+
103.0543	2	C8H7+
105.0698	308	C8H9+
107.0855	57	C8H11+
112.1121	5	C7H14N+
114.0913	2	C6H12NO+
115.0541	2	C9H7+
116.107	55	C6H14NO+
117.0699	167	C9H9+
119.0855	395	C9H11+
128.1067	2	C7H14NO+
130.1227	55	C7H16NO+
131.0856	21	C10H11+
132.0933	555	C10H12+
145.1012	21	C11H13+
147.1168	999	C11H15+
148.1201	78	C6H16N2O2+
159.1169	11	C12H15+
161.1325	19	C12H17+
