Mass spectrum: Pindolol; LC-ESI-ITFT; MS2; CE: 55; R=15000; [M+H]+
Name: Pindolol
Name: 1-(1H-Indol-4-yloxy)-3-(propan-2-ylamino)propan-2-ol
Formula: C14H20N2O2
Exact mass: 248.1525
SMILES: CC(C)NCC(O)COC1=CC=CC2=C1C=CN2
InChI: InChI=1S/C14H20N2O2/c1-10(2)16-8-11(17)9-18-14-5-3-4-13-12(14)6-7-15-13/h3-7,10-11,15-17H,8-9H2,1-2H3
Instrument: LTQ Orbitrap XL Thermo Scientific
Instrument type: LC-ESI-ITFT
Ms type: MS2
Ion mode: POSITIVE
Ionization: ESI
Fragmentation mode: HCD
Collision energy: 55 (nominal)
Resolution: 15000
Column name: Kinetex Core-Shell C18 2.6 um, 3.0 x 100 mm, Phenomenex
Retention time: 14.015 min
Base peak: 163.1328
Precursor m/z: 249.1598
Precursor type: [M+H]+
m/z	relative intensity	assigned
72.0807	142	C4H10N+
74.06	238	C3H8NO+
84.0807	4	C5H10N+
86.0965	8	C5H12N+
98.0964	158	C6H12N+
100.1121	28	C6H14N+
106.0653	4	C7H8N+
116.107	999	C6H14NO+
117.0699	12	C9H9+
118.0651	58	C8H8N+
129.0696	3	C10H9+
130.0652	23	C9H8N+
132.0444	26	C8H6NO+
132.0808	9	C9H10N+
133.0522	4	C8H7NO+
134.0601	261	C8H8NO+
143.0731	4	C10H9N+
144.0809	254	C10H10N+
145.0648	5	C10H9O+
146.0601	270	C9H8NO+
154.0651	8	C11H8N+
155.0609	2	C10H7N2+
157.0528	2	C10H7NO+
160.0759	30	C10H10NO+
170.0599	2	C11H8NO+
172.0758	373	C11H10NO+
174.0911	3	C11H12NO+
207.1131	4	C11H15N2O2+
249.1599	49	C14H21N2O2+
