Mass spectrum: 2-Aminobiphenyl; LC-ESI-ITFT; MS2; CE: 40%; R=15000; [M+H]+
Name: 2-Aminobiphenyl
Name: 2-phenylaniline
Formula: C12H11N
Exact mass: 169.089149352
SMILES: NC1=C(C=CC=C1)C1=CC=CC=C1
InChI: InChI=1S/C12H11N/c13-12-9-5-4-8-11(12)10-6-2-1-3-7-10/h1-9H,13H2
Instrument: LTQ Orbitrap XL Thermo Scientific
Instrument type: LC-ESI-ITFT
Ms type: MS2
Ion mode: POSITIVE
Ionization: ESI
Fragmentation mode: HCD
Collision energy: 40 % (nominal)
Resolution: 15000
Column name: Kinetex Evo C18 2.6 um 50 x 2.1 mm
Retention time: 8.137 min
Base peak: 170.0965
Precursor m/z: 170.0964
Precursor type: [M+H]+
Precursor intensity: 38207316
m/z	relative intensity	assigned
143.0852	3	C11H11+
153.0695	9	C12H9+
169.088	2	C12H11N+
170.0959	999	C12H12N+
