Mass spectrum: 10,11-Dihydro-10-hydroxycarbamazepine; LC-ESI-ITFT; MS2; CE: 30%; R=15000; [M+H]+
Name: 10,11-Dihydro-10-hydroxycarbamazepine
Name: Licarbazepine
Name: 5-hydroxy-5,6-dihydrobenzo[b][1]benzazepine-11-carboxamide
Formula: C15H14N2O2
Exact mass: 254.105527688
SMILES: NC(=O)N1C2=CC=CC=C2C(O)CC2=C1C=CC=C2
InChI: InChI=1S/C15H14N2O2/c16-15(19)17-12-7-3-1-5-10(12)9-14(18)11-6-2-4-8-13(11)17/h1-8,14,18H,9H2,(H2,16,19)
Instrument: LTQ Orbitrap XL Thermo Scientific
Instrument type: LC-ESI-ITFT
Ms type: MS2
Ion mode: POSITIVE
Ionization: ESI
Fragmentation mode: HCD
Collision energy: 30 % (nominal)
Resolution: 15000
Column name: Kinetex Evo C18 2.6 um 50 x 2.1 mm
Retention time: 8.189 min
Base peak: 255.1137
Precursor m/z: 255.1128
Precursor type: [M+H]+
Precursor intensity: 4025369
m/z	relative intensity	assigned
194.0974	674	C14H12N+
237.1033	999	C15H13N2O+
