Mass spectrum: Clozapine; LC-ESI-ITFT; MS2; CE: 20%; R=15000; [M+H]+
Name: Clozapine
Name: 3-chloro-6-(4-methylpiperazin-1-yl)-11H-benzo[b][1,4]benzodiazepine
Formula: C18H19ClN4
Exact mass: 326.129824288
SMILES: CN1CCN(CC1)C1=NC2=C(NC3=CC=CC=C13)C=CC(Cl)=C2
InChI: InChI=1S/C18H19ClN4/c1-22-8-10-23(11-9-22)18-14-4-2-3-5-15(14)20-16-7-6-13(19)12-17(16)21-18/h2-7,12,20H,8-11H2,1H3
Instrument: LTQ Orbitrap XL Thermo Scientific
Instrument type: LC-ESI-ITFT
Ms type: MS2
Ion mode: POSITIVE
Ionization: ESI
Fragmentation mode: HCD
Collision energy: 20 % (nominal)
Resolution: 15000
Column name: Kinetex Evo C18 2.6 um 50 x 2.1 mm
Retention time: 6.897 min
Base peak: 327.1384
Precursor m/z: 327.1371
Precursor type: [M+H]+
Precursor intensity: 24695654
m/z	relative intensity	assigned
84.0806	5	C5H10N+
270.0794	41	C15H13ClN3+
296.0943	1	C17H15ClN3+
327.1371	999	C18H20ClN4+
