Mass spectrum: Pyrimidinol; LC-ESI-ITFT; MS2; CE: 55; R=15000; [M+H]+
Name: Pyrimidinol
Name: 2-Isopropyl-6-methyl-pyrimidin-4-ol
Name: 6-Methyl-2-propan-2-yl-1H-pyrimidin-4-one
Formula: C8H12N2O
Exact mass: 152.0950
SMILES: CC(C)C1=NC(O)=CC(C)=N1
InChI: InChI=1S/C8H12N2O/c1-5(2)8-9-6(3)4-7(11)10-8/h4-5H,1-3H3,(H,9,10,11)
Instrument: LTQ Orbitrap XL Thermo Scientific
Instrument type: LC-ESI-ITFT
Ms type: MS2
Ion mode: POSITIVE
Ionization: ESI
Fragmentation mode: HCD
Collision energy: 55 (nominal)
Resolution: 15000
Column name: Kinetex Core-Shell C18 2.6 um, 3.0 x 100 mm, Phenomenex
Retention time: 12.433 min
Base peak: 163.1332
Precursor m/z: 153.1022
Precursor type: [M+H]+
m/z	relative intensity	assigned
70.0653	30	C4H8N+
84.0446	360	C4H6NO+
108.0808	1	C7H10N+
112.0757	1	C6H10NO+
136.0762	1	C8H10NO+
138.0794	3	C7H10N2O+
153.1026	999	C8H13N2O+
