Mass spectrum: Desisopropylatrazine; LC-ESI-ITFT; MS2; CE: 70%; R=15000; [M+H]+
Name: Desisopropylatrazine
Name: Deisopropylatrazine
Name: 6-chloro-2-N-ethyl-1,3,5-triazine-2,4-diamine
Formula: C5H8ClN5
Exact mass: 173.046822936
SMILES: CCNC1=NC(Cl)=NC(N)=N1
InChI: InChI=1S/C5H8ClN5/c1-2-8-5-10-3(6)9-4(7)11-5/h2H2,1H3,(H3,7,8,9,10,11)
Instrument: LTQ Orbitrap XL Thermo Scientific
Instrument type: LC-ESI-ITFT
Ms type: MS2
Ion mode: POSITIVE
Ionization: ESI
Fragmentation mode: HCD
Collision energy: 70 % (nominal)
Resolution: 15000
Column name: Kinetex Evo C18 2.6 um 50 x 2.1 mm
Retention time: 3.245 min
Base peak: 174.0545
Precursor m/z: 174.0541
Precursor type: [M+H]+
Precursor intensity: 10711749
m/z	relative intensity	assigned
61.979	36	CHClN+
68.0241	719	C2H2N3+
71.0602	373	C3H7N2+
79.0056	610	CH4ClN2+
90.0104	45	C3H5ClN+
96.0555	999	C4H6N3+
104.0009	946	C2H3ClN3+
107.0371	2	C3H8ClN2+
110.046	97	C3H4N5+
132.0322	824	C4H7ClN3+
138.0773	182	C5H8N5+
146.0227	382	C3H5ClN5+
174.054	862	C5H9ClN5+
