Mass spectrum: Decaethylene glycol; LC-ESI-ITFT; MS2; CE: 30%; R=15000; [M+Na]+
Name: Decaethylene glycol
Name: 3,6,9,12,15,18,21,24,27-Nonaoxanonacosane-1,29-diol
Name: 2-[2-[2-[2-[2-[2-[2-[2-[2-(2-hydroxyethoxy)ethoxy]ethoxy]ethoxy]ethoxy]ethoxy]ethoxy]ethoxy]ethoxy]ethanol
Formula: C20H42O11
Exact mass: 458.2727
SMILES: OCCOCCOCCOCCOCCOCCOCCOCCOCCOCCO
InChI: InChI=1S/C20H42O11/c21-1-3-23-5-7-25-9-11-27-13-15-29-17-19-31-20-18-30-16-14-28-12-10-26-8-6-24-4-2-22/h21-22H,1-20H2
Instrument: LTQ Orbitrap XL Thermo Scientific
Instrument type: LC-ESI-ITFT
Ms type: MS2
Ion mode: POSITIVE
Ionization: ESI
Fragmentation mode: HCD
Collision energy: 30 % (nominal)
Resolution: 15000
Column name: Kinetex Evo C18 2.6 um 50 x 2.1 mm
Retention time: 7.728 min
Base peak: 476.3063
Precursor m/z: 481.2619
Precursor type: [M+Na]+
m/z	relative intensity	assigned
66.138	999	C2H19Na+
