Mass spectrum: Ethylparaben; LC-ESI-ITFT; MS2; CE: 55; R=15000; [M+H]+
Name: Ethylparaben
Name: 4-Hydroxybenzoate-ethyl
Formula: C9H10O3
Exact mass: 166.0630
SMILES: CCOC(=O)C1=CC=C(O)C=C1
InChI: InChI=1S/C9H10O3/c1-2-12-9(11)7-3-5-8(10)6-4-7/h3-6,10H,2H2,1H3
Instrument: LTQ Orbitrap XL Thermo Scientific
Instrument type: LC-ESI-ITFT
Ms type: MS2
Ion mode: POSITIVE
Ionization: ESI
Fragmentation mode: HCD
Collision energy: 55 (nominal)
Resolution: 15000
Column name: Kinetex Core-Shell C18 2.6 um, 3.0 x 100 mm, Phenomenex
Retention time: 21.860 min
Base peak: 255.0645
Precursor m/z: 167.0703
Precursor type: [M+H]+
m/z	relative intensity	assigned
77.0384	66	C6H5+
95.0489	999	C6H7O+
105.0445	31	C6H5N2+
121.0281	600	C7H5O2+
139.0387	575	C7H7O3+
