Mass spectrum: 7-Hydroxy-4-methylcoumarin; LC-ESI-ITFT; MS2; CE: 35; R=15000; [M+H]+
Name: 7-Hydroxy-4-methylcoumarin
Name: 4-Methylumbelliferone
Name: 7-Hydroxy-4-methylchromen-2-one
Formula: C10H8O3
Exact mass: 176.0473
SMILES: CC1=CC(=O)OC2=CC(O)=CC=C12
InChI: InChI=1S/C10H8O3/c1-6-4-10(12)13-9-5-7(11)2-3-8(6)9/h2-5,11H,1H3
Instrument: LTQ Orbitrap XL Thermo Scientific
Instrument type: LC-ESI-ITFT
Ms type: MS2
Ion mode: POSITIVE
Ionization: ESI
Fragmentation mode: CID
Collision energy: 35 (nominal)
Resolution: 15000
Column name: Kinetex Core-Shell C18 2.6 um, 3.0 x 100 mm, Phenomenex
Retention time: 20.082 min
Base peak: 163.1332
Precursor m/z: 177.0546
Precursor type: [M+H]+
m/z	relative intensity	assigned
77.0387	1	C6H5+
79.0544	14	C6H7+
81.0701	1	C6H9+
93.0701	1	C7H9+
103.0545	15	C8H7+
105.0701	223	C8H9+
115.0546	13	C9H7+
121.0652	45	C8H9O+
131.0497	5	C9H7O+
133.0652	46	C9H9O+
143.0609	1	C9H7N2+
149.0602	20	C9H9O2+
177.0551	999	C10H9O3+
