Mass spectrum: Primidone; LC-ESI-ITFT; MS2; CE: 55; R=15000; [M+H]+
Name: Primidone
Name: 5-Ethyl-5-phenyl-1,3-diazinane-4,6-dione
Formula: C12H14N2O2
Exact mass: 218.1055
SMILES: CCC1(C(=O)NCNC1=O)C1=CC=CC=C1
InChI: InChI=1S/C12H14N2O2/c1-2-12(9-6-4-3-5-7-9)10(15)13-8-14-11(12)16/h3-7H,2,8H2,1H3,(H,13,15)(H,14,16)
Instrument: LTQ Orbitrap XL Thermo Scientific
Instrument type: LC-ESI-ITFT
Ms type: MS2
Ion mode: POSITIVE
Ionization: ESI
Fragmentation mode: HCD
Collision energy: 55 (nominal)
Resolution: 15000
Column name: Kinetex Core-Shell C18 2.6 um, 3.0 x 100 mm, Phenomenex
Retention time: 18.377 min
Base peak: 163.1328
Precursor m/z: 219.1128
Precursor type: [M+H]+
m/z	relative intensity	assigned
91.0543	999	C7H7+
106.0652	175	C7H8N+
115.0545	13	C9H7+
117.07	224	C9H9+
119.0856	146	C9H11+
123.0234	41	C10H3+
131.0855	10	C10H11+
134.0966	86	C9H12N+
145.0655	10	C10H9O+
162.0916	359	C10H12NO+
