Mass spectrum: Fluvoxamine; LC-ESI-ITFT; MS2; CE: 60%; R=15000; [M+H]+
Name: Fluvoxamine
Name: 2-[[5-methoxy-1-[4-(trifluoromethyl)phenyl]pentylidene]amino]oxyethanamine
Formula: C15H21F3N2O2
Exact mass: 318.155512572
SMILES: COCCCCC(=NOCCN)C1=CC=C(C=C1)C(F)(F)F
InChI: InChI=1S/C15H21F3N2O2/c1-21-10-3-2-4-14(20-22-11-9-19)12-5-7-13(8-6-12)15(16,17)18/h5-8H,2-4,9-11,19H2,1H3
Instrument: LTQ Orbitrap XL Thermo Scientific
Instrument type: LC-ESI-ITFT
Ms type: MS2
Ion mode: POSITIVE
Ionization: ESI
Fragmentation mode: HCD
Collision energy: 60 % (nominal)
Resolution: 15000
Column name: Kinetex Evo C18 2.6 um 50 x 2.1 mm
Retention time: 8.985 min
Base peak: 319.1638
Precursor m/z: 319.1628
Precursor type: [M+H]+
Precursor intensity: 49229456
m/z	relative intensity	assigned
55.054	120	C4H7+
56.0254	2	C3H4O+
57.0697	27	C4H9+
62.0598	12	C2H8NO+
71.049	999	C4H7O+
87.0804	126	C5H11O+
130.0651	23	C9H8N+
131.0729	43	C9H9N+
132.0812	3	C9H10N+
159.0414	10	C8H6F3+
172.0368	35	C8H5F3N+
174.0523	4	C8H7F3N+
180.0619	36	C10H8F2N+
185.0569	6	C10H8F3+
186.0526	4	C9H7F3N+
198.0526	22	C10H7F3N+
199.0605	3	C10H8F3N+
200.0682	157	C10H9F3N+
211.0608	7	C11H8F3N+
212.0683	5	C11H9F3N+
214.0838	7	C11H11F3N+
224.0674	4	C12H9F3N+
226.0838	26	C12H11F3N+
228.0993	25	C12H13F3N+
240.1003	5	C13H13F3N+
244.0944	42	C12H13F3NO+
