Mass spectrum: Pyriproxyfen; LC-ESI-ITFT; MS2; CE: 80%; R=15000; [M+H]+
Name: Pyriproxyfen
Name: 2-[1-(4-phenoxyphenoxy)propan-2-yloxy]pyridine
Formula: C20H19NO3
Exact mass: 321.136493468
SMILES: CC(COC1=CC=C(OC2=CC=CC=C2)C=C1)OC1=CC=CC=N1
InChI: InChI=1S/C20H19NO3/c1-16(23-20-9-5-6-14-21-20)15-22-17-10-12-19(13-11-17)24-18-7-3-2-4-8-18/h2-14,16H,15H2,1H3
Instrument: LTQ Orbitrap XL Thermo Scientific
Instrument type: LC-ESI-ITFT
Ms type: MS2
Ion mode: POSITIVE
Ionization: ESI
Fragmentation mode: HCD
Collision energy: 80 % (nominal)
Resolution: 15000
Column name: Kinetex Evo C18 2.6 um 50 x 2.1 mm
Retention time: 13.619 min
Base peak: 322.1449
Precursor m/z: 322.1438
Precursor type: [M+H]+
Precursor intensity: 20700428
m/z	relative intensity	assigned
55.0178	1	C3H3O+
65.0385	1	C5H5+
77.0386	143	C6H5+
78.0339	90	C5H4N+
79.0542	5	C6H7+
91.0544	59	C7H7+
92.062	1	C7H8+
94.0415	5	C6H6O+
95.0494	26	C6H7O+
96.0445	999	C5H6NO+
103.0546	4	C8H7+
105.07	37	C8H9+
106.0778	3	C8H10+
107.0493	6	C7H7O+
110.0603	2	C6H8NO+
115.0544	75	C9H7+
116.0622	4	C9H8+
117.0699	3	C9H9+
119.0493	212	C8H7O+
123.0673	4	C7H9NO+
128.0622	59	C10H8+
129.07	223	C10H9+
131.0492	1	C9H7O+
133.065	35	C9H9O+
134.0728	32	C9H10O+
136.0755	3	C8H10NO+
141.0701	99	C11H9+
145.0649	3	C10H9O+
152.0623	3	C12H8+
153.0701	7	C12H9+
157.0651	29	C11H9O+
165.07	5	C13H9+
166.0784	1	C13H10+
168.0575	4	C12H8O+
169.0653	4	C12H9O+
170.0728	6	C12H10O+
171.0802	2	C12H11O+
181.0655	4	C13H9O+
185.06	54	C12H9O2+
186.0681	3	C12H10O2+
194.0727	4	C14H10O+
197.0605	2	C13H9O2+
199.0757	1	C13H11O2+
