Mass spectrum: 4-Androsten-11beta-ol-3,17-dione; LC-ESI-ITFT; MS2; CE: 10%; R=15000; [M+H]+
Name: 4-Androsten-11beta-ol-3,17-dione
Name: 11beta-Hydroxyandrostenedione
Name: (8S,9S,10R,11S,13S,14S)-11-hydroxy-10,13-dimethyl-2,6,7,8,9,11,12,14,15,16-decahydro-1H-cyclopenta[a]phenanthrene-3,17-dione
Formula: C19H26O3
Exact mass: 302.188194692
SMILES: C[C@]12C[C@H](O)[C@H]3[C@@H](CCC4=CC(=O)CC[C@]34C)[C@@H]1CCC2=O
InChI: InChI=1S/C19H26O3/c1-18-8-7-12(20)9-11(18)3-4-13-14-5-6-16(22)19(14,2)10-15(21)17(13)18/h9,13-15,17,21H,3-8,10H2,1-2H3/t13-,14-,15-,17+,18-,19-/m0/s1
Instrument: LTQ Orbitrap XL Thermo Scientific
Instrument type: LC-ESI-ITFT
Ms type: MS2
Ion mode: POSITIVE
Ionization: ESI
Fragmentation mode: HCD
Collision energy: 10 % (nominal)
Resolution: 15000
Column name: Kinetex Evo C18 2.6 um 50 x 2.1 mm
Retention time: 10.068 min
Base peak: 303.1955
Precursor m/z: 303.1955
Precursor type: [M+H]+
Precursor intensity: 29171348
m/z	relative intensity	assigned
267.1747	2	C19H23O+
285.1844	16	C19H25O2+
303.1946	999	C19H27O3+
