Mass spectrum: Pendimethalin; LC-ESI-ITFT; MS2; CE: 40%; R=15000; [M+H]+
Name: Pendimethalin
Name: 3,4-dimethyl-2,6-dinitro-N-pentan-3-ylaniline
Formula: C13H19N3O4
Exact mass: 281.137556088
SMILES: CCC(CC)NC1=C(C(C)=C(C)C=C1[N+]([O-])=O)[N+]([O-])=O
InChI: InChI=1S/C13H19N3O4/c1-5-10(6-2)14-12-11(15(17)18)7-8(3)9(4)13(12)16(19)20/h7,10,14H,5-6H2,1-4H3
Instrument: LTQ Orbitrap XL Thermo Scientific
Instrument type: LC-ESI-ITFT
Ms type: MS2
Ion mode: POSITIVE
Ionization: ESI
Fragmentation mode: HCD
Collision energy: 40 % (nominal)
Resolution: 15000
Column name: Kinetex Evo C18 2.6 um 50 x 2.1 mm
Retention time: 13.718 min
Base peak: 282.1452
Precursor m/z: 282.1448
Precursor type: [M+H]+
Precursor intensity: 5672277.5
m/z	relative intensity	assigned
53.0385	6	C4H5+
66.0339	6	C4H4N+
67.0419	3	C4H5N+
68.0494	8	C4H6N+
71.0856	99	C5H11+
78.034	21	C5H4N+
80.0496	31	C5H6N+
91.0419	51	C6H5N+
92.0498	9	C6H6N+
93.0451	8	C5H5N2+
96.0446	9	C5H6NO+
103.0417	5	C7H5N+
105.0448	6	C6H5N2+
107.0607	11	C6H7N2+
108.0446	18	C6H6NO+
118.0528	139	C7H6N2+
119.0607	25	C7H7N2+
121.04	10	C6H5N2O+
126.0553	11	C6H8NO2+
130.0526	5	C8H6N2+
131.0477	8	C7H5N3+
134.0604	7	C8H8NO+
135.0557	17	C7H7N2O+
136.0635	13	C7H8N2O+
147.0556	44	C8H7N2O+
148.051	7	C7H6N3O+
148.0635	60	C8H8N2O+
149.0588	51	C7H7N3O+
160.0509	8	C8H6N3O+
164.0584	24	C8H8N2O2+
165.0666	11	C8H9N2O2+
166.0615	10	C7H8N3O2+
166.0738	5	C8H10N2O2+
177.0538	32	C8H7N3O2+
178.0615	43	C8H8N3O2+
194.0565	543	C8H8N3O3+
195.0643	102	C8H9N3O3+
212.067	999	C8H10N3O4+
