Mass spectrum: Daidzein; LC-ESI-ITFT; MS2; CE: 55; R=15000; [M+H]+
Name: Daidzein
Name: 7-Hydroxy-3-(4-hydroxyphenyl)chromen-4-one
Formula: C15H10O4
Exact mass: 254.0579
SMILES: OC1=CC=C(C=C1)C1=COC2=CC(O)=CC=C2C1=O
InChI: InChI=1S/C15H10O4/c16-10-3-1-9(2-4-10)13-8-19-14-7-11(17)5-6-12(14)15(13)18/h1-8,16-17H
Instrument: LTQ Orbitrap XL Thermo Scientific
Instrument type: LC-ESI-ITFT
Ms type: MS2
Ion mode: POSITIVE
Ionization: ESI
Fragmentation mode: HCD
Collision energy: 55 (nominal)
Resolution: 15000
Column name: Kinetex Core-Shell C18 2.6 um, 3.0 x 100 mm, Phenomenex
Retention time: 21.699 min
Base peak: 255.0644
Precursor m/z: 255.0652
Precursor type: [M+H]+
m/z	relative intensity	assigned
81.0335	1	C5H5O+
91.0541	19	C7H7+
105.0334	2	C7H5O+
119.0491	19	C8H7O+
121.0283	5	C7H5O2+
128.0617	3	C10H8+
129.0698	10	C10H9+
131.0491	2	C9H7O+
131.0854	3	C10H11+
133.0283	14	C8H5O2+
134.0361	2	C8H6O2+
137.0232	139	C7H5O3+
141.0701	2	C11H9+
143.0855	7	C11H11+
145.0283	25	C9H5O2+
149.0232	12	C8H5O3+
152.0618	1	C12H8+
153.0698	22	C12H9+
155.0854	1	C12H11+
157.0647	22	C11H9O+
165.0698	4	C13H9+
169.0646	3	C12H9O+
171.0804	27	C12H11O+
181.0647	60	C13H9O+
182.0724	2	C13H10O+
184.0518	5	C12H8O2+
185.0596	5	C12H9O2+
197.0598	3	C13H9O2+
198.0673	2	C13H10O2+
199.0752	333	C13H11O2+
209.0597	13	C14H9O2+
209.0709	10	C13H9N2O+
210.0676	4	C14H10O2+
211.0754	6	C14H11O2+
212.047	1	C13H8O3+
213.055	2	C13H9O3+
226.0625	3	C14H10O3+
227.0701	184	C14H11O3+
237.0544	67	C15H9O3+
255.0649	999	C15H11O4+
