Mass spectrum: Flunisolide; LC-ESI-ITFT; MS2; CE: 40%; R=15000; [M+H]+
Name: Flunisolide
Name: (1S,2S,4R,8S,9S,11S,12S,13R,19S)-19-fluoro-11-hydroxy-8-(2-hydroxyacetyl)-6,6,9,13-tetramethyl-5,7-dioxapentacyclo[10.8.0.02,9.04,8.013,18]icosa-14,17-dien-16-one
Formula: C24H31FO6
Exact mass: 434.210466932
SMILES: [H][C@@]12C[C@H]3OC(C)(C)O[C@@]3(C(=O)CO)[C@@]1(C)C[C@H](O)[C@@]1([H])[C@@]2([H])C[C@H](F)C2=CC(=O)C=C[C@]12C
InChI: InChI=1S/C24H31FO6/c1-21(2)30-19-9-14-13-8-16(25)15-7-12(27)5-6-22(15,3)20(13)17(28)10-23(14,4)24(19,31-21)18(29)11-26/h5-7,13-14,16-17,19-20,26,28H,8-11H2,1-4H3/t13-,14-,16-,17-,19+,20+,22-,23-,24+/m0/s1
Instrument: LTQ Orbitrap XL Thermo Scientific
Instrument type: LC-ESI-ITFT
Ms type: MS2
Ion mode: POSITIVE
Ionization: ESI
Fragmentation mode: HCD
Collision energy: 40 % (nominal)
Resolution: 15000
Column name: Kinetex Evo C18 2.6 um 50 x 2.1 mm
Retention time: 10.751 min
Base peak: 377.2121
Precursor m/z: 435.2177
Precursor type: [M+H]+
Precursor intensity: 9003218
m/z	relative intensity	assigned
115.0391	342	C5H7O3+
121.065	567	C8H9O+
147.0807	243	C10H11O+
159.08	196	C11H11O+
171.0807	888	C12H11O+
185.0965	192	C13H13O+
197.0963	570	C14H13O+
223.1119	901	C16H15O+
225.1277	846	C16H17O+
235.1125	409	C17H15O+
239.1425	297	C17H19O+
246.1036	195	C18H14O+
249.1278	354	C18H17O+
251.1419	230	C18H19O+
261.1273	414	C19H17O+
263.1434	999	C19H19O+
275.1424	619	C20H19O+
279.1387	248	C19H19O2+
281.154	229	C19H21O2+
303.1378	275	C21H19O2+
