Mass spectrum: Chloridazon; LC-ESI-ITFT; MS2; CE: 60%; R=15000; [M+H]+
Name: Chloridazon
Name: 5-amino-4-chloro-2-phenylpyridazin-3-one
Formula: C10H8ClN3O
Exact mass: 221.035589556
SMILES: NC1=C(Cl)C(=O)N(N=C1)C1=CC=CC=C1
InChI: InChI=1S/C10H8ClN3O/c11-9-8(12)6-13-14(10(9)15)7-4-2-1-3-5-7/h1-6H,12H2
Instrument: LTQ Orbitrap XL Thermo Scientific
Instrument type: LC-ESI-ITFT
Ms type: MS2
Ion mode: POSITIVE
Ionization: ESI
Fragmentation mode: HCD
Collision energy: 60 % (nominal)
Resolution: 15000
Column name: Kinetex Evo C18 2.6 um 50 x 2.1 mm
Retention time: 6.322 min
Base peak: 222.0433
Precursor m/z: 222.0429
Precursor type: [M+H]+
Precursor intensity: 9522603
m/z	relative intensity	assigned
65.0383	18	C5H5+
77.0384	73	C6H5+
83.0239	12	C3H3N2O+
87.9948	12	C3H3ClN+
92.0494	293	C6H6N+
93.0572	12	C6H7N+
94.065	99	C6H8N+
95.049	14	C6H7O+
100.99	11	C3H2ClN2+
101.9739	4	C3HClNO+
103.0057	1	C3H4ClN2+
104.0493	427	C7H6N+
105.0445	29	C6H5N2+
116.0491	1	C8H6N+
119.0004	5	C3H4ClN2O+
119.0602	10	C7H7N2+
120.0441	4	C7H6NO+
128.9848	96	C4H2ClN2O+
130.0649	9	C9H8N+
131.0602	6	C8H7N2+
132.0442	7	C8H6NO+
142.0524	2	C9H6N2+
143.0602	1	C9H7N2+
146.0114	67	C4H5ClN3O+
149.015	10	C9H6Cl+
150.0103	6	C8H5ClN+
158.071	3	C9H8N3+
159.0551	12	C9H7N2O+
159.079	3	C9H9N3+
160.0629	1	C9H8N2O+
166.0052	1	C8H5ClNO+
169.0396	1	C7H8ClN3+
177.0209	6	C9H6ClN2+
186.066	29	C10H8N3O+
187.0738	1	C10H9N3O+
193.0286	40	C10H8ClNO+
195.0317	7	C9H8ClN2O+
204.032	2	C10H7ClN3+
205.0161	11	C10H6ClN2O+
222.0426	999	C10H9ClN3O+
