Mass spectrum: Chlorophene; LC-ESI-ITFT; MS2; CE: 80; R=15000; [M-H]-
Name: Chlorophene
Name: 2-Benzyl-4-chlorophenol
Formula: C13H11ClO
Exact mass: 218.0498
SMILES: OC1=CC=C(Cl)C=C1CC1=CC=CC=C1
InChI: InChI=1S/C13H11ClO/c14-12-6-7-13(15)11(9-12)8-10-4-2-1-3-5-10/h1-7,9,15H,8H2
Instrument: LTQ Orbitrap XL Thermo Scientific
Instrument type: LC-ESI-ITFT
Ms type: MS2
Ion mode: NEGATIVE
Ionization: ESI
Fragmentation mode: HCD
Collision energy: 80 (nominal)
Resolution: 15000
Column name: Kinetex Core-Shell C18 2.6 um, 3.0 x 100 mm, Phenomenex
Retention time: 26.240 min
Base peak: 217.0427
Precursor m/z: 217.0426
Precursor type: [M-H]-
m/z	relative intensity	assigned
217.0425	999	C13H10ClO-
