Mass spectrum: Carbetamide; LC-ESI-ITFT; MS2; CE: 30%; R=15000; [M+H]+
Name: Carbetamide
Name: Carbetamex
Name: [(2R)-1-(ethylamino)-1-oxopropan-2-yl] N-phenylcarbamate
Formula: C12H16N2O3
Exact mass: 236.116092372
SMILES: CCNC(=O)[C@@H](C)OC(=O)NC1=CC=CC=C1
InChI: InChI=1S/C12H16N2O3/c1-3-13-11(15)9(2)17-12(16)14-10-7-5-4-6-8-10/h4-9H,3H2,1-2H3,(H,13,15)(H,14,16)/t9-/m1/s1
Instrument: LTQ Orbitrap XL Thermo Scientific
Instrument type: LC-ESI-ITFT
Ms type: MS2
Ion mode: POSITIVE
Ionization: ESI
Fragmentation mode: HCD
Collision energy: 30 % (nominal)
Resolution: 15000
Column name: Kinetex Evo C18 2.6 um 50 x 2.1 mm
Retention time: 8.250 min
Base peak: 237.1244
Precursor m/z: 237.1234
Precursor type: [M+H]+
Precursor intensity: 11788469
m/z	relative intensity	assigned
63.0441	9	C2H7O2+
72.0446	46	C3H6NO+
72.081	333	C4H10N+
120.0449	999	C7H6NO+
192.0664	191	C10H10NO3+
