Mass spectrum: Phenazone / antipyrine; LC-ESI-ITFT; MS2; CE: 35; R=15000; [M+H]+
Name: Phenazone / antipyrine
Name: 1,5-Dimethyl-2-phenylpyrazol-3-one
Formula: C11H12N2O
Exact mass: 188.0950
SMILES: CN1N(C(=O)C=C1C)C1=CC=CC=C1
InChI: InChI=1S/C11H12N2O/c1-9-8-11(14)13(12(9)2)10-6-4-3-5-7-10/h3-8H,1-2H3
Instrument: LTQ Orbitrap XL Thermo Scientific
Instrument type: LC-ESI-ITFT
Ms type: MS2
Ion mode: POSITIVE
Ionization: ESI
Fragmentation mode: CID
Collision energy: 35 (nominal)
Resolution: 15000
Column name: Kinetex Core-Shell C18 2.6 um, 3.0 x 100 mm, Phenomenex
Retention time: 16.961 min
Base peak: 163.1329
Precursor m/z: 189.1022
Precursor type: [M+H]+
m/z	relative intensity	assigned
58.0651	1	C3H8N+
96.0448	1	C5H6NO+
96.0684	2	C5H8N2+
104.0496	4	C7H6N+
105.0702	1	C8H9+
106.0652	1	C7H8N+
111.0554	2	C5H7N2O+
117.0577	1	C8H7N+
117.0701	2	C9H9+
118.0653	14	C8H8N+
120.081	15	C8H10N+
129.0704	1	C10H9+
130.0653	24	C9H8N+
131.0731	70	C9H9N+
132.0809	15	C9H10N+
133.0078	13	C11H+
133.0525	1	C8H7NO+
133.0762	8	C8H9N2+
134.0965	1	C9H12N+
135.0554	3	C7H7N2O+
144.081	52	C10H10N+
145.0649	5	C10H9O+
145.0888	1	C10H11N+
146.084	40	C9H10N2+
146.0966	34	C10H12N+
147.0919	38	C9H11N2+
148.0759	9	C9H10NO+
149.071	1	C8H9N2O+
158.0602	3	C10H8NO+
159.0914	1	C10H11N2+
160.0996	1	C10H12N2+
161.1075	59	C10H13N2+
162.0918	2	C10H12NO+
172.076	25	C11H10NO+
174.0791	22	C10H10N2O+
189.1024	999	C11H13N2O+
