Mass spectrum: Thiacloprid; LC-ESI-ITFT; MS2; CE: 80; R=15000; [M+H]+
Name: Thiacloprid
Formula: C10H9ClN4S
Exact mass: 252.0236
SMILES: C1CSC(=NC#N)N1CC2=CN=C(C=C2)Cl
InChI: InChI=1S/C10H9ClN4S/c11-9-2-1-8(5-13-9)6-15-3-4-16-10(15)14-7-12/h1-2,5H,3-4,6H2
Instrument: LTQ Orbitrap XL Thermo Scientific
Instrument type: LC-ESI-ITFT
Ms type: MS2
Ion mode: POSITIVE
Ionization: ESI
Fragmentation mode: HCD
Collision energy: 80 (nominal)
Resolution: 15000
Column name: Kinetex Core-Shell C18 2.6 um, 3.0 x 100 mm, Phenomenex
Retention time: 19.570 min
Base peak: 163.1327
Precursor m/z: 253.0309
Precursor type: [M+H]+
m/z	relative intensity	assigned
72.9838	18	C3H2Cl+
90.0338	179	C6H4N+
91.0416	28	C6H5N+
98.9995	141	C5H4Cl+
126.0104	999	C6H5ClN+
144.021	34	C6H7ClNO+
151.0058	4	C7H4ClN2+
166.0164	1	C7H5ClN3+
