Mass spectrum: 17alpha-Hydroxyprogesterone; LC-ESI-ITFT; MS2; CE: 50%; R=15000; [M+H]+
Name: 17alpha-Hydroxyprogesterone
Name: 17Alpha-hydroxy progesterone
Name: 17-acetyl-17-hydroxy-10,13-dimethyl-2,6,7,8,9,11,12,14,15,16-decahydro-1H-cyclopenta[a]phenanthren-3-one
Formula: C21H30O3
Exact mass: 330.21949482
SMILES: CC(=O)C1(O)CCC2C3CCC4=CC(=O)CCC4(C)C3CCC12C
InChI: InChI=1S/C21H30O3/c1-13(22)21(24)11-8-18-16-5-4-14-12-15(23)6-9-19(14,2)17(16)7-10-20(18,21)3/h12,16-18,24H,4-11H2,1-3H3
Instrument: LTQ Orbitrap XL Thermo Scientific
Instrument type: LC-ESI-ITFT
Ms type: MS2
Ion mode: POSITIVE
Ionization: ESI
Fragmentation mode: HCD
Collision energy: 50 % (nominal)
Resolution: 15000
Column name: Kinetex Evo C18 2.6 um 50 x 2.1 mm
Retention time: 11.531 min
Base peak: 331.2269
Precursor m/z: 331.2268
Precursor type: [M+H]+
Precursor intensity: 29251834
m/z	relative intensity	assigned
79.054	12	C6H7+
81.0697	29	C6H9+
83.049	45	C5H7O+
85.0646	5	C5H9O+
87.0439	5	C4H7O2+
91.0541	6	C7H7+
93.0698	27	C7H9+
95.0491	3	C6H7O+
95.0854	47	C7H11+
97.0646	999	C6H9O+
99.0803	8	C6H11O+
105.0697	26	C8H9+
107.0853	34	C8H11+
109.0646	936	C7H9O+
111.0802	14	C7H11O+
117.0698	4	C9H9+
119.0853	40	C9H11+
121.0645	25	C8H9O+
121.1009	25	C9H13+
123.0802	135	C8H11O+
131.0853	23	C10H11+
133.101	37	C10H13+
135.0803	21	C9H11O+
135.1165	18	C10H15+
137.0958	40	C9H13O+
143.0853	20	C11H11+
145.1009	74	C11H13+
147.0803	9	C10H11O+
147.1165	54	C11H15+
149.096	22	C10H13O+
149.1323	11	C11H17+
151.1113	10	C10H15O+
155.0852	7	C12H11+
157.1009	34	C12H13+
159.1166	68	C12H15+
161.0957	14	C11H13O+
161.1323	40	C12H17+
163.1115	70	C11H15O+
163.1479	7	C12H19+
169.1009	17	C13H13+
171.1165	53	C13H15+
173.1322	50	C13H17+
175.1115	24	C12H15O+
175.1479	47	C13H19+
177.1271	45	C12H17O+
181.1011	5	C14H13+
183.1165	21	C14H15+
185.1322	33	C14H17+
187.1114	10	C13H15O+
187.1479	31	C14H19+
189.127	27	C13H17O+
189.1635	11	C14H21+
191.1428	11	C13H19O+
195.1165	10	C15H15+
197.1322	26	C15H17+
199.1477	39	C15H19+
201.1271	11	C14H17O+
201.1634	7	C15H21+
203.1428	17	C14H19O+
205.1583	23	C14H21O+
209.1324	10	C16H17+
211.1479	32	C16H19+
213.1265	5	C15H17O+
213.1633	33	C16H21+
215.1428	9	C15H19O+
217.1586	17	C15H21O+
223.1478	6	C17H19+
225.1636	15	C17H21+
227.143	6	C16H19O+
227.1791	7	C17H23+
229.1582	10	C16H21O+
231.1743	7	C16H23O+
235.1472	4	C18H19+
237.1633	19	C18H21+
239.1428	4	C17H19O+
241.1583	11	C17H21O+
243.174	9	C17H23O+
245.1899	2	C17H25O+
251.1793	13	C19H23+
252.1866	8	C19H24+
253.158	4	C18H21O+
253.1948	73	C19H25+
255.1739	23	C18H23O+
259.1696	5	C17H23O2+
267.1733	3	C19H23O+
267.2096	4	C20H27+
269.1894	14	C19H25O+
270.1981	12	C19H26O+
271.2054	59	C19H27O+
277.1945	10	C21H25+
289.2158	3	C19H29O2+
295.2053	40	C21H27O+
313.2152	32	C21H29O2+
331.2263	19	C21H31O3+
