Mass spectrum: Triphenylphosphate; LC-ESI-ITFT; MS2; CE: 80; R=15000; [M+H]+
Name: Triphenylphosphate
Name: Triphenyl phosphate
Formula: C18H15O4P
Exact mass: 326.0708
SMILES: O=P(OC1=CC=CC=C1)(OC1=CC=CC=C1)OC1=CC=CC=C1
InChI: InChI=1S/C18H15O4P/c19-23(20-16-10-4-1-5-11-16,21-17-12-6-2-7-13-17)22-18-14-8-3-9-15-18/h1-15H
Instrument: LTQ Orbitrap XL Thermo Scientific
Instrument type: LC-ESI-ITFT
Ms type: MS2
Ion mode: POSITIVE
Ionization: ESI
Fragmentation mode: HCD
Collision energy: 80 (nominal)
Resolution: 15000
Column name: Kinetex Core-Shell C18 2.6 um, 3.0 x 100 mm, Phenomenex
Retention time: 26.251 min
Base peak: 327.0788
Precursor m/z: 327.0781
Precursor type: [M+H]+
m/z	relative intensity	assigned
77.0388	634	C6H5+
93.0339	3	C6H5O+
95.0495	113	C6H7O+
98.9845	2	H4O4P+
105.0451	243	C6H5N2+
121.0286	2	C7H5O2+
138.9949	23	C6H4O2P+
141.0705	20	C11H9+
151.0549	72	C12H7+
152.0626	999	C12H8+
153.0703	153	C12H9+
157.0056	7	C6H6O3P+
168.0576	330	C12H8O+
169.0653	31	C12H9O+
170.0733	8	C12H10O+
175.0162	53	C6H8O4P+
179.0611	54	C12H7N2+
187.0315	43	C11H8OP+
202.0786	26	C16H10+
215.0265	109	C12H8O2P+
226.0787	24	C18H10+
227.0866	55	C18H11+
228.0943	89	C18H12+
233.0372	59	C12H10O3P+
251.048	32	C12H12O4P+
