Mass spectrum: Pendimethalin; LC-ESI-ITFT; MS2; CE: 80%; R=15000; [M+H]+
Name: Pendimethalin
Name: 3,4-dimethyl-2,6-dinitro-N-pentan-3-ylaniline
Formula: C13H19N3O4
Exact mass: 281.137556088
SMILES: CCC(CC)NC1=C(C(C)=C(C)C=C1[N+]([O-])=O)[N+]([O-])=O
InChI: InChI=1S/C13H19N3O4/c1-5-10(6-2)14-12-11(15(17)18)7-8(3)9(4)13(12)16(19)20/h7,10,14H,5-6H2,1-4H3
Instrument: LTQ Orbitrap XL Thermo Scientific
Instrument type: LC-ESI-ITFT
Ms type: MS2
Ion mode: POSITIVE
Ionization: ESI
Fragmentation mode: HCD
Collision energy: 80 % (nominal)
Resolution: 15000
Column name: Kinetex Evo C18 2.6 um 50 x 2.1 mm
Retention time: 13.728 min
Base peak: 282.1451
Precursor m/z: 282.1448
Precursor type: [M+H]+
Precursor intensity: 4877907
m/z	relative intensity	assigned
53.0385	99	C4H5+
65.0386	353	C5H5+
66.0339	80	C4H4N+
66.0464	101	C5H6+
67.0416	58	C4H5N+
68.0495	48	C4H6N+
77.0388	102	C6H5+
78.034	257	C5H4N+
80.0497	305	C5H6N+
81.0572	44	C5H7N+
90.034	82	C6H4N+
91.0419	667	C6H5N+
91.0545	116	C7H7+
92.0371	47	C5H4N2+
92.0498	781	C6H6N+
93.0451	61	C5H5N2+
93.0577	121	C6H7N+
96.0448	91	C5H6NO+
96.0573	67	C6H8O+
103.0419	345	C7H5N+
104.0372	61	C6H4N2+
104.0498	201	C7H6N+
105.045	422	C6H5N2+
106.0656	79	C7H8N+
110.06	71	C6H8NO+
117.0451	96	C7H5N2+
117.0576	88	C8H7N+
118.0528	229	C7H6N2+
118.0656	92	C8H8N+
119.0607	869	C7H7N2+
120.0192	93	C5H2N3O+
120.0447	161	C7H6NO+
120.0686	194	C7H8N2+
121.0393	71	C6H5N2O+
122.0476	51	C6H6N2O+
126.0551	45	C6H8NO2+
129.0451	140	C8H5N2+
130.0404	64	C7H4N3+
130.0528	101	C8H6N2+
131.0607	224	C8H7N2+
132.0558	90	C7H6N3+
133.0402	69	C7H5N2O+
135.0559	66	C7H7N2O+
147.0557	268	C8H7N2O+
148.0635	999	C8H8N2O+
160.0509	95	C8H6N3O+
178.0617	241	C8H8N3O2+
194.0568	62	C8H8N3O3+
