Mass spectrum: Gabapentin-lactam; LC-ESI-ITFT; MS2; CE: 110%; R=15000; [M+H]+
Name: Gabapentin-lactam
Name: 2-azaspiro[4.5]decan-3-one
Formula: C9H15NO
Exact mass: 153.1154
SMILES: O=C1CC2(CN1)CCCCC2
InChI: InChI=1S/C9H15NO/c11-8-6-9(7-10-8)4-2-1-3-5-9/h1-7H2,(H,10,11)
Instrument: LTQ Orbitrap XL Thermo Scientific
Instrument type: LC-ESI-ITFT
Ms type: MS2
Ion mode: POSITIVE
Ionization: ESI
Fragmentation mode: HCD
Collision energy: 110 % (nominal)
Resolution: 15000
Column name: Kinetex Evo C18 2.6 um 50 x 2.1 mm
Retention time: 8.251 min
Base peak: 154.1226
Precursor m/z: 154.1226
Precursor type: [M+H]+
m/z	relative intensity	assigned
54.0336	4	C3H4N+
55.0541	3	C4H7+
60.0443	8	C2H6NO+
65.0385	10	C5H5+
67.0541	360	C5H7+
69.0698	33	C5H9+
70.0652	4	C4H8N+
72.0443	87	C3H6NO+
77.0385	13	C6H5+
79.0542	10	C6H7+
80.062	9	C6H8+
81.0698	22	C6H9+
91.0542	53	C7H7+
93.0699	131	C7H9+
95.0855	999	C7H11+
107.0855	3	C8H11+
108.0803	2	C7H10N+
109.1011	30	C8H13+
110.0963	3	C7H12N+
112.112	28	C7H14N+
119.0854	11	C9H11+
137.0958	3	C9H13O+
154.1225	260	C9H16NO+
