Mass spectrum: Ethylparaben; LC-ESI-ITFT; MS2; CE: 35; R=15000; [M-H]-
Name: Ethylparaben
Name: 4-Hydroxybenzoate-ethyl
Formula: C9H10O3
Exact mass: 166.0630
SMILES: CCOC(=O)C1=CC=C(O)C=C1
InChI: InChI=1S/C9H10O3/c1-2-12-9(11)7-3-5-8(10)6-4-7/h3-6,10H,2H2,1H3
Instrument: LTQ Orbitrap XL Thermo Scientific
Instrument type: LC-ESI-ITFT
Ms type: MS2
Ion mode: NEGATIVE
Ionization: ESI
Fragmentation mode: CID
Collision energy: 35 (nominal)
Resolution: 15000
Column name: Kinetex Core-Shell C18 2.6 um, 3.0 x 100 mm, Phenomenex
Retention time: 21.840 min
Base peak: 253.0507
Precursor m/z: 165.0557
Precursor type: [M-H]-
m/z	relative intensity	assigned
92.0268	10	C6H4O-
93.0346	69	C6H5O-
136.0166	123	C7H4O3-
137.0244	999	C7H5O3-
165.0556	35	C9H9O3-
