Mass spectrum: Cyprodinil; LC-ESI-ITFT; MS2; CE: 50%; R=15000; [M+H]+
Name: Cyprodinil
Name: 4-cyclopropyl-6-methyl-N-phenylpyrimidin-2-amine
Formula: C14H15N3
Exact mass: 225.12659748
SMILES: CC1=NC(NC2=CC=CC=C2)=NC(=C1)C1CC1
InChI: InChI=1S/C14H15N3/c1-10-9-13(11-7-8-11)17-14(15-10)16-12-5-3-2-4-6-12/h2-6,9,11H,7-8H2,1H3,(H,15,16,17)
Instrument: LTQ Orbitrap XL Thermo Scientific
Instrument type: LC-ESI-ITFT
Ms type: MS2
Ion mode: POSITIVE
Ionization: ESI
Fragmentation mode: HCD
Collision energy: 50 % (nominal)
Resolution: 15000
Column name: Kinetex Evo C18 2.6 um 50 x 2.1 mm
Retention time: 10.286 min
Base peak: 226.1345
Precursor m/z: 226.1339
Precursor type: [M+H]+
Precursor intensity: 40065844
m/z	relative intensity	assigned
91.0542	1	C7H7+
92.0498	1	C6H6N+
93.0574	2	C6H7N+
106.0651	2	C7H8N+
108.0807	15	C7H10N+
118.0653	1	C8H8N+
119.0603	3	C7H7N2+
123.0916	1	C7H11N2+
133.076	10	C8H9N2+
144.0808	7	C10H10N+
145.076	1	C9H9N2+
159.0916	3	C10H11N2+
184.0868	3	C11H10N3+
185.1074	7	C12H13N2+
198.1021	1	C12H12N3+
209.1073	7	C14H13N2+
210.1024	5	C13H12N3+
211.1104	2	C13H13N3+
226.1338	999	C14H16N3+
