Mass spectrum: p-Toluenesulfonamide; LC-ESI-ITFT; MS2; CE: 55; R=15000; [M+H]+
Name: p-Toluenesulfonamide
Name: 4-Methylbenzenesulfonimidic acid
Formula: C7H9NO2S
Exact mass: 171.0354
SMILES: CC1=CC=C(C=C1)S(N)(=O)=O
InChI: InChI=1S/C7H9NO2S/c1-6-2-4-7(5-3-6)11(8,9)10/h2-5H,1H3,(H2,8,9,10)
Instrument: LTQ Orbitrap XL Thermo Scientific
Instrument type: LC-ESI-ITFT
Ms type: MS2
Ion mode: POSITIVE
Ionization: ESI
Fragmentation mode: HCD
Collision energy: 55 (nominal)
Resolution: 15000
Column name: Kinetex Core-Shell C18 2.6 um, 3.0 x 100 mm, Phenomenex
Retention time: 16.741 min
Base peak: 163.1332
Precursor m/z: 172.0427
Precursor type: [M+H]+
m/z	relative intensity	assigned
91.0545	817	C7H7+
119.0607	999	C7H7N2+
