Mass spectrum: Azobenzene; LC-ESI-ITFT; MS2; CE: 60%; R=15000; [M+H]+
Name: Azobenzene
Formula: C12H10N2
Exact mass: 182.08439832
SMILES: C1=CC=C(C=C1)\N=N\C1=CC=CC=C1
InChI: InChI=1S/C12H10N2/c1-3-7-11(8-4-1)13-14-12-9-5-2-6-10-12/h1-10H/b14-13+
Instrument: LTQ Orbitrap XL Thermo Scientific
Instrument type: LC-ESI-ITFT
Ms type: MS2
Ion mode: POSITIVE
Ionization: ESI
Fragmentation mode: HCD
Collision energy: 60 % (nominal)
Resolution: 15000
Column name: Kinetex Evo C18 2.6 um 50 x 2.1 mm
Retention time: 10.321 min
Base peak: 116.9859
Precursor m/z: 183.0917
Precursor type: [M+H]+
Precursor intensity: 1076884.75
m/z	relative intensity	assigned
77.0386	999	C6H5+
105.0449	441	C6H5N2+
154.0777	5	C12H10+
166.0658	14	C12H8N+
183.0919	149	C12H11N2+
