Mass spectrum: Ondansetron; LC-ESI-ITFT; MS2; CE: 70%; R=15000; [M+H]+
Name: Ondansetron
Name: 9-methyl-3-[(2-methylimidazol-1-yl)methyl]-2,3-dihydro-1H-carbazol-4-one
Formula: C18H19N3O
Exact mass: 293.152812228
SMILES: CN1C2=C(C3=CC=CC=C13)C(=O)C(CN1C=CN=C1C)CC2
InChI: InChI=1S/C18H19N3O/c1-12-19-9-10-21(12)11-13-7-8-16-17(18(13)22)14-5-3-4-6-15(14)20(16)2/h3-6,9-10,13H,7-8,11H2,1-2H3
Instrument: LTQ Orbitrap XL Thermo Scientific
Instrument type: LC-ESI-ITFT
Ms type: MS2
Ion mode: POSITIVE
Ionization: ESI
Fragmentation mode: HCD
Collision energy: 70 % (nominal)
Resolution: 15000
Column name: Kinetex Evo C18 2.6 um 50 x 2.1 mm
Retention time: 6.087 min
Base peak: 294.1611
Precursor m/z: 294.1601
Precursor type: [M+H]+
Precursor intensity: 36411628
m/z	relative intensity	assigned
83.0603	12	C4H7N2+
128.062	2	C10H8+
129.0699	5	C10H9+
143.073	41	C10H9N+
143.0855	12	C11H11+
144.0808	6	C10H10N+
153.0699	1	C12H9+
154.065	6	C11H8N+
155.073	10	C11H9N+
156.0805	2	C11H10N+
167.0731	34	C12H9N+
168.0809	29	C12H10N+
169.0888	113	C12H11N+
170.0965	999	C12H12N+
171.0679	83	C11H9NO+
182.0965	97	C13H12N+
183.1043	8	C13H13N+
184.1121	684	C13H14N+
212.1071	16	C14H14NO+
