Mass spectrum: Ifosfamide; LC-ESI-ITFT; MS2; CE: 40%; R=15000; [M+H]+
Name: Ifosfamide
Name: N,3-bis(2-chloroethyl)-2-oxo-1,3,2lambda5-oxazaphosphinan-2-amine
Formula: C7H15Cl2N2O2P
Exact mass: 260.02481971
SMILES: ClCCNP1(=O)OCCCN1CCCl
InChI: InChI=1S/C7H15Cl2N2O2P/c8-2-4-10-14(12)11(6-3-9)5-1-7-13-14/h1-7H2,(H,10,12)
Instrument: LTQ Orbitrap XL Thermo Scientific
Instrument type: LC-ESI-ITFT
Ms type: MS2
Ion mode: POSITIVE
Ionization: ESI
Fragmentation mode: HCD
Collision energy: 40 % (nominal)
Resolution: 15000
Column name: Kinetex Evo C18 2.6 um 50 x 2.1 mm
Retention time: 7.032 min
Base peak: 307.1121
Precursor m/z: 261.0321
Precursor type: [M+H]+
Precursor intensity: 2944202.5
m/z	relative intensity	assigned
67.0541	3	C5H7+
78.0106	263	C2H5ClN+
82.0652	4	C5H8N+
84.0808	5	C5H10N+
92.0263	562	C3H7ClN+
114.128	14	C7H16N+
115.9663	5	ClH4NO2P+
116.9503	8	CH3Cl2O2+
118.0419	12	C5H9ClN+
125.9506	4	CH2ClNO2P+
126.9709	3	C2H5ClO2P+
141.9822	14	C3H6Cl2NO+
185.0238	3	C4H11ClN2O2P+
200.0241	99	C6H12Cl2NO2+
217.9895	4	C5H11Cl2NO2P+
233.0013	532	C5H12Cl2N2O2P+
261.0325	999	C7H16Cl2N2O2P+
