Mass spectrum: Michler`s ketone; LC-ESI-ITFT; MS2; CE: 80; R=15000; [M+H]+
Name: Michler`s ketone
Name: Bis[4-(dimethylamino)phenyl]methanone
Formula: C17H20N2O
Exact mass: 268.1576
SMILES: CN(C)C1=CC=C(C=C1)C(=O)C1=CC=C(C=C1)N(C)C
InChI: InChI=1S/C17H20N2O/c1-18(2)15-9-5-13(6-10-15)17(20)14-7-11-16(12-8-14)19(3)4/h5-12H,1-4H3
Instrument: LTQ Orbitrap XL Thermo Scientific
Instrument type: LC-ESI-ITFT
Ms type: MS2
Ion mode: POSITIVE
Ionization: ESI
Fragmentation mode: HCD
Collision energy: 80 (nominal)
Resolution: 15000
Column name: Kinetex Core-Shell C18 2.6 um, 3.0 x 100 mm, Phenomenex
Retention time: 25.805 min
Base peak: 269.1656
Precursor m/z: 269.1648
Precursor type: [M+H]+
m/z	relative intensity	assigned
77.0389	35	C6H5+
79.0545	88	C6H7+
91.0546	58	C7H7+
103.0547	32	C8H7+
105.0577	107	C7H7N+
118.0657	29	C8H8N+
148.0763	999	C9H10NO+
199.0637	2	C12H9NO2+
