Mass spectrum: Chloridazon; LC-ESI-ITFT; MS2; CE: 80; R=15000; [M+H]+
Name: Chloridazon
Name: 5-Amino-4-chloro-2-phenylpyridazin-3-one
Formula: C10H8ClN3O
Exact mass: 221.0356
SMILES: NC1=C(Cl)C(=O)N(N=C1)C1=CC=CC=C1
InChI: InChI=1S/C10H8ClN3O/c11-9-8(12)6-13-14(10(9)15)7-4-2-1-3-5-7/h1-6H,12H2
Instrument: LTQ Orbitrap XL Thermo Scientific
Instrument type: LC-ESI-ITFT
Ms type: MS2
Ion mode: POSITIVE
Ionization: ESI
Fragmentation mode: HCD
Collision energy: 80 (nominal)
Resolution: 15000
Column name: Kinetex Core-Shell C18 2.6 um, 3.0 x 100 mm, Phenomenex
Retention time: 18.587 min
Base peak: 163.1326
Precursor m/z: 222.0429
Precursor type: [M+H]+
m/z	relative intensity	assigned
75.9948	25	C2H3ClN+
77.0385	588	C6H5+
83.0239	10	C3H3N2O+
87.9948	114	C3H3ClN+
92.0494	999	C6H6N+
93.0572	95	C6H7N+
94.065	214	C6H8N+
95.0491	57	C6H7O+
100.99	182	C3H2ClN2+
101.9741	28	C3HClNO+
104.0494	748	C7H6N+
105.0446	217	C6H5N2+
116.0494	9	C8H6N+
116.9976	30	C4H4ClNO+
119.0009	9	C3H4ClN2O+
119.0603	34	C7H7N2+
120.0444	13	C7H6NO+
128.9849	303	C4H2ClN2O+
130.065	73	C9H8N+
131.0603	39	C8H7N2+
132.0443	39	C8H6NO+
142.0526	20	C9H6N2+
143.0602	4	C9H7N2+
146.0115	329	C4H5ClN3O+
149.0152	28	C9H6Cl+
150.0105	64	C8H5ClN+
158.071	10	C9H8N3+
159.0554	26	C9H7N2O+
159.0676	4	C10H9NO+
160.0631	8	C9H8N2O+
166.0047	4	C8H5ClNO+
177.0213	11	C9H6ClN2+
178.0057	8	C9H5ClNO+
186.0664	31	C10H8N3O+
193.0288	103	C10H8ClNO+
195.0317	12	C9H8ClN2O+
205.0164	16	C10H6ClN2O+
222.0427	352	C10H9ClN3O+
