Mass spectrum: Canrenone; LC-ESI-ITFT; MS2; CE: 60%; R=15000; [M+H]+
Name: Canrenone
Name: (9S,14S)-10,13-dimethylspiro[2,8,9,11,12,14,15,16-octahydro-1H-cyclopenta[a]phenanthrene-17,5`-oxolane]-2`,3-dione
Formula: C22H28O3
Exact mass: 340.203844756
SMILES: CC12CC[C@H]3C(C=CC4=CC(=O)CCC34C)[C@@H]1CCC21CCC(=O)O1
InChI: InChI=1S/C22H28O3/c1-20-9-5-15(23)13-14(20)3-4-16-17(20)6-10-21(2)18(16)7-11-22(21)12-8-19(24)25-22/h3-4,13,16-18H,5-12H2,1-2H3/t16?,17-,18-,20?,21?,22?/m0/s1
Instrument: LTQ Orbitrap XL Thermo Scientific
Instrument type: LC-ESI-ITFT
Ms type: MS2
Ion mode: POSITIVE
Ionization: ESI
Fragmentation mode: HCD
Collision energy: 60 % (nominal)
Resolution: 15000
Column name: Kinetex Evo C18 2.6 um 50 x 2.1 mm
Retention time: 11.442 min
Base peak: 289.2164
Precursor m/z: 341.2111
Precursor type: [M+H]+
Precursor intensity: 8750145
m/z	relative intensity	assigned
67.0542	10	C5H7+
71.0491	17	C4H7O+
79.0543	60	C6H7+
81.07	20	C6H9+
83.0492	98	C5H7O+
91.0544	62	C7H7+
93.07	63	C7H9+
95.0857	20	C7H11+
97.065	268	C6H9O+
99.0443	136	C5H7O2+
105.0701	142	C8H9+
107.0857	999	C8H11+
109.065	25	C7H9O+
111.0442	15	C6H7O2+
111.08	7	C7H11O+
117.0701	15	C9H9+
119.0857	114	C9H11+
121.0649	15	C8H9O+
121.1013	49	C9H13+
123.0806	19	C8H11O+
125.0596	6	C7H9O2+
129.0699	10	C10H9+
131.0857	69	C10H11+
133.0649	16	C9H9O+
133.1015	62	C10H13+
135.0807	33	C9H11O+
137.096	11	C9H13O+
141.0704	8	C11H9+
143.0857	131	C11H11+
145.1014	134	C11H13+
147.0806	57	C10H11O+
147.1169	27	C11H15+
149.0964	38	C10H13O+
153.0906	13	C9H13O2+
155.0859	28	C12H11+
157.1014	62	C12H13+
159.0807	35	C11H11O+
159.117	44	C12H15+
161.0964	66	C11H13O+
163.1119	30	C11H15O+
165.0917	17	C10H13O2+
169.1014	122	C13H13+
171.0807	6	C12H11O+
171.117	35	C13H15+
173.0963	119	C12H13O+
175.112	72	C12H15O+
177.1271	20	C12H17O+
179.107	25	C11H15O2+
181.1013	23	C14H13+
183.1171	58	C14H15+
185.0953	6	C13H13O+
185.1327	47	C14H17+
187.1119	105	C13H15O+
195.117	24	C15H15+
197.1325	14	C15H17+
199.1118	14	C14H15O+
199.1484	9	C15H19+
205.1225	38	C13H17O2+
209.1328	18	C16H17+
213.1271	10	C15H17O+
221.1331	17	C17H17+
223.1481	19	C17H19+
227.1425	12	C16H19O+
235.1488	13	C18H19+
241.1586	8	C17H21O+
247.1475	8	C19H19+
263.1803	9	C20H23+
267.175	7	C19H23O+
268.1819	14	C19H24O+
283.1691	28	C19H23O2+
323.2015	8	C22H27O2+
341.21	22	C22H29O3+
