Mass spectrum: Methocarbamol; LC-ESI-ITFT; MS2; CE: 50%; R=15000; [M+H]+
Name: Methocarbamol
Name: [2-hydroxy-3-(2-methoxyphenoxy)propyl] carbamate
Formula: C11H15NO5
Exact mass: 241.0950
SMILES: COC1=C(OCC(O)COC(N)=O)C=CC=C1
InChI: InChI=1S/C11H15NO5/c1-15-9-4-2-3-5-10(9)16-6-8(13)7-17-11(12)14/h2-5,8,13H,6-7H2,1H3,(H2,12,14)
Instrument: LTQ Orbitrap XL Thermo Scientific
Instrument type: LC-ESI-ITFT
Ms type: MS2
Ion mode: POSITIVE
Ionization: ESI
Fragmentation mode: HCD
Collision energy: 50 % (nominal)
Resolution: 15000
Column name: Kinetex Evo C18 2.6 um 50 x 2.1 mm
Retention time: 7.108 min
Base peak: 264.0839
Precursor m/z: 242.1023
Precursor type: [M+H]+
m/z	relative intensity	assigned
57.0333	85	C3H5O+
62.0236	122	CH4NO2+
65.0385	45	C5H5+
75.0441	74	C3H7O2+
77.0387	28	C6H5+
79.0543	24	C6H7+
91.0542	26	C7H7+
93.0335	67	C6H5O+
93.0699	38	C7H9+
95.0492	179	C6H7O+
103.0543	78	C8H7+
105.0699	181	C8H9+
107.0491	57	C7H7O+
110.0363	87	C6H6O2+
118.0499	999	C4H8NO3+
120.057	29	C8H8O+
121.0285	31	C7H5O2+
121.0649	109	C8H9O+
122.0362	197	C7H6O2+
123.0442	94	C7H7O2+
124.0519	21	C7H8O2+
125.0597	312	C7H9O2+
132.0572	14	C9H8O+
135.0804	337	C9H11O+
137.0597	70	C8H9O2+
145.0647	23	C10H9O+
148.0517	63	C9H8O2+
151.0754	85	C9H11O2+
163.0754	250	C10H11O2+
