Mass spectrum: 4-Androstene-3,17-dione; LC-ESI-ITFT; MS2; CE: 40%; R=15000; [M+H]+
Name: 4-Androstene-3,17-dione
Name: Androstenedione
Name: (8R,9S,10R,13S,14S)-10,13-dimethyl-2,6,7,8,9,11,12,14,15,16-decahydro-1H-cyclopenta[a]phenanthrene-3,17-dione
Formula: C19H26O2
Exact mass: 286.193280072
SMILES: C[C@]12CC[C@H]3[C@@H](CCC4=CC(=O)CC[C@]34C)[C@@H]1CCC2=O
InChI: InChI=1S/C19H26O2/c1-18-9-7-13(20)11-12(18)3-4-14-15-5-6-17(21)19(15,2)10-8-16(14)18/h11,14-16H,3-10H2,1-2H3/t14-,15-,16-,18-,19-/m0/s1
Instrument: LTQ Orbitrap XL Thermo Scientific
Instrument type: LC-ESI-ITFT
Ms type: MS2
Ion mode: POSITIVE
Ionization: ESI
Fragmentation mode: HCD
Collision energy: 40 % (nominal)
Resolution: 15000
Column name: Kinetex Evo C18 2.6 um 50 x 2.1 mm
Retention time: 11.080 min
Base peak: 287.2007
Precursor m/z: 287.2006
Precursor type: [M+H]+
Precursor intensity: 10230983
m/z	relative intensity	assigned
79.054	5	C6H7+
81.0696	6	C6H9+
83.049	34	C5H7O+
93.0698	4	C7H9+
95.0851	5	C7H11+
97.0646	999	C6H9O+
105.0696	4	C8H9+
107.0854	7	C8H11+
109.0645	593	C7H9O+
119.0852	10	C9H11+
121.0644	3	C8H9O+
121.1008	7	C9H13+
123.0802	54	C8H11O+
131.0851	7	C10H11+
133.1011	14	C10H13+
135.1165	3	C10H15+
143.0852	5	C11H11+
145.1009	22	C11H13+
147.0801	2	C10H11O+
147.1166	15	C11H15+
149.0955	3	C10H13O+
149.1318	2	C11H17+
159.1165	22	C12H15+
161.0957	3	C11H13O+
161.1324	9	C12H17+
163.1114	4	C11H15O+
169.1011	4	C13H13+
171.1165	5	C13H15+
173.1322	41	C13H17+
175.1122	3	C12H15O+
177.1273	3	C12H17O+
185.1322	19	C14H17+
187.1477	17	C14H19+
189.1276	3	C13H17O+
191.1426	5	C13H19O+
195.1167	7	C15H15+
199.1476	6	C15H19+
203.1429	3	C14H19O+
205.1584	4	C14H21O+
209.132	9	C16H17+
211.1478	36	C16H19+
213.1266	3	C15H17O+
217.1579	9	C15H21O+
225.1636	4	C17H21+
227.1789	9	C17H23+
229.1582	20	C16H21O+
241.195	5	C18H25+
251.179	31	C19H23+
269.1895	75	C19H25O+
287.2	521	C19H27O2+
