Mass spectrum: Imidacloprid; LC-ESI-ITFT; MS2; CE: 60%; R=15000; [M+H]+
Name: Imidacloprid
Name: N-[1-[(6-chloro-3-pyridinyl)methyl]-4,5-dihydroimidazol-2-yl]nitramide
Name: N-[1-[(6-chloropyridin-3-yl)methyl]-4,5-dihydroimidazol-2-yl]nitramide
Formula: C9H10ClN5O2
Exact mass: 255.05230224
SMILES: [O-][N+](=O)\N=C1/NCCN1CC1=CN=C(Cl)C=C1
InChI: InChI=1S/C9H10ClN5O2/c10-8-2-1-7(5-12-8)6-14-4-3-11-9(14)13-15(16)17/h1-2,5H,3-4,6H2,(H,11,13)
Instrument: LTQ Orbitrap XL Thermo Scientific
Instrument type: LC-ESI-ITFT
Ms type: MS2
Ion mode: POSITIVE
Ionization: ESI
Fragmentation mode: HCD
Collision energy: 60 % (nominal)
Resolution: 15000
Column name: Kinetex Evo C18 2.6 um 50 x 2.1 mm
Retention time: 6.062 min
Base peak: 239.151
Precursor m/z: 256.0596
Precursor type: [M+H]+
Precursor intensity: 5895812
m/z	relative intensity	assigned
56.0494	27	C3H6N+
71.0605	9	C3H7N2+
72.0684	4	C3H8N2+
84.0558	158	C3H6N3+
90.034	7	C6H4N+
97.0636	12	C4H7N3+
98.0715	12	C4H8N3+
99.0555	28	C4H7N2O+
126.0108	92	C6H5ClN+
127.0185	5	C6H6ClN+
128.0264	108	C6H7ClN+
133.0764	13	C8H9N2+
141.0217	17	C6H6ClN2+
146.059	15	C7H6N4+
146.0717	41	C8H8N3+
147.0668	32	C7H7N4+
151.0189	10	C8H6ClN+
153.022	4	C7H6ClN2+
158.0716	14	C9H8N3+
167.0248	9	C7H6ClN3+
167.0374	19	C8H8ClN2+
168.0327	3	C7H7ClN3+
173.0827	44	C9H9N4+
174.0905	129	C9H10N4+
175.0982	999	C9H11N4+
176.0817	4	C9H10N3O+
180.0326	5	C8H7ClN3+
181.028	16	C7H6ClN4+
181.0406	2	C8H8ClN3+
193.0404	9	C9H8ClN3+
194.0484	13	C9H9ClN3+
209.0593	739	C9H10ClN4+
210.0671	12	C9H11ClN4+
212.059	11	C9H11ClN3O+
