Mass spectrum: 4-Androsten-11beta-ol-3,17-dione; LC-ESI-ITFT; MS2; CE: 80%; R=15000; [M+H]+
Name: 4-Androsten-11beta-ol-3,17-dione
Name: 11beta-Hydroxyandrostenedione
Name: (8S,9S,10R,11S,13S,14S)-11-hydroxy-10,13-dimethyl-2,6,7,8,9,11,12,14,15,16-decahydro-1H-cyclopenta[a]phenanthrene-3,17-dione
Formula: C19H26O3
Exact mass: 302.188194692
SMILES: C[C@]12C[C@H](O)[C@H]3[C@@H](CCC4=CC(=O)CC[C@]34C)[C@@H]1CCC2=O
InChI: InChI=1S/C19H26O3/c1-18-8-7-12(20)9-11(18)3-4-13-14-5-6-16(22)19(14,2)10-15(21)17(13)18/h9,13-15,17,21H,3-8,10H2,1-2H3/t13-,14-,15-,17+,18-,19-/m0/s1
Instrument: LTQ Orbitrap XL Thermo Scientific
Instrument type: LC-ESI-ITFT
Ms type: MS2
Ion mode: POSITIVE
Ionization: ESI
Fragmentation mode: HCD
Collision energy: 80 % (nominal)
Resolution: 15000
Column name: Kinetex Evo C18 2.6 um 50 x 2.1 mm
Retention time: 10.156 min
Base peak: 303.1956
Precursor m/z: 303.1955
Precursor type: [M+H]+
Precursor intensity: 7055896.5
m/z	relative intensity	assigned
55.0177	90	C3H3O+
55.0541	59	C4H7+
67.0543	138	C5H7+
69.0334	39	C4H5O+
69.0699	58	C5H9+
77.0386	46	C6H5+
79.0543	368	C6H7+
81.07	246	C6H9+
83.0492	202	C5H7O+
91.0544	409	C7H7+
93.0701	564	C7H9+
95.0494	85	C6H7O+
95.0857	246	C7H11+
97.065	999	C6H9O+
103.0546	31	C8H7+
105.0701	820	C8H9+
107.0493	84	C7H7O+
107.0857	366	C8H11+
109.065	426	C7H9O+
109.1014	92	C8H13+
115.0543	35	C9H7+
117.0701	281	C9H9+
119.0858	455	C9H11+
121.065	864	C8H9O+
121.1015	164	C9H13+
123.0806	627	C8H11O+
128.0625	86	C10H8+
129.0701	177	C10H9+
130.0777	97	C10H10+
131.0857	313	C10H11+
133.0653	43	C9H9O+
133.1014	217	C10H13+
135.0807	91	C9H11O+
135.1171	45	C10H15+
141.0698	53	C11H9+
142.0779	79	C11H10+
143.0857	271	C11H11+
145.1014	474	C11H13+
147.0807	98	C10H11O+
147.1171	90	C11H15+
148.0884	40	C10H12O+
149.0963	35	C10H13O+
154.0775	24	C12H10+
155.0858	121	C12H11+
156.0937	28	C12H12+
157.1015	145	C12H13+
159.0807	54	C11H11O+
159.1172	101	C12H15+
161.0963	92	C11H13O+
163.1121	171	C11H15O+
167.0859	28	C13H11+
168.0941	30	C13H12+
169.1015	115	C13H13+
171.0812	28	C12H11O+
171.1172	57	C13H15+
173.0961	56	C12H13O+
173.1323	22	C13H17+
174.1044	31	C12H14O+
175.1121	32	C12H15O+
179.0858	38	C14H11+
181.1015	58	C14H13+
183.1172	87	C14H15+
185.1327	60	C14H17+
189.1277	36	C13H17O+
193.1006	33	C15H13+
194.1095	21	C15H14+
195.1175	29	C15H15+
197.0962	42	C14H13O+
197.1325	33	C15H17+
199.1109	21	C14H15O+
212.1192	21	C15H16O+
225.1645	27	C17H21+
227.1441	25	C16H19O+
237.1278	43	C17H17O+
252.1497	30	C18H20O+
267.174	20	C19H23O+
