Mass spectrum: Prosulfocarb; LC-ESI-ITFT; MS2; CE: 10%; R=15000; [M+H]+
Name: Prosulfocarb
Name: S-benzyl N,N-dipropylcarbamothioate
Formula: C14H21NOS
Exact mass: 251.134385292
SMILES: CCCN(CCC)C(=O)SCC1=CC=CC=C1
InChI: InChI=1S/C14H21NOS/c1-3-10-15(11-4-2)14(16)17-12-13-8-6-5-7-9-13/h5-9H,3-4,10-12H2,1-2H3
Instrument: LTQ Orbitrap XL Thermo Scientific
Instrument type: LC-ESI-ITFT
Ms type: MS2
Ion mode: POSITIVE
Ionization: ESI
Fragmentation mode: HCD
Collision energy: 10 % (nominal)
Resolution: 15000
Column name: Kinetex Evo C18 2.6 um 50 x 2.1 mm
Retention time: 13.097 min
Base peak: 252.1422
Precursor m/z: 252.1417
Precursor type: [M+H]+
Precursor intensity: 41917156
m/z	relative intensity	assigned
86.0599	7	C4H8NO+
91.0541	18	C7H7+
128.1068	36	C7H14NO+
252.1414	999	C14H22NOS+
