Mass spectrum: Testosterone; LC-ESI-ITFT; MS2; CE: 90%; R=15000; [M+H]+
Name: Testosterone
Name: (8R,9S,10R,13S,14S,17S)-17-hydroxy-10,13-dimethyl-1,2,6,7,8,9,11,12,14,15,16,17-dodecahydrocyclopenta[a]phenanthren-3-one
Formula: C19H28O2
Exact mass: 288.208930136
SMILES: C[C@]12CC[C@H]3[C@@H](CCC4=CC(=O)CC[C@]34C)[C@@H]1CC[C@@H]2O
InChI: InChI=1S/C19H28O2/c1-18-9-7-13(20)11-12(18)3-4-14-15-5-6-17(21)19(15,2)10-8-16(14)18/h11,14-17,21H,3-10H2,1-2H3/t14-,15-,16-,17-,18-,19-/m0/s1
Instrument: LTQ Orbitrap XL Thermo Scientific
Instrument type: LC-ESI-ITFT
Ms type: MS2
Ion mode: POSITIVE
Ionization: ESI
Fragmentation mode: HCD
Collision energy: 90 % (nominal)
Resolution: 15000
Column name: Kinetex Evo C18 2.6 um 50 x 2.1 mm
Retention time: 11.403 min
Base peak: 289.2162
Precursor m/z: 289.2162
Precursor type: [M+H]+
Precursor intensity: 22066992
m/z	relative intensity	assigned
67.0539	55	C5H7+
69.0333	6	C4H5O+
69.0696	46	C5H9+
77.0383	13	C6H5+
79.054	191	C6H7+
81.0696	225	C6H9+
83.0489	44	C5H7O+
91.054	84	C7H7+
93.0697	99	C7H9+
95.0488	11	C6H7O+
95.0853	74	C7H11+
97.0645	999	C6H9O+
105.0696	95	C8H9+
107.0488	6	C7H7O+
107.0852	41	C8H11+
109.0645	929	C7H9O+
111.0803	3	C7H11O+
117.0697	17	C9H9+
119.0852	58	C9H11+
121.0645	12	C8H9O+
121.1009	16	C9H13+
123.0801	139	C8H11O+
129.0695	10	C10H9+
130.0777	3	C10H10+
131.0852	23	C10H11+
133.1008	19	C10H13+
135.1163	3	C10H15+
141.0694	4	C11H9+
142.0777	6	C11H10+
143.085	14	C11H11+
144.0929	4	C11H12+
145.1008	19	C11H13+
147.1166	9	C11H15+
155.0852	5	C12H11+
156.0932	3	C12H12+
157.1007	10	C12H13+
159.1165	12	C12H15+
171.1166	6	C13H15+
173.1328	2	C13H17+
183.1161	4	C14H15+
187.1477	2	C14H19+
