Mass spectrum: Citalopram; LC-ESI-ITFT; MS2; CE: 30%; R=15000; [M+H]+
Name: Citalopram
Name: 1-[3-(dimethylamino)propyl]-1-(4-fluorophenyl)-3H-2-benzofuran-5-carbonitrile
Formula: C20H21FN2O
Exact mass: 324.163791512
SMILES: CN(C)CCCC1(OCC2=CC(=CC=C12)C#N)C1=CC=C(F)C=C1
InChI: InChI=1S/C20H21FN2O/c1-23(2)11-3-10-20(17-5-7-18(21)8-6-17)19-9-4-15(13-22)12-16(19)14-24-20/h4-9,12H,3,10-11,14H2,1-2H3
Instrument: LTQ Orbitrap XL Thermo Scientific
Instrument type: LC-ESI-ITFT
Ms type: MS2
Ion mode: POSITIVE
Ionization: ESI
Fragmentation mode: HCD
Collision energy: 30 % (nominal)
Resolution: 15000
Column name: Kinetex Evo C18 2.6 um 50 x 2.1 mm
Retention time: 7.715 min
Base peak: 325.1724
Precursor m/z: 325.1711
Precursor type: [M+H]+
Precursor intensity: 24915022
m/z	relative intensity	assigned
109.0449	244	C7H6F+
116.0496	29	C8H6N+
123.0242	2	C7H4FO+
144.0446	2	C9H6NO+
156.081	9	C11H10N+
166.0653	17	C12H8N+
184.0762	4	C12H10NO+
221.063	2	C15H8FN+
222.0709	1	C15H9FN+
224.087	2	C15H11FN+
234.0718	15	C16H9FN+
235.0929	1	C17H12F+
238.0658	4	C15H9FNO+
242.0976	3	C15H13FNO+
247.0788	2	C17H10FN+
250.1031	6	C17H13FN+
262.1029	311	C18H13FN+
280.1135	29	C18H15FNO+
307.1611	22	C20H20FN2+
325.1714	999	C20H22FN2O+
