Mass spectrum: Amidosulfuron; LC-ESI-ITFT; MS2; CE: 90%; R=15000; [M+H]+
Name: Amidosulfuron
Name: 1-(4,6-dimethoxypyrimidin-2-yl)-3-[methyl(methylsulfonyl)sulfamoyl]urea
Formula: C9H15N5O7S2
Exact mass: 369.04128982
SMILES: COC1=CC(OC)=NC(NC(=O)NS(=O)(=O)N(C)S(C)(=O)=O)=N1
InChI: InChI=1S/C9H15N5O7S2/c1-14(22(4,16)17)23(18,19)13-9(15)12-8-10-6(20-2)5-7(11-8)21-3/h5H,1-4H3,(H2,10,11,12,13,15)
Instrument: LTQ Orbitrap XL Thermo Scientific
Instrument type: LC-ESI-ITFT
Ms type: MS2
Ion mode: POSITIVE
Ionization: ESI
Fragmentation mode: HCD
Collision energy: 90 % (nominal)
Resolution: 15000
Column name: Kinetex Evo C18 2.6 um 50 x 2.1 mm
Retention time: 9.696 min
Base peak: 252.1234
Precursor m/z: 370.0486
Precursor type: [M+H]+
Precursor intensity: 2026480.25
m/z	relative intensity	assigned
69.0084	999	C2HN2O+
71.0606	29	C3H7N2+
83.0241	261	C3H3N2O+
84.032	119	C3H4N2O+
97.0396	36	C4H5N2O+
100.0397	34	C4H6NO2+
111.0431	90	C4H5N3O+
127.0506	92	C5H7N2O2+
139.038	592	C5H5N3O2+
139.0505	186	C6H7N2O2+
154.0615	90	H14N2O5S+
182.0574	35	CH14N2O6S+
