Mass spectrum: 4-Nitroquinoline-1-oxide; LC-ESI-ITFT; MS2; CE: 90%; R=15000; [M+H]+
Name: 4-Nitroquinoline-1-oxide
Name: 4-Nitroquinoline N-oxide
Name: 4-nitro-1-oxidoquinolin-1-ium
Formula: C9H6N2O3
Exact mass: 190.037842052
SMILES: [O-][N+](=O)C1=CC=[N+]([O-])C2=CC=CC=C12
InChI: InChI=1S/C9H6N2O3/c12-10-6-5-9(11(13)14)7-3-1-2-4-8(7)10/h1-6H
Instrument: LTQ Orbitrap XL Thermo Scientific
Instrument type: LC-ESI-ITFT
Ms type: MS2
Ion mode: POSITIVE
Ionization: ESI
Fragmentation mode: HCD
Collision energy: 90 % (nominal)
Resolution: 15000
Column name: Kinetex Evo C18 2.6 um 50 x 2.1 mm
Retention time: 6.311 min
Base peak: 360.2164
Precursor m/z: 191.0451
Precursor type: [M+H]+
Precursor intensity: 5930788
m/z	relative intensity	assigned
77.0384	18	C6H5+
78.0462	1	C6H6+
89.0384	21	C7H5+
90.0463	11	C7H6+
91.0415	13	C6H5N+
91.054	7	C7H7+
95.049	3	C6H7O+
101.0384	11	C8H5+
104.0493	17	C7H6N+
105.0335	2	C7H5O+
105.0446	10	C6H5N2+
116.0493	167	C8H6N+
117.0571	2	C8H7N+
119.049	5	C8H7O+
128.0492	999	C9H6N+
129.0443	107	C8H5N2+
132.0443	2	C8H6NO+
133.052	1	C8H7NO+
144.0443	3	C9H6NO+
145.052	314	C9H7NO+
161.0464	2	C9H7NO2+
177.0416	2	C9H7NO3+
