Mass spectrum: Gabapentin; LC-ESI-ITFT; MS2; CE: 55; R=15000; [M+H]+
Name: Gabapentin
Name: 2-[1-(Aminomethyl)cyclohexyl]acetic acid
Formula: C9H17NO2
Exact mass: 171.1259
SMILES: NCC1(CC(O)=O)CCCCC1
InChI: InChI=1S/C9H17NO2/c10-7-9(6-8(11)12)4-2-1-3-5-9/h1-7,10H2,(H,11,12)
Instrument: LTQ Orbitrap XL Thermo Scientific
Instrument type: LC-ESI-ITFT
Ms type: MS2
Ion mode: POSITIVE
Ionization: ESI
Fragmentation mode: CID
Collision energy: 55 (nominal)
Resolution: 15000
Column name: Kinetex Core-Shell C18 2.6 um, 3.0 x 100 mm, Phenomenex
Retention time: 11.872 min
Base peak: 163.1328
Precursor m/z: 172.1332
Precursor type: [M+H]+
m/z	relative intensity	assigned
55.0177	1	C3H3O+
93.0701	1	C7H9+
95.0856	6	C7H11+
109.1013	1	C8H13+
119.0857	5	C9H11+
137.0964	38	C9H13O+
154.1228	999	C9H16NO+
155.1068	59	C9H15O2+
