Mass spectrum: Benzocain; LC-ESI-ITFT; MS2; CE: 50%; R=15000; [M+H]+
Name: Benzocain
Name: Benzocaine
Name: ethyl 4-aminobenzoate
Formula: C9H11NO2
Exact mass: 165.078978592
SMILES: CCOC(=O)C1=CC=C(N)C=C1
InChI: InChI=1S/C9H11NO2/c1-2-12-9(11)7-3-5-8(10)6-4-7/h3-6H,2,10H2,1H3
Instrument: LTQ Orbitrap XL Thermo Scientific
Instrument type: LC-ESI-ITFT
Ms type: MS2
Ion mode: POSITIVE
Ionization: ESI
Fragmentation mode: HCD
Collision energy: 50 % (nominal)
Resolution: 15000
Column name: Kinetex Evo C18 2.6 um 50 x 2.1 mm
Retention time: 7.562 min
Base peak: 166.0867
Precursor m/z: 166.0863
Precursor type: [M+H]+
Precursor intensity: 25015282
m/z	relative intensity	assigned
77.0385	9	C6H5+
92.0497	4	C6H6N+
93.0575	6	C6H7N+
94.0652	667	C6H8N+
120.0444	629	C7H6NO+
122.0964	2	C8H12N+
138.055	999	C7H8NO2+
166.0863	72	C9H12NO2+
