Mass spectrum: Methocarbamol; LC-ESI-ITFT; MS2; CE: 115%; R=15000; [M+H]+
Name: Methocarbamol
Name: [2-hydroxy-3-(2-methoxyphenoxy)propyl] carbamate
Formula: C11H15NO5
Exact mass: 241.0950
SMILES: COC1=C(OCC(O)COC(N)=O)C=CC=C1
InChI: InChI=1S/C11H15NO5/c1-15-9-4-2-3-5-10(9)16-6-8(13)7-17-11(12)14/h2-5,8,13H,6-7H2,1H3,(H2,12,14)
Instrument: LTQ Orbitrap XL Thermo Scientific
Instrument type: LC-ESI-ITFT
Ms type: MS2
Ion mode: POSITIVE
Ionization: ESI
Fragmentation mode: HCD
Collision energy: 115 % (nominal)
Resolution: 15000
Column name: Kinetex Evo C18 2.6 um 50 x 2.1 mm
Retention time: 7.092 min
Base peak: 264.0839
Precursor m/z: 242.1023
Precursor type: [M+H]+
m/z	relative intensity	assigned
62.0235	55	CH4NO2+
65.0385	247	C5H5+
77.0386	999	C6H5+
79.0542	217	C6H7+
81.0335	75	C5H5O+
91.0542	366	C7H7+
92.0256	125	C6H4O+
92.0619	53	C7H8+
93.0339	40	C6H5O+
94.0414	40	C6H6O+
95.0491	249	C6H7O+
103.0541	280	C8H7+
105.0698	70	C8H9+
109.0284	47	C6H5O2+
110.0362	287	C6H6O2+
120.0571	32	C8H8O+
121.0283	602	C7H5O2+
122.0361	402	C7H6O2+
131.0489	31	C9H7O+
