Mass spectrum: Oxybutynin; LC-ESI-ITFT; MS2; CE: 90%; R=15000; [M+H]+
Name: Oxybutynin
Name: 4-(diethylamino)but-2-ynyl 2-cyclohexyl-2-hydroxy-2-phenylacetate
Formula: C22H31NO3
Exact mass: 357.230393852
SMILES: CCN(CC)CC#CCOC(=O)C(O)(C1CCCCC1)C1=CC=CC=C1
InChI: InChI=1S/C22H31NO3/c1-3-23(4-2)17-11-12-18-26-21(24)22(25,19-13-7-5-8-14-19)20-15-9-6-10-16-20/h5,7-8,13-14,20,25H,3-4,6,9-10,15-18H2,1-2H3
Instrument: LTQ Orbitrap XL Thermo Scientific
Instrument type: LC-ESI-ITFT
Ms type: MS2
Ion mode: POSITIVE
Ionization: ESI
Fragmentation mode: HCD
Collision energy: 90 % (nominal)
Resolution: 15000
Column name: Kinetex Evo C18 2.6 um 50 x 2.1 mm
Retention time: 9.083 min
Base peak: 358.2377
Precursor m/z: 358.2377
Precursor type: [M+H]+
Precursor intensity: 59476636
m/z	relative intensity	assigned
77.0382	190	C6H5+
79.0539	990	C6H7+
80.0491	156	C5H6N+
81.057	130	C5H7N+
81.0696	66	C6H9+
82.0649	49	C5H8N+
83.0852	89	C6H11+
86.0961	89	C5H12N+
91.0539	759	C7H7+
93.0697	39	C7H9+
94.0648	274	C6H8N+
95.0489	52	C6H7O+
96.0805	49	C6H10N+
97.028	118	C5H5O2+
105.0331	999	C7H5O+
107.0488	753	C7H7O+
108.0804	123	C7H10N+
115.0538	60	C9H7+
117.0695	110	C9H9+
121.0645	19	C8H9O+
128.0616	107	C10H8+
129.0694	448	C10H9+
141.0696	19	C11H9+
142.1222	430	C8H16NO+
143.085	56	C11H11+
165.0691	17	C13H9+
171.117	21	C13H15+
