Mass spectrum: 4-Nitroquinoline-1-oxide; LC-ESI-ITFT; MS2; CE: 70%; R=15000; [M+H]+
Name: 4-Nitroquinoline-1-oxide
Name: 4-Nitroquinoline N-oxide
Name: 4-nitro-1-oxidoquinolin-1-ium
Formula: C9H6N2O3
Exact mass: 190.037842052
SMILES: [O-][N+](=O)C1=CC=[N+]([O-])C2=CC=CC=C12
InChI: InChI=1S/C9H6N2O3/c12-10-6-5-9(11(13)14)7-3-1-2-4-8(7)10/h1-6H
Instrument: LTQ Orbitrap XL Thermo Scientific
Instrument type: LC-ESI-ITFT
Ms type: MS2
Ion mode: POSITIVE
Ionization: ESI
Fragmentation mode: HCD
Collision energy: 70 % (nominal)
Resolution: 15000
Column name: Kinetex Evo C18 2.6 um 50 x 2.1 mm
Retention time: 6.311 min
Base peak: 360.2164
Precursor m/z: 191.0451
Precursor type: [M+H]+
Precursor intensity: 5930788
m/z	relative intensity	assigned
77.0383	22	C6H5+
78.0461	1	C6H6+
89.0384	4	C7H5+
90.0461	21	C7H6+
91.0414	25	C6H5N+
95.0489	4	C6H7O+
104.0491	32	C7H6N+
105.0334	2	C7H5O+
105.0444	7	C6H5N2+
105.0571	4	C7H7N+
116.0491	188	C8H6N+
117.0571	4	C8H7N+
128.0491	612	C9H6N+
129.0442	8	C8H5N2+
132.044	7	C8H6NO+
133.0518	6	C8H7NO+
144.0441	19	C9H6NO+
145.0518	999	C9H7NO+
160.0386	1	C9H6NO2+
161.0466	44	C9H7NO2+
162.018	3	C8H4NO3+
177.0416	8	C9H7NO3+
191.0446	11	C9H7N2O3+
