Mass spectrum: Ifosfamide; LC-ESI-ITFT; MS2; CE: 70%; R=15000; [M+H]+
Name: Ifosfamide
Name: N,3-bis(2-chloroethyl)-2-oxo-1,3,2lambda5-oxazaphosphinan-2-amine
Formula: C7H15Cl2N2O2P
Exact mass: 260.02481971
SMILES: ClCCNP1(=O)OCCCN1CCCl
InChI: InChI=1S/C7H15Cl2N2O2P/c8-2-4-10-14(12)11(6-3-9)5-1-7-13-14/h1-7H2,(H,10,12)
Instrument: LTQ Orbitrap XL Thermo Scientific
Instrument type: LC-ESI-ITFT
Ms type: MS2
Ion mode: POSITIVE
Ionization: ESI
Fragmentation mode: HCD
Collision energy: 70 % (nominal)
Resolution: 15000
Column name: Kinetex Evo C18 2.6 um 50 x 2.1 mm
Retention time: 7.030 min
Base peak: 307.1122
Precursor m/z: 261.0321
Precursor type: [M+H]+
Precursor intensity: 2372248
m/z	relative intensity	assigned
56.0494	50	C3H6N+
58.0651	3	C3H8N+
67.0543	11	C5H7+
72.0446	5	C3H6NO+
78.0107	172	C2H5ClN+
80.0264	9	C2H7ClN+
92.0264	999	C3H7ClN+
114.1282	10	C7H16N+
115.9665	4	CH4Cl2NO+
116.9506	37	CH3Cl2O2+
123.9716	2	C3H4Cl2N+
124.0163	5	C3H7ClNO2+
126.9716	4	C3H5Cl2O+
128.0263	13	C6H7ClN+
132.0812	3	C5H13N2P+
141.9823	30	C3H6Cl2NO+
182.0138	16	C2H13Cl2N2OP+
233.0016	8	C5H12Cl2N2O2P+
