Mass spectrum: Gabapentin-lactam; LC-ESI-ITFT; MS2; CE: 75%; R=15000; [M+H]+
Name: Gabapentin-lactam
Name: 2-azaspiro[4.5]decan-3-one
Formula: C9H15NO
Exact mass: 153.1154
SMILES: O=C1CC2(CN1)CCCCC2
InChI: InChI=1S/C9H15NO/c11-8-6-9(7-10-8)4-2-1-3-5-9/h1-7H2,(H,10,11)
Instrument: LTQ Orbitrap XL Thermo Scientific
Instrument type: LC-ESI-ITFT
Ms type: MS2
Ion mode: POSITIVE
Ionization: ESI
Fragmentation mode: HCD
Collision energy: 75 % (nominal)
Resolution: 15000
Column name: Kinetex Evo C18 2.6 um 50 x 2.1 mm
Retention time: 8.256 min
Base peak: 154.1225
Precursor m/z: 154.1226
Precursor type: [M+H]+
m/z	relative intensity	assigned
54.0336	1	C3H4N+
55.0541	2	C4H7+
60.0443	4	C2H6NO+
67.0541	62	C5H7+
69.0698	9	C5H9+
72.0443	17	C3H6NO+
77.0384	1	C6H5+
79.0544	1	C6H7+
81.0698	4	C6H9+
91.0541	16	C7H7+
93.0698	30	C7H9+
95.0854	432	C7H11+
109.1011	29	C8H13+
112.112	21	C7H14N+
119.0854	15	C9H11+
137.0958	3	C9H13O+
154.1225	999	C9H16NO+
