Mass spectrum: Ketoprofen; LC-ESI-ITFT; MS2; CE: 80; R=15000; [M+H]+
Name: Ketoprofen
Name: 2-(3-Benzoylphenyl)propanoic acid
Formula: C16H14O3
Exact mass: 254.0943
SMILES: CC(C(O)=O)C1=CC=CC(=C1)C(=O)C1=CC=CC=C1
InChI: InChI=1S/C16H14O3/c1-11(16(18)19)13-8-5-9-14(10-13)15(17)12-6-3-2-4-7-12/h2-11H,1H3,(H,18,19)
Instrument: LTQ Orbitrap XL Thermo Scientific
Instrument type: LC-ESI-ITFT
Ms type: MS2
Ion mode: POSITIVE
Ionization: ESI
Fragmentation mode: HCD
Collision energy: 80 (nominal)
Resolution: 15000
Column name: Kinetex Core-Shell C18 2.6 um, 3.0 x 100 mm, Phenomenex
Retention time: 23.842 min
Base peak: 163.1328
Precursor m/z: 255.1016
Precursor type: [M+H]+
m/z	relative intensity	assigned
77.0386	515	C6H5+
91.0543	26	C7H7+
93.0699	32	C7H9+
95.0492	57	C6H7O+
103.0543	201	C8H7+
105.0335	999	C7H5O+
121.0649	24	C8H9O+
131.0492	60	C9H7O+
149.0599	6	C9H9O2+
165.0701	38	C13H9+
166.0779	29	C13H10+
177.0548	41	C10H9O3+
177.0661	20	C9H9N2O2+
191.0857	8	C15H11+
194.0728	104	C14H10O+
209.0965	5	C15H13O+
