Mass spectrum: Ketoprofen; LC-ESI-ITFT; MS2; CE: 60%; R=15000; [M+H]+
Name: Ketoprofen
Name: 2-(3-benzoylphenyl)propanoic acid
Formula: C16H14O3
Exact mass: 254.094294308
SMILES: CC(C(O)=O)C1=CC=CC(=C1)C(=O)C1=CC=CC=C1
InChI: InChI=1S/C16H14O3/c1-11(16(18)19)13-8-5-9-14(10-13)15(17)12-6-3-2-4-7-12/h2-11H,1H3,(H,18,19)
Instrument: LTQ Orbitrap XL Thermo Scientific
Instrument type: LC-ESI-ITFT
Ms type: MS2
Ion mode: POSITIVE
Ionization: ESI
Fragmentation mode: HCD
Collision energy: 60 % (nominal)
Resolution: 15000
Column name: Kinetex Evo C18 2.6 um 50 x 2.1 mm
Retention time: 10.763 min
Base peak: 416.9909
Precursor m/z: 255.1016
Precursor type: [M+H]+
Precursor intensity: 10229253
m/z	relative intensity	assigned
77.0389	61	C6H5+
93.0702	6	C7H9+
95.0495	9	C6H7O+
103.0547	40	C8H7+
105.0339	999	C7H5O+
121.0654	8	C8H9O+
131.0496	50	C9H7O+
166.0782	4	C13H10+
177.0554	124	C10H9O3+
181.1018	8	C14H13+
194.0734	87	C14H10O+
209.0969	139	C15H13O+
