Mass spectrum: Clopidogrel; LC-ESI-ITFT; MS2; CE: 10%; R=15000; [M+H]+
Name: Clopidogrel
Name: Methyl 2-(2-chlorophenyl)-2-(6,7-dihydrothieno[3,2-c]pyridin-5(4h)-yl)acetate
Name: methyl 2-(2-chlorophenyl)-2-(6,7-dihydro-4H-thieno[3,2-c]pyridin-5-yl)acetate
Formula: C16H16ClNO2S
Exact mass: 321.059027432
SMILES: COC(=O)C(N1CCC2=C(C1)C=CS2)C1=CC=CC=C1Cl
InChI: InChI=1S/C16H16ClNO2S/c1-20-16(19)15(12-4-2-3-5-13(12)17)18-8-6-14-11(10-18)7-9-21-14/h2-5,7,9,15H,6,8,10H2,1H3
Instrument: LTQ Orbitrap XL Thermo Scientific
Instrument type: LC-ESI-ITFT
Ms type: MS2
Ion mode: POSITIVE
Ionization: ESI
Fragmentation mode: HCD
Collision energy: 10 % (nominal)
Resolution: 15000
Column name: Kinetex Evo C18 2.6 um 50 x 2.1 mm
Retention time: 10.879 min
Base peak: 322.0676
Precursor m/z: 322.0663
Precursor type: [M+H]+
Precursor intensity: 26425826
m/z	relative intensity	assigned
184.0525	11	C9H11ClNO+
212.0473	22	C10H11ClNO2+
322.0663	999	C16H17ClNO2S+
