Mass spectrum: Naproxen; LC-ESI-ITFT; MS2; CE: 80; R=15000; [M+H]+
Name: Naproxen
Name: 2-(6-Methoxynaphthalen-2-yl)propanoic acid
Formula: C14H14O3
Exact mass: 230.0943
SMILES: COC1=CC2=CC=C(C=C2C=C1)C(C)C(O)=O
InChI: InChI=1S/C14H14O3/c1-9(14(15)16)10-3-4-12-8-13(17-2)6-5-11(12)7-10/h3-9H,1-2H3,(H,15,16)
Instrument: LTQ Orbitrap XL Thermo Scientific
Instrument type: LC-ESI-ITFT
Ms type: MS2
Ion mode: POSITIVE
Ionization: ESI
Fragmentation mode: HCD
Collision energy: 80 (nominal)
Resolution: 15000
Column name: Kinetex Core-Shell C18 2.6 um, 3.0 x 100 mm, Phenomenex
Retention time: 24.337 min
Base peak: 204.1382
Precursor m/z: 231.1016
Precursor type: [M+H]+
m/z	relative intensity	assigned
115.0543	209	C9H7+
128.0621	74	C10H8+
129.07	76	C10H9+
142.0779	241	C11H10+
143.0494	44	C10H7O+
152.0623	158	C12H8+
153.0701	406	C12H9+
154.0779	407	C12H10+
155.0857	190	C12H11+
156.0575	20	C11H8O+
157.065	12	C11H9O+
158.0728	188	C11H10O+
169.0651	221	C12H9O+
170.0728	999	C12H10O+
181.0763	108	C12H9N2+
185.0964	326	C13H13O+
201.1028	5	C12H13N2O+
