Mass spectrum: Tebuconazol; LC-ESI-ITFT; MS2; CE: 55; R=15000; [M+H]+
Name: Tebuconazol
Name: Tebuconazole
Name: 1-(4-Chlorophenyl)-4,4-dimethyl-3-(1,2,4-triazol-1-ylmethyl)pentan-3-ol
Formula: C16H22ClN3O
Exact mass: 307.1451
SMILES: CC(C)(C)C(O)(CCC1=CC=C(Cl)C=C1)CN1C=NC=N1
InChI: InChI=1S/C16H22ClN3O/c1-15(2,3)16(21,10-20-12-18-11-19-20)9-8-13-4-6-14(17)7-5-13/h4-7,11-12,21H,8-10H2,1-3H3
Instrument: LTQ Orbitrap XL Thermo Scientific
Instrument type: LC-ESI-ITFT
Ms type: MS2
Ion mode: POSITIVE
Ionization: ESI
Fragmentation mode: HCD
Collision energy: 55 (nominal)
Resolution: 15000
Column name: Kinetex Core-Shell C18 2.6 um, 3.0 x 100 mm, Phenomenex
Retention time: 25.941 min
Base peak: 163.1327
Precursor m/z: 308.1524
Precursor type: [M+H]+
m/z	relative intensity	assigned
70.0398	999	C2H4N3+
83.0854	7	C6H11+
115.0543	8	C9H7+
116.0621	6	C9H8+
125.0151	221	C7H6Cl+
139.0309	18	C8H8Cl+
151.0308	110	C9H8Cl+
165.0464	27	C10H10Cl+
179.0618	5	C11H12Cl+
308.1522	4	C16H23ClN3O+
