Mass spectrum: DCOIT; LC-ESI-ITFT; MS2; CE: 40%; R=15000; [M+H]+
Name: DCOIT
Name: Kathon 930
Name: 4,5-dichloro-2-octyl-1,2-thiazol-3-one
Formula: C11H17Cl2NOS
Exact mass: 281.040790524
SMILES: CCCCCCCCN1SC(Cl)=C(Cl)C1=O
InChI: InChI=1S/C11H17Cl2NOS/c1-2-3-4-5-6-7-8-14-11(15)9(12)10(13)16-14/h2-8H2,1H3
Instrument: LTQ Orbitrap XL Thermo Scientific
Instrument type: LC-ESI-ITFT
Ms type: MS2
Ion mode: POSITIVE
Ionization: ESI
Fragmentation mode: HCD
Collision energy: 40 % (nominal)
Resolution: 15000
Column name: Kinetex Evo C18 2.6 um 50 x 2.1 mm
Retention time: 13.491 min
Base peak: 282.049
Precursor m/z: 282.0481
Precursor type: [M+H]+
Precursor intensity: 6714798
m/z	relative intensity	assigned
57.0696	317	C4H9+
71.0854	300	C5H11+
169.9229	999	C3H2Cl2NOS+
