Mass spectrum: Metoprolol acid; LC-ESI-ITFT; MS2; CE: 80%; R=15000; [M+H]+
Name: Metoprolol acid
Name: 2-[4-[2-hydroxy-3-(propan-2-ylamino)propoxy]phenyl]acetic acid
Formula: C14H21NO4
Exact mass: 267.147058152
SMILES: CC(C)NCC(O)COC1=CC=C(CC(O)=O)C=C1
InChI: InChI=1S/C14H21NO4/c1-10(2)15-8-12(16)9-19-13-5-3-11(4-6-13)7-14(17)18/h3-6,10,12,15-16H,7-9H2,1-2H3,(H,17,18)
Instrument: LTQ Orbitrap XL Thermo Scientific
Instrument type: LC-ESI-ITFT
Ms type: MS2
Ion mode: POSITIVE
Ionization: ESI
Fragmentation mode: HCD
Collision energy: 80 % (nominal)
Resolution: 15000
Column name: Kinetex Evo C18 2.6 um 50 x 2.1 mm
Retention time: 0.999 min
Base peak: 235.1813
Precursor m/z: 268.1543
Precursor type: [M+H]+
Precursor intensity: 19350924
m/z	relative intensity	assigned
56.0493	470	C3H6N+
57.0333	4	C3H5O+
58.065	44	C3H8N+
67.0542	6	C5H7+
72.0807	235	C4H10N+
74.06	224	C3H8NO+
77.0386	17	C6H5+
79.0542	290	C6H7+
81.0699	34	C6H9+
84.0807	23	C5H10N+
89.0386	93	C7H5+
91.0543	242	C7H7+
93.0699	11	C7H9+
95.0492	89	C6H7O+
98.0965	69	C6H12N+
100.1121	36	C6H14N+
103.0545	5	C8H7+
105.0336	8	C7H5O+
105.0701	18	C8H9+
107.0492	133	C7H7O+
109.0648	75	C7H9O+
115.0543	49	C9H7+
116.1071	46	C6H14NO+
117.0699	149	C9H9+
119.0492	125	C8H7O+
121.0647	18	C8H9O+
123.0442	51	C7H7O2+
131.0492	5	C9H7O+
133.0649	34	C9H9O+
135.0441	42	C8H7O2+
137.0598	84	C8H9O2+
144.0569	5	C10H8O+
145.0649	999	C10H9O+
153.0548	12	C8H9O3+
162.0907	5	C10H12NO+
163.0756	16	C10H11O2+
165.0548	102	C9H9O3+
191.0703	19	C11H11O3+
