Mass spectrum: Acetyl-sulfamethoxazole; LC-ESI-ITFT; MS2; CE: 40%; R=15000; [M+H]+
Name: Acetyl-sulfamethoxazole
Name: Acetylsulfamethoxazole
Name: N-[4-[(5-methyl-1,2-oxazol-3-yl)sulfamoyl]phenyl]acetamide
Formula: C12H13N3O4S
Exact mass: 295.062676896
SMILES: CC(=O)NC1=CC=C(C=C1)S(=O)(=O)NC1=NOC(C)=C1
InChI: InChI=1S/C12H13N3O4S/c1-8-7-12(14-19-8)15-20(17,18)11-5-3-10(4-6-11)13-9(2)16/h3-7H,1-2H3,(H,13,16)(H,14,15)
Instrument: LTQ Orbitrap XL Thermo Scientific
Instrument type: LC-ESI-ITFT
Ms type: MS2
Ion mode: POSITIVE
Ionization: ESI
Fragmentation mode: HCD
Collision energy: 40 % (nominal)
Resolution: 15000
Column name: Kinetex Evo C18 2.6 um 50 x 2.1 mm
Retention time: 7.573 min
Base peak: 296.0711
Precursor m/z: 296.07
Precursor type: [M+H]+
Precursor intensity: 12314598
m/z	relative intensity	assigned
65.0385	35	C5H5+
92.0496	31	C6H6N+
93.0336	37	C6H5O+
93.0574	145	C6H7N+
94.0652	22	C6H8N+
97.0398	2	C4H5N2O+
98.0475	3	C4H6N2O+
99.0554	168	C4H7N2O+
107.0606	15	C6H7N2+
108.0445	464	C6H6NO+
110.0601	8	C6H8NO+
118.0654	5	C8H8N+
123.0556	2	C6H7N2O+
131.0606	5	C8H7N2+
132.0684	3	C8H8N2+
134.0602	999	C8H8NO+
135.068	51	C8H9NO+
136.0758	453	C8H10NO+
140.0168	2	C6H6NOS+
145.0762	3	C9H9N2+
146.0714	93	C8H8N3+
147.0556	3	C8H7N2O+
147.0793	65	C8H9N3+
148.0633	3	C8H8N2O+
148.0871	30	C8H10N3+
149.0711	8	C8H9N2O+
150.0552	83	C8H8NO2+
150.079	8	C8H10N2O+
151.0327	7	C7H7N2S+
152.0708	24	C8H10NO2+
156.0116	112	C6H6NO2S+
156.9957	7	C6H5O3S+
160.0871	192	C9H10N3+
161.0017	26	C4H5N2O3S+
161.0713	3	C9H9N2O+
162.0664	278	C8H8N3O+
163.0871	2	C9H11N2O+
172.0872	11	C10H10N3+
173.0716	2	C10H9N2O+
174.0222	8	C6H8NO3S+
176.0279	26	C8H6N3S+
177.012	2	C8H5N2OS+
188.0821	347	C10H10N3O+
189.0899	61	C10H11N3O+
190.0977	122	C10H12N3O+
191.0819	3	C10H11N2O2+
193.0435	6	C9H9N2OS+
194.0385	188	C8H8N3OS+
195.0222	4	C8H7N2O2S+
198.0222	902	C8H8NO3S+
201.0661	11	C11H9N2O2+
202.0978	20	C11H12N3O+
205.0973	3	C11H13N2O2+
214.0977	13	C12H12N3O+
216.0327	4	C8H10NO4S+
216.0897	9	C12H12N2O2+
218.0387	16	C10H8N3OS+
230.0926	9	C12H12N3O2+
232.1085	13	C12H14N3O2+
236.0491	61	C10H10N3O2S+
254.0596	7	C10H12N3O3S+
278.0598	3	C12H12N3O3S+
296.0704	221	C12H14N3O4S+
