Mass spectrum: Fluvoxamine; LC-ESI-ITFT; MS2; CE: 90%; R=15000; [M+H]+
Name: Fluvoxamine
Name: 2-[[5-methoxy-1-[4-(trifluoromethyl)phenyl]pentylidene]amino]oxyethanamine
Formula: C15H21F3N2O2
Exact mass: 318.155512572
SMILES: COCCCCC(=NOCCN)C1=CC=C(C=C1)C(F)(F)F
InChI: InChI=1S/C15H21F3N2O2/c1-21-10-3-2-4-14(20-22-11-9-19)12-5-7-13(8-6-12)15(16,17)18/h5-8H,2-4,9-11,19H2,1H3
Instrument: LTQ Orbitrap XL Thermo Scientific
Instrument type: LC-ESI-ITFT
Ms type: MS2
Ion mode: POSITIVE
Ionization: ESI
Fragmentation mode: HCD
Collision energy: 90 % (nominal)
Resolution: 15000
Column name: Kinetex Evo C18 2.6 um 50 x 2.1 mm
Retention time: 8.950 min
Base peak: 319.1637
Precursor m/z: 319.1628
Precursor type: [M+H]+
Precursor intensity: 94429984
m/z	relative intensity	assigned
53.0384	25	C4H5+
55.054	282	C4H7+
56.0255	42	C3H4O+
71.049	999	C4H7O+
87.0805	50	C5H11O+
130.0651	198	C9H8N+
131.0731	90	C9H9N+
145.026	196	C7H4F3+
159.0416	43	C8H6F3+
165.051	24	C10H7F2+
171.0411	25	C9H6F3+
172.037	80	C8H5F3N+
173.0319	30	C7H4F3N2+
180.0623	60	C10H8F2N+
186.0522	26	C9H7F3N+
198.0528	49	C10H7F3N+
200.0683	73	C10H9F3N+
226.0847	20	C12H11F3N+
