Mass spectrum: Chlorotoluron; LC-ESI-ITFT; MS2; CE: 80%; R=15000; [M+H]+
Name: Chlorotoluron
Name: 3-(3-chloro-4-methylphenyl)-1,1-dimethylurea
Formula: C10H13ClN2O
Exact mass: 212.071640716
SMILES: CN(C)C(=O)NC1=CC(Cl)=C(C)C=C1
InChI: InChI=1S/C10H13ClN2O/c1-7-4-5-8(6-9(7)11)12-10(14)13(2)3/h4-6H,1-3H3,(H,12,14)
Instrument: LTQ Orbitrap XL Thermo Scientific
Instrument type: LC-ESI-ITFT
Ms type: MS2
Ion mode: POSITIVE
Ionization: ESI
Fragmentation mode: HCD
Collision energy: 80 % (nominal)
Resolution: 15000
Column name: Kinetex Evo C18 2.6 um 50 x 2.1 mm
Retention time: 9.488 min
Base peak: 213.0793
Precursor m/z: 213.0789
Precursor type: [M+H]+
Precursor intensity: 8039637
m/z	relative intensity	assigned
72.0442	999	C3H6NO+
77.0383	3	C6H5+
89.0386	1	C7H5+
104.0493	13	C7H6N+
113.0151	8	C6H6Cl+
125.0151	15	C7H6Cl+
133.0521	3	C8H7NO+
140.026	96	C7H7ClN+
153.0213	6	C7H6ClN2+
168.0209	8	C8H7ClNO+
