Mass spectrum: Ziprasidone; LC-ESI-ITFT; MS2; CE: 90%; R=15000; [M+H]+
Name: Ziprasidone
Name: 5-[2-[4-(1,2-benzothiazol-3-yl)piperazin-1-yl]ethyl]-6-chloro-1,3-dihydroindol-2-one
Formula: C21H21ClN4OS
Exact mass: 412.112459972
SMILES: ClC1=C(CCN2CCN(CC2)C2=NSC3=CC=CC=C23)C=C2CC(=O)NC2=C1
InChI: InChI=1S/C21H21ClN4OS/c22-17-13-18-15(12-20(27)23-18)11-14(17)5-6-25-7-9-26(10-8-25)21-16-3-1-2-4-19(16)28-24-21/h1-4,11,13H,5-10,12H2,(H,23,27)
Instrument: LTQ Orbitrap XL Thermo Scientific
Instrument type: LC-ESI-ITFT
Ms type: MS2
Ion mode: POSITIVE
Ionization: ESI
Fragmentation mode: HCD
Collision energy: 90 % (nominal)
Resolution: 15000
Column name: Kinetex Evo C18 2.6 um 50 x 2.1 mm
Retention time: 8.187 min
Base peak: 413.1211
Precursor m/z: 413.1197
Precursor type: [M+H]+
Precursor intensity: 8275721.5
m/z	relative intensity	assigned
103.0547	292	C8H7+
109.011	37	C6H5S+
115.0547	22	C9H7+
130.0657	612	C9H8N+
131.0735	748	C9H9N+
134.0064	33	C7H4NS+
136.0219	43	C7H6NS+
139.0314	155	C8H8Cl+
150.0377	18	C8H8NS+
151.0187	28	C8H6ClN+
152.0167	16	C4H9ClN2S+
158.0607	117	C7H11ClN2+
159.0685	794	C7H12ClN2+
166.0425	999	C9H9ClN+
175.0342	10	C8H12ClS+
177.0487	90	C9H9N2S+
194.0374	254	C10H9ClNO+
