Mass spectrum: Imazalil; LC-ESI-ITFT; MS2; CE: 30%; R=15000; [M+H]+
Name: Imazalil
Name: Enilconazole
Name: 1-[2-(2,4-dichlorophenyl)-2-prop-2-enoxyethyl]imidazole
Formula: C14H14Cl2N2O
Exact mass: 296.048318428
SMILES: ClC1=CC=C(C(CN2C=CN=C2)OCC=C)C(Cl)=C1
InChI: InChI=1S/C14H14Cl2N2O/c1-2-7-19-14(9-18-6-5-17-10-18)12-4-3-11(15)8-13(12)16/h2-6,8,10,14H,1,7,9H2
Instrument: LTQ Orbitrap XL Thermo Scientific
Instrument type: LC-ESI-ITFT
Ms type: MS2
Ion mode: POSITIVE
Ionization: ESI
Fragmentation mode: HCD
Collision energy: 30 % (nominal)
Resolution: 15000
Column name: Kinetex Evo C18 2.6 um 50 x 2.1 mm
Retention time: 8.302 min
Base peak: 297.0568
Precursor m/z: 297.0556
Precursor type: [M+H]+
Precursor intensity: 38132508
m/z	relative intensity	assigned
69.0445	153	C3H5N2+
109.076	84	C6H9N2+
158.9763	172	C7H5Cl2+
172.9919	22	C8H7Cl2+
176.0387	59	C11H9Cl+
184.992	22	C9H7Cl2+
199.0075	14	C10H9Cl2+
200.9868	110	C9H7Cl2O+
211.0076	24	C11H9Cl2+
229.0184	9	C11H11Cl2O+
255.0086	83	C11H9Cl2N2O+
297.0555	999	C14H15Cl2N2O+
