Mass spectrum: Trenbolone; LC-ESI-ITFT; MS2; CE: 90%; R=15000; [M+H]+
Name: Trenbolone
Name: Trenbolone:17-Hydroxyestra-4,9,11-trien-3-one
Name: (13S,17S)-17-hydroxy-13-methyl-2,6,7,8,14,15,16,17-octahydro-1H-cyclopenta[a]phenanthren-3-one
Formula: C18H22O2
Exact mass: 270.161979944
SMILES: C[C@]12C=CC3=C4CCC(=O)C=C4CCC3C1CC[C@@H]2O
InChI: InChI=1S/C18H22O2/c1-18-9-8-14-13-5-3-12(19)10-11(13)2-4-15(14)16(18)6-7-17(18)20/h8-10,15-17,20H,2-7H2,1H3/t15?,16?,17-,18-/m0/s1
Instrument: LTQ Orbitrap XL Thermo Scientific
Instrument type: LC-ESI-ITFT
Ms type: MS2
Ion mode: POSITIVE
Ionization: ESI
Fragmentation mode: HCD
Collision energy: 90 % (nominal)
Resolution: 15000
Column name: Kinetex Evo C18 2.6 um 50 x 2.1 mm
Retention time: 10.670 min
Base peak: 271.1693
Precursor m/z: 271.1693
Precursor type: [M+H]+
Precursor intensity: 15699972
m/z	relative intensity	assigned
57.0332	20	C3H5O+
67.054	92	C5H7+
69.0699	21	C5H9+
71.049	37	C4H7O+
77.0385	43	C6H5+
79.0541	253	C6H7+
81.0697	134	C6H9+
83.049	451	C5H7O+
91.0541	372	C7H7+
93.0697	159	C7H9+
95.0491	47	C6H7O+
95.0854	45	C7H11+
97.0646	28	C6H9O+
103.0542	58	C8H7+
105.0697	500	C8H9+
107.049	690	C7H7O+
107.0853	83	C8H11+
109.0646	84	C7H9O+
115.0541	109	C9H7+
116.0618	42	C9H8+
117.0697	265	C9H9+
119.0854	125	C9H11+
121.0646	94	C8H9O+
128.0619	241	C10H8+
129.0697	428	C10H9+
130.0775	74	C10H10+
131.0489	75	C9H7O+
131.0853	241	C10H11+
132.0563	25	C9H8O+
133.0646	301	C9H9O+
133.1006	35	C10H13+
135.0804	104	C9H11O+
141.0696	460	C11H9+
142.0776	172	C11H10+
143.0853	305	C11H11+
144.0568	134	C10H8O+
145.0646	149	C10H9O+
145.1009	150	C11H13+
146.0726	51	C10H10O+
147.0803	98	C10H11O+
148.0881	57	C10H12O+
152.0616	77	C12H8+
153.0697	179	C12H9+
154.0776	145	C12H10+
155.0853	444	C12H11+
156.0933	72	C12H12+
157.0646	424	C11H9O+
157.101	146	C12H13+
158.0724	91	C11H10O+
159.0802	258	C11H11O+
161.0963	64	C11H13O+
165.0697	362	C13H9+
166.0775	281	C13H10+
167.0853	448	C13H11+
168.0931	136	C13H12+
169.0644	55	C12H9O+
169.101	276	C13H13+
170.0724	49	C12H10O+
170.1089	21	C13H14+
171.0802	199	C12H11O+
171.117	58	C13H15+
172.0882	45	C12H12O+
173.0962	52	C12H13O+
178.0776	229	C14H10+
179.0853	336	C14H11+
180.0931	144	C14H12+
181.0645	37	C13H9O+
181.101	328	C14H13+
182.0724	48	C13H10O+
182.1087	68	C14H14+
183.0803	202	C13H11O+
183.1165	145	C14H15+
184.0882	148	C13H12O+
185.0959	355	C13H13O+
185.1318	25	C14H17+
186.1036	151	C13H14O+
187.1118	44	C13H15O+
191.0856	72	C15H11+
192.0931	127	C15H12+
193.1007	102	C15H13+
194.109	38	C15H14+
195.08	65	C14H11O+
195.1166	104	C15H15+
196.0881	56	C14H12O+
196.1252	21	C15H16+
197.0958	278	C14H13O+
198.1036	168	C14H14O+
199.1115	999	C14H15O+
200.1192	173	C14H16O+
205.1009	91	C16H13+
207.1163	93	C16H15+
209.0957	83	C15H13O+
209.1326	52	C16H17+
210.1036	48	C15H14O+
211.1115	85	C15H15O+
211.1483	18	C16H19+
212.1193	95	C15H16O+
213.127	102	C15H17O+
214.1348	140	C15H18O+
219.1161	38	C17H15+
220.1241	39	C17H16+
223.1116	70	C16H15O+
225.1271	56	C16H17O+
227.1429	70	C16H19O+
235.1474	22	C18H19+
237.1272	79	C17H17O+
238.1349	74	C17H18O+
253.1587	55	C18H21O+
