Mass spectrum: Trifloxystrobin; LC-ESI-ITFT; MS2; CE: 80%; R=15000; [M+H]+
Name: Trifloxystrobin
Name: methyl (2E)-2-methoxyimino-2-[2-[[(E)-1-[3-(trifluoromethyl)phenyl]ethylideneamino]oxymethyl]phenyl]acetate
Formula: C20H19F3N2O4
Exact mass: 408.129691748
SMILES: CO\N=C(\C(=O)OC)C1=C(CO\N=C(/C)C2=CC=CC(=C2)C(F)(F)F)C=CC=C1
InChI: InChI=1S/C20H19F3N2O4/c1-13(14-8-6-9-16(11-14)20(21,22)23)24-29-12-15-7-4-5-10-17(15)18(25-28-3)19(26)27-2/h4-11H,12H2,1-3H3/b24-13+,25-18+
Instrument: LTQ Orbitrap XL Thermo Scientific
Instrument type: LC-ESI-ITFT
Ms type: MS2
Ion mode: POSITIVE
Ionization: ESI
Fragmentation mode: HCD
Collision energy: 80 % (nominal)
Resolution: 15000
Column name: Kinetex Evo C18 2.6 um 50 x 2.1 mm
Retention time: 13.200 min
Base peak: 409.1376
Precursor m/z: 409.137
Precursor type: [M+H]+
Precursor intensity: 6942883
m/z	relative intensity	assigned
65.0387	3	C5H5+
79.0544	8	C6H7+
89.039	59	C7H5+
90.0468	26	C7H6+
91.0546	87	C7H7+
103.0546	9	C8H7+
104.0499	5	C7H6N+
104.0625	9	C8H8+
105.0452	5	C6H5N2+
105.0703	16	C8H9+
115.0422	18	C8H5N+
115.0553	3	C6H8FO+
116.05	249	C8H6N+
117.0578	104	C8H7N+
118.0656	83	C8H8N+
119.0496	13	C8H7O+
119.0606	5	C7H7N2+
123.0359	29	C6H4FN2+
125.0202	12	C7H3F2+
128.0495	3	C9H6N+
130.0657	89	C9H8N+
131.0735	182	C9H9N+
132.0449	42	C8H6NO+
132.0813	25	C9H10N+
133.0528	4	C8H7NO+
134.0604	3	C8H8NO+
139.0066	3	C6H2FNO2+
141.0028	5	C3H2F3NO2+
145.0265	999	C7H4F3+
146.0605	48	C9H8NO+
147.0682	8	C9H9NO+
148.0765	4	C6H11FNO2+
152.0619	3	C12H8+
161.0477	13	C9H7NO2+
173.0329	121	C7H4F3N2+
186.0532	133	C9H7F3N+
253.0007	3	C14F3N2+
254.0041	6	C17HFNO+
