Mass spectrum: Ethion; LC-ESI-ITFT; MS2; CE: 10%; R=15000; [M+H]+
Name: Ethion
Name: diethoxyphosphinothioylsulfanylmethylsulfanyl-diethoxy-sulfanylidene-lambda5-phosphane
Formula: C9H22O4P2S4
Exact mass: 383.987616444
SMILES: CCOP(=S)(OCC)SCSP(=S)(OCC)OCC
InChI: InChI=1S/C9H22O4P2S4/c1-5-10-14(16,11-6-2)18-9-19-15(17,12-7-3)13-8-4/h5-9H2,1-4H3
Instrument: LTQ Orbitrap XL Thermo Scientific
Instrument type: LC-ESI-ITFT
Ms type: MS2
Ion mode: POSITIVE
Ionization: ESI
Fragmentation mode: HCD
Collision energy: 10 % (nominal)
Resolution: 15000
Column name: Kinetex Evo C18 2.6 um 50 x 2.1 mm
Retention time: 13.702 min
Base peak: 116.9863
Precursor m/z: 384.9949
Precursor type: [M+H]+
Precursor intensity: 2949609
m/z	relative intensity	assigned
75.0262	36	C3H7S+
153.0139	83	C4H10O2PS+
170.9705	301	C3H8O2PS2+
199.0019	999	C5H12O2PS2+
215.0331	394	C6H16O2PS2+
