Mass spectrum: Daidzein; LC-ESI-ITFT; MS2; CE: 35; R=15000; [M+H]+
Name: Daidzein
Name: 7-Hydroxy-3-(4-hydroxyphenyl)chromen-4-one
Formula: C15H10O4
Exact mass: 254.0579
SMILES: OC1=CC=C(C=C1)C1=COC2=CC(O)=CC=C2C1=O
InChI: InChI=1S/C15H10O4/c16-10-3-1-9(2-4-10)13-8-19-14-7-11(17)5-6-12(14)15(13)18/h1-8,16-17H
Instrument: LTQ Orbitrap XL Thermo Scientific
Instrument type: LC-ESI-ITFT
Ms type: MS2
Ion mode: POSITIVE
Ionization: ESI
Fragmentation mode: CID
Collision energy: 35 (nominal)
Resolution: 15000
Column name: Kinetex Core-Shell C18 2.6 um, 3.0 x 100 mm, Phenomenex
Retention time: 21.699 min
Base peak: 255.0644
Precursor m/z: 255.0652
Precursor type: [M+H]+
m/z	relative intensity	assigned
81.0334	4	C5H5O+
119.0488	11	C8H7O+
121.0282	16	C7H5O2+
129.0696	15	C10H9+
133.0281	32	C8H5O2+
137.023	715	C7H5O3+
141.0694	8	C11H9+
143.0853	6	C11H11+
145.0281	138	C9H5O2+
149.0231	34	C8H5O3+
153.0696	21	C12H9+
155.0849	9	C12H11+
157.0646	60	C11H9O+
165.0696	39	C13H9+
169.0644	5	C12H9O+
171.08	27	C12H11O+
181.0645	68	C13H9O+
183.0803	4	C13H11O+
185.0594	55	C12H9O2+
193.0639	6	C14H9O+
197.0598	3	C13H9O2+
199.075	999	C13H11O2+
209.0593	46	C14H9O2+
209.0706	12	C13H9N2O+
210.067	5	C14H10O2+
211.0751	48	C14H11O2+
213.0542	15	C13H9O3+
227.0697	507	C14H11O3+
237.0541	232	C15H9O3+
255.0647	835	C15H11O4+
