Mass spectrum: Methotrexate; LC-ESI-ITFT; MS2; CE: 80%; R=15000; [M+H]+
Name: Methotrexate
Name: (2S)-2-[[4-[(2,4-diaminopteridin-6-yl)methyl-methylamino]benzoyl]amino]pentanedioic acid
Formula: C20H22N8O5
Exact mass: 454.171315804
SMILES: CN(CC1=NC2=C(N=C1)N=C(N)N=C2N)C1=CC=C(C=C1)C(=O)N[C@@H](CCC(O)=O)C(O)=O
InChI: InChI=1S/C20H22N8O5/c1-28(9-11-8-23-17-15(24-11)16(21)26-20(22)27-17)12-4-2-10(3-5-12)18(31)25-13(19(32)33)6-7-14(29)30/h2-5,8,13H,6-7,9H2,1H3,(H,25,31)(H,29,30)(H,32,33)(H4,21,22,23,26,27)/t13-/m0/s1
Instrument: LTQ Orbitrap XL Thermo Scientific
Instrument type: LC-ESI-ITFT
Ms type: MS2
Ion mode: POSITIVE
Ionization: ESI
Fragmentation mode: HCD
Collision energy: 80 % (nominal)
Resolution: 15000
Column name: Kinetex Evo C18 2.6 um 50 x 2.1 mm
Retention time: 5.132 min
Base peak: 455.1799
Precursor m/z: 455.1786
Precursor type: [M+H]+
Precursor intensity: 4464565
m/z	relative intensity	assigned
79.029	3	C4H3N2+
79.0543	15	C6H7+
80.0242	2	C3H2N3+
81.0449	1	C4H5N2+
106.0402	35	C5H4N3+
106.0653	50	C7H8N+
107.0481	5	C5H5N3+
108.0558	13	C5H6N3+
110.0592	2	C4H6N4+
118.0399	3	C6H4N3+
121.0511	50	C5H5N4+
133.0511	288	C6H5N4+
134.0602	500	C8H8NO+
135.054	12	C5H5N5+
135.0662	24	C6H7N4+
136.0502	2	C6H6N3O+
146.0464	7	C6H4N5+
148.0621	106	C6H6N5+
149.0697	13	C6H7N5+
150.0776	13	C6H8N5+
151.0621	2	C6H7N4O+
158.0463	6	C7H4N5+
159.0543	33	C7H5N5+
160.062	75	C7H6N5+
163.0727	10	C6H7N6+
175.073	999	C7H7N6+
176.0807	286	C7H8N6+
177.0885	44	C7H9N6+
