Mass spectrum: Diazinon; LC-ESI-ITFT; MS2; CE: 50%; R=15000; [M+H]+
Name: Diazinon
Name: diethoxy-(6-methyl-2-propan-2-ylpyrimidin-4-yl)oxy-sulfanylidene-lambda5-phosphane
Formula: C12H21N2O3PS
Exact mass: 304.101050162
SMILES: CCOP(=S)(OCC)OC1=CC(C)=NC(=N1)C(C)C
InChI: InChI=1S/C12H21N2O3PS/c1-6-15-18(19,16-7-2)17-11-8-10(5)13-12(14-11)9(3)4/h8-9H,6-7H2,1-5H3
Instrument: LTQ Orbitrap XL Thermo Scientific
Instrument type: LC-ESI-ITFT
Ms type: MS2
Ion mode: POSITIVE
Ionization: ESI
Fragmentation mode: HCD
Collision energy: 50 % (nominal)
Resolution: 15000
Column name: Kinetex Evo C18 2.6 um 50 x 2.1 mm
Retention time: 12.492 min
Base peak: 305.1093
Precursor m/z: 305.1083
Precursor type: [M+H]+
Precursor intensity: 47252096
m/z	relative intensity	assigned
70.065	3	C4H8N+
80.9737	1	H2O3P+
84.0444	17	C4H6NO+
96.9508	179	H2O2PS+
98.0965	3	C6H12N+
100.0215	18	C4H6NS+
109.0049	23	C2H6O3P+
110.9664	3	CH4O2PS+
114.9613	135	H4O3PS+
124.9821	23	C2H6O2PS+
128.9773	1	CH6O3PS+
142.9927	3	C2H8O3PS+
153.1022	589	C8H13N2O+
167.0641	2	C8H11N2S+
169.0794	999	C8H13N2S+
181.1336	15	C10H17N2O+
197.1109	5	C10H17N2S+
206.0945	1	C8H17NO3P+
231.0346	3	C12H9NO2S+
249.0457	1	C8H14N2O3PS+
305.1079	8	C12H22N2O3PS+
