Mass spectrum: N-Phenyl-1-naphthylamine; LC-ESI-ITFT; MS2; CE: 60%; R=15000; [M+H]+
Name: N-Phenyl-1-naphthylamine
Name: N-phenylnaphthalen-1-amine
Formula: C16H13N
Exact mass: 219.104799416
SMILES: N(C1=CC=CC=C1)C1=CC=CC2=C1C=CC=C2
InChI: InChI=1S/C16H13N/c1-2-9-14(10-3-1)17-16-12-6-8-13-7-4-5-11-15(13)16/h1-12,17H
Instrument: LTQ Orbitrap XL Thermo Scientific
Instrument type: LC-ESI-ITFT
Ms type: MS2
Ion mode: POSITIVE
Ionization: ESI
Fragmentation mode: HCD
Collision energy: 60 % (nominal)
Resolution: 15000
Column name: Kinetex Evo C18 2.6 um 50 x 2.1 mm
Retention time: 12.742 min
Base peak: 220.1122
Precursor m/z: 220.1121
Precursor type: [M+H]+
Precursor intensity: 21759668
m/z	relative intensity	assigned
65.0383	7	C5H5+
92.0493	243	C6H6N+
93.0571	55	C6H7N+
104.0494	3	C7H6N+
115.054	93	C9H7+
117.0697	4	C9H9+
128.0618	111	C10H8+
142.065	108	C10H8N+
143.0726	999	C10H9N+
178.0777	5	C14H10+
179.0851	1	C14H11+
193.101	8	C15H13+
202.0774	10	C16H10+
203.0853	43	C16H11+
204.0804	11	C15H10N+
204.0934	5	C16H12+
205.0885	24	C15H11N+
218.0964	7	C16H12N+
219.1046	25	C16H13N+
220.1116	545	C16H14N+
