Mass spectrum: Terbinafine; LC-ESI-ITFT; MS2; CE: 60%; R=15000; [M+H]+
Name: Terbinafine
Name: (E)-N,6,6-trimethyl-N-(naphthalen-1-ylmethyl)hept-2-en-4-yn-1-amine
Formula: C21H25N
Exact mass: 291.1986998
SMILES: CN(C\C=C\C#CC(C)(C)C)CC1=CC=CC2=CC=CC=C12
InChI: InChI=1S/C21H25N/c1-21(2,3)15-8-5-9-16-22(4)17-19-13-10-12-18-11-6-7-14-20(18)19/h5-7,9-14H,16-17H2,1-4H3/b9-5+
Instrument: LTQ Orbitrap XL Thermo Scientific
Instrument type: LC-ESI-ITFT
Ms type: MS2
Ion mode: POSITIVE
Ionization: ESI
Fragmentation mode: HCD
Collision energy: 60 % (nominal)
Resolution: 15000
Column name: Kinetex Evo C18 2.6 um 50 x 2.1 mm
Retention time: 9.665 min
Base peak: 292.2069
Precursor m/z: 292.206
Precursor type: [M+H]+
Precursor intensity: 41812240
m/z	relative intensity	assigned
57.0697	1	C4H9+
77.0385	14	C6H5+
79.0542	22	C6H7+
81.0698	1	C6H9+
91.0542	35	C7H7+
93.0699	91	C7H9+
103.0542	4	C8H7+
105.0698	28	C8H9+
106.0777	3	C8H10+
115.0543	2	C9H7+
119.0855	5	C9H11+
121.1011	1	C9H13+
141.0698	999	C11H9+
150.1276	1	C10H16N+
170.0964	6	C12H12N+
179.0849	1	C14H11+
205.1011	1	C16H13+
