Mass spectrum: Lincomycin; LC-ESI-ITFT; MS2; CE: 35; R=15000; [M-H]-
Name: Lincomycin
Name: (2S,4R)-N-[(1R,2R)-2-Hydroxy-1-[(2R,3R,4S,5R,6R)-3,4,5-trihydroxy-6-methylsulfanyloxan-2-yl]propyl]-1-methyl-4-propylpyrrolidine-2-carboxamide
Formula: C18H34N2O6S
Exact mass: 406.2138
SMILES: CCC[C@@H]1C[C@H](N(C)C1)C(=O)N[C@H]([C@@H](C)O)[C@H]1O[C@H](SC)[C@H](O)[C@@H](O)[C@H]1O
InChI: InChI=1S/C18H34N2O6S/c1-5-6-10-7-11(20(3)8-10)17(25)19-12(9(2)21)16-14(23)13(22)15(24)18(26-16)27-4/h9-16,18,21-24H,5-8H2,1-4H3,(H,19,25)/t9-,10-,11+,12-,13+,14-,15-,16-,18-/m1/s1
Instrument: LTQ Orbitrap XL Thermo Scientific
Instrument type: LC-ESI-ITFT
Ms type: MS2
Ion mode: NEGATIVE
Ionization: ESI
Fragmentation mode: CID
Collision energy: 35 (nominal)
Resolution: 15000
Column name: Kinetex Core-Shell C18 2.6 um, 3.0 x 100 mm, Phenomenex
Retention time: 13.675 min
Base peak: 178.9779
Precursor m/z: 405.2065
Precursor type: [M-H]-
m/z	relative intensity	assigned
127.059	236	C7H11S-
169.1347	337	C9H17N2O-
199.1273	644	C10H19N2S-
267.1712	999	C14H23N2O3-
277.155	346	C15H21N2O3-
325.1583	530	C16H25N2O3S-
344.9753	254	C18H3NO5S-
