Mass spectrum: Linuron; LC-ESI-ITFT; MS2; CE: 55; R=15000; [M+H]+
Name: Linuron
Name: 3-(3,4-Dichlorophenyl)-1-methoxy-1-methylurea
Formula: C9H10Cl2N2O2
Exact mass: 248.0119
SMILES: CON(C)C(=O)NC1=CC=C(Cl)C(Cl)=C1
InChI: InChI=1S/C9H10Cl2N2O2/c1-13(15-2)9(14)12-6-3-4-7(10)8(11)5-6/h3-5H,1-2H3,(H,12,14)
Instrument: LTQ Orbitrap XL Thermo Scientific
Instrument type: LC-ESI-ITFT
Ms type: MS2
Ion mode: POSITIVE
Ionization: ESI
Fragmentation mode: CID
Collision energy: 55 (nominal)
Resolution: 15000
Column name: Kinetex Core-Shell C18 2.6 um, 3.0 x 100 mm, Phenomenex
Retention time: 24.574 min
Base peak: 226.0894
Precursor m/z: 249.0192
Precursor type: [M+H]+
m/z	relative intensity	assigned
60.0441	15	C2H6NO+
159.9715	568	C6H4Cl2N+
160.9792	14	C6H5Cl2N+
182.024	999	C8H7ClN2O+
187.9665	120	C7H4Cl2NO+
216.9933	14	C8H7Cl2N2O+
218.0007	26	C8H8Cl2N2O+
