Mass spectrum: Dimethachlor; LC-ESI-ITFT; MS2; CE: 60%; R=15000; [M+H]+
Name: Dimethachlor
Name: 2-chloro-N-(2,6-dimethylphenyl)-N-(2-methoxyethyl)acetamide
Formula: C13H18ClNO2
Exact mass: 255.102606496
SMILES: COCCN(C(=O)CCl)C1=C(C)C=CC=C1C
InChI: InChI=1S/C13H18ClNO2/c1-10-5-4-6-11(2)13(10)15(7-8-17-3)12(16)9-14/h4-6H,7-9H2,1-3H3
Instrument: LTQ Orbitrap XL Thermo Scientific
Instrument type: LC-ESI-ITFT
Ms type: MS2
Ion mode: POSITIVE
Ionization: ESI
Fragmentation mode: HCD
Collision energy: 60 % (nominal)
Resolution: 15000
Column name: Kinetex Evo C18 2.6 um 50 x 2.1 mm
Retention time: 9.973 min
Base peak: 212.0843
Precursor m/z: 256.1099
Precursor type: [M+H]+
Precursor intensity: 1247221.12
m/z	relative intensity	assigned
59.0491	35	C3H7O+
76.979	33	C2H2ClO+
105.0701	47	C8H9+
131.0733	12	C9H9N+
132.0811	53	C9H10N+
134.0968	14	C9H12N+
144.0812	7	C10H10N+
146.0967	19	C10H12N+
147.1047	23	C10H13N+
148.1124	999	C10H14N+
174.0917	9	C11H12NO+
198.0687	10	C10H13ClNO+
224.0841	590	C12H15ClNO+
