Mass spectrum: 4`-Aminoacetanilide; LC-ESI-ITFT; MS2; CE: 80; R=15000; [M+H]+
Name: 4`-Aminoacetanilide
Name: N-(4-Aminophenyl)acetamide
Formula: C8H10N2O
Exact mass: 150.0793
SMILES: CC(=O)NC1=CC=C(N)C=C1
InChI: InChI=1S/C8H10N2O/c1-6(11)10-8-4-2-7(9)3-5-8/h2-5H,9H2,1H3,(H,10,11)
Instrument: LTQ Orbitrap XL Thermo Scientific
Instrument type: LC-ESI-ITFT
Ms type: MS2
Ion mode: POSITIVE
Ionization: ESI
Fragmentation mode: HCD
Collision energy: 80 (nominal)
Resolution: 15000
Column name: Kinetex Core-Shell C18 2.6 um, 3.0 x 100 mm, Phenomenex
Retention time: 2.292 min
Base peak: 171.186
Precursor m/z: 151.0866
Precursor type: [M+H]+
m/z	relative intensity	assigned
82.0655	18	C5H8N+
92.0498	476	C6H6N+
93.0577	43	C6H7N+
108.0686	92	C6H8N2+
109.0764	999	C6H9N2+
110.0604	31	C6H8NO+
133.0766	33	C8H9N2+
151.0873	54	C8H11N2O+
