Mass spectrum: Diethylstilbestrol; LC-ESI-ITFT; MS2; CE: 55; R=15000; [M+H]+
Name: Diethylstilbestrol
Name: 4-[(E)-4-(4-Hydroxyphenyl)hex-3-en-3-yl]phenol
Formula: C18H20O2
Exact mass: 268.1463
SMILES: CC\C(=C(\CC)C1=CC=C(O)C=C1)C1=CC=C(O)C=C1
InChI: InChI=1S/C18H20O2/c1-3-17(13-5-9-15(19)10-6-13)18(4-2)14-7-11-16(20)12-8-14/h5-12,19-20H,3-4H2,1-2H3/b18-17+
Instrument: LTQ Orbitrap XL Thermo Scientific
Instrument type: LC-ESI-ITFT
Ms type: MS2
Ion mode: POSITIVE
Ionization: ESI
Fragmentation mode: CID
Collision energy: 55 (nominal)
Resolution: 15000
Column name: Kinetex Core-Shell C18 2.6 um, 3.0 x 100 mm, Phenomenex
Retention time: 24.897 min
Base peak: 341.2103
Precursor m/z: 269.1536
Precursor type: [M+H]+
m/z	relative intensity	assigned
107.0489	261	C7H7O+
107.0855	33	C8H11+
121.0645	148	C8H9O+
133.0646	225	C9H9O+
135.0802	999	C9H11O+
137.0593	55	C8H9O2+
145.1012	24	C11H13+
147.1168	59	C11H15+
149.0596	36	C9H9O2+
159.1168	101	C12H15+
161.0591	39	C10H9O2+
173.0595	564	C11H9O2+
173.0958	44	C12H13O+
175.0751	158	C11H11O2+
175.1115	103	C12H15O+
187.0749	44	C12H11O2+
195.0808	37	C14H11O+
195.117	30	C15H15+
199.0751	852	C13H11O2+
201.0906	30	C13H13O2+
209.0962	41	C15H13O+
211.1118	23	C15H15O+
213.0904	192	C14H13O2+
214.0986	24	C14H14O2+
222.1032	45	C16H14O+
223.111	122	C16H15O+
223.1478	47	C17H19+
227.1062	101	C15H15O2+
227.1438	29	C16H19O+
239.1059	43	C16H15O2+
241.1219	111	C16H17O2+
241.1584	106	C17H21O+
251.1426	750	C18H19O+
