Mass spectrum: Anastrozole; LC-ESI-ITFT; MS2; CE: 80%; R=15000; [M+H]+
Name: Anastrozole
Name: 2-[3-(2-cyanopropan-2-yl)-5-(1,2,4-triazol-1-ylmethyl)phenyl]-2-methylpropanenitrile
Formula: C17H19N5
Exact mass: 293.164045608
SMILES: CC(C)(C#N)C1=CC(=CC(CN2C=NC=N2)=C1)C(C)(C)C#N
InChI: InChI=1S/C17H19N5/c1-16(2,9-18)14-5-13(8-22-12-20-11-21-22)6-15(7-14)17(3,4)10-19/h5-7,11-12H,8H2,1-4H3
Instrument: LTQ Orbitrap XL Thermo Scientific
Instrument type: LC-ESI-ITFT
Ms type: MS2
Ion mode: POSITIVE
Ionization: ESI
Fragmentation mode: HCD
Collision energy: 80 % (nominal)
Resolution: 15000
Column name: Kinetex Evo C18 2.6 um 50 x 2.1 mm
Retention time: 9.081 min
Base peak: 294.1724
Precursor m/z: 294.1713
Precursor type: [M+H]+
Precursor intensity: 37115860
m/z	relative intensity	assigned
57.0697	2	C4H9+
68.0494	6	C4H6N+
91.0543	24	C7H7+
103.0545	7	C8H7+
105.0696	2	C8H9+
115.0543	54	C9H7+
116.0494	2	C8H6N+
116.0622	13	C9H8+
117.0574	5	C8H7N+
117.0699	9	C9H9+
118.0655	2	C8H8N+
128.0621	9	C10H8+
129.07	100	C10H9+
130.0651	13	C9H8N+
130.0778	203	C10H10+
131.0856	75	C10H11+
140.0502	1	C10H6N+
141.0574	2	C10H7N+
141.07	18	C11H9+
142.0653	315	C10H8N+
143.073	20	C10H9N+
143.0856	31	C11H11+
144.0811	4	C10H10N+
144.0934	3	C11H12+
145.1012	2	C11H13+
153.0574	1	C11H7N+
154.0653	10	C11H8N+
155.0609	2	C10H7N2+
155.0732	18	C11H9N+
155.0853	3	C12H11+
156.0809	52	C11H10N+
156.0936	20	C12H12+
157.0887	182	C11H11N+
158.0965	30	C11H12N+
158.1089	2	C12H14+
165.0703	3	C13H9+
167.073	4	C12H9N+
168.0809	114	C12H10N+
169.0764	7	C11H9N2+
169.0887	5	C12H11N+
170.0966	40	C12H12N+
171.1047	2	C12H13N+
171.1169	26	C13H15+
182.084	3	C12H10N2+
182.0967	22	C13H12N+
183.1045	63	C13H13N+
184.1126	3	C13H14N+
195.0919	198	C13H11N2+
198.1279	74	C14H16N+
209.1076	200	C14H13N2+
210.1154	597	C14H14N2+
225.1388	999	C15H17N2+
