Mass spectrum: Terbinafine; LC-ESI-ITFT; MS2; CE: 40%; R=15000; [M+H]+
Name: Terbinafine
Name: (E)-N,6,6-trimethyl-N-(naphthalen-1-ylmethyl)hept-2-en-4-yn-1-amine
Formula: C21H25N
Exact mass: 291.1986998
SMILES: CN(C\C=C\C#CC(C)(C)C)CC1=CC=CC2=CC=CC=C12
InChI: InChI=1S/C21H25N/c1-21(2,3)15-8-5-9-16-22(4)17-19-13-10-12-18-11-6-7-14-20(18)19/h5-7,9-14H,16-17H2,1-4H3/b9-5+
Instrument: LTQ Orbitrap XL Thermo Scientific
Instrument type: LC-ESI-ITFT
Ms type: MS2
Ion mode: POSITIVE
Ionization: ESI
Fragmentation mode: HCD
Collision energy: 40 % (nominal)
Resolution: 15000
Column name: Kinetex Evo C18 2.6 um 50 x 2.1 mm
Retention time: 9.665 min
Base peak: 292.2069
Precursor m/z: 292.206
Precursor type: [M+H]+
Precursor intensity: 41812240
m/z	relative intensity	assigned
57.0696	1	C4H9+
77.0385	1	C6H5+
79.0542	12	C6H7+
91.0542	9	C7H7+
93.0699	131	C7H9+
105.0699	26	C8H9+
106.0777	1	C8H10+
119.0855	3	C9H11+
121.1011	16	C9H13+
141.0699	999	C11H9+
150.1277	8	C10H16N+
170.0965	14	C12H12N+
179.0854	2	C14H11+
205.1011	7	C16H13+
207.1173	1	C16H15+
261.1637	3	C20H21+
292.2058	5	C21H26N+
