Mass spectrum: 4,4`-Thiodianiline; LC-ESI-ITFT; MS2; CE: 35; R=15000; [M+H]+
Name: 4,4`-Thiodianiline
Name: 4-(4-Aminophenyl)sulfanylaniline
Formula: C12H12N2S
Exact mass: 216.0721
SMILES: NC1=CC=C(SC2=CC=C(N)C=C2)C=C1
InChI: InChI=1S/C12H12N2S/c13-9-1-5-11(6-2-9)15-12-7-3-10(14)4-8-12/h1-8H,13-14H2
Instrument: LTQ Orbitrap XL Thermo Scientific
Instrument type: LC-ESI-ITFT
Ms type: MS2
Ion mode: POSITIVE
Ionization: ESI
Fragmentation mode: CID
Collision energy: 35 (nominal)
Resolution: 15000
Column name: Kinetex Core-Shell C18 2.6 um, 3.0 x 100 mm, Phenomenex
Retention time: 16.228 min
Base peak: 217.0801
Precursor m/z: 217.0794
Precursor type: [M+H]+
m/z	relative intensity	assigned
80.0497	3	C5H6N+
93.0574	1	C6H7N+
124.022	669	C6H6NS+
167.0736	2	C12H9N+
184.1004	12	C12H12N2+
200.0537	151	C12H10NS+
217.0802	999	C12H13N2S+
