Mass spectrum: Celestolide; LC-ESI-ITFT; MS2; CE: 70%; R=15000; [M+H]+
Name: Celestolide
Name: 1-(6-tert-butyl-1,1-dimethyl-2,3-dihydroinden-4-yl)ethanone
Formula: C17H24O
Exact mass: 244.182715388
SMILES: CC(=O)C1=C2CCC(C)(C)C2=CC(=C1)C(C)(C)C
InChI: InChI=1S/C17H24O/c1-11(18)14-9-12(16(2,3)4)10-15-13(14)7-8-17(15,5)6/h9-10H,7-8H2,1-6H3
Instrument: LTQ Orbitrap XL Thermo Scientific
Instrument type: LC-ESI-ITFT
Ms type: MS2
Ion mode: POSITIVE
Ionization: ESI
Fragmentation mode: HCD
Collision energy: 70 % (nominal)
Resolution: 15000
Column name: Kinetex Evo C18 2.6 um 50 x 2.1 mm
Retention time: 13.829 min
Base peak: 245.1905
Precursor m/z: 245.19
Precursor type: [M+H]+
Precursor intensity: 11922911
m/z	relative intensity	assigned
93.0698	3	C7H9+
105.0696	48	C8H9+
107.0856	5	C8H11+
119.0852	138	C9H11+
129.0693	5	C10H9+
131.0852	6	C10H11+
132.093	6	C10H12+
133.1009	155	C10H13+
142.0774	3	C11H10+
145.1009	3	C11H13+
147.0801	245	C10H11O+
147.1164	59	C11H15+
157.1005	7	C12H13+
159.0804	5	C11H11O+
160.088	15	C11H12O+
161.096	8	C11H13O+
175.1113	999	C12H15O+
189.1266	6	C13H17O+
