Mass spectrum: 2-Morpholinothiobenzothiazole; LC-ESI-ITFT; MS2; CE: 30%; R=15000; [M+H]+
Name: 2-Morpholinothiobenzothiazole
Name: 2-(Morpholinothio)benzothiazole
Name: 4-(1,3-benzothiazol-2-ylsulfanyl)morpholine
Formula: C11H12N2OS2
Exact mass: 252.039105004
SMILES: C1CN(CCO1)SC1=NC2=CC=CC=C2S1
InChI: InChI=1S/C11H12N2OS2/c1-2-4-10-9(3-1)12-11(15-10)16-13-5-7-14-8-6-13/h1-4H,5-8H2
Instrument: LTQ Orbitrap XL Thermo Scientific
Instrument type: LC-ESI-ITFT
Ms type: MS2
Ion mode: POSITIVE
Ionization: ESI
Fragmentation mode: HCD
Collision energy: 30 % (nominal)
Resolution: 15000
Column name: Kinetex Evo C18 2.6 um 50 x 2.1 mm
Retention time: 11.201 min
Base peak: 309.113
Precursor m/z: 253.0464
Precursor type: [M+H]+
Precursor intensity: 16895788
m/z	relative intensity	assigned
56.0493	27	C3H6N+
86.0601	541	C4H8NO+
87.0679	122	C4H9NO+
118.0322	8	C4H8NOS+
136.0217	24	C7H6NS+
148.0215	1	C8H6NS+
165.9782	14	C7H4NS2+
166.9859	4	C7H5NS2+
167.9939	43	C7H6NS2+
182.0086	2	C8H8NS2+
220.0668	69	C11H12N2OS+
253.0468	999	C11H13N2OS2+
