Mass spectrum: Metamitron; LC-ESI-ITFT; MS2; CE: 35; R=15000; [M+H]+
Name: Metamitron
Name: 4-Amino-3-methyl-6-phenyl-1,2,4-triazin-5-one
Formula: C10H10N4O
Exact mass: 202.0855
SMILES: CC1=NN=C(C(=O)N1N)C1=CC=CC=C1
InChI: InChI=1S/C10H10N4O/c1-7-12-13-9(10(15)14(7)11)8-5-3-2-4-6-8/h2-6H,11H2,1H3
Instrument: LTQ Orbitrap XL Thermo Scientific
Instrument type: LC-ESI-ITFT
Ms type: MS2
Ion mode: POSITIVE
Ionization: ESI
Fragmentation mode: CID
Collision energy: 35 (nominal)
Resolution: 15000
Column name: Kinetex Core-Shell C18 2.6 um, 3.0 x 100 mm, Phenomenex
Retention time: 17.809 min
Base peak: 163.1326
Precursor m/z: 203.0927
Precursor type: [M+H]+
m/z	relative intensity	assigned
72.0443	12	C3H6NO+
77.0385	14	C6H5+
79.0541	42	C6H7+
83.024	3	C3H3N2O+
89.0385	11	C7H5+
91.0539	2	C7H7+
93.0572	1	C6H7N+
94.0649	1	C6H8N+
100.0505	6	C3H6N3O+
103.0541	6	C8H7+
104.0493	97	C7H6N+
105.0449	1	C6H5N2+
105.0573	1	C7H7N+
106.065	147	C7H8N+
115.0541	1	C9H7+
116.0495	9	C8H6N+
117.0336	4	C8H5O+
117.0447	3	C7H5N2+
117.0572	8	C8H7N+
118.0649	5	C8H8N+
119.0603	15	C7H7N2+
120.0807	13	C8H10N+
130.065	81	C9H8N+
131.0492	2	C9H7O+
132.0682	8	C8H8N2+
132.0807	3	C9H10N+
134.0601	3	C8H8NO+
134.0713	7	C7H8N3+
143.0602	4	C9H7N2+
145.0395	112	C8H5N2O+
147.0915	3	C9H11N2+
148.0763	1	C9H10NO+
158.0601	19	C10H8NO+
158.0712	10	C9H8N3+
160.0629	1	C9H8N2O+
168.0557	2	C10H6N3+
174.0787	302	C10H10N2O+
175.0865	42	C10H11N2O+
175.0977	374	C9H11N4+
186.0661	19	C10H8N3O+
187.0742	3	C10H9N3O+
203.0925	999	C10H11N4O+
