Mass spectrum: Methotrexate; LC-ESI-ITFT; MS2; CE: 70%; R=15000; [M+H]+
Name: Methotrexate
Name: (2S)-2-[[4-[(2,4-diaminopteridin-6-yl)methyl-methylamino]benzoyl]amino]pentanedioic acid
Formula: C20H22N8O5
Exact mass: 454.171315804
SMILES: CN(CC1=NC2=C(N=C1)N=C(N)N=C2N)C1=CC=C(C=C1)C(=O)N[C@@H](CCC(O)=O)C(O)=O
InChI: InChI=1S/C20H22N8O5/c1-28(9-11-8-23-17-15(24-11)16(21)26-20(22)27-17)12-4-2-10(3-5-12)18(31)25-13(19(32)33)6-7-14(29)30/h2-5,8,13H,6-7,9H2,1H3,(H,25,31)(H,29,30)(H,32,33)(H4,21,22,23,26,27)/t13-/m0/s1
Instrument: LTQ Orbitrap XL Thermo Scientific
Instrument type: LC-ESI-ITFT
Ms type: MS2
Ion mode: POSITIVE
Ionization: ESI
Fragmentation mode: HCD
Collision energy: 70 % (nominal)
Resolution: 15000
Column name: Kinetex Evo C18 2.6 um 50 x 2.1 mm
Retention time: 5.132 min
Base peak: 455.1799
Precursor m/z: 455.1786
Precursor type: [M+H]+
Precursor intensity: 4464565
m/z	relative intensity	assigned
79.0544	2	C6H7+
106.0403	8	C5H4N3+
106.0654	12	C7H8N+
108.0561	2	C5H6N3+
121.0513	11	C5H5N4+
133.0513	109	C6H5N4+
134.0604	502	C8H8NO+
135.0543	5	C5H5N5+
135.066	13	C6H7N4+
146.0463	2	C6H4N5+
148.0623	41	C6H6N5+
149.07	5	C6H7N5+
150.0778	4	C6H8N5+
158.0464	2	C7H4N5+
159.0547	7	C7H5N5+
160.0623	44	C7H6N5+
163.0731	9	C6H7N6+
175.0732	999	C7H7N6+
176.0809	253	C7H8N6+
177.0887	56	C7H9N6+
