Mass spectrum: Quinoxyfen; LC-ESI-ITFT; MS2; CE: 60%; R=15000; [M+H]+
Name: Quinoxyfen
Name: 5,7-dichloro-4-(4-fluorophenoxy)quinoline
Formula: C15H8Cl2FNO
Exact mass: 306.996697456
SMILES: FC1=CC=C(OC2=C3C(Cl)=CC(Cl)=CC3=NC=C2)C=C1
InChI: InChI=1S/C15H8Cl2FNO/c16-9-7-12(17)15-13(8-9)19-6-5-14(15)20-11-3-1-10(18)2-4-11/h1-8H
Instrument: LTQ Orbitrap XL Thermo Scientific
Instrument type: LC-ESI-ITFT
Ms type: MS2
Ion mode: POSITIVE
Ionization: ESI
Fragmentation mode: HCD
Collision energy: 60 % (nominal)
Resolution: 15000
Column name: Kinetex Evo C18 2.6 um 50 x 2.1 mm
Retention time: 13.461 min
Base peak: 308.0045
Precursor m/z: 308.004
Precursor type: [M+H]+
Precursor intensity: 12103291
m/z	relative intensity	assigned
111.0242	4	C6H4FO+
150.0105	83	C8H5ClN+
162.0105	23	C9H5ClN+
168.021	15	C8H7ClNO+
178.0055	14	C9H5ClNO+
183.9716	15	C8H4Cl2N+
195.9717	8	C9H4Cl2N+
196.9794	989	C9H5Cl2N+
209.0638	14	C14H8FN+
210.0713	9	C14H9FN+
212.9741	17	C9H5Cl2NO+
213.9821	382	C9H6Cl2NO+
217.0217	8	C13H7ClF+
219.0244	9	C12H7ClFN+
225.0338	12	C14H8ClN+
232.991	3	C13H7Cl2+
237.0584	31	C15H8FNO+
238.0669	8	C15H9FNO+
244.0322	86	C14H8ClFN+
245.0401	139	C14H9ClFN+
253.0293	12	C15H8ClNO+
254.0367	9	C15H9ClNO+
260.0017	6	C14H8Cl2N+
272.0272	386	C15H8ClFNO+
273.0356	13	C15H9ClFNO+
280.009	51	C14H9Cl2FN+
287.9971	24	C15H8Cl2NO+
308.0038	999	C15H9Cl2FNO+
