Mass spectrum: Isoxaben; LC-ESI-ITFT; MS2; CE: 70%; R=15000; [M+H]+
Name: Isoxaben
Name: 2,6-dimethoxy-N-[3-(3-methylpentan-3-yl)-1,2-oxazol-5-yl]benzamide
Formula: C18H24N2O4
Exact mass: 332.173607248
SMILES: CCC(C)(CC)C1=NOC(NC(=O)C2=C(OC)C=CC=C2OC)=C1
InChI: InChI=1S/C18H24N2O4/c1-6-18(3,7-2)14-11-15(24-20-14)19-17(21)16-12(22-4)9-8-10-13(16)23-5/h8-11H,6-7H2,1-5H3,(H,19,21)
Instrument: LTQ Orbitrap XL Thermo Scientific
Instrument type: LC-ESI-ITFT
Ms type: MS2
Ion mode: POSITIVE
Ionization: ESI
Fragmentation mode: HCD
Collision energy: 70 % (nominal)
Resolution: 15000
Column name: Kinetex Evo C18 2.6 um 50 x 2.1 mm
Retention time: 11.495 min
Base peak: 333.1818
Precursor m/z: 333.1809
Precursor type: [M+H]+
Precursor intensity: 24204142
m/z	relative intensity	assigned
77.0385	12	C6H5+
79.0542	12	C6H7+
81.0697	1	C6H9+
92.026	1	C6H4O+
94.0414	1	C6H6O+
95.0493	1	C6H7O+
105.0335	4	C7H5O+
105.0447	6	C6H5N2+
107.0128	9	C6H3O2+
107.0492	20	C7H7O+
109.0648	11	C7H9O+
122.0362	68	C7H6O2+
123.0398	1	C2H7N2O4+
125.0597	1	C7H9O2+
135.0441	17	C8H7O2+
135.0553	4	C7H7N2O+
137.0599	4	C8H9O2+
150.0312	282	C8H6O3+
165.0546	999	C9H9O3+
168.0415	20	C8H8O4+
182.0575	2	C9H10O4+
