Mass spectrum: 2-Aminobiphenyl; LC-ESI-ITFT; MS2; CE: 50%; R=15000; [M+H]+
Name: 2-Aminobiphenyl
Name: 2-phenylaniline
Formula: C12H11N
Exact mass: 169.089149352
SMILES: NC1=C(C=CC=C1)C1=CC=CC=C1
InChI: InChI=1S/C12H11N/c13-12-9-5-4-8-11(12)10-6-2-1-3-7-10/h1-9H,13H2
Instrument: LTQ Orbitrap XL Thermo Scientific
Instrument type: LC-ESI-ITFT
Ms type: MS2
Ion mode: POSITIVE
Ionization: ESI
Fragmentation mode: HCD
Collision energy: 50 % (nominal)
Resolution: 15000
Column name: Kinetex Evo C18 2.6 um 50 x 2.1 mm
Retention time: 8.137 min
Base peak: 170.0965
Precursor m/z: 170.0964
Precursor type: [M+H]+
Precursor intensity: 38207316
m/z	relative intensity	assigned
92.0493	6	C6H6N+
93.0572	3	C6H7N+
128.0618	3	C10H8+
129.0695	1	C10H9+
143.0852	18	C11H11+
152.0617	3	C12H8+
153.0695	66	C12H9+
154.077	1	C12H10+
155.0727	4	C11H9N+
168.0806	2	C12H10N+
169.0883	10	C12H11N+
170.096	999	C12H12N+
