Mass spectrum: Dimethylaminophenazone; LC-ESI-ITFT; MS2; CE: 55; R=15000; [M+H]+
Name: Dimethylaminophenazone
Name: Aminopyrin
Name: 4-(Dimethylamino)-1,5-dimethyl-2-phenylpyrazol-3-one
Formula: C13H17N3O
Exact mass: 231.1372
SMILES: CN(C)C1=C(C)N(C)N(C1=O)C1=CC=CC=C1
InChI: InChI=1S/C13H17N3O/c1-10-12(14(2)3)13(17)16(15(10)4)11-8-6-5-7-9-11/h5-9H,1-4H3
Instrument: LTQ Orbitrap XL Thermo Scientific
Instrument type: LC-ESI-ITFT
Ms type: MS2
Ion mode: POSITIVE
Ionization: ESI
Fragmentation mode: HCD
Collision energy: 55 (nominal)
Resolution: 15000
Column name: Kinetex Core-Shell C18 2.6 um, 3.0 x 100 mm, Phenomenex
Retention time: 7.760 min
Base peak: 163.1328
Precursor m/z: 232.1444
Precursor type: [M+H]+
m/z	relative intensity	assigned
70.0651	272	C4H8N+
72.0808	287	C4H10N+
82.0652	40	C5H8N+
84.0808	68	C5H10N+
87.0916	16	C4H11N2+
97.0761	999	C5H9N2+
98.0839	565	C5H10N2+
99.0917	79	C5H11N2+
106.0652	132	C7H8N+
111.0917	527	C6H11N2+
113.1074	600	C6H13N2+
118.0652	86	C8H8N+
132.0445	31	C8H6NO+
146.0596	22	C9H8NO+
149.1073	38	C9H13N2+
159.0918	92	C10H11N2+
177.1027	45	C10H13N2O+
