Mass spectrum: Mono-iso-butyl phthalate; LC-ESI-ITFT; MS2; CE: 35; R=15000; [M-H]-
Name: Mono-iso-butyl phthalate
Name: Monoisobutylphthalic Acid
Name: 3-(2-Methylpropyl)phthalic acid
Formula: C12H14O4
Exact mass: 222.0892
SMILES: CC(C)CC1=CC=CC(C(O)=O)=C1C(O)=O
InChI: InChI=1S/C12H14O4/c1-7(2)6-8-4-3-5-9(11(13)14)10(8)12(15)16/h3-5,7H,6H2,1-2H3,(H,13,14)(H,15,16)
Instrument: LTQ Orbitrap XL Thermo Scientific
Instrument type: LC-ESI-ITFT
Ms type: MS2
Ion mode: NEGATIVE
Ionization: ESI
Fragmentation mode: CID
Collision energy: 35 (nominal)
Resolution: 15000
Column name: Kinetex Core-Shell C18 2.6 um, 3.0 x 100 mm, Phenomenex
Retention time: 23.249 min
Base peak: 212.9994
Precursor m/z: 221.0819
Precursor type: [M-H]-
m/z	relative intensity	assigned
71.0504	130	C4H7O-
77.0397	115	C6H5-
121.0295	129	C7H5O2-
134.0373	575	C8H6O2-
135.0452	168	C8H7O2-
147.0087	144	C8H3O3-
149.0972	388	C10H13O-
177.092	999	C11H13O2-
