Mass spectrum: Butylparaben; LC-ESI-ITFT; MS2; CE: 35; R=15000; [M-H]-
Name: Butylparaben
Name: 4-Hydroxybenzoate-buthyl
Formula: C11H14O3
Exact mass: 194.0943
SMILES: CCCCOC(=O)C1=CC=C(O)C=C1
InChI: InChI=1S/C11H14O3/c1-2-3-8-14-11(13)9-4-6-10(12)7-5-9/h4-7,12H,2-3,8H2,1H3
Instrument: LTQ Orbitrap XL Thermo Scientific
Instrument type: LC-ESI-ITFT
Ms type: MS2
Ion mode: NEGATIVE
Ionization: ESI
Fragmentation mode: CID
Collision energy: 35 (nominal)
Resolution: 15000
Column name: Kinetex Core-Shell C18 2.6 um, 3.0 x 100 mm, Phenomenex
Retention time: 24.575 min
Base peak: 178.9779
Precursor m/z: 193.087
Precursor type: [M-H]-
m/z	relative intensity	assigned
92.0268	132	C6H4O-
93.0346	201	C6H5O-
136.0166	389	C7H4O3-
137.0244	999	C7H5O3-
149.0036	81	C11HO-
149.0971	6	C10H13O-
193.0869	35	C11H13O3-
