Mass spectrum: Mebendazole; LC-ESI-ITFT; MS2; CE: 80%; R=15000; [M+H]+
Name: Mebendazole
Name: methyl N-(6-benzoyl-1H-benzimidazol-2-yl)carbamate
Formula: C16H13N3O3
Exact mass: 295.095691276
SMILES: COC(=O)NC1=NC2=C(N1)C=C(C=C2)C(=O)C1=CC=CC=C1
InChI: InChI=1S/C16H13N3O3/c1-22-16(21)19-15-17-12-8-7-11(9-13(12)18-15)14(20)10-5-3-2-4-6-10/h2-9H,1H3,(H2,17,18,19,21)
Instrument: LTQ Orbitrap XL Thermo Scientific
Instrument type: LC-ESI-ITFT
Ms type: MS2
Ion mode: POSITIVE
Ionization: ESI
Fragmentation mode: HCD
Collision energy: 80 % (nominal)
Resolution: 15000
Column name: Kinetex Evo C18 2.6 um 50 x 2.1 mm
Retention time: 9.741 min
Base peak: 296.1037
Precursor m/z: 296.103
Precursor type: [M+H]+
Precursor intensity: 53404820
m/z	relative intensity	assigned
53.0383	1	C4H5+
77.0385	261	C6H5+
94.0415	2	C6H6O+
95.0492	58	C6H7O+
105.0336	999	C7H5O+
105.0446	181	C6H5N2+
130.0401	9	C7H4N3+
131.0235	1	C7H3N2O+
131.0478	3	C7H5N3+
132.0559	4	C7H6N3+
147.0791	1	C8H9N3+
156.0809	1	C11H10N+
158.0353	2	C8H4N3O+
159.0428	49	C8H5N3O+
160.0506	25	C8H6N3O+
166.0652	16	C12H8N+
167.0728	3	C12H9N+
181.076	5	C12H9N2+
186.03	60	C9H4N3O2+
191.0609	3	C13H7N2+
208.0871	21	C13H10N3+
219.0781	1	C14H9N3+
236.0822	11	C14H10N3O+
246.0661	3	C15H8N3O+
264.0768	427	C15H10N3O2+
