Mass spectrum: Cholic acid; LC-ESI-ITFT; MS2; CE: 55; R=15000; [M-H]-
Name: Cholic acid
Name: (4R)-4-[(3R,5S,7R,8R,9S,10S,12S,13R,14S,17R)-3,7,12-Trihydroxy-10,13-dimethyl-2,3,4,5,6,7,8,9,11,12,14,15,16,17-tetradecahydro-1H-cyclopenta[a]phenanthren-17-yl]pentanoic acid
Formula: C24H40O5
Exact mass: 408.2876
SMILES: C[C@H](CCC(O)=O)[C@H]1CC[C@H]2[C@@H]3[C@H](O)C[C@@H]4C[C@H](O)CC[C@]4(C)[C@H]3C[C@H](O)[C@]12C
InChI: InChI=1S/C24H40O5/c1-13(4-7-21(28)29)16-5-6-17-22-18(12-20(27)24(16,17)3)23(2)9-8-15(25)10-14(23)11-19(22)26/h13-20,22,25-27H,4-12H2,1-3H3,(H,28,29)/t13-,14+,15-,16-,17+,18+,19-,20+,22+,23+,24-/m1/s1
Instrument: LTQ Orbitrap XL Thermo Scientific
Instrument type: LC-ESI-ITFT
Ms type: MS2
Ion mode: NEGATIVE
Ionization: ESI
Fragmentation mode: CID
Collision energy: 55 (nominal)
Resolution: 15000
Column name: Kinetex Core-Shell C18 2.6 um, 3.0 x 100 mm, Phenomenex
Retention time: 26.581 min
Base peak: 453.2859
Precursor m/z: 407.2803
Precursor type: [M-H]-
m/z	relative intensity	assigned
193.1601	15	C13H21O-
205.1602	8	C14H21O-
233.1911	24	C16H25O-
249.1861	15	C16H25O2-
251.2015	102	C16H27O2-
289.2173	280	C19H29O2-
315.268	8	C22H35O-
323.2379	36	C23H31O-
325.2536	164	C23H33O-
327.2692	185	C23H35O-
333.2803	7	C22H37O2-
335.2384	13	C24H31O-
341.2486	66	C23H33O2-
343.2641	999	C23H35O2-
345.2796	647	C23H37O2-
351.2317	20	C24H31O2-
353.2484	226	C24H33O2-
361.2753	16	C23H37O3-
363.2902	50	C23H39O3-
369.2438	5	C24H33O3-
371.2589	102	C24H35O3-
387.2543	19	C24H35O4-
389.2697	51	C24H37O4-
