Mass spectrum: Medroxyprogesterone; LC-ESI-ITFT; MS2; CE: 90%; R=15000; [M+H]+
Name: Medroxyprogesterone
Name: (6S,8R,9S,10R,13S,14S,17R)-17-acetyl-17-hydroxy-6,10,13-trimethyl-2,6,7,8,9,11,12,14,15,16-decahydro-1H-cyclopenta[a]phenanthren-3-one
Formula: C22H32O3
Exact mass: 344.235144884
SMILES: [H][C@@]12CC[C@](O)(C(C)=O)[C@@]1(C)CC[C@@]1([H])[C@@]2([H])C[C@H](C)C2=CC(=O)CC[C@]12C
InChI: InChI=1S/C22H32O3/c1-13-11-16-17(20(3)8-5-15(24)12-19(13)20)6-9-21(4)18(16)7-10-22(21,25)14(2)23/h12-13,16-18,25H,5-11H2,1-4H3/t13-,16+,17-,18-,20+,21-,22-/m0/s1
Instrument: LTQ Orbitrap XL Thermo Scientific
Instrument type: LC-ESI-ITFT
Ms type: MS2
Ion mode: POSITIVE
Ionization: ESI
Fragmentation mode: HCD
Collision energy: 90 % (nominal)
Resolution: 15000
Column name: Kinetex Evo C18 2.6 um 50 x 2.1 mm
Retention time: 12.134 min
Base peak: 345.2422
Precursor m/z: 345.2424
Precursor type: [M+H]+
Precursor intensity: 16404513
m/z	relative intensity	assigned
67.0541	147	C5H7+
69.0334	9	C4H5O+
69.0698	39	C5H9+
77.0385	19	C6H5+
79.0542	90	C6H7+
81.0699	64	C6H9+
83.0491	79	C5H7O+
87.0442	4	C4H7O2+
91.0542	79	C7H7+
93.0699	139	C7H9+
95.0492	42	C6H7O+
95.0856	203	C7H11+
97.0648	727	C6H9O+
105.0699	163	C8H9+
107.0493	10	C7H7O+
107.0856	48	C8H11+
108.0571	32	C7H8O+
109.0648	48	C7H9O+
109.1011	17	C8H13+
111.0804	7	C7H11O+
117.07	20	C9H9+
119.0856	84	C9H11+
121.065	14	C8H9O+
121.1012	16	C9H13+
123.0805	999	C8H11O+
128.062	9	C10H8+
129.0698	19	C10H9+
130.0777	7	C10H10+
131.0855	51	C10H11+
133.1012	36	C10H13+
135.0807	9	C9H11O+
137.0961	75	C9H13O+
142.0775	20	C11H10+
143.0856	33	C11H11+
145.1013	42	C11H13+
147.0804	5	C10H11O+
147.1169	21	C11H15+
149.096	7	C10H13O+
155.0859	12	C12H11+
156.0933	10	C12H12+
157.1015	21	C12H13+
159.0806	5	C11H11O+
159.1167	16	C12H15+
161.0965	7	C11H13O+
161.1326	12	C12H17+
169.1015	13	C13H13+
171.1166	17	C13H15+
173.0955	7	C12H13O+
173.1325	9	C13H17+
181.1019	6	C14H13+
183.1165	7	C14H15+
185.1327	8	C14H17+
195.1161	9	C15H15+
197.1325	6	C15H17+
199.1117	5	C14H15O+
213.1269	6	C15H17O+
214.1352	13	C15H18O+
