Mass spectrum: ISO E Super; LC-ESI-ITFT; MS2; CE: 40%; R=15000; [M+H]+
Name: ISO E Super
Name: 1-(2,3,8,8-Tetramethyl-1,2,3,4,5,6,7,8-octahydronaphthalen-2-yl)ethanone
Name: 1-(2,3,8,8-tetramethyl-1,3,4,5,6,7-hexahydronaphthalen-2-yl)ethanone
Formula: C16H26O
Exact mass: 234.198365452
SMILES: CC1CC2=C(CC1(C)C(C)=O)C(C)(C)CCC2
InChI: InChI=1S/C16H26O/c1-11-9-13-7-6-8-15(3,4)14(13)10-16(11,5)12(2)17/h11H,6-10H2,1-5H3
Instrument: LTQ Orbitrap XL Thermo Scientific
Instrument type: LC-ESI-ITFT
Ms type: MS2
Ion mode: POSITIVE
Ionization: ESI
Fragmentation mode: HCD
Collision energy: 40 % (nominal)
Resolution: 15000
Column name: Kinetex Evo C18 2.6 um 50 x 2.1 mm
Retention time: 13.900 min
Base peak: 116.986
Precursor m/z: 235.2056
Precursor type: [M+H]+
Precursor intensity: 1069945.38
m/z	relative intensity	assigned
55.0541	14	C4H7+
59.049	76	C3H7O+
69.0698	25	C5H9+
81.07	51	C6H9+
83.0857	19	C6H11+
93.0696	9	C7H9+
95.0856	199	C7H11+
97.1014	28	C7H13+
105.0698	18	C8H9+
107.0856	56	C8H11+
109.1014	153	C8H13+
119.0857	71	C9H11+
121.1014	81	C9H13+
123.1169	58	C9H15+
133.1013	81	C10H13+
135.117	76	C10H15+
137.1326	16	C10H17+
139.1118	53	C9H15O+
147.1171	83	C11H15+
149.1329	21	C11H17+
153.1276	48	C10H17O+
161.1327	73	C12H17+
163.1477	30	C12H19+
165.1277	54	C11H17O+
175.1483	139	C13H19+
177.164	189	C13H21+
189.1636	20	C14H21+
191.1796	164	C14H23+
193.1952	30	C14H25+
217.1953	527	C16H25+
235.2058	999	C16H27O+
