Mass spectrum: 2-Hydroxycarbamazepine; LC-ESI-ITFT; MS2; CE: 20%; R=15000; [M+H]+
Name: 2-Hydroxycarbamazepine
Name: 3-hydroxybenzo[b][1]benzazepine-11-carboxamide
Formula: C15H12N2O2
Exact mass: 252.089877624
SMILES: NC(=O)N1C2=CC=CC=C2C=CC2=CC(O)=CC=C12
InChI: InChI=1S/C15H12N2O2/c16-15(19)17-13-4-2-1-3-10(13)5-6-11-9-12(18)7-8-14(11)17/h1-9,18H,(H2,16,19)
Instrument: LTQ Orbitrap XL Thermo Scientific
Instrument type: LC-ESI-ITFT
Ms type: MS2
Ion mode: POSITIVE
Ionization: ESI
Fragmentation mode: HCD
Collision energy: 20 % (nominal)
Resolution: 15000
Column name: Kinetex Evo C18 2.6 um 50 x 2.1 mm
Retention time: 8.432 min
Base peak: 253.098
Precursor m/z: 253.0972
Precursor type: [M+H]+
Precursor intensity: 12142875
m/z	relative intensity	assigned
208.0761	5	C14H10NO+
210.0915	40	C14H12NO+
236.0708	1	C15H10NO2+
253.0973	999	C15H13N2O2+
