Mass spectrum: Flusilazole; LC-ESI-ITFT; MS2; CE: 55; R=15000; [M+H]+
Name: Flusilazole
Name: Bis(4-fluorophenyl)-methyl-(1,2,4-triazol-1-ylmethyl)silane
Formula: C16H15F2N3Si
Exact mass: 315.1003
SMILES: C[Si](CN1C=NC=N1)(C1=CC=C(F)C=C1)C1=CC=C(F)C=C1
InChI: InChI=1S/C16H15F2N3Si/c1-22(12-21-11-19-10-20-21,15-6-2-13(17)3-7-15)16-8-4-14(18)5-9-16/h2-11H,12H2,1H3
Instrument: LTQ Orbitrap XL Thermo Scientific
Instrument type: LC-ESI-ITFT
Ms type: MS2
Ion mode: POSITIVE
Ionization: ESI
Fragmentation mode: CID
Collision energy: 55 (nominal)
Resolution: 15000
Column name: Kinetex Core-Shell C18 2.6 um, 3.0 x 100 mm, Phenomenex
Retention time: 25.585 min
Base peak: 316.107
Precursor m/z: 316.1076
Precursor type: [M+H]+
m/z	relative intensity	assigned
105.0699	1	C8H9+
127.0121	2	C4H4FN2Si+
141.07	1	C11H9+
151.0374	10	C8H8FSi+
152.0622	3	C12H8+
153.0698	1	C12H9+
165.0699	115	C13H9+
166.0487	1	C8H9FNSi+
166.0778	25	C13H10+
169.0479	282	C8H10FOSi+
171.0437	5	C8H9F2Si+
179.0853	2	C9H10FN3+
183.0639	15	C9H12FOSi+
185.0762	5	C13H10F+
191.0436	1	C9H8FN2Si+
193.0596	1	C9H10FN2Si+
193.0762	1	C13H9N2+
199.0375	3	C12H8FSi+
219.0438	8	C12H9F2Si+
227.0691	6	C14H12FSi+
232.0518	1	C13H10F2Si+
245.0595	1	C14H11F2Si+
247.0748	999	C14H13F2Si+
265.0856	5	C14H15F2OSi+
