Mass spectrum: N,N-Dimethyltetradecylamine-N-oxide; LC-ESI-ITFT; MS2; CE: 40%; R=15000; [M+H]+
Name: N,N-Dimethyltetradecylamine-N-oxide
Name: 1-Tetradecanamine, N,N-dimethyl-, N-oxide
Name: N,N-dimethyltetradecan-1-amine oxide
Formula: C16H35NO
Exact mass: 257.27186474
SMILES: CCCCCCCCCCCCCC[N+](C)(C)[O-]
InChI: InChI=1S/C16H35NO/c1-4-5-6-7-8-9-10-11-12-13-14-15-16-17(2,3)18/h4-16H2,1-3H3
Instrument: LTQ Orbitrap XL Thermo Scientific
Instrument type: LC-ESI-ITFT
Ms type: MS2
Ion mode: POSITIVE
Ionization: ESI
Fragmentation mode: HCD
Collision energy: 40 % (nominal)
Resolution: 15000
Column name: Kinetex Evo C18 2.6 um 50 x 2.1 mm
Retention time: 11.745 min
Base peak: 258.2795
Precursor m/z: 258.2791
Precursor type: [M+H]+
Precursor intensity: 61812228
m/z	relative intensity	assigned
62.0597	60	C2H8NO+
69.0696	1	C5H9+
71.0853	9	C5H11+
83.0854	1	C6H11+
85.101	6	C6H13+
97.101	1	C7H13+
240.2682	79	C16H34N+
258.2787	999	C16H36NO+
