Mass spectrum: Methocarbamol; LC-ESI-ITFT; MS2; CE: 80%; R=15000; [M+H]+
Name: Methocarbamol
Name: [2-hydroxy-3-(2-methoxyphenoxy)propyl] carbamate
Formula: C11H15NO5
Exact mass: 241.0950
SMILES: COC1=C(OCC(O)COC(N)=O)C=CC=C1
InChI: InChI=1S/C11H15NO5/c1-15-9-4-2-3-5-10(9)16-6-8(13)7-17-11(12)14/h2-5,8,13H,6-7H2,1H3,(H2,12,14)
Instrument: LTQ Orbitrap XL Thermo Scientific
Instrument type: LC-ESI-ITFT
Ms type: MS2
Ion mode: POSITIVE
Ionization: ESI
Fragmentation mode: HCD
Collision energy: 80 % (nominal)
Resolution: 15000
Column name: Kinetex Evo C18 2.6 um 50 x 2.1 mm
Retention time: 7.070 min
Base peak: 264.0841
Precursor m/z: 242.1023
Precursor type: [M+H]+
m/z	relative intensity	assigned
57.0334	116	C3H5O+
62.0236	225	CH4NO2+
65.0385	322	C5H5+
75.044	69	C3H7O2+
77.0386	650	C6H5+
79.0543	341	C6H7+
91.0543	267	C7H7+
93.0336	225	C6H5O+
93.0697	86	C7H9+
95.0492	462	C6H7O+
103.0542	665	C8H7+
105.0699	647	C8H9+
107.0492	111	C7H7O+
109.0283	63	C6H5O2+
109.0648	78	C7H9O+
110.0363	369	C6H6O2+
111.0444	62	C6H7O2+
118.0498	309	C4H8NO3+
120.0569	161	C8H8O+
121.0284	223	C7H5O2+
121.0647	135	C8H9O+
122.0363	999	C7H6O2+
123.0445	38	C7H7O2+
125.0597	81	C7H9O2+
135.0805	171	C9H11O+
148.0521	63	C9H8O2+
