Mass spectrum: Chlorotoluron; LC-ESI-ITFT; MS2; CE: 50%; R=15000; [M+H]+
Name: Chlorotoluron
Name: 3-(3-chloro-4-methylphenyl)-1,1-dimethylurea
Formula: C10H13ClN2O
Exact mass: 212.071640716
SMILES: CN(C)C(=O)NC1=CC(Cl)=C(C)C=C1
InChI: InChI=1S/C10H13ClN2O/c1-7-4-5-8(6-9(7)11)12-10(14)13(2)3/h4-6H,1-3H3,(H,12,14)
Instrument: LTQ Orbitrap XL Thermo Scientific
Instrument type: LC-ESI-ITFT
Ms type: MS2
Ion mode: POSITIVE
Ionization: ESI
Fragmentation mode: HCD
Collision energy: 50 % (nominal)
Resolution: 15000
Column name: Kinetex Evo C18 2.6 um 50 x 2.1 mm
Retention time: 9.526 min
Base peak: 213.0792
Precursor m/z: 213.0789
Precursor type: [M+H]+
Precursor intensity: 31470052
m/z	relative intensity	assigned
72.0441	999	C3H6NO+
140.0258	48	C10H4O+
168.0207	44	C8H7ClNO+
213.0785	100	C10H14ClN2O+
