Mass spectrum: Bisoprolol; LC-ESI-ITFT; MS2; CE: 80%; R=15000; [M+H]+
Name: Bisoprolol
Name: 1-(propan-2-ylamino)-3-[4-(2-propan-2-yloxyethoxymethyl)phenoxy]propan-2-ol
Formula: C18H31NO4
Exact mass: 325.225308472
SMILES: CC(C)NCC(O)COC1=CC=C(COCCOC(C)C)C=C1
InChI: InChI=1S/C18H31NO4/c1-14(2)19-11-17(20)13-23-18-7-5-16(6-8-18)12-21-9-10-22-15(3)4/h5-8,14-15,17,19-20H,9-13H2,1-4H3
Instrument: LTQ Orbitrap XL Thermo Scientific
Instrument type: LC-ESI-ITFT
Ms type: MS2
Ion mode: POSITIVE
Ionization: ESI
Fragmentation mode: HCD
Collision energy: 80 % (nominal)
Resolution: 15000
Column name: Kinetex Evo C18 2.6 um 50 x 2.1 mm
Retention time: 7.161 min
Base peak: 326.2338
Precursor m/z: 326.2326
Precursor type: [M+H]+
Precursor intensity: 91633336
m/z	relative intensity	assigned
56.0493	665	C3H6N+
58.0649	59	C3H8N+
72.0807	363	C4H10N+
73.0282	17	C3H5O2+
74.06	999	C3H8NO+
75.0441	12	C3H7O2+
79.0542	69	C6H7+
84.0808	38	C5H10N+
89.0386	388	C7H5+
91.0543	241	C7H7+
98.0965	107	C6H12N+
100.1122	57	C6H14N+
105.0699	154	C8H9+
107.0492	576	C7H7O+
116.107	210	C6H14NO+
117.0701	29	C9H9+
119.0492	117	C8H7O+
119.0856	9	C9H11+
121.0649	87	C8H9O+
133.0649	208	C9H9O+
134.0599	10	C8H8NO+
137.06	29	C8H9O2+
145.0649	62	C10H9O+
147.0805	30	C10H11O+
