Mass spectrum: Pyrazophos; LC-ESI-ITFT; MS2; CE: 90%; R=15000; [M+H]+
Name: Pyrazophos
Name: ethyl 2-diethoxyphosphinothioyloxy-5-methylpyrazolo[1,5-a]pyrimidine-6-carboxylate
Formula: C14H20N3O5PS
Exact mass: 373.08612837
SMILES: CCOC(=O)C1=CN2N=C(OP(=S)(OCC)OCC)C=C2N=C1C
InChI: InChI=1S/C14H20N3O5PS/c1-5-19-14(18)11-9-17-12(15-10(11)4)8-13(16-17)22-23(24,20-6-2)21-7-3/h8-9H,5-7H2,1-4H3
Instrument: LTQ Orbitrap XL Thermo Scientific
Instrument type: LC-ESI-ITFT
Ms type: MS2
Ion mode: POSITIVE
Ionization: ESI
Fragmentation mode: HCD
Collision energy: 90 % (nominal)
Resolution: 15000
Column name: Kinetex Evo C18 2.6 um 50 x 2.1 mm
Retention time: 12.777 min
Base peak: 374.0945
Precursor m/z: 374.0934
Precursor type: [M+H]+
Precursor intensity: 10574441
m/z	relative intensity	assigned
64.9787	147	H2O2P+
66.0339	38	C4H4N+
68.0132	34	C3H2NO+
68.0495	10	C4H6N+
78.0339	34	C5H4N+
80.0132	25	C4H2NO+
80.9738	17	H2O3P+
82.0289	29	C4H4NO+
95.0607	40	CH10N3P+
96.951	504	H2O2PS+
98.9844	60	H4O4P+
105.0451	33	C2H8N3P+
106.0288	12	C6H4NO+
109.0399	25	CH8N3OP+
110.0352	15	C4H4N3O+
112.0394	14	C5H6NO2+
113.9538	176	H3O3PS+
114.9616	600	H4O3PS+
120.0559	268	C6H6N3+
122.0716	25	H14N2O3S+
124.0507	7	C5H6N3O+
131.0483	27	C7H5N3+
133.0399	21	C3H8N3OP+
133.064	20	C7H7N3+
137.0474	19	C3H10N2O2P+
160.0508	14	C8H6N3O+
165.0122	95	C3H8N3OPS+
175.0378	16	C8H5N3O2+
177.0537	405	C2H13N2O5S+
181.007	129	C3H8N3O2PS+
183.0227	216	C3H10N3O2PS+
192.023	6	C8H6N3OS+
194.0565	999	C8H8N3O3+
199.0165	11	C13HN3+
205.085	8	C4H17N2O5S+
240.0167	23	C8H7N3O4P+
256.0114	7	C12H4N2O5+
