Mass spectrum: Albendazole; LC-ESI-ITFT; MS2; CE: 90%; R=15000; [M+H]+
Name: Albendazole
Name: methyl N-(6-propylsulfanyl-1H-benzimidazol-2-yl)carbamate
Formula: C12H15N3O2S
Exact mass: 265.08849772
SMILES: CCCSC1=CC2=C(NC(NC(=O)OC)=N2)C=C1
InChI: InChI=1S/C12H15N3O2S/c1-3-6-18-8-4-5-9-10(7-8)14-11(13-9)15-12(16)17-2/h4-5,7H,3,6H2,1-2H3,(H2,13,14,15,16)
Instrument: LTQ Orbitrap XL Thermo Scientific
Instrument type: LC-ESI-ITFT
Ms type: MS2
Ion mode: POSITIVE
Ionization: ESI
Fragmentation mode: HCD
Collision energy: 90 % (nominal)
Resolution: 15000
Column name: Kinetex Evo C18 2.6 um 50 x 2.1 mm
Retention time: 9.215 min
Base peak: 266.0966
Precursor m/z: 266.0958
Precursor type: [M+H]+
Precursor intensity: 47753372
m/z	relative intensity	assigned
119.0479	15	C6H5N3+
122.0058	7	C6H4NS+
131.0479	17	C7H5N3+
133.0637	4	C7H7N3+
136.009	27	C6H4N2S+
146.0712	2	C8H8N3+
147.0428	16	C7H5N3O+
150.025	4	C7H6N2S+
158.0354	4	C8H4N3O+
159.0429	517	C8H5N3O+
160.0505	13	C8H6N3O+
163.02	119	C7H5N3S+
164.0278	48	C7H6N3S+
165.0355	7	C7H7N3S+
177.0361	1	C8H7N3S+
179.0516	6	C8H9N3S+
186.0665	1	C10H8N3O+
190.0072	7	C8H4N3OS+
191.015	999	C8H5N3OS+
192.0226	251	C8H6N3OS+
204.0228	8	C9H6N3OS+
205.0308	2	C9H7N3OS+
234.0696	60	C11H12N3OS+
