Mass spectrum: Sulfathiazole; LC-ESI-ITFT; MS2; CE: 50%; R=15000; [M+H]+
Name: Sulfathiazole
Name: 4-amino-N-(1,3-thiazol-2-yl)benzenesulfonamide
Formula: C9H9N3O2S2
Exact mass: 255.013618528
SMILES: NC1=CC=C(C=C1)S(=O)(=O)NC1=NC=CS1
InChI: InChI=1S/C9H9N3O2S2/c10-7-1-3-8(4-2-7)16(13,14)12-9-11-5-6-15-9/h1-6H,10H2,(H,11,12)
Instrument: LTQ Orbitrap XL Thermo Scientific
Instrument type: LC-ESI-ITFT
Ms type: MS2
Ion mode: POSITIVE
Ionization: ESI
Fragmentation mode: HCD
Collision energy: 50 % (nominal)
Resolution: 15000
Column name: Kinetex Evo C18 2.6 um 50 x 2.1 mm
Retention time: 1.721 min
Base peak: 157.0357
Precursor m/z: 256.0209
Precursor type: [M+H]+
Precursor intensity: 3837261.5
m/z	relative intensity	assigned
65.0387	55	C5H5+
80.0499	2	C5H6N+
92.0499	882	C6H6N+
100.0094	8	C3H4N2S+
101.0172	132	C3H5N2S+
108.0448	892	C6H6NO+
110.0605	26	C6H8NO+
120.0561	20	C6H6N3+
133.9599	9	C2H2N2OS2+
140.0168	6	C6H6NOS+
156.012	999	C6H6NO2S+
162.9633	6	C3H3N2O2S2+
256.0222	6	C9H10N3O2S2+
