Mass spectrum: Cetirizine; LC-ESI-ITFT; MS2; CE: 40%; R=15000; [M+H]+
Name: Cetirizine
Name: 2-[2-[4-[(4-chlorophenyl)-phenylmethyl]piperazin-1-yl]ethoxy]acetic acid
Formula: C21H25ClN2O3
Exact mass: 388.15537034
SMILES: OC(=O)COCCN1CCN(CC1)C(C1=CC=CC=C1)C1=CC=C(Cl)C=C1
InChI: InChI=1S/C21H25ClN2O3/c22-19-8-6-18(7-9-19)21(17-4-2-1-3-5-17)24-12-10-23(11-13-24)14-15-27-16-20(25)26/h1-9,21H,10-16H2,(H,25,26)
Instrument: LTQ Orbitrap XL Thermo Scientific
Instrument type: LC-ESI-ITFT
Ms type: MS2
Ion mode: POSITIVE
Ionization: ESI
Fragmentation mode: HCD
Collision energy: 40 % (nominal)
Resolution: 15000
Column name: Kinetex Evo C18 2.6 um 50 x 2.1 mm
Retention time: 9.951 min
Base peak: 389.1638
Precursor m/z: 389.1626
Precursor type: [M+H]+
Precursor intensity: 23764876
m/z	relative intensity	assigned
72.0807	19	C4H10N+
165.07	9	C13H9+
166.0778	29	C13H10+
167.081	1	C8H11N2O2+
187.1079	7	C8H15N2O3+
193.0761	3	C13H9N2+
201.0467	999	C13H10Cl+
202.0499	59	C11H8NO3+
