Mass spectrum: Isophorone; LC-ESI-ITFT; MS2; CE: 20%; R=15000; [M+H]+
Name: Isophorone
Name: 3,5,5-trimethylcyclohex-2-en-1-one
Formula: C9H14O
Exact mass: 138.104465068
SMILES: CC1=CC(=O)CC(C)(C)C1
InChI: InChI=1S/C9H14O/c1-7-4-8(10)6-9(2,3)5-7/h4H,5-6H2,1-3H3
Instrument: LTQ Orbitrap XL Thermo Scientific
Instrument type: LC-ESI-ITFT
Ms type: MS2
Ion mode: POSITIVE
Ionization: ESI
Fragmentation mode: HCD
Collision energy: 20 % (nominal)
Resolution: 15000
Column name: Kinetex Evo C18 2.6 um 50 x 2.1 mm
Retention time: 8.529 min
Base peak: 139.1118
Precursor m/z: 139.1117
Precursor type: [M+H]+
Precursor intensity: 17446912
m/z	relative intensity	assigned
83.0488	1	C5H7O+
121.101	1	C9H13+
139.1114	999	C9H15O+
