Mass spectrum: 7-Diethylamino-4-methylcoumarin; LC-ESI-ITFT; MS2; CE: 90%; R=15000; [M+H]+
Name: 7-Diethylamino-4-methylcoumarin
Name: 7-(diethylamino)-4-methylchromen-2-one
Formula: C14H17NO2
Exact mass: 231.125928784
SMILES: CCN(CC)C1=CC=C2C(C)=CC(=O)OC2=C1
InChI: InChI=1S/C14H17NO2/c1-4-15(5-2)11-6-7-12-10(3)8-14(16)17-13(12)9-11/h6-9H,4-5H2,1-3H3
Instrument: LTQ Orbitrap XL Thermo Scientific
Instrument type: LC-ESI-ITFT
Ms type: MS2
Ion mode: POSITIVE
Ionization: ESI
Fragmentation mode: HCD
Collision energy: 90 % (nominal)
Resolution: 15000
Column name: Kinetex Evo C18 2.6 um 50 x 2.1 mm
Retention time: 11.287 min
Base peak: 232.1341
Precursor m/z: 232.1332
Precursor type: [M+H]+
Precursor intensity: 52989100
m/z	relative intensity	assigned
67.0177	6	C4H3O+
68.0129	20	C3H2NO+
72.0806	2	C4H10N+
79.0543	5	C6H7+
91.0542	15	C7H7+
93.0699	9	C7H9+
96.0443	3	C5H6NO+
103.0543	16	C8H7+
105.0699	24	C8H9+
106.0652	6	C7H8N+
109.0647	1	C7H9O+
110.06	1	C6H8NO+
115.0543	14	C9H7+
116.0621	21	C9H8+
117.0574	8	C8H7N+
117.07	10	C9H9+
118.0652	9	C8H8N+
119.0729	8	C8H9N+
120.0807	11	C8H10N+
121.0648	12	C8H9O+
122.0599	3	C7H8NO+
130.0651	9	C9H8N+
131.0491	9	C9H7O+
131.073	5	C9H9N+
131.0858	1	C10H11+
132.057	29	C9H8O+
132.0808	45	C9H10N+
133.0649	5	C9H9O+
133.0885	5	C9H11N+
134.06	4	C8H8NO+
134.0965	5	C9H12N+
138.0914	2	C8H12NO+
143.0729	4	C10H9N+
144.0809	37	C10H10N+
145.0886	2	C10H11N+
146.0601	12	C9H8NO+
146.0965	14	C10H12N+
147.0679	26	C9H9NO+
147.1043	4	C10H13N+
148.0759	4	C9H10NO+
148.1122	26	C10H14N+
157.0887	1	C11H11N+
158.0966	8	C11H12N+
159.0438	2	C10H7O2+
159.1038	1	C11H13N+
160.0758	444	C10H10NO+
161.0596	3	C10H9O2+
161.12	8	C11H15N+
162.0915	2	C10H12NO+
172.1121	7	C12H14N+
174.0677	15	C11H10O2+
174.0914	51	C11H12NO+
175.0628	4	C10H9NO2+
175.0992	75	C11H13NO+
176.0707	3	C10H10NO2+
176.1071	7	C11H14NO+
176.1434	30	C12H18N+
186.1286	1	C13H16N+
188.0706	999	C11H10NO2+
189.115	2	C12H15NO+
192.1015	2	C11H14NO2+
202.0863	41	C12H12NO2+
203.0942	18	C12H13NO2+
204.1018	9	C12H14NO2+
204.1384	3	C13H18NO+
216.1017	8	C13H14NO2+
232.1332	15	C14H18NO2+
