Mass spectrum: Pirimicarb; LC-ESI-ITFT; MS2; CE: 50%; R=15000; [M+H]+
Name: Pirimicarb
Name: [2-(dimethylamino)-5,6-dimethylpyrimidin-4-yl] N,N-dimethylcarbamate
Formula: C11H18N4O2
Exact mass: 238.142975816
SMILES: CN(C)C(=O)OC1=C(C)C(C)=NC(=N1)N(C)C
InChI: InChI=1S/C11H18N4O2/c1-7-8(2)12-10(14(3)4)13-9(7)17-11(16)15(5)6/h1-6H3
Instrument: LTQ Orbitrap XL Thermo Scientific
Instrument type: LC-ESI-ITFT
Ms type: MS2
Ion mode: POSITIVE
Ionization: ESI
Fragmentation mode: HCD
Collision energy: 50 % (nominal)
Resolution: 15000
Column name: Kinetex Evo C18 2.6 um 50 x 2.1 mm
Retention time: 6.145 min
Base peak: 239.151
Precursor m/z: 239.1503
Precursor type: [M+H]+
Precursor intensity: 43036760
m/z	relative intensity	assigned
72.0442	999	C3H6NO+
83.0239	1	C3H3N2O+
85.076	38	C4H9N2+
109.076	7	C6H9N2+
137.0709	38	C7H9N2O+
138.0788	3	C7H10N2O+
150.1025	22	C8H12N3+
152.0816	1	C7H10N3O+
166.0982	2	C8H12N3O+
167.1052	11	C8H13N3O+
168.1137	1	C8H14N3O+
180.1133	1	C9H14N3O+
182.1288	601	C9H16N3O+
195.1603	21	C10H19N4+
239.1501	24	C11H19N4O2+
