Mass spectrum: Trimethoprim; LC-ESI-ITFT; MS2; CE: 55; R=15000; [M+H]+
Name: Trimethoprim
Name: 5-[(3,4,5-Trimethoxyphenyl)methyl]pyrimidine-2,4-diamine
Formula: C14H18N4O3
Exact mass: 290.1379
SMILES: COC1=CC(CC2=CN=C(N)N=C2N)=CC(OC)=C1OC
InChI: InChI=1S/C14H18N4O3/c1-19-10-5-8(6-11(20-2)12(10)21-3)4-9-7-17-14(16)18-13(9)15/h5-7H,4H2,1-3H3,(H4,15,16,17,18)
Instrument: LTQ Orbitrap XL Thermo Scientific
Instrument type: LC-ESI-ITFT
Ms type: MS2
Ion mode: POSITIVE
Ionization: ESI
Fragmentation mode: CID
Collision energy: 55 (nominal)
Resolution: 15000
Column name: Kinetex Core-Shell C18 2.6 um, 3.0 x 100 mm, Phenomenex
Retention time: 14.856 min
Base peak: 291.1452
Precursor m/z: 291.1452
Precursor type: [M+H]+
m/z	relative intensity	assigned
110.0586	1	C4H6N4+
123.0667	510	C5H7N4+
181.0862	89	C10H13O3+
201.0788	4	C12H11NO2+
201.1141	1	C11H13N4+
202.1215	3	C11H14N4+
229.1088	11	C12H13N4O+
230.1166	999	C12H14N4O+
232.0972	9	C13H14NO3+
244.0723	2	C12H10N3O3+
244.0963	5	C12H12N4O2+
245.104	12	C14H15NO3+
246.1117	11	C12H14N4O2+
247.1195	38	C12H15N4O2+
257.1038	3	C13H13N4O2+
258.1117	348	C13H14N4O2+
259.1196	11	C13H15N4O2+
260.1273	25	C13H16N4O2+
261.0987	401	C12H13N4O3+
275.1143	206	C13H15N4O3+
276.1221	178	C13H16N4O3+
