Mass spectrum: Bezafibrate; LC-ESI-ITFT; MS2; CE: 55; R=15000; [M-H]-
Name: Bezafibrate
Name: 2-[4-[2-[(4-Chlorobenzoyl)amino]ethyl]phenoxy]-2-methylpropanoic acid
Formula: C19H20ClNO4
Exact mass: 361.1081
SMILES: CC(C)(OC1=CC=C(CCNC(=O)C2=CC=C(Cl)C=C2)C=C1)C(O)=O
InChI: InChI=1S/C19H20ClNO4/c1-19(2,18(23)24)25-16-9-3-13(4-10-16)11-12-21-17(22)14-5-7-15(20)8-6-14/h3-10H,11-12H2,1-2H3,(H,21,22)(H,23,24)
Instrument: LTQ Orbitrap XL Thermo Scientific
Instrument type: LC-ESI-ITFT
Ms type: MS2
Ion mode: NEGATIVE
Ionization: ESI
Fragmentation mode: HCD
Collision energy: 55 (nominal)
Resolution: 15000
Column name: Kinetex Core-Shell C18 2.6 um, 3.0 x 100 mm, Phenomenex
Retention time: 24.526 min
Base peak: 360.101
Precursor m/z: 360.1008
Precursor type: [M-H]-
m/z	relative intensity	assigned
127.0594	46	CH9N3O4-
188.1089	119	C12H14NO-
197.9608	169	C7HClNO4-
274.0638	999	C15H13ClNO2-
