Mass spectrum: 1,2-Benzisothiazolinone; LC-ESI-ITFT; MS2; CE: 70%; R=15000; [M+H]+
Name: 1,2-Benzisothiazolinone
Name: 1,2-Benzisothiazol-3(2H)-one
Name: 1,2-benzothiazol-3-one
Formula: C7H5NOS
Exact mass: 151.00918478
SMILES: O=C1NSC2=CC=CC=C12
InChI: InChI=1S/C7H5NOS/c9-7-5-3-1-2-4-6(5)10-8-7/h1-4H,(H,8,9)
Instrument: LTQ Orbitrap XL Thermo Scientific
Instrument type: LC-ESI-ITFT
Ms type: MS2
Ion mode: POSITIVE
Ionization: ESI
Fragmentation mode: HCD
Collision energy: 70 % (nominal)
Resolution: 15000
Column name: Kinetex Evo C18 2.6 um 50 x 2.1 mm
Retention time: 4.975 min
Base peak: 152.0169
Precursor m/z: 152.0165
Precursor type: [M+H]+
Precursor intensity: 6690627.5
m/z	relative intensity	assigned
65.0385	1	C5H5+
77.0385	3	C6H5+
80.0494	23	C5H6N+
90.0338	3	C6H4N+
97.0107	2	C5H5S+
105.0335	118	C7H5O+
106.9951	1	C6H3S+
109.0107	212	C6H5S+
124.0216	9	C6H6NS+
134.006	168	C7H4NS+
135.998	2	C7H4OS+
152.0165	999	C7H6NOS+
