Mass spectrum: 2-(Methylthio)benzothiazole; LC-ESI-ITFT; MS2; CE: 35; R=15000; [M+H]+
Name: 2-(Methylthio)benzothiazole
Name: 2-Methylsulfanyl-1,3-benzothiazole
Formula: C8H7NS2
Exact mass: 181.0020
SMILES: CSC1=NC2=CC=CC=C2S1
InChI: InChI=1S/C8H7NS2/c1-10-8-9-6-4-2-3-5-7(6)11-8/h2-5H,1H3
Instrument: LTQ Orbitrap XL Thermo Scientific
Instrument type: LC-ESI-ITFT
Ms type: MS2
Ion mode: POSITIVE
Ionization: ESI
Fragmentation mode: CID
Collision energy: 35 (nominal)
Resolution: 15000
Column name: Kinetex Core-Shell C18 2.6 um, 3.0 x 100 mm, Phenomenex
Retention time: 24.845 min
Base peak: 163.1333
Precursor m/z: 182.0093
Precursor type: [M+H]+
m/z	relative intensity	assigned
135.0141	17	C7H5NS+
136.022	28	C7H6NS+
166.9863	999	C7H5NS2+
182.0099	264	C8H8NS2+
