Mass spectrum: Diazepam; LC-ESI-ITFT; MS2; CE: 80; R=15000; [M+H]+
Name: Diazepam
Name: 7-Chloro-1-methyl-5-phenyl-3H-1,4-benzodiazepin-2-one
Formula: C16H13ClN2O
Exact mass: 284.0716
SMILES: CN1C2=CC=C(Cl)C=C2C(=NCC1=O)C1=CC=CC=C1
InChI: InChI=1S/C16H13ClN2O/c1-19-14-8-7-12(17)9-13(14)16(18-10-15(19)20)11-5-3-2-4-6-11/h2-9H,10H2,1H3
Instrument: LTQ Orbitrap XL Thermo Scientific
Instrument type: LC-ESI-ITFT
Ms type: MS2
Ion mode: POSITIVE
Ionization: ESI
Fragmentation mode: HCD
Collision energy: 80 (nominal)
Resolution: 15000
Column name: Kinetex Core-Shell C18 2.6 um, 3.0 x 100 mm, Phenomenex
Retention time: 24.416 min
Base peak: 204.1381
Precursor m/z: 285.0789
Precursor type: [M+H]+
m/z	relative intensity	assigned
91.0543	246	C7H7+
104.0496	41	C7H6N+
105.0336	17	C7H5O+
106.0648	3	C7H8N+
116.0497	72	C8H6N+
117.0575	135	C8H7N+
118.0653	92	C8H8N+
119.0731	70	C8H9N+
125.0154	172	C7H6Cl+
138.9947	10	C7H4ClO+
140.0264	27	C7H7ClN+
141.0342	23	C7H8ClN+
143.0606	97	C9H7N2+
144.0684	51	C9H8N2+
146.0606	4	C6H11ClN2+
147.0682	33	C6H12ClN2+
150.0108	71	C8H5ClN+
152.0264	35	C8H7ClN+
154.042	650	C8H9ClN+
165.0217	16	C8H6ClN2+
165.0702	61	C13H9+
167.0136	46	C8H6ClNO+
172.0634	73	C10H8N2O+
179.0374	97	C9H8ClN2+
180.0214	41	C9H7ClNO+
181.0889	14	C13H11N+
182.0375	6	C9H9ClNO+
192.0812	68	C14H10N+
193.0889	999	C14H11N+
194.0968	56	C14H12N+
195.1048	6	C14H13N+
204.0811	83	C15H10N+
205.089	20	C15H11N+
206.0842	135	C14H10N2+
207.092	128	C14H11N2+
208.0997	10	C14H12N2+
216.0579	39	C13H11ClN+
220.1001	10	C15H12N2+
221.0839	26	C12H14ClN2+
221.1077	109	C15H13N2+
222.1154	302	C15H14N2+
223.0999	4	C15H13NO+
226.042	17	C14H9ClN+
227.05	110	C14H10ClN+
228.0578	117	C14H11ClN+
230.0734	12	C14H13ClN+
240.0583	15	C15H11ClN+
241.0531	369	C14H10ClN2+
242.0612	33	C14H11ClN2+
249.1017	4	C16H13N2O+
255.0688	78	C15H12ClN2+
257.0845	24	C15H14ClN2+
269.0477	18	C15H10ClN2O+
285.0798	13	C16H14ClN2O+
