Mass spectrum: 2-Hydroxycarbamazepine; LC-ESI-ITFT; MS2; CE: 70%; R=15000; [M+H]+
Name: 2-Hydroxycarbamazepine
Name: 3-hydroxybenzo[b][1]benzazepine-11-carboxamide
Formula: C15H12N2O2
Exact mass: 252.089877624
SMILES: NC(=O)N1C2=CC=CC=C2C=CC2=CC(O)=CC=C12
InChI: InChI=1S/C15H12N2O2/c16-15(19)17-13-4-2-1-3-10(13)5-6-11-9-12(18)7-8-14(11)17/h1-9,18H,(H2,16,19)
Instrument: LTQ Orbitrap XL Thermo Scientific
Instrument type: LC-ESI-ITFT
Ms type: MS2
Ion mode: POSITIVE
Ionization: ESI
Fragmentation mode: HCD
Collision energy: 70 % (nominal)
Resolution: 15000
Column name: Kinetex Evo C18 2.6 um 50 x 2.1 mm
Retention time: 8.436 min
Base peak: 253.0982
Precursor m/z: 253.0972
Precursor type: [M+H]+
Precursor intensity: 22015168
m/z	relative intensity	assigned
91.0546	1	C7H7+
104.0496	3	C7H6N+
107.0496	2	C7H7O+
116.0497	2	C8H6N+
117.0575	31	C8H7N+
132.0448	2	C8H6NO+
133.0523	1	C8H7NO+
141.0701	1	C11H9+
153.0701	7	C12H9+
155.0858	4	C12H11+
165.0702	58	C13H9+
167.0733	126	C12H9N+
168.0807	3	C12H10N+
180.0812	50	C13H10N+
181.0652	8	C13H9O+
181.0891	23	C13H11N+
182.0968	181	C13H12N+
183.0687	1	C12H9NO+
183.0808	13	C13H11O+
190.0654	8	C14H8N+
191.0734	8	C14H9N+
192.0812	34	C14H10N+
193.0762	1	C13H9N2+
193.0891	32	C14H11N+
194.0599	1	C13H8NO+
195.0683	107	C13H9NO+
206.0601	1	C14H8NO+
207.0684	4	C14H9NO+
208.0763	549	C14H10NO+
209.084	165	C14H11NO+
210.0916	999	C14H12NO+
236.0702	1	C15H10NO2+
