Mass spectrum: 2-(Methylthio)benzothiazole; LC-ESI-ITFT; MS2; CE: 60%; R=15000; [M+H]+
Name: 2-(Methylthio)benzothiazole
Name: 2-methylsulfanyl-1,3-benzothiazole
Formula: C8H7NS2
Exact mass: 181.001991224
SMILES: CSC1=NC2=CC=CC=C2S1
InChI: InChI=1S/C8H7NS2/c1-10-8-9-6-4-2-3-5-7(6)11-8/h2-5H,1H3
Instrument: LTQ Orbitrap XL Thermo Scientific
Instrument type: LC-ESI-ITFT
Ms type: MS2
Ion mode: POSITIVE
Ionization: ESI
Fragmentation mode: HCD
Collision energy: 60 % (nominal)
Resolution: 15000
Column name: Kinetex Evo C18 2.6 um 50 x 2.1 mm
Retention time: 10.745 min
Base peak: 182.0098
Precursor m/z: 182.0093
Precursor type: [M+H]+
Precursor intensity: 9709008
m/z	relative intensity	assigned
109.0107	9	C6H5S+
124.0341	2	C7H8S+
135.0138	34	C7H5NS+
136.0217	10	C7H6NS+
149.0296	2	C8H7NS+
150.0375	1	C8H8NS+
165.9785	2	C7H4NS2+
166.9859	717	C7H5NS2+
182.0093	999	C8H8NS2+
