Mass spectrum: Ethyl tosylamide; LC-ESI-ITFT; MS2; CE: 80; R=15000; [M+H]+
Name: Ethyl tosylamide
Name: N-Ethyl-4-methylbenzenesulfonamide
Formula: C9H13NO2S
Exact mass: 199.0667
SMILES: O=S(=O)(c1ccc(cc1)C)NCC
InChI: InChI=1S/C9H13NO2S/c1-3-10-13(11,12)9-6-4-8(2)5-7-9/h4-7,10H,3H2,1-2H3
Instrument: LTQ Orbitrap XL Thermo Scientific
Instrument type: LC-ESI-ITFT
Ms type: MS2
Ion mode: POSITIVE
Ionization: ESI
Fragmentation mode: HCD
Collision energy: 80 (nominal)
Resolution: 15000
Column name: Kinetex Core-Shell C18 2.6 um, 3.0 x 100 mm, Phenomenex
Retention time: 21.233 min
Base peak: 200.0744
Precursor m/z: 200.074
Precursor type: [M+H]+
m/z	relative intensity	assigned
91.0544	999	C7H7+
109.0651	24	C7H9O+
119.0607	306	C7H7N2+
