Mass spectrum: Diphenylphosphine oxide; LC-ESI-ITFT; MS2; CE: 70%; R=15000; [M+H]+
Name: Diphenylphosphine oxide
Name: Diphenylphosphinyl radical
Name: phenylphosphonoylbenzene
Formula: C12H11OP
Exact mass: 202.054751602
SMILES: O=P(C1=CC=CC=C1)C1=CC=CC=C1
InChI: InChI=1S/C12H11OP/c13-14(11-7-3-1-4-8-11)12-9-5-2-6-10-12/h1-10,14H
Instrument: LTQ Orbitrap XL Thermo Scientific
Instrument type: LC-ESI-ITFT
Ms type: MS2
Ion mode: POSITIVE
Ionization: ESI
Fragmentation mode: HCD
Collision energy: 70 % (nominal)
Resolution: 15000
Column name: Kinetex Evo C18 2.6 um 50 x 2.1 mm
Retention time: 8.786 min
Base peak: 203.0627
Precursor m/z: 203.062
Precursor type: [M+H]+
Precursor intensity: 23261340
m/z	relative intensity	assigned
77.0385	6	C6H5+
78.0461	3	C6H6+
79.0542	66	C6H7+
97.0203	12	C5H6P+
109.0201	10	C6H6P+
125.0151	999	C6H6OP+
183.0359	23	C12H8P+
185.0516	6	C12H10P+
203.0621	876	C12H12OP+
