Mass spectrum: Temazepam; LC-ESI-ITFT; MS2; CE: 60%; R=15000; [M+H]+
Name: Temazepam
Name: 7-chloro-3-hydroxy-1-methyl-5-phenyl-3H-1,4-benzodiazepin-2-one
Formula: C16H13ClN2O2
Exact mass: 300.066555336
SMILES: CN1C2=CC=C(Cl)C=C2C(=NC(O)C1=O)C1=CC=CC=C1
InChI: InChI=1S/C16H13ClN2O2/c1-19-13-8-7-11(17)9-12(13)14(18-15(20)16(19)21)10-5-3-2-4-6-10/h2-9,15,20H,1H3
Instrument: LTQ Orbitrap XL Thermo Scientific
Instrument type: LC-ESI-ITFT
Ms type: MS2
Ion mode: POSITIVE
Ionization: ESI
Fragmentation mode: HCD
Collision energy: 60 % (nominal)
Resolution: 15000
Column name: Kinetex Evo C18 2.6 um 50 x 2.1 mm
Retention time: 10.483 min
Base peak: 301.075
Precursor m/z: 301.0738
Precursor type: [M+H]+
Precursor intensity: 25893510
m/z	relative intensity	assigned
58.0286	1	C2H4NO+
104.0496	18	C7H6N+
117.0574	8	C8H7N+
125.0154	15	C7H6Cl+
138.0106	4	C7H5ClN+
142.0418	3	C7H9ClN+
150.0107	3	C8H5ClN+
152.0264	7	C8H7ClN+
166.0056	2	C8H5ClNO+
177.0216	27	C9H6ClN2+
180.0212	36	C9H7ClNO+
193.0888	121	C14H11N+
216.0578	18	C13H11ClN+
228.0577	92	C14H11ClN+
230.0733	1	C14H13ClN+
239.0377	5	C14H8ClN2+
242.0359	1	C14H9ClNO+
243.0687	3	C14H12ClN2+
245.0844	3	C14H14ClN2+
255.0687	999	C15H12ClN2+
256.0528	1	C15H11ClNO+
257.0475	9	C14H10ClN2O+
271.064	2	C15H12ClN2O+
283.063	3	C16H12ClN2O+
