Mass spectrum: Pioglitazone; LC-ESI-ITFT; MS2; CE: 60%; R=15000; [M+H]+
Name: Pioglitazone
Name: 5-[[4-[2-(5-ethylpyridin-2-yl)ethoxy]phenyl]methyl]-1,3-thiazolidine-2,4-dione
Formula: C19H20N2O3S
Exact mass: 356.1194635
SMILES: CCC1=CN=C(CCOC2=CC=C(CC3SC(=O)NC3=O)C=C2)C=C1
InChI: InChI=1S/C19H20N2O3S/c1-2-13-3-6-15(20-12-13)9-10-24-16-7-4-14(5-8-16)11-17-18(22)21-19(23)25-17/h3-8,12,17H,2,9-11H2,1H3,(H,21,22,23)
Instrument: LTQ Orbitrap XL Thermo Scientific
Instrument type: LC-ESI-ITFT
Ms type: MS2
Ion mode: POSITIVE
Ionization: ESI
Fragmentation mode: HCD
Collision energy: 60 % (nominal)
Resolution: 15000
Column name: Kinetex Evo C18 2.6 um 50 x 2.1 mm
Retention time: 7.985 min
Base peak: 357.1278
Precursor m/z: 357.1267
Precursor type: [M+H]+
Precursor intensity: 30617210
m/z	relative intensity	assigned
104.0496	1	C7H6N+
106.0652	13	C7H8N+
107.073	8	C7H9N+
118.0654	1	C8H8N+
119.073	139	C8H9N+
120.0809	23	C8H10N+
121.0887	19	C8H11N+
124.0757	5	C7H10NO+
134.0965	999	C9H12N+
135.1041	206	C9H13N+
240.1383	3	C16H18NO+
286.1265	2	C17H20NOS+
357.1277	3	C19H21N2O3S+
