Mass spectrum: Canrenone; LC-ESI-ITFT; MS2; CE: 80; R=15000; [M+H]+
Name: Canrenone
Name: (8R,9S,10R,13S,14S,17R)-10,13-Dimethylspiro[2,8,9,11,12,14,15,16-octahydro-1H-cyclopenta[a]phenanthrene-17,5`-oxolane]-2`,3-dione
Formula: C22H28O3
Exact mass: 340.2038
SMILES: C[C@]12CC[C@H]3[C@@H](C=CC4=CC(=O)CC[C@]34C)[C@@H]1CC[C@@]21CCC(=O)O1
InChI: InChI=1S/C22H28O3/c1-20-9-5-15(23)13-14(20)3-4-16-17(20)6-10-21(2)18(16)7-11-22(21)12-8-19(24)25-22/h3-4,13,16-18H,5-12H2,1-2H3/t16-,17+,18+,20+,21+,22-/m1/s1
Instrument: LTQ Orbitrap XL Thermo Scientific
Instrument type: LC-ESI-ITFT
Ms type: MS2
Ion mode: POSITIVE
Ionization: ESI
Fragmentation mode: HCD
Collision energy: 80 (nominal)
Resolution: 15000
Column name: Kinetex Core-Shell C18 2.6 um, 3.0 x 100 mm, Phenomenex
Retention time: 24.610 min
Base peak: 299.1997
Precursor m/z: 341.2111
Precursor type: [M+H]+
m/z	relative intensity	assigned
71.0488	28	C4H7O+
77.0385	21	C6H5+
79.054	334	C6H7+
81.0697	54	C6H9+
83.0489	155	C5H7O+
91.054	347	C7H7+
93.0697	156	C7H9+
95.0853	43	C7H11+
97.0645	324	C6H9O+
99.0438	70	C5H7O2+
103.0545	8	C8H7+
105.0696	473	C8H9+
107.0852	999	C8H11+
109.0646	58	C7H9O+
109.1009	13	C8H13+
111.0438	20	C6H7O2+
115.0538	13	C9H7+
117.0696	102	C9H9+
119.06	55	C7H7N2+
119.0853	266	C9H11+
121.0645	40	C8H9O+
121.101	49	C9H13+
123.0802	36	C8H11O+
125.0598	8	C7H9O2+
128.0619	54	C10H8+
129.0696	74	C10H9+
131.0853	171	C10H11+
133.0645	29	C9H9O+
133.1009	106	C10H13+
135.0802	21	C9H11O+
137.0962	10	C9H13O+
141.0696	50	C11H9+
142.0773	57	C11H10+
143.0852	191	C11H11+
145.0643	20	C10H9O+
145.1009	185	C11H13+
147.0802	47	C10H11O+
147.1162	19	C11H15+
149.0958	34	C10H13O+
154.0774	38	C12H10+
155.0853	104	C12H11+
157.1009	108	C12H13+
158.0725	21	C11H10O+
159.0802	26	C11H11O+
159.1165	48	C12H15+
161.0958	48	C11H13O+
163.1114	15	C11H15O+
167.0852	29	C13H11+
168.0932	34	C13H12+
169.1009	99	C13H13+
171.1167	31	C13H15+
173.0958	79	C12H13O+
173.1319	7	C13H17+
175.1113	27	C12H15O+
179.085	22	C14H11+
181.1009	62	C14H13+
183.1166	64	C14H15+
185.1322	30	C14H17+
187.1116	20	C13H15O+
193.101	22	C15H13+
195.1165	34	C15H15+
197.1321	17	C15H17+
207.1171	11	C16H15+
209.132	12	C16H17+
221.1319	8	C17H17+
223.1484	10	C17H19+
235.1485	10	C18H19+
253.1582	11	C18H21O+
