Mass spectrum: Methocarbamol; LC-ESI-ITFT; MS2; CE: 105%; R=15000; [M+H]+
Name: Methocarbamol
Name: [2-hydroxy-3-(2-methoxyphenoxy)propyl] carbamate
Formula: C11H15NO5
Exact mass: 241.0950
SMILES: COC1=C(OCC(O)COC(N)=O)C=CC=C1
InChI: InChI=1S/C11H15NO5/c1-15-9-4-2-3-5-10(9)16-6-8(13)7-17-11(12)14/h2-5,8,13H,6-7H2,1H3,(H2,12,14)
Instrument: LTQ Orbitrap XL Thermo Scientific
Instrument type: LC-ESI-ITFT
Ms type: MS2
Ion mode: POSITIVE
Ionization: ESI
Fragmentation mode: HCD
Collision energy: 105 % (nominal)
Resolution: 15000
Column name: Kinetex Evo C18 2.6 um 50 x 2.1 mm
Retention time: 7.092 min
Base peak: 264.0839
Precursor m/z: 242.1023
Precursor type: [M+H]+
m/z	relative intensity	assigned
57.0334	31	C3H5O+
62.0236	118	CH4NO2+
65.0386	305	C5H5+
77.0387	999	C6H5+
79.0544	338	C6H7+
81.0335	56	C5H5O+
91.0543	391	C7H7+
92.0259	83	C6H4O+
92.0621	56	C7H8+
93.0336	77	C6H5O+
94.0412	29	C6H6O+
95.0493	318	C6H7O+
102.0467	41	C8H6+
103.0543	444	C8H7+
105.07	150	C8H9+
107.0492	39	C7H7O+
109.0285	82	C6H5O2+
110.0363	318	C6H6O2+
120.0572	66	C8H8O+
121.0285	561	C7H5O2+
122.0363	588	C7H6O2+
131.049	39	C9H7O+
