Mass spectrum: Cortisone; LC-ESI-ITFT; MS2; CE: 90%; R=15000; [M+H]+
Name: Cortisone
Name: (8S,9S,10R,13S,14S,17R)-17-hydroxy-17-(2-hydroxyacetyl)-10,13-dimethyl-1,2,6,7,8,9,12,14,15,16-decahydrocyclopenta[a]phenanthrene-3,11-dione
Formula: C21H28O5
Exact mass: 360.193673996
SMILES: C[C@]12CC(=O)[C@H]3[C@@H](CCC4=CC(=O)CC[C@]34C)[C@@H]1CC[C@]2(O)C(=O)CO
InChI: InChI=1S/C21H28O5/c1-19-7-5-13(23)9-12(19)3-4-14-15-6-8-21(26,17(25)11-22)20(15,2)10-16(24)18(14)19/h9,14-15,18,22,26H,3-8,10-11H2,1-2H3/t14-,15-,18+,19-,20-,21-/m0/s1
Instrument: LTQ Orbitrap XL Thermo Scientific
Instrument type: LC-ESI-ITFT
Ms type: MS2
Ion mode: POSITIVE
Ionization: ESI
Fragmentation mode: HCD
Collision energy: 90 % (nominal)
Resolution: 15000
Column name: Kinetex Evo C18 2.6 um 50 x 2.1 mm
Retention time: 9.572 min
Base peak: 361.2009
Precursor m/z: 361.201
Precursor type: [M+H]+
Precursor intensity: 15381135
m/z	relative intensity	assigned
69.0696	95	C5H9+
71.0489	20	C4H7O+
77.0383	77	C6H5+
79.054	413	C6H7+
81.0333	20	C5H5O+
81.0696	329	C6H9+
83.0489	311	C5H7O+
91.054	627	C7H7+
93.0696	742	C7H9+
95.0489	74	C6H7O+
95.0853	154	C7H11+
97.0645	464	C6H9O+
103.0539	51	C8H7+
105.0696	999	C8H9+
107.0489	166	C7H7O+
107.0852	429	C8H11+
109.0645	92	C7H9O+
115.0539	87	C9H7+
116.0618	54	C9H8+
117.0696	298	C9H9+
119.0852	418	C9H11+
121.0645	780	C8H9O+
121.1008	110	C9H13+
123.0801	115	C8H11O+
128.0617	144	C10H8+
129.0695	189	C10H9+
130.0773	162	C10H10+
131.0851	246	C10H11+
132.0565	22	C9H8O+
133.0644	109	C9H9O+
133.1008	99	C10H13+
134.0723	17	C9H10O+
135.0801	76	C9H11O+
135.1165	37	C10H15+
141.0696	86	C11H9+
142.0774	115	C11H10+
143.0851	238	C11H11+
144.0565	27	C10H8O+
144.0929	26	C11H12+
145.0644	59	C10H9O+
145.1008	318	C11H13+
146.072	34	C10H10O+
147.08	180	C10H11O+
148.0879	545	C10H12O+
149.0956	14	C10H13O+
153.0696	45	C12H9+
154.0774	35	C12H10+
155.0851	124	C12H11+
156.0929	40	C12H12+
157.064	23	C11H9O+
157.1007	84	C12H13+
158.0722	25	C11H10O+
159.08	74	C11H11O+
159.1167	43	C12H15+
161.0958	84	C11H13O+
163.1113	527	C11H15O+
165.0694	65	C13H9+
167.0851	82	C13H11+
168.0929	45	C13H12+
169.0645	11	C12H9O+
169.1007	99	C13H13+
170.1087	21	C13H14+
171.0801	40	C12H11O+
171.1163	48	C13H15+
173.0954	48	C12H13O+
174.1034	104	C12H14O+
179.0851	70	C14H11+
180.0929	33	C14H12+
181.1007	85	C14H13+
182.1087	38	C14H14+
183.0799	23	C13H11O+
183.1163	68	C14H15+
184.0882	12	C13H12O+
185.0956	21	C13H13O+
185.1322	49	C14H17+
187.1116	16	C13H15O+
189.1267	24	C13H17O+
191.0853	25	C15H11+
193.1008	55	C15H13+
194.1089	26	C15H14+
195.0801	13	C14H11O+
195.1163	45	C15H15+
196.124	10	C15H16+
197.0955	23	C14H13O+
197.1321	30	C15H17+
199.1112	28	C14H15O+
199.1476	25	C15H19+
206.1085	22	C16H14+
207.1171	17	C16H15+
209.0955	27	C15H13O+
209.1318	26	C16H17+
211.1112	27	C15H15O+
217.1011	16	C17H13+
225.1268	61	C16H17O+
226.1349	44	C16H18O+
227.1432	39	C16H19O+
240.1512	16	C17H20O+
241.1578	37	C17H21O+
243.1373	173	C16H19O2+
258.1608	50	C17H22O2+
269.1524	35	C18H21O2+
