Mass spectrum: Pirimiphos-methyl; LC-ESI-ITFT; MS2; CE: 55; R=15000; [M]+
Name: Pirimiphos-methyl
Name: 4-Dimethoxyphosphinothioyloxy-N,N-diethyl-6-methylpyrimidin-2-amine
Formula: C11H20N3O3PS
Exact mass: 305.0963
SMILES: CCN(CC)C1=NC(C)=CC(OP(=S)(OC)OC)=N1
InChI: InChI=1S/C11H20N3O3PS/c1-6-14(7-2)11-12-9(3)8-10(13-11)17-18(19,15-4)16-5/h8H,6-7H2,1-5H3
Instrument: LTQ Orbitrap XL Thermo Scientific
Instrument type: LC-ESI-ITFT
Ms type: MS2
Ion mode: POSITIVE
Ionization: ESI
Fragmentation mode: HCD
Collision energy: 55 (nominal)
Resolution: 15000
Column name: Kinetex Core-Shell C18 2.6 um, 3.0 x 100 mm, Phenomenex
Retention time: 26.263 min
Base peak: 305.1079
Precursor m/z: 305.0958
Precursor type: [M]+
m/z	relative intensity	assigned
84.0444	44	C4H6NO+
96.9507	219	H2O2PS+
98.9841	10	H4O4P+
100.0214	68	C4H6NS+
114.9613	163	H4O3PS+
153.1021	524	C8H13N2O+
169.0794	999	C8H13N2S+
188.0781	7	C9H17PS+
