Mass spectrum: 3-Aminoacetophenon; LC-ESI-ITFT; MS2; CE: 20%; R=15000; [M+H]+
Name: 3-Aminoacetophenon
Name: 1-(3-aminophenyl)ethanone
Formula: C8H9NO
Exact mass: 135.068413908
SMILES: CC(=O)C1=CC(N)=CC=C1
InChI: InChI=1S/C8H9NO/c1-6(10)7-3-2-4-8(9)5-7/h2-5H,9H2,1H3
Instrument: LTQ Orbitrap XL Thermo Scientific
Instrument type: LC-ESI-ITFT
Ms type: MS2
Ion mode: POSITIVE
Ionization: ESI
Fragmentation mode: HCD
Collision energy: 20 % (nominal)
Resolution: 15000
Column name: Kinetex Evo C18 2.6 um 50 x 2.1 mm
Retention time: 0.931 min
Base peak: 227.1546
Precursor m/z: 136.0757
Precursor type: [M+H]+
Precursor intensity: 8832772
m/z	relative intensity	assigned
94.065	14	C6H8N+
136.0754	999	C8H10NO+
