Mass spectrum: Ciprofloxacin; LC-ESI-ITFT; MS2; CE: 70%; R=15000; [M+H]+
Name: Ciprofloxacin
Name: 1-cyclopropyl-6-fluoro-4-oxo-7-piperazin-1-ylquinoline-3-carboxylic acid
Formula: C17H18FN3O3
Exact mass: 331.133219656
SMILES: OC(=O)C1=CN(C2CC2)C2=C(C=C(F)C(=C2)N2CCNCC2)C1=O
InChI: InChI=1S/C17H18FN3O3/c18-13-7-11-14(8-15(13)20-5-3-19-4-6-20)21(10-1-2-10)9-12(16(11)22)17(23)24/h7-10,19H,1-6H2,(H,23,24)
Instrument: LTQ Orbitrap XL Thermo Scientific
Instrument type: LC-ESI-ITFT
Ms type: MS2
Ion mode: POSITIVE
Ionization: ESI
Fragmentation mode: HCD
Collision energy: 70 % (nominal)
Resolution: 15000
Column name: Kinetex Evo C18 2.6 um 50 x 2.1 mm
Retention time: 5.236 min
Base peak: 218.0851
Precursor m/z: 332.1405
Precursor type: [M+H]+
Precursor intensity: 1388999.62
m/z	relative intensity	assigned
56.0494	24	C3H6N+
70.0653	84	C4H8N+
135.0484	56	C8H6FN+
136.0563	103	C8H7FN+
156.0685	29	C10H8N2+
161.0512	17	C9H6FN2+
163.0671	48	C9H8FN2+
169.0768	41	C8H10FN2O+
174.0718	28	C11H9FN+
175.0673	44	C10H8FN2+
176.0508	26	C10H7FNO+
176.075	141	C10H9FN2+
182.0847	21	C9H11FN2O+
184.0636	45	C8H9FN2O2+
185.0717	29	C11H9N2O+
187.0673	24	C11H8FN2+
188.0511	20	C11H7FNO+
189.0465	253	C10H6FN2O+
189.083	86	C11H10FN2+
191.0621	139	C10H8FN2O+
201.083	17	C12H10FN2+
202.0546	29	C11H7FN2O+
202.0668	57	C12H9FNO+
202.0905	32	C12H11FN2+
203.0622	508	C11H8FN2O+
203.0746	46	C12H10FNO+
204.07	422	C11H9FN2O+
205.0778	358	C11H10FN2O+
215.0623	41	C12H8FN2O+
216.07	35	C12H9FN2O+
217.0778	89	C12H10FN2O+
226.0982	13	C10H13FN3O2+
229.0778	64	C13H10FN2O+
231.0572	999	C12H8FN2O2+
231.0936	177	C13H12FN2O+
245.1092	511	C14H14FN2O+
268.1453	9	C13H19FN3O2+
314.131	65	C17H17FN3O2+
332.1412	35	C17H19FN3O3+
