Mass spectrum: 7-Hydroxy-4-methylcoumarin; LC-ESI-ITFT; MS2; CE: 55; R=15000; [M+H]+
Name: 7-Hydroxy-4-methylcoumarin
Name: 4-Methylumbelliferone
Name: 7-Hydroxy-4-methylchromen-2-one
Formula: C10H8O3
Exact mass: 176.0473
SMILES: CC1=CC(=O)OC2=CC(O)=CC=C12
InChI: InChI=1S/C10H8O3/c1-6-4-10(12)13-9-5-7(11)2-3-8(6)9/h2-5,11H,1H3
Instrument: LTQ Orbitrap XL Thermo Scientific
Instrument type: LC-ESI-ITFT
Ms type: MS2
Ion mode: POSITIVE
Ionization: ESI
Fragmentation mode: HCD
Collision energy: 55 (nominal)
Resolution: 15000
Column name: Kinetex Core-Shell C18 2.6 um, 3.0 x 100 mm, Phenomenex
Retention time: 20.082 min
Base peak: 163.1332
Precursor m/z: 177.0546
Precursor type: [M+H]+
m/z	relative intensity	assigned
77.0388	6	C6H5+
79.0545	23	C6H7+
81.0701	12	C6H9+
91.0545	10	C7H7+
93.0702	17	C7H9+
103.0545	28	C8H7+
105.0702	192	C8H9+
107.0495	6	C7H7O+
115.0546	17	C9H7+
121.0652	180	C8H9O+
131.0496	8	C9H7O+
132.0576	2	C9H8O+
133.0652	42	C9H9O+
134.0367	1	C8H6O2+
135.0447	2	C8H7O2+
143.0608	2	C9H7N2+
149.0602	31	C9H9O2+
177.0551	999	C10H9O3+
