Mass spectrum: Methocarbamol; LC-ESI-ITFT; MS2; CE: 85%; R=15000; [M+H]+
Name: Methocarbamol
Name: [2-hydroxy-3-(2-methoxyphenoxy)propyl] carbamate
Formula: C11H15NO5
Exact mass: 241.0950
SMILES: COC1=C(OCC(O)COC(N)=O)C=CC=C1
InChI: InChI=1S/C11H15NO5/c1-15-9-4-2-3-5-10(9)16-6-8(13)7-17-11(12)14/h2-5,8,13H,6-7H2,1H3,(H2,12,14)
Instrument: LTQ Orbitrap XL Thermo Scientific
Instrument type: LC-ESI-ITFT
Ms type: MS2
Ion mode: POSITIVE
Ionization: ESI
Fragmentation mode: HCD
Collision energy: 85 % (nominal)
Resolution: 15000
Column name: Kinetex Evo C18 2.6 um 50 x 2.1 mm
Retention time: 7.018 min
Base peak: 264.0843
Precursor m/z: 242.1023
Precursor type: [M+H]+
m/z	relative intensity	assigned
57.0334	52	C3H5O+
62.0236	190	CH4NO2+
65.0385	319	C5H5+
67.0542	31	C5H7+
75.044	63	C3H7O2+
77.0386	722	C6H5+
79.0543	428	C6H7+
91.0543	283	C7H7+
93.0336	201	C6H5O+
93.0698	63	C7H9+
95.0492	402	C6H7O+
103.0542	601	C8H7+
105.0699	542	C8H9+
107.0492	102	C7H7O+
109.0284	46	C6H5O2+
109.065	55	C7H9O+
110.0362	366	C6H6O2+
111.0443	39	C6H7O2+
115.0541	28	C9H7+
118.0498	188	C4H8NO3+
120.0569	117	C8H8O+
121.0284	248	C7H5O2+
121.0647	41	C8H9O+
122.0362	999	C7H6O2+
124.0514	35	C7H8O2+
125.0602	44	C7H9O2+
131.0493	45	C9H7O+
135.0806	99	C9H11O+
148.0519	41	C9H8O2+
