Mass spectrum: Imazalil; LC-ESI-ITFT; MS2; CE: 35; R=15000; [M+H]+
Name: Imazalil
Name: 1-[2-(2,4-Dichlorophenyl)-2-prop-2-enoxyethyl]imidazole
Formula: C14H14Cl2N2O
Exact mass: 296.0483
SMILES: ClC1=CC=C(C(CN2C=CN=C2)OCC=C)C(Cl)=C1
InChI: InChI=1S/C14H14Cl2N2O/c1-2-7-19-14(9-18-6-5-17-10-18)12-4-3-11(15)8-13(12)16/h2-6,8,10,14H,1,7,9H2
Instrument: LTQ Orbitrap XL Thermo Scientific
Instrument type: LC-ESI-ITFT
Ms type: MS2
Ion mode: POSITIVE
Ionization: ESI
Fragmentation mode: CID
Collision energy: 35 (nominal)
Resolution: 15000
Column name: Kinetex Core-Shell C18 2.6 um, 3.0 x 100 mm, Phenomenex
Retention time: 21.338 min
Base peak: 163.1326
Precursor m/z: 297.0556
Precursor type: [M+H]+
m/z	relative intensity	assigned
109.0759	39	C6H9N2+
149.0153	4	C9H6Cl+
158.9761	336	C7H5Cl2+
164.0385	2	C10H9Cl+
172.9919	86	C8H7Cl2+
175.0311	10	C11H8Cl+
176.0386	228	C11H9Cl+
184.9918	72	C9H7Cl2+
186.9702	2	C9ClN2O+
188.0946	4	C11H12N2O+
199.0075	41	C10H9Cl2+
200.9867	729	C9H7Cl2O+
211.0075	63	C11H9Cl2+
229.018	42	C11H11Cl2O+
255.0085	999	C11H9Cl2N2O+
