Mass spectrum: Atenolol; LC-ESI-ITFT; MS2; CE: 55; R=15000; [M+H]+
Name: Atenolol
Name: 2-[4-[2-Hydroxy-3-(propan-2-ylamino)propoxy]phenyl]acetamide
Formula: C14H22N2O3
Exact mass: 266.1630
SMILES: CC(C)NCC(O)COC1=CC=C(CC(N)=O)C=C1
InChI: InChI=1S/C14H22N2O3/c1-10(2)16-8-12(17)9-19-13-5-3-11(4-6-13)7-14(15)18/h3-6,10,12,16-17H,7-9H2,1-2H3,(H2,15,18)
Instrument: LTQ Orbitrap XL Thermo Scientific
Instrument type: LC-ESI-ITFT
Ms type: MS2
Ion mode: POSITIVE
Ionization: ESI
Fragmentation mode: CID
Collision energy: 55 (nominal)
Resolution: 15000
Column name: Kinetex Core-Shell C18 2.6 um, 3.0 x 100 mm, Phenomenex
Retention time: 6.668 min
Base peak: 163.1328
Precursor m/z: 267.1703
Precursor type: [M+H]+
m/z	relative intensity	assigned
74.0601	42	C3H8NO+
98.0966	38	C6H12N+
116.1071	187	C6H14NO+
145.0651	151	C10H9O+
162.0916	97	C10H12NO+
164.0711	14	C9H10NO2+
173.06	49	C11H9O2+
178.0865	28	C10H12NO2+
180.1022	54	C10H14NO2+
190.0865	999	C11H12NO2+
204.1386	30	C13H18NO+
207.1132	38	C11H15N2O2+
208.0972	373	C11H14NO3+
225.1237	947	C11H17N2O3+
232.1334	25	C14H18NO2+
249.1601	55	C14H21N2O2+
250.1442	95	C14H20NO3+
