Mass spectrum: Ametryn; LC-ESI-ITFT; MS2; CE: 10%; R=15000; [M+H]+
Name: Ametryn
Name: 4-N-ethyl-6-methylsulfanyl-2-N-propan-2-yl-1,3,5-triazine-2,4-diamine
Formula: C9H17N5S
Exact mass: 227.120466544
SMILES: CCNC1=NC(SC)=NC(NC(C)C)=N1
InChI: InChI=1S/C9H17N5S/c1-5-10-7-12-8(11-6(2)3)14-9(13-7)15-4/h6H,5H2,1-4H3,(H2,10,11,12,13,14)
Instrument: LTQ Orbitrap XL Thermo Scientific
Instrument type: LC-ESI-ITFT
Ms type: MS2
Ion mode: POSITIVE
Ionization: ESI
Fragmentation mode: HCD
Collision energy: 10 % (nominal)
Resolution: 15000
Column name: Kinetex Evo C18 2.6 um 50 x 2.1 mm
Retention time: 8.663 min
Base peak: 228.1286
Precursor m/z: 228.1277
Precursor type: [M+H]+
Precursor intensity: 44204676
m/z	relative intensity	assigned
186.0807	1	C6H12N5S+
213.1039	1	C8H15N5S+
228.1279	999	C9H18N5S+
