Mass spectrum: Metoprolol; LC-ESI-ITFT; MS2; CE: 80; R=15000; [M+H]+
Name: Metoprolol
Name: 1-[4-(2-Methoxyethyl)phenoxy]-3-(propan-2-ylamino)propan-2-ol
Formula: C15H25NO3
Exact mass: 267.1834
SMILES: COCCC1=CC=C(OCC(O)CNC(C)C)C=C1
InChI: InChI=1S/C15H25NO3/c1-12(2)16-10-14(17)11-19-15-6-4-13(5-7-15)8-9-18-3/h4-7,12,14,16-17H,8-11H2,1-3H3
Instrument: LTQ Orbitrap XL Thermo Scientific
Instrument type: LC-ESI-ITFT
Ms type: MS2
Ion mode: POSITIVE
Ionization: ESI
Fragmentation mode: HCD
Collision energy: 80 (nominal)
Resolution: 15000
Column name: Kinetex Core-Shell C18 2.6 um, 3.0 x 100 mm, Phenomenex
Retention time: 17.049 min
Base peak: 189.1022
Precursor m/z: 268.1907
Precursor type: [M+H]+
m/z	relative intensity	assigned
72.0808	181	C4H10N+
74.06	498	C3H8NO+
77.0386	138	C6H5+
79.0543	231	C6H7+
84.0808	38	C5H10N+
91.0543	451	C7H7+
93.0699	124	C7H9+
98.0965	131	C6H12N+
100.1122	67	C6H14N+
103.0543	999	C8H7+
105.0699	872	C8H9+
107.0491	28	C7H7O+
107.0854	11	C8H11+
115.0543	108	C9H7+
116.1071	162	C6H14NO+
117.0699	49	C9H9+
119.0493	16	C8H7O+
119.0855	40	C9H11+
120.057	59	C8H8O+
121.0648	816	C8H9O+
129.0699	73	C10H9+
131.0491	40	C9H7O+
131.0856	134	C10H11+
133.0649	773	C9H9O+
135.0806	105	C9H11O+
141.0701	72	C11H9+
144.0571	154	C10H8O+
147.0808	47	C10H11O+
148.0758	194	C9H10NO+
151.076	12	C9H11O2+
159.0806	123	C11H11O+
163.0868	243	C9H11N2O+
169.0757	15	C11H9N2+
