Mass spectrum: 4-Hydroxy-1-(2-hydroxyethyl)-2,2,6,6-tetramethylpiperidine; LC-ESI-ITFT; MS2; CE: 60%; R=15000; [M+H]+
Name: 4-Hydroxy-1-(2-hydroxyethyl)-2,2,6,6-tetramethylpiperidine
Name: 1-(2-hydroxyethyl)-2,2,6,6-tetramethylpiperidin-4-ol
Formula: C11H23NO2
Exact mass: 201.172878976
SMILES: CC1(C)CC(O)CC(C)(C)N1CCO
InChI: InChI=1S/C11H23NO2/c1-10(2)7-9(14)8-11(3,4)12(10)5-6-13/h9,13-14H,5-8H2,1-4H3
Instrument: LTQ Orbitrap XL Thermo Scientific
Instrument type: LC-ESI-ITFT
Ms type: MS2
Ion mode: POSITIVE
Ionization: ESI
Fragmentation mode: HCD
Collision energy: 60 % (nominal)
Resolution: 15000
Column name: Kinetex Evo C18 2.6 um 50 x 2.1 mm
Retention time: 0.541 min
Base peak: 202.1801
Precursor m/z: 202.1802
Precursor type: [M+H]+
Precursor intensity: 10806786
m/z	relative intensity	assigned
55.054	3	C4H7+
58.065	2	C3H8N+
59.049	7	C3H7O+
62.0599	264	C2H8NO+
67.0541	14	C5H7+
79.0539	1	C6H7+
81.0699	31	C6H9+
83.0856	17	C6H11+
84.0808	24	C5H10N+
85.0648	156	C5H9O+
88.0758	10	C4H10NO+
90.0548	2	C3H8NO2+
95.0856	4	C7H11+
102.0914	999	C5H12NO+
123.1169	73	C9H15+
128.1071	9	C7H14NO+
146.1176	18	C7H16NO2+
184.1698	4	C11H22NO+
202.1802	260	C11H24NO2+
