Mass spectrum: 4,4`-Methylene-bis(2-methyl aniline); LC-ESI-ITFT; MS2; CE: 70%; R=15000; [M+H]+
Name: 4,4`-Methylene-bis(2-methyl aniline)
Name: 4,4`-Methylenebis(2-methylaniline)
Name: 4-[(4-amino-3-methylphenyl)methyl]-2-methylaniline
Formula: C15H18N2
Exact mass: 226.146998576
SMILES: CC1=C(N)C=CC(CC2=CC(C)=C(N)C=C2)=C1
InChI: InChI=1S/C15H18N2/c1-10-7-12(3-5-14(10)16)9-13-4-6-15(17)11(2)8-13/h3-8H,9,16-17H2,1-2H3
Instrument: LTQ Orbitrap XL Thermo Scientific
Instrument type: LC-ESI-ITFT
Ms type: MS2
Ion mode: POSITIVE
Ionization: ESI
Fragmentation mode: HCD
Collision energy: 70 % (nominal)
Resolution: 15000
Column name: Kinetex Evo C18 2.6 um 50 x 2.1 mm
Retention time: 0.964 min
Base peak: 108.0809
Precursor m/z: 227.1543
Precursor type: [M+H]+
Precursor intensity: 10531212
m/z	relative intensity	assigned
68.0492	1	C4H6N+
77.0383	2	C6H5+
79.0539	1	C6H7+
80.0494	2	C5H6N+
81.0571	4	C5H7N+
91.0541	2	C7H7+
103.054	22	C8H7+
105.0701	2	C8H9+
107.0728	2	C7H9N+
118.0649	2	C8H8N+
120.0805	999	C8H10N+
128.0618	2	C10H8+
129.0695	21	C10H9+
141.0698	1	C11H9+
142.0775	4	C11H10+
143.0852	3	C11H11+
144.0806	2	C10H10N+
145.0886	1	C10H11N+
154.0775	3	C12H10+
155.0851	10	C12H11+
157.0888	2	C11H11N+
157.1011	1	C12H13+
165.07	3	C13H9+
166.0769	2	C13H10+
167.0728	2	C12H9N+
167.0851	2	C13H11+
168.0805	2	C12H10N+
168.0932	4	C13H12+
169.101	4	C13H13+
178.0774	90	C14H10+
179.0851	3	C14H11+
180.0804	66	C13H10N+
181.0883	4	C13H11N+
181.1005	2	C14H13+
182.0959	5	C13H12N+
183.1164	2	C14H15+
192.093	4	C15H12+
193.1009	52	C15H13+
194.0961	42	C14H12N+
195.1039	95	C14H13N+
208.1115	6	C15H14N+
209.12	3	C15H15N+
210.1273	17	C15H16N+
211.1229	4	C14H15N2+
225.138	4	C15H17N2+
227.1538	88	C15H19N2+
