Mass spectrum: Methiocarb; LC-ESI-ITFT; MS2; CE: 10%; R=15000; [M+H]+
Name: Methiocarb
Name: (3,5-dimethyl-4-methylsulfanylphenyl) N-methylcarbamate
Formula: C11H15NO2S
Exact mass: 225.08234972
SMILES: CNC(=O)OC1=CC(C)=C(SC)C(C)=C1
InChI: InChI=1S/C11H15NO2S/c1-7-5-9(14-11(13)12-3)6-8(2)10(7)15-4/h5-6H,1-4H3,(H,12,13)
Instrument: LTQ Orbitrap XL Thermo Scientific
Instrument type: LC-ESI-ITFT
Ms type: MS2
Ion mode: POSITIVE
Ionization: ESI
Fragmentation mode: HCD
Collision energy: 10 % (nominal)
Resolution: 15000
Column name: Kinetex Evo C18 2.6 um 50 x 2.1 mm
Retention time: 10.950 min
Base peak: 226.0902
Precursor m/z: 226.0896
Precursor type: [M+H]+
Precursor intensity: 21131478
m/z	relative intensity	assigned
121.0647	144	C8H9O+
169.0681	999	C9H13OS+
226.0895	201	C11H16NO2S+
