Mass spectrum: Methocarbamol; LC-ESI-ITFT; MS2; CE: 65%; R=15000; [M+H]+
Name: Methocarbamol
Name: [2-hydroxy-3-(2-methoxyphenoxy)propyl] carbamate
Formula: C11H15NO5
Exact mass: 241.0950
SMILES: COC1=C(OCC(O)COC(N)=O)C=CC=C1
InChI: InChI=1S/C11H15NO5/c1-15-9-4-2-3-5-10(9)16-6-8(13)7-17-11(12)14/h2-5,8,13H,6-7H2,1H3,(H2,12,14)
Instrument: LTQ Orbitrap XL Thermo Scientific
Instrument type: LC-ESI-ITFT
Ms type: MS2
Ion mode: POSITIVE
Ionization: ESI
Fragmentation mode: HCD
Collision energy: 65 % (nominal)
Resolution: 15000
Column name: Kinetex Evo C18 2.6 um 50 x 2.1 mm
Retention time: 7.061 min
Base peak: 264.084
Precursor m/z: 242.1023
Precursor type: [M+H]+
m/z	relative intensity	assigned
57.0332	222	C3H5O+
62.0235	328	CH4NO2+
65.0384	236	C5H5+
75.044	134	C3H7O2+
77.0386	274	C6H5+
79.0542	274	C6H7+
91.0542	197	C7H7+
93.0335	287	C6H5O+
93.0699	128	C7H9+
95.0491	620	C6H7O+
103.0542	527	C8H7+
105.0698	835	C8H9+
107.0491	146	C7H7O+
110.0362	397	C6H6O2+
118.0498	948	C4H8NO3+
120.057	106	C8H8O+
121.0284	127	C7H5O2+
121.0646	211	C8H9O+
122.0361	999	C7H6O2+
123.0437	97	C7H7O2+
124.0516	74	C7H8O2+
125.0597	268	C7H9O2+
132.057	72	C9H8O+
135.0804	487	C9H11O+
137.0597	106	C8H9O2+
148.0519	165	C9H8O2+
163.0753	145	C10H11O2+
