Mass spectrum: Phenylbenzimidazole sulfonic acid; LC-ESI-ITFT; MS2; CE: 55; R=15000; [M-H]-
Name: Phenylbenzimidazole sulfonic acid
Name: 2-Phenyl-3H-benzimidazole-5-sulfonic acid
Formula: C13H10N2O3S
Exact mass: 274.0412
SMILES: C1=CC=C(C=C1)C2=NC3=C(N2)C=C(C=C3)S(=O)(=O)O
InChI: InChI=1S/C13H10N2O3S/c16-19(17,18)10-6-7-11-12(8-10)15-13(14-11)9-4-2-1-3-5-9/h1-8H,(H,14,15)(H,16,17,18)
Instrument: LTQ Orbitrap XL Thermo Scientific
Instrument type: LC-ESI-ITFT
Ms type: MS2
Ion mode: NEGATIVE
Ionization: ESI
Fragmentation mode: CID
Collision energy: 55 (nominal)
Resolution: 15000
Column name: Kinetex Core-Shell C18 2.6 um, 3.0 x 100 mm, Phenomenex
Retention time: 14.945 min
Base peak: 178.9779
Precursor m/z: 273.0339
Precursor type: [M-H]-
m/z	relative intensity	assigned
193.0771	999	C13H9N2-
