Mass spectrum: N-lauroylethanolamine; LC-ESI-ITFT; MS2; CE: 50%; R=15000; [M+H]+
Name: N-lauroylethanolamine
Name: N-(2-hydroxyethyl)dodecanamide
Formula: C14H29NO2
Exact mass: 243.2198
SMILES: CCCCCCCCCCCC(=O)NCCO
InChI: InChI=1S/C14H29NO2/c1-2-3-4-5-6-7-8-9-10-11-14(17)15-12-13-16/h16H,2-13H2,1H3,(H,15,17)
Instrument: LTQ Orbitrap XL Thermo Scientific
Instrument type: LC-ESI-ITFT
Ms type: MS2
Ion mode: POSITIVE
Ionization: ESI
Fragmentation mode: HCD
Collision energy: 50 % (nominal)
Resolution: 15000
Column name: Kinetex Evo C18 2.6 um 50 x 2.1 mm
Retention time: 13.173 min
Base peak: 244.2269
Precursor m/z: 244.2271
Precursor type: [M+H]+
m/z	relative intensity	assigned
55.0541	66	C4H7+
57.0698	124	C4H9+
62.0599	999	C2H8NO+
67.0542	188	C5H7+
69.0699	26	C5H9+
71.0855	219	C5H11+
79.0544	28	C6H7+
81.0699	210	C6H9+
83.0855	87	C6H11+
85.1013	109	C6H13+
95.0856	463	C7H11+
97.101	39	C7H13+
109.1012	238	C8H13+
123.117	46	C9H15+
226.2165	346	C14H28NO+
227.2006	337	C14H27O2+
