Mass spectrum: Dimethoate; LC-ESI-ITFT; MS2; CE: 30%; R=15000; [M+H]+
Name: Dimethoate
Name: 2-dimethoxyphosphinothioylsulfanyl-N-methylacetamide
Formula: C5H12NO3PS2
Exact mass: 228.999621874
SMILES: CNC(=O)CSP(=S)(OC)OC
InChI: InChI=1S/C5H12NO3PS2/c1-6-5(7)4-12-10(11,8-2)9-3/h4H2,1-3H3,(H,6,7)
Instrument: LTQ Orbitrap XL Thermo Scientific
Instrument type: LC-ESI-ITFT
Ms type: MS2
Ion mode: POSITIVE
Ionization: ESI
Fragmentation mode: HCD
Collision energy: 30 % (nominal)
Resolution: 15000
Column name: Kinetex Evo C18 2.6 um 50 x 2.1 mm
Retention time: 5.621 min
Base peak: 230.0075
Precursor m/z: 230.0069
Precursor type: [M+H]+
Precursor intensity: 10259958
m/z	relative intensity	assigned
61.0104	30	C2H5S+
78.9942	10	CH4O2P+
88.0215	587	C3H6NS+
119.9937	18	C3H6NS2+
124.982	796	C2H6O2PS+
140.9591	5	C2H6OPS2+
142.9926	434	C2H8O3PS+
156.9542	65	C2H6O2PS2+
157.0084	3	C3H10O3PS+
158.9693	5	C2H8O2PS2+
170.9698	999	C3H8O2PS2+
197.9808	94	C4H9NO2PS2+
198.9647	921	C4H8O3PS2+
230.0068	22	C5H13NO3PS2+
