Mass spectrum: Genistein; LC-ESI-ITFT; MS2; CE: 35; R=15000; [M+H]+
Name: Genistein
Name: 5,7-Dihydroxy-3-(4-hydroxyphenyl)chromen-4-one
Formula: C15H10O5
Exact mass: 270.0528
SMILES: OC1=CC=C(C=C1)C1=COC2=CC(O)=CC(O)=C2C1=O
InChI: InChI=1S/C15H10O5/c16-9-3-1-8(2-4-9)11-7-20-13-6-10(17)5-12(18)14(13)15(11)19/h1-7,16-18H
Instrument: LTQ Orbitrap XL Thermo Scientific
Instrument type: LC-ESI-ITFT
Ms type: MS2
Ion mode: POSITIVE
Ionization: ESI
Fragmentation mode: CID
Collision energy: 35 (nominal)
Resolution: 15000
Column name: Kinetex Core-Shell C18 2.6 um, 3.0 x 100 mm, Phenomenex
Retention time: 22.703 min
Base peak: 361.2
Precursor m/z: 271.0601
Precursor type: [M+H]+
m/z	relative intensity	assigned
91.0542	1	C7H7+
111.0077	2	C5H3O3+
119.0488	1	C8H7O+
121.0283	3	C7H5O2+
131.049	2	C9H7O+
133.0282	6	C8H5O2+
133.0648	1	C9H9O+
145.0282	44	C9H5O2+
147.0437	2	C9H7O2+
147.0804	1	C10H11O+
149.0231	66	C8H5O3+
153.0179	244	C7H5O4+
157.0646	1	C11H9O+
159.0438	45	C10H7O2+
165.0181	10	C8H5O4+
169.0647	4	C12H9O+
173.0594	4	C11H9O2+
175.0756	1	C11H11O2+
177.0175	1	C9H5O4+
181.0642	3	C13H9O+
183.0438	1	C12H7O2+
185.0595	2	C12H9O2+
187.0388	13	C11H7O3+
187.0752	6	C12H11O2+
197.0594	13	C13H9O2+
201.0545	3	C12H9O3+
203.0702	2	C12H11O3+
215.0699	184	C13H11O3+
225.0544	22	C14H9O3+
227.0698	6	C14H11O3+
229.0496	2	C13H9O4+
243.0647	147	C14H11O4+
253.0492	86	C15H9O4+
271.0597	999	C15H11O5+
