Mass spectrum: Medroxyprogesterone; LC-ESI-ITFT; MS2; CE: 40%; R=15000; [M+H]+
Name: Medroxyprogesterone
Name: (6S,8R,9S,10R,13S,14S,17R)-17-acetyl-17-hydroxy-6,10,13-trimethyl-2,6,7,8,9,11,12,14,15,16-decahydro-1H-cyclopenta[a]phenanthren-3-one
Formula: C22H32O3
Exact mass: 344.235144884
SMILES: [H][C@@]12CC[C@](O)(C(C)=O)[C@@]1(C)CC[C@@]1([H])[C@@]2([H])C[C@H](C)C2=CC(=O)CC[C@]12C
InChI: InChI=1S/C22H32O3/c1-13-11-16-17(20(3)8-5-15(24)12-19(13)20)6-9-21(4)18(16)7-10-22(21,25)14(2)23/h12-13,16-18,25H,5-11H2,1-4H3/t13-,16+,17-,18-,20+,21-,22-/m0/s1
Instrument: LTQ Orbitrap XL Thermo Scientific
Instrument type: LC-ESI-ITFT
Ms type: MS2
Ion mode: POSITIVE
Ionization: ESI
Fragmentation mode: HCD
Collision energy: 40 % (nominal)
Resolution: 15000
Column name: Kinetex Evo C18 2.6 um 50 x 2.1 mm
Retention time: 12.149 min
Base peak: 345.2423
Precursor m/z: 345.2424
Precursor type: [M+H]+
Precursor intensity: 8572144
m/z	relative intensity	assigned
69.0696	2	C5H9+
79.0541	1	C6H7+
81.0696	7	C6H9+
83.049	25	C5H7O+
93.0698	8	C7H9+
95.0853	18	C7H11+
97.0646	466	C6H9O+
99.0804	5	C6H11O+
105.0696	5	C8H9+
107.0852	13	C8H11+
109.0645	4	C7H9O+
109.1011	9	C8H13+
111.0803	7	C7H11O+
119.0853	11	C9H11+
121.0645	2	C8H9O+
121.101	14	C9H13+
123.0802	999	C8H11O+
131.0853	2	C10H11+
133.1009	17	C10H13+
135.0802	8	C9H11O+
135.1167	11	C10H15+
137.0958	70	C9H13O+
143.0852	3	C11H11+
145.1009	20	C11H13+
147.1165	24	C11H15+
149.0957	8	C10H13O+
149.1322	5	C11H17+
151.1113	7	C10H15O+
157.1007	9	C12H13+
159.1165	21	C12H15+
161.0958	4	C11H13O+
161.1322	15	C12H17+
163.1115	20	C11H15O+
163.1475	3	C12H19+
169.1011	2	C13H13+
171.1166	17	C13H15+
173.1322	34	C13H17+
175.1114	11	C12H15O+
175.1478	21	C13H19+
177.1271	22	C12H17O+
177.1636	3	C13H21+
183.1169	4	C14H15+
185.132	12	C14H17+
187.1112	8	C13H15O+
187.1478	18	C14H19+
189.127	18	C13H17O+
189.1635	6	C14H21+
191.1427	22	C13H19O+
197.1322	12	C15H17+
199.1477	19	C15H19+
201.1279	2	C14H17O+
201.1633	6	C15H21+
203.1427	20	C14H19O+
203.179	3	C15H23+
205.1584	23	C14H21O+
209.1325	2	C16H17+
211.1478	9	C16H19+
213.1269	3	C15H17O+
213.1633	10	C16H21+
214.1352	5	C15H18O+
215.1427	15	C15H19O+
217.1583	19	C15H21O+
217.1943	2	C16H25+
221.1319	1	C17H17+
223.1481	2	C17H19+
225.1632	10	C17H21+
227.1424	3	C16H19O+
227.1792	17	C17H23+
229.1585	5	C16H21O+
231.174	5	C16H23O+
237.1632	2	C18H21+
239.1428	8	C17H19O+
239.179	6	C18H23+
241.1581	2	C17H21O+
241.1948	4	C18H25+
243.1739	6	C17H23O+
245.1896	9	C17H25O+
249.1644	2	C19H21+
251.1792	8	C19H23+
253.1584	3	C18H21O+
255.1737	5	C18H23O+
257.1532	43	C17H21O2+
257.1893	4	C18H25O+
259.2048	4	C18H27O+
265.1948	4	C20H25+
266.2028	5	C20H26+
267.1739	4	C19H23O+
267.2104	50	C20H27+
269.1896	12	C19H25O+
271.2066	2	C19H27O+
273.1846	3	C18H25O2+
275.1636	34	C17H23O3+
281.2253	2	C21H29+
283.2052	8	C20H27O+
284.2132	13	C20H28O+
285.2207	48	C20H29O+
291.2107	8	C22H27+
299.238	3	C21H31O+
301.216	2	C20H29O2+
303.2309	2	C20H31O2+
309.2206	36	C22H29O+
327.2312	50	C22H31O2+
345.2416	145	C22H33O3+
