Mass spectrum: 4-Chloroaniline; LC-ESI-ITFT; MS2; CE: 80; R=15000; [M+H]+
Name: 4-Chloroaniline
Formula: C6H6ClN
Exact mass: 127.0189
SMILES: NC1=CC=C(Cl)C=C1
InChI: InChI=1S/C6H6ClN/c7-5-1-3-6(8)4-2-5/h1-4H,8H2
Instrument: LTQ Orbitrap XL Thermo Scientific
Instrument type: LC-ESI-ITFT
Ms type: MS2
Ion mode: POSITIVE
Ionization: ESI
Fragmentation mode: HCD
Collision energy: 80 (nominal)
Resolution: 15000
Column name: Kinetex Core-Shell C18 2.6 um, 3.0 x 100 mm, Phenomenex
Retention time: 8.827 min
Base peak: 163.1333
Precursor m/z: 128.0262
Precursor type: [M+H]+
m/z	relative intensity	assigned
92.0499	12	C6H6N+
93.0576	999	C6H7N+
111	32	C6H4Cl+
127.0188	7	C6H6ClN+
128.0266	419	C6H7ClN+
139.0063	267	C6H4ClN2+
