Mass spectrum: Pyriproxyfen; LC-ESI-ITFT; MS2; CE: 40%; R=15000; [M+H]+
Name: Pyriproxyfen
Name: 2-[1-(4-phenoxyphenoxy)propan-2-yloxy]pyridine
Formula: C20H19NO3
Exact mass: 321.136493468
SMILES: CC(COC1=CC=C(OC2=CC=CC=C2)C=C1)OC1=CC=CC=N1
InChI: InChI=1S/C20H19NO3/c1-16(23-20-9-5-6-14-21-20)15-22-17-10-12-19(13-11-17)24-18-7-3-2-4-8-18/h2-14,16H,15H2,1H3
Instrument: LTQ Orbitrap XL Thermo Scientific
Instrument type: LC-ESI-ITFT
Ms type: MS2
Ion mode: POSITIVE
Ionization: ESI
Fragmentation mode: HCD
Collision energy: 40 % (nominal)
Resolution: 15000
Column name: Kinetex Evo C18 2.6 um 50 x 2.1 mm
Retention time: 13.552 min
Base peak: 322.1448
Precursor m/z: 322.1438
Precursor type: [M+H]+
Precursor intensity: 9679773
m/z	relative intensity	assigned
78.0338	1	C5H4N+
91.0544	1	C7H7+
95.0494	1	C6H7O+
96.0445	999	C5H6NO+
105.0699	24	C8H9+
107.0492	3	C7H7O+
119.0492	37	C8H7O+
121.0648	1	C8H9O+
123.0674	4	C7H9NO+
129.07	15	C10H9+
133.0649	41	C9H9O+
134.0727	207	C9H10O+
136.0758	35	C8H10NO+
141.0701	2	C11H9+
143.0854	1	C11H11+
157.0649	4	C11H9O+
170.0729	5	C12H10O+
171.0806	5	C12H11O+
171.1169	1	C13H15+
181.0649	5	C13H9O+
181.1013	3	C14H13+
185.0599	330	C12H9O2+
187.0754	1	C12H11O2+
194.0729	2	C14H10O+
198.0678	2	C13H10O2+
199.0755	32	C13H11O2+
199.1119	9	C14H15O+
209.0963	11	C15H13O+
212.0831	3	C14H12O2+
227.1069	105	C15H15O2+
