Mass spectrum: Metoprolol; LC-ESI-ITFT; MS2; CE: 55; R=15000; [M+H]+
Name: Metoprolol
Name: 1-[4-(2-Methoxyethyl)phenoxy]-3-(propan-2-ylamino)propan-2-ol
Formula: C15H25NO3
Exact mass: 267.1834
SMILES: COCCC1=CC=C(OCC(O)CNC(C)C)C=C1
InChI: InChI=1S/C15H25NO3/c1-12(2)16-10-14(17)11-19-15-6-4-13(5-7-15)8-9-18-3/h4-7,12,14,16-17H,8-11H2,1-3H3
Instrument: LTQ Orbitrap XL Thermo Scientific
Instrument type: LC-ESI-ITFT
Ms type: MS2
Ion mode: POSITIVE
Ionization: ESI
Fragmentation mode: HCD
Collision energy: 55 (nominal)
Resolution: 15000
Column name: Kinetex Core-Shell C18 2.6 um, 3.0 x 100 mm, Phenomenex
Retention time: 17.049 min
Base peak: 189.1022
Precursor m/z: 268.1907
Precursor type: [M+H]+
m/z	relative intensity	assigned
72.0808	351	C4H10N+
74.06	640	C3H8NO+
77.0384	6	C6H5+
79.0542	13	C6H7+
84.0808	24	C5H10N+
86.0964	8	C5H12N+
91.0543	62	C7H7+
93.07	17	C7H9+
98.0965	496	C6H12N+
100.1122	32	C6H14N+
103.0543	54	C8H7+
105.0699	163	C8H9+
107.0492	4	C7H7O+
107.0857	11	C8H11+
115.0543	10	C9H7+
116.1071	723	C6H14NO+
117.0699	21	C9H9+
119.0491	4	C8H7O+
119.0856	32	C9H11+
120.057	5	C8H8O+
121.0649	704	C8H9O+
129.07	31	C10H9+
131.0495	13	C9H7O+
131.0857	153	C10H11+
133.0649	999	C9H9O+
135.0806	59	C9H11O+
141.0702	39	C11H9+
144.0571	46	C10H8O+
147.0806	93	C10H11O+
148.0758	185	C9H10NO+
149.0958	4	C10H13O+
151.0757	18	C9H11O2+
158.0958	5	C11H12N+
159.0806	633	C11H11O+
161.0965	21	C11H13O+
163.0868	144	C9H11N2O+
163.1119	27	C11H15O+
165.0912	154	C10H13O2+
169.0762	20	C11H9N2+
176.1072	130	C11H14NO+
177.0913	107	C11H13O2+
179.107	35	C11H15O2+
188.1285	3	C9H18NO3+
191.1068	281	C12H15O2+
194.118	17	C11H16NO2+
218.1542	18	C14H20NO+
226.144	40	C12H20NO3+
268.1912	188	C15H26NO3+
