Mass spectrum: Metolachlor; LC-ESI-ITFT; MS2; CE: 80; R=15000; [M+H]+
Name: Metolachlor
Name: 2-Chloro-N-(2-ethyl-6-methylphenyl)-N-(1-methoxypropan-2-yl)acetamide
Formula: C15H22ClNO2
Exact mass: 283.1339
SMILES: CCC1=CC=CC(C)=C1N(C(C)COC)C(=O)CCl
InChI: InChI=1S/C15H22ClNO2/c1-5-13-8-6-7-11(2)15(13)17(14(18)9-16)12(3)10-19-4/h6-8,12H,5,9-10H2,1-4H3
Instrument: LTQ Orbitrap XL Thermo Scientific
Instrument type: LC-ESI-ITFT
Ms type: MS2
Ion mode: POSITIVE
Ionization: ESI
Fragmentation mode: HCD
Collision energy: 80 (nominal)
Resolution: 15000
Column name: Kinetex Core-Shell C18 2.6 um, 3.0 x 100 mm, Phenomenex
Retention time: 25.526 min
Base peak: 284.1409
Precursor m/z: 284.1412
Precursor type: [M+H]+
m/z	relative intensity	assigned
73.0647	77	C4H9O+
76.9788	48	C2H2ClO+
91.0542	346	C7H7+
105.0699	54	C8H9+
108.0807	229	C7H10N+
109.0648	69	C7H9O+
117.0698	227	C9H9+
119.0855	225	C9H11+
120.0808	235	C8H10N+
132.0808	243	C9H10N+
133.0886	662	C9H11N+
134.0964	999	C9H12N+
135.0805	29	C9H11O+
143.073	107	C10H9N+
144.0807	205	C10H10N+
145.0886	162	C10H11N+
146.0964	493	C10H12N+
147.1043	64	C10H13N+
148.0756	25	C9H10NO+
148.112	111	C10H14N+
158.0964	211	C11H12N+
159.1043	147	C11H13N+
160.1121	448	C11H14N+
162.0914	85	C10H12NO+
174.128	26	C12H16N+
176.1433	938	C12H18N+
184.0524	234	C9H11ClNO+
188.1072	25	C12H14NO+
194.0731	39	C11H13ClN+
212.0837	32	C11H15ClNO+
252.1151	73	C14H19ClNO+
