Mass spectrum: 3-Iodopropynyl butylcarbamate; LC-ESI-ITFT; MS2; CE: 35; R=15000; [M+H]+
Name: 3-Iodopropynyl butylcarbamate
Name: 3-Iodoprop-2-ynyl N-butylcarbamate
Formula: C8H12INO2
Exact mass: 280.9913
SMILES: CCCCNC(=O)OCC#CI
InChI: InChI=1S/C8H12INO2/c1-2-3-6-10-8(11)12-7-4-5-9/h2-3,6-7H2,1H3,(H,10,11)
Instrument: LTQ Orbitrap XL Thermo Scientific
Instrument type: LC-ESI-ITFT
Ms type: MS2
Ion mode: POSITIVE
Ionization: ESI
Fragmentation mode: CID
Collision energy: 35 (nominal)
Resolution: 15000
Column name: Kinetex Core-Shell C18 2.6 um, 3.0 x 100 mm, Phenomenex
Retention time: 23.011 min
Base peak: 163.1333
Precursor m/z: 281.9986
Precursor type: [M+H]+
m/z	relative intensity	assigned
96.0811	63	C6H10N+
100.0761	36	C5H10NO+
110.0969	36	C7H12N+
116.0709	73	C5H10NO2+
154.9358	58	C2H4I+
155.0946	688	C8H13NO2+
164.9202	947	C3H2I+
181.9469	95	C3H5IN+
182.9308	515	C3H4IO+
195.9625	108	C4H7IN+
238.0096	999	C7H13IN+
251.9888	48	C7H11INO+
