Mass spectrum: Bupirimate; LC-ESI-ITFT; MS2; CE: 40%; R=15000; [M+H]+
Name: Bupirimate
Name: [5-butyl-2-(ethylamino)-6-methylpyrimidin-4-yl] N,N-dimethylsulfamate
Formula: C13H24N4O3S
Exact mass: 316.156911628
SMILES: CCCCC1=C(C)N=C(NCC)N=C1OS(=O)(=O)N(C)C
InChI: InChI=1S/C13H24N4O3S/c1-6-8-9-11-10(3)15-13(14-7-2)16-12(11)20-21(18,19)17(4)5/h6-9H2,1-5H3,(H,14,15,16)
Instrument: LTQ Orbitrap XL Thermo Scientific
Instrument type: LC-ESI-ITFT
Ms type: MS2
Ion mode: POSITIVE
Ionization: ESI
Fragmentation mode: HCD
Collision energy: 40 % (nominal)
Resolution: 15000
Column name: Kinetex Evo C18 2.6 um 50 x 2.1 mm
Retention time: 10.823 min
Base peak: 317.1647
Precursor m/z: 317.1642
Precursor type: [M+H]+
Precursor intensity: 69431152
m/z	relative intensity	assigned
97.0398	6	C4H5N2O+
108.0113	666	C2H6NO2S+
110.0964	10	C7H12N+
137.1069	9	C8H13N2+
138.0662	10	C6H8N3O+
138.0916	6	C8H12NO+
139.0737	8	C6H9N3O+
140.1068	58	C8H14NO+
140.143	6	C9H18N+
148.0864	11	C8H10N3+
150.1025	277	C8H12N3+
151.1227	31	C9H15N2+
153.0893	8	C7H11N3O+
165.0897	8	C8H11N3O+
165.102	30	C9H13N2O+
165.1372	5	C2H21N4O2S+
166.0974	999	C8H12N3O+
167.1051	128	C8H13N3O+
180.1131	18	C9H14N3O+
180.1494	77	C10H18N3+
181.121	17	C9H15N3O+
192.1494	84	C11H18N3+
193.1334	65	C11H17N2O+
194.1287	82	C10H16N3O+
208.1443	463	C11H18N3O+
209.1521	135	C11H19N3O+
210.1599	723	C11H20N3O+
224.1755	37	C12H22N3O+
237.2072	374	C13H25N4+
244.0747	16	C9H14N3O3S+
254.0957	9	C11H16N3O2S+
272.1062	487	C11H18N3O3S+
317.1639	853	C13H25N4O3S+
