Mass spectrum: Benzocain; LC-ESI-ITFT; MS2; CE: 70%; R=15000; [M+H]+
Name: Benzocain
Name: Benzocaine
Name: ethyl 4-aminobenzoate
Formula: C9H11NO2
Exact mass: 165.078978592
SMILES: CCOC(=O)C1=CC=C(N)C=C1
InChI: InChI=1S/C9H11NO2/c1-2-12-9(11)7-3-5-8(10)6-4-7/h3-6H,2,10H2,1H3
Instrument: LTQ Orbitrap XL Thermo Scientific
Instrument type: LC-ESI-ITFT
Ms type: MS2
Ion mode: POSITIVE
Ionization: ESI
Fragmentation mode: HCD
Collision energy: 70 % (nominal)
Resolution: 15000
Column name: Kinetex Evo C18 2.6 um 50 x 2.1 mm
Retention time: 7.564 min
Base peak: 166.0867
Precursor m/z: 166.0863
Precursor type: [M+H]+
Precursor intensity: 35027256
m/z	relative intensity	assigned
65.0384	10	C5H5+
67.0541	3	C5H7+
77.0385	105	C6H5+
92.0496	65	C6H6N+
93.0574	36	C6H7N+
94.0651	892	C6H8N+
95.0491	18	C6H7O+
110.0601	5	C6H8NO+
120.0444	999	C7H6NO+
121.0281	1	C7H5O2+
137.0471	1	C7H7NO2+
138.055	368	C7H8NO2+
166.0862	6	C9H12NO2+
