Mass spectrum: 2-Isopropylthioxanthone; LC-ESI-ITFT; MS2; CE: 90%; R=15000; [M+H]+
Name: 2-Isopropylthioxanthone
Name: 2-propan-2-ylthioxanthen-9-one
Formula: C16H14OS
Exact mass: 254.076536068
SMILES: CC(C)C1=CC=C2SC3=C(C=CC=C3)C(=O)C2=C1
InChI: InChI=1S/C16H14OS/c1-10(2)11-7-8-15-13(9-11)16(17)12-5-3-4-6-14(12)18-15/h3-10H,1-2H3
Instrument: LTQ Orbitrap XL Thermo Scientific
Instrument type: LC-ESI-ITFT
Ms type: MS2
Ion mode: POSITIVE
Ionization: ESI
Fragmentation mode: HCD
Collision energy: 90 % (nominal)
Resolution: 15000
Column name: Kinetex Evo C18 2.6 um 50 x 2.1 mm
Retention time: 13.628 min
Base peak: 255.0845
Precursor m/z: 255.0838
Precursor type: [M+H]+
Precursor intensity: 10848133
m/z	relative intensity	assigned
105.0335	6	C7H5O+
141.0701	22	C11H9+
152.0623	37	C12H8+
180.0573	3	C13H8O+
181.0644	2	C13H9O+
183.0267	9	C12H7S+
184.0344	999	C12H8S+
185.0422	98	C12H9S+
196.0346	2	C13H8S+
197.0423	22	C13H9S+
211.0581	3	C14H11S+
212.0294	25	C13H8OS+
213.0372	846	C13H9OS+
225.0371	19	C14H9OS+
239.0528	104	C15H11OS+
240.0604	5	C15H12OS+
