Mass spectrum: Cyprodinil; LC-ESI-ITFT; MS2; CE: 80%; R=15000; [M+H]+
Name: Cyprodinil
Name: 4-cyclopropyl-6-methyl-N-phenylpyrimidin-2-amine
Formula: C14H15N3
Exact mass: 225.12659748
SMILES: CC1=NC(NC2=CC=CC=C2)=NC(=C1)C1CC1
InChI: InChI=1S/C14H15N3/c1-10-9-13(11-7-8-11)17-14(15-10)16-12-5-3-2-4-6-12/h2-6,9,11H,7-8H2,1H3,(H,15,16,17)
Instrument: LTQ Orbitrap XL Thermo Scientific
Instrument type: LC-ESI-ITFT
Ms type: MS2
Ion mode: POSITIVE
Ionization: ESI
Fragmentation mode: HCD
Collision energy: 80 % (nominal)
Resolution: 15000
Column name: Kinetex Evo C18 2.6 um 50 x 2.1 mm
Retention time: 10.275 min
Base peak: 226.1345
Precursor m/z: 226.1339
Precursor type: [M+H]+
Precursor intensity: 33125074
m/z	relative intensity	assigned
65.0384	47	C5H5+
67.0541	59	C5H7+
68.0493	32	C4H6N+
77.0385	53	C6H5+
79.0542	88	C6H7+
80.0494	47	C5H6N+
81.0698	67	C6H9+
82.0651	35	C5H8N+
83.0603	7	C4H7N2+
84.0808	19	C5H10N+
89.0388	6	C7H5+
91.0542	214	C7H7+
92.0495	145	C6H6N+
92.062	31	C7H8+
93.0573	464	C6H7N+
94.0651	42	C6H8N+
104.0495	29	C7H6N+
105.0448	29	C6H5N2+
106.0651	235	C7H8N+
107.0602	11	C6H7N2+
107.0728	12	C7H9N+
108.0681	50	C6H8N2+
108.0808	501	C7H10N+
109.076	35	C6H9N2+
109.0888	12	C7H11N+
115.0548	10	C9H7+
116.0494	62	C8H6N+
117.0445	8	C7H5N2+
117.0573	40	C8H7N+
118.0525	150	C7H6N2+
118.0651	73	C8H8N+
119.0603	216	C7H7N2+
123.0917	22	C7H11N2+
128.0494	5	C9H6N+
130.0652	8	C9H8N+
131.0604	63	C8H7N2+
132.0683	96	C8H8N2+
133.076	229	C8H9N2+
141.07	5	C11H9+
142.065	33	C10H8N+
143.0604	91	C9H7N2+
143.0726	7	C10H9N+
144.0559	7	C8H6N3+
144.0808	124	C10H10N+
145.076	46	C9H9N2+
148.0869	4	C8H10N3+
156.0683	7	C10H8N2+
156.0802	4	C11H10N+
157.0761	16	C10H9N2+
158.0965	6	C11H12N+
159.0917	54	C10H11N2+
165.0699	6	C13H9+
167.0605	11	C11H7N2+
167.0729	31	C12H9N+
168.0682	17	C11H8N2+
168.0808	43	C12H10N+
169.0761	25	C11H9N2+
170.084	7	C11H10N2+
171.0919	9	C11H11N2+
181.0763	13	C12H9N2+
182.0837	20	C12H10N2+
182.0967	6	C13H12N+
183.0792	16	C11H9N3+
183.0918	24	C12H11N2+
184.087	75	C11H10N3+
184.1125	4	C13H14N+
185.1074	55	C12H13N2+
191.0731	4	C14H9N+
192.0809	6	C14H10N+
193.0762	25	C13H9N2+
193.0887	5	C14H11N+
194.0839	86	C13H10N2+
196.0872	7	C12H10N3+
197.0945	14	C12H11N3+
198.1027	31	C12H12N3+
199.1097	8	C12H13N3+
199.1234	8	C13H15N2+
207.0918	36	C14H11N2+
208.0995	30	C14H12N2+
209.1073	83	C14H13N2+
210.1026	137	C13H12N3+
211.1105	33	C13H13N3+
224.118	42	C14H14N3+
226.1339	999	C14H16N3+
