Mass spectrum: Flumethasone; LC-ESI-ITFT; MS2; CE: 60%; R=15000; [M+H]+
Name: Flumethasone
Name: (6S,8S,9R,10S,11S,13S,14S,16R,17R)-6,9-difluoro-11,17-dihydroxy-17-(2-hydroxyacetyl)-10,13,16-trimethyl-6,7,8,11,12,14,15,16-octahydrocyclopenta[a]phenanthren-3-one
Formula: C22H28F2O5
Exact mass: 410.190480436
SMILES: [H][C@@]12C[C@@H](C)[C@](O)(C(=O)CO)[C@@]1(C)C[C@H](O)[C@@]1(F)[C@@]2([H])C[C@H](F)C2=CC(=O)C=C[C@]12C
InChI: InChI=1S/C22H28F2O5/c1-11-6-13-14-8-16(23)15-7-12(26)4-5-19(15,2)21(14,24)17(27)9-20(13,3)22(11,29)18(28)10-25/h4-5,7,11,13-14,16-17,25,27,29H,6,8-10H2,1-3H3/t11-,13+,14+,16+,17+,19+,20+,21+,22+/m1/s1
Instrument: LTQ Orbitrap XL Thermo Scientific
Instrument type: LC-ESI-ITFT
Ms type: MS2
Ion mode: POSITIVE
Ionization: ESI
Fragmentation mode: HCD
Collision energy: 60 % (nominal)
Resolution: 15000
Column name: Kinetex Evo C18 2.6 um 50 x 2.1 mm
Retention time: 10.185 min
Base peak: 411.1975
Precursor m/z: 411.1978
Precursor type: [M+H]+
Precursor intensity: 8579514
m/z	relative intensity	assigned
107.0855	144	C8H11+
121.065	999	C8H9O+
135.0806	234	C9H11O+
145.0651	127	C10H9O+
147.0807	112	C10H11O+
159.0809	132	C11H11O+
161.0965	142	C11H13O+
171.0806	183	C12H11O+
235.1119	335	C17H15O+
237.1267	76	C17H17O+
253.1222	193	C17H17O2+
