Mass spectrum: 2-(2-(Chlorophenyl)amino)benzaldehyde; LC-ESI-ITFT; MS2; CE: 50%; R=15000; [M+H]+
Name: 2-(2-(Chlorophenyl)amino)benzaldehyde
Name: 2-((2-Chlorophenyl)amino)benzaldehyde
Name: 2-(2-chloroanilino)benzaldehyde
Formula: C13H10ClNO
Exact mass: 231.04509162
SMILES: ClC1=CC=CC=C1NC1=C(C=O)C=CC=C1
InChI: InChI=1S/C13H10ClNO/c14-11-6-2-4-8-13(11)15-12-7-3-1-5-10(12)9-16/h1-9,15H
Instrument: LTQ Orbitrap XL Thermo Scientific
Instrument type: LC-ESI-ITFT
Ms type: MS2
Ion mode: POSITIVE
Ionization: ESI
Fragmentation mode: HCD
Collision energy: 50 % (nominal)
Resolution: 15000
Column name: Kinetex Evo C18 2.6 um 50 x 2.1 mm
Retention time: 12.387 min
Base peak: 116.9862
Precursor m/z: 232.0524
Precursor type: [M+H]+
Precursor intensity: 1211254.62
m/z	relative intensity	assigned
169.0888	1	C12H11N+
178.0654	2	C13H8N+
180.0814	70	C13H10N+
196.0763	9	C13H10NO+
197.0845	4	C13H11NO+
214.0424	999	C13H9ClN+
232.0533	2	C13H11ClNO+
