Mass spectrum: Pendimethalin; LC-ESI-ITFT; MS2; CE: 50%; R=15000; [M+H]+
Name: Pendimethalin
Name: 3,4-dimethyl-2,6-dinitro-N-pentan-3-ylaniline
Formula: C13H19N3O4
Exact mass: 281.137556088
SMILES: CCC(CC)NC1=C(C(C)=C(C)C=C1[N+]([O-])=O)[N+]([O-])=O
InChI: InChI=1S/C13H19N3O4/c1-5-10(6-2)14-12-11(15(17)18)7-8(3)9(4)13(12)16(19)20/h7,10,14H,5-6H2,1-4H3
Instrument: LTQ Orbitrap XL Thermo Scientific
Instrument type: LC-ESI-ITFT
Ms type: MS2
Ion mode: POSITIVE
Ionization: ESI
Fragmentation mode: HCD
Collision energy: 50 % (nominal)
Resolution: 15000
Column name: Kinetex Evo C18 2.6 um 50 x 2.1 mm
Retention time: 13.718 min
Base peak: 282.1452
Precursor m/z: 282.1448
Precursor type: [M+H]+
Precursor intensity: 5672277.5
m/z	relative intensity	assigned
53.0385	26	C4H5+
66.0338	55	C4H4N+
66.0465	24	C5H6+
68.0494	21	C4H6N+
71.0856	192	C5H11+
78.034	65	C5H4N+
80.0496	120	C5H6N+
91.0418	295	C6H5N+
92.0497	73	C6H6N+
93.0449	28	C5H5N2+
103.0418	44	C7H5N+
105.045	53	C6H5N2+
107.0607	25	C6H7N2+
108.0447	76	C6H6NO+
117.0449	33	C7H5N2+
118.0528	465	C7H6N2+
119.0606	212	C7H7N2+
120.0447	47	C7H6NO+
121.0402	25	C6H5N2O+
126.0549	67	C6H8NO2+
130.0526	51	C8H6N2+
131.0478	38	C7H5N3+
131.0608	54	C8H7N2+
134.0603	44	C8H8NO+
135.0555	48	C7H7N2O+
136.0631	40	C7H8N2O+
147.0557	250	C8H7N2O+
148.0505	21	C7H6N3O+
148.0634	387	C8H8N2O+
149.0588	190	C7H7N3O+
160.0509	58	C8H6N3O+
164.0587	99	C8H8N2O2+
165.0662	67	C8H9N2O2+
166.0608	25	C7H8N3O2+
166.0735	35	C8H10N2O2+
176.046	22	C8H6N3O2+
177.0537	268	C8H7N3O2+
178.0615	236	C8H8N3O2+
194.0564	999	C8H8N3O3+
195.0642	340	C8H9N3O3+
212.067	805	C8H10N3O4+
