Mass spectrum: Cyclophosphamide; LC-ESI-ITFT; MS2; CE: 20%; R=15000; [M+H]+
Name: Cyclophosphamide
Name: N,N-bis(2-chloroethyl)-2-oxo-1,3,2lambda5-oxazaphosphinan-2-amine
Formula: C7H15Cl2N2O2P
Exact mass: 260.02481971
SMILES: ClCCN(CCCl)P1(=O)NCCCO1
InChI: InChI=1S/C7H15Cl2N2O2P/c8-2-5-11(6-3-9)14(12)10-4-1-7-13-14/h1-7H2,(H,10,12)
Instrument: LTQ Orbitrap XL Thermo Scientific
Instrument type: LC-ESI-ITFT
Ms type: MS2
Ion mode: POSITIVE
Ionization: ESI
Fragmentation mode: HCD
Collision energy: 20 % (nominal)
Resolution: 15000
Column name: Kinetex Evo C18 2.6 um 50 x 2.1 mm
Retention time: 7.509 min
Base peak: 261.0333
Precursor m/z: 261.0321
Precursor type: [M+H]+
Precursor intensity: 6051350
m/z	relative intensity	assigned
106.0421	8	ClH12N2P+
140.0033	6	Cl2H11N2P+
142.0193	3	Cl2H13N2P+
233.0015	7	C5H12Cl2N2O2P+
261.0326	999	C7H16Cl2N2O2P+
