Mass spectrum: Propranolol; LC-ESI-ITFT; MS2; CE: 90%; R=15000; [M+H]+
Name: Propranolol
Name: 1-naphthalen-1-yloxy-3-(propan-2-ylamino)propan-2-ol
Formula: C16H21NO2
Exact mass: 259.157228912
SMILES: CC(C)NCC(O)COC1=C2C=CC=CC2=CC=C1
InChI: InChI=1S/C16H21NO2/c1-12(2)17-10-14(18)11-19-16-9-5-7-13-6-3-4-8-15(13)16/h3-9,12,14,17-18H,10-11H2,1-2H3
Instrument: LTQ Orbitrap XL Thermo Scientific
Instrument type: LC-ESI-ITFT
Ms type: MS2
Ion mode: POSITIVE
Ionization: ESI
Fragmentation mode: HCD
Collision energy: 90 % (nominal)
Resolution: 15000
Column name: Kinetex Evo C18 2.6 um 50 x 2.1 mm
Retention time: 7.010 min
Base peak: 180.1752
Precursor m/z: 260.1645
Precursor type: [M+H]+
Precursor intensity: 106144.84
m/z	relative intensity	assigned
56.0492	999	C3H6N+
58.0649	441	C3H8N+
72.0807	517	C4H10N+
74.06	638	C3H8NO+
77.0387	16	C6H5+
84.0808	72	C5H10N+
91.0541	19	C7H7+
98.0964	75	C6H12N+
100.1121	287	C6H14N+
115.0543	284	C9H7+
116.107	101	C6H14NO+
117.0699	87	C9H9+
127.0544	43	C10H7+
128.0621	291	C10H8+
129.0699	737	C10H9+
141.0699	90	C11H9+
143.049	16	C10H7O+
144.0567	25	C10H8O+
145.0649	196	C10H9O+
152.0622	21	C12H8+
153.0699	343	C12H9+
154.0778	139	C12H10+
155.0856	523	C12H11+
157.0648	219	C11H9O+
165.0699	287	C13H9+
168.0571	95	C12H8O+
181.0649	17	C13H9O+
183.0806	15	C13H11O+
