Mass spectrum: 4-Isopropylaniline; LC-ESI-ITFT; MS2; CE: 80; R=15000; [M+H]+
Name: 4-Isopropylaniline
Name: 4-Propan-2-ylaniline
Formula: C9H13N
Exact mass: 135.1048
SMILES: CC(C)C1=CC=C(N)C=C1
InChI: InChI=1S/C9H13N/c1-7(2)8-3-5-9(10)6-4-8/h3-7H,10H2,1-2H3
Instrument: LTQ Orbitrap XL Thermo Scientific
Instrument type: LC-ESI-ITFT
Ms type: MS2
Ion mode: POSITIVE
Ionization: ESI
Fragmentation mode: HCD
Collision energy: 80 (nominal)
Resolution: 15000
Column name: Kinetex Core-Shell C18 2.6 um, 3.0 x 100 mm, Phenomenex
Retention time: 17.002 min
Base peak: 136.1125
Precursor m/z: 136.1121
Precursor type: [M+H]+
m/z	relative intensity	assigned
79.0546	34	C6H7+
91.0546	589	C7H7+
93.0578	22	C6H7N+
94.0654	999	C6H8N+
103.0547	61	C8H7+
104.0625	133	C8H8+
105.0338	2	C7H5O+
117.0704	82	C9H9+
119.086	25	C9H11+
120.0813	67	C8H10N+
121.0891	134	C8H11N+
136.1127	841	C9H14N+
147.0924	67	C9H11N2+
