Mass spectrum: Diazinon; LC-ESI-ITFT; MS2; CE: 60%; R=15000; [M+H]+
Name: Diazinon
Name: diethoxy-(6-methyl-2-propan-2-ylpyrimidin-4-yl)oxy-sulfanylidene-lambda5-phosphane
Formula: C12H21N2O3PS
Exact mass: 304.101050162
SMILES: CCOP(=S)(OCC)OC1=CC(C)=NC(=N1)C(C)C
InChI: InChI=1S/C12H21N2O3PS/c1-6-15-18(19,16-7-2)17-11-8-10(5)13-12(14-11)9(3)4/h8-9H,6-7H2,1-5H3
Instrument: LTQ Orbitrap XL Thermo Scientific
Instrument type: LC-ESI-ITFT
Ms type: MS2
Ion mode: POSITIVE
Ionization: ESI
Fragmentation mode: HCD
Collision energy: 60 % (nominal)
Resolution: 15000
Column name: Kinetex Evo C18 2.6 um 50 x 2.1 mm
Retention time: 12.492 min
Base peak: 305.1093
Precursor m/z: 305.1083
Precursor type: [M+H]+
Precursor intensity: 47252096
m/z	relative intensity	assigned
70.065	25	C4H8N+
80.9737	4	H2O3P+
84.0444	81	C4H6NO+
96.9508	276	H2O2PS+
98.0964	5	C6H12N+
100.0216	108	C4H6NS+
109.005	43	C2H6O3P+
110.9665	5	CH4O2PS+
114.9614	202	H4O3PS+
124.9822	16	C2H6O2PS+
128.9771	2	CH6O3PS+
142.9929	1	C2H8O3PS+
152.0532	1	C4H13N2PS+
153.1024	562	C8H13N2O+
154.0561	3	C7H10N2S+
167.0642	4	C8H11N2S+
169.0795	999	C8H13N2S+
181.1339	5	C10H17N2O+
197.1105	3	C10H17N2S+
231.0351	3	C8H12N2O2PS+
