Mass spectrum: N-Isopropyl-N-phenyl-p-phenylenediamine; LC-ESI-ITFT; MS2; CE: 55; R=15000; [M+H]+
Name: N-Isopropyl-N-phenyl-p-phenylenediamine
Name: 1-N-Phenyl-4-N-propan-2-ylbenzene-1,4-diamine
Formula: C15H18N2
Exact mass: 226.1470
SMILES: CC(C)Nc1ccc(Nc2ccccc2)cc1
InChI: InChI=1S/C15H18N2/c1-12(2)16-14-8-10-15(11-9-14)17-13-6-4-3-5-7-13/h3-12,16-17H,1-2H3
Instrument: LTQ Orbitrap XL Thermo Scientific
Instrument type: LC-ESI-ITFT
Ms type: MS2
Ion mode: POSITIVE
Ionization: ESI
Fragmentation mode: HCD
Collision energy: 55 (nominal)
Resolution: 15000
Column name: Kinetex Core-Shell C18 2.6 um, 3.0 x 100 mm, Phenomenex
Retention time: 12.896 min
Base peak: 227.1549
Precursor m/z: 227.1543
Precursor type: [M+H]+
m/z	relative intensity	assigned
80.0497	3	C5H6N+
81.0577	4	C5H7N+
103.0547	11	C8H7+
107.0728	1	C7H9N+
120.0812	999	C8H10N+
129.0705	24	C10H9+
143.0861	4	C11H11+
145.0893	2	C10H11N+
157.1019	2	C12H13+
165.0706	2	C13H9+
166.0778	1	C13H10+
178.0785	87	C14H10+
180.0816	36	C13H10N+
181.1018	3	C14H13+
182.0973	9	C13H12N+
183.1177	5	C14H15+
192.0943	3	C15H12+
193.1021	115	C15H13+
194.0974	23	C14H12N+
195.1051	146	C14H13N+
210.1287	68	C15H16N+
227.1552	689	C15H19N2+
