Mass spectrum: Norfloxacin; LC-ESI-ITFT; MS2; CE: 60%; R=15000; [M+H]+
Name: Norfloxacin
Name: 1-ethyl-6-fluoro-4-oxo-7-piperazin-1-ylquinoline-3-carboxylic acid
Formula: C16H18FN3O3
Exact mass: 319.133219656
SMILES: CCN1C=C(C(O)=O)C(=O)C2=CC(F)=C(C=C12)N1CCNCC1
InChI: InChI=1S/C16H18FN3O3/c1-2-19-9-11(16(22)23)15(21)10-7-12(17)14(8-13(10)19)20-5-3-18-4-6-20/h7-9,18H,2-6H2,1H3,(H,22,23)
Instrument: LTQ Orbitrap XL Thermo Scientific
Instrument type: LC-ESI-ITFT
Ms type: MS2
Ion mode: POSITIVE
Ionization: ESI
Fragmentation mode: HCD
Collision energy: 60 % (nominal)
Resolution: 15000
Column name: Kinetex Evo C18 2.6 um 50 x 2.1 mm
Retention time: 4.133 min
Base peak: 320.1416
Precursor m/z: 320.1405
Precursor type: [M+H]+
Precursor intensity: 3012993.5
m/z	relative intensity	assigned
56.0494	9	C3H6N+
58.0651	6	C3H8N+
70.0652	53	C4H8N+
164.0513	9	C9H7FNO+
172.0759	15	C11H10NO+
177.0826	13	C10H10FN2+
185.0713	29	C11H9N2O+
187.067	11	C11H8FN2+
191.0619	32	C10H8FN2O+
191.0747	28	C11H10FNO+
192.07	15	C10H9FN2O+
192.0821	8	C11H11FNO+
198.0669	6	C8H9FN3O2+
199.0742	8	C11H9N3O+
199.0863	2	C12H11N2O+
201.1031	6	C12H13N2O+
203.062	99	C11H8FN2O+
204.0699	146	C11H9FN2O+
205.0777	398	C11H10FN2O+
206.0855	53	C11H11FN2O+
207.0932	32	C11H12FN2O+
212.0821	10	C9H11FN3O2+
213.1029	24	C10H14FN2O2+
214.0978	3	C12H12N3O+
215.0985	23	C13H12FN2+
217.0777	11	C12H10FN2O+
218.0854	38	C12H11FN2O+
219.0934	214	C12H12FN2O+
220.1006	7	C12H13FN2O+
227.1058	34	C13H13N3O+
227.1188	4	C11H16FN2O2+
230.0856	7	C13H11FN2O+
231.057	50	C12H8FN2O2+
231.0939	12	C13H12FN2O+
233.109	999	C13H14FN2O+
241.1217	5	C11H16FN3O2+
245.1093	11	C14H14FN2O+
247.1116	4	C13H14FN3O+
248.1196	7	C13H15FN3O+
256.145	73	C15H18N3O+
259.0886	11	C14H12FN2O2+
274.1356	18	C15H17FN3O+
276.1513	95	C15H19FN3O+
277.0987	4	C14H14FN2O3+
282.1242	39	C16H16N3O2+
300.1348	16	C16H18N3O3+
302.1305	158	C16H17FN3O2+
320.1411	97	C16H19FN3O3+
