Mass spectrum: 5-Methyl-1H-benzotriazole; LC-ESI-ITFT; MS2; CE: 60%; R=15000; [M+H]+
Name: 5-Methyl-1H-benzotriazole
Name: 5-methyl-2H-benzotriazole
Formula: C7H7N3
Exact mass: 133.063997224
SMILES: CC1=CC=C2NN=NC2=C1
InChI: InChI=1S/C7H7N3/c1-5-2-3-6-7(4-5)9-10-8-6/h2-4H,1H3,(H,8,9,10)
Instrument: LTQ Orbitrap XL Thermo Scientific
Instrument type: LC-ESI-ITFT
Ms type: MS2
Ion mode: POSITIVE
Ionization: ESI
Fragmentation mode: HCD
Collision energy: 60 % (nominal)
Resolution: 15000
Column name: Kinetex Evo C18 2.6 um 50 x 2.1 mm
Retention time: 6.753 min
Base peak: 134.0717
Precursor m/z: 134.0713
Precursor type: [M+H]+
Precursor intensity: 35297072
m/z	relative intensity	assigned
77.0386	40	C6H5+
79.0542	116	C6H7+
89.0386	1	C7H5+
105.0448	7	C6H5N2+
106.0652	84	C7H8N+
134.0713	999	C7H8N3+
