Mass spectrum: Benzophenone-4; LC-ESI-ITFT; MS2; CE: 55; R=15000; [M-H]-
Name: Benzophenone-4
Name: Sulisobenzone
Name: 5-Benzoyl-4-hydroxy-2-methoxybenzenesulfonic acid
Formula: C14H12O6S
Exact mass: 308.0355
SMILES: COC1=CC(O)=C(C=C1S(O)(=O)=O)C(=O)C1=CC=CC=C1
InChI: InChI=1S/C14H12O6S/c1-20-12-8-11(15)10(7-13(12)21(17,18)19)14(16)9-5-3-2-4-6-9/h2-8,15H,1H3,(H,17,18,19)
Instrument: LTQ Orbitrap XL Thermo Scientific
Instrument type: LC-ESI-ITFT
Ms type: MS2
Ion mode: NEGATIVE
Ionization: ESI
Fragmentation mode: CID
Collision energy: 55 (nominal)
Resolution: 15000
Column name: Kinetex Core-Shell C18 2.6 um, 3.0 x 100 mm, Phenomenex
Retention time: 20.693 min
Base peak: 212.9994
Precursor m/z: 307.0282
Precursor type: [M-H]-
m/z	relative intensity	assigned
210.0323	268	C13H6O3-
211.0401	39	C13H7O3-
227.0713	999	C14H11O3-
228.043	162	C13H8O4-
228.9812	93	C8H5O6S-
264.0101	44	C12H8O5S-
290.9966	154	C13H7O6S-
292.0046	156	C13H8O6S-
