Mass spectrum: ISO E Super; LC-ESI-ITFT; MS2; CE: 50%; R=15000; [M+H]+
Name: ISO E Super
Name: 1-(2,3,8,8-Tetramethyl-1,2,3,4,5,6,7,8-octahydronaphthalen-2-yl)ethanone
Name: 1-(2,3,8,8-tetramethyl-1,3,4,5,6,7-hexahydronaphthalen-2-yl)ethanone
Formula: C16H26O
Exact mass: 234.198365452
SMILES: CC1CC2=C(CC1(C)C(C)=O)C(C)(C)CCC2
InChI: InChI=1S/C16H26O/c1-11-9-13-7-6-8-15(3,4)14(13)10-16(11,5)12(2)17/h11H,6-10H2,1-5H3
Instrument: LTQ Orbitrap XL Thermo Scientific
Instrument type: LC-ESI-ITFT
Ms type: MS2
Ion mode: POSITIVE
Ionization: ESI
Fragmentation mode: HCD
Collision energy: 50 % (nominal)
Resolution: 15000
Column name: Kinetex Evo C18 2.6 um 50 x 2.1 mm
Retention time: 13.900 min
Base peak: 116.986
Precursor m/z: 235.2056
Precursor type: [M+H]+
Precursor intensity: 1069945.38
m/z	relative intensity	assigned
55.0541	124	C4H7+
57.0697	41	C4H9+
59.049	372	C3H7O+
67.0542	64	C5H7+
69.0699	130	C5H9+
81.0699	349	C6H9+
83.0855	125	C6H11+
85.0649	68	C5H9O+
93.07	97	C7H9+
95.0857	999	C7H11+
97.1013	183	C7H13+
99.0808	64	C6H11O+
105.0699	110	C8H9+
107.0857	394	C8H11+
109.1013	739	C8H13+
111.0805	31	C7H11O+
113.0961	28	C7H13O+
119.0857	392	C9H11+
121.1013	523	C9H13+
123.0806	37	C8H11O+
123.117	323	C9H15+
133.1013	390	C10H13+
135.117	373	C10H15+
137.1326	88	C10H17+
139.1119	180	C9H15O+
147.117	364	C11H15+
149.1326	123	C11H17+
153.1276	161	C10H17O+
161.1327	381	C12H17+
163.1482	113	C12H19+
165.1276	267	C11H17O+
175.1483	417	C13H19+
177.164	560	C13H21+
179.1431	57	C12H19O+
189.1637	65	C14H21+
191.1796	443	C14H23+
193.1587	58	C13H21O+
193.1955	96	C14H25+
217.1952	923	C16H25+
235.2058	959	C16H27O+
