Mass spectrum: Metobromuron; LC-ESI-ITFT; MS2; CE: 10%; R=15000; [M+H]+
Name: Metobromuron
Name: 3-(4-bromophenyl)-1-methoxy-1-methylurea
Formula: C9H11BrN2O2
Exact mass: 258.000389692
SMILES: CON(C)C(=O)NC1=CC=C(Br)C=C1
InChI: InChI=1S/C9H11BrN2O2/c1-12(14-2)9(13)11-8-5-3-7(10)4-6-8/h3-6H,1-2H3,(H,11,13)
Instrument: LTQ Orbitrap XL Thermo Scientific
Instrument type: LC-ESI-ITFT
Ms type: MS2
Ion mode: POSITIVE
Ionization: ESI
Fragmentation mode: HCD
Collision energy: 10 % (nominal)
Resolution: 15000
Column name: Kinetex Evo C18 2.6 um 50 x 2.1 mm
Retention time: 9.593 min
Base peak: 259.0086
Precursor m/z: 259.0077
Precursor type: [M+H]+
Precursor intensity: 11967755
m/z	relative intensity	assigned
62.0598	12	C2H8NO+
148.0631	38	C8H8N2O+
169.9601	19	C6H5BrN+
259.0077	999	C9H12BrN2O2+
