Mass spectrum: Ciprofloxacin; LC-ESI-ITFT; MS2; CE: 40%; R=15000; [M+H]+
Name: Ciprofloxacin
Name: 1-cyclopropyl-6-fluoro-4-oxo-7-piperazin-1-ylquinoline-3-carboxylic acid
Formula: C17H18FN3O3
Exact mass: 331.133219656
SMILES: OC(=O)C1=CN(C2CC2)C2=C(C=C(F)C(=C2)N2CCNCC2)C1=O
InChI: InChI=1S/C17H18FN3O3/c18-13-7-11-14(8-15(13)20-5-3-19-4-6-20)21(10-1-2-10)9-12(16(11)22)17(23)24/h7-10,19H,1-6H2,(H,23,24)
Instrument: LTQ Orbitrap XL Thermo Scientific
Instrument type: LC-ESI-ITFT
Ms type: MS2
Ion mode: POSITIVE
Ionization: ESI
Fragmentation mode: HCD
Collision energy: 40 % (nominal)
Resolution: 15000
Column name: Kinetex Evo C18 2.6 um 50 x 2.1 mm
Retention time: 5.188 min
Base peak: 218.0851
Precursor m/z: 332.1405
Precursor type: [M+H]+
Precursor intensity: 1285445.5
m/z	relative intensity	assigned
70.0653	22	C4H8N+
203.0625	26	C11H8FN2O+
204.0699	47	C11H9FN2O+
205.0779	48	C11H10FN2O+
217.0778	8	C12H10FN2O+
218.0852	9	C12H11FN2O+
219.0931	15	C12H12FN2O+
227.1062	7	C13H13N3O+
231.0936	93	C13H12FN2O+
232.0876	8	C17H12O+
240.1126	10	C14H14N3O+
245.1092	723	C14H14FN2O+
268.1452	125	C13H19FN3O2+
286.1362	41	C16H17FN3O+
288.1515	999	C16H19FN3O+
314.1307	240	C17H17FN3O2+
332.1412	292	C17H19FN3O3+
