Mass spectrum: Pioglitazone; LC-ESI-ITFT; MS2; CE: 40%; R=15000; [M+H]+
Name: Pioglitazone
Name: 5-[[4-[2-(5-ethylpyridin-2-yl)ethoxy]phenyl]methyl]-1,3-thiazolidine-2,4-dione
Formula: C19H20N2O3S
Exact mass: 356.1194635
SMILES: CCC1=CN=C(CCOC2=CC=C(CC3SC(=O)NC3=O)C=C2)C=C1
InChI: InChI=1S/C19H20N2O3S/c1-2-13-3-6-15(20-12-13)9-10-24-16-7-4-14(5-8-16)11-17-18(22)21-19(23)25-17/h3-8,12,17H,2,9-11H2,1H3,(H,21,22,23)
Instrument: LTQ Orbitrap XL Thermo Scientific
Instrument type: LC-ESI-ITFT
Ms type: MS2
Ion mode: POSITIVE
Ionization: ESI
Fragmentation mode: HCD
Collision energy: 40 % (nominal)
Resolution: 15000
Column name: Kinetex Evo C18 2.6 um 50 x 2.1 mm
Retention time: 7.985 min
Base peak: 357.1278
Precursor m/z: 357.1267
Precursor type: [M+H]+
Precursor intensity: 30617210
m/z	relative intensity	assigned
119.0729	3	C8H9N+
120.0808	7	C8H10N+
121.0885	4	C8H11N+
134.0965	999	C9H12N+
135.104	205	C9H13N+
240.1387	5	C16H18NO+
241.1464	13	C16H19NO+
286.1258	5	C17H20NOS+
314.121	1	C18H20NO2S+
357.1267	315	C19H21N2O3S+
