Mass spectrum: Norethisterone / norethindrone; LC-ESI-ITFT; MS2; CE: 55; R=15000; [M+H]+
Name: Norethisterone / norethindrone
Name: Norethindrone
Name: (8R,9S,10R,13S,14S,17R)-17-Ethynyl-17-hydroxy-13-methyl-1,2,6,7,8,9,10,11,12,14,15,16-dodecahydrocyclopenta[a]phenanthren-3-one
Formula: C20H26O2
Exact mass: 298.1933
SMILES: C[C@]12CC[C@H]3[C@@H](CCC4=CC(=O)CC[C@H]34)[C@@H]1CC[C@@]2(O)C#C
InChI: InChI=1S/C20H26O2/c1-3-20(22)11-9-18-17-6-4-13-12-14(21)5-7-15(13)16(17)8-10-19(18,20)2/h1,12,15-18,22H,4-11H2,2H3/t15-,16+,17+,18-,19-,20-/m0/s1
Instrument: LTQ Orbitrap XL Thermo Scientific
Instrument type: LC-ESI-ITFT
Ms type: MS2
Ion mode: POSITIVE
Ionization: ESI
Fragmentation mode: CID
Collision energy: 55 (nominal)
Resolution: 15000
Column name: Kinetex Core-Shell C18 2.6 um, 3.0 x 100 mm, Phenomenex
Retention time: 24.366 min
Base peak: 287.1996
Precursor m/z: 299.2006
Precursor type: [M+H]+
m/z	relative intensity	assigned
91.0541	61	C7H7+
93.0697	29	C7H9+
95.0853	29	C7H11+
97.0648	9	C6H9O+
105.0697	102	C8H9+
107.0489	56	C7H7O+
107.0852	46	C8H11+
109.0646	135	C7H9O+
109.1009	18	C8H13+
111.0804	34	C7H11O+
115.054	27	C9H7+
117.0697	57	C9H9+
119.0853	192	C9H11+
121.0646	30	C8H9O+
121.101	43	C9H13+
123.0803	41	C8H11O+
123.117	6	C9H15+
128.0621	20	C10H8+
129.0697	102	C10H9+
130.0776	8	C10H10+
131.0853	207	C10H11+
133.0647	32	C9H9O+
133.101	113	C10H13+
135.0803	121	C9H11O+
135.1166	41	C10H15+
137.0959	22	C9H13O+
141.0697	57	C11H9+
143.0853	213	C11H11+
145.0646	22	C10H9O+
145.101	357	C11H13+
147.0803	66	C10H11O+
147.1166	86	C11H15+
149.0959	105	C10H13O+
149.1324	25	C11H17+
151.1113	5	C10H15O+
154.0774	7	C12H10+
155.0853	109	C12H11+
157.0646	46	C11H9O+
157.101	203	C12H13+
159.0803	83	C11H11O+
159.1167	147	C12H15+
161.0959	84	C11H13O+
161.1321	30	C12H17+
163.1115	100	C11H15O+
165.0699	10	C13H9+
167.0853	89	C13H11+
169.101	297	C13H13+
171.08	24	C12H11O+
171.1166	446	C13H15+
173.096	65	C12H13O+
173.1323	220	C13H17+
175.1116	93	C12H15O+
175.1478	12	C13H19+
177.1272	24	C12H17O+
179.0853	35	C14H11+
181.1009	205	C14H13+
183.1166	264	C14H15+
185.0958	189	C13H13O+
185.1322	208	C14H17+
187.1115	141	C13H15O+
187.1481	28	C14H19+
189.1273	91	C13H17O+
191.143	23	C13H19O+
192.0931	7	C15H12+
193.101	82	C15H13+
195.1166	222	C15H15+
197.0959	34	C14H13O+
197.1322	249	C15H17+
199.1115	122	C14H15O+
199.1479	144	C15H19+
201.1272	101	C14H17O+
201.1632	18	C15H21+
203.1428	31	C14H19O+
205.1018	11	C16H13+
206.1083	10	C16H14+
207.1166	265	C16H15+
208.1247	15	C16H16+
209.1322	106	C16H17+
211.1116	89	C15H15O+
211.1479	229	C16H19+
213.1271	71	C15H17O+
213.1635	184	C16H21+
215.1428	55	C15H19O+
219.1165	20	C17H15+
220.1238	12	C17H16+
221.1321	489	C17H17+
222.1401	23	C17H18+
223.1478	664	C17H19+
225.1271	143	C16H17O+
225.1633	65	C17H21+
227.1426	61	C16H19O+
229.1583	64	C16H21O+
231.174	468	C16H23O+
233.1325	12	C18H17+
234.14	32	C18H18+
235.1479	289	C18H19+
237.1635	158	C18H21+
238.1712	12	C18H22+
239.1427	122	C17H19O+
239.1791	365	C18H23+
241.1584	152	C17H21O+
248.1556	63	C19H20+
252.1509	10	C18H20O+
253.1584	214	C18H21O+
253.1948	104	C19H25+
255.174	37	C18H23O+
257.1898	128	C18H25O+
261.1637	23	C20H21+
263.179	642	C20H23+
266.1668	19	C19H22O+
271.1696	15	C18H23O2+
281.1896	999	C20H25O+
