Mass spectrum: Climbazole; LC-ESI-ITFT; MS2; CE: 50%; R=15000; [M+H]+
Name: Climbazole
Name: 1-(4-chlorophenoxy)-1-imidazol-1-yl-3,3-dimethylbutan-2-one
Formula: C15H17ClN2O2
Exact mass: 292.097855464
SMILES: CC(C)(C)C(=O)C(OC1=CC=C(Cl)C=C1)N1C=CN=C1
InChI: InChI=1S/C15H17ClN2O2/c1-15(2,3)13(19)14(18-9-8-17-10-18)20-12-6-4-11(16)5-7-12/h4-10,14H,1-3H3
Instrument: LTQ Orbitrap XL Thermo Scientific
Instrument type: LC-ESI-ITFT
Ms type: MS2
Ion mode: POSITIVE
Ionization: ESI
Fragmentation mode: HCD
Collision energy: 50 % (nominal)
Resolution: 15000
Column name: Kinetex Evo C18 2.6 um 50 x 2.1 mm
Retention time: 8.794 min
Base peak: 293.1063
Precursor m/z: 293.1051
Precursor type: [M+H]+
Precursor intensity: 58793668
m/z	relative intensity	assigned
55.054	7	C4H7+
57.0696	293	C4H9+
67.054	18	C5H7+
69.0697	999	C5H9+
70.0775	41	C5H10+
82.0525	45	C4H6N2+
85.0649	4	C5H9O+
98.9997	6	C5H4Cl+
103.0309	10	C5H8Cl+
109.0396	60	C5H5N2O+
113.0151	18	C6H6Cl+
126.9945	104	C6H4ClO+
129.0101	182	C6H6ClO+
137.1073	20	C8H13N2+
139.0056	4	C6H4ClN2+
141.0101	274	C7H6ClO+
155.0258	116	C8H8ClO+
161.096	16	C11H13O+
166.1098	5	C9H14N2O+
190.0989	6	C12H14O2+
197.0728	359	C11H14ClO+
