Mass spectrum: Fenthion; LC-ESI-ITFT; MS2; CE: 30%; R=15000; [M+H]+
Name: Fenthion
Name: dimethoxy-(3-methyl-4-methylsulfanylphenoxy)-sulfanylidene-lambda5-phosphane
Formula: C10H15O3PS2
Exact mass: 278.02002297
SMILES: COP(=S)(OC)OC1=CC=C(SC)C(C)=C1
InChI: InChI=1S/C10H15O3PS2/c1-8-7-9(5-6-10(8)16-4)13-14(15,11-2)12-3/h5-7H,1-4H3
Instrument: LTQ Orbitrap XL Thermo Scientific
Instrument type: LC-ESI-ITFT
Ms type: MS2
Ion mode: POSITIVE
Ionization: ESI
Fragmentation mode: HCD
Collision energy: 30 % (nominal)
Resolution: 15000
Column name: Kinetex Evo C18 2.6 um 50 x 2.1 mm
Retention time: 11.161 min
Base peak: 279.0282
Precursor m/z: 279.0273
Precursor type: [M+H]+
Precursor intensity: 5177871
m/z	relative intensity	assigned
149.0237	7	C8H5O3+
153.0376	53	C8H9OS+
216.0015	53	C8H9O3PS+
231.0249	999	C9H12O3PS+
247.0019	23	C9H12O2PS2+
279.0283	198	C10H16O3PS2+
