Mass spectrum: Dexamethasone-21-acetate; LC-ESI-ITFT; MS2; CE: 40%; R=15000; [M+H]+
Name: Dexamethasone-21-acetate
Name: Dexamethasone acetate
Name: [2-[(8S,9R,10S,11S,13S,14S,16R,17R)-9-fluoro-11,17-dihydroxy-10,13,16-trimethyl-3-oxo-6,7,8,11,12,14,15,16-octahydrocyclopenta[a]phenanthren-17-yl]-2-oxoethyl] acetate
Formula: C24H31FO6
Exact mass: 434.210466932
SMILES: C[C@@H]1C[C@H]2[C@@H]3CCC4=CC(=O)C=C[C@]4(C)[C@@]3(F)[C@@H](O)C[C@]2(C)[C@@]1(O)C(=O)COC(C)=O
InChI: InChI=1S/C24H31FO6/c1-13-9-18-17-6-5-15-10-16(27)7-8-21(15,3)23(17,25)19(28)11-22(18,4)24(13,30)20(29)12-31-14(2)26/h7-8,10,13,17-19,28,30H,5-6,9,11-12H2,1-4H3/t13-,17+,18+,19+,21+,22+,23+,24+/m1/s1
Instrument: LTQ Orbitrap XL Thermo Scientific
Instrument type: LC-ESI-ITFT
Ms type: MS2
Ion mode: POSITIVE
Ionization: ESI
Fragmentation mode: HCD
Collision energy: 40 % (nominal)
Resolution: 15000
Column name: Kinetex Evo C18 2.6 um 50 x 2.1 mm
Retention time: 10.685 min
Base peak: 271.1694
Precursor m/z: 435.2177
Precursor type: [M+H]+
Precursor intensity: 4232385
m/z	relative intensity	assigned
121.0648	523	C8H9O+
147.081	663	C10H11O+
225.1265	999	C16H17O+
263.1427	485	C19H19O+
