Mass spectrum: 7-Diethylamino-4-methylcoumarin; LC-ESI-ITFT; MS2; CE: 40%; R=15000; [M+H]+
Name: 7-Diethylamino-4-methylcoumarin
Name: 7-(diethylamino)-4-methylchromen-2-one
Formula: C14H17NO2
Exact mass: 231.125928784
SMILES: CCN(CC)C1=CC=C2C(C)=CC(=O)OC2=C1
InChI: InChI=1S/C14H17NO2/c1-4-15(5-2)11-6-7-12-10(3)8-14(16)17-13(12)9-11/h6-9H,4-5H2,1-3H3
Instrument: LTQ Orbitrap XL Thermo Scientific
Instrument type: LC-ESI-ITFT
Ms type: MS2
Ion mode: POSITIVE
Ionization: ESI
Fragmentation mode: HCD
Collision energy: 40 % (nominal)
Resolution: 15000
Column name: Kinetex Evo C18 2.6 um 50 x 2.1 mm
Retention time: 11.301 min
Base peak: 232.134
Precursor m/z: 232.1332
Precursor type: [M+H]+
Precursor intensity: 49409348
m/z	relative intensity	assigned
96.0445	1	C5H6NO+
175.062	2	C10H9NO2+
175.0987	5	C11H13NO+
176.0702	2	C10H10NO2+
176.107	2	C11H14NO+
188.0707	22	C11H10NO2+
188.1427	2	C13H18N+
202.0869	3	C12H12NO2+
203.0942	473	C12H13NO2+
204.1019	193	C12H14NO2+
232.1332	999	C14H18NO2+
