Mass spectrum: Tris(1-chloro-2-propyl)phosphate; LC-ESI-ITFT; MS2; CE: 90%; R=15000; [M+H]+
Name: Tris(1-chloro-2-propyl)phosphate
Name: Tris(1-chloro-2-propyl) phosphate
Name: tris(1-chloropropan-2-yl) phosphate
Formula: C9H18Cl3O4P
Exact mass: 326.000828726
SMILES: CC(CCl)OP(=O)(OC(C)CCl)OC(C)CCl
InChI: InChI=1S/C9H18Cl3O4P/c1-7(4-10)14-17(13,15-8(2)5-11)16-9(3)6-12/h7-9H,4-6H2,1-3H3
Instrument: LTQ Orbitrap XL Thermo Scientific
Instrument type: LC-ESI-ITFT
Ms type: MS2
Ion mode: POSITIVE
Ionization: ESI
Fragmentation mode: HCD
Collision energy: 90 % (nominal)
Resolution: 15000
Column name: Kinetex Evo C18 2.6 um 50 x 2.1 mm
Retention time: 12.002 min
Base peak: 211.1104
Precursor m/z: 327.0081
Precursor type: [M+H]+
Precursor intensity: 506889.19
m/z	relative intensity	assigned
98.9845	999	CH4ClO3+
