Mass spectrum: 11-Ketotestosterone; LC-ESI-ITFT; MS2; CE: 90%; R=15000; [M+H]+
Name: 11-Ketotestosterone
Name: (8S,9S,10R,13S,14S,17S)-17-hydroxy-10,13-dimethyl-2,6,7,8,9,12,14,15,16,17-decahydro-1H-cyclopenta[a]phenanthrene-3,11-dione
Formula: C19H26O3
Exact mass: 302.188194692
SMILES: C[C@]12CC(=O)[C@H]3[C@@H](CCC4=CC(=O)CC[C@]34C)[C@@H]1CC[C@@H]2O
InChI: InChI=1S/C19H26O3/c1-18-8-7-12(20)9-11(18)3-4-13-14-5-6-16(22)19(14,2)10-15(21)17(13)18/h9,13-14,16-17,22H,3-8,10H2,1-2H3/t13-,14-,16-,17+,18-,19-/m0/s1
Instrument: LTQ Orbitrap XL Thermo Scientific
Instrument type: LC-ESI-ITFT
Ms type: MS2
Ion mode: POSITIVE
Ionization: ESI
Fragmentation mode: HCD
Collision energy: 90 % (nominal)
Resolution: 15000
Column name: Kinetex Evo C18 2.6 um 50 x 2.1 mm
Retention time: 9.901 min
Base peak: 303.1955
Precursor m/z: 303.1955
Precursor type: [M+H]+
Precursor intensity: 4181037.75
m/z	relative intensity	assigned
67.0539	164	C5H7+
69.0332	35	C4H5O+
69.0696	111	C5H9+
71.0489	49	C4H7O+
77.0383	62	C6H5+
79.054	285	C6H7+
81.0696	341	C6H9+
83.0489	166	C5H7O+
85.0645	20	C5H9O+
91.054	411	C7H7+
93.0697	424	C7H9+
95.049	82	C6H7O+
95.0853	204	C7H11+
97.0646	492	C6H9O+
103.054	36	C8H7+
105.0696	547	C8H9+
107.0489	57	C7H7O+
107.0852	280	C8H11+
109.0645	129	C7H9O+
109.1008	25	C8H13+
111.0802	26	C7H11O+
115.0539	40	C9H7+
116.0618	20	C9H8+
117.0696	171	C9H9+
119.0852	314	C9H11+
121.0645	999	C8H9O+
121.1009	59	C9H13+
123.0801	164	C8H11O+
128.0618	79	C10H8+
129.0696	140	C10H9+
130.0775	82	C10H10+
131.0852	296	C10H11+
132.0565	19	C9H8O+
133.0644	41	C9H9O+
133.1008	137	C10H13+
135.08	61	C9H11O+
135.1163	18	C10H15+
137.0956	16	C9H13O+
141.0695	53	C11H9+
142.0774	98	C11H10+
143.0852	191	C11H11+
145.0645	38	C10H9O+
145.1008	212	C11H13+
146.0723	31	C10H10O+
147.0801	146	C10H11O+
147.1166	30	C11H15+
148.0879	61	C10H12O+
149.0956	37	C10H13O+
153.0697	22	C12H9+
154.0774	27	C12H10+
155.0852	110	C12H11+
156.0932	47	C12H12+
157.0643	8	C11H9O+
157.1008	118	C12H13+
158.0723	21	C11H10O+
159.08	62	C11H11O+
159.1164	66	C12H15+
160.088	10	C11H12O+
161.0957	132	C11H13O+
161.1318	10	C12H17+
162.1035	43	C11H14O+
163.1114	104	C11H15O+
165.0696	27	C13H9+
166.0774	13	C13H10+
167.0851	33	C13H11+
168.0931	38	C13H12+
169.1008	73	C13H13+
170.1084	22	C13H14+
171.0799	28	C12H11O+
171.1165	66	C13H15+
173.0957	54	C12H13O+
173.132	17	C13H17+
174.1035	191	C12H14O+
175.1114	24	C12H15O+
177.1273	14	C12H17O+
178.077	9	C14H10+
179.085	32	C14H11+
180.0928	14	C14H12+
181.1008	43	C14H13+
182.1085	13	C14H14+
183.1164	65	C14H15+
184.0883	6	C13H12O+
185.096	21	C13H13O+
185.1321	40	C14H17+
186.1035	16	C13H14O+
187.1114	40	C13H15O+
188.1194	38	C13H16O+
189.127	54	C13H17O+
193.1009	25	C15H13+
194.1089	14	C15H14+
195.1162	19	C15H15+
197.0961	9	C14H13O+
197.1323	18	C15H17+
199.1115	19	C14H15O+
199.1479	19	C15H19+
201.1269	29	C14H17O+
203.1426	14	C14H19O+
208.1238	10	C16H16+
209.1318	12	C16H17+
211.1115	19	C15H15O+
213.1273	10	C15H17O+
223.1483	8	C17H19+
226.1347	24	C16H18O+
227.1425	91	C16H19O+
229.1217	179	C15H17O2+
241.1578	16	C17H21O+
243.1375	11	C16H19O2+
244.1452	97	C16H20O2+
245.1535	12	C16H21O2+
259.169	10	C17H23O2+
