Mass spectrum: 4-Androstene-3,17-dione; LC-ESI-ITFT; MS2; CE: 80; R=15000; [M+H]+
Name: 4-Androstene-3,17-dione
Name: Androstenedione
Name: (8R,9S,10R,13S,14S)-10,13-Dimethyl-2,6,7,8,9,11,12,14,15,16-decahydro-1H-cyclopenta[a]phenanthrene-3,17-dione
Formula: C19H26O2
Exact mass: 286.1933
SMILES: C[C@]12CC[C@H]3[C@@H](CCC4=CC(=O)CC[C@]34C)[C@@H]1CCC2=O
InChI: InChI=1S/C19H26O2/c1-18-9-7-13(20)11-12(18)3-4-14-15-5-6-17(21)19(15,2)10-8-16(14)18/h11,14-16H,3-10H2,1-2H3/t14-,15-,16-,18-,19-/m0/s1
Instrument: LTQ Orbitrap XL Thermo Scientific
Instrument type: LC-ESI-ITFT
Ms type: MS2
Ion mode: POSITIVE
Ionization: ESI
Fragmentation mode: HCD
Collision energy: 80 (nominal)
Resolution: 15000
Column name: Kinetex Core-Shell C18 2.6 um, 3.0 x 100 mm, Phenomenex
Retention time: 24.312 min
Base peak: 163.1324
Precursor m/z: 287.2006
Precursor type: [M+H]+
m/z	relative intensity	assigned
77.0384	15	C6H5+
79.054	124	C6H7+
81.0697	127	C6H9+
83.049	31	C5H7O+
91.054	49	C7H7+
93.0697	46	C7H9+
95.0853	38	C7H11+
97.0645	999	C6H9O+
105.0697	57	C8H9+
107.0854	19	C8H11+
109.0645	858	C7H9O+
117.0697	20	C9H9+
119.0853	35	C9H11+
121.0644	8	C8H9O+
121.1009	15	C9H13+
123.0802	145	C8H11O+
129.0697	14	C10H9+
131.0853	31	C10H11+
133.1009	29	C10H13+
135.0801	5	C9H11O+
137.0955	4	C9H13O+
143.0852	19	C11H11+
145.1009	35	C11H13+
147.1163	7	C11H15+
155.0855	9	C12H11+
157.1009	11	C12H13+
159.1166	16	C12H15+
169.1008	13	C13H13+
171.1166	10	C13H15+
173.1323	9	C13H17+
181.101	5	C14H13+
183.1167	8	C14H15+
185.1321	8	C14H17+
187.1476	4	C14H19+
211.1488	3	C16H19+
