Mass spectrum: Pyriproxyfen; LC-ESI-ITFT; MS2; CE: 60%; R=15000; [M+H]+
Name: Pyriproxyfen
Name: 2-[1-(4-phenoxyphenoxy)propan-2-yloxy]pyridine
Formula: C20H19NO3
Exact mass: 321.136493468
SMILES: CC(COC1=CC=C(OC2=CC=CC=C2)C=C1)OC1=CC=CC=N1
InChI: InChI=1S/C20H19NO3/c1-16(23-20-9-5-6-14-21-20)15-22-17-10-12-19(13-11-17)24-18-7-3-2-4-8-18/h2-14,16H,15H2,1H3
Instrument: LTQ Orbitrap XL Thermo Scientific
Instrument type: LC-ESI-ITFT
Ms type: MS2
Ion mode: POSITIVE
Ionization: ESI
Fragmentation mode: HCD
Collision energy: 60 % (nominal)
Resolution: 15000
Column name: Kinetex Evo C18 2.6 um 50 x 2.1 mm
Retention time: 13.552 min
Base peak: 322.1448
Precursor m/z: 322.1438
Precursor type: [M+H]+
Precursor intensity: 9679773
m/z	relative intensity	assigned
77.0385	44	C6H5+
78.0338	16	C5H4N+
91.0542	12	C7H7+
95.0492	7	C6H7O+
96.0444	999	C5H6NO+
105.0698	35	C8H9+
106.0779	2	C8H10+
107.0491	4	C7H7O+
115.0541	9	C9H7+
116.0624	2	C9H8+
119.0491	160	C8H7O+
121.0648	1	C8H9O+
123.0679	4	C7H9NO+
129.0699	171	C10H9+
133.0648	26	C9H9O+
134.0726	137	C9H10O+
136.0757	11	C8H10NO+
141.0699	55	C11H9+
143.0854	4	C11H11+
153.07	6	C12H9+
157.0648	38	C11H9O+
166.0776	4	C13H10+
169.0645	5	C12H9O+
170.0726	12	C12H10O+
171.0804	6	C12H11O+
181.065	3	C13H9O+
185.0598	293	C12H9O2+
194.0726	5	C14H10O+
198.0681	1	C13H10O2+
199.0755	14	C13H11O2+
227.1057	2	C15H15O2+
