Mass spectrum: Atenolol; LC-ESI-ITFT; MS2; CE: 35; R=15000; [M+H]+
Name: Atenolol
Name: 2-[4-[2-Hydroxy-3-(propan-2-ylamino)propoxy]phenyl]acetamide
Formula: C14H22N2O3
Exact mass: 266.1630
SMILES: CC(C)NCC(O)COC1=CC=C(CC(N)=O)C=C1
InChI: InChI=1S/C14H22N2O3/c1-10(2)16-8-12(17)9-19-13-5-3-11(4-6-13)7-14(15)18/h3-6,10,12,16-17H,7-9H2,1-2H3,(H2,15,18)
Instrument: LTQ Orbitrap XL Thermo Scientific
Instrument type: LC-ESI-ITFT
Ms type: MS2
Ion mode: POSITIVE
Ionization: ESI
Fragmentation mode: CID
Collision energy: 35 (nominal)
Resolution: 15000
Column name: Kinetex Core-Shell C18 2.6 um, 3.0 x 100 mm, Phenomenex
Retention time: 6.668 min
Base peak: 163.1328
Precursor m/z: 267.1703
Precursor type: [M+H]+
m/z	relative intensity	assigned
74.0601	39	C3H8NO+
98.0965	37	C6H12N+
116.1072	200	C6H14NO+
145.0651	136	C10H9O+
162.0917	106	C10H12NO+
163.0761	4	C10H11O2+
164.071	12	C9H10NO2+
173.0601	56	C11H9O2+
178.0865	34	C10H12NO2+
180.1023	53	C10H14NO2+
190.0866	999	C11H12NO2+
204.1387	31	C13H18NO+
207.1132	37	C11H15N2O2+
208.0972	354	C11H14NO3+
225.1238	963	C11H17N2O3+
232.1335	31	C14H18NO2+
249.1603	60	C14H21N2O2+
250.1442	92	C14H20NO3+
