Mass spectrum: Metribuzin; LC-ESI-ITFT; MS2; CE: 40%; R=15000; [M+H]+
Name: Metribuzin
Name: 4-amino-6-tert-butyl-3-methylsulfanyl-1,2,4-triazin-5-one
Formula: C8H14N4OS
Exact mass: 214.088832068
SMILES: CSC1=NN=C(C(=O)N1N)C(C)(C)C
InChI: InChI=1S/C8H14N4OS/c1-8(2,3)5-6(13)12(9)7(14-4)11-10-5/h9H2,1-4H3
Instrument: LTQ Orbitrap XL Thermo Scientific
Instrument type: LC-ESI-ITFT
Ms type: MS2
Ion mode: POSITIVE
Ionization: ESI
Fragmentation mode: HCD
Collision energy: 40 % (nominal)
Resolution: 15000
Column name: Kinetex Evo C18 2.6 um 50 x 2.1 mm
Retention time: 8.276 min
Base peak: 215.0964
Precursor m/z: 215.0961
Precursor type: [M+H]+
Precursor intensity: 52106540
m/z	relative intensity	assigned
62.0056	3	CH4NS+
69.0081	1	C2HN2O+
69.0697	3	C5H9+
74.0058	4	C2H4NS+
76.0214	3	C2H6NS+
82.065	5	C5H8N+
84.0807	21	C5H10N+
87.001	4	C2H3N2S+
89.0167	17	C2H5N2S+
89.042	2	C4H9S+
97.0647	8	C6H9O+
99.0915	2	C5H11N2+
104.0275	3	C2H6N3S+
110.06	1	C6H8NO+
114.996	15	C3H3N2OS+
127.0864	1	C6H11N2O+
130.0684	3	C6H12NS+
131.0273	13	C4H7N2OS+
131.0385	5	C3H7N4S+
132.0223	1	C3H6N3OS+
139.0865	1	C7H11N2O+
140.1056	1	C6H12N4+
145.0541	7	C4H9N4S+
157.0428	2	C6H9N2OS+
167.0926	1	C7H11N4O+
171.0585	11	C7H11N2OS+
172.0667	2	C7H12N2OS+
172.0776	1	C6H12N4S+
184.054	2	C7H10N3OS+
186.0821	27	C8H14N2OS+
187.1011	319	C7H15N4S+
200.0727	1	C7H12N4OS+
215.0959	999	C8H15N4OS+
