Mass spectrum: Tamoxifen; LC-ESI-ITFT; MS2; CE: 60%; R=15000; [M+H]+
Name: Tamoxifen
Name: 2-[4-[(Z)-1,2-diphenylbut-1-enyl]phenoxy]-N,N-dimethylethanamine
Formula: C26H29NO
Exact mass: 371.224914548
SMILES: CC\C(=C(/C1=CC=CC=C1)C1=CC=C(OCCN(C)C)C=C1)C1=CC=CC=C1
InChI: InChI=1S/C26H29NO/c1-4-25(21-11-7-5-8-12-21)26(22-13-9-6-10-14-22)23-15-17-24(18-16-23)28-20-19-27(2)3/h5-18H,4,19-20H2,1-3H3/b26-25-
Instrument: LTQ Orbitrap XL Thermo Scientific
Instrument type: LC-ESI-ITFT
Ms type: MS2
Ion mode: POSITIVE
Ionization: ESI
Fragmentation mode: HCD
Collision energy: 60 % (nominal)
Resolution: 15000
Column name: Kinetex Evo C18 2.6 um 50 x 2.1 mm
Retention time: 10.976 min
Base peak: 372.2331
Precursor m/z: 372.2322
Precursor type: [M+H]+
Precursor intensity: 21360664
m/z	relative intensity	assigned
57.057	3	C3H7N+
58.0649	10	C3H8N+
70.065	25	C4H8N+
72.0806	999	C4H10N+
91.0542	27	C7H7+
105.0698	10	C8H9+
107.0491	4	C7H7O+
128.0621	2	C10H8+
129.0699	53	C10H9+
167.0855	3	C13H11+
178.0777	10	C14H10+
179.0857	5	C14H11+
183.0801	1	C13H11O+
191.0855	6	C15H11+
192.093	3	C15H12+
193.1012	7	C15H13+
194.0731	2	C14H10O+
205.1013	2	C16H13+
206.1088	3	C16H14+
207.0804	5	C15H11O+
209.0965	3	C15H13O+
221.0962	4	C16H13O+
243.1166	2	C19H15+
253.1014	5	C20H13+
254.1088	5	C20H14+
270.1031	1	C20H14O+
283.1122	2	C21H15O+
285.1278	3	C21H17O+
