Mass spectrum: 4-Androsten-11beta-ol-3,17-dione; LC-ESI-ITFT; MS2; CE: 30%; R=15000; [M+H]+
Name: 4-Androsten-11beta-ol-3,17-dione
Name: 11beta-Hydroxyandrostenedione
Name: (8S,9S,10R,11S,13S,14S)-11-hydroxy-10,13-dimethyl-2,6,7,8,9,11,12,14,15,16-decahydro-1H-cyclopenta[a]phenanthrene-3,17-dione
Formula: C19H26O3
Exact mass: 302.188194692
SMILES: C[C@]12C[C@H](O)[C@H]3[C@@H](CCC4=CC(=O)CC[C@]34C)[C@@H]1CCC2=O
InChI: InChI=1S/C19H26O3/c1-18-8-7-12(20)9-11(18)3-4-13-14-5-6-16(22)19(14,2)10-15(21)17(13)18/h9,13-15,17,21H,3-8,10H2,1-2H3/t13-,14-,15-,17+,18-,19-/m0/s1
Instrument: LTQ Orbitrap XL Thermo Scientific
Instrument type: LC-ESI-ITFT
Ms type: MS2
Ion mode: POSITIVE
Ionization: ESI
Fragmentation mode: HCD
Collision energy: 30 % (nominal)
Resolution: 15000
Column name: Kinetex Evo C18 2.6 um 50 x 2.1 mm
Retention time: 10.068 min
Base peak: 303.1955
Precursor m/z: 303.1955
Precursor type: [M+H]+
Precursor intensity: 29171348
m/z	relative intensity	assigned
91.0541	3	C7H7+
93.0697	7	C7H9+
95.0852	8	C7H11+
97.0646	55	C6H9O+
105.0696	12	C8H9+
107.0852	11	C8H11+
109.0646	15	C7H9O+
119.0853	14	C9H11+
121.0646	113	C8H9O+
121.1011	6	C9H13+
123.0802	118	C8H11O+
131.0853	14	C10H11+
133.101	20	C10H13+
135.0802	17	C9H11O+
137.0956	4	C9H13O+
143.0851	16	C11H11+
145.1009	75	C11H13+
147.0801	14	C10H11O+
147.1165	11	C11H15+
149.0957	14	C10H13O+
151.1114	38	C10H15O+
155.0852	2	C12H11+
157.1009	10	C12H13+
159.0803	7	C11H11O+
159.1163	15	C12H15+
161.0959	11	C11H13O+
163.1114	57	C11H15O+
169.1011	3	C13H13+
171.08	6	C12H11O+
171.1166	19	C13H15+
173.0957	14	C12H13O+
175.1114	36	C12H15O+
177.1274	8	C12H17O+
181.1015	3	C14H13+
183.1171	7	C14H15+
185.1324	20	C14H17+
187.1117	6	C13H15O+
187.1478	3	C14H19+
189.1271	38	C13H17O+
195.1165	22	C15H15+
197.096	11	C14H13O+
197.1325	5	C15H17+
199.1116	6	C14H15O+
201.1273	8	C14H17O+
203.1425	13	C14H19O+
207.116	3	C16H15+
209.1321	26	C16H17+
211.111	6	C15H15O+
211.1472	3	C16H19+
215.1425	3	C15H19O+
223.1478	8	C17H19+
225.127	17	C16H17O+
225.1635	19	C17H21+
227.1426	38	C16H19O+
239.1425	79	C17H19O+
239.1789	21	C18H23+
241.1582	18	C17H21O+
243.1739	47	C17H23O+
249.1634	40	C19H21+
257.1532	29	C17H21O2+
257.1896	15	C18H25O+
259.17	5	C17H23O2+
267.1739	288	C19H23O+
285.1844	477	C19H25O2+
303.1949	999	C19H27O3+
