Mass spectrum: Flurtamone; LC-ESI-ITFT; MS2; CE: 80; R=15000; [M+H]+
Name: Flurtamone
Name: 5-(Methylamino)-2-phenyl-4-[3-(trifluoromethyl)phenyl]furan-3-one
Formula: C18H14F3NO2
Exact mass: 333.0977
SMILES: CNC1=C(C(=O)C(O1)C1=CC=CC=C1)C1=CC=CC(=C1)C(F)(F)F
InChI: InChI=1S/C18H14F3NO2/c1-22-17-14(12-8-5-9-13(10-12)18(19,20)21)15(23)16(24-17)11-6-3-2-4-7-11/h2-10,16,22H,1H3
Instrument: LTQ Orbitrap XL Thermo Scientific
Instrument type: LC-ESI-ITFT
Ms type: MS2
Ion mode: POSITIVE
Ionization: ESI
Fragmentation mode: HCD
Collision energy: 80 (nominal)
Resolution: 15000
Column name: Kinetex Core-Shell C18 2.6 um, 3.0 x 100 mm, Phenomenex
Retention time: 24.282 min
Base peak: 304.121
Precursor m/z: 334.1049
Precursor type: [M+H]+
m/z	relative intensity	assigned
77.0385	48	C6H5+
91.0542	6	C7H7+
103.0542	30	C8H7+
105.0334	214	C7H5O+
118.065	9	C8H8N+
120.0807	78	C8H10N+
131.0487	2	C9H7O+
159.0415	6	C8H6F3+
165.0698	10	C13H9+
167.0309	2	C9H5F2O+
171.0417	16	C9H6F3+
173.0213	3	C8H4F3O+
178.0776	999	C14H10+
180.0618	2	C10H8F2N+
180.0933	1	C14H12+
188.0679	2	C9H9F3N+
189.0695	5	C15H9+
196.0683	18	C14H9F+
197.0209	34	C10H4F3O+
207.0603	179	C15H8F+
209.076	18	C15H10F+
210.0528	3	C11H7F3N+
214.0586	13	C14H8F2+
225.0166	3	C11H4F3O2+
227.0666	618	C15H9F2+
228.0631	1	C11H9F3NO+
229.0827	2	C15H11F2+
237.0706	1	C16H10FO+
246.065	70	C15H9F3+
247.0728	215	C15H10F3+
255.0618	4	C16H9F2O+
257.0777	2	C16H11F2O+
259.0734	4	C16H10F3+
275.0677	24	C16H10F3O+
