Mass spectrum: Tri(butoxyethyl)phosphate; LC-ESI-ITFT; MS2; CE: 20%; R=15000; [M+H]+
Name: Tri(butoxyethyl)phosphate
Name: tris(2-butoxyethyl) phosphate
Formula: C18H39O7P
Exact mass: 398.243340218
SMILES: CCCCOCCOP(=O)(OCCOCCCC)OCCOCCCC
InChI: InChI=1S/C18H39O7P/c1-4-7-10-20-13-16-23-26(19,24-17-14-21-11-8-5-2)25-18-15-22-12-9-6-3/h4-18H2,1-3H3
Instrument: LTQ Orbitrap XL Thermo Scientific
Instrument type: LC-ESI-ITFT
Ms type: MS2
Ion mode: POSITIVE
Ionization: ESI
Fragmentation mode: HCD
Collision energy: 20 % (nominal)
Resolution: 15000
Column name: Kinetex Evo C18 2.6 um 50 x 2.1 mm
Retention time: 13.378 min
Base peak: 399.2521
Precursor m/z: 399.2506
Precursor type: [M+H]+
Precursor intensity: 30518920
m/z	relative intensity	assigned
59.0488	13	C3H7O+
83.0854	58	C6H11+
98.9841	17	H4O4P+
101.0961	120	C6H13O+
125.0001	9	C2H6O4P+
143.0103	53	C2H8O5P+
199.073	810	C6H16O5P+
225.0886	27	C8H18O5P+
243.099	28	C8H20O6P+
255.1358	7	C10H24O5P+
299.1617	999	C12H28O6P+
343.1894	4	C14H32O7P+
399.2504	227	C18H40O7P+
