Mass spectrum: 4-Hydroxy-1-(2-hydroxyethyl)-2,2,6,6-tetramethylpiperidine; LC-ESI-ITFT; MS2; CE: 90%; R=15000; [M+H]+
Name: 4-Hydroxy-1-(2-hydroxyethyl)-2,2,6,6-tetramethylpiperidine
Name: 1-(2-hydroxyethyl)-2,2,6,6-tetramethylpiperidin-4-ol
Formula: C11H23NO2
Exact mass: 201.172878976
SMILES: CC1(C)CC(O)CC(C)(C)N1CCO
InChI: InChI=1S/C11H23NO2/c1-10(2)7-9(14)8-11(3,4)12(10)5-6-13/h9,13-14H,5-8H2,1-4H3
Instrument: LTQ Orbitrap XL Thermo Scientific
Instrument type: LC-ESI-ITFT
Ms type: MS2
Ion mode: POSITIVE
Ionization: ESI
Fragmentation mode: HCD
Collision energy: 90 % (nominal)
Resolution: 15000
Column name: Kinetex Evo C18 2.6 um 50 x 2.1 mm
Retention time: 0.552 min
Base peak: 202.1802
Precursor m/z: 202.1802
Precursor type: [M+H]+
Precursor intensity: 8971067
m/z	relative intensity	assigned
58.065	53	C3H8N+
62.0599	285	C2H8NO+
67.0541	45	C5H7+
69.0698	3	C5H9+
70.0649	5	C4H8N+
72.0443	5	C3H6NO+
79.0543	8	C6H7+
81.0699	106	C6H9+
83.0856	17	C6H11+
84.0808	283	C5H10N+
85.0648	357	C5H9O+
88.0757	11	C4H10NO+
95.0855	13	C7H11+
102.0914	999	C5H12NO+
123.1169	21	C9H15+
128.1073	5	C7H14NO+
