Mass spectrum: Simazine; LC-ESI-ITFT; MS2; CE: 30%; R=15000; [M+H]+
Name: Simazine
Name: 6-chloro-2-N,4-N-diethyl-1,3,5-triazine-2,4-diamine
Formula: C7H12ClN5
Exact mass: 201.078123064
SMILES: CCNC1=NC(NCC)=NC(Cl)=N1
InChI: InChI=1S/C7H12ClN5/c1-3-9-6-11-5(8)12-7(13-6)10-4-2/h3-4H2,1-2H3,(H2,9,10,11,12,13)
Instrument: LTQ Orbitrap XL Thermo Scientific
Instrument type: LC-ESI-ITFT
Ms type: MS2
Ion mode: POSITIVE
Ionization: ESI
Fragmentation mode: HCD
Collision energy: 30 % (nominal)
Resolution: 15000
Column name: Kinetex Evo C18 2.6 um 50 x 2.1 mm
Retention time: 8.710 min
Base peak: 202.0862
Precursor m/z: 202.0854
Precursor type: [M+H]+
Precursor intensity: 25437600
m/z	relative intensity	assigned
96.0557	2	C4H6N3+
104.001	1	C2H3ClN3+
124.087	27	C6H10N3+
132.0324	19	C4H7ClN3+
166.1091	2	C7H12N5+
174.0543	7	C5H9ClN5+
202.0855	999	C7H13ClN5+
