Mass spectrum: Triphenylphosphate; LC-ESI-ITFT; MS2; CE: 55; R=15000; [M+H]+
Name: Triphenylphosphate
Name: Triphenyl phosphate
Formula: C18H15O4P
Exact mass: 326.0708
SMILES: O=P(OC1=CC=CC=C1)(OC1=CC=CC=C1)OC1=CC=CC=C1
InChI: InChI=1S/C18H15O4P/c19-23(20-16-10-4-1-5-11-16,21-17-12-6-2-7-13-17)22-18-14-8-3-9-15-18/h1-15H
Instrument: LTQ Orbitrap XL Thermo Scientific
Instrument type: LC-ESI-ITFT
Ms type: MS2
Ion mode: POSITIVE
Ionization: ESI
Fragmentation mode: HCD
Collision energy: 55 (nominal)
Resolution: 15000
Column name: Kinetex Core-Shell C18 2.6 um, 3.0 x 100 mm, Phenomenex
Retention time: 26.251 min
Base peak: 327.0788
Precursor m/z: 327.0781
Precursor type: [M+H]+
m/z	relative intensity	assigned
77.0388	643	C6H5+
93.0338	14	C6H5O+
95.0494	132	C6H7O+
98.9846	7	H4O4P+
105.0451	258	C6H5N2+
121.0284	7	C7H5O2+
138.9948	21	C6H4O2P+
141.0703	10	C11H9+
151.0549	61	C12H7+
152.0625	874	C12H8+
153.0704	989	C12H9+
157.0055	14	C6H6O3P+
168.0576	170	C12H8O+
169.0654	42	C12H9O+
170.0732	11	C12H10O+
171.0811	58	C12H11O+
175.0162	61	C6H8O4P+
179.061	59	C12H7N2+
181.0769	19	C10H14OP+
187.0313	38	C11H8OP+
202.0787	30	C16H10+
203.0866	7	C12H14NP+
215.0263	614	C12H8O2P+
226.0786	8	C18H10+
227.0863	53	C18H11+
228.0942	341	C18H12+
229.102	98	C18H13+
233.0369	817	C12H10O3P+
251.0477	999	C12H12O4P+
291.0578	21	C18H12O2P+
309.0673	11	C18H14O3P+
