Mass spectrum: Paroxetine; LC-ESI-ITFT; MS2; CE: 55; R=15000; [M+H]+
Name: Paroxetine
Name: 3-(1,3-Benzodioxol-5-yloxymethyl)-4-(4-fluorophenyl)piperidine
Formula: C19H20FNO3
Exact mass: 329.1427
SMILES: FC1=CC=C(C=C1)C1CCNCC1COC1=CC2=C(OCO2)C=C1
InChI: InChI=1S/C19H20FNO3/c20-15-3-1-13(2-4-15)17-7-8-21-10-14(17)11-22-16-5-6-18-19(9-16)24-12-23-18/h1-6,9,14,17,21H,7-8,10-12H2
Instrument: LTQ Orbitrap XL Thermo Scientific
Instrument type: LC-ESI-ITFT
Ms type: MS2
Ion mode: POSITIVE
Ionization: ESI
Fragmentation mode: HCD
Collision energy: 55 (nominal)
Resolution: 15000
Column name: Kinetex Core-Shell C18 2.6 um, 3.0 x 100 mm, Phenomenex
Retention time: 21.605 min
Base peak: 330.1499
Precursor m/z: 330.15
Precursor type: [M+H]+
m/z	relative intensity	assigned
70.0651	999	C4H8N+
82.0652	36	C5H8N+
83.073	9	C5H9N+
84.0809	23	C5H10N+
93.0336	24	C6H5O+
96.0809	18	C6H10N+
103.0545	14	C8H7+
109.0285	36	C6H5O2+
109.0449	250	C7H6F+
123.0442	80	C7H7O2+
123.0606	325	C8H8F+
135.0606	266	C9H8F+
136.0685	123	C9H9F+
137.0756	10	C9H10F+
138.0716	12	C8H9FN+
139.0392	33	C7H7O3+
143.0854	7	C11H11+
147.0607	67	C10H8F+
148.0686	46	C10H9F+
149.0763	52	C10H10F+
150.0715	66	C9H9FN+
151.0391	308	C8H7O3+
161.0597	8	C10H9O2+
161.0764	122	C11H10F+
163.0919	434	C11H12F+
164.0874	48	C10H11FN+
176.1001	33	C12H13F+
178.1029	141	C11H13FN+
190.1028	14	C12H13FN+
192.1185	826	C12H15FN+
193.1259	17	C12H16FN+
330.1508	99	C19H21FNO3+
