Mass spectrum: Duloxetine; LC-ESI-ITFT; MS2; CE: 10%; R=15000; [M+H]+
Name: Duloxetine
Name: N-Methyl-gamma-(1-naphthalenyloxy)-2-thiophenepropanamine
Name: N-methyl-3-naphthalen-1-yloxy-3-thiophen-2-ylpropan-1-amine
Formula: C18H19NOS
Exact mass: 297.118735228
SMILES: CNCCC(OC1=C2C=CC=CC2=CC=C1)C1=CC=CS1
InChI: InChI=1S/C18H19NOS/c1-19-12-11-17(18-10-5-13-21-18)20-16-9-4-7-14-6-2-3-8-15(14)16/h2-10,13,17,19H,11-12H2,1H3
Instrument: LTQ Orbitrap XL Thermo Scientific
Instrument type: LC-ESI-ITFT
Ms type: MS2
Ion mode: POSITIVE
Ionization: ESI
Fragmentation mode: HCD
Collision energy: 10 % (nominal)
Resolution: 15000
Column name: Kinetex Evo C18 2.6 um 50 x 2.1 mm
Retention time: 8.815 min
Base peak: 293.1063
Precursor m/z: 298.126
Precursor type: [M+H]+
Precursor intensity: 10519337
m/z	relative intensity	assigned
154.0687	10	C8H12NS+
298.1264	999	C18H20NOS+
