Mass spectrum: Dimoxystrobin; LC-ESI-ITFT; MS2; CE: 90%; R=15000; [M+H]+
Name: Dimoxystrobin
Name: (2E)-2-[2-[(2,5-dimethylphenoxy)methyl]phenyl]-2-methoxyimino-N-methylacetamide
Formula: C19H22N2O3
Exact mass: 326.163042564
SMILES: CNC(=O)C(=N\OC)\C1=CC=CC=C1COC1=CC(C)=CC=C1C
InChI: InChI=1S/C19H22N2O3/c1-13-9-10-14(2)17(11-13)24-12-15-7-5-6-8-16(15)18(21-23-4)19(22)20-3/h5-11H,12H2,1-4H3,(H,20,22)/b21-18+
Instrument: LTQ Orbitrap XL Thermo Scientific
Instrument type: LC-ESI-ITFT
Ms type: MS2
Ion mode: POSITIVE
Ionization: ESI
Fragmentation mode: HCD
Collision energy: 90 % (nominal)
Resolution: 15000
Column name: Kinetex Evo C18 2.6 um 50 x 2.1 mm
Retention time: 12.112 min
Base peak: 327.1711
Precursor m/z: 327.1703
Precursor type: [M+H]+
Precursor intensity: 35469544
m/z	relative intensity	assigned
89.0389	246	C7H5+
91.0545	50	C7H7+
116.0498	999	C8H6N+
117.0576	63	C8H7N+
134.0605	13	C8H8NO+
135.0809	11	C9H11O+
178.0781	34	C14H10+
180.0815	65	C13H10N+
194.097	42	C14H12N+
