Mass spectrum: Gabapentin-lactam; LC-ESI-ITFT; MS2; CE: 85%; R=15000; [M+H]+
Name: Gabapentin-lactam
Name: 2-azaspiro[4.5]decan-3-one
Formula: C9H15NO
Exact mass: 153.1154
SMILES: O=C1CC2(CN1)CCCCC2
InChI: InChI=1S/C9H15NO/c11-8-6-9(7-10-8)4-2-1-3-5-9/h1-7H2,(H,10,11)
Instrument: LTQ Orbitrap XL Thermo Scientific
Instrument type: LC-ESI-ITFT
Ms type: MS2
Ion mode: POSITIVE
Ionization: ESI
Fragmentation mode: HCD
Collision energy: 85 % (nominal)
Resolution: 15000
Column name: Kinetex Evo C18 2.6 um 50 x 2.1 mm
Retention time: 8.256 min
Base peak: 154.1225
Precursor m/z: 154.1226
Precursor type: [M+H]+
m/z	relative intensity	assigned
54.0336	3	C3H4N+
60.0443	7	C2H6NO+
67.0541	143	C5H7+
69.0698	22	C5H9+
72.0443	47	C3H6NO+
77.0386	3	C6H5+
79.0541	3	C6H7+
81.0699	10	C6H9+
86.0602	3	C4H8NO+
91.0542	30	C7H7+
93.0699	66	C7H9+
95.0855	841	C7H11+
109.1011	43	C8H13+
110.0965	2	C7H12N+
112.112	34	C7H14N+
119.0855	22	C9H11+
136.1117	2	C9H14N+
137.0962	5	C9H13O+
154.1225	999	C9H16NO+
