Mass spectrum: 2-(Methylthio)benzothiazole; LC-ESI-ITFT; MS2; CE: 80%; R=15000; [M+H]+
Name: 2-(Methylthio)benzothiazole
Name: 2-methylsulfanyl-1,3-benzothiazole
Formula: C8H7NS2
Exact mass: 181.001991224
SMILES: CSC1=NC2=CC=CC=C2S1
InChI: InChI=1S/C8H7NS2/c1-10-8-9-6-4-2-3-5-7(6)11-8/h2-5H,1H3
Instrument: LTQ Orbitrap XL Thermo Scientific
Instrument type: LC-ESI-ITFT
Ms type: MS2
Ion mode: POSITIVE
Ionization: ESI
Fragmentation mode: HCD
Collision energy: 80 % (nominal)
Resolution: 15000
Column name: Kinetex Evo C18 2.6 um 50 x 2.1 mm
Retention time: 10.788 min
Base peak: 182.0098
Precursor m/z: 182.0093
Precursor type: [M+H]+
Precursor intensity: 7767739.5
m/z	relative intensity	assigned
63.9434	3	S2+
78.9671	1	CH3S2+
91.0417	8	C6H5N+
103.0417	1	C7H5N+
109.0108	27	C6H5S+
123.0138	16	C6H5NS+
124.0342	2	C7H8S+
135.0139	53	C7H5NS+
136.0217	9	C7H6NS+
139.975	4	C6H4S2+
149.0295	2	C8H7NS+
150.0373	2	C8H8NS+
165.9783	3	C7H4NS2+
166.986	999	C7H5NS2+
182.0094	247	C8H8NS2+
