Mass spectrum: N-Butylbenzenesulfonamide; LC-ESI-ITFT; MS2; CE: 30%; R=15000; [M+H]+
Name: N-Butylbenzenesulfonamide
Formula: C10H15NO2S
Exact mass: 213.08234972
SMILES: CCCCNS(=O)(=O)C1=CC=CC=C1
InChI: InChI=1S/C10H15NO2S/c1-2-3-9-11-14(12,13)10-7-5-4-6-8-10/h4-8,11H,2-3,9H2,1H3
Instrument: LTQ Orbitrap XL Thermo Scientific
Instrument type: LC-ESI-ITFT
Ms type: MS2
Ion mode: POSITIVE
Ionization: ESI
Fragmentation mode: HCD
Collision energy: 30 % (nominal)
Resolution: 15000
Column name: Kinetex Evo C18 2.6 um 50 x 2.1 mm
Retention time: 9.655 min
Base peak: 204.1029
Precursor m/z: 214.0896
Precursor type: [M+H]+
Precursor intensity: 14267251
m/z	relative intensity	assigned
72.0806	36	C4H10N+
77.0385	579	C6H5+
95.0492	69	C6H7O+
102.0006	3	C3H4NOS+
141.0005	999	C6H5O2S+
158.0271	620	C6H8NO2S+
214.0897	138	C10H16NO2S+
