Mass spectrum: Mebendazole; LC-ESI-ITFT; MS2; CE: 40%; R=15000; [M+H]+
Name: Mebendazole
Name: methyl N-(6-benzoyl-1H-benzimidazol-2-yl)carbamate
Formula: C16H13N3O3
Exact mass: 295.095691276
SMILES: COC(=O)NC1=NC2=C(N1)C=C(C=C2)C(=O)C1=CC=CC=C1
InChI: InChI=1S/C16H13N3O3/c1-22-16(21)19-15-17-12-8-7-11(9-13(12)18-15)14(20)10-5-3-2-4-6-10/h2-9H,1H3,(H2,17,18,19,21)
Instrument: LTQ Orbitrap XL Thermo Scientific
Instrument type: LC-ESI-ITFT
Ms type: MS2
Ion mode: POSITIVE
Ionization: ESI
Fragmentation mode: HCD
Collision energy: 40 % (nominal)
Resolution: 15000
Column name: Kinetex Evo C18 2.6 um 50 x 2.1 mm
Retention time: 9.760 min
Base peak: 296.104
Precursor m/z: 296.103
Precursor type: [M+H]+
Precursor intensity: 30719664
m/z	relative intensity	assigned
105.0335	5	C7H5O+
252.1134	1	C15H14N3O+
264.0768	999	C15H10N3O2+
296.103	181	C16H14N3O3+
