Mass spectrum: Prednisone; LC-ESI-ITFT; MS2; CE: 20%; R=15000; [M+H]+
Name: Prednisone
Name: (8S,9S,10R,13S,14S,17R)-17-hydroxy-17-(2-hydroxyacetyl)-10,13-dimethyl-6,7,8,9,12,14,15,16-octahydrocyclopenta[a]phenanthrene-3,11-dione
Formula: C21H26O5
Exact mass: 358.178023932
SMILES: [H][C@@]12CC[C@](O)(C(=O)CO)[C@@]1(C)CC(=O)[C@@]1([H])[C@@]2([H])CCC2=CC(=O)C=C[C@]12C
InChI: InChI=1S/C21H26O5/c1-19-7-5-13(23)9-12(19)3-4-14-15-6-8-21(26,17(25)11-22)20(15,2)10-16(24)18(14)19/h5,7,9,14-15,18,22,26H,3-4,6,8,10-11H2,1-2H3/t14-,15-,18+,19-,20-,21-/m0/s1
Instrument: LTQ Orbitrap XL Thermo Scientific
Instrument type: LC-ESI-ITFT
Ms type: MS2
Ion mode: POSITIVE
Ionization: ESI
Fragmentation mode: HCD
Collision energy: 20 % (nominal)
Resolution: 15000
Column name: Kinetex Evo C18 2.6 um 50 x 2.1 mm
Retention time: 9.464 min
Base peak: 359.1856
Precursor m/z: 359.1853
Precursor type: [M+H]+
Precursor intensity: 19658242
m/z	relative intensity	assigned
93.0699	55	C7H9+
135.0802	68	C9H11O+
137.0959	54	C9H13O+
147.0804	404	C10H11O+
159.0804	68	C11H11O+
161.0966	48	C11H13O+
171.0798	84	C12H11O+
173.0958	68	C12H13O+
181.0858	77	C10H13O3+
197.0962	88	C14H13O+
209.0956	39	C15H13O+
213.1271	81	C15H17O+
225.1279	55	C16H17O+
237.1275	258	C17H17O+
239.1072	93	C16H15O2+
239.1433	43	C17H19O+
253.1222	80	C17H17O2+
255.1388	49	C17H19O2+
261.1274	64	C19H17O+
263.1428	74	C19H19O+
265.1585	243	C19H21O+
267.1377	322	C18H19O2+
277.1588	127	C20H21O+
281.1534	68	C19H21O2+
283.1696	80	C19H23O2+
293.1542	73	C20H21O2+
295.1687	439	C20H23O2+
305.1531	217	C21H21O2+
311.1641	80	C20H23O3+
313.1798	546	C20H25O3+
323.1638	419	C21H23O3+
341.1745	999	C21H25O4+
359.1851	921	C21H27O5+
