Mass spectrum: Amantadine; LC-ESI-ITFT; MS2; CE: 35; R=15000; [M+H]+
Name: Amantadine
Name: Adamantan-1-amine
Formula: C10H17N
Exact mass: 151.1361
SMILES: NC12CC3CC(CC(C3)C1)C2
InChI: InChI=1S/C10H17N/c11-10-4-7-1-8(5-10)3-9(2-7)6-10/h7-9H,1-6,11H2
Instrument: LTQ Orbitrap XL Thermo Scientific
Instrument type: LC-ESI-ITFT
Ms type: MS2
Ion mode: POSITIVE
Ionization: ESI
Fragmentation mode: CID
Collision energy: 35 (nominal)
Resolution: 15000
Column name: Kinetex Core-Shell C18 2.6 um, 3.0 x 100 mm, Phenomenex
Retention time: 15.657 min
Base peak: 152.1437
Precursor m/z: 152.1434
Precursor type: [M+H]+
m/z	relative intensity	assigned
135.1174	999	C10H15+
