Mass spectrum: Prosulfuron; LC-ESI-ITFT; MS2; CE: 90%; R=15000; [M+H]+
Name: Prosulfuron
Name: 1-(4-methoxy-6-methyl-1,3,5-triazin-2-yl)-3-[2-(3,3,3-trifluoropropyl)phenyl]sulfonylurea
Formula: C15H16F3N5O4S
Exact mass: 419.087509652
SMILES: COC1=NC(C)=NC(NC(=O)NS(=O)(=O)C2=CC=CC=C2CCC(F)(F)F)=N1
InChI: InChI=1S/C15H16F3N5O4S/c1-9-19-12(22-14(20-9)27-2)21-13(24)23-28(25,26)11-6-4-3-5-10(11)7-8-15(16,17)18/h3-6H,7-8H2,1-2H3,(H2,19,20,21,22,23,24)
Instrument: LTQ Orbitrap XL Thermo Scientific
Instrument type: LC-ESI-ITFT
Ms type: MS2
Ion mode: POSITIVE
Ionization: ESI
Fragmentation mode: HCD
Collision energy: 90 % (nominal)
Resolution: 15000
Column name: Kinetex Evo C18 2.6 um 50 x 2.1 mm
Retention time: 11.331 min
Base peak: 420.0958
Precursor m/z: 420.0948
Precursor type: [M+H]+
Precursor intensity: 6181846.5
m/z	relative intensity	assigned
56.0495	284	C3H6N+
57.0448	149	C2H5N2+
58.0288	207	C2H4NO+
67.0291	9	C3H3N2+
68.0246	17	C2H2N3+
69.0085	93	C2HN2O+
83.0244	100	C3H3N2O+
83.0294	21	C5H4F+
85.04	30	C3H5N2O+
100.051	61	C3H6N3O+
109.0453	999	C7H6F+
133.0453	17	CH6F3N3O+
141.0777	140	C5H9N4O+
167.0572	72	CH10F3N4S+
169.0255	15	C9H4F3+
173.0075	19	C10HF2N+
