Mass spectrum: Triphenylphosphate; LC-ESI-ITFT; MS2; CE: 90%; R=15000; [M+H]+
Name: Triphenylphosphate
Name: triphenyl phosphate
Formula: C18H15O4P
Exact mass: 326.07079559
SMILES: O=P(OC1=CC=CC=C1)(OC1=CC=CC=C1)OC1=CC=CC=C1
InChI: InChI=1S/C18H15O4P/c19-23(20-16-10-4-1-5-11-16,21-17-12-6-2-7-13-17)22-18-14-8-3-9-15-18/h1-15H
Instrument: LTQ Orbitrap XL Thermo Scientific
Instrument type: LC-ESI-ITFT
Ms type: MS2
Ion mode: POSITIVE
Ionization: ESI
Fragmentation mode: HCD
Collision energy: 90 % (nominal)
Resolution: 15000
Column name: Kinetex Evo C18 2.6 um 50 x 2.1 mm
Retention time: 12.632 min
Base peak: 327.0793
Precursor m/z: 327.0781
Precursor type: [M+H]+
Precursor intensity: 32609668
m/z	relative intensity	assigned
65.0384	26	C5H5+
77.0385	807	C6H5+
92.0256	2	C6H4O+
93.0335	6	C6H5O+
94.0413	20	C6H6O+
95.0491	206	C6H7O+
98.9841	6	H4O4P+
106.0418	3	C7H6O+
109.0646	2	C7H9O+
115.0541	8	C9H7+
127.0541	10	C10H7+
128.0618	4	C10H8+
133.0201	7	C8H6P+
138.9944	24	C6H4O2P+
140.0021	3	C6H5O2P+
141.0698	20	C11H9+
145.0648	3	C10H9O+
151.0543	75	C12H7+
152.062	999	C12H8+
157.005	6	C6H6O3P+
159.0359	6	C10H8P+
168.057	330	C12H8O+
169.0643	43	C12H9O+
170.0722	7	C12H10O+
175.0155	43	C6H8O4P+
187.0307	31	C11H8OP+
202.0778	25	C16H10+
215.0256	60	C12H8O2P+
226.0777	30	C18H10+
227.0857	41	C18H11+
228.0937	43	C18H12+
233.0362	32	C12H10O3P+
244.0891	4	C18H12O+
251.0468	8	C12H12O4P+
