Mass spectrum: Cashmeran; LC-ESI-ITFT; MS2; CE: 50%; R=15000; [M+H]+
Name: Cashmeran
Name: 1,1,2,3,3-pentamethyl-2,5,6,7-tetrahydroinden-4-one
Formula: C14H22O
Exact mass: 206.167065324
SMILES: CC1C(C)(C)C2=C(C(=O)CCC2)C1(C)C
InChI: InChI=1S/C14H22O/c1-9-13(2,3)10-7-6-8-11(15)12(10)14(9,4)5/h9H,6-8H2,1-5H3
Instrument: LTQ Orbitrap XL Thermo Scientific
Instrument type: LC-ESI-ITFT
Ms type: MS2
Ion mode: POSITIVE
Ionization: ESI
Fragmentation mode: HCD
Collision energy: 50 % (nominal)
Resolution: 15000
Column name: Kinetex Evo C18 2.6 um 50 x 2.1 mm
Retention time: 12.700 min
Base peak: 207.1746
Precursor m/z: 207.1743
Precursor type: [M+H]+
Precursor intensity: 36513508
m/z	relative intensity	assigned
69.0696	3	C5H9+
79.0544	1	C6H7+
81.0697	5	C6H9+
83.0853	3	C6H11+
91.0541	1	C7H7+
93.0697	11	C7H9+
95.0853	10	C7H11+
105.0698	2	C8H9+
107.0853	9	C8H11+
109.0644	2	C7H9O+
109.101	17	C8H13+
119.0853	28	C9H11+
121.1009	16	C9H13+
123.0802	9	C8H11O+
123.1166	2	C9H15+
125.0961	1	C8H13O+
133.1009	46	C10H13+
135.1166	8	C10H15+
137.0958	462	C9H13O+
147.1165	36	C11H15+
149.1322	8	C11H17+
151.1114	79	C10H15O+
161.1321	10	C12H17+
163.1477	3	C12H19+
165.127	13	C11H17O+
177.1268	4	C12H17O+
189.1634	193	C14H21+
191.1428	1	C13H19O+
192.1505	19	C13H20O+
207.1739	999	C14H23O+
