Mass spectrum: Chloramphenicol; LC-ESI-ITFT; MS2; CE: 55; R=15000; [M-H]-
Name: Chloramphenicol
Name: Chloromycetny
Name: 2,2-dichloro-N-[1,3-dihydroxy-1-(4-nitrophenyl)propan-2-yl]acetamide
Formula: C11H12Cl2N2O5
Exact mass: 322.0123
SMILES: OCC(NC(=O)C(Cl)Cl)C(O)C1=CC=C(C=C1)N(=O)=O
InChI: InChI=1S/C11H12Cl2N2O5/c12-10(13)11(18)14-8(5-16)9(17)6-1-3-7(4-2-6)15(19)20/h1-4,8-10,16-17H,5H2,(H,14,18)
Instrument: LTQ Orbitrap XL Thermo Scientific
Instrument type: LC-ESI-ITFT
Ms type: MS2
Ion mode: NEGATIVE
Ionization: ESI
Fragmentation mode: CID
Collision energy: 55 (nominal)
Resolution: 15000
Column name: Kinetex Core-Shell C18 2.6 um, 3.0 x 100 mm, Phenomenex
Retention time: 19.302 min
Base peak: 212.9993
Precursor m/z: 321.0051
Precursor type: [M-H]-
m/z	relative intensity	assigned
152.0353	162	C7H6NO3-
176.0353	108	C9H6NO3-
194.0459	341	C9H8NO4-
237.0517	34	C10H9N2O5-
249.0514	144	C11H9N2O5-
257.0333	999	C10H10ClN2O4-
