Mass spectrum: Celecoxib; LC-ESI-ITFT; MS2; CE: 50%; R=15000; [M+H]+
Name: Celecoxib
Name: 4-[5-(4-methylphenyl)-3-(trifluoromethyl)pyrazol-1-yl]benzenesulfonamide
Formula: C17H14F3N3O2S
Exact mass: 381.075882348
SMILES: CC1=CC=C(C=C1)C1=CC(=NN1C1=CC=C(C=C1)S(N)(=O)=O)C(F)(F)F
InChI: InChI=1S/C17H14F3N3O2S/c1-11-2-4-12(5-3-11)15-10-16(17(18,19)20)22-23(15)13-6-8-14(9-7-13)26(21,24)25/h2-10H,1H3,(H2,21,24,25)
Instrument: LTQ Orbitrap XL Thermo Scientific
Instrument type: LC-ESI-ITFT
Ms type: MS2
Ion mode: POSITIVE
Ionization: ESI
Fragmentation mode: HCD
Collision energy: 50 % (nominal)
Resolution: 15000
Column name: Kinetex Evo C18 2.6 um 50 x 2.1 mm
Retention time: 12.023 min
Base peak: 552.1917
Precursor m/z: 382.0832
Precursor type: [M+H]+
Precursor intensity: 3841961.75
m/z	relative intensity	assigned
79.9803	23	H2NO2S+
112.1125	82	C7H14N+
116.0624	29	C9H8+
117.0703	128	C9H9+
131.0742	20	C6H10FNO+
184.0375	30	C9H5F3N+
185.0451	37	C9H6F3N+
207.105	134	C12H14FNO+
208.1124	39	C15H14N+
232.1006	26	C13H13FN2O+
233.1082	94	C13H14FN2O+
261.0829	24	C14H11F2N2O+
263.0988	43	C14H13F2N2O+
267.0734	49	C13H10F3N2O+
275.0796	49	C15H10F3N2+
281.0897	117	C14H12F3N2O+
282.0973	303	C14H13F3N2O+
283.1051	197	C14H14F3N2O+
287.0789	100	C16H10F3N2+
300.0878	345	C17H11F3N2+
301.0955	300	C17H12F3N2+
302.1034	389	C17H13F3N2+
303.111	406	C17H14F3N2+
317.0891	25	C17H12F3N2O+
342.0716	54	C17H13FN3O2S+
362.0777	999	C17H14F2N3O2S+
382.0837	430	C17H15F3N3O2S+
