Mass spectrum: Genistein; LC-ESI-ITFT; MS2; CE: 90%; R=15000; [M+H]+
Name: Genistein
Name: 5,7-dihydroxy-3-(4-hydroxyphenyl)chromen-4-one
Formula: C15H10O5
Exact mass: 270.05282342
SMILES: OC1=CC=C(C=C1)C1=COC2=CC(O)=CC(O)=C2C1=O
InChI: InChI=1S/C15H10O5/c16-9-3-1-8(2-4-9)11-7-20-13-6-10(17)5-12(18)14(13)15(11)19/h1-7,16-18H
Instrument: LTQ Orbitrap XL Thermo Scientific
Instrument type: LC-ESI-ITFT
Ms type: MS2
Ion mode: POSITIVE
Ionization: ESI
Fragmentation mode: HCD
Collision energy: 90 % (nominal)
Resolution: 15000
Column name: Kinetex Evo C18 2.6 um 50 x 2.1 mm
Retention time: 9.929 min
Base peak: 192.1389
Precursor m/z: 271.0601
Precursor type: [M+H]+
Precursor intensity: 5535766
m/z	relative intensity	assigned
65.0387	91	C5H5+
67.0179	60	C4H3O+
68.9972	129	C3HO2+
69.0337	29	C4H5O+
81.0338	25	C5H5O+
91.0546	999	C7H7+
95.0129	29	C5H3O2+
103.0546	49	C8H7+
107.0496	87	C7H7O+
109.0286	19	C6H5O2+
115.0547	131	C9H7+
117.0701	26	C9H9+
118.0415	14	C8H6O+
119.0496	182	C8H7O+
121.0288	90	C7H5O2+
128.0624	29	C10H8+
129.0704	17	C10H9+
131.0495	46	C9H7O+
135.0443	24	C8H7O2+
141.0704	244	C11H9+
145.029	48	C9H5O2+
149.0237	66	C8H5O3+
150.0318	21	C8H6O3+
152.0624	19	C12H8+
153.0188	571	C7H5O4+
155.0495	41	C11H7O+
159.0445	42	C10H7O2+
168.0578	34	C12H8O+
169.0654	144	C12H9O+
173.0603	32	C11H9O2+
183.0445	20	C12H7O2+
185.0603	18	C12H9O2+
187.0759	22	C12H11O2+
197.0602	140	C13H9O2+
215.0707	69	C13H11O3+
225.0544	20	C14H9O3+
243.0659	23	C14H11O4+
253.0508	20	C15H9O4+
271.0599	14	C15H11O5+
