Mass spectrum: 5-Methyl-1H-benzotriazole; LC-ESI-ITFT; MS2; CE: 90%; R=15000; [M+H]+
Name: 5-Methyl-1H-benzotriazole
Name: 5-methyl-2H-benzotriazole
Formula: C7H7N3
Exact mass: 133.063997224
SMILES: CC1=CC=C2NN=NC2=C1
InChI: InChI=1S/C7H7N3/c1-5-2-3-6-7(4-5)9-10-8-6/h2-4H,1H3,(H,8,9,10)
Instrument: LTQ Orbitrap XL Thermo Scientific
Instrument type: LC-ESI-ITFT
Ms type: MS2
Ion mode: POSITIVE
Ionization: ESI
Fragmentation mode: HCD
Collision energy: 90 % (nominal)
Resolution: 15000
Column name: Kinetex Evo C18 2.6 um 50 x 2.1 mm
Retention time: 6.747 min
Base peak: 134.0716
Precursor m/z: 134.0713
Precursor type: [M+H]+
Precursor intensity: 33387120
m/z	relative intensity	assigned
65.0385	6	C5H5+
66.0337	5	C4H4N+
66.0462	12	C5H6+
67.0415	17	C4H5N+
77.0385	639	C6H5+
78.0337	15	C5H4N+
78.0463	3	C6H6+
79.0541	823	C6H7+
80.0494	36	C5H6N+
89.0385	33	C7H5+
91.0416	34	C6H5N+
104.0495	7	C7H6N+
105.0447	237	C6H5N2+
106.0651	283	C7H8N+
134.0712	999	C7H8N3+
