Mass spectrum: Terbinafine; LC-ESI-ITFT; MS2; CE: 90%; R=15000; [M+H]+
Name: Terbinafine
Name: (E)-N,6,6-trimethyl-N-(naphthalen-1-ylmethyl)hept-2-en-4-yn-1-amine
Formula: C21H25N
Exact mass: 291.1986998
SMILES: CN(C\C=C\C#CC(C)(C)C)CC1=CC=CC2=CC=CC=C12
InChI: InChI=1S/C21H25N/c1-21(2,3)15-8-5-9-16-22(4)17-19-13-10-12-18-11-6-7-14-20(18)19/h5-7,9-14H,16-17H2,1-4H3/b9-5+
Instrument: LTQ Orbitrap XL Thermo Scientific
Instrument type: LC-ESI-ITFT
Ms type: MS2
Ion mode: POSITIVE
Ionization: ESI
Fragmentation mode: HCD
Collision energy: 90 % (nominal)
Resolution: 15000
Column name: Kinetex Evo C18 2.6 um 50 x 2.1 mm
Retention time: 9.674 min
Base peak: 292.2067
Precursor m/z: 292.206
Precursor type: [M+H]+
Precursor intensity: 39536112
m/z	relative intensity	assigned
55.054	3	C4H7+
67.054	1	C5H7+
77.0385	55	C6H5+
79.0541	31	C6H7+
81.0698	3	C6H9+
91.0542	65	C7H7+
93.0699	26	C7H9+
103.0542	8	C8H7+
105.0698	10	C8H9+
106.0777	2	C8H10+
115.0542	175	C9H7+
119.0854	3	C9H11+
141.0698	999	C11H9+
165.0697	1	C13H9+
178.0777	1	C14H10+
