Mass spectrum: Acetyl-sulfamethoxazole; LC-ESI-ITFT; MS2; CE: 30%; R=15000; [M+H]+
Name: Acetyl-sulfamethoxazole
Name: Acetylsulfamethoxazole
Name: N-[4-[(5-methyl-1,2-oxazol-3-yl)sulfamoyl]phenyl]acetamide
Formula: C12H13N3O4S
Exact mass: 295.062676896
SMILES: CC(=O)NC1=CC=C(C=C1)S(=O)(=O)NC1=NOC(C)=C1
InChI: InChI=1S/C12H13N3O4S/c1-8-7-12(14-19-8)15-20(17,18)11-5-3-10(4-6-11)13-9(2)16/h3-7H,1-2H3,(H,13,16)(H,14,15)
Instrument: LTQ Orbitrap XL Thermo Scientific
Instrument type: LC-ESI-ITFT
Ms type: MS2
Ion mode: POSITIVE
Ionization: ESI
Fragmentation mode: HCD
Collision energy: 30 % (nominal)
Resolution: 15000
Column name: Kinetex Evo C18 2.6 um 50 x 2.1 mm
Retention time: 7.632 min
Base peak: 325.1723
Precursor m/z: 296.07
Precursor type: [M+H]+
Precursor intensity: 1944260.38
m/z	relative intensity	assigned
108.0449	97	H12O4S+
134.0607	185	C2H14O4S+
150.0556	36	C8H8NO2+
160.0881	56	C11H12O+
188.0829	286	C12H12O2+
190.0985	128	C12H14O2+
194.0385	94	C8H8N3OS+
198.0229	579	C8H8NO3S+
230.0923	36	C12H12N3O2+
236.0502	88	C12H12O3S+
296.071	999	C12H14N3O4S+
