Mass spectrum: Ametryn; LC-ESI-ITFT; MS2; CE: 80; R=15000; [M+H]+
Name: Ametryn
Name: 4-N-Ethyl-6-methylsulfanyl-2-N-propan-2-yl-1,3,5-triazine-2,4-diamine
Formula: C9H17N5S
Exact mass: 227.1205
SMILES: CCNC1=NC(NC(C)C)=NC(SC)=N1
InChI: InChI=1S/C9H17N5S/c1-5-10-7-12-8(11-6(2)3)14-9(13-7)15-4/h6H,5H2,1-4H3,(H2,10,11,12,13,14)
Instrument: LTQ Orbitrap XL Thermo Scientific
Instrument type: LC-ESI-ITFT
Ms type: MS2
Ion mode: POSITIVE
Ionization: ESI
Fragmentation mode: HCD
Collision energy: 80 (nominal)
Resolution: 15000
Column name: Kinetex Core-Shell C18 2.6 um, 3.0 x 100 mm, Phenomenex
Retention time: 21.743 min
Base peak: 224.0915
Precursor m/z: 228.1277
Precursor type: [M+H]+
m/z	relative intensity	assigned
71.0602	385	C3H7N2+
74.0058	285	C2H4NS+
85.0508	166	C2H5N4+
91.0324	714	C2H7N2S+
96.0555	999	C4H6N3+
102.0371	29	C4H8NS+
110.0461	113	C3H4N5+
113.0821	158	C4H9N4+
116.0276	962	C3H6N3S+
138.0774	367	C5H8N5+
144.0589	351	C5H10N3S+
158.0495	275	C4H8N5S+
171.0575	12	C5H9N5S+
184.0653	8	C6H10N5S+
186.0806	806	C6H12N5S+
228.1274	14	C9H18N5S+
