Mass spectrum: Dimethoate; LC-ESI-ITFT; MS2; CE: 80; R=15000; [M+H]+
Name: Dimethoate
Name: 2-Dimethoxyphosphinothioylsulfanyl-N-methylacetamide
Formula: C5H12NO3PS2
Exact mass: 228.9996
SMILES: CNC(=O)CSP(=S)(OC)OC
InChI: InChI=1S/C5H12NO3PS2/c1-6-5(7)4-12-10(11,8-2)9-3/h4H2,1-3H3,(H,6,7)
Instrument: LTQ Orbitrap XL Thermo Scientific
Instrument type: LC-ESI-ITFT
Ms type: MS2
Ion mode: POSITIVE
Ionization: ESI
Fragmentation mode: HCD
Collision energy: 80 (nominal)
Resolution: 15000
Column name: Kinetex Core-Shell C18 2.6 um, 3.0 x 100 mm, Phenomenex
Retention time: 18.113 min
Base peak: 163.1326
Precursor m/z: 230.0069
Precursor type: [M+H]+
m/z	relative intensity	assigned
78.9943	362	CH4O2P+
88.0215	51	C3H6NS+
93.0099	140	C2H6O2P+
110.9662	42	CH4O2PS+
123.9979	55	C2H7NOPS+
124.9819	999	C2H6O2PS+
128.9768	32	CH6O3PS+
142.9925	490	C2H8O3PS+
156.9541	69	C2H6O2PS2+
