Mass spectrum: Atrazine; LC-ESI-ITFT; MS2; CE: 35; R=15000; [M+H]+
Name: Atrazine
Name: 6-Chloro-4-N-ethyl-2-N-propan-2-yl-1,3,5-triazine-2,4-diamine
Formula: C8H14ClN5
Exact mass: 215.0938
SMILES: CCNC1=NC(NC(C)C)=NC(Cl)=N1
InChI: InChI=1S/C8H14ClN5/c1-4-10-7-12-6(9)13-8(14-7)11-5(2)3/h5H,4H2,1-3H3,(H2,10,11,12,13,14)
Instrument: LTQ Orbitrap XL Thermo Scientific
Instrument type: LC-ESI-ITFT
Ms type: MS2
Ion mode: POSITIVE
Ionization: ESI
Fragmentation mode: CID
Collision energy: 35 (nominal)
Resolution: 15000
Column name: Kinetex Core-Shell C18 2.6 um, 3.0 x 100 mm, Phenomenex
Retention time: 23.294 min
Base peak: 242.1429
Precursor m/z: 216.101
Precursor type: [M+H]+
m/z	relative intensity	assigned
68.0242	2	C2H2N3+
79.0057	2	CH4ClN2+
96.0555	17	C4H6N3+
104.0009	12	C2H3ClN3+
132.0322	5	C4H7ClN3+
138.0773	2	C5H8N5+
138.1026	18	C7H12N3+
146.0227	8	C3H5ClN5+
146.048	10	C5H9ClN3+
174.0539	999	C5H9ClN5+
180.1239	2	C8H14N5+
188.0698	7	C6H11ClN5+
216.1009	371	C8H15ClN5+
