Mass spectrum: 2-Morpholinothiobenzothiazole; LC-ESI-ITFT; MS2; CE: 80%; R=15000; [M+H]+
Name: 2-Morpholinothiobenzothiazole
Name: 2-(Morpholinothio)benzothiazole
Name: 4-(1,3-benzothiazol-2-ylsulfanyl)morpholine
Formula: C11H12N2OS2
Exact mass: 252.039105004
SMILES: C1CN(CCO1)SC1=NC2=CC=CC=C2S1
InChI: InChI=1S/C11H12N2OS2/c1-2-4-10-9(3-1)12-11(15-10)16-13-5-7-14-8-6-13/h1-4H,5-8H2
Instrument: LTQ Orbitrap XL Thermo Scientific
Instrument type: LC-ESI-ITFT
Ms type: MS2
Ion mode: POSITIVE
Ionization: ESI
Fragmentation mode: HCD
Collision energy: 80 % (nominal)
Resolution: 15000
Column name: Kinetex Evo C18 2.6 um 50 x 2.1 mm
Retention time: 11.187 min
Base peak: 309.1128
Precursor m/z: 253.0464
Precursor type: [M+H]+
Precursor intensity: 20010630
m/z	relative intensity	assigned
58.0648	100	C3H8N+
68.0492	3	C4H6N+
86.06	999	C4H8NO+
87.0677	270	C4H9NO+
90.0337	4	C6H4N+
92.0494	5	C6H6N+
108.0028	48	C6H4S+
109.0106	4	C6H5S+
110.0187	4	C6H6S+
118.0323	7	C4H8NOS+
122.0058	38	C6H4NS+
124.0213	5	C6H6NS+
132.9985	4	C7H3NS+
135.0137	13	C7H5NS+
136.0214	48	C7H6NS+
138.9671	14	C6H3S2+
148.021	3	C8H6NS+
162.0379	5	C9H8NS+
163.0322	11	C8H7N2S+
163.0451	9	C9H9NS+
165.9779	221	C7H4NS2+
166.9857	52	C7H5NS2+
167.9935	66	C7H6NS2+
175.0324	7	C9H7N2S+
219.0584	4	C11H11N2OS+
