Mass spectrum: Dimethoate; LC-ESI-ITFT; MS2; CE: 20%; R=15000; [M+H]+
Name: Dimethoate
Name: 2-dimethoxyphosphinothioylsulfanyl-N-methylacetamide
Formula: C5H12NO3PS2
Exact mass: 228.999621874
SMILES: CNC(=O)CSP(=S)(OC)OC
InChI: InChI=1S/C5H12NO3PS2/c1-6-5(7)4-12-10(11,8-2)9-3/h4H2,1-3H3,(H,6,7)
Instrument: LTQ Orbitrap XL Thermo Scientific
Instrument type: LC-ESI-ITFT
Ms type: MS2
Ion mode: POSITIVE
Ionization: ESI
Fragmentation mode: HCD
Collision energy: 20 % (nominal)
Resolution: 15000
Column name: Kinetex Evo C18 2.6 um 50 x 2.1 mm
Retention time: 5.621 min
Base peak: 230.0075
Precursor m/z: 230.0069
Precursor type: [M+H]+
Precursor intensity: 10259958
m/z	relative intensity	assigned
61.0104	9	C2H5S+
78.9941	2	CH4O2P+
88.0215	294	C3H6NS+
119.9934	2	C3H6NS2+
124.982	198	C2H6O2PS+
142.9926	99	C2H8O3PS+
156.9541	13	C2H6O2PS2+
157.0082	2	C3H10O3PS+
158.9703	1	C2H8O2PS2+
170.9698	477	C3H8O2PS2+
197.9807	55	C4H9NO2PS2+
198.9647	999	C4H8O3PS2+
230.0068	132	C5H13NO3PS2+
