Mass spectrum: Caffeine; ESI-ITFT; MS2; CE: 35%; R=30000; [M+H]+
Name: Caffeine
Name: 1,3,7-trimethylpurine-2,6-dione
Formula: C8H10N4O2
Exact mass: 194.0804
SMILES: Cn1cnc2c1c(=O)n(c(=O)n2C)C
InChI: InChI=1S/C8H10N4O2/c1-10-4-9-6-5(10)7(13)12(3)8(14)11(6)2/h4H,1-3H3
Instrument: LTQ Orbitrap XL Thermo Scientific
Instrument type: ESI-ITFT
Ms type: MS2
Ion mode: POSITIVE
Ionization: ESI
Fragmentation mode: CID
Collision energy: 35 % (nominal)
Resolution: 30000
Column name: N/A
Retention time: N/A min
Base peak: 195.0877
Precursor m/z: 195.0877
Precursor type: [M+H]+
m/z	relative intensity	assigned
69.0447	2	C3H5N2+
83.0604	2	C4H7N2+
110.0713	23	C5H8N3+
111.0553	1	C5H7N2O+
138.0662	999	C6H8N3O+
151.0979	4	C7H11N4+
163.0615	2	C7H7N4O+
195.0877	202	C8H11N4O2+
