Mass spectrum: Diphenylphosphate; LC-ESI-ITFT; MS2; CE: 60%; R=15000; [M+H]+
Name: Diphenylphosphate
Name: Diphenyl phosphate
Name: diphenyl hydrogen phosphate
Formula: C12H11O4P
Exact mass: 250.039495462
SMILES: OP(=O)(OC1=CC=CC=C1)OC1=CC=CC=C1
InChI: InChI=1S/C12H11O4P/c13-17(14,15-11-7-3-1-4-8-11)16-12-9-5-2-6-10-12/h1-10H,(H,13,14)
Instrument: LTQ Orbitrap XL Thermo Scientific
Instrument type: LC-ESI-ITFT
Ms type: MS2
Ion mode: POSITIVE
Ionization: ESI
Fragmentation mode: HCD
Collision energy: 60 % (nominal)
Resolution: 15000
Column name: Kinetex Evo C18 2.6 um 50 x 2.1 mm
Retention time: 11.598 min
Base peak: 251.0477
Precursor m/z: 251.0468
Precursor type: [M+H]+
Precursor intensity: 4320617
m/z	relative intensity	assigned
53.0385	4	C4H5+
77.0387	999	C6H5+
94.0414	16	C6H6O+
95.0494	518	C6H7O+
98.9844	38	H4O4P+
129.0101	11	C5H6O2P+
151.0547	19	C12H7+
152.0625	441	C12H8+
153.0703	439	C12H9+
157.0053	38	C6H6O3P+
168.0574	39	C12H8O+
169.0653	14	C12H9O+
171.0806	6	C12H11O+
175.016	295	C6H8O4P+
215.0262	101	C12H8O2P+
233.0367	180	C12H10O3P+
251.0474	164	C12H12O4P+
