Mass spectrum: Metoprolol acid; LC-ESI-ITFT; MS2; CE: 40%; R=15000; [M+H]+
Name: Metoprolol acid
Name: 2-[4-[2-hydroxy-3-(propan-2-ylamino)propoxy]phenyl]acetic acid
Formula: C14H21NO4
Exact mass: 267.147058152
SMILES: CC(C)NCC(O)COC1=CC=C(CC(O)=O)C=C1
InChI: InChI=1S/C14H21NO4/c1-10(2)15-8-12(16)9-19-13-5-3-11(4-6-13)7-14(17)18/h3-6,10,12,15-16H,7-9H2,1-2H3,(H,17,18)
Instrument: LTQ Orbitrap XL Thermo Scientific
Instrument type: LC-ESI-ITFT
Ms type: MS2
Ion mode: POSITIVE
Ionization: ESI
Fragmentation mode: HCD
Collision energy: 40 % (nominal)
Resolution: 15000
Column name: Kinetex Evo C18 2.6 um 50 x 2.1 mm
Retention time: 1.032 min
Base peak: 235.1817
Precursor m/z: 268.1543
Precursor type: [M+H]+
Precursor intensity: 16525449
m/z	relative intensity	assigned
56.0493	93	C3H6N+
58.0649	10	C3H8N+
60.0806	2	C3H10N+
72.0807	176	C4H10N+
74.06	101	C3H8NO+
86.0965	3	C5H12N+
91.0543	3	C7H7+
98.0965	173	C6H12N+
100.1122	1	C6H14N+
107.0493	2	C7H7O+
116.1071	185	C6H14NO+
119.0492	3	C8H7O+
133.065	3	C9H9O+
137.0599	5	C8H9O2+
145.0649	180	C10H9O+
162.0915	8	C10H12NO+
163.0754	9	C10H11O2+
165.0548	81	C9H9O3+
179.0705	9	C10H11O3+
191.0705	463	C11H11O3+
204.1383	1	C13H18NO+
207.1017	1	C12H15O3+
208.0971	10	C11H14NO3+
226.1076	226	C11H16NO4+
233.1177	4	C14H17O3+
250.144	46	C14H20NO3+
268.1546	999	C14H22NO4+
