Mass spectrum: Piperine; LC-ESI-ITFT; MS2; CE: 50%; R=15000; [M+H]+
Name: Piperine
Name: (2E,4E)-5-(1,3-benzodioxol-5-yl)-1-piperidin-1-ylpenta-2,4-dien-1-one
Formula: C17H19NO3
Exact mass: 285.136493468
SMILES: O=C(\C=C\C=C\C1=CC2=C(OCO2)C=C1)N1CCCCC1
InChI: InChI=1S/C17H19NO3/c19-17(18-10-4-1-5-11-18)7-3-2-6-14-8-9-15-16(12-14)21-13-20-15/h2-3,6-9,12H,1,4-5,10-11,13H2/b6-2+,7-3+
Instrument: LTQ Orbitrap XL Thermo Scientific
Instrument type: LC-ESI-ITFT
Ms type: MS2
Ion mode: POSITIVE
Ionization: ESI
Fragmentation mode: HCD
Collision energy: 50 % (nominal)
Resolution: 15000
Column name: Kinetex Evo C18 2.6 um 50 x 2.1 mm
Retention time: 11.792 min
Base peak: 286.144
Precursor m/z: 286.1438
Precursor type: [M+H]+
Precursor intensity: 19486782
m/z	relative intensity	assigned
69.0696	46	C5H9+
84.0805	29	C5H10N+
86.0962	30	C5H12N+
112.0754	89	C6H10NO+
115.0539	51	C9H7+
117.0697	4	C9H9+
131.049	1	C9H7O+
134.0961	5	C9H12N+
135.0437	304	C8H7O2+
143.0488	100	C10H7O+
150.0908	7	C9H12NO+
151.0988	35	C9H13NO+
159.0437	27	C10H7O2+
161.059	2	C10H9O2+
171.0437	110	C11H7O2+
173.0593	68	C11H9O2+
185.0956	6	C13H13O+
201.0541	999	C12H9O3+
215.1057	4	C14H15O2+
218.1169	1	C13H16NO2+
258.1489	3	C16H20NO2+
268.1324	1	C17H18NO2+
286.1431	66	C17H20NO3+
