Mass spectrum: Imidacloprid; LC-ESI-ITFT; MS2; CE: 80%; R=15000; [M+H]+
Name: Imidacloprid
Name: N-[1-[(6-chloro-3-pyridinyl)methyl]-4,5-dihydroimidazol-2-yl]nitramide
Name: N-[1-[(6-chloropyridin-3-yl)methyl]-4,5-dihydroimidazol-2-yl]nitramide
Formula: C9H10ClN5O2
Exact mass: 255.05230224
SMILES: [O-][N+](=O)\N=C1/NCCN1CC1=CN=C(Cl)C=C1
InChI: InChI=1S/C9H10ClN5O2/c10-8-2-1-7(5-12-8)6-14-4-3-11-9(14)13-15(16)17/h1-2,5H,3-4,6H2,(H,11,13)
Instrument: LTQ Orbitrap XL Thermo Scientific
Instrument type: LC-ESI-ITFT
Ms type: MS2
Ion mode: POSITIVE
Ionization: ESI
Fragmentation mode: HCD
Collision energy: 80 % (nominal)
Resolution: 15000
Column name: Kinetex Evo C18 2.6 um 50 x 2.1 mm
Retention time: 6.012 min
Base peak: 239.1511
Precursor m/z: 256.0596
Precursor type: [M+H]+
Precursor intensity: 5876656
m/z	relative intensity	assigned
56.0493	39	C3H6N+
63.0226	6	C5H3+
65.0385	6	C5H5+
69.0447	7	C3H5N2+
71.0603	14	C3H7N2+
72.0683	3	C3H8N2+
80.0496	8	C5H6N+
84.0556	196	C3H6N3+
90.0339	83	C6H4N+
91.0417	10	C6H5N+
92.0496	19	C6H6N+
93.0573	8	C6H7N+
96.0444	3	C5H6NO+
97.0634	5	C4H7N3+
98.0713	16	C4H8N3+
98.9996	18	C5H4Cl+
99.0553	29	C4H7N2O+
104.037	5	C6H4N2+
105.0448	27	C6H5N2+
106.0652	37	C7H8N+
107.0604	35	C6H7N2+
108.0683	8	C6H8N2+
113.0027	26	C5H4ClN+
114.0105	17	C5H5ClN+
118.0525	8	C7H6N2+
119.0478	19	C6H5N3+
119.0604	31	C7H7N2+
120.0556	21	C6H6N3+
120.0679	3	C7H8N2+
121.0636	8	C6H7N3+
122.0714	8	C6H8N3+
123.0558	3	C3H10ClN3+
126.0106	174	C6H5ClN+
127.0184	20	C6H6ClN+
128.0262	103	C6H7ClN+
131.0478	4	C7H5N3+
131.0604	22	C8H7N2+
132.0556	24	C7H6N3+
132.0683	9	C8H8N2+
133.0636	60	C7H7N3+
133.0761	68	C8H9N2+
134.0713	39	C7H8N3+
135.0793	11	C7H9N3+
138.0103	4	C7H5ClN+
139.0057	11	C6H4ClN2+
140.0135	6	C6H5ClN2+
140.0263	4	C7H7ClN+
141.0215	59	C6H6ClN2+
144.0213	8	C6H7ClNO+
146.0589	31	C7H6N4+
146.0714	133	C8H8N3+
147.0666	177	C7H7N4+
147.0792	14	C8H9N3+
148.0743	3	C7H8N4+
148.087	69	C8H10N3+
151.0183	8	C8H6ClN+
152.0137	7	C7H5ClN2+
153.0212	9	C7H6ClN2+
154.0174	4	C6H5ClN3+
155.037	6	C7H8ClN2+
157.0638	9	C9H7N3+
158.0714	87	C9H8N3+
159.0665	14	C8H7N4+
159.0792	110	C9H9N3+
160.0869	6	C9H10N3+
166.0168	16	C7H5ClN3+
167.0372	46	C8H8ClN2+
173.0824	235	C9H9N4+
174.0902	161	C9H10N4+
175.098	999	C9H11N4+
180.0325	13	C8H7ClN3+
181.0277	64	C7H6ClN4+
191.0929	20	C9H11N4O+
193.0398	4	C9H8ClN3+
194.0482	28	C9H9ClN3+
207.0431	6	C9H8ClN4+
208.0511	28	C9H9ClN4+
209.059	985	C9H10ClN4+
