Mass spectrum: Verapamil; LC-ESI-ITFT; MS2; CE: 80%; R=15000; [M+H]+
Name: Verapamil
Name: 2-(3,4-dimethoxyphenyl)-5-[2-(3,4-dimethoxyphenyl)ethyl-methylamino]-2-propan-2-ylpentanenitrile
Formula: C27H38N2O4
Exact mass: 454.283157696
SMILES: COC1=CC=C(CCN(C)CCCC(C#N)(C(C)C)C2=CC(OC)=C(OC)C=C2)C=C1OC
InChI: InChI=1S/C27H38N2O4/c1-20(2)27(19-28,22-10-12-24(31-5)26(18-22)33-7)14-8-15-29(3)16-13-21-9-11-23(30-4)25(17-21)32-6/h9-12,17-18,20H,8,13-16H2,1-7H3
Instrument: LTQ Orbitrap XL Thermo Scientific
Instrument type: LC-ESI-ITFT
Ms type: MS2
Ion mode: POSITIVE
Ionization: ESI
Fragmentation mode: HCD
Collision energy: 80 % (nominal)
Resolution: 15000
Column name: Kinetex Evo C18 2.6 um 50 x 2.1 mm
Retention time: 8.741 min
Base peak: 278.1915
Precursor m/z: 455.2904
Precursor type: [M+H]+
Precursor intensity: 9106437
m/z	relative intensity	assigned
57.0332	7	C3H5O+
58.065	101	C3H8N+
77.0387	22	C6H5+
78.0466	10	C6H6+
79.0543	218	C6H7+
80.0495	4	C5H6N+
80.0577	9	CH8N2O2+
81.0698	5	C6H9+
84.081	40	C5H10N+
86.0966	20	C5H12N+
90.0465	14	C7H6+
91.0544	75	C7H7+
92.0622	14	C7H8+
93.0701	21	C7H9+
94.0415	7	C6H6O+
94.0651	11	C6H8N+
95.0494	11	C6H7O+
95.0857	9	C7H11+
96.081	12	C6H10N+
102.0465	3	C8H6+
103.0544	220	C8H7+
104.0577	12	C3H8N2O2+
104.0623	51	C8H8+
105.0449	28	C6H5N2+
105.0701	456	C8H9+
106.0735	28	C3H10N2O2+
107.0493	146	C7H7O+
108.0572	13	C7H8O+
109.0651	18	C7H9O+
115.0543	6	C9H7+
117.07	7	C9H9+
118.0416	105	C8H6O+
119.0494	106	C8H7O+
120.0572	118	C8H8O+
121.065	235	C8H9O+
122.0685	16	C3H10N2O3+
122.0728	73	C8H10O+
122.0966	13	C8H12N+
123.0445	10	C7H7O2+
123.0807	10	C8H11O+
124.0521	16	C7H8O2+
131.0494	47	C9H7O+
132.0572	21	C9H8O+
133.0651	232	C9H9O+
133.0764	24	C8H9N2+
134.0729	437	C9H10O+
135.0443	332	C8H7O2+
135.0805	93	C9H11O+
136.0517	28	C8H8O2+
136.0838	8	C4H12N2O3+
137.0599	50	C8H9O2+
137.0967	6	C9H13O+
138.0678	39	C8H10O2+
139.0756	13	C8H11O2+
146.0606	4	C9H8NO+
146.0729	28	C10H10O+
149.0601	69	C9H9O2+
150.0678	999	C9H10O2+
151.0749	162	C9H11O2+
152.083	29	C9H12O2+
159.0803	5	C11H11O+
160.0757	5	C10H10NO+
160.0885	9	C11H12O+
162.0681	5	C10H10O2+
164.084	10	C10H12O2+
165.0913	547	C10H13O2+
166.0947	54	C5H14N2O4+
172.0757	10	C11H10NO+
174.0919	9	C11H12NO+
176.071	26	C10H10NO2+
177.0913	39	C11H13O2+
186.0917	5	C12H12NO+
187.0994	15	C12H13NO+
188.0707	6	C11H10NO2+
191.107	18	C12H15O2+
202.0869	19	C12H12NO2+
203.0947	12	C12H13NO2+
218.1179	12	C13H16NO2+
