Mass spectrum: Genistein; LC-ESI-ITFT; MS2; CE: 35; R=15000; [M-H]-
Name: Genistein
Name: 5,7-Dihydroxy-3-(4-hydroxyphenyl)chromen-4-one
Formula: C15H10O5
Exact mass: 270.0528
SMILES: OC1=CC=C(C=C1)C1=COC2=CC(O)=CC(O)=C2C1=O
InChI: InChI=1S/C15H10O5/c16-9-3-1-8(2-4-9)11-7-20-13-6-10(17)5-12(18)14(13)15(11)19/h1-7,16-18H
Instrument: LTQ Orbitrap XL Thermo Scientific
Instrument type: LC-ESI-ITFT
Ms type: MS2
Ion mode: NEGATIVE
Ionization: ESI
Fragmentation mode: CID
Collision energy: 35 (nominal)
Resolution: 15000
Column name: Kinetex Core-Shell C18 2.6 um, 3.0 x 100 mm, Phenomenex
Retention time: 22.733 min
Base peak: 405.1921
Precursor m/z: 269.0455
Precursor type: [M-H]-
m/z	relative intensity	assigned
91.0191	14	C6H3O-
107.014	37	C6H3O2-
132.0215	14	C8H4O2-
133.0295	262	C8H5O2-
135.0089	46	C7H3O3-
135.0453	13	C8H7O2-
151.0036	28	C7H3O4-
152.0631	20	C12H8-
155.0504	44	C11H7O-
156.058	13	C11H8O-
157.0295	91	C10H5O2-
157.066	78	C11H9O-
159.0452	158	C10H7O2-
161.0248	18	C9H5O3-
169.0659	293	C12H9O-
171.045	22	C11H7O2-
173.0609	37	C11H9O2-
176.0117	37	C9H4O4-
179.0504	37	C13H7O-
180.0581	320	C13H8O-
181.0659	904	C13H9O-
182.0374	57	C12H6O2-
183.0452	335	C12H7O2-
195.0454	56	C13H7O2-
196.053	304	C13H8O2-
197.0608	443	C13H9O2-
199.0401	199	C12H7O3-
201.0557	708	C12H9O3-
210.0324	29	C13H6O3-
213.0557	242	C13H9O3-
223.0396	35	C14H7O3-
224.0479	507	C14H8O3-
225.0557	776	C14H9O3-
227.0349	221	C13H7O4-
240.0428	96	C14H8O4-
241.0505	344	C14H9O4-
269.0454	999	C15H9O5-
