Mass spectrum: MeIQX; APCI-ITFT; MS2; CE: 35%; R=30000; [M-H]-
Name: MeIQX
Name: 3,8-dimethylimidazo[4,5-f]quinoxalin-2-amine
Formula: C11H11N5
Exact mass: 213.1014
SMILES: Cc1cnc2ccc3c(c2n1)nc(n3C)N
InChI: InChI=1S/C11H11N5/c1-6-5-13-7-3-4-8-10(9(7)14-6)15-11(12)16(8)2/h3-5H,1-2H3,(H2,12,15)
Instrument: LTQ Orbitrap XL Thermo Scientific
Instrument type: APCI-ITFT
Ms type: MS2
Ion mode: NEGATIVE
Ionization: APCI
Fragmentation mode: CID
Collision energy: 35 % (nominal)
Resolution: 30000
Column name: N/A
Retention time: N/A min
Base peak: 212.0942
Precursor m/z: 212.0942
Precursor type: [M-H]-
m/z	relative intensity
197.0702	999
