Mass spectrum: Triphenylphosphate; LC-ESI-ITFT; MS2; CE: 55; R=15000; [M+H]+
Name: Triphenylphosphate
Name: Triphenyl phosphate
Formula: C18H15O4P
Exact mass: 326.0708
SMILES: O=P(OC1=CC=CC=C1)(OC1=CC=CC=C1)OC1=CC=CC=C1
InChI: InChI=1S/C18H15O4P/c19-23(20-16-10-4-1-5-11-16,21-17-12-6-2-7-13-17)22-18-14-8-3-9-15-18/h1-15H
Instrument: LTQ Orbitrap XL Thermo Scientific
Instrument type: LC-ESI-ITFT
Ms type: MS2
Ion mode: POSITIVE
Ionization: ESI
Fragmentation mode: CID
Collision energy: 55 (nominal)
Resolution: 15000
Column name: Kinetex Core-Shell C18 2.6 um, 3.0 x 100 mm, Phenomenex
Retention time: 26.251 min
Base peak: 327.0788
Precursor m/z: 327.0781
Precursor type: [M+H]+
m/z	relative intensity	assigned
95.0495	1	C6H7O+
98.9843	1	H4O4P+
141.0707	1	C7H12NP+
151.0549	11	C12H7+
152.0627	153	C12H8+
153.0705	262	C12H9+
168.0576	27	C12H8O+
169.0654	7	C12H9O+
170.0732	3	C12H10O+
171.0812	94	C12H11O+
175.0163	34	C6H8O4P+
179.0612	4	C10H12OP+
181.0769	3	C10H14OP+
203.0868	5	C12H14NP+
215.0266	999	C12H8O2P+
227.0867	45	C14H14NP+
228.0943	305	C18H12+
229.1022	304	C18H13+
233.0371	946	C12H10O3P+
251.0479	317	C12H12O4P+
291.0583	111	C18H12O2P+
309.069	120	C18H14O3P+
