Mass spectrum: Acetyl-sulfamethoxazole; LC-ESI-ITFT; MS2; CE: 70%; R=15000; [M+H]+
Name: Acetyl-sulfamethoxazole
Name: Acetylsulfamethoxazole
Name: N-[4-[(5-methyl-1,2-oxazol-3-yl)sulfamoyl]phenyl]acetamide
Formula: C12H13N3O4S
Exact mass: 295.062676896
SMILES: CC(=O)NC1=CC=C(C=C1)S(=O)(=O)NC1=NOC(C)=C1
InChI: InChI=1S/C12H13N3O4S/c1-8-7-12(14-19-8)15-20(17,18)11-5-3-10(4-6-11)13-9(2)16/h3-7H,1-2H3,(H,13,16)(H,14,15)
Instrument: LTQ Orbitrap XL Thermo Scientific
Instrument type: LC-ESI-ITFT
Ms type: MS2
Ion mode: POSITIVE
Ionization: ESI
Fragmentation mode: HCD
Collision energy: 70 % (nominal)
Resolution: 15000
Column name: Kinetex Evo C18 2.6 um 50 x 2.1 mm
Retention time: 7.620 min
Base peak: 325.1721
Precursor m/z: 296.07
Precursor type: [M+H]+
Precursor intensity: 6730892
m/z	relative intensity	assigned
65.0385	853	C5H5+
79.0543	21	C6H7+
80.0495	18	C5H6N+
92.0497	275	C6H6N+
93.0337	249	C6H5O+
93.0575	194	C6H7N+
99.0555	106	C4H7N2O+
105.0451	2	H11NO3S+
106.0653	59	CH14O3S+
107.0606	35	C6H7N2+
110.0602	23	H14O4S+
119.0609	5	CH13NO3S+
131.0606	15	C8H7N2+
133.0763	4	C8H9N2+
134.0603	999	C2H14O4S+
136.0759	37	C8H10NO+
140.0166	5	C6H6NOS+
143.0609	3	C3H13NO3S+
146.0716	107	C2H14N2O3S+
147.0794	86	C8H9N3+
148.0873	12	C8H10N3+
150.0552	5	C8H8NO2+
156.0117	48	C6H6NO2S+
160.0872	166	C9H10N3+
161.0021	12	C12HO+
161.0714	4	C9H9N2O+
173.0586	5	C9H7N3O+
176.0282	24	C10H8OS+
194.0386	7	C8H8N3OS+
198.0223	9	C8H8NO3S+
