Mass spectrum: Ifosfamide; LC-ESI-ITFT; MS2; CE: 50%; R=15000; [M+H]+
Name: Ifosfamide
Name: N,3-bis(2-chloroethyl)-2-oxo-1,3,2lambda5-oxazaphosphinan-2-amine
Formula: C7H15Cl2N2O2P
Exact mass: 260.02481971
SMILES: ClCCNP1(=O)OCCCN1CCCl
InChI: InChI=1S/C7H15Cl2N2O2P/c8-2-4-10-14(12)11(6-3-9)5-1-7-13-14/h1-7H2,(H,10,12)
Instrument: LTQ Orbitrap XL Thermo Scientific
Instrument type: LC-ESI-ITFT
Ms type: MS2
Ion mode: POSITIVE
Ionization: ESI
Fragmentation mode: HCD
Collision energy: 50 % (nominal)
Resolution: 15000
Column name: Kinetex Evo C18 2.6 um 50 x 2.1 mm
Retention time: 7.032 min
Base peak: 307.1121
Precursor m/z: 261.0321
Precursor type: [M+H]+
Precursor intensity: 2944202.5
m/z	relative intensity	assigned
62.9994	22	CH4OP+
67.054	9	C5H7+
72.0444	4	C3H6NO+
78.0104	317	C2H5ClN+
80.026	9	CH7NOP+
82.0652	7	C5H8N+
84.0807	10	C5H10N+
92.0261	999	C3H7ClN+
114.1275	5	C7H16N+
115.9662	6	ClH4NO2P+
116.9503	18	CH3Cl2O2+
118.006	2	ClH8N2OP+
118.0418	15	C5H9ClN+
120.0574	194	C5H11ClN+
124.0156	3	C3H7ClNO2+
125.9506	13	CH2ClNO2P+
126.9706	3	C2H5ClO2P+
127.9662	20	CH4ClNO2P+
128.0259	10	C5H7NOP+
141.9819	31	C2H6ClNO2P+
146.0365	62	C5H9NO2P+
153.9819	769	C3H6ClNO2P+
155.9974	4	C7H5ClO2+
164.0471	4	C6H11ClNO2+
182.0132	254	C5H10ClNO2P+
200.0238	36	C6H12Cl2NO2+
233.0008	244	C5H12Cl2N2O2P+
261.0321	189	C7H16Cl2N2O2P+
