Mass spectrum: Azinphos methyl; LC-ESI-ITFT; MS2; CE: 40%; R=15000; [M+H]+
Name: Azinphos methyl
Name: Azinphos-methyl
Name: 3-(dimethoxyphosphinothioylsulfanylmethyl)-1,2,3-benzotriazin-4-one
Formula: C10H12N3O3PS2
Exact mass: 317.005769874
SMILES: COP(=S)(OC)SCN1N=NC2=CC=CC=C2C1=O
InChI: InChI=1S/C10H12N3O3PS2/c1-15-17(18,16-2)19-7-13-10(14)8-5-3-4-6-9(8)11-12-13/h3-6H,7H2,1-2H3
Instrument: LTQ Orbitrap XL Thermo Scientific
Instrument type: LC-ESI-ITFT
Ms type: MS2
Ion mode: POSITIVE
Ionization: ESI
Fragmentation mode: HCD
Collision energy: 40 % (nominal)
Resolution: 15000
Column name: Kinetex Evo C18 2.6 um 50 x 2.1 mm
Retention time: 10.764 min
Base peak: 339.9961
Precursor m/z: 318.013
Precursor type: [M+H]+
Precursor intensity: 2109922.75
m/z	relative intensity	assigned
77.0389	18	C2H8NP+
78.9947	27	CH4O2P+
104.0501	48	CH12O3S+
105.034	45	C3H8NOP+
124.9826	999	C2H6O2PS+
132.045	208	C4H9N2OP+
135.0446	11	C4H10NO2P+
142.9933	538	C2H8O3PS+
148.0224	9	C2H12O3S2+
157.0089	16	C3H10O3PS+
167.0169	156	C4H10NO2PS+
