Mass spectrum: 4-tert-Butylbenzenesulfonamide; LC-ESI-ITFT; MS2; CE: 40%; R=15000; [M+H]+
Name: 4-tert-Butylbenzenesulfonamide
Formula: C10H15NO2S
Exact mass: 213.08234972
SMILES: CC(C)(C)C1=CC=C(C=C1)S(N)(=O)=O
InChI: InChI=1S/C10H15NO2S/c1-10(2,3)8-4-6-9(7-5-8)14(11,12)13/h4-7H,1-3H3,(H2,11,12,13)
Instrument: LTQ Orbitrap XL Thermo Scientific
Instrument type: LC-ESI-ITFT
Ms type: MS2
Ion mode: POSITIVE
Ionization: ESI
Fragmentation mode: HCD
Collision energy: 40 % (nominal)
Resolution: 15000
Column name: Kinetex Evo C18 2.6 um 50 x 2.1 mm
Retention time: 9.307 min
Base peak: 358.238
Precursor m/z: 214.0896
Precursor type: [M+H]+
Precursor intensity: 135425.36
m/z	relative intensity	assigned
91.0544	300	C7H7+
105.0702	453	C8H9+
151.1118	320	C10H15O+
197.063	999	C10H13O2S+
