Mass spectrum: Gemfibrozil; LC-ESI-ITFT; MS2; CE: 55; R=15000; [M-H]-
Name: Gemfibrozil
Name: 5-(2,5-Dimethylphenoxy)-2,2-dimethylpentanoic acid
Formula: C15H22O3
Exact mass: 250.1569
SMILES: CC1=CC(OCCCC(C)(C)C(O)=O)=C(C)C=C1
InChI: InChI=1S/C15H22O3/c1-11-6-7-12(2)13(10-11)18-9-5-8-15(3,4)14(16)17/h6-7,10H,5,8-9H2,1-4H3,(H,16,17)
Instrument: LTQ Orbitrap XL Thermo Scientific
Instrument type: LC-ESI-ITFT
Ms type: MS2
Ion mode: NEGATIVE
Ionization: ESI
Fragmentation mode: CID
Collision energy: 55 (nominal)
Resolution: 15000
Column name: Kinetex Core-Shell C18 2.6 um, 3.0 x 100 mm, Phenomenex
Retention time: 27.046 min
Base peak: 240.1031
Precursor m/z: 249.1496
Precursor type: [M-H]-
m/z	relative intensity	assigned
121.0659	999	C8H9O-
