Mass spectrum: 7-Diethylamino-4-methylcoumarin; LC-ESI-ITFT; MS2; CE: 70%; R=15000; [M+H]+
Name: 7-Diethylamino-4-methylcoumarin
Name: 7-(diethylamino)-4-methylchromen-2-one
Formula: C14H17NO2
Exact mass: 231.125928784
SMILES: CCN(CC)C1=CC=C2C(C)=CC(=O)OC2=C1
InChI: InChI=1S/C14H17NO2/c1-4-15(5-2)11-6-7-12-10(3)8-14(16)17-13(12)9-11/h6-9H,4-5H2,1-3H3
Instrument: LTQ Orbitrap XL Thermo Scientific
Instrument type: LC-ESI-ITFT
Ms type: MS2
Ion mode: POSITIVE
Ionization: ESI
Fragmentation mode: HCD
Collision energy: 70 % (nominal)
Resolution: 15000
Column name: Kinetex Evo C18 2.6 um 50 x 2.1 mm
Retention time: 11.287 min
Base peak: 232.1341
Precursor m/z: 232.1332
Precursor type: [M+H]+
Precursor intensity: 52989100
m/z	relative intensity	assigned
67.0178	3	C4H3O+
68.013	16	C3H2NO+
91.0543	3	C7H7+
96.0444	12	C5H6NO+
103.0545	3	C8H7+
105.07	8	C8H9+
109.0647	2	C7H9O+
116.062	2	C9H8+
117.0578	1	C8H7N+
117.0699	5	C9H9+
118.0654	3	C8H8N+
120.0807	3	C8H10N+
130.0652	9	C9H8N+
131.0732	6	C9H9N+
131.0857	2	C10H11+
132.0564	2	C9H8O+
132.0808	20	C9H10N+
134.0601	4	C8H8NO+
134.0963	3	C9H12N+
138.0914	4	C8H12NO+
144.0809	35	C10H10N+
145.0888	2	C10H11N+
146.0599	2	C9H8NO+
146.0966	8	C10H12N+
147.0678	12	C9H9NO+
147.1043	2	C10H13N+
148.0757	3	C9H10NO+
148.1122	23	C10H14N+
158.0967	11	C11H12N+
159.1046	6	C11H13N+
160.0758	169	C10H10NO+
160.1122	12	C11H14N+
161.0597	2	C10H9O2+
161.0839	2	C10H11NO+
161.1199	6	C11H15N+
162.0917	4	C10H12NO+
172.1119	5	C12H14N+
173.1202	3	C12H15N+
174.0916	34	C11H12NO+
175.063	14	C10H9NO2+
175.0993	190	C11H13NO+
176.0708	13	C10H10NO2+
176.1071	26	C11H14NO+
176.1435	69	C12H18N+
188.0707	999	C11H10NO2+
189.115	7	C12H15NO+
202.0864	49	C12H12NO2+
203.0942	287	C12H13NO2+
204.102	92	C12H14NO2+
204.1385	19	C13H18NO+
216.102	9	C13H14NO2+
217.1101	5	C13H15NO2+
232.1333	189	C14H18NO2+
