Mass spectrum: N-lauroylethanolamine; LC-ESI-ITFT; MS2; CE: 55%; R=15000; [M+H]+
Name: N-lauroylethanolamine
Name: N-(2-hydroxyethyl)dodecanamide
Formula: C14H29NO2
Exact mass: 243.2198
SMILES: CCCCCCCCCCCC(=O)NCCO
InChI: InChI=1S/C14H29NO2/c1-2-3-4-5-6-7-8-9-10-11-14(17)15-12-13-16/h16H,2-13H2,1H3,(H,15,17)
Instrument: LTQ Orbitrap XL Thermo Scientific
Instrument type: LC-ESI-ITFT
Ms type: MS2
Ion mode: POSITIVE
Ionization: ESI
Fragmentation mode: HCD
Collision energy: 55 % (nominal)
Resolution: 15000
Column name: Kinetex Evo C18 2.6 um 50 x 2.1 mm
Retention time: 13.009 min
Base peak: 244.227
Precursor m/z: 244.2271
Precursor type: [M+H]+
m/z	relative intensity	assigned
55.054	90	C4H7+
57.0697	110	C4H9+
62.0598	999	C2H8NO+
67.0541	173	C5H7+
69.0697	34	C5H9+
71.0854	250	C5H11+
81.0699	237	C6H9+
83.0854	94	C6H11+
85.1011	127	C6H13+
95.0855	513	C7H11+
97.101	40	C7H13+
109.1011	204	C8H13+
123.1165	34	C9H15+
226.2165	332	C14H28NO+
227.2004	234	C14H27O2+
