Mass spectrum: Terbinafine; LC-ESI-ITFT; MS2; CE: 70%; R=15000; [M+H]+
Name: Terbinafine
Name: (E)-N,6,6-trimethyl-N-(naphthalen-1-ylmethyl)hept-2-en-4-yn-1-amine
Formula: C21H25N
Exact mass: 291.1986998
SMILES: CN(C\C=C\C#CC(C)(C)C)CC1=CC=CC2=CC=CC=C12
InChI: InChI=1S/C21H25N/c1-21(2,3)15-8-5-9-16-22(4)17-19-13-10-12-18-11-6-7-14-20(18)19/h5-7,9-14H,16-17H2,1-4H3/b9-5+
Instrument: LTQ Orbitrap XL Thermo Scientific
Instrument type: LC-ESI-ITFT
Ms type: MS2
Ion mode: POSITIVE
Ionization: ESI
Fragmentation mode: HCD
Collision energy: 70 % (nominal)
Resolution: 15000
Column name: Kinetex Evo C18 2.6 um 50 x 2.1 mm
Retention time: 9.674 min
Base peak: 292.2067
Precursor m/z: 292.206
Precursor type: [M+H]+
Precursor intensity: 39536112
m/z	relative intensity	assigned
55.054	2	C4H7+
67.0539	1	C5H7+
77.0385	25	C6H5+
79.0541	28	C6H7+
81.0698	3	C6H9+
91.0542	45	C7H7+
93.0698	66	C7H9+
103.0542	6	C8H7+
105.0698	23	C8H9+
106.0777	4	C8H10+
115.0542	12	C9H7+
119.0855	3	C9H11+
141.0698	999	C11H9+
170.0963	3	C12H12N+
