Mass spectrum: Climbazole; LC-ESI-ITFT; MS2; CE: 60%; R=15000; [M+H]+
Name: Climbazole
Name: 1-(4-chlorophenoxy)-1-imidazol-1-yl-3,3-dimethylbutan-2-one
Formula: C15H17ClN2O2
Exact mass: 292.097855464
SMILES: CC(C)(C)C(=O)C(OC1=CC=C(Cl)C=C1)N1C=CN=C1
InChI: InChI=1S/C15H17ClN2O2/c1-15(2,3)13(19)14(18-9-8-17-10-18)20-12-6-4-11(16)5-7-12/h4-10,14H,1-3H3
Instrument: LTQ Orbitrap XL Thermo Scientific
Instrument type: LC-ESI-ITFT
Ms type: MS2
Ion mode: POSITIVE
Ionization: ESI
Fragmentation mode: HCD
Collision energy: 60 % (nominal)
Resolution: 15000
Column name: Kinetex Evo C18 2.6 um 50 x 2.1 mm
Retention time: 8.794 min
Base peak: 293.1063
Precursor m/z: 293.1051
Precursor type: [M+H]+
Precursor intensity: 58793668
m/z	relative intensity	assigned
55.054	15	C4H7+
57.0696	393	C4H9+
67.054	20	C5H7+
69.0697	999	C5H9+
70.0775	113	C5H10+
81.0448	6	C4H5N2+
82.0525	42	C4H6N2+
98.9996	28	C5H4Cl+
103.0308	6	C5H8Cl+
109.0396	70	C5H5N2O+
113.0152	46	C6H6Cl+
126.9945	217	C6H4ClO+
129.0102	169	C6H6ClO+
137.1075	7	C8H13N2+
139.0058	33	C6H4ClN2+
141.0102	268	C7H6ClO+
155.0258	121	C8H8ClO+
161.0961	10	C11H13O+
190.0993	5	C9H17ClNO+
197.0729	70	C11H14ClO+
