Mass spectrum: EDDP; LC-ESI-ITFT; MS2; CE: 30%; R=15000; [M+H]+
Name: EDDP
Name: 2-Ethylidene-1,5-dimethyl-3,3-diphenylpyrrolidine
Name: (2Z)-2-ethylidene-1,5-dimethyl-3,3-diphenylpyrrolidine
Formula: C20H23N
Exact mass: 277.183049736
SMILES: C\C=C1/N(C)C(C)CC1(C1=CC=CC=C1)C1=CC=CC=C1
InChI: InChI=1S/C20H23N/c1-4-19-20(15-16(2)21(19)3,17-11-7-5-8-12-17)18-13-9-6-10-14-18/h4-14,16H,15H2,1-3H3/b19-4-
Instrument: LTQ Orbitrap XL Thermo Scientific
Instrument type: LC-ESI-ITFT
Ms type: MS2
Ion mode: POSITIVE
Ionization: ESI
Fragmentation mode: HCD
Collision energy: 30 % (nominal)
Resolution: 15000
Column name: Kinetex Evo C18 2.6 um 50 x 2.1 mm
Retention time: 7.755 min
Base peak: 278.1913
Precursor m/z: 278.1903
Precursor type: [M+H]+
Precursor intensity: 33159606
m/z	relative intensity	assigned
249.1504	3	C18H19N+
278.1907	999	C20H24N+
