Mass spectrum: 6-beta-Hydroxycortisol; LC-ESI-ITFT; MS2; CE: 30%; R=15000; [M+H]+
Name: 6-beta-Hydroxycortisol
Name: 6beta-Hydroxycortisol
Name: (6R,8S,9S,10R,11S,13S,14S,17R)-6,11,17-trihydroxy-17-(2-hydroxyacetyl)-10,13-dimethyl-2,6,7,8,9,11,12,14,15,16-decahydro-1H-cyclopenta[a]phenanthren-3-one
Formula: C21H30O6
Exact mass: 378.20423868
SMILES: C[C@]12C[C@H](O)[C@H]3[C@@H](C[C@@H](O)C4=CC(=O)CC[C@]34C)[C@@H]1CC[C@]2(O)C(=O)CO
InChI: InChI=1S/C21H30O6/c1-19-5-3-11(23)7-14(19)15(24)8-12-13-4-6-21(27,17(26)10-22)20(13,2)9-16(25)18(12)19/h7,12-13,15-16,18,22,24-25,27H,3-6,8-10H2,1-2H3/t12-,13-,15+,16-,18+,19-,20-,21-/m0/s1
Instrument: LTQ Orbitrap XL Thermo Scientific
Instrument type: LC-ESI-ITFT
Ms type: MS2
Ion mode: POSITIVE
Ionization: ESI
Fragmentation mode: HCD
Collision energy: 30 % (nominal)
Resolution: 15000
Column name: Kinetex Evo C18 2.6 um 50 x 2.1 mm
Retention time: 6.523 min
Base peak: 379.2116
Precursor m/z: 379.2115
Precursor type: [M+H]+
Precursor intensity: 3604857.25
m/z	relative intensity	assigned
97.065	305	C6H9O+
121.0647	230	C8H9O+
145.1015	210	C11H13+
163.0756	140	C10H11O2+
173.0961	321	C12H13O+
185.0955	194	C13H13O+
187.1111	212	C13H15O+
217.1223	253	C14H17O2+
239.1429	779	C17H19O+
251.142	163	C18H19O+
257.1546	268	C17H21O2+
263.1435	186	C19H19O+
265.1593	764	C19H21O+
267.1376	249	C18H19O2+
267.1743	710	C19H23O+
279.1742	390	C20H23O+
283.1689	642	C19H23O2+
285.1854	596	C19H25O2+
295.1705	239	C20H23O2+
297.1855	470	C20H25O2+
307.1698	580	C21H23O2+
313.1794	445	C20H25O3+
325.1802	999	C21H25O3+
343.1903	755	C21H27O4+
361.1999	479	C21H29O5+
379.2113	885	C21H31O6+
