Mass spectrum: Dichlorvos; LC-ESI-ITFT; MS2; CE: 10%; R=15000; [M+H]+
Name: Dichlorvos
Name: 2,2-dichloroethenyl dimethyl phosphate
Formula: C4H7Cl2O4P
Exact mass: 219.945900694
SMILES: COP(=O)(OC)OC=C(Cl)Cl
InChI: InChI=1S/C4H7Cl2O4P/c1-8-11(7,9-2)10-3-4(5)6/h3H,1-2H3
Instrument: LTQ Orbitrap XL Thermo Scientific
Instrument type: LC-ESI-ITFT
Ms type: MS2
Ion mode: POSITIVE
Ionization: ESI
Fragmentation mode: HCD
Collision energy: 10 % (nominal)
Resolution: 15000
Column name: Kinetex Evo C18 2.6 um 50 x 2.1 mm
Retention time: 8.334 min
Base peak: 237.1242
Precursor m/z: 220.9532
Precursor type: [M+H]+
Precursor intensity: 250431.3
m/z	relative intensity	assigned
109.0053	10	C3H6ClO2+
127.0162	16	C3H8ClO3+
144.9824	6	C3H7Cl2O2+
220.954	999	C4H8Cl2O4P+
