Mass spectrum: Pethoxamid; LC-ESI-ITFT; MS2; CE: 10%; R=15000; [M+H]+
Name: Pethoxamid
Name: 2-chloro-N-(2-ethoxyethyl)-N-(2-methyl-1-phenylprop-1-enyl)acetamide
Formula: C16H22ClNO2
Exact mass: 295.133906624
SMILES: CCOCCN(C(=O)CCl)C(=C(C)C)C1=CC=CC=C1
InChI: InChI=1S/C16H22ClNO2/c1-4-20-11-10-18(15(19)12-17)16(13(2)3)14-8-6-5-7-9-14/h5-9H,4,10-12H2,1-3H3
Instrument: LTQ Orbitrap XL Thermo Scientific
Instrument type: LC-ESI-ITFT
Ms type: MS2
Ion mode: POSITIVE
Ionization: ESI
Fragmentation mode: HCD
Collision energy: 10 % (nominal)
Resolution: 15000
Column name: Kinetex Evo C18 2.6 um 50 x 2.1 mm
Retention time: 11.805 min
Base peak: 284.1417
Precursor m/z: 296.1412
Precursor type: [M+H]+
Precursor intensity: 12731323
m/z	relative intensity	assigned
131.0854	6	C10H11+
250.0988	56	C14H17ClNO+
296.1404	999	C16H23ClNO2+
