Mass spectrum: Chlormequat; LC-ESI-ITFT; MS2; CE: 80; R=15000; [M]+
Name: Chlormequat
Name: 2-chloroethyl(trimethyl)azanium
Formula: [C5H13ClN]+
Exact mass: 122.0737
SMILES: C[N+](C)(C)CCCl
InChI: InChI=1S/C5H13ClN/c1-7(2,3)5-4-6/h4-5H2,1-3H3/q+1
Instrument: LTQ Orbitrap XL Thermo Scientific
Instrument type: LC-ESI-ITFT
Ms type: MS2
Ion mode: POSITIVE
Ionization: ESI
Fragmentation mode: HCD
Collision energy: 80 (nominal)
Resolution: 15000
Column name: Kinetex Core-Shell C18 2.6 um, 3.0 x 100 mm, Phenomenex
Retention time: 2.215 min
Base peak: 149.003
Precursor m/z: 122.0731
Precursor type: [M]+
m/z	relative intensity	assigned
122.0736	999	C5H13ClN+
