Mass spectrum: Chloridazon; LC-ESI-ITFT; MS2; CE: 80%; R=15000; [M+H]+
Name: Chloridazon
Name: 5-amino-4-chloro-2-phenylpyridazin-3-one
Formula: C10H8ClN3O
Exact mass: 221.035589556
SMILES: NC1=C(Cl)C(=O)N(N=C1)C1=CC=CC=C1
InChI: InChI=1S/C10H8ClN3O/c11-9-8(12)6-13-14(10(9)15)7-4-2-1-3-5-7/h1-6H,12H2
Instrument: LTQ Orbitrap XL Thermo Scientific
Instrument type: LC-ESI-ITFT
Ms type: MS2
Ion mode: POSITIVE
Ionization: ESI
Fragmentation mode: HCD
Collision energy: 80 % (nominal)
Resolution: 15000
Column name: Kinetex Evo C18 2.6 um 50 x 2.1 mm
Retention time: 6.338 min
Base peak: 222.0432
Precursor m/z: 222.0429
Precursor type: [M+H]+
Precursor intensity: 10095282
m/z	relative intensity	assigned
63.9946	24	C4O+
65.0383	233	C5H5+
66.021	5	C3H2N2+
67.0288	9	C3H3N2+
73.9791	5	C2HClN+
75.9946	26	C2H3ClN+
77.0384	436	C6H5+
83.0238	28	C3H3N2O+
87.9947	99	C3H3ClN+
92.0493	999	C6H6N+
93.0571	88	C6H7N+
94.0649	217	C6H8N+
95.0489	91	C6H7O+
100.9899	118	C3H2ClN2+
101.974	21	C3HClNO+
102.0466	2	C8H6+
103.0541	8	C8H7+
104.0493	762	C7H6N+
105.0445	234	C6H5N2+
106.0648	2	C7H8N+
115.054	6	C9H7+
116.0492	8	C8H6N+
116.9974	19	C4H4ClNO+
117.0569	5	C8H7N+
119.0006	7	C3H4ClN2O+
119.0601	24	C7H7N2+
120.0442	9	C7H6NO+
125.0152	7	C7H6Cl+
128.9848	239	C4H2ClN2O+
130.0648	54	C9H8N+
131.0601	27	C8H7N2+
132.0441	24	C8H6NO+
132.0679	9	C8H8N2+
133.0519	2	C8H7NO+
140.0258	7	C10H4O+
140.0492	8	C10H6N+
141.0569	11	C10H7N+
142.0524	10	C9H6N2+
143.0606	4	C9H7N2+
146.0113	224	C4H5ClN3O+
149.015	33	C9H6Cl+
150.0102	48	C8H5ClN+
158.06	11	C10H8NO+
158.0712	5	C9H8N3+
159.0552	21	C9H7N2O+
159.0785	6	C9H9N3+
160.0629	7	C9H8N2O+
166.0051	3	C8H5ClNO+
169.0397	5	C10H5N2O+
176.0261	10	C10H7ClN+
177.021	9	C9H6ClN2+
178.0047	7	C9H5ClNO+
186.0659	27	C10H8N3O+
193.0285	77	C10H8ClNO+
195.0318	8	C9H8ClN2O+
205.0156	9	C10H6ClN2O+
222.0425	326	C10H9ClN3O+
