Mass spectrum: N-Cyclohexyl-2-benzothiazole-amine; LC-ESI-ITFT; MS2; CE: 40%; R=15000; [M+H]+
Name: N-Cyclohexyl-2-benzothiazole-amine
Name: N-cyclohexyl-1,3-benzothiazol-2-amine
Formula: C13H16N2S
Exact mass: 232.103419512
SMILES: C1CCC(CC1)NC1=NC2=CC=CC=C2S1
InChI: InChI=1S/C13H16N2S/c1-2-6-10(7-3-1)14-13-15-11-8-4-5-9-12(11)16-13/h4-5,8-10H,1-3,6-7H2,(H,14,15)
Instrument: LTQ Orbitrap XL Thermo Scientific
Instrument type: LC-ESI-ITFT
Ms type: MS2
Ion mode: POSITIVE
Ionization: ESI
Fragmentation mode: HCD
Collision energy: 40 % (nominal)
Resolution: 15000
Column name: Kinetex Evo C18 2.6 um 50 x 2.1 mm
Retention time: 9.498 min
Base peak: 233.1115
Precursor m/z: 233.1107
Precursor type: [M+H]+
Precursor intensity: 68524856
m/z	relative intensity	assigned
55.054	10	C4H7+
83.0855	36	C6H11+
151.0324	655	C7H7N2S+
233.1108	999	C13H17N2S+
