Mass spectrum: 4-Aminoazobenzene; LC-ESI-ITFT; MS2; CE: 55; R=15000; [M+H]+
Name: 4-Aminoazobenzene
Formula: C12H11N3
Exact mass: 197.0953
SMILES: NC1=CC=C(C=C1)\N=N\C1=CC=CC=C1
InChI: InChI=1S/C12H11N3/c13-10-6-8-12(9-7-10)15-14-11-4-2-1-3-5-11/h1-9H,13H2/b15-14+
Instrument: LTQ Orbitrap XL Thermo Scientific
Instrument type: LC-ESI-ITFT
Ms type: MS2
Ion mode: POSITIVE
Ionization: ESI
Fragmentation mode: HCD
Collision energy: 55 (nominal)
Resolution: 15000
Column name: Kinetex Core-Shell C18 2.6 um, 3.0 x 100 mm, Phenomenex
Retention time: 24.336 min
Base peak: 198.1032
Precursor m/z: 198.1026
Precursor type: [M+H]+
m/z	relative intensity	assigned
77.0388	999	C6H5+
81.0337	2	C5H5O+
93.0577	55	C6H7N+
94.0417	7	C6H6O+
95.0495	125	C6H7O+
105.0451	398	C6H5N2+
106.0529	6	C6H6N2+
169.0893	3	C12H11N+
181.0764	3	C12H9N2+
198.1035	227	C12H12N3+
