Mass spectrum: Cyproterone; LC-ESI-ITFT; MS2; CE: 40%; R=15000; [M+H]+
Name: Cyproterone
Name: (1S,2S,3S,5R,11R,12S,15R,16S)-15-acetyl-9-chloro-15-hydroxy-2,16-dimethylpentacyclo[9.7.0.02,8.03,5.012,16]octadeca-7,9-dien-6-one
Formula: C22H27ClO3
Exact mass: 374.164872404
SMILES: CC(=O)[C@@]1(O)CC[C@H]2[C@@H]3C=C(Cl)C4=CC(=O)[C@@H]5C[C@@H]5[C@]4(C)[C@H]3CC[C@]12C
InChI: InChI=1S/C22H27ClO3/c1-11(24)22(26)7-5-14-12-9-18(23)17-10-19(25)13-8-16(13)21(17,3)15(12)4-6-20(14,22)2/h9-10,12-16,26H,4-8H2,1-3H3/t12-,13+,14-,15-,16-,20-,21-,22-/m0/s1
Instrument: LTQ Orbitrap XL Thermo Scientific
Instrument type: LC-ESI-ITFT
Ms type: MS2
Ion mode: POSITIVE
Ionization: ESI
Fragmentation mode: HCD
Collision energy: 40 % (nominal)
Resolution: 15000
Column name: Kinetex Evo C18 2.6 um 50 x 2.1 mm
Retention time: 11.744 min
Base peak: 303.232
Precursor m/z: 375.1721
Precursor type: [M+H]+
Precursor intensity: 9443394
m/z	relative intensity	assigned
61.0283	17	C2H5O2+
69.0334	20	C4H5O+
69.0696	18	C5H9+
79.0542	25	C6H7+
81.0696	51	C6H9+
83.0488	42	C5H7O+
85.0646	67	C5H9O+
87.0438	95	C4H7O2+
91.054	15	C7H7+
93.0697	68	C7H9+
95.0488	33	C6H7O+
95.0854	61	C7H11+
97.0646	49	C6H9O+
105.0696	65	C8H9+
107.0852	113	C8H11+
109.0645	92	C7H9O+
109.1008	58	C8H13+
111.0802	132	C7H11O+
119.0852	120	C9H11+
121.0645	84	C8H9O+
121.101	75	C9H13+
123.0801	46	C8H11O+
131.0854	61	C10H11+
133.0646	22	C9H9O+
133.1008	279	C10H13+
135.0805	38	C9H11O+
135.1165	25	C10H15+
137.0956	47	C9H13O+
141.0468	14	C8H10Cl+
143.0851	69	C11H11+
145.0643	49	C10H9O+
145.1008	161	C11H13+
147.08	88	C10H11O+
147.1164	371	C11H15+
149.0956	71	C10H13O+
151.1113	54	C10H15O+
155.0257	29	C8H8ClO+
155.0851	50	C12H11+
157.1008	109	C12H13+
159.08	70	C11H11O+
159.1164	68	C12H15+
161.0957	33	C11H13O+
163.1114	87	C11H15O+
167.0252	25	C9H8ClO+
169.0415	56	C9H10ClO+
169.1009	65	C13H13+
171.0802	30	C12H11O+
171.1164	67	C13H15+
173.0959	32	C12H13O+
173.1321	17	C13H17+
175.1113	245	C12H15O+
177.0461	85	C11H10Cl+
177.1271	36	C12H17O+
179.0621	20	C11H12Cl+
181.041	144	C10H10ClO+
181.0773	25	C11H14Cl+
181.101	37	C14H13+
183.0568	56	C10H12ClO+
183.1163	70	C14H15+
185.0956	124	C13H13O+
185.1325	38	C14H17+
187.1112	75	C13H15O+
189.046	35	C12H10Cl+
189.127	53	C13H17O+
191.0258	16	C11H8ClO+
191.0617	91	C12H12Cl+
193.0408	45	C11H10ClO+
195.0566	74	C11H12ClO+
195.1164	125	C15H15+
196.1237	20	C15H16+
197.0954	54	C14H13O+
197.1326	31	C15H17+
199.1113	38	C14H15O+
201.0464	15	C13H10Cl+
201.1269	75	C14H17O+
203.0621	45	C13H12Cl+
205.0408	86	C12H10ClO+
205.0773	19	C13H14Cl+
207.0566	62	C12H12ClO+
207.1165	81	C16H15+
209.0957	34	C15H13O+
209.1318	104	C16H17+
211.1116	49	C15H15O+
213.127	40	C15H17O+
215.0612	28	C14H12Cl+
217.0773	56	C14H14Cl+
217.1014	17	C17H13+
219.0565	677	C13H12ClO+
219.1163	69	C17H15+
221.0719	90	C13H14ClO+
221.0952	18	C16H13O+
221.1318	79	C17H17+
223.1112	67	C16H15O+
223.1478	55	C17H19+
225.1269	74	C16H17O+
227.0617	23	C15H12Cl+
227.1055	20	C15H15O2+
229.0774	32	C15H14Cl+
231.0929	49	C15H16Cl+
233.0722	25	C14H14ClO+
233.1316	96	C18H17+
235.1119	53	C17H15O+
235.1477	136	C18H19+
237.1267	123	C17H17O+
237.1634	59	C18H21+
238.134	23	C17H18O+
239.1422	82	C17H19O+
241.0773	22	C16H14Cl+
243.0933	21	C16H16Cl+
245.0722	133	C15H14ClO+
245.1086	39	C16H18Cl+
245.1334	27	C19H17+
247.1478	95	C19H19+
249.1267	48	C18H17O+
249.1632	116	C19H21+
251.1423	180	C18H19O+
251.1789	69	C19H23+
253.1581	68	C18H21O+
255.0939	36	C17H16Cl+
257.1085	45	C17H18Cl+
259.0876	48	C16H16ClO+
259.1476	50	C20H19+
260.1559	36	C20H20+
261.1278	27	C19H17O+
261.1633	151	C20H21+
263.1423	168	C19H19O+
264.1505	15	C19H20O+
265.1956	14	C20H25+
269.1083	18	C18H18Cl+
271.0883	24	C17H16ClO+
271.1251	26	C18H20Cl+
273.1036	106	C17H18ClO+
275.1196	40	C17H20ClO+
275.1789	97	C21H23+
277.158	267	C20H21O+
278.1663	207	C20H22O+
279.1736	637	C20H23O+
283.0873	15	C18H16ClO+
285.1636	28	C22H21+
287.1189	81	C18H20ClO+
289.1348	37	C18H22ClO+
293.1529	229	C20H21O2+
293.1894	125	C21H25O+
297.1394	46	C20H22Cl+
297.1837	21	C20H25O2+
299.1195	63	C19H20ClO+
303.1736	211	C22H23O+
306.1611	72	C21H22O2+
313.1345	266	C20H22ClO+
314.1425	176	C20H23ClO+
315.1502	174	C20H24ClO+
321.1841	999	C22H25O2+
329.1663	45	C21H26ClO+
339.1942	42	C22H27O3+
357.1606	255	C22H26ClO2+
375.171	865	C22H28ClO3+
