Mass spectrum: Warfarin; LC-ESI-ITFT; MS2; CE: 50%; R=15000; [M+H]+
Name: Warfarin
Name: 4-hydroxy-3-(3-oxo-1-phenylbutyl)chromen-2-one
Formula: C19H16O4
Exact mass: 308.104858992
SMILES: CC(=O)CC(C1=CC=CC=C1)C1=C(O)C2=CC=CC=C2OC1=O
InChI: InChI=1S/C19H16O4/c1-12(20)11-15(13-7-3-2-4-8-13)17-18(21)14-9-5-6-10-16(14)23-19(17)22/h2-10,15,21H,11H2,1H3
Instrument: LTQ Orbitrap XL Thermo Scientific
Instrument type: LC-ESI-ITFT
Ms type: MS2
Ion mode: POSITIVE
Ionization: ESI
Fragmentation mode: HCD
Collision energy: 50 % (nominal)
Resolution: 15000
Column name: Kinetex Evo C18 2.6 um 50 x 2.1 mm
Retention time: 11.283 min
Base peak: 309.1131
Precursor m/z: 309.1121
Precursor type: [M+H]+
Precursor intensity: 23997154
m/z	relative intensity	assigned
68.9968	1	C3HO2+
91.0542	9	C7H7+
105.07	3	C8H9+
121.0284	37	C7H5O2+
129.07	26	C10H9+
131.0492	27	C9H7O+
147.0805	174	C10H11O+
155.0857	14	C12H11+
157.0285	6	C10H5O2+
163.039	829	C9H7O3+
165.07	1	C13H9+
167.0856	6	C13H11+
171.0805	15	C12H11O+
173.0234	62	C10H5O3+
175.0389	10	C10H7O3+
178.078	2	C14H10+
179.0855	5	C14H11+
183.0805	91	C13H11O+
189.0547	15	C11H9O3+
191.034	78	C10H7O4+
195.0805	7	C14H11O+
205.0648	6	C15H9O+
207.0804	2	C15H11O+
223.0755	37	C15H11O2+
233.0599	11	C16H9O2+
251.0704	999	C16H11O3+
291.1017	3	C19H15O3+
