Mass spectrum: Metolachlor OA; LC-ESI-ITFT; MS2; CE: 55; R=15000; [M-H]-
Name: Metolachlor OA
Name: 2-[2-Ethyl-N-(1-methoxypropan-2-yl)-6-methylanilino]-2-oxoacetic acid
Formula: C15H21NO4
Exact mass: 279.1471
SMILES: CCC1=C(N(C(C)COC)C(=O)C(O)=O)C(C)=CC=C1
InChI: InChI=1S/C15H21NO4/c1-5-12-8-6-7-10(2)13(12)16(11(3)9-20-4)14(17)15(18)19/h6-8,11H,5,9H2,1-4H3,(H,18,19)
Instrument: LTQ Orbitrap XL Thermo Scientific
Instrument type: LC-ESI-ITFT
Ms type: MS2
Ion mode: NEGATIVE
Ionization: ESI
Fragmentation mode: HCD
Collision energy: 55 (nominal)
Resolution: 15000
Column name: Kinetex Core-Shell C18 2.6 um, 3.0 x 100 mm, Phenomenex
Retention time: 23.786 min
Base peak: 278.14
Precursor m/z: 278.1398
Precursor type: [M-H]-
m/z	relative intensity	assigned
174.1286	159	C12H16N-
199.1319	286	C9H17N3O2-
206.1552	999	C13H20NO-
