Mass spectrum: Azoxystrobin acid; LC-ESI-ITFT; MS2; CE: 40%; R=15000; [M+H]+
Name: Azoxystrobin acid
Name: (E)-2-[2-[6-(2-cyanophenoxy)pyrimidin-4-yl]oxyphenyl]-3-methoxyprop-2-enoic acid
Formula: C21H15N3O5
Exact mass: 389.10117058
SMILES: CO\C=C(\C(O)=O)c1ccccc1Oc1cc(Oc2ccccc2C#N)ncn1
InChI: InChI=1S/C21H15N3O5/c1-27-12-16(21(25)26)15-7-3-5-9-18(15)29-20-10-19(23-13-24-20)28-17-8-4-2-6-14(17)11-22/h2-10,12-13H,1H3,(H,25,26)/b16-12+
Instrument: LTQ Orbitrap XL Thermo Scientific
Instrument type: LC-ESI-ITFT
Ms type: MS2
Ion mode: POSITIVE
Ionization: ESI
Fragmentation mode: HCD
Collision energy: 40 % (nominal)
Resolution: 15000
Column name: Kinetex Evo C18 2.6 um 50 x 2.1 mm
Retention time: 10.598 min
Base peak: 272.0962
Precursor m/z: 390.1084
Precursor type: [M+H]+
Precursor intensity: 9148769
m/z	relative intensity	assigned
134.0602	71	C8H8NO+
143.0603	61	C9H7N2+
145.0284	17	C9H5O2+
171.0553	42	C10H7N2O+
172.039	47	C10H6NO2+
187.051	17	C10H7N2O2+
201.0662	72	C11H9N2O2+
210.0666	41	C12H8N3O+
216.0657	100	C12H10NO3+
344.1032	999	C20H14N3O3+
372.0977	407	C21H14N3O4+
