Mass spectrum: Pindolol; LC-ESI-ITFT; MS2; CE: 55; R=15000; [M+H]+
Name: Pindolol
Name: 1-(1H-Indol-4-yloxy)-3-(propan-2-ylamino)propan-2-ol
Formula: C14H20N2O2
Exact mass: 248.1525
SMILES: CC(C)NCC(O)COC1=CC=CC2=C1C=CN2
InChI: InChI=1S/C14H20N2O2/c1-10(2)16-8-11(17)9-18-14-5-3-4-13-12(14)6-7-15-13/h3-7,10-11,15-17H,8-9H2,1-2H3
Instrument: LTQ Orbitrap XL Thermo Scientific
Instrument type: LC-ESI-ITFT
Ms type: MS2
Ion mode: POSITIVE
Ionization: ESI
Fragmentation mode: CID
Collision energy: 55 (nominal)
Resolution: 15000
Column name: Kinetex Core-Shell C18 2.6 um, 3.0 x 100 mm, Phenomenex
Retention time: 14.015 min
Base peak: 163.1328
Precursor m/z: 249.1598
Precursor type: [M+H]+
m/z	relative intensity	assigned
56.0495	1	C3H6N+
72.0808	1	C4H10N+
74.06	7	C3H8NO+
86.0965	15	C5H12N+
98.0965	38	C6H12N+
114.0911	2	C6H12NO+
116.107	999	C6H14NO+
117.0698	1	C9H9+
118.0651	22	C8H8N+
130.0651	9	C9H8N+
132.102	10	C6H14NO2+
134.0601	16	C8H8NO+
144.0809	23	C10H10N+
146.06	220	C9H8NO+
160.0758	3	C10H10NO+
164.0711	2	C9H10NO2+
172.0758	564	C11H10NO+
174.0912	3	C11H12NO+
176.1069	3	C11H14NO+
190.0861	6	C11H12NO2+
207.1129	29	C11H15N2O2+
214.1232	2	C14H16NO+
231.1494	18	C14H19N2O+
