Mass spectrum: Pyrazophos; LC-ESI-ITFT; MS2; CE: 80; R=15000; [M+H]+
Name: Pyrazophos
Name: 2-Diethoxyphosphinothioyloxy-5-methylpyrazolo[1,5-a]pyrimidine-6-carboxylate-ethyl
Formula: C14H20N3O5PS
Exact mass: 373.0861
SMILES: CCOC(=O)C1=CN2N=C(OP(=S)(OCC)OCC)C=C2N=C1C
InChI: InChI=1S/C14H20N3O5PS/c1-5-19-14(18)11-9-17-12(15-10(11)4)8-13(16-17)22-23(24,20-6-2)21-7-3/h8-9H,5-7H2,1-4H3
Instrument: LTQ Orbitrap XL Thermo Scientific
Instrument type: LC-ESI-ITFT
Ms type: MS2
Ion mode: POSITIVE
Ionization: ESI
Fragmentation mode: HCD
Collision energy: 80 (nominal)
Resolution: 15000
Column name: Kinetex Core-Shell C18 2.6 um, 3.0 x 100 mm, Phenomenex
Retention time: 26.552 min
Base peak: 374.0929
Precursor m/z: 374.0934
Precursor type: [M+H]+
m/z	relative intensity	assigned
80.9735	9	H2O3P+
96.9508	235	H2O2PS+
98.9843	20	H4O4P+
113.9536	119	H3O3PS+
114.9614	331	H4O3PS+
133.0636	9	C7H7N3+
139.0503	132	C6H7N2O2+
148.0506	534	C7H6N3O+
149.0347	63	C7H5N2O2+
150.0663	25	C7H8N3O+
151.0505	3	C3H10N3O2P+
155.0461	4	C4H12O4P+
159.0428	91	C2H11N2O4S+
166.0613	224	C7H8N3O2+
167.0455	5	C3H10N3O3P+
176.0456	977	C8H6N3O2+
177.0296	105	C8H5N2O3+
177.0533	293	C8H7N3O2+
178.0606	16	C8H8N3O2+
183.0224	162	C7H7N2O2S+
192.0227	12	C8H6N3OS+
194.0561	999	C8H8N3O3+
195.0593	27	C5H14N3OPS+
205.0847	18	C10H11N3O2+
208.0177	10	C8H6N3O2S+
210.0334	17	C8H8N3O2S+
211.0539	5	C5H14N3O2PS+
222.0873	13	C10H12N3O3+
253.9789	10	C8H5N3O3PS+
256.0121	8	C8H7N3O5P+
271.9895	4	C8H7N3O4PS+
