Mass spectrum: Medroxyprogesterone; LC-ESI-ITFT; MS2; CE: 80%; R=15000; [M+H]+
Name: Medroxyprogesterone
Name: (6S,8R,9S,10R,13S,14S,17R)-17-acetyl-17-hydroxy-6,10,13-trimethyl-2,6,7,8,9,11,12,14,15,16-decahydro-1H-cyclopenta[a]phenanthren-3-one
Formula: C22H32O3
Exact mass: 344.235144884
SMILES: [H][C@@]12CC[C@](O)(C(C)=O)[C@@]1(C)CC[C@@]1([H])[C@@]2([H])C[C@H](C)C2=CC(=O)CC[C@]12C
InChI: InChI=1S/C22H32O3/c1-13-11-16-17(20(3)8-5-15(24)12-19(13)20)6-9-21(4)18(16)7-10-22(21,25)14(2)23/h12-13,16-18,25H,5-11H2,1-4H3/t13-,16+,17-,18-,20+,21-,22-/m0/s1
Instrument: LTQ Orbitrap XL Thermo Scientific
Instrument type: LC-ESI-ITFT
Ms type: MS2
Ion mode: POSITIVE
Ionization: ESI
Fragmentation mode: HCD
Collision energy: 80 % (nominal)
Resolution: 15000
Column name: Kinetex Evo C18 2.6 um 50 x 2.1 mm
Retention time: 12.134 min
Base peak: 345.2422
Precursor m/z: 345.2424
Precursor type: [M+H]+
Precursor intensity: 16404513
m/z	relative intensity	assigned
67.054	60	C5H7+
69.0332	4	C4H5O+
69.0697	23	C5H9+
77.0386	7	C6H5+
79.0541	44	C6H7+
81.0332	4	C5H5O+
81.0698	42	C6H9+
83.049	52	C5H7O+
87.0438	3	C4H7O2+
91.0541	36	C7H7+
93.0698	94	C7H9+
95.0491	27	C6H7O+
95.0854	123	C7H11+
97.0647	624	C6H9O+
105.0698	100	C8H9+
107.0492	4	C7H7O+
107.0854	45	C8H11+
108.0567	15	C7H8O+
109.0646	36	C7H9O+
109.101	18	C8H13+
111.0802	12	C7H11O+
117.0698	18	C9H9+
119.0854	68	C9H11+
121.0646	8	C8H9O+
121.1011	28	C9H13+
123.0803	999	C8H11O+
128.0616	3	C10H8+
129.0697	11	C10H9+
130.0773	4	C10H10+
131.0853	37	C10H11+
133.101	41	C10H13+
135.0803	12	C9H11O+
135.1169	5	C10H15+
137.0959	85	C9H13O+
142.0775	11	C11H10+
143.0854	22	C11H11+
144.0931	7	C11H12+
145.101	45	C11H13+
147.08	5	C10H11O+
147.1167	32	C11H15+
149.0959	5	C10H13O+
155.0853	9	C12H11+
156.0933	10	C12H12+
157.101	24	C12H13+
159.0802	3	C11H11O+
159.1166	25	C12H15+
161.0959	8	C11H13O+
161.1325	15	C12H17+
163.1116	6	C11H15O+
169.1011	13	C13H13+
170.1087	4	C13H14+
171.1166	16	C13H15+
173.0958	4	C12H13O+
173.1322	15	C13H17+
175.148	11	C13H19+
177.1274	3	C12H17O+
181.101	3	C14H13+
183.1166	11	C14H15+
185.1322	10	C14H17+
187.1119	3	C13H15O+
189.1265	3	C13H17O+
197.1319	10	C15H17+
199.1115	4	C14H15O+
199.1479	7	C15H19+
209.1318	3	C16H17+
211.1477	7	C16H19+
213.1276	4	C15H17O+
214.1353	14	C15H18O+
215.1429	8	C15H19O+
223.1482	3	C17H19+
251.1789	4	C19H23+
