Mass spectrum: Efavirenz; LC-ESI-ITFT; MS2; CE: 70%; R=15000; [M+H]+
Name: Efavirenz
Name: 6-chloro-4-(cyclopropylethynyl)-4-(trifluoromethyl)-1,4-dihydro-2H-3,1-benzoxazin-2-one
Name: 6-chloro-4-(2-cyclopropylethynyl)-4-(trifluoromethyl)-1H-3,1-benzoxazin-2-one
Formula: C14H9ClF3NO2
Exact mass: 315.027390868
SMILES: FC(F)(F)C1(OC(=O)NC2=C1C=C(Cl)C=C2)C#CC1CC1
InChI: InChI=1S/C14H9ClF3NO2/c15-9-3-4-11-10(7-9)13(14(16,17)18,21-12(20)19-11)6-5-8-1-2-8/h3-4,7-8H,1-2H2,(H,19,20)
Instrument: LTQ Orbitrap XL Thermo Scientific
Instrument type: LC-ESI-ITFT
Ms type: MS2
Ion mode: POSITIVE
Ionization: ESI
Fragmentation mode: HCD
Collision energy: 70 % (nominal)
Resolution: 15000
Column name: Kinetex Evo C18 2.6 um 50 x 2.1 mm
Retention time: 12.229 min
Base peak: 316.0359
Precursor m/z: 316.0347
Precursor type: [M+H]+
Precursor intensity: 2178012.75
m/z	relative intensity	assigned
53.0385	705	C4H5+
141.0704	25	C8H10FO+
151.0189	64	C8H4FO2+
164.0267	127	C9H5FO2+
167.0734	577	C12H9N+
168.0812	999	C12H10N+
169.0333	18	C8H5F2NO+
170.0533	28	C9H8F2O+
171.0471	13	C11H6FN+
172.9966	38	C8H4ClF2+
174.0108	53	C10H3FO2+
175.0189	76	C10H4FO2+
177.0387	21	C7H6F3NO+
177.0574	28	C13H7N+
182.0173	24	C9H4F2O2+
184.9972	20	C6H5ClF3O+
185.0451	86	C9H6F3N+
185.9923	28	C8HF3O2+
188.0266	306	C11H5FO2+
190.0469	19	C8H7F3NO+
192.0014	95	C10H2F2O2+
198.0526	21	C10H7F3N+
200.0074	45	C9H3F3O2+
200.0273	18	C9H8ClFNO+
201.0345	245	C12H6FO2+
202.0419	243	C12H9ClN+
204.0017	47	C11H2F2O2+
206.0423	21	C8H7F3NO2+
209.0452	83	C11H6F3N+
212.0078	230	C10H3F3O2+
214.0463	24	C13H6F2N+
216.0623	146	C13H8F2N+
217.0699	50	C13H9F2N+
219.0249	21	C12H7ClFN+
222.053	181	C12H7F3N+
224.0078	900	C11H3F3O2+
232.0139	194	C10H6ClF3N+
232.0328	116	C13H6F2O2+
235.0606	40	C13H8F3N+
236.0683	80	C13H9F3N+
237.0155	113	C12H4F3O2+
244.0142	135	C11H6ClF3N+
250.0236	141	C13H5F3O2+
