Mass spectrum: Spiroxamine; LC-ESI-ITFT; MS2; CE: 35; R=15000; [M+H]+
Name: Spiroxamine
Name: N-[(8-Tert-butyl-1,4-dioxaspiro[4.5]decan-3-yl)methyl]-N-ethylpropan-1-amine
Formula: C18H35NO2
Exact mass: 297.2668
SMILES: CCCN(CC)CC1COC2(CCC(CC2)C(C)(C)C)O1
InChI: InChI=1S/C18H35NO2/c1-6-12-19(7-2)13-16-14-20-18(21-16)10-8-15(9-11-18)17(3,4)5/h15-16H,6-14H2,1-5H3
Instrument: LTQ Orbitrap XL Thermo Scientific
Instrument type: LC-ESI-ITFT
Ms type: MS2
Ion mode: POSITIVE
Ionization: ESI
Fragmentation mode: CID
Collision energy: 35 (nominal)
Resolution: 15000
Column name: Kinetex Core-Shell C18 2.6 um, 3.0 x 100 mm, Phenomenex
Retention time: 22.891 min
Base peak: 298.2736
Precursor m/z: 298.2741
Precursor type: [M+H]+
m/z	relative intensity	assigned
72.0807	1	C4H10N+
100.112	101	C6H14N+
102.0913	2	C5H12NO+
126.1277	5	C8H16N+
144.1382	999	C8H18NO+
160.112	7	C11H14N+
160.1332	9	C8H18NO2+
174.1281	1	C12H16N+
175.1354	4	C12H17N+
176.1436	6	C12H18N+
202.1226	18	C13H16NO+
234.1492	2	C14H20NO2+
240.2324	7	C15H30NO+
254.2476	5	C16H32NO+
298.2741	69	C18H36NO2+
