Mass spectrum: 7-Hydroxy-4-methylcoumarin; LC-ESI-ITFT; MS2; CE: 55; R=15000; [M+H]+
Name: 7-Hydroxy-4-methylcoumarin
Name: 4-Methylumbelliferone
Name: 7-Hydroxy-4-methylchromen-2-one
Formula: C10H8O3
Exact mass: 176.0473
SMILES: CC1=CC(=O)OC2=CC(O)=CC=C12
InChI: InChI=1S/C10H8O3/c1-6-4-10(12)13-9-5-7(11)2-3-8(6)9/h2-5,11H,1H3
Instrument: LTQ Orbitrap XL Thermo Scientific
Instrument type: LC-ESI-ITFT
Ms type: MS2
Ion mode: POSITIVE
Ionization: ESI
Fragmentation mode: CID
Collision energy: 55 (nominal)
Resolution: 15000
Column name: Kinetex Core-Shell C18 2.6 um, 3.0 x 100 mm, Phenomenex
Retention time: 20.082 min
Base peak: 163.1332
Precursor m/z: 177.0546
Precursor type: [M+H]+
m/z	relative intensity	assigned
77.0389	8	C6H5+
79.0544	63	C6H7+
81.0699	4	C6H9+
91.0545	11	C7H7+
93.0702	7	C7H9+
103.0544	70	C8H7+
105.07	999	C8H9+
115.0545	56	C9H7+
121.065	214	C8H9O+
131.0495	21	C9H7O+
133.0651	216	C9H9O+
143.0605	6	C9H7N2+
149.0601	93	C9H9O2+
