Mass spectrum: Prochloraz BTS44596; LC-ESI-ITFT; MS2; CE: 60%; R=15000; [M+H]+
Name: Prochloraz BTS44596
Name: N-(Propyl(2-(2,4,6-trichlorophenoxy)ethyl)carbamoyl)formamide
Name: N-[propyl-[2-(2,4,6-trichlorophenoxy)ethyl]carbamoyl]formamide
Formula: C13H15Cl3N2O3
Exact mass: 352.01482538
SMILES: CCCN(CCOC1=C(Cl)C=C(Cl)C=C1Cl)C(=O)NC=O
InChI: InChI=1S/C13H15Cl3N2O3/c1-2-3-18(13(20)17-8-19)4-5-21-12-10(15)6-9(14)7-11(12)16/h6-8H,2-5H2,1H3,(H,17,19,20)
Instrument: LTQ Orbitrap XL Thermo Scientific
Instrument type: LC-ESI-ITFT
Ms type: MS2
Ion mode: POSITIVE
Ionization: ESI
Fragmentation mode: HCD
Collision energy: 60 % (nominal)
Resolution: 15000
Column name: Kinetex Evo C18 2.6 um 50 x 2.1 mm
Retention time: 12.350 min
Base peak: 353.0234
Precursor m/z: 353.0221
Precursor type: [M+H]+
Precursor intensity: 3560556.75
m/z	relative intensity	assigned
56.0495	72	C3H6N+
70.0289	999	C3H4NO+
70.0653	627	C4H8N+
85.0887	33	C5H11N+
98.0607	37	C2H11ClN2+
194.9173	176	C6H2Cl3O+
196.9331	86	C6H4Cl3O+
201.9832	25	C5H9Cl3N2+
222.949	80	C8H6Cl3O+
