Mass spectrum: Trenbolone; LC-ESI-ITFT; MS2; CE: 40%; R=15000; [M+H]+
Name: Trenbolone
Name: Trenbolone:17-Hydroxyestra-4,9,11-trien-3-one
Name: (13S,17S)-17-hydroxy-13-methyl-2,6,7,8,14,15,16,17-octahydro-1H-cyclopenta[a]phenanthren-3-one
Formula: C18H22O2
Exact mass: 270.161979944
SMILES: C[C@]12C=CC3=C4CCC(=O)C=C4CCC3C1CC[C@@H]2O
InChI: InChI=1S/C18H22O2/c1-18-9-8-14-13-5-3-12(19)10-11(13)2-4-15(14)16(18)6-7-17(18)20/h8-10,15-17,20H,2-7H2,1H3/t15?,16?,17-,18-/m0/s1
Instrument: LTQ Orbitrap XL Thermo Scientific
Instrument type: LC-ESI-ITFT
Ms type: MS2
Ion mode: POSITIVE
Ionization: ESI
Fragmentation mode: HCD
Collision energy: 40 % (nominal)
Resolution: 15000
Column name: Kinetex Evo C18 2.6 um 50 x 2.1 mm
Retention time: 10.772 min
Base peak: 271.1695
Precursor m/z: 271.1693
Precursor type: [M+H]+
Precursor intensity: 15803435
m/z	relative intensity	assigned
81.0697	2	C6H9+
83.0489	13	C5H7O+
91.0539	1	C7H7+
93.0698	1	C7H9+
95.0852	1	C7H11+
105.0698	1	C8H9+
107.049	2	C7H7O+
107.0852	3	C8H11+
109.0647	1	C7H9O+
109.101	1	C8H13+
121.0646	3	C8H9O+
129.0696	1	C10H9+
131.0854	2	C10H11+
133.0645	6	C9H9O+
133.101	2	C10H13+
141.0693	1	C11H9+
143.0853	4	C11H11+
145.0645	1	C10H9O+
145.101	6	C11H13+
147.0803	4	C10H11O+
149.0956	2	C10H13O+
155.0851	1	C12H11+
157.0645	5	C11H9O+
157.1012	2	C12H13+
159.0802	12	C11H11O+
159.1166	1	C12H15+
161.0958	2	C11H13O+
169.1007	3	C13H13+
171.08	1	C12H11O+
171.1164	5	C13H15+
173.0956	3	C12H13O+
179.0849	3	C14H11+
181.1009	2	C14H13+
183.0799	3	C13H11O+
183.1169	3	C14H15+
184.0875	1	C13H12O+
185.0961	7	C13H13O+
187.1116	7	C13H15O+
189.127	13	C13H17O+
193.1011	3	C15H13+
195.1168	4	C15H15+
197.0958	17	C14H13O+
197.1321	2	C15H17+
198.1035	3	C14H14O+
199.1114	83	C14H15O+
207.1162	1	C16H15+
209.1321	5	C16H17+
211.1114	15	C15H15O+
211.1483	3	C16H19+
212.1192	3	C15H16O+
213.127	3	C15H17O+
214.1349	5	C15H18O+
215.1433	2	C15H19O+
224.1194	1	C16H16O+
225.1271	14	C16H17O+
225.1635	4	C17H21+
227.1426	21	C16H19O+
235.1477	9	C18H19+
238.1346	3	C17H18O+
243.1742	4	C17H23O+
253.1583	148	C18H21O+
271.1688	999	C18H23O2+
