Mass spectrum: Sulfadimethoxine; LC-ESI-ITFT; MS2; CE: 20%; R=15000; [M+H]+
Name: Sulfadimethoxine
Name: 4-amino-N-(2,6-dimethoxypyrimidin-4-yl)benzenesulfonamide
Formula: C12H14N4O4S
Exact mass: 310.073575928
SMILES: COC1=CC(NS(=O)(=O)C2=CC=C(N)C=C2)=NC(OC)=N1
InChI: InChI=1S/C12H14N4O4S/c1-19-11-7-10(14-12(15-11)20-2)16-21(17,18)9-5-3-8(13)4-6-9/h3-7H,13H2,1-2H3,(H,14,15,16)
Instrument: LTQ Orbitrap XL Thermo Scientific
Instrument type: LC-ESI-ITFT
Ms type: MS2
Ion mode: POSITIVE
Ionization: ESI
Fragmentation mode: HCD
Collision energy: 20 % (nominal)
Resolution: 15000
Column name: Kinetex Evo C18 2.6 um 50 x 2.1 mm
Retention time: 8.042 min
Base peak: 357.128
Precursor m/z: 311.0809
Precursor type: [M+H]+
Precursor intensity: 2486449.25
m/z	relative intensity	assigned
69.0448	281	C3H5N2+
156.0119	20	C6H6NO2S+
156.0774	23	C6H10N3O2+
218.0231	8	C6H8N3O4S+
245.1023	7	C12H13N4O2+
311.0817	999	C12H15N4O4S+
