Mass spectrum: Citalopram; LC-ESI-ITFT; MS2; CE: 55; R=15000; [M+H]+
Name: Citalopram
Name: 1-[3-(Dimethylamino)propyl]-1-(4-fluorophenyl)-3H-2-benzofuran-5-carbonitrile
Formula: C20H21FN2O
Exact mass: 324.1638
SMILES: CN(C)CCCC1(OCC2=CC(=CC=C12)C#N)C1=CC=C(F)C=C1
InChI: InChI=1S/C20H21FN2O/c1-23(2)11-3-10-20(17-5-7-18(21)8-6-17)19-9-4-15(13-22)12-16(19)14-24-20/h4-9,12H,3,10-11,14H2,1-2H3
Instrument: LTQ Orbitrap XL Thermo Scientific
Instrument type: LC-ESI-ITFT
Ms type: MS2
Ion mode: POSITIVE
Ionization: ESI
Fragmentation mode: CID
Collision energy: 55 (nominal)
Resolution: 15000
Column name: Kinetex Core-Shell C18 2.6 um, 3.0 x 100 mm, Phenomenex
Retention time: 19.979 min
Base peak: 260.1644
Precursor m/z: 325.1711
Precursor type: [M+H]+
m/z	relative intensity	assigned
109.0448	306	C7H6F+
116.0495	70	C8H6N+
123.0242	6	C7H4FO+
123.0605	1	C8H8F+
129.0701	1	C10H9+
142.065	1	C10H8N+
144.0447	5	C9H6NO+
147.061	1	C10H8F+
156.0809	26	C11H10N+
158.0601	1	C10H8NO+
159.0606	9	C11H8F+
166.0653	45	C12H8N+
168.0809	4	C12H10N+
184.076	9	C12H10NO+
221.0639	12	C15H8FN+
222.0716	3	C15H9FN+
224.0874	6	C15H11FN+
227.0721	1	C17H9N+
234.0716	65	C16H9FN+
235.0921	15	C17H12F+
236.0873	8	C16H11FN+
238.0665	8	C15H9FNO+
242.0966	11	C18H12N+
245.0757	2	C18H10F+
247.0795	13	C17H10FN+
250.103	12	C17H13FN+
260.0879	3	C18H11FN+
262.1029	999	C18H13FN+
280.1135	149	C18H15FNO+
307.1608	138	C20H20FN2+
