Mass spectrum: 4-Hydroxytamoxifen; LC-ESI-ITFT; MS2; CE: 50%; R=15000; [M+H]+
Name: 4-Hydroxytamoxifen
Name: 4-[1-[4-[2-(dimethylamino)ethoxy]phenyl]-2-phenylbut-1-enyl]phenol
Formula: C26H29NO2
Exact mass: 387.219829168
SMILES: CCC(=C(C1=CC=C(O)C=C1)C1=CC=C(OCCN(C)C)C=C1)C1=CC=CC=C1
InChI: InChI=1S/C26H29NO2/c1-4-25(20-8-6-5-7-9-20)26(21-10-14-23(28)15-11-21)22-12-16-24(17-13-22)29-19-18-27(2)3/h5-17,28H,4,18-19H2,1-3H3
Instrument: LTQ Orbitrap XL Thermo Scientific
Instrument type: LC-ESI-ITFT
Ms type: MS2
Ion mode: POSITIVE
Ionization: ESI
Fragmentation mode: HCD
Collision energy: 50 % (nominal)
Resolution: 15000
Column name: Kinetex Evo C18 2.6 um 50 x 2.1 mm
Retention time: 10.079 min
Base peak: 388.228
Precursor m/z: 388.2271
Precursor type: [M+H]+
Precursor intensity: 12292502
m/z	relative intensity	assigned
58.0649	12	C3H8N+
70.065	10	C4H8N+
72.0807	999	C4H10N+
91.0543	11	C7H7+
105.0695	2	C8H9+
107.0491	21	C7H7O+
121.0647	4	C8H9O+
129.0699	38	C10H9+
145.0648	30	C10H9O+
166.1226	8	C10H16NO+
194.0726	9	C14H10O+
207.0805	3	C15H11O+
208.089	3	C15H12O+
209.0969	5	C15H13O+
221.096	3	C16H13O+
222.1039	6	C16H14O+
223.1116	9	C16H15O+
301.1223	8	C21H17O2+
