Mass spectrum: Ketoconazole; LC-ESI-ITFT; MS2; CE: 35; R=15000; [M+H]+
Name: Ketoconazole
Name: 1-[4-[4-[[(2R,4S)-2-(2,4-Dichlorophenyl)-2-(imidazol-1-ylmethyl)-1,3-dioxolan-4-yl]methoxy]phenyl]piperazin-1-yl]ethanone
Formula: C26H28Cl2N4O4
Exact mass: 530.1488
SMILES: CC(=O)N1CCN(CC1)C1=CC=C(OC[C@H]2CO[C@@](CN3C=CN=C3)(O2)C2=CC=C(Cl)C=C2Cl)C=C1
InChI: InChI=1S/C26H28Cl2N4O4/c1-19(33)31-10-12-32(13-11-31)21-3-5-22(6-4-21)34-15-23-16-35-26(36-23,17-30-9-8-29-18-30)24-7-2-20(27)14-25(24)28/h2-9,14,18,23H,10-13,15-17H2,1H3/t23-,26-/m0/s1
Instrument: LTQ Orbitrap XL Thermo Scientific
Instrument type: LC-ESI-ITFT
Ms type: MS2
Ion mode: POSITIVE
Ionization: ESI
Fragmentation mode: CID
Collision energy: 35 (nominal)
Resolution: 15000
Column name: Kinetex Core-Shell C18 2.6 um, 3.0 x 100 mm, Phenomenex
Retention time: 21.827 min
Base peak: 531.1556
Precursor m/z: 531.156
Precursor type: [M+H]+
m/z	relative intensity	assigned
158.9768	3	C7H5Cl2+
172.0759	1	C11H10NO+
172.9558	1	C7H3Cl2O+
174.0917	7	C8H15ClN2+
177.1023	2	C10H13N2O+
178.1109	1	C7H17ClN3+
185.9637	12	C8H4Cl2O+
186.9706	1	C8H5Cl2O+
192.1021	1	C11H14NO2+
200.1079	2	C10H17ClN2+
203.0371	1	C11H8ClN2+
209.0363	2	C11H10ClO2+
216.1024	14	C10H17ClN2O+
216.1268	2	C10H19ClN3+
217.134	20	C10H20ClN3+
219.1131	11	C9H18ClN3O+
220.121	9	C9H19ClN3O+
234.113	10	C10H19ClN2O2+
235.1446	12	C10H22ClN3O+
238.0065	3	C11H8Cl2N2+
244.0058	45	C18N2+
247.0642	2	C10H15Cl2N3+
255.0092	57	C11H9Cl2N2O+
259.1448	4	C12H22ClN3O+
267.0094	8	C12H9Cl2N2O+
268.0166	1	C12H10Cl2N2O+
277.1553	3	C12H24ClN3O2+
281.0248	4	C22H3N+
282.033	5	C13H12Cl2N2O+
311.0358	10	C21H3N4+
378.0668	1	C23H11ClN4+
421.1088	12	C21H23Cl2N2O3+
463.1205	3	C23H25Cl2N2O4+
471.1378	1	C26H27Cl2NO3+
489.1458	999	C24H27Cl2N4O3+
490.1495	6	C19H28Cl2N6O5+
513.1461	5	C26H27Cl2N4O3+
531.1581	2	C26H29Cl2N4O4+
