Mass spectrum: Trimethoprim; LC-ESI-ITFT; MS2; CE: 80; R=15000; [M+H]+
Name: Trimethoprim
Name: 5-[(3,4,5-Trimethoxyphenyl)methyl]pyrimidine-2,4-diamine
Formula: C14H18N4O3
Exact mass: 290.1379
SMILES: COC1=CC(CC2=CN=C(N)N=C2N)=CC(OC)=C1OC
InChI: InChI=1S/C14H18N4O3/c1-19-10-5-8(6-11(20-2)12(10)21-3)4-9-7-17-14(16)18-13(9)15/h5-7H,4H2,1-3H3,(H4,15,16,17,18)
Instrument: LTQ Orbitrap XL Thermo Scientific
Instrument type: LC-ESI-ITFT
Ms type: MS2
Ion mode: POSITIVE
Ionization: ESI
Fragmentation mode: HCD
Collision energy: 80 (nominal)
Resolution: 15000
Column name: Kinetex Core-Shell C18 2.6 um, 3.0 x 100 mm, Phenomenex
Retention time: 14.856 min
Base peak: 291.1452
Precursor m/z: 291.1452
Precursor type: [M+H]+
m/z	relative intensity	assigned
81.0448	247	C4H5N2+
110.0588	476	C4H6N4+
111.0666	129	C4H7N4+
123.0667	999	C5H7N4+
124.0745	86	C5H8N4+
148.052	18	C9H8O2+
151.0392	78	C8H7O3+
174.0666	138	C9H8N3O+
175.0982	26	C9H11N4+
181.086	17	C10H13O3+
187.0981	186	C10H11N4+
188.1059	14	C10H12N4+
188.1194	7	C13H16O+
191.093	66	C9H11N4O+
200.106	27	C11H12N4+
201.0775	22	C12H11NO2+
201.1138	303	C11H13N4+
202.122	16	C11H14N4+
213.1144	6	C12H13N4+
215.0933	69	C11H11N4O+
216.1009	39	C11H12N4O+
217.1089	37	C11H13N4O+
219.0774	10	C11H11N2O3+
227.0931	13	C12H11N4O+
229.1087	490	C12H13N4O+
230.1167	92	C12H14N4O+
232.0958	462	C13H14NO3+
233.1036	463	C11H13N4O2+
243.0882	22	C12H11N4O2+
244.0723	10	C12H10N3O3+
244.095	6	C12H12N4O2+
245.1037	370	C12H13N4O2+
247.1193	38	C12H15N4O2+
257.1037	459	C13H13N4O2+
259.083	120	C12H11N4O3+
259.1196	13	C13H15N4O2+
261.0987	367	C12H13N4O3+
275.1144	250	C13H15N4O3+
