Mass spectrum: 4-Formyl-antipyrine; LC-ESI-ITFT; MS2; CE: 55; R=15000; [M+H]+
Name: 4-Formyl-antipyrine
Name: 1,5-Dimethyl-3-oxo-2-phenylpyrazole-4-carbaldehyde
Formula: C12H12N2O2
Exact mass: 216.0899
SMILES: CN1N(C(=O)C(C=O)=C1C)C1=CC=CC=C1
InChI: InChI=1S/C12H12N2O2/c1-9-11(8-15)12(16)14(13(9)2)10-6-4-3-5-7-10/h3-8H,1-2H3
Instrument: LTQ Orbitrap XL Thermo Scientific
Instrument type: LC-ESI-ITFT
Ms type: MS2
Ion mode: POSITIVE
Ionization: ESI
Fragmentation mode: CID
Collision energy: 55 (nominal)
Resolution: 15000
Column name: Kinetex Core-Shell C18 2.6 um, 3.0 x 100 mm, Phenomenex
Retention time: 14.922 min
Base peak: 217.0972
Precursor m/z: 217.0972
Precursor type: [M+H]+
m/z	relative intensity	assigned
55.0542	12	C4H7+
77.0385	5	C6H5+
79.0543	4	C6H7+
83.0491	47	C5H7O+
91.0544	11	C7H7+
98.0602	7	C5H8NO+
104.0499	5	C7H6N+
106.0651	999	C7H8N+
107.0604	66	C6H7N2+
111.0441	414	C6H7O2+
115.0546	4	C9H7+
118.0652	25	C8H8N+
119.0856	30	C9H11+
120.0808	12	C8H10N+
130.0652	133	C9H8N+
131.0601	4	C8H7N2+
131.0731	57	C9H9N+
132.0682	98	C8H8N2+
132.0809	16	C9H10N+
133.0761	9	C8H9N2+
135.0555	24	C7H7N2O+
142.0651	21	C10H8N+
144.081	84	C10H10N+
145.0762	18	C9H9N2+
145.0888	23	C10H11N+
146.0597	3	C9H8NO+
146.0839	36	C9H10N2+
146.0966	38	C10H12N+
147.0917	944	C9H11N2+
148.0753	6	C9H10NO+
149.0711	30	C8H9N2O+
155.0704	5	C8H11O3+
158.0479	4	C9H6N2O+
158.0602	28	C10H8NO+
159.0554	24	C9H7N2O+
159.0918	110	C10H11N2+
160.0761	11	C10H10NO+
160.0994	12	C10H12N2+
161.1075	26	C10H13N2+
168.0448	10	C11H6NO+
169.0766	16	C11H9N2+
171.0553	11	C10H7N2O+
171.0922	11	C11H11N2+
172.0632	75	C10H8N2O+
172.0759	34	C11H10NO+
173.0711	28	C10H9N2O+
174.0791	33	C10H10N2O+
185.0711	20	C11H9N2O+
186.0552	37	C11H8NO2+
187.0867	219	C11H11N2O+
188.0947	8	C11H12N2O+
189.1023	452	C11H13N2O+
197.0714	12	C12H9N2O+
199.0868	42	C12H11N2O+
200.0582	208	C11H8N2O2+
202.0736	13	C11H10N2O2+
213.0661	19	C12H9N2O2+
