Mass spectrum: Metolachlor; LC-ESI-ITFT; MS2; CE: 70%; R=15000; [M+H]+
Name: Metolachlor
Name: 2-chloro-N-(2-ethyl-6-methylphenyl)-N-(1-methoxypropan-2-yl)acetamide
Formula: C15H22ClNO2
Exact mass: 283.133906624
SMILES: CCC1=CC=CC(C)=C1N(C(C)COC)C(=O)CCl
InChI: InChI=1S/C15H22ClNO2/c1-5-13-8-6-7-11(2)15(13)17(14(18)9-16)12(3)10-19-4/h6-8,12H,5,9-10H2,1-4H3
Instrument: LTQ Orbitrap XL Thermo Scientific
Instrument type: LC-ESI-ITFT
Ms type: MS2
Ion mode: POSITIVE
Ionization: ESI
Fragmentation mode: HCD
Collision energy: 70 % (nominal)
Resolution: 15000
Column name: Kinetex Evo C18 2.6 um 50 x 2.1 mm
Retention time: 11.806 min
Base peak: 284.1419
Precursor m/z: 284.1412
Precursor type: [M+H]+
Precursor intensity: 37990268
m/z	relative intensity	assigned
73.0646	99	C4H9O+
76.9787	51	C2H2ClO+
91.0541	50	C7H7+
93.07	9	C7H9+
108.0807	31	C7H10N+
109.0645	26	C7H9O+
117.0696	31	C9H9+
119.0728	15	C8H9N+
119.0853	68	C9H11+
120.0807	40	C8H10N+
130.0652	13	C9H8N+
131.0726	24	C9H9N+
131.0853	9	C10H11+
132.0806	28	C9H10N+
133.0884	126	C9H11N+
134.0962	320	C9H12N+
135.0802	10	C9H11O+
136.112	12	C9H14N+
143.0729	21	C10H9N+
144.0805	38	C10H10N+
145.0884	43	C10H11N+
146.0962	132	C10H12N+
147.1043	17	C10H13N+
148.1118	41	C10H14N+
158.0961	75	C11H12N+
159.1042	40	C11H13N+
160.1118	151	C11H14N+
162.091	23	C10H12NO+
166.0418	13	C12H6O+
174.1272	19	C12H16N+
176.1431	999	C12H18N+
184.052	105	C12H8O2+
188.1073	9	C12H14NO+
194.0728	35	C14H10O+
212.0834	39	C11H15ClNO+
252.1147	186	C14H19ClNO+
