Mass spectrum: Chloroxuron; LC-ESI-ITFT; MS2; CE: 80; R=15000; [M+H]+
Name: Chloroxuron
Name: 3-[4-(4-Chlorophenoxy)phenyl]-1,1-dimethylurea
Formula: C15H15ClN2O2
Exact mass: 290.0822
SMILES: CN(C)C(=O)NC1=CC=C(OC2=CC=C(Cl)C=C2)C=C1
InChI: InChI=1S/C15H15ClN2O2/c1-18(2)15(19)17-12-5-9-14(10-6-12)20-13-7-3-11(16)4-8-13/h3-10H,1-2H3,(H,17,19)
Instrument: LTQ Orbitrap XL Thermo Scientific
Instrument type: LC-ESI-ITFT
Ms type: MS2
Ion mode: POSITIVE
Ionization: ESI
Fragmentation mode: HCD
Collision energy: 80 (nominal)
Resolution: 15000
Column name: Kinetex Core-Shell C18 2.6 um, 3.0 x 100 mm, Phenomenex
Retention time: 25.093 min
Base peak: 291.0891
Precursor m/z: 291.0895
Precursor type: [M+H]+
m/z	relative intensity	assigned
72.0442	999	C3H6NO+
106.065	17	C7H8N+
118.0651	25	C8H8N+
163.0308	76	C10H8Cl+
190.0414	21	C14H6O+
