Mass spectrum: Flumequine; LC-ESI-ITFT; MS2; CE: 80%; R=15000; [M+H]+
Name: Flumequine
Name: 7-fluoro-12-methyl-4-oxo-1-azatricyclo[7.3.1.05,13]trideca-2,5,7,9(13)-tetraene-3-carboxylic acid
Formula: C14H12FNO3
Exact mass: 261.080121464
SMILES: CC1CCC2=C3N1C=C(C(O)=O)C(=O)C3=CC(F)=C2
InChI: InChI=1S/C14H12FNO3/c1-7-2-3-8-4-9(15)5-10-12(8)16(7)6-11(13(10)17)14(18)19/h4-7H,2-3H2,1H3,(H,18,19)
Instrument: LTQ Orbitrap XL Thermo Scientific
Instrument type: LC-ESI-ITFT
Ms type: MS2
Ion mode: POSITIVE
Ionization: ESI
Fragmentation mode: HCD
Collision energy: 80 % (nominal)
Resolution: 15000
Column name: Kinetex Evo C18 2.6 um 50 x 2.1 mm
Retention time: 9.262 min
Base peak: 262.0886
Precursor m/z: 262.0874
Precursor type: [M+H]+
Precursor intensity: 20263888
m/z	relative intensity	assigned
146.0402	29	C9H5FN+
147.0481	4	C9H6FN+
148.0559	7	C9H7FN+
161.0637	3	C10H8FN+
174.0351	152	C10H5FNO+
176.0872	15	C11H11FN+
187.0425	3	C11H6FNO+
188.0511	2	C11H7FNO+
200.0876	11	C13H11FN+
201.0592	5	C12H8FNO+
202.0301	999	C11H5FNO2+
203.038	8	C11H6FNO2+
216.0455	5	C12H7FNO2+
216.0822	6	C13H11FNO+
220.0406	470	C11H7FNO3+
221.0488	7	C11H8FNO3+
234.0563	17	C12H9FNO3+
244.077	368	C14H11FNO2+
262.0875	138	C14H13FNO3+
