Mass spectrum: 4-Methylbenzylidene camphor; LC-ESI-ITFT; MS2; CE: 50%; R=15000; [M+H]+
Name: 4-Methylbenzylidene camphor
Name: 1,7,7-trimethyl-3-[(4-methylphenyl)methylidene]bicyclo[2.2.1]heptan-2-one
Formula: C18H22O
Exact mass: 254.167065324
SMILES: CC1=CC=C(C=C2C3CCC(C)(C2=O)C3(C)C)C=C1
InChI: InChI=1S/C18H22O/c1-12-5-7-13(8-6-12)11-14-15-9-10-18(4,16(14)19)17(15,2)3/h5-8,11,15H,9-10H2,1-4H3
Instrument: LTQ Orbitrap XL Thermo Scientific
Instrument type: LC-ESI-ITFT
Ms type: MS2
Ion mode: POSITIVE
Ionization: ESI
Fragmentation mode: HCD
Collision energy: 50 % (nominal)
Resolution: 15000
Column name: Kinetex Evo C18 2.6 um 50 x 2.1 mm
Retention time: 13.558 min
Base peak: 255.1748
Precursor m/z: 255.1743
Precursor type: [M+H]+
Precursor intensity: 25738378
m/z	relative intensity	assigned
67.054	20	C5H7+
69.0333	31	C4H5O+
69.0696	67	C5H9+
71.049	17	C4H7O+
79.054	26	C6H7+
81.0697	37	C6H9+
83.049	20	C5H7O+
83.0854	31	C6H11+
85.0646	31	C5H9O+
91.054	10	C7H7+
93.0697	81	C7H9+
95.0854	87	C7H11+
97.0647	904	C6H9O+
99.0801	15	C6H11O+
105.0697	791	C8H9+
107.049	7	C7H7O+
107.0854	67	C8H11+
109.0646	28	C7H9O+
109.101	117	C8H13+
111.0803	599	C7H11O+
117.0697	26	C9H9+
119.0489	234	C8H7O+
119.0853	433	C9H11+
121.0646	38	C8H9O+
121.1009	74	C9H13+
123.0802	89	C8H11O+
123.1166	14	C9H15+
125.0961	12	C8H13O+
129.0696	13	C10H9+
131.0853	206	C10H11+
133.1008	55	C10H13+
135.0801	30	C9H11O+
135.1166	80	C10H15+
137.0959	74	C9H13O+
141.0705	9	C11H9+
142.0774	18	C11H10+
143.0853	226	C11H11+
145.1009	445	C11H13+
147.08	23	C10H11O+
147.1165	87	C11H15+
149.0958	23	C10H13O+
150.1036	14	C10H14O+
155.0853	80	C12H11+
156.0931	36	C12H12+
157.101	699	C12H13+
159.0804	46	C11H11O+
159.1165	201	C12H15+
161.0959	12	C11H13O+
163.1115	190	C11H15O+
166.0775	15	C13H10+
167.085	13	C13H11+
169.1009	148	C13H13+
171.0803	171	C12H11O+
171.1166	718	C13H15+
173.0958	65	C12H13O+
173.1317	10	C13H17+
179.0847	10	C14H11+
180.0932	58	C14H12+
181.1009	94	C14H13+
182.1087	24	C14H14+
183.1165	315	C14H15+
184.1242	7	C14H16+
185.0959	264	C13H13O+
185.1322	66	C14H17+
186.1035	18	C13H14O+
187.1115	35	C13H15O+
193.1011	52	C15H13+
194.1089	41	C15H14+
195.1166	591	C15H15+
196.1252	11	C15H16+
197.0959	32	C14H13O+
197.1322	241	C15H17+
198.1036	12	C14H14O+
199.1114	442	C14H15O+
200.1198	8	C14H16O+
207.1168	39	C16H15+
208.1245	81	C16H16+
209.1323	120	C16H17+
211.1115	84	C15H15O+
211.1479	85	C16H19+
212.1193	999	C15H16O+
213.1271	434	C15H17O+
213.1635	36	C16H21+
222.1399	101	C17H18+
226.1349	25	C16H18O+
227.1427	133	C16H19O+
227.1792	24	C17H23+
237.1635	280	C18H21+
240.1504	28	C17H20O+
255.174	400	C18H23O+
