Mass spectrum: Domperidone; LC-ESI-ITFT; MS2; CE: 80%; R=15000; [M+H]+
Name: Domperidone
Name: 6-chloro-3-[1-[3-(2-oxo-3H-benzimidazol-1-yl)propyl]piperidin-4-yl]-1H-benzimidazol-2-one
Formula: C22H24ClN5O2
Exact mass: 425.161852688
SMILES: ClC1=CC2=C(C=C1)N(C1CCN(CCCN3C(=O)NC4=CC=CC=C34)CC1)C(=O)N2
InChI: InChI=1S/C22H24ClN5O2/c23-15-6-7-20-18(14-15)25-22(30)28(20)16-8-12-26(13-9-16)10-3-11-27-19-5-2-1-4-17(19)24-21(27)29/h1-2,4-7,14,16H,3,8-13H2,(H,24,29)(H,25,30)
Instrument: LTQ Orbitrap XL Thermo Scientific
Instrument type: LC-ESI-ITFT
Ms type: MS2
Ion mode: POSITIVE
Ionization: ESI
Fragmentation mode: HCD
Collision energy: 80 % (nominal)
Resolution: 15000
Column name: Kinetex Evo C18 2.6 um 50 x 2.1 mm
Retention time: 7.596 min
Base peak: 426.1705
Precursor m/z: 426.1691
Precursor type: [M+H]+
Precursor intensity: 31113170
m/z	relative intensity	assigned
67.054	1	C5H7+
70.065	1	C4H8N+
84.0808	4	C5H10N+
92.0495	3	C6H6N+
96.0807	1	C6H10N+
98.0965	5	C6H12N+
119.0604	415	C7H7N2+
120.0575	1	C5H11ClN+
120.0636	18	C2H8N4O2+
122.0968	1	C8H12N+
124.1124	2	C8H14N+
130.0655	1	C9H8N+
132.0683	3	C8H8N2+
133.0759	2	C8H9N2+
134.0475	24	C7H6N2O+
135.0552	4	C7H7N2O+
147.0553	999	C8H7N2O+
148.0519	3	C6H11ClNO+
160.0631	2	C6H11ClN3+
171.0553	8	C10H7N2O+
172.0632	5	C10H8N2O+
175.0866	163	C10H11N2O+
207.0322	5	C10H8ClN2O+
221.0476	2	C11H10ClN2O+
