Mass spectrum: Pindolol; LC-ESI-ITFT; MS2; CE: 90%; R=15000; [M+H]+
Name: Pindolol
Name: 1-(1H-indol-4-yloxy)-3-(propan-2-ylamino)propan-2-ol
Formula: C14H20N2O2
Exact mass: 248.15247788
SMILES: CC(C)NCC(O)COC1=CC=CC2=C1C=CN2
InChI: InChI=1S/C14H20N2O2/c1-10(2)16-8-11(17)9-18-14-5-3-4-13-12(14)6-7-15-13/h3-7,10-11,15-17H,8-9H2,1-2H3
Instrument: LTQ Orbitrap XL Thermo Scientific
Instrument type: LC-ESI-ITFT
Ms type: MS2
Ion mode: POSITIVE
Ionization: ESI
Fragmentation mode: HCD
Collision energy: 90 % (nominal)
Resolution: 15000
Column name: Kinetex Evo C18 2.6 um 50 x 2.1 mm
Retention time: 1.051 min
Base peak: 152.144
Precursor m/z: 249.1598
Precursor type: [M+H]+
Precursor intensity: 14101574
m/z	relative intensity	assigned
56.0493	922	C3H6N+
58.0649	303	C3H8N+
72.0807	624	C4H10N+
74.06	999	C3H8NO+
84.0808	41	C5H10N+
86.0963	8	C5H12N+
91.0543	157	C7H7+
98.0965	93	C6H12N+
100.1122	203	C6H14N+
104.0496	122	C7H6N+
106.0652	221	C7H8N+
107.0492	70	C7H7O+
115.0543	87	C9H7+
116.0495	120	C8H6N+
116.1071	436	C6H14NO+
117.0574	157	C8H7N+
117.07	286	C9H9+
118.0652	619	C8H8N+
129.0702	10	C10H9+
130.0652	71	C9H8N+
132.0445	84	C8H6NO+
132.081	58	C9H10N+
133.0524	82	C8H7NO+
134.0602	850	C8H8NO+
143.0731	154	C10H9N+
144.0809	728	C10H10N+
145.0649	30	C10H9O+
146.0602	228	C9H8NO+
154.0652	31	C11H8N+
155.0605	100	C10H7N2+
157.0524	23	C10H7NO+
160.0757	21	C10H10NO+
170.0601	15	C11H8NO+
172.0758	62	C11H10NO+
