Mass spectrum: Chlorotoluron; LC-ESI-ITFT; MS2; CE: 35; R=15000; [M+H]+
Name: Chlorotoluron
Name: 3-(3-Chloro-4-methylphenyl)-1,1-dimethylurea
Formula: C10H13ClN2O
Exact mass: 212.0716
SMILES: CN(C)C(=O)NC1=CC(Cl)=C(C)C=C1
InChI: InChI=1S/C10H13ClN2O/c1-7-4-5-8(6-9(7)11)12-10(14)13(2)3/h4-6H,1-3H3,(H,12,14)
Instrument: LTQ Orbitrap XL Thermo Scientific
Instrument type: LC-ESI-ITFT
Ms type: MS2
Ion mode: POSITIVE
Ionization: ESI
Fragmentation mode: CID
Collision energy: 35 (nominal)
Resolution: 15000
Column name: Kinetex Core-Shell C18 2.6 um, 3.0 x 100 mm, Phenomenex
Retention time: 22.946 min
Base peak: 298.2738
Precursor m/z: 213.0789
Precursor type: [M+H]+
m/z	relative intensity	assigned
72.0442	999	C3H6NO+
168.0209	28	C8H7ClNO+
213.0786	476	C10H14ClN2O+
