Mass spectrum: Oxybutynin; LC-ESI-ITFT; MS2; CE: 30%; R=15000; [M+H]+
Name: Oxybutynin
Name: 4-(diethylamino)but-2-ynyl 2-cyclohexyl-2-hydroxy-2-phenylacetate
Formula: C22H31NO3
Exact mass: 357.230393852
SMILES: CCN(CC)CC#CCOC(=O)C(O)(C1CCCCC1)C1=CC=CC=C1
InChI: InChI=1S/C22H31NO3/c1-3-23(4-2)17-11-12-18-26-21(24)22(25,19-13-7-5-8-14-19)20-15-9-6-10-16-20/h5,7-8,13-14,20,25H,3-4,6,9-10,15-18H2,1-2H3
Instrument: LTQ Orbitrap XL Thermo Scientific
Instrument type: LC-ESI-ITFT
Ms type: MS2
Ion mode: POSITIVE
Ionization: ESI
Fragmentation mode: HCD
Collision energy: 30 % (nominal)
Resolution: 15000
Column name: Kinetex Evo C18 2.6 um 50 x 2.1 mm
Retention time: 9.043 min
Base peak: 358.2381
Precursor m/z: 358.2377
Precursor type: [M+H]+
Precursor intensity: 64067528
m/z	relative intensity	assigned
94.0648	13	C6H8N+
96.0805	63	C6H10N+
105.0333	48	C7H5O+
107.0487	6	C7H7O+
107.0853	6	C8H11+
108.0809	5	C7H10N+
109.0883	16	C7H11N+
122.0962	26	C8H12N+
124.1118	415	C8H14N+
129.0695	7	C10H9+
142.1223	250	C8H16NO+
171.1164	23	C13H15+
185.0595	4	C12H9O2+
187.0751	5	C12H11O2+
189.127	36	C13H17O+
199.1112	12	C14H15O+
203.0696	4	C12H11O3+
258.1481	26	C16H20NO2+
267.1375	9	C18H19O2+
340.2262	89	C22H30NO2+
358.2367	999	C22H32NO3+
