Mass spectrum: 4-Methylmorpholine-N-oxide; LC-ESI-ITFT; MS2; CE: 40%; R=15000; [M+H]+
Name: 4-Methylmorpholine-N-oxide
Name: 4-Methylmorpholine N-oxide
Name: 4-methyl-4-oxidomorpholin-4-ium
Formula: C5H11NO2
Exact mass: 117.078978592
SMILES: C[N+]1([O-])CCOCC1
InChI: InChI=1S/C5H11NO2/c1-6(7)2-4-8-5-3-6/h2-5H2,1H3
Instrument: LTQ Orbitrap XL Thermo Scientific
Instrument type: LC-ESI-ITFT
Ms type: MS2
Ion mode: POSITIVE
Ionization: ESI
Fragmentation mode: HCD
Collision energy: 40 % (nominal)
Resolution: 15000
Column name: Kinetex Evo C18 2.6 um 50 x 2.1 mm
Retention time: 0.477 min
Base peak: 186.2222
Precursor m/z: 118.0863
Precursor type: [M+H]+
Precursor intensity: 5905803
m/z	relative intensity	assigned
71.0729	7	C4H9N+
100.0758	27	C5H10NO+
101.0836	103	C5H11NO+
118.0864	999	C5H12NO2+
