Mass spectrum: Thiacloprid; LC-ESI-ITFT; MS2; CE: 30%; R=15000; [M+H]+
Name: Thiacloprid
Name: CID 6011129
Name: (E)-[3-[(6-chloropyridin-3-yl)methyl]-1,3-thiazolidin-2-ylidene]cyanamide
Formula: C10H9ClN4S
Exact mass: 252.023644968
SMILES: ClC1=CC=C(CN2CCS\C2=N\C#N)C=N1
InChI: InChI=1S/C10H9ClN4S/c11-9-2-1-8(5-13-9)6-15-3-4-16-10(15)14-7-12/h1-2,5H,3-4,6H2/b14-10+
Instrument: LTQ Orbitrap XL Thermo Scientific
Instrument type: LC-ESI-ITFT
Ms type: MS2
Ion mode: POSITIVE
Ionization: ESI
Fragmentation mode: HCD
Collision energy: 30 % (nominal)
Resolution: 15000
Column name: Kinetex Evo C18 2.6 um 50 x 2.1 mm
Retention time: 7.735 min
Base peak: 253.0316
Precursor m/z: 253.0309
Precursor type: [M+H]+
Precursor intensity: 13230470
m/z	relative intensity	assigned
90.0338	2	C6H4N+
126.0107	999	C6H5ClN+
151.0058	6	C7H4ClN2+
186.0141	87	C8H9ClNS+
193.0278	2	C8H6ClN4+
194.0478	3	C9H9ClN3+
211.0094	10	C9H8ClN2S+
217.0545	13	C10H9N4S+
226.0201	16	C9H9ClN3S+
236.0044	5	C10H7ClN3S+
253.0312	975	C10H10ClN4S+
