Mass spectrum: Oxazepam; LC-ESI-ITFT; MS2; CE: 90%; R=15000; [M+H]+
Name: Oxazepam
Name: 7-chloro-3-hydroxy-5-phenyl-1,3-dihydro-1,4-benzodiazepin-2-one
Formula: C15H11ClN2O2
Exact mass: 286.050905272
SMILES: OC1N=C(C2=CC=CC=C2)C2=C(NC1=O)C=CC(Cl)=C2
InChI: InChI=1S/C15H11ClN2O2/c16-10-6-7-12-11(8-10)13(9-4-2-1-3-5-9)18-15(20)14(19)17-12/h1-8,15,20H,(H,17,19)
Instrument: LTQ Orbitrap XL Thermo Scientific
Instrument type: LC-ESI-ITFT
Ms type: MS2
Ion mode: POSITIVE
Ionization: ESI
Fragmentation mode: HCD
Collision energy: 90 % (nominal)
Resolution: 15000
Column name: Kinetex Evo C18 2.6 um 50 x 2.1 mm
Retention time: 10.194 min
Base peak: 287.0591
Precursor m/z: 287.0582
Precursor type: [M+H]+
Precursor intensity: 17547636
m/z	relative intensity	assigned
77.0388	66	C6H5+
79.0545	13	C6H7+
90.0342	13	C6H4N+
92.0496	5	C6H6N+
93.0576	205	C6H7N+
95.0495	14	C3H10ClN+
98.9998	12	C5H4Cl+
104.0499	999	C7H6N+
105.0451	56	C6H5N2+
110.9999	7	C6H4Cl+
117.045	11	C7H5N2+
118.0529	109	C7H6N2+
126.011	46	C6H5ClN+
128.0266	99	C6H7ClN+
129.0451	7	C8H5N2+
138.011	91	C7H5ClN+
139.0063	87	C6H4ClN2+
151.0545	13	C12H7+
152.0138	8	C7H5ClN2+
152.0624	14	C12H8+
153.0219	162	C7H6ClN2+
163.0063	403	C8H4ClN2+
166.006	13	C8H5ClNO+
178.0657	27	C13H8N+
179.0014	9	C8H4ClN2O+
179.0605	5	C12H7N2+
179.0737	28	C13H9N+
194.0847	15	C13H10N2+
195.0923	59	C13H11N2+
205.0767	60	C14H9N2+
206.0846	16	C14H10N2+
207.0683	12	C11H12ClN2+
214.0425	33	C13H9ClN+
229.0533	92	C13H10ClN2+
231.0684	10	C13H12ClN2+
239.0379	13	C14H8ClN2+
241.0535	466	C14H10ClN2+
257.0485	31	C14H10ClN2O+
