Mass spectrum: Benzidine; LC-ESI-ITFT; MS2; CE: 90%; R=15000; [M+H]+
Name: Benzidine
Name: 4-(4-aminophenyl)aniline
Formula: C12H12N2
Exact mass: 184.100048384
SMILES: NC1=CC=C(C=C1)C1=CC=C(N)C=C1
InChI: InChI=1S/C12H12N2/c13-11-5-1-9(2-6-11)10-3-7-12(14)8-4-10/h1-8H,13-14H2
Instrument: LTQ Orbitrap XL Thermo Scientific
Instrument type: LC-ESI-ITFT
Ms type: MS2
Ion mode: POSITIVE
Ionization: ESI
Fragmentation mode: HCD
Collision energy: 90 % (nominal)
Resolution: 15000
Column name: Kinetex Evo C18 2.6 um 50 x 2.1 mm
Retention time: 0.598 min
Base peak: 94.0651
Precursor m/z: 185.1073
Precursor type: [M+H]+
Precursor intensity: 4330923.5
m/z	relative intensity	assigned
65.0386	18	C5H5+
92.0497	32	C6H6N+
93.0575	78	C6H7N+
115.0544	47	C9H7+
118.0655	6	C8H8N+
128.0624	13	C10H8+
130.0651	5	C9H8N+
140.0497	8	C10H6N+
141.0701	222	C11H9+
142.0653	8	C10H8N+
143.0731	28	C10H9N+
144.0808	9	C10H10N+
151.0544	108	C12H7+
152.0624	58	C12H8+
153.0576	53	C11H7N+
155.0608	10	C10H7N2+
158.0961	11	C11H12N+
166.0657	22	C12H8N+
167.0732	999	C12H9N+
168.081	335	C12H10N+
169.076	11	C11H9N2+
169.0888	108	C12H11N+
179.0606	65	C12H7N2+
183.092	13	C12H11N2+
184.0999	222	C12H12N2+
