Mass spectrum: Thiophanate-methyl; LC-ESI-ITFT; MS2; CE: 20%; R=15000; [M+H]+
Name: Thiophanate-methyl
Name: CID 3085
Name: N`-methoxycarbonyl-N-[2-[(N-methoxycarbonyl-C-sulfanylcarbonimidoyl)amino]phenyl]carbamimidothioic acid
Formula: C12H14N4O4S2
Exact mass: 342.045646928
SMILES: COC(=O)NC(=S)NC1=CC=CC=C1NC(=S)NC(=O)OC
InChI: InChI=1S/C12H14N4O4S2/c1-19-11(17)15-9(21)13-7-5-3-4-6-8(7)14-10(22)16-12(18)20-2/h3-6H,1-2H3,(H2,13,15,17,21)(H2,14,16,18,22)
Instrument: LTQ Orbitrap XL Thermo Scientific
Instrument type: LC-ESI-ITFT
Ms type: MS2
Ion mode: POSITIVE
Ionization: ESI
Fragmentation mode: HCD
Collision energy: 20 % (nominal)
Resolution: 15000
Column name: Kinetex Evo C18 2.6 um 50 x 2.1 mm
Retention time: 9.002 min
Base peak: 343.054
Precursor m/z: 343.0529
Precursor type: [M+H]+
Precursor intensity: 4558862
m/z	relative intensity	assigned
151.0331	999	CH13NO3S2+
160.0512	10	C2H12N2O4S+
192.0776	58	C11H12O3+
209.0385	8	C9H9N2O2S+
226.0654	83	C11H14O3S+
235.9957	55	C11H8O2S2+
251.0606	45	C12H13NO3S+
268.022	80	C12H12O3S2+
277.0401	9	C11H9N4O3S+
279.0005	9	C10H7N4O2S2+
311.0278	137	C11H11N4O3S2+
343.0542	61	C12H15N4O4S2+
