Mass spectrum: 7-Amino-4-methylcoumarin; LC-ESI-ITFT; MS2; CE: 40%; R=15000; [M+H]+
Name: 7-Amino-4-methylcoumarin
Name: 7-amino-4-methylchromen-2-one
Formula: C10H9NO2
Exact mass: 175.063328528
SMILES: CC1=CC(=O)OC2=CC(N)=CC=C12
InChI: InChI=1S/C10H9NO2/c1-6-4-10(12)13-9-5-7(11)2-3-8(6)9/h2-5H,11H2,1H3
Instrument: LTQ Orbitrap XL Thermo Scientific
Instrument type: LC-ESI-ITFT
Ms type: MS2
Ion mode: POSITIVE
Ionization: ESI
Fragmentation mode: HCD
Collision energy: 40 % (nominal)
Resolution: 15000
Column name: Kinetex Evo C18 2.6 um 50 x 2.1 mm
Retention time: 6.817 min
Base peak: 176.0712
Precursor m/z: 176.0706
Precursor type: [M+H]+
Precursor intensity: 25195214
m/z	relative intensity	assigned
105.0701	1	C8H9+
115.0543	3	C9H7+
117.0574	6	C8H7N+
120.0808	10	C8H10N+
132.0808	17	C9H10N+
148.0757	6	C9H10NO+
176.0706	999	C10H10NO2+
