Mass spectrum: Imazapyr; LC-ESI-ITFT; MS2; CE: 70%; R=15000; [M+H]+
Name: Imazapyr
Name: 2-(4-methyl-5-oxo-4-propan-2-yl-1H-imidazol-2-yl)pyridine-3-carboxylic acid
Formula: C13H15N3O3
Exact mass: 261.11134134
SMILES: CC(C)C1(C)N=C(NC1=O)C1=NC=CC=C1C(O)=O
InChI: InChI=1S/C13H15N3O3/c1-7(2)13(3)12(19)15-10(16-13)9-8(11(17)18)5-4-6-14-9/h4-7H,1-3H3,(H,17,18)(H,15,16,19)
Instrument: LTQ Orbitrap XL Thermo Scientific
Instrument type: LC-ESI-ITFT
Ms type: MS2
Ion mode: POSITIVE
Ionization: ESI
Fragmentation mode: HCD
Collision energy: 70 % (nominal)
Resolution: 15000
Column name: Kinetex Evo C18 2.6 um 50 x 2.1 mm
Retention time: 5.912 min
Base peak: 262.1196
Precursor m/z: 262.1186
Precursor type: [M+H]+
Precursor intensity: 28598478
m/z	relative intensity	assigned
58.0649	5	C3H8N+
67.054	14	C5H7+
69.0698	840	C5H9+
70.065	4	C4H8N+
71.0729	6	C4H9N+
72.0443	5	C3H6NO+
78.0338	16	C5H4N+
79.0417	5	C5H5N+
86.0965	999	C5H12N+
96.0445	6	C5H6NO+
97.0649	25	C6H9O+
103.029	5	C6H3N2+
104.0371	30	C6H4N2+
105.0448	68	C6H5N2+
106.0288	4	C6H4NO+
107.0606	6	C6H7N2+
121.0396	7	C6H5N2O+
124.0394	17	C6H6NO2+
131.0241	291	C7H3N2O+
132.0812	4	C9H10N+
133.0398	53	C7H5N2O+
136.0392	10	C7H6NO2+
147.0555	280	C8H7N2O+
148.0507	139	C7H6N3O+
149.0347	950	C7H5N2O2+
156.0686	3	C10H8N2+
158.0843	4	C10H10N2+
171.0919	10	C11H11N2+
172.0509	2	C9H6N3O+
173.0586	27	C9H7N3O+
173.1075	29	C11H13N2+
174.0664	508	C9H8N3O+
175.0867	23	C10H11N2O+
176.0823	7	C9H10N3O+
177.0659	8	C9H9N2O2+
184.0635	6	C11H8N2O+
191.0691	45	C9H9N3O2+
199.0869	99	C12H11N2O+
201.0536	31	C10H7N3O2+
202.0613	469	C10H8N3O2+
216.1137	8	C12H14N3O+
217.0973	176	C12H13N2O2+
219.0641	7	C10H9N3O3+
220.0718	52	C10H10N3O3+
234.1239	9	C12H16N3O2+
262.1187	3	C13H16N3O3+
