Mass spectrum: Enrofloxacin; LC-ESI-ITFT; MS2; CE: 40%; R=15000; [M+H]+
Name: Enrofloxacin
Name: 1-cyclopropyl-7-(4-ethylpiperazin-1-yl)-6-fluoro-4-oxoquinoline-3-carboxylic acid
Formula: C19H22FN3O3
Exact mass: 359.164519784
SMILES: CCN1CCN(CC1)C1=C(F)C=C2C(=O)C(=CN(C3CC3)C2=C1)C(O)=O
InChI: InChI=1S/C19H22FN3O3/c1-2-21-5-7-22(8-6-21)17-10-16-13(9-15(17)20)18(24)14(19(25)26)11-23(16)12-3-4-12/h9-12H,2-8H2,1H3,(H,25,26)
Instrument: LTQ Orbitrap XL Thermo Scientific
Instrument type: LC-ESI-ITFT
Ms type: MS2
Ion mode: POSITIVE
Ionization: ESI
Fragmentation mode: HCD
Collision energy: 40 % (nominal)
Resolution: 15000
Column name: Kinetex Evo C18 2.6 um 50 x 2.1 mm
Retention time: 5.884 min
Base peak: 311.1321
Precursor m/z: 360.1718
Precursor type: [M+H]+
Precursor intensity: 15121305
m/z	relative intensity	assigned
70.0649	1	C4H8N+
72.0807	90	C4H10N+
84.0807	24	C5H10N+
86.0964	19	C5H12N+
98.0964	13	C6H12N+
99.1043	2	C6H13N+
163.0663	4	C9H8FN2+
203.0616	16	C11H8FN2O+
204.0693	34	C11H9FN2O+
217.0773	4	C12H10FN2O+
217.1132	3	C13H14FN2+
219.0929	4	C12H12FN2O+
225.1027	2	C14H13N2O+
227.0983	3	C14H12FN2+
231.0929	41	C13H12FN2O+
245.1085	516	C14H14FN2O+
246.1121	18	C14H16NO3+
257.1087	10	C15H14FN2O+
259.1234	2	C15H16FN2O+
260.1201	3	C19H16O+
268.1435	3	C16H18N3O+
275.1422	4	C18H17N3+
285.1267	4	C16H16FN3O+
287.1432	4	C16H18FN3O+
288.1507	24	C16H19FN3O+
296.1754	7	C15H23FN3O2+
314.1664	62	C18H21FN3O+
316.1818	999	C18H23FN3O+
342.161	212	C19H21FN3O2+
360.1715	196	C19H23FN3O3+
