Mass spectrum: Tamoxifen; LC-ESI-ITFT; MS2; CE: 40%; R=15000; [M+H]+
Name: Tamoxifen
Name: 2-[4-[(Z)-1,2-diphenylbut-1-enyl]phenoxy]-N,N-dimethylethanamine
Formula: C26H29NO
Exact mass: 371.224914548
SMILES: CC\C(=C(/C1=CC=CC=C1)C1=CC=C(OCCN(C)C)C=C1)C1=CC=CC=C1
InChI: InChI=1S/C26H29NO/c1-4-25(21-11-7-5-8-12-21)26(22-13-9-6-10-14-22)23-15-17-24(18-16-23)28-20-19-27(2)3/h5-18H,4,19-20H2,1-3H3/b26-25-
Instrument: LTQ Orbitrap XL Thermo Scientific
Instrument type: LC-ESI-ITFT
Ms type: MS2
Ion mode: POSITIVE
Ionization: ESI
Fragmentation mode: HCD
Collision energy: 40 % (nominal)
Resolution: 15000
Column name: Kinetex Evo C18 2.6 um 50 x 2.1 mm
Retention time: 10.976 min
Base peak: 372.2331
Precursor m/z: 372.2322
Precursor type: [M+H]+
Precursor intensity: 21360664
m/z	relative intensity	assigned
58.0649	15	C3H8N+
70.065	5	C4H8N+
72.0807	999	C4H10N+
91.0542	18	C7H7+
105.0699	6	C8H9+
107.0491	4	C7H7O+
129.0699	41	C10H9+
167.0856	3	C13H11+
171.0799	1	C12H11O+
178.0777	3	C14H10+
179.0856	3	C14H11+
193.1012	2	C15H13+
205.1017	1	C16H13+
207.117	12	C16H15+
209.0964	6	C15H13O+
221.0963	4	C16H13O+
231.1175	1	C18H15+
234.1033	1	C17H14O+
249.1274	4	C18H17O+
271.111	1	C20H15O+
285.1282	2	C21H17O+
298.1359	3	C22H18O+
299.1436	1	C22H19O+
300.1516	3	C22H20O+
327.1742	5	C24H23O+
372.2321	61	C26H30NO+
