Mass spectrum: 4-Androstene-3,17-dione; LC-ESI-ITFT; MS2; CE: 35; R=15000; [M+H]+
Name: 4-Androstene-3,17-dione
Name: Androstenedione
Name: (8R,9S,10R,13S,14S)-10,13-Dimethyl-2,6,7,8,9,11,12,14,15,16-decahydro-1H-cyclopenta[a]phenanthrene-3,17-dione
Formula: C19H26O2
Exact mass: 286.1933
SMILES: C[C@]12CC[C@H]3[C@@H](CCC4=CC(=O)CC[C@]34C)[C@@H]1CCC2=O
InChI: InChI=1S/C19H26O2/c1-18-9-7-13(20)11-12(18)3-4-14-15-5-6-17(21)19(15,2)10-8-16(14)18/h11,14-16H,3-10H2,1-2H3/t14-,15-,16-,18-,19-/m0/s1
Instrument: LTQ Orbitrap XL Thermo Scientific
Instrument type: LC-ESI-ITFT
Ms type: MS2
Ion mode: POSITIVE
Ionization: ESI
Fragmentation mode: CID
Collision energy: 35 (nominal)
Resolution: 15000
Column name: Kinetex Core-Shell C18 2.6 um, 3.0 x 100 mm, Phenomenex
Retention time: 24.312 min
Base peak: 163.1324
Precursor m/z: 287.2006
Precursor type: [M+H]+
m/z	relative intensity	assigned
91.0539	6	C7H7+
93.0699	9	C7H9+
95.0852	6	C7H11+
97.0645	999	C6H9O+
105.0696	11	C8H9+
107.0853	16	C8H11+
109.0645	357	C7H9O+
119.0853	16	C9H11+
121.1009	23	C9H13+
123.0802	69	C8H11O+
131.0853	20	C10H11+
133.101	23	C10H13+
135.0803	7	C9H11O+
135.1167	10	C10H15+
137.0961	7	C9H13O+
143.0853	15	C11H11+
145.1009	45	C11H13+
147.0803	7	C10H11O+
147.1165	41	C11H15+
149.0963	6	C10H13O+
153.0906	7	C9H13O2+
155.0855	7	C12H11+
157.101	15	C12H13+
159.1166	52	C12H15+
161.0954	13	C11H13O+
161.132	14	C12H17+
163.1117	6	C11H15O+
169.101	33	C13H13+
171.1164	27	C13H15+
173.0958	21	C12H13O+
173.1321	68	C13H17+
175.1114	13	C12H15O+
177.1273	4	C12H17O+
179.1065	11	C11H15O2+
181.1006	15	C14H13+
183.1165	42	C14H15+
185.1322	113	C14H17+
187.1114	19	C13H15O+
187.1477	99	C14H19+
189.1266	7	C13H17O+
191.106	7	C12H15O2+
191.1422	7	C13H19O+
193.1221	33	C12H17O2+
195.1165	56	C15H15+
197.132	10	C15H17+
199.1113	16	C14H15O+
199.1478	46	C15H19+
201.127	13	C14H17O+
205.1584	32	C14H21O+
209.1322	85	C16H17+
211.1478	195	C16H19+
213.1271	31	C15H17O+
217.1585	61	C15H21O+
223.1476	29	C17H19+
225.1635	37	C17H21+
227.1426	19	C16H19O+
227.179	76	C17H23+
229.1583	69	C16H21O+
231.1376	9	C15H19O2+
241.1585	15	C17H21O+
241.1948	53	C18H25+
243.1752	6	C17H23O+
251.179	355	C19H23+
269.1895	656	C19H25O+
287.2005	24	C19H27O2+
