Mass spectrum: o-Toluidine; LC-ESI-QFT; MS2; CE: 61.67%; R=35000; [M+H]+
Name: o-Toluidine
Name: 2-Methylaniline
Formula: C7H9N
Exact mass: 107.0735
SMILES: Cc1ccccc1N
InChI: InChI=1S/C7H9N/c1-6-4-2-3-5-7(6)8/h2-5H,8H2,1H3
Instrument: Q Exactive Plus Orbitrap Thermo Scientific
Instrument type: LC-ESI-QFT
Ms type: MS2
Ion mode: POSITIVE
Ionization: ESI
Fragmentation mode: HCD
Collision energy: 61.67 % (nominal)
Resolution: 35000
Column name: Accucore PhenylHexyl 2.6um, 3x150mm, Thermo
Retention time: 7.952 min
Base peak: 108.0806
Precursor m/z: 108.0808
Precursor type: [M+H]+
m/z	relative intensity	assigned
65.0387	83	C5H5+
91.0543	630	C7H7+
93.0573	315	C6H7N+
108.0808	999	C7H10N+
119.0605	19	C7H7N2+
