Mass spectrum: Propranolol; LC-ESI-ITFT; MS2; CE: 40%; R=15000; [M+H]+
Name: Propranolol
Name: 1-naphthalen-1-yloxy-3-(propan-2-ylamino)propan-2-ol
Formula: C16H21NO2
Exact mass: 259.157228912
SMILES: CC(C)NCC(O)COC1=C2C=CC=CC2=CC=C1
InChI: InChI=1S/C16H21NO2/c1-12(2)17-10-14(18)11-19-16-9-5-7-13-6-3-4-8-15(13)16/h3-9,12,14,17-18H,10-11H2,1-2H3
Instrument: LTQ Orbitrap XL Thermo Scientific
Instrument type: LC-ESI-ITFT
Ms type: MS2
Ion mode: POSITIVE
Ionization: ESI
Fragmentation mode: HCD
Collision energy: 40 % (nominal)
Resolution: 15000
Column name: Kinetex Evo C18 2.6 um 50 x 2.1 mm
Retention time: 7.042 min
Base peak: 116.9862
Precursor m/z: 260.1645
Precursor type: [M+H]+
Precursor intensity: 572954.75
m/z	relative intensity	assigned
56.0495	84	C3H6N+
58.0651	128	C3H8N+
60.0809	7	C3H10N+
72.0809	216	C4H10N+
74.0602	207	C3H8NO+
84.0811	3	C5H10N+
86.0967	65	C5H12N+
90.0553	4	C3H8NO2+
98.0968	289	C6H12N+
100.1125	16	C6H14N+
102.0918	1	C5H12NO+
116.1074	653	C6H14NO+
129.0703	14	C10H9+
132.1024	12	C6H14NO2+
141.0704	23	C11H9+
143.0497	4	C10H7O+
145.0653	18	C10H9O+
153.0704	3	C12H9+
155.0861	61	C12H11+
157.0654	192	C11H9O+
165.0706	14	C13H9+
168.0575	5	C12H8O+
171.0813	5	C12H11O+
183.0811	467	C13H11O+
187.1125	1	C13H15O+
200.1076	2	C13H14NO+
218.1183	98	C13H16NO2+
225.1275	2	C16H17O+
242.1547	8	C16H20NO+
260.1654	999	C16H22NO2+
