Mass spectrum: Tonalide; LC-ESI-ITFT; MS2; CE: 70%; R=15000; [M+H]+
Name: Tonalide
Name: Tonalid
Name: 1-(3,5,5,6,8,8-hexamethyl-6,7-dihydronaphthalen-2-yl)ethanone
Formula: C18H26O
Exact mass: 258.198365452
SMILES: CC1CC(C)(C)C2=C(C=C(C)C(=C2)C(C)=O)C1(C)C
InChI: InChI=1S/C18H26O/c1-11-8-16-15(9-14(11)13(3)19)17(4,5)10-12(2)18(16,6)7/h8-9,12H,10H2,1-7H3
Instrument: LTQ Orbitrap XL Thermo Scientific
Instrument type: LC-ESI-ITFT
Ms type: MS2
Ion mode: POSITIVE
Ionization: ESI
Fragmentation mode: HCD
Collision energy: 70 % (nominal)
Resolution: 15000
Column name: Kinetex Evo C18 2.6 um 50 x 2.1 mm
Retention time: 14.247 min
Base peak: 259.2057
Precursor m/z: 259.2056
Precursor type: [M+H]+
Precursor intensity: 4200188.5
m/z	relative intensity	assigned
57.0698	15	C4H9+
69.0699	16	C5H9+
83.0857	12	C6H11+
93.0697	5	C7H9+
105.07	36	C8H9+
119.0857	159	C9H11+
129.07	14	C10H9+
131.0856	9	C10H11+
133.1014	144	C10H13+
143.0859	6	C11H11+
147.0806	324	C10H11O+
157.1014	7	C12H13+
159.1175	5	C12H15+
161.0963	196	C11H13O+
173.133	10	C13H17+
175.1119	999	C12H15O+
189.1277	10	C13H17O+
