Mass spectrum: Indometacin; LC-ESI-ITFT; MS2; CE: 90%; R=15000; [M+H]+
Name: Indometacin
Name: Indomethacin
Name: 2-[1-(4-chlorobenzoyl)-5-methoxy-2-methylindol-3-yl]acetic acid
Formula: C19H16ClNO4
Exact mass: 357.076785672
SMILES: COC1=CC2=C(C=C1)N(C(=O)C1=CC=C(Cl)C=C1)C(C)=C2CC(O)=O
InChI: InChI=1S/C19H16ClNO4/c1-11-15(10-18(22)23)16-9-14(25-2)7-8-17(16)21(11)19(24)12-3-5-13(20)6-4-12/h3-9H,10H2,1-2H3,(H,22,23)
Instrument: LTQ Orbitrap XL Thermo Scientific
Instrument type: LC-ESI-ITFT
Ms type: MS2
Ion mode: POSITIVE
Ionization: ESI
Fragmentation mode: HCD
Collision energy: 90 % (nominal)
Resolution: 15000
Column name: Kinetex Evo C18 2.6 um 50 x 2.1 mm
Retention time: 12.302 min
Base peak: 358.0847
Precursor m/z: 358.0841
Precursor type: [M+H]+
Precursor intensity: 5572219
m/z	relative intensity	assigned
75.0231	76	C6H3+
93.034	38	C3H8ClN+
111.0001	230	C6H4Cl+
129.0107	108	C6H6ClO+
131.0734	31	C9H9N+
138.9951	999	C7H4ClO+
