Mass spectrum: 2-Hydroxyanthraquinone; ESI-ITFT; MS2; CE: 35%; R=30000; [M-H]-
Name: 2-Hydroxyanthraquinone
Name: 2-hydroxyanthracene-9,10-dione
Formula: C14H8O3
Exact mass: 224.0473
SMILES: c1ccc2c(c1)C(=O)c1c(C2=O)cc(cc1)O
InChI: InChI=1S/C14H8O3/c15-8-5-6-11-12(7-8)14(17)10-4-2-1-3-9(10)13(11)16/h1-7,15H
Instrument: LTQ Orbitrap XL Thermo Scientific
Instrument type: ESI-ITFT
Ms type: MS2
Ion mode: NEGATIVE
Ionization: ESI
Fragmentation mode: CID
Collision energy: 35 % (nominal)
Resolution: 30000
Column name: N/A
Retention time: N/A min
Base peak: 223.0401
Precursor m/z: 223.0401
Precursor type: [M-H]-
m/z	relative intensity	assigned
154.0377	11	C6H6N2O3-
195.0452	999	C13H7O2-
223.0398	943	C14H7O3-
