Mass spectrum: Prothioconazole-desthio; LC-ESI-ITFT; MS2; CE: 55; R=15000; [M+H]+
Name: Prothioconazole-desthio
Name: 2-(1-Chlorocyclopropyl)-1-(2-chlorophenyl)-3-(1,2,4-triazol-1-yl)propan-2-ol
Formula: C14H15Cl2N3O
Exact mass: 311.0592
SMILES: OC(CN1C=NC=N1)(CC1=CC=CC=C1Cl)C1(Cl)CC1
InChI: InChI=1S/C14H15Cl2N3O/c15-12-4-2-1-3-11(12)7-14(20,13(16)5-6-13)8-19-10-17-9-18-19/h1-4,9-10,20H,5-8H2
Instrument: LTQ Orbitrap XL Thermo Scientific
Instrument type: LC-ESI-ITFT
Ms type: MS2
Ion mode: POSITIVE
Ionization: ESI
Fragmentation mode: HCD
Collision energy: 55 (nominal)
Resolution: 15000
Column name: Kinetex Core-Shell C18 2.6 um, 3.0 x 100 mm, Phenomenex
Retention time: 25.640 min
Base peak: 316.1071
Precursor m/z: 312.0665
Precursor type: [M+H]+
m/z	relative intensity	assigned
70.0398	999	C2H4N3+
116.062	10	C9H8+
125.0151	972	C7H6Cl+
139.0308	70	C8H8Cl+
142.0778	25	C11H10+
151.0309	60	C9H8Cl+
153.07	30	C12H9+
154.0777	54	C12H10+
177.0463	17	C11H10Cl+
189.0461	36	C12H10Cl+
