Mass spectrum: Flurtamone; LC-ESI-ITFT; MS2; CE: 55; R=15000; [M+H]+
Name: Flurtamone
Name: 5-(Methylamino)-2-phenyl-4-[3-(trifluoromethyl)phenyl]furan-3-one
Formula: C18H14F3NO2
Exact mass: 333.0977
SMILES: CNC1=C(C(=O)C(O1)C1=CC=CC=C1)C1=CC=CC(=C1)C(F)(F)F
InChI: InChI=1S/C18H14F3NO2/c1-22-17-14(12-8-5-9-13(10-12)18(19,20)21)15(23)16(24-17)11-6-3-2-4-7-11/h2-10,16,22H,1H3
Instrument: LTQ Orbitrap XL Thermo Scientific
Instrument type: LC-ESI-ITFT
Ms type: MS2
Ion mode: POSITIVE
Ionization: ESI
Fragmentation mode: CID
Collision energy: 55 (nominal)
Resolution: 15000
Column name: Kinetex Core-Shell C18 2.6 um, 3.0 x 100 mm, Phenomenex
Retention time: 24.282 min
Base peak: 304.121
Precursor m/z: 334.1049
Precursor type: [M+H]+
m/z	relative intensity	assigned
103.0543	30	C8H7+
105.0333	15	C7H5O+
120.0808	12	C8H10N+
131.0492	37	C9H7O+
159.0419	2	C8H6F3+
171.0417	63	C9H6F3+
178.0771	3	C14H10+
199.0367	95	C10H6F3O+
209.0762	5	C15H10F+
225.016	83	C11H4F3O2+
228.0633	13	C11H9F3NO+
229.0823	8	C15H11F2+
237.0712	22	C16H10FO+
238.0478	13	C12H7F3NO+
247.0732	288	C15H10F3+
248.0769	5	C10H11F3N2O2+
249.0888	27	C15H12F3+
255.0618	1	C16H9F2O+
256.0583	115	C12H9F3NO2+
257.0774	570	C16H11F2O+
259.073	6	C16H10F3+
262.0595	2	C15H9F3O+
269.0982	6	C17H14FO2+
275.068	690	C16H10F3O+
276.0717	7	C11H11F3N2O3+
277.0837	645	C16H12F3O+
283.0576	4	C17H9F2O2+
286.1041	14	C17H14F2NO+
288.0998	74	C17H13F3N+
303.0631	999	C17H10F3O2+
304.0663	14	C15H10F2N2O3+
306.1101	872	C17H15F3NO+
307.1135	12	C15H15F2N3O2+
314.0989	82	C18H14F2NO2+
316.0946	149	C18H13F3NO+
335.1092	5	C16H15F2N3O3+
