Mass spectrum: Methocarbamol; LC-ESI-ITFT; MS2; CE: 40%; R=15000; [M+H]+
Name: Methocarbamol
Name: [2-hydroxy-3-(2-methoxyphenoxy)propyl] carbamate
Formula: C11H15NO5
Exact mass: 241.0950
SMILES: COC1=C(OCC(O)COC(N)=O)C=CC=C1
InChI: InChI=1S/C11H15NO5/c1-15-9-4-2-3-5-10(9)16-6-8(13)7-17-11(12)14/h2-5,8,13H,6-7H2,1H3,(H2,12,14)
Instrument: LTQ Orbitrap XL Thermo Scientific
Instrument type: LC-ESI-ITFT
Ms type: MS2
Ion mode: POSITIVE
Ionization: ESI
Fragmentation mode: HCD
Collision energy: 40 % (nominal)
Resolution: 15000
Column name: Kinetex Evo C18 2.6 um 50 x 2.1 mm
Retention time: 7.108 min
Base peak: 264.0839
Precursor m/z: 242.1023
Precursor type: [M+H]+
m/z	relative intensity	assigned
57.0333	58	C3H5O+
62.0235	74	CH4NO2+
75.044	48	C3H7O2+
77.0385	11	C6H5+
91.0542	8	C7H7+
93.0334	46	C6H5O+
93.0697	14	C7H9+
95.0491	61	C6H7O+
103.0542	25	C8H7+
105.0698	43	C8H9+
107.0491	28	C7H7O+
110.0362	23	C6H6O2+
118.0498	999	C4H8NO3+
120.0573	7	C8H8O+
121.0282	11	C7H5O2+
121.0647	56	C8H9O+
122.0362	68	C7H6O2+
123.044	74	C7H7O2+
125.0596	248	C7H9O2+
132.057	6	C9H8O+
135.0804	193	C9H11O+
137.0596	56	C8H9O2+
145.0646	5	C10H9O+
148.0519	27	C9H8O2+
151.0753	100	C9H11O2+
163.0753	358	C10H11O2+
