Mass spectrum: Michler`s ketone; LC-ESI-ITFT; MS2; CE: 90%; R=15000; [M+H]+
Name: Michler`s ketone
Name: bis[4-(dimethylamino)phenyl]methanone
Formula: C17H20N2O
Exact mass: 268.15756326
SMILES: CN(C)C1=CC=C(C=C1)C(=O)C1=CC=C(C=C1)N(C)C
InChI: InChI=1S/C17H20N2O/c1-18(2)15-9-5-13(6-10-15)17(20)14-7-11-16(12-8-14)19(3)4/h5-12H,1-4H3
Instrument: LTQ Orbitrap XL Thermo Scientific
Instrument type: LC-ESI-ITFT
Ms type: MS2
Ion mode: POSITIVE
Ionization: ESI
Fragmentation mode: HCD
Collision energy: 90 % (nominal)
Resolution: 15000
Column name: Kinetex Evo C18 2.6 um 50 x 2.1 mm
Retention time: 11.848 min
Base peak: 116.9859
Precursor m/z: 269.1648
Precursor type: [M+H]+
Precursor intensity: 1627902.62
m/z	relative intensity	assigned
77.0383	64	C6H5+
79.054	191	C6H7+
80.0492	20	C5H6N+
91.054	121	C7H7+
92.0492	15	C6H6N+
92.0618	40	C7H8+
93.057	8	C6H7N+
93.0696	61	C7H9+
94.0649	8	C6H8N+
95.0488	11	C6H7O+
103.054	52	C8H7+
104.0491	19	C7H6N+
105.0444	42	C6H5N2+
105.057	220	C7H7N+
110.0596	6	C6H8NO+
118.0648	46	C8H8N+
119.0726	26	C8H9N+
120.0804	350	C8H10N+
132.044	5	C8H6NO+
148.0753	999	C9H10NO+
