Mass spectrum: Fenpropimorph; LC-ESI-ITFT; MS2; CE: 90%; R=15000; [M+H]+
Name: Fenpropimorph
Name: (2S,6R)-4-[3-(4-tert-butylphenyl)-2-methylpropyl]-2,6-dimethylmorpholine
Formula: C20H33NO
Exact mass: 303.256214676
SMILES: CC(CN1C[C@H](C)O[C@H](C)C1)CC1=CC=C(C=C1)C(C)(C)C
InChI: InChI=1S/C20H33NO/c1-15(12-21-13-16(2)22-17(3)14-21)11-18-7-9-19(10-8-18)20(4,5)6/h7-10,15-17H,11-14H2,1-6H3/t15?,16-,17+
Instrument: LTQ Orbitrap XL Thermo Scientific
Instrument type: LC-ESI-ITFT
Ms type: MS2
Ion mode: POSITIVE
Ionization: ESI
Fragmentation mode: HCD
Collision energy: 90 % (nominal)
Resolution: 15000
Column name: Kinetex Evo C18 2.6 um 50 x 2.1 mm
Retention time: 9.129 min
Base peak: 274.2536
Precursor m/z: 304.2635
Precursor type: [M+H]+
Precursor intensity: 100896.9
m/z	relative intensity	assigned
57.0698	231	C4H9+
58.0651	46	C3H8N+
72.0808	15	C4H10N+
91.0545	92	C7H7+
98.0968	190	C6H12N+
105.0702	202	C8H9+
107.0859	34	C8H11+
116.1074	33	C6H14NO+
117.0703	119	C9H9+
119.0859	251	C9H11+
130.1232	12	C7H16NO+
131.0859	14	C10H11+
132.0938	378	C10H12+
147.1173	999	C11H15+
