Mass spectrum: Amiodarone; LC-ESI-ITFT; MS2; CE: 40%; R=15000; [M+H]+
Name: Amiodarone
Name: (2-butyl-1-benzofuran-3-yl)-[4-[2-(diethylamino)ethoxy]-3,5-diiodophenyl]methanone
Formula: C25H29I2NO3
Exact mass: 645.023689788
SMILES: CCCCC1=C(C(=O)C2=CC(I)=C(OCCN(CC)CC)C(I)=C2)C2=CC=CC=C2O1
InChI: InChI=1S/C25H29I2NO3/c1-4-7-11-22-23(18-10-8-9-12-21(18)31-22)24(29)17-15-19(26)25(20(27)16-17)30-14-13-28(5-2)6-3/h8-10,12,15-16H,4-7,11,13-14H2,1-3H3
Instrument: LTQ Orbitrap XL Thermo Scientific
Instrument type: LC-ESI-ITFT
Ms type: MS2
Ion mode: POSITIVE
Ionization: ESI
Fragmentation mode: HCD
Collision energy: 40 % (nominal)
Resolution: 15000
Column name: Kinetex Evo C18 2.6 um 50 x 2.1 mm
Retention time: 11.725 min
Base peak: 646.0325
Precursor m/z: 646.031
Precursor type: [M+H]+
Precursor intensity: 3593559.75
m/z	relative intensity	assigned
72.081	418	C4H10N+
73.0888	94	C4H11N+
86.0968	682	C5H12N+
100.1125	999	C6H14N+
159.0443	14	C10H7O2+
201.0917	133	H26IO3+
248.0825	10	C17H12O2+
276.0787	69	C18H12O3+
277.0871	38	C18H13O3+
319.1329	14	C21H19O3+
