Mass spectrum: 7-(Ethylamino)-4-methylcoumarin; LC-ESI-ITFT; MS2; CE: 40%; R=15000; [M+H]+
Name: 7-(Ethylamino)-4-methylcoumarin
Name: 2H-1-Benzopyran-2-one, 7-(ethylamino)-4-methyl-
Name: 7-(ethylamino)-4-methylchromen-2-one
Formula: C12H13NO2
Exact mass: 203.094628656
SMILES: CCNC1=CC=C2C(C)=CC(=O)OC2=C1
InChI: InChI=1S/C12H13NO2/c1-3-13-9-4-5-10-8(2)6-12(14)15-11(10)7-9/h4-7,13H,3H2,1-2H3
Instrument: LTQ Orbitrap XL Thermo Scientific
Instrument type: LC-ESI-ITFT
Ms type: MS2
Ion mode: POSITIVE
Ionization: ESI
Fragmentation mode: HCD
Collision energy: 40 % (nominal)
Resolution: 15000
Column name: Kinetex Evo C18 2.6 um 50 x 2.1 mm
Retention time: 9.685 min
Base peak: 204.1027
Precursor m/z: 204.1019
Precursor type: [M+H]+
Precursor intensity: 33868312
m/z	relative intensity	assigned
118.0652	1	C8H8N+
130.065	2	C9H8N+
131.073	1	C9H9N+
132.0808	2	C9H10N+
145.0886	1	C10H11N+
148.1121	6	C10H14N+
160.1121	11	C11H14N+
175.0628	3	C10H9NO2+
176.0706	3	C10H10NO2+
176.1071	8	C11H14NO+
204.1019	999	C12H14NO2+
