Mass spectrum: Telmisartan; LC-ESI-ITFT; MS2; CE: 70%; R=15000; [M+H]+
Name: Telmisartan
Name: 2-[4-[[4-methyl-6-(1-methylbenzimidazol-2-yl)-2-propylbenzimidazol-1-yl]methyl]phenyl]benzoic acid
Formula: C33H30N4O2
Exact mass: 514.2368762
SMILES: CCCC1=NC2=C(C)C=C(C=C2N1CC1=CC=C(C=C1)C1=CC=CC=C1C(O)=O)C1=NC2=CC=CC=C2N1C
InChI: InChI=1S/C33H30N4O2/c1-4-9-30-35-31-21(2)18-24(32-34-27-12-7-8-13-28(27)36(32)3)19-29(31)37(30)20-22-14-16-23(17-15-22)25-10-5-6-11-26(25)33(38)39/h5-8,10-19H,4,9,20H2,1-3H3,(H,38,39)
Instrument: LTQ Orbitrap XL Thermo Scientific
Instrument type: LC-ESI-ITFT
Ms type: MS2
Ion mode: POSITIVE
Ionization: ESI
Fragmentation mode: HCD
Collision energy: 70 % (nominal)
Resolution: 15000
Column name: Kinetex Evo C18 2.6 um 50 x 2.1 mm
Retention time: 10.377 min
Base peak: 515.2449
Precursor m/z: 515.2442
Precursor type: [M+H]+
Precursor intensity: 7976923.5
m/z	relative intensity	assigned
79.0542	1	C6H7+
106.0652	9	C7H8N+
133.0285	6	C8H5O2+
133.0763	1	C8H9N2+
141.0703	2	C11H9+
144.0676	2	C9H8N2+
152.0622	13	C12H8+
153.0697	3	C12H9+
155.0856	15	C12H11+
165.0701	31	C13H9+
166.0773	9	C13H10+
167.0857	10	C13H11+
170.0714	1	C10H8N3+
171.0912	1	C11H11N2+
183.0806	14	C13H11O+
193.065	97	C14H9O+
211.0756	143	C14H11O2+
221.107	1	C15H13N2+
222.1157	3	C15H14N2+
235.1108	1	C17H15O+
247.0997	1	C17H13NO+
247.1111	4	C18H15O+
260.1064	7	C18H14NO+
261.1138	116	C16H13N4+
273.1141	4	C17H13N4+
274.1221	11	C19H16NO+
275.1296	82	C17H15N4+
276.1372	999	C17H16N4+
287.1295	11	C18H15N4+
288.1377	10	C20H18NO+
289.1449	236	C18H17N4+
301.145	5	C19H17N4+
302.1533	8	C21H20NO+
303.1606	106	C19H19N4+
305.1763	47	C19H21N4+
317.1763	13	C20H21N4+
467.187	8	C31H23N4O+
485.1972	5	C31H25N4O2+
