Mass spectrum: Metamitron; LC-ESI-ITFT; MS2; CE: 80; R=15000; [M+H]+
Name: Metamitron
Name: 4-Amino-3-methyl-6-phenyl-1,2,4-triazin-5-one
Formula: C10H10N4O
Exact mass: 202.0855
SMILES: CC1=NN=C(C(=O)N1N)C1=CC=CC=C1
InChI: InChI=1S/C10H10N4O/c1-7-12-13-9(10(15)14(7)11)8-5-3-2-4-6-8/h2-6H,11H2,1H3
Instrument: LTQ Orbitrap XL Thermo Scientific
Instrument type: LC-ESI-ITFT
Ms type: MS2
Ion mode: POSITIVE
Ionization: ESI
Fragmentation mode: HCD
Collision energy: 80 (nominal)
Resolution: 15000
Column name: Kinetex Core-Shell C18 2.6 um, 3.0 x 100 mm, Phenomenex
Retention time: 17.809 min
Base peak: 163.1326
Precursor m/z: 203.0927
Precursor type: [M+H]+
m/z	relative intensity	assigned
72.0556	11	C2H6N3+
77.0384	171	C6H5+
79.0541	89	C6H7+
83.0239	49	C3H3N2O+
89.0384	45	C7H5+
91.0541	8	C7H7+
92.0494	52	C6H6N+
93.0572	9	C6H7N+
95.049	24	C6H7O+
103.0539	8	C8H7+
104.0493	999	C7H6N+
105.0446	63	C6H5N2+
105.0571	96	C7H7N+
106.0649	51	C7H8N+
107.0602	21	C6H7N2+
116.0492	7	C8H6N+
117.0446	18	C7H5N2+
117.0572	5	C8H7N+
118.0525	65	C7H6N2+
118.0653	7	C8H8N+
119.0603	22	C7H7N2+
130.065	46	C9H8N+
131.0601	6	C8H7N2+
134.0711	23	C7H8N3+
145.0395	19	C8H5N2O+
158.0713	17	C9H8N3+
159.079	69	C9H9N3+
174.0786	70	C10H10N2O+
175.0976	320	C9H11N4+
187.0741	6	C10H9N3O+
203.0925	35	C10H11N4O+
