Mass spectrum: Isoproturon; LC-ESI-ITFT; MS2; CE: 80%; R=15000; [M+H]+
Name: Isoproturon
Name: 1,1-dimethyl-3-(4-propan-2-ylphenyl)urea
Formula: C12H18N2O
Exact mass: 206.141913196
SMILES: CC(C)C1=CC=C(NC(=O)N(C)C)C=C1
InChI: InChI=1S/C12H18N2O/c1-9(2)10-5-7-11(8-6-10)13-12(15)14(3)4/h5-9H,1-4H3,(H,13,15)
Instrument: LTQ Orbitrap XL Thermo Scientific
Instrument type: LC-ESI-ITFT
Ms type: MS2
Ion mode: POSITIVE
Ionization: ESI
Fragmentation mode: HCD
Collision energy: 80 % (nominal)
Resolution: 15000
Column name: Kinetex Evo C18 2.6 um 50 x 2.1 mm
Retention time: 10.022 min
Base peak: 207.1497
Precursor m/z: 207.1492
Precursor type: [M+H]+
Precursor intensity: 40492572
m/z	relative intensity	assigned
72.0442	999	C3H6NO+
77.0383	2	C6H5+
79.0541	1	C6H7+
91.0542	24	C7H7+
92.0494	8	C6H6N+
93.0577	1	C6H7N+
93.0698	4	C7H9+
94.0652	1	C6H8N+
106.0648	2	C7H8N+
107.0854	21	C8H11+
115.0538	2	C9H7+
117.0698	9	C9H9+
119.0728	8	C8H9N+
119.0852	1	C9H11+
120.0443	12	C7H6NO+
132.0806	2	C9H10N+
134.0963	82	C9H12N+
147.0916	11	C9H11N2+
162.0912	4	C10H12NO+
165.1022	8	C9H13N2O+
