Mass spectrum: Tri-isobutylphosphate; LC-ESI-ITFT; MS2; CE: 40%; R=15000; [M+H]+
Name: Tri-isobutylphosphate
Name: Triisobutyl phosphate
Name: tris(2-methylpropyl) phosphate
Formula: C12H27O4P
Exact mass: 266.164695974
SMILES: CC(C)COP(=O)(OCC(C)C)OCC(C)C
InChI: InChI=1S/C12H27O4P/c1-10(2)7-14-17(13,15-8-11(3)4)16-9-12(5)6/h10-12H,7-9H2,1-6H3
Instrument: LTQ Orbitrap XL Thermo Scientific
Instrument type: LC-ESI-ITFT
Ms type: MS2
Ion mode: POSITIVE
Ionization: ESI
Fragmentation mode: HCD
Collision energy: 40 % (nominal)
Resolution: 15000
Column name: Kinetex Evo C18 2.6 um 50 x 2.1 mm
Retention time: 12.963 min
Base peak: 267.1731
Precursor m/z: 267.172
Precursor type: [M+H]+
Precursor intensity: 15335846
m/z	relative intensity	assigned
57.0698	15	C4H9+
98.9845	999	H4O4P+
155.0475	7	C4H12O4P+
