Mass spectrum: Chloridazon; LC-ESI-ITFT; MS2; CE: 55; R=15000; [M-H]-
Name: Chloridazon
Name: 5-Amino-4-chloro-2-phenylpyridazin-3-one
Formula: C10H8ClN3O
Exact mass: 221.0356
SMILES: NC1=C(Cl)C(=O)N(N=C1)C1=CC=CC=C1
InChI: InChI=1S/C10H8ClN3O/c11-9-8(12)6-13-14(10(9)15)7-4-2-1-3-5-7/h1-6H,12H2
Instrument: LTQ Orbitrap XL Thermo Scientific
Instrument type: LC-ESI-ITFT
Ms type: MS2
Ion mode: NEGATIVE
Ionization: ESI
Fragmentation mode: HCD
Collision energy: 55 (nominal)
Resolution: 15000
Column name: Kinetex Core-Shell C18 2.6 um, 3.0 x 100 mm, Phenomenex
Retention time: 18.631 min
Base peak: 212.9993
Precursor m/z: 220.0283
Precursor type: [M-H]-
m/z	relative intensity	assigned
220.0283	999	C10H7ClN3O-
