Mass spectrum: 4-Nitroquinoline-1-oxide; LC-ESI-ITFT; MS2; CE: 80%; R=15000; [M+H]+
Name: 4-Nitroquinoline-1-oxide
Name: 4-Nitroquinoline N-oxide
Name: 4-nitro-1-oxidoquinolin-1-ium
Formula: C9H6N2O3
Exact mass: 190.037842052
SMILES: [O-][N+](=O)C1=CC=[N+]([O-])C2=CC=CC=C12
InChI: InChI=1S/C9H6N2O3/c12-10-6-5-9(11(13)14)7-3-1-2-4-8(7)10/h1-6H
Instrument: LTQ Orbitrap XL Thermo Scientific
Instrument type: LC-ESI-ITFT
Ms type: MS2
Ion mode: POSITIVE
Ionization: ESI
Fragmentation mode: HCD
Collision energy: 80 % (nominal)
Resolution: 15000
Column name: Kinetex Evo C18 2.6 um 50 x 2.1 mm
Retention time: 6.311 min
Base peak: 360.2164
Precursor m/z: 191.0451
Precursor type: [M+H]+
Precursor intensity: 5930788
m/z	relative intensity	assigned
77.0383	22	C6H5+
78.046	1	C6H6+
89.0384	11	C7H5+
90.0462	18	C7H6+
91.0414	21	C6H5N+
91.054	3	C7H7+
95.0489	4	C6H7O+
101.0381	4	C8H5+
104.0492	29	C7H6N+
105.0331	2	C7H5O+
105.0444	9	C6H5N2+
105.0568	2	C7H7N+
116.0492	211	C8H6N+
117.0569	4	C8H7N+
119.0487	1	C8H7O+
128.0492	999	C9H6N+
129.0443	39	C8H5N2+
132.044	4	C8H6NO+
133.0518	3	C8H7NO+
144.0442	10	C9H6NO+
145.0519	704	C9H7NO+
161.0467	13	C9H7NO2+
162.0182	1	C8H4NO3+
177.0414	4	C9H7NO3+
191.0446	1	C9H7N2O3+
