Mass spectrum: N-lauroylethanolamine; LC-ESI-ITFT; MS2; CE: 65%; R=15000; [M+H]+
Name: N-lauroylethanolamine
Name: N-(2-hydroxyethyl)dodecanamide
Formula: C14H29NO2
Exact mass: 243.2198
SMILES: CCCCCCCCCCCC(=O)NCCO
InChI: InChI=1S/C14H29NO2/c1-2-3-4-5-6-7-8-9-10-11-14(17)15-12-13-16/h16H,2-13H2,1H3,(H,15,17)
Instrument: LTQ Orbitrap XL Thermo Scientific
Instrument type: LC-ESI-ITFT
Ms type: MS2
Ion mode: POSITIVE
Ionization: ESI
Fragmentation mode: HCD
Collision energy: 65 % (nominal)
Resolution: 15000
Column name: Kinetex Evo C18 2.6 um 50 x 2.1 mm
Retention time: 13.009 min
Base peak: 244.227
Precursor m/z: 244.2271
Precursor type: [M+H]+
m/z	relative intensity	assigned
55.054	60	C4H7+
57.0696	128	C4H9+
62.0599	999	C2H8NO+
67.0541	200	C5H7+
71.0855	266	C5H11+
81.0698	268	C6H9+
83.0855	55	C6H11+
85.1012	114	C6H13+
95.0855	692	C7H11+
109.1011	217	C8H13+
123.1164	29	C9H15+
226.2166	196	C14H28NO+
227.2008	91	C14H27O2+
