Mass spectrum: Ifosfamide; LC-ESI-ITFT; MS2; CE: 80%; R=15000; [M+H]+
Name: Ifosfamide
Name: N,3-bis(2-chloroethyl)-2-oxo-1,3,2lambda5-oxazaphosphinan-2-amine
Formula: C7H15Cl2N2O2P
Exact mass: 260.02481971
SMILES: ClCCNP1(=O)OCCCN1CCCl
InChI: InChI=1S/C7H15Cl2N2O2P/c8-2-4-10-14(12)11(6-3-9)5-1-7-13-14/h1-7H2,(H,10,12)
Instrument: LTQ Orbitrap XL Thermo Scientific
Instrument type: LC-ESI-ITFT
Ms type: MS2
Ion mode: POSITIVE
Ionization: ESI
Fragmentation mode: HCD
Collision energy: 80 % (nominal)
Resolution: 15000
Column name: Kinetex Evo C18 2.6 um 50 x 2.1 mm
Retention time: 7.030 min
Base peak: 307.1122
Precursor m/z: 261.0321
Precursor type: [M+H]+
Precursor intensity: 2372248
m/z	relative intensity	assigned
56.0492	93	C3H6N+
58.0649	6	C3H8N+
62.9994	214	CH4OP+
63.9946	4	H3NOP+
67.054	8	C5H7+
72.0443	11	C3H6NO+
78.0104	138	C2H5ClN+
80.0261	9	C2H7ClN+
82.0651	14	C5H8N+
84.0808	10	C5H10N+
92.0261	999	C3H7ClN+
98	6	CH5ClNO2+
106.0051	15	C2H5NO2P+
109.0049	3	C3H6ClO2+
115.9662	4	ClH4NO2P+
116.9503	47	CH3Cl2O2+
118.0051	7	C3H5NO2P+
118.0418	10	C5H9ClN+
120.0574	78	C5H11ClN+
123.9718	3	C3H4Cl2N+
124.0157	11	C3H7ClNO2+
125.9505	19	CH2ClNO2P+
127.9662	12	CH4ClNO2P+
128.0258	11	C5H7NOP+
136.0158	19	C4H7ClNO2+
141.9818	25	C2H6ClNO2P+
146.0365	7	C5H9NO2P+
153.9819	292	C3H6ClNO2P+
182.0137	3	C2H13Cl2N2OP+
