Mass spectrum: 4,4`-Thiodianiline; LC-ESI-ITFT; MS2; CE: 70%; R=15000; [M+H]+
Name: 4,4`-Thiodianiline
Name: 4-(4-aminophenyl)sulfanylaniline
Formula: C12H12N2S
Exact mass: 216.072119384
SMILES: NC1=CC=C(SC2=CC=C(N)C=C2)C=C1
InChI: InChI=1S/C12H12N2S/c13-9-1-5-11(6-2-9)15-12-7-3-10(14)4-8-12/h1-8H,13-14H2
Instrument: LTQ Orbitrap XL Thermo Scientific
Instrument type: LC-ESI-ITFT
Ms type: MS2
Ion mode: POSITIVE
Ionization: ESI
Fragmentation mode: HCD
Collision energy: 70 % (nominal)
Resolution: 15000
Column name: Kinetex Evo C18 2.6 um 50 x 2.1 mm
Retention time: 2.187 min
Base peak: 217.0796
Precursor m/z: 217.0794
Precursor type: [M+H]+
Precursor intensity: 11636274
m/z	relative intensity	assigned
66.0461	1	C5H6+
76.0305	1	C6H4+
80.0493	62	C5H6N+
93.0571	97	C6H7N+
94.0651	1	C6H8N+
97.0104	6	C5H5S+
123.0135	1	C6H5NS+
124.0213	999	C6H6NS+
125.029	3	C6H7NS+
129.0696	11	C10H9+
134.0181	6	C8H6S+
139.0539	60	C11H7+
143.0732	1	C10H9N+
154.0655	1	C11H8N+
156.0805	21	C11H10N+
166.0646	5	C12H8N+
167.0726	118	C12H9N+
168.0804	2	C12H10N+
171.026	14	C11H7S+
172.0342	4	C11H8S+
173.0416	8	C11H9S+
183.026	125	C12H7S+
184.0338	107	C12H8S+
184.0992	24	C12H12N2+
185.0294	1	C11H7NS+
198.0371	1	C12H8NS+
199.0447	284	C12H9NS+
200.0525	166	C12H10NS+
201.0472	1	C11H9N2S+
211.0321	59	C12H7N2S+
215.0634	13	C12H11N2S+
216.0712	72	C12H12N2S+
217.0791	47	C12H13N2S+
