Mass spectrum: Acetyl-sulfamethoxazole; LC-ESI-ITFT; MS2; CE: 90%; R=15000; [M+H]+
Name: Acetyl-sulfamethoxazole
Name: Acetylsulfamethoxazole
Name: N-[4-[(5-methyl-1,2-oxazol-3-yl)sulfamoyl]phenyl]acetamide
Formula: C12H13N3O4S
Exact mass: 295.062676896
SMILES: CC(=O)NC1=CC=C(C=C1)S(=O)(=O)NC1=NOC(C)=C1
InChI: InChI=1S/C12H13N3O4S/c1-8-7-12(14-19-8)15-20(17,18)11-5-3-10(4-6-11)13-9(2)16/h3-7H,1-2H3,(H,13,16)(H,14,15)
Instrument: LTQ Orbitrap XL Thermo Scientific
Instrument type: LC-ESI-ITFT
Ms type: MS2
Ion mode: POSITIVE
Ionization: ESI
Fragmentation mode: HCD
Collision energy: 90 % (nominal)
Resolution: 15000
Column name: Kinetex Evo C18 2.6 um 50 x 2.1 mm
Retention time: 7.620 min
Base peak: 325.1721
Precursor m/z: 296.07
Precursor type: [M+H]+
Precursor intensity: 6730892
m/z	relative intensity	assigned
65.0387	999	C5H5+
77.0389	13	C6H5+
79.0546	42	C6H7+
80.0498	55	C5H6N+
92.0499	322	C6H6N+
93.0339	120	C6H5O+
93.0578	159	C6H7N+
94.0656	64	H14O3S+
99.0558	33	C4H7N2O+
105.0451	12	H11NO3S+
106.0657	76	CH14O3S+
107.0607	30	C6H7N2+
108.0449	378	H12O4S+
110.0606	32	H14O4S+
131.0608	10	C2H13NO3S+
134.0607	158	C2H14O4S+
146.072	63	C2H14N2O3S+
147.0799	27	C10H11O+
160.0873	28	C9H10N3+
