Mass spectrum: Metazachlor; LC-ESI-ITFT; MS2; CE: 80%; R=15000; [M+H]+
Name: Metazachlor
Name: 2-chloro-N-(2,6-dimethylphenyl)-N-(pyrazol-1-ylmethyl)acetamide
Formula: C14H16ClN3O
Exact mass: 277.098189812
SMILES: CC1=CC=CC(C)=C1N(CN1C=CC=N1)C(=O)CCl
InChI: InChI=1S/C14H16ClN3O/c1-11-5-3-6-12(2)14(11)18(13(19)9-15)10-17-8-4-7-16-17/h3-8H,9-10H2,1-2H3
Instrument: LTQ Orbitrap XL Thermo Scientific
Instrument type: LC-ESI-ITFT
Ms type: MS2
Ion mode: POSITIVE
Ionization: ESI
Fragmentation mode: HCD
Collision energy: 80 % (nominal)
Resolution: 15000
Column name: Kinetex Evo C18 2.6 um 50 x 2.1 mm
Retention time: 10.152 min
Base peak: 278.106
Precursor m/z: 278.1055
Precursor type: [M+H]+
Precursor intensity: 16968030
m/z	relative intensity	assigned
76.9788	18	C2H2ClO+
79.0542	8	C6H7+
91.0543	1	C7H7+
103.0542	3	C8H7+
105.0698	175	C8H9+
106.0776	4	C8H10+
107.0854	7	C8H11+
117.0572	1	C8H7N+
119.0728	5	C8H9N+
123.0805	2	C8H11O+
132.0808	7	C9H10N+
133.0762	9	C8H9N2+
134.0964	999	C9H12N+
