Mass spectrum: Diflufenican; LC-ESI-ITFT; MS2; CE: 50%; R=15000; [M+H]+
Name: Diflufenican
Name: N-(2,4-difluorophenyl)-2-[3-(trifluoromethyl)phenoxy]pyridine-3-carboxamide
Formula: C19H11F5N2O2
Exact mass: 394.074068692
SMILES: FC1=CC=C(NC(=O)C2=CC=CN=C2OC2=CC=CC(=C2)C(F)(F)F)C(F)=C1
InChI: InChI=1S/C19H11F5N2O2/c20-12-6-7-16(15(21)10-12)26-17(27)14-5-2-8-25-18(14)28-13-4-1-3-11(9-13)19(22,23)24/h1-10H,(H,26,27)
Instrument: LTQ Orbitrap XL Thermo Scientific
Instrument type: LC-ESI-ITFT
Ms type: MS2
Ion mode: POSITIVE
Ionization: ESI
Fragmentation mode: HCD
Collision energy: 50 % (nominal)
Resolution: 15000
Column name: Kinetex Evo C18 2.6 um 50 x 2.1 mm
Retention time: 13.129 min
Base peak: 65.0596
Precursor m/z: 395.0813
Precursor type: [M+H]+
Precursor intensity: 2086623.38
m/z	relative intensity	assigned
122.024	4	C6H4NO2+
169.0527	2	C11H7NO+
178.0278	2	C7H4F4N+
183.042	7	C10H6F3+
190.0459	3	C11H6F2N+
210.053	4	C11H7F3N+
219.0495	15	C12H7F2NO+
233.0526	59	C12H7F2N2O+
238.0479	69	C12H7F3NO+
246.0367	119	C13H6F2NO2+
247.0442	17	C13H7F2NO2+
266.043	999	C13H7F3NO2+
335.0625	3	C19H9F2N2O2+
377.0712	10	C19H10F5N2O+
