Mass spectrum: Carbetamide; LC-ESI-ITFT; MS2; CE: 90%; R=15000; [M+H]+
Name: Carbetamide
Name: Carbetamex
Name: [(2R)-1-(ethylamino)-1-oxopropan-2-yl] N-phenylcarbamate
Formula: C12H16N2O3
Exact mass: 236.116092372
SMILES: CCNC(=O)[C@@H](C)OC(=O)NC1=CC=CC=C1
InChI: InChI=1S/C12H16N2O3/c1-3-13-11(15)9(2)17-12(16)14-10-7-5-4-6-8-10/h4-9H,3H2,1-2H3,(H,13,15)(H,14,16)/t9-/m1/s1
Instrument: LTQ Orbitrap XL Thermo Scientific
Instrument type: LC-ESI-ITFT
Ms type: MS2
Ion mode: POSITIVE
Ionization: ESI
Fragmentation mode: HCD
Collision energy: 90 % (nominal)
Resolution: 15000
Column name: Kinetex Evo C18 2.6 um 50 x 2.1 mm
Retention time: 8.334 min
Base peak: 237.1243
Precursor m/z: 237.1234
Precursor type: [M+H]+
Precursor intensity: 14896589
m/z	relative intensity	assigned
55.0179	78	C3H3O+
72.0446	143	C3H6NO+
72.081	999	C4H10N+
77.0389	268	C6H5+
92.0499	359	C6H6N+
95.0496	62	C6H7O+
100.0761	94	C5H10NO+
105.0452	187	C6H5N2+
118.0868	47	C5H12NO2+
120.0449	329	C7H6NO+
