Mass spectrum: Azoxystrobin; LC-ESI-ITFT; MS2; CE: 55; R=15000; [M+H]+
Name: Azoxystrobin
Name: Methyl (E)-2-[2-[6-(2-cyanophenoxy)pyrimidin-4-YL]oxyphenyl]-3-methoxy-prop-2-enoate
Formula: C22H17N3O5
Exact mass: 403.1168206
SMILES: CO/C=C(\C1=CC=CC=C1OC2=NC=NC(=C2)OC3=CC=CC=C3C#N)/C(=O)OC
InChI: InChI=1S/C22H17N3O5/c1-27-13-17(22(26)28-2)16-8-4-6-10-19(16)30-21-11-20(24-14-25-21)29-18-9-5-3-7-15(18)12-23/h3-11,13-14H,1-2H3/b17-13+
Instrument: LTQ Orbitrap XL Thermo Scientific
Instrument type: LC-ESI-ITFT
Ms type: MS2
Ion mode: POSITIVE
Ionization: ESI
Fragmentation mode: HCD
Collision energy: 55 (nominal)
Resolution: 15000
Column name: Kinetex Core-Shell C18 2.6 um, 3.0 x 100 mm, Phenomenex
Retention time: 24.061 min
Base peak: 254.1429
Precursor m/z: 404.1241
Precursor type: [M+H]+
m/z	relative intensity	assigned
129.0443	164	C8H5N2+
133.0519	139	C8H7NO+
134.0599	456	C8H8NO+
156.0445	245	C10H6NO+
171.0553	134	C10H7N2O+
172.039	341	C10H6NO2+
183.0551	967	C11H7N2O+
188.1033	330	C7H14N3O3+
199.0499	220	C11H7N2O2+
200.0345	241	C11H6NO3+
245.0944	239	C16H11N3+
272.0819	351	C17H10N3O+
273.0895	669	C17H11N3O+
300.0774	314	C18H10N3O2+
328.0719	999	C19H10N3O3+
344.103	823	C20H14N3O3+
