Mass spectrum: Tamoxifen; LC-ESI-ITFT; MS2; CE: 80%; R=15000; [M+H]+
Name: Tamoxifen
Name: 2-[4-[(Z)-1,2-diphenylbut-1-enyl]phenoxy]-N,N-dimethylethanamine
Formula: C26H29NO
Exact mass: 371.224914548
SMILES: CC\C(=C(/C1=CC=CC=C1)C1=CC=C(OCCN(C)C)C=C1)C1=CC=CC=C1
InChI: InChI=1S/C26H29NO/c1-4-25(21-11-7-5-8-12-21)26(22-13-9-6-10-14-22)23-15-17-24(18-16-23)28-20-19-27(2)3/h5-18H,4,19-20H2,1-3H3/b26-25-
Instrument: LTQ Orbitrap XL Thermo Scientific
Instrument type: LC-ESI-ITFT
Ms type: MS2
Ion mode: POSITIVE
Ionization: ESI
Fragmentation mode: HCD
Collision energy: 80 % (nominal)
Resolution: 15000
Column name: Kinetex Evo C18 2.6 um 50 x 2.1 mm
Retention time: 10.986 min
Base peak: 372.2328
Precursor m/z: 372.2322
Precursor type: [M+H]+
Precursor intensity: 19754200
m/z	relative intensity	assigned
56.0492	7	C3H6N+
57.057	17	C3H7N+
58.0649	11	C3H8N+
70.065	88	C4H8N+
72.0806	999	C4H10N+
91.0542	39	C7H7+
103.0541	1	C8H7+
105.0698	11	C8H9+
107.0491	3	C7H7O+
115.054	4	C9H7+
128.0621	18	C10H8+
129.0698	37	C10H9+
145.0648	2	C10H9O+
152.062	2	C12H8+
165.0697	7	C13H9+
166.078	1	C13H10+
167.0854	2	C13H11+
178.0778	29	C14H10+
179.0854	5	C14H11+
183.0805	2	C13H11O+
190.0782	1	C15H10+
191.0855	16	C15H11+
192.0937	2	C15H12+
193.1009	3	C15H13+
194.0729	4	C14H10O+
202.0776	2	C16H10+
203.0856	2	C16H11+
205.1012	3	C16H13+
207.0804	12	C15H11O+
215.0855	4	C17H11+
228.0937	4	C18H12+
239.0854	4	C19H11+
241.1007	4	C19H13+
242.11	1	C19H14+
252.0937	5	C20H12+
253.1013	15	C20H13+
254.1099	3	C20H14+
265.1016	4	C21H13+
