Mass spectrum: Dydrogesterone; LC-ESI-ITFT; MS2; CE: 20%; R=15000; [M+H]+
Name: Dydrogesterone
Name: (8S,9R,10S,13S,14S,17S)-17-acetyl-10,13-dimethyl-1,2,8,9,11,12,14,15,16,17-decahydrocyclopenta[a]phenanthren-3-one
Formula: C21H28O2
Exact mass: 312.208930136
SMILES: [H][C@@]12CC[C@H](C(C)=O)[C@@]1(C)CC[C@]1([H])[C@@]2([H])C=CC2=CC(=O)CC[C@@]12C
InChI: InChI=1S/C21H28O2/c1-13(22)17-6-7-18-16-5-4-14-12-15(23)8-10-20(14,2)19(16)9-11-21(17,18)3/h4-5,12,16-19H,6-11H2,1-3H3/t16-,17+,18-,19+,20+,21+/m0/s1
Instrument: LTQ Orbitrap XL Thermo Scientific
Instrument type: LC-ESI-ITFT
Ms type: MS2
Ion mode: POSITIVE
Ionization: ESI
Fragmentation mode: HCD
Collision energy: 20 % (nominal)
Resolution: 15000
Column name: Kinetex Evo C18 2.6 um 50 x 2.1 mm
Retention time: 12.022 min
Base peak: 313.2162
Precursor m/z: 313.2162
Precursor type: [M+H]+
Precursor intensity: 14193134
m/z	relative intensity	assigned
85.0646	11	C5H9O+
97.0646	2	C6H9O+
143.0861	2	C11H11+
159.1167	5	C12H15+
171.0802	9	C12H11O+
175.1115	4	C12H15O+
197.1322	3	C15H17+
199.1111	12	C14H15O+
201.1276	2	C14H17O+
211.148	5	C16H19+
213.1271	3	C15H17O+
215.1803	3	C16H23+
217.1587	2	C15H21O+
225.1278	4	C16H17O+
229.1585	11	C16H21O+
231.1735	3	C16H23O+
237.163	6	C18H21+
239.1425	8	C17H19O+
251.1787	3	C19H23+
253.1944	20	C19H25+
255.1742	10	C18H23O+
267.2105	2	C20H27+
269.1895	9	C19H25O+
271.2049	13	C19H27O+
277.1947	13	C21H25+
295.205	160	C21H27O+
313.2154	999	C21H29O2+
