Mass spectrum: Azoxystrobin; LC-ESI-ITFT; MS2; CE: 70%; R=15000; [M+H]+
Name: Azoxystrobin
Name: methyl (E)-2-[2-[6-(2-cyanophenoxy)pyrimidin-4-yl]oxyphenyl]-3-methoxy-prop-2-enoate
Name: methyl 2-[2-[6-(2-cyanophenoxy)pyrimidin-4-yl]oxyphenyl]-3-methoxyprop-2-enoate
Formula: C22H17N3O5
Exact mass: 403.116820644
SMILES: COC=C(C(=O)OC)C1=C(OC2=NC=NC(OC3=C(C=CC=C3)C#N)=C2)C=CC=C1
InChI: InChI=1S/C22H17N3O5/c1-27-13-17(22(26)28-2)16-8-4-6-10-19(16)30-21-11-20(24-14-25-21)29-18-9-5-3-7-15(18)12-23/h3-11,13-14H,1-2H3
Instrument: LTQ Orbitrap XL Thermo Scientific
Instrument type: LC-ESI-ITFT
Ms type: MS2
Ion mode: POSITIVE
Ionization: ESI
Fragmentation mode: HCD
Collision energy: 70 % (nominal)
Resolution: 15000
Column name: Kinetex Evo C18 2.6 um 50 x 2.1 mm
Retention time: 11.262 min
Base peak: 292.1221
Precursor m/z: 404.1241
Precursor type: [M+H]+
Precursor intensity: 17580142
m/z	relative intensity	assigned
68.9972	22	C3HO2+
89.0386	40	C7H5+
104.0493	42	C7H6N+
114.034	30	C8H4N+
116.0495	51	C8H6N+
118.0409	22	C8H6O+
120.0444	80	C7H6NO+
129.0337	31	C9H5O+
129.0447	201	C8H5N2+
130.0398	154	C7H4N3+
132.0441	25	C8H6NO+
133.0521	201	C8H7NO+
134.0601	265	C8H8NO+
141.045	85	C9H5N2+
143.0604	152	C9H7N2+
144.0442	37	C9H6NO+
145.0286	47	C9H5O2+
145.0523	167	C9H7NO+
155.0603	68	C10H7N2+
156.0444	677	C10H6NO+
157.0281	48	C10H5O2+
169.0397	117	C10H5N2O+
170.0475	69	C10H6N2O+
171.0553	142	C10H7N2O+
172.0393	999	C10H6NO2+
182.0473	74	C11H6N2O+
183.0553	893	C11H7N2O+
184.0394	26	C11H6NO2+
197.0346	27	C11H5N2O2+
199.0503	322	C11H7N2O2+
200.0343	569	C11H6NO3+
201.0421	170	C11H7NO3+
210.0425	251	C12H6N2O2+
211.0501	87	C12H7N2O2+
245.072	26	C16H9N2O+
246.0785	35	C16H10N2O+
272.0819	205	C17H10N3O+
273.066	152	C17H9N2O2+
274.0747	65	C17H10N2O2+
300.0768	222	C18H10N3O2+
301.0849	228	C18H11N3O2+
328.0715	492	C19H10N3O3+
329.0793	324	C19H11N3O3+
