Mass spectrum: Norethisterone / norethindrone; LC-ESI-ITFT; MS2; CE: 80; R=15000; [M+H]+
Name: Norethisterone / norethindrone
Name: Norethindrone
Name: (8R,9S,10R,13S,14S,17R)-17-Ethynyl-17-hydroxy-13-methyl-1,2,6,7,8,9,10,11,12,14,15,16-dodecahydrocyclopenta[a]phenanthren-3-one
Formula: C20H26O2
Exact mass: 298.1933
SMILES: C[C@]12CC[C@H]3[C@@H](CCC4=CC(=O)CC[C@H]34)[C@@H]1CC[C@@]2(O)C#C
InChI: InChI=1S/C20H26O2/c1-3-20(22)11-9-18-17-6-4-13-12-14(21)5-7-15(13)16(17)8-10-19(18,20)2/h1,12,15-18,22H,4-11H2,2H3/t15-,16+,17+,18-,19-,20-/m0/s1
Instrument: LTQ Orbitrap XL Thermo Scientific
Instrument type: LC-ESI-ITFT
Ms type: MS2
Ion mode: POSITIVE
Ionization: ESI
Fragmentation mode: HCD
Collision energy: 80 (nominal)
Resolution: 15000
Column name: Kinetex Core-Shell C18 2.6 um, 3.0 x 100 mm, Phenomenex
Retention time: 24.366 min
Base peak: 287.1996
Precursor m/z: 299.2006
Precursor type: [M+H]+
m/z	relative intensity	assigned
79.054	365	C6H7+
81.0697	291	C6H9+
83.0489	392	C5H7O+
91.054	586	C7H7+
93.0697	244	C7H9+
95.0489	28	C6H7O+
95.0853	91	C7H11+
97.0646	21	C6H9O+
105.0696	426	C8H9+
107.0489	144	C7H7O+
107.0853	91	C8H11+
109.0645	999	C7H9O+
109.1009	72	C8H13+
111.0799	8	C7H11O+
115.054	144	C9H7+
117.0696	255	C9H9+
119.0853	250	C9H11+
121.0644	31	C8H9O+
121.1009	79	C9H13+
123.0802	51	C8H11O+
123.1164	10	C9H15+
128.0618	139	C10H8+
129.0696	201	C10H9+
130.0775	65	C10H10+
131.0853	216	C10H11+
133.0648	29	C9H9O+
133.101	60	C10H13+
135.0803	140	C9H11O+
135.1165	18	C10H15+
137.0955	6	C9H13O+
141.0696	102	C11H9+
143.0853	171	C11H11+
144.093	19	C11H12+
145.1009	128	C11H13+
147.0801	35	C10H11O+
147.1162	13	C11H15+
149.096	35	C10H13O+
153.0696	29	C12H9+
154.0776	36	C12H10+
155.0853	96	C12H11+
156.093	62	C12H12+
157.1009	93	C12H13+
159.08	16	C11H11O+
159.1166	32	C12H15+
161.0959	60	C11H13O+
161.1323	21	C12H17+
163.1115	12	C11H15O+
165.0697	34	C13H9+
166.0774	20	C13H10+
167.0853	43	C13H11+
169.1008	65	C13H13+
171.1166	57	C13H15+
173.0959	4	C12H13O+
173.1323	17	C13H17+
175.1115	20	C12H15O+
179.0852	26	C14H11+
181.101	26	C14H13+
182.1086	13	C14H14+
183.1165	22	C14H15+
185.1321	16	C14H17+
187.1115	6	C13H15O+
187.1478	6	C14H19+
192.0933	16	C15H12+
193.101	20	C15H13+
194.1092	7	C15H14+
195.116	16	C15H15+
197.1318	9	C15H17+
201.1271	10	C14H17O+
205.1009	12	C16H13+
207.1164	13	C16H15+
209.1317	7	C16H17+
213.1639	8	C16H21+
219.1175	7	C17H15+
231.1739	7	C16H23O+
