Mass spectrum: Verapamil; LC-ESI-ITFT; MS2; CE: 90%; R=15000; [M+H]+
Name: Verapamil
Name: 2-(3,4-dimethoxyphenyl)-5-[2-(3,4-dimethoxyphenyl)ethyl-methylamino]-2-propan-2-ylpentanenitrile
Formula: C27H38N2O4
Exact mass: 454.283157696
SMILES: COC1=CC=C(CCN(C)CCCC(C#N)(C(C)C)C2=CC(OC)=C(OC)C=C2)C=C1OC
InChI: InChI=1S/C27H38N2O4/c1-20(2)27(19-28,22-10-12-24(31-5)26(18-22)33-7)14-8-15-29(3)16-13-21-9-11-23(30-4)25(17-21)32-6/h9-12,17-18,20H,8,13-16H2,1-7H3
Instrument: LTQ Orbitrap XL Thermo Scientific
Instrument type: LC-ESI-ITFT
Ms type: MS2
Ion mode: POSITIVE
Ionization: ESI
Fragmentation mode: HCD
Collision energy: 90 % (nominal)
Resolution: 15000
Column name: Kinetex Evo C18 2.6 um 50 x 2.1 mm
Retention time: 8.741 min
Base peak: 278.1915
Precursor m/z: 455.2904
Precursor type: [M+H]+
Precursor intensity: 9106437
m/z	relative intensity	assigned
58.0651	146	C3H8N+
77.0387	77	C6H5+
78.0465	33	C6H6+
79.0544	487	C6H7+
81.07	13	C6H9+
84.0811	77	C5H10N+
86.0967	19	C5H12N+
90.0467	41	C7H6+
91.0545	240	C7H7+
92.0623	45	C7H8+
93.0702	65	C7H9+
94.0416	16	C6H6O+
95.0495	33	C6H7O+
102.0468	21	C8H6+
103.0546	445	C8H7+
104.0624	151	C8H8+
105.0451	112	C6H5N2+
105.0702	610	C8H9+
107.0495	416	C7H7O+
108.0574	23	C7H8O+
109.0652	35	C7H9O+
115.0543	14	C9H7+
117.0704	13	C9H9+
118.0417	204	C8H6O+
119.0495	260	C8H7O+
120.0574	223	C8H8O+
121.0651	517	C8H9O+
122.073	129	C8H10O+
122.0968	10	C8H12N+
123.0444	23	C7H7O2+
123.0806	11	C8H11O+
124.0522	32	C7H8O2+
131.0495	105	C9H7O+
132.0574	26	C9H8O+
133.0653	252	C9H9O+
134.0731	677	C9H10O+
135.0445	698	C8H7O2+
135.0808	74	C9H11O+
136.0522	41	C8H8O2+
137.0601	70	C8H9O2+
138.068	55	C8H10O2+
139.0756	15	C8H11O2+
146.0603	13	C9H8NO+
146.0731	45	C10H10O+
149.0602	132	C9H9O2+
150.068	999	C9H10O2+
151.0757	163	C9H11O2+
152.0835	22	C9H12O2+
158.2718	16	C8H34N2+
159.0812	10	C11H11O+
160.0759	10	C10H10NO+
160.0886	15	C11H12O+
162.0683	10	C10H10O2+
164.0839	10	C10H12O2+
165.0915	301	C10H13O2+
172.076	25	C11H10NO+
174.0922	17	C11H12NO+
176.0711	33	C10H10NO2+
177.0917	30	C11H13O2+
187.0995	14	C12H13NO+
188.0713	19	C11H10NO2+
191.1074	14	C12H15O2+
