Mass spectrum: Methocarbamol; LC-ESI-ITFT; MS2; CE: 70%; R=15000; [M+H]+
Name: Methocarbamol
Name: [2-hydroxy-3-(2-methoxyphenoxy)propyl] carbamate
Formula: C11H15NO5
Exact mass: 241.0950
SMILES: COC1=C(OCC(O)COC(N)=O)C=CC=C1
InChI: InChI=1S/C11H15NO5/c1-15-9-4-2-3-5-10(9)16-6-8(13)7-17-11(12)14/h2-5,8,13H,6-7H2,1H3,(H2,12,14)
Instrument: LTQ Orbitrap XL Thermo Scientific
Instrument type: LC-ESI-ITFT
Ms type: MS2
Ion mode: POSITIVE
Ionization: ESI
Fragmentation mode: HCD
Collision energy: 70 % (nominal)
Resolution: 15000
Column name: Kinetex Evo C18 2.6 um 50 x 2.1 mm
Retention time: 7.070 min
Base peak: 264.0841
Precursor m/z: 242.1023
Precursor type: [M+H]+
m/z	relative intensity	assigned
57.0333	168	C3H5O+
62.0236	274	CH4NO2+
65.0385	256	C5H5+
75.0441	120	C3H7O2+
77.0386	414	C6H5+
79.0543	310	C6H7+
91.0543	221	C7H7+
93.0336	317	C6H5O+
93.0699	125	C7H9+
95.0492	555	C6H7O+
103.0543	506	C8H7+
105.0699	757	C8H9+
107.0492	118	C7H7O+
109.0645	45	C7H9O+
110.0363	316	C6H6O2+
111.044	63	C6H7O2+
118.0499	708	C4H8NO3+
120.057	117	C8H8O+
121.0284	130	C7H5O2+
121.065	168	C8H9O+
122.0363	999	C7H6O2+
123.044	90	C7H7O2+
125.0597	222	C7H9O2+
132.0565	45	C9H8O+
135.0805	365	C9H11O+
137.0598	77	C8H9O2+
148.0519	103	C9H8O2+
151.0749	27	C9H11O2+
163.0751	100	C10H11O2+
