Mass spectrum: Triphenylphosphate; LC-ESI-ITFT; MS2; CE: 70%; R=15000; [M+H]+
Name: Triphenylphosphate
Name: triphenyl phosphate
Formula: C18H15O4P
Exact mass: 326.07079559
SMILES: O=P(OC1=CC=CC=C1)(OC1=CC=CC=C1)OC1=CC=CC=C1
InChI: InChI=1S/C18H15O4P/c19-23(20-16-10-4-1-5-11-16,21-17-12-6-2-7-13-17)22-18-14-8-3-9-15-18/h1-15H
Instrument: LTQ Orbitrap XL Thermo Scientific
Instrument type: LC-ESI-ITFT
Ms type: MS2
Ion mode: POSITIVE
Ionization: ESI
Fragmentation mode: HCD
Collision energy: 70 % (nominal)
Resolution: 15000
Column name: Kinetex Evo C18 2.6 um 50 x 2.1 mm
Retention time: 12.632 min
Base peak: 327.0793
Precursor m/z: 327.0781
Precursor type: [M+H]+
Precursor intensity: 32609668
m/z	relative intensity	assigned
65.0384	13	C5H5+
77.0385	727	C6H5+
93.0334	18	C6H5O+
94.0413	16	C6H6O+
95.0491	214	C6H7O+
98.9843	6	H4O4P+
138.9942	21	C6H4O2P+
141.0702	15	C11H9+
151.0543	64	C12H7+
152.062	999	C12H8+
153.0698	431	C12H9+
157.0047	10	C6H6O3P+
168.0569	282	C12H8O+
169.0648	39	C12H9O+
170.0724	10	C12H10O+
171.0804	9	C12H11O+
175.0155	51	C6H8O4P+
187.0307	45	C11H8OP+
202.0775	15	C16H10+
215.0256	227	C12H8O2P+
226.0781	6	C18H10+
227.0854	40	C18H11+
228.0933	145	C18H12+
233.0361	211	C12H10O3P+
251.0467	182	C12H12O4P+
