Mass spectrum: Promethazin; LC-ESI-ITFT; MS2; CE: 80%; R=15000; [M+H]+
Name: Promethazin
Name: Promethazine
Name: N,N-dimethyl-1-phenothiazin-10-ylpropan-2-amine
Formula: C17H20N2S
Exact mass: 284.13471964
SMILES: CC(CN1C2=CC=CC=C2SC2=CC=CC=C12)N(C)C
InChI: InChI=1S/C17H20N2S/c1-13(18(2)3)12-19-14-8-4-6-10-16(14)20-17-11-7-5-9-15(17)19/h4-11,13H,12H2,1-3H3
Instrument: LTQ Orbitrap XL Thermo Scientific
Instrument type: LC-ESI-ITFT
Ms type: MS2
Ion mode: POSITIVE
Ionization: ESI
Fragmentation mode: HCD
Collision energy: 80 % (nominal)
Resolution: 15000
Column name: Kinetex Evo C18 2.6 um 50 x 2.1 mm
Retention time: 8.146 min
Base peak: 285.142
Precursor m/z: 285.142
Precursor type: [M+H]+
Precursor intensity: 19886328
m/z	relative intensity	assigned
70.0649	3	C4H8N+
71.0726	212	C4H9N+
84.0805	26	C5H10N+
86.0961	999	C5H12N+
91.0539	1	C7H7+
105.0695	27	C8H9+
109.0103	6	C6H5S+
124.0212	1	C6H6NS+
130.0647	5	C9H8N+
131.0727	2	C9H9N+
136.0211	5	C7H6NS+
148.021	2	C8H6NS+
154.0646	33	C11H8N+
162.0367	24	C9H8NS+
166.0647	4	C12H8N+
167.0734	1	C12H9N+
171.0258	8	C11H7S+
180.0802	1	C13H10N+
193.088	6	C14H11N+
197.0288	7	C12H7NS+
198.0366	540	C12H8NS+
206.0958	24	C15H12N+
207.1039	9	C15H13N+
208.1114	3	C15H14N+
212.0523	2	C13H10NS+
224.0522	25	C14H10NS+
225.06	32	C14H11NS+
240.0841	5	C15H14NS+
