Mass spectrum: Exemestane; LC-ESI-ITFT; MS2; CE: 70%; R=15000; [M+H]+
Name: Exemestane
Name: (8R,9S,10R,13S,14S)-10,13-dimethyl-6-methylidene-7,8,9,11,12,14,15,16-octahydrocyclopenta[a]phenanthrene-3,17-dione
Formula: C20H24O2
Exact mass: 296.177630008
SMILES: [H][C@@]12CCC(=O)[C@@]1(C)CC[C@@]1([H])[C@@]2([H])CC(=C)C2=CC(=O)C=C[C@]12C
InChI: InChI=1S/C20H24O2/c1-12-10-14-15-4-5-18(22)20(15,3)9-7-16(14)19(2)8-6-13(21)11-17(12)19/h6,8,11,14-16H,1,4-5,7,9-10H2,2-3H3/t14-,15-,16-,19+,20-/m0/s1
Instrument: LTQ Orbitrap XL Thermo Scientific
Instrument type: LC-ESI-ITFT
Ms type: MS2
Ion mode: POSITIVE
Ionization: ESI
Fragmentation mode: HCD
Collision energy: 70 % (nominal)
Resolution: 15000
Column name: Kinetex Evo C18 2.6 um 50 x 2.1 mm
Retention time: 11.126 min
Base peak: 297.1854
Precursor m/z: 297.1849
Precursor type: [M+H]+
Precursor intensity: 21084264
m/z	relative intensity	assigned
77.0385	35	C6H5+
79.054	468	C6H7+
81.0697	97	C6H9+
91.054	304	C7H7+
93.0697	999	C7H9+
95.0853	70	C7H11+
97.0645	133	C6H9O+
105.0696	529	C8H9+
107.0853	541	C8H11+
109.0646	39	C7H9O+
115.0541	22	C9H7+
117.0697	99	C9H9+
119.0853	240	C9H11+
121.0645	839	C8H9O+
121.1009	479	C9H13+
129.0696	87	C10H9+
130.0781	31	C10H10+
131.0851	149	C10H11+
132.0566	39	C9H8O+
133.1009	59	C10H13+
135.0802	251	C9H11O+
143.0849	48	C11H11+
145.0643	67	C10H9O+
145.1009	109	C11H13+
146.0722	35	C10H10O+
147.0801	266	C10H11O+
147.1163	47	C11H15+
149.0958	174	C10H13O+
159.0801	118	C11H11O+
161.0959	107	C11H13O+
171.0798	58	C12H11O+
172.0878	23	C12H12O+
173.096	84	C12H13O+
185.0956	116	C13H13O+
197.0955	38	C14H13O+
199.1115	26	C14H15O+
209.0957	39	C15H13O+
