Mass spectrum: Boscalid; LC-ESI-ITFT; MS2; CE: 50%; R=15000; [M+H]+
Name: Boscalid
Name: 2-chloro-N-[2-(4-chlorophenyl)phenyl]pyridine-3-carboxamide
Formula: C18H12Cl2N2O
Exact mass: 342.032668364
SMILES: ClC1=CC=C(C=C1)C1=CC=CC=C1NC(=O)C1=CC=CN=C1Cl
InChI: InChI=1S/C18H12Cl2N2O/c19-13-9-7-12(8-10-13)14-4-1-2-6-16(14)22-18(23)15-5-3-11-21-17(15)20/h1-11H,(H,22,23)
Instrument: LTQ Orbitrap XL Thermo Scientific
Instrument type: LC-ESI-ITFT
Ms type: MS2
Ion mode: POSITIVE
Ionization: ESI
Fragmentation mode: HCD
Collision energy: 50 % (nominal)
Resolution: 15000
Column name: Kinetex Evo C18 2.6 um 50 x 2.1 mm
Retention time: 11.206 min
Base peak: 404.1245
Precursor m/z: 343.0399
Precursor type: [M+H]+
Precursor intensity: 8692095
m/z	relative intensity	assigned
78.0337	26	C5H4N+
94.0288	6	C5H4NO+
96.0443	39	C5H6NO+
111.9947	11	C5H3ClN+
112.0394	6	C2H9ClN2O+
114.0104	62	C5H5ClN+
130.0048	3	C5H5ClNO+
139.9896	275	C6H3ClNO+
230.0359	3	C13H9ClNO+
243.0913	13	C17H11N2+
244.1003	4	C17H12N2+
253.0761	3	C18H9N2+
254.084	12	C18H10N2+
264.0567	5	C17H11ClN+
271.0864	361	C18H11N2O+
272.0941	353	C18H12N2O+
279.0689	3	C17H12ClN2+
289.0525	72	C18H10ClN2+
305.0465	4	C18H10ClN2O+
307.063	999	C18H12ClN2O+
343.0401	8	C18H13Cl2N2O+
