Mass spectrum: Benzidine; LC-ESI-ITFT; MS2; CE: 80%; R=15000; [M+H]+
Name: Benzidine
Name: 4-(4-aminophenyl)aniline
Formula: C12H12N2
Exact mass: 184.100048384
SMILES: NC1=CC=C(C=C1)C1=CC=C(N)C=C1
InChI: InChI=1S/C12H12N2/c13-11-5-1-9(2-6-11)10-3-7-12(14)8-4-10/h1-8H,13-14H2
Instrument: LTQ Orbitrap XL Thermo Scientific
Instrument type: LC-ESI-ITFT
Ms type: MS2
Ion mode: POSITIVE
Ionization: ESI
Fragmentation mode: HCD
Collision energy: 80 % (nominal)
Resolution: 15000
Column name: Kinetex Evo C18 2.6 um 50 x 2.1 mm
Retention time: 0.598 min
Base peak: 94.0651
Precursor m/z: 185.1073
Precursor type: [M+H]+
Precursor intensity: 4330923.5
m/z	relative intensity	assigned
65.0385	15	C5H5+
92.0496	53	C6H6N+
93.0574	122	C6H7N+
115.0544	18	C9H7+
117.0574	8	C8H7N+
118.0653	15	C8H8N+
128.0623	8	C10H8+
130.0651	11	C9H8N+
132.0814	7	C9H10N+
140.0498	5	C10H6N+
141.07	270	C11H9+
142.0647	5	C10H8N+
143.073	37	C10H9N+
144.0807	26	C10H10N+
151.0543	110	C12H7+
152.0623	47	C12H8+
153.0575	49	C11H7N+
155.0603	7	C10H7N2+
156.0805	8	C11H10N+
158.0958	25	C11H12N+
166.0653	13	C12H8N+
167.0732	999	C12H9N+
168.081	805	C12H10N+
169.0759	14	C11H9N2+
169.0887	162	C12H11N+
170.0834	11	C11H10N2+
179.0605	58	C12H7N2+
183.0909	7	C12H11N2+
184.0998	294	C12H12N2+
