Mass spectrum: 7-Amino-4-methylcoumarin; LC-ESI-ITFT; MS2; CE: 90%; R=15000; [M+H]+
Name: 7-Amino-4-methylcoumarin
Name: 7-amino-4-methylchromen-2-one
Formula: C10H9NO2
Exact mass: 175.063328528
SMILES: CC1=CC(=O)OC2=CC(N)=CC=C12
InChI: InChI=1S/C10H9NO2/c1-6-4-10(12)13-9-5-7(11)2-3-8(6)9/h2-5H,11H2,1H3
Instrument: LTQ Orbitrap XL Thermo Scientific
Instrument type: LC-ESI-ITFT
Ms type: MS2
Ion mode: POSITIVE
Ionization: ESI
Fragmentation mode: HCD
Collision energy: 90 % (nominal)
Resolution: 15000
Column name: Kinetex Evo C18 2.6 um 50 x 2.1 mm
Retention time: 6.791 min
Base peak: 176.0712
Precursor m/z: 176.0706
Precursor type: [M+H]+
Precursor intensity: 18525778
m/z	relative intensity	assigned
67.0541	3	C5H7+
68.0129	17	C3H2NO+
77.0385	38	C6H5+
79.0541	46	C6H7+
80.0494	11	C5H6N+
91.0542	58	C7H7+
92.0495	14	C6H6N+
93.0572	57	C6H7N+
93.0698	72	C7H9+
94.0651	46	C6H8N+
95.0491	8	C6H7O+
103.0542	441	C8H7+
104.0494	17	C7H6N+
105.0572	51	C7H7N+
105.0698	60	C8H9+
106.0651	26	C7H8N+
109.0649	3	C7H9O+
110.0597	4	C6H8NO+
115.0542	164	C9H7+
116.0619	3	C9H8+
117.0573	205	C8H7N+
118.0651	52	C8H8N+
119.0729	36	C8H9N+
120.0807	999	C8H10N+
121.0646	7	C8H9O+
130.065	98	C9H8N+
131.049	33	C9H7O+
131.0729	64	C9H9N+
132.0807	38	C9H10N+
133.0521	149	C8H7NO+
134.0599	10	C8H8NO+
136.039	7	C7H6NO2+
146.06	9	C9H8NO+
147.0679	11	C9H9NO+
148.0756	43	C9H10NO+
176.0705	152	C10H10NO2+
