Mass spectrum: Propoxycarbazone; LC-ESI-ITFT; MS2; CE: 20%; R=15000; [M+H]+
Name: Propoxycarbazone
Name: methyl 2-[(4-methyl-5-oxo-3-propoxy-1,2,4-triazole-1-carbonyl)sulfamoyl]benzoate
Formula: C15H18N4O7S
Exact mass: 398.089619916
SMILES: CCCOC1=NN(C(=O)NS(=O)(=O)C2=CC=CC=C2C(=O)OC)C(=O)N1C
InChI: InChI=1S/C15H18N4O7S/c1-4-9-26-14-16-19(15(22)18(14)2)13(21)17-27(23,24)11-8-6-5-7-10(11)12(20)25-3/h5-8H,4,9H2,1-3H3,(H,17,21)
Instrument: LTQ Orbitrap XL Thermo Scientific
Instrument type: LC-ESI-ITFT
Ms type: MS2
Ion mode: POSITIVE
Ionization: ESI
Fragmentation mode: HCD
Collision energy: 20 % (nominal)
Resolution: 15000
Column name: Kinetex Evo C18 2.6 um 50 x 2.1 mm
Retention time: 10.385 min
Base peak: 256.1101
Precursor m/z: 399.0969
Precursor type: [M+H]+
Precursor intensity: 4295642.5
m/z	relative intensity	assigned
116.0456	460	C3H6N3O2+
135.0437	16	C8H7O2+
156.0768	30	C6H10N3O2+
158.0927	962	C6H12N3O2+
184.0721	31	CH16N2O6S+
199.0062	999	C8H7O4S+
209.9859	233	C8H4NO4S+
325.0241	41	C11H9N4O6S+
367.0695	72	C14H15N4O6S+
