Mass spectrum: Imidacloprid-urea; LC-ESI-ITFT; MS2; CE: 60%; R=15000; [M+H]+
Name: Imidacloprid-urea
Name: 1-[(6-chloropyridin-3-yl)methyl]imidazolidin-2-one
Formula: C9H10ClN3O
Exact mass: 211.05123962
SMILES: ClC1=NC=C(CN2CCNC2=O)C=C1
InChI: InChI=1S/C9H10ClN3O/c10-8-2-1-7(5-12-8)6-13-4-3-11-9(13)14/h1-2,5H,3-4,6H2,(H,11,14)
Instrument: LTQ Orbitrap XL Thermo Scientific
Instrument type: LC-ESI-ITFT
Ms type: MS2
Ion mode: POSITIVE
Ionization: ESI
Fragmentation mode: HCD
Collision energy: 60 % (nominal)
Resolution: 15000
Column name: Kinetex Evo C18 2.6 um 50 x 2.1 mm
Retention time: 5.334 min
Base peak: 212.0593
Precursor m/z: 212.0585
Precursor type: [M+H]+
Precursor intensity: 9376431
m/z	relative intensity	assigned
56.0492	9	C3H6N+
65.0384	3	C5H5+
70.0287	3	C3H4NO+
71.0603	7	C3H7N2+
85.0396	11	C3H5N2O+
92.0495	13	C6H6N+
93.0574	11	C6H7N+
99.0553	287	C4H7N2O+
107.0603	7	C6H7N2+
114.0105	38	C5H5ClN+
126.0106	352	C6H5ClN+
127.0184	13	C6H6ClN+
128.0261	999	C6H7ClN+
133.076	19	C8H9N2+
142.0055	5	C6H5ClNO+
167.0372	1	C8H8ClN2+
168.0215	1	C8H7ClNO+
169.0167	5	C7H6ClN2O+
169.0528	15	C8H10ClN2+
170.0372	1	C8H9ClNO+
176.0819	47	C9H10N3O+
194.048	14	C9H9ClN3+
195.0321	27	C9H8ClN2O+
212.0586	220	C9H11ClN3O+
