Mass spectrum: 4-Aminoantipyrin; LC-ESI-ITFT; MS2; CE: 80; R=15000; [M+H]+
Name: 4-Aminoantipyrin
Name: 4-Aminoantipyrine
Name: 4-Amino-1,5-dimethyl-2-phenylpyrazol-3-one
Formula: C11H13N3O
Exact mass: 203.1059
SMILES: CN1N(C(=O)C(N)=C1C)C1=CC=CC=C1
InChI: InChI=1S/C11H13N3O/c1-8-10(12)11(15)14(13(8)2)9-6-4-3-5-7-9/h3-7H,12H2,1-2H3
Instrument: LTQ Orbitrap XL Thermo Scientific
Instrument type: LC-ESI-ITFT
Ms type: MS2
Ion mode: POSITIVE
Ionization: ESI
Fragmentation mode: HCD
Collision energy: 80 (nominal)
Resolution: 15000
Column name: Kinetex Core-Shell C18 2.6 um, 3.0 x 100 mm, Phenomenex
Retention time: 7.553 min
Base peak: 163.1328
Precursor m/z: 204.1131
Precursor type: [M+H]+
m/z	relative intensity	assigned
83.0605	400	C4H7N2+
85.0761	52	C4H9N2+
94.0651	999	C6H8N+
104.0494	223	C7H6N+
118.0652	100	C8H8N+
128.0493	147	C9H6N+
130.0649	108	C9H8N+
146.0602	171	C9H8NO+
159.0918	124	C10H11N2+
