Mass spectrum: Norfloxacin; LC-ESI-ITFT; MS2; CE: 30%; R=15000; [M+H]+
Name: Norfloxacin
Name: 1-ethyl-6-fluoro-4-oxo-7-piperazin-1-ylquinoline-3-carboxylic acid
Formula: C16H18FN3O3
Exact mass: 319.133219656
SMILES: CCN1C=C(C(O)=O)C(=O)C2=CC(F)=C(C=C12)N1CCNCC1
InChI: InChI=1S/C16H18FN3O3/c1-2-19-9-11(16(22)23)15(21)10-7-12(17)14(8-13(10)19)20-5-3-18-4-6-20/h7-9,18H,2-6H2,1H3,(H,22,23)
Instrument: LTQ Orbitrap XL Thermo Scientific
Instrument type: LC-ESI-ITFT
Ms type: MS2
Ion mode: POSITIVE
Ionization: ESI
Fragmentation mode: HCD
Collision energy: 30 % (nominal)
Resolution: 15000
Column name: Kinetex Evo C18 2.6 um 50 x 2.1 mm
Retention time: 4.060 min
Base peak: 320.1418
Precursor m/z: 320.1405
Precursor type: [M+H]+
Precursor intensity: 3502852
m/z	relative intensity	assigned
207.0926	3	C11H12FN2O+
219.0933	14	C12H12FN2O+
233.1089	146	C13H14FN2O+
256.1449	53	C15H18N3O+
274.1353	11	C15H17FN3O+
276.1512	999	C15H19FN3O+
302.1304	122	C16H17FN3O2+
320.1409	734	C16H19FN3O3+
