Mass spectrum: Metazachlor BH 479-9; LC-ESI-ITFT; MS2; CE: 50%; R=15000; [M+H]+
Name: Metazachlor BH 479-9
Name: 2-[2-[2,6-dimethyl-N-(pyrazol-1-ylmethyl)anilino]-2-oxoethyl]sulfinylacetic acid
Formula: C16H19N3O4S
Exact mass: 349.109627088
SMILES: CC1=CC=CC(C)=C1N(CN1C=CC=N1)C(=O)CS(=O)CC(O)=O
InChI: InChI=1S/C16H19N3O4S/c1-12-5-3-6-13(2)16(12)19(11-18-8-4-7-17-18)14(20)9-24(23)10-15(21)22/h3-8H,9-11H2,1-2H3,(H,21,22)
Instrument: LTQ Orbitrap XL Thermo Scientific
Instrument type: LC-ESI-ITFT
Ms type: MS2
Ion mode: POSITIVE
Ionization: ESI
Fragmentation mode: HCD
Collision energy: 50 % (nominal)
Resolution: 15000
Column name: Kinetex Evo C18 2.6 um 50 x 2.1 mm
Retention time: 8.253 min
Base peak: 116.9863
Precursor m/z: 350.1169
Precursor type: [M+H]+
Precursor intensity: 1236185.75
m/z	relative intensity	assigned
69.0447	1	C3H5N2+
88.9693	22	C2HO2S+
105.07	3	C8H9+
106.9798	3	C2H3O3S+
130.9799	14	C4H3O3S+
132.081	2	C9H10N+
133.0888	10	C3H17O3S+
134.0966	999	C9H12N+
146.0965	1	C10H12N+
148.9904	37	C4H5O4S+
160.0757	2	C10H10NO+
168.9973	1	C10H3NS+
175.0994	14	C11H13NO+
