Mass spectrum: 4-Aminoantipyrin; LC-ESI-ITFT; MS2; CE: 55; R=15000; [M+H]+
Name: 4-Aminoantipyrin
Name: 4-Aminoantipyrine
Name: 4-Amino-1,5-dimethyl-2-phenylpyrazol-3-one
Formula: C11H13N3O
Exact mass: 203.1059
SMILES: CN1N(C(=O)C(N)=C1C)C1=CC=CC=C1
InChI: InChI=1S/C11H13N3O/c1-8-10(12)11(15)14(13(8)2)9-6-4-3-5-7-9/h3-7H,12H2,1-2H3
Instrument: LTQ Orbitrap XL Thermo Scientific
Instrument type: LC-ESI-ITFT
Ms type: MS2
Ion mode: POSITIVE
Ionization: ESI
Fragmentation mode: CID
Collision energy: 55 (nominal)
Resolution: 15000
Column name: Kinetex Core-Shell C18 2.6 um, 3.0 x 100 mm, Phenomenex
Retention time: 7.553 min
Base peak: 163.1328
Precursor m/z: 204.1131
Precursor type: [M+H]+
m/z	relative intensity	assigned
56.0493	52	C3H6N+
83.0604	44	C4H7N2+
85.0761	34	C4H9N2+
94.0652	49	C6H8N+
111.0553	67	C5H7N2O+
118.0651	11	C8H8N+
131.0598	6	C8H7N2+
145.0761	32	C9H9N2+
146.0602	47	C9H8NO+
158.0604	23	C10H8NO+
159.0917	769	C10H11N2+
173.071	328	C10H9N2O+
176.1182	28	C10H14N3+
187.0866	999	C11H11N2O+
189.0898	99	C10H11N3O+
