Mass spectrum: Pethoxamid; LC-ESI-ITFT; MS2; CE: 80; R=15000; [M+H]+
Name: Pethoxamid
Name: 2-Chloro-N-(2-ethoxyethyl)-N-(2-methyl-1-phenylprop-1-enyl)acetamide
Formula: C16H22ClNO2
Exact mass: 295.1339
SMILES: CCOCCN(C(=O)CCl)C(=C(C)C)C1=CC=CC=C1
InChI: InChI=1S/C16H22ClNO2/c1-4-20-11-10-18(15(19)12-17)16(13(2)3)14-8-6-5-7-9-14/h5-9H,4,10-12H2,1-3H3
Instrument: LTQ Orbitrap XL Thermo Scientific
Instrument type: LC-ESI-ITFT
Ms type: MS2
Ion mode: POSITIVE
Ionization: ESI
Fragmentation mode: HCD
Collision energy: 80 (nominal)
Resolution: 15000
Column name: Kinetex Core-Shell C18 2.6 um, 3.0 x 100 mm, Phenomenex
Retention time: 25.309 min
Base peak: 296.1409
Precursor m/z: 296.1412
Precursor type: [M+H]+
m/z	relative intensity	assigned
73.0647	8	C4H9O+
91.0541	999	C7H7+
103.0542	32	C8H7+
104.0494	38	C7H6N+
105.0698	94	C8H9+
115.0541	44	C9H7+
116.0619	197	C9H8+
129.0698	171	C10H9+
131.0854	674	C10H11+
132.0806	12	C9H10N+
146.0961	18	C10H12N+
148.112	13	C10H14N+
158.0965	14	C11H12N+
159.1041	7	C11H13N+
160.1121	122	C11H14N+
172.1123	6	C12H14N+
174.1277	13	C12H16N+
