Mass spectrum: Pirimiphos-methyl; LC-ESI-ITFT; MS2; CE: 55; R=15000; [M+H]+
Name: Pirimiphos-methyl
Name: 4-Dimethoxyphosphinothioyloxy-N,N-diethyl-6-methylpyrimidin-2-amine
Formula: C11H20N3O3PS
Exact mass: 305.0963
SMILES: CCN(CC)C1=NC(C)=CC(OP(=S)(OC)OC)=N1
InChI: InChI=1S/C11H20N3O3PS/c1-6-14(7-2)11-12-9(3)8-10(13-11)17-18(19,15-4)16-5/h8H,6-7H2,1-5H3
Instrument: LTQ Orbitrap XL Thermo Scientific
Instrument type: LC-ESI-ITFT
Ms type: MS2
Ion mode: POSITIVE
Ionization: ESI
Fragmentation mode: HCD
Collision energy: 55 (nominal)
Resolution: 15000
Column name: Kinetex Core-Shell C18 2.6 um, 3.0 x 100 mm, Phenomenex
Retention time: 26.211 min
Base peak: 305.1079
Precursor m/z: 306.1036
Precursor type: [M+H]+
m/z	relative intensity	assigned
78.9943	17	CH4O2P+
84.0445	17	C4H6NO+
95.0603	362	C5H7N2+
96.9507	71	H2O2PS+
100.0216	36	C4H6NS+
108.0555	999	C5H6N3+
109.0049	22	C2H6O3P+
109.0759	103	C6H9N2+
114.9613	46	H4O3PS+
123.0917	58	C7H11N2+
124.982	189	C2H6O2PS+
127.0155	36	C2H8O4P+
136.0868	248	C7H10N3+
142.9926	96	C2H8O3PS+
151.0267	39	C3H8N2O3P+
153.1023	60	C8H13N2O+
154.0995	6	C5H17NO2P+
154.1056	100	C3H14N4O3+
164.1182	931	C9H14N3+
168.1132	39	C8H14N3O+
169.0794	109	C8H13N2S+
170.0827	199	C3H14N4O2S+
179.0581	66	C5H12N2O3P+
196.1441	27	C10H18N3O+
207.0896	43	C7H16N2O3P+
220.0273	23	C9H7N3O2P+
233.0143	8	C7H10N2O3PS+
246.0462	46	C8H13N3O2PS+
250.0412	18	C7H13N3O3PS+
274.0773	19	C10H17N3O2PS+
278.0723	57	C9H17N3O3PS+
306.1037	108	C11H21N3O3PS+
