Mass spectrum: Metamitron; LC-ESI-ITFT; MS2; CE: 60%; R=15000; [M+H]+
Name: Metamitron
Name: 4-amino-3-methyl-6-phenyl-1,2,4-triazin-5-one
Formula: C10H10N4O
Exact mass: 202.08546094
SMILES: CC1=NN=C(C(=O)N1N)C1=CC=CC=C1
InChI: InChI=1S/C10H10N4O/c1-7-12-13-9(10(15)14(7)11)8-5-3-2-4-6-8/h2-6H,11H2,1H3
Instrument: LTQ Orbitrap XL Thermo Scientific
Instrument type: LC-ESI-ITFT
Ms type: MS2
Ion mode: POSITIVE
Ionization: ESI
Fragmentation mode: HCD
Collision energy: 60 % (nominal)
Resolution: 15000
Column name: Kinetex Evo C18 2.6 um 50 x 2.1 mm
Retention time: 5.330 min
Base peak: 203.0931
Precursor m/z: 203.0927
Precursor type: [M+H]+
Precursor intensity: 13283390
m/z	relative intensity	assigned
72.0442	17	C3H6NO+
72.0554	44	C2H6N3+
77.0384	31	C6H5+
79.0541	77	C6H7+
83.0238	43	C3H3N2O+
89.0384	31	C7H5+
91.0542	4	C7H7+
92.0493	27	C6H6N+
93.0571	4	C6H7N+
100.0504	4	C3H6N3O+
103.0542	5	C8H7+
104.0493	343	C7H6N+
105.0446	11	C6H5N2+
105.0571	67	C7H7N+
106.0649	95	C7H8N+
107.0603	7	C6H7N2+
116.0495	5	C8H6N+
117.0334	1	C8H5O+
117.0446	13	C7H5N2+
117.0571	3	C8H7N+
118.065	7	C8H8N+
119.0602	20	C7H7N2+
120.0808	3	C8H10N+
130.0649	51	C9H8N+
132.068	6	C8H8N2+
134.0711	34	C7H8N3+
143.0603	3	C9H7N2+
145.0395	47	C8H5N2O+
158.0711	37	C9H8N3+
159.0788	40	C9H9N3+
173.071	3	C10H9N2O+
174.0786	213	C10H10N2O+
175.0976	999	C9H11N4+
186.0658	8	C10H8N3O+
187.0734	8	C10H9N3O+
203.0925	414	C10H11N4O+
