Mass spectrum: Tris(2-chloroethyl)phosphate; LC-ESI-ITFT; MS2; CE: 40%; R=15000; [M+H]+
Name: Tris(2-chloroethyl)phosphate
Name: tris(2-chloroethyl) phosphate
Formula: C6H12Cl3O4P
Exact mass: 283.953878534
SMILES: ClCCOP(=O)(OCCCl)OCCCl
InChI: InChI=1S/C6H12Cl3O4P/c7-1-4-11-14(10,12-5-2-8)13-6-3-9/h1-6H2
Instrument: LTQ Orbitrap XL Thermo Scientific
Instrument type: LC-ESI-ITFT
Ms type: MS2
Ion mode: POSITIVE
Ionization: ESI
Fragmentation mode: HCD
Collision energy: 40 % (nominal)
Resolution: 15000
Column name: Kinetex Evo C18 2.6 um 50 x 2.1 mm
Retention time: 8.906 min
Base peak: 284.9624
Precursor m/z: 284.9612
Precursor type: [M+H]+
Precursor intensity: 11345387
m/z	relative intensity	assigned
62.9994	999	CH4OP+
98.9841	888	H4O4P+
124.9997	492	C2H6O4P+
160.9765	810	C2H7ClO4P+
186.9916	28	C4H9ClO4P+
222.9688	235	C4H10Cl2O4P+
