Mass spectrum: Fluoxastrobin; LC-ESI-ITFT; MS2; CE: 30%; R=15000; [M+H]+
Name: Fluoxastrobin
Name: (E)-1-[2-[6-(2-chlorophenoxy)-5-fluoropyrimidin-4-yl]oxyphenyl]-1-(5,6-dihydro-1,4,2-dioxazin-3-yl)-N-methoxymethanimine
Formula: C21H16ClFN4O5
Exact mass: 458.079325512
SMILES: CO\N=C(\C1=NOCCO1)C1=C(OC2=C(F)C(OC3=C(Cl)C=CC=C3)=NC=N2)C=CC=C1
InChI: InChI=1S/C21H16ClFN4O5/c1-28-26-18(21-27-30-11-10-29-21)13-6-2-4-8-15(13)31-19-17(23)20(25-12-24-19)32-16-9-5-3-7-14(16)22/h2-9,12H,10-11H2,1H3/b26-18+
Instrument: LTQ Orbitrap XL Thermo Scientific
Instrument type: LC-ESI-ITFT
Ms type: MS2
Ion mode: POSITIVE
Ionization: ESI
Fragmentation mode: HCD
Collision energy: 30 % (nominal)
Resolution: 15000
Column name: Kinetex Evo C18 2.6 um 50 x 2.1 mm
Retention time: 11.947 min
Base peak: 330.0811
Precursor m/z: 459.0866
Precursor type: [M+H]+
Precursor intensity: 6694094
m/z	relative intensity	assigned
145.04	120	C8H5N2O+
188.0387	243	C12H9Cl+
231.0203	61	C11H4FN2O3+
246.0313	94	C16H6O3+
342.0445	49	C17H10ClFN3O2+
367.0395	128	C18H9ClFN4O2+
383.0345	124	C18H9ClFN4O3+
427.0604	999	C20H13ClFN4O4+
459.087	8	C21H17ClFN4O5+
