Mass spectrum: Tonalide; LC-ESI-ITFT; MS2; CE: 20%; R=15000; [M+H]+
Name: Tonalide
Name: Tonalid
Name: 1-(3,5,5,6,8,8-hexamethyl-6,7-dihydronaphthalen-2-yl)ethanone
Formula: C18H26O
Exact mass: 258.198365452
SMILES: CC1CC(C)(C)C2=C(C=C(C)C(=C2)C(C)=O)C1(C)C
InChI: InChI=1S/C18H26O/c1-11-8-16-15(9-14(11)13(3)19)17(4,5)10-12(2)18(16,6)7/h8-9,12H,10H2,1-7H3
Instrument: LTQ Orbitrap XL Thermo Scientific
Instrument type: LC-ESI-ITFT
Ms type: MS2
Ion mode: POSITIVE
Ionization: ESI
Fragmentation mode: HCD
Collision energy: 20 % (nominal)
Resolution: 15000
Column name: Kinetex Evo C18 2.6 um 50 x 2.1 mm
Retention time: 14.212 min
Base peak: 259.2057
Precursor m/z: 259.2056
Precursor type: [M+H]+
Precursor intensity: 6134774
m/z	relative intensity	assigned
133.1015	4	C10H13+
175.112	114	C12H15O+
259.2059	999	C18H27O+
