Mass spectrum: Ethofumesate; LC-ESI-ITFT; MS2; CE: 35; R=15000; [M+H]+
Name: Ethofumesate
Name: (2-Ethoxy-3,3-dimethyl-2H-1-benzofuran-5-yl) methanesulfonate
Formula: C13H18O5S
Exact mass: 286.0875
SMILES: CCOC1OC2=CC=C(OS(C)(=O)=O)C=C2C1(C)C
InChI: InChI=1S/C13H18O5S/c1-5-16-12-13(2,3)10-8-9(18-19(4,14)15)6-7-11(10)17-12/h6-8,12H,5H2,1-4H3
Instrument: LTQ Orbitrap XL Thermo Scientific
Instrument type: LC-ESI-ITFT
Ms type: MS2
Ion mode: POSITIVE
Ionization: ESI
Fragmentation mode: CID
Collision energy: 35 (nominal)
Resolution: 15000
Column name: Kinetex Core-Shell C18 2.6 um, 3.0 x 100 mm, Phenomenex
Retention time: 24.205 min
Base peak: 404.1235
Precursor m/z: 287.0948
Precursor type: [M+H]+
m/z	relative intensity	assigned
121.0648	75	C8H9O+
149.0961	15	C10H13O+
163.0754	50	C10H11O2+
208.1093	7	C12H16O3+
217.0652	4	C8H13N2O3S+
241.053	100	C11H13O4S+
259.0636	999	C11H15O5S+
269.0832	1	C13H17O4S+
