Mass spectrum: Creatinine; LC-ESI-ITFT; MS2; CE: 55; R=15000; [M+H]+
Name: Creatinine
Name: 2-Amino-3-methyl-4H-imidazol-5-one
Formula: C4H7N3O
Exact mass: 113.0589
SMILES: CN1CC(=O)N=C1N
InChI: InChI=1S/C4H7N3O/c1-7-2-3(8)6-4(7)5/h2H2,1H3,(H2,5,6,8)
Instrument: LTQ Orbitrap XL Thermo Scientific
Instrument type: LC-ESI-ITFT
Ms type: MS2
Ion mode: POSITIVE
Ionization: ESI
Fragmentation mode: CID
Collision energy: 55 (nominal)
Resolution: 15000
Column name: Kinetex Core-Shell C18 2.6 um, 3.0 x 100 mm, Phenomenex
Retention time: 2.036 min
Base peak: 149.0029
Precursor m/z: 114.0662
Precursor type: [M+H]+
m/z	relative intensity	assigned
57.0335	55	C3H5O+
58.0652	999	C3H8N+
98.0717	46	C4H8N3+
