Mass spectrum: Telmisartan; LC-ESI-ITFT; MS2; CE: 80%; R=15000; [M+H]+
Name: Telmisartan
Name: 2-[4-[[4-methyl-6-(1-methylbenzimidazol-2-yl)-2-propylbenzimidazol-1-yl]methyl]phenyl]benzoic acid
Formula: C33H30N4O2
Exact mass: 514.2368762
SMILES: CCCC1=NC2=C(C)C=C(C=C2N1CC1=CC=C(C=C1)C1=CC=CC=C1C(O)=O)C1=NC2=CC=CC=C2N1C
InChI: InChI=1S/C33H30N4O2/c1-4-9-30-35-31-21(2)18-24(32-34-27-12-7-8-13-28(27)36(32)3)19-29(31)37(30)20-22-14-16-23(17-15-22)25-10-5-6-11-26(25)33(38)39/h5-8,10-19H,4,9,20H2,1-3H3,(H,38,39)
Instrument: LTQ Orbitrap XL Thermo Scientific
Instrument type: LC-ESI-ITFT
Ms type: MS2
Ion mode: POSITIVE
Ionization: ESI
Fragmentation mode: HCD
Collision energy: 80 % (nominal)
Resolution: 15000
Column name: Kinetex Evo C18 2.6 um 50 x 2.1 mm
Retention time: 10.377 min
Base peak: 515.2449
Precursor m/z: 515.2442
Precursor type: [M+H]+
Precursor intensity: 7976923.5
m/z	relative intensity	assigned
79.0542	7	C6H7+
92.0495	2	C6H6N+
103.0418	2	C7H5N+
105.034	3	C7H5O+
105.0449	2	C6H5N2+
106.0652	34	C7H8N+
115.0546	5	C9H7+
131.0604	7	C8H7N2+
133.0286	15	C8H5O2+
133.0761	12	C8H9N2+
141.07	6	C11H9+
144.0683	16	C9H8N2+
145.0759	7	C9H9N2+
152.0623	41	C12H8+
153.0699	14	C12H9+
154.078	4	C12H10+
155.0857	34	C12H11+
157.0758	3	C10H9N2+
165.0701	102	C13H9+
167.0856	16	C13H11+
168.0571	9	C12H8O+
170.0715	8	C10H8N3+
171.0915	4	C11H11N2+
183.0806	21	C13H11O+
193.065	106	C14H9O+
211.0756	125	C14H11O2+
221.1072	4	C15H13N2+
222.1155	13	C15H14N2+
234.1033	17	C17H14O+
235.1119	3	C17H15O+
246.0908	2	C17H12NO+
247.0984	6	C17H13NO+
247.1111	17	C18H15O+
261.1138	475	C16H13N4+
273.1139	16	C17H13N4+
275.1295	240	C17H15N4+
276.1372	999	C17H16N4+
287.1295	32	C18H15N4+
288.1377	17	C20H18NO+
289.145	316	C18H17N4+
301.1447	12	C19H17N4+
302.1535	8	C21H20NO+
303.1607	132	C19H19N4+
305.1762	34	C19H21N4+
317.1754	4	C20H21N4+
467.1863	4	C31H23N4O+
485.1969	4	C31H25N4O2+
