Mass spectrum: Candesartan; LC-ESI-ITFT; MS2; CE: 70%; R=15000; [M+H]+
Name: Candesartan
Name: 2-ethoxy-3-[[4-[2-(2H-tetrazol-5-yl)phenyl]phenyl]methyl]benzimidazole-4-carboxylic acid
Formula: C24H20N6O3
Exact mass: 440.1596885
SMILES: CCOC1=NC2=CC=CC(C(O)=O)=C2N1CC1=CC=C(C=C1)C1=CC=CC=C1C1=NN=NN1
InChI: InChI=1S/C24H20N6O3/c1-2-33-24-25-20-9-5-8-19(23(31)32)21(20)30(24)14-15-10-12-16(13-11-15)17-6-3-4-7-18(17)22-26-28-29-27-22/h3-13H,2,14H2,1H3,(H,31,32)(H,26,27,28,29)
Instrument: LTQ Orbitrap XL Thermo Scientific
Instrument type: LC-ESI-ITFT
Ms type: MS2
Ion mode: POSITIVE
Ionization: ESI
Fragmentation mode: HCD
Collision energy: 70 % (nominal)
Resolution: 15000
Column name: Kinetex Evo C18 2.6 um 50 x 2.1 mm
Retention time: 11.260 min
Base peak: 441.168
Precursor m/z: 441.167
Precursor type: [M+H]+
Precursor intensity: 29462108
m/z	relative intensity	assigned
152.0624	147	C12H8+
165.0701	999	C13H9+
173.0349	58	C9H5N2O2+
175.0505	124	C9H7N2O2+
177.0575	133	C13H7N+
178.078	288	C14H10+
179.073	98	C13H9N+
180.0808	159	C13H10N+
190.0653	318	C14H8N+
191.0731	283	C14H9N+
192.081	821	C14H10N+
193.0888	284	C14H11N+
194.0963	208	C14H12N+
205.076	107	C14H9N2+
206.0839	104	C14H10N2+
207.0923	134	C14H11N2+
210.0912	217	C14H12NO+
219.0918	197	C15H11N2+
234.1152	149	C16H14N2+
