Mass spectrum: 2-Nitroaniline; LC-ESI-ITFT; MS2; CE: 40%; R=15000; [M+H]+
Name: 2-Nitroaniline
Formula: C6H6N2O2
Exact mass: 138.042927432
SMILES: NC1=C(C=CC=C1)[N+]([O-])=O
InChI: InChI=1S/C6H6N2O2/c7-5-3-1-2-4-6(5)8(9)10/h1-4H,7H2
Instrument: LTQ Orbitrap XL Thermo Scientific
Instrument type: LC-ESI-ITFT
Ms type: MS2
Ion mode: POSITIVE
Ionization: ESI
Fragmentation mode: HCD
Collision energy: 40 % (nominal)
Resolution: 15000
Column name: Kinetex Evo C18 2.6 um 50 x 2.1 mm
Retention time: 5.665 min
Base peak: 225.1137
Precursor m/z: 139.0502
Precursor type: [M+H]+
Precursor intensity: 183978.14
m/z	relative intensity	assigned
78.0342	22	C5H4N+
80.0133	43	C4H2NO+
91.0418	384	C6H5N+
103.0293	38	C6H3N2+
121.0399	999	C6H5N2O+
122.0477	178	C6H6N2O+
139.0505	531	C6H7N2O2+
