Mass spectrum: Efavirenz; LC-ESI-ITFT; MS2; CE: 20%; R=15000; [M+H]+
Name: Efavirenz
Name: 6-chloro-4-(cyclopropylethynyl)-4-(trifluoromethyl)-1,4-dihydro-2H-3,1-benzoxazin-2-one
Name: 6-chloro-4-(2-cyclopropylethynyl)-4-(trifluoromethyl)-1H-3,1-benzoxazin-2-one
Formula: C14H9ClF3NO2
Exact mass: 315.027390868
SMILES: FC(F)(F)C1(OC(=O)NC2=C1C=C(Cl)C=C2)C#CC1CC1
InChI: InChI=1S/C14H9ClF3NO2/c15-9-3-4-11-10(7-9)13(14(16,17)18,21-12(20)19-11)6-5-8-1-2-8/h3-4,7-8H,1-2H2,(H,19,20)
Instrument: LTQ Orbitrap XL Thermo Scientific
Instrument type: LC-ESI-ITFT
Ms type: MS2
Ion mode: POSITIVE
Ionization: ESI
Fragmentation mode: HCD
Collision energy: 20 % (nominal)
Resolution: 15000
Column name: Kinetex Evo C18 2.6 um 50 x 2.1 mm
Retention time: 12.331 min
Base peak: 316.036
Precursor m/z: 316.0347
Precursor type: [M+H]+
Precursor intensity: 2360470.75
m/z	relative intensity	assigned
53.0385	492	C4H5+
203.0506	287	C12H8FO2+
217.0704	54	C10H10F3NO+
220.0144	172	C9H6ClF3N+
222.0539	93	C14H8NO2+
232.0144	421	C10H6ClF3N+
232.0329	105	C13H6F2O2+
237.0769	494	C13H10F3N+
244.0144	999	C11H6ClF3N+
270.0299	83	C13H8ClF3N+
272.0457	817	C13H10ClF3N+
278.0189	133	C11H8ClF3NO2+
298.0244	91	C14H8ClF3NO+
316.036	261	C14H10ClF3NO2+
