Mass spectrum: Boscalid; LC-ESI-ITFT; MS2; CE: 55; R=15000; [M+H]+
Name: Boscalid
Name: 2-Chloro-N-[2-(4-chlorophenyl)phenyl]pyridine-3-carboxamide
Formula: C18H12Cl2N2O
Exact mass: 342.0327
SMILES: ClC1=CC=C(C=C1)C1=CC=CC=C1NC(=O)C1=CC=CN=C1Cl
InChI: InChI=1S/C18H12Cl2N2O/c19-13-9-7-12(8-10-13)14-4-1-2-6-16(14)22-18(23)15-5-3-11-21-17(15)20/h1-11H,(H,22,23)
Instrument: LTQ Orbitrap XL Thermo Scientific
Instrument type: LC-ESI-ITFT
Ms type: MS2
Ion mode: POSITIVE
Ionization: ESI
Fragmentation mode: HCD
Collision energy: 55 (nominal)
Resolution: 15000
Column name: Kinetex Core-Shell C18 2.6 um, 3.0 x 100 mm, Phenomenex
Retention time: 24.426 min
Base peak: 334.1046
Precursor m/z: 343.0399
Precursor type: [M+H]+
m/z	relative intensity	assigned
78.0338	42	C5H4N+
94.0287	11	C5H4NO+
96.0444	61	C5H6NO+
111.9949	37	C5H3ClN+
112.0393	14	C2H9ClN2O+
113.0032	2	C5H4ClN+
114.0105	64	C5H5ClN+
130.0056	4	C5H5ClNO+
139.9898	285	C6H3ClNO+
152.0618	5	C12H8+
177.0581	2	C13H7N+
195.0549	6	C12H7N2O+
196.0637	2	C12H8N2O+
202.0772	2	C16H10+
229.0887	7	C17H11N+
230.0365	7	C13H9ClNO+
242.0827	5	C17H10N2+
243.0919	49	C17H11N2+
244.1	22	C17H12N2+
253.0761	26	C18H9N2+
254.0842	51	C18H10N2+
264.0581	12	C17H11ClN+
270.0787	11	C18H10N2O+
271.0867	696	C18H11N2O+
272.0945	719	C18H12N2O+
289.0529	188	C18H10ClN2+
305.0475	11	C18H10ClN2O+
306.0546	7	C18H11ClN2O+
307.0634	999	C18H12ClN2O+
