Mass spectrum: Pirimicarb; LC-ESI-ITFT; MS2; CE: 80; R=15000; [M+H]+
Name: Pirimicarb
Name: [2-(Dimethylamino)-5,6-dimethylpyrimidin-4-yl] N,N-dimethylcarbamate
Formula: C11H18N4O2
Exact mass: 238.1430
SMILES: CN(C)C(=O)OC1=NC(=NC(C)=C1C)N(C)C
InChI: InChI=1S/C11H18N4O2/c1-7-8(2)12-10(14(3)4)13-9(7)17-11(16)15(5)6/h1-6H3
Instrument: LTQ Orbitrap XL Thermo Scientific
Instrument type: LC-ESI-ITFT
Ms type: MS2
Ion mode: POSITIVE
Ionization: ESI
Fragmentation mode: HCD
Collision energy: 80 (nominal)
Resolution: 15000
Column name: Kinetex Core-Shell C18 2.6 um, 3.0 x 100 mm, Phenomenex
Retention time: 17.533 min
Base peak: 165.1019
Precursor m/z: 239.1503
Precursor type: [M+H]+
m/z	relative intensity	assigned
72.0442	999	C3H6NO+
83.0239	38	C3H3N2O+
85.0759	149	C4H9N2+
109.0758	154	C6H9N2+
124.0629	19	C6H8N2O+
137.0709	57	C7H9N2O+
138.0787	65	C7H10N2O+
150.1026	32	C8H12N3+
152.0818	49	C7H10N3O+
166.0978	2	C8H12N3O+
167.1052	21	C8H13N3O+
168.1125	2	C8H14N3O+
180.1131	3	C9H14N3O+
182.1287	69	C9H16N3O+
195.1609	2	C10H19N4+
