Mass spectrum: Bupirimate; LC-ESI-ITFT; MS2; CE: 50%; R=15000; [M+H]+
Name: Bupirimate
Name: [5-butyl-2-(ethylamino)-6-methylpyrimidin-4-yl] N,N-dimethylsulfamate
Formula: C13H24N4O3S
Exact mass: 316.156911628
SMILES: CCCCC1=C(C)N=C(NCC)N=C1OS(=O)(=O)N(C)C
InChI: InChI=1S/C13H24N4O3S/c1-6-8-9-11-10(3)15-13(14-7-2)16-12(11)20-21(18,19)17(4)5/h6-9H2,1-5H3,(H,14,15,16)
Instrument: LTQ Orbitrap XL Thermo Scientific
Instrument type: LC-ESI-ITFT
Ms type: MS2
Ion mode: POSITIVE
Ionization: ESI
Fragmentation mode: HCD
Collision energy: 50 % (nominal)
Resolution: 15000
Column name: Kinetex Evo C18 2.6 um 50 x 2.1 mm
Retention time: 10.823 min
Base peak: 317.1647
Precursor m/z: 317.1642
Precursor type: [M+H]+
Precursor intensity: 69431152
m/z	relative intensity	assigned
97.0395	15	C4H5N2O+
98.0603	6	C5H8NO+
108.0113	999	C2H6NO2S+
110.0964	20	C7H12N+
137.1074	8	C8H13N2+
138.066	15	C6H8N3O+
138.0909	18	C8H12NO+
138.1026	9	C7H12N3+
139.0738	22	C6H9N3O+
139.1229	6	C8H15N2+
140.1068	151	C8H14NO+
148.0868	22	C8H10N3+
150.1024	230	C8H12N3+
151.1227	26	C9H15N2+
152.0819	14	C7H10N3O+
165.0896	43	C8H11N3O+
165.1021	91	C9H13N2O+
166.0973	894	C8H12N3O+
167.1051	124	C8H13N3O+
180.1131	28	C9H14N3O+
180.1494	75	C10H18N3+
181.1207	11	C9H15N3O+
182.1283	19	C9H16N3O+
192.1492	27	C11H18N3+
193.1335	71	C11H17N2O+
194.1287	89	C10H16N3O+
208.1443	411	C11H18N3O+
209.1522	26	C11H19N3O+
210.1599	716	C11H20N3O+
224.1755	53	C12H22N3O+
237.2071	191	C13H25N4+
244.0747	28	C9H14N3O3S+
272.1062	146	C11H18N3O3S+
317.164	68	C13H25N4O3S+
