Mass spectrum: N-Isopropyl-N-phenyl-p-phenylenediamine; LC-ESI-ITFT; MS2; CE: 80; R=15000; [M+H]+
Name: N-Isopropyl-N-phenyl-p-phenylenediamine
Name: 1-N-Phenyl-4-N-propan-2-ylbenzene-1,4-diamine
Formula: C15H18N2
Exact mass: 226.1470
SMILES: CC(C)Nc1ccc(Nc2ccccc2)cc1
InChI: InChI=1S/C15H18N2/c1-12(2)16-14-8-10-15(11-9-14)17-13-6-4-3-5-7-13/h3-12,16-17H,1-2H3
Instrument: LTQ Orbitrap XL Thermo Scientific
Instrument type: LC-ESI-ITFT
Ms type: MS2
Ion mode: POSITIVE
Ionization: ESI
Fragmentation mode: HCD
Collision energy: 80 (nominal)
Resolution: 15000
Column name: Kinetex Core-Shell C18 2.6 um, 3.0 x 100 mm, Phenomenex
Retention time: 12.896 min
Base peak: 227.1549
Precursor m/z: 227.1543
Precursor type: [M+H]+
m/z	relative intensity	assigned
77.0388	8	C6H5+
80.0498	2	C5H6N+
81.0577	1	C5H7N+
103.0546	28	C8H7+
107.0734	4	C7H9N+
118.0655	2	C8H8N+
120.0812	999	C8H10N+
129.0704	12	C10H9+
143.0861	2	C11H11+
145.0886	1	C10H11N+
155.0861	8	C12H11+
165.0705	5	C13H9+
166.0785	3	C13H10+
168.0816	3	C12H10N+
178.0784	100	C14H10+
180.0814	131	C13H10N+
183.1177	1	C14H15+
193.1021	21	C15H13+
194.0972	81	C14H12N+
195.1051	63	C14H13N+
208.1128	6	C15H14N+
210.1286	4	C15H16N+
227.1553	12	C15H19N2+
