Mass spectrum: Metribuzin; LC-ESI-ITFT; MS2; CE: 30%; R=15000; [M+H]+
Name: Metribuzin
Name: 4-amino-6-tert-butyl-3-methylsulfanyl-1,2,4-triazin-5-one
Formula: C8H14N4OS
Exact mass: 214.088832068
SMILES: CSC1=NN=C(C(=O)N1N)C(C)(C)C
InChI: InChI=1S/C8H14N4OS/c1-8(2,3)5-6(13)12(9)7(14-4)11-10-5/h9H2,1-4H3
Instrument: LTQ Orbitrap XL Thermo Scientific
Instrument type: LC-ESI-ITFT
Ms type: MS2
Ion mode: POSITIVE
Ionization: ESI
Fragmentation mode: HCD
Collision energy: 30 % (nominal)
Resolution: 15000
Column name: Kinetex Evo C18 2.6 um 50 x 2.1 mm
Retention time: 8.315 min
Base peak: 215.0964
Precursor m/z: 215.0961
Precursor type: [M+H]+
Precursor intensity: 37848192
m/z	relative intensity	assigned
84.0806	2	C5H10N+
89.0167	3	C2H5N2S+
97.0647	1	C6H9O+
114.9959	3	C3H3N2OS+
130.0682	1	C6H12NS+
131.0273	3	C4H7N2OS+
145.0542	1	C4H9N4S+
171.0585	2	C7H11N2OS+
186.0819	6	C8H14N2OS+
187.1011	53	C7H15N4S+
215.0959	999	C8H15N4OS+
