Mass spectrum: Trifloxystrobin; LC-ESI-ITFT; MS2; CE: 55; R=15000; [M+H]+
Name: Trifloxystrobin
Name: (2E)-2-Methoxyimino-2-[2-[[(E)-1-[3-(trifluoromethyl)phenyl]ethylideneamino]oxymethyl]phenyl]acetate-methyl
Formula: C20H19F3N2O4
Exact mass: 408.1297
SMILES: CO\N=C(\C(=O)OC)C1=CC=CC=C1CO\N=C(/C)C1=CC(=CC=C1)C(F)(F)F
InChI: InChI=1S/C20H19F3N2O4/c1-13(14-8-6-9-16(11-14)20(21,22)23)24-29-12-15-7-4-5-10-17(15)18(25-28-3)19(26)27-2/h4-11H,12H2,1-3H3/b24-13+,25-18+
Instrument: LTQ Orbitrap XL Thermo Scientific
Instrument type: LC-ESI-ITFT
Ms type: MS2
Ion mode: POSITIVE
Ionization: ESI
Fragmentation mode: CID
Collision energy: 55 (nominal)
Resolution: 15000
Column name: Kinetex Core-Shell C18 2.6 um, 3.0 x 100 mm, Phenomenex
Retention time: 26.689 min
Base peak: 409.1365
Precursor m/z: 409.137
Precursor type: [M+H]+
m/z	relative intensity	assigned
116.0494	23	C8H6N+
117.0571	4	C8H7N+
118.0653	1	C8H8N+
119.0491	1	C8H7O+
130.0652	9	C9H8N+
131.073	27	C9H9N+
132.0444	6	C8H6NO+
132.0808	46	C9H10N+
143.0366	8	C9H5NO+
145.0259	34	C7H4F3+
146.06	81	C9H8NO+
147.0678	5	C9H9NO+
148.0759	4	C9H10NO+
162.0915	12	C10H12NO+
173.0324	5	C7H4F3N2+
174.0549	4	C10H8NO2+
175.0628	14	C10H9NO2+
178.0865	10	C10H12NO2+
186.0526	635	C9H7F3N+
188.1095	1	C6H16F2NO3+
206.0812	999	C11H12NO3+
377.1114	3	C19H16F3N2O3+
