Mass spectrum: Cyproterone; LC-ESI-ITFT; MS2; CE: 30%; R=15000; [M+H]+
Name: Cyproterone
Name: (1S,2S,3S,5R,11R,12S,15R,16S)-15-acetyl-9-chloro-15-hydroxy-2,16-dimethylpentacyclo[9.7.0.02,8.03,5.012,16]octadeca-7,9-dien-6-one
Formula: C22H27ClO3
Exact mass: 374.164872404
SMILES: CC(=O)[C@@]1(O)CC[C@H]2[C@@H]3C=C(Cl)C4=CC(=O)[C@@H]5C[C@@H]5[C@]4(C)[C@H]3CC[C@]12C
InChI: InChI=1S/C22H27ClO3/c1-11(24)22(26)7-5-14-12-9-18(23)17-10-19(25)13-8-16(13)21(17,3)15(12)4-6-20(14,22)2/h9-10,12-16,26H,4-8H2,1-3H3/t12-,13+,14-,15-,16-,20-,21-,22-/m0/s1
Instrument: LTQ Orbitrap XL Thermo Scientific
Instrument type: LC-ESI-ITFT
Ms type: MS2
Ion mode: POSITIVE
Ionization: ESI
Fragmentation mode: HCD
Collision energy: 30 % (nominal)
Resolution: 15000
Column name: Kinetex Evo C18 2.6 um 50 x 2.1 mm
Retention time: 11.716 min
Base peak: 303.2319
Precursor m/z: 375.1721
Precursor type: [M+H]+
Precursor intensity: 9591165
m/z	relative intensity	assigned
119.0851	8	C9H11+
131.0855	6	C10H11+
133.1012	20	C10H13+
137.0958	4	C9H13O+
145.1013	12	C11H13+
147.0805	7	C10H11O+
147.1168	45	C11H15+
151.1114	4	C10H15O+
155.086	5	C12H11+
159.0805	5	C11H11O+
159.117	4	C12H15+
163.1122	9	C11H15O+
175.1117	22	C12H15O+
181.0409	11	C10H10ClO+
183.0569	6	C10H12ClO+
185.096	12	C13H13O+
189.1274	8	C13H17O+
193.0414	5	C11H10ClO+
199.1113	6	C14H15O+
201.1272	10	C14H17O+
203.062	6	C13H12Cl+
205.0416	12	C12H10ClO+
207.0573	6	C12H12ClO+
219.057	69	C13H12ClO+
221.0727	11	C13H14ClO+
235.1482	12	C18H19+
237.1273	5	C17H17O+
237.1639	5	C18H21+
239.1426	9	C17H19O+
245.073	15	C15H14ClO+
247.1478	11	C19H19+
249.1262	4	C18H17O+
249.1644	10	C19H21+
251.1433	17	C18H19O+
251.1792	5	C19H23+
253.1587	9	C18H21O+
259.0877	12	C16H16ClO+
261.164	20	C20H21+
263.1433	11	C19H19O+
265.1588	5	C19H21O+
273.1036	20	C17H18ClO+
275.1788	9	C21H23+
277.1578	21	C20H21O+
278.166	15	C20H22O+
279.174	83	C20H23O+
287.1199	7	C18H20ClO+
291.1753	5	C21H23O+
293.1532	21	C20H21O2+
293.1898	20	C21H25O+
297.1412	7	C20H22Cl+
297.1858	7	C20H25O2+
303.1739	36	C22H23O+
306.1622	8	C21H22O2+
313.1351	38	C20H22ClO+
314.1424	25	C20H23ClO+
315.1507	46	C20H24ClO+
321.1846	316	C22H25O2+
329.1661	14	C21H26ClO+
339.1511	16	C22H24ClO+
339.1949	15	C22H27O3+
357.161	135	C22H26ClO2+
375.1716	999	C22H28ClO3+
