Mass spectrum: Risperidone; LC-ESI-ITFT; MS2; CE: 90%; R=15000; [M+H]+
Name: Risperidone
Name: 3-[2-[4-(6-fluoro-1,2-benzoxazol-3-yl)piperidin-1-yl]ethyl]-2-methyl-6,7,8,9-tetrahydropyrido[1,2-a]pyrimidin-4-one
Formula: C23H27FN4O2
Exact mass: 410.211804324
SMILES: CC1=C(CCN2CCC(CC2)C2=NOC3=C2C=CC(F)=C3)C(=O)N2CCCCC2=N1
InChI: InChI=1S/C23H27FN4O2/c1-15-18(23(29)28-10-3-2-4-21(28)25-15)9-13-27-11-7-16(8-12-27)22-19-6-5-17(24)14-20(19)30-26-22/h5-6,14,16H,2-4,7-13H2,1H3
Instrument: LTQ Orbitrap XL Thermo Scientific
Instrument type: LC-ESI-ITFT
Ms type: MS2
Ion mode: POSITIVE
Ionization: ESI
Fragmentation mode: HCD
Collision energy: 90 % (nominal)
Resolution: 15000
Column name: Kinetex Evo C18 2.6 um 50 x 2.1 mm
Retention time: 7.085 min
Base peak: 411.2202
Precursor m/z: 411.2191
Precursor type: [M+H]+
Precursor intensity: 28189378
m/z	relative intensity	assigned
55.054	34	C4H7+
65.0385	9	FH4N3+
67.0177	3	C4H3O+
67.0416	2	C4H5N+
67.0541	45	FH6N3+
68.0493	51	C4H6N+
69.0334	233	C4H5O+
80.0494	3	C5H6N+
82.0651	219	C5H8N+
99.0916	3	C5H11N2+
106.0651	4	C7H8N+
107.073	14	C7H9N+
110.0601	303	C6H8NO+
120.0809	4	C8H10N+
121.076	3	C7H9N2+
123.0917	9	C7H11N2+
124.0756	4	C2H9FN4O+
125.071	19	C6H9N2O+
148.1122	22	C10H14N+
149.0711	4	C8H9N2O+
150.0788	50	C8H10N2O+
163.0866	40	C9H11N2O+
163.123	29	C10H15N2+
167.0816	2	C8H11N2O2+
173.1066	2	C11H13N2+
176.0943	2	C10H12N2O+
191.118	999	C11H15N2O+
