Mass spectrum: 2-Oxindole; LC-ESI-ITFT; MS2; CE: 50%; R=15000; [M+H]+
Name: 2-Oxindole
Name: Oxindole
Name: 1,3-dihydroindol-2-one
Formula: C8H7NO
Exact mass: 133.052763844
SMILES: O=C1CC2=CC=CC=C2N1
InChI: InChI=1S/C8H7NO/c10-8-5-6-3-1-2-4-7(6)9-8/h1-4H,5H2,(H,9,10)
Instrument: LTQ Orbitrap XL Thermo Scientific
Instrument type: LC-ESI-ITFT
Ms type: MS2
Ion mode: POSITIVE
Ionization: ESI
Fragmentation mode: HCD
Collision energy: 50 % (nominal)
Resolution: 15000
Column name: Kinetex Evo C18 2.6 um 50 x 2.1 mm
Retention time: 4.332 min
Base peak: 134.0601
Precursor m/z: 134.06
Precursor type: [M+H]+
Precursor intensity: 5987429
m/z	relative intensity	assigned
79.054	8	C6H7+
105.0332	8	C7H5O+
106.0649	77	C7H8N+
107.0488	1	C7H7O+
116.0492	2	C8H6N+
134.0597	999	C8H8NO+
