Mass spectrum: Imazapyr; LC-ESI-ITFT; MS2; CE: 30%; R=15000; [M+H]+
Name: Imazapyr
Name: 2-(4-methyl-5-oxo-4-propan-2-yl-1H-imidazol-2-yl)pyridine-3-carboxylic acid
Formula: C13H15N3O3
Exact mass: 261.11134134
SMILES: CC(C)C1(C)N=C(NC1=O)C1=NC=CC=C1C(O)=O
InChI: InChI=1S/C13H15N3O3/c1-7(2)13(3)12(19)15-10(16-13)9-8(11(17)18)5-4-6-14-9/h4-7H,1-3H3,(H,17,18)(H,15,16,19)
Instrument: LTQ Orbitrap XL Thermo Scientific
Instrument type: LC-ESI-ITFT
Ms type: MS2
Ion mode: POSITIVE
Ionization: ESI
Fragmentation mode: HCD
Collision energy: 30 % (nominal)
Resolution: 15000
Column name: Kinetex Evo C18 2.6 um 50 x 2.1 mm
Retention time: 5.904 min
Base peak: 262.1196
Precursor m/z: 262.1186
Precursor type: [M+H]+
Precursor intensity: 22875920
m/z	relative intensity	assigned
69.0696	1	C5H9+
86.0964	10	C5H12N+
149.0348	3	C7H5N2O2+
173.1075	11	C11H13N2+
190.1344	2	C11H16N3+
199.0869	2	C12H11N2O+
202.0614	7	C10H8N3O2+
216.1135	13	C12H14N3O+
217.0973	70	C12H13N2O2+
220.0718	83	C10H10N3O3+
234.1239	109	C12H16N3O2+
244.1082	7	C13H14N3O2+
262.1187	999	C13H16N3O3+
