Mass spectrum: Mefenamic acid; LC-ESI-ITFT; MS2; CE: 55; R=15000; [M+H]+
Name: Mefenamic acid
Name: 2-(2,3-Dimethylanilino)benzoic acid
Formula: C15H15NO2
Exact mass: 241.1103
SMILES: CC1=C(C)C(NC2=CC=CC=C2C(O)=O)=CC=C1
InChI: InChI=1S/C15H15NO2/c1-10-6-5-9-13(11(10)2)16-14-8-4-3-7-12(14)15(17)18/h3-9,16H,1-2H3,(H,17,18)
Instrument: LTQ Orbitrap XL Thermo Scientific
Instrument type: LC-ESI-ITFT
Ms type: MS2
Ion mode: POSITIVE
Ionization: ESI
Fragmentation mode: HCD
Collision energy: 55 (nominal)
Resolution: 15000
Column name: Kinetex Core-Shell C18 2.6 um, 3.0 x 100 mm, Phenomenex
Retention time: 27.002 min
Base peak: 279.1591
Precursor m/z: 242.1176
Precursor type: [M+H]+
m/z	relative intensity	assigned
180.0809	3	C13H10N+
181.0889	3	C13H11N+
196.0753	1	C13H10NO+
208.076	4	C14H10NO+
209.0839	206	C14H11NO+
222.0918	5	C15H12NO+
223.0995	3	C15H13NO+
224.1071	999	C15H14NO+
