Mass spectrum: Pirimicarb; LC-ESI-ITFT; MS2; CE: 55; R=15000; [M+H]+
Name: Pirimicarb
Name: [2-(Dimethylamino)-5,6-dimethylpyrimidin-4-yl] N,N-dimethylcarbamate
Formula: C11H18N4O2
Exact mass: 238.1430
SMILES: CN(C)C(=O)OC1=NC(=NC(C)=C1C)N(C)C
InChI: InChI=1S/C11H18N4O2/c1-7-8(2)12-10(14(3)4)13-9(7)17-11(16)15(5)6/h1-6H3
Instrument: LTQ Orbitrap XL Thermo Scientific
Instrument type: LC-ESI-ITFT
Ms type: MS2
Ion mode: POSITIVE
Ionization: ESI
Fragmentation mode: HCD
Collision energy: 55 (nominal)
Resolution: 15000
Column name: Kinetex Core-Shell C18 2.6 um, 3.0 x 100 mm, Phenomenex
Retention time: 17.533 min
Base peak: 165.1019
Precursor m/z: 239.1503
Precursor type: [M+H]+
m/z	relative intensity	assigned
72.0442	999	C3H6NO+
83.0239	13	C3H3N2O+
85.0759	100	C4H9N2+
109.0759	45	C6H9N2+
124.0627	1	C6H8N2O+
137.0709	92	C7H9N2O+
138.0786	23	C7H10N2O+
150.1025	63	C8H12N3+
152.0818	7	C7H10N3O+
166.0975	3	C8H12N3O+
167.1052	34	C8H13N3O+
168.1124	2	C8H14N3O+
180.1134	4	C9H14N3O+
182.1286	779	C9H16N3O+
195.1604	29	C10H19N4+
239.1501	9	C11H19N4O2+
