Mass spectrum: Gabapentin-lactam; LC-ESI-ITFT; MS2; CE: 125%; R=15000; [M+H]+
Name: Gabapentin-lactam
Name: 2-azaspiro[4.5]decan-3-one
Formula: C9H15NO
Exact mass: 153.1154
SMILES: O=C1CC2(CN1)CCCCC2
InChI: InChI=1S/C9H15NO/c11-8-6-9(7-10-8)4-2-1-3-5-9/h1-7H2,(H,10,11)
Instrument: LTQ Orbitrap XL Thermo Scientific
Instrument type: LC-ESI-ITFT
Ms type: MS2
Ion mode: POSITIVE
Ionization: ESI
Fragmentation mode: HCD
Collision energy: 125 % (nominal)
Resolution: 15000
Column name: Kinetex Evo C18 2.6 um 50 x 2.1 mm
Retention time: 8.247 min
Base peak: 154.1225
Precursor m/z: 154.1226
Precursor type: [M+H]+
m/z	relative intensity	assigned
54.0337	6	C3H4N+
60.0442	9	C2H6NO+
65.0385	33	C5H5+
67.0541	645	C5H7+
69.0698	44	C5H9+
70.0651	8	C4H8N+
72.0443	139	C3H6NO+
77.0385	41	C6H5+
79.0542	25	C6H7+
80.062	28	C6H8+
81.0699	35	C6H9+
86.0599	4	C4H8NO+
91.0542	91	C7H7+
93.0698	210	C7H9+
95.0855	999	C7H11+
109.1011	21	C8H13+
112.112	18	C7H14N+
154.1225	111	C9H16NO+
