Mass spectrum: Didecyldimethylammonium; LC-ESI-ITFT; MS2; CE: 30%; R=15000; [M]+
Name: Didecyldimethylammonium
Name: didecyl(dimethyl)azanium
Formula: C22H48N
Exact mass: 326.378126956091
SMILES: CCCCCCCCCC[N+](C)(C)CCCCCCCCCC
InChI: InChI=1S/C22H48N/c1-5-7-9-11-13-15-17-19-21-23(3,4)22-20-18-16-14-12-10-8-6-2/h5-22H2,1-4H3/q+1
Instrument: LTQ Orbitrap XL Thermo Scientific
Instrument type: LC-ESI-ITFT
Ms type: MS2
Ion mode: POSITIVE
Ionization: ESI
Fragmentation mode: HCD
Collision energy: 30 % (nominal)
Resolution: 15000
Column name: Kinetex Evo C18 2.6 um 50 x 2.1 mm
Retention time: 12.113 min
Base peak: 332.3315
Precursor m/z: 326.3781
Precursor type: [M]+
Precursor intensity: 952866.81
m/z	relative intensity	assigned
186.2213	7	C12H28N+
326.3783	999	C22H48N+
