Mass spectrum: Fenofibrate; LC-ESI-ITFT; MS2; CE: 60%; R=15000; [M+H]+
Name: Fenofibrate
Name: propan-2-yl 2-[4-(4-chlorobenzoyl)phenoxy]-2-methylpropanoate
Formula: C20H21ClO4
Exact mass: 360.112836832
SMILES: CC(C)OC(=O)C(C)(C)OC1=CC=C(C=C1)C(=O)C1=CC=C(Cl)C=C1
InChI: InChI=1S/C20H21ClO4/c1-13(2)24-19(23)20(3,4)25-17-11-7-15(8-12-17)18(22)14-5-9-16(21)10-6-14/h5-13H,1-4H3
Instrument: LTQ Orbitrap XL Thermo Scientific
Instrument type: LC-ESI-ITFT
Ms type: MS2
Ion mode: POSITIVE
Ionization: ESI
Fragmentation mode: HCD
Collision energy: 60 % (nominal)
Resolution: 15000
Column name: Kinetex Evo C18 2.6 um 50 x 2.1 mm
Retention time: 13.538 min
Base peak: 361.121
Precursor m/z: 361.1201
Precursor type: [M+H]+
Precursor intensity: 11900147
m/z	relative intensity	assigned
59.0489	7	C3H7O+
87.0441	5	C4H7O2+
110.9993	2	C6H4Cl+
121.0284	510	C7H5O2+
138.9945	999	C7H4ClO+
233.0365	64	C13H10ClO2+
