Mass spectrum: Acetyl-sulfamethoxazole; LC-ESI-ITFT; MS2; CE: 35; R=15000; [M+H]+
Name: Acetyl-sulfamethoxazole
Name: N-[4-[(5-Methyl-1,2-oxazol-3-yl)sulfamoyl]phenyl]acetamide
Formula: C12H13N3O4S
Exact mass: 295.0627
SMILES: CC(=O)NC1=CC=C(C=C1)S(=O)(=O)NC1=NOC(C)=C1
InChI: InChI=1S/C12H13N3O4S/c1-8-7-12(14-19-8)15-20(17,18)11-5-3-10(4-6-11)13-9(2)16/h3-7H,1-2H3,(H,13,16)(H,14,15)
Instrument: LTQ Orbitrap XL Thermo Scientific
Instrument type: LC-ESI-ITFT
Ms type: MS2
Ion mode: POSITIVE
Ionization: ESI
Fragmentation mode: CID
Collision energy: 35 (nominal)
Resolution: 15000
Column name: Kinetex Core-Shell C18 2.6 um, 3.0 x 100 mm, Phenomenex
Retention time: 19.115 min
Base peak: 163.1328
Precursor m/z: 296.07
Precursor type: [M+H]+
m/z	relative intensity	assigned
92.0495	4	C6H6N+
93.0335	6	C6H5O+
93.0573	4	C6H7N+
94.0652	54	C6H8N+
99.0554	9	C4H7N2O+
107.0603	3	C6H7N2+
108.0444	65	C6H6NO+
118.0651	9	C8H8N+
134.0601	103	C8H8NO+
135.068	3	C8H9NO+
136.0758	691	C8H10NO+
140.0167	13	C6H6NOS+
146.0715	59	C8H8N3+
147.0555	8	C2H13NO4S+
147.0792	29	C8H9N3+
148.0637	3	C8H8N2O+
148.0872	12	C8H10N3+
149.0711	23	C8H9N2O+
150.0551	19	C8H8NO2+
151.0327	17	C7H7N2S+
152.0705	3	C8H10NO2+
156.0116	67	C6H6NO2S+
160.0871	57	C9H10N3+
161.0713	5	C9H9N2O+
172.0871	21	C10H10N3+
173.071	3	C10H9N2O+
176.0279	38	C8H6N3S+
177.012	16	C8H5N2OS+
182.0273	20	C8H8NO2S+
188.082	775	C10H10N3O+
189.066	8	C10H9N2O2+
189.0899	147	C10H11N3O+
190.0977	283	C10H12N3O+
191.0819	21	C10H11N2O2+
193.0433	21	C9H9N2OS+
194.0384	437	C8H8N3OS+
195.0226	39	C8H7N2O2S+
198.0221	999	C8H8NO3S+
200.0376	4	C8H10NO3S+
202.0977	101	C11H12N3O+
203.0819	14	C11H11N2O2+
214.0977	99	C12H12N3O+
216.0326	8	C8H10NO4S+
218.0385	59	C10H8N3OS+
219.0224	22	C10H7N2O2S+
230.0927	187	C12H12N3O2+
232.1084	113	C12H14N3O2+
236.049	612	C10H10N3O2S+
254.0598	98	C10H12N3O3S+
278.0597	56	C12H12N3O3S+
