Mass spectrum: 3-nitrobenzanthrone; APCI-ITFT; MS2; CE: 35%; R=30000; [M]-
Name: 3-nitrobenzanthrone
Name: 3-nitrobenzo[b]phenalen-7-one
Formula: C17H9NO3
Exact mass: 275.0582
SMILES: c1ccc2c(c1)c1c3c(c(cc1)[N+](=O)[O-])cccc3C2=O
InChI: InChI=1S/C17H9NO3/c19-17-12-5-2-1-4-10(12)11-8-9-15(18(20)21)13-6-3-7-14(17)16(11)13/h1-9H
Instrument: LTQ Orbitrap XL Thermo Scientific
Instrument type: APCI-ITFT
Ms type: MS2
Ion mode: NEGATIVE
Ionization: APCI
Fragmentation mode: CID
Collision energy: 35 % (nominal)
Resolution: 30000
Column name: N/A
Retention time: N/A min
Base peak: 275.0588
Precursor m/z: 275.0588
Precursor type: [M]-
m/z	relative intensity	assigned
244.0528	1	C17H8O2-
245.0605	999	C17H9O2-
246.0559	1	C16H8NO2-
247.0635	6	C16H9NO2-
