Mass spectrum: Tamoxifen; LC-ESI-ITFT; MS2; CE: 50%; R=15000; [M+H]+
Name: Tamoxifen
Name: 2-[4-[(Z)-1,2-diphenylbut-1-enyl]phenoxy]-N,N-dimethylethanamine
Formula: C26H29NO
Exact mass: 371.224914548
SMILES: CC\C(=C(/C1=CC=CC=C1)C1=CC=C(OCCN(C)C)C=C1)C1=CC=CC=C1
InChI: InChI=1S/C26H29NO/c1-4-25(21-11-7-5-8-12-21)26(22-13-9-6-10-14-22)23-15-17-24(18-16-23)28-20-19-27(2)3/h5-18H,4,19-20H2,1-3H3/b26-25-
Instrument: LTQ Orbitrap XL Thermo Scientific
Instrument type: LC-ESI-ITFT
Ms type: MS2
Ion mode: POSITIVE
Ionization: ESI
Fragmentation mode: HCD
Collision energy: 50 % (nominal)
Resolution: 15000
Column name: Kinetex Evo C18 2.6 um 50 x 2.1 mm
Retention time: 10.976 min
Base peak: 372.2331
Precursor m/z: 372.2322
Precursor type: [M+H]+
Precursor intensity: 21360664
m/z	relative intensity	assigned
57.0571	1	C3H7N+
58.0649	12	C3H8N+
70.065	12	C4H8N+
72.0807	999	C4H10N+
91.0543	23	C7H7+
105.0699	6	C8H9+
107.0491	2	C7H7O+
129.0699	52	C10H9+
167.0855	3	C13H11+
178.0777	6	C14H10+
179.0858	4	C14H11+
191.0848	1	C15H11+
192.0927	2	C15H12+
193.1014	6	C15H13+
205.1014	2	C16H13+
206.1095	3	C16H14+
207.0808	1	C15H11O+
207.1174	2	C16H15+
209.0961	5	C15H13O+
221.0963	5	C16H13O+
243.1171	2	C19H15+
253.1009	1	C20H13+
254.1095	3	C20H14+
270.1041	1	C20H14O+
271.1124	1	C20H15O+
283.1121	1	C21H15O+
285.1277	4	C21H17O+
298.1358	2	C22H18O+
300.1519	2	C22H20O+
372.2323	3	C26H30NO+
