Mass spectrum: Norethisterone / norethindrone; LC-ESI-ITFT; MS2; CE: 35; R=15000; [M+H]+
Name: Norethisterone / norethindrone
Name: Norethindrone
Name: (8R,9S,10R,13S,14S,17R)-17-Ethynyl-17-hydroxy-13-methyl-1,2,6,7,8,9,10,11,12,14,15,16-dodecahydrocyclopenta[a]phenanthren-3-one
Formula: C20H26O2
Exact mass: 298.1933
SMILES: C[C@]12CC[C@H]3[C@@H](CCC4=CC(=O)CC[C@H]34)[C@@H]1CC[C@@]2(O)C#C
InChI: InChI=1S/C20H26O2/c1-3-20(22)11-9-18-17-6-4-13-12-14(21)5-7-15(13)16(17)8-10-19(18,20)2/h1,12,15-18,22H,4-11H2,2H3/t15-,16+,17+,18-,19-,20-/m0/s1
Instrument: LTQ Orbitrap XL Thermo Scientific
Instrument type: LC-ESI-ITFT
Ms type: MS2
Ion mode: POSITIVE
Ionization: ESI
Fragmentation mode: CID
Collision energy: 35 (nominal)
Resolution: 15000
Column name: Kinetex Core-Shell C18 2.6 um, 3.0 x 100 mm, Phenomenex
Retention time: 24.366 min
Base peak: 287.1996
Precursor m/z: 299.2006
Precursor type: [M+H]+
m/z	relative intensity	assigned
91.0541	49	C7H7+
93.0698	29	C7H9+
95.0853	30	C7H11+
97.0647	9	C6H9O+
105.0697	83	C8H9+
107.049	60	C7H7O+
107.0854	47	C8H11+
109.0646	120	C7H9O+
109.1008	12	C8H13+
111.0803	25	C7H11O+
115.0538	21	C9H7+
117.0697	50	C9H9+
119.0853	180	C9H11+
121.0644	22	C8H9O+
121.101	36	C9H13+
123.0802	42	C8H11O+
128.0616	17	C10H8+
129.0696	97	C10H9+
131.0853	194	C10H11+
133.0645	29	C9H9O+
133.101	108	C10H13+
135.0803	99	C9H11O+
135.1167	37	C10H15+
137.0961	25	C9H13O+
141.0697	51	C11H9+
143.0853	185	C11H11+
145.0647	20	C10H9O+
145.1009	338	C11H13+
147.0802	52	C10H11O+
147.1167	69	C11H15+
149.0959	109	C10H13O+
149.1321	27	C11H17+
151.1118	8	C10H15O+
153.0704	6	C12H9+
154.0772	7	C12H10+
155.0854	103	C12H11+
157.0645	38	C11H9O+
157.1009	191	C12H13+
159.0802	82	C11H11O+
159.1166	132	C12H15+
161.0959	73	C11H13O+
161.1323	33	C12H17+
163.1116	101	C11H15O+
165.07	11	C13H9+
166.077	5	C13H10+
167.0853	77	C13H11+
169.1009	285	C13H13+
171.0802	27	C12H11O+
171.1166	446	C13H15+
173.0959	61	C12H13O+
173.1322	188	C13H17+
175.1114	90	C12H15O+
175.1483	8	C13H19+
177.1271	22	C12H17O+
179.0854	33	C14H11+
181.1009	174	C14H13+
183.1166	250	C14H15+
185.0958	163	C13H13O+
185.1322	182	C14H17+
187.1115	137	C13H15O+
187.148	26	C14H19+
189.1271	75	C13H17O+
191.1431	22	C13H19O+
193.101	81	C15H13+
194.1095	6	C15H14+
195.1166	205	C15H15+
197.0956	25	C14H13O+
197.1322	243	C15H17+
199.1114	103	C14H15O+
199.1478	133	C15H19+
201.127	104	C14H17O+
201.1639	18	C15H21+
203.1431	30	C14H19O+
206.1083	6	C16H14+
207.1166	247	C16H15+
208.1248	14	C16H16+
209.1322	95	C16H17+
211.1114	81	C15H15O+
211.1479	217	C16H19+
213.1271	74	C15H17O+
213.1635	164	C16H21+
215.1427	53	C15H19O+
219.1165	18	C17H15+
220.1243	12	C17H16+
221.1321	430	C17H17+
222.1399	23	C17H18+
223.1478	595	C17H19+
225.127	145	C16H17O+
225.1635	63	C17H21+
227.1426	55	C16H19O+
229.1582	63	C16H21O+
231.174	408	C16H23O+
233.1328	10	C18H17+
234.1401	28	C18H18+
235.1478	273	C18H19+
237.1634	138	C18H21+
238.1707	11	C18H22+
239.1427	127	C17H19O+
239.1791	359	C18H23+
241.1584	156	C17H21O+
248.1558	54	C19H20+
252.1504	7	C18H20O+
253.1584	198	C18H21O+
253.1947	95	C19H25+
255.174	33	C18H23O+
257.1897	119	C18H25O+
261.1629	13	C20H21+
263.179	611	C20H23+
266.1657	19	C19H22O+
271.1697	9	C18H23O2+
281.1895	999	C20H25O+
299.2002	665	C20H27O2+
