Mass spectrum: Tramadol; LC-ESI-ITFT; MS2; CE: 55; R=15000; [M+H]+
Name: Tramadol
Name: (1R,2R)-2-[(Dimethylamino)methyl]-1-(3-methoxyphenyl)cyclohexan-1-ol
Formula: C16H25NO2
Exact mass: 263.1885
SMILES: COC1=CC=CC(=C1)[C@@]1(O)CCCC[C@@H]1CN(C)C
InChI: InChI=1S/C16H25NO2/c1-17(2)12-14-7-4-5-10-16(14,18)13-8-6-9-15(11-13)19-3/h6,8-9,11,14,18H,4-5,7,10,12H2,1-3H3/t14-,16+/m1/s1
Instrument: LTQ Orbitrap XL Thermo Scientific
Instrument type: LC-ESI-ITFT
Ms type: MS2
Ion mode: POSITIVE
Ionization: ESI
Fragmentation mode: CID
Collision energy: 55 (nominal)
Resolution: 15000
Column name: Kinetex Core-Shell C18 2.6 um, 3.0 x 100 mm, Phenomenex
Retention time: 16.697 min
Base peak: 163.1328
Precursor m/z: 264.1958
Precursor type: [M+H]+
m/z	relative intensity	assigned
187.1119	61	C13H15O+
246.1855	999	C16H24NO+
