Mass spectrum: Methocarbamol; LC-ESI-ITFT; MS2; CE: 100%; R=15000; [M+H]+
Name: Methocarbamol
Name: [2-hydroxy-3-(2-methoxyphenoxy)propyl] carbamate
Formula: C11H15NO5
Exact mass: 241.0950
SMILES: COC1=C(OCC(O)COC(N)=O)C=CC=C1
InChI: InChI=1S/C11H15NO5/c1-15-9-4-2-3-5-10(9)16-6-8(13)7-17-11(12)14/h2-5,8,13H,6-7H2,1H3,(H2,12,14)
Instrument: LTQ Orbitrap XL Thermo Scientific
Instrument type: LC-ESI-ITFT
Ms type: MS2
Ion mode: POSITIVE
Ionization: ESI
Fragmentation mode: HCD
Collision energy: 100 % (nominal)
Resolution: 15000
Column name: Kinetex Evo C18 2.6 um 50 x 2.1 mm
Retention time: 7.015 min
Base peak: 264.084
Precursor m/z: 242.1023
Precursor type: [M+H]+
m/z	relative intensity	assigned
62.0235	150	CH4NO2+
65.0385	390	C5H5+
77.0386	999	C6H5+
79.0543	443	C6H7+
91.0543	448	C7H7+
92.0256	63	C6H4O+
93.0333	76	C6H5O+
95.0492	481	C6H7O+
103.0542	573	C8H7+
105.0699	265	C8H9+
109.0281	88	C6H5O2+
110.0363	435	C6H6O2+
118.0497	40	C4H8NO3+
120.057	113	C8H8O+
121.0284	477	C7H5O2+
122.0362	900	C7H6O2+
135.0801	46	C9H11O+
