Mass spectrum: Bisphenol S; LC-ESI-ITFT; MS2; CE: 35; R=15000; [M-H]-
Name: Bisphenol S
Name: 4,4`-Sulfonyldiphenol
Name: 4-(4-Hydroxyphenyl)sulfonylphenol
Formula: C12H10O4S
Exact mass: 250.0300
SMILES: OC1=CC=C(C=C1)S(=O)(=O)C1=CC=C(O)C=C1
InChI: InChI=1S/C12H10O4S/c13-9-1-5-11(6-2-9)17(15,16)12-7-3-10(14)4-8-12/h1-8,13-14H
Instrument: LTQ Orbitrap XL Thermo Scientific
Instrument type: LC-ESI-ITFT
Ms type: MS2
Ion mode: NEGATIVE
Ionization: ESI
Fragmentation mode: CID
Collision energy: 35 (nominal)
Resolution: 15000
Column name: Kinetex Core-Shell C18 2.6 um, 3.0 x 100 mm, Phenomenex
Retention time: 19.259 min
Base peak: 138.0198
Precursor m/z: 249.0227
Precursor type: [M-H]-
m/z	relative intensity	assigned
92.0267	33	C6H4O-
108.0217	999	C6H4O2-
155.9886	725	C6H4O3S-
157.0658	38	C11H9O-
184.0529	346	C12H8O2-
185.0608	495	C12H9O2-
249.0225	204	C12H9O4S-
