Mass spectrum: Lauric isopropanolamide; LC-ESI-ITFT; MS2; CE: 60%; R=15000; [M+H]+
Name: Lauric isopropanolamide
Name: N-(2-hydroxypropyl)dodecanamide
Formula: C15H31NO2
Exact mass: 257.235479232
SMILES: CCCCCCCCCCCC(=O)NCC(C)O
InChI: InChI=1S/C15H31NO2/c1-3-4-5-6-7-8-9-10-11-12-15(18)16-13-14(2)17/h14,17H,3-13H2,1-2H3,(H,16,18)
Instrument: LTQ Orbitrap XL Thermo Scientific
Instrument type: LC-ESI-ITFT
Ms type: MS2
Ion mode: POSITIVE
Ionization: ESI
Fragmentation mode: HCD
Collision energy: 60 % (nominal)
Resolution: 15000
Column name: Kinetex Evo C18 2.6 um 50 x 2.1 mm
Retention time: 13.059 min
Base peak: 258.2432
Precursor m/z: 258.2428
Precursor type: [M+H]+
Precursor intensity: 4135617.25
m/z	relative intensity	assigned
67.054	46	C5H7+
69.0696	13	C5H9+
71.0853	171	C5H11+
76.0755	999	C3H10NO+
81.0697	52	C6H9+
83.0855	26	C6H11+
85.101	66	C6H13+
95.0854	148	C7H11+
97.101	11	C7H13+
109.101	51	C8H13+
123.1166	6	C9H15+
240.2321	28	C15H30NO+
