Mass spectrum: Acetamiprid; LC-ESI-ITFT; MS2; CE: 20%; R=15000; [M+H]+
Name: Acetamiprid
Name: N-[(6-chloropyridin-3-yl)methyl]-N`-cyano-N-methylethanimidamide
Formula: C10H11ClN4
Exact mass: 222.067224032
SMILES: CN(CC1=CC=C(Cl)N=C1)C(C)=NC#N
InChI: InChI=1S/C10H11ClN4/c1-8(14-7-12)15(2)6-9-3-4-10(11)13-5-9/h3-5H,6H2,1-2H3
Instrument: LTQ Orbitrap XL Thermo Scientific
Instrument type: LC-ESI-ITFT
Ms type: MS2
Ion mode: POSITIVE
Ionization: ESI
Fragmentation mode: HCD
Collision energy: 20 % (nominal)
Resolution: 15000
Column name: Kinetex Evo C18 2.6 um 50 x 2.1 mm
Retention time: 6.761 min
Base peak: 223.075
Precursor m/z: 223.0745
Precursor type: [M+H]+
Precursor intensity: 4308474
m/z	relative intensity	assigned
126.0105	57	C6H5ClN+
181.0528	4	C9H10ClN2+
187.0977	6	C10H11N4+
196.0635	5	C9H11ClN3+
206.048	3	C10H9ClN3+
223.0744	999	C10H12ClN4+
