Mass spectrum: Thiacloprid; LC-ESI-ITFT; MS2; CE: 55; R=15000; [M+H]+
Name: Thiacloprid
Formula: C10H9ClN4S
Exact mass: 252.0236
SMILES: C1CSC(=NC#N)N1CC2=CN=C(C=C2)Cl
InChI: InChI=1S/C10H9ClN4S/c11-9-2-1-8(5-13-9)6-15-3-4-16-10(15)14-7-12/h1-2,5H,3-4,6H2
Instrument: LTQ Orbitrap XL Thermo Scientific
Instrument type: LC-ESI-ITFT
Ms type: MS2
Ion mode: POSITIVE
Ionization: ESI
Fragmentation mode: HCD
Collision energy: 55 (nominal)
Resolution: 15000
Column name: Kinetex Core-Shell C18 2.6 um, 3.0 x 100 mm, Phenomenex
Retention time: 19.570 min
Base peak: 163.1327
Precursor m/z: 253.0309
Precursor type: [M+H]+
m/z	relative intensity	assigned
72.9838	1	C3H2Cl+
90.0338	20	C6H4N+
91.0415	1	C6H5N+
98.9995	7	C5H4Cl+
126.0103	999	C6H5ClN+
144.021	6	C6H7ClNO+
151.0058	5	C7H4ClN2+
157.0506	1	C8H5N4+
186.0135	2	C8H9ClNS+
190.0432	1	C9H8N3S+
211.0094	2	C9H8ClN2S+
217.0546	1	C10H9N4S+
226.0201	2	C9H9ClN3S+
236.0048	1	C10H7ClN3S+
253.0308	10	C10H10ClN4S+
