Mass spectrum: Spiroxamine; LC-ESI-ITFT; MS2; CE: 55; R=15000; [M+H]+
Name: Spiroxamine
Name: N-[(8-Tert-butyl-1,4-dioxaspiro[4.5]decan-3-yl)methyl]-N-ethylpropan-1-amine
Formula: C18H35NO2
Exact mass: 297.2668
SMILES: CCCN(CC)CC1COC2(CCC(CC2)C(C)(C)C)O1
InChI: InChI=1S/C18H35NO2/c1-6-12-19(7-2)13-16-14-20-18(21-16)10-8-15(9-11-18)17(3,4)5/h15-16H,6-14H2,1-5H3
Instrument: LTQ Orbitrap XL Thermo Scientific
Instrument type: LC-ESI-ITFT
Ms type: MS2
Ion mode: POSITIVE
Ionization: ESI
Fragmentation mode: HCD
Collision energy: 55 (nominal)
Resolution: 15000
Column name: Kinetex Core-Shell C18 2.6 um, 3.0 x 100 mm, Phenomenex
Retention time: 22.891 min
Base peak: 298.2736
Precursor m/z: 298.2741
Precursor type: [M+H]+
m/z	relative intensity	assigned
72.0807	44	C4H10N+
84.0807	5	C5H10N+
86.0965	4	C5H12N+
98.0965	1	C6H12N+
100.112	492	C6H14N+
102.0912	16	C5H12NO+
116.1071	2	C6H14NO+
126.1276	11	C8H16N+
144.1381	999	C8H18NO+
146.0965	1	C10H12N+
160.1121	12	C11H14N+
160.1331	5	C8H18NO2+
174.1277	5	C12H16N+
176.1433	2	C12H18N+
202.1227	19	C13H16NO+
298.2745	9	C18H36NO2+
