Mass spectrum: Quinmerac BH518-2; LC-ESI-ITFT; MS2; CE: 80%; R=15000; [M+H]+
Name: Quinmerac BH518-2
Name: 7-chloroquinoline-3,8-dicarboxylic acid
Formula: C11H6ClNO4
Exact mass: 250.998535352
SMILES: OC(=O)C1=CN=C2C(C=CC(Cl)=C2C(O)=O)=C1
InChI: InChI=1S/C11H6ClNO4/c12-7-2-1-5-3-6(10(14)15)4-13-9(5)8(7)11(16)17/h1-4H,(H,14,15)(H,16,17)
Instrument: LTQ Orbitrap XL Thermo Scientific
Instrument type: LC-ESI-ITFT
Ms type: MS2
Ion mode: POSITIVE
Ionization: ESI
Fragmentation mode: HCD
Collision energy: 80 % (nominal)
Resolution: 15000
Column name: Kinetex Evo C18 2.6 um 50 x 2.1 mm
Retention time: 7.320 min
Base peak: 252.0067
Precursor m/z: 252.0058
Precursor type: [M+H]+
Precursor intensity: 3303917.5
m/z	relative intensity	assigned
123.0002	28	C7H4Cl+
127.0422	423	C9H5N+
150.0112	294	C8H5ClN+
154.0407	188	C11H6O+
162.0112	953	C9H5ClN+
162.9952	12	C9H4ClO+
163.9905	83	C8H3ClNO+
164.0019	7	C9H5ClO+
178.0063	132	C9H5ClNO+
180.0219	45	C9H7ClNO+
187.9906	142	C10H3ClNO+
188.0016	11	C11H5ClO+
190.0064	19	C10H5ClNO+
206.0012	335	C10H5ClNO2+
224.0119	554	C10H7ClNO3+
233.9962	999	C11H5ClNO3+
252.0068	73	C11H7ClNO4+
