Mass spectrum: Cyclophosphamide; LC-ESI-ITFT; MS2; CE: 90%; R=15000; [M+H]+
Name: Cyclophosphamide
Name: N,N-bis(2-chloroethyl)-2-oxo-1,3,2lambda5-oxazaphosphinan-2-amine
Formula: C7H15Cl2N2O2P
Exact mass: 260.02481971
SMILES: ClCCN(CCCl)P1(=O)NCCCO1
InChI: InChI=1S/C7H15Cl2N2O2P/c8-2-5-11(6-3-9)14(12)10-4-1-7-13-14/h1-7H2,(H,10,12)
Instrument: LTQ Orbitrap XL Thermo Scientific
Instrument type: LC-ESI-ITFT
Ms type: MS2
Ion mode: POSITIVE
Ionization: ESI
Fragmentation mode: HCD
Collision energy: 90 % (nominal)
Resolution: 15000
Column name: Kinetex Evo C18 2.6 um 50 x 2.1 mm
Retention time: 7.502 min
Base peak: 261.0332
Precursor m/z: 261.0321
Precursor type: [M+H]+
Precursor intensity: 9886308
m/z	relative intensity	assigned
54.0338	19	C3H4N+
56.0494	644	C3H6N+
57.0573	28	C3H7N+
58.065	309	C3H8N+
62.9995	999	C2H4Cl+
70.0651	77	C4H8N+
78.0106	142	C2H5ClN+
91.9898	39	C2H3ClNO+
106.042	223	ClH12N2P+
110.0004	58	C2H5ClNO2+
111.9718	25	C2H4Cl2N+
112.016	94	C2H7ClNO2+
120.0211	211	C4H7ClNO+
124.0159	18	C3H7ClNO2+
140.0031	997	Cl2H11N2P+
142.0188	212	Cl2H13N2P+
