Mass spectrum: Verapamil; LC-ESI-ITFT; MS2; CE: 55; R=15000; [M+H]+
Name: Verapamil
Name: 2-(3,4-Dimethoxyphenyl)-5-[2-(3,4-dimethoxyphenyl)ethyl-methylamino]-2-propan-2-ylpentanenitrile
Formula: C27H38N2O4
Exact mass: 454.2832
SMILES: COC1=CC=C(CCN(C)CCCC(C#N)(C(C)C)C2=CC(OC)=C(OC)C=C2)C=C1OC
InChI: InChI=1S/C27H38N2O4/c1-20(2)27(19-28,22-10-12-24(31-5)26(18-22)33-7)14-8-15-29(3)16-13-21-9-11-23(30-4)25(17-21)32-6/h9-12,17-18,20H,8,13-16H2,1-7H3
Instrument: LTQ Orbitrap XL Thermo Scientific
Instrument type: LC-ESI-ITFT
Ms type: MS2
Ion mode: POSITIVE
Ionization: ESI
Fragmentation mode: CID
Collision energy: 55 (nominal)
Resolution: 15000
Column name: Kinetex Core-Shell C18 2.6 um, 3.0 x 100 mm, Phenomenex
Retention time: 20.942 min
Base peak: 455.29
Precursor m/z: 455.2904
Precursor type: [M+H]+
m/z	relative intensity	assigned
131.0496	2	C9H7O+
133.065	8	C9H9O+
134.0728	3	C9H10O+
135.0444	26	C8H7O2+
135.0809	2	C9H11O+
149.0597	6	C9H9O2+
150.0678	128	C9H10O2+
151.0754	4	C9H11O2+
165.0913	831	C10H13O2+
166.0946	10	C5H14N2O4+
177.0915	5	C11H13O2+
218.1177	3	C13H16NO2+
233.1545	6	C15H21O2+
243.1386	8	C16H19O2+
245.1409	2	C15H19NO2+
260.1651	145	C16H22NO2+
261.1607	10	C15H21N2O2+
264.1962	4	C16H26NO2+
291.2074	8	C17H27N2O2+
303.2074	999	C18H27N2O2+
386.2332	15	C23H32NO4+
