Mass spectrum: Tebuconazol; LC-ESI-ITFT; MS2; CE: 55; R=15000; [M+H]+
Name: Tebuconazol
Name: Tebuconazole
Name: 1-(4-Chlorophenyl)-4,4-dimethyl-3-(1,2,4-triazol-1-ylmethyl)pentan-3-ol
Formula: C16H22ClN3O
Exact mass: 307.1451
SMILES: CC(C)(C)C(O)(CCC1=CC=C(Cl)C=C1)CN1C=NC=N1
InChI: InChI=1S/C16H22ClN3O/c1-15(2,3)16(21,10-20-12-18-11-19-20)9-8-13-4-6-14(17)7-5-13/h4-7,11-12,21H,8-10H2,1-3H3
Instrument: LTQ Orbitrap XL Thermo Scientific
Instrument type: LC-ESI-ITFT
Ms type: MS2
Ion mode: POSITIVE
Ionization: ESI
Fragmentation mode: CID
Collision energy: 55 (nominal)
Resolution: 15000
Column name: Kinetex Core-Shell C18 2.6 um, 3.0 x 100 mm, Phenomenex
Retention time: 25.941 min
Base peak: 163.1327
Precursor m/z: 308.1524
Precursor type: [M+H]+
m/z	relative intensity	assigned
125.0151	277	C7H6Cl+
139.0308	467	C8H8Cl+
151.0307	999	C9H8Cl+
165.0465	843	C10H10Cl+
179.0621	123	C11H12Cl+
181.0775	179	C11H14Cl+
201.9822	145	C11H3ClO2+
244.0286	344	C14H9ClO2+
290.1417	895	C16H21ClN3+
