Mass spectrum: Diazepam; LC-ESI-ITFT; MS2; CE: 30%; R=15000; [M+H]+
Name: Diazepam
Name: 7-chloro-1-methyl-5-phenyl-3H-1,4-benzodiazepin-2-one
Formula: C16H13ClN2O
Exact mass: 284.071640716
SMILES: CN1C2=C(C=C(Cl)C=C2)C(=NCC1=O)C1=CC=CC=C1
InChI: InChI=1S/C16H13ClN2O/c1-19-14-8-7-12(17)9-13(14)16(18-10-15(19)20)11-5-3-2-4-6-11/h2-9H,10H2,1H3
Instrument: LTQ Orbitrap XL Thermo Scientific
Instrument type: LC-ESI-ITFT
Ms type: MS2
Ion mode: POSITIVE
Ionization: ESI
Fragmentation mode: HCD
Collision energy: 30 % (nominal)
Resolution: 15000
Column name: Kinetex Evo C18 2.6 um 50 x 2.1 mm
Retention time: 10.915 min
Base peak: 372.2329
Precursor m/z: 285.0789
Precursor type: [M+H]+
Precursor intensity: 50755136
m/z	relative intensity	assigned
105.0334	3	C7H5O+
154.0418	6	C8H9ClN+
182.0363	3	C9H9ClNO+
222.115	2	C15H14N2+
228.0574	2	C14H11ClN+
257.0837	12	C15H14ClN2+
285.0786	999	C16H14ClN2O+
