Mass spectrum: 1,4-Chrysenequinone; APCI-ITFT; MS2; CE: 35%; R=30000; [M]-
Name: 1,4-Chrysenequinone
Name: chrysene-1,4-dione
Formula: C18H10O2
Exact mass: 258.0681
SMILES: O=C\4c3c(ccc2c1ccccc1ccc23)C(=O)/C=C/4
InChI: InChI=1S/C18H10O2/c19-16-9-10-17(20)18-14-6-5-11-3-1-2-4-12(11)13(14)7-8-15(16)18/h1-10H
Instrument: LTQ Orbitrap XL Thermo Scientific
Instrument type: APCI-ITFT
Ms type: MS2
Ion mode: NEGATIVE
Ionization: APCI
Fragmentation mode: CID
Collision energy: 35 % (nominal)
Resolution: 30000
Column name: N/A
Retention time: N/A min
Base peak: 258.0686
Precursor m/z: 258.0686
Precursor type: [M]-
m/z	relative intensity	assigned
80.0504	513	C5H6N-
258.0682	999	C18H10O2-
