Mass spectrum: 1-hydroxypyrene; APCI-ITFT; MS2; CE: 35%; R=30000; [M+H]+
Name: 1-hydroxypyrene
Name: pyren-1-ol
Formula: C16H10O
Exact mass: 218.0732
SMILES: Oc4ccc2ccc1cccc3c1c2c4cc3
InChI: InChI=1S/C16H10O/c17-14-9-7-12-5-4-10-2-1-3-11-6-8-13(14)16(12)15(10)11/h1-9,17H
Instrument: LTQ Orbitrap XL Thermo Scientific
Instrument type: APCI-ITFT
Ms type: MS2
Ion mode: POSITIVE
Ionization: APCI
Fragmentation mode: CID
Collision energy: 35 % (nominal)
Resolution: 30000
Column name: N/A
Retention time: N/A min
Base peak: 219.0804
Precursor m/z: 219.0804
Precursor type: [M+H]+
m/z	relative intensity	assigned
77.0385	4	C6H5+
138.0343	1	C10H4N+
189.07	3	C15H9+
190.0732	1	C10H10N2O2+
190.0777	15	C15H10+
191.0854	73	C15H11+
201.0697	999	C16H9+
202.0775	97	C16H10+
203.1428	100	
218.0722	5	C16H10O+
219.08	24	C16H11O+
229.0767	2	C16H9N2+
