Mass spectrum: N,N`-dimethyl-N,N`-diphenylurea; ESI-ITFT; MS2; CE: 35%; R=30000; [M+H]+
Name: N,N`-dimethyl-N,N`-diphenylurea
Name: 1,3-dimethyl-1,3-diphenylurea
Formula: C15H16N2O
Exact mass: 240.1263
SMILES: O=C(N(c1ccccc1)C)N(c2ccccc2)C
InChI: InChI=1S/C15H16N2O/c1-16(13-9-5-3-6-10-13)15(18)17(2)14-11-7-4-8-12-14/h3-12H,1-2H3
Instrument: LTQ Orbitrap XL Thermo Scientific
Instrument type: ESI-ITFT
Ms type: MS2
Ion mode: POSITIVE
Ionization: ESI
Fragmentation mode: CID
Collision energy: 35 % (nominal)
Resolution: 30000
Column name: N/A
Retention time: N/A min
Base peak: 241.1335
Precursor m/z: 241.1335
Precursor type: [M+H]+
m/z	relative intensity	assigned
77.0386	1	C6H5+
79.0542	1	C6H7+
106.065	70	C7H8N+
119.0362	1	C7H5NO+
134.0599	999	C8H8NO+
184.1076	1	C8H14N3O2+
241.1336	11	C15H17N2O+
