Mass spectrum: Candesartan; LC-ESI-ITFT; MS2; CE: 80%; R=30000; [M+H]+
Name: Candesartan
Name: 2-Ethoxy-3-[[4-[2-(2H-tetrazol-5-yl)phenyl]phenyl]methyl]benzimidazole-4-carboxylic acid
Formula: C24H20N6O3
Exact mass: 440.1597
SMILES: CCOc1nc2cccc(c2n1Cc3ccc(cc3)c4ccccc4c5[nH]nnn5)C(=O)O
InChI: InChI=1S/C24H20N6O3/c1-2-33-24-25-20-9-5-8-19(23(31)32)21(20)30(24)14-15-10-12-16(13-11-15)17-6-3-4-7-18(17)22-26-28-29-27-22/h3-13H,2,14H2,1H3,(H,31,32)(H,26,27,28,29)
Instrument: LTQ Orbitrap XL Thermo Scientific
Instrument type: LC-ESI-ITFT
Ms type: MS2
Ion mode: POSITIVE
Ionization: ESI
Fragmentation mode: HCD
Collision energy: 80 % (nominal)
Resolution: 30000
Column name: Accucore PhenylHexyl 2.6um, 3x150mm, Thermo
Retention time: 25.163 min
Base peak: 441.166
Precursor m/z: 441.167
Precursor type: [M+H]+
m/z	relative intensity	assigned
75.0542	86	H5N5+
86.1174	79	C2H16NO2+
152.0622	321	C12H8+
153.0702	343	C12H9+
161.035	105	C8H5N2O2+
165.07	999	C13H9+
177.0577	146	C13H7N+
177.07	112	C14H9+
178.0655	119	C13H8N+
178.078	566	C14H10+
179.0192	78	C6H3N4O3+
179.0732	215	C13H9N+
180.0806	474	C13H10N+
190.0652	807	C14H8N+
191.0726	355	C14H9N+
192.0682	233	C13H8N2+
192.0809	498	C14H10N+
193.0894	148	C14H11N+
202.0696	80	C6H10N4O4+
203.0685	79	C10H9N3O2+
205.0763	439	C14H9N2+
206.0837	140	C14H10N2+
250.1275	96	C9H14N8O+
302.1165	81	C18H14N4O+
