Mass spectrum: 1,5-dihydroxyanthraquinone; ESI-ITFT; MS2; CE: 35%; R=30000; [M+H]+
Name: 1,5-dihydroxyanthraquinone
Name: 1,5-dihydroxyanthracene-9,10-dione
Formula: C14H8O4
Exact mass: 240.0423
SMILES: O=C2c1c(cccc1O)C(=O)c3c2cccc3O
InChI: InChI=1S/C14H8O4/c15-9-5-1-3-7-11(9)14(18)8-4-2-6-10(16)12(8)13(7)17/h1-6,15-16H
Instrument: LTQ Orbitrap XL Thermo Scientific
Instrument type: ESI-ITFT
Ms type: MS2
Ion mode: POSITIVE
Ionization: ESI
Fragmentation mode: CID
Collision energy: 35 % (nominal)
Resolution: 30000
Column name: N/A
Retention time: N/A min
Base peak: 241.0495
Precursor m/z: 241.0495
Precursor type: [M+H]+
m/z	relative intensity	assigned
77.0385	19	C6H5+
93.0209	2	C5H3NO+
103.0177	3	C7H3O+
105.0447	3	C6H5N2+
121.0284	421	C7H5O2+
129.0702	3	C10H9+
134.06	26	C8H8NO+
141.0699	137	C11H9+
147.0078	5	C8H3O3+
151.0544	3	C12H7+
152.062	6	C12H8+
153.0697	7	C12H9+
155.049	2	C11H7O+
157.0648	41	C11H9O+
167.0491	12	C12H7O+
169.0648	82	C12H9O+
179.049	4	C13H7O+
185.0597	149	C12H9O2+
195.0439	22	C13H7O2+
197.0597	60	C13H9O2+
199.0389	95	C12H7O3+
213.0546	999	C13H9O3+
223.0391	53	C14H7O3+
223.0503	17	C13H7N2O2+
241.0497	77	C14H9O4+
