Mass spectrum: 2-nitro-9-fluorenone; ESI-ITFT; MS2; CE: 35%; R=30000; [M+H]+
Name: 2-nitro-9-fluorenone
Name: 2-nitrofluoren-9-one
Formula: C13H7NO3
Exact mass: 225.0426
SMILES: c1ccc2c(c1)c1c(C2=O)cc(cc1)[N+](=O)[O-]
InChI: InChI=1S/C13H7NO3/c15-13-11-4-2-1-3-9(11)10-6-5-8(14(16)17)7-12(10)13/h1-7H
Instrument: LTQ Orbitrap XL Thermo Scientific
Instrument type: ESI-ITFT
Ms type: MS2
Ion mode: POSITIVE
Ionization: ESI
Fragmentation mode: CID
Collision energy: 35 % (nominal)
Resolution: 30000
Column name: N/A
Retention time: N/A min
Base peak: 226.0499
Precursor m/z: 226.0499
Precursor type: [M+H]+
m/z	relative intensity	assigned
140.997	26	C9HO2+
167.0241	24	C10H3N2O+
168.057	99	C12H8O+
180.057	999	C13H8O+
196.0477	68	C8H8N2O4+
196.0514	46	C13H8O2+
209.047	81	C13H7NO2+
