Mass spectrum: 1,3-dinitrobenzene; APCI-ITFT; MS2; CE: 35%; R=30000; [M]-
Name: 1,3-dinitrobenzene
Formula: C6H4N2O4
Exact mass: 168.0171
SMILES: c1cc(cc(c1)[N+](=O)[O-])[N+](=O)[O-]
InChI: InChI=1S/C6H4N2O4/c9-7(10)5-2-1-3-6(4-5)8(11)12/h1-4H
Instrument: LTQ Orbitrap XL Thermo Scientific
Instrument type: APCI-ITFT
Ms type: MS2
Ion mode: NEGATIVE
Ionization: APCI
Fragmentation mode: CID
Collision energy: 35 % (nominal)
Resolution: 30000
Column name: N/A
Retention time: N/A min
Base peak: 168.0177
Precursor m/z: 168.0177
Precursor type: [M]-
m/z	relative intensity	assigned
138.0196	999	C6H4NO3-
