Mass spectrum: 2-Phenylpyridine; LC-ESI-QFT; MS2; CE: 61.67%; R=35000; [M+H]+
Name: 2-Phenylpyridine
Formula: C11H9N
Exact mass: 155.0735
SMILES: c1ccc(cc1)c2ccccn2
InChI: InChI=1S/C11H9N/c1-2-6-10(7-3-1)11-8-4-5-9-12-11/h1-9H
Instrument: Q Exactive Plus Orbitrap Thermo Scientific
Instrument type: LC-ESI-QFT
Ms type: MS2
Ion mode: POSITIVE
Ionization: ESI
Fragmentation mode: HCD
Collision energy: 61.67 % (nominal)
Resolution: 35000
Column name: Accucore PhenylHexyl 2.6um, 3x150mm, Thermo
Retention time: 17.882 min
Base peak: 156.0807
Precursor m/z: 156.0808
Precursor type: [M+H]+
m/z	relative intensity	assigned
78.0338	101	C5H4N+
96.0444	133	C5H6NO+
128.0621	14	C10H8+
129.0699	11	C10H9+
154.0653	12	C11H8N+
156.0809	999	C11H10N+
