Mass spectrum: 3-hydroxybenzo(a)pyrene; APCI-ITFT; MS2; CE: 35%; R=30000; [M+H]+
Name: 3-hydroxybenzo(a)pyrene
Name: benzo[a]pyren-3-ol
Formula: C20H12O
Exact mass: 268.0888
SMILES: Oc5ccc3ccc2c1ccccc1cc4c2c3c5cc4
InChI: InChI=1S/C20H12O/c21-18-10-7-12-5-8-16-15-4-2-1-3-13(15)11-14-6-9-17(18)19(12)20(14)16/h1-11,21H
Instrument: LTQ Orbitrap XL Thermo Scientific
Instrument type: APCI-ITFT
Ms type: MS2
Ion mode: POSITIVE
Ionization: APCI
Fragmentation mode: CID
Collision energy: 35 % (nominal)
Resolution: 30000
Column name: N/A
Retention time: N/A min
Base peak: 269.0961
Precursor m/z: 269.0961
Precursor type: [M+H]+
m/z	relative intensity	assigned
239.0853	82	C19H11+
240.0929	117	C19H12+
241.1004	67	C19H13+
251.0852	999	C20H11+
252.0929	814	C20H12+
255.0802	1	C19H11O+
267.08	12	C20H11O+
268.0878	144	C20H12O+
269.0957	17	C20H13O+
