Mass spectrum: 5-Methyl-1H-benzotriazole; LC-ESI-ITFT; MS2; CE: 80%; R=30000; [M+H]+
Name: 5-Methyl-1H-benzotriazole
Name: 5-Methyl-2H-benzotriazole
Formula: C7H7N3
Exact mass: 133.0640
SMILES: Cc1ccc2c(c1)[nH]nn2
InChI: InChI=1S/C7H7N3/c1-5-2-3-6-7(4-5)9-10-8-6/h2-4H,1H3,(H,8,9,10)
Instrument: LTQ Orbitrap XL Thermo Scientific
Instrument type: LC-ESI-ITFT
Ms type: MS2
Ion mode: POSITIVE
Ionization: ESI
Fragmentation mode: HCD
Collision energy: 80 % (nominal)
Resolution: 30000
Column name: Accucore PhenylHexyl 2.6um, 3x150mm, Thermo
Retention time: 20.608 min
Base peak: 134.071
Precursor m/z: 134.0713
Precursor type: [M+H]+
m/z	relative intensity	assigned
77.0386	599	C6H5+
78.0338	15	C5H4N+
79.0542	522	C6H7+
80.0494	21	C5H6N+
89.0386	19	C7H5+
91.0416	15	C6H5N+
95.0491	32	C6H7O+
105.0447	76	C6H5N2+
106.0651	247	C7H8N+
134.0712	999	C7H8N3+
