Mass spectrum: L-Phenylalanine; LC-ESI-QFT; MS2; CE: 50%; R=35000; [M+H]+
Name: L-Phenylalanine
Name: (2S)-2-Azaniumyl-3-phenylpropanoate
Formula: C9H11NO2
Exact mass: 165.0790
SMILES: c1ccc(cc1)C[C@@H](C(=O)O)N
InChI: InChI=1S/C9H11NO2/c10-8(9(11)12)6-7-4-2-1-3-5-7/h1-5,8H,6,10H2,(H,11,12)/t8-/m0/s1
Instrument: Q Exactive Plus Orbitrap Thermo Scientific
Instrument type: LC-ESI-QFT
Ms type: MS2
Ion mode: POSITIVE
Ionization: ESI
Fragmentation mode: HCD
Collision energy: 50 % (nominal)
Resolution: 35000
Column name: Accucore PhenylHexyl 2.6um, 3x150mm, Thermo
Retention time: 8.104 min
Base peak: 166.0862
Precursor m/z: 166.0863
Precursor type: [M+H]+
m/z	relative intensity	assigned
79.0542	13	C6H7+
91.0542	10	C7H7+
93.0698	27	C7H9+
103.0542	118	C8H7+
107.0491	19	C7H7O+
120.0807	999	C8H10N+
131.0491	23	C9H7O+
166.0862	36	C9H12NO2+
