Mass spectrum: 5-Carboline; LC-ESI-QFT; MS2; CE: 61.67%; R=35000; [M+H]+
Name: 5-Carboline
Name: 5H-Pyrido[4,3-b]indole
Formula: C11H8N2
Exact mass: 168.0687
SMILES: c1ccc2c(c1)c3cnccc3[nH]2
InChI: InChI=1S/C11H8N2/c1-2-4-10-8(3-1)9-7-12-6-5-11(9)13-10/h1-7,13H
Instrument: Q Exactive Plus Orbitrap Thermo Scientific
Instrument type: LC-ESI-QFT
Ms type: MS2
Ion mode: POSITIVE
Ionization: ESI
Fragmentation mode: HCD
Collision energy: 61.67 % (nominal)
Resolution: 35000
Column name: Accucore PhenylHexyl 2.6um, 3x150mm, Thermo
Retention time: 15.941 min
Base peak: 169.0759
Precursor m/z: 169.076
Precursor type: [M+H]+
m/z	relative intensity	assigned
115.054	82	C9H7+
142.0651	24	C10H8N+
168.0683	40	C11H8N2+
169.0761	999	C11H9N2+
