Mass spectrum: 1-Hydroxyanthraquinone; ESI-ITFT; MS2; CE: 35%; R=30000; [M+H]+
Name: 1-Hydroxyanthraquinone
Name: 1-hydroxyanthracene-9,10-dione
Formula: C14H8O3
Exact mass: 224.0473
SMILES: c1ccc2c(c1)C(=O)c1c(C2=O)c(ccc1)O
InChI: InChI=1S/C14H8O3/c15-11-7-3-6-10-12(11)14(17)9-5-2-1-4-8(9)13(10)16/h1-7,15H
Instrument: LTQ Orbitrap XL Thermo Scientific
Instrument type: ESI-ITFT
Ms type: MS2
Ion mode: POSITIVE
Ionization: ESI
Fragmentation mode: CID
Collision energy: 35 % (nominal)
Resolution: 30000
Column name: N/A
Retention time: N/A min
Base peak: 225.0546
Precursor m/z: 225.0546
Precursor type: [M+H]+
m/z	relative intensity	assigned
77.0387	24	C6H5+
105.0336	184	C7H5O+
141.07	49	C11H9+
151.0545	7	C12H7+
152.0622	52	C12H8+
153.0701	222	C12H9+
169.065	176	C12H9O+
179.0495	21	C13H7O+
181.065	52	C13H9O+
183.0443	95	C12H7O2+
197.0599	999	C13H9O2+
207.0442	42	C14H7O2+
207.0555	9	C13H7N2O+
225.055	132	C14H9O3+
