Mass spectrum: 4-methyl-7-ethylaminocoumarin; LC-ESI-QFT; MS2; CE: 50%; R=35000; [M+Na]+
Name: 4-methyl-7-ethylaminocoumarin
Name: 7-(ethylamino)-4-methylcoumarin
Name: 7-(ethylamino)-4-methylchromen-2-one
Formula: C12H13NO2
Exact mass: 203.094628656
SMILES: CCNc1ccc2c(cc(=O)oc2c1)C
InChI: InChI=1S/C12H13NO2/c1-3-13-9-4-5-10-8(2)6-12(14)15-11(10)7-9/h4-7,13H,3H2,1-2H3
Instrument: Q Exactive Plus Orbitrap Thermo Scientific
Instrument type: LC-ESI-QFT
Ms type: MS2
Ion mode: POSITIVE
Ionization: ESI
Fragmentation mode: HCD
Collision energy: 50 % (nominal)
Resolution: 35000
Column name: Accucore PhenylHexyl 2.6um, 3x150mm, Thermo
Retention time: 9.644 min
Base peak: 204.1018
Precursor m/z: 226.0838
Precursor type: [M+Na]+
m/z	relative intensity	assigned
138.0918	960	C8H12NO+
179.9937	999	C8HN2NaO2+
