Mass spectrum: 2-Naphthalenamine, N-phenyl-; APCI-ITFT; MS2; CE: 35%; R=30000; [M+H]+
Name: 2-Naphthalenamine, N-phenyl-
Name: N-phenylnaphthalen-2-amine
Formula: C16H13N
Exact mass: 219.1048
SMILES: c3c(Nc1ccccc1)cc2ccccc2c3
InChI: InChI=1S/C16H13N/c1-2-8-15(9-3-1)17-16-11-10-13-6-4-5-7-14(13)12-16/h1-12,17H
Instrument: LTQ Orbitrap XL Thermo Scientific
Instrument type: APCI-ITFT
Ms type: MS2
Ion mode: POSITIVE
Ionization: APCI
Fragmentation mode: CID
Collision energy: 35 % (nominal)
Resolution: 30000
Column name: N/A
Retention time: N/A min
Base peak: 220.1121
Precursor m/z: 220.1121
Precursor type: [M+H]+
m/z	relative intensity	assigned
65.0385	1	C5H5+
92.0495	70	C6H6N+
93.0574	1	C6H7N+
104.0495	6	C7H6N+
115.0542	47	C9H7+
117.0699	5	C9H9+
128.0621	36	C10H8+
142.0653	140	C10H8N+
143.073	377	C10H9N+
165.07	1	C13H9+
167.0857	1	C13H11+
178.0779	8	C14H10+
179.0857	8	C14H11+
191.0732	4	C14H9N+
191.0857	3	C15H11+
192.0811	1	C14H10N+
193.1014	31	C15H13+
202.0779	6	C16H10+
203.0857	127	C16H11+
204.0809	29	C15H10N+
204.0935	8	C16H12+
205.0887	207	C15H11N+
217.0887	14	C16H11N+
218.0964	7	C16H12N+
219.1042	1	C16H13N+
220.1119	999	C16H14N+
231.0914	2	C16H11N2+
