Mass spectrum: 4-Aminoantipyrine; LC-ESI-ITFT; MS2; CE: 35%; R=30000; [M+H]+
Name: 4-Aminoantipyrine
Name: 4-Amino-1,5-dimethyl-2-phenylpyrazol-3-one
Formula: C11H13N3O
Exact mass: 203.1059
SMILES: Cc1c(c(=O)n(n1C)c2ccccc2)N
InChI: InChI=1S/C11H13N3O/c1-8-10(12)11(15)14(13(8)2)9-6-4-3-5-7-9/h3-7H,12H2,1-2H3
Instrument: LTQ Orbitrap XL Thermo Scientific
Instrument type: LC-ESI-ITFT
Ms type: MS2
Ion mode: POSITIVE
Ionization: ESI
Fragmentation mode: CID
Collision energy: 35 % (nominal)
Resolution: 30000
Column name: Accucore PhenylHexyl 2.6um, 3x150mm, Thermo
Retention time: 13.432 min
Base peak: 204.1128
Precursor m/z: 204.1131
Precursor type: [M+H]+
m/z	relative intensity	assigned
56.0495	58	C3H6N+
83.0604	42	C4H7N2+
85.0761	36	C4H9N2+
94.0652	60	C6H8N+
111.0554	61	C5H7N2O+
145.0761	48	C9H9N2+
146.0602	56	C9H8NO+
158.0602	30	C10H8NO+
159.0917	763	C10H11N2+
173.071	311	C10H9N2O+
176.1183	28	C10H14N3+
187.0866	999	C11H11N2O+
189.0896	115	C10H11N3O+
204.1133	623	C11H14N3O+
