Mass spectrum: 4-methyl-7-diethylaminocoumarin; LC-ESI-QFT; MS2; CE: 50%; R=35000; [M+H]+
Name: 4-methyl-7-diethylaminocoumarin
Name: 7-diethylamino-4-methylcoumarin
Name: 7-(diethylamino)-4-methylchromen-2-one
Formula: C14H17NO2
Exact mass: 231.125928784
SMILES: CCN(CC)c1ccc2c(cc(=O)oc2c1)C
InChI: InChI=1S/C14H17NO2/c1-4-15(5-2)11-6-7-12-10(3)8-14(16)17-13(12)9-11/h6-9H,4-5H2,1-3H3
Instrument: Q Exactive Plus Orbitrap Thermo Scientific
Instrument type: LC-ESI-QFT
Ms type: MS2
Ion mode: POSITIVE
Ionization: ESI
Fragmentation mode: HCD
Collision energy: 50 % (nominal)
Resolution: 35000
Column name: Accucore PhenylHexyl 2.6um, 3x150mm, Thermo
Retention time: 11.298 min
Base peak: 232.1329
Precursor m/z: 232.1332
Precursor type: [M+H]+
m/z	relative intensity	assigned
67.018	2	C4H3O+
68.0132	11	C3H2NO+
72.0809	2	C4H10N+
91.0543	2	C7H7+
96.0444	14	C5H6NO+
103.0543	2	C8H7+
105.0699	2	C8H9+
106.0651	1	C7H8N+
109.0648	1	C7H9O+
115.0543	1	C9H7+
117.0573	1	C8H7N+
117.0699	3	C9H9+
118.0652	3	C8H8N+
130.0651	4	C9H8N+
131.0494	1	C9H7O+
131.073	5	C9H9N+
132.0808	14	C9H10N+
133.0649	1	C9H9O+
134.0598	2	C8H8NO+
134.0963	1	C9H12N+
138.0913	3	C8H12NO+
144.0809	18	C10H10N+
145.0887	2	C10H11N+
146.0966	2	C10H12N+
147.0678	3	C9H9NO+
148.076	3	C9H10NO+
148.1121	11	C10H14N+
158.0964	6	C11H12N+
159.1043	6	C11H13N+
160.0758	36	C10H10NO+
160.1122	15	C11H14N+
161.0597	1	C10H9O2+
161.0836	1	C10H11NO+
161.1199	1	C11H15N+
162.0914	3	C10H12NO+
172.1122	3	C12H14N+
173.1198	3	C12H15N+
174.0915	7	C11H12NO+
175.0629	18	C10H9NO2+
175.0993	130	C11H13NO+
176.0707	27	C10H10NO2+
176.1071	39	C11H14NO+
176.1435	31	C12H18N+
186.1278	3	C13H16N+
188.0707	598	C11H10NO2+
189.0784	1	C11H11NO2+
189.1151	3	C12H15NO+
190.1228	1	C12H16NO+
202.0865	32	C12H12NO2+
203.0942	999	C12H13NO2+
204.102	345	C12H14NO2+
204.1385	18	C13H18NO+
216.1019	4	C13H14NO2+
217.1108	7	C13H15NO2+
230.1183	1	C14H16NO2+
232.1333	603	C14H18NO2+
