Mass spectrum: 4-Dimethylaminopyridine; LC-ESI-QFT; MS2; CE: 61.67%; R=35000; [M+H]+
Name: 4-Dimethylaminopyridine
Name: N,N-Dimethylpyridin-4-amine
Formula: C7H10N2
Exact mass: 122.0844
SMILES: CN(C)c1ccncc1
InChI: InChI=1S/C7H10N2/c1-9(2)7-3-5-8-6-4-7/h3-6H,1-2H3
Instrument: Q Exactive Plus Orbitrap Thermo Scientific
Instrument type: LC-ESI-QFT
Ms type: MS2
Ion mode: POSITIVE
Ionization: ESI
Fragmentation mode: HCD
Collision energy: 61.67 % (nominal)
Resolution: 35000
Column name: Accucore PhenylHexyl 2.6um, 3x150mm, Thermo
Retention time: 4.505 min
Base peak: 123.0915
Precursor m/z: 123.0917
Precursor type: [M+H]+
m/z	relative intensity	assigned
79.0416	40	C5H5N+
80.0495	35	C5H6N+
107.0604	99	C6H7N2+
108.0682	66	C6H8N2+
123.0917	999	C7H11N2+
