Mass spectrum: MeIQX; APCI-ITFT; MS2; CE: 35%; R=30000; [M+H]+
Name: MeIQX
Name: 3,8-dimethylimidazo[4,5-f]quinoxalin-2-amine
Formula: C11H11N5
Exact mass: 213.1014
SMILES: Cc1cnc2ccc3c(c2n1)nc(n3C)N
InChI: InChI=1S/C11H11N5/c1-6-5-13-7-3-4-8-10(9(7)14-6)15-11(12)16(8)2/h3-5H,1-2H3,(H2,12,15)
Instrument: LTQ Orbitrap XL Thermo Scientific
Instrument type: APCI-ITFT
Ms type: MS2
Ion mode: POSITIVE
Ionization: APCI
Fragmentation mode: CID
Collision energy: 35 % (nominal)
Resolution: 30000
Column name: N/A
Retention time: N/A min
Base peak: 214.1087
Precursor m/z: 214.1087
Precursor type: [M+H]+
m/z	relative intensity	assigned
146.0709	59	C8H8N3+
156.0553	18	C9H6N3+
158.071	3	C9H8N3+
160.0866	13	C9H10N3+
161.0818	11	C8H9N4+
170.0708	9	C10H8N3+
172.0866	140	C10H10N3+
173.0818	863	C9H9N4+
185.0817	16	C10H9N4+
186.0894	4	C10H10N4+
187.0974	311	C10H11N4+
188.0925	21	C9H10N5+
197.0817	348	C11H9N4+
198.0773	5	C10H8N5+
198.0896	24	C11H10N4+
199.0847	999	C10H9N5+
212.0925	3	C11H10N5+
214.108	373	C11H12N5+
