Mass spectrum: 2-Hydroxyanthraquinone; APCI-ITFT; MS2; CE: 35%; R=30000; [M+H]+
Name: 2-Hydroxyanthraquinone
Name: 2-hydroxyanthracene-9,10-dione
Formula: C14H8O3
Exact mass: 224.0473
SMILES: c1ccc2c(c1)C(=O)c1c(C2=O)cc(cc1)O
InChI: InChI=1S/C14H8O3/c15-8-5-6-11-12(7-8)14(17)10-4-2-1-3-9(10)13(11)16/h1-7,15H
Instrument: LTQ Orbitrap XL Thermo Scientific
Instrument type: APCI-ITFT
Ms type: MS2
Ion mode: POSITIVE
Ionization: APCI
Fragmentation mode: CID
Collision energy: 35 % (nominal)
Resolution: 30000
Column name: N/A
Retention time: N/A min
Base peak: 225.0546
Precursor m/z: 225.0546
Precursor type: [M+H]+
m/z	relative intensity	assigned
77.0385	29	C6H5+
95.049	1	C6H7O+
105.0334	179	C7H5O+
119.0125	2	C7H3O2+
141.0698	60	C11H9+
151.0543	13	C12H7+
152.0621	44	C12H8+
153.0699	222	C12H9+
169.0648	180	C12H9O+
178.0496	1	C9H8NO3+
178.0657	1	C13H8N+
179.0491	15	C13H7O+
179.0603	1	C12H7N2+
181.0648	38	C13H9O+
183.044	96	C12H7O2+
193.0649	2	C14H9O+
197.0596	999	C13H9O2+
207.0439	43	C14H7O2+
207.0552	8	C13H7N2O+
225.0543	94	C14H9O3+
