Mass spectrum: Metoprolol; LC-ESI-ITFT; MS2; CE: 80%; R=30000; [M+H]+
Name: Metoprolol
Name: 1-[4-(2-Methoxyethyl)phenoxy]-3-(propan-2-ylamino)propan-2-ol
Formula: C15H25NO3
Exact mass: 267.1834
SMILES: CC(C)NCC(COc1ccc(cc1)CCOC)O
InChI: InChI=1S/C15H25NO3/c1-12(2)16-10-14(17)11-19-15-6-4-13(5-7-15)8-9-18-3/h4-7,12,14,16-17H,8-11H2,1-3H3
Instrument: LTQ Orbitrap XL Thermo Scientific
Instrument type: LC-ESI-ITFT
Ms type: MS2
Ion mode: POSITIVE
Ionization: ESI
Fragmentation mode: HCD
Collision energy: 80 % (nominal)
Resolution: 30000
Column name: Accucore PhenylHexyl 2.6um, 3x150mm, Thermo
Retention time: 18.215 min
Base peak: 268.1901
Precursor m/z: 268.1907
Precursor type: [M+H]+
m/z	relative intensity	assigned
72.0807	251	C4H10N+
74.06	709	C3H8NO+
77.0386	192	C6H5+
79.0542	256	C6H7+
84.0807	43	C5H10N+
91.0542	542	C7H7+
92.0622	14	C7H8+
93.0698	152	C7H9+
95.0492	17	C6H7O+
98.0964	140	C6H12N+
100.1121	100	C6H14N+
103.0542	999	C8H7+
104.062	19	C8H8+
105.0698	878	C8H9+
107.049	26	C7H7O+
115.0542	127	C9H7+
116.062	97	C9H8+
116.1069	160	C6H14NO+
117.07	46	C9H9+
119.0859	27	C9H11+
120.0568	59	C8H8O+
121.0647	737	C8H9O+
129.0698	75	C10H9+
131.0491	35	C9H7O+
131.0606	18	C8H7N2+
131.0855	123	C10H11+
133.0647	639	C9H9O+
135.0804	99	C9H11O+
141.0698	54	C11H9+
143.9991	16	C12+
144.0569	126	C10H8O+
147.0803	54	C10H11O+
148.0756	138	C9H10NO+
159.0803	111	C11H11O+
163.0864	236	C9H11N2O+
169.0756	18	C11H9N2+
