Mass spectrum: L-Tryptophan; LC-ESI-QFT; MS2; CE: 50%; R=35000; [M+H]+
Name: L-Tryptophan
Name: (2S)-2-Azaniumyl-3-(1H-indol-3-yl)propanoate
Formula: C11H12N2O2
Exact mass: 204.0899
SMILES: c1ccc2c(c1)c(c[nH]2)C[C@@H](C(=O)O)N
InChI: InChI=1S/C11H12N2O2/c12-9(11(14)15)5-7-6-13-10-4-2-1-3-8(7)10/h1-4,6,9,13H,5,12H2,(H,14,15)/t9-/m0/s1
Instrument: Q Exactive Plus Orbitrap Thermo Scientific
Instrument type: LC-ESI-QFT
Ms type: MS2
Ion mode: POSITIVE
Ionization: ESI
Fragmentation mode: HCD
Collision energy: 50 % (nominal)
Resolution: 35000
Column name: Accucore PhenylHexyl 2.6um, 3x150mm, Thermo
Retention time: 13.050 min
Base peak: 205.0973
Precursor m/z: 205.0972
Precursor type: [M+H]+
m/z	relative intensity	assigned
74.0237	25	C2H4NO2+
91.0542	25	C7H7+
115.0542	48	C9H7+
117.0573	27	C8H7N+
117.0698	39	C9H9+
118.0651	589	C8H8N+
130.0651	50	C9H8N+
132.0807	132	C9H10N+
142.0651	59	C10H8N+
143.0729	96	C10H9N+
144.0808	246	C10H10N+
146.06	999	C9H8NO+
159.0916	106	C10H11N2+
160.0756	21	C10H10NO+
170.0599	91	C11H8NO+
188.0706	947	C11H10NO2+
205.0973	9	C11H13N2O2+
