Mass spectrum: Sitagliptin; LC-ESI-ITFT; MS2; CE: 35%; R=30000; [M+H]+
Name: Sitagliptin
Name: (3R)-3-Amino-1-[3-(trifluoromethyl)-6,8-dihydro-5H-[1,2,4]triazolo[4,3-a]pyrazin-7-yl]-4-(2,4,5-trifluorophenyl)butan-1-one
Formula: C16H15F6N5O
Exact mass: 407.1181
SMILES: c1c(c(cc(c1F)F)F)C[C@H](CC(=O)N2CCn3c(nnc3C(F)(F)F)C2)N
InChI: InChI=1S/C16H15F6N5O/c17-10-6-12(19)11(18)4-8(10)3-9(23)5-14(28)26-1-2-27-13(7-26)24-25-15(27)16(20,21)22/h4,6,9H,1-3,5,7,23H2/t9-/m1/s1
Instrument: LTQ Orbitrap XL Thermo Scientific
Instrument type: LC-ESI-ITFT
Ms type: MS2
Ion mode: POSITIVE
Ionization: ESI
Fragmentation mode: CID
Collision energy: 35 % (nominal)
Resolution: 30000
Column name: Accucore PhenylHexyl 2.6um, 3x150mm, Thermo
Retention time: 17.909 min
Base peak: 408.1241
Precursor m/z: 408.1254
Precursor type: [M+H]+
m/z	relative intensity	assigned
174.0526	48	C8H7F3N+
193.0697	356	C11H9F2N+
235.0801	999	C8H10F3N4O+
391.0988	108	C16H13F6N4O+
408.1255	83	C16H16F6N5O+
409.129	45	C14H16F5N7O2+
