Mass spectrum: 4-Nitroquinoline 1-oxide; APCI-ITFT; MS2; CE: 35%; R=30000; [M+H]+
Name: 4-Nitroquinoline 1-oxide
Name: 4-nitro-1-oxidoquinolin-1-ium
Formula: C9H6N2O3
Exact mass: 190.0378
SMILES: c1ccc2c(c1)c(cc[n+]2[O-])[N+](=O)[O-]
InChI: InChI=1S/C9H6N2O3/c12-10-6-5-9(11(13)14)7-3-1-2-4-8(7)10/h1-6H
Instrument: LTQ Orbitrap XL Thermo Scientific
Instrument type: APCI-ITFT
Ms type: MS2
Ion mode: POSITIVE
Ionization: APCI
Fragmentation mode: CID
Collision energy: 35 % (nominal)
Resolution: 30000
Column name: N/A
Retention time: N/A min
Base peak: 191.0451
Precursor m/z: 191.0451
Precursor type: [M+H]+
m/z	relative intensity	assigned
90.047	23	
104.0501	43	
117.058	21	
131.0132	1	C8H3O2+
144.0454	16	
145.0532	206	
160.0405	11	
161.0483	999	
174.0436	163	
