Mass spectrum: Metamitron desamino; LC-ESI-ITFT; MS2; CE: 80%; R=30000; [M+H]+
Name: Metamitron desamino
Name: 3-Methyl-6-phenyl-2H-1,2,4-triazin-5-one
Formula: C10H9N3O
Exact mass: 187.0746
SMILES: Cc1nc(c(nn1)c2ccccc2)O
InChI: InChI=1S/C10H9N3O/c1-7-11-10(14)9(13-12-7)8-5-3-2-4-6-8/h2-6H,1H3,(H,11,12,14)
Instrument: LTQ Orbitrap XL Thermo Scientific
Instrument type: LC-ESI-ITFT
Ms type: MS2
Ion mode: POSITIVE
Ionization: ESI
Fragmentation mode: HCD
Collision energy: 80 % (nominal)
Resolution: 30000
Column name: Accucore PhenylHexyl 2.6um, 3x150mm, Thermo
Retention time: 19.001 min
Base peak: 254.0592
Precursor m/z: 188.0818
Precursor type: [M+H]+
m/z	relative intensity	assigned
77.0386	855	C6H5+
85.0395	10	C3H5N2O+
91.0542	93	C7H7+
92.0495	279	C6H6N+
95.0491	47	C6H7O+
104.0495	795	C7H6N+
105.0447	150	C6H5N2+
105.0697	12	C8H9+
119.0603	563	C7H7N2+
130.0651	26	C9H8N+
131.073	20	C9H9N+
160.0868	999	C9H10N3+
188.0818	45	C10H10N3O+
