Mass spectrum: 1-Naphthol; APCI-ITFT; MS2; CE: 35%; R=30000; [M+H]+
Name: 1-Naphthol
Name: naphthalen-1-ol
Formula: C10H8O
Exact mass: 144.0575
SMILES: C1=CC=C2C(=C1)C=CC=C2O
InChI: InChI=1S/C10H8O/c11-10-7-3-5-8-4-1-2-6-9(8)10/h1-7,11H
Instrument: LTQ Orbitrap XL Thermo Scientific
Instrument type: APCI-ITFT
Ms type: MS2
Ion mode: POSITIVE
Ionization: APCI
Fragmentation mode: CID
Collision energy: 35 % (nominal)
Resolution: 30000
Column name: N/A
Retention time: N/A min
Base peak: 145.0648
Precursor m/z: 145.0648
Precursor type: [M+H]+
m/z	relative intensity	assigned
96.0076	2	C4H2NO2+
117.0697	999	C9H9+
127.0541	15	C10H7+
145.0647	87	C10H9O+
155.0604	337	C10H7N2+
