Mass spectrum: Metoprolol; LC-ESI-ITFT; MS2; CE: 35%; R=30000; [M+H]+
Name: Metoprolol
Name: 1-[4-(2-Methoxyethyl)phenoxy]-3-(propan-2-ylamino)propan-2-ol
Formula: C15H25NO3
Exact mass: 267.1834
SMILES: CC(C)NCC(COc1ccc(cc1)CCOC)O
InChI: InChI=1S/C15H25NO3/c1-12(2)16-10-14(17)11-19-15-6-4-13(5-7-15)8-9-18-3/h4-7,12,14,16-17H,8-11H2,1-3H3
Instrument: LTQ Orbitrap XL Thermo Scientific
Instrument type: LC-ESI-ITFT
Ms type: MS2
Ion mode: POSITIVE
Ionization: ESI
Fragmentation mode: CID
Collision energy: 35 % (nominal)
Resolution: 30000
Column name: Accucore PhenylHexyl 2.6um, 3x150mm, Thermo
Retention time: 18.215 min
Base peak: 268.1901
Precursor m/z: 268.1907
Precursor type: [M+H]+
m/z	relative intensity	assigned
98.0965	72	C6H12N+
116.107	441	C6H14NO+
121.0648	91	C8H9O+
131.0857	15	C10H11+
133.0648	52	C9H9O+
159.0804	205	C11H11O+
161.0961	45	C11H13O+
163.1118	17	C11H15O+
165.091	20	C10H13O2+
176.107	98	C11H14NO+
177.091	46	C11H13O2+
191.1067	543	C12H15O2+
194.1176	81	C11H16NO2+
218.154	253	C14H20NO+
226.1438	153	C12H20NO3+
250.1802	67	C15H24NO2+
268.1907	999	C15H26NO3+
