Mass spectrum: 4-methyl-7-diethylaminocoumarin; LC-ESI-QFT; MS2; CE: 50%; R=35000; [M+Na]+
Name: 4-methyl-7-diethylaminocoumarin
Name: 7-diethylamino-4-methylcoumarin
Name: 7-(diethylamino)-4-methylchromen-2-one
Formula: C14H17NO2
Exact mass: 231.125928784
SMILES: CCN(CC)c1ccc2c(cc(=O)oc2c1)C
InChI: InChI=1S/C14H17NO2/c1-4-15(5-2)11-6-7-12-10(3)8-14(16)17-13(12)9-11/h6-9H,4-5H2,1-3H3
Instrument: Q Exactive Plus Orbitrap Thermo Scientific
Instrument type: LC-ESI-QFT
Ms type: MS2
Ion mode: POSITIVE
Ionization: ESI
Fragmentation mode: HCD
Collision energy: 50 % (nominal)
Resolution: 35000
Column name: Accucore PhenylHexyl 2.6um, 3x150mm, Thermo
Retention time: 11.298 min
Base peak: 232.1331
Precursor m/z: 254.1151
Precursor type: [M+Na]+
m/z	relative intensity	assigned
218.0672	999	C9H11N2NaO3+
