Mass spectrum: 1-Hydroxyanthraquinone; APCI-ITFT; MS2; CE: 35%; R=30000; [M+H]+
Name: 1-Hydroxyanthraquinone
Name: 1-hydroxyanthracene-9,10-dione
Formula: C14H8O3
Exact mass: 224.0473
SMILES: c1ccc2c(c1)C(=O)c1c(C2=O)c(ccc1)O
InChI: InChI=1S/C14H8O3/c15-11-7-3-6-10-12(11)14(17)9-5-2-1-4-8(9)13(10)16/h1-7,15H
Instrument: LTQ Orbitrap XL Thermo Scientific
Instrument type: APCI-ITFT
Ms type: MS2
Ion mode: POSITIVE
Ionization: APCI
Fragmentation mode: CID
Collision energy: 35 % (nominal)
Resolution: 30000
Column name: N/A
Retention time: N/A min
Base peak: 225.0546
Precursor m/z: 225.0546
Precursor type: [M+H]+
m/z	relative intensity	assigned
77.0385	31	C6H5+
95.049	2	C6H7O+
105.0334	180	C7H5O+
119.0127	2	C7H3O2+
141.0698	58	C11H9+
151.0543	11	C12H7+
152.062	45	C12H8+
153.0699	216	C12H9+
169.0648	177	C12H9O+
179.0491	14	C13H7O+
179.0603	1	C12H7N2+
181.0648	36	C13H9O+
183.044	96	C12H7O2+
197.0596	999	C13H9O2+
207.0439	42	C14H7O2+
207.0551	12	C13H7N2O+
225.0543	177	C14H9O3+
