Mass spectrum: Metamitron desamino; LC-ESI-ITFT; MS2; CE: 35%; R=30000; [M+H]+
Name: Metamitron desamino
Name: 3-Methyl-6-phenyl-2H-1,2,4-triazin-5-one
Formula: C10H9N3O
Exact mass: 187.0746
SMILES: Cc1nc(c(nn1)c2ccccc2)O
InChI: InChI=1S/C10H9N3O/c1-7-11-10(14)9(13-12-7)8-5-3-2-4-6-8/h2-6H,1H3,(H,11,12,14)
Instrument: LTQ Orbitrap XL Thermo Scientific
Instrument type: LC-ESI-ITFT
Ms type: MS2
Ion mode: POSITIVE
Ionization: ESI
Fragmentation mode: CID
Collision energy: 35 % (nominal)
Resolution: 30000
Column name: Accucore PhenylHexyl 2.6um, 3x150mm, Thermo
Retention time: 19.001 min
Base peak: 254.0592
Precursor m/z: 188.0818
Precursor type: [M+H]+
m/z	relative intensity	assigned
85.0396	13	C3H5N2O+
104.0495	67	C7H6N+
119.0604	124	C7H7N2+
160.0869	999	C9H10N3+
188.0818	676	C10H10N3O+
