Mass spectrum: Cotinine; LC-ESI-QFT; MS2; CE: 61.67%; R=35000; [M+H]+
Name: Cotinine
Name: (5S)-1-Methyl-5-pyridin-3-ylpyrrolidin-2-one
Formula: C10H12N2O
Exact mass: 176.0950
SMILES: CN1[C@@H](CCC1=O)c2cccnc2
InChI: InChI=1S/C10H12N2O/c1-12-9(4-5-10(12)13)8-3-2-6-11-7-8/h2-3,6-7,9H,4-5H2,1H3/t9-/m0/s1
Instrument: Q Exactive Plus Orbitrap Thermo Scientific
Instrument type: LC-ESI-QFT
Ms type: MS2
Ion mode: POSITIVE
Ionization: ESI
Fragmentation mode: HCD
Collision energy: 61.67 % (nominal)
Resolution: 35000
Column name: Accucore PhenylHexyl 2.6um, 3x150mm, Thermo
Retention time: 4.438 min
Base peak: 177.1021
Precursor m/z: 177.1022
Precursor type: [M+H]+
m/z	relative intensity	assigned
70.0651	42	C4H8N+
80.0495	999	C5H6N+
98.06	284	C5H8NO+
118.0651	33	C8H8N+
120.0808	17	C8H10N+
146.06	46	C9H8NO+
177.1023	866	C10H13N2O+
