Mass spectrum: 2,4-dinitrotoluene; APCI-ITFT; MS2; CE: 35%; R=30000; [M]-
Name: 2,4-dinitrotoluene
Name: 1-methyl-2,4-dinitrobenzene
Formula: C7H6N2O4
Exact mass: 182.0328
SMILES: Cc1c(cc(cc1)[N+](=O)[O-])[N+](=O)[O-]
InChI: InChI=1S/C7H6N2O4/c1-5-2-3-6(8(10)11)4-7(5)9(12)13/h2-4H,1H3
Instrument: LTQ Orbitrap XL Thermo Scientific
Instrument type: APCI-ITFT
Ms type: MS2
Ion mode: NEGATIVE
Ionization: APCI
Fragmentation mode: CID
Collision energy: 35 % (nominal)
Resolution: 30000
Column name: N/A
Retention time: N/A min
Base peak: 182.0333
Precursor m/z: 182.0333
Precursor type: [M]-
m/z	relative intensity	assigned
65.9985	17	C3NO-
78.0349	4	C5H4N-
106.0297	42	C6H4NO-
107.0375	3	C6H5NO-
117.0223	3	C7H3NO-
118.0297	6	C7H4NO-
122.0246	5	C6H4NO2-
123.0324	8	C6H5NO2-
124.0403	27	C6H6NO2-
134.0247	123	C7H4NO2-
135.0199	394	C6H3N2O2-
136.0278	102	C6H4N2O2-
137.0356	138	C6H5N2O2-
152.0352	613	C7H6NO3-
153.0304	40	C6H5N2O3-
164.0227	109	C7H4N2O3-
165.0305	999	C7H5N2O3-
166.0146	13	C7H4NO4-
