Mass spectrum: 4-Aminoantipyrine; LC-ESI-ITFT; MS2; CE: 80%; R=30000; [M+H]+
Name: 4-Aminoantipyrine
Name: 4-Amino-1,5-dimethyl-2-phenylpyrazol-3-one
Formula: C11H13N3O
Exact mass: 203.1059
SMILES: Cc1c(c(=O)n(n1C)c2ccccc2)N
InChI: InChI=1S/C11H13N3O/c1-8-10(12)11(15)14(13(8)2)9-6-4-3-5-7-9/h3-7H,12H2,1-2H3
Instrument: LTQ Orbitrap XL Thermo Scientific
Instrument type: LC-ESI-ITFT
Ms type: MS2
Ion mode: POSITIVE
Ionization: ESI
Fragmentation mode: HCD
Collision energy: 80 % (nominal)
Resolution: 30000
Column name: Accucore PhenylHexyl 2.6um, 3x150mm, Thermo
Retention time: 13.432 min
Base peak: 204.1128
Precursor m/z: 204.1131
Precursor type: [M+H]+
m/z	relative intensity	assigned
77.0386	289	C6H5+
83.0604	353	C4H7N2+
85.076	36	C4H9N2+
91.0543	27	C7H7+
94.0652	999	C6H8N+
95.0491	18	C6H7O+
103.0546	14	C8H7+
104.0495	188	C7H6N+
105.0447	45	C6H5N2+
115.0542	14	C9H7+
117.0574	20	C8H7N+
118.0651	76	C8H8N+
128.0495	125	C9H6N+
130.0651	78	C9H8N+
132.0443	15	C8H6NO+
132.0809	99	C9H10N+
144.0676	13	C9H8N2+
145.0761	55	C9H9N2+
146.0601	68	C9H8NO+
159.0918	73	C10H11N2+
160.087	32	C9H10N3+
188.0821	23	C10H10N3O+
