Mass spectrum: Norharman; LC-ESI-QFT; MS2; CE: 61.67%; R=35000; [M+H]+
Name: Norharman
Name: 9H-Pyrido[3,4-b]indole
Formula: C11H8N2
Exact mass: 168.0687
SMILES: c1ccc2c(c1)c3ccncc3[nH]2
InChI: InChI=1S/C11H8N2/c1-2-4-10-8(3-1)9-5-6-12-7-11(9)13-10/h1-7,13H
Instrument: Q Exactive Plus Orbitrap Thermo Scientific
Instrument type: LC-ESI-QFT
Ms type: MS2
Ion mode: POSITIVE
Ionization: ESI
Fragmentation mode: HCD
Collision energy: 61.67 % (nominal)
Resolution: 35000
Column name: Accucore PhenylHexyl 2.6um, 3x150mm, Thermo
Retention time: 16.816 min
Base peak: 169.0758
Precursor m/z: 169.076
Precursor type: [M+H]+
m/z	relative intensity	assigned
115.0542	109	C9H7+
142.0651	23	C10H8N+
168.0683	40	C11H8N2+
169.076	999	C11H9N2+
