Mass spectrum: Metamitron; LC-ESI-ITFT; MS2; CE: 80%; R=30000; [M+H]+
Name: Metamitron
Name: 4-Amino-3-methyl-6-phenyl-1,2,4-triazin-5-one
Formula: C10H10N4O
Exact mass: 202.0855
SMILES: Cc1nnc(c(=O)n1N)c2ccccc2
InChI: InChI=1S/C10H10N4O/c1-7-12-13-9(10(15)14(7)11)8-5-3-2-4-6-8/h2-6H,11H2,1H3
Instrument: LTQ Orbitrap XL Thermo Scientific
Instrument type: LC-ESI-ITFT
Ms type: MS2
Ion mode: POSITIVE
Ionization: ESI
Fragmentation mode: HCD
Collision energy: 80 % (nominal)
Resolution: 30000
Column name: Accucore PhenylHexyl 2.6um, 3x150mm, Thermo
Retention time: 19.187 min
Base peak: 203.0922
Precursor m/z: 203.0927
Precursor type: [M+H]+
m/z	relative intensity	assigned
72.0556	16	C2H6N3+
77.0385	219	C6H5+
79.0541	116	C6H7+
83.0239	40	C3H3N2O+
89.0385	49	C7H5+
91.0543	11	C7H7+
92.0493	58	C6H6N+
93.0573	11	C6H7N+
95.0493	13	C6H7O+
104.0493	999	C7H6N+
105.0446	34	C6H5N2+
105.0572	98	C7H7N+
106.065	50	C7H8N+
107.0603	19	C6H7N2+
117.0444	17	C7H5N2+
118.0524	56	C7H6N2+
119.0601	19	C7H7N2+
130.0649	48	C9H8N+
134.071	12	C7H8N3+
145.0396	14	C8H5N2O+
158.0712	10	C9H8N3+
159.0789	39	C9H9N3+
174.0785	52	C10H10N2O+
175.0976	274	C9H11N4+
203.0923	30	C10H11N4O+
