Mass spectrum: 1,8-dinitropyrene; APCI-ITFT; MS2; CE: 35%; R=30000; [M+H]+
Name: 1,8-dinitropyrene
Formula: C16H8N2O4
Exact mass: 292.0484
SMILES: [O-][N+](=O)c4ccc2ccc1ccc([N+]([O-])=O)c3c1c2c4cc3
InChI: InChI=1S/C16H8N2O4/c19-17(20)13-7-3-9-1-2-10-4-8-14(18(21)22)12-6-5-11(13)15(9)16(10)12/h1-8H
Instrument: LTQ Orbitrap XL Thermo Scientific
Instrument type: APCI-ITFT
Ms type: MS2
Ion mode: POSITIVE
Ionization: APCI
Fragmentation mode: CID
Collision energy: 35 % (nominal)
Resolution: 30000
Column name: N/A
Retention time: N/A min
Base peak: 293.0557
Precursor m/z: 293.0557
Precursor type: [M+H]+
m/z	relative intensity	assigned
191.0734	1	C14H9N+
217.065	3	C16H9O+
219.0681	1	C15H9NO+
233.0599	3	C16H9O2+
235.0628	1	C15H9NO2+
246.0551	11	C16H8NO2+
247.0629	142	C16H9NO2+
259.0503	1	C16H7N2O2+
263.0579	11	C16H9NO3+
276.053	999	C16H8N2O3+
