Mass spectrum: 4-methyl-7-ethylaminocoumarin; LC-ESI-QFT; MS2; CE: 50%; R=35000; [M]+
Name: 4-methyl-7-ethylaminocoumarin
Name: 7-(ethylamino)-4-methylcoumarin
Name: 7-(ethylamino)-4-methylchromen-2-one
Formula: C12H13NO2
Exact mass: 203.094628656
SMILES: CCNc1ccc2c(cc(=O)oc2c1)C
InChI: InChI=1S/C12H13NO2/c1-3-13-9-4-5-10-8(2)6-12(14)15-11(10)7-9/h4-7,13H,3H2,1-2H3
Instrument: Q Exactive Plus Orbitrap Thermo Scientific
Instrument type: LC-ESI-QFT
Ms type: MS2
Ion mode: POSITIVE
Ionization: ESI
Fragmentation mode: HCD
Collision energy: 50 % (nominal)
Resolution: 35000
Column name: Accucore PhenylHexyl 2.6um, 3x150mm, Thermo
Retention time: 11.275 min
Base peak: 232.1331
Precursor m/z: 203.0941
Precursor type: [M]+
m/z	relative intensity	assigned
77.0389	1	C6H5+
93.0699	2	C7H9+
97.1013	1	C7H13+
103.0543	1	C8H7+
115.0541	1	C9H7+
121.0648	4	C8H9O+
132.057	1	C9H8O+
132.0807	3	C9H10N+
160.0757	293	C10H10NO+
174.0914	1	C11H12NO+
175.0991	118	C11H13NO+
188.0706	999	C11H10NO2+
202.0862	8	C12H12NO2+
203.0943	26	C12H13NO2+
