Mass spectrum: Sotalol; LC-ESI-ITFT; MS2; CE: 120%; R=30000; [M+H]+
Name: Sotalol
Name: N-[4-[1-Hydroxy-2-(propan-2-ylamino)ethyl]phenyl]methanesulfonamide
Formula: C12H20N2O3S
Exact mass: 272.1195
SMILES: CC(C)NCC(c1ccc(cc1)NS(=O)(=O)C)O
InChI: InChI=1S/C12H20N2O3S/c1-9(2)13-8-12(15)10-4-6-11(7-5-10)14-18(3,16)17/h4-7,9,12-15H,8H2,1-3H3
Instrument: LTQ Orbitrap XL Thermo Scientific
Instrument type: LC-ESI-ITFT
Ms type: MS2
Ion mode: POSITIVE
Ionization: ESI
Fragmentation mode: HCD
Collision energy: 120 % (nominal)
Resolution: 30000
Column name: Accucore PhenylHexyl 2.6um, 3x150mm, Thermo
Retention time: 3.962 min
Base peak: 273.1267
Precursor m/z: 273.1267
Precursor type: [M+H]+
m/z	relative intensity	assigned
106.0651	999	C7H8N+
107.073	148	C7H9N+
117.0578	84	C8H7N+
118.0527	51	C7H6N2+
132.0681	140	C8H8N2+
133.0757	404	C8H9N2+
134.059	59	C6H6N4+
