Mass spectrum: Sotalol; LC-ESI-ITFT; MS2; CE: 60%; R=30000; [M+H]+
Name: Sotalol
Name: N-[4-[1-Hydroxy-2-(propan-2-ylamino)ethyl]phenyl]methanesulfonamide
Formula: C12H20N2O3S
Exact mass: 272.1195
SMILES: CC(C)NCC(c1ccc(cc1)NS(=O)(=O)C)O
InChI: InChI=1S/C12H20N2O3S/c1-9(2)13-8-12(15)10-4-6-11(7-5-10)14-18(3,16)17/h4-7,9,12-15H,8H2,1-3H3
Instrument: LTQ Orbitrap XL Thermo Scientific
Instrument type: LC-ESI-ITFT
Ms type: MS2
Ion mode: POSITIVE
Ionization: ESI
Fragmentation mode: HCD
Collision energy: 60 % (nominal)
Resolution: 30000
Column name: Accucore PhenylHexyl 2.6um, 3x150mm, Thermo
Retention time: 3.962 min
Base peak: 273.1267
Precursor m/z: 273.1267
Precursor type: [M+H]+
m/z	relative intensity	assigned
86.0111	21	C2H2N2O2+
89.0985	17	H15N3S+
106.0651	109	C7H8N+
107.0731	66	C7H9N+
117.0574	18	C8H7N+
118.0652	35	C8H8N+
133.0759	999	C8H9N2+
134.0836	450	C8H10N2+
165.9713	15	C7H2O3S+
176.1308	131	C11H16N2+
183.0191	15	C10H3N2O2+
184.0751	20	C12H10NO+
213.0701	212	C9H13N2O2S+
