Mass spectrum: Benzophenone; ESI-ITFT; MS2; CE: 35%; R=30000; [M+H]+
Name: Benzophenone
Name: diphenylmethanone
Formula: C13H10O
Exact mass: 182.0732
SMILES: O=C(c1ccccc1)c2ccccc2
InChI: InChI=1S/C13H10O/c14-13(11-7-3-1-4-8-11)12-9-5-2-6-10-12/h1-10H
Instrument: LTQ Orbitrap XL Thermo Scientific
Instrument type: ESI-ITFT
Ms type: MS2
Ion mode: POSITIVE
Ionization: ESI
Fragmentation mode: CID
Collision energy: 35 % (nominal)
Resolution: 30000
Column name: N/A
Retention time: N/A min
Base peak: 183.0804
Precursor m/z: 183.0804
Precursor type: [M+H]+
m/z	relative intensity	assigned
77.0386	11	C6H5+
105.0334	999	C7H5O+
183.0805	15	C13H11O+
