Mass spectrum: 9,10-Phenanthrenedione; APCI-ITFT; MS2; CE: 35%; R=30000; [M+H]+
Name: 9,10-Phenanthrenedione
Name: phenanthrene-9,10-dione
Formula: C14H8O2
Exact mass: 208.0524
SMILES: c1ccc2c(c1)c1ccccc1C(=O)C2=O
InChI: InChI=1S/C14H8O2/c15-13-11-7-3-1-5-9(11)10-6-2-4-8-12(10)14(13)16/h1-8H
Instrument: LTQ Orbitrap XL Thermo Scientific
Instrument type: APCI-ITFT
Ms type: MS2
Ion mode: POSITIVE
Ionization: APCI
Fragmentation mode: CID
Collision energy: 35 % (nominal)
Resolution: 30000
Column name: N/A
Retention time: N/A min
Base peak: 209.0597
Precursor m/z: 209.0597
Precursor type: [M+H]+
m/z	relative intensity	assigned
153.07	1	C12H9+
181.0649	999	C13H9O+
209.0597	5	C14H9O2+
