Mass spectrum: 6,7-Dimethoxy-2-(1-piperazinyl)-4-quinazolinamine; LC-ESI-QFT; MS2; CE: 50%; R=35000; [M+H]+
Name: 6,7-Dimethoxy-2-(1-piperazinyl)-4-quinazolinamine
Name: 6,7-Dimethoxy-2-piperazin-1-ylquinazolin-4-amine
Formula: C14H19N5O2
Exact mass: 289.1539
SMILES: COc1cc2c(cc1OC)nc(nc2N)N3CCNCC3
InChI: InChI=1S/C14H19N5O2/c1-20-11-7-9-10(8-12(11)21-2)17-14(18-13(9)15)19-5-3-16-4-6-19/h7-8,16H,3-6H2,1-2H3,(H2,15,17,18)
Instrument: Q Exactive Plus Orbitrap Thermo Scientific
Instrument type: LC-ESI-QFT
Ms type: MS2
Ion mode: POSITIVE
Ionization: ESI
Fragmentation mode: HCD
Collision energy: 50 % (nominal)
Resolution: 35000
Column name: Accucore PhenylHexyl 2.6um, 3x150mm, Thermo
Retention time: 7.126 min
Base peak: 290.161
Precursor m/z: 290.1612
Precursor type: [M+H]+
m/z	relative intensity	assigned
70.0652	92	C4H8N+
174.09	17	C9H10N4+
177.066	10	C9H9N2O2+
177.0771	16	C8H9N4O+
202.0851	14	C10H10N4O+
203.0929	129	C10H11N4O+
204.077	25	C10H10N3O2+
205.0723	90	C9H9N4O2+
206.0801	38	C9H10N4O2+
217.0722	20	C10H9N4O2+
218.0799	15	C10H10N4O2+
221.1034	224	C10H13N4O2+
229.072	10	C11H9N4O2+
231.0877	539	C11H11N4O2+
232.0955	139	C11H12N4O2+
233.1033	28	C11H13N4O2+
245.1035	19	C12H13N4O2+
247.119	532	C12H15N4O2+
257.1032	24	C13H13N4O2+
273.1345	10	C14H17N4O2+
274.1299	29	C13H16N5O2+
275.1379	10	C13H17N5O2+
290.1611	999	C14H20N5O2+
