Mass spectrum: 2,6-Xylidine; LC-ESI-QFT; MS2; CE: 61.67%; R=35000; [M+H]+
Name: 2,6-Xylidine
Name: 2,6-Dimethylaniline
Formula: C8H11N
Exact mass: 121.0891
SMILES: Cc1cccc(c1N)C
InChI: InChI=1S/C8H11N/c1-6-4-3-5-7(2)8(6)9/h3-5H,9H2,1-2H3
Instrument: Q Exactive Plus Orbitrap Thermo Scientific
Instrument type: LC-ESI-QFT
Ms type: MS2
Ion mode: POSITIVE
Ionization: ESI
Fragmentation mode: HCD
Collision energy: 61.67 % (nominal)
Resolution: 35000
Column name: Accucore PhenylHexyl 2.6um, 3x150mm, Thermo
Retention time: 16.177 min
Base peak: 122.0962
Precursor m/z: 122.0964
Precursor type: [M+H]+
m/z	relative intensity	assigned
53.0388	16	C4H5+
77.0386	52	C6H5+
79.0542	188	C6H7+
95.0491	48	C6H7O+
103.0542	111	C8H7+
105.0699	578	C8H9+
106.0651	33	C7H8N+
107.073	312	C7H9N+
122.0964	999	C8H12N+
133.076	16	C8H9N2+
