Mass spectrum: 2-naphthoic acid; APCI-ITFT; MS2; CE: 35%; R=30000; [M+H]+
Name: 2-naphthoic acid
Name: naphthalene-2-carboxylic acid
Formula: C11H8O2
Exact mass: 172.0524
SMILES: C1=CC=C2C=C(C=CC2=C1)C(=O)O
InChI: InChI=1S/C11H8O2/c12-11(13)10-6-5-8-3-1-2-4-9(8)7-10/h1-7H,(H,12,13)
Instrument: LTQ Orbitrap XL Thermo Scientific
Instrument type: APCI-ITFT
Ms type: MS2
Ion mode: POSITIVE
Ionization: APCI
Fragmentation mode: CID
Collision energy: 35 % (nominal)
Resolution: 30000
Column name: N/A
Retention time: N/A min
Base peak: 173.0597
Precursor m/z: 173.0597
Precursor type: [M+H]+
m/z	relative intensity	assigned
129.0697	999	C10H9+
145.0647	45	C10H9O+
155.0488	49	C11H7O+
