Mass spectrum: 3-Formylindole; LC-ESI-QFT; MS2; CE: 50%; R=35000; [M+H]+
Name: 3-Formylindole
Name: Indole-3-Carboxaldehyde
Name: 1H-indole-3-carbaldehyde
Formula: C9H7NO
Exact mass: 145.0528
SMILES: c1ccc2c(c1)c(c[nH]2)C=O
InChI: InChI=1S/C9H7NO/c11-6-7-5-10-9-4-2-1-3-8(7)9/h1-6,10H
Instrument: Q Exactive Plus Orbitrap Thermo Scientific
Instrument type: LC-ESI-QFT
Ms type: MS2
Ion mode: POSITIVE
Ionization: ESI
Fragmentation mode: HCD
Collision energy: 50 % (nominal)
Resolution: 35000
Column name: Accucore PhenylHexyl 2.6um, 3x150mm, Thermo
Retention time: 20.376 min
Base peak: 146.0598
Precursor m/z: 146.06
Precursor type: [M+H]+
m/z	relative intensity	assigned
91.0541	186	C7H7+
117.0572	46	C8H7N+
118.065	999	C8H8N+
146.0598	283	C9H8NO+
