Mass spectrum: 4-methyl-7-ethylaminocoumarin; LC-ESI-QFT; MS2; CE: 50%; R=35000; [M+H]+
Name: 4-methyl-7-ethylaminocoumarin
Name: 7-(ethylamino)-4-methylcoumarin
Name: 7-(ethylamino)-4-methylchromen-2-one
Formula: C12H13NO2
Exact mass: 203.094628656
SMILES: CCNc1ccc2c(cc(=O)oc2c1)C
InChI: InChI=1S/C12H13NO2/c1-3-13-9-4-5-10-8(2)6-12(14)15-11(10)7-9/h4-7,13H,3H2,1-2H3
Instrument: Q Exactive Plus Orbitrap Thermo Scientific
Instrument type: LC-ESI-QFT
Ms type: MS2
Ion mode: POSITIVE
Ionization: ESI
Fragmentation mode: HCD
Collision energy: 50 % (nominal)
Resolution: 35000
Column name: Accucore PhenylHexyl 2.6um, 3x150mm, Thermo
Retention time: 9.668 min
Base peak: 204.1017
Precursor m/z: 204.1019
Precursor type: [M+H]+
m/z	relative intensity	assigned
67.018	1	C4H3O+
68.0133	6	C3H2NO+
70.0653	1	C4H8N+
91.0543	11	C7H7+
96.0444	4	C5H6NO+
103.0543	5	C8H7+
105.0699	8	C8H9+
106.0652	5	C7H8N+
115.0542	5	C9H7+
117.0574	10	C8H7N+
117.0699	5	C9H9+
118.0652	21	C8H8N+
119.073	9	C8H9N+
120.0808	8	C8H10N+
128.0622	2	C10H8+
130.0652	51	C9H8N+
131.0492	4	C9H7O+
131.0731	40	C9H9N+
131.0856	2	C10H11+
132.0809	36	C9H10N+
133.0649	1	C9H9O+
133.0887	3	C9H11N+
134.0602	3	C8H8NO+
134.0965	7	C9H12N+
138.0913	2	C8H12NO+
143.073	1	C10H9N+
144.0809	32	C10H10N+
145.0887	22	C10H11N+
146.0602	7	C9H8NO+
146.0965	2	C10H12N+
147.068	12	C9H9NO+
148.1122	157	C10H14N+
158.0966	14	C11H12N+
159.1045	3	C11H13N+
160.1122	65	C11H14N+
161.0837	17	C10H11NO+
162.0915	5	C10H12NO+
164.0708	2	C9H10NO2+
174.0552	1	C10H8NO2+
174.0912	2	C11H12NO+
175.0629	9	C10H9NO2+
176.0707	6	C10H10NO2+
176.1071	53	C11H14NO+
188.0709	1	C11H10NO2+
189.0787	9	C11H11NO2+
202.0862	1	C12H12NO2+
204.1021	999	C12H14NO2+
