Mass spectrum: Benzanthrone; APCI-ITFT; MS2; CE: 35%; R=30000; [M+H]+
Name: Benzanthrone
Name: benzo[a]phenalen-7-one
Formula: C17H10O
Exact mass: 230.0732
SMILES: c1ccc2c(c1)c1cccc3c1c(ccc3)C2=O
InChI: InChI=1S/C17H10O/c18-17-14-8-2-1-7-12(14)13-9-3-5-11-6-4-10-15(17)16(11)13/h1-10H
Instrument: LTQ Orbitrap XL Thermo Scientific
Instrument type: APCI-ITFT
Ms type: MS2
Ion mode: POSITIVE
Ionization: APCI
Fragmentation mode: CID
Collision energy: 35 % (nominal)
Resolution: 30000
Column name: N/A
Retention time: N/A min
Base peak: 231.0804
Precursor m/z: 231.0804
Precursor type: [M+H]+
m/z	relative intensity	assigned
149.0263	2	C11H3N+
202.0777	306	C16H10+
203.0855	759	C16H11+
229.0758	2	C16H9N2+
231.0802	999	C17H11O+
