Mass spectrum: Nitrofen; APCI-ITFT; MS2; CE: 35%; R=30000; [M]-
Name: Nitrofen
Name: 2,4-dichloro-1-(4-nitrophenoxy)benzene
Name: NIP
Formula: C12H7Cl2NO3
Exact mass: 282.9803
SMILES: C1=CC(=CC=C1[N+](=O)[O-])OC2=C(C=C(C=C2)Cl)Cl
InChI: InChI=1S/C12H7Cl2NO3/c13-8-1-6-12(11(14)7-8)18-10-4-2-9(3-5-10)15(16)17/h1-7H
Instrument: LTQ Orbitrap XL Thermo Scientific
Instrument type: APCI-ITFT
Ms type: MS2
Ion mode: NEGATIVE
Ionization: APCI
Fragmentation mode: CID
Collision energy: 35 % (nominal)
Resolution: 30000
Column name: N/A
Retention time: N/A min
Base peak: 282.9808
Precursor m/z: 282.9808
Precursor type: [M]-
m/z	relative intensity	assigned
117.0584	4	C8H7N-
138.0196	999	C6H4NO3-
160.9566	5	C6H3Cl2O-
171.9806	171	C6H3ClNO3-
235.9796	9	C12H6Cl2O-
236.9879	14	C12H7Cl2O-
247.0038	56	C12H6ClNO3-
251.9747	50	C12H6Cl2O2-
252.9785	14	C7H7Cl2N2O4-
268.9757	3	C10H5Cl2N3O2-
281.9727	23	C12H6Cl2NO3-
