Mass spectrum: Lamotrigine; LC-ESI-QFT; MS2; CE: 80%; R=35000; [M+H]+
Name: Lamotrigine
Name: Lamotrigin
Name: 6-(2,3-Dichlorophenyl)-1,2,4-triazine-3,5-diamine
Formula: C9H7Cl2N5
Exact mass: 255.0079
SMILES: c1cc(c(c(c1)Cl)Cl)c2c(nc(nn2)N)N
InChI: InChI=1S/C9H7Cl2N5/c10-5-3-1-2-4(6(5)11)7-8(12)14-9(13)16-15-7/h1-3H,(H4,12,13,14,16)
Instrument: Q Exactive Orbitrap Plus Thermo Scientific
Instrument type: LC-ESI-QFT
Ms type: MS2
Ion mode: POSITIVE
Ionization: ESI
Fragmentation mode: HCD
Collision energy: 80 % (nominal)
Resolution: 35000
Column name: Accucore PhenylHexyl 2.6um, 3x150mm, Thermo
Retention time: 18.235 min
Base peak: 256.015
Precursor m/z: 256.0151
Precursor type: [M+H]+
m/z	relative intensity	assigned
58.0401	891	CH4N3+
68.0244	115	C2H2N3+
84.984	92	C4H2Cl+
108.984	79	C6H2Cl+
122.9996	383	C7H4Cl+
123.9949	128	C6H3ClN+
131.0604	202	C8H7N2+
132.9606	109	C5H3Cl2+
138.0105	160	C7H5ClN+
144.9605	86	C6H3Cl2+
147.9948	60	C8H3ClN+
150.0104	52	C8H5ClN+
151.0059	71	C7H4ClN2+
151.0184	596	C8H6ClN+
152.0136	577	C7H5ClN2+
156.9607	989	C7H3Cl2+
158.9763	999	C7H5Cl2+
159.9715	327	C6H4Cl2N+
162.9712	80	C6H5Cl2O+
164.001	140	C7H3ClN3+
165.0214	339	C8H6ClN2+
166.0292	701	C8H7ClN2+
170.9637	184	C7H3Cl2N+
171.9715	600	C7H4Cl2N+
172.9668	859	C6H3Cl2N2+
173.9872	128	C7H6Cl2N+
178.0166	131	C8H5ClN3+
179.0244	74	C8H6ClN3+
183.9715	494	C8H4Cl2N+
184.9667	53	C7H3Cl2N2+
184.9794	53	C8H5Cl2N+
186.9824	553	C7H5Cl2N2+
194.9637	64	C9H3Cl2N+
210.9824	891	C9H5Cl2N2+
211.9776	211	C8H4Cl2N3+
220.0385	104	C9H7ClN5+
229.0041	63	C8H7Cl2N4+
256.0153	287	C9H8Cl2N5+
