Mass spectrum: 4-methyl-7-diethylaminocoumarin; LC-ESI-QFT; MS2; CE: 50%; R=35000; [M]+
Name: 4-methyl-7-diethylaminocoumarin
Name: 7-diethylamino-4-methylcoumarin
Name: 7-(diethylamino)-4-methylchromen-2-one
Formula: C14H17NO2
Exact mass: 231.125928784
SMILES: CCN(CC)c1ccc2c(cc(=O)oc2c1)C
InChI: InChI=1S/C14H17NO2/c1-4-15(5-2)11-6-7-12-10(3)8-14(16)17-13(12)9-11/h6-9H,4-5H2,1-3H3
Instrument: Q Exactive Plus Orbitrap Thermo Scientific
Instrument type: LC-ESI-QFT
Ms type: MS2
Ion mode: POSITIVE
Ionization: ESI
Fragmentation mode: HCD
Collision energy: 50 % (nominal)
Resolution: 35000
Column name: Accucore PhenylHexyl 2.6um, 3x150mm, Thermo
Retention time: 11.275 min
Base peak: 232.1331
Precursor m/z: 231.1254
Precursor type: [M]+
m/z	relative intensity	assigned
81.0699	1	C6H9+
83.0855	1	C6H11+
93.0698	1	C7H9+
121.0649	3	C8H9O+
132.0809	1	C9H10N+
160.0517	2	C10H8O2+
160.0757	5	C10H10NO+
161.0597	1	C10H9O2+
187.0624	3	C11H9NO2+
188.0706	199	C11H10NO2+
201.0783	1	C12H11NO2+
216.1019	999	C13H14NO2+
230.1177	3	C14H16NO2+
231.1246	1	C14H17NO2+
