Mass spectrum: IQ; APCI-ITFT; MS2; CE: 35%; R=30000; [M-H]-
Name: IQ
Name: 3-methylimidazo[4,5-f]quinolin-2-amine
Formula: C11H10N4
Exact mass: 198.0905
SMILES: Cn1c2c(c3c(cc2)nccc3)nc1N
InChI: InChI=1S/C11H10N4/c1-15-9-5-4-8-7(3-2-6-13-8)10(9)14-11(15)12/h2-6H,1H3,(H2,12,14)
Instrument: LTQ Orbitrap XL Thermo Scientific
Instrument type: APCI-ITFT
Ms type: MS2
Ion mode: NEGATIVE
Ionization: APCI
Fragmentation mode: CID
Collision energy: 35 % (nominal)
Resolution: 30000
Column name: N/A
Retention time: N/A min
Base peak: 197.0832
Precursor m/z: 197.0832
Precursor type: [M-H]-
m/z	relative intensity
182.0593	999
