Mass spectrum: 4H-cyclopenta[def]phenanthrene-4-one; ESI-ITFT; MS2; CE: 35%; R=30000; [M+H]+
Name: 4H-cyclopenta[def]phenanthrene-4-one
Formula: C15H8O
Exact mass: 204.0575
SMILES: O=C4c2cccc1ccc3c(c12)c4ccc3
InChI: InChI=1S/C15H8O/c16-15-11-5-1-3-9-7-8-10-4-2-6-12(15)14(10)13(9)11/h1-8H
Instrument: LTQ Orbitrap XL Thermo Scientific
Instrument type: ESI-ITFT
Ms type: MS2
Ion mode: POSITIVE
Ionization: ESI
Fragmentation mode: CID
Collision energy: 35 % (nominal)
Resolution: 30000
Column name: N/A
Retention time: N/A min
Base peak: 205.0648
Precursor m/z: 205.0648
Precursor type: [M+H]+
m/z	relative intensity	assigned
176.0616	2	C14H8+
177.0699	999	C14H9+
205.0647	25	C15H9O+
