Mass spectrum: Isopentenyl adenine ; LC-ESI-QFT; MS2; CE: 61.67%; R=35000; [M+H]+
Name: Isopentenyl adenine
Name: N-(3-Methylbut-2-enyl)-7H-purin-6-amine
Formula: C10H13N5
Exact mass: 203.1171
SMILES: CC(=CCNc1c2c(nc[nH]2)ncn1)C
InChI: InChI=1S/C10H13N5/c1-7(2)3-4-11-9-8-10(13-5-12-8)15-6-14-9/h3,5-6H,4H2,1-2H3,(H2,11,12,13,14,15)
Instrument: Q Exactive Plus Orbitrap Thermo Scientific
Instrument type: LC-ESI-QFT
Ms type: MS2
Ion mode: POSITIVE
Ionization: ESI
Fragmentation mode: HCD
Collision energy: 61.67 % (nominal)
Resolution: 35000
Column name: Accucore PhenylHexyl 2.6um, 3x150mm, Thermo
Retention time: 18.868 min
Base peak: 204.1242
Precursor m/z: 204.1244
Precursor type: [M+H]+
m/z	relative intensity	assigned
69.0699	233	C5H9+
94.04	16	C4H4N3+
119.0353	131	C5H3N4+
136.0618	999	C5H6N5+
137.0458	39	C5H5N4O+
148.0618	186	C6H6N5+
204.1246	108	C10H14N5+
