Mass spectrum: 9-Fluorenone; ESI-ITFT; MS2; CE: 35%; R=30000; [M+H]+
Name: 9-Fluorenone
Name: fluoren-9-one
Formula: C13H8O
Exact mass: 180.0575
SMILES: c1ccc2c(c1)c1ccccc1C2=O
InChI: InChI=1S/C13H8O/c14-13-11-7-3-1-5-9(11)10-6-2-4-8-12(10)13/h1-8H
Instrument: LTQ Orbitrap XL Thermo Scientific
Instrument type: ESI-ITFT
Ms type: MS2
Ion mode: POSITIVE
Ionization: ESI
Fragmentation mode: CID
Collision energy: 35 % (nominal)
Resolution: 30000
Column name: N/A
Retention time: N/A min
Base peak: 181.0648
Precursor m/z: 181.0648
Precursor type: [M+H]+
m/z	relative intensity	assigned
152.0621	14	C12H8+
153.0699	749	C12H9+
181.0648	999	C13H9O+
