Mass spectrum: Propranolol; LC-ESI-QFT; MS2; CE: 50%; R=35000; [M+H]+
Name: Propranolol
Name: 1-Naphthalen-1-yloxy-3-(propan-2-ylamino)propan-2-ol
Formula: C16H21NO2
Exact mass: 259.1572
SMILES: CC(C)NCC(COc1cccc2c1cccc2)O
InChI: InChI=1S/C16H21NO2/c1-12(2)17-10-14(18)11-19-16-9-5-7-13-6-3-4-8-15(13)16/h3-9,12,14,17-18H,10-11H2,1-2H3
Instrument: Q Exactive Plus Orbitrap Thermo Scientific
Instrument type: LC-ESI-QFT
Ms type: MS2
Ion mode: POSITIVE
Ionization: ESI
Fragmentation mode: HCD
Collision energy: 50 % (nominal)
Resolution: 35000
Column name: Accucore PhenylHexyl 2.6um, 3x150mm, Thermo
Retention time: 20.706 min
Base peak: 260.1645
Precursor m/z: 260.1645
Precursor type: [M+H]+
m/z	relative intensity	assigned
56.0497	267	C3H6N+
58.0653	253	C3H8N+
60.0809	15	C3H10N+
72.0808	288	C4H10N+
74.0601	336	C3H8NO+
84.0808	13	C5H10N+
86.0965	54	C5H12N+
98.0964	202	C6H12N+
100.1121	54	C6H14N+
115.0543	20	C9H7+
116.107	483	C6H14NO+
128.0622	14	C10H8+
129.0699	97	C10H9+
141.0699	40	C11H9+
143.0491	10	C10H7O+
145.0649	52	C10H9O+
153.0699	56	C12H9+
154.0777	14	C12H10+
155.0855	212	C12H11+
157.0648	181	C11H9O+
165.0699	78	C13H9+
168.0571	18	C12H8O+
183.0806	311	C13H11O+
218.1177	45	C13H16NO2+
260.1646	999	C16H22NO2+
