Mass spectrum: 1-hydroxypyrene; ESI-ITFT; MS2; CE: 35%; R=30000; [M+H]+
Name: 1-hydroxypyrene
Name: pyren-1-ol
Formula: C16H10O
Exact mass: 218.0732
SMILES: Oc4ccc2ccc1cccc3c1c2c4cc3
InChI: InChI=1S/C16H10O/c17-14-9-7-12-5-4-10-2-1-3-11-6-8-13(14)16(12)15(10)11/h1-9,17H
Instrument: LTQ Orbitrap XL Thermo Scientific
Instrument type: ESI-ITFT
Ms type: MS2
Ion mode: POSITIVE
Ionization: ESI
Fragmentation mode: CID
Collision energy: 35 % (nominal)
Resolution: 30000
Column name: N/A
Retention time: N/A min
Base peak: 219.0804
Precursor m/z: 219.0804
Precursor type: [M+H]+
m/z	relative intensity	assigned
85.0282	33	C4H5O2+
161.0383	42	C13H5+
171.0306	43	C10H5NO2+
191.0808	91	C10H11N2O2+
191.0856	79	C15H11+
201.0699	999	C16H9+
202.0775	78	C16H10+
