Mass spectrum: 1H-Isoindole-1,3(2H)-dione; APCI-ITFT; MS2; CE: 35%; R=30000; [M-H]-
Name: 1H-Isoindole-1,3(2H)-dione
Name: isoindole-1,3-dione
Formula: C8H5NO2
Exact mass: 147.0320
SMILES: c1ccc2c(c1)C(=O)NC2=O
InChI: InChI=1S/C8H5NO2/c10-7-5-3-1-2-4-6(5)8(11)9-7/h1-4H,(H,9,10,11)
Instrument: LTQ Orbitrap XL Thermo Scientific
Instrument type: APCI-ITFT
Ms type: MS2
Ion mode: NEGATIVE
Ionization: APCI
Fragmentation mode: CID
Collision energy: 35 % (nominal)
Resolution: 30000
Column name: N/A
Retention time: N/A min
Base peak: 146.0248
Precursor m/z: 146.0248
Precursor type: [M-H]-
m/z	relative intensity	assigned
146.0246	999	C8H4NO2-
