Mass spectrum: L-(+)-Ergothioneine; LC-ESI-QFT; MS2; CE: 50%; R=35000; [M+H]+
Name: L-(+)-Ergothioneine
Name: L-Ergothioneine
Name: 5-[(2S)-2-Carboxy-2-(trimethylazaniumyl)ethyl]-1H-imidazole-2-thiolate
Formula: C9H15N3O2S
Exact mass: 229.0885
SMILES: C[N+](C)(C)[C@@H](Cc1c[nH]c(n1)S)C(=O)[O-]
InChI: InChI=1S/C9H15N3O2S/c1-12(2,3)7(8(13)14)4-6-5-10-9(15)11-6/h5,7H,4H2,1-3H3,(H2-,10,11,13,14,15)/t7-/m0/s1
Instrument: Q Exactive Plus Orbitrap Thermo Scientific
Instrument type: LC-ESI-QFT
Ms type: MS2
Ion mode: POSITIVE
Ionization: ESI
Fragmentation mode: HCD
Collision energy: 50 % (nominal)
Resolution: 35000
Column name: Accucore PhenylHexyl 2.6um, 3x150mm, Thermo
Retention time: 3.493 min
Base peak: 230.096
Precursor m/z: 230.0958
Precursor type: [M+H]+
m/z	relative intensity	assigned
58.9952	13	C2H3S+
60.0809	274	C3H10N+
67.0418	33	C4H5N+
68.0496	99	C4H6N+
69.0574	142	C4H7N+
83.0604	15	C4H7N2+
86.0059	34	C3H4NS+
94.0526	18	C5H6N2+
100.0216	103	C4H6NS+
127.0325	999	C5H7N2S+
143.0275	21	C5H7N2OS+
186.1061	302	C8H16N3S+
230.096	78	C9H16N3O2S+
