Mass spectrum: PHIP; APCI-ITFT; MS2; CE: 35%; R=30000; [M+H]+
Name: PHIP
Name: 1-methyl-6-phenylimidazo[4,5-b]pyridin-2-amine
Formula: C13H12N4
Exact mass: 224.1062
SMILES: Cn1c2c(ncc(c2)c2ccccc2)nc1N
InChI: InChI=1S/C13H12N4/c1-17-11-7-10(9-5-3-2-4-6-9)8-15-12(11)16-13(17)14/h2-8H,1H3,(H2,14,15,16)
Instrument: LTQ Orbitrap XL Thermo Scientific
Instrument type: APCI-ITFT
Ms type: MS2
Ion mode: POSITIVE
Ionization: APCI
Fragmentation mode: CID
Collision energy: 35 % (nominal)
Resolution: 30000
Column name: N/A
Retention time: N/A min
Base peak: 225.1135
Precursor m/z: 225.1135
Precursor type: [M+H]+
m/z	relative intensity	assigned
115.0537	1	C9H7+
140.0492	3	C10H6N+
142.0649	3	C10H8N+
143.0727	2	C10H9N+
147.0663	6	C7H7N4+
154.065	1	C11H8N+
156.0805	1	C11H10N+
157.0758	12	C10H9N2+
165.0767	2	C7H9N4O+
167.0602	16	C11H7N2+
168.068	1	C11H8N2+
171.0916	1	C11H11N2+
181.0758	8	C12H9N2+
183.0914	15	C12H11N2+
184.0866	13	C11H10N3+
185.0707	1	C11H9N2O+
191.0601	1	C13H7N2+
198.1022	6	C12H12N3+
208.0865	44	C13H10N3+
209.0816	1	C12H9N4+
210.0895	246	C12H10N4+
225.1128	999	C13H13N4+
