Mass spectrum: 1,8-diaminopyrene; ESI-ITFT; MS2; CE: 35%; R=30000; [M+H]+
Name: 1,8-diaminopyrene
Name: pyrene-1,8-diamine
Formula: C16H12N2
Exact mass: 232.1000
SMILES: c4cc2ccc1ccc(N)c3c1c2c(cc3)c4N
InChI: InChI=1S/C16H12N2/c17-13-7-3-9-1-2-10-4-8-14(18)12-6-5-11(13)15(9)16(10)12/h1-8H,17-18H2
Instrument: LTQ Orbitrap XL Thermo Scientific
Instrument type: ESI-ITFT
Ms type: MS2
Ion mode: POSITIVE
Ionization: ESI
Fragmentation mode: CID
Collision energy: 35 % (nominal)
Resolution: 30000
Column name: N/A
Retention time: N/A min
Base peak: 233.1073
Precursor m/z: 233.1073
Precursor type: [M+H]+
m/z	relative intensity	assigned
217.0886	999	C16H11N+
219.0684	24	C15H9NO+
