Mass spectrum: 2-Hydroxyquinoline; LC-ESI-QFT; MS2; CE: 50%; R=35000; [M+H]+
Name: 2-Hydroxyquinoline
Name: 1H-Quinolin-2-one
Formula: C9H7NO
Exact mass: 145.0528
SMILES: c1ccc2c(c1)ccc(n2)O
InChI: InChI=1S/C9H7NO/c11-9-6-5-7-3-1-2-4-8(7)10-9/h1-6H,(H,10,11)
Instrument: Q Exactive Plus Orbitrap Thermo Scientific
Instrument type: LC-ESI-QFT
Ms type: MS2
Ion mode: POSITIVE
Ionization: ESI
Fragmentation mode: HCD
Collision energy: 50 % (nominal)
Resolution: 35000
Column name: Accucore PhenylHexyl 2.6um, 3x150mm, Thermo
Retention time: 20.103 min
Base peak: 146.0599
Precursor m/z: 146.06
Precursor type: [M+H]+
m/z	relative intensity	assigned
128.0493	151	C9H6N+
146.0599	999	C9H8NO+
