Mass spectrum: 1,3-diaminopyrene; APCI-ITFT; MS2; CE: 35%; R=30000; [M+H]+
Name: 1,3-diaminopyrene
Name: pyrene-1,3-diamine
Formula: C16H12N2
Exact mass: 232.1000
SMILES: c1cc2ccc3c(cc(c4c3c2c(c1)cc4)N)N
InChI: InChI=1S/C16H12N2/c17-13-8-14(18)12-7-5-10-3-1-2-9-4-6-11(13)16(12)15(9)10/h1-8H,17-18H2
Instrument: LTQ Orbitrap XL Thermo Scientific
Instrument type: APCI-ITFT
Ms type: MS2
Ion mode: POSITIVE
Ionization: APCI
Fragmentation mode: CID
Collision energy: 35 % (nominal)
Resolution: 30000
Column name: N/A
Retention time: N/A min
Base peak: 233.1073
Precursor m/z: 233.1073
Precursor type: [M+H]+
m/z	relative intensity	assigned
189.07	21	C15H9+
215.0726	2	C16H9N+
216.0806	999	C16H10N+
217.0883	95	C16H11N+
232.0993	1	C16H12N2+
