Mass spectrum: 4-methyl-7-aminocoumarin; LC-ESI-QFT; MS2; CE: 50%; R=35000; [M+Na]+
Name: 4-methyl-7-aminocoumarin
Name: 7-amino-4-methylcoumarin
Name: 7-amino-4-methylchromen-2-one
Formula: C10H9NO2
Exact mass: 175.063328528
SMILES: Cc1cc(=O)oc2c1ccc(c2)N
InChI: InChI=1S/C10H9NO2/c1-6-4-10(12)13-9-5-7(11)2-3-8(6)9/h2-5H,11H2,1H3
Instrument: Q Exactive Plus Orbitrap Thermo Scientific
Instrument type: LC-ESI-QFT
Ms type: MS2
Ion mode: POSITIVE
Ionization: ESI
Fragmentation mode: HCD
Collision energy: 50 % (nominal)
Resolution: 35000
Column name: Accucore PhenylHexyl 2.6um, 3x150mm, Thermo
Retention time: 6.892 min
Base peak: 176.0705
Precursor m/z: 198.0525
Precursor type: [M+Na]+
m/z	relative intensity	assigned
110.0718	200	C5H8N3+
138.0663	999	C6H8N3O+
152.9974	19	C10HO2+
