Mass spectrum: 6-Quinolinol; LC-ESI-QFT; MS2; CE: 61.67%; R=35000; [M+H]+
Name: 6-Quinolinol
Name: 6-Hydroxyquinoline
Name: Quinolin-6-ol
Formula: C9H7NO
Exact mass: 145.0528
SMILES: c1cc2cc(ccc2nc1)O
InChI: InChI=1S/C9H7NO/c11-8-3-4-9-7(6-8)2-1-5-10-9/h1-6,11H
Instrument: Q Exactive Plus Orbitrap Thermo Scientific
Instrument type: LC-ESI-QFT
Ms type: MS2
Ion mode: POSITIVE
Ionization: ESI
Fragmentation mode: HCD
Collision energy: 61.67 % (nominal)
Resolution: 35000
Column name: Accucore PhenylHexyl 2.6um, 3x150mm, Thermo
Retention time: 5.836 min
Base peak: 146.0598
Precursor m/z: 146.06
Precursor type: [M+H]+
m/z	relative intensity	assigned
91.0542	79	C7H7+
117.0574	57	C8H7N+
118.0652	136	C8H8N+
128.0495	14	C9H6N+
146.06	999	C9H8NO+
