Mass spectrum: 5,6-Chrysenequinone; ESI-ITFT; MS2; CE: 35%; R=30000; [M+H]+
Name: 5,6-Chrysenequinone
Name: chrysene-5,6-dione
Formula: C18H10O2
Exact mass: 258.0681
SMILES: O=C3c4c(c2c(c1ccccc1cc2)C3=O)cccc4
InChI: InChI=1S/C18H10O2/c19-17-15-8-4-3-7-13(15)14-10-9-11-5-1-2-6-12(11)16(14)18(17)20/h1-10H
Instrument: LTQ Orbitrap XL Thermo Scientific
Instrument type: ESI-ITFT
Ms type: MS2
Ion mode: POSITIVE
Ionization: ESI
Fragmentation mode: CID
Collision energy: 35 % (nominal)
Resolution: 30000
Column name: N/A
Retention time: N/A min
Base peak: 259.0754
Precursor m/z: 259.0754
Precursor type: [M+H]+
m/z	relative intensity	assigned
231.0807	999	C17H11O+
259.0761	149	C18H11O2+
