Mass spectrum: Guanine; LC-ESI-QFT; MS2; CE: 50%; R=35000; [M+H]+
Name: Guanine
Name: 2-Amino-3,7-dihydropurin-6-one
Formula: C5H5N5O
Exact mass: 151.0494
SMILES: c1[nH]c2c(=O)[nH]c(nc2n1)N
InChI: InChI=1S/C5H5N5O/c6-5-9-3-2(4(11)10-5)7-1-8-3/h1H,(H4,6,7,8,9,10,11)
Instrument: Q Exactive Plus Orbitrap Thermo Scientific
Instrument type: LC-ESI-QFT
Ms type: MS2
Ion mode: POSITIVE
Ionization: ESI
Fragmentation mode: HCD
Collision energy: 50 % (nominal)
Resolution: 35000
Column name: Accucore PhenylHexyl 2.6um, 3x150mm, Thermo
Retention time: 3.554 min
Base peak: 152.0564
Precursor m/z: 152.0567
Precursor type: [M+H]+
m/z	relative intensity	assigned
109.0507	22	C4H5N4+
110.0347	163	C4H4N3O+
128.0452	47	C4H6N3O2+
134.0458	15	C5H4N5+
135.0299	169	C5H3N4O+
152.0564	999	C5H6N5O+
