Mass spectrum: 4-methyl-7-aminocoumarin; LC-ESI-QFT; MS2; CE: 50%; R=35000; [M+H]+
Name: 4-methyl-7-aminocoumarin
Name: 7-amino-4-methylcoumarin
Name: 7-amino-4-methylchromen-2-one
Formula: C10H9NO2
Exact mass: 175.063328528
SMILES: Cc1cc(=O)oc2c1ccc(c2)N
InChI: InChI=1S/C10H9NO2/c1-6-4-10(12)13-9-5-7(11)2-3-8(6)9/h2-5H,11H2,1H3
Instrument: Q Exactive Plus Orbitrap Thermo Scientific
Instrument type: LC-ESI-QFT
Ms type: MS2
Ion mode: POSITIVE
Ionization: ESI
Fragmentation mode: HCD
Collision energy: 50 % (nominal)
Resolution: 35000
Column name: Accucore PhenylHexyl 2.6um, 3x150mm, Thermo
Retention time: 6.892 min
Base peak: 176.0704
Precursor m/z: 176.0706
Precursor type: [M+H]+
m/z	relative intensity	assigned
67.018	1	C4H3O+
68.0132	5	C3H2NO+
77.0388	1	C6H5+
79.0543	6	C6H7+
80.0495	1	C5H6N+
91.0542	10	C7H7+
93.0573	3	C6H7N+
93.0698	6	C7H9+
94.0652	2	C6H8N+
103.0542	39	C8H7+
104.0494	2	C7H6N+
105.0699	42	C8H9+
106.0652	4	C7H8N+
109.0648	7	C7H9O+
110.0601	2	C6H8NO+
115.0542	90	C9H7+
116.0621	1	C9H8+
117.0573	198	C8H7N+
118.0651	5	C8H8N+
119.073	1	C8H9N+
120.0807	372	C8H10N+
130.0651	42	C9H8N+
131.0491	13	C9H7O+
131.0729	36	C9H9N+
132.0808	95	C9H10N+
133.0522	19	C8H7NO+
133.0648	10	C9H9O+
134.06	6	C8H8NO+
136.0394	1	C7H6NO2+
143.0604	7	C9H7N2+
146.0599	1	C9H8NO+
148.0757	65	C9H10NO+
159.044	2	C10H7O2+
176.0706	999	C10H10NO2+
