Mass spectrum: 3,3`-dichlorobenzidine; APCI-ITFT; MS2; CE: 35%; R=30000; [M+H]+
Name: 3,3`-dichlorobenzidine
Name: 4-(4-amino-3-chlorophenyl)-2-chloroaniline
Formula: C12H10Cl2N2
Exact mass: 252.0221
SMILES: Clc2cc(c1ccc(N)c(Cl)c1)ccc2N
InChI: InChI=1S/C12H10Cl2N2/c13-9-5-7(1-3-11(9)15)8-2-4-12(16)10(14)6-8/h1-6H,15-16H2
Instrument: LTQ Orbitrap XL Thermo Scientific
Instrument type: APCI-ITFT
Ms type: MS2
Ion mode: POSITIVE
Ionization: APCI
Fragmentation mode: CID
Collision energy: 35 % (nominal)
Resolution: 30000
Column name: N/A
Retention time: N/A min
Base peak: 253.0294
Precursor m/z: 253.0294
Precursor type: [M+H]+
m/z	relative intensity	assigned
181.0761	16	C12H9N2+
182.0839	40	C12H10N2+
190.0419	3	C11H9ClN+
217.0525	999	C12H10ClN2+
218.0602	306	C12H11ClN2+
236.0025	3	C12H8Cl2N+
252.0213	5	C12H10Cl2N2+
253.0289	4	C12H11Cl2N2+
