Mass spectrum: Sitagliptin; LC-ESI-ITFT; MS2; CE: 80%; R=30000; [M+H]+
Name: Sitagliptin
Name: (3R)-3-Amino-1-[3-(trifluoromethyl)-6,8-dihydro-5H-[1,2,4]triazolo[4,3-a]pyrazin-7-yl]-4-(2,4,5-trifluorophenyl)butan-1-one
Formula: C16H15F6N5O
Exact mass: 407.1181
SMILES: c1c(c(cc(c1F)F)F)C[C@H](CC(=O)N2CCn3c(nnc3C(F)(F)F)C2)N
InChI: InChI=1S/C16H15F6N5O/c17-10-6-12(19)11(18)4-8(10)3-9(23)5-14(28)26-1-2-27-13(7-26)24-25-15(27)16(20,21)22/h4,6,9H,1-3,5,7,23H2/t9-/m1/s1
Instrument: LTQ Orbitrap XL Thermo Scientific
Instrument type: LC-ESI-ITFT
Ms type: MS2
Ion mode: POSITIVE
Ionization: ESI
Fragmentation mode: HCD
Collision energy: 80 % (nominal)
Resolution: 30000
Column name: Accucore PhenylHexyl 2.6um, 3x150mm, Thermo
Retention time: 17.909 min
Base peak: 408.1241
Precursor m/z: 408.1254
Precursor type: [M+H]+
m/z	relative intensity	assigned
118.0211	10	C3H2F2N3+
127.0354	999	C7H5F2+
128.0387	20	C2H6F2N2O2+
134.04	79	C8H5FN+
138.0273	111	C3H3F3N3+
145.026	74	C7H4F3+
150.0274	49	C4H3F3N3+
151.0353	95	C9H5F2+
153.0385	32	C8H5F2N+
154.0462	595	C8H6F2N+
155.0494	10	C11H7O+
157.0259	26	C8H4F3+
165.026	12	C8H3F2N2+
168.0379	57	C4H5F3N3O+
171.0415	38	C9H6F3+
174.0525	406	C8H7F3N+
193.0695	80	C6H8F3N4+
