Mass spectrum: A alpha C; APCI-ITFT; MS2; CE: 35%; R=30000; [M-H]-
Name: A alpha C
Name: 9H-pyrido[2,3-b]indol-2-amine
Formula: C11H9N3
Exact mass: 183.0796
SMILES: c1ccc2c(c1)c1c([nH]2)nc(cc1)N
InChI: InChI=1S/C11H9N3/c12-10-6-5-8-7-3-1-2-4-9(7)13-11(8)14-10/h1-6H,(H3,12,13,14)
Instrument: LTQ Orbitrap XL Thermo Scientific
Instrument type: APCI-ITFT
Ms type: MS2
Ion mode: NEGATIVE
Ionization: APCI
Fragmentation mode: CID
Collision energy: 35 % (nominal)
Resolution: 30000
Column name: N/A
Retention time: N/A min
Base peak: 182.0724
Precursor m/z: 182.0724
Precursor type: [M-H]-
m/z	relative intensity	assigned
141.0458	999	C9H5N2-
