Mass spectrum: 5,6-Chrysenequinone; APCI-ITFT; MS2; CE: 35%; R=30000; [M+H]+
Name: 5,6-Chrysenequinone
Name: chrysene-5,6-dione
Formula: C18H10O2
Exact mass: 258.0681
SMILES: O=C3c4c(c2c(c1ccccc1cc2)C3=O)cccc4
InChI: InChI=1S/C18H10O2/c19-17-15-8-4-3-7-13(15)14-10-9-11-5-1-2-6-12(11)16(14)18(17)20/h1-10H
Instrument: LTQ Orbitrap XL Thermo Scientific
Instrument type: APCI-ITFT
Ms type: MS2
Ion mode: POSITIVE
Ionization: APCI
Fragmentation mode: CID
Collision energy: 35 % (nominal)
Resolution: 30000
Column name: N/A
Retention time: N/A min
Base peak: 259.0754
Precursor m/z: 259.0754
Precursor type: [M+H]+
m/z	relative intensity	assigned
189.0701	8	C15H9+
202.0769	2	C16H10+
203.0857	19	C16H11+
215.0857	1	C17H11+
217.0648	14	C16H9O+
231.0803	999	C17H11O+
241.0647	1	C18H9O+
242.0725	1	C18H10O+
