Mass spectrum: 1-naphthalenecarboxaldehyde, 2-hydroxy; APCI-ITFT; MS2; CE: 35%; R=30000; [M+H]+
Name: 1-naphthalenecarboxaldehyde, 2-hydroxy
Name: 2-hydroxynaphthalene-1-carbaldehyde
Formula: C11H8O2
Exact mass: 172.0524
SMILES: c1ccc2c(c1)ccc(c2C=O)O
InChI: InChI=1S/C11H8O2/c12-7-10-9-4-2-1-3-8(9)5-6-11(10)13/h1-7,13H
Instrument: LTQ Orbitrap XL Thermo Scientific
Instrument type: APCI-ITFT
Ms type: MS2
Ion mode: POSITIVE
Ionization: APCI
Fragmentation mode: CID
Collision energy: 35 % (nominal)
Resolution: 30000
Column name: N/A
Retention time: N/A min
Base peak: 173.0597
Precursor m/z: 173.0597
Precursor type: [M+H]+
m/z	relative intensity	assigned
90.0102	1	C6H2O+
117.0705	52	
145.0657	999	
155.0614	73	
