Mass spectrum: 1,4-naphthalene-dione; APCI-ITFT; MS2; CE: 35%; R=30000; [M+H]+
Name: 1,4-naphthalene-dione
Name: naphthalene-1,4-dione
Formula: C10H6O2
Exact mass: 158.0368
SMILES: O=C\2c1c(cccc1)C(=O)/C=C/2
InChI: InChI=1S/C10H6O2/c11-9-5-6-10(12)8-4-2-1-3-7(8)9/h1-6H
Instrument: LTQ Orbitrap XL Thermo Scientific
Instrument type: APCI-ITFT
Ms type: MS2
Ion mode: POSITIVE
Ionization: APCI
Fragmentation mode: CID
Collision energy: 35 % (nominal)
Resolution: 30000
Column name: N/A
Retention time: N/A min
Base peak: 159.0441
Precursor m/z: 159.0441
Precursor type: [M+H]+
m/z	relative intensity	assigned
159.0443	999	C10H7O2+
