Mass spectrum: Caffeine; APCI-ITFT; MS2; CE: 35%; R=30000; [M+H]+
Name: Caffeine
Name: 1,3,7-trimethylpurine-2,6-dione
Formula: C8H10N4O2
Exact mass: 194.0804
SMILES: Cn1cnc2c1c(=O)n(c(=O)n2C)C
InChI: InChI=1S/C8H10N4O2/c1-10-4-9-6-5(10)7(13)12(3)8(14)11(6)2/h4H,1-3H3
Instrument: LTQ Orbitrap XL Thermo Scientific
Instrument type: APCI-ITFT
Ms type: MS2
Ion mode: POSITIVE
Ionization: APCI
Fragmentation mode: CID
Collision energy: 35 % (nominal)
Resolution: 30000
Column name: N/A
Retention time: N/A min
Base peak: 195.0877
Precursor m/z: 195.0877
Precursor type: [M+H]+
m/z	relative intensity	assigned
69.0446	5	C3H5N2+
83.0603	3	C4H7N2+
93.0447	2	C5H5N2+
108.0556	2	C5H6N3+
110.0712	129	C5H8N3+
111.0552	1	C5H7N2O+
120.0555	2	C6H6N3+
122.0712	26	C6H8N3+
124.0868	14	C6H10N3+
134.0713	4	C7H8N3+
135.0665	4	C6H7N4+
136.0744	1	C6H8N4+
138.0661	999	C6H8N3O+
151.0978	232	C7H11N4+
163.0615	57	C7H7N4O+
180.0642	18	C7H8N4O2+
181.072	13	C7H9N4O2+
195.0876	368	C8H11N4O2+
