Mass spectrum: IQ; APCI-ITFT; MS2; CE: 35%; R=30000; [M+H]+
Name: IQ
Name: 3-methylimidazo[4,5-f]quinolin-2-amine
Formula: C11H10N4
Exact mass: 198.0905
SMILES: Cn1c2c(c3c(cc2)nccc3)nc1N
InChI: InChI=1S/C11H10N4/c1-15-9-5-4-8-7(3-2-6-13-8)10(9)14-11(15)12/h2-6H,1H3,(H2,12,14)
Instrument: LTQ Orbitrap XL Thermo Scientific
Instrument type: APCI-ITFT
Ms type: MS2
Ion mode: POSITIVE
Ionization: APCI
Fragmentation mode: CID
Collision energy: 35 % (nominal)
Resolution: 30000
Column name: N/A
Retention time: N/A min
Base peak: 199.0978
Precursor m/z: 199.0978
Precursor type: [M+H]+
m/z	relative intensity	assigned
92.0131	4	C5H2NO+
130.0648	7	C9H8N+
131.0602	32	C8H7N2+
157.076	68	C10H9N2+
158.0712	321	C9H8N3+
172.0868	5	C10H10N3+
182.0712	89	C11H8N3+
183.0791	4	C11H9N3+
184.0742	999	C10H8N4+
199.0977	139	C11H11N4+
