Mass spectrum: 4-Nitroquinoline 1-oxide; APCI-ITFT; MS2; CE: 35%; R=30000; [M]-
Name: 4-Nitroquinoline 1-oxide
Name: 4-nitro-1-oxidoquinolin-1-ium
Formula: C9H6N2O3
Exact mass: 190.0378
SMILES: c1ccc2c(c1)c(cc[n+]2[O-])[N+](=O)[O-]
InChI: InChI=1S/C9H6N2O3/c12-10-6-5-9(11(13)14)7-3-1-2-4-8(7)10/h1-6H
Instrument: LTQ Orbitrap XL Thermo Scientific
Instrument type: APCI-ITFT
Ms type: MS2
Ion mode: NEGATIVE
Ionization: APCI
Fragmentation mode: CID
Collision energy: 35 % (nominal)
Resolution: 30000
Column name: N/A
Retention time: N/A min
Base peak: 190.0384
Precursor m/z: 190.0384
Precursor type: [M]-
m/z	relative intensity	assigned
116.0505	15	C8H6N-
118.0297	7	C7H4NO-
131.0376	2	C8H5NO-
132.0454	6	C8H6NO-
142.0298	9	C9H4NO-
143.0376	3	C9H5NO-
144.0454	27	C9H6NO-
159.0325	5	C9H5NO2-
160.0402	999	C9H6NO2-
161.0355	2	C8H5N2O2-
173.0355	3	C9H5N2O2-
