Mass spectrum: 4-Phenylpyridine; LC-ESI-QFT; MS2; CE: 61.67%; R=35000; [M+H]+
Name: 4-Phenylpyridine
Formula: C11H9N
Exact mass: 155.0735
SMILES: c1ccc(cc1)c2ccncc2
InChI: InChI=1S/C11H9N/c1-2-4-10(5-3-1)11-6-8-12-9-7-11/h1-9H
Instrument: Q Exactive Plus Orbitrap Thermo Scientific
Instrument type: LC-ESI-QFT
Ms type: MS2
Ion mode: POSITIVE
Ionization: ESI
Fragmentation mode: HCD
Collision energy: 61.67 % (nominal)
Resolution: 35000
Column name: Accucore PhenylHexyl 2.6um, 3x150mm, Thermo
Retention time: 16.125 min
Base peak: 156.0806
Precursor m/z: 156.0808
Precursor type: [M+H]+
m/z	relative intensity	assigned
78.0338	23	C5H4N+
96.0444	37	C5H6NO+
128.062	38	C10H8+
129.0698	12	C10H9+
154.0651	11	C11H8N+
156.0808	999	C11H10N+
