Mass spectrum: 2-Naphthalenamine, N-phenyl-; ESI-ITFT; MS2; CE: 35%; R=30000; [M+H]+
Name: 2-Naphthalenamine, N-phenyl-
Name: N-phenylnaphthalen-2-amine
Formula: C16H13N
Exact mass: 219.1048
SMILES: c3c(Nc1ccccc1)cc2ccccc2c3
InChI: InChI=1S/C16H13N/c1-2-8-15(9-3-1)17-16-11-10-13-6-4-5-7-14(13)12-16/h1-12,17H
Instrument: LTQ Orbitrap XL Thermo Scientific
Instrument type: ESI-ITFT
Ms type: MS2
Ion mode: POSITIVE
Ionization: ESI
Fragmentation mode: CID
Collision energy: 35 % (nominal)
Resolution: 30000
Column name: N/A
Retention time: N/A min
Base peak: 220.1121
Precursor m/z: 220.1121
Precursor type: [M+H]+
m/z	relative intensity	assigned
65.0385	2	C5H5+
92.0496	72	C6H6N+
93.0575	1	C6H7N+
104.0496	4	C7H6N+
115.0543	43	C9H7+
117.07	4	C9H9+
128.0622	36	C10H8+
142.0653	145	C10H8N+
143.0731	270	C10H9N+
165.07	1	C13H9+
167.0859	1	C13H11+
178.078	8	C14H10+
179.0859	7	C14H11+
191.0732	5	C14H9N+
191.0857	3	C15H11+
192.081	2	C14H10N+
193.1014	30	C15H13+
202.0779	6	C16H10+
203.0858	115	C16H11+
204.081	33	C15H10N+
204.0936	7	C16H12+
205.0888	271	C15H11N+
217.0891	16	C16H11N+
218.0967	6	C16H12N+
220.1122	999	C16H14N+
231.0921	2	C16H11N2+
