Mass spectrum: Telmisartan; LC-ESI-QFT; MS2; CE: 50%; R=35000; [M+H]+
Name: Telmisartan
Name: 2-[4-[[4-Methyl-6-(1-methylbenzimidazol-2-yl)-2-propylbenzimidazol-1-yl]methyl]phenyl]benzoic acid
Formula: C33H30N4O2
Exact mass: 514.2369
SMILES: CCCc1nc2c(cc(cc2n1Cc3ccc(cc3)c4ccccc4C(=O)O)c5nc6ccccc6n5C)C
InChI: InChI=1S/C33H30N4O2/c1-4-9-30-35-31-21(2)18-24(32-34-27-12-7-8-13-28(27)36(32)3)19-29(31)37(30)20-22-14-16-23(17-15-22)25-10-5-6-11-26(25)33(38)39/h5-8,10-19H,4,9,20H2,1-3H3,(H,38,39)
Instrument: Q Exactive Plus Orbitrap Thermo Scientific
Instrument type: LC-ESI-QFT
Ms type: MS2
Ion mode: POSITIVE
Ionization: ESI
Fragmentation mode: HCD
Collision energy: 50 % (nominal)
Resolution: 35000
Column name: Accucore PhenylHexyl 2.6um, 3x150mm, Thermo
Retention time: 24.070 min
Base peak: 515.2441
Precursor m/z: 515.2442
Precursor type: [M+H]+
m/z	relative intensity	assigned
152.0618	21	C12H8+
155.0852	16	C12H11+
165.0696	42	C13H9+
183.0801	14	C13H11O+
193.0646	137	C14H9O+
211.0751	138	C14H11O2+
260.105	10	C16H12N4+
261.1131	152	C16H13N4+
262.121	16	C16H14N4+
274.1205	17	C17H14N4+
275.1286	104	C17H15N4+
276.1365	999	C17H16N4+
287.1285	13	C18H15N4+
288.1365	13	C18H16N4+
289.1442	226	C18H17N4+
303.16	104	C19H19N4+
305.1755	92	C19H21N4+
317.1757	35	C20H21N4+
467.1867	33	C31H23N4O+
485.1974	13	C31H25N4O2+
497.2335	336	C33H29N4O+
515.2442	771	C33H31N4O2+
