Mass spectrum: Trinitrotoluene; APCI-ITFT; MS2; CE: 35%; R=30000; [M]-
Name: Trinitrotoluene
Name: 2-methyl-1,3,5-trinitrobenzene
Formula: C7H5N3O6
Exact mass: 227.0178
SMILES: CC1=C(C=C(C=C1[N+](=O)[O-])[N+](=O)[O-])[N+](=O)[O-]
InChI: InChI=1S/C7H5N3O6/c1-4-6(9(13)14)2-5(8(11)12)3-7(4)10(15)16/h2-3H,1H3
Instrument: LTQ Orbitrap XL Thermo Scientific
Instrument type: APCI-ITFT
Ms type: MS2
Ion mode: NEGATIVE
Ionization: APCI
Fragmentation mode: CID
Collision energy: 35 % (nominal)
Resolution: 30000
Column name: N/A
Retention time: N/A min
Base peak: 227.0184
Precursor m/z: 227.0184
Precursor type: [M]-
m/z	relative intensity	assigned
76.0193	1	C5H2N-
88.0193	6	C6H2N-
89.0145	5	C5HN2-
91.0303	2	C5H3N2-
92.0141	1	C5H2NO-
93.0221	5	C5H3NO-
94.0298	2	C5H4NO-
96.0092	1	C4H2NO2-
101.0145	1	C6HN2-
105.022	1	C6H3NO-
106.0299	1	C6H4NO-
109.0169	1	C5H3NO2-
119.0251	2	C6H3N2O-
120.0091	7	C6H2NO2-
120.0218	1	C7H4O2-
121.0296	3	C7H5O2-
122.0248	3	C6H4NO2-
123.02	33	C5H3N2O2-
123.0327	2	C6H5NO2-
124.0279	7	C5H4N2O2-
133.0171	1	C7H3NO2-
134.0121	1	C6H2N2O2-
134.0248	4	C7H4NO2-
135.0201	8	C6H3N2O2-
136.0279	15	C6H4N2O2-
137.0245	157	C7H5O3-
139.0276	2	C6H5NO3-
141.0305	1	C5H5N2O3-
146.0127	1	C7H2N2O2-
150.0072	2	C6H2N2O3-
150.0197	2	C7H4NO3-
151.015	71	C6H3N2O3-
152.0228	46	C6H4N2O3-
153.0306	2	C6H5N2O3-
154.0146	1	C6H4NO4-
155.0101	1	C5H3N2O4-
163.015	15	C7H3N2O3-
164.0102	22	C6H2N3O3-
166.0258	9	C6H4N3O3-
167.0099	44	C6H3N2O4-
167.0225	21	C7H5NO4-
168.0178	16	C6H4N2O4-
169.0255	29	C6H5N2O4-
179.0099	15	C7H3N2O4-
180.0177	34	C7H4N2O4-
181.0129	20	C6H3N3O4-
181.0254	9	C7H5N2O4-
182.0207	13	C6H4N3O4-
192.0046	1	C7H2N3O4-
197.0079	54	C6H3N3O5-
197.0203	249	C7H5N2O5-
198.0156	17	C6H4N3O5-
209.0077	4	C7H3N3O5-
210.0155	999	C7H4N3O5-
210.9995	4	C7H3N2O6-
