Mass spectrum: 2-Hydroxyanthraquinone; ESI-ITFT; MS2; CE: 35%; R=30000; [M+H]+
Name: 2-Hydroxyanthraquinone
Name: 2-hydroxyanthracene-9,10-dione
Formula: C14H8O3
Exact mass: 224.0473
SMILES: c1ccc2c(c1)C(=O)c1c(C2=O)cc(cc1)O
InChI: InChI=1S/C14H8O3/c15-8-5-6-11-12(7-8)14(17)10-4-2-1-3-9(10)13(11)16/h1-7,15H
Instrument: LTQ Orbitrap XL Thermo Scientific
Instrument type: ESI-ITFT
Ms type: MS2
Ion mode: POSITIVE
Ionization: ESI
Fragmentation mode: CID
Collision energy: 35 % (nominal)
Resolution: 30000
Column name: N/A
Retention time: N/A min
Base peak: 225.0546
Precursor m/z: 225.0546
Precursor type: [M+H]+
m/z	relative intensity	assigned
77.0385	22	C6H5+
105.0334	170	C7H5O+
141.0698	43	C11H9+
152.0616	25	C12H8+
153.0698	202	C12H9+
169.0648	163	C12H9O+
179.0489	19	C13H7O+
181.0649	41	C13H9O+
183.044	86	C12H7O2+
184.0057	33	C13N2+
197.0596	999	C13H9O2+
207.0438	42	C14H7O2+
225.0546	96	C14H9O3+
