Mass spectrum: 1-naphthalenecarboxaldehyde, 2-hydroxy; APCI-ITFT; MS2; CE: 35%; R=30000; [M-H]-
Name: 1-naphthalenecarboxaldehyde, 2-hydroxy
Name: 2-hydroxynaphthalene-1-carbaldehyde
Formula: C11H8O2
Exact mass: 172.0524
SMILES: c1ccc2c(c1)ccc(c2C=O)O
InChI: InChI=1S/C11H8O2/c12-7-10-9-4-2-1-3-8(9)5-6-11(10)13/h1-7,13H
Instrument: LTQ Orbitrap XL Thermo Scientific
Instrument type: APCI-ITFT
Ms type: MS2
Ion mode: NEGATIVE
Ionization: APCI
Fragmentation mode: CID
Collision energy: 35 % (nominal)
Resolution: 30000
Column name: N/A
Retention time: N/A min
Base peak: 171.0452
Precursor m/z: 171.0452
Precursor type: [M-H]-
m/z	relative intensity	assigned
143.0502	999	C10H7O-
171.0446	3	C11H7O2-
