Mass spectrum: PHIP; ESI-ITFT; MS2; CE: 35%; R=30000; [M+H]+
Name: PHIP
Name: 1-methyl-6-phenylimidazo[4,5-b]pyridin-2-amine
Formula: C13H12N4
Exact mass: 224.1062
SMILES: Cn1c2c(ncc(c2)c2ccccc2)nc1N
InChI: InChI=1S/C13H12N4/c1-17-11-7-10(9-5-3-2-4-6-9)8-15-12(11)16-13(17)14/h2-8H,1H3,(H2,14,15,16)
Instrument: LTQ Orbitrap XL Thermo Scientific
Instrument type: ESI-ITFT
Ms type: MS2
Ion mode: POSITIVE
Ionization: ESI
Fragmentation mode: CID
Collision energy: 35 % (nominal)
Resolution: 30000
Column name: N/A
Retention time: N/A min
Base peak: 225.1135
Precursor m/z: 225.1135
Precursor type: [M+H]+
m/z	relative intensity	assigned
140.0495	1	C10H6N+
142.065	1	C10H8N+
143.0729	1	C10H9N+
147.0664	3	C7H7N4+
157.076	4	C10H9N2+
167.0603	6	C11H7N2+
181.076	4	C12H9N2+
183.0916	6	C12H11N2+
184.0869	5	C11H10N3+
198.1025	2	C12H12N3+
208.0869	19	C13H10N3+
210.0899	108	C12H10N4+
225.1134	999	C13H13N4+
