Mass spectrum: 1,5-dihydroxyanthraquinone; APCI-ITFT; MS2; CE: 35%; R=30000; [M+H]+
Name: 1,5-dihydroxyanthraquinone
Name: 1,5-dihydroxyanthracene-9,10-dione
Formula: C14H8O4
Exact mass: 240.0423
SMILES: O=C2c1c(cccc1O)C(=O)c3c2cccc3O
InChI: InChI=1S/C14H8O4/c15-9-5-1-3-7-11(9)14(18)8-4-2-6-10(16)12(8)13(7)17/h1-6,15-16H
Instrument: LTQ Orbitrap XL Thermo Scientific
Instrument type: APCI-ITFT
Ms type: MS2
Ion mode: POSITIVE
Ionization: APCI
Fragmentation mode: CID
Collision energy: 35 % (nominal)
Resolution: 30000
Column name: N/A
Retention time: N/A min
Base peak: 241.0495
Precursor m/z: 241.0495
Precursor type: [M+H]+
m/z	relative intensity	assigned
121.029	441	C7H5O2+
141.0706	141	
185.0608	151	
213.0557	999	C13H9O3+
223.04	37	C14H7O3+
241.0506	70	C14H9O4+
