Mass spectrum: 1-Hydroxyanthraquinone; ESI-ITFT; MS2; CE: 35%; R=30000; [M-H]-
Name: 1-Hydroxyanthraquinone
Name: 1-hydroxyanthracene-9,10-dione
Formula: C14H8O3
Exact mass: 224.0473
SMILES: c1ccc2c(c1)C(=O)c1c(C2=O)c(ccc1)O
InChI: InChI=1S/C14H8O3/c15-11-7-3-6-10-12(11)14(17)9-5-2-1-4-8(9)13(10)16/h1-7,15H
Instrument: LTQ Orbitrap XL Thermo Scientific
Instrument type: ESI-ITFT
Ms type: MS2
Ion mode: NEGATIVE
Ionization: ESI
Fragmentation mode: CID
Collision energy: 35 % (nominal)
Resolution: 30000
Column name: N/A
Retention time: N/A min
Base peak: 223.0401
Precursor m/z: 223.0401
Precursor type: [M-H]-
m/z	relative intensity	assigned
152.023	72	C6H4N2O3-
195.0451	999	C13H7O2-
223.0393	84	C14H7O3-
