Mass spectrum: 2,3-Phenazinediamine; LC-ESI-QFT; MS2; CE: 50%; R=35000; [M+H]+
Name: 2,3-Phenazinediamine
Name: Phenazine-2,3-diamine
Formula: C12H10N4
Exact mass: 210.0905
SMILES: c1ccc2c(c1)nc3cc(c(cc3n2)N)N
InChI: InChI=1S/C12H10N4/c13-7-5-11-12(6-8(7)14)16-10-4-2-1-3-9(10)15-11/h1-6H,13-14H2
Instrument: Q Exactive Plus Orbitrap Thermo Scientific
Instrument type: LC-ESI-QFT
Ms type: MS2
Ion mode: POSITIVE
Ionization: ESI
Fragmentation mode: HCD
Collision energy: 50 % (nominal)
Resolution: 35000
Column name: Accucore PhenylHexyl 2.6um, 3x150mm, Thermo
Retention time: 17.568 min
Base peak: 211.0976
Precursor m/z: 211.0978
Precursor type: [M+H]+
m/z	relative intensity	assigned
167.0601	17	C11H7N2+
184.0867	70	C11H10N3+
194.0711	48	C12H8N3+
195.0789	24	C12H9N3+
210.0898	31	C12H10N4+
211.0976	999	C12H11N4+
