Mass spectrum: Acridine; ESI-ITFT; MS2; CE: 35%; R=30000; [M+H]+
Name: Acridine
Name: acridine
Formula: C13H9N
Exact mass: 179.0735
SMILES: c1ccc2c(c1)cc1ccccc1n2
InChI: InChI=1S/C13H9N/c1-3-7-12-10(5-1)9-11-6-2-4-8-13(11)14-12/h1-9H
Instrument: LTQ Orbitrap XL Thermo Scientific
Instrument type: ESI-ITFT
Ms type: MS2
Ion mode: POSITIVE
Ionization: ESI
Fragmentation mode: CID
Collision energy: 35 % (nominal)
Resolution: 30000
Column name: N/A
Retention time: N/A min
Base peak: 180.0808
Precursor m/z: 180.0808
Precursor type: [M+H]+
m/z	relative intensity	assigned
180.0806	999	C13H10N+
