Mass spectrum: MeIQX; ESI-ITFT; MS2; CE: 35%; R=30000; [M+H]+
Name: MeIQX
Name: 3,8-dimethylimidazo[4,5-f]quinoxalin-2-amine
Formula: C11H11N5
Exact mass: 213.1014
SMILES: Cc1cnc2ccc3c(c2n1)nc(n3C)N
InChI: InChI=1S/C11H11N5/c1-6-5-13-7-3-4-8-10(9(7)14-6)15-11(12)16(8)2/h3-5H,1-2H3,(H2,12,15)
Instrument: LTQ Orbitrap XL Thermo Scientific
Instrument type: ESI-ITFT
Ms type: MS2
Ion mode: POSITIVE
Ionization: ESI
Fragmentation mode: CID
Collision energy: 35 % (nominal)
Resolution: 30000
Column name: N/A
Retention time: N/A min
Base peak: 214.1087
Precursor m/z: 214.1087
Precursor type: [M+H]+
m/z	relative intensity	assigned
146.0714	10	C8H8N3+
156.0558	2	C9H6N3+
160.0871	1	C9H10N3+
172.0871	14	C10H10N3+
173.0823	135	C9H9N4+
185.0824	2	C10H9N4+
187.0979	39	C10H11N4+
197.0823	38	C11H9N4+
198.0902	2	C11H10N4+
199.0853	117	C10H9N5+
214.1088	999	C11H12N5+
