Mass spectrum: 2-nitro-9-fluorenone; APCI-ITFT; MS2; CE: 35%; R=30000; [M]-
Name: 2-nitro-9-fluorenone
Name: 2-nitrofluoren-9-one
Formula: C13H7NO3
Exact mass: 225.0426
SMILES: c1ccc2c(c1)c1c(C2=O)cc(cc1)[N+](=O)[O-]
InChI: InChI=1S/C13H7NO3/c15-13-11-4-2-1-3-9(11)10-6-5-8(14(16)17)7-12(10)13/h1-7H
Instrument: LTQ Orbitrap XL Thermo Scientific
Instrument type: APCI-ITFT
Ms type: MS2
Ion mode: NEGATIVE
Ionization: APCI
Fragmentation mode: CID
Collision energy: 35 % (nominal)
Resolution: 30000
Column name: N/A
Retention time: N/A min
Base peak: 225.0431
Precursor m/z: 225.0431
Precursor type: [M]-
m/z	relative intensity	assigned
195.0449	999	C13H7O2-
225.0429	248	C13H7NO3-
