Mass spectrum: Benzo[h]quinoline; APCI-ITFT; MS2; CE: 35%; R=30000; [M+H]+
Name: Benzo[h]quinoline
Name: phenanthridine
Formula: C13H9N
Exact mass: 179.0735
SMILES: c1ccc2c(c1)cnc1ccccc21
InChI: InChI=1S/C13H9N/c1-2-6-11-10(5-1)9-14-13-8-4-3-7-12(11)13/h1-9H
Instrument: LTQ Orbitrap XL Thermo Scientific
Instrument type: APCI-ITFT
Ms type: MS2
Ion mode: POSITIVE
Ionization: APCI
Fragmentation mode: CID
Collision energy: 35 % (nominal)
Resolution: 30000
Column name: N/A
Retention time: N/A min
Base peak: 180.0808
Precursor m/z: 180.0808
Precursor type: [M+H]+
m/z	relative intensity	assigned
180.0808	999	C13H10N+
