Mass spectrum: Carbamazepine; APCI-ITFT; MS2; CE: 35%; R=30000; [M+H]+
Name: Carbamazepine
Name: benzo[b][1]benzazepine-11-carboxamide
Formula: C15H12N2O
Exact mass: 236.0950
SMILES: c1ccc2c(c1)C=Cc1ccccc1N2C(=O)N
InChI: InChI=1S/C15H12N2O/c16-15(18)17-13-7-3-1-5-11(13)9-10-12-6-2-4-8-14(12)17/h1-10H,(H2,16,18)
Instrument: LTQ Orbitrap XL Thermo Scientific
Instrument type: APCI-ITFT
Ms type: MS2
Ion mode: POSITIVE
Ionization: APCI
Fragmentation mode: CID
Collision energy: 35 % (nominal)
Resolution: 30000
Column name: N/A
Retention time: N/A min
Base peak: 237.1022
Precursor m/z: 237.1022
Precursor type: [M+H]+
m/z	relative intensity	assigned
192.0809	57	C14H10N+
193.0884	2	C14H11N+
194.0964	999	C14H12N+
220.0754	71	C15H10NO+
