Mass spectrum: Isoquinolone; LC-ESI-QFT; MS2; CE: 61.67%; R=35000; [M+H]+
Name: Isoquinolone
Name: 1-Hydroxyisoquinoline
Name: 2H-isoquinolin-1-one
Formula: C9H7NO
Exact mass: 145.0528
SMILES: c1ccc2c(c1)ccnc2O
InChI: InChI=1S/C9H7NO/c11-9-8-4-2-1-3-7(8)5-6-10-9/h1-6H,(H,10,11)
Instrument: Q Exactive Plus Orbitrap Thermo Scientific
Instrument type: LC-ESI-QFT
Ms type: MS2
Ion mode: POSITIVE
Ionization: ESI
Fragmentation mode: HCD
Collision energy: 61.67 % (nominal)
Resolution: 35000
Column name: Accucore PhenylHexyl 2.6um, 3x150mm, Thermo
Retention time: 20.419 min
Base peak: 146.0598
Precursor m/z: 146.06
Precursor type: [M+H]+
m/z	relative intensity	assigned
77.0385	11	C6H5+
91.0542	16	C7H7+
103.0542	12	C8H7+
119.0491	10	C8H7O+
128.0495	383	C9H6N+
129.0447	23	C8H5N2+
146.06	999	C9H8NO+
