Mass spectrum: 1-hydroxypyrene; ESI-ITFT; MS2; CE: 35%; R=30000; [M-H]-
Name: 1-hydroxypyrene
Name: pyren-1-ol
Formula: C16H10O
Exact mass: 218.0732
SMILES: Oc4ccc2ccc1cccc3c1c2c4cc3
InChI: InChI=1S/C16H10O/c17-14-9-7-12-5-4-10-2-1-3-11-6-8-13(14)16(12)15(10)11/h1-9,17H
Instrument: LTQ Orbitrap XL Thermo Scientific
Instrument type: ESI-ITFT
Ms type: MS2
Ion mode: NEGATIVE
Ionization: ESI
Fragmentation mode: CID
Collision energy: 35 % (nominal)
Resolution: 30000
Column name: N/A
Retention time: N/A min
Base peak: 217.0659
Precursor m/z: 217.0659
Precursor type: [M-H]-
m/z	relative intensity	assigned
63.0325	907	CH5NO2-
189.071	999	C15H9-
