Mass spectrum: Candesartan; LC-ESI-ITFT; MS2; CE: 35%; R=30000; [M+H]+
Name: Candesartan
Name: 2-Ethoxy-3-[[4-[2-(2H-tetrazol-5-yl)phenyl]phenyl]methyl]benzimidazole-4-carboxylic acid
Formula: C24H20N6O3
Exact mass: 440.1597
SMILES: CCOc1nc2cccc(c2n1Cc3ccc(cc3)c4ccccc4c5[nH]nnn5)C(=O)O
InChI: InChI=1S/C24H20N6O3/c1-2-33-24-25-20-9-5-8-19(23(31)32)21(20)30(24)14-15-10-12-16(13-11-15)17-6-3-4-7-18(17)22-26-28-29-27-22/h3-13H,2,14H2,1H3,(H,31,32)(H,26,27,28,29)
Instrument: LTQ Orbitrap XL Thermo Scientific
Instrument type: LC-ESI-ITFT
Ms type: MS2
Ion mode: POSITIVE
Ionization: ESI
Fragmentation mode: CID
Collision energy: 35 % (nominal)
Resolution: 30000
Column name: Accucore PhenylHexyl 2.6um, 3x150mm, Thermo
Retention time: 25.163 min
Base peak: 441.166
Precursor m/z: 441.167
Precursor type: [M+H]+
m/z	relative intensity	assigned
192.0812	16	C14H10N+
207.092	17	C14H11N2+
219.0772	11	C11H11N2O3+
220.0995	11	C15H12N2+
235.0978	77	C14H11N4+
235.1231	40	C16H15N2+
263.1292	999	C16H15N4+
395.1253	112	C22H15N6O2+
413.1609	19	C24H21N4O3+
423.1564	920	C24H19N6O2+
