Mass spectrum: Benzotriazole; ESI-ITFT; MS2; CE: 35%; R=30000; [M-H]-
Name: Benzotriazole
Name: 2H-benzotriazole
Formula: C6H5N3
Exact mass: 119.0483
SMILES: C1=CC=C2C(=C1)NN=N2
InChI: InChI=1S/C6H5N3/c1-2-4-6-5(3-1)7-9-8-6/h1-4H,(H,7,8,9)
Instrument: LTQ Orbitrap XL Thermo Scientific
Instrument type: ESI-ITFT
Ms type: MS2
Ion mode: NEGATIVE
Ionization: ESI
Fragmentation mode: CID
Collision energy: 35 % (nominal)
Resolution: 30000
Column name: N/A
Retention time: N/A min
Base peak: 118.0411
Precursor m/z: 118.0411
Precursor type: [M-H]-
m/z	relative intensity	assigned
118.0412	999	C6H4N3-
