Mass spectrum: Furosemide; LC-ESI-ITFT; MS2; CE: 55; R=15000; [M-H]-
Name: Furosemide
Name: 4-Chloro-2-(furan-2-ylmethylamino)-5-sulfamoylbenzoic acid
Formula: C12H11ClN2O5S
Exact mass: 330.0077
SMILES: NS(=O)(=O)C1=CC(C(O)=O)=C(NCC2=CC=CO2)C=C1Cl
InChI: InChI=1S/C12H11ClN2O5S/c13-9-5-10(15-6-7-2-1-3-20-7)8(12(16)17)4-11(9)21(14,18)19/h1-5,15H,6H2,(H,16,17)(H2,14,18,19)
Instrument: LTQ Orbitrap XL Thermo Scientific
Instrument type: LC-ESI-ITFT
Ms type: MS2
Ion mode: NEGATIVE
Ionization: ESI
Fragmentation mode: CID
Collision energy: 55 (nominal)
Resolution: 15000
Column name: Kinetex Core-Shell C18 2.6 um, 3.0 x 100 mm, Phenomenex
Retention time: 21.064 min
Base peak: 212.9994
Precursor m/z: 329.0004
Precursor type: [M-H]-
m/z	relative intensity	assigned
204.9844	20	C6H6ClN2O2S-
285.0105	999	C11H10ClN2O3S-
