Mass spectrum: Chlorfenvinphos; LC-ESI-ITFT; MS2; CE: 55; R=15000; [M+H]+
Name: Chlorfenvinphos
Name: [2-Chloro-1-(2,4-dichlorophenyl)ethenyl] diethyl phosphate
Formula: C12H14Cl3O4P
Exact mass: 357.9695
SMILES: CCOP(=O)(OCC)OC(=CCl)C1=CC=C(Cl)C=C1Cl
InChI: InChI=1S/C12H14Cl3O4P/c1-3-17-20(16,18-4-2)19-12(8-13)10-6-5-9(14)7-11(10)15/h5-8H,3-4H2,1-2H3
Instrument: LTQ Orbitrap XL Thermo Scientific
Instrument type: LC-ESI-ITFT
Ms type: MS2
Ion mode: POSITIVE
Ionization: ESI
Fragmentation mode: HCD
Collision energy: 55 (nominal)
Resolution: 15000
Column name: Kinetex Core-Shell C18 2.6 um, 3.0 x 100 mm, Phenomenex
Retention time: 26.076 min
Base peak: 308.1522
Precursor m/z: 358.9768
Precursor type: [M+H]+
m/z	relative intensity	assigned
98.984	999	H4O4P+
127.0151	45	C2H8O4P+
198.9031	40	C5H3Cl3P+
204.9373	425	C8H4Cl3+
