Mass spectrum: Fenuron; LC-ESI-ITFT; MS2; CE: 80; R=15000; [M+H]+
Name: Fenuron
Name: 1,1-Dimethyl-3-phenylurea
Formula: C9H12N2O
Exact mass: 164.0950
SMILES: CN(C)C(=O)NC1=CC=CC=C1
InChI: InChI=1S/C9H12N2O/c1-11(2)9(12)10-8-6-4-3-5-7-8/h3-7H,1-2H3,(H,10,12)
Instrument: LTQ Orbitrap XL Thermo Scientific
Instrument type: LC-ESI-ITFT
Ms type: MS2
Ion mode: POSITIVE
Ionization: ESI
Fragmentation mode: HCD
Collision energy: 80 (nominal)
Resolution: 15000
Column name: Kinetex Core-Shell C18 2.6 um, 3.0 x 100 mm, Phenomenex
Retention time: 17.437 min
Base peak: 163.1326
Precursor m/z: 165.1022
Precursor type: [M+H]+
m/z	relative intensity	assigned
72.0442	999	C3H6NO+
77.0385	57	C6H5+
92.0494	97	C6H6N+
105.0446	23	C6H5N2+
120.0443	62	C7H6NO+
165.1023	3	C9H13N2O+
