Mass spectrum: Diuron; LC-ESI-ITFT; MS2; CE: 80; R=15000; [M-H]-
Name: Diuron
Name: 3-(3,4-Dichlorophenyl)-1,1-dimethylurea
Formula: C9H10Cl2N2O
Exact mass: 232.0170
SMILES: CN(C)C(=O)NC1=CC=C(Cl)C(Cl)=C1
InChI: InChI=1S/C9H10Cl2N2O/c1-13(2)9(14)12-6-3-4-7(10)8(11)5-6/h3-5H,1-2H3,(H,12,14)
Instrument: LTQ Orbitrap XL Thermo Scientific
Instrument type: LC-ESI-ITFT
Ms type: MS2
Ion mode: NEGATIVE
Ionization: ESI
Fragmentation mode: HCD
Collision energy: 80 (nominal)
Resolution: 15000
Column name: Kinetex Core-Shell C18 2.6 um, 3.0 x 100 mm, Phenomenex
Retention time: 23.668 min
Base peak: 212.9994
Precursor m/z: 231.0097
Precursor type: [M-H]-
m/z	relative intensity	assigned
197.9499	603	C6Cl2N4-
231.0099	999	C9H9Cl2N2O-
