Mass spectrum: Enrofloxacin; LC-ESI-ITFT; MS2; CE: 35; R=15000; [M+H]+
Name: Enrofloxacin
Name: 1-Cyclopropyl-7-(4-ethylpiperazin-4-ium-1-yl)-6-fluoro-4-oxoquinoline-3-carboxylate
Formula: C19H22FN3O3
Exact mass: 359.1645
SMILES: CCN1CCN(CC1)C1=C(F)C=C2C(=O)C(=CN(C3CC3)C2=C1)C(O)=O
InChI: InChI=1S/C19H22FN3O3/c1-2-21-5-7-22(8-6-21)17-10-16-13(9-15(17)20)18(24)14(19(25)26)11-23(16)12-3-4-12/h9-12H,2-8H2,1H3,(H,25,26)
Instrument: LTQ Orbitrap XL Thermo Scientific
Instrument type: LC-ESI-ITFT
Ms type: MS2
Ion mode: POSITIVE
Ionization: ESI
Fragmentation mode: CID
Collision energy: 35 (nominal)
Resolution: 15000
Column name: Kinetex Core-Shell C18 2.6 um, 3.0 x 100 mm, Phenomenex
Retention time: 16.540 min
Base peak: 163.1329
Precursor m/z: 360.1718
Precursor type: [M+H]+
m/z	relative intensity	assigned
261.1047	16	C14H14FN2O2+
316.1825	151	C18H23FN3O+
318.1616	999	C17H21FN3O2+
344.1413	47	C18H19FN3O3+
