Mass spectrum: Boscalid; LC-ESI-ITFT; MS2; CE: 35; R=15000; [M-H]-
Name: Boscalid
Name: 2-Chloro-N-[2-(4-chlorophenyl)phenyl]pyridine-3-carboxamide
Formula: C18H12Cl2N2O
Exact mass: 342.0327
SMILES: ClC1=CC=C(C=C1)C1=CC=CC=C1NC(=O)C1=CC=CN=C1Cl
InChI: InChI=1S/C18H12Cl2N2O/c19-13-9-7-12(8-10-13)14-4-1-2-6-16(14)22-18(23)15-5-3-11-21-17(15)20/h1-11H,(H,22,23)
Instrument: LTQ Orbitrap XL Thermo Scientific
Instrument type: LC-ESI-ITFT
Ms type: MS2
Ion mode: NEGATIVE
Ionization: ESI
Fragmentation mode: CID
Collision energy: 35 (nominal)
Resolution: 15000
Column name: Kinetex Core-Shell C18 2.6 um, 3.0 x 100 mm, Phenomenex
Retention time: 24.507 min
Base peak: 332.0905
Precursor m/z: 341.0254
Precursor type: [M-H]-
m/z	relative intensity	assigned
111.9958	330	C5H3ClN-
197.9515	999	C8H2Cl2NO-
228.0213	423	C13H7ClNO-
