Mass spectrum: Simazine; LC-ESI-ITFT; MS2; CE: 80; R=15000; [M+H]+
Name: Simazine
Name: 6-Chloro-2-N,4-N-diethyl-1,3,5-triazine-2,4-diamine
Formula: C7H12ClN5
Exact mass: 201.0781
SMILES: CCNC1=NC(NCC)=NC(Cl)=N1
InChI: InChI=1S/C7H12ClN5/c1-3-9-6-11-5(8)12-7(13-6)10-4-2/h3-4H2,1-2H3,(H2,9,10,11,12,13)
Instrument: LTQ Orbitrap XL Thermo Scientific
Instrument type: LC-ESI-ITFT
Ms type: MS2
Ion mode: POSITIVE
Ionization: ESI
Fragmentation mode: HCD
Collision energy: 80 (nominal)
Resolution: 15000
Column name: Kinetex Core-Shell C18 2.6 um, 3.0 x 100 mm, Phenomenex
Retention time: 21.882 min
Base peak: 228.1271
Precursor m/z: 202.0854
Precursor type: [M+H]+
m/z	relative intensity	assigned
71.0602	254	C3H7N2+
79.0057	48	CH4ClN2+
90.0104	20	C3H5ClN+
96.0555	494	C4H6N3+
104.0009	999	C2H3ClN3+
107.0373	5	C3H8ClN2+
124.0868	241	C6H10N3+
132.0322	390	C4H7ClN3+
138.0774	36	C5H8N5+
146.0228	30	C3H5ClN5+
166.1087	48	C7H12N5+
174.0541	67	C5H9ClN5+
202.0855	58	C7H13ClN5+
