Mass spectrum: Diflufenican; LC-ESI-ITFT; MS2; CE: 35; R=15000; [M-H]-
Name: Diflufenican
Name: N-(2,4-Difluorophenyl)-2-[3-(trifluoromethyl)phenoxy]pyridine-3-carboxamide
Formula: C19H11F5N2O2
Exact mass: 394.0741
SMILES: FC1=CC=C(NC(=O)C2=CC=CN=C2OC2=CC=CC(=C2)C(F)(F)F)C(F)=C1
InChI: InChI=1S/C19H11F5N2O2/c20-12-6-7-16(15(21)10-12)26-17(27)14-5-2-8-25-18(14)28-13-4-1-3-11(9-13)19(22,23)24/h1-10H,(H,26,27)
Instrument: LTQ Orbitrap XL Thermo Scientific
Instrument type: LC-ESI-ITFT
Ms type: MS2
Ion mode: NEGATIVE
Ionization: ESI
Fragmentation mode: CID
Collision energy: 35 (nominal)
Resolution: 15000
Column name: Kinetex Core-Shell C18 2.6 um, 3.0 x 100 mm, Phenomenex
Retention time: 26.750 min
Base peak: 453.286
Precursor m/z: 393.0668
Precursor type: [M-H]-
m/z	relative intensity	assigned
252.0437	192	C13H6F4N-
309.0648	385	C18H8F3N2-
329.0707	999	C18H9F4N2-
353.0544	590	C19H8F3N2O2-
373.0602	739	C19H9F4N2O2-
