Mass spectrum: Caffeine; LC-ESI-ITFT; MS2; CE: 55; R=15000; [M+H]+
Name: Caffeine
Name: 1,3,7-Trimethylpurine-2,6-dione
Formula: C8H10N4O2
Exact mass: 194.0804
SMILES: CN1C=NC2=C1C(=O)N(C)C(=O)N2C
InChI: InChI=1S/C8H10N4O2/c1-10-4-9-6-5(10)7(13)12(3)8(14)11(6)2/h4H,1-3H3
Instrument: LTQ Orbitrap XL Thermo Scientific
Instrument type: LC-ESI-ITFT
Ms type: MS2
Ion mode: POSITIVE
Ionization: ESI
Fragmentation mode: CID
Collision energy: 55 (nominal)
Resolution: 15000
Column name: Kinetex Core-Shell C18 2.6 um, 3.0 x 100 mm, Phenomenex
Retention time: 15.780 min
Base peak: 163.1329
Precursor m/z: 195.0877
Precursor type: [M+H]+
m/z	relative intensity	assigned
110.0714	19	C5H8N3+
138.0663	999	C6H8N3O+
151.0983	7	C7H11N4+
163.0614	3	C7H7N4O+
177.0165	11	C7H3N3O3+
