Mass spectrum: Bendiocarb; LC-ESI-ITFT; MS2; CE: 80; R=15000; [M+H]+
Name: Bendiocarb
Name: (2,2-Dimethyl-1,3-benzodioxol-4-yl) N-methylcarbamate
Formula: C11H13NO4
Exact mass: 223.0845
SMILES: CNC(=O)OC1=CC=CC2=C1OC(C)(C)O2
InChI: InChI=1S/C11H13NO4/c1-11(2)15-8-6-4-5-7(9(8)16-11)14-10(13)12-3/h4-6H,1-3H3,(H,12,13)
Instrument: LTQ Orbitrap XL Thermo Scientific
Instrument type: LC-ESI-ITFT
Ms type: MS2
Ion mode: POSITIVE
Ionization: ESI
Fragmentation mode: HCD
Collision energy: 80 (nominal)
Resolution: 15000
Column name: Kinetex Core-Shell C18 2.6 um, 3.0 x 100 mm, Phenomenex
Retention time: 21.559 min
Base peak: 163.1327
Precursor m/z: 224.0917
Precursor type: [M+H]+
m/z	relative intensity	assigned
81.0334	999	C5H5O+
109.0283	925	C6H5O2+
