Mass spectrum: Azoxystrobin; LC-ESI-ITFT; MS2; CE: 55; R=15000; [M+H]+
Name: Azoxystrobin
Name: 2-[2-[6-(2-cyanophenoxy)pyrimidin-4-yl]oxyphenyl]-3-methoxyprop-2-enoate-methyl
Formula: C22H17N3O5
Exact mass: 403.1168
SMILES: COC=C(C(=O)OC)C1=CC=CC=C1OC1=CC(OC2=CC=CC=C2C#N)=NC=N1
InChI: InChI=1S/C22H17N3O5/c1-27-13-17(22(26)28-2)16-8-4-6-10-19(16)30-21-11-20(24-14-25-21)29-18-9-5-3-7-15(18)12-23/h3-11,13-14H,1-2H3
Instrument: LTQ Orbitrap XL Thermo Scientific
Instrument type: LC-ESI-ITFT
Ms type: MS2
Ion mode: POSITIVE
Ionization: ESI
Fragmentation mode: CID
Collision energy: 55 (nominal)
Resolution: 15000
Column name: Kinetex Core-Shell C18 2.6 um, 3.0 x 100 mm, Phenomenex
Retention time: 24.061 min
Base peak: 254.1429
Precursor m/z: 404.1241
Precursor type: [M+H]+
m/z	relative intensity	assigned
328.1073	6	C20H14N3O2+
344.103	13	C20H14N3O3+
372.0977	999	C21H14N3O4+
