Mass spectrum: Boscalid; LC-ESI-ITFT; MS2; CE: 35; R=15000; [M+H]+
Name: Boscalid
Name: 2-Chloro-N-[2-(4-chlorophenyl)phenyl]pyridine-3-carboxamide
Formula: C18H12Cl2N2O
Exact mass: 342.0327
SMILES: ClC1=CC=C(C=C1)C1=CC=CC=C1NC(=O)C1=CC=CN=C1Cl
InChI: InChI=1S/C18H12Cl2N2O/c19-13-9-7-12(8-10-13)14-4-1-2-6-16(14)22-18(23)15-5-3-11-21-17(15)20/h1-11H,(H,22,23)
Instrument: LTQ Orbitrap XL Thermo Scientific
Instrument type: LC-ESI-ITFT
Ms type: MS2
Ion mode: POSITIVE
Ionization: ESI
Fragmentation mode: CID
Collision energy: 35 (nominal)
Resolution: 15000
Column name: Kinetex Core-Shell C18 2.6 um, 3.0 x 100 mm, Phenomenex
Retention time: 24.426 min
Base peak: 334.1046
Precursor m/z: 343.0399
Precursor type: [M+H]+
m/z	relative intensity	assigned
111.9948	3	C5H3ClN+
139.9898	55	C6H3ClNO+
271.0868	1	C18H11N2O+
272.0934	2	C18H12N2O+
307.0632	999	C18H12ClN2O+
