Mass spectrum: Dichlorvos; LC-ESI-ITFT; MS2; CE: 35; R=15000; [M+H]+
Name: Dichlorvos
Name: 2,2-Dichloroethenyl dimethyl phosphate
Formula: C4H7Cl2O4P
Exact mass: 219.9459
SMILES: COP(=O)(OC)OC=C(Cl)Cl
InChI: InChI=1S/C4H7Cl2O4P/c1-8-11(7,9-2)10-3-4(5)6/h3H,1-2H3
Instrument: LTQ Orbitrap XL Thermo Scientific
Instrument type: LC-ESI-ITFT
Ms type: MS2
Ion mode: POSITIVE
Ionization: ESI
Fragmentation mode: CID
Collision energy: 35 (nominal)
Resolution: 15000
Column name: Kinetex Core-Shell C18 2.6 um, 3.0 x 100 mm, Phenomenex
Retention time: 21.401 min
Base peak: 297.0553
Precursor m/z: 220.9532
Precursor type: [M+H]+
m/z	relative intensity	assigned
76.9789	5	C2H2ClO+
78.9943	26	CH4O2P+
109.0048	999	C2H6O3P+
127.0154	473	C2H8O4P+
144.9815	977	C2H7ClO3P+
190.9424	4	C3H6Cl2O3P+
220.9531	59	C4H8Cl2O4P+
