Mass spectrum: 4-Aminobenzamide; LC-ESI-ITFT; MS2; CE: 80; R=15000; [M+H]+
Name: 4-Aminobenzamide
Formula: C7H8N2O
Exact mass: 136.0637
SMILES: NC(=O)C1=CC=C(N)C=C1
InChI: InChI=1S/C7H8N2O/c8-6-3-1-5(2-4-6)7(9)10/h1-4H,8H2,(H2,9,10)
Instrument: LTQ Orbitrap XL Thermo Scientific
Instrument type: LC-ESI-ITFT
Ms type: MS2
Ion mode: POSITIVE
Ionization: ESI
Fragmentation mode: HCD
Collision energy: 80 (nominal)
Resolution: 15000
Column name: Kinetex Core-Shell C18 2.6 um, 3.0 x 100 mm, Phenomenex
Retention time: 2.928 min
Base peak: 163.1333
Precursor m/z: 137.0709
Precursor type: [M+H]+
m/z	relative intensity	assigned
77.0389	27	C6H5+
81.0702	2	C6H9+
92.0498	281	C6H6N+
94.0655	230	C6H8N+
110.0605	26	C6H8NO+
120.0449	999	C7H6NO+
