Mass spectrum: 2-(Methylthio)benzothiazole; LC-ESI-ITFT; MS2; CE: 80; R=15000; [M+H]+
Name: 2-(Methylthio)benzothiazole
Name: 2-Methylsulfanyl-1,3-benzothiazole
Formula: C8H7NS2
Exact mass: 181.0020
SMILES: CSC1=NC2=CC=CC=C2S1
InChI: InChI=1S/C8H7NS2/c1-10-8-9-6-4-2-3-5-7(6)11-8/h2-5H,1H3
Instrument: LTQ Orbitrap XL Thermo Scientific
Instrument type: LC-ESI-ITFT
Ms type: MS2
Ion mode: POSITIVE
Ionization: ESI
Fragmentation mode: HCD
Collision energy: 80 (nominal)
Resolution: 15000
Column name: Kinetex Core-Shell C18 2.6 um, 3.0 x 100 mm, Phenomenex
Retention time: 24.845 min
Base peak: 163.1333
Precursor m/z: 182.0093
Precursor type: [M+H]+
m/z	relative intensity	assigned
109.011	29	C6H5S+
124.0341	1	C7H8S+
135.0142	45	C7H5NS+
136.022	6	C7H6NS+
149.0301	1	C8H7NS+
150.0379	1	C8H8NS+
166.9864	999	C7H5NS2+
182.0098	165	C8H8NS2+
