Mass spectrum: Cortisone; LC-ESI-ITFT; MS2; CE: 80; R=15000; [M+H]+
Name: Cortisone
Name: (8S,9S,10R,13S,14S,17R)-17-Hydroxy-17-(2-hydroxyacetyl)-10,13-dimethyl-1,2,6,7,8,9,12,14,15,16-decahydrocyclopenta[a]phenanthrene-3,11-dione
Formula: C21H28O5
Exact mass: 360.1937
SMILES: C[C@]12CC(=O)[C@H]3[C@@H](CCC4=CC(=O)CC[C@]34C)[C@@H]1CC[C@]2(O)C(=O)CO
InChI: InChI=1S/C21H28O5/c1-19-7-5-13(23)9-12(19)3-4-14-15-6-8-21(26,17(25)11-22)20(15,2)10-16(24)18(14)19/h9,14-15,18,22,26H,3-8,10-11H2,1-2H3/t14-,15-,18+,19-,20-,21-/m0/s1
Instrument: LTQ Orbitrap XL Thermo Scientific
Instrument type: LC-ESI-ITFT
Ms type: MS2
Ion mode: POSITIVE
Ionization: ESI
Fragmentation mode: HCD
Collision energy: 80 (nominal)
Resolution: 15000
Column name: Kinetex Core-Shell C18 2.6 um, 3.0 x 100 mm, Phenomenex
Retention time: 22.017 min
Base peak: 163.1325
Precursor m/z: 361.201
Precursor type: [M+H]+
m/z	relative intensity	assigned
77.0384	108	C6H5+
79.054	376	C6H7+
81.0332	16	C5H5O+
81.0697	290	C6H9+
83.0489	268	C5H7O+
91.054	569	C7H7+
93.0696	697	C7H9+
95.049	62	C6H7O+
95.0853	165	C7H11+
97.0646	482	C6H9O+
105.0696	999	C8H9+
107.0489	146	C7H7O+
107.0853	520	C8H11+
109.0646	115	C7H9O+
109.1009	12	C8H13+
111.0436	11	C6H7O2+
115.054	83	C9H7+
117.0696	321	C9H9+
119.0853	514	C9H11+
121.0645	989	C8H9O+
121.101	156	C9H13+
123.0802	156	C8H11O+
128.0618	129	C10H8+
129.0697	196	C10H9+
130.0774	146	C10H10+
131.0853	286	C10H11+
133.0645	128	C9H9O+
133.1009	148	C10H13+
135.0802	150	C9H11O+
135.1164	64	C10H15+
137.0956	12	C9H13O+
141.0696	93	C11H9+
142.0775	108	C11H10+
143.0853	298	C11H11+
145.0645	88	C10H9O+
145.1009	481	C11H13+
147.0802	179	C10H11O+
147.1164	31	C11H15+
148.088	568	C10H12O+
149.0958	44	C10H13O+
155.0853	164	C12H11+
157.0645	27	C11H9O+
157.1009	162	C12H13+
159.0803	122	C11H11O+
159.1167	72	C12H15+
161.0958	156	C11H13O+
163.1114	962	C11H15O+
164.1148	12	C6H16N2O3+
167.0853	83	C13H11+
169.101	134	C13H13+
171.0801	67	C12H11O+
171.1167	72	C13H15+
173.0956	63	C12H13O+
173.1325	13	C13H17+
175.1116	35	C12H15O+
179.0851	66	C14H11+
180.093	52	C14H12+
181.1007	112	C14H13+
183.0802	23	C13H11O+
183.1165	99	C14H15+
184.0881	18	C13H12O+
185.0958	47	C13H13O+
185.1322	67	C14H17+
187.1114	28	C13H15O+
189.1274	45	C13H17O+
192.0932	30	C15H12+
193.1009	60	C15H13+
194.1088	24	C15H14+
195.0799	27	C14H11O+
195.1164	80	C15H15+
197.0959	39	C14H13O+
197.1322	69	C15H17+
199.1112	47	C14H15O+
199.1476	31	C15H19+
201.1269	20	C14H17O+
205.1008	30	C16H13+
206.1094	33	C16H14+
207.1164	43	C16H15+
208.1245	17	C16H16+
209.0963	26	C15H13O+
209.1319	52	C16H17+
210.1038	16	C15H14O+
211.1112	36	C15H15O+
211.1477	13	C16H19+
213.1273	22	C15H17O+
215.1427	16	C15H19O+
221.1323	27	C17H17+
223.1112	15	C16H15O+
223.1476	25	C17H19+
225.1268	87	C16H17O+
227.1426	71	C16H19O+
237.1263	17	C17H17O+
239.1428	22	C17H19O+
241.1583	103	C17H21O+
242.1672	19	C17H22O+
243.1376	294	C16H19O2+
251.1429	30	C18H19O+
255.1732	14	C18H23O+
257.1536	15	C17H21O2+
258.1613	158	C17H22O2+
269.1532	70	C18H21O2+
