Mass spectrum: N-Formyl-4-aminoantipyrine; LC-ESI-ITFT; MS2; CE: 35; R=15000; [M-H]-
Name: N-Formyl-4-aminoantipyrine
Name: 4-Formylaminoantipyrine
Name: N-(1,5-Dimethyl-3-oxo-2-phenylpyrazol-4-yl)formamide
Formula: C12H13N3O2
Exact mass: 231.1008
SMILES: [H]C(=O)NC1=C(C)N(C)N(C1=O)C1=CC=CC=C1
InChI: InChI=1S/C12H13N3O2/c1-9-11(13-8-16)12(17)15(14(9)2)10-6-4-3-5-7-10/h3-8H,1-2H3,(H,13,16)
Instrument: LTQ Orbitrap XL Thermo Scientific
Instrument type: LC-ESI-ITFT
Ms type: MS2
Ion mode: NEGATIVE
Ionization: ESI
Fragmentation mode: CID
Collision energy: 35 (nominal)
Resolution: 15000
Column name: Kinetex Core-Shell C18 2.6 um, 3.0 x 100 mm, Phenomenex
Retention time: 14.598 min
Base peak: 178.9779
Precursor m/z: 230.0935
Precursor type: [M-H]-
m/z	relative intensity	assigned
111.0564	999	C5H7N2O-
