Mass spectrum: Cortisone; LC-ESI-ITFT; MS2; CE: 55; R=15000; [M+H]+
Name: Cortisone
Name: (8S,9S,10R,13S,14S,17R)-17-Hydroxy-17-(2-hydroxyacetyl)-10,13-dimethyl-1,2,6,7,8,9,12,14,15,16-decahydrocyclopenta[a]phenanthrene-3,11-dione
Formula: C21H28O5
Exact mass: 360.1937
SMILES: C[C@]12CC(=O)[C@H]3[C@@H](CCC4=CC(=O)CC[C@]34C)[C@@H]1CC[C@]2(O)C(=O)CO
InChI: InChI=1S/C21H28O5/c1-19-7-5-13(23)9-12(19)3-4-14-15-6-8-21(26,17(25)11-22)20(15,2)10-16(24)18(14)19/h9,14-15,18,22,26H,3-8,10-11H2,1-2H3/t14-,15-,18+,19-,20-,21-/m0/s1
Instrument: LTQ Orbitrap XL Thermo Scientific
Instrument type: LC-ESI-ITFT
Ms type: MS2
Ion mode: POSITIVE
Ionization: ESI
Fragmentation mode: CID
Collision energy: 55 (nominal)
Resolution: 15000
Column name: Kinetex Core-Shell C18 2.6 um, 3.0 x 100 mm, Phenomenex
Retention time: 22.017 min
Base peak: 163.1325
Precursor m/z: 361.201
Precursor type: [M+H]+
m/z	relative intensity	assigned
105.0697	38	C8H9+
107.0854	15	C8H11+
115.0541	10	C9H7+
117.0699	17	C9H9+
119.0853	26	C9H11+
121.0645	119	C8H9O+
121.1012	13	C9H13+
123.0804	16	C8H11O+
128.0621	5	C10H8+
129.0697	12	C10H9+
130.0773	4	C10H10+
131.0853	25	C10H11+
133.0647	18	C9H9O+
133.1007	12	C10H13+
135.0802	61	C9H11O+
135.1166	18	C10H15+
137.0956	9	C9H13O+
139.0751	13	C8H11O2+
141.0692	4	C11H9+
143.0854	26	C11H11+
145.0647	12	C10H9O+
145.101	93	C11H13+
147.0802	96	C10H11O+
147.1164	12	C11H15+
148.0883	4	C10H12O+
149.0958	21	C10H13O+
151.0752	20	C9H11O2+
153.0908	17	C9H13O2+
155.0853	18	C12H11+
157.0647	9	C11H9O+
157.101	24	C12H13+
159.0801	29	C11H11O+
159.1171	13	C12H15+
161.0593	7	C10H9O2+
161.0958	56	C11H13O+
163.1115	999	C11H15O+
165.091	12	C10H13O2+
165.127	13	C11H17O+
167.0859	5	C13H11+
169.101	26	C13H13+
171.0802	48	C12H11O+
171.1166	86	C13H15+
173.0958	69	C12H13O+
175.1114	25	C12H15O+
177.0906	35	C11H13O2+
179.1064	14	C11H15O2+
181.0854	11	C10H13O3+
181.1009	38	C14H13+
183.0805	6	C13H11O+
183.1166	31	C14H15+
185.0959	32	C13H13O+
185.1323	11	C14H17+
187.075	13	C12H11O2+
187.1114	35	C13H15O+
189.0908	43	C12H13O2+
189.127	15	C13H17O+
191.1064	40	C12H15O2+
193.1009	13	C15H13+
195.0799	4	C14H11O+
195.1165	39	C15H15+
197.0961	19	C14H13O+
197.132	28	C15H17+
199.1115	64	C14H15O+
199.1474	5	C15H19+
201.0905	11	C13H13O2+
201.1271	19	C14H17O+
203.106	13	C13H15O2+
205.1014	7	C16H13+
205.1219	11	C13H17O2+
207.1017	15	C12H15O3+
207.1167	37	C16H15+
209.0959	16	C15H13O+
209.1174	7	C12H17O3+
209.1321	29	C16H17+
211.1114	43	C15H15O+
211.1479	21	C16H19+
213.0908	7	C14H13O2+
213.127	38	C15H17O+
215.1057	12	C14H15O2+
215.1425	16	C15H19O+
217.1219	28	C14H17O2+
219.1168	19	C17H15+
221.0952	5	C16H13O+
221.132	52	C17H17+
223.1114	51	C16H15O+
223.1479	47	C17H19+
225.1271	63	C16H17O+
225.1632	22	C17H21+
227.1066	10	C15H15O2+
227.1429	31	C16H19O+
229.122	28	C15H17O2+
229.159	5	C16H21O+
231.1378	6	C15H19O2+
233.1321	16	C18H17+
235.112	7	C17H15O+
235.1479	40	C18H19+
237.1272	58	C17H17O+
237.1635	50	C18H21+
239.1062	9	C16H15O2+
239.1427	115	C17H19O+
239.1791	18	C18H23+
241.122	87	C16H17O2+
241.1585	53	C17H21O+
243.1376	35	C16H19O2+
243.1736	20	C17H23O+
245.1324	13	C19H17+
247.1111	7	C18H15O+
247.1478	82	C19H19+
249.1271	45	C18H17O+
249.1635	44	C19H21+
251.1071	9	C17H15O2+
251.1426	34	C18H19O+
251.1795	20	C19H23+
253.1232	9	C17H17O2+
253.1583	38	C18H21O+
255.1377	47	C17H19O2+
255.1739	51	C18H23O+
257.1533	81	C17H21O2+
257.1897	25	C18H25O+
259.1484	4	C20H19+
261.1271	10	C19H17O+
261.1483	27	C16H21O3+
261.1636	40	C20H21+
263.1428	48	C19H19O+
264.1513	7	C19H20O+
265.1583	394	C19H21O+
267.1375	80	C18H19O2+
267.1739	310	C19H23O+
269.1538	15	C18H21O2+
269.1897	21	C19H25O+
271.1475	9	C21H19+
271.1696	16	C18H23O2+
277.1583	53	C20H21O+
279.1385	15	C19H19O2+
279.1741	198	C20H23O+
281.1533	34	C19H21O2+
281.1887	6	C20H25O+
283.1689	403	C19H23O2+
284.1768	20	C19H24O2+
285.1484	52	C18H21O3+
285.1846	231	C19H25O2+
289.1585	117	C21H21O+
295.1691	206	C20H23O2+
297.1846	176	C20H25O2+
299.1638	344	C19H23O3+
300.1717	22	C19H24O3+
301.1794	335	C19H25O3+
303.159	27	C18H23O4+
307.1688	408	C21H23O2+
313.1795	330	C20H25O3+
315.1952	79	C20H27O3+
317.1744	27	C19H25O4+
325.1794	550	C21H25O3+
331.1896	20	C20H27O4+
343.1898	949	C21H27O4+
