Mass spectrum: Desphenyl chloridazon; LC-ESI-ITFT; MS2; CE: 55; R=15000; [M+H]+
Name: Desphenyl chloridazon
Name: 5-Amino-4-chloropyridazin-3(2H)-one
Name: 4-Amino-5-chloro-1H-pyridazin-6-one
Formula: C4H4ClN3O
Exact mass: 145.0043
SMILES: NC1=C(Cl)C(=O)NN=C1
InChI: InChI=1S/C4H4ClN3O/c5-3-2(6)1-7-8-4(3)9/h1H,(H3,6,8,9)
Instrument: LTQ Orbitrap XL Thermo Scientific
Instrument type: LC-ESI-ITFT
Ms type: MS2
Ion mode: POSITIVE
Ionization: ESI
Fragmentation mode: HCD
Collision energy: 55 (nominal)
Resolution: 15000
Column name: Kinetex Core-Shell C18 2.6 um, 3.0 x 100 mm, Phenomenex
Retention time: 3.634 min
Base peak: 163.1335
Precursor m/z: 146.0116
Precursor type: [M+H]+
m/z	relative intensity	assigned
116.9981	18	C4H4ClNO+
146.0123	999	C4H5ClN3O+
