Mass spectrum: Cortisone; LC-ESI-ITFT; MS2; CE: 55; R=15000; [M+H]+
Name: Cortisone
Name: (8S,9S,10R,13S,14S,17R)-17-Hydroxy-17-(2-hydroxyacetyl)-10,13-dimethyl-1,2,6,7,8,9,12,14,15,16-decahydrocyclopenta[a]phenanthrene-3,11-dione
Formula: C21H28O5
Exact mass: 360.1937
SMILES: C[C@]12CC(=O)[C@H]3[C@@H](CCC4=CC(=O)CC[C@]34C)[C@@H]1CC[C@]2(O)C(=O)CO
InChI: InChI=1S/C21H28O5/c1-19-7-5-13(23)9-12(19)3-4-14-15-6-8-21(26,17(25)11-22)20(15,2)10-16(24)18(14)19/h9,14-15,18,22,26H,3-8,10-11H2,1-2H3/t14-,15-,18+,19-,20-,21-/m0/s1
Instrument: LTQ Orbitrap XL Thermo Scientific
Instrument type: LC-ESI-ITFT
Ms type: MS2
Ion mode: POSITIVE
Ionization: ESI
Fragmentation mode: HCD
Collision energy: 55 (nominal)
Resolution: 15000
Column name: Kinetex Core-Shell C18 2.6 um, 3.0 x 100 mm, Phenomenex
Retention time: 22.017 min
Base peak: 163.1325
Precursor m/z: 361.201
Precursor type: [M+H]+
m/z	relative intensity	assigned
77.0384	10	C6H5+
79.0541	47	C6H7+
81.0335	4	C5H5O+
81.0698	65	C6H9+
83.049	41	C5H7O+
91.0541	43	C7H7+
93.0697	165	C7H9+
95.0491	12	C6H7O+
95.0854	51	C7H11+
97.0646	111	C6H9O+
105.0697	189	C8H9+
107.0491	19	C7H7O+
107.0853	156	C8H11+
109.0646	27	C7H9O+
109.1009	8	C8H13+
111.0442	3	C6H7O2+
115.0541	3	C9H7+
117.0697	32	C9H9+
119.0854	112	C9H11+
121.0646	303	C8H9O+
121.101	72	C9H13+
123.0803	64	C8H11O+
128.0621	2	C10H8+
129.0698	19	C10H9+
130.0773	5	C10H10+
131.0853	62	C10H11+
133.0647	24	C9H9O+
133.101	59	C10H13+
135.0803	91	C9H11O+
135.1167	80	C10H15+
137.096	13	C9H13O+
139.0753	24	C8H11O2+
141.0696	7	C11H9+
142.0773	4	C11H10+
143.0854	63	C11H11+
145.0646	16	C10H9O+
145.101	211	C11H13+
147.0803	87	C10H11O+
147.1166	22	C11H15+
148.0877	21	C10H12O+
149.0959	37	C10H13O+
151.075	7	C9H11O2+
153.0909	3	C9H13O2+
155.0854	27	C12H11+
157.0646	7	C11H9O+
157.101	51	C12H13+
159.0803	49	C11H11O+
159.1167	38	C12H15+
161.0596	5	C10H9O2+
161.096	84	C11H13O+
163.1116	999	C11H15O+
164.1149	125	C6H16N2O3+
165.0911	7	C10H13O2+
167.0853	8	C13H11+
169.101	35	C13H13+
171.0803	25	C12H11O+
171.1167	41	C13H15+
173.0959	51	C12H13O+
173.1323	13	C13H17+
175.1116	37	C12H15O+
177.0909	10	C11H13O2+
179.0848	5	C14H11+
179.1066	8	C11H15O2+
180.0933	3	C14H12+
181.1009	25	C14H13+
183.0803	6	C13H11O+
183.1167	53	C14H15+
184.088	3	C13H12O+
185.0959	27	C13H13O+
185.1323	25	C14H17+
187.0755	4	C12H11O2+
187.1115	33	C13H15O+
189.0909	22	C12H13O2+
189.1273	38	C13H17O+
191.1064	5	C12H15O2+
192.0934	3	C15H12+
193.101	13	C15H13+
194.1096	4	C15H14+
195.0809	2	C14H11O+
195.1167	37	C15H15+
197.0962	15	C14H13O+
197.1324	39	C15H17+
199.1116	31	C14H15O+
199.148	14	C15H19+
201.0904	5	C13H13O2+
201.1274	19	C14H17O+
203.1064	8	C13H15O2+
205.1009	4	C16H13+
205.1223	3	C13H17O2+
206.109	5	C16H14+
207.1169	21	C16H15+
208.1256	3	C16H16+
209.0965	7	C15H13O+
209.1323	29	C16H17+
210.1035	4	C15H14O+
211.1116	18	C15H15O+
211.1479	18	C16H19+
213.1275	26	C15H17O+
215.1073	4	C14H15O2+
215.1427	11	C15H19O+
217.1219	6	C14H17O2+
219.1171	7	C17H15+
221.1324	24	C17H17+
223.1117	23	C16H15O+
223.148	22	C17H19+
225.1272	30	C16H17O+
225.164	15	C17H21+
227.1062	3	C15H15O2+
227.1429	21	C16H19O+
229.1223	7	C15H17O2+
229.1582	4	C16H21O+
231.1383	3	C15H19O2+
232.1245	4	C18H16+
233.133	3	C18H17+
235.1117	3	C17H15O+
235.1482	8	C18H19+
237.1274	15	C17H17O+
237.1639	13	C18H21+
239.1429	45	C17H19O+
239.1797	7	C18H23+
241.1221	11	C16H17O2+
241.1586	74	C17H21O+
242.1677	26	C17H22O+
243.138	16	C16H19O2+
247.148	7	C19H19+
249.1271	6	C18H17O+
249.1636	8	C19H21+
251.1431	11	C18H19O+
253.1587	17	C18H21O+
255.1382	11	C17H19O2+
255.1742	26	C18H23O+
257.1536	14	C17H21O2+
258.1613	110	C17H22O2+
261.1633	4	C20H21+
263.1423	4	C19H19O+
264.1513	2	C19H20O+
265.1586	29	C19H21O+
267.1377	5	C18H19O2+
267.1747	28	C19H23O+
269.1536	34	C18H21O2+
269.189	4	C19H25O+
271.1684	6	C18H23O2+
279.1742	7	C20H23O+
281.1535	7	C19H21O2+
283.1694	25	C19H23O2+
284.1771	61	C19H24O2+
285.1481	7	C18H21O3+
295.1702	8	C20H23O2+
297.1852	7	C20H25O2+
299.1636	31	C19H23O3+
300.172	8	C19H24O3+
301.1801	15	C19H25O3+
307.1699	5	C21H23O2+
313.1799	6	C20H25O3+
325.1798	7	C21H25O3+
343.1907	4	C21H27O4+
361.2005	7	C21H29O5+
