Mass spectrum: Cortisone; LC-ESI-ITFT; MS2; CE: 35; R=15000; [M+H]+
Name: Cortisone
Name: (8S,9S,10R,13S,14S,17R)-17-Hydroxy-17-(2-hydroxyacetyl)-10,13-dimethyl-1,2,6,7,8,9,12,14,15,16-decahydrocyclopenta[a]phenanthrene-3,11-dione
Formula: C21H28O5
Exact mass: 360.1937
SMILES: C[C@]12CC(=O)[C@H]3[C@@H](CCC4=CC(=O)CC[C@]34C)[C@@H]1CC[C@]2(O)C(=O)CO
InChI: InChI=1S/C21H28O5/c1-19-7-5-13(23)9-12(19)3-4-14-15-6-8-21(26,17(25)11-22)20(15,2)10-16(24)18(14)19/h9,14-15,18,22,26H,3-8,10-11H2,1-2H3/t14-,15-,18+,19-,20-,21-/m0/s1
Instrument: LTQ Orbitrap XL Thermo Scientific
Instrument type: LC-ESI-ITFT
Ms type: MS2
Ion mode: POSITIVE
Ionization: ESI
Fragmentation mode: CID
Collision energy: 35 (nominal)
Resolution: 15000
Column name: Kinetex Core-Shell C18 2.6 um, 3.0 x 100 mm, Phenomenex
Retention time: 22.017 min
Base peak: 163.1325
Precursor m/z: 361.201
Precursor type: [M+H]+
m/z	relative intensity	assigned
105.0697	30	C8H9+
107.0853	12	C8H11+
115.0539	6	C9H7+
117.0696	14	C9H9+
119.0854	23	C9H11+
121.0646	104	C8H9O+
121.1009	11	C9H13+
123.0801	14	C8H11O+
128.0622	5	C10H8+
129.0697	10	C10H9+
130.0779	4	C10H10+
131.0853	23	C10H11+
133.0646	15	C9H9O+
133.101	12	C10H13+
135.0803	56	C9H11O+
135.1166	16	C10H15+
137.0963	7	C9H13O+
139.075	13	C8H11O2+
141.0702	3	C11H9+
143.0853	20	C11H11+
145.0646	12	C10H9O+
145.1009	73	C11H13+
147.0802	82	C10H11O+
147.1166	15	C11H15+
148.0879	4	C10H12O+
149.0963	16	C10H13O+
151.0752	15	C9H11O2+
153.0908	12	C9H13O2+
155.085	16	C12H11+
157.1011	18	C12H13+
159.0802	33	C11H11O+
159.1169	15	C12H15+
161.0959	56	C11H13O+
163.1115	899	C11H15O+
165.0911	13	C10H13O2+
165.1273	11	C11H17O+
169.1008	15	C13H13+
171.0803	39	C12H11O+
171.1166	69	C13H15+
173.0958	73	C12H13O+
175.1115	22	C12H15O+
177.0908	32	C11H13O2+
179.0857	4	C14H11+
179.1064	12	C11H15O2+
181.0861	10	C10H13O3+
181.1011	34	C14H13+
183.0799	5	C13H11O+
183.1164	26	C14H15+
185.096	27	C13H13O+
185.1325	8	C14H17+
187.0753	17	C12H11O2+
187.1114	45	C13H15O+
189.0907	38	C12H13O2+
189.1273	15	C13H17O+
191.1063	35	C12H15O2+
195.1167	29	C15H15+
197.096	20	C14H13O+
197.1323	25	C15H17+
199.1115	62	C14H15O+
201.0912	11	C13H13O2+
201.1271	21	C14H17O+
203.1068	15	C13H15O2+
205.1015	6	C16H13+
205.1222	13	C13H17O2+
207.101	14	C12H15O3+
207.1167	28	C16H15+
209.0959	12	C15H13O+
209.1168	5	C12H17O3+
209.132	21	C16H17+
211.1115	39	C15H15O+
211.1479	12	C16H19+
213.0907	5	C14H13O2+
213.1272	35	C15H17O+
215.1062	12	C14H15O2+
215.1428	16	C15H19O+
217.1221	34	C14H17O2+
219.1161	14	C17H15+
221.0954	4	C16H13O+
221.1323	42	C17H17+
223.1116	41	C16H15O+
223.148	39	C17H19+
225.1271	59	C16H17O+
225.1634	23	C17H21+
227.1072	12	C15H15O2+
227.1427	27	C16H19O+
229.1219	28	C15H17O2+
231.1381	8	C15H19O2+
232.1241	4	C18H16+
233.1324	12	C18H17+
235.1118	7	C17H15O+
235.1479	35	C18H19+
237.127	50	C17H17O+
237.1637	43	C18H21+
239.1061	7	C16H15O2+
239.1428	107	C17H19O+
239.1793	19	C18H23+
241.1221	89	C16H17O2+
241.1585	47	C17H21O+
243.1379	30	C16H19O2+
243.1741	17	C17H23O+
245.1323	12	C19H17+
247.112	8	C18H15O+
247.148	72	C19H19+
249.1273	36	C18H17O+
249.1636	44	C19H21+
251.1071	6	C17H15O2+
251.1429	28	C18H19O+
251.1791	21	C19H23+
253.1228	8	C17H17O2+
253.1586	40	C18H21O+
255.1377	43	C17H19O2+
255.1742	44	C18H23O+
257.1534	71	C17H21O2+
257.1901	22	C18H25O+
259.1478	6	C20H19+
261.1276	10	C19H17O+
261.1482	23	C16H21O3+
261.1636	45	C20H21+
263.1429	42	C19H19O+
265.1583	340	C19H21O+
267.1377	74	C18H19O2+
267.1739	287	C19H23O+
269.1532	14	C18H21O2+
269.1894	17	C19H25O+
271.1486	8	C21H19+
271.1689	15	C18H23O2+
277.1586	45	C20H21O+
279.1377	14	C19H19O2+
279.1741	179	C20H23O+
281.1535	32	C19H21O2+
281.191	8	C20H25O+
283.169	385	C19H23O2+
284.1769	11	C19H24O2+
285.1486	39	C18H21O3+
285.1847	227	C19H25O2+
289.1584	114	C21H21O+
295.1692	201	C20H23O2+
297.1848	176	C20H25O2+
299.1639	301	C19H23O3+
300.172	15	C19H24O3+
301.1795	329	C19H25O3+
303.1589	23	C18H23O4+
307.1689	398	C21H23O2+
313.1795	312	C20H25O3+
315.1952	67	C20H27O3+
317.1744	21	C19H25O4+
325.1795	534	C21H25O3+
331.19	23	C20H27O4+
343.1899	999	C21H27O4+
361.2006	357	C21H29O5+
