Mass spectrum: Lidocain; LC-ESI-ITFT; MS2; CE: 80; R=15000; [M+H]+
Name: Lidocain
Name: Lidocaine
Name: 2-(Diethylamino)-N-(2,6-dimethylphenyl)acetamide
Formula: C14H22N2O
Exact mass: 234.1732
SMILES: CCN(CC)CC(=O)NC1=C(C)C=CC=C1C
InChI: InChI=1S/C14H22N2O/c1-5-16(6-2)10-13(17)15-14-11(3)8-7-9-12(14)4/h7-9H,5-6,10H2,1-4H3,(H,15,17)
Instrument: LTQ Orbitrap XL Thermo Scientific
Instrument type: LC-ESI-ITFT
Ms type: MS2
Ion mode: POSITIVE
Ionization: ESI
Fragmentation mode: HCD
Collision energy: 80 (nominal)
Resolution: 15000
Column name: Kinetex Core-Shell C18 2.6 um, 3.0 x 100 mm, Phenomenex
Retention time: 14.456 min
Base peak: 235.1803
Precursor m/z: 235.1805
Precursor type: [M+H]+
m/z	relative intensity	assigned
86.0964	999	C5H12N+
133.0077	2	C11H+
134.0965	1	C9H12N+
