Mass spectrum: Ethylparaben; LC-ESI-ITFT; MS2; CE: 35; R=15000; [M+H]+
Name: Ethylparaben
Name: 4-Hydroxybenzoate-ethyl
Formula: C9H10O3
Exact mass: 166.0630
SMILES: CCOC(=O)C1=CC=C(O)C=C1
InChI: InChI=1S/C9H10O3/c1-2-12-9(11)7-3-5-8(10)6-4-7/h3-6,10H,2H2,1H3
Instrument: LTQ Orbitrap XL Thermo Scientific
Instrument type: LC-ESI-ITFT
Ms type: MS2
Ion mode: POSITIVE
Ionization: ESI
Fragmentation mode: CID
Collision energy: 35 (nominal)
Resolution: 15000
Column name: Kinetex Core-Shell C18 2.6 um, 3.0 x 100 mm, Phenomenex
Retention time: 21.860 min
Base peak: 255.0645
Precursor m/z: 167.0703
Precursor type: [M+H]+
m/z	relative intensity	assigned
95.049	18	C6H7O+
121.0283	21	C7H5O2+
123.0804	1	C8H11O+
139.0387	999	C7H7O3+
