Mass spectrum: 4-Hydroxybenzotriazole; LC-ESI-ITFT; MS2; CE: 80; R=15000; [M+H]+
Name: 4-Hydroxybenzotriazole
Formula: C6H5N3O
Exact mass: 135.0433
SMILES: OC1=C2N=NNC2=CC=C1
InChI: InChI=1S/C6H5N3O/c10-5-3-1-2-4-6(5)8-9-7-4/h1-3,10H,(H,7,8,9)
Instrument: LTQ Orbitrap XL Thermo Scientific
Instrument type: LC-ESI-ITFT
Ms type: MS2
Ion mode: POSITIVE
Ionization: ESI
Fragmentation mode: HCD
Collision energy: 80 (nominal)
Resolution: 15000
Column name: Kinetex Core-Shell C18 2.6 um, 3.0 x 100 mm, Phenomenex
Retention time: 13.333 min
Base peak: 163.1332
Precursor m/z: 136.0505
Precursor type: [M+H]+
m/z	relative intensity	assigned
80.0497	518	C5H6N+
81.0337	62	C5H5O+
90.0342	32	C6H4N+
108.0448	27	C6H6NO+
136.051	999	C6H6N3O+
