Mass spectrum: 2-Benzothiazolsulfonic acid; LC-ESI-ITFT; MS2; CE: 55; R=15000; [M-H]-
Name: 2-Benzothiazolsulfonic acid
Name: Benzothiazole-2-sulfonic acid
Name: 1,3-Benzothiazole-2-sulfonic acid
Formula: C7H5NO3S2
Exact mass: 214.9711
SMILES: O=S(=O)(O)c1nc2ccccc2s1
InChI: InChI=1S/C7H5NO3S2/c9-13(10,11)7-8-5-3-1-2-4-6(5)12-7/h1-4H,(H,9,10,11)
Instrument: LTQ Orbitrap XL Thermo Scientific
Instrument type: LC-ESI-ITFT
Ms type: MS2
Ion mode: NEGATIVE
Ionization: ESI
Fragmentation mode: CID
Collision energy: 55 (nominal)
Resolution: 15000
Column name: Kinetex Core-Shell C18 2.6 um, 3.0 x 100 mm, Phenomenex
Retention time: 16.560 min
Base peak: 178.9779
Precursor m/z: 213.9638
Precursor type: [M-H]-
m/z	relative intensity	assigned
134.0069	497	C7H4NS-
150.0019	999	C7H4NOS-
