Mass spectrum: Nitrendipin; LC-ESI-ITFT; MS2; CE: 120%; R=15000; [M-H]-
Name: Nitrendipin
Name: Nitrendipine
Name: 5-O-ethyl 3-O-methyl 2,6-dimethyl-4-(3-nitrophenyl)-1,4-dihydropyridine-3,5-dicarboxylate
Formula: C18H20N2O6
Exact mass: 360.1321
SMILES: CCOC(=O)C1=C(C)NC(C)=C(C1C1=CC=CC(=C1)[N+]([O-])=O)C(=O)OC
InChI: InChI=1S/C18H20N2O6/c1-5-26-18(22)15-11(3)19-10(2)14(17(21)25-4)16(15)12-7-6-8-13(9-12)20(23)24/h6-9,16,19H,5H2,1-4H3
Instrument: LTQ Orbitrap XL Thermo Scientific
Instrument type: LC-ESI-ITFT
Ms type: MS2
Ion mode: NEGATIVE
Ionization: ESI
Fragmentation mode: HCD
Collision energy: 120% (nominal)
Resolution: 15000
Column name: Kinetex Evo C18 2.6 um 50 x 2.1 mm
Retention time: 11.661 min
Base peak: 286.1462
Precursor m/z: 359.1249
Precursor type: [M-H]-
m/z	relative intensity	assigned
139.0552	218	C11H7-
151.0552	142	C12H7-
152.0631	773	C12H8-
153.0704	317	C12H9-
154.066	374	C11H8N-
155.0613	483	C10H7N2-
166.0663	230	C12H8N-
167.0741	999	C12H9N-
168.0821	592	C12H10N-
180.0819	430	C13H10N-
181.0896	304	C13H11N-
198.0929	167	C13H12NO-
210.0918	138	C14H12NO-
