Mass spectrum: Daminozide; LC-ESI-ITFT; MS2; CE: 30%; R=15000; [M-H]-
Name: Daminozide
Name: 4-(2,2-dimethylhydrazinyl)-4-oxobutanoic acid
Formula: C6H12N2O3
Exact mass: 160.0848
SMILES: CN(C)NC(=O)CCC(O)=O
InChI: InChI=1S/C6H12N2O3/c1-8(2)7-5(9)3-4-6(10)11/h3-4H2,1-2H3,(H,7,9)(H,10,11)
Instrument: LTQ Orbitrap XL Thermo Scientific
Instrument type: LC-ESI-ITFT
Ms type: MS2
Ion mode: NEGATIVE
Ionization: ESI
Fragmentation mode: HCD
Collision energy: 30% (nominal)
Resolution: 15000
Column name: Kinetex Evo C18 2.6 um 50 x 2.1 mm
Retention time: 0.595 min
Base peak: 91.0038
Precursor m/z: 159.0775
Precursor type: [M-H]-
m/z	relative intensity	assigned
141.0668	504	C6H9N2O2-
159.0777	999	C6H11N2O3-
