Mass spectrum: Acridone; LC-ESI-ITFT; MS2; CE: 50%; R=15000; [M-H]-
Name: Acridone
Name: 10H-acridin-9-one
Formula: C13H9NO
Exact mass: 195.0684
SMILES: O=C1C2=CC=CC=C2NC2=CC=CC=C12
InChI: InChI=1S/C13H9NO/c15-13-9-5-1-3-7-11(9)14-12-8-4-2-6-10(12)13/h1-8H,(H,14,15)
Instrument: LTQ Orbitrap XL Thermo Scientific
Instrument type: LC-ESI-ITFT
Ms type: MS2
Ion mode: NEGATIVE
Ionization: ESI
Fragmentation mode: HCD
Collision energy: 50% (nominal)
Resolution: 15000
Column name: Kinetex Evo C18 2.6 um 50 x 2.1 mm
Retention time: 9.102 min
Base peak: 194.0608
Precursor m/z: 194.0611
Precursor type: [M-H]-
m/z	relative intensity	assigned
194.061	999	C13H8NO-
