Mass spectrum: Propanil; LC-ESI-ITFT; MS2; CE: 50%; R=15000; [M-H]-
Name: Propanil
Name: N-(3,4-dichlorophenyl)propanamide
Formula: C9H9Cl2NO
Exact mass: 217.0061
SMILES: CCC(=O)NC1=CC(Cl)=C(Cl)C=C1
InChI: InChI=1S/C9H9Cl2NO/c1-2-9(13)12-6-3-4-7(10)8(11)5-6/h3-5H,2H2,1H3,(H,12,13)
Instrument: LTQ Orbitrap XL Thermo Scientific
Instrument type: LC-ESI-ITFT
Ms type: MS2
Ion mode: NEGATIVE
Ionization: ESI
Fragmentation mode: HCD
Collision energy: 50% (nominal)
Resolution: 15000
Column name: Kinetex Evo C18 2.6 um 50 x 2.1 mm
Retention time: 10.720 min
Base peak: 215.9996
Precursor m/z: 215.9988
Precursor type: [M-H]-
m/z	relative intensity	assigned
159.9733	55	C6H4Cl2N-
215.9996	999	C9H8Cl2NO-
