Mass spectrum: Acetyl-sulfamethoxazole; LC-ESI-ITFT; MS2; CE: 50%; R=15000; [M-H]-
Name: Acetyl-sulfamethoxazole
Name: Acetylsulfamethoxazole
Name: N-[4-[(5-methyl-1,2-oxazol-3-yl)sulfamoyl]phenyl]acetamide
Formula: C12H13N3O4S
Exact mass: 295.0627
SMILES: CC(=O)NC1=CC=C(C=C1)S(=O)(=O)NC1=NOC(C)=C1
InChI: InChI=1S/C12H13N3O4S/c1-8-7-12(14-19-8)15-20(17,18)11-5-3-10(4-6-11)13-9(2)16/h3-7H,1-2H3,(H,13,16)(H,14,15)
Instrument: LTQ Orbitrap XL Thermo Scientific
Instrument type: LC-ESI-ITFT
Ms type: MS2
Ion mode: NEGATIVE
Ionization: ESI
Fragmentation mode: HCD
Collision energy: 50% (nominal)
Resolution: 15000
Column name: Kinetex Evo C18 2.6 um 50 x 2.1 mm
Retention time: 7.714 min
Base peak: 91.0038
Precursor m/z: 294.0554
Precursor type: [M-H]-
m/z	relative intensity	assigned
134.0611	101	C8H8NO-
198.0231	999	C8H8NO3S-
294.0552	176	C12H12N3O4S-
