Mass spectrum: Tepraloxydim; LC-ESI-ITFT; MS2; CE: 60%; R=15000; [M-H]-
Name: Tepraloxydim
Name: Tepraloxydim [ISO]
Name: 2-[N-[(E)-3-chloroprop-2-enoxy]-C-ethylcarbonimidoyl]-3-hydroxy-5-(oxan-4-yl)cyclohex-2-en-1-one
Formula: C17H24ClNO4
Exact mass: 341.1394
SMILES: [H]\C(Cl)=C(\[H])CON=C(CC)C1=C(O)CC(CC1=O)C1CCOCC1
InChI: InChI=1S/C17H24ClNO4/c1-2-14(19-23-7-3-6-18)17-15(20)10-13(11-16(17)21)12-4-8-22-9-5-12/h3,6,12-13,20H,2,4-5,7-11H2,1H3/b6-3+,19-14?
Instrument: LTQ Orbitrap XL Thermo Scientific
Instrument type: LC-ESI-ITFT
Ms type: MS2
Ion mode: NEGATIVE
Ionization: ESI
Fragmentation mode: HCD
Collision energy: 60% (nominal)
Resolution: 15000
Column name: Kinetex Evo C18 2.6 um 50 x 2.1 mm
Retention time: 9.695 min
Base peak: 91.0042
Precursor m/z: 340.1321
Precursor type: [M-H]-
m/z	relative intensity	assigned
126.0202	77	C5H4NO3-
139.0275	57	C6H5NO3-
152.0352	46	C7H6NO3-
180.0674	288	C9H10NO3-
195.1034	61	C8H18ClNO2-
220.0987	894	C12H14NO3-
250.1457	999	C14H20NO3-
340.1332	753	C17H23ClNO4-
