Mass spectrum: Oryzalin; LC-ESI-ITFT; MS2; CE: 110%; R=15000; [M-H]-
Name: Oryzalin
Name: 4-(dipropylamino)-3,5-dinitrobenzenesulfonamide
Formula: C12H18N4O6S
Exact mass: 346.0947
SMILES: CCCN(CCC)C1=C(C=C(C=C1[N+]([O-])=O)S(N)(=O)=O)[N+]([O-])=O
InChI: InChI=1S/C12H18N4O6S/c1-3-5-14(6-4-2)12-10(15(17)18)7-9(23(13,21)22)8-11(12)16(19)20/h7-8H,3-6H2,1-2H3,(H2,13,21,22)
Instrument: LTQ Orbitrap XL Thermo Scientific
Instrument type: LC-ESI-ITFT
Ms type: MS2
Ion mode: NEGATIVE
Ionization: ESI
Fragmentation mode: HCD
Collision energy: 110% (nominal)
Resolution: 15000
Column name: Kinetex Evo C18 2.6 um 50 x 2.1 mm
Retention time: 11.872 min
Base peak: 345.0882
Precursor m/z: 345.0874
Precursor type: [M-H]-
m/z	relative intensity	assigned
79.9815	671	H2NO2S-
89.0149	694	C5HN2-
116.026	999	H8N2O3S-
121.0415	277	H11NO4S-
147.0453	494	C9H7O2-
