Mass spectrum: 2-Hydroxycarbamazepine; LC-ESI-ITFT; MS2; CE: 110%; R=15000; [M-H]-
Name: 2-Hydroxycarbamazepine
Name: 3-hydroxybenzo[b][1]benzazepine-11-carboxamide
Formula: C15H12N2O2
Exact mass: 252.0899
SMILES: NC(=O)N1C2=CC=CC=C2C=CC2=CC(O)=CC=C12
InChI: InChI=1S/C15H12N2O2/c16-15(19)17-13-4-2-1-3-10(13)5-6-11-9-12(18)7-8-14(11)17/h1-9,18H,(H2,16,19)
Instrument: LTQ Orbitrap XL Thermo Scientific
Instrument type: LC-ESI-ITFT
Ms type: MS2
Ion mode: NEGATIVE
Ionization: ESI
Fragmentation mode: HCD
Collision energy: 110% (nominal)
Resolution: 15000
Column name: Kinetex Evo C18 2.6 um 50 x 2.1 mm
Retention time: 8.418 min
Base peak: 91.0036
Precursor m/z: 251.0826
Precursor type: [M-H]-
m/z	relative intensity	assigned
166.0663	284	C12H8N-
180.0821	115	C13H10N-
207.069	429	C14H9NO-
208.0768	999	C14H10NO-
