Mass spectrum: Amidosulfobetaine-14; LC-ESI-ITFT; MS2; CE: 20%; R=15000; [M+HCOO-]-
Name: Amidosulfobetaine-14
Formula: C22H47N2O4S
Exact mass: 435.3257
SMILES: CCCCCCCCCCCCCC(=O)NCCC[N+](C)(C)CCCS(O)(=O)=O
InChI: InChI=1S/C22H46N2O4S/c1-4-5-6-7-8-9-10-11-12-13-14-17-22(25)23-18-15-19-24(2,3)20-16-21-29(26,27)28/h4-21H2,1-3H3,(H-,23,25,26,27,28)/p+1
Instrument: LTQ Orbitrap XL Thermo Scientific
Instrument type: LC-ESI-ITFT
Ms type: MS2
Ion mode: NEGATIVE
Ionization: ESI
Fragmentation mode: HCD
Collision energy: 20% (nominal)
Resolution: 15000
Column name: Kinetex Evo C18 2.6 um 50 x 2.1 mm
Retention time: 13.378 min
Base peak: 312.9715
Precursor m/z: 479.316
Precursor type: [M+HCOO-]-
m/z	relative intensity	assigned
158.3507	514	C3H46N2O3-
479.315	999	C23H47N2O6S-
