Mass spectrum: Mycophenolic acid; LC-ESI-ITFT; MS2; CE: 110%; R=15000; [M-H]-
Name: Mycophenolic acid
Name: (E)-6-(4-hydroxy-6-methoxy-7-methyl-3-oxo-1H-2-benzofuran-5-yl)-4-methylhex-4-enoic acid
Formula: C17H20O6
Exact mass: 320.1260
SMILES: COC1=C(C)C2=C(C(=O)OC2)C(O)=C1C\C=C(/C)CCC(O)=O
InChI: InChI=1S/C17H20O6/c1-9(5-7-13(18)19)4-6-11-15(20)14-12(8-23-17(14)21)10(2)16(11)22-3/h4,20H,5-8H2,1-3H3,(H,18,19)/b9-4+
Instrument: LTQ Orbitrap XL Thermo Scientific
Instrument type: LC-ESI-ITFT
Ms type: MS2
Ion mode: NEGATIVE
Ionization: ESI
Fragmentation mode: HCD
Collision energy: 110% (nominal)
Resolution: 15000
Column name: Kinetex Evo C18 2.6 um 50 x 2.1 mm
Retention time: 10.732 min
Base peak: 91.0036
Precursor m/z: 319.1187
Precursor type: [M-H]-
m/z	relative intensity	assigned
95.0499	53	C6H7O-
148.0525	51	C9H8O2-
161.0611	56	C10H9O2-
173.0607	122	C11H9O2-
179.0351	120	C9H7O4-
187.0769	61	C12H11O2-
191.035	999	C10H7O4-
192.0429	234	C10H8O4-
201.0919	94	C13H13O2-
203.0354	178	C11H7O4-
205.0507	565	C11H9O4-
215.1077	93	C14H15O2-
231.0669	82	C13H11O4-
245.0821	244	C14H13O4-
