Mass spectrum: Genistein; LC-ESI-ITFT; MS2; CE: 110%; R=15000; [M-H]-
Name: Genistein
Name: 5,7-dihydroxy-3-(4-hydroxyphenyl)chromen-4-one
Formula: C15H10O5
Exact mass: 270.0528
SMILES: OC1=CC=C(C=C1)C1=COC2=CC(O)=CC(O)=C2C1=O
InChI: InChI=1S/C15H10O5/c16-9-3-1-8(2-4-9)11-7-20-13-6-10(17)5-12(18)14(13)15(11)19/h1-7,16-18H
Instrument: LTQ Orbitrap XL Thermo Scientific
Instrument type: LC-ESI-ITFT
Ms type: MS2
Ion mode: NEGATIVE
Ionization: ESI
Fragmentation mode: HCD
Collision energy: 110% (nominal)
Resolution: 15000
Column name: Kinetex Evo C18 2.6 um 50 x 2.1 mm
Retention time: 9.893 min
Base peak: 269.0445
Precursor m/z: 269.0455
Precursor type: [M-H]-
m/z	relative intensity	assigned
63.024	95	C5H3-
65.0033	67	C4HO-
91.0189	30	C6H3O-
107.0138	79	C6H3O2-
133.0294	344	C8H5O2-
135.0088	41	C7H3O3-
135.0452	106	C8H7O2-
155.0504	22	C11H7O-
157.0295	43	C10H5O2-
159.0451	145	C10H7O2-
169.0657	62	C12H9O-
173.0605	20	C11H9O2-
180.0577	68	C13H8O-
181.0661	118	C13H9O-
183.0451	89	C12H7O2-
196.0535	43	C13H8O2-
197.0607	49	C13H9O2-
199.0402	33	C12H7O3-
201.0559	98	C12H9O3-
213.0551	24	C13H9O3-
224.0481	70	C14H8O3-
225.0559	68	C14H9O3-
227.0345	16	C13H7O4-
241.0505	21	C14H9O4-
269.0452	999	C15H9O5-
