Mass spectrum: Oryzalin; LC-ESI-ITFT; MS2; CE: 50%; R=15000; [M-H]-
Name: Oryzalin
Name: 4-(dipropylamino)-3,5-dinitrobenzenesulfonamide
Formula: C12H18N4O6S
Exact mass: 346.0947
SMILES: CCCN(CCC)C1=C(C=C(C=C1[N+]([O-])=O)S(N)(=O)=O)[N+]([O-])=O
InChI: InChI=1S/C12H18N4O6S/c1-3-5-14(6-4-2)12-10(15(17)18)7-9(23(13,21)22)8-11(12)16(19)20/h7-8H,3-6H2,1-2H3,(H2,13,21,22)
Instrument: LTQ Orbitrap XL Thermo Scientific
Instrument type: LC-ESI-ITFT
Ms type: MS2
Ion mode: NEGATIVE
Ionization: ESI
Fragmentation mode: HCD
Collision energy: 50% (nominal)
Resolution: 15000
Column name: Kinetex Evo C18 2.6 um 50 x 2.1 mm
Retention time: 11.905 min
Base peak: 345.0885
Precursor m/z: 345.0874
Precursor type: [M-H]-
m/z	relative intensity	assigned
281.1266	139	C12H17N4O4-
345.0889	999	C12H17N4O6S-
