Mass spectrum: Clothianidin; LC-ESI-ITFT; MS2; CE: 20%; R=15000; [M-H]-
Name: Clothianidin
Name: n-[(2-Chloro-5-thiazolyl)methyl]-n`-methyl-n``-nitroguanidine
Name: 1-[(2-chloro-1,3-thiazol-5-yl)methyl]-2-methyl-3-nitroguanidine
Formula: C6H8ClN5O2S
Exact mass: 249.0087
SMILES: CN\C(NCC1=CN=C(Cl)S1)=N/[N+]([O-])=O
InChI: InChI=1S/C6H8ClN5O2S/c1-8-6(11-12(13)14)10-3-4-2-9-5(7)15-4/h2H,3H2,1H3,(H2,8,10,11)
Instrument: LTQ Orbitrap XL Thermo Scientific
Instrument type: LC-ESI-ITFT
Ms type: MS2
Ion mode: NEGATIVE
Ionization: ESI
Fragmentation mode: HCD
Collision energy: 20% (nominal)
Resolution: 15000
Column name: Kinetex Evo C18 2.6 um 50 x 2.1 mm
Retention time: 5.663 min
Base peak: 91.004
Precursor m/z: 248.0014
Precursor type: [M-H]-
m/z	relative intensity	assigned
111.0025	76	C4H3N2S-
139.0261	54	C4H3N4O2-
151.0082	39	C5H3N4S-
166.0319	100	C6H6N4S-
212.025	98	C6H6N5O2S-
248.0017	999	C6H7ClN5O2S-
