Mass spectrum: Nitrendipin; LC-ESI-ITFT; MS2; CE: 40%; R=15000; [M-H]-
Name: Nitrendipin
Name: Nitrendipine
Name: 5-O-ethyl 3-O-methyl 2,6-dimethyl-4-(3-nitrophenyl)-1,4-dihydropyridine-3,5-dicarboxylate
Formula: C18H20N2O6
Exact mass: 360.1321
SMILES: CCOC(=O)C1=C(C)NC(C)=C(C1C1=CC=CC(=C1)[N+]([O-])=O)C(=O)OC
InChI: InChI=1S/C18H20N2O6/c1-5-26-18(22)15-11(3)19-10(2)14(17(21)25-4)16(15)12-7-6-8-13(9-12)20(23)24/h6-9,16,19H,5H2,1-4H3
Instrument: LTQ Orbitrap XL Thermo Scientific
Instrument type: LC-ESI-ITFT
Ms type: MS2
Ion mode: NEGATIVE
Ionization: ESI
Fragmentation mode: HCD
Collision energy: 40% (nominal)
Resolution: 15000
Column name: Kinetex Evo C18 2.6 um 50 x 2.1 mm
Retention time: 11.640 min
Base peak: 359.1241
Precursor m/z: 359.1249
Precursor type: [M-H]-
m/z	relative intensity	assigned
92.0269	743	C6H4O-
122.0246	208	C6H4NO2-
224.0723	105	C14H10NO2-
236.0924	549	C12H14NO4-
313.0825	90	C16H13N2O5-
327.0988	110	C17H15N2O5-
359.1246	999	C18H19N2O6-
