Mass spectrum: Genistein; LC-ESI-ITFT; MS2; CE: 120%; R=15000; [M-H]-
Name: Genistein
Name: 5,7-dihydroxy-3-(4-hydroxyphenyl)chromen-4-one
Formula: C15H10O5
Exact mass: 270.0528
SMILES: OC1=CC=C(C=C1)C1=COC2=CC(O)=CC(O)=C2C1=O
InChI: InChI=1S/C15H10O5/c16-9-3-1-8(2-4-9)11-7-20-13-6-10(17)5-12(18)14(13)15(11)19/h1-7,16-18H
Instrument: LTQ Orbitrap XL Thermo Scientific
Instrument type: LC-ESI-ITFT
Ms type: MS2
Ion mode: NEGATIVE
Ionization: ESI
Fragmentation mode: HCD
Collision energy: 120% (nominal)
Resolution: 15000
Column name: Kinetex Evo C18 2.6 um 50 x 2.1 mm
Retention time: 9.893 min
Base peak: 269.0445
Precursor m/z: 269.0455
Precursor type: [M-H]-
m/z	relative intensity	assigned
63.024	270	C5H3-
65.0033	150	C4HO-
89.003	51	C6HO-
91.019	88	C6H3O-
107.0137	248	C6H3O2-
133.0293	924	C8H5O2-
135.0085	60	C7H3O3-
135.045	277	C8H7O2-
151.0039	59	C7H3O4-
155.0499	96	C11H7O-
157.0298	93	C10H5O2-
159.0452	386	C10H7O2-
169.0655	106	C12H9O-
180.0578	216	C13H8O-
181.0655	225	C13H9O-
183.045	265	C12H7O2-
196.0529	65	C13H8O2-
197.0608	100	C13H9O2-
199.04	76	C12H7O3-
201.0554	189	C12H9O3-
213.0562	48	C13H9O3-
224.0477	145	C14H8O3-
225.0563	119	C14H9O3-
269.0451	999	C15H9O5-
