Mass spectrum: Labetalol; LC-ESI-ITFT; MS2; CE: 120%; R=15000; [M-H]-
Name: Labetalol
Name: 2-hydroxy-5-[1-hydroxy-2-(4-phenylbutan-2-ylamino)ethyl]benzamide
Formula: C19H24N2O3
Exact mass: 328.1787
SMILES: CC(CCC1=CC=CC=C1)NCC(O)C1=CC(C(N)=O)=C(O)C=C1
InChI: InChI=1S/C19H24N2O3/c1-13(7-8-14-5-3-2-4-6-14)21-12-18(23)15-9-10-17(22)16(11-15)19(20)24/h2-6,9-11,13,18,21-23H,7-8,12H2,1H3,(H2,20,24)
Instrument: LTQ Orbitrap XL Thermo Scientific
Instrument type: LC-ESI-ITFT
Ms type: MS2
Ion mode: NEGATIVE
Ionization: ESI
Fragmentation mode: HCD
Collision energy: 120% (nominal)
Resolution: 15000
Column name: Kinetex Evo C18 2.6 um 50 x 2.1 mm
Retention time: 7.155 min
Base peak: 327.1703
Precursor m/z: 327.1714
Precursor type: [M-H]-
m/z	relative intensity	assigned
131.0374	600	C8H5NO-
133.0533	361	C8H7NO-
149.0481	843	C8H7NO2-
157.0406	592	C9H5N2O-
175.0511	999	C9H7N2O2-
176.0587	891	C9H8N2O2-
