Mass spectrum: Oryzalin; LC-ESI-ITFT; MS2; CE: 100%; R=15000; [M-H]-
Name: Oryzalin
Name: 4-(dipropylamino)-3,5-dinitrobenzenesulfonamide
Formula: C12H18N4O6S
Exact mass: 346.0947
SMILES: CCCN(CCC)C1=C(C=C(C=C1[N+]([O-])=O)S(N)(=O)=O)[N+]([O-])=O
InChI: InChI=1S/C12H18N4O6S/c1-3-5-14(6-4-2)12-10(15(17)18)7-9(23(13,21)22)8-11(12)16(19)20/h7-8H,3-6H2,1-2H3,(H2,13,21,22)
Instrument: LTQ Orbitrap XL Thermo Scientific
Instrument type: LC-ESI-ITFT
Ms type: MS2
Ion mode: NEGATIVE
Ionization: ESI
Fragmentation mode: HCD
Collision energy: 100% (nominal)
Resolution: 15000
Column name: Kinetex Evo C18 2.6 um 50 x 2.1 mm
Retention time: 11.872 min
Base peak: 345.0882
Precursor m/z: 345.0874
Precursor type: [M-H]-
m/z	relative intensity	assigned
79.9815	477	H2NO2S-
116.0259	864	H8N2O3S-
118.0415	182	H10N2O3S-
119.0256	278	H9NO4S-
121.0411	238	H11NO4S-
147.0445	999	C9H7O2-
148.0287	250	CH10NO5S-
160.0646	202	C3H14NO4S-
161.0721	296	C3H15NO4S-
174.0681	758	C3H14N2O4S-
223.0425	171	C11H11O3S-
228.0096	289	C9H8O5S-
241.0044	346	C9H7NO5S-
