Mass spectrum: Glibenclamide; LC-ESI-ITFT; MS2; CE: 100%; R=15000; [M-H]-
Name: Glibenclamide
Name: Glyburide
Name: 5-chloro-N-[2-[4-(cyclohexylcarbamoylsulfamoyl)phenyl]ethyl]-2-methoxybenzamide
Formula: C23H28ClN3O5S
Exact mass: 493.1438
SMILES: COC1=C(C=C(Cl)C=C1)C(=O)NCCC1=CC=C(C=C1)S(=O)(=O)NC(=O)NC1CCCCC1
InChI: InChI=1S/C23H28ClN3O5S/c1-32-21-12-9-17(24)15-20(21)22(28)25-14-13-16-7-10-19(11-8-16)33(30,31)27-23(29)26-18-5-3-2-4-6-18/h7-12,15,18H,2-6,13-14H2,1H3,(H,25,28)(H2,26,27,29)
Instrument: LTQ Orbitrap XL Thermo Scientific
Instrument type: LC-ESI-ITFT
Ms type: MS2
Ion mode: NEGATIVE
Ionization: ESI
Fragmentation mode: HCD
Collision energy: 100% (nominal)
Resolution: 15000
Column name: Kinetex Evo C18 2.6 um 50 x 2.1 mm
Retention time: 12.123 min
Base peak: 492.1354
Precursor m/z: 492.1365
Precursor type: [M-H]-
m/z	relative intensity	assigned
78.9735	34	HNO2S-
126.9955	339	C6H4ClO-
170.0014	999	C7H5ClNO2-
