Mass spectrum: Indometacin; LC-ESI-ITFT; MS2; CE: 30%; R=15000; [M-H]-
Name: Indometacin
Name: Indomethacin
Name: 2-[1-(4-chlorobenzoyl)-5-methoxy-2-methylindol-3-yl]acetic acid
Formula: C19H16ClNO4
Exact mass: 357.0768
SMILES: COC1=CC2=C(C=C1)N(C(=O)C1=CC=C(Cl)C=C1)C(C)=C2CC(O)=O
InChI: InChI=1S/C19H16ClNO4/c1-11-15(10-18(22)23)16-9-14(25-2)7-8-17(16)21(11)19(24)12-3-5-13(20)6-4-12/h3-9H,10H2,1-2H3,(H,22,23)
Instrument: LTQ Orbitrap XL Thermo Scientific
Instrument type: LC-ESI-ITFT
Ms type: MS2
Ion mode: NEGATIVE
Ionization: ESI
Fragmentation mode: HCD
Collision energy: 30% (nominal)
Resolution: 15000
Column name: Kinetex Evo C18 2.6 um 50 x 2.1 mm
Retention time: 12.273 min
Base peak: 91.0038
Precursor m/z: 356.0695
Precursor type: [M-H]-
m/z	relative intensity	assigned
312.0792	999	C18H15ClNO2-
