Mass spectrum: Amidosulfuron; LC-ESI-ITFT; MS2; CE: 30%; R=15000; [M-H]-
Name: Amidosulfuron
Name: 1-(4,6-dimethoxypyrimidin-2-yl)-3-[methyl(methylsulfonyl)sulfamoyl]urea
Formula: C9H15N5O7S2
Exact mass: 369.0413
SMILES: COC1=CC(OC)=NC(NC(=O)NS(=O)(=O)N(C)S(C)(=O)=O)=N1
InChI: InChI=1S/C9H15N5O7S2/c1-14(22(4,16)17)23(18,19)13-9(15)12-8-10-6(20-2)5-7(11-8)21-3/h5H,1-4H3,(H2,10,11,12,13,15)
Instrument: LTQ Orbitrap XL Thermo Scientific
Instrument type: LC-ESI-ITFT
Ms type: MS2
Ion mode: NEGATIVE
Ionization: ESI
Fragmentation mode: HCD
Collision energy: 30% (nominal)
Resolution: 15000
Column name: Kinetex Evo C18 2.6 um 50 x 2.1 mm
Retention time: 9.666 min
Base peak: 322.087
Precursor m/z: 368.034
Precursor type: [M-H]-
m/z	relative intensity	assigned
68.0666	247	C2H12S-
109.0078	239	CH5N2O2S-
259.0145	999	C7H7N4O5S-
368.0357	246	C9H14N5O7S2-
