Mass spectrum: Tepraloxydim; LC-ESI-ITFT; MS2; CE: 100%; R=15000; [M-H]-
Name: Tepraloxydim
Name: Tepraloxydim [ISO]
Name: 2-[N-[(E)-3-chloroprop-2-enoxy]-C-ethylcarbonimidoyl]-3-hydroxy-5-(oxan-4-yl)cyclohex-2-en-1-one
Formula: C17H24ClNO4
Exact mass: 341.1394
SMILES: [H]\C(Cl)=C(\[H])CON=C(CC)C1=C(O)CC(CC1=O)C1CCOCC1
InChI: InChI=1S/C17H24ClNO4/c1-2-14(19-23-7-3-6-18)17-15(20)10-13(11-16(17)21)12-4-8-22-9-5-12/h3,6,12-13,20H,2,4-5,7-11H2,1H3/b6-3+,19-14?
Instrument: LTQ Orbitrap XL Thermo Scientific
Instrument type: LC-ESI-ITFT
Ms type: MS2
Ion mode: NEGATIVE
Ionization: ESI
Fragmentation mode: HCD
Collision energy: 100% (nominal)
Resolution: 15000
Column name: Kinetex Evo C18 2.6 um 50 x 2.1 mm
Retention time: 9.672 min
Base peak: 91.004
Precursor m/z: 340.1321
Precursor type: [M-H]-
m/z	relative intensity	assigned
65.9988	44	C3NO-
108.0459	46	C6H6NO-
126.0203	26	C5H4NO3-
153.0923	20	C6H16ClNO-
195.1036	149	C8H18ClNO2-
220.0988	999	C12H14NO3-
248.1299	21	C14H18NO3-
250.1456	124	C14H20NO3-
