Mass spectrum: Di-n-butyl phosphate; LC-ESI-ITFT; MS2; CE: 110%; R=15000; [M-H]-
Name: Di-n-butyl phosphate
Name: Dibutyl phosphate
Name: dibutyl hydrogen phosphate
Formula: C8H19O4P
Exact mass: 210.1021
SMILES: CCCCOP(O)(=O)OCCCC
InChI: InChI=1S/C8H19O4P/c1-3-5-7-11-13(9,10)12-8-6-4-2/h3-8H2,1-2H3,(H,9,10)
Instrument: LTQ Orbitrap XL Thermo Scientific
Instrument type: LC-ESI-ITFT
Ms type: MS2
Ion mode: NEGATIVE
Ionization: ESI
Fragmentation mode: HCD
Collision energy: 110% (nominal)
Resolution: 15000
Column name: Kinetex Evo C18 2.6 um 50 x 2.1 mm
Retention time: 11.992 min
Base peak: 209.0944
Precursor m/z: 209.0948
Precursor type: [M-H]-
m/z	relative intensity	assigned
78.9591	999	O3P-
96.9697	8	H2O4P-
153.0322	66	C4H10O4P-
209.0943	12	C8H18O4P-
