Mass spectrum: Warfarin; LC-ESI-ITFT; MS2; CE: 110%; R=15000; [M-H]-
Name: Warfarin
Name: 4-hydroxy-3-(3-oxo-1-phenylbutyl)chromen-2-one
Formula: C19H16O4
Exact mass: 308.1049
SMILES: CC(=O)CC(C1=CC=CC=C1)C1=C(O)C2=CC=CC=C2OC1=O
InChI: InChI=1S/C19H16O4/c1-12(20)11-15(13-7-3-2-4-8-13)17-18(21)14-9-5-6-10-16(14)23-19(17)22/h2-10,15,21H,11H2,1H3
Instrument: LTQ Orbitrap XL Thermo Scientific
Instrument type: LC-ESI-ITFT
Ms type: MS2
Ion mode: NEGATIVE
Ionization: ESI
Fragmentation mode: HCD
Collision energy: 110% (nominal)
Resolution: 15000
Column name: Kinetex Evo C18 2.6 um 50 x 2.1 mm
Retention time: 11.253 min
Base peak: 307.0962
Precursor m/z: 307.0976
Precursor type: [M-H]-
m/z	relative intensity	assigned
57.0346	425	C3H5O-
83.0138	14	C4H3O2-
92.0266	11	C6H4O-
93.0344	34	C6H5O-
117.0345	489	C8H5O-
130.0424	24	C9H6O-
161.0243	999	C9H5O3-
206.0736	109	C15H10O-
211.0401	14	C13H7O3-
222.0682	21	C15H10O2-
223.0763	41	C15H11O2-
250.0632	891	C16H10O3-
