Mass spectrum: Candesartan; LC-ESI-ITFT; MS2; CE: 40%; R=15000; [M-H]-
Name: Candesartan
Name: 2-ethoxy-3-[[4-[2-(2H-tetrazol-5-yl)phenyl]phenyl]methyl]benzimidazole-4-carboxylic acid
Formula: C24H20N6O3
Exact mass: 440.1597
SMILES: CCOC1=NC2=CC=CC(C(O)=O)=C2N1CC1=CC=C(C=C1)C1=CC=CC=C1C1=NN=NN1
InChI: InChI=1S/C24H20N6O3/c1-2-33-24-25-20-9-5-8-19(23(31)32)21(20)30(24)14-15-10-12-16(13-11-15)17-6-3-4-7-18(17)22-26-28-29-27-22/h3-13H,2,14H2,1H3,(H,31,32)(H,26,27,28,29)
Instrument: LTQ Orbitrap XL Thermo Scientific
Instrument type: LC-ESI-ITFT
Ms type: MS2
Ion mode: NEGATIVE
Ionization: ESI
Fragmentation mode: HCD
Collision energy: 40% (nominal)
Resolution: 15000
Column name: Kinetex Evo C18 2.6 um 50 x 2.1 mm
Retention time: 11.336 min
Base peak: 360.1
Precursor m/z: 439.1524
Precursor type: [M-H]-
m/z	relative intensity	assigned
132.0329	111	C7H4N2O-
133.0407	187	C7H5N2O-
205.062	105	C10H9N2O3-
293.1079	234	C21H13N2-
309.1031	999	C21H13N2O-
310.1116	186	C21H14N2O-
354.1017	166	C22H14N2O3-
