Mass spectrum: Genistein; LC-ESI-ITFT; MS2; CE: 100%; R=15000; [M-H]-
Name: Genistein
Name: 5,7-dihydroxy-3-(4-hydroxyphenyl)chromen-4-one
Formula: C15H10O5
Exact mass: 270.0528
SMILES: OC1=CC=C(C=C1)C1=COC2=CC(O)=CC(O)=C2C1=O
InChI: InChI=1S/C15H10O5/c16-9-3-1-8(2-4-9)11-7-20-13-6-10(17)5-12(18)14(13)15(11)19/h1-7,16-18H
Instrument: LTQ Orbitrap XL Thermo Scientific
Instrument type: LC-ESI-ITFT
Ms type: MS2
Ion mode: NEGATIVE
Ionization: ESI
Fragmentation mode: HCD
Collision energy: 100% (nominal)
Resolution: 15000
Column name: Kinetex Evo C18 2.6 um 50 x 2.1 mm
Retention time: 9.893 min
Base peak: 269.0445
Precursor m/z: 269.0455
Precursor type: [M-H]-
m/z	relative intensity	assigned
63.0241	31	C5H3-
65.0033	18	C4HO-
89.0033	8	C6HO-
91.0188	9	C6H3O-
107.0138	37	C6H3O2-
133.0295	121	C8H5O2-
135.0086	24	C7H3O3-
135.0453	26	C8H7O2-
157.0295	15	C10H5O2-
159.0452	55	C10H7O2-
169.0658	21	C12H9O-
173.0615	9	C11H9O2-
180.0579	21	C13H8O-
181.0659	67	C13H9O-
183.045	40	C12H7O2-
196.0524	24	C13H8O2-
197.0606	35	C13H9O2-
199.0407	11	C12H7O3-
201.0557	58	C12H9O3-
213.0561	15	C13H9O3-
224.0475	44	C14H8O3-
225.0557	49	C14H9O3-
227.034	19	C13H7O4-
240.0417	13	C14H8O4-
241.0508	16	C14H9O4-
269.0452	999	C15H9O5-
