Mass spectrum: Epiandrosterone; LC-ESI-ITFT; MS2; CE: 20%; R=15000; [M+Na]+
Name: Epiandrosterone
Name: (3S,5S,8R,9S,10S,13S,14S)-3-hydroxy-10,13-dimethyl-1,2,3,4,5,6,7,8,9,11,12,14,15,16-tetradecahydrocyclopenta[a]phenanthren-17-one
Formula: C19H30O2
Exact mass: 290.2246
SMILES: C[C@]12CC[C@H]3[C@@H](CC[C@H]4C[C@@H](O)CC[C@]34C)[C@@H]1CCC2=O
InChI: InChI=1S/C19H30O2/c1-18-9-7-13(20)11-12(18)3-4-14-15-5-6-17(21)19(15,2)10-8-16(14)18/h12-16,20H,3-11H2,1-2H3/t12-,13-,14-,15-,16-,18-,19-/m0/s1
Instrument: LTQ Orbitrap XL Thermo Scientific
Instrument type: LC-ESI-ITFT
Ms type: MS2
Ion mode: POSITIVE
Ionization: ESI
Fragmentation mode: HCD
Collision energy: 20% (nominal)
Resolution: 15000
Column name: Kinetex Evo C18 2.6 um 50 x 2.1 mm
Retention time: 12.022 min
Base peak: 313.2153
Precursor m/z: 313.2138
Precursor type: [M+Na]+
m/z	relative intensity	assigned
85.0644	11	C5H9O+
97.0646	2	C6H9O+
143.0861	2	C11H11+
159.1167	5	C12H15+
171.08	9	C12H11O+
175.1113	4	C12H15O+
197.1318	3	C15H17+
201.1272	2	C14H17O+
211.1476	5	C16H19+
213.1267	3	C15H17O+
215.1799	3	C16H23+
217.1583	2	C15H21O+
225.1273	4	C16H17O+
229.158	11	C16H21O+
239.1419	8	C17H19O+
255.1734	10	C18H23O+
267.2096	2	C18H28Na+
277.1937	13	C19H26Na+
295.204	160	C19H28NaO+
313.2144	999	C19H30NaO2+
