Mass spectrum: Quinmerac; LC-ESI-ITFT; MS2; CE: 70%; R=15000; [M+H]+
Name: Quinmerac
Name: 7-chloro-3-methylquinoline-8-carboxylic acid
Formula: C11H8ClNO2
Exact mass: 221.02436
SMILES: CC1=CC2=C(N=C1)C(C(O)=O)=C(Cl)C=C2
InChI: InChI=1S/C11H8ClNO2/c1-6-4-7-2-3-8(12)9(11(14)15)10(7)13-5-6/h2-5H,1H3,(H,14,15)
Instrument: LTQ Orbitrap XL Thermo Scientific
Instrument type: LC-ESI-ITFT
Ms type: MS2
Ion mode: POSITIVE
Ionization: ESI
Fragmentation mode: HCD
Collision energy: 70% (nominal)
Resolution: 15000
Column name: Kinetex Evo C18 2.6 um 50 x 2.1 mm
Retention time: 6.338 min
Base peak: 222.0432
Precursor m/z: 222.0316
Precursor type: [M+H]+
m/z	relative intensity	assigned
63.9946	21	C4O+
65.0383	108	C5H5+
75.9947	20	C2H3ClN+
77.0384	306	C6H5+
87.9947	64	C3H3ClN+
92.0494	963	C6H6N+
93.0571	59	C6H7N+
94.065	242	C6H8N+
95.049	64	C6H7O+
101.974	19	C3HClNO+
103.054	7	C8H7+
104.0493	999	C7H6N+
106.0647	2	C7H8N+
116.0491	7	C8H6N+
116.9975	12	C4H4ClNO+
117.0569	4	C8H7N+
119.0005	11	C6HNO2+
120.0442	12	C7H6NO+
125.015	3	C7H6Cl+
130.0649	37	C9H8N+
132.0442	25	C8H6NO+
141.058	3	C10H7N+
149.0151	29	C9H6Cl+
150.0104	29	C8H5ClN+
158.0602	10	C10H8NO+
159.0679	3	C10H9NO+
176.0262	8	C10H7ClN+
178.0054	11	C9H5ClNO+
193.0286	102	C10H8ClNO+
204.0209	31	C11H7ClNO+
