Mass spectrum: Azinphos methyl; LC-ESI-ITFT; MS2; CE: 60%; R=15000; [M+Na]+
Name: Azinphos methyl
Name: Azinphos-methyl
Name: 3-(dimethoxyphosphinothioylsulfanylmethyl)-1,2,3-benzotriazin-4-one
Formula: C10H12N3O3PS2
Exact mass: 317.0058
SMILES: COP(=S)(OC)SCN1N=NC2=CC=CC=C2C1=O
InChI: InChI=1S/C10H12N3O3PS2/c1-15-17(18,16-2)19-7-13-10(14)8-5-3-4-6-9(8)11-12-13/h3-6H,7H2,1-2H3
Instrument: LTQ Orbitrap XL Thermo Scientific
Instrument type: LC-ESI-ITFT
Ms type: MS2
Ion mode: POSITIVE
Ionization: ESI
Fragmentation mode: HCD
Collision energy: 60% (nominal)
Resolution: 15000
Column name: Kinetex Evo C18 2.6 um 50 x 2.1 mm
Retention time: 10.680 min
Base peak: 339.9954
Precursor m/z: 339.995
Precursor type: [M+Na]+
m/z	relative intensity	assigned
77.0387	799	C6H5+
104.0499	635	C3H9N2P+
105.0339	773	C3H8NOP+
120.0449	3	C3H9N2OP+
124.9826	8	C2H6O2PS+
130.0405	141	CH10N2O3S+
132.0449	999	C4H9N2OP+
142.9933	6	C3H7NNaPS+
148.0214	4	C8H6NS+
150.0556	25	C4H11N2O2P+
