Mass spectrum: Clopidogrel; LC-ESI-ITFT; MS2; CE: 80%; R=15000; [M+H]+
Name: Clopidogrel
Name: Clopidogrelum
Name: methyl 2-(2-chlorophenyl)-2-(6,7-dihydro-4H-thieno[3,2-c]pyridin-5-yl)acetate
Formula: C16H16ClNO2S
Exact mass: 321.05903
SMILES: COC(=O)C(N1CCC2=C(C1)C=CS2)C1=CC=CC=C1Cl
InChI: InChI=1S/C16H16ClNO2S/c1-20-16(19)15(12-4-2-3-5-13(12)17)18-8-6-14-11(10-18)7-9-21-14/h2-5,7,9,15H,6,8,10H2,1H3
Instrument: LTQ Orbitrap XL Thermo Scientific
Instrument type: LC-ESI-ITFT
Ms type: MS2
Ion mode: POSITIVE
Ionization: ESI
Fragmentation mode: HCD
Collision energy: 80 % (nominal)
Resolution: 15000
Column name: Kinetex Evo C18 2.6 um 50 x 2.1 mm
Retention time: 10.875 min
Base peak: 322.0674
Precursor m/z: 322.0663
Precursor type: [M+H]+
m/z	relative intensity	assigned
77.0385	15	C6H5+
91.0542	69	C7H7+
92.062	1	C7H8+
95.0487	1	C6H7O+
105.0335	60	C7H5O+
109.0649	4	C7H9O+
111.0262	4	C6H7S+
117.0574	3	C8H7N+
125.0153	274	C7H6Cl+
127.0309	5	C7H8Cl+
133.0285	5	C8H5O2+
138.0371	2	C7H8NS+
138.9943	4	C7H4ClO+
140.0027	3	C7H5ClO+
148.0519	20	C9H8O2+
152.0263	114	C8H7ClN+
154.042	19	C8H9ClN+
155.0258	999	C8H8ClO+
167.9975	2	C8H5ClO2+
183.0207	67	C9H8ClO2+
184.0523	22	C9H11ClNO+
