Mass spectrum: Aldosterone; LC-ESI-ITFT; MS2; CE: 70%; R=15000; [M+H]+
Name: Aldosterone
Name: (8S,9S,10R,11S,13R,14S,17S)-11-hydroxy-17-(2-hydroxyacetyl)-10-methyl-3-oxo-1,2,6,7,8,9,11,12,14,15,16,17-dodecahydrocyclopenta[a]phenanthrene-13-carbaldehyde
Formula: C21H28O5
Exact mass: 360.19367
SMILES: [H][C@@]12CC[C@H](C(=O)CO)[C@]1(C[C@H](O)[C@@]1([H])[C@@]2([H])CCC2=CC(=O)CC[C@]12C)C=O
InChI: InChI=1S/C21H28O5/c1-20-7-6-13(24)8-12(20)2-3-14-15-4-5-16(18(26)10-22)21(15,11-23)9-17(25)19(14)20/h8,11,14-17,19,22,25H,2-7,9-10H2,1H3/t14-,15-,16+,17-,19+,20-,21+/m0/s1
Instrument: LTQ Orbitrap XL Thermo Scientific
Instrument type: LC-ESI-ITFT
Ms type: MS2
Ion mode: POSITIVE
Ionization: ESI
Fragmentation mode: HCD
Collision energy: 70% (nominal)
Resolution: 15000
Column name: Kinetex Evo C18 2.6 um 50 x 2.1 mm
Retention time: 9.238 min
Base peak: 361.2011
Precursor m/z: 361.201
Precursor type: [M+H]+
m/z	relative intensity	assigned
67.054	106	C5H7+
69.0333	46	C4H5O+
69.0697	52	C5H9+
71.049	23	C4H7O+
79.0542	179	C6H7+
81.0336	12	C5H5O+
81.0698	186	C6H9+
83.0491	237	C5H7O+
87.044	51	C4H7O2+
91.0542	233	C7H7+
93.0698	213	C7H9+
95.0493	36	C6H7O+
95.0855	161	C7H11+
97.0648	999	C6H9O+
101.0599	17	C5H9O2+
105.0698	349	C8H9+
107.0491	92	C7H7O+
107.0854	141	C8H11+
109.0647	864	C7H9O+
111.0807	13	C7H11O+
115.0539	23	C9H7+
117.0699	192	C9H9+
119.049	16	C8H7O+
119.0855	230	C9H11+
121.0648	468	C8H9O+
121.1011	48	C9H13+
123.0804	391	C8H11O+
128.0621	56	C10H8+
129.0698	243	C10H9+
130.0775	15	C10H10+
131.0855	410	C10H11+
133.0649	71	C9H9O+
133.1012	199	C10H13+
135.0804	67	C9H11O+
137.0599	12	C8H9O2+
137.0957	19	C9H13O+
141.0699	122	C11H9+
142.0778	118	C11H10+
143.0855	397	C11H11+
144.0935	10	C11H12+
145.0647	48	C10H9O+
145.1011	355	C11H13+
147.0804	162	C10H11O+
147.1168	75	C11H15+
148.0881	25	C10H12O+
149.0959	62	C10H13O+
153.0698	29	C12H9+
154.0775	24	C12H10+
155.0855	328	C12H11+
156.0933	31	C12H12+
157.1012	361	C12H13+
158.0729	9	C11H10O+
159.0805	96	C11H11O+
159.1167	169	C12H15+
160.0875	13	C11H12O+
161.0961	107	C11H13O+
163.1117	248	C11H15O+
165.0701	35	C13H9+
166.0776	29	C13H10+
167.0855	141	C13H11+
168.0933	55	C13H12+
169.1011	250	C13H13+
170.109	27	C13H14+
171.0803	49	C12H11O+
171.1168	147	C13H15+
173.096	133	C12H13O+
173.1326	59	C13H17+
174.1035	21	C12H14O+
175.1116	120	C12H15O+
179.0855	70	C14H11+
180.0932	51	C14H12+
181.1011	218	C14H13+
182.1089	76	C14H14+
183.0807	31	C13H11O+
183.1168	226	C14H15+
184.1245	20	C14H16+
185.0962	81	C13H13O+
185.1324	85	C14H17+
187.1118	53	C13H15O+
189.1279	43	C13H17O+
191.0857	20	C15H11+
192.0932	41	C15H12+
193.101	118	C15H13+
194.1095	39	C15H14+
195.0799	18	C14H11O+
195.1168	194	C15H15+
196.1248	35	C15H16+
197.0959	59	C14H13O+
197.1324	114	C15H17+
199.1114	92	C14H15O+
199.1479	45	C15H19+
200.1197	23	C14H16O+
201.1273	59	C14H17O+
203.1066	21	C13H15O2+
204.0934	23	C16H12+
205.101	51	C16H13+
206.1089	39	C16H14+
207.1169	116	C16H15+
208.1252	30	C16H16+
209.0963	24	C15H13O+
209.1326	123	C16H17+
210.1039	21	C15H14O+
211.1118	69	C15H15O+
211.1482	62	C16H19+
212.1201	15	C15H16O+
213.1272	125	C15H17O+
214.1358	42	C15H18O+
215.1068	15	C14H15O2+
215.1432	39	C15H19O+
217.1006	17	C17H13+
218.1089	20	C17H14+
219.1165	47	C17H15+
220.125	18	C17H16+
221.0971	16	C16H13O+
221.1323	97	C17H17+
222.1398	19	C17H18+
223.1116	64	C16H15O+
223.1483	79	C17H19+
224.12	28	C16H16O+
225.1273	160	C16H17O+
226.1355	22	C16H18O+
227.1428	92	C16H19O+
231.1168	19	C18H15+
233.1323	49	C18H17+
235.1477	45	C18H19+
236.1204	16	C17H16O+
237.1272	67	C17H17O+
237.1638	33	C18H21+
238.1349	35	C17H18O+
238.1719	14	C18H22+
239.1428	208	C17H19O+
240.1509	317	C17H20O+
241.1222	31	C16H17O2+
241.1588	97	C17H21O+
249.1273	25	C18H17O+
251.1431	85	C18H19O+
253.1229	10	C17H17O2+
253.1586	73	C18H21O+
254.1665	60	C18H22O+
255.1375	32	C17H19O2+
255.1739	32	C18H23O+
257.1528	20	C17H21O2+
263.1423	13	C19H19O+
265.1587	43	C19H21O+
266.166	22	C19H22O+
267.1749	21	C19H23O+
269.1537	38	C18H21O2+
271.17	11	C18H23O2+
279.174	18	C20H23O+
281.1528	40	C19H21O2+
283.1693	30	C19H23O2+
297.1861	12	C20H25O2+
299.1638	80	C19H23O3+
315.1947	22	C20H27O3+
