Mass spectrum: 6-beta-Hydroxycortisol; LC-ESI-ITFT; MS2; CE: 70%; R=15000; [M+H]+
Name: 6-beta-Hydroxycortisol
Name: 6beta-Hydroxycortisol
Name: (6R,8S,9S,10R,11S,13S,14S,17R)-6,11,17-trihydroxy-17-(2-hydroxyacetyl)-10,13-dimethyl-2,6,7,8,9,11,12,14,15,16-decahydro-1H-cyclopenta[a]phenanthren-3-one
Formula: C21H30O6
Exact mass: 378.20424
SMILES: C[C@]12C[C@H](O)[C@H]3[C@@H](C[C@@H](O)C4=CC(=O)CC[C@]34C)[C@@H]1CC[C@]2(O)C(=O)CO
InChI: InChI=1S/C21H30O6/c1-19-5-3-11(23)7-14(19)15(24)8-12-13-4-6-21(27,17(26)10-22)20(13,2)9-16(25)18(12)19/h7,12-13,15-16,18,22,24-25,27H,3-6,8-10H2,1-2H3/t12-,13-,15+,16-,18+,19-,20-,21-/m0/s1
Instrument: LTQ Orbitrap XL Thermo Scientific
Instrument type: LC-ESI-ITFT
Ms type: MS2
Ion mode: POSITIVE
Ionization: ESI
Fragmentation mode: HCD
Collision energy: 70% (nominal)
Resolution: 15000
Column name: Kinetex Evo C18 2.6 um 50 x 2.1 mm
Retention time: 6.513 min
Base peak: 379.2118
Precursor m/z: 379.2115
Precursor type: [M+H]+
m/z	relative intensity	assigned
55.0177	106	C3H3O+
55.0541	109	C4H7+
67.0542	206	C5H7+
69.0699	142	C5H9+
71.0491	70	C4H7O+
79.0543	347	C6H7+
81.07	477	C6H9+
83.0494	285	C5H7O+
91.0544	480	C7H7+
93.0701	864	C7H9+
95.0493	119	C6H7O+
95.0858	322	C7H11+
97.065	635	C6H9O+
105.0701	999	C8H9+
107.0494	172	C7H7O+
107.0858	439	C8H11+
109.065	379	C7H9O+
109.1016	87	C8H13+
117.0701	390	C9H9+
119.0858	756	C9H11+
121.0651	589	C8H9O+
121.1014	144	C9H13+
123.0806	213	C8H11O+
128.0624	161	C10H8+
129.0701	357	C10H9+
130.0777	78	C10H10+
131.0858	829	C10H11+
133.0649	143	C9H9O+
133.1014	411	C10H13+
135.0807	241	C9H11O+
137.0601	122	C8H9O2+
139.0757	135	C8H11O2+
141.0703	194	C11H9+
142.0781	160	C11H10+
143.0858	798	C11H11+
144.0931	66	C11H12+
145.065	143	C10H9O+
145.1015	694	C11H13+
147.0807	307	C10H11O+
147.1172	237	C11H15+
149.0962	136	C10H13O+
153.0697	92	C12H9+
154.0779	112	C12H10+
155.0858	689	C12H11+
156.0938	137	C12H12+
157.1015	593	C12H13+
159.0806	277	C11H11O+
159.1172	210	C12H15+
161.0965	227	C11H13O+
163.1122	55	C11H15O+
165.07	137	C13H9+
166.0778	71	C13H10+
167.0858	231	C13H11+
168.0935	159	C13H12+
169.1016	614	C13H13+
171.0806	173	C12H11O+
171.1171	296	C13H15+
173.0965	368	C12H13O+
173.1329	46	C13H17+
175.1124	151	C12H15O+
178.0777	98	C14H10+
179.086	243	C14H11+
180.0934	162	C14H12+
181.1014	454	C14H13+
182.1093	222	C14H14+
183.0804	92	C13H11O+
183.1172	539	C14H15+
185.0963	218	C13H13O+
185.1328	177	C14H17+
187.1117	123	C13H15O+
191.0858	84	C15H11+
192.0937	152	C15H12+
193.1016	270	C15H13+
194.1094	116	C15H14+
195.0809	69	C14H11O+
195.1172	481	C15H15+
196.1254	125	C15H16+
197.0965	164	C14H13O+
197.133	397	C15H17+
199.112	175	C14H15O+
201.1281	60	C14H17O+
205.1017	121	C16H13+
206.1088	142	C16H14+
207.1171	231	C16H15+
208.1247	100	C16H16+
209.0961	95	C15H13O+
209.1328	331	C16H17+
211.112	186	C15H15O+
211.1488	114	C16H19+
213.1277	275	C15H17O+
217.1018	47	C17H13+
219.117	125	C17H15+
221.1326	196	C17H17+
223.1116	132	C16H15O+
223.1487	274	C17H19+
225.128	141	C16H17O+
225.1636	76	C17H21+
231.1167	53	C18H15+
233.1323	94	C18H17+
237.1274	100	C17H17O+
237.1644	57	C18H21+
239.1431	166	C17H19O+
251.1432	237	C18H19O+
269.1539	152	C18H21O2+
