Mass spectrum: Cashmeran; LC-ESI-ITFT; MS2; CE: 60%; R=15000; [M+H]+
Name: Cashmeran
Name: 1,1,2,3,3-pentamethyl-2,5,6,7-tetrahydroinden-4-one
Formula: C14H22O
Exact mass: 206.1671
SMILES: CC1C(C)(C)C2=C(C(=O)CCC2)C1(C)C
InChI: InChI=1S/C14H22O/c1-9-13(2,3)10-7-6-8-11(15)12(10)14(9,4)5/h9H,6-8H2,1-5H3
Instrument: LTQ Orbitrap XL Thermo Scientific
Instrument type: LC-ESI-ITFT
Ms type: MS2
Ion mode: POSITIVE
Ionization: ESI
Fragmentation mode: HCD
Collision energy: 60 % (nominal)
Resolution: 15000
Column name: Kinetex Evo C18 2.6 um 50 x 2.1 mm
Retention time: 12.700 min
Base peak: 207.1746
Precursor m/z: 207.1743
Precursor type: [M+H]+
m/z	relative intensity	assigned
67.054	24	C5H7+
69.0696	12	C5H9+
79.0541	5	C6H7+
81.0697	31	C6H9+
83.0854	10	C6H11+
91.0541	7	C7H7+
93.0697	32	C7H9+
95.049	6	C6H7O+
95.0854	57	C7H11+
97.1008	4	C7H13+
105.0697	18	C8H9+
107.0854	33	C8H11+
109.0646	22	C7H9O+
109.101	76	C8H13+
119.0853	79	C9H11+
121.101	39	C9H13+
123.0802	36	C8H11O+
123.1166	10	C9H15+
125.0959	3	C8H13O+
133.101	118	C10H13+
135.1167	22	C10H15+
137.0959	999	C9H13O+
147.1166	93	C11H15+
149.1323	18	C11H17+
151.1115	193	C10H15O+
161.1322	25	C12H17+
163.1479	10	C12H19+
165.1271	34	C11H17O+
174.14	7	C13H18+
177.1271	41	C12H17O+
179.1427	3	C12H19O+
189.1635	283	C14H21+
191.1425	5	C13H19O+
192.1505	64	C13H20O+
207.174	728	C14H23O+
