Mass spectrum: Norfloxacin; LC-ESI-ITFT; MS2; CE: 80%; R=15000; [M+H]+
Name: Norfloxacin
Name: 1-ethyl-6-fluoro-4-oxo-7-piperazin-1-ylquinoline-3-carboxylic acid
Formula: C16H18FN3O3
Exact mass: 319.13322
SMILES: CCN1C=C(C(O)=O)C(=O)C2=CC(F)=C(C=C12)N1CCNCC1
InChI: InChI=1S/C16H18FN3O3/c1-2-19-9-11(16(22)23)15(21)10-7-12(17)14(8-13(10)19)20-5-3-18-4-6-20/h7-9,18H,2-6H2,1H3,(H,22,23)
Instrument: LTQ Orbitrap XL Thermo Scientific
Instrument type: LC-ESI-ITFT
Ms type: MS2
Ion mode: POSITIVE
Ionization: ESI
Fragmentation mode: HCD
Collision energy: 80% (nominal)
Resolution: 15000
Column name: Kinetex Evo C18 2.6 um 50 x 2.1 mm
Retention time: 4.239 min
Base peak: 320.1411
Precursor m/z: 320.1405
Precursor type: [M+H]+
m/z	relative intensity	assigned
56.0493	32	C3H6N+
58.0648	16	C3H8N+
70.065	81	C4H8N+
71.0731	5	C4H9N+
109.0449	7	C7H6F+
116.0497	27	C8H6N+
122.0401	8	C7H5FN+
129.0576	5	C9H7N+
130.0652	25	C9H8N+
134.0402	9	C8H5FN+
134.0601	6	C8H8NO+
135.0479	34	C8H6FN+
136.0559	45	C8H7FN+
137.051	8	C7H6FN2+
143.0606	14	C9H7N2+
143.0731	6	C10H9N+
144.0444	27	C9H6NO+
144.0554	7	C8H6N3+
146.0403	5	C9H5FN+
148.0558	59	C9H7FN+
149.0513	14	C8H6FN2+
149.0638	11	C9H8FN+
150.059	9	C8H7FN2+
150.0718	13	C9H9FN+
151.043	9	C8H6FNO+
155.0604	14	C10H7N2+
156.0683	64	C10H8N2+
157.0761	41	C10H9N2+
158.0601	14	C10H8NO+
160.0561	8	C10H7FN+
161.0512	11	C9H6FN2+
161.0638	16	C10H8FN+
162.0353	52	C9H5FNO+
162.0591	17	C9H7FN2+
162.0716	10	C10H9FN+
163.043	91	C9H6FNO+
163.0668	71	C9H8FN2+
163.0789	7	C10H10FN+
164.0508	94	C9H7FNO+
167.0605	14	C11H7N2+
169.0758	9	C11H9N2+
171.0556	9	C10H7N2O+
171.0917	17	C11H11N2+
172.0758	40	C11H10NO+
174.0589	10	C10H7FN2+
175.0668	59	C10H8FN2+
176.0508	39	C10H7FNO+
176.0746	390	C10H9FN2+
177.0586	42	C10H8FNO+
177.0823	50	C10H10FN2+
178.0539	49	C9H7FN2O+
178.0663	49	C10H9FNO+
178.0908	9	C10H11FN2+
179.0616	49	C9H8FN2O+
179.0744	9	C10H10FNO+
184.0633	53	C11H8N2O+
185.0711	234	C11H9N2O+
186.0591	16	C11H7FN2+
187.0667	83	C11H8FN2+
188.0507	38	C11H7FNO+
189.0459	39	C10H6FN2O+
189.0824	89	C11H10FN2+
190.0537	41	C10H7FN2O+
190.0665	90	C11H9FNO+
190.0903	10	C11H11FN2+
191.0617	227	C10H8FN2O+
191.0741	84	C11H10FNO+
192.0697	32	C10H9FN2O+
192.082	13	C11H11FNO+
197.0711	6	C12H9N2O+
198.0665	28	C11H8N3O+
198.0787	33	C12H10N2O+
198.103	13	C12H12N3+
199.0741	14	C11H9N3O+
199.0872	10	C12H11N2O+
200.0816	11	C11H10N3O+
202.0536	10	C11H7FN2O+
202.0901	16	C12H11FN2+
203.0617	650	C11H8FN2O+
204.0695	290	C11H9FN2O+
204.106	137	C12H13FN2+
205.0773	999	C11H10FN2O+
206.085	56	C11H11FN2O+
206.0976	7	C12H13FNO+
207.0929	28	C11H12FN2O+
211.1107	14	C13H13N3+
212.0818	19	C12H10N3O+
213.1022	36	C13H13N2O+
215.0977	27	C13H12FN2+
216.0685	12	C12H9FN2O+
217.0773	64	C12H10FN2O+
218.0851	141	C12H11FN2O+
219.0929	211	C12H12FN2O+
225.0897	6	C13H11N3O+
226.0977	56	C13H12N3O+
226.1341	8	C14H16N3+
227.106	17	C10H14FN3O2+
228.1127	16	C13H14N3O+
230.0848	6	C13H11FN2O+
231.0566	416	C12H8FN2O2+
233.1086	418	C13H14FN2O+
245.0723	12	C13H10FN2O2+
249.0672	12	C12H10FN2O3+
253.0844	6	C14H11N3O2+
254.0925	42	C14H12N3O2+
254.129	9	C15H16N3O+
256.1447	5	C15H18N3O+
259.0874	9	C14H12FN2O2+
272.1027	8	C14H14N3O3+
282.1241	31	C16H16N3O2+
292.1093	7	C14H15FN3O3+
300.1349	10	C16H18N3O3+
302.1298	51	C16H17FN3O2+
320.1403	27	C16H19FN3O3+
