Mass spectrum: Metalaxyl; LC-ESI-ITFT; MS2; CE: 30%; R=15000; [M+Na]+
Name: Metalaxyl
Name: methyl 2-(N-(2-methoxyacetyl)-2,6-dimethylanilino)propanoate
Formula: C15H21NO4
Exact mass: 279.1471
SMILES: COCC(=O)N(C(C)C(=O)OC)C1=C(C)C=CC=C1C
InChI: InChI=1S/C15H21NO4/c1-10-7-6-8-11(2)14(10)16(13(17)9-19-4)12(3)15(18)20-5/h6-8,12H,9H2,1-5H3
Instrument: LTQ Orbitrap XL Thermo Scientific
Instrument type: LC-ESI-ITFT
Ms type: MS2
Ion mode: POSITIVE
Ionization: ESI
Fragmentation mode: HCD
Collision energy: 30% (nominal)
Resolution: 15000
Column name: Kinetex Evo C18 2.6 um 50 x 2.1 mm
Retention time: 10.208 min
Base peak: 280.1541
Precursor m/z: 302.1363
Precursor type: [M+Na]+
m/z	relative intensity	assigned
302.1351	999	C15H21NNaO4+
