Mass spectrum: Azinphos methyl; LC-ESI-ITFT; MS2; CE: 70%; R=15000; [M+Na]+
Name: Azinphos methyl
Name: Azinphos-methyl
Name: 3-(dimethoxyphosphinothioylsulfanylmethyl)-1,2,3-benzotriazin-4-one
Formula: C10H12N3O3PS2
Exact mass: 317.0058
SMILES: COP(=S)(OC)SCN1N=NC2=CC=CC=C2C1=O
InChI: InChI=1S/C10H12N3O3PS2/c1-15-17(18,16-2)19-7-13-10(14)8-5-3-4-6-9(8)11-12-13/h3-6H,7H2,1-2H3
Instrument: LTQ Orbitrap XL Thermo Scientific
Instrument type: LC-ESI-ITFT
Ms type: MS2
Ion mode: POSITIVE
Ionization: ESI
Fragmentation mode: HCD
Collision energy: 70 % (nominal)
Resolution: 15000
Column name: Kinetex Evo C18 2.6 um 50 x 2.1 mm
Retention time: 10.667 min
Base peak: 339.9957
Precursor m/z: 339.995
Precursor type: [M+Na]+
m/z	relative intensity	assigned
77.0384	999	C6H5+
78.0337	2	C5H4N+
92.0493	1	C2H9N2P+
94.0413	13	C6H6O+
95.0491	184	C6H7O+
96.0444	4	C5H6NO+
102.0339	6	C7H4N+
104.0496	383	C7H6N+
105.0335	586	C7H5O+
105.0446	576	C6H5N2+
106.0419	3	C3H9NOP+
106.048	22	CH9NNaO3+
120.0444	7	C7H6NO+
124.9821	9	C2H6O2PS+
130.04	169	C7H4N3+
132.0444	409	C8H6NO+
133.0477	15	C3H7N3O3+
142.9923	4	C7H4NaS+
148.0225	1	C4H9N2PS+
150.0549	7	C8H8NO2+
164.0699	1	C9H10NO2+
