Mass spectrum: 6-beta-Hydroxycortisol; LC-ESI-ITFT; MS2; CE: 80%; R=15000; [M+H]+
Name: 6-beta-Hydroxycortisol
Name: 6beta-Hydroxycortisol
Name: (6R,8S,9S,10R,11S,13S,14S,17R)-6,11,17-trihydroxy-17-(2-hydroxyacetyl)-10,13-dimethyl-2,6,7,8,9,11,12,14,15,16-decahydro-1H-cyclopenta[a]phenanthren-3-one
Formula: C21H30O6
Exact mass: 378.20424
SMILES: C[C@]12C[C@H](O)[C@H]3[C@@H](C[C@@H](O)C4=CC(=O)CC[C@]34C)[C@@H]1CC[C@]2(O)C(=O)CO
InChI: InChI=1S/C21H30O6/c1-19-5-3-11(23)7-14(19)15(24)8-12-13-4-6-21(27,17(26)10-22)20(13,2)9-16(25)18(12)19/h7,12-13,15-16,18,22,24-25,27H,3-6,8-10H2,1-2H3/t12-,13-,15+,16-,18+,19-,20-,21-/m0/s1
Instrument: LTQ Orbitrap XL Thermo Scientific
Instrument type: LC-ESI-ITFT
Ms type: MS2
Ion mode: POSITIVE
Ionization: ESI
Fragmentation mode: HCD
Collision energy: 80% (nominal)
Resolution: 15000
Column name: Kinetex Evo C18 2.6 um 50 x 2.1 mm
Retention time: 6.513 min
Base peak: 379.2118
Precursor m/z: 379.2115
Precursor type: [M+H]+
m/z	relative intensity	assigned
55.0176	95	C3H3O+
55.054	97	C4H7+
67.0542	172	C5H7+
69.0701	78	C5H9+
71.0495	67	C4H7O+
79.0544	324	C6H7+
81.0701	410	C6H9+
83.0494	157	C5H7O+
91.0545	701	C7H7+
93.0702	613	C7H9+
95.0494	110	C6H7O+
95.0858	264	C7H11+
97.0651	454	C6H9O+
105.0702	999	C8H9+
107.0493	146	C7H7O+
107.0858	276	C8H11+
109.065	240	C7H9O+
109.1015	52	C8H13+
115.0545	57	C9H7+
117.0702	305	C9H9+
119.0859	569	C9H11+
121.0652	427	C8H9O+
121.1016	62	C9H13+
123.0806	114	C8H11O+
128.0624	251	C10H8+
129.0704	390	C10H9+
130.0782	126	C10H10+
131.0859	536	C10H11+
133.0652	90	C9H9O+
133.1016	203	C10H13+
135.0806	120	C9H11O+
139.0756	54	C8H11O2+
141.0703	186	C11H9+
142.0782	227	C11H10+
143.0859	648	C11H11+
144.0936	85	C11H12+
145.0655	72	C10H9O+
145.1015	423	C11H13+
147.0808	184	C10H11O+
147.1171	103	C11H15+
149.0964	78	C10H13O+
153.0701	109	C12H9+
154.0784	125	C12H10+
155.0859	472	C12H11+
156.0934	130	C12H12+
157.1017	324	C12H13+
159.0811	145	C11H11O+
159.1174	86	C12H15+
161.0964	130	C11H13O+
165.0705	193	C13H9+
166.0783	129	C13H10+
167.0859	282	C13H11+
168.094	186	C13H12+
169.1017	399	C13H13+
171.081	122	C12H11O+
171.1175	146	C13H15+
173.1332	51	C13H17+
175.1126	49	C12H15O+
178.078	85	C14H10+
179.0859	229	C14H11+
180.0938	126	C14H12+
181.1016	368	C14H13+
182.1097	183	C14H14+
183.1173	334	C14H15+
185.0958	85	C13H13O+
185.1323	71	C14H17+
187.1117	45	C13H15O+
191.0863	163	C15H11+
192.0937	134	C15H12+
193.1015	185	C15H13+
194.1092	122	C15H14+
195.0809	56	C14H11O+
195.1173	292	C15H15+
196.1251	57	C15H16+
197.0962	90	C14H13O+
197.1331	186	C15H17+
199.1126	79	C14H15O+
205.1015	87	C16H13+
206.1089	131	C16H14+
207.1172	151	C16H15+
208.125	96	C16H16+
209.0971	72	C15H13O+
209.1328	190	C16H17+
211.1126	98	C15H15O+
213.128	99	C15H17O+
217.1016	45	C17H13+
223.1116	75	C16H15O+
223.1486	162	C17H19+
225.1278	56	C16H17O+
239.1434	60	C17H19O+
249.1271	46	C18H17O+
251.1435	110	C18H19O+
