Mass spectrum: Ametryn; LC-ESI-ITFT; MS2; CE: 80%; R=15000; [M+Na]+
Name: Ametryn
Name: 4-N-ethyl-6-methylsulfanyl-2-N-propan-2-yl-1,3,5-triazine-2,4-diamine
Formula: C9H17N5S
Exact mass: 227.12047
SMILES: CCNC1=NC(SC)=NC(NC(C)C)=N1
InChI: InChI=1S/C9H17N5S/c1-5-10-7-12-8(11-6(2)3)14-9(13-7)15-4/h6H,5H2,1-4H3,(H2,10,11,12,13,14)
Instrument: LTQ Orbitrap XL Thermo Scientific
Instrument type: LC-ESI-ITFT
Ms type: MS2
Ion mode: POSITIVE
Ionization: ESI
Fragmentation mode: HCD
Collision energy: 80% (nominal)
Resolution: 15000
Column name: Kinetex Evo C18 2.6 um 50 x 2.1 mm
Retention time: 8.577 min
Base peak: 228.1282
Precursor m/z: 250.1097
Precursor type: [M+Na]+
m/z	relative intensity	assigned
55.0542	213	C4H7+
67.0542	244	C5H7+
69.0697	273	C5H9+
79.0544	538	C6H7+
81.0702	288	C6H9+
82.0652	161	C5H8N+
91.0545	841	C7H7+
92.0498	127	C6H6N+
93.0702	565	C7H9+
94.0656	214	C6H8N+
95.0858	340	C7H11+
103.0545	177	C8H7+
105.0702	999	C8H9+
107.086	251	C8H11+
119.0862	177	C4H16NaS+
