Mass spectrum: Fenthion; LC-ESI-ITFT; MS2; CE: 70%; R=15000; [M+H]+
Name: Fenthion
Name: dimethoxy-(3-methyl-4-methylsulfanylphenoxy)-sulfanylidene-$l^{5}-phosphane
Formula: C10H15O3PS2
Exact mass: 278.02002
SMILES: COP(=S)(OC)OC1=CC=C(SC)C(C)=C1
InChI: InChI=1S/C10H15O3PS2/c1-8-7-9(5-6-10(8)16-4)13-14(15,11-2)12-3/h5-7H,1-4H3
Instrument: LTQ Orbitrap XL Thermo Scientific
Instrument type: LC-ESI-ITFT
Ms type: MS2
Ion mode: POSITIVE
Ionization: ESI
Fragmentation mode: HCD
Collision energy: 70% (nominal)
Resolution: 15000
Column name: Kinetex Evo C18 2.6 um 50 x 2.1 mm
Retention time: 11.166 min
Base peak: 279.0283
Precursor m/z: 279.0273
Precursor type: [M+H]+
m/z	relative intensity	assigned
53.0384	3	C4H5+
58.9949	40	C2H3S+
62.0183	3	C2H6S+
77.0387	28	C6H5+
78.0465	16	C6H6+
78.9945	61	CH4O2P+
79.0544	38	C6H7+
81.07	8	C6H9+
91.0544	184	C7H7+
92.0622	16	C7H8+
93.0701	77	C7H9+
97.0109	230	C5H5S+
103.0545	78	C8H7+
104.0623	74	C8H8+
105.0335	11	C7H5O+
105.0701	16	C8H9+
107.0494	17	C7H7O+
109.0109	40	C6H5S+
109.0651	40	C7H9O+
110.0187	74	C6H6S+
121.011	18	C7H5S+
122.0187	126	C7H6S+
123.0266	4	C7H7S+
124.9823	167	C2H6O2PS+
125.0422	251	C7H9S+
135.0266	38	C8H7S+
136.0343	19	C8H8S+
137.0423	109	C8H9S+
138.0137	65	C7H6OS+
138.0501	65	C8H10S+
139.0216	14	C7H7OS+
142.993	141	C2H8O3PS+
149.0238	8	C8H5O3+
152.0297	9	C8H8OS+
153.0104	56	C7H6O2P+
153.0372	968	C8H9OS+
154.0449	31	C8H10OS+
154.9721	3	C6H4OPS+
167.9795	5	C7H5OPS+
168.9876	75	C7H6OPS+
183.021	39	C8H8O3P+
184.9827	13	C7H6O2PS+
185.9903	414	C7H7O2PS+
200.006	124	C8H9O2PS+
200.9774	63	C7H6O3PS+
214.9932	22	C8H8O3PS+
216.0009	999	C8H9O3PS+
231.0244	39	C9H12O3PS+
