Mass spectrum: (Methoxymethyl)triphenylphosphonium; LC-ESI-ITFT; MS2; CE: 70%; R=15000; [M]+
Name: (Methoxymethyl)triphenylphosphonium
Name: methoxymethyl(triphenyl)phosphanium
Formula: C20H20OP
Exact mass: 307.1252
SMILES: COC[P+](C1=CC=CC=C1)(C1=CC=CC=C1)C1=CC=CC=C1
InChI: InChI=1S/C20H20OP/c1-21-17-22(18-11-5-2-6-12-18,19-13-7-3-8-14-19)20-15-9-4-10-16-20/h2-16H,17H2,1H3/q+1
Instrument: LTQ Orbitrap XL Thermo Scientific
Instrument type: LC-ESI-ITFT
Ms type: MS2
Ion mode: POSITIVE
Ionization: ESI
Fragmentation mode: HCD
Collision energy: 70 % (nominal)
Resolution: 15000
Column name: Kinetex Evo C18 2.6 um 50 x 2.1 mm
Retention time: 7.556 min
Base peak: 307.1251
Precursor m/z: 307.1246
Precursor type: [M]+
m/z	relative intensity	assigned
79.0543	12	C6H7+
91.0543	28	C7H7+
108.0123	300	C6H5P+
141.0696	12	C11H9+
152.062	61	C12H8+
165.0697	21	C13H9+
183.0357	999	C12H8P+
185.0513	293	C12H10P+
197.0515	34	C13H10P+
261.0825	274	C18H14P+
262.0905	211	C18H15P+
263.0981	131	C18H16P+
277.1139	220	C19H18P+
