Mass spectrum: Celecoxib; LC-ESI-ITFT; MS2; CE: 70%; R=15000; [M+H]+
Name: Celecoxib
Name: 4-[5-(4-methylphenyl)-3-(trifluoromethyl)pyrazol-1-yl]benzenesulfonamide
Formula: C17H14F3N3O2S
Exact mass: 381.07588
SMILES: CC1=CC=C(C=C1)C1=CC(=NN1C1=CC=C(C=C1)S(N)(=O)=O)C(F)(F)F
InChI: InChI=1S/C17H14F3N3O2S/c1-11-2-4-12(5-3-11)15-10-16(17(18,19)20)22-23(15)13-6-8-14(9-7-13)26(21,24)25/h2-10H,1H3,(H2,21,24,25)
Instrument: LTQ Orbitrap XL Thermo Scientific
Instrument type: LC-ESI-ITFT
Ms type: MS2
Ion mode: POSITIVE
Ionization: ESI
Fragmentation mode: HCD
Collision energy: 70 % (nominal)
Resolution: 15000
Column name: Kinetex Evo C18 2.6 um 50 x 2.1 mm
Retention time: 12.021 min
Base peak: 552.1918
Precursor m/z: 382.0832
Precursor type: [M+H]+
m/z	relative intensity	assigned
65.0386	31	C5H5+
75.0231	114	C6H3+
91.0546	148	C7H7+
108.0449	60	C6H6NO+
109.0288	42	C6H5O2+
112.1126	26	C7H14N+
115.0547	88	CH7F2N3O+
116.05	20	C8H6N+
116.0626	90	CH8F2N3O+
117.0577	23	C8H7N+
117.0703	80	C9H9+
118.0655	63	C8H8N+
119.061	21	C4H8FN2O+
130.0657	70	C9H8N+
131.0735	135	C6H10FNO+
133.0455	19	CH6F3N3O+
138.9852	22	C6H3O2S+
142.0655	21	C10H8N+
165.0391	232	C6H6F3NO+
165.0705	13	C5H9F2N3O+
166.0471	55	C9H6F2N+
179.0861	36	C6H11F2N3O+
180.0629	108	C7H9F3NO+
184.0181	122	C14H2N+
184.0376	47	C9H5F3N+
185.0455	106	C9H6F3N+
191.0735	27	C11H10FNO+
192.0813	28	C14H10N+
193.0894	55	C11H12FNO+
204.0817	36	C12H11FNO+
205.0899	19	C12H12FNO+
206.0972	175	C12H13FNO+
207.1049	236	C12H14FNO+
212.0432	26	C14H6F2+
218.0847	53	C12H11FN2O+
221.0198	64	C15H3F2+
231.0928	92	C13H12FN2O+
232.1004	132	C13H13FN2O+
233.1081	368	C13H14FN2O+
235.0797	33	C16H10FN+
236.0876	46	C13H12F2NO+
254.0789	30	C13H11F3NO+
255.0737	101	C12H10F3N2O+
261.0832	176	C14H11F2N2O+
262.0912	146	C14H12F2N2O+
263.0987	219	C17H12FN2+
266.066	40	C13H9F3N2O+
267.0736	406	C13H10F3N2O+
275.0801	23	C15H10F3N2+
280.0819	127	C14H11F3N2O+
281.0895	999	C14H12F3N2O+
282.0972	942	C14H13F3N2O+
283.1051	154	C14H14F3N2O+
287.0801	145	C16H10F3N2+
300.0878	218	C17H11F3N2+
301.0956	412	C17H12F3N2+
302.1033	179	C17H13F3N2+
362.0777	266	C17H14F2N3O2S+
