Mass spectrum: Testosterone; LC-ESI-ITFT; MS2; CE: 90%; R=15000; [M+Na]+
Name: Testosterone
Name: (8R,9S,10R,13S,14S,17S)-17-hydroxy-10,13-dimethyl-1,2,6,7,8,9,11,12,14,15,16,17-dodecahydrocyclopenta[a]phenanthren-3-one
Formula: C19H28O2
Exact mass: 288.2089
SMILES: C[C@]12CC[C@H]3[C@@H](CCC4=CC(=O)CC[C@]34C)[C@@H]1CC[C@@H]2O
InChI: InChI=1S/C19H28O2/c1-18-9-7-13(20)11-12(18)3-4-14-15-5-6-17(21)19(15,2)10-8-16(14)18/h11,14-17,21H,3-10H2,1-2H3/t14-,15-,16-,17-,18-,19-/m0/s1
Instrument: LTQ Orbitrap XL Thermo Scientific
Instrument type: LC-ESI-ITFT
Ms type: MS2
Ion mode: POSITIVE
Ionization: ESI
Fragmentation mode: HCD
Collision energy: 90 % (nominal)
Resolution: 15000
Column name: Kinetex Evo C18 2.6 um 50 x 2.1 mm
Retention time: 11.320 min
Base peak: 289.2157
Precursor m/z: 311.1982
Precursor type: [M+Na]+
m/z	relative intensity	assigned
91.0538	845	C7H7+
95.0487	49	C6H7O+
95.0851	68	C7H11+
105.0331	151	C7H5O+
105.0694	469	C8H9+
107.0487	245	C7H7O+
107.0852	77	C8H11+
109.0643	999	C7H9O+
115.0537	215	C9H7+
116.0615	62	C9H8+
117.0694	264	C9H9+
123.08	36	C8H11O+
128.0615	228	C10H8+
129.0693	267	C10H9+
131.0849	176	C10H11+
133.1009	53	C10H13+
135.0799	43	C9H11O+
141.0693	185	C11H9+
142.0772	94	C11H10+
143.0852	97	C11H11+
144.0927	42	C11H12+
145.0643	41	C10H9O+
145.1006	54	C11H13+
154.077	64	C12H10+
155.085	120	C12H11+
157.0643	45	C11H9O+
157.1006	52	C12H13+
159.0803	40	C11H11O+
165.0694	101	C13H9+
166.0779	27	C13H10+
167.085	101	C13H11+
171.1167	27	C13H15+
183.1161	50	C14H15+
