Mass spectrum: Icaridin; LC-ESI-ITFT; MS2; CE: 30%; R=15000; [M+Na]+
Name: Icaridin
Name: butan-2-yl 2-(2-hydroxyethyl)piperidine-1-carboxylate
Formula: C12H23NO3
Exact mass: 229.1678
SMILES: CCC(C)OC(=O)N1CCCCC1CCO
InChI: InChI=1S/C12H23NO3/c1-3-10(2)16-12(15)13-8-5-4-6-11(13)7-9-14/h10-11,14H,3-9H2,1-2H3
Instrument: LTQ Orbitrap XL Thermo Scientific
Instrument type: LC-ESI-ITFT
Ms type: MS2
Ion mode: POSITIVE
Ionization: ESI
Fragmentation mode: HCD
Collision energy: 30 % (nominal)
Resolution: 15000
Column name: Kinetex Evo C18 2.6 um 50 x 2.1 mm
Retention time: 10.533 min
Base peak: 230.1753
Precursor m/z: 252.157
Precursor type: [M+Na]+
m/z	relative intensity	assigned
66.1381	2	C2H19Na+
152.1046	35	C7H15NNaO+
252.1563	999	C12H23NNaO3+
