Mass spectrum: Trifloxystrobin; LC-ESI-ITFT; MS2; CE: 70%; R=15000; [M+H]+
Name: Trifloxystrobin
Name: methyl (2E)-2-methoxyimino-2-[2-[[(E)-1-[3-(trifluoromethyl)phenyl]ethylideneamino]oxymethyl]phenyl]acetate
Formula: C20H19F3N2O4
Exact mass: 408.12969
SMILES: CO\N=C(\C(=O)OC)C1=C(CO\N=C(/C)C2=CC=CC(=C2)C(F)(F)F)C=CC=C1
InChI: InChI=1S/C20H19F3N2O4/c1-13(14-8-6-9-16(11-14)20(21,22)23)24-29-12-15-7-4-5-10-17(15)18(25-28-3)19(26)27-2/h4-11H,12H2,1-3H3/b24-13+,25-18+
Instrument: LTQ Orbitrap XL Thermo Scientific
Instrument type: LC-ESI-ITFT
Ms type: MS2
Ion mode: POSITIVE
Ionization: ESI
Fragmentation mode: HCD
Collision energy: 70% (nominal)
Resolution: 15000
Column name: Kinetex Evo C18 2.6 um 50 x 2.1 mm
Retention time: 13.200 min
Base peak: 409.1376
Precursor m/z: 409.137
Precursor type: [M+H]+
m/z	relative intensity	assigned
79.0542	7	C6H7+
89.0386	32	C7H5+
90.0464	18	C7H6+
91.0542	100	C7H7+
103.0542	8	C8H7+
104.062	6	C8H8+
105.0699	31	C8H9+
115.0419	7	C8H5N+
116.0495	355	C8H6N+
117.0573	125	C8H7N+
118.0651	107	C8H8N+
119.0492	24	C8H7O+
119.0605	5	C7H7N2+
123.0355	8	C6H4FN2+
128.0497	4	C9H6N+
130.0651	79	C9H8N+
131.0729	302	C9H9N+
132.0444	69	C8H6NO+
132.0808	57	C9H10N+
133.0521	6	C8H7NO+
134.0601	6	C8H8NO+
141.0026	4	C3H2F3NO2+
143.0366	25	C9H5NO+
145.026	999	C7H4F3+
146.06	90	C9H8NO+
147.0678	34	C9H9NO+
152.0626	3	C12H8+
161.0472	36	C9H7NO2+
163.0369	6	C7H6F3O+
173.0321	277	C7H4F3N2+
186.0525	434	C9H7F3N+
189.0424	4	C10H7NO3+
206.0805	5	C11H12NO3+
253	13	C14F3N2+
254.0031	22	C17HFNO+
254.9975	11	C13H2FNO4+
