Mass spectrum: Prosulfocarb; LC-ESI-ITFT; MS2; CE: 70%; R=15000; [M+H]+
Name: Prosulfocarb
Name: S-benzyl N,N-dipropylcarbamothioate
Formula: C14H21NOS
Exact mass: 251.1344
SMILES: CCCN(CCC)C(=O)SCC1=CC=CC=C1
InChI: InChI=1S/C14H21NOS/c1-3-10-15(11-4-2)14(16)17-12-13-8-6-5-7-9-13/h5-9H,3-4,10-12H2,1-2H3
Instrument: LTQ Orbitrap XL Thermo Scientific
Instrument type: LC-ESI-ITFT
Ms type: MS2
Ion mode: POSITIVE
Ionization: ESI
Fragmentation mode: HCD
Collision energy: 70% (nominal)
Resolution: 15000
Column name: Kinetex Evo C18 2.6 um 50 x 2.1 mm
Retention time: 13.128 min
Base peak: 252.1425
Precursor m/z: 252.1417
Precursor type: [M+H]+
m/z	relative intensity	assigned
65.0385	3	C5H5+
86.06	1	C4H8NO+
91.0542	999	C7H7+
