Mass spectrum: Cyprodinil; LC-ESI-ITFT; MS2; CE: 70%; R=15000; [M+H]+
Name: Cyprodinil
Name: 4-cyclopropyl-6-methyl-N-phenylpyrimidin-2-amine
Formula: C14H15N3
Exact mass: 225.12660
SMILES: CC1=NC(NC2=CC=CC=C2)=NC(=C1)C1CC1
InChI: InChI=1S/C14H15N3/c1-10-9-13(11-7-8-11)17-14(15-10)16-12-5-3-2-4-6-12/h2-6,9,11H,7-8H2,1H3,(H,15,16,17)
Instrument: LTQ Orbitrap XL Thermo Scientific
Instrument type: LC-ESI-ITFT
Ms type: MS2
Ion mode: POSITIVE
Ionization: ESI
Fragmentation mode: HCD
Collision energy: 70% (nominal)
Resolution: 15000
Column name: Kinetex Evo C18 2.6 um 50 x 2.1 mm
Retention time: 10.275 min
Base peak: 226.1345
Precursor m/z: 226.1339
Precursor type: [M+H]+
m/z	relative intensity	assigned
65.0384	8	C5H5+
67.0541	15	C5H7+
68.0493	7	C4H6N+
77.0385	6	C6H5+
79.0542	15	C6H7+
80.0494	10	C5H6N+
81.0698	15	C6H9+
82.0651	10	C5H8N+
83.0603	2	C4H7N2+
84.0807	5	C5H10N+
91.0542	45	C7H7+
92.0495	41	C6H6N+
92.0621	7	C7H8+
93.0573	101	C6H7N+
94.0652	10	C6H8N+
104.0495	4	C7H6N+
105.0446	4	C6H5N2+
106.0651	68	C7H8N+
107.0606	5	C6H7N2+
107.0728	3	C7H9N+
108.0682	14	C6H8N2+
108.0808	198	C7H10N+
109.076	12	C6H9N2+
109.0886	8	C7H11N+
116.0495	18	C8H6N+
117.0572	11	C8H7N+
118.0526	34	C7H6N2+
118.0651	25	C8H8N+
119.0604	72	C7H7N2+
123.0916	11	C7H11N2+
131.0604	15	C8H7N2+
132.0682	22	C8H8N2+
133.076	107	C8H9N2+
142.0651	10	C10H8N+
143.0604	26	C9H7N2+
144.0808	61	C10H10N+
145.0762	15	C9H9N2+
155.0606	1	C10H7N2+
157.0758	3	C10H9N2+
158.0965	3	C11H12N+
159.0917	25	C10H11N2+
167.0603	2	C11H7N2+
167.0731	9	C12H9N+
168.0687	3	C11H8N2+
168.0808	13	C12H10N+
169.0762	9	C11H9N2+
170.0837	4	C11H10N2+
171.0916	3	C11H11N2+
181.0759	2	C12H9N2+
182.0841	4	C12H10N2+
182.0967	4	C13H12N+
183.0793	2	C11H9N3+
183.0917	10	C12H11N2+
184.087	36	C11H10N3+
185.1073	33	C12H13N2+
192.0809	2	C14H10N+
193.0762	5	C13H9N2+
194.0839	26	C13H10N2+
197.0947	4	C12H11N3+
198.1022	10	C12H12N3+
199.1106	1	C12H13N3+
207.0915	8	C14H11N2+
208.0996	11	C14H12N2+
209.1073	49	C14H13N2+
210.1026	53	C13H12N3+
211.1106	17	C13H13N3+
224.1184	11	C14H14N3+
226.1338	999	C14H16N3+
