Mass spectrum: 4-Methylbenzylidene camphor; LC-ESI-ITFT; MS2; CE: 80%; R=15000; [M+H]+
Name: 4-Methylbenzylidene camphor
Name: 4,7,7-trimethyl-2-[(4-methylphenyl)methylidene]bicyclo[2.2.1]heptan-3-one
Formula: C18H22O
Exact mass: 254.16707
SMILES: CC1=CC=C(C=C2C3CCC(C)(C2=O)C3(C)C)C=C1
InChI: InChI=1S/C18H22O/c1-12-5-7-13(8-6-12)11-14-15-9-10-18(4,16(14)19)17(15,2)3/h5-8,11,15H,9-10H2,1-4H3
Instrument: LTQ Orbitrap XL Thermo Scientific
Instrument type: LC-ESI-ITFT
Ms type: MS2
Ion mode: POSITIVE
Ionization: ESI
Fragmentation mode: HCD
Collision energy: 80% (nominal)
Resolution: 15000
Column name: Kinetex Evo C18 2.6 um 50 x 2.1 mm
Retention time: 13.579 min
Base peak: 255.1745
Precursor m/z: 255.1743
Precursor type: [M+H]+
m/z	relative intensity	assigned
67.054	60	C5H7+
69.0332	42	C4H5O+
69.0696	89	C5H9+
71.049	13	C4H7O+
77.0385	26	C6H5+
79.054	100	C6H7+
81.0697	52	C6H9+
83.049	12	C5H7O+
83.0854	16	C6H11+
91.0541	219	C7H7+
92.062	15	C7H8+
93.0698	191	C7H9+
95.0491	15	C6H7O+
95.0854	55	C7H11+
97.0647	364	C6H9O+
103.0541	22	C8H7+
104.0616	5	C8H8+
105.0697	999	C8H9+
107.0489	10	C7H7O+
107.0853	82	C8H11+
108.0565	8	C7H8O+
109.0646	26	C7H9O+
109.101	31	C8H13+
111.0803	189	C7H11O+
115.0541	27	C9H7+
116.0618	20	C9H8+
117.0698	110	C9H9+
119.049	130	C8H7O+
119.0854	408	C9H11+
121.0646	39	C8H9O+
121.101	28	C9H13+
123.0803	35	C8H11O+
128.0619	85	C10H8+
129.0697	118	C10H9+
130.0775	97	C10H10+
131.0853	141	C10H11+
133.1012	14	C10H13+
135.0804	26	C9H11O+
135.1167	11	C10H15+
137.0961	15	C9H13O+
141.0697	68	C11H9+
142.0775	259	C11H10+
143.0853	267	C11H11+
144.0931	28	C11H12+
145.0651	12	C10H9O+
145.101	202	C11H13+
147.0801	11	C10H11O+
152.0617	10	C12H8+
153.0696	38	C12H9+
154.0776	38	C12H10+
155.0853	165	C12H11+
156.0932	269	C12H12+
157.101	216	C12H13+
158.0723	10	C11H10O+
159.0803	10	C11H11O+
159.1164	35	C12H15+
163.1116	10	C11H15O+
165.0697	169	C13H9+
166.0775	96	C13H10+
167.0853	76	C13H11+
168.0931	49	C13H12+
169.101	171	C13H13+
170.109	23	C13H14+
171.0802	75	C12H11O+
171.1166	169	C13H15+
172.0881	6	C12H12O+
173.0956	7	C12H13O+
178.0777	18	C14H10+
179.0854	152	C14H11+
180.0932	182	C14H12+
181.0645	9	C13H9O+
181.1009	60	C14H13+
182.0724	27	C13H10O+
182.1087	46	C14H14+
183.0801	19	C13H11O+
183.1166	84	C14H15+
184.088	22	C13H12O+
184.1242	7	C14H16+
185.096	84	C13H13O+
185.1324	8	C14H17+
186.1033	10	C13H14O+
192.0932	30	C15H12+
193.101	122	C15H13+
194.1088	77	C15H14+
195.1165	127	C15H15+
196.0881	41	C14H12O+
197.0959	230	C14H13O+
197.1323	19	C15H17+
198.104	17	C14H14O+
199.1113	34	C14H15O+
207.1166	105	C16H15+
208.1247	19	C16H16+
209.1319	14	C16H17+
211.1115	115	C15H15O+
212.1192	207	C15H16O+
213.1276	13	C15H17O+
222.141	13	C17H18+
225.1266	12	C16H17O+
226.1353	7	C16H18O+
227.1436	7	C16H19O+
240.1503	10	C17H20O+
