Mass spectrum: Chlorotoluron; LC-ESI-ITFT; MS2; CE: 80%; R=15000; [M+Na]+
Name: Chlorotoluron
Name: 3-(3-chloro-4-methylphenyl)-1,1-dimethylurea
Formula: C10H13ClN2O
Exact mass: 212.0716
SMILES: CN(C)C(=O)NC1=CC(Cl)=C(C)C=C1
InChI: InChI=1S/C10H13ClN2O/c1-7-4-5-8(6-9(7)11)12-10(14)13(2)3/h4-6H,1-3H3,(H,12,14)
Instrument: LTQ Orbitrap XL Thermo Scientific
Instrument type: LC-ESI-ITFT
Ms type: MS2
Ion mode: POSITIVE
Ionization: ESI
Fragmentation mode: HCD
Collision energy: 80% (nominal)
Resolution: 15000
Column name: Kinetex Evo C18 2.6 um 50 x 2.1 mm
Retention time: 9.538 min
Base peak: 213.0789
Precursor m/z: 235.0609
Precursor type: [M+Na]+
m/z	relative intensity	assigned
93.0699	331	C7H9+
119.0731	311	C8H9N+
120.0808	999	C8H10N+
146.0963	299	C10H12N+
