Mass spectrum: 4-Hydroxycoumarin; LC-ESI-ITFT; MS2; CE: 70%; R=15000; [M+H]+
Name: 4-Hydroxycoumarin
Name: 4-hydroxychromen-2-one
Formula: C9H6O3
Exact mass: 162.0317
SMILES: OC1=CC(=O)OC2=CC=CC=C12
InChI: InChI=1S/C9H6O3/c10-7-5-9(11)12-8-4-2-1-3-6(7)8/h1-5,10H
Instrument: LTQ Orbitrap XL Thermo Scientific
Instrument type: LC-ESI-ITFT
Ms type: MS2
Ion mode: POSITIVE
Ionization: ESI
Fragmentation mode: HCD
Collision energy: 70 % (nominal)
Resolution: 15000
Column name: Kinetex Evo C18 2.6 um 50 x 2.1 mm
Retention time: 7.999 min
Base peak: 163.0391
Precursor m/z: 163.039
Precursor type: [M+H]+
m/z	relative intensity	assigned
68.9968	138	C3HO2+
77.0383	18	C6H5+
79.054	20	C6H7+
89.0384	2	C7H5+
91.054	294	C7H7+
93.0333	36	C6H5O+
95.0489	167	C6H7O+
107.0489	13	C7H7O+
111.0438	4	C6H7O2+
119.049	49	C8H7O+
121.0281	999	C7H5O2+
139.0386	6	C7H7O3+
145.0281	4	C9H5O2+
163.0386	736	C9H7O3+
