Mass spectrum: Quinmerac; LC-ESI-ITFT; MS2; CE: 90%; R=15000; [M+Na]+
Name: Quinmerac
Name: 7-chloro-3-methylquinoline-8-carboxylic acid
Formula: C11H8ClNO2
Exact mass: 221.02436
SMILES: CC1=CC2=C(N=C1)C(C(O)=O)=C(Cl)C=C2
InChI: InChI=1S/C11H8ClNO2/c1-6-4-7-2-3-8(12)9(11(14)15)10(7)13-5-6/h2-5H,1H3,(H,14,15)
Instrument: LTQ Orbitrap XL Thermo Scientific
Instrument type: LC-ESI-ITFT
Ms type: MS2
Ion mode: POSITIVE
Ionization: ESI
Fragmentation mode: HCD
Collision energy: 90 % (nominal)
Resolution: 15000
Column name: Kinetex Evo C18 2.6 um 50 x 2.1 mm
Retention time: 6.255 min
Base peak: 222.0429
Precursor m/z: 244.0136
Precursor type: [M+Na]+
m/z	relative intensity	assigned
77.0385	260	C6H5+
79.0542	867	C6H7+
91.0543	553	C7H7+
103.0544	572	C8H7+
106.0652	999	C7H8N+
115.054	121	C9H7+
118.0652	434	C8H8N+
130.0653	135	C9H8N+
