Mass spectrum: Monensin; LC-ESI-ITFT; MS2; CE: 50%; R=15000; [M+Na]+
Name: Monensin
Name: Monensin A
Name: 4-[2-[5-ethyl-5-[5-[6-hydroxy-6-(hydroxymethyl)-3,5-dimethyloxan-2-yl]-3-methyloxolan-2-yl]oxolan-2-yl]-7-hydroxy-2,8-dimethyl-1,10-dioxaspiro[4.5]decan-9-yl]-3-methoxy-2-methylpentanoic acid
Formula: C36H62O11
Exact mass: 670.4292
SMILES: CCC1(CCC(O1)C1(C)CCC2(CC(O)C(C)C(O2)C(C)C(OC)C(C)C(O)=O)O1)C1OC(CC1C)C1OC(O)(CO)C(C)CC1C
InChI: InChI=1S/C36H62O11/c1-10-34(31-20(3)16-26(43-31)28-19(2)15-21(4)36(41,18-37)46-28)12-11-27(44-34)33(8)13-14-35(47-33)17-25(38)22(5)30(45-35)23(6)29(42-9)24(7)32(39)40/h19-31,37-38,41H,10-18H2,1-9H3,(H,39,40)
Instrument: LTQ Orbitrap XL Thermo Scientific
Instrument type: LC-ESI-ITFT
Ms type: MS2
Ion mode: POSITIVE
Ionization: ESI
Fragmentation mode: HCD
Collision energy: 50 % (nominal)
Resolution: 15000
Column name: Kinetex Evo C18 2.6 um 50 x 2.1 mm
Retention time: 14.851 min
Base peak: 693.4232
Precursor m/z: 693.4184
Precursor type: [M+Na]+
m/z	relative intensity	assigned
191.1044	15	C10H16NaO2+
197.0783	70	C8H14NaO4+
237.1095	53	C11H18NaO4+
303.1919	27	C17H28NaO3+
345.2024	17	C19H30NaO4+
361.2354	33	C20H34NaO4+
387.2499	48	C22H36NaO4+
389.2297	13	C21H34NaO5+
405.2609	15	C22H38NaO5+
443.2766	405	C25H40NaO5+
444.2797	131	C32H37Na+
445.2574	13	C26H37O6+
460.13	8	C28H21NaO5+
461.2872	999	C25H42NaO6+
462.2904	401	C32H39NaO+
479.2979	459	C25H44NaO7+
480.3011	236	C34H40O2+
483.308	217	C28H44NaO5+
484.3116	100	C35H41Na+
489.2829	28	C26H42NaO7+
501.3186	142	C28H46NaO6+
502.3217	95	C35H43NaO+
541.3504	32	C31H50NaO6+
559.3592	28	C31H52NaO7+
563.3715	46	C34H52NaO5+
564.3759	26	C34H53NaO5+
575.3592	17	C33H51O8+
581.3821	152	C34H54NaO6+
599.3932	88	C36H55O7+
617.4034	17	C34H58NaO8+
657.399	70	C36H58NaO9+
658.4035	42	C36H59NaO9+
675.41	147	C36H60NaO10+
676.4136	122	C36H61NaO10+
693.4205	72	C36H62NaO11+
