Mass spectrum: 4-Methylbenzylidene camphor; LC-ESI-ITFT; MS2; CE: 90%; R=15000; [M+H]+
Name: 4-Methylbenzylidene camphor
Name: 4,7,7-trimethyl-2-[(4-methylphenyl)methylidene]bicyclo[2.2.1]heptan-3-one
Formula: C18H22O
Exact mass: 254.16707
SMILES: CC1=CC=C(C=C2C3CCC(C)(C2=O)C3(C)C)C=C1
InChI: InChI=1S/C18H22O/c1-12-5-7-13(8-6-12)11-14-15-9-10-18(4,16(14)19)17(15,2)3/h5-8,11,15H,9-10H2,1-4H3
Instrument: LTQ Orbitrap XL Thermo Scientific
Instrument type: LC-ESI-ITFT
Ms type: MS2
Ion mode: POSITIVE
Ionization: ESI
Fragmentation mode: HCD
Collision energy: 90% (nominal)
Resolution: 15000
Column name: Kinetex Evo C18 2.6 um 50 x 2.1 mm
Retention time: 13.579 min
Base peak: 255.1745
Precursor m/z: 255.1743
Precursor type: [M+H]+
m/z	relative intensity	assigned
67.054	61	C5H7+
69.0333	37	C4H5O+
69.0697	84	C5H9+
71.049	7	C4H7O+
77.0384	48	C6H5+
79.0541	143	C6H7+
81.0698	45	C6H9+
83.049	10	C5H7O+
83.0855	11	C6H11+
91.0542	334	C7H7+
92.062	12	C7H8+
93.0698	176	C7H9+
95.0491	13	C6H7O+
95.0855	45	C7H11+
97.0647	248	C6H9O+
103.0542	53	C8H7+
104.0622	10	C8H8+
105.0698	999	C8H9+
107.0492	16	C7H7O+
107.0855	74	C8H11+
108.0568	9	C7H8O+
109.0647	20	C7H9O+
109.1011	18	C8H13+
111.0804	110	C7H11O+
115.0542	56	C9H7+
116.0619	38	C9H8+
117.0698	140	C9H9+
119.049	95	C8H7O+
119.0854	325	C9H11+
121.0647	31	C8H9O+
121.101	17	C9H13+
123.0804	22	C8H11O+
128.062	163	C10H8+
129.0698	150	C10H9+
130.0776	109	C10H10+
131.0855	106	C10H11+
133.1012	13	C10H13+
135.0802	21	C9H11O+
135.1165	6	C10H15+
137.0963	9	C9H13O+
141.0698	145	C11H9+
142.0776	316	C11H10+
143.0854	216	C11H11+
144.0933	19	C11H12+
145.0648	11	C10H9O+
145.101	125	C11H13+
147.0805	6	C10H11O+
152.0621	19	C12H8+
153.0699	66	C12H9+
154.0776	61	C12H10+
155.0854	169	C12H11+
156.0932	263	C12H12+
157.1011	130	C12H13+
158.0725	10	C11H10O+
159.0802	11	C11H11O+
159.1167	11	C12H15+
165.0698	254	C13H9+
166.0775	92	C13H10+
167.0854	96	C13H11+
168.0933	51	C13H12+
169.1011	157	C13H13+
170.1086	18	C13H14+
171.0803	47	C12H11O+
171.1167	69	C13H15+
172.0878	5	C12H12O+
178.0774	58	C14H10+
179.0854	221	C14H11+
180.0933	163	C14H12+
181.0645	20	C13H9O+
181.1011	60	C14H13+
182.0725	66	C13H10O+
182.1089	24	C14H14+
183.08	25	C13H11O+
183.1168	45	C14H15+
184.0882	12	C13H12O+
185.096	44	C13H13O+
192.0934	62	C15H12+
193.101	119	C15H13+
194.1088	48	C15H14+
195.1166	67	C15H15+
196.0883	65	C14H12O+
197.096	197	C14H13O+
198.1043	11	C14H14O+
199.1119	10	C14H15O+
207.1167	81	C16H15+
209.1329	8	C16H17+
211.1116	98	C15H15O+
212.1195	71	C15H16O+
222.1395	8	C17H18+
225.1269	13	C16H17O+
