Mass spectrum: Trenbolone; LC-ESI-ITFT; MS2; CE: 50%; R=15000; [M+H]+
Name: Trenbolone
Name: (13S,17S)-17-hydroxy-13-methyl-2,6,7,8,14,15,16,17-octahydro-1H-cyclopenta[a]phenanthren-3-one
Formula: C18H22O2
Exact mass: 270.1620
SMILES: C[C@]12C=CC3=C4CCC(=O)C=C4CCC3C1CC[C@@H]2O
InChI: InChI=1S/C18H22O2/c1-18-9-8-14-13-5-3-12(19)10-11(13)2-4-15(14)16(18)6-7-17(18)20/h8-10,15-17,20H,2-7H2,1H3/t15?,16?,17-,18-/m0/s1
Instrument: LTQ Orbitrap XL Thermo Scientific
Instrument type: LC-ESI-ITFT
Ms type: MS2
Ion mode: POSITIVE
Ionization: ESI
Fragmentation mode: HCD
Collision energy: 50 % (nominal)
Resolution: 15000
Column name: Kinetex Evo C18 2.6 um 50 x 2.1 mm
Retention time: 10.772 min
Base peak: 271.1695
Precursor m/z: 271.1693
Precursor type: [M+H]+
m/z	relative intensity	assigned
67.0539	5	C5H7+
79.054	8	C6H7+
81.0698	8	C6H9+
83.049	43	C5H7O+
85.0645	2	C5H9O+
91.0541	4	C7H7+
93.0697	11	C7H9+
95.0854	10	C7H11+
97.0648	3	C6H9O+
105.0698	12	C8H9+
107.0489	23	C7H7O+
107.0854	20	C8H11+
109.0646	7	C7H9O+
109.1011	2	C8H13+
111.0802	2	C7H11O+
117.0696	5	C9H9+
119.0855	7	C9H11+
121.0645	15	C8H9O+
121.1008	2	C9H13+
125.0956	2	C8H13O+
129.0695	7	C10H9+
131.0854	11	C10H11+
133.0646	39	C9H9O+
133.101	12	C10H13+
135.0803	12	C9H11O+
141.0696	8	C11H9+
143.0853	20	C11H11+
145.0646	12	C10H9O+
145.101	31	C11H13+
147.0801	16	C10H11O+
148.088	8	C10H12O+
149.0958	7	C10H13O+
155.0853	11	C12H11+
157.0645	23	C11H9O+
157.1012	10	C12H13+
159.0802	63	C11H11O+
159.1168	6	C12H15+
161.096	14	C11H13O+
163.1125	2	C11H15O+
165.0699	2	C13H9+
167.0854	9	C13H11+
169.101	21	C13H13+
171.0802	10	C12H11O+
171.1166	22	C13H15+
173.0957	14	C12H13O+
175.1115	2	C12H15O+
178.0775	1	C14H10+
179.0853	16	C14H11+
181.101	11	C14H13+
183.0802	15	C13H11O+
183.1166	23	C14H15+
184.0883	7	C13H12O+
185.0958	24	C13H13O+
185.1319	2	C14H17+
186.1036	6	C13H14O+
187.1115	23	C13H15O+
189.127	20	C13H17O+
193.1009	20	C15H13+
194.1086	2	C15H14+
195.1166	25	C15H15+
196.0875	2	C14H12O+
197.0959	58	C14H13O+
197.1324	10	C15H17+
198.1036	28	C14H14O+
199.1114	277	C14H15O+
200.1194	11	C14H16O+
201.1275	4	C14H17O+
205.1007	3	C16H13+
206.1088	3	C16H14+
207.1166	11	C16H15+
209.1322	22	C16H17+
210.103	4	C15H14O+
211.1114	52	C15H15O+
211.1479	19	C16H19+
212.1192	20	C15H16O+
213.1271	12	C15H17O+
214.1348	48	C15H18O+
215.1429	11	C15H19O+
220.1243	7	C17H16+
223.1477	3	C17H19+
224.1192	13	C16H16O+
225.127	52	C16H17O+
225.1638	8	C17H21+
227.1427	106	C16H19O+
228.1508	4	C16H20O+
235.1478	36	C18H19+
238.1352	22	C17H18O+
242.13	6	C16H18O2+
243.1746	8	C17H23O+
251.1431	3	C18H19O+
253.1584	398	C18H21O+
271.1689	999	C18H23O2+
