Mass spectrum: Celestolide; LC-ESI-ITFT; MS2; CE: 90%; R=15000; [M+H]+
Name: Celestolide
Name: 4-Acetyl-6-tert-butyl-1,1-dimethylindane
Name: 1-(6-tert-butyl-1,1-dimethyl-2,3-dihydroinden-4-yl)ethanone
Formula: C17H24O
Exact mass: 244.18272
SMILES: CC(=O)C1=C2CCC(C)(C)C2=CC(=C1)C(C)(C)C
InChI: InChI=1S/C17H24O/c1-11(18)14-9-12(16(2,3)4)10-15-13(14)7-8-17(15,5)6/h9-10H,7-8H2,1-6H3
Instrument: LTQ Orbitrap XL Thermo Scientific
Instrument type: LC-ESI-ITFT
Ms type: MS2
Ion mode: POSITIVE
Ionization: ESI
Fragmentation mode: HCD
Collision energy: 90% (nominal)
Resolution: 15000
Column name: Kinetex Evo C18 2.6 um 50 x 2.1 mm
Retention time: 13.829 min
Base peak: 245.1905
Precursor m/z: 245.19
Precursor type: [M+H]+
m/z	relative intensity	assigned
91.0541	135	C7H7+
93.0698	44	C7H9+
105.0697	480	C8H9+
107.0854	54	C8H11+
119.0853	999	C9H11+
129.0696	158	C10H9+
131.0852	204	C10H11+
132.0934	80	C10H12+
133.0646	110	C9H9O+
133.1009	174	C10H13+
142.0773	31	C11H10+
143.0851	85	C11H11+
145.1012	40	C11H13+
147.0802	466	C10H11O+
147.1162	73	C11H15+
159.08	52	C11H11O+
160.0883	38	C11H12O+
175.1114	393	C12H15O+
189.1273	67	C13H17O+
