Mass spectrum: 2-Morpholinothiobenzothiazole; LC-ESI-ITFT; MS2; CE: 90%; R=15000; [M+H]+
Name: 2-Morpholinothiobenzothiazole
Name: Morpholinylmercaptobenzothiazole
Name: 4-(1,3-benzothiazol-2-ylsulfanyl)morpholine
Formula: C11H12N2OS2
Exact mass: 252.03911
SMILES: C1CN(CCO1)SC1=NC2=CC=CC=C2S1
InChI: InChI=1S/C11H12N2OS2/c1-2-4-10-9(3-1)12-11(15-10)16-13-5-7-14-8-6-13/h1-4H,5-8H2
Instrument: LTQ Orbitrap XL Thermo Scientific
Instrument type: LC-ESI-ITFT
Ms type: MS2
Ion mode: POSITIVE
Ionization: ESI
Fragmentation mode: HCD
Collision energy: 90% (nominal)
Resolution: 15000
Column name: Kinetex Evo C18 2.6 um 50 x 2.1 mm
Retention time: 11.187 min
Base peak: 309.1128
Precursor m/z: 253.0464
Precursor type: [M+H]+
m/z	relative intensity	assigned
56.0492	613	C3H6N+
57.057	481	C3H7N+
58.0648	135	C3H8N+
68.0493	5	C4H6N+
86.06	999	C4H8NO+
87.0678	173	C4H9NO+
90.0339	7	C6H4N+
92.0494	6	C6H6N+
108.0028	105	C6H4S+
109.0107	15	C6H5S+
110.0184	3	C6H6S+
118.0321	5	C4H8NOS+
122.0059	82	C6H4NS+
124.0215	14	C6H6NS+
132.9978	6	C7H3NS+
135.0137	30	C7H5NS+
136.0216	59	C7H6NS+
138.967	21	C6H3S2+
149.0296	3	C8H7NS+
162.0375	14	C9H8NS+
163.0324	11	C8H7N2S+
163.0452	6	C9H9NS+
165.9779	191	C7H4NS2+
166.9858	56	C7H5NS2+
167.9935	47	C7H6NS2+
175.0322	5	C9H7N2S+
