Mass spectrum: Octyl-methoxycinnamate; LC-ESI-ITFT; MS2; CE: 20%; R=15000; [M+H]+
Name: Octyl-methoxycinnamate
Name: 2-ethylhexyl (E)-3-(4-methoxyphenyl)prop-2-enoate
Formula: C18H26O3
Exact mass: 290.18819
SMILES: CCCCC(CC)COC(=O)\C=C\C1=CC=C(OC)C=C1
InChI: InChI=1S/C18H26O3/c1-4-6-7-15(5-2)14-21-18(19)13-10-16-8-11-17(20-3)12-9-16/h8-13,15H,4-7,14H2,1-3H3/b13-10+
Instrument: LTQ Orbitrap XL Thermo Scientific
Instrument type: LC-ESI-ITFT
Ms type: MS2
Ion mode: POSITIVE
Ionization: ESI
Fragmentation mode: HCD
Collision energy: 20 % (nominal)
Resolution: 15000
Column name: Kinetex Evo C18 2.6 um 50 x 2.1 mm
Retention time: 14.675 min
Base peak: 116.9861
Precursor m/z: 291.1955
Precursor type: [M+H]+
m/z	relative intensity	assigned
291.1959	999	C18H27O3+
