Mass spectrum: Azinphos methyl; LC-ESI-ITFT; MS2; CE: 90%; R=15000; [M+Na]+
Name: Azinphos methyl
Name: Azinphos-methyl
Name: 3-(dimethoxyphosphinothioylsulfanylmethyl)-1,2,3-benzotriazin-4-one
Formula: C10H12N3O3PS2
Exact mass: 317.0058
SMILES: COP(=S)(OC)SCN1N=NC2=CC=CC=C2C1=O
InChI: InChI=1S/C10H12N3O3PS2/c1-15-17(18,16-2)19-7-13-10(14)8-5-3-4-6-9(8)11-12-13/h3-6H,7H2,1-2H3
Instrument: LTQ Orbitrap XL Thermo Scientific
Instrument type: LC-ESI-ITFT
Ms type: MS2
Ion mode: POSITIVE
Ionization: ESI
Fragmentation mode: HCD
Collision energy: 90% (nominal)
Resolution: 15000
Column name: Kinetex Evo C18 2.6 um 50 x 2.1 mm
Retention time: 10.667 min
Base peak: 339.9957
Precursor m/z: 339.995
Precursor type: [M+Na]+
m/z	relative intensity	assigned
75.0229	10	C6H3+
77.0385	999	C6H5+
78.0337	5	C5H4N+
92.0257	5	C6H4O+
94.0414	12	C6H6O+
95.0492	195	C6H7O+
96.0445	6	C5H6NO+
102.034	29	C7H4N+
105.0448	761	C6H5N2+
106.0417	5	C3H9NOP+
106.0478	3	CH9NNaO3+
120.0444	5	C7H6NO+
124.9821	3	C2H6O2PS+
130.0402	139	C7H4N3+
132.0445	51	C8H6NO+
