Mass spectrum: 2-Aminopyridine; LC-ESI-ITFT; MS2; CE: 90%; R=15000; [M]+
Name: 2-Aminopyridine
Name: pyridin-2-amine
Formula: C5H6N2
Exact mass: 94.0531
SMILES: NC1=NC=CC=C1
InChI: InChI=1S/C5H6N2/c6-5-3-1-2-4-7-5/h1-4H,(H2,6,7)
Instrument: LTQ Orbitrap XL Thermo Scientific
Instrument type: LC-ESI-ITFT
Ms type: MS2
Ion mode: POSITIVE
Ionization: ESI
Fragmentation mode: HCD
Collision energy: 90 % (nominal)
Resolution: 15000
Column name: Kinetex Evo C18 2.6 um 50 x 2.1 mm
Retention time: 0.547 min
Base peak: 94.0652
Precursor m/z: 94.0525
Precursor type: [M]+
m/z	relative intensity	assigned
53.0384	999	C4H5+
65.0383	527	C5H5+
