Mass spectrum: Acetyl-sulfamethoxazole; LC-ESI-ITFT; MS2; CE: 60%; R=15000; [M+H]+
Name: Acetyl-sulfamethoxazole
Name: Acetylsulfamethoxazole
Name: N-[4-[(5-methyl-1,2-oxazol-3-yl)sulfamoyl]phenyl]acetamide
Formula: C12H13N3O4S
Exact mass: 295.06268
SMILES: CC(=O)NC1=CC=C(C=C1)S(=O)(=O)NC1=NOC(C)=C1
InChI: InChI=1S/C12H13N3O4S/c1-8-7-12(14-19-8)15-20(17,18)11-5-3-10(4-6-11)13-9(2)16/h3-7H,1-2H3,(H,13,16)(H,14,15)
Instrument: LTQ Orbitrap XL Thermo Scientific
Instrument type: LC-ESI-ITFT
Ms type: MS2
Ion mode: POSITIVE
Ionization: ESI
Fragmentation mode: HCD
Collision energy: 60 % (nominal)
Resolution: 15000
Column name: Kinetex Evo C18 2.6 um 50 x 2.1 mm
Retention time: 7.573 min
Base peak: 296.0711
Precursor m/z: 296.07
Precursor type: [M+H]+
m/z	relative intensity	assigned
65.0385	339	C5H5+
92.0497	103	C6H6N+
93.0337	126	C6H5O+
93.0575	133	C6H7N+
94.0653	49	C6H8N+
97.0399	2	C4H5N2O+
98.0477	5	C4H6N2O+
99.0555	84	C4H7N2O+
106.0653	21	C7H8N+
107.0606	12	C6H7N2+
108.0446	397	C6H6NO+
110.0603	10	C6H8NO+
131.0604	6	C8H7N2+
132.0682	7	C8H8N2+
134.0603	999	C8H8NO+
135.0678	7	C8H9NO+
136.0759	64	C8H10NO+
140.0167	3	C6H6NOS+
146.0716	79	C8H8N3+
147.0793	66	C8H9N3+
148.0872	14	C8H10N3+
150.0553	13	C8H8NO2+
152.0708	5	C8H10NO2+
156.0117	64	C6H6NO2S+
156.995	2	C6H5O3S+
160.0872	139	C9H10N3+
161.0016	13	C4H5N2O3S+
161.0713	5	C9H9N2O+
162.0665	74	C8H8N3O+
170.0717	2	C4H14N2O3S+
176.028	22	C8H6N3S+
188.0823	21	C10H10N3O+
189.0898	7	C10H11N3O+
190.0983	7	C10H12N3O+
194.0385	15	C8H8N3OS+
198.0223	50	C8H8NO3S+
201.0665	14	C11H9N2O2+
