Mass spectrum: Lauryl diethanolamide; LC-ESI-ITFT; MS2; CE: 60%; R=15000; [M+H]+
Name: Lauryl diethanolamide
Name: N,N-bis(2-hydroxyethyl)dodecanamide
Formula: C16H33NO3
Exact mass: 287.2460
SMILES: CCCCCCCCCCCC(=O)N(CCO)CCO
InChI: InChI=1S/C16H33NO3/c1-2-3-4-5-6-7-8-9-10-11-16(20)17(12-14-18)13-15-19/h18-19H,2-15H2,1H3
Instrument: LTQ Orbitrap XL Thermo Scientific
Instrument type: LC-ESI-ITFT
Ms type: MS2
Ion mode: POSITIVE
Ionization: ESI
Fragmentation mode: HCD
Collision energy: 60% (nominal)
Resolution: 15000
Column name: Kinetex Evo C18 2.6 um 50 x 2.1 mm
Retention time: 12.827 min
Base peak: 288.2538
Precursor m/z: 288.2533
Precursor type: [M+H]+
m/z	relative intensity	assigned
67.054	18	C5H7+
69.0696	6	C5H9+
70.0649	258	C4H8N+
71.0853	72	C5H11+
73.0281	5	C3H5O2+
81.0698	24	C6H9+
83.0854	12	C6H11+
85.1011	28	C6H13+
88.0756	822	C4H10NO+
95.0854	66	C7H11+
97.1011	8	C7H13+
106.0861	999	C4H12NO2+
109.101	27	C8H13+
123.1166	4	C9H15+
135.0223	4	C11H3+
226.2162	12	C14H28NO+
227.2003	175	C14H27O2+
270.2424	39	C16H32NO2+
