Mass spectrum: Methyltriphenylphosphonium; LC-ESI-ITFT; MS2; CE: 90%; R=15000; [M]+
Name: Methyltriphenylphosphonium
Name: Triphenylmethylphosphonium
Name: methyl(triphenyl)phosphanium
Formula: C19H18P
Exact mass: 277.1146
SMILES: C[P+](C1=CC=CC=C1)(C1=CC=CC=C1)C1=CC=CC=C1
InChI: InChI=1S/C19H18P/c1-20(17-11-5-2-6-12-17,18-13-7-3-8-14-18)19-15-9-4-10-16-19/h2-16H,1H3/q+1
Instrument: LTQ Orbitrap XL Thermo Scientific
Instrument type: LC-ESI-ITFT
Ms type: MS2
Ion mode: POSITIVE
Ionization: ESI
Fragmentation mode: HCD
Collision energy: 90% (nominal)
Resolution: 15000
Column name: Kinetex Evo C18 2.6 um 50 x 2.1 mm
Retention time: 7.138 min
Base peak: 277.1148
Precursor m/z: 277.1141
Precursor type: [M]+
m/z	relative intensity	assigned
79.0543	32	C6H7+
91.0543	19	C7H7+
107.0047	64	C6H4P+
108.0124	549	C6H5P+
121.0203	20	C7H6P+
123.036	7	C7H8P+
141.0701	11	C11H9+
152.0622	29	C12H8+
154.0779	19	C12H10+
183.036	999	C12H8P+
185.0515	430	C12H10P+
199.0672	75	C13H12P+
200.0752	27	C13H13P+
230.1089	2	C18H14+
261.0828	304	C18H14P+
262.0916	74	C18H15P+
277.1141	253	C19H18P+
