Mass spectrum: Triethylphosphate; LC-ESI-ITFT; MS2; CE: 30%; R=15000; [M+H]+
Name: Triethylphosphate
Name: triethyl phosphate
Formula: C6H15O4P
Exact mass: NA
SMILES: CCOP(=O)(OCC)OCC
InChI: InChI=1S/C6H15O4P/c1-4-8-11(7,9-5-2)10-6-3/h4-6H2,1-3H3
Instrument: LTQ Orbitrap XL Thermo Scientific
Instrument type: LC-ESI-ITFT
Ms type: MS2
Ion mode: POSITIVE
Ionization: ESI
Fragmentation mode: HCD
Collision energy: 30% (nominal)
Resolution: 15000
Column name: Kinetex Evo C18 2.6 um 50 x 2.1 mm
Retention time: 7.588 min
Base peak: 183.0787
Precursor m/z: 183.0781
Precursor type: [M+H]+
m/z	relative intensity	assigned
98.9842	999	H4O4P+
127.0156	611	C2H8O4P+
155.0469	400	C4H12O4P+
183.0783	136	C6H16O4P+
