Mass spectrum: Benzyldimethyldodecylammonium; LC-ESI-ITFT; MS2; CE: 90%; R=15000; [M]+
Name: Benzyldimethyldodecylammonium
Name: Benzododecinium
Name: benzyl-dodecyl-dimethylazanium
Formula: C21H38N
Exact mass: 304.3004
SMILES: CCCCCCCCCCCC[N+](C)(C)CC1=CC=CC=C1
InChI: InChI=1S/C21H38N/c1-4-5-6-7-8-9-10-11-12-16-19-22(2,3)20-21-17-14-13-15-18-21/h13-15,17-18H,4-12,16,19-20H2,1-3H3/q+1
Instrument: LTQ Orbitrap XL Thermo Scientific
Instrument type: LC-ESI-ITFT
Ms type: MS2
Ion mode: POSITIVE
Ionization: ESI
Fragmentation mode: HCD
Collision energy: 90 % (nominal)
Resolution: 15000
Column name: Kinetex Evo C18 2.6 um 50 x 2.1 mm
Retention time: 11.189 min
Base peak: 304.3
Precursor m/z: 304.2999
Precursor type: [M]+
m/z	relative intensity	assigned
57.0698	11	C4H9+
58.065	176	C3H8N+
65.0385	8	C5H5+
69.0697	1	C5H9+
71.0729	2	C4H9N+
71.0855	2	C5H11+
72.0808	6	C4H10N+
91.0542	999	C7H7+
212.237	11	C14H30N+
