Mass spectrum: Dodemorph; LC-ESI-ITFT; MS2; CE: 40%; R=15000; [M+Na]+
Name: Dodemorph
Name: 4-cyclododecyl-2,6-dimethylmorpholine
Formula: C18H35NO
Exact mass: 281.2719
SMILES: CC1CN(CC(C)O1)C1CCCCCCCCCCC1
InChI: InChI=1S/C18H35NO/c1-16-14-19(15-17(2)20-16)18-12-10-8-6-4-3-5-7-9-11-13-18/h16-18H,3-15H2,1-2H3
Instrument: LTQ Orbitrap XL Thermo Scientific
Instrument type: LC-ESI-ITFT
Ms type: MS2
Ion mode: POSITIVE
Ionization: ESI
Fragmentation mode: HCD
Collision energy: 40% (nominal)
Resolution: 15000
Column name: Kinetex Evo C18 2.6 um 50 x 2.1 mm
Retention time: 9.321 min
Base peak: 304.2633
Precursor m/z: 304.2611
Precursor type: [M+Na]+
m/z	relative intensity	assigned
98.0964	9	C6H12N+
116.1071	38	C6H14NO+
130.1227	41	C7H16NO+
147.1169	61	C11H15+
189.1637	12	C14H21+
304.2625	999	C18H35NNaO+
