Mass spectrum: Hexazinone; LC-ESI-ITFT; MS2; CE: 30%; R=15000; [M+Na]+
Name: Hexazinone
Name: 3-cyclohexyl-6-(dimethylamino)-1-methyl-1,3,5-triazine-2,4-dione
Formula: C12H20N4O2
Exact mass: 252.1586
SMILES: CN(C)C1=NC(=O)N(C2CCCCC2)C(=O)N1C
InChI: InChI=1S/C12H20N4O2/c1-14(2)10-13-11(17)16(12(18)15(10)3)9-7-5-4-6-8-9/h9H,4-8H2,1-3H3
Instrument: LTQ Orbitrap XL Thermo Scientific
Instrument type: LC-ESI-ITFT
Ms type: MS2
Ion mode: POSITIVE
Ionization: ESI
Fragmentation mode: HCD
Collision energy: 30 % (nominal)
Resolution: 15000
Column name: Kinetex Evo C18 2.6 um 50 x 2.1 mm
Retention time: 8.840 min
Base peak: 253.1659
Precursor m/z: 275.1478
Precursor type: [M+Na]+
m/z	relative intensity	assigned
193.07	63	C6H10N4NaO2+
275.1479	999	C12H20N4NaO2+
