Mass spectrum: Metconazole; LC-ESI-ITFT; MS2; CE: 90%; R=15000; [M+Na]+
Name: Metconazole
Name: 5-[(4-chlorophenyl)methyl]-2,2-dimethyl-1-(1,2,4-triazol-1-ylmethyl)cyclopentan-1-ol
Formula: C17H22ClN3O
Exact mass: NA
SMILES: CC1(C)CCC(CC2=CC=C(Cl)C=C2)C1(O)CN1C=NC=N1
InChI: InChI=1S/C17H22ClN3O/c1-16(2)8-7-14(9-13-3-5-15(18)6-4-13)17(16,22)10-21-12-19-11-20-21/h3-6,11-12,14,22H,7-10H2,1-2H3
Instrument: LTQ Orbitrap XL Thermo Scientific
Instrument type: LC-ESI-ITFT
Ms type: MS2
Ion mode: POSITIVE
Ionization: ESI
Fragmentation mode: HCD
Collision energy: 90 % (nominal)
Resolution: 15000
Column name: Kinetex Evo C18 2.6 um 50 x 2.1 mm
Retention time: 12.379 min
Base peak: 342.0778
Precursor m/z: 342.1344
Precursor type: [M+Na]+
m/z	relative intensity	assigned
98.9994	143	C5H4Cl+
122.9994	999	C7H4Cl+
124.0073	351	C7H5Cl+
139.0058	94	C6H4ClN2+
152.0022	60	C8H5ClO+
169.0065	20	C14H+
172.9663	558	C9ClNO+
190.9655	33	C11HClNa+
