Mass spectrum: Testosterone; LC-ESI-ITFT; MS2; CE: 60%; R=15000; [M+Na]+
Name: Testosterone
Name: (8R,9S,10R,13S,14S,17S)-17-hydroxy-10,13-dimethyl-1,2,6,7,8,9,11,12,14,15,16,17-dodecahydrocyclopenta[a]phenanthren-3-one
Formula: C19H28O2
Exact mass: 288.2089
SMILES: C[C@]12CC[C@H]3[C@@H](CCC4=CC(=O)CC[C@]34C)[C@@H]1CC[C@@H]2O
InChI: InChI=1S/C19H28O2/c1-18-9-7-13(20)11-12(18)3-4-14-15-5-6-17(21)19(15,2)10-8-16(14)18/h11,14-17,21H,3-10H2,1-2H3/t14-,15-,16-,17-,18-,19-/m0/s1
Instrument: LTQ Orbitrap XL Thermo Scientific
Instrument type: LC-ESI-ITFT
Ms type: MS2
Ion mode: POSITIVE
Ionization: ESI
Fragmentation mode: HCD
Collision energy: 60% (nominal)
Resolution: 15000
Column name: Kinetex Evo C18 2.6 um 50 x 2.1 mm
Retention time: 11.298 min
Base peak: 311.1998
Precursor m/z: 311.1982
Precursor type: [M+Na]+
m/z	relative intensity	assigned
79.054	153	C6H7+
81.0333	302	C5H5O+
81.0696	126	C6H9+
83.0489	300	C5H7O+
91.0541	209	C7H7+
93.0697	172	C7H9+
95.0489	41	C6H7O+
95.0853	99	C7H11+
97.0648	22	C6H9O+
103.0543	25	C8H7+
105.0334	87	C7H5O+
105.0698	225	C8H9+
107.049	165	C7H7O+
107.0854	105	C8H11+
109.0647	999	C7H9O+
109.1012	57	C8H13+
115.0543	16	C9H7+
117.0697	144	C9H9+
119.0497	17	C8H7O+
119.0854	183	C9H11+
121.0646	62	C8H9O+
121.1011	72	C9H13+
123.0803	58	C8H11O+
128.0617	24	C10H8+
129.0697	141	C10H9+
131.0488	25	C9H7O+
131.0854	163	C10H11+
133.0646	135	C9H9O+
133.1011	101	C10H13+
135.0804	121	C9H11O+
135.1166	18	C10H15+
141.0699	70	C11H9+
142.0776	23	C11H10+
143.0855	133	C11H11+
145.0643	26	C10H9O+
145.1012	135	C11H13+
147.0804	99	C10H11O+
147.1166	50	C11H15+
149.0961	95	C10H13O+
153.0698	23	C12H9+
154.0774	21	C12H10+
155.0853	104	C12H11+
156.0934	19	C12H12+
157.0642	17	C11H9O+
157.101	92	C12H13+
159.0802	69	C11H11O+
159.1166	56	C12H15+
161.096	62	C11H13O+
161.1322	26	C12H17+
163.1119	35	C11H15O+
165.0698	18	C13H9+
167.0854	42	C13H11+
168.0929	24	C13H12+
169.1006	47	C13H13+
171.1164	76	C13H15+
173.0957	37	C12H13O+
173.1322	42	C13H17+
175.112	27	C12H15O+
179.0856	23	C14H11+
181.101	49	C14H13+
183.1164	56	C14H15+
195.117	30	C15H15+
199.1477	21	C15H19+
201.1269	88	C14H17O+
