Mass spectrum: Chloridazon; LC-ESI-ITFT; MS2; CE: 70%; R=15000; [M+H]+
Name: Chloridazon
Name: 5-amino-4-chloro-2-phenylpyridazin-3-one
Formula: C10H8ClN3O
Exact mass: NA
SMILES: NC1=C(Cl)C(=O)N(N=C1)C1=CC=CC=C1
InChI: InChI=1S/C10H8ClN3O/c11-9-8(12)6-13-14(10(9)15)7-4-2-1-3-5-7/h1-6H,12H2
Instrument: LTQ Orbitrap XL Thermo Scientific
Instrument type: LC-ESI-ITFT
Ms type: MS2
Ion mode: POSITIVE
Ionization: ESI
Fragmentation mode: HCD
Collision energy: 70 % (nominal)
Resolution: 15000
Column name: Kinetex Evo C18 2.6 um 50 x 2.1 mm
Retention time: 6.338 min
Base peak: 222.0432
Precursor m/z: 222.0429
Precursor type: [M+H]+
m/z	relative intensity	assigned
63.9946	21	C4O+
65.0383	108	C5H5+
67.0288	11	C3H3N2+
75.9947	20	C2H3ClN+
77.0384	306	C6H5+
83.0238	37	C3H3N2O+
87.9947	64	C3H3ClN+
92.0494	963	C6H6N+
93.0571	59	C6H7N+
94.065	242	C6H8N+
95.049	64	C6H7O+
100.99	68	C3H2ClN2+
101.974	19	C3HClNO+
103.054	7	C8H7+
104.0493	999	C7H6N+
105.0445	135	C6H5N2+
106.0647	2	C7H8N+
116.0491	7	C8H6N+
116.9975	12	C4H4ClNO+
117.0569	4	C8H7N+
119.0005	11	C3H4ClN2O+
119.0603	24	C7H7N2+
120.0442	12	C7H6NO+
125.015	3	C7H6Cl+
128.9848	267	C4H2ClN2O+
130.0649	37	C9H8N+
131.0602	26	C8H7N2+
132.0442	25	C8H6NO+
132.0681	5	C8H8N2+
141.0446	4	C9H5N2+
141.058	3	C10H7N+
142.0525	11	C9H6N2+
143.0606	6	C9H7N2+
146.0114	211	C4H5ClN3O+
149.0151	29	C9H6Cl+
150.0104	29	C8H5ClN+
158.0602	10	C10H8NO+
158.0712	8	C9H8N3+
159.0552	34	C9H7N2O+
159.0679	3	C10H9NO+
159.0788	5	C9H9N3+
160.063	6	C9H8N2O+
169.0399	5	C10H5N2O+
176.0262	8	C10H7ClN+
177.0212	16	C9H6ClN2+
178.0054	11	C9H5ClNO+
179.0365	3	C9H8ClN2+
186.0659	47	C10H8N3O+
187.074	5	C10H9N3O+
193.0286	102	C10H8ClNO+
195.032	11	C9H8ClN2O+
205.0159	23	C10H6ClN2O+
222.0426	993	C10H9ClN3O+
