Mass spectrum: Ifosfamide; LC-ESI-ITFT; MS2; CE: 70%; R=15000; [M+Na]+
Name: Ifosfamide
Name: N,3-bis(2-chloroethyl)-2-oxo-1,3,2lambda5-oxazaphosphinan-2-amine
Formula: C7H15Cl2N2O2P
Exact mass: NA
SMILES: ClCCNP1(=O)OCCCN1CCCl
InChI: InChI=1S/C7H15Cl2N2O2P/c8-2-4-10-14(12)11(6-3-9)5-1-7-13-14/h1-7H2,(H,10,12)
Instrument: LTQ Orbitrap XL Thermo Scientific
Instrument type: LC-ESI-ITFT
Ms type: MS2
Ion mode: POSITIVE
Ionization: ESI
Fragmentation mode: HCD
Collision energy: 70% (nominal)
Resolution: 15000
Column name: Kinetex Evo C18 2.6 um 50 x 2.1 mm
Retention time: 7.107 min
Base peak: 261.0325
Precursor m/z: 283.014
Precursor type: [M+Na]+
m/z	relative intensity	assigned
56.0492	89	C3H6N+
58.0649	18	C3H8N+
82.0653	12	CH11N2P+
84.0808	97	C5H10N+
92.0263	432	C3H7ClN+
106.0055	39	C3H5ClNO+
120.0211	277	C4H7ClNO+
120.058	24	CH14ClN2P+
124.016	53	C3H6N2NaP+
138.0317	634	C4H8N2NaP+
153.9821	46	C4H6Cl2NO+
161.0477	101	C6H10ClN2O+
189.079	18	C7H14N2O2P+
197.0241	999	C5H11ClN2O2P+
225.0555	61	C7H15ClN2O2P+
