Mass spectrum: Norgestimate; LC-ESI-ITFT; MS2; CE: 40%; R=15000; [M+H]+
Name: Norgestimate
Name: [(3E,8R,9S,10R,13S,14S,17R)-13-ethyl-17-ethynyl-3-hydroxyimino-1,2,6,7,8,9,10,11,12,14,15,16-dodecahydrocyclopenta[a]phenanthren-17-yl] acetate
Formula: C23H31NO3
Exact mass: 369.23039
SMILES: CC[C@]12CC[C@H]3[C@@H](CCC4=C\C(CC[C@H]34)=N\O)[C@@H]1CC[C@@]2(OC(C)=O)C#C
InChI: InChI=1S/C23H31NO3/c1-4-22-12-10-19-18-9-7-17(24-26)14-16(18)6-8-20(19)21(22)11-13-23(22,5-2)27-15(3)25/h2,14,18-21,26H,4,6-13H2,1,3H3/b24-17+/t18-,19+,20+,21-,22-,23-/m0/s1
Instrument: LTQ Orbitrap XL Thermo Scientific
Instrument type: LC-ESI-ITFT
Ms type: MS2
Ion mode: POSITIVE
Ionization: ESI
Fragmentation mode: HCD
Collision energy: 40 % (nominal)
Resolution: 15000
Column name: Kinetex Evo C18 2.6 um 50 x 2.1 mm
Retention time: 12.979 min
Base peak: 65.0595
Precursor m/z: 370.2377
Precursor type: [M+H]+
m/z	relative intensity	assigned
67.054	9	C5H7+
69.0696	3	C5H9+
70.065	1	C4H8N+
79.054	16	C6H7+
81.0697	18	C6H9+
82.0649	8	C5H8N+
91.0541	28	C7H7+
93.0697	29	C7H9+
94.065	3	C6H8N+
95.073	3	C6H9N+
95.0853	16	C7H11+
96.0806	4	C6H10N+
98.0599	84	C5H8NO+
103.0541	1	C8H7+
105.0697	37	C8H9+
106.0649	12	C7H8N+
107.0853	26	C8H11+
108.0806	25	C7H10N+
109.0886	4	C7H11N+
109.1009	8	C8H13+
110.0598	6	C6H8NO+
112.0757	2	C6H10NO+
115.0541	1	C9H7+
117.0571	1	C8H7N+
117.0697	22	C9H9+
118.0651	1	C8H8N+
119.0853	35	C9H11+
120.0805	4	C8H10N+
121.0885	2	C8H11N+
121.101	14	C9H13+
122.0597	8	C7H8NO+
122.0961	5	C8H12N+
123.0802	2	C8H11O+
123.1169	2	C9H15+
124.0755	167	C7H10NO+
129.0696	17	C10H9+
130.065	3	C9H8N+
131.0853	53	C10H11+
132.0808	9	C9H10N+
133.1009	51	C10H13+
134.0963	7	C9H12N+
135.1038	2	C9H13N+
135.1165	5	C10H15+
136.0756	9	C8H10NO+
137.0955	2	C9H13O+
138.0913	4	C8H12NO+
141.0697	6	C11H9+
143.0853	29	C11H11+
144.0803	5	C10H10N+
145.1009	44	C11H13+
146.0963	8	C10H12N+
147.1036	1	C10H13N+
147.1165	18	C11H15+
148.0758	4	C9H10NO+
148.1115	5	C10H14N+
149.0958	6	C10H13O+
149.1322	2	C11H17+
150.0911	12	C9H12NO+
152.1066	4	C9H14NO+
153.0698	1	C12H9+
155.0853	14	C12H11+
156.0806	2	C11H10N+
157.101	36	C12H13+
158.096	10	C11H12N+
159.1037	3	C11H13N+
159.1166	45	C12H15+
160.1119	9	C11H14N+
161.1196	3	C11H15N+
161.1322	15	C12H17+
162.0909	9	C10H12NO+
162.1271	6	C11H16N+
164.1067	10	C10H14NO+
167.0851	7	C13H11+
169.1008	17	C13H13+
170.0965	3	C12H12N+
170.1084	4	C13H14+
171.1166	22	C13H15+
172.1121	4	C12H14N+
173.1192	1	C12H15N+
173.1322	18	C13H17+
174.091	7	C11H12NO+
174.1271	6	C12H16N+
175.1477	1	C13H19+
176.1067	25	C11H14NO+
178.1224	11	C11H16NO+
179.0858	4	C14H11+
181.1008	10	C14H13+
182.0962	2	C13H12N+
182.1086	3	C14H14+
183.1166	27	C14H15+
184.1115	5	C13H14N+
185.1322	34	C14H17+
186.1274	3	C13H16N+
187.1478	13	C14H19+
190.1225	7	C12H16NO+
193.101	3	C15H13+
195.1167	13	C15H15+
196.1119	3	C14H14N+
196.1244	2	C15H16+
197.1321	10	C15H17+
198.1274	4	C14H16N+
198.1402	2	C15H18+
199.1478	13	C15H19+
200.1068	1	C13H14NO+
200.1556	2	C15H20+
201.127	3	C14H17O+
202.1226	3	C13H16NO+
203.1432	1	C14H19O+
204.1383	3	C13H18NO+
206.1089	2	C16H14+
207.1171	4	C16H15+
208.1124	1	C15H14N+
208.1255	2	C16H16+
209.1321	10	C16H17+
211.148	6	C16H19+
213.1635	2	C16H21+
214.1226	2	C14H16NO+
216.1381	2	C14H18NO+
219.1161	2	C17H15+
221.1321	7	C17H17+
222.1282	2	C16H16N+
222.1413	1	C17H18+
223.148	8	C17H19+
224.144	2	C16H18N+
225.1634	9	C17H21+
235.1473	4	C18H19+
236.1434	3	C17H18N+
237.1517	2	C17H19N+
237.1639	10	C18H21+
238.1597	3	C17H20N+
240.1383	2	C16H18NO+
240.175	3	C17H22N+
247.1481	2	C19H19+
248.1435	2	C18H18N+
249.1638	4	C19H21+
250.1596	2	C18H20N+
251.1787	5	C19H23+
252.1744	1	C18H22N+
260.2005	12	C17H26NO+
263.167	1	C19H21N+
264.1743	14	C19H22N+
266.1909	2	C19H24N+
268.2058	6	C19H26N+
277.1949	5	C21H25+
278.1907	6	C20H24N+
282.1846	6	C19H24NO+
286.218	2	C19H28NO+
292.2051	6	C21H26N+
293.213	3	C21H27N+
310.2159	214	C21H28NO+
328.2264	17	C21H30NO2+
370.2368	999	C23H32NO3+
