Mass spectrum: Androsterone; LC-ESI-ITFT; MS2; CE: 50%; R=15000; [M+Na]+
Name: Androsterone
Name: (3R,5S,8R,9S,10S,13S,14S)-3-hydroxy-10,13-dimethyl-1,2,3,4,5,6,7,8,9,11,12,14,15,16-tetradecahydrocyclopenta[a]phenanthren-17-one
Formula: C19H30O2
Exact mass: 290.2246
SMILES: C[C@]12CC[C@H]3[C@@H](CC[C@H]4C[C@H](O)CC[C@]34C)[C@@H]1CCC2=O
InChI: InChI=1S/C19H30O2/c1-18-9-7-13(20)11-12(18)3-4-14-15-5-6-17(21)19(15,2)10-8-16(14)18/h12-16,20H,3-11H2,1-2H3/t12-,13+,14-,15-,16-,18-,19-/m0/s1
Instrument: LTQ Orbitrap XL Thermo Scientific
Instrument type: LC-ESI-ITFT
Ms type: MS2
Ion mode: POSITIVE
Ionization: ESI
Fragmentation mode: HCD
Collision energy: 50% (nominal)
Resolution: 15000
Column name: Kinetex Evo C18 2.6 um 50 x 2.1 mm
Retention time: 11.688 min
Base peak: 313.2155
Precursor m/z: 313.2138
Precursor type: [M+Na]+
m/z	relative intensity	assigned
79.054	141	C6H7+
81.0332	20	C5H5O+
81.0696	201	C6H9+
83.0489	379	C5H7O+
91.0541	239	C7H7+
93.0697	243	C7H9+
95.0492	22	C6H7O+
95.0854	222	C7H11+
97.0646	59	C6H9O+
105.0697	262	C8H9+
107.049	196	C7H7O+
107.0854	201	C8H11+
109.0646	999	C7H9O+
109.101	134	C8H13+
111.0802	15	C7H11O+
116.062	14	C9H8+
117.0698	190	C9H9+
119.0854	300	C9H11+
121.0646	55	C8H9O+
121.1011	119	C9H13+
123.0802	182	C8H11O+
123.1167	121	C9H15+
125.096	35	C8H13O+
128.062	8	C10H8+
129.0697	133	C10H9+
130.0774	14	C10H10+
131.0854	354	C10H11+
133.0646	53	C9H9O+
133.1011	363	C10H13+
135.0803	317	C9H11O+
135.1167	144	C10H15+
137.096	41	C9H13O+
137.1325	28	C10H17+
141.0698	35	C11H9+
142.0778	15	C11H10+
143.0854	211	C11H11+
144.0928	18	C11H12+
145.101	364	C11H13+
147.0803	77	C10H11O+
147.1167	121	C11H15+
149.096	216	C10H13O+
149.1324	41	C11H17+
151.1115	20	C10H15O+
155.0854	79	C12H11+
156.0931	17	C12H12+
157.064	13	C11H9O+
157.1011	272	C12H13+
159.0803	63	C11H11O+
159.1166	273	C12H15+
161.0959	164	C11H13O+
161.1321	49	C12H17+
163.1115	122	C11H15O+
167.0853	40	C13H11+
168.0934	11	C13H12+
169.101	95	C13H13+
170.1088	18	C13H14+
171.1165	193	C13H15+
173.0956	26	C12H13O+
173.1322	108	C13H17+
175.1115	104	C12H15O+
175.1479	97	C13H19+
177.1269	16	C12H17O+
179.0848	19	C14H11+
181.1009	53	C14H13+
183.1164	121	C14H15+
185.0961	36	C13H13O+
185.1321	257	C14H17+
187.1111	35	C13H15O+
187.1477	133	C14H19+
188.1193	15	C13H16O+
189.127	63	C13H17O+
193.1009	34	C15H13+
195.1165	61	C15H15+
196.1256	10	C15H16+
197.0962	11	C14H13O+
197.132	83	C15H17+
199.1113	15	C14H15O+
199.1476	111	C15H19+
201.1271	41	C14H17O+
201.1638	22	C15H21+
203.1424	26	C14H19O+
205.1007	11	C16H13+
207.1164	39	C16H15+
208.1245	14	C16H16+
209.1319	46	C16H17+
211.1107	14	C15H15O+
211.1478	27	C16H19+
213.1268	21	C15H17O+
213.1635	20	C16H21+
215.1797	13	C16H23+
220.1243	10	C17H16+
221.132	40	C17H17+
223.1475	35	C17H19+
225.1268	28	C16H17O+
225.1631	68	C17H21+
227.1431	13	C16H19O+
227.1788	185	C17H23+
235.1475	34	C18H19+
237.1629	66	C18H21+
239.1419	17	C17H19O+
241.158	12	C17H21O+
243.174	17	C17H23O+
245.189	462	C17H25O+
247.1466	10	C17H20Na+
248.1549	20	C19H20+
249.1635	22	C19H21+
251.1781	13	C17H24Na+
253.1593	9	C18H21O+
253.1944	12	C19H25+
267.1733	21	C19H23O+
267.2077	11	C18H28Na+
277.1936	35	C19H26Na+
313.2147	77	C19H30NaO2+
