Mass spectrum: Oxybutynin; LC-ESI-ITFT; MS2; CE: 70%; R=15000; [M+H]+
Name: Oxybutynin
Name: 4-(diethylamino)but-2-ynyl 2-cyclohexyl-2-hydroxy-2-phenylacetate
Formula: C22H31NO3
Exact mass: 357.23039
SMILES: CCN(CC)CC#CCOC(=O)C(O)(C1CCCCC1)C1=CC=CC=C1
InChI: InChI=1S/C22H31NO3/c1-3-23(4-2)17-11-12-18-26-21(24)22(25,19-13-7-5-8-14-19)20-15-9-6-10-16-20/h5,7-8,13-14,20,25H,3-4,6,9-10,15-18H2,1-2H3
Instrument: LTQ Orbitrap XL Thermo Scientific
Instrument type: LC-ESI-ITFT
Ms type: MS2
Ion mode: POSITIVE
Ionization: ESI
Fragmentation mode: HCD
Collision energy: 70% (nominal)
Resolution: 15000
Column name: Kinetex Evo C18 2.6 um 50 x 2.1 mm
Retention time: 9.083 min
Base peak: 358.2377
Precursor m/z: 358.2377
Precursor type: [M+H]+
m/z	relative intensity	assigned
72.0804	999	C4H10N+
74.0961	20	C4H12N+
77.0382	20	C6H5+
79.0539	165	C6H7+
80.0492	35	C5H6N+
81.057	45	C5H7N+
81.0696	39	C6H9+
82.0648	39	C5H8N+
83.0853	40	C6H11+
86.0961	25	C5H12N+
91.0539	198	C7H7+
93.0697	12	C7H9+
94.0648	121	C6H8N+
95.0488	7	C6H7O+
95.0725	21	C6H9N+
96.0805	71	C6H10N+
97.0281	181	C5H5O2+
105.0332	448	C7H5O+
107.0488	404	C7H7O+
108.0805	56	C7H10N+
109.0883	18	C7H11N+
115.0538	12	C9H7+
117.0694	26	C9H9+
121.0646	10	C8H9O+
122.0963	7	C8H12N+
129.0695	153	C10H9+
141.0696	8	C11H9+
142.1223	676	C8H16NO+
143.0851	29	C11H11+
157.0648	14	C11H9O+
171.1164	51	C13H15+
189.1269	36	C13H17O+
199.1114	9	C14H15O+
