Mass spectrum: Norgestimate; LC-ESI-ITFT; MS2; CE: 70%; R=15000; [M+H]+
Name: Norgestimate
Name: [(3E,8R,9S,10R,13S,14S,17R)-13-ethyl-17-ethynyl-3-hydroxyimino-1,2,6,7,8,9,10,11,12,14,15,16-dodecahydrocyclopenta[a]phenanthren-17-yl] acetate
Formula: C23H31NO3
Exact mass: 369.23039
SMILES: CC[C@]12CC[C@H]3[C@@H](CCC4=C\C(CC[C@H]34)=N\O)[C@@H]1CC[C@@]2(OC(C)=O)C#C
InChI: InChI=1S/C23H31NO3/c1-4-22-12-10-19-18-9-7-17(24-26)14-16(18)6-8-20(19)21(22)11-13-23(22,5-2)27-15(3)25/h2,14,18-21,26H,4,6-13H2,1,3H3/b24-17+/t18-,19+,20+,21-,22-,23-/m0/s1
Instrument: LTQ Orbitrap XL Thermo Scientific
Instrument type: LC-ESI-ITFT
Ms type: MS2
Ion mode: POSITIVE
Ionization: ESI
Fragmentation mode: HCD
Collision energy: 70 % (nominal)
Resolution: 15000
Column name: Kinetex Evo C18 2.6 um 50 x 2.1 mm
Retention time: 13.044 min
Base peak: 370.2374
Precursor m/z: 370.2377
Precursor type: [M+H]+
m/z	relative intensity	assigned
77.0383	27	C6H5+
79.054	306	C6H7+
80.0492	41	C5H6N+
81.0696	84	C6H9+
82.0649	43	C5H8N+
91.054	396	C7H7+
92.0492	38	C6H6N+
93.0696	163	C7H9+
94.065	24	C6H8N+
95.0491	14	C6H7O+
95.0729	21	C6H9N+
95.0853	70	C7H11+
96.0442	11	C5H6NO+
96.0806	10	C6H10N+
98.0598	547	C5H8NO+
103.0541	31	C8H7+
105.0696	359	C8H9+
106.0648	76	C7H8N+
107.0727	18	C7H9N+
107.0853	73	C8H11+
108.0805	103	C7H10N+
109.0884	37	C7H11N+
110.0597	41	C6H8NO+
115.054	64	C9H7+
116.0618	61	C9H8+
117.057	17	C8H7N+
117.0696	218	C9H9+
118.0648	22	C8H8N+
119.0726	12	C8H9N+
119.0852	197	C9H11+
120.0803	17	C8H10N+
121.0647	8	C8H9O+
121.0884	17	C8H11N+
121.1009	34	C9H13+
122.0596	30	C7H8NO+
122.096	22	C8H12N+
124.0754	999	C7H10NO+
128.0617	74	C10H8+
129.0695	220	C10H9+
130.0648	20	C9H8N+
130.0773	51	C10H10+
131.0852	301	C10H11+
132.0806	44	C9H10N+
133.1008	101	C10H13+
134.0961	34	C9H12N+
135.08	10	C9H11O+
135.1037	10	C9H13N+
136.0753	19	C8H10NO+
138.091	32	C8H12NO+
141.0696	59	C11H9+
142.0774	69	C11H10+
143.0726	11	C10H9N+
143.0852	182	C11H11+
144.0803	23	C10H10N+
144.093	35	C11H12+
145.0881	22	C10H11N+
145.1008	150	C11H13+
146.0963	32	C10H12N+
147.1164	28	C11H15+
148.0757	10	C9H10NO+
148.1117	19	C10H14N+
149.0956	19	C10H13O+
150.091	26	C9H12NO+
154.0774	24	C12H10+
155.0852	93	C12H11+
156.081	9	C11H10N+
156.0932	29	C12H12+
157.1008	119	C12H13+
158.0961	39	C11H12N+
158.1085	11	C12H14+
159.1037	11	C11H13N+
159.1164	58	C12H15+
160.1117	40	C11H14N+
161.1198	13	C11H15N+
162.0913	13	C10H12NO+
162.1273	15	C11H16N+
164.1065	28	C10H14NO+
165.0694	19	C13H9+
167.085	46	C13H11+
168.0936	15	C13H12+
169.1007	56	C13H13+
170.097	11	C12H12N+
170.1087	15	C13H14+
171.1166	62	C13H15+
172.1117	18	C12H14N+
173.1323	17	C13H17+
174.127	10	C12H16N+
176.1067	35	C11H14NO+
178.0773	14	C14H10+
178.1223	32	C11H16NO+
179.0854	22	C14H11+
180.0927	9	C14H12+
181.1008	46	C14H13+
182.1095	10	C14H14+
183.1164	39	C14H15+
184.1118	14	C13H14N+
185.132	46	C14H17+
186.127	11	C13H16N+
192.0931	8	C15H12+
193.1008	21	C15H13+
194.1089	13	C15H14+
195.1164	37	C15H15+
197.1321	25	C15H17+
199.1473	12	C15H19+
207.1163	29	C16H15+
210.1273	9	C15H16N+
211.1477	7	C16H19+
219.1163	16	C17H15+
221.1316	18	C17H17+
224.1433	9	C16H18N+
234.1286	10	C17H16N+
235.1486	8	C18H19+
236.1424	20	C17H18N+
250.1582	8	C18H20N+
264.1742	32	C19H22N+
282.1847	52	C19H24NO+
310.2161	36	C21H28NO+
