Mass spectrum: Imidacloprid; LC-ESI-ITFT; MS2; CE: 40%; R=15000; [M+H]+
Name: Imidacloprid
Name: N-[1-[(6-chloropyridin-3-yl)methyl]-4,5-dihydroimidazol-2-yl]nitramide
Formula: C9H10ClN5O2
Exact mass: 255.05230
SMILES: [O-][N+](=O)\N=C1/NCCN1CC1=CN=C(Cl)C=C1
InChI: InChI=1S/C9H10ClN5O2/c10-8-2-1-7(5-12-8)6-14-4-3-11-9(14)13-15(16)17/h1-2,5H,3-4,6H2,(H,11,13)
Instrument: LTQ Orbitrap XL Thermo Scientific
Instrument type: LC-ESI-ITFT
Ms type: MS2
Ion mode: POSITIVE
Ionization: ESI
Fragmentation mode: HCD
Collision energy: 40% (nominal)
Resolution: 15000
Column name: Kinetex Evo C18 2.6 um 50 x 2.1 mm
Retention time: 6.062 min
Base peak: 239.151
Precursor m/z: 256.0596
Precursor type: [M+H]+
m/z	relative intensity	assigned
56.0492	27	C3H6N+
71.0603	2	C3H7N2+
72.068	6	C3H8N2+
84.0556	215	C3H6N3+
97.0635	17	C4H7N3+
98.0714	9	C4H8N3+
99.0554	30	C4H7N2O+
126.0106	73	C6H5ClN+
127.0185	2	C6H6ClN+
128.0262	129	C6H7ClN+
141.0215	3	C6H6ClN2+
146.0587	3	C7H6N4+
146.0714	4	C8H8N3+
147.0663	2	C7H7N4+
151.0185	19	C8H6ClN+
167.0247	7	C7H6ClN3+
167.0371	5	C8H8ClN2+
168.0451	2	C8H9ClN2+
173.0824	11	C9H9N4+
174.0902	133	C9H10N4+
175.098	999	C9H11N4+
176.0819	3	C9H10N3O+
180.0325	2	C8H7ClN3+
181.0272	4	C7H6ClN4+
181.0404	3	C8H8ClN3+
193.0406	8	C9H8ClN3+
194.0481	6	C9H9ClN3+
195.0323	4	C9H8ClN2O+
195.0435	3	C8H8ClN4+
209.059	864	C9H10ClN4+
210.0667	92	C9H11ClN4+
212.0586	123	C9H11ClN3O+
256.0597	11	C9H11ClN5O2+
