Mass spectrum: Tacrolimus; LC-ESI-ITFT; MS2; CE: 50%; R=15000; [M-H]-
Name: Tacrolimus
Name: (1R,9S,12S,13R,14S,17R,18E,21S,23S,24R,25S,27R)-1,14-dihydroxy-12-[(E)-1-[(3R,4R)-4-hydroxy-3-methoxycyclohexyl]prop-1-en-2-yl]-23,25-dimethoxy-13,19,21,27-tetramethyl-17-prop-2-enyl-11,28-dioxa-4-azatricyclo[22.3.1.04,9]octacos-18-ene-2,3,10,16-tetrone
Formula: C44H69NO12
Exact mass: 803.4820
SMILES: CO[C@@H]1CC(CC[C@H]1O)\C=C(/C)[C@H]1OC(=O)[C@@H]2CCCCN2C(=O)C(=O)[C@]2(O)O[C@@H]([C@H](C[C@H]2C)OC)[C@H](C[C@@H](C)C\C(C)=C\[C@@H](CC=C)C(=O)C[C@H](O)[C@H]1C)OC
InChI: InChI=1S/C44H69NO12/c1-10-13-31-19-25(2)18-26(3)20-37(54-8)40-38(55-9)22-28(5)44(52,57-40)41(49)42(50)45-17-12-11-14-32(45)43(51)56-39(29(6)34(47)24-35(31)48)27(4)21-30-15-16-33(46)36(23-30)53-7/h10,19,21,26,28-34,36-40,46-47,52H,1,11-18,20,22-24H2,2-9H3/b25-19+,27-21+/t26-,28+,29+,30?,31+,32-,33+,34-,36+,37-,38-,39+,40+,44+/m0/s1
Instrument: LTQ Orbitrap XL Thermo Scientific
Instrument type: LC-ESI-ITFT
Ms type: MS2
Ion mode: NEGATIVE
Ionization: ESI
Fragmentation mode: HCD
Collision energy: 50 % (nominal)
Resolution: 15000
Column name: Kinetex Evo C18 2.6 um 50 x 2.1 mm
Retention time: 13.767 min
Base peak: 848.4806
Precursor m/z: 802.4747
Precursor type: [M-H]-
m/z	relative intensity	assigned
128.0715	284	C6H10NO2-
167.0585	312	C8H9NO3-
168.0663	999	C8H10NO3-
419.2796	249	C25H39O5-
502.3175	622	C29H44NO6-
516.3705	427	C31H50NO5-
542.3462	599	C32H48NO6-
560.3589	787	C32H50NO7-
