Mass spectrum: Azoxystrobin acid; LC-ESI-ITFT; MS2; CE: 80%; R=15000; [M+H]+
Name: Azoxystrobin acid
Name: (E)-2-[2-[6-(2-cyanophenoxy)pyrimidin-4-yl]oxyphenyl]-3-methoxyprop-2-enoic acid
Formula: C21H15N3O5
Exact mass: 389.10117
SMILES: CO\C=C(\C(O)=O)c1ccccc1Oc1cc(Oc2ccccc2C#N)ncn1
InChI: InChI=1S/C21H15N3O5/c1-27-12-16(21(25)26)15-7-3-5-9-18(15)29-20-10-19(23-13-24-20)28-17-8-4-2-6-14(17)11-22/h2-10,12-13H,1H3,(H,25,26)/b16-12+
Instrument: LTQ Orbitrap XL Thermo Scientific
Instrument type: LC-ESI-ITFT
Ms type: MS2
Ion mode: POSITIVE
Ionization: ESI
Fragmentation mode: HCD
Collision energy: 80% (nominal)
Resolution: 15000
Column name: Kinetex Evo C18 2.6 um 50 x 2.1 mm
Retention time: 10.518 min
Base peak: 390.1093
Precursor m/z: 390.1084
Precursor type: [M+H]+
m/z	relative intensity	assigned
89.0383	39	C7H5+
103.0418	26	C7H5N+
104.0494	48	C7H6N+
114.0337	55	C8H4N+
116.0496	53	C8H6N+
117.0336	24	C8H5O+
120.0443	70	C7H6NO+
127.0417	46	C9H5N+
128.0493	29	C9H6N+
129.0449	168	C8H5N2+
130.0291	33	C8H4NO+
130.0399	162	C7H4N3+
132.0446	35	C8H6NO+
133.0522	121	C8H7NO+
134.06	107	C8H8NO+
141.0448	48	C9H5N2+
143.0606	58	C9H7N2+
144.0443	87	C9H6NO+
145.0523	69	C9H7NO+
146.0233	48	C8H4NO2+
155.0607	46	C10H7N2+
156.0444	612	C10H6NO+
169.0135	23	C7H5O5+
169.0395	44	C10H5N2O+
170.0475	53	C10H6N2O+
171.055	80	C10H7N2O+
172.0394	999	C10H6NO2+
182.0481	46	C11H6N2O+
183.0554	238	C11H7N2O+
199.05	153	C11H7N2O2+
200.0342	296	C11H6NO3+
201.0426	37	C11H7NO3+
210.0424	55	C12H6N2O2+
245.0713	30	C16H9N2O+
272.0814	109	C17H10N3O+
273.0661	38	C17H9N2O2+
273.0886	25	C17H11N3O+
300.0769	106	C18H10N3O2+
328.0713	135	C19H10N3O3+
