Mass spectrum: Pentoxifylline; LC-ESI-ITFT; MS2; CE: 20%; R=15000; [M+Na]+
Name: Pentoxifylline
Name: 3,7-dimethyl-1-(5-oxohexyl)purine-2,6-dione
Formula: C13H18N4O3
Exact mass: 278.1379
SMILES: CN1C=NC2=C1C(=O)N(CCCCC(C)=O)C(=O)N2C
InChI: InChI=1S/C13H18N4O3/c1-9(18)6-4-5-7-17-12(19)10-11(14-8-15(10)2)16(3)13(17)20/h8H,4-7H2,1-3H3
Instrument: LTQ Orbitrap XL Thermo Scientific
Instrument type: LC-ESI-ITFT
Ms type: MS2
Ion mode: POSITIVE
Ionization: ESI
Fragmentation mode: HCD
Collision energy: 20 % (nominal)
Resolution: 15000
Column name: Kinetex Evo C18 2.6 um 50 x 2.1 mm
Retention time: 7.926 min
Base peak: 279.1453
Precursor m/z: 301.1271
Precursor type: [M+Na]+
m/z	relative intensity	assigned
301.127	999	C13H18N4NaO3+
