Mass spectrum: Pyraclostrobin; LC-ESI-ITFT; MS2; CE: 80%; R=15000; [M+Na]+
Name: Pyraclostrobin
Name: methyl N-[2-[[1-(4-chlorophenyl)pyrazol-3-yl]oxymethyl]phenyl]-N-methoxycarbamate
Formula: C19H18ClN3O4
Exact mass: 387.0986
SMILES: CON(C(=O)OC)C1=C(COC2=NN(C=C2)C2=CC=C(Cl)C=C2)C=CC=C1
InChI: InChI=1S/C19H18ClN3O4/c1-25-19(24)23(26-2)17-6-4-3-5-14(17)13-27-18-11-12-22(21-18)16-9-7-15(20)8-10-16/h3-12H,13H2,1-2H3
Instrument: LTQ Orbitrap XL Thermo Scientific
Instrument type: LC-ESI-ITFT
Ms type: MS2
Ion mode: POSITIVE
Ionization: ESI
Fragmentation mode: HCD
Collision energy: 80% (nominal)
Resolution: 15000
Column name: Kinetex Evo C18 2.6 um 50 x 2.1 mm
Retention time: 12.765 min
Base peak: 388.1067
Precursor m/z: 410.0878
Precursor type: [M+Na]+
m/z	relative intensity	assigned
75.0227	20	C6H3+
129.0701	55	C10H9+
139.0059	52	C6H4ClN2+
141.0031	897	C3H4NNaO4+
152.0623	424	C12H8+
153.07	340	C12H9+
181.0649	250	C13H9O+
182.068	22	C5H16ClNaO3+
188.0387	25	C12H9Cl+
189.0279	158	C4H9ClN3NaO2+
189.0424	33	C11H6N2Na+
190.0359	999	C4H10ClN3NaO2+
217.023	141	C5H9ClN3NaO3+
218.0312	41	C7H12ClNaO4+
252.9998	32	C8H7ClN2NaO4+
254.9967	768	C16H5ClNa+
268.976	175	C16H3ClNaO+
