Mass spectrum: Cyprodinil; LC-ESI-ITFT; MS2; CE: 90%; R=15000; [M+H]+
Name: Cyprodinil
Name: 4-cyclopropyl-6-methyl-N-phenylpyrimidin-2-amine
Formula: C14H15N3
Exact mass: 225.12660
SMILES: CC1=NC(NC2=CC=CC=C2)=NC(=C1)C1CC1
InChI: InChI=1S/C14H15N3/c1-10-9-13(11-7-8-11)17-14(15-10)16-12-5-3-2-4-6-12/h2-6,9,11H,7-8H2,1H3,(H,15,16,17)
Instrument: LTQ Orbitrap XL Thermo Scientific
Instrument type: LC-ESI-ITFT
Ms type: MS2
Ion mode: POSITIVE
Ionization: ESI
Fragmentation mode: HCD
Collision energy: 90% (nominal)
Resolution: 15000
Column name: Kinetex Evo C18 2.6 um 50 x 2.1 mm
Retention time: 10.275 min
Base peak: 226.1345
Precursor m/z: 226.1339
Precursor type: [M+H]+
m/z	relative intensity	assigned
65.0384	135	C5H5+
67.0541	84	C5H7+
68.0493	71	C4H6N+
77.0385	164	C6H5+
79.0542	204	C6H7+
80.0494	88	C5H6N+
81.0698	126	C6H9+
82.0651	63	C5H8N+
83.0602	6	C4H7N2+
84.0808	31	C5H10N+
89.0386	20	C7H5+
91.0542	413	C7H7+
92.0495	256	C6H6N+
92.0621	60	C7H8+
93.0573	999	C6H7N+
94.0651	74	C6H8N+
104.0495	63	C7H6N+
105.0447	118	C6H5N2+
106.0651	381	C7H8N+
107.0603	15	C6H7N2+
107.0729	34	C7H9N+
108.0682	88	C6H8N2+
108.0808	572	C7H10N+
109.076	44	C6H9N2+
109.0885	9	C7H11N+
115.0542	22	C9H7+
116.0495	109	C8H6N+
117.0448	9	C7H5N2+
117.0573	86	C8H7N+
118.0525	306	C7H6N2+
118.0651	108	C8H8N+
119.0604	328	C7H7N2+
123.0917	20	C7H11N2+
128.0492	13	C9H6N+
130.0653	8	C9H8N+
131.0604	129	C8H7N2+
132.0682	146	C8H8N2+
133.076	210	C8H9N2+
141.0697	7	C11H9+
142.0651	38	C10H8N+
143.0604	136	C9H7N2+
143.073	17	C10H9N+
144.056	12	C8H6N3+
144.0808	104	C10H10N+
145.076	64	C9H9N2+
148.0874	11	C8H10N3+
155.0607	11	C10H7N2+
156.0683	17	C10H8N2+
156.0813	5	C11H10N+
157.0758	17	C10H9N2+
158.0844	9	C10H10N2+
158.0965	9	C11H12N+
159.0918	57	C10H11N2+
165.07	9	C13H9+
167.0607	10	C11H7N2+
167.0729	78	C12H9N+
168.0681	36	C11H8N2+
168.0808	47	C12H10N+
169.0762	38	C11H9N2+
170.0842	11	C11H10N2+
171.0918	13	C11H11N2+
181.0762	17	C12H9N2+
182.0839	34	C12H10N2+
182.0961	10	C13H12N+
183.079	35	C11H9N3+
183.0917	35	C12H11N2+
184.087	76	C11H10N3+
185.1074	37	C12H13N2+
191.0734	8	C14H9N+
192.0813	8	C14H10N+
193.076	79	C13H9N2+
193.0886	8	C14H11N+
194.0839	122	C13H10N2+
196.0866	8	C12H10N3+
197.0948	16	C12H11N3+
198.1026	23	C12H12N3+
199.1098	10	C12H13N3+
207.0918	82	C14H11N2+
208.0997	35	C14H12N2+
209.1072	59	C14H13N2+
210.1026	165	C13H12N3+
211.1103	23	C13H13N3+
224.1182	49	C14H14N3+
226.1338	474	C14H16N3+
