Mass spectrum: Methyltriphenylphosphonium; LC-ESI-ITFT; MS2; CE: 80%; R=15000; [M]+
Name: Methyltriphenylphosphonium
Name: Triphenylmethylphosphonium
Name: methyl(triphenyl)phosphanium
Formula: C19H18P
Exact mass: 277.1146
SMILES: C[P+](C1=CC=CC=C1)(C1=CC=CC=C1)C1=CC=CC=C1
InChI: InChI=1S/C19H18P/c1-20(17-11-5-2-6-12-17,18-13-7-3-8-14-18)19-15-9-4-10-16-19/h2-16H,1H3/q+1
Instrument: LTQ Orbitrap XL Thermo Scientific
Instrument type: LC-ESI-ITFT
Ms type: MS2
Ion mode: POSITIVE
Ionization: ESI
Fragmentation mode: HCD
Collision energy: 80 % (nominal)
Resolution: 15000
Column name: Kinetex Evo C18 2.6 um 50 x 2.1 mm
Retention time: 7.138 min
Base peak: 277.1148
Precursor m/z: 277.1141
Precursor type: [M]+
m/z	relative intensity	assigned
79.0543	38	C6H7+
91.0544	17	C7H7+
107.0046	36	C6H4P+
108.0124	624	C6H5P+
121.0203	18	C7H6P+
123.0361	6	C7H8P+
141.0704	3	C11H9+
152.062	11	C12H8+
154.0778	17	C12H10+
155.0855	5	C12H11+
183.0359	533	C12H8P+
184.0438	120	C12H9P+
185.0515	447	C12H10P+
199.0672	64	C13H12P+
200.0751	57	C13H13P+
230.1095	4	C18H14+
261.0828	478	C18H14P+
262.0909	239	C18H15P+
277.114	999	C19H18P+
