Mass spectrum: Bupirimate; LC-ESI-ITFT; MS2; CE: 60%; R=15000; [M+H]+
Name: Bupirimate
Name: [5-butyl-2-(ethylamino)-6-methylpyrimidin-4-yl] N,N-dimethylsulfamate
Formula: C13H24N4O3S
Exact mass: 316.15691
SMILES: CCCCC1=C(C)N=C(NCC)N=C1OS(=O)(=O)N(C)C
InChI: InChI=1S/C13H24N4O3S/c1-6-8-9-11-10(3)15-13(14-7-2)16-12(11)20-21(18,19)17(4)5/h6-9H2,1-5H3,(H,14,15,16)
Instrument: LTQ Orbitrap XL Thermo Scientific
Instrument type: LC-ESI-ITFT
Ms type: MS2
Ion mode: POSITIVE
Ionization: ESI
Fragmentation mode: HCD
Collision energy: 60% (nominal)
Resolution: 15000
Column name: Kinetex Evo C18 2.6 um 50 x 2.1 mm
Retention time: 10.823 min
Base peak: 317.1647
Precursor m/z: 317.1642
Precursor type: [M+H]+
m/z	relative intensity	assigned
97.0396	24	C4H5N2O+
98.06	38	C5H8NO+
108.0113	999	C2H6NO2S+
110.0963	26	C7H12N+
112.1124	3	C7H14N+
137.1073	5	C8H13N2+
138.0662	44	C6H8N3O+
138.0915	15	C8H12NO+
138.1027	17	C7H12N3+
139.074	40	C6H9N3O+
139.1231	10	C8H15N2+
140.1069	267	C8H14NO+
148.0869	15	C8H10N3+
150.1026	183	C8H12N3+
151.123	9	C9H15N2+
152.0817	21	C7H10N3O+
153.0899	3	C7H11N3O+
154.0977	3	C7H12N3O+
165.0897	72	C8H11N3O+
165.1022	132	C9H13N2O+
166.0975	704	C8H12N3O+
167.1051	99	C8H13N3O+
180.1131	37	C9H14N3O+
180.1494	46	C10H18N3+
181.1213	8	C9H15N3O+
182.1288	45	C9H16N3O+
192.1494	14	C11H18N3+
193.1335	80	C11H17N2O+
194.1288	101	C10H16N3O+
208.1444	211	C11H18N3O+
210.16	563	C11H20N3O+
224.1756	38	C12H22N3O+
237.2074	93	C13H25N4+
244.075	23	C9H14N3O3S+
272.1064	25	C11H18N3O3S+
317.1646	3	C13H25N4O3S+
