Mass spectrum: 4-Hydroxycoumarin; LC-ESI-ITFT; MS2; CE: 60%; R=15000; [M-H]-
Name: 4-Hydroxycoumarin
Name: 4-hydroxychromen-2-one
Formula: C9H6O3
Exact mass: 162.0317
SMILES: OC1=CC(=O)OC2=CC=CC=C12
InChI: InChI=1S/C9H6O3/c10-7-5-9(11)12-8-4-2-1-3-6(7)8/h1-5,10H
Instrument: LTQ Orbitrap XL Thermo Scientific
Instrument type: LC-ESI-ITFT
Ms type: MS2
Ion mode: NEGATIVE
Ionization: ESI
Fragmentation mode: HCD
Collision energy: 60% (nominal)
Resolution: 15000
Column name: Kinetex Evo C18 2.6 um 50 x 2.1 mm
Retention time: 8.047 min
Base peak: 161.0241
Precursor m/z: 161.0244
Precursor type: [M-H]-
m/z	relative intensity	assigned
117.0346	39	C8H5O-
161.0243	999	C9H5O3-
