Mass spectrum: 2-Morpholinothiobenzothiazole; LC-ESI-ITFT; MS2; CE: 60%; R=15000; [M+H]+
Name: 2-Morpholinothiobenzothiazole
Name: Morpholinylmercaptobenzothiazole
Name: 4-(1,3-benzothiazol-2-ylsulfanyl)morpholine
Formula: C11H12N2OS2
Exact mass: 252.03911
SMILES: C1CN(CCO1)SC1=NC2=CC=CC=C2S1
InChI: InChI=1S/C11H12N2OS2/c1-2-4-10-9(3-1)12-11(15-10)16-13-5-7-14-8-6-13/h1-4H,5-8H2
Instrument: LTQ Orbitrap XL Thermo Scientific
Instrument type: LC-ESI-ITFT
Ms type: MS2
Ion mode: POSITIVE
Ionization: ESI
Fragmentation mode: HCD
Collision energy: 60 % (nominal)
Resolution: 15000
Column name: Kinetex Evo C18 2.6 um 50 x 2.1 mm
Retention time: 11.153 min
Base peak: 253.0472
Precursor m/z: 253.0464
Precursor type: [M+H]+
m/z	relative intensity	assigned
56.0492	275	C3H6N+
57.057	147	C3H7N+
58.0648	35	C3H8N+
72.0443	2	C3H6NO+
86.06	999	C4H8NO+
87.0678	448	C4H9NO+
118.0322	4	C4H8NOS+
136.0216	36	C7H6NS+
148.0216	4	C8H6NS+
149.0294	1	C8H7NS+
162.037	2	C9H8NS+
163.0323	10	C8H7N2S+
163.045	8	C9H9NS+
165.9779	173	C7H4NS2+
166.9858	28	C7H5NS2+
167.9935	82	C7H6NS2+
175.0327	2	C9H7N2S+
176.0397	2	C9H8N2S+
190.0556	2	C10H10N2S+
219.0583	1	C11H11N2OS+
220.0665	11	C11H12N2OS+
253.0467	9	C11H13N2OS2+
