Mass spectrum: Daidzein; LC-ESI-ITFT; MS2; CE: 120%; R=15000; [M-H]-
Name: Daidzein
Name: 7-hydroxy-3-(4-hydroxyphenyl)chromen-4-one
Formula: C15H10O4
Exact mass: 254.0579
SMILES: OC1=CC=C(C=C1)C1=COC2=C(C=CC(O)=C2)C1=O
InChI: InChI=1S/C15H10O4/c16-10-3-1-9(2-4-10)13-8-19-14-7-11(17)5-6-12(14)15(13)18/h1-8,16-17H
Instrument: LTQ Orbitrap XL Thermo Scientific
Instrument type: LC-ESI-ITFT
Ms type: MS2
Ion mode: NEGATIVE
Ionization: ESI
Fragmentation mode: HCD
Collision energy: 120% (nominal)
Resolution: 15000
Column name: Kinetex Evo C18 2.6 um 50 x 2.1 mm
Retention time: 9.194 min
Base peak: 91.0035
Precursor m/z: 253.0506
Precursor type: [M-H]-
m/z	relative intensity	assigned
91.0189	101	C6H3O-
132.0211	49	C8H4O2-
133.0294	205	C8H5O2-
135.0087	161	C7H3O3-
169.0655	52	C12H9O-
180.0582	48	C13H8O-
181.0652	22	C13H9O-
183.0447	21	C12H7O2-
196.0527	79	C13H8O2-
197.0605	89	C13H9O2-
208.0529	159	C14H8O2-
209.0606	216	C14H9O2-
223.0397	68	C14H7O3-
224.0477	235	C14H8O3-
225.0551	88	C14H9O3-
252.0433	48	C15H8O4-
253.0502	999	C15H9O4-
