Mass spectrum: 7-Amino-4-methylcoumarin; LC-ESI-ITFT; MS2; CE: 70%; R=15000; [M+H]+
Name: 7-Amino-4-methylcoumarin
Name: 7-amino-4-methylchromen-2-one
Formula: C10H9NO2
Exact mass: 175.0633
SMILES: CC1=CC(=O)OC2=CC(N)=CC=C12
InChI: InChI=1S/C10H9NO2/c1-6-4-10(12)13-9-5-7(11)2-3-8(6)9/h2-5H,11H2,1H3
Instrument: LTQ Orbitrap XL Thermo Scientific
Instrument type: LC-ESI-ITFT
Ms type: MS2
Ion mode: POSITIVE
Ionization: ESI
Fragmentation mode: HCD
Collision energy: 70 % (nominal)
Resolution: 15000
Column name: Kinetex Evo C18 2.6 um 50 x 2.1 mm
Retention time: 6.791 min
Base peak: 176.0712
Precursor m/z: 176.0706
Precursor type: [M+H]+
m/z	relative intensity	assigned
54.0336	4	C3H4N+
67.0177	3	C4H3O+
68.013	9	C3H2NO+
77.0386	4	C6H5+
79.0542	16	C6H7+
80.0495	2	C5H6N+
81.0703	1	C6H9+
91.0542	21	C7H7+
92.0494	2	C6H6N+
93.0574	10	C6H7N+
93.0699	23	C7H9+
94.0652	12	C6H8N+
95.0488	1	C6H7O+
103.0543	144	C8H7+
104.0496	4	C7H6N+
105.0573	8	C7H7N+
105.0699	82	C8H9+
106.0652	11	C7H8N+
109.0648	8	C7H9O+
110.0598	3	C6H8NO+
115.0543	171	C9H7+
116.0621	4	C9H8+
117.0574	275	C8H7N+
118.0651	15	C8H8N+
119.0729	6	C8H9N+
120.0808	999	C8H10N+
121.0646	4	C8H9O+
130.0652	80	C9H8N+
131.0491	37	C9H7O+
131.073	83	C9H9N+
132.0808	158	C9H10N+
133.0522	89	C8H7NO+
133.0649	7	C9H9O+
134.0601	16	C8H8NO+
136.0393	8	C7H6NO2+
146.06	5	C9H8NO+
147.0679	5	C9H9NO+
148.0757	128	C9H10NO+
159.0435	1	C10H7O2+
176.0707	956	C10H10NO2+
