Mass spectrum: Phantolide; LC-ESI-ITFT; MS2; CE: 80%; R=15000; [M+H]+
Name: Phantolide
Name: 1-(1,1,2,3,3,6-hexamethyl-2H-inden-5-yl)ethanone
Formula: C17H24O
Exact mass: 244.18272
SMILES: CC1C(C)(C)C2=C(C=C(C(C)=O)C(C)=C2)C1(C)C
InChI: InChI=1S/C17H24O/c1-10-8-14-15(9-13(10)11(2)18)17(6,7)12(3)16(14,4)5/h8-9,12H,1-7H3
Instrument: LTQ Orbitrap XL Thermo Scientific
Instrument type: LC-ESI-ITFT
Ms type: MS2
Ion mode: POSITIVE
Ionization: ESI
Fragmentation mode: HCD
Collision energy: 80% (nominal)
Resolution: 15000
Column name: Kinetex Evo C18 2.6 um 50 x 2.1 mm
Retention time: 13.829 min
Base peak: 245.1905
Precursor m/z: 245.19
Precursor type: [M+H]+
m/z	relative intensity	assigned
91.0541	26	C7H7+
93.0696	17	C7H9+
105.0697	209	C8H9+
107.0853	29	C8H11+
119.0853	575	C9H11+
129.0697	46	C10H9+
131.0853	83	C10H11+
132.0932	31	C10H12+
133.0648	25	C9H9O+
133.1009	250	C10H13+
142.0773	15	C11H10+
143.0855	26	C11H11+
145.1012	18	C11H13+
147.0802	551	C10H11O+
147.1165	128	C11H15+
157.1014	14	C12H13+
159.08	18	C11H11O+
160.0881	42	C11H12O+
175.1114	999	C12H15O+
189.1271	28	C13H17O+
