Mass spectrum: Torasemide; LC-ESI-ITFT; MS2; CE: 10%; R=15000; [M-H]-
Name: Torasemide
Name: Torsemide
Name: 1-[4-(3-methylanilino)pyridin-3-yl]sulfonyl-3-propan-2-ylurea
Formula: C16H20N4O3S
Exact mass: 348.1256
SMILES: CC(C)NC(=O)NS(=O)(=O)C1=CN=CC=C1NC1=CC=CC(C)=C1
InChI: InChI=1S/C16H20N4O3S/c1-11(2)18-16(21)20-24(22,23)15-10-17-8-7-14(15)19-13-6-4-5-12(3)9-13/h4-11H,1-3H3,(H,17,19)(H2,18,20,21)
Instrument: LTQ Orbitrap XL Thermo Scientific
Instrument type: LC-ESI-ITFT
Ms type: MS2
Ion mode: NEGATIVE
Ionization: ESI
Fragmentation mode: HCD
Collision energy: 10 % (nominal)
Resolution: 15000
Column name: Kinetex Evo C18 2.6 um 50 x 2.1 mm
Retention time: 8.429 min
Base peak: 347.1176
Precursor m/z: 347.1183
Precursor type: [M-H]-
m/z	relative intensity	assigned
262.0655	722	C12H12N3O2S-
347.1183	999	C16H19N4O3S-
