Mass spectrum: Diphenylphosphine oxide; LC-ESI-ITFT; MS2; CE: 90%; R=15000; [M+H]+
Name: Diphenylphosphine oxide
Name: phenylphosphonoylbenzene
Formula: C12H11OP
Exact mass: 202.0548
SMILES: O=P(C1=CC=CC=C1)C1=CC=CC=C1
InChI: InChI=1S/C12H11OP/c13-14(11-7-3-1-4-8-11)12-9-5-2-6-10-12/h1-10,14H
Instrument: LTQ Orbitrap XL Thermo Scientific
Instrument type: LC-ESI-ITFT
Ms type: MS2
Ion mode: POSITIVE
Ionization: ESI
Fragmentation mode: HCD
Collision energy: 90% (nominal)
Resolution: 15000
Column name: Kinetex Evo C18 2.6 um 50 x 2.1 mm
Retention time: 8.786 min
Base peak: 203.0627
Precursor m/z: 203.062
Precursor type: [M+H]+
m/z	relative intensity	assigned
77.0386	101	C6H5+
78.0464	36	C6H6+
79.0542	135	C6H7+
95.0491	18	C6H7O+
97.0202	55	C5H6P+
109.0202	42	C6H6P+
125.0151	999	C6H6OP+
183.0359	122	C12H8P+
203.0621	168	C12H12OP+
