Mass spectrum: Telmisartan; LC-ESI-ITFT; MS2; CE: 90%; R=15000; [M+H]+
Name: Telmisartan
Name: 2-[4-[[4-methyl-6-(1-methylbenzimidazol-2-yl)-2-propylbenzimidazol-1-yl]methyl]phenyl]benzoic acid
Formula: C33H30N4O2
Exact mass: 514.2369
SMILES: CCCC1=NC2=C(C)C=C(C=C2N1CC1=CC=C(C=C1)C1=CC=CC=C1C(O)=O)C1=NC2=CC=CC=C2N1C
InChI: InChI=1S/C33H30N4O2/c1-4-9-30-35-31-21(2)18-24(32-34-27-12-7-8-13-28(27)36(32)3)19-29(31)37(30)20-22-14-16-23(17-15-22)25-10-5-6-11-26(25)33(38)39/h5-8,10-19H,4,9,20H2,1-3H3,(H,38,39)
Instrument: LTQ Orbitrap XL Thermo Scientific
Instrument type: LC-ESI-ITFT
Ms type: MS2
Ion mode: POSITIVE
Ionization: ESI
Fragmentation mode: HCD
Collision energy: 90% (nominal)
Resolution: 15000
Column name: Kinetex Evo C18 2.6 um 50 x 2.1 mm
Retention time: 10.377 min
Base peak: 515.2448
Precursor m/z: 515.2442
Precursor type: [M+H]+
m/z	relative intensity	assigned
79.0546	70	C6H7+
92.0499	48	C6H6N+
103.0422	22	C7H5N+
105.0338	33	C7H5O+
105.0449	33	C6H5N2+
106.0656	268	C7H8N+
115.0547	51	C9H7+
131.061	46	C8H7N2+
133.0289	64	C8H5O2+
144.0689	140	C9H8N2+
145.0767	61	C9H9N2+
152.0627	242	C12H8+
153.0705	105	C12H9+
154.078	50	C12H10+
155.0861	144	C12H11+
157.0767	40	C10H9N2+
165.0706	741	C13H9+
166.078	85	C13H10+
168.0575	46	C12H8O+
170.0719	39	C10H8N3+
171.0924	39	C11H11N2+
183.0813	85	C13H11O+
193.0656	396	C14H9O+
211.0762	272	C14H11O2+
221.1081	63	C15H13N2+
222.116	73	C15H14N2+
234.1034	179	C17H14O+
246.0913	67	C17H12NO+
247.099	54	C17H13NO+
247.1115	111	C18H15O+
260.1067	310	C18H14NO+
274.1224	392	C19H16NO+
288.138	89	C20H18NO+
289.1457	999	C18H17N4+
301.1454	48	C19H17N4+
302.154	22	C21H20NO+
303.1613	417	C21H21NO+
