Mass spectrum: Metobromuron; LC-ESI-ITFT; MS2; CE: 80%; R=15000; [M+H]+
Name: Metobromuron
Name: 3-(4-bromophenyl)-1-methoxy-1-methylurea
Formula: C9H11BrN2O2
Exact mass: 258.00039
SMILES: CON(C)C(=O)NC1=CC=C(Br)C=C1
InChI: InChI=1S/C9H11BrN2O2/c1-12(14-2)9(13)11-8-5-3-7(10)4-6-8/h3-6H,1-2H3,(H,11,13)
Instrument: LTQ Orbitrap XL Thermo Scientific
Instrument type: LC-ESI-ITFT
Ms type: MS2
Ion mode: POSITIVE
Ionization: ESI
Fragmentation mode: HCD
Collision energy: 80% (nominal)
Resolution: 15000
Column name: Kinetex Evo C18 2.6 um 50 x 2.1 mm
Retention time: 9.677 min
Base peak: 259.0087
Precursor m/z: 259.0077
Precursor type: [M+H]+
m/z	relative intensity	assigned
60.0443	45	C2H6NO+
61.0522	8	C2H7NO+
62.0599	31	C2H8NO+
65.0384	21	C5H5+
90.0342	25	C6H4N+
91.0418	999	C6H5N+
92.0496	152	C6H6N+
93.0576	11	C6H7N+
110.0603	13	C6H8NO+
119.0606	346	C7H7N2+
120.0683	8	C7H8N2+
131.0605	14	C8H7N2+
142.9494	302	C5H4Br+
147.0556	157	C8H7N2O+
148.0634	175	C8H8N2O+
169.9603	786	C6H5BrN+
170.9682	712	C6H6BrN+
183.9764	16	C7H7BrN+
226.9817	50	C8H8BrN2O+
