Mass spectrum: Pyraclostrobin; LC-ESI-ITFT; MS2; CE: 70%; R=15000; [M+Na]+
Name: Pyraclostrobin
Name: methyl N-[2-[[1-(4-chlorophenyl)pyrazol-3-yl]oxymethyl]phenyl]-N-methoxycarbamate
Formula: C19H18ClN3O4
Exact mass: 387.0986
SMILES: CON(C(=O)OC)C1=C(COC2=NN(C=C2)C2=CC=C(Cl)C=C2)C=CC=C1
InChI: InChI=1S/C19H18ClN3O4/c1-25-19(24)23(26-2)17-6-4-3-5-14(17)13-27-18-11-12-22(21-18)16-9-7-15(20)8-10-16/h3-12H,13H2,1-2H3
Instrument: LTQ Orbitrap XL Thermo Scientific
Instrument type: LC-ESI-ITFT
Ms type: MS2
Ion mode: POSITIVE
Ionization: ESI
Fragmentation mode: HCD
Collision energy: 70% (nominal)
Resolution: 15000
Column name: Kinetex Evo C18 2.6 um 50 x 2.1 mm
Retention time: 12.765 min
Base peak: 388.1067
Precursor m/z: 410.0878
Precursor type: [M+Na]+
m/z	relative intensity	assigned
141.0033	188	C3H4NNaO4+
152.0625	168	C12H8+
153.0701	99	C12H9+
181.0648	115	C13H9O+
189.0282	98	C4H9ClN3NaO2+
190.0359	481	C4H10ClN3NaO2+
217.023	55	C5H9ClN3NaO3+
252.9997	74	C8H7ClN2NaO4+
254.9968	999	C16H5ClNa+
