Mass spectrum: 2-Hydroxycarbamazepine; LC-ESI-ITFT; MS2; CE: 90%; R=15000; [M+H]+
Name: 2-Hydroxycarbamazepine
Name: 3-hydroxybenzo[b][1]benzazepine-11-carboxamide
Formula: C15H12N2O2
Exact mass: 252.08988
SMILES: NC(=O)N1C2=CC=CC=C2C=CC2=CC(O)=CC=C12
InChI: InChI=1S/C15H12N2O2/c16-15(19)17-13-4-2-1-3-10(13)5-6-11-9-12(18)7-8-14(11)17/h1-9,18H,(H2,16,19)
Instrument: LTQ Orbitrap XL Thermo Scientific
Instrument type: LC-ESI-ITFT
Ms type: MS2
Ion mode: POSITIVE
Ionization: ESI
Fragmentation mode: HCD
Collision energy: 90 % (nominal)
Resolution: 15000
Column name: Kinetex Evo C18 2.6 um 50 x 2.1 mm
Retention time: 8.436 min
Base peak: 253.0982
Precursor m/z: 253.0972
Precursor type: [M+H]+
m/z	relative intensity	assigned
91.0544	14	C7H7+
104.0497	19	C7H6N+
107.0494	9	C7H7O+
115.0545	18	C9H7+
116.0496	14	C8H6N+
117.0575	82	C8H7N+
132.0445	6	C8H6NO+
133.0523	11	C8H7NO+
141.0702	17	C11H9+
152.0623	44	C12H8+
153.0702	128	C12H9+
154.0657	16	C11H8N+
155.0859	23	C12H11+
156.0807	10	C11H10N+
165.0702	281	C13H9+
166.0654	36	C12H8N+
167.0733	999	C12H9N+
168.0811	13	C12H10N+
179.0733	31	C13H9N+
180.0812	524	C13H10N+
181.0651	117	C13H9O+
181.0889	245	C13H11N+
182.0967	386	C13H12N+
183.0683	29	C12H9NO+
183.0807	18	C13H11O+
190.0655	172	C14H8N+
191.0733	122	C14H9N+
192.0811	89	C14H10N+
193.089	202	C14H11N+
194.0605	9	C13H8NO+
194.0727	12	C14H10O+
195.0682	616	C13H9NO+
206.0603	27	C14H8NO+
207.0684	106	C14H9NO+
208.0761	872	C14H10NO+
209.0838	645	C14H11NO+
210.0915	685	C14H12NO+
