Mass spectrum: Isoxaben; LC-ESI-ITFT; MS2; CE: 20%; R=15000; [M+H]+
Name: Isoxaben
Name: 2,6-dimethoxy-N-[3-(3-methylpentan-3-yl)-1,2-oxazol-5-yl]benzamide
Formula: C18H24N2O4
Exact mass: 332.17361
SMILES: CCC(C)(CC)C1=NOC(NC(=O)C2=C(OC)C=CC=C2OC)=C1
InChI: InChI=1S/C18H24N2O4/c1-6-18(3,7-2)14-11-15(24-20-14)19-17(21)16-12(22-4)9-8-10-13(16)23-5/h8-11H,6-7H2,1-5H3,(H,19,21)
Instrument: LTQ Orbitrap XL Thermo Scientific
Instrument type: LC-ESI-ITFT
Ms type: MS2
Ion mode: POSITIVE
Ionization: ESI
Fragmentation mode: HCD
Collision energy: 20 % (nominal)
Resolution: 15000
Column name: Kinetex Evo C18 2.6 um 50 x 2.1 mm
Retention time: 11.495 min
Base peak: 333.1814
Precursor m/z: 333.1809
Precursor type: [M+H]+
m/z	relative intensity	assigned
150.0311	1	C8H6O3+
165.0545	999	C9H9O3+
222.0755	2	C11H12NO4+
333.1805	498	C18H25N2O4+
