Mass spectrum: Monensin; LC-ESI-ITFT; MS2; CE: 40%; R=15000; [M+Na]+
Name: Monensin
Name: Monensin A
Name: 4-[2-[5-ethyl-5-[5-[6-hydroxy-6-(hydroxymethyl)-3,5-dimethyloxan-2-yl]-3-methyloxolan-2-yl]oxolan-2-yl]-7-hydroxy-2,8-dimethyl-1,10-dioxaspiro[4.5]decan-9-yl]-3-methoxy-2-methylpentanoic acid
Formula: C36H62O11
Exact mass: 670.4292
SMILES: CCC1(CCC(O1)C1(C)CCC2(CC(O)C(C)C(O2)C(C)C(OC)C(C)C(O)=O)O1)C1OC(CC1C)C1OC(O)(CO)C(C)CC1C
InChI: InChI=1S/C36H62O11/c1-10-34(31-20(3)16-26(43-31)28-19(2)15-21(4)36(41,18-37)46-28)12-11-27(44-34)33(8)13-14-35(47-33)17-25(38)22(5)30(45-35)23(6)29(42-9)24(7)32(39)40/h19-31,37-38,41H,10-18H2,1-9H3,(H,39,40)
Instrument: LTQ Orbitrap XL Thermo Scientific
Instrument type: LC-ESI-ITFT
Ms type: MS2
Ion mode: POSITIVE
Ionization: ESI
Fragmentation mode: HCD
Collision energy: 40 % (nominal)
Resolution: 15000
Column name: Kinetex Evo C18 2.6 um 50 x 2.1 mm
Retention time: 14.851 min
Base peak: 693.4232
Precursor m/z: 693.4184
Precursor type: [M+Na]+
m/z	relative intensity	assigned
197.0783	25	C8H14NaO4+
322.012	18	C17H6O7+
443.2766	339	C25H40NaO5+
444.28	240	C32H37Na+
460.1277	24	C28H21NaO5+
461.2874	464	C25H42NaO6+
462.2907	248	C32H39NaO+
479.2979	174	C25H44NaO7+
480.3007	58	C32H41NaO2+
483.3085	163	C28H44NaO5+
484.311	141	C35H41Na+
501.3206	41	C28H46NaO6+
564.3789	39	C34H53NaO5+
575.3552	27	C33H51O8+
581.3808	65	C34H54NaO6+
582.3867	78	C34H55NaO6+
599.3962	42	C36H55O7+
600.3978	60	C34H57NaO7+
657.4004	114	C36H58NaO9+
658.4032	177	C36H59NaO9+
675.4099	837	C36H60NaO10+
676.4133	999	C36H61NaO10+
693.4212	561	C36H62NaO11+
