Mass spectrum: Testosterone; LC-ESI-ITFT; MS2; CE: 80%; R=15000; [M+Na]+
Name: Testosterone
Name: (8R,9S,10R,13S,14S,17S)-17-hydroxy-10,13-dimethyl-1,2,6,7,8,9,11,12,14,15,16,17-dodecahydrocyclopenta[a]phenanthren-3-one
Formula: C19H28O2
Exact mass: 288.2089
SMILES: C[C@]12CC[C@H]3[C@@H](CCC4=CC(=O)CC[C@]34C)[C@@H]1CC[C@@H]2O
InChI: InChI=1S/C19H28O2/c1-18-9-7-13(20)11-12(18)3-4-14-15-5-6-17(21)19(15,2)10-8-16(14)18/h11,14-17,21H,3-10H2,1-2H3/t14-,15-,16-,17-,18-,19-/m0/s1
Instrument: LTQ Orbitrap XL Thermo Scientific
Instrument type: LC-ESI-ITFT
Ms type: MS2
Ion mode: POSITIVE
Ionization: ESI
Fragmentation mode: HCD
Collision energy: 80% (nominal)
Resolution: 15000
Column name: Kinetex Evo C18 2.6 um 50 x 2.1 mm
Retention time: 11.320 min
Base peak: 289.2157
Precursor m/z: 311.1982
Precursor type: [M+Na]+
m/z	relative intensity	assigned
91.0538	524	C7H7+
93.0695	230	C7H9+
95.0487	33	C6H7O+
95.0851	84	C7H11+
103.0537	69	C8H7+
105.0331	135	C7H5O+
105.0694	316	C8H9+
107.0487	183	C7H7O+
107.085	98	C8H11+
109.0643	999	C7H9O+
115.0537	104	C9H7+
116.0618	31	C9H8+
117.0694	227	C9H9+
119.0492	18	C8H7O+
119.0851	199	C9H11+
121.0643	48	C8H9O+
121.1006	40	C9H13+
128.0615	118	C10H8+
129.0694	192	C10H9+
130.0775	49	C10H10+
131.0851	190	C10H11+
133.1008	55	C10H13+
135.0799	79	C9H11O+
141.0694	125	C11H9+
142.0771	88	C11H10+
143.0849	109	C11H11+
144.0574	18	C10H8O+
144.0931	20	C11H12+
145.0645	39	C10H9O+
147.08	47	C10H11O+
149.0957	38	C10H13O+
154.0771	53	C12H10+
155.0849	103	C12H11+
165.0693	59	C13H9+
166.0771	37	C13H10+
167.0847	62	C13H11+
171.0801	23	C12H11O+
171.1163	23	C13H15+
173.0957	21	C12H13O+
179.0851	33	C14H11+
193.1011	23	C15H13+
197.1319	16	C15H17+
201.1267	40	C14H17O+
