Mass spectrum: Metazachlor BH 479-11; LC-ESI-ITFT; MS2; CE: 80%; R=15000; [M+H]+
Name: Metazachlor BH 479-11
Name: Metazachlor metabolite M11
Name: N-(2,6-dimethylphenyl)-2-methylsulfinyl-N-(pyrazol-1-ylmethyl)acetamide
Formula: C15H19N3O2S
Exact mass: 305.1198
SMILES: CC1=CC=CC(C)=C1N(CN1C=CC=N1)C(=O)CS(C)=O
InChI: InChI=1S/C15H19N3O2S/c1-12-6-4-7-13(2)15(12)18(14(19)10-21(3)20)11-17-9-5-8-16-17/h4-9H,10-11H2,1-3H3
Instrument: LTQ Orbitrap XL Thermo Scientific
Instrument type: LC-ESI-ITFT
Ms type: MS2
Ion mode: POSITIVE
Ionization: ESI
Fragmentation mode: HCD
Collision energy: 80 % (nominal)
Resolution: 15000
Column name: Kinetex Evo C18 2.6 um 50 x 2.1 mm
Retention time: 7.869 min
Base peak: 306.1282
Precursor m/z: 306.1271
Precursor type: [M+H]+
m/z	relative intensity	assigned
61.0105	46	C2H5S+
62.9897	109	CH3OS+
77.0055	27	C2H5OS+
79.0542	8	C6H7+
103.0542	4	C8H7+
105.0005	117	C3H5O2S+
105.07	165	C8H9+
106.0777	2	C8H10+
107.0856	6	C8H11+
118.0652	4	C8H8N+
119.073	4	C8H9N+
123.081	2	C8H11O+
132.0809	40	C9H10N+
133.0763	8	C8H9N2+
133.0888	12	C9H11N+
134.0965	999	C9H12N+
135.0998	2	C4H13N3O2+
156.0812	10	C11H10N+
160.0758	6	C10H10NO+
175.0994	6	C11H13NO+
