Mass spectrum: Pyraclostrobin; LC-ESI-ITFT; MS2; CE: 90%; R=15000; [M+Na]+
Name: Pyraclostrobin
Name: methyl N-[2-[[1-(4-chlorophenyl)pyrazol-3-yl]oxymethyl]phenyl]-N-methoxycarbamate
Formula: C19H18ClN3O4
Exact mass: 387.0986
SMILES: CON(C(=O)OC)C1=C(COC2=NN(C=C2)C2=CC=C(Cl)C=C2)C=CC=C1
InChI: InChI=1S/C19H18ClN3O4/c1-25-19(24)23(26-2)17-6-4-3-5-14(17)13-27-18-11-12-22(21-18)16-9-7-15(20)8-10-16/h3-12H,13H2,1-2H3
Instrument: LTQ Orbitrap XL Thermo Scientific
Instrument type: LC-ESI-ITFT
Ms type: MS2
Ion mode: POSITIVE
Ionization: ESI
Fragmentation mode: HCD
Collision energy: 90% (nominal)
Resolution: 15000
Column name: Kinetex Evo C18 2.6 um 50 x 2.1 mm
Retention time: 12.765 min
Base peak: 388.1067
Precursor m/z: 410.0878
Precursor type: [M+Na]+
m/z	relative intensity	assigned
75.0227	78	C6H3+
129.07	29	C10H9+
139.0057	56	C6H4ClN2+
141.0028	999	C3H4NNaO4+
152.0621	352	C12H8+
153.0698	380	C12H9+
181.0646	175	C13H9O+
182.0683	14	C5H16ClNaO3+
188.0381	13	C12H9Cl+
189.0274	59	C4H9ClN3NaO2+
189.0422	13	C11H6N2Na+
190.0355	587	C4H10ClN3NaO2+
217.0224	75	C5H9ClN3NaO3+
218.0311	18	C7H12ClNaO4+
254.9962	121	C13H4ClN2O2+
268.9759	76	C16H3ClNaO+
