Mass spectrum: Clopidogrel; LC-ESI-ITFT; MS2; CE: 50%; R=15000; [M+H]+
Name: Clopidogrel
Name: Clopidogrelum
Name: methyl 2-(2-chlorophenyl)-2-(6,7-dihydro-4H-thieno[3,2-c]pyridin-5-yl)acetate
Formula: C16H16ClNO2S
Exact mass: 321.05903
SMILES: COC(=O)C(N1CCC2=C(C1)C=CS2)C1=CC=CC=C1Cl
InChI: InChI=1S/C16H16ClNO2S/c1-20-16(19)15(12-4-2-3-5-13(12)17)18-8-6-14-11(10-18)7-9-21-14/h2-5,7,9,15H,6,8,10H2,1H3
Instrument: LTQ Orbitrap XL Thermo Scientific
Instrument type: LC-ESI-ITFT
Ms type: MS2
Ion mode: POSITIVE
Ionization: ESI
Fragmentation mode: HCD
Collision energy: 50% (nominal)
Resolution: 15000
Column name: Kinetex Evo C18 2.6 um 50 x 2.1 mm
Retention time: 10.810 min
Base peak: 322.0674
Precursor m/z: 322.0663
Precursor type: [M+H]+
m/z	relative intensity	assigned
111.0263	10	C6H7S+
123.0263	3	C7H7S+
125.0154	102	C7H6Cl+
138.0374	2	C7H8NS+
139.0451	5	C7H9NS+
152.0264	508	C8H7ClN+
154.042	36	C8H9ClN+
155.0259	607	C8H8ClO+
183.021	521	C9H8ClO2+
184.0525	999	C9H11ClNO+
212.0475	252	C10H11ClNO2+
213.0503	1	C11H14ClS+
262.0453	6	C14H13ClNS+
