Mass spectrum: Azinphos methyl; LC-ESI-ITFT; MS2; CE: 40%; R=15000; [M+Na]+
Name: Azinphos methyl
Name: Azinphos-methyl
Name: 3-(dimethoxyphosphinothioylsulfanylmethyl)-1,2,3-benzotriazin-4-one
Formula: C10H12N3O3PS2
Exact mass: 317.0058
SMILES: COP(=S)(OC)SCN1N=NC2=CC=CC=C2C1=O
InChI: InChI=1S/C10H12N3O3PS2/c1-15-17(18,16-2)19-7-13-10(14)8-5-3-4-6-9(8)11-12-13/h3-6H,7H2,1-2H3
Instrument: LTQ Orbitrap XL Thermo Scientific
Instrument type: LC-ESI-ITFT
Ms type: MS2
Ion mode: POSITIVE
Ionization: ESI
Fragmentation mode: HCD
Collision energy: 40% (nominal)
Resolution: 15000
Column name: Kinetex Evo C18 2.6 um 50 x 2.1 mm
Retention time: 10.680 min
Base peak: 339.9954
Precursor m/z: 339.995
Precursor type: [M+Na]+
m/z	relative intensity	assigned
77.0385	63	C6H5+
95.0493	8	C6H7O+
104.0497	149	C3H9N2P+
105.0336	79	C3H8NOP+
105.0448	19	C6H5N2+
106.037	2	C2H6N2O3+
124.9823	2	C2H6O2PS+
130.0404	6	CH10N2O3S+
132.0446	999	C4H9N2OP+
133.0478	45	C3H7N3O3+
142.9929	1	C3H7NNaPS+
148.0219	2	C4H9N2PS+
150.0552	25	C4H11N2O2P+
160.0508	4	C8H6N3O+
164.0709	4	C9H10NO2+
