Mass spectrum: Warfarin; LC-ESI-ITFT; MS2; CE: 60%; R=15000; [M+H]+
Name: Warfarin
Name: 4-hydroxy-3-(3-oxo-1-phenylbutyl)chromen-2-one
Formula: C19H16O4
Exact mass: 308.10486
SMILES: CC(=O)CC(C1=CC=CC=C1)C1=C(O)C2=CC=CC=C2OC1=O
InChI: InChI=1S/C19H16O4/c1-12(20)11-15(13-7-3-2-4-8-13)17-18(21)14-9-5-6-10-16(14)23-19(17)22/h2-10,15,21H,11H2,1H3
Instrument: LTQ Orbitrap XL Thermo Scientific
Instrument type: LC-ESI-ITFT
Ms type: MS2
Ion mode: POSITIVE
Ionization: ESI
Fragmentation mode: HCD
Collision energy: 60 % (nominal)
Resolution: 15000
Column name: Kinetex Evo C18 2.6 um 50 x 2.1 mm
Retention time: 11.283 min
Base peak: 309.1131
Precursor m/z: 309.1121
Precursor type: [M+H]+
m/z	relative intensity	assigned
68.9968	3	C3HO2+
91.0542	18	C7H7+
105.0697	7	C8H9+
121.0284	191	C7H5O2+
128.0615	3	C10H8+
129.0699	62	C10H9+
131.0491	93	C9H7O+
147.0804	146	C10H11O+
155.0855	125	C12H11+
157.0284	23	C10H5O2+
163.039	999	C9H7O3+
165.07	13	C13H9+
167.0856	40	C13H11+
171.0805	19	C12H11O+
173.0233	190	C10H5O3+
175.0391	14	C10H7O3+
178.0777	21	C14H10+
179.0858	24	C14H11+
183.0805	276	C13H11O+
189.0546	20	C11H9O3+
191.0338	238	C10H7O4+
195.0803	19	C14H11O+
205.0489	5	C11H9O4+
205.0647	30	C15H9O+
207.0803	7	C15H11O+
223.0753	139	C15H11O2+
233.0598	47	C16H9O2+
251.0703	865	C16H11O3+
