Mass spectrum: N-Phenyl-1-naphthylamine; LC-ESI-ITFT; MS2; CE: 90%; R=15000; [M+H]+
Name: N-Phenyl-1-naphthylamine
Name: N-Phenyl-1-napthylamine
Name: N-phenylnaphthalen-1-amine
Formula: C16H13N
Exact mass: 219.10480
SMILES: N(C1=CC=CC=C1)C1=CC=CC2=C1C=CC=C2
InChI: InChI=1S/C16H13N/c1-2-9-14(10-3-1)17-16-12-6-8-13-7-4-5-11-15(13)16/h1-12,17H
Instrument: LTQ Orbitrap XL Thermo Scientific
Instrument type: LC-ESI-ITFT
Ms type: MS2
Ion mode: POSITIVE
Ionization: ESI
Fragmentation mode: HCD
Collision energy: 90% (nominal)
Resolution: 15000
Column name: Kinetex Evo C18 2.6 um 50 x 2.1 mm
Retention time: 12.695 min
Base peak: 220.1122
Precursor m/z: 220.1121
Precursor type: [M+H]+
m/z	relative intensity	assigned
65.0383	36	C5H5+
91.054	2	C7H7+
92.0494	109	C6H6N+
93.0571	100	C6H7N+
104.0495	2	C7H6N+
115.0541	160	C9H7+
116.0618	29	C9H8+
117.0696	1	C9H9+
127.054	8	C10H7+
128.0619	114	C10H8+
142.0651	15	C10H8N+
143.0727	999	C10H9N+
165.0699	1	C13H9+
178.0777	6	C14H10+
202.0774	33	C16H10+
203.0854	9	C16H11+
204.0805	14	C15H10N+
204.0935	2	C16H12+
217.0887	2	C16H11N+
218.0969	12	C16H12N+
219.1046	12	C16H13N+
220.112	5	C16H14N+
