Mass spectrum: 7-Amino-4-methylcoumarin; LC-ESI-ITFT; MS2; CE: 30%; R=15000; [M+H]+
Name: 7-Amino-4-methylcoumarin
Name: 7-amino-4-methylchromen-2-one
Formula: C10H9NO2
Exact mass: 175.06333
SMILES: CC1=CC(=O)OC2=CC(N)=CC=C12
InChI: InChI=1S/C10H9NO2/c1-6-4-10(12)13-9-5-7(11)2-3-8(6)9/h2-5H,11H2,1H3
Instrument: LTQ Orbitrap XL Thermo Scientific
Instrument type: LC-ESI-ITFT
Ms type: MS2
Ion mode: POSITIVE
Ionization: ESI
Fragmentation mode: HCD
Collision energy: 30% (nominal)
Resolution: 15000
Column name: Kinetex Evo C18 2.6 um 50 x 2.1 mm
Retention time: 6.818 min
Base peak: 176.0712
Precursor m/z: 176.0706
Precursor type: [M+H]+
m/z	relative intensity	assigned
132.0808	2	C9H10N+
176.0706	999	C10H10NO2+
