Mass spectrum: Norethindrone; LC-ESI-ITFT; MS2; CE: 60%; R=15000; [M+H]+
Name: Norethindrone
Name: (8R,9S,10R,13S,14S,17R)-17-ethynyl-17-hydroxy-13-methyl-1,2,6,7,8,9,10,11,12,14,15,16-dodecahydrocyclopenta[a]phenanthren-3-one
Formula: C20H26O2
Exact mass: 298.1933
SMILES: C[C@]12CC[C@H]3[C@@H](CCC4=CC(=O)CC[C@H]34)[C@@H]1CC[C@@]2(O)C#C
InChI: InChI=1S/C20H26O2/c1-3-20(22)11-9-18-17-6-4-13-12-14(21)5-7-15(13)16(17)8-10-19(18,20)2/h1,12,15-18,22H,4-11H2,2H3/t15-,16+,17+,18-,19-,20-/m0/s1
Instrument: LTQ Orbitrap XL Thermo Scientific
Instrument type: LC-ESI-ITFT
Ms type: MS2
Ion mode: POSITIVE
Ionization: ESI
Fragmentation mode: HCD
Collision energy: 60% (nominal)
Resolution: 15000
Column name: Kinetex Evo C18 2.6 um 50 x 2.1 mm
Retention time: 11.161 min
Base peak: 299.2009
Precursor m/z: 299.2006
Precursor type: [M+H]+
m/z	relative intensity	assigned
67.054	64	C5H7+
69.0696	16	C5H9+
79.054	139	C6H7+
81.0333	10	C5H5O+
81.0697	156	C6H9+
83.049	367	C5H7O+
91.0541	194	C7H7+
93.0697	179	C7H9+
95.049	17	C6H7O+
95.0854	108	C7H11+
97.0646	32	C6H9O+
103.0541	16	C8H7+
105.0697	255	C8H9+
107.049	131	C7H7O+
107.0854	132	C8H11+
109.0646	999	C7H9O+
109.101	95	C8H13+
111.0804	21	C7H11O+
115.054	32	C9H7+
117.0697	170	C9H9+
119.0853	287	C9H11+
121.0646	28	C8H9O+
121.1009	108	C9H13+
123.0803	68	C8H11O+
123.1166	22	C9H15+
128.0619	21	C10H8+
129.0696	102	C10H9+
130.0773	24	C10H10+
131.0853	239	C10H11+
133.0645	26	C9H9O+
133.1009	89	C10H13+
135.0802	168	C9H11O+
135.1165	31	C10H15+
137.0957	13	C9H13O+
141.0697	32	C11H9+
142.0773	17	C11H10+
143.0853	189	C11H11+
144.0929	13	C11H12+
145.101	229	C11H13+
147.0801	37	C10H11O+
147.1166	47	C11H15+
149.0958	88	C10H13O+
149.1323	7	C11H17+
154.0777	15	C12H10+
155.0852	50	C12H11+
156.093	36	C12H12+
157.0643	8	C11H9O+
157.1009	121	C12H13+
158.109	7	C12H14+
159.0801	26	C11H11O+
159.1166	76	C12H15+
161.0958	94	C11H13O+
161.1323	66	C12H17+
163.1114	62	C11H15O+
165.0698	14	C13H9+
167.0853	30	C13H11+
169.101	78	C13H13+
170.1087	12	C13H14+
171.0802	9	C12H11O+
171.1165	164	C13H15+
173.096	15	C12H13O+
173.1323	76	C13H17+
175.1116	45	C12H15O+
179.085	14	C14H11+
180.0937	7	C14H12+
181.1008	43	C14H13+
183.1165	44	C14H15+
185.0955	7	C13H13O+
185.1321	59	C14H17+
187.1114	16	C13H15O+
187.1475	15	C14H19+
188.1193	8	C13H16O+
189.127	11	C13H17O+
192.0938	6	C15H12+
193.1009	27	C15H13+
195.1163	28	C15H15+
197.1324	25	C15H17+
199.1111	7	C14H15O+
199.1481	16	C15H19+
201.1281	12	C14H17O+
207.1165	19	C16H15+
208.1247	9	C16H16+
209.132	17	C16H17+
211.1478	38	C16H19+
213.1635	79	C16H21+
221.1324	16	C17H17+
223.1475	22	C17H19+
225.1268	12	C16H17O+
231.1739	116	C16H23O+
235.1476	14	C18H19+
237.1635	9	C18H21+
263.1798	9	C20H23+
281.1906	13	C20H25O+
299.2005	12	C20H27O2+
