Mass spectrum: Triacetin; LC-ESI-ITFT; MS2; CE: 10%; R=15000; [M+Na]+
Name: Triacetin
Name: 2,3-diacetyloxypropyl acetate
Formula: C9H14O6
Exact mass: 218.0790
SMILES: CC(=O)OCC(COC(C)=O)OC(C)=O
InChI: InChI=1S/C9H14O6/c1-6(10)13-4-9(15-8(3)12)5-14-7(2)11/h9H,4-5H2,1-3H3
Instrument: LTQ Orbitrap XL Thermo Scientific
Instrument type: LC-ESI-ITFT
Ms type: MS2
Ion mode: POSITIVE
Ionization: ESI
Fragmentation mode: HCD
Collision energy: 10 % (nominal)
Resolution: 15000
Column name: Kinetex Evo C18 2.6 um 50 x 2.1 mm
Retention time: 6.896 min
Base peak: 159.0647
Precursor m/z: 241.0683
Precursor type: [M+Na]+
m/z	relative intensity	assigned
181.0465	155	C7H10NaO4+
241.0678	999	C9H14NaO6+
