Mass spectrum: Mycophenolic acid; LC-ESI-ITFT; MS2; CE: 60%; R=15000; [M-H]-
Name: Mycophenolic acid
Name: (E)-6-(4-hydroxy-6-methoxy-7-methyl-3-oxo-1H-2-benzofuran-5-yl)-4-methylhex-4-enoic acid
Formula: C17H20O6
Exact mass: 320.1260
SMILES: COC1=C(C)C2=C(C(=O)OC2)C(O)=C1C\C=C(/C)CCC(O)=O
InChI: InChI=1S/C17H20O6/c1-9(5-7-13(18)19)4-6-11-15(20)14-12(8-23-17(14)21)10(2)16(11)22-3/h4,20H,5-8H2,1-3H3,(H,18,19)/b9-4+
Instrument: LTQ Orbitrap XL Thermo Scientific
Instrument type: LC-ESI-ITFT
Ms type: MS2
Ion mode: NEGATIVE
Ionization: ESI
Fragmentation mode: HCD
Collision energy: 60% (nominal)
Resolution: 15000
Column name: Kinetex Evo C18 2.6 um 50 x 2.1 mm
Retention time: 10.757 min
Base peak: 91.0037
Precursor m/z: 319.1187
Precursor type: [M-H]-
m/z	relative intensity	assigned
179.0345	79	C9H7O4-
191.0348	198	C10H7O4-
207.0657	67	C11H11O4-
275.1285	411	C16H19O4-
287.0922	157	C16H15O5-
319.1186	999	C17H19O6-
