Mass spectrum: Michler`s ketone; LC-ESI-ITFT; MS2; CE: 70%; R=15000; [M+H]+
Name: Michler`s ketone
Name: bis[4-(dimethylamino)phenyl]methanone
Formula: C17H20N2O
Exact mass: 268.1576
SMILES: CN(C)C1=CC=C(C=C1)C(=O)C1=CC=C(C=C1)N(C)C
InChI: InChI=1S/C17H20N2O/c1-18(2)15-9-5-13(6-10-15)17(20)14-7-11-16(12-8-14)19(3)4/h5-12H,1-4H3
Instrument: LTQ Orbitrap XL Thermo Scientific
Instrument type: LC-ESI-ITFT
Ms type: MS2
Ion mode: POSITIVE
Ionization: ESI
Fragmentation mode: HCD
Collision energy: 70 % (nominal)
Resolution: 15000
Column name: Kinetex Evo C18 2.6 um 50 x 2.1 mm
Retention time: 11.848 min
Base peak: 116.9859
Precursor m/z: 269.1648
Precursor type: [M+H]+
m/z	relative intensity	assigned
77.0386	4	C6H5+
79.0543	30	C6H7+
80.0497	2	C5H6N+
91.0543	12	C7H7+
92.0497	2	C6H6N+
92.0622	4	C7H8+
93.0701	15	C7H9+
94.0654	1	C6H8N+
103.0544	8	C8H7+
105.045	2	C6H5N2+
105.0575	24	C7H7N+
110.0604	1	C6H8NO+
118.0654	6	C8H8N+
119.0732	3	C8H9N+
120.081	115	C8H10N+
148.0759	999	C9H10NO+
269.1656	1	C17H21N2O+
