Mass spectrum: Quinmerac; LC-ESI-ITFT; MS2; CE: 70%; R=15000; [M+Na]+
Name: Quinmerac
Name: 7-chloro-3-methylquinoline-8-carboxylic acid
Formula: C11H8ClNO2
Exact mass: 221.02436
SMILES: CC1=CC2=C(N=C1)C(C(O)=O)=C(Cl)C=C2
InChI: InChI=1S/C11H8ClNO2/c1-6-4-7-2-3-8(12)9(11(14)15)10(7)13-5-6/h2-5H,1H3,(H,14,15)
Instrument: LTQ Orbitrap XL Thermo Scientific
Instrument type: LC-ESI-ITFT
Ms type: MS2
Ion mode: POSITIVE
Ionization: ESI
Fragmentation mode: HCD
Collision energy: 70% (nominal)
Resolution: 15000
Column name: Kinetex Evo C18 2.6 um 50 x 2.1 mm
Retention time: 6.255 min
Base peak: 222.0429
Precursor m/z: 244.0136
Precursor type: [M+Na]+
m/z	relative intensity	assigned
59.0126	834	C2H3O2+
79.0542	999	C6H7+
91.0545	564	C7H7+
103.0543	518	C8H7+
106.0654	937	C7H8N+
115.0544	353	C9H7+
130.0652	336	C9H8N+
