Mass spectrum: 11-Ketotestosterone; LC-ESI-ITFT; MS2; CE: 70%; R=15000; [M+H]+
Name: 11-Ketotestosterone
Name: (8S,9S,10R,13S,14S,17S)-17-hydroxy-10,13-dimethyl-2,6,7,8,9,12,14,15,16,17-decahydro-1H-cyclopenta[a]phenanthrene-3,11-dione
Formula: C19H26O3
Exact mass: 302.18819
SMILES: C[C@]12CC(=O)[C@H]3[C@@H](CCC4=CC(=O)CC[C@]34C)[C@@H]1CC[C@@H]2O
InChI: InChI=1S/C19H26O3/c1-18-8-7-12(20)9-11(18)3-4-13-14-5-6-16(22)19(14,2)10-15(21)17(13)18/h9,13-14,16-17,22H,3-8,10H2,1-2H3/t13-,14-,16-,17+,18-,19-/m0/s1
Instrument: LTQ Orbitrap XL Thermo Scientific
Instrument type: LC-ESI-ITFT
Ms type: MS2
Ion mode: POSITIVE
Ionization: ESI
Fragmentation mode: HCD
Collision energy: 70 % (nominal)
Resolution: 15000
Column name: Kinetex Evo C18 2.6 um 50 x 2.1 mm
Retention time: 9.901 min
Base peak: 303.1955
Precursor m/z: 303.1955
Precursor type: [M+H]+
m/z	relative intensity	assigned
67.0539	66	C5H7+
69.0332	25	C4H5O+
69.0696	77	C5H9+
71.0488	40	C4H7O+
77.0384	10	C6H5+
79.054	110	C6H7+
81.0697	229	C6H9+
83.0489	92	C5H7O+
85.0646	21	C5H9O+
91.054	130	C7H7+
93.0697	292	C7H9+
95.049	52	C6H7O+
95.0853	212	C7H11+
97.0646	367	C6H9O+
99.0439	9	C5H7O2+
105.0697	289	C8H9+
107.0489	36	C7H7O+
107.0853	266	C8H11+
109.0646	116	C7H9O+
109.1009	37	C8H13+
111.0802	41	C7H11O+
115.0542	7	C9H7+
117.0697	67	C9H9+
119.0853	243	C9H11+
121.0645	999	C8H9O+
121.1009	94	C9H13+
123.0801	199	C8H11O+
125.096	4	C8H13O+
128.062	13	C10H8+
129.0696	51	C10H9+
130.0775	15	C10H10+
131.0852	235	C10H11+
133.0644	25	C9H9O+
133.1009	179	C10H13+
135.0801	104	C9H11O+
135.1165	41	C10H15+
137.0959	38	C9H13O+
141.0696	14	C11H9+
142.0774	18	C11H10+
143.0852	156	C11H11+
145.0645	26	C10H9O+
145.1009	268	C11H13+
146.072	6	C10H10O+
147.0801	184	C10H11O+
147.1165	64	C11H15+
149.0958	85	C10H13O+
151.1111	11	C10H15O+
154.0781	4	C12H10+
155.0852	74	C12H11+
156.0926	19	C12H12+
157.0642	9	C11H9O+
157.1009	119	C12H13+
158.0721	9	C11H10O+
159.0801	53	C11H11O+
159.1165	118	C12H15+
160.0876	3	C11H12O+
161.0958	143	C11H13O+
161.1322	37	C12H17+
162.1034	39	C11H14O+
163.1114	182	C11H15O+
165.0697	6	C13H9+
167.0857	14	C13H11+
168.0931	15	C13H12+
169.1009	70	C13H13+
170.1084	11	C13H14+
171.0801	44	C12H11O+
171.1165	117	C13H15+
173.0957	78	C12H13O+
173.132	31	C13H17+
174.1036	62	C12H14O+
175.1113	43	C12H15O+
177.1272	39	C12H17O+
179.0853	12	C14H11+
180.0932	6	C14H12+
181.1009	40	C14H13+
182.109	15	C14H14+
183.1164	108	C14H15+
184.0887	4	C13H12O+
184.1244	11	C14H16+
185.0957	35	C13H13O+
185.1322	63	C14H17+
186.1035	7	C13H14O+
187.1114	34	C13H15O+
187.1477	12	C14H19+
188.1194	23	C13H16O+
189.1271	144	C13H17O+
193.1008	19	C15H13+
194.109	12	C15H14+
195.1166	29	C15H15+
197.096	9	C14H13O+
197.1322	60	C15H17+
198.104	5	C14H14O+
199.1113	37	C14H15O+
199.1477	75	C15H19+
201.1269	77	C14H17O+
201.1632	6	C15H21+
202.1359	4	C14H18O+
203.1426	30	C14H19O+
207.1167	15	C16H15+
208.1245	10	C16H16+
209.1325	22	C16H17+
211.1115	13	C15H15O+
211.1481	13	C16H19+
212.1194	7	C15H16O+
213.127	26	C15H17O+
213.1636	21	C16H21+
215.1422	9	C15H19O+
217.1589	10	C15H21O+
221.1539	5	C14H21O2+
223.1477	43	C17H19+
225.1266	9	C16H17O+
225.1634	17	C17H21+
226.1354	20	C16H18O+
227.1429	49	C16H19O+
229.1219	23	C15H17O2+
234.1398	5	C18H18+
239.1436	5	C17H19O+
239.1796	12	C18H23+
241.1582	122	C17H21O+
242.1671	21	C17H22O+
243.1746	6	C17H23O+
244.1453	116	C16H20O2+
245.1547	18	C16H21O2+
249.164	4	C19H21+
259.1688	218	C17H23O2+
267.1734	11	C19H23O+
285.1843	8	C19H25O2+
