Mass spectrum: Metazachlor BH 479-9; LC-ESI-ITFT; MS2; CE: 40%; R=15000; [M+Na]+
Name: Metazachlor BH 479-9
Formula: C16H19N3O4S
Exact mass: 349.1096
SMILES: CC1=CC=CC(C)=C1N(CN1C=CC=N1)C(=O)CS(=O)CC(O)=O
InChI: InChI=1S/C16H19N3O4S/c1-12-5-3-6-13(2)16(12)19(11-18-8-4-7-17-18)14(20)9-24(23)10-15(21)22/h3-8H,9-11H2,1-2H3,(H,21,22)
Instrument: LTQ Orbitrap XL Thermo Scientific
Instrument type: LC-ESI-ITFT
Ms type: MS2
Ion mode: POSITIVE
Ionization: ESI
Fragmentation mode: HCD
Collision energy: 40% (nominal)
Resolution: 15000
Column name: Kinetex Evo C18 2.6 um 50 x 2.1 mm
Retention time: 8.338 min
Base peak: 350.1174
Precursor m/z: 372.0988
Precursor type: [M+Na]+
m/z	relative intensity	assigned
91.0271	13	C3H4N2Na+
146.0332	40	C7H7NaO2+
156.079	116	C3H17NaO3S+
170.0583	36	C3H15NaO4S+
170.9727	135	C4H4NaO4S+
185.0817	319	C4H18NaO4S+
197.082	16	C11H12NNaO+
245.0483	66	C11H12NNaO2S+
250.0952	999	C13H13N3NaO+
264.111	38	C16H17NaO2+
265.1185	234	C14H16N3NaO+
296.0828	88	C14H15N3NaOS+
298.0985	45	C14H17N3NaOS+
310.0984	116	C15H17N3NaOS+
313.0854	249	C14H16N3NaO2S+
