Mass spectrum: Thiophanate-methyl; LC-ESI-ITFT; MS2; CE: 90%; R=15000; [M+H]+
Name: Thiophanate-methyl
Name: CID 3085
Name: N`-methoxycarbonyl-N-[2-[(N-methoxycarbonyl-C-sulfanylcarbonimidoyl)amino]phenyl]carbamimidothioic acid
Formula: C12H14N4O4S2
Exact mass: 342.04565
SMILES: COC(=O)NC(=S)NC1=CC=CC=C1NC(=S)NC(=O)OC
InChI: InChI=1S/C12H14N4O4S2/c1-19-11(17)15-9(21)13-7-5-3-4-6-8(7)14-10(22)16-12(18)20-2/h3-6H,1-2H3,(H2,13,15,17,21)(H2,14,16,18,22)
Instrument: LTQ Orbitrap XL Thermo Scientific
Instrument type: LC-ESI-ITFT
Ms type: MS2
Ion mode: POSITIVE
Ionization: ESI
Fragmentation mode: HCD
Collision energy: 90% (nominal)
Resolution: 15000
Column name: Kinetex Evo C18 2.6 um 50 x 2.1 mm
Retention time: 8.979 min
Base peak: 343.0541
Precursor m/z: 343.0529
Precursor type: [M+H]+
m/z	relative intensity	assigned
59.0128	7	C2H3O2+
65.0387	24	C5H5+
74.0061	199	C2H4NS+
76.0396	61	C2H6NO2+
80.0497	5	C5H6N+
85.9698	244	C2NOS+
92.0499	249	C6H6N+
93.0577	470	C6H7N+
107.0608	39	C6H7N2+
108.0685	7	C6H8N2+
109.0765	94	C6H9N2+
117.0453	4	CH11NO3S+
117.9961	16	C3H4NO2S+
118.053	304	C7H6N2+
119.0608	74	C7H7N2+
122.0064	31	H10O3S2+
135.0554	8	C7H7N2O+
151.033	999	CH13NO3S2+
160.0512	169	C2H12N2O4S+
175.0209	12	C2H11N2O3S2+
177.0125	6	C2H11NO4S2+
