Mass spectrum: Dimethenamid; LC-ESI-ITFT; MS2; CE: 60%; R=15000; [M+Na]+
Name: Dimethenamid
Name: 2-chloro-N-(2,4-dimethylthiophen-3-yl)-N-(1-methoxypropan-2-yl)acetamide
Formula: C12H18ClNO2S
Exact mass: 275.07468
SMILES: COCC(C)N(C(=O)CCl)C1=C(C)SC=C1C
InChI: InChI=1S/C12H18ClNO2S/c1-8-7-17-10(3)12(8)14(11(15)5-13)9(2)6-16-4/h7,9H,5-6H2,1-4H3
Instrument: LTQ Orbitrap XL Thermo Scientific
Instrument type: LC-ESI-ITFT
Ms type: MS2
Ion mode: POSITIVE
Ionization: ESI
Fragmentation mode: HCD
Collision energy: 60% (nominal)
Resolution: 15000
Column name: Kinetex Evo C18 2.6 um 50 x 2.1 mm
Retention time: 10.874 min
Base peak: 276.0816
Precursor m/z: 298.0639
Precursor type: [M+Na]+
m/z	relative intensity	assigned
73.0645	560	C4H9O+
125.0418	999	C7H9S+
168.0476	555	C8H10NOS+
