Mass spectrum: Androsterone; LC-ESI-ITFT; MS2; CE: 30%; R=15000; [M+Na]+
Name: Androsterone
Name: (3R,5S,8R,9S,10S,13S,14S)-3-hydroxy-10,13-dimethyl-1,2,3,4,5,6,7,8,9,11,12,14,15,16-tetradecahydrocyclopenta[a]phenanthren-17-one
Formula: C19H30O2
Exact mass: 290.2246
SMILES: C[C@]12CC[C@H]3[C@@H](CC[C@H]4C[C@H](O)CC[C@]34C)[C@@H]1CCC2=O
InChI: InChI=1S/C19H30O2/c1-18-9-7-13(20)11-12(18)3-4-14-15-5-6-17(21)19(15,2)10-8-16(14)18/h12-16,20H,3-11H2,1-2H3/t12-,13+,14-,15-,16-,18-,19-/m0/s1
Instrument: LTQ Orbitrap XL Thermo Scientific
Instrument type: LC-ESI-ITFT
Ms type: MS2
Ion mode: POSITIVE
Ionization: ESI
Fragmentation mode: HCD
Collision energy: 30% (nominal)
Resolution: 15000
Column name: Kinetex Evo C18 2.6 um 50 x 2.1 mm
Retention time: 11.655 min
Base peak: 313.2151
Precursor m/z: 313.2138
Precursor type: [M+Na]+
m/z	relative intensity	assigned
93.0695	15	C7H9+
95.0851	17	C7H11+
105.0696	16	C8H9+
107.0488	17	C7H7O+
107.0852	18	C8H11+
109.0645	83	C7H9O+
109.1009	16	C8H13+
117.0696	11	C9H9+
119.0852	23	C9H11+
121.0647	7	C8H9O+
121.1009	17	C9H13+
123.0801	31	C8H11O+
123.1164	7	C9H15+
125.0958	17	C8H13O+
129.0696	7	C10H9+
131.0853	28	C10H11+
133.0642	8	C9H9O+
133.1009	52	C10H13+
135.0801	24	C9H11O+
135.1164	12	C10H15+
137.0956	5	C9H13O+
143.0851	14	C11H11+
145.1008	39	C11H13+
147.0802	8	C10H11O+
147.1165	26	C11H15+
149.0957	39	C10H13O+
149.1322	9	C11H17+
151.1113	6	C10H15O+
155.0852	4	C12H11+
157.0642	3	C11H9O+
157.1008	29	C12H13+
159.0799	10	C11H11O+
159.1163	55	C12H15+
161.1318	8	C12H17+
163.1111	23	C11H15O+
167.0852	4	C13H11+
169.1007	12	C13H13+
171.1162	25	C13H15+
173.0956	6	C12H13O+
173.1316	20	C13H17+
175.111	21	C12H15O+
175.1477	5	C13H19+
181.1004	7	C14H13+
185.1317	52	C14H17+
187.1474	35	C14H19+
189.1265	19	C13H17O+
192.0929	2	C15H12+
195.1161	13	C15H15+
197.1317	16	C15H17+
199.1109	9	C14H15O+
199.1472	27	C15H19+
201.1266	13	C14H17O+
203.1421	9	C14H19O+
205.1587	4	C14H21O+
207.1158	11	C16H15+
211.1472	9	C16H19+
213.1263	8	C15H17O+
213.1629	8	C16H21+
221.1314	15	C17H17+
225.1627	18	C17H21+
227.1424	4	C16H19O+
227.1784	37	C17H23+
239.1421	6	C17H19O+
239.1778	8	C16H24Na+
241.1564	9	C15H22NaO+
243.1727	10	C15H24NaO+
245.1886	252	C15H26NaO+
249.162	12	C17H22Na+
251.1778	7	C17H24Na+
266.1647	4	C17H23NaO+
267.1729	13	C17H24NaO+
277.1934	45	C19H26Na+
295.2038	122	C19H28NaO+
313.2143	999	C19H30NaO2+
