Mass spectrum: Diethylene glycol monobutyl ether; LC-ESI-ITFT; MS2; CE: 60%; R=15000; [M+H]+
Name: Diethylene glycol monobutyl ether
Name: 2-(2-butoxyethoxy)ethanol
Formula: C8H18O3
Exact mass: 162.1256
SMILES: CCCCOCCOCCO
InChI: InChI=1S/C8H18O3/c1-2-3-5-10-7-8-11-6-4-9/h9H,2-8H2,1H3
Instrument: LTQ Orbitrap XL Thermo Scientific
Instrument type: LC-ESI-ITFT
Ms type: MS2
Ion mode: POSITIVE
Ionization: ESI
Fragmentation mode: HCD
Collision energy: 60 % (nominal)
Resolution: 15000
Column name: Kinetex Evo C18 2.6 um 50 x 2.1 mm
Retention time: 7.377 min
Base peak: 163.1327
Precursor m/z: 163.1329
Precursor type: [M+H]+
m/z	relative intensity	assigned
89.0596	999	C4H9O2+
