Mass spectrum: Ciclopirox; LC-ESI-ITFT; MS2; CE: 50%; R=15000; [M+H]+
Name: Ciclopirox
Name: 6-cyclohexyl-1-hydroxy-4-methylpyridin-2-one
Formula: C12H17NO2
Exact mass: 207.1259
SMILES: CC1=CC(=O)N(O)C(=C1)C1CCCCC1
InChI: InChI=1S/C12H17NO2/c1-9-7-11(13(15)12(14)8-9)10-5-3-2-4-6-10/h7-8,10,15H,2-6H2,1H3
Instrument: LTQ Orbitrap XL Thermo Scientific
Instrument type: LC-ESI-ITFT
Ms type: MS2
Ion mode: POSITIVE
Ionization: ESI
Fragmentation mode: HCD
Collision energy: 50 % (nominal)
Resolution: 15000
Column name: Kinetex Evo C18 2.6 um 50 x 2.1 mm
Retention time: 11.858 min
Base peak: 116.9863
Precursor m/z: 208.1332
Precursor type: [M+H]+
m/z	relative intensity	assigned
53.0385	11	C4H5+
55.0542	4	C4H7+
67.0543	4	C5H7+
80.0498	8	C5H6N+
81.0702	42	C6H9+
82.0655	13	C5H8N+
94.0655	28	C6H8N+
105.0702	8	C8H9+
106.065	3	C7H8N+
110.0603	6	C6H8NO+
119.0861	4	C9H11+
120.0811	9	C8H10N+
122.0605	21	C7H8NO+
123.0683	28	C7H9NO+
136.0762	46	C8H10NO+
148.0763	8	C9H10NO+
162.0918	9	C10H12NO+
162.1284	45	C11H16N+
208.1339	999	C12H18NO2+
