Mass spectrum: Velvione; LC-ESI-ITFT; MS2; CE: 90%; R=15000; [M+Na]+
Name: Velvione
Name: 5-Cyclohexadecen-1-one
Name: cyclohexadec-5-en-1-one
Formula: C16H28O
Exact mass: NA
SMILES: O=C1CCCCCCCCCCC=CCCC1
InChI: InChI=1S/C16H28O/c17-16-14-12-10-8-6-4-2-1-3-5-7-9-11-13-15-16/h6,8H,1-5,7,9-15H2
Instrument: LTQ Orbitrap XL Thermo Scientific
Instrument type: LC-ESI-ITFT
Ms type: MS2
Ion mode: POSITIVE
Ionization: ESI
Fragmentation mode: HCD
Collision energy: 90 % (nominal)
Resolution: 15000
Column name: Kinetex Evo C18 2.6 um 50 x 2.1 mm
Retention time: 14.247 min
Base peak: 259.2052
Precursor m/z: 259.2032
Precursor type: [M+Na]+
m/z	relative intensity	assigned
57.0696	41	C4H9+
69.0695	55	C5H9+
83.0856	37	C6H11+
91.0542	77	C7H7+
93.0698	33	C7H9+
105.0698	299	C8H9+
117.07	59	C9H9+
119.0856	999	C9H11+
129.0698	202	C10H9+
131.0859	61	C10H11+
133.1013	312	C10H13+
143.0857	27	C11H11+
146.0722	33	C10H10O+
147.0805	649	C10H11O+
161.0959	92	C11H13O+
175.1116	459	C12H15O+
