Mass spectrum: TMDD; LC-ESI-ITFT; MS2; CE: 10%; R=15000; [M+Na]+
Name: TMDD
Name: 2,4,7,9-Tetramethyl-5-decyne-4,7-diol
Name: 2,4,7,9-tetramethyldec-5-yne-4,7-diol
Formula: C14H26O2
Exact mass: 226.1933
SMILES: CC(C)CC(C)(O)C#CC(C)(O)CC(C)C
InChI: InChI=1S/C14H26O2/c1-11(2)9-13(5,15)7-8-14(6,16)10-12(3)4/h11-12,15-16H,9-10H2,1-6H3
Instrument: LTQ Orbitrap XL Thermo Scientific
Instrument type: LC-ESI-ITFT
Ms type: MS2
Ion mode: POSITIVE
Ionization: ESI
Fragmentation mode: HCD
Collision energy: 10% (nominal)
Resolution: 15000
Column name: Kinetex Evo C18 2.6 um 50 x 2.1 mm
Retention time: 12.142 min
Base peak: 116.9864
Precursor m/z: 249.1825
Precursor type: [M+Na]+
m/z	relative intensity	assigned
249.1827	999	C14H26NaO2+
