Mass spectrum: Cyproterone; LC-ESI-ITFT; MS2; CE: 60%; R=15000; [M+H]+
Name: Cyproterone
Formula: C22H27ClO3
Exact mass: 374.16487
SMILES: CC(=O)[C@@]1(O)CC[C@H]2[C@@H]3C=C(Cl)C4=CC(=O)[C@@H]5C[C@@H]5[C@]4(C)[C@H]3CC[C@]12C
InChI: InChI=1S/C22H27ClO3/c1-11(24)22(26)7-5-14-12-9-18(23)17-10-19(25)13-8-16(13)21(17,3)15(12)4-6-20(14,22)2/h9-10,12-16,26H,4-8H2,1-3H3/t12-,13+,14-,15-,16-,20-,21-,22-/m0/s1
Instrument: LTQ Orbitrap XL Thermo Scientific
Instrument type: LC-ESI-ITFT
Ms type: MS2
Ion mode: POSITIVE
Ionization: ESI
Fragmentation mode: HCD
Collision energy: 60 % (nominal)
Resolution: 15000
Column name: Kinetex Evo C18 2.6 um 50 x 2.1 mm
Retention time: 11.744 min
Base peak: 303.232
Precursor m/z: 375.1721
Precursor type: [M+H]+
m/z	relative intensity	assigned
55.0179	58	C3H3O+
55.0543	72	C4H7+
59.0489	103	C3H7O+
61.0283	65	C2H5O2+
67.0542	123	C5H7+
69.0699	67	C5H9+
79.0543	173	C6H7+
81.07	185	C6H9+
83.0492	197	C5H7O+
85.0647	103	C5H9O+
87.0442	418	C4H7O2+
91.0543	221	C7H7+
93.07	427	C7H9+
95.0492	113	C6H7O+
95.0857	233	C7H11+
97.0649	136	C6H9O+
105.07	538	C8H9+
107.0857	370	C8H11+
109.0649	240	C7H9O+
109.1011	134	C8H13+
111.0806	371	C7H11O+
117.07	177	C9H9+
119.0858	561	C9H11+
121.0651	308	C8H9O+
121.1015	306	C9H13+
123.0805	105	C8H11O+
129.07	182	C10H9+
131.0857	409	C10H11+
133.0653	81	C9H9O+
133.1014	866	C10H13+
135.0808	130	C9H11O+
141.0697	63	C11H9+
142.0779	160	C11H10+
143.0856	406	C11H11+
145.065	278	C10H9O+
145.1015	515	C11H13+
147.0806	153	C10H11O+
147.117	620	C11H15+
149.0967	82	C10H13O+
155.0263	68	C8H8ClO+
155.0857	387	C12H11+
157.1014	484	C12H13+
159.0805	255	C11H11O+
159.1169	261	C12H15+
163.1116	84	C11H15O+
165.0466	99	C10H10Cl+
167.0861	96	C13H11+
169.1016	258	C13H13+
171.0807	134	C12H11O+
171.1171	201	C13H15+
173.096	103	C12H13O+
175.1121	294	C12H15O+
177.0466	222	C11H10Cl+
179.0252	72	C10H8ClO+
179.0622	74	C11H12Cl+
179.0856	156	C14H11+
181.042	217	C10H10ClO+
181.1013	332	C14H13+
182.1092	134	C14H14+
183.0812	172	C13H11O+
183.1171	356	C14H15+
184.0884	175	C13H12O+
185.0963	436	C13H13O+
189.0469	158	C12H10Cl+
191.0256	116	C11H8ClO+
191.0629	169	C12H12Cl+
193.0417	176	C11H10ClO+
193.1014	252	C15H13+
195.1171	396	C15H15+
197.0963	106	C14H13O+
197.1325	89	C15H17+
199.1114	101	C14H15O+
201.1277	70	C14H17O+
203.0623	136	C13H12Cl+
205.0417	118	C12H10ClO+
205.1014	138	C16H13+
207.0574	119	C12H12ClO+
207.1171	304	C16H15+
209.0971	176	C15H13O+
209.1324	248	C16H17+
211.1124	192	C15H15O+
217.0784	88	C14H14Cl+
217.1018	118	C17H13+
218.1094	82	C17H14+
219.0573	503	C13H12ClO+
219.0924	76	C14H16Cl+
219.1171	283	C17H15+
220.1249	132	C17H16+
221.1325	263	C17H17+
222.1041	92	C16H14O+
223.1124	248	C16H15O+
223.1486	128	C17H19+
224.1197	55	C16H16O+
225.1277	62	C16H17O+
229.0785	82	C15H14Cl+
231.1166	150	C18H15+
232.1249	69	C18H16+
233.133	244	C18H17+
234.1409	93	C18H18+
235.1127	150	C17H15O+
235.1483	343	C18H19+
236.12	140	C17H16O+
237.1274	278	C17H17O+
237.1639	97	C18H21+
239.1426	92	C17H19O+
245.0725	73	C15H14ClO+
245.1094	104	C16H18Cl+
245.1325	117	C19H17+
246.1405	126	C19H18+
247.1118	59	C18H15O+
247.1482	171	C19H19+
248.1199	75	C18H16O+
249.1271	163	C18H17O+
249.1643	210	C19H21+
250.1349	131	C18H18O+
250.1725	68	C19H22+
251.1436	242	C18H19O+
259.1485	95	C20H19+
260.1568	86	C20H20+
261.1637	232	C20H21+
262.1351	69	C19H18O+
263.1432	999	C19H19O+
264.1509	100	C19H20O+
277.1592	291	C20H21O+
278.1673	242	C20H22O+
279.1744	690	C20H23O+
293.1534	212	C20H21O2+
293.1892	55	C21H25O+
299.1187	109	C19H20ClO+
313.1357	69	C20H22ClO+
314.1422	83	C20H23ClO+
321.1849	107	C22H25O2+
