Mass spectrum: Ifosfamide; LC-ESI-ITFT; MS2; CE: 30%; R=15000; [M+H]+
Name: Ifosfamide
Name: N,3-bis(2-chloroethyl)-2-oxo-1,3,2lambda5-oxazaphosphinan-2-amine
Formula: C7H15Cl2N2O2P
Exact mass: NA
SMILES: ClCCNP1(=O)OCCCN1CCCl
InChI: InChI=1S/C7H15Cl2N2O2P/c8-2-4-10-14(12)11(6-3-9)5-1-7-13-14/h1-7H2,(H,10,12)
Instrument: LTQ Orbitrap XL Thermo Scientific
Instrument type: LC-ESI-ITFT
Ms type: MS2
Ion mode: POSITIVE
Ionization: ESI
Fragmentation mode: HCD
Collision energy: 30% (nominal)
Resolution: 15000
Column name: Kinetex Evo C18 2.6 um 50 x 2.1 mm
Retention time: 7.088 min
Base peak: 261.0332
Precursor m/z: 261.0321
Precursor type: [M+H]+
m/z	relative intensity	assigned
78.0104	36	C2H5ClN+
92.0262	54	C3H7ClN+
120.0575	15	C5H11ClN+
182.0134	81	C6H10Cl2NO+
200.024	31	C6H12Cl2NO2+
233.001	150	C5H12Cl2N2O2P+
261.0322	999	C7H16Cl2N2O2P+
