Mass spectrum: Prednisone; LC-ESI-ITFT; MS2; CE: 50%; R=15000; [M+H]+
Name: Prednisone
Name: (8S,9S,10R,13S,14S,17R)-17-hydroxy-17-(2-hydroxyacetyl)-10,13-dimethyl-6,7,8,9,12,14,15,16-octahydrocyclopenta[a]phenanthrene-3,11-dione
Formula: C21H26O5
Exact mass: 358.17802
SMILES: [H][C@@]12CC[C@](O)(C(=O)CO)[C@@]1(C)CC(=O)[C@@]1([H])[C@@]2([H])CCC2=CC(=O)C=C[C@]12C
InChI: InChI=1S/C21H26O5/c1-19-7-5-13(23)9-12(19)3-4-14-15-6-8-21(26,17(25)11-22)20(15,2)10-16(24)18(14)19/h5,7,9,14-15,18,22,26H,3-4,6,8,10-11H2,1-2H3/t14-,15-,18+,19-,20-,21-/m0/s1
Instrument: LTQ Orbitrap XL Thermo Scientific
Instrument type: LC-ESI-ITFT
Ms type: MS2
Ion mode: POSITIVE
Ionization: ESI
Fragmentation mode: HCD
Collision energy: 50% (nominal)
Resolution: 15000
Column name: Kinetex Evo C18 2.6 um 50 x 2.1 mm
Retention time: 9.457 min
Base peak: 359.1854
Precursor m/z: 359.1853
Precursor type: [M+H]+
m/z	relative intensity	assigned
79.0541	36	C6H7+
81.0697	122	C6H9+
93.0697	185	C7H9+
95.0491	83	C6H7O+
95.0853	172	C7H11+
97.0647	37	C6H9O+
105.0695	66	C8H9+
107.0853	138	C8H11+
109.0645	117	C7H9O+
111.0801	43	C7H11O+
117.0701	36	C9H9+
119.0854	66	C9H11+
121.0646	239	C8H9O+
123.0803	67	C8H11O+
135.0802	229	C9H11O+
139.075	38	C8H11O2+
145.0648	70	C10H9O+
147.0801	999	C10H11O+
159.0801	437	C11H11O+
161.0957	128	C11H13O+
163.0749	58	C10H11O2+
171.0801	546	C12H11O+
173.0957	331	C12H13O+
183.0801	83	C13H11O+
185.0957	94	C13H13O+
187.075	139	C12H11O2+
187.1113	142	C13H15O+
196.0883	41	C14H12O+
197.0958	291	C14H13O+
199.1114	206	C14H15O+
208.0887	42	C15H12O+
209.0957	152	C15H13O+
211.1113	146	C15H15O+
212.1199	41	C15H16O+
213.1272	72	C15H17O+
221.0956	103	C16H13O+
222.1035	121	C16H14O+
223.111	141	C16H15O+
225.1268	137	C16H17O+
227.1428	134	C16H19O+
235.1109	108	C17H15O+
237.127	464	C17H17O+
239.1425	139	C17H19O+
247.1113	36	C18H15O+
248.1187	67	C18H16O+
249.1266	191	C18H17O+
251.1423	72	C18H19O+
253.1221	97	C17H17O2+
253.1587	44	C18H21O+
255.1376	96	C17H19O2+
261.127	45	C19H17O+
262.135	71	C19H18O+
263.1423	152	C19H19O+
264.15	51	C19H20O+
265.1585	179	C19H21O+
275.1425	38	C20H19O+
277.1576	91	C20H21O+
281.1536	30	C19H21O2+
