Mass spectrum: 2-Hydroxyquinoline; LC-ESI-ITFT; MS2; CE: 20%; R=15000; [M+H]+
Name: 2-Hydroxyquinoline
Name: 1H-quinolin-2-one
Formula: C9H7NO
Exact mass: NA
SMILES: OC1=NC2=CC=CC=C2C=C1
InChI: InChI=1S/C9H7NO/c11-9-6-5-7-3-1-2-4-8(7)10-9/h1-6H,(H,10,11)
Instrument: LTQ Orbitrap XL Thermo Scientific
Instrument type: LC-ESI-ITFT
Ms type: MS2
Ion mode: POSITIVE
Ionization: ESI
Fragmentation mode: HCD
Collision energy: 20% (nominal)
Resolution: 15000
Column name: Kinetex Evo C18 2.6 um 50 x 2.1 mm
Retention time: 6.007 min
Base peak: 245.1367
Precursor m/z: 146.06
Precursor type: [M+H]+
m/z	relative intensity	assigned
146.0603	999	C9H8NO+
