Mass spectrum: N-Butylbenzenesulfonamide; LC-ESI-ITFT; MS2; CE: 10%; R=15000; [M+Na]+
Name: N-Butylbenzenesulfonamide
Formula: C10H15NO2S
Exact mass: 213.0823
SMILES: CCCCNS(=O)(=O)C1=CC=CC=C1
InChI: InChI=1S/C10H15NO2S/c1-2-3-9-11-14(12,13)10-7-5-4-6-8-10/h4-8,11H,2-3,9H2,1H3
Instrument: LTQ Orbitrap XL Thermo Scientific
Instrument type: LC-ESI-ITFT
Ms type: MS2
Ion mode: POSITIVE
Ionization: ESI
Fragmentation mode: HCD
Collision energy: 10% (nominal)
Resolution: 15000
Column name: Kinetex Evo C18 2.6 um 50 x 2.1 mm
Retention time: 9.723 min
Base peak: 204.1024
Precursor m/z: 236.0716
Precursor type: [M+Na]+
m/z	relative intensity	assigned
236.0718	999	C10H15NNaO2S+
