Mass spectrum: Monensin; LC-ESI-ITFT; MS2; CE: 70%; R=15000; [M+Na]+
Name: Monensin
Formula: C36H62O11
Exact mass: 670.4292
SMILES: CCC1(CCC(O1)C1(C)CCC2(CC(O)C(C)C(O2)C(C)C(OC)C(C)C(O)=O)O1)C1OC(CC1C)C1OC(O)(CO)C(C)CC1C
InChI: InChI=1S/C36H62O11/c1-10-34(31-20(3)16-26(43-31)28-19(2)15-21(4)36(41,18-37)46-28)12-11-27(44-34)33(8)13-14-35(47-33)17-25(38)22(5)30(45-35)23(6)29(42-9)24(7)32(39)40/h19-31,37-38,41H,10-18H2,1-9H3,(H,39,40)
Instrument: LTQ Orbitrap XL Thermo Scientific
Instrument type: LC-ESI-ITFT
Ms type: MS2
Ion mode: POSITIVE
Ionization: ESI
Fragmentation mode: HCD
Collision energy: 70 % (nominal)
Resolution: 15000
Column name: Kinetex Evo C18 2.6 um 50 x 2.1 mm
Retention time: 14.912 min
Base peak: 693.4215
Precursor m/z: 693.4184
Precursor type: [M+Na]+
m/z	relative intensity	assigned
443.276	416	C25H40NaO5+
444.2795	157	C32H37Na+
461.2869	999	C25H42NaO6+
462.2898	434	C32H39NaO+
479.2975	560	C25H44NaO7+
480.3025	289	C34H40O2+
501.3184	182	C28H46NaO6+
