Mass spectrum: Metobromuron; LC-ESI-ITFT; MS2; CE: 90%; R=15000; [M+H]+
Name: Metobromuron
Name: 3-(4-bromophenyl)-1-methoxy-1-methylurea
Formula: C9H11BrN2O2
Exact mass: 258.00039
SMILES: CON(C)C(=O)NC1=CC=C(Br)C=C1
InChI: InChI=1S/C9H11BrN2O2/c1-12(14-2)9(13)11-8-5-3-7(10)4-6-8/h3-6H,1-2H3,(H,11,13)
Instrument: LTQ Orbitrap XL Thermo Scientific
Instrument type: LC-ESI-ITFT
Ms type: MS2
Ion mode: POSITIVE
Ionization: ESI
Fragmentation mode: HCD
Collision energy: 90% (nominal)
Resolution: 15000
Column name: Kinetex Evo C18 2.6 um 50 x 2.1 mm
Retention time: 9.677 min
Base peak: 259.0087
Precursor m/z: 259.0077
Precursor type: [M+H]+
m/z	relative intensity	assigned
60.0444	30	C2H6NO+
61.0523	4	C2H7NO+
62.06	15	C2H8NO+
65.0386	71	C5H5+
90.0341	28	C6H4N+
91.042	999	C6H5N+
92.0498	217	C6H6N+
93.0575	13	C6H7N+
110.0606	21	C6H8NO+
119.0608	337	C7H7N2+
120.0686	8	C7H8N2+
131.0609	12	C8H7N2+
142.9496	345	C5H4Br+
147.0559	112	C8H7N2O+
148.0637	78	C8H8N2O+
169.9607	444	C6H5BrN+
170.9685	509	C6H6BrN+
183.9764	10	C7H7BrN+
226.9822	28	C8H8BrN2O+
