Mass spectrum: Pyriproxyfen; LC-ESI-ITFT; MS2; CE: 70%; R=15000; [M+H]+
Name: Pyriproxyfen
Name: 2-[1-(4-phenoxyphenoxy)propan-2-yloxy]pyridine
Formula: C20H19NO3
Exact mass: 321.1365
SMILES: CC(COC1=CC=C(OC2=CC=CC=C2)C=C1)OC1=CC=CC=N1
InChI: InChI=1S/C20H19NO3/c1-16(23-20-9-5-6-14-21-20)15-22-17-10-12-19(13-11-17)24-18-7-3-2-4-8-18/h2-14,16H,15H2,1H3
Instrument: LTQ Orbitrap XL Thermo Scientific
Instrument type: LC-ESI-ITFT
Ms type: MS2
Ion mode: POSITIVE
Ionization: ESI
Fragmentation mode: HCD
Collision energy: 70% (nominal)
Resolution: 15000
Column name: Kinetex Evo C18 2.6 um 50 x 2.1 mm
Retention time: 13.619 min
Base peak: 322.1449
Precursor m/z: 322.1438
Precursor type: [M+H]+
m/z	relative intensity	assigned
55.0177	1	C3H3O+
65.0386	1	C5H5+
77.0386	92	C6H5+
78.0339	39	C5H4N+
79.0542	4	C6H7+
91.0544	30	C7H7+
94.0416	2	C6H6O+
95.0493	19	C6H7O+
96.0445	999	C5H6NO+
103.0541	2	C8H7+
105.07	36	C8H9+
106.0777	4	C8H10+
107.0493	5	C7H7O+
115.0543	28	C9H7+
116.0622	3	C9H8+
117.07	2	C9H9+
119.0493	199	C8H7O+
123.0673	4	C7H9NO+
128.0623	27	C10H8+
129.07	233	C10H9+
131.0496	2	C9H7O+
133.0649	28	C9H9O+
134.0728	65	C9H10O+
136.0759	7	C8H10NO+
141.0701	87	C11H9+
145.0649	1	C10H9O+
153.0699	7	C12H9+
157.065	43	C11H9O+
165.0701	3	C13H9+
166.0783	3	C13H10+
168.0573	2	C12H8O+
169.0648	6	C12H9O+
170.0727	8	C12H10O+
171.0807	4	C12H11O+
181.0648	5	C13H9O+
185.06	142	C12H9O2+
194.0728	4	C14H10O+
197.06	3	C13H9O2+
199.0756	4	C13H11O2+
