Mass spectrum: Hydrocortisonacetate; LC-ESI-ITFT; MS2; CE: 70%; R=15000; [M+H]+
Name: Hydrocortisonacetate
Name: Hydrocortisone acetate
Name: [2-[(8S,9S,10R,11S,13S,14S,17R)-11,17-dihydroxy-10,13-dimethyl-3-oxo-2,6,7,8,9,11,12,14,15,16-decahydro-1H-cyclopenta[a]phenanthren-17-yl]-2-oxoethyl] acetate
Formula: C23H32O6
Exact mass: 404.2199
SMILES: [H][C@@]12CC[C@](O)(C(=O)COC(C)=O)[C@@]1(C)C[C@H](O)[C@@]1([H])[C@@]2([H])CCC2=CC(=O)CC[C@]12C
InChI: InChI=1S/C23H32O6/c1-13(24)29-12-19(27)23(28)9-7-17-16-5-4-14-10-15(25)6-8-21(14,2)20(16)18(26)11-22(17,23)3/h10,16-18,20,26,28H,4-9,11-12H2,1-3H3/t16-,17-,18-,20+,21-,22-,23-/m0/s1
Instrument: LTQ Orbitrap XL Thermo Scientific
Instrument type: LC-ESI-ITFT
Ms type: MS2
Ion mode: POSITIVE
Ionization: ESI
Fragmentation mode: HCD
Collision energy: 70% (nominal)
Resolution: 15000
Column name: Kinetex Evo C18 2.6 um 50 x 2.1 mm
Retention time: 10.716 min
Base peak: 271.1696
Precursor m/z: 405.2272
Precursor type: [M+H]+
m/z	relative intensity	assigned
67.054	75	C5H7+
69.0332	30	C4H5O+
69.0695	51	C5H9+
77.0383	23	C6H5+
79.054	150	C6H7+
81.0697	201	C6H9+
83.0489	130	C5H7O+
91.054	209	C7H7+
93.0697	256	C7H9+
95.0491	37	C6H7O+
95.0854	148	C7H11+
97.0646	613	C6H9O+
99.044	57	C5H7O2+
105.0697	440	C8H9+
107.049	63	C7H7O+
107.0853	208	C8H11+
109.0646	383	C7H9O+
117.0697	167	C9H9+
119.0853	542	C9H11+
121.0646	999	C8H9O+
121.1009	51	C9H13+
123.0802	336	C8H11O+
128.0618	66	C10H8+
129.0696	177	C10H9+
130.0775	25	C10H10+
131.0853	332	C10H11+
133.0646	77	C9H9O+
133.101	175	C10H13+
135.0802	143	C9H11O+
141.0695	120	C11H9+
142.0775	85	C11H10+
143.0853	385	C11H11+
144.0934	30	C11H12+
145.0648	53	C10H9O+
145.101	396	C11H13+
147.0804	130	C10H11O+
147.1166	157	C11H15+
149.0958	67	C10H13O+
154.0772	67	C12H10+
155.0853	197	C12H11+
156.0932	52	C12H12+
157.1009	314	C12H13+
159.0802	99	C11H11O+
159.1165	243	C12H15+
161.096	110	C11H13O+
163.1115	312	C11H15O+
165.0695	46	C13H9+
166.0771	23	C13H10+
167.0851	100	C13H11+
168.0928	50	C13H12+
169.1009	250	C13H13+
171.0805	69	C12H11O+
171.1165	158	C13H15+
173.0959	131	C12H13O+
173.1323	47	C13H17+
174.1045	18	C12H14O+
175.1117	85	C12H15O+
179.0851	46	C14H11+
180.0927	38	C14H12+
181.1009	117	C14H13+
182.1085	36	C14H14+
183.1165	208	C14H15+
185.0958	76	C13H13O+
185.1324	118	C14H17+
187.1111	79	C13H15O+
189.1266	38	C13H17O+
192.093	32	C15H12+
193.101	62	C15H13+
194.109	42	C15H14+
195.1165	124	C15H15+
197.0953	51	C14H13O+
197.1323	97	C15H17+
199.1112	63	C14H15O+
199.1478	60	C15H19+
201.127	34	C14H17O+
205.1005	30	C16H13+
206.1095	27	C16H14+
207.1168	67	C16H15+
208.1239	33	C16H16+
209.1319	78	C16H17+
211.1113	56	C15H15O+
211.1479	39	C16H19+
213.1271	107	C15H17O+
219.1166	25	C17H15+
221.1319	53	C17H17+
223.1125	22	C16H15O+
223.148	71	C17H19+
225.1276	40	C16H17O+
226.135	64	C16H18O+
227.1434	38	C16H19O+
239.1425	40	C17H19O+
241.1585	63	C17H21O+
253.1583	75	C18H21O+
