Mass spectrum: Spiroxamine; LC-ESI-ITFT; MS2; CE: 90%; R=15000; [M+Na]+
Name: Spiroxamine
Name: N-[(8-tert-butyl-1,4-dioxaspiro[4.5]decan-3-yl)methyl]-N-ethylpropan-1-amine
Formula: C18H35NO2
Exact mass: 297.26678
SMILES: CCCN(CC)CC1COC2(CCC(CC2)C(C)(C)C)O1
InChI: InChI=1S/C18H35NO2/c1-6-12-19(7-2)13-16-14-20-18(21-16)10-8-15(9-11-18)17(3,4)5/h15-16H,6-14H2,1-5H3
Instrument: LTQ Orbitrap XL Thermo Scientific
Instrument type: LC-ESI-ITFT
Ms type: MS2
Ion mode: POSITIVE
Ionization: ESI
Fragmentation mode: HCD
Collision energy: 90% (nominal)
Resolution: 15000
Column name: Kinetex Evo C18 2.6 um 50 x 2.1 mm
Retention time: 9.755 min
Base peak: 116.986
Precursor m/z: 320.256
Precursor type: [M+Na]+
m/z	relative intensity	assigned
57.0697	394	C4H9+
70.0651	228	C4H8N+
91.0544	108	C7H7+
105.0702	376	C8H9+
107.0856	93	C8H11+
110.0966	184	C7H12N+
117.0702	391	C9H9+
119.0857	524	C9H11+
128.1073	965	C7H14NO+
132.0937	999	C10H12+
147.1172	689	C11H15+
