Mass spectrum: Nicosulfuron; LC-ESI-ITFT; MS2; CE: 50%; R=15000; [M-H]-
Name: Nicosulfuron
Name: 2-[(4,6-dimethoxypyrimidin-2-yl)carbamoylsulfamoyl]-N,N-dimethylpyridine-3-carboxamide
Formula: C15H18N6O6S
Exact mass: 410.1009
SMILES: COC1=CC(OC)=NC(NC(=O)NS(=O)(=O)C2=NC=CC=C2C(=O)N(C)C)=N1
InChI: InChI=1S/C15H18N6O6S/c1-21(2)13(22)9-6-5-7-16-12(9)28(24,25)20-15(23)19-14-17-10(26-3)8-11(18-14)27-4/h5-8H,1-4H3,(H2,17,18,19,20,23)
Instrument: LTQ Orbitrap XL Thermo Scientific
Instrument type: LC-ESI-ITFT
Ms type: MS2
Ion mode: NEGATIVE
Ionization: ESI
Fragmentation mode: HCD
Collision energy: 50% (nominal)
Resolution: 15000
Column name: Kinetex Evo C18 2.6 um 50 x 2.1 mm
Retention time: 9.119 min
Base peak: 91.004
Precursor m/z: 409.0936
Precursor type: [M-H]-
m/z	relative intensity	assigned
122.0364	25	C5H4N3O-
154.0625	999	C6H8N3O2-
164.0829	15	C8H10N3O-
210.0347	14	C8H8N3O2S-
228.0453	81	C8H10N3O3S-
