Mass spectrum: Methyltriphenylphosphonium; LC-ESI-ITFT; MS2; CE: 60%; R=15000; [M]+
Name: Methyltriphenylphosphonium
Name: Triphenylmethylphosphonium
Name: methyl(triphenyl)phosphanium
Formula: C19H18P
Exact mass: 277.1146
SMILES: C[P+](C1=CC=CC=C1)(C1=CC=CC=C1)C1=CC=CC=C1
InChI: InChI=1S/C19H18P/c1-20(17-11-5-2-6-12-17,18-13-7-3-8-14-18)19-15-9-4-10-16-19/h2-16H,1H3/q+1
Instrument: LTQ Orbitrap XL Thermo Scientific
Instrument type: LC-ESI-ITFT
Ms type: MS2
Ion mode: POSITIVE
Ionization: ESI
Fragmentation mode: HCD
Collision energy: 60% (nominal)
Resolution: 15000
Column name: Kinetex Evo C18 2.6 um 50 x 2.1 mm
Retention time: 7.091 min
Base peak: 277.1148
Precursor m/z: 277.1141
Precursor type: [M]+
m/z	relative intensity	assigned
108.0123	23	C6H5P+
183.0357	4	C12H8P+
184.0435	9	C12H9P+
185.0514	7	C12H10P+
200.0751	4	C13H13P+
261.0829	23	C18H14P+
262.0909	53	C18H15P+
277.1141	999	C19H18P+
