Mass spectrum: Quinoxyfen; LC-ESI-ITFT; MS2; CE: 80%; R=15000; [M+H]+
Name: Quinoxyfen
Name: 5,7-dichloro-4-(4-fluorophenoxy)quinoline
Formula: C15H8Cl2FNO
Exact mass: 306.9967
SMILES: FC1=CC=C(OC2=C3C(Cl)=CC(Cl)=CC3=NC=C2)C=C1
InChI: InChI=1S/C15H8Cl2FNO/c16-9-7-12(17)15-13(8-9)19-6-5-14(15)20-11-3-1-10(18)2-4-11/h1-8H
Instrument: LTQ Orbitrap XL Thermo Scientific
Instrument type: LC-ESI-ITFT
Ms type: MS2
Ion mode: POSITIVE
Ionization: ESI
Fragmentation mode: HCD
Collision energy: 80 % (nominal)
Resolution: 15000
Column name: Kinetex Evo C18 2.6 um 50 x 2.1 mm
Retention time: 13.421 min
Base peak: 308.0047
Precursor m/z: 308.004
Precursor type: [M+H]+
m/z	relative intensity	assigned
75.0228	32	C6H3+
83.029	5	C5H4F+
93.0332	2	C6H5O+
95.0291	66	C6H4F+
109.0446	4	C7H6F+
111.0242	2	C6H4FO+
112.0316	3	C6H5FO+
113.0397	29	C6H6FO+
114.0338	5	C8H4N+
115.0416	12	C8H5N+
122.9996	41	C7H4Cl+
132.0442	4	C8H6NO+
150.0105	115	C8H5ClN+
156.9602	2	C7H3Cl2+
162.0104	396	C9H5ClN+
168.021	27	C8H7ClNO+
169.9683	11	C8H4Cl2+
178.0055	8	C9H5ClNO+
179.0133	15	C9H6ClNO+
180.0209	7	C9H7ClNO+
182.0518	2	C13H7F+
183.0604	12	C13H8F+
183.9715	18	C8H4Cl2N+
184.9792	81	C8H5Cl2N+
190.065	6	C14H8N+
195.9718	7	C9H4Cl2N+
196.9793	999	C9H5Cl2N+
208.0555	10	C14H7FN+
209.0634	47	C14H8FN+
210.0713	30	C14H9FN+
212.974	15	C9H5Cl2NO+
213.982	604	C9H6Cl2NO+
217.0213	9	C13H7ClF+
219.0243	9	C12H7ClFN+
224.0261	4	C14H7ClN+
225.0338	27	C14H8ClN+
226.0424	5	C14H9ClN+
237.0583	71	C15H8FNO+
238.0669	9	C15H9FNO+
243.0246	12	C14H7ClFN+
244.0322	57	C14H8ClFN+
245.0401	88	C14H9ClFN+
253.0288	13	C15H8ClNO+
254.0376	7	C15H9ClNO+
255.0256	3	C15H7ClFN+
260.0031	3	C14H8Cl2N+
272.027	134	C15H8ClFNO+
279.0015	3	C14H8Cl2FN+
280.0097	8	C14H9Cl2FN+
287.9971	8	C15H8Cl2NO+
289.9924	2	C15H7Cl2FN+
308.0039	46	C15H9Cl2FNO+
