Mass spectrum: 7-Hydroxymethotrexate; LC-ESI-ITFT; MS2; CE: 100%; R=15000; [M-H]-
Name: 7-Hydroxymethotrexate
Name: CID 100833
Name: (2S)-2-[[4-[(2,4-diamino-7-oxo-3H-pteridin-6-yl)methyl-methylamino]benzoyl]amino]pentanedioic acid
Formula: C20H22N8O6
Exact mass: 470.1662
SMILES: CN(CC1=NC2=C(N=C(N)N=C2N)N=C1O)C1=CC=C(C=C1)C(=O)N[C@@H](CCC(O)=O)C(O)=O
InChI: InChI=1S/C20H22N8O6/c1-28(8-12-18(32)26-16-14(23-12)15(21)25-20(22)27-16)10-4-2-9(3-5-10)17(31)24-11(19(33)34)6-7-13(29)30/h2-5,11H,6-8H2,1H3,(H,24,31)(H,29,30)(H,33,34)(H5,21,22,25,26,27,32)/t11-/m0/s1
Instrument: LTQ Orbitrap XL Thermo Scientific
Instrument type: LC-ESI-ITFT
Ms type: MS2
Ion mode: NEGATIVE
Ionization: ESI
Fragmentation mode: HCD
Collision energy: 100 % (nominal)
Resolution: 15000
Column name: Kinetex Evo C18 2.6 um 50 x 2.1 mm
Retention time: 7.368 min
Base peak: 469.1578
Precursor m/z: 469.159
Precursor type: [M-H]-
m/z	relative intensity	assigned
106.0661	213	C7H8N-
147.0317	201	C6H3N4O-
150.0557	199	C8H8NO2-
161.0718	249	C9H9N2O-
189.0532	279	C7H5N6O-
190.0609	999	C7H6N6O-
