Mass spectrum: Diphenhydramine; LC-ESI-ITFT; MS2; CE: 30%; R=15000; [M+H]+
Name: Diphenhydramine
Name: 2-benzhydryloxy-N,N-dimethylethanamine
Formula: C17H21NO
Exact mass: 255.16231
SMILES: CN(C)CCOC(C1=CC=CC=C1)C1=CC=CC=C1
InChI: InChI=1S/C17H21NO/c1-18(2)13-14-19-17(15-9-5-3-6-10-15)16-11-7-4-8-12-16/h3-12,17H,13-14H2,1-2H3
Instrument: LTQ Orbitrap XL Thermo Scientific
Instrument type: LC-ESI-ITFT
Ms type: MS2
Ion mode: POSITIVE
Ionization: ESI
Fragmentation mode: HCD
Collision energy: 30% (nominal)
Resolution: 15000
Column name: Kinetex Evo C18 2.6 um 50 x 2.1 mm
Retention time: 7.323 min
Base peak: 256.1708
Precursor m/z: 256.1696
Precursor type: [M+H]+
m/z	relative intensity	assigned
88.0757	1	C4H10NO+
165.07	2	C13H9+
167.0858	999	C13H11+
