Mass spectrum: Finasteride; LC-ESI-ITFT; MS2; CE: 80%; R=15000; [M+H]+
Name: Finasteride
Name: (1S,3aS,3bS,5aR,9aR,9bS,11aS)-N-tert-butyl-9a,11a-dimethyl-7-oxo-1,2,3,3a,3b,4,5,5a,6,9b,10,11-dodecahydroindeno[5,4-f]quinoline-1-carboxamide
Formula: C23H36N2O2
Exact mass: 372.2777
SMILES: CC(C)(C)NC(=O)[C@H]1CC[C@H]2[C@@H]3CC[C@H]4NC(=O)C=C[C@]4(C)[C@H]3CC[C@]12C
InChI: InChI=1S/C23H36N2O2/c1-21(2,3)25-20(27)17-8-7-15-14-6-9-18-23(5,13-11-19(26)24-18)16(14)10-12-22(15,17)4/h11,13-18H,6-10,12H2,1-5H3,(H,24,26)(H,25,27)/t14-,15-,16-,17+,18+,22-,23+/m0/s1
Instrument: LTQ Orbitrap XL Thermo Scientific
Instrument type: LC-ESI-ITFT
Ms type: MS2
Ion mode: POSITIVE
Ionization: ESI
Fragmentation mode: HCD
Collision energy: 80 % (nominal)
Resolution: 15000
Column name: Kinetex Evo C18 2.6 um 50 x 2.1 mm
Retention time: 11.836 min
Base peak: 373.2855
Precursor m/z: 373.285
Precursor type: [M+H]+
m/z	relative intensity	assigned
55.0176	10	C3H3O+
67.0541	123	C5H7+
69.0333	999	C4H5O+
70.065	35	C4H8N+
72.0443	146	C3H6NO+
72.0806	13	C4H10N+
77.0386	9	C6H5+
79.0542	164	C6H7+
81.0698	365	C6H9+
82.065	15	C5H8N+
83.0855	40	C6H11+
86.0601	80	C4H8NO+
91.0542	143	C7H7+
93.0699	444	C7H9+
94.0733	23	C2H10N2O2+
95.0855	962	C7H11+
96.0444	119	C5H6NO+
96.0808	18	C6H10N+
97.1009	14	C7H13+
98.06	139	C5H8NO+
105.0699	290	C8H9+
106.0654	6	C7H8N+
107.0856	341	C8H11+
108.0809	31	C7H10N+
109.0522	33	C6H7NO+
109.0648	22	C7H9O+
109.1012	134	C8H13+
110.06	114	C6H8NO+
110.0965	22	C7H12N+
117.0699	45	C9H9+
119.0856	259	C9H11+
120.0812	10	C8H10N+
120.0892	18	C4H12N2O2+
121.0648	30	C8H9O+
121.1012	167	C9H13+
122.0601	86	C7H8NO+
122.0963	12	C8H12N+
123.0679	22	C7H9NO+
124.0757	82	C7H10NO+
126.0913	33	C7H12NO+
128.0617	8	C10H8+
129.0699	29	C10H9+
131.0855	166	C10H11+
132.0893	10	C5H12N2O2+
133.1012	291	C10H13+
134.1045	20	C5H14N2O2+
135.0804	12	C9H11O+
135.1168	83	C10H15+
136.0756	34	C8H10NO+
138.0912	50	C8H12NO+
140.1072	24	C8H14NO+
141.07	10	C11H9+
143.0856	101	C11H11+
145.1012	218	C11H13+
146.1047	21	C6H14N2O2+
147.0809	22	C10H11O+
147.1168	234	C11H15+
148.1202	22	C6H16N2O2+
149.0959	10	C10H13O+
149.1327	29	C11H17+
150.0917	17	C9H12NO+
152.1071	7	C9H14NO+
155.0854	35	C12H11+
157.1013	69	C12H13+
159.0807	22	C11H11O+
159.1169	101	C12H15+
160.1126	13	C11H14N+
161.0961	51	C11H13O+
161.1325	81	C12H17+
164.1069	16	C10H14NO+
167.0854	9	C13H11+
169.1012	32	C13H13+
171.1169	56	C13H15+
173.0959	30	C12H13O+
173.1325	108	C13H17+
174.1357	11	C8H18N2O2+
175.1117	27	C12H15O+
175.1482	131	C13H19+
176.1075	9	C11H14NO+
176.1518	16	C8H20N2O2+
178.123	9	C11H16NO+
181.1014	21	C14H13+
183.117	20	C14H15+
185.1325	86	C14H17+
186.136	7	C9H18N2O2+
187.1482	220	C14H19+
188.1515	23	C9H20N2O2+
189.1638	69	C14H21+
194.154	11	C12H20NO+
195.1165	31	C15H15+
197.1329	40	C15H17+
199.1117	15	C14H15O+
199.1479	15	C15H19+
201.127	8	C14H17O+
204.1752	12	C14H22N+
209.1322	8	C16H17+
211.1484	8	C16H19+
213.1641	29	C16H21+
215.143	61	C15H19O+
220.1699	15	C14H22NO+
227.1788	13	C17H23+
232.1696	18	C15H22NO+
237.1638	11	C18H21+
240.1753	11	C17H22N+
249.1964	41	C15H25N2O+
254.1908	16	C18H24N+
255.1753	11	C18H23O+
272.2013	10	C18H26NO+
299.212	33	C19H27N2O+
301.1898	12	C18H25N2O2+
305.2587	229	C19H33N2O+
357.2533	34	C22H33N2O2+
373.2859	18	C23H37N2O2+
