Mass spectrum: 7-Diethylamino-4-methylcoumarin; LC-ESI-ITFT; MS2; CE: 60%; R=15000; [M+H]+
Name: 7-Diethylamino-4-methylcoumarin
Name: 7-(diethylamino)-4-methylchromen-2-one
Formula: C14H17NO2
Exact mass: 231.1259
SMILES: CCN(CC)C1=CC=C2C(C)=CC(=O)OC2=C1
InChI: InChI=1S/C14H17NO2/c1-4-15(5-2)11-6-7-12-10(3)8-14(16)17-13(12)9-11/h6-9H,4-5H2,1-3H3
Instrument: LTQ Orbitrap XL Thermo Scientific
Instrument type: LC-ESI-ITFT
Ms type: MS2
Ion mode: POSITIVE
Ionization: ESI
Fragmentation mode: HCD
Collision energy: 60 % (nominal)
Resolution: 15000
Column name: Kinetex Evo C18 2.6 um 50 x 2.1 mm
Retention time: 11.301 min
Base peak: 232.134
Precursor m/z: 232.1332
Precursor type: [M+H]+
m/z	relative intensity	assigned
68.013	17	C3H2NO+
91.0543	3	C7H7+
96.0445	17	C5H6NO+
105.07	6	C8H9+
115.0543	1	C9H7+
117.0702	4	C9H9+
118.0652	4	C8H8N+
130.0653	5	C9H8N+
131.0731	5	C9H9N+
132.081	16	C9H10N+
133.0653	2	C9H9O+
134.0965	3	C9H12N+
144.0809	32	C10H10N+
145.0893	2	C10H11N+
146.0966	4	C10H12N+
148.1122	16	C10H14N+
158.0967	10	C11H12N+
159.1041	8	C11H13N+
160.0759	80	C10H10NO+
160.1123	19	C11H14N+
162.0916	7	C10H12NO+
172.1123	7	C12H14N+
173.1199	5	C12H15N+
174.0917	19	C11H12NO+
175.0631	25	C10H9NO2+
175.0994	246	C11H13NO+
176.0708	24	C10H10NO2+
176.1072	45	C11H14NO+
176.1435	69	C12H18N+
186.128	5	C13H16N+
188.0708	999	C11H10NO2+
189.1151	10	C12H15NO+
190.1228	2	C12H16NO+
202.0867	50	C12H12NO2+
203.0943	992	C12H13NO2+
204.102	297	C12H14NO2+
204.1385	37	C13H18NO+
216.1024	9	C13H14NO2+
217.11	9	C13H15NO2+
232.1334	704	C14H18NO2+
