Mass spectrum: Ciprofloxacin; LC-ESI-ITFT; MS2; CE: 90%; R=15000; [M+H]+
Name: Ciprofloxacin
Name: 1-cyclopropyl-6-fluoro-4-oxo-7-piperazin-1-ylquinoline-3-carboxylic acid
Formula: C17H18FN3O3
Exact mass: 331.13322
SMILES: OC(=O)C1=CN(C2CC2)C2=C(C=C(F)C(=C2)N2CCNCC2)C1=O
InChI: InChI=1S/C17H18FN3O3/c18-13-7-11-14(8-15(13)20-5-3-19-4-6-20)21(10-1-2-10)9-12(16(11)22)17(23)24/h7-10,19H,1-6H2,(H,23,24)
Instrument: LTQ Orbitrap XL Thermo Scientific
Instrument type: LC-ESI-ITFT
Ms type: MS2
Ion mode: POSITIVE
Ionization: ESI
Fragmentation mode: HCD
Collision energy: 90% (nominal)
Resolution: 15000
Column name: Kinetex Evo C18 2.6 um 50 x 2.1 mm
Retention time: 5.236 min
Base peak: 218.0851
Precursor m/z: 332.1405
Precursor type: [M+H]+
m/z	relative intensity	assigned
70.0653	42	C4H8N+
116.0501	66	C5H7FNO+
135.0483	100	C8H6FN+
136.0563	112	C8H7FN+
148.0561	150	C9H7FN+
154.0657	75	C8H9FNO+
155.0611	42	C7H8FN2O+
156.0684	45	C10H8N2+
161.0515	31	C9H6FN2+
162.0353	76	C9H5FNO+
164.0508	24	C9H7FNO+
169.0763	60	C8H10FN2O+
174.0715	73	C11H9FN+
175.0673	129	C10H8FN2+
176.075	167	C10H9FN2+
177.0592	24	C10H8FNO+
185.0705	40	C11H9N2O+
187.0674	54	C11H8FN2+
188.0514	42	C11H7FNO+
189.0464	405	C10H6FN2O+
189.0824	45	C11H10FN2+
191.0623	99	C10H8FN2O+
201.0825	33	C12H10FN2+
202.0671	55	C12H9FNO+
202.0897	24	C12H11FN2+
203.0621	610	C11H8FN2O+
203.0739	36	C12H10FNO+
204.0697	75	C11H9FN2O+
205.0777	232	C11H10FN2O+
215.0621	46	C12H8FN2O+
229.0781	50	C13H10FN2O+
231.0571	999	C12H8FN2O2+
245.1087	33	C14H14FN2O+
