Mass spectrum: 2-Morpholinothiobenzothiazole; LC-ESI-ITFT; MS2; CE: 50%; R=15000; [M+H]+
Name: 2-Morpholinothiobenzothiazole
Name: Morpholinylmercaptobenzothiazole
Name: 4-(1,3-benzothiazol-2-ylsulfanyl)morpholine
Formula: C11H12N2OS2
Exact mass: 252.03911
SMILES: C1CN(CCO1)SC1=NC2=CC=CC=C2S1
InChI: InChI=1S/C11H12N2OS2/c1-2-4-10-9(3-1)12-11(15-10)16-13-5-7-14-8-6-13/h1-4H,5-8H2
Instrument: LTQ Orbitrap XL Thermo Scientific
Instrument type: LC-ESI-ITFT
Ms type: MS2
Ion mode: POSITIVE
Ionization: ESI
Fragmentation mode: HCD
Collision energy: 50 % (nominal)
Resolution: 15000
Column name: Kinetex Evo C18 2.6 um 50 x 2.1 mm
Retention time: 11.153 min
Base peak: 253.0472
Precursor m/z: 253.0464
Precursor type: [M+H]+
m/z	relative intensity	assigned
56.0492	184	C3H6N+
57.0571	91	C3H7N+
58.0649	19	C3H8N+
72.0444	1	C3H6NO+
86.0601	999	C4H8NO+
87.0678	464	C4H9NO+
118.0321	9	C4H8NOS+
136.0216	36	C7H6NS+
148.0216	4	C8H6NS+
162.0369	2	C9H8NS+
163.0327	5	C8H7N2S+
163.0451	4	C9H9NS+
165.978	109	C7H4NS2+
166.9858	22	C7H5NS2+
167.9936	80	C7H6NS2+
176.0399	2	C9H8N2S+
182.0086	2	C8H8NS2+
190.0562	1	C10H10N2S+
205.0434	2	C10H9N2OS+
219.0586	1	C11H11N2OS+
220.0666	39	C11H12N2OS+
253.0466	80	C11H13N2OS2+
