Mass spectrum: Tri-isobutylphosphate; LC-ESI-ITFT; MS2; CE: 20%; R=15000; [M+Na]+
Name: Tri-isobutylphosphate
Name: Triisobutyl phosphate
Name: tris(2-methylpropyl) phosphate
Formula: C12H27O4P
Exact mass: 266.1647
SMILES: CC(C)COP(=O)(OCC(C)C)OCC(C)C
InChI: InChI=1S/C12H27O4P/c1-10(2)7-14-17(13,15-8-11(3)4)16-9-12(5)6/h10-12H,7-9H2,1-6H3
Instrument: LTQ Orbitrap XL Thermo Scientific
Instrument type: LC-ESI-ITFT
Ms type: MS2
Ion mode: POSITIVE
Ionization: ESI
Fragmentation mode: HCD
Collision energy: 20% (nominal)
Resolution: 15000
Column name: Kinetex Evo C18 2.6 um 50 x 2.1 mm
Retention time: 12.963 min
Base peak: 267.1722
Precursor m/z: 289.1539
Precursor type: [M+Na]+
m/z	relative intensity	assigned
177.029	8	C4H11NaO4P+
233.0915	111	C8H19NaO4P+
289.1537	999	C12H27NaO4P+
