Mass spectrum: Pyrazophos; LC-ESI-ITFT; MS2; CE: 70%; R=15000; [M+H]+
Name: Pyrazophos
Name: ethyl 2-diethoxyphosphinothioyloxy-5-methylpyrazolo[1,5-a]pyrimidine-6-carboxylate
Formula: C14H20N3O5PS
Exact mass: 373.08613
SMILES: CCOC(=O)C1=CN2N=C(OP(=S)(OCC)OCC)C=C2N=C1C
InChI: InChI=1S/C14H20N3O5PS/c1-5-19-14(18)11-9-17-12(15-10(11)4)8-13(16-17)22-23(24,20-6-2)21-7-3/h8-9H,5-7H2,1-4H3
Instrument: LTQ Orbitrap XL Thermo Scientific
Instrument type: LC-ESI-ITFT
Ms type: MS2
Ion mode: POSITIVE
Ionization: ESI
Fragmentation mode: HCD
Collision energy: 70% (nominal)
Resolution: 15000
Column name: Kinetex Evo C18 2.6 um 50 x 2.1 mm
Retention time: 12.777 min
Base peak: 374.0945
Precursor m/z: 374.0934
Precursor type: [M+H]+
m/z	relative intensity	assigned
64.9785	46	H2O2P+
66.0337	2	C4H4N+
92.0494	3	C6H6N+
93.0101	17	C2H6O2P+
93.0448	4	C5H5N2+
94.0288	4	C5H4NO+
96.9508	117	H2O2PS+
97.9586	1	H3O2PS+
98.9665	2	H4O2PS+
98.9844	4	H4O4P+
99.0553	2	C4H7N2O+
109.0399	2	CH8N3OP+
110.0235	1	C5H4NO2+
110.9664	2	CH4O2PS+
113.9536	90	H3O3PS+
114.9614	157	H4O3PS+
120.0557	9	C6H6N3+
121.0397	3	C6H5N2O+
122.0722	2	H14N2O3S+
123.0552	1	C2H10N3OP+
131.048	1	C7H5N3+
133.0399	2	C3H8N3OP+
133.0635	2	C7H7N3+
134.0475	1	C7H6N2O+
139.0503	20	C6H7N2O2+
142.9929	7	C2H8O3PS+
148.0507	101	C7H6N3O+
149.0347	16	C3H8N3O2P+
149.0572	2	C2H14O5P+
150.0662	9	C7H8N3O+
159.0429	30	C8H5N3O+
164.0282	2	C7H6N3S+
165.0119	12	C3H8N3OPS+
166.0613	65	C7H8N3O2+
167.0643	2	C4H14N3PS+
175.0379	2	C8H5N3O2+
176.0457	500	C8H6N3O2+
177.0534	173	C8H7N3O2+
181.0068	39	C3H8N3O2PS+
183.0224	112	C3H10N3O2PS+
192.023	14	C8H6N3OS+
194.0562	999	C8H8N3O3+
195.0591	23	C5H14N3OPS+
205.0848	34	C10H11N3O2+
208.0177	15	C8H6N3O2S+
209.0377	5	C5H12N3O2PS+
210.0332	31	C8H8N3O2S+
222.0874	71	C10H12N3O3+
236.0496	2	C14H9N2P+
238.0645	3	C10H12N3O2S+
253.9787	9	C8H5N3O3PS+
271.9889	10	C8H7N3O4PS+
