Mass spectrum: Quinmerac; LC-ESI-ITFT; MS2; CE: 50%; R=15000; [M+H]+
Name: Quinmerac
Name: 7-chloro-3-methylquinoline-8-carboxylic acid
Formula: C11H8ClNO2
Exact mass: 221.02436
SMILES: CC1=CC2=C(N=C1)C(C(O)=O)=C(Cl)C=C2
InChI: InChI=1S/C11H8ClNO2/c1-6-4-7-2-3-8(12)9(11(14)15)10(7)13-5-6/h2-5H,1H3,(H,14,15)
Instrument: LTQ Orbitrap XL Thermo Scientific
Instrument type: LC-ESI-ITFT
Ms type: MS2
Ion mode: POSITIVE
Ionization: ESI
Fragmentation mode: HCD
Collision energy: 50 % (nominal)
Resolution: 15000
Column name: Kinetex Evo C18 2.6 um 50 x 2.1 mm
Retention time: 6.322 min
Base peak: 222.0433
Precursor m/z: 222.0316
Precursor type: [M+H]+
m/z	relative intensity	assigned
65.0383	16	C5H5+
77.0384	104	C6H5+
87.9948	14	C3H3ClN+
92.0494	463	C6H6N+
93.0571	9	C6H7N+
94.065	205	C6H8N+
95.049	15	C6H7O+
101.9739	5	C3HClNO+
103.0056	6	C6HNO+
104.0493	999	C7H6N+
119.0007	9	C6HNO2+
120.0444	8	C7H6NO+
130.0651	10	C9H8N+
132.0442	12	C8H6NO+
149.0151	13	C9H6Cl+
150.0106	10	C8H5ClN+
193.0287	68	C10H8ClNO+
204.0209	77	C11H7ClNO+
