Mass spectrum: Isoxaben; LC-ESI-ITFT; MS2; CE: 40%; R=15000; [M+Na]+
Name: Isoxaben
Name: 2,6-dimethoxy-N-[3-(3-methylpentan-3-yl)-1,2-oxazol-5-yl]benzamide
Formula: C18H24N2O4
Exact mass: 332.17361
SMILES: CCC(C)(CC)C1=NOC(NC(=O)C2=C(OC)C=CC=C2OC)=C1
InChI: InChI=1S/C18H24N2O4/c1-6-18(3,7-2)14-11-15(24-20-14)19-17(21)16-12(22-4)9-8-10-13(16)23-5/h8-11H,6-7H2,1-5H3,(H,19,21)
Instrument: LTQ Orbitrap XL Thermo Scientific
Instrument type: LC-ESI-ITFT
Ms type: MS2
Ion mode: POSITIVE
Ionization: ESI
Fragmentation mode: HCD
Collision energy: 40% (nominal)
Resolution: 15000
Column name: Kinetex Evo C18 2.6 um 50 x 2.1 mm
Retention time: 11.478 min
Base peak: 333.1808
Precursor m/z: 355.1628
Precursor type: [M+Na]+
m/z	relative intensity	assigned
85.1009	10	C6H13+
89.995	9	C3HNNaO+
165.0545	28	C9H9O3+
186.052	11	C9H9NNaO2+
204.0627	999	C9H11NNaO3+
239.0423	5	C11H8N2NaO3+
244.0574	11	C11H11NNaO4+
271.0677	31	C12H12N2NaO4+
