Mass spectrum: 2-Bromoaniline; LC-ESI-ITFT; MS2; CE: 50%; R=15000; [M+H]+
Name: 2-Bromoaniline
Formula: C6H6BrN
Exact mass: 170.96836
SMILES: NC1=C(Br)C=CC=C1
InChI: InChI=1S/C6H6BrN/c7-5-3-1-2-4-6(5)8/h1-4H,8H2
Instrument: LTQ Orbitrap XL Thermo Scientific
Instrument type: LC-ESI-ITFT
Ms type: MS2
Ion mode: POSITIVE
Ionization: ESI
Fragmentation mode: HCD
Collision energy: 50% (nominal)
Resolution: 15000
Column name: Kinetex Evo C18 2.6 um 50 x 2.1 mm
Retention time: 6.230 min
Base peak: 116.9859
Precursor m/z: 171.9756
Precursor type: [M+H]+
m/z	relative intensity	assigned
65.0385	27	C5H5+
92.0496	340	C6H6N+
93.0574	227	C6H7N+
171.9759	999	C6H7BrN+
