Mass spectrum: Epiandrosterone; LC-ESI-ITFT; MS2; CE: 30%; R=15000; [M+Na]+
Name: Epiandrosterone
Name: (3S,5S,8R,9S,10S,13S,14S)-3-hydroxy-10,13-dimethyl-1,2,3,4,5,6,7,8,9,11,12,14,15,16-tetradecahydrocyclopenta[a]phenanthren-17-one
Formula: C19H30O2
Exact mass: 290.2246
SMILES: C[C@]12CC[C@H]3[C@@H](CC[C@H]4C[C@@H](O)CC[C@]34C)[C@@H]1CCC2=O
InChI: InChI=1S/C19H30O2/c1-18-9-7-13(20)11-12(18)3-4-14-15-5-6-17(21)19(15,2)10-8-16(14)18/h12-16,20H,3-11H2,1-2H3/t12-,13-,14-,15-,16-,18-,19-/m0/s1
Instrument: LTQ Orbitrap XL Thermo Scientific
Instrument type: LC-ESI-ITFT
Ms type: MS2
Ion mode: POSITIVE
Ionization: ESI
Fragmentation mode: HCD
Collision energy: 30 % (nominal)
Resolution: 15000
Column name: Kinetex Evo C18 2.6 um 50 x 2.1 mm
Retention time: 12.022 min
Base peak: 313.2153
Precursor m/z: 313.2138
Precursor type: [M+Na]+
m/z	relative intensity	assigned
85.0647	55	C5H9O+
95.0856	19	C7H11+
97.0648	31	C6H9O+
105.07	5	C8H9+
107.0856	8	C8H11+
109.1013	13	C8H13+
119.0855	7	C9H11+
121.0651	13	C8H9O+
121.1014	14	C9H13+
127.0758	8	C7H11O2+
131.0856	11	C10H11+
133.1016	16	C10H13+
135.1172	11	C10H15+
137.0966	11	C9H13O+
143.086	10	C11H11+
145.1014	13	C11H13+
147.0808	11	C10H11O+
147.1171	14	C11H15+
149.0962	14	C10H13O+
155.0855	9	C12H11+
157.1014	20	C12H13+
159.1171	47	C12H15+
161.0961	23	C11H13O+
163.1121	17	C11H15O+
169.1018	5	C13H13+
171.0805	26	C12H11O+
171.1169	32	C13H15+
173.0962	48	C12H13O+
173.1325	12	C13H17+
175.1119	25	C12H15O+
177.1274	28	C12H17O+
183.1167	13	C14H15+
185.0962	8	C13H13O+
185.1323	15	C14H17+
187.1117	13	C13H15O+
187.1481	16	C14H19+
189.1273	17	C13H17O+
191.1432	7	C13H19O+
195.1173	8	C15H15+
197.1326	21	C15H17+
199.1117	50	C14H15O+
199.1475	12	C15H19+
201.1273	16	C14H17O+
203.1435	10	C14H19O+
207.1169	5	C16H15+
209.1322	9	C16H17+
211.1118	6	C15H15O+
211.1481	38	C16H19+
213.1273	16	C15H17O+
213.1642	12	C16H21+
215.142	7	C15H19O+
215.1794	7	C16H23+
217.1586	16	C15H21O+
221.1326	18	C17H17+
225.127	23	C16H17O+
225.1632	18	C17H21+
227.1427	8	C16H19O+
229.1584	59	C16H21O+
231.1739	11	C16H23O+
235.1486	12	C18H19+
237.1635	44	C18H21+
239.1425	42	C17H19O+
243.1736	13	C17H23O+
245.1902	20	C17H25O+
251.1787	20	C19H23+
253.1587	9	C18H21O+
253.1946	88	C19H25+
255.1739	65	C18H23O+
267.1733	15	C19H23O+
269.1894	65	C19H25O+
271.2047	62	C19H27O+
313.2154	999	C19H30NaO2+
