Mass spectrum: Gabapentin; LC-ESI-ITFT; MS2; CE: 70%; R=15000; [M+H]+
Name: Gabapentin
Name: 2-[1-(aminomethyl)cyclohexyl]acetic acid
Formula: C9H17NO2
Exact mass: 171.1259
SMILES: NCC1(CC(O)=O)CCCCC1
InChI: InChI=1S/C9H17NO2/c10-7-9(6-8(11)12)4-2-1-3-5-9/h1-7,10H2,(H,11,12)
Instrument: LTQ Orbitrap XL Thermo Scientific
Instrument type: LC-ESI-ITFT
Ms type: MS2
Ion mode: POSITIVE
Ionization: ESI
Fragmentation mode: HCD
Collision energy: 70% (nominal)
Resolution: 15000
Column name: Kinetex Evo C18 2.6 um 50 x 2.1 mm
Retention time: 0.628 min
Base peak: 60.0524
Precursor m/z: 172.1332
Precursor type: [M+H]+
m/z	relative intensity	assigned
55.0179	507	C3H3O+
67.0544	298	C5H7+
69.0702	14	C5H9+
72.0447	10	C3H6NO+
79.0544	14	C6H7+
81.0702	34	C6H9+
91.0547	277	C7H7+
93.0703	257	C7H9+
95.086	934	C7H11+
109.1017	444	C8H13+
119.0861	602	C9H11+
136.1127	99	C9H14N+
137.0967	962	C9H13O+
154.1234	999	C9H16NO+
155.1074	24	C9H15O2+
172.134	60	C9H18NO2+
