Mass spectrum: Diuron; LC-ESI-ITFT; MS2; CE: 80%; R=15000; [M+H]+
Name: Diuron
Name: 3-(3,4-dichlorophenyl)-1,1-dimethylurea
Formula: C9H10Cl2N2O
Exact mass: 232.01702
SMILES: CN(C)C(=O)NC1=CC=C(Cl)C(Cl)=C1
InChI: InChI=1S/C9H10Cl2N2O/c1-13(2)9(14)12-6-3-4-7(10)8(11)5-6/h3-5H,1-2H3,(H,12,14)
Instrument: LTQ Orbitrap XL Thermo Scientific
Instrument type: LC-ESI-ITFT
Ms type: MS2
Ion mode: POSITIVE
Ionization: ESI
Fragmentation mode: HCD
Collision energy: 80% (nominal)
Resolution: 15000
Column name: Kinetex Evo C18 2.6 um 50 x 2.1 mm
Retention time: 10.050 min
Base peak: 192.1389
Precursor m/z: 233.0243
Precursor type: [M+H]+
m/z	relative intensity	assigned
72.0443	999	C3H6NO+
83.0855	20	C6H11+
92.0495	9	C6H6N+
123.9943	3	C9O+
125.0029	6	C6H4ClN+
132.9606	15	C5H3Cl2+
152.998	6	C4H7Cl2N2+
159.9715	92	C6H4Cl2N+
172.9669	8	C6H3Cl2N2+
187.9666	3	C7H4Cl2NO+
