Mass spectrum: Metalaxyl; LC-ESI-ITFT; MS2; CE: 30%; R=15000; [M+H]+
Name: Metalaxyl
Name: methyl 2-(N-(2-methoxyacetyl)-2,6-dimethylanilino)propanoate
Formula: C15H21NO4
Exact mass: 279.14706
SMILES: COCC(=O)N(C(C)C(=O)OC)C1=C(C)C=CC=C1C
InChI: InChI=1S/C15H21NO4/c1-10-7-6-8-11(2)14(10)16(13(17)9-19-4)12(3)15(18)20-5/h6-8,12H,9H2,1-5H3
Instrument: LTQ Orbitrap XL Thermo Scientific
Instrument type: LC-ESI-ITFT
Ms type: MS2
Ion mode: POSITIVE
Ionization: ESI
Fragmentation mode: HCD
Collision energy: 30% (nominal)
Resolution: 15000
Column name: Kinetex Evo C18 2.6 um 50 x 2.1 mm
Retention time: 10.283 min
Base peak: 226.1345
Precursor m/z: 280.1543
Precursor type: [M+H]+
m/z	relative intensity	assigned
148.1125	82	C10H14N+
160.1125	124	C11H14N+
192.1388	824	C12H18NO+
208.1336	6	C12H18NO2+
220.1338	999	C13H18NO2+
248.1287	121	C14H18NO3+
280.1548	37	C15H22NO4+
