Mass spectrum: Carbendazim; LC-ESI-ITFT; MS2; CE: 90%; R=15000; [M+H]+
Name: Carbendazim
Name: methyl N-(1H-benzimidazol-2-yl)carbamate
Formula: C9H9N3O2
Exact mass: 191.06948
SMILES: COC(=O)NC1=NC2=CC=CC=C2N1
InChI: InChI=1S/C9H9N3O2/c1-14-9(13)12-8-10-6-4-2-3-5-7(6)11-8/h2-5H,1H3,(H2,10,11,12,13)
Instrument: LTQ Orbitrap XL Thermo Scientific
Instrument type: LC-ESI-ITFT
Ms type: MS2
Ion mode: POSITIVE
Ionization: ESI
Fragmentation mode: HCD
Collision energy: 90% (nominal)
Resolution: 15000
Column name: Kinetex Evo C18 2.6 um 50 x 2.1 mm
Retention time: 1.117 min
Base peak: 192.0774
Precursor m/z: 192.0768
Precursor type: [M+H]+
m/z	relative intensity	assigned
65.0385	4	C5H5+
90.0339	9	C6H4N+
91.0543	5	C7H7+
92.0496	56	C6H6N+
105.0448	40	C6H5N2+
106.0529	1	C6H6N2+
107.0606	2	C6H7N2+
117.0448	13	C7H5N2+
118.0527	2	C7H6N2+
119.0493	4	C8H7O+
119.0605	1	C7H7N2+
132.0558	238	C7H6N3+
133.0635	37	C7H7N3+
134.0714	1	C7H8N3+
135.0554	32	C7H7N2O+
148.0867	1	C8H10N3+
159.0433	1	C8H5N3O+
160.0506	999	C8H6N3O+
