Mass spectrum: Imidacloprid; LC-ESI-ITFT; MS2; CE: 10%; R=15000; [M+H]+
Name: Imidacloprid
Formula: C9H10ClN5O2
Exact mass: 255.05230
SMILES: [O-][N+](=O)\N=C1/NCCN1CC1=CN=C(Cl)C=C1
InChI: InChI=1S/C9H10ClN5O2/c10-8-2-1-7(5-12-8)6-14-4-3-11-9(14)13-15(16)17/h1-2,5H,3-4,6H2,(H,11,13)
Instrument: LTQ Orbitrap XL Thermo Scientific
Instrument type: LC-ESI-ITFT
Ms type: MS2
Ion mode: POSITIVE
Ionization: ESI
Fragmentation mode: HCD
Collision energy: 10% (nominal)
Resolution: 15000
Column name: Kinetex Evo C18 2.6 um 50 x 2.1 mm
Retention time: 6.010 min
Base peak: 256.0602
Precursor m/z: 256.0596
Precursor type: [M+H]+
m/z	relative intensity	assigned
84.0555	13	C3H6N3+
126.0109	2	C6H5ClN+
128.0261	1	C6H7ClN+
174.09	11	C9H10N4+
175.0978	66	C9H11N4+
209.0588	93	C9H10ClN4+
210.0666	103	C9H11ClN4+
212.0584	65	C9H11ClN3O+
226.0614	3	C9H11ClN4O+
256.0594	999	C9H11ClN5O2+
