Mass spectrum: Quinmerac; LC-ESI-ITFT; MS2; CE: 60%; R=15000; [M+H]+
Name: Quinmerac
Name: 7-chloro-3-methylquinoline-8-carboxylic acid
Formula: C11H8ClNO2
Exact mass: 221.02436
SMILES: CC1=CC2=C(N=C1)C(C(O)=O)=C(Cl)C=C2
InChI: InChI=1S/C11H8ClNO2/c1-6-4-7-2-3-8(12)9(11(14)15)10(7)13-5-6/h2-5H,1H3,(H,14,15)
Instrument: LTQ Orbitrap XL Thermo Scientific
Instrument type: LC-ESI-ITFT
Ms type: MS2
Ion mode: POSITIVE
Ionization: ESI
Fragmentation mode: HCD
Collision energy: 60 % (nominal)
Resolution: 15000
Column name: Kinetex Evo C18 2.6 um 50 x 2.1 mm
Retention time: 6.322 min
Base peak: 222.0433
Precursor m/z: 222.0316
Precursor type: [M+H]+
m/z	relative intensity	assigned
65.0383	43	C5H5+
77.0384	171	C6H5+
87.9948	28	C3H3ClN+
92.0494	686	C6H6N+
93.0572	28	C6H7N+
94.065	233	C6H8N+
95.049	33	C6H7O+
101.9739	11	C3HClNO+
103.0057	4	C6HNO+
104.0493	999	C7H6N+
116.0491	2	C8H6N+
119.0004	13	C6HNO2+
120.0441	10	C7H6NO+
130.0649	22	C9H8N+
132.0442	17	C8H6NO+
149.015	23	C9H6Cl+
150.0103	16	C8H5ClN+
169.0048	3	C8H6ClO2+
193.0287	95	C10H8ClNO+
204.0208	47	C11H7ClNO+
