Mass spectrum: Cortisone; LC-ESI-ITFT; MS2; CE: 50%; R=15000; [M+H]+
Name: Cortisone
Name: (8S,9S,10R,13S,14S,17R)-17-hydroxy-17-(2-hydroxyacetyl)-10,13-dimethyl-1,2,6,7,8,9,12,14,15,16-decahydrocyclopenta[a]phenanthrene-3,11-dione
Formula: C21H28O5
Exact mass: 360.1937
SMILES: C[C@]12CC(=O)[C@H]3[C@@H](CCC4=CC(=O)CC[C@]34C)[C@@H]1CC[C@]2(O)C(=O)CO
InChI: InChI=1S/C21H28O5/c1-19-7-5-13(23)9-12(19)3-4-14-15-6-8-21(26,17(25)11-22)20(15,2)10-16(24)18(14)19/h9,14-15,18,22,26H,3-8,10-11H2,1-2H3/t14-,15-,18+,19-,20-,21-/m0/s1
Instrument: LTQ Orbitrap XL Thermo Scientific
Instrument type: LC-ESI-ITFT
Ms type: MS2
Ion mode: POSITIVE
Ionization: ESI
Fragmentation mode: HCD
Collision energy: 50 % (nominal)
Resolution: 15000
Column name: Kinetex Evo C18 2.6 um 50 x 2.1 mm
Retention time: 9.636 min
Base peak: 361.2009
Precursor m/z: 361.201
Precursor type: [M+H]+
m/z	relative intensity	assigned
69.0697	7	C5H9+
79.0542	13	C6H7+
81.0698	38	C6H9+
83.0492	22	C5H7O+
91.0541	13	C7H7+
93.0699	86	C7H9+
95.0856	36	C7H11+
97.0648	69	C6H9O+
105.0698	111	C8H9+
107.0489	8	C7H7O+
107.0855	95	C8H11+
109.0648	17	C7H9O+
109.1007	6	C8H13+
111.0804	8	C7H11O+
117.0697	8	C9H9+
119.0855	63	C9H11+
121.0648	229	C8H9O+
121.1011	48	C9H13+
123.0804	47	C8H11O+
131.0856	32	C10H11+
133.0649	12	C9H9O+
133.1012	36	C10H13+
135.0804	77	C9H11O+
135.1168	68	C10H15+
137.0962	10	C9H13O+
139.0755	29	C8H11O2+
143.0855	34	C11H11+
145.0651	8	C10H9O+
145.1012	150	C11H13+
147.0804	67	C10H11O+
147.1168	18	C11H15+
149.0959	35	C10H13O+
151.0756	7	C9H11O2+
151.1113	3	C10H15O+
153.0906	4	C9H13O2+
155.0855	13	C12H11+
157.0655	5	C11H9O+
157.1011	32	C12H13+
159.0804	34	C11H11O+
159.1168	22	C12H15+
161.0599	5	C10H9O2+
161.0961	68	C11H13O+
163.1117	999	C11H15O+
165.0906	10	C10H13O2+
169.101	22	C13H13+
171.0804	21	C12H11O+
171.1169	33	C13H15+
173.0961	35	C12H13O+
173.1325	11	C13H17+
175.1117	26	C12H15O+
177.0909	8	C11H13O2+
179.1065	7	C11H15O2+
181.1011	16	C14H13+
183.1166	31	C14H15+
185.0959	21	C13H13O+
185.1324	16	C14H17+
187.0753	4	C12H11O2+
187.1115	32	C13H15O+
189.091	19	C12H13O2+
189.1272	26	C13H17O+
191.1066	14	C12H15O2+
195.1167	23	C15H15+
197.0965	6	C14H13O+
197.1322	25	C15H17+
199.1116	25	C14H15O+
199.1479	6	C15H19+
201.1276	14	C14H17O+
203.1063	9	C13H15O2+
203.1424	7	C14H19O+
207.1167	14	C16H15+
209.0966	5	C15H13O+
209.1325	21	C16H17+
211.1112	18	C15H15O+
211.1482	12	C16H19+
213.1271	19	C15H17O+
215.1427	9	C15H19O+
217.1213	4	C14H17O2+
221.1321	18	C17H17+
223.1117	18	C16H15O+
223.1479	22	C17H19+
225.1272	27	C16H17O+
225.1639	19	C17H21+
227.1428	13	C16H19O+
229.1224	7	C15H17O2+
235.1482	6	C18H19+
237.1274	12	C17H17O+
237.1638	14	C18H21+
239.143	46	C17H19O+
239.1791	9	C18H23+
241.1224	14	C16H17O2+
241.1584	57	C17H21O+
242.1664	15	C17H22O+
243.1377	8	C16H19O2+
243.1749	17	C17H23O+
247.1484	8	C19H19+
249.1268	7	C18H17O+
249.1645	9	C19H21+
251.1422	10	C18H19O+
253.1581	14	C18H21O+
255.1379	8	C17H19O2+
255.1746	25	C18H23O+
256.1818	18	C18H24O+
257.1539	13	C17H21O2+
257.1897	6	C18H25O+
258.1614	49	C17H22O2+
265.1585	25	C19H21O+
266.1662	8	C19H22O+
267.1383	10	C18H19O2+
267.1742	39	C19H23O+
269.1537	15	C18H21O2+
269.1903	4	C19H25O+
271.1706	7	C18H23O2+
279.174	13	C20H23O+
281.1542	6	C19H21O2+
283.169	37	C19H23O2+
284.177	36	C19H24O2+
285.1491	7	C18H21O3+
285.184	14	C19H25O2+
295.1692	11	C20H23O2+
297.1836	11	C20H25O2+
299.1636	41	C19H23O3+
300.1719	9	C19H24O3+
301.1797	21	C19H25O3+
307.169	7	C21H23O2+
313.1807	6	C20H25O3+
325.1788	9	C21H25O3+
343.1896	9	C21H27O4+
361.2004	20	C21H29O5+
