Mass spectrum: Imazalil; LC-ESI-ITFT; MS2; CE: 50%; R=15000; [M+H]+
Name: Imazalil
Name: Enilconazole
Name: 1-[2-(2,4-dichlorophenyl)-2-prop-2-enoxyethyl]imidazole
Formula: C14H14Cl2N2O
Exact mass: NA
SMILES: ClC1=CC=C(C(CN2C=CN=C2)OCC=C)C(Cl)=C1
InChI: InChI=1S/C14H14Cl2N2O/c1-2-7-19-14(9-18-6-5-17-10-18)12-4-3-11(15)8-13(12)16/h2-6,8,10,14H,1,7,9H2
Instrument: LTQ Orbitrap XL Thermo Scientific
Instrument type: LC-ESI-ITFT
Ms type: MS2
Ion mode: POSITIVE
Ionization: ESI
Fragmentation mode: HCD
Collision energy: 50% (nominal)
Resolution: 15000
Column name: Kinetex Evo C18 2.6 um 50 x 2.1 mm
Retention time: 8.401 min
Base peak: 297.0569
Precursor m/z: 297.0556
Precursor type: [M+H]+
m/z	relative intensity	assigned
69.0446	427	C3H5N2+
81.0447	129	C4H5N2+
82.0524	16	C4H6N2+
82.0651	32	C5H8N+
109.076	370	C6H9N2+
141.07	12	C11H9+
149.0152	9	C9H6Cl+
150.0231	13	C9H7Cl+
158.9763	999	C7H5Cl2+
164.0387	28	C10H9Cl+
172.992	201	C8H7Cl2+
175.0308	18	C11H8Cl+
176.0388	250	C11H9Cl+
182.976	4	C9H5Cl2+
184.992	39	C9H7Cl2+
186.9713	25	C8H5Cl2O+
199.0074	20	C10H9Cl2+
200.9868	174	C9H7Cl2O+
203.0374	15	C11H8ClN2+
211.0076	21	C11H9Cl2+
255.0087	209	C11H9Cl2N2O+
297.0556	87	C14H15Cl2N2O+
