Mass spectrum: Methyldesphenylchloridazon; LC-ESI-ITFT; MS2; CE: 30%; R=15000; [M+H]+
Name: Methyldesphenylchloridazon
Formula: C5H6ClN3O
Exact mass: 159.01994
SMILES: CN1N=CC(N)=C(Cl)C1=O
InChI: InChI=1S/C5H6ClN3O/c1-9-5(10)4(6)3(7)2-8-9/h2H,7H2,1H3
Instrument: LTQ Orbitrap XL Thermo Scientific
Instrument type: LC-ESI-ITFT
Ms type: MS2
Ion mode: POSITIVE
Ionization: ESI
Fragmentation mode: HCD
Collision energy: 30% (nominal)
Resolution: 15000
Column name: Kinetex Evo C18 2.6 um 50 x 2.1 mm
Retention time: 1.089 min
Base peak: 160.0278
Precursor m/z: 160.0272
Precursor type: [M+H]+
m/z	relative intensity	assigned
160.0279	999	C5H7ClN3O+
