Mass spectrum: Nitrendipin; LC-ESI-ITFT; MS2; CE: 90%; R=15000; [M+H]+
Name: Nitrendipin
Name: Nitrendipine
Name: 5-O-ethyl 3-O-methyl 2,6-dimethyl-4-(3-nitrophenyl)-1,4-dihydropyridine-3,5-dicarboxylate
Formula: C18H20N2O6
Exact mass: 360.1321
SMILES: CCOC(=O)C1=C(C)NC(C)=C(C1C1=CC=CC(=C1)[N+]([O-])=O)C(=O)OC
InChI: InChI=1S/C18H20N2O6/c1-5-26-18(22)15-11(3)19-10(2)14(17(21)25-4)16(15)12-7-6-8-13(9-12)20(23)24/h6-9,16,19H,5H2,1-4H3
Instrument: LTQ Orbitrap XL Thermo Scientific
Instrument type: LC-ESI-ITFT
Ms type: MS2
Ion mode: POSITIVE
Ionization: ESI
Fragmentation mode: HCD
Collision energy: 90% (nominal)
Resolution: 15000
Column name: Kinetex Evo C18 2.6 um 50 x 2.1 mm
Retention time: 11.618 min
Base peak: 361.1392
Precursor m/z: 361.1394
Precursor type: [M+H]+
m/z	relative intensity	assigned
67.0178	309	C4H3O+
84.0444	177	C4H6NO+
85.0283	172	C4H5O2+
99.044	358	C5H7O2+
106.0652	580	C7H8N+
115.0542	222	C9H7+
128.0621	323	C10H8+
134.0602	408	C8H8NO+
139.0541	298	C11H7+
140.0622	494	C11H8+
141.0699	286	C11H9+
152.0624	108	C12H8+
154.0413	264	C11H6O+
154.0654	163	C11H8N+
155.0491	281	C11H7O+
155.061	165	C10H7N2+
165.07	266	C13H9+
166.0652	289	C12H8N+
166.0863	425	C9H12NO2+
167.0731	308	C12H9N+
168.081	404	C12H10N+
180.0809	999	C13H10N+
181.0887	670	C13H11N+
182.0962	402	C13H12N+
195.0682	157	C13H9NO+
208.0758	313	C14H10NO+
209.0833	533	C14H11NO+
210.0912	315	C14H12NO+
227.0934	112	C14H13NO2+
