Mass spectrum: Metazachlor BH 479-11; LC-ESI-ITFT; MS2; CE: 30%; R=15000; [M+Na]+
Name: Metazachlor BH 479-11
Name: Metazachlor metabolite M11
Name: N-(2,6-dimethylphenyl)-2-methylsulfinyl-N-(pyrazol-1-ylmethyl)acetamide
Formula: C15H19N3O2S
Exact mass: 305.1198
SMILES: CC1=CC=CC(C)=C1N(CN1C=CC=N1)C(=O)CS(C)=O
InChI: InChI=1S/C15H19N3O2S/c1-12-6-4-7-13(2)15(12)18(14(19)10-21(3)20)11-17-9-5-8-16-17/h4-9H,10-11H2,1-3H3
Instrument: LTQ Orbitrap XL Thermo Scientific
Instrument type: LC-ESI-ITFT
Ms type: MS2
Ion mode: POSITIVE
Ionization: ESI
Fragmentation mode: HCD
Collision energy: 30% (nominal)
Resolution: 15000
Column name: Kinetex Evo C18 2.6 um 50 x 2.1 mm
Retention time: 7.968 min
Base peak: 306.1274
Precursor m/z: 328.109
Precursor type: [M+Na]+
m/z	relative intensity	assigned
126.9831	17	C3HN3OS+
146.0332	56	C7H7NaO2+
170.058	31	C9H9NNaO+
185.0817	393	C10H12NNaO+
197.082	11	C11H12NNaO+
250.0953	999	C13H13N3NaO+
264.1113	17	C14H15N3NaO+
265.1187	597	C14H16N3NaO+
328.1092	297	C15H19N3NaO2S+
