Mass spectrum: Azoxystrobin acid; LC-ESI-ITFT; MS2; CE: 50%; R=15000; [M+H]+
Name: Azoxystrobin acid
Name: (E)-2-[2-[6-(2-cyanophenoxy)pyrimidin-4-yl]oxyphenyl]-3-methoxyprop-2-enoic acid
Formula: C21H15N3O5
Exact mass: 389.10117
SMILES: CO\C=C(\C(O)=O)c1ccccc1Oc1cc(Oc2ccccc2C#N)ncn1
InChI: InChI=1S/C21H15N3O5/c1-27-12-16(21(25)26)15-7-3-5-9-18(15)29-20-10-19(23-13-24-20)28-17-8-4-2-6-14(17)11-22/h2-10,12-13H,1H3,(H,25,26)/b16-12+
Instrument: LTQ Orbitrap XL Thermo Scientific
Instrument type: LC-ESI-ITFT
Ms type: MS2
Ion mode: POSITIVE
Ionization: ESI
Fragmentation mode: HCD
Collision energy: 50% (nominal)
Resolution: 15000
Column name: Kinetex Evo C18 2.6 um 50 x 2.1 mm
Retention time: 10.598 min
Base peak: 272.0963
Precursor m/z: 390.1084
Precursor type: [M+H]+
m/z	relative intensity	assigned
91.0541	4	C7H7+
107.0497	7	C7H7O+
133.0528	6	C8H7NO+
134.0607	114	C8H8NO+
143.061	62	C9H7N2+
145.0291	35	C9H5O2+
145.0528	6	C9H7NO+
156.045	24	C10H6NO+
171.0559	34	C10H7N2O+
172.04	57	C10H6NO2+
182.0721	21	C13H10O+
183.0561	143	C11H7N2O+
187.0511	27	C10H7N2O2+
199.051	16	C11H7N2O2+
201.043	71	C11H7NO3+
201.0668	49	C11H9N2O2+
210.0433	70	C12H6N2O2+
211.0509	13	C12H7N2O2+
216.0664	127	C12H10NO3+
272.0833	32	C19H12O2+
273.0909	36	C19H13O2+
275.0802	7	C17H11N2O2+
287.0828	26	C18H11N2O2+
300.0781	25	C20H12O3+
301.0859	134	C20H13O3+
314.093	8	C19H12N3O2+
328.0728	65	C21H12O4+
329.0807	999	C21H13O4+
344.1041	389	C20H14N3O3+
372.099	35	C21H14N3O4+
