Mass spectrum: Norgestrel; LC-ESI-ITFT; MS2; CE: 60%; R=15000; [M+H]+
Name: Norgestrel
Name: (8R,9S,10R,13S,14S)-13-ethyl-17-ethynyl-17-hydroxy-1,2,6,7,8,9,10,11,12,14,15,16-dodecahydrocyclopenta[a]phenanthren-3-one
Formula: C21H28O2
Exact mass: 312.20893
SMILES: [H][C@@]12CCC(O)(C#C)[C@@]1(CC)CC[C@]1([H])[C@@]3([H])CCC(=O)C=C3CC[C@@]21[H]
InChI: InChI=1S/C21H28O2/c1-3-20-11-9-17-16-8-6-15(22)13-14(16)5-7-18(17)19(20)10-12-21(20,23)4-2/h2,13,16-19,23H,3,5-12H2,1H3/t16-,17+,18+,19-,20-,21?/m0/s1
Instrument: LTQ Orbitrap XL Thermo Scientific
Instrument type: LC-ESI-ITFT
Ms type: MS2
Ion mode: POSITIVE
Ionization: ESI
Fragmentation mode: HCD
Collision energy: 60 % (nominal)
Resolution: 15000
Column name: Kinetex Evo C18 2.6 um 50 x 2.1 mm
Retention time: 11.688 min
Base peak: 313.2164
Precursor m/z: 313.2162
Precursor type: [M+H]+
m/z	relative intensity	assigned
67.0539	126	C5H7+
69.0696	38	C5H9+
79.054	197	C6H7+
81.0333	23	C5H5O+
81.0697	220	C6H9+
83.0489	355	C5H7O+
91.054	326	C7H7+
93.0697	285	C7H9+
95.049	28	C6H7O+
95.0853	191	C7H11+
97.0646	40	C6H9O+
103.054	15	C8H7+
105.0697	316	C8H9+
107.0489	183	C7H7O+
107.0853	180	C8H11+
109.0645	999	C7H9O+
109.1009	91	C8H13+
111.0802	8	C7H11O+
115.054	22	C9H7+
116.062	23	C9H8+
117.0696	223	C9H9+
119.0853	277	C9H11+
121.0644	43	C8H9O+
121.1009	98	C9H13+
123.0801	139	C8H11O+
123.1166	104	C9H15+
125.0958	25	C8H13O+
128.0618	25	C10H8+
129.0696	167	C10H9+
130.0774	28	C10H10+
131.0852	306	C10H11+
133.0646	48	C9H9O+
133.1009	251	C10H13+
135.0801	251	C9H11O+
135.1166	102	C10H15+
137.0956	25	C9H13O+
137.1323	18	C10H17+
141.0695	40	C11H9+
142.0774	48	C11H10+
143.0852	199	C11H11+
144.0927	30	C11H12+
145.1009	285	C11H13+
147.08	58	C10H11O+
147.1165	75	C11H15+
149.0958	148	C10H13O+
149.132	34	C11H17+
151.1114	12	C10H15O+
155.0852	78	C12H11+
156.0927	26	C12H12+
157.0645	10	C11H9O+
157.1009	200	C12H13+
159.0801	43	C11H11O+
159.1165	147	C12H15+
161.0958	115	C11H13O+
161.1322	34	C12H17+
163.1115	77	C11H15O+
163.1476	10	C12H19+
165.0696	10	C13H9+
167.0852	41	C13H11+
168.0932	15	C13H12+
169.1008	88	C13H13+
170.1086	20	C13H14+
171.1165	126	C13H15+
173.0955	20	C12H13O+
173.1322	58	C13H17+
175.1114	56	C12H15O+
175.1478	65	C13H19+
179.0856	15	C14H11+
181.1009	47	C14H13+
183.1164	80	C14H15+
185.0958	18	C13H13O+
185.1321	135	C14H17+
187.1113	17	C13H15O+
187.1478	56	C14H19+
188.1191	16	C13H16O+
189.127	34	C13H17O+
193.1007	24	C15H13+
195.1165	37	C15H15+
197.1323	40	C15H17+
199.1111	11	C14H15O+
199.1478	43	C15H19+
201.127	28	C14H17O+
201.1633	13	C15H21+
203.1427	12	C14H19O+
207.1163	23	C16H15+
208.1253	8	C16H16+
209.1321	27	C16H17+
211.1115	9	C15H15O+
211.1473	13	C16H19+
215.143	10	C15H19O+
219.1176	8	C17H15+
220.1245	11	C17H16+
221.132	17	C17H17+
223.1475	11	C17H19+
225.127	10	C16H17O+
225.1635	19	C17H21+
227.1789	63	C17H23+
235.1479	8	C18H19+
237.1635	21	C18H21+
241.1585	6	C17H21O+
245.1896	112	C17H25O+
248.1549	10	C19H20+
313.2159	7	C21H29O2+
