Mass spectrum: Dihydrotestosterone; LC-ESI-ITFT; MS2; CE: 20%; R=15000; [M+Na]+
Name: Dihydrotestosterone
Name: Androstanolone
Name: (5S,8R,9S,10S,13S,14S,17S)-17-hydroxy-10,13-dimethyl-1,2,4,5,6,7,8,9,11,12,14,15,16,17-tetradecahydrocyclopenta[a]phenanthren-3-one
Formula: C19H30O2
Exact mass: 290.2246
SMILES: [H][C@@]12CC[C@H](O)[C@@]1(C)CC[C@@]1([H])[C@@]2([H])CC[C@@]2([H])CC(=O)CC[C@]12C
InChI: InChI=1S/C19H30O2/c1-18-9-7-13(20)11-12(18)3-4-14-15-5-6-17(21)19(15,2)10-8-16(14)18/h12,14-17,21H,3-11H2,1-2H3/t12-,14-,15-,16-,17-,18-,19-/m0/s1
Instrument: LTQ Orbitrap XL Thermo Scientific
Instrument type: LC-ESI-ITFT
Ms type: MS2
Ion mode: POSITIVE
Ionization: ESI
Fragmentation mode: HCD
Collision energy: 20% (nominal)
Resolution: 15000
Column name: Kinetex Evo C18 2.6 um 50 x 2.1 mm
Retention time: 11.655 min
Base peak: 313.2151
Precursor m/z: 313.2138
Precursor type: [M+Na]+
m/z	relative intensity	assigned
95.0855	2	C7H11+
107.0489	1	C7H7O+
109.0643	5	C7H9O+
119.0853	2	C9H11+
123.0799	1	C8H11O+
125.0958	2	C8H13O+
131.0853	2	C10H11+
133.1012	4	C10H13+
135.1166	1	C10H15+
145.1008	1	C11H13+
149.0954	3	C10H13O+
157.1008	2	C12H13+
159.1161	3	C12H15+
163.1112	2	C11H15O+
183.1163	2	C14H15+
185.1316	4	C14H17+
187.1474	3	C14H19+
189.1267	2	C13H17O+
203.1423	1	C14H19O+
209.1317	1	C16H17+
225.1621	1	C15H22Na+
237.1628	3	C18H21+
239.1416	2	C15H20NaO+
241.1574	1	C15H22NaO+
245.1887	23	C15H26NaO+
249.1607	1	C17H22Na+
253.1574	1	C16H22NaO+
255.173	1	C16H24NaO+
267.1719	1	C17H24NaO+
277.1938	5	C19H26Na+
295.2038	30	C19H28NaO+
313.2143	999	C19H30NaO2+
