Mass spectrum: Aniline; LC-ESI-ITFT; MS2; CE: 60%; R=15000; [M+H]+
Name: Aniline
Formula: C6H7N
Exact mass: 93.05785
SMILES: NC1=CC=CC=C1
InChI: InChI=1S/C6H7N/c7-6-4-2-1-3-5-6/h1-5H,7H2
Instrument: LTQ Orbitrap XL Thermo Scientific
Instrument type: LC-ESI-ITFT
Ms type: MS2
Ion mode: POSITIVE
Ionization: ESI
Fragmentation mode: HCD
Collision energy: 60 % (nominal)
Resolution: 15000
Column name: Kinetex Evo C18 2.6 um 50 x 2.1 mm
Retention time: 0.547 min
Base peak: 94.0653
Precursor m/z: 94.0651
Precursor type: [M+H]+
m/z	relative intensity	assigned
77.0384	105	C6H5+
93.0573	4	C6H7N+
94.0649	999	C6H8N+
