Mass spectrum: Norgestimate; LC-ESI-ITFT; MS2; CE: 80%; R=15000; [M+H]+
Name: Norgestimate
Name: [(3E,8R,9S,10R,13S,14S,17R)-13-ethyl-17-ethynyl-3-hydroxyimino-1,2,6,7,8,9,10,11,12,14,15,16-dodecahydrocyclopenta[a]phenanthren-17-yl] acetate
Formula: C23H31NO3
Exact mass: 369.23039
SMILES: CC[C@]12CC[C@H]3[C@@H](CCC4=C\C(CC[C@H]34)=N\O)[C@@H]1CC[C@@]2(OC(C)=O)C#C
InChI: InChI=1S/C23H31NO3/c1-4-22-12-10-19-18-9-7-17(24-26)14-16(18)6-8-20(19)21(22)11-13-23(22,5-2)27-15(3)25/h2,14,18-21,26H,4,6-13H2,1,3H3/b24-17+/t18-,19+,20+,21-,22-,23-/m0/s1
Instrument: LTQ Orbitrap XL Thermo Scientific
Instrument type: LC-ESI-ITFT
Ms type: MS2
Ion mode: POSITIVE
Ionization: ESI
Fragmentation mode: HCD
Collision energy: 80% (nominal)
Resolution: 15000
Column name: Kinetex Evo C18 2.6 um 50 x 2.1 mm
Retention time: 13.044 min
Base peak: 370.2374
Precursor m/z: 370.2377
Precursor type: [M+H]+
m/z	relative intensity	assigned
69.0695	13	C5H9+
77.0384	66	C6H5+
79.054	486	C6H7+
80.0492	79	C5H6N+
81.0573	15	C5H7N+
81.0696	78	C6H9+
82.0648	41	C5H8N+
91.054	593	C7H7+
92.0493	32	C6H6N+
92.0616	11	C7H8+
93.057	23	C6H7N+
93.0696	180	C7H9+
94.0651	30	C6H8N+
95.0489	18	C6H7O+
95.0725	24	C6H9N+
95.0854	37	C7H11+
96.0442	13	C5H6NO+
96.0806	17	C6H10N+
98.0598	550	C5H8NO+
103.054	70	C8H7+
104.0491	15	C7H6N+
105.0696	431	C8H9+
106.0648	124	C7H8N+
107.0727	47	C7H9N+
107.0852	71	C8H11+
108.0805	105	C7H10N+
109.0644	12	C7H9O+
109.0884	36	C7H11N+
110.0599	40	C6H8NO+
111.0677	19	C6H9NO+
115.0539	97	C9H7+
116.0618	97	C9H8+
117.057	16	C8H7N+
117.0696	276	C9H9+
118.0647	35	C8H8N+
118.0776	11	C9H10+
119.0726	14	C8H9N+
119.0853	168	C9H11+
120.0804	27	C8H10N+
121.0642	16	C8H9O+
121.0886	16	C8H11N+
121.101	18	C9H13+
122.0599	27	C7H8NO+
122.0965	19	C8H12N+
124.0754	999	C7H10NO+
128.0617	145	C10H8+
129.0696	295	C10H9+
130.0649	26	C9H8N+
130.0773	59	C10H10+
131.0852	270	C10H11+
132.0807	48	C9H10N+
133.1008	67	C10H13+
134.0961	24	C9H12N+
135.08	14	C9H11O+
136.0751	14	C8H10NO+
138.0911	21	C8H12NO+
141.0695	92	C11H9+
142.0774	100	C11H10+
143.0727	20	C10H9N+
143.0852	196	C11H11+
144.093	33	C11H12+
145.1008	104	C11H13+
146.0962	41	C10H12N+
148.1115	27	C10H14N+
149.0957	11	C10H13O+
150.0909	19	C9H12NO+
153.0696	28	C12H9+
154.0775	32	C12H10+
155.0851	105	C12H11+
156.0807	13	C11H10N+
156.093	36	C12H12+
157.1009	97	C12H13+
158.0958	31	C11H12N+
159.1164	36	C12H15+
160.1118	35	C11H14N+
165.0692	35	C13H9+
166.0774	17	C13H10+
167.0851	53	C13H11+
168.093	24	C13H12+
169.1007	53	C13H13+
171.1162	38	C13H15+
172.1119	15	C12H14N+
176.1066	18	C11H14NO+
178.1221	12	C11H16NO+
179.085	36	C14H11+
180.0927	14	C14H12+
181.1008	44	C14H13+
182.0963	17	C13H12N+
182.1089	16	C14H14+
183.1162	25	C14H15+
191.0852	16	C15H11+
192.0933	11	C15H12+
193.101	30	C15H13+
195.1166	32	C15H15+
196.1112	10	C14H14N+
205.1014	22	C16H13+
207.1163	24	C16H15+
282.185	17	C19H24NO+
