Mass spectrum: Pioglitazone; LC-ESI-ITFT; MS2; CE: 50%; R=15000; [M-H]-
Name: Pioglitazone
Name: 5-[[4-[2-(5-ethylpyridin-2-yl)ethoxy]phenyl]methyl]-1,3-thiazolidine-2,4-dione
Formula: C19H20N2O3S
Exact mass: 356.1195
SMILES: CCC1=CN=C(CCOC2=CC=C(CC3SC(=O)NC3=O)C=C2)C=C1
InChI: InChI=1S/C19H20N2O3S/c1-2-13-3-6-15(20-12-13)9-10-24-16-7-4-14(5-8-16)11-17-18(22)21-19(23)25-17/h3-8,12,17H,2,9-11H2,1H3,(H,21,22,23)
Instrument: LTQ Orbitrap XL Thermo Scientific
Instrument type: LC-ESI-ITFT
Ms type: MS2
Ion mode: NEGATIVE
Ionization: ESI
Fragmentation mode: HCD
Collision energy: 50 % (nominal)
Resolution: 15000
Column name: Kinetex Evo C18 2.6 um 50 x 2.1 mm
Retention time: 7.927 min
Base peak: 355.1111
Precursor m/z: 355.1122
Precursor type: [M-H]-
m/z	relative intensity	assigned
355.1116	999	C19H19N2O3S-
