Mass spectrum: Propyphenazone; LC-ESI-ITFT; MS2; CE: 60%; R=15000; [M+H]+
Name: Propyphenazone
Name: 1,5-dimethyl-2-phenyl-4-propan-2-ylpyrazol-3-one
Formula: C14H18N2O
Exact mass: 230.1419
SMILES: CC(C)C1=C(C)N(C)N(C1=O)C1=CC=CC=C1
InChI: InChI=1S/C14H18N2O/c1-10(2)13-11(3)15(4)16(14(13)17)12-8-6-5-7-9-12/h5-10H,1-4H3
Instrument: LTQ Orbitrap XL Thermo Scientific
Instrument type: LC-ESI-ITFT
Ms type: MS2
Ion mode: POSITIVE
Ionization: ESI
Fragmentation mode: HCD
Collision energy: 60% (nominal)
Resolution: 15000
Column name: Kinetex Evo C18 2.6 um 50 x 2.1 mm
Retention time: 9.557 min
Base peak: 231.1503
Precursor m/z: 231.1492
Precursor type: [M+H]+
m/z	relative intensity	assigned
56.0493	225	C3H6N+
58.0649	9	C3H8N+
70.065	5	C4H8N+
79.0543	4	C6H7+
81.0699	8	C6H9+
82.0652	7	C5H8N+
93.07	2	C7H9+
94.0651	4	C6H8N+
95.073	14	C6H9N+
96.0809	24	C6H10N+
97.0888	7	C6H11N+
98.0601	11	C5H8NO+
100.1124	7	C6H14N+
104.0495	8	C7H6N+
106.0649	2	C7H8N+
110.0965	31	C7H12N+
112.0757	12	C6H10NO+
112.1122	104	C7H14N+
118.0652	19	C8H8N+
120.0445	18	C7H6NO+
120.0809	44	C8H10N+
123.0916	2	C7H11N2+
124.0758	33	C7H10NO+
128.107	6	C7H14NO+
130.0654	7	C9H8N+
131.0731	20	C9H9N+
132.081	11	C9H10N+
133.0762	8	C8H9N2+
134.0968	7	C9H12N+
138.0915	20	C8H12NO+
142.0656	4	C10H8N+
144.081	32	C10H10N+
146.084	15	C9H10N2+
146.0966	69	C10H12N+
147.0921	9	C9H11N2+
148.0759	8	C9H10NO+
148.1123	9	C10H14N+
160.0762	4	C10H10NO+
160.0997	15	C10H12N2+
161.1076	25	C10H13N2+
172.0759	7	C11H10NO+
172.1125	14	C12H14N+
174.0789	6	C10H10N2O+
187.0863	3	C11H11N2O+
187.1232	2	C12H15N2+
188.0948	11	C11H12N2O+
189.1025	499	C11H13N2O+
201.1025	125	C12H13N2O+
203.1545	13	C13H19N2+
215.118	8	C13H15N2O+
216.126	28	C13H16N2O+
231.1495	999	C14H19N2O+
