Mass spectrum: Norethindrone; LC-ESI-ITFT; MS2; CE: 40%; R=15000; [M+H]+
Name: Norethindrone
Name: (8R,9S,10R,13S,14S,17R)-17-ethynyl-17-hydroxy-13-methyl-1,2,6,7,8,9,10,11,12,14,15,16-dodecahydrocyclopenta[a]phenanthren-3-one
Formula: C20H26O2
Exact mass: 298.1933
SMILES: C[C@]12CC[C@H]3[C@@H](CCC4=CC(=O)CC[C@H]34)[C@@H]1CC[C@@]2(O)C#C
InChI: InChI=1S/C20H26O2/c1-3-20(22)11-9-18-17-6-4-13-12-14(21)5-7-15(13)16(17)8-10-19(18,20)2/h1,12,15-18,22H,4-11H2,2H3/t15-,16+,17+,18-,19-,20-/m0/s1
Instrument: LTQ Orbitrap XL Thermo Scientific
Instrument type: LC-ESI-ITFT
Ms type: MS2
Ion mode: POSITIVE
Ionization: ESI
Fragmentation mode: HCD
Collision energy: 40 % (nominal)
Resolution: 15000
Column name: Kinetex Evo C18 2.6 um 50 x 2.1 mm
Retention time: 11.161 min
Base peak: 299.2009
Precursor m/z: 299.2006
Precursor type: [M+H]+
m/z	relative intensity	assigned
67.0539	26	C5H7+
79.054	48	C6H7+
81.0697	96	C6H9+
83.0489	223	C5H7O+
91.054	52	C7H7+
93.0697	97	C7H9+
95.0491	12	C6H7O+
95.0853	93	C7H11+
97.0646	32	C6H9O+
105.0697	118	C8H9+
107.0489	83	C7H7O+
107.0853	84	C8H11+
109.0645	644	C7H9O+
109.1009	52	C8H13+
111.0802	42	C7H11O+
115.0546	6	C9H7+
117.0697	79	C9H9+
119.0853	229	C9H11+
121.0644	29	C8H9O+
121.1009	69	C9H13+
123.0802	64	C8H11O+
123.1167	25	C9H15+
129.0697	52	C10H9+
131.0853	175	C10H11+
133.0645	24	C9H9O+
133.1009	106	C10H13+
135.0802	156	C9H11O+
135.1166	43	C10H15+
137.0959	21	C9H13O+
141.0694	16	C11H9+
143.0853	125	C11H11+
145.1009	272	C11H13+
147.0801	51	C10H11O+
147.1165	70	C11H15+
149.0958	123	C10H13O+
149.1323	13	C11H17+
151.1112	8	C10H15O+
155.0853	36	C12H11+
157.0644	12	C11H9O+
157.101	129	C12H13+
159.0801	41	C11H11O+
159.1165	92	C12H15+
161.0958	90	C11H13O+
161.1323	40	C12H17+
163.1114	108	C11H15O+
167.0855	18	C13H11+
169.1008	99	C13H13+
171.1165	237	C13H15+
173.0958	34	C12H13O+
173.1321	142	C13H17+
175.1114	68	C12H15O+
177.1268	9	C12H17O+
181.1009	48	C14H13+
183.1165	86	C14H15+
185.0957	42	C13H13O+
185.1322	119	C14H17+
187.1115	44	C13H15O+
187.148	19	C14H19+
189.1271	48	C13H17O+
193.1011	17	C15H13+
195.1164	53	C15H15+
197.0964	8	C14H13O+
197.1322	53	C15H17+
199.1114	26	C14H15O+
199.1476	61	C15H19+
201.1268	38	C14H17O+
203.1429	18	C14H19O+
207.1164	45	C16H15+
208.1245	7	C16H16+
209.1319	29	C16H17+
211.1116	18	C15H15O+
211.1479	103	C16H19+
213.1266	29	C15H17O+
213.1634	160	C16H21+
215.1425	15	C15H19O+
221.132	77	C17H17+
222.1397	12	C17H18+
223.1478	120	C17H19+
225.1269	25	C16H17O+
225.1627	11	C17H21+
227.1431	14	C16H19O+
229.1584	26	C16H21O+
231.1739	537	C16H23O+
233.1326	5	C18H17+
235.1477	51	C18H19+
237.1632	37	C18H21+
239.1428	23	C17H19O+
239.179	46	C18H23+
241.1585	26	C17H21O+
248.1548	9	C19H20+
253.1584	48	C18H21O+
253.1953	14	C19H25+
255.1736	11	C18H23O+
257.1894	17	C18H25O+
263.179	104	C20H23+
266.1665	6	C19H22O+
281.1895	220	C20H25O+
299.2	999	C20H27O2+
