Mass spectrum: Metazachlor BH 479-9; LC-ESI-ITFT; MS2; CE: 20%; R=15000; [M+Na]+
Name: Metazachlor BH 479-9
Formula: C16H19N3O4S
Exact mass: 349.1096
SMILES: CC1=CC=CC(C)=C1N(CN1C=CC=N1)C(=O)CS(=O)CC(O)=O
InChI: InChI=1S/C16H19N3O4S/c1-12-5-3-6-13(2)16(12)19(11-18-8-4-7-17-18)14(20)9-24(23)10-15(21)22/h3-8H,9-11H2,1-2H3,(H,21,22)
Instrument: LTQ Orbitrap XL Thermo Scientific
Instrument type: LC-ESI-ITFT
Ms type: MS2
Ion mode: POSITIVE
Ionization: ESI
Fragmentation mode: HCD
Collision energy: 20% (nominal)
Resolution: 15000
Column name: Kinetex Evo C18 2.6 um 50 x 2.1 mm
Retention time: 8.340 min
Base peak: 350.1175
Precursor m/z: 372.0988
Precursor type: [M+Na]+
m/z	relative intensity	assigned
91.0266	13	C3H4N2Na+
156.0788	40	C3H17NaO3S+
170.9725	60	C4H4NaO4S+
185.0815	31	C4H18NaO4S+
220.9987	10	C7H6N2NaO3S+
250.095	97	C13H13N3NaO+
265.1184	145	C14H16N3NaO+
266.126	13	C13H18N2O4+
310.0984	999	C15H17N3NaOS+
313.0853	117	C14H16N3NaO2S+
328.1089	169	C15H19N3NaO2S+
354.0886	56	C16H17N3NaO3S+
372.0992	698	C16H19N3NaO4S+
