Mass spectrum: Celecoxib; LC-ESI-ITFT; MS2; CE: 110%; R=15000; [M-H]-
Name: Celecoxib
Name: 4-[5-(4-methylphenyl)-3-(trifluoromethyl)pyrazol-1-yl]benzenesulfonamide
Formula: C17H14F3N3O2S
Exact mass: 381.0759
SMILES: CC1=CC=C(C=C1)C1=CC(=NN1C1=CC=C(C=C1)S(N)(=O)=O)C(F)(F)F
InChI: InChI=1S/C17H14F3N3O2S/c1-11-2-4-12(5-3-11)15-10-16(17(18,19)20)22-23(15)13-6-8-14(9-7-13)26(21,24)25/h2-10H,1H3,(H2,21,24,25)
Instrument: LTQ Orbitrap XL Thermo Scientific
Instrument type: LC-ESI-ITFT
Ms type: MS2
Ion mode: NEGATIVE
Ionization: ESI
Fragmentation mode: HCD
Collision energy: 110 % (nominal)
Resolution: 15000
Column name: Kinetex Evo C18 2.6 um 50 x 2.1 mm
Retention time: 12.014 min
Base peak: 550.1757
Precursor m/z: 380.0686
Precursor type: [M-H]-
m/z	relative intensity	assigned
68.9958	999	CF3-
79.9812	211	H2NO2S-
159.0364	288	C9H4FN2-
179.0433	210	C9H5F2N2-
225.0645	173	C11H8F3N2-
247.1108	329	C16H13N3-
276.093	321	C17H11FN3-
