Mass spectrum: 3-methylimidazo[4,5-f]quinolin-2-amine; LC-ESI-ITFT; MS2; CE: 20%; R=15000; [M+H]+
Name: 3-methylimidazo[4,5-f]quinolin-2-amine
Formula: C11H10N4
Exact mass: 198.09055
SMILES: CN1C(N)=NC2=C1C=CC1=NC=CC=C21
InChI: InChI=1S/C11H10N4/c1-15-9-5-4-8-7(3-2-6-13-8)10(9)14-11(15)12/h2-6H,1H3,(H2,12,14)
Instrument: LTQ Orbitrap XL Thermo Scientific
Instrument type: LC-ESI-ITFT
Ms type: MS2
Ion mode: POSITIVE
Ionization: ESI
Fragmentation mode: HCD
Collision energy: 20% (nominal)
Resolution: 15000
Column name: Kinetex Evo C18 2.6 um 50 x 2.1 mm
Retention time: 0.773 min
Base peak: 108.0809
Precursor m/z: 199.0978
Precursor type: [M+H]+
m/z	relative intensity	assigned
199.098	999	C11H11N4+
