Mass spectrum: Velvione; LC-ESI-ITFT; MS2; CE: 70%; R=15000; [M+Na]+
Name: Velvione
Name: 5-Cyclohexadecen-1-one
Name: cyclohexadec-5-en-1-one
Formula: C16H28O
Exact mass: NA
SMILES: O=C1CCCCCCCCCCC=CCCC1
InChI: InChI=1S/C16H28O/c17-16-14-12-10-8-6-4-2-1-3-5-7-9-11-13-15-16/h6,8H,1-5,7,9-15H2
Instrument: LTQ Orbitrap XL Thermo Scientific
Instrument type: LC-ESI-ITFT
Ms type: MS2
Ion mode: POSITIVE
Ionization: ESI
Fragmentation mode: HCD
Collision energy: 70 % (nominal)
Resolution: 15000
Column name: Kinetex Evo C18 2.6 um 50 x 2.1 mm
Retention time: 14.247 min
Base peak: 259.2052
Precursor m/z: 259.2032
Precursor type: [M+Na]+
m/z	relative intensity	assigned
69.0697	16	C5H9+
83.0855	12	C6H11+
93.0696	5	C7H9+
105.0699	36	C8H9+
119.0855	159	C9H11+
129.0699	14	C10H9+
131.0855	9	C10H11+
133.1013	144	C10H13+
143.0858	6	C11H11+
147.0805	324	C10H11O+
157.1012	7	C12H13+
159.1174	5	C12H15+
161.0961	196	C11H13O+
173.1327	10	C13H17+
175.1116	999	C12H15O+
189.1273	10	C13H17O+
