Mass spectrum: Imidacloprid; LC-ESI-ITFT; MS2; CE: 50%; R=15000; [M+H]+
Name: Imidacloprid
Name: N-[1-[(6-chloropyridin-3-yl)methyl]-4,5-dihydroimidazol-2-yl]nitramide
Formula: C9H10ClN5O2
Exact mass: 255.05230
SMILES: [O-][N+](=O)\N=C1/NCCN1CC1=CN=C(Cl)C=C1
InChI: InChI=1S/C9H10ClN5O2/c10-8-2-1-7(5-12-8)6-14-4-3-11-9(14)13-15(16)17/h1-2,5H,3-4,6H2,(H,11,13)
Instrument: LTQ Orbitrap XL Thermo Scientific
Instrument type: LC-ESI-ITFT
Ms type: MS2
Ion mode: POSITIVE
Ionization: ESI
Fragmentation mode: HCD
Collision energy: 50% (nominal)
Resolution: 15000
Column name: Kinetex Evo C18 2.6 um 50 x 2.1 mm
Retention time: 6.062 min
Base peak: 239.151
Precursor m/z: 256.0596
Precursor type: [M+H]+
m/z	relative intensity	assigned
56.0493	25	C3H6N+
71.0604	5	C3H7N2+
72.0682	6	C3H8N2+
84.0556	170	C3H6N3+
97.0635	17	C4H7N3+
98.0714	13	C4H8N3+
99.0553	29	C4H7N2O+
126.0106	71	C6H5ClN+
127.0184	3	C6H6ClN+
128.0262	122	C6H7ClN+
133.0762	4	C8H9N2+
141.0213	7	C6H6ClN2+
146.0586	9	C7H6N4+
146.0715	15	C8H8N3+
147.0668	10	C7H7N4+
151.0184	13	C8H6ClN+
153.0213	2	C7H6ClN2+
158.071	3	C9H8N3+
167.0245	7	C7H6ClN3+
167.0375	9	C8H8ClN2+
168.032	3	C7H7ClN3+
168.0447	2	C8H9ClN2+
173.0824	23	C9H9N4+
174.0902	118	C9H10N4+
175.0979	999	C9H11N4+
176.0817	4	C9H10N3O+
180.0323	4	C8H7ClN3+
181.0275	10	C7H6ClN4+
181.0408	3	C8H8ClN3+
193.0402	11	C9H8ClN3+
194.0481	9	C9H9ClN3+
195.0323	2	C9H8ClN2O+
195.0428	4	C8H8ClN4+
209.059	725	C9H10ClN4+
210.0668	33	C9H11ClN4+
212.0586	41	C9H11ClN3O+
