Mass spectrum: 11-Ketotestosterone; LC-ESI-ITFT; MS2; CE: 80%; R=15000; [M+H]+
Name: 11-Ketotestosterone
Name: (8S,9S,10R,13S,14S,17S)-17-hydroxy-10,13-dimethyl-2,6,7,8,9,12,14,15,16,17-decahydro-1H-cyclopenta[a]phenanthrene-3,11-dione
Formula: C19H26O3
Exact mass: 302.18819
SMILES: C[C@]12CC(=O)[C@H]3[C@@H](CCC4=CC(=O)CC[C@]34C)[C@@H]1CC[C@@H]2O
InChI: InChI=1S/C19H26O3/c1-18-8-7-12(20)9-11(18)3-4-13-14-5-6-16(22)19(14,2)10-15(21)17(13)18/h9,13-14,16-17,22H,3-8,10H2,1-2H3/t13-,14-,16-,17+,18-,19-/m0/s1
Instrument: LTQ Orbitrap XL Thermo Scientific
Instrument type: LC-ESI-ITFT
Ms type: MS2
Ion mode: POSITIVE
Ionization: ESI
Fragmentation mode: HCD
Collision energy: 80% (nominal)
Resolution: 15000
Column name: Kinetex Evo C18 2.6 um 50 x 2.1 mm
Retention time: 9.901 min
Base peak: 303.1955
Precursor m/z: 303.1955
Precursor type: [M+H]+
m/z	relative intensity	assigned
67.0539	107	C5H7+
69.0332	28	C4H5O+
69.0696	105	C5H9+
71.0489	53	C4H7O+
77.0384	27	C6H5+
79.054	187	C6H7+
81.0697	272	C6H9+
83.0489	135	C5H7O+
85.0646	23	C5H9O+
91.054	246	C7H7+
93.0697	378	C7H9+
95.049	64	C6H7O+
95.0853	214	C7H11+
97.0646	473	C6H9O+
99.0438	6	C5H7O2+
103.0541	16	C8H7+
105.0697	434	C8H9+
107.049	40	C7H7O+
107.0853	310	C8H11+
109.0646	129	C7H9O+
109.101	28	C8H13+
111.0803	37	C7H11O+
115.0543	12	C9H7+
116.0618	10	C9H8+
117.0696	110	C9H9+
119.0853	284	C9H11+
121.0646	999	C8H9O+
121.101	80	C9H13+
123.0802	200	C8H11O+
128.0618	35	C10H8+
129.0696	88	C10H9+
130.0776	37	C10H10+
131.0853	280	C10H11+
132.0567	6	C9H8O+
133.0646	24	C9H9O+
133.1009	161	C10H13+
135.0802	77	C9H11O+
135.1166	25	C10H15+
137.0956	27	C9H13O+
141.0697	34	C11H9+
142.0775	53	C11H10+
143.0852	182	C11H11+
145.0645	33	C10H9O+
145.1009	244	C11H13+
146.0723	18	C10H10O+
147.0801	167	C10H11O+
147.1165	46	C11H15+
148.0878	31	C10H12O+
149.0958	58	C10H13O+
153.0694	9	C12H9+
154.0775	15	C12H10+
155.0852	95	C12H11+
156.0928	37	C12H12+
157.0644	7	C11H9O+
157.1009	143	C12H13+
158.0723	15	C11H10O+
159.0802	55	C11H11O+
159.1166	100	C12H15+
160.0882	10	C11H12O+
161.0958	134	C11H13O+
161.1321	22	C12H17+
162.1036	48	C11H14O+
163.1114	150	C11H15O+
165.0698	11	C13H9+
166.0776	8	C13H10+
167.0853	26	C13H11+
168.0931	31	C13H12+
169.1009	67	C13H13+
170.1085	17	C13H14+
171.0802	36	C12H11O+
171.1165	87	C13H15+
173.0957	69	C12H13O+
173.1321	21	C13H17+
174.1035	137	C12H14O+
175.1116	38	C12H15O+
177.1271	21	C12H17O+
178.0779	6	C14H10+
179.0849	22	C14H11+
180.0934	10	C14H12+
181.101	49	C14H13+
182.109	21	C14H14+
183.1164	98	C14H15+
184.1246	9	C14H16+
185.0958	28	C13H13O+
185.1321	51	C14H17+
186.1042	8	C13H14O+
187.1115	31	C13H15O+
187.1482	11	C14H19+
188.1192	34	C13H16O+
189.1269	110	C13H17O+
193.1009	26	C15H13+
194.109	15	C15H14+
195.1166	31	C15H15+
197.0962	9	C14H13O+
197.132	47	C15H17+
198.103	6	C14H14O+
199.1114	28	C14H15O+
199.1479	48	C15H19+
201.127	48	C14H17O+
202.1349	10	C14H18O+
203.1428	24	C14H19O+
207.1164	8	C16H15+
208.1251	12	C16H16+
209.1323	17	C16H17+
211.1117	14	C15H15O+
212.1188	8	C15H16O+
213.1271	19	C15H17O+
213.1634	11	C16H21+
217.1579	6	C15H21O+
223.1474	21	C17H19+
225.127	7	C16H17O+
225.1637	7	C17H21+
226.1349	28	C16H18O+
227.1427	67	C16H19O+
229.1218	100	C15H17O2+
239.1421	6	C17H19O+
241.1583	45	C17H21O+
242.166	15	C17H22O+
243.1386	6	C16H19O2+
244.1454	134	C16H20O2+
245.1546	11	C16H21O2+
259.1687	59	C17H23O2+
