Mass spectrum: Fluoxastrobin; LC-ESI-ITFT; MS2; CE: 40%; R=15000; [M+H]+
Name: Fluoxastrobin
Name: (E)-1-[2-[6-(2-chlorophenoxy)-5-fluoropyrimidin-4-yl]oxyphenyl]-1-(5,6-dihydro-1,4,2-dioxazin-3-yl)-N-methoxymethanimine
Formula: C21H16ClFN4O5
Exact mass: 458.07933
SMILES: CO\N=C(\C1=NOCCO1)C1=C(OC2=C(F)C(OC3=C(Cl)C=CC=C3)=NC=N2)C=CC=C1
InChI: InChI=1S/C21H16ClFN4O5/c1-28-26-18(21-27-30-11-10-29-21)13-6-2-4-8-15(13)31-19-17(23)20(25-12-24-19)32-16-9-5-3-7-14(16)22/h2-9,12H,10-11H2,1H3/b26-18+
Instrument: LTQ Orbitrap XL Thermo Scientific
Instrument type: LC-ESI-ITFT
Ms type: MS2
Ion mode: POSITIVE
Ionization: ESI
Fragmentation mode: HCD
Collision energy: 40 % (nominal)
Resolution: 15000
Column name: Kinetex Evo C18 2.6 um 50 x 2.1 mm
Retention time: 11.951 min
Base peak: 330.0812
Precursor m/z: 459.0866
Precursor type: [M+H]+
m/z	relative intensity	assigned
65.0383	17	FH4N3+
77.0385	18	C6H5+
79.0538	8	CH6FN3+
86.024	6	C3H4NO2+
90.0338	86	C6H4N+
93.0336	27	C6H5O+
104.0494	65	C7H6N+
105.0448	6	C6H5N2+
111.0435	8	CH6FN3O2+
118.0524	14	C7H6N2+
119.0365	26	C7H5NO+
120.0443	196	C7H6NO+
129.0097	15	C4H2FN2O2+
129.0448	12	C8H5N2+
130.0289	33	C8H4NO+
130.0399	30	C7H4N3+
130.0521	7	C8H6N2+
132.0443	61	C8H6NO+
133.0518	9	C3H6FN4O+
134.06	41	C8H8NO+
138.0105	364	C7H5ClN+
138.9947	15	C7H4ClO+
139.0056	55	C6H4ClN2+
144.0318	23	C8H4N2O+
145.0396	280	C8H5N2O+
146.0237	63	C8H4NO2+
150.035	72	C8H5FNO+
159.0355	6	C9H4FN2+
160.0264	11	C8H4N2O2+
160.0504	22	C8H6N3O+
161.0345	60	C8H5N2O2+
162.0349	29	C9H5FNO+
163.0057	32	C8H4ClN2+
164.0342	122	C8H6NO3+
166.0058	7	C8H3FO3+
168.001	38	C8H4ClFN+
170.0347	65	C9H4N3O+
174.0484	6	C11H7FO+
175.0305	34	C6H7ClFN3+
176.0379	55	C9H5FN2O+
177.0456	8	C9H6FN2O+
178.0298	114	C9H5FNO2+
179.0007	118	C8H4ClN2O+
182.0357	7	C7H7ClN4+
183.0118	21	C8H5ClFN2+
183.9959	38	C8H4ClFNO+
187.0303	6	C10H4FN2O+
188.0381	999	C10H5FN2O+
188.0577	62	C7H11ClN3O+
189.0412	30	C5H6FN4O3+
190.0411	22	C9H5FN3O+
190.0499	43	C10H8NO3+
195.0122	6	C9H5ClFN2+
195.9968	8	C9H4ClFNO+
198.0305	7	C7H7ClN4O+
202.0414	22	C15H6O+
203.0251	23	C10H4FN2O2+
205.0408	94	C10H6FN2O2+
205.0607	96	C10H9N2O3+
214.0066	60	C9H6ClFNO2+
214.0408	15	C11H5FN3O+
214.0605	36	C7H15ClO5+
216.0581	5	C13H9FO2+
223.007	32	C10H5ClFN2O+
223.9908	23	C10H4ClFNO2+
228.0446	18	C16H6NO+
230.036	127	C11H5FN3O2+
231.0198	61	C11H4FN2O3+
240.0443	30	C17H6NO+
241.0173	22	C10H7ClFN2O2+
246.031	137	C11H5FN3O3+
262.0535	8	C16H7FN2O+
266.0129	76	C16H7ClO2+
267.0324	28	C12H9ClFN2O2+
277.0672	7	C15H13ClFNO+
280.064	16	C16H9FN2O2+
306.0671	257	C17H9FN3O2+
315.0329	119	C16H9ClFN2O2+
331.0622	16	C18H8FN4O2+
340.028	80	C20H7ClN3O+
342.0437	56	C20H7FN2O3+
367.0388	151	C21H6FN3O3+
383.0339	81	C21H6FN3O4+
427.0595	189	C20H13ClFN4O4+
