Mass spectrum: Linuron; LC-ESI-ITFT; MS2; CE: 70%; R=15000; [M+H]+
Name: Linuron
Name: 3-(3,4-dichlorophenyl)-1-methoxy-1-methylurea
Formula: C9H10Cl2N2O2
Exact mass: 248.0119
SMILES: CON(C)C(=O)NC1=CC=C(Cl)C(Cl)=C1
InChI: InChI=1S/C9H10Cl2N2O2/c1-13(15-2)9(14)12-6-3-4-7(10)8(11)5-6/h3-5H,1-2H3,(H,12,14)
Instrument: LTQ Orbitrap XL Thermo Scientific
Instrument type: LC-ESI-ITFT
Ms type: MS2
Ion mode: POSITIVE
Ionization: ESI
Fragmentation mode: HCD
Collision energy: 70% (nominal)
Resolution: 15000
Column name: Kinetex Evo C18 2.6 um 50 x 2.1 mm
Retention time: 10.660 min
Base peak: 249.02
Precursor m/z: 249.0192
Precursor type: [M+H]+
m/z	relative intensity	assigned
60.0441	60	C2H6NO+
62.0598	42	C2H8NO+
123.9948	65	C6H3ClN+
125.0026	264	C6H4ClN+
126.0103	6	C6H5ClN+
127.018	7	C9H3O+
132.9606	630	C5H3Cl2+
140.0266	7	C7H7ClN+
142.0056	6	C6H5ClNO+
153.0214	232	C7H6ClN2+
159.9715	999	C6H4Cl2N+
160.9793	635	C6H5Cl2N+
165.0215	26	C8H6ClN2+
173.9878	7	C7H6Cl2N+
181.0163	137	C8H6ClN2O+
182.0241	355	C8H7ClN2O+
216.9929	63	C8H7Cl2N2O+
