Mass spectrum: Canrenone; LC-ESI-ITFT; MS2; CE: 90%; R=15000; [M+H]+
Name: Canrenone
Name: UJVLDDZCTMKXJK-AFDHUMPMSA-N
Name: (9S,14S)-10,13-dimethylspiro[2,8,9,11,12,14,15,16-octahydro-1H-cyclopenta[a]phenanthrene-17,5`-oxolane]-2`,3-dione
Formula: C22H28O3
Exact mass: 340.2038
SMILES: CC12CC[C@H]3C(C=CC4=CC(=O)CCC34C)[C@@H]1CCC21CCC(=O)O1
InChI: InChI=1S/C22H28O3/c1-20-9-5-15(23)13-14(20)3-4-16-17(20)6-10-21(2)18(16)7-11-22(21)12-8-19(24)25-22/h3-4,13,16-18H,5-12H2,1-2H3/t16?,17-,18-,20?,21?,22?/m0/s1
Instrument: LTQ Orbitrap XL Thermo Scientific
Instrument type: LC-ESI-ITFT
Ms type: MS2
Ion mode: POSITIVE
Ionization: ESI
Fragmentation mode: HCD
Collision energy: 90% (nominal)
Resolution: 15000
Column name: Kinetex Evo C18 2.6 um 50 x 2.1 mm
Retention time: 11.465 min
Base peak: 289.2162
Precursor m/z: 341.2111
Precursor type: [M+H]+
m/z	relative intensity	assigned
55.0177	28	C3H3O+
55.054	32	C4H7+
67.0542	56	C5H7+
71.0491	35	C4H7O+
79.0543	421	C6H7+
81.0699	64	C6H9+
83.0492	213	C5H7O+
91.0543	505	C7H7+
93.07	202	C7H9+
95.0856	50	C7H11+
97.065	356	C6H9O+
99.0442	63	C5H7O2+
105.07	511	C8H9+
107.0857	999	C8H11+
109.0648	63	C7H9O+
115.0545	24	C9H7+
117.0699	106	C9H9+
119.0857	230	C9H11+
121.0649	33	C8H9O+
121.1014	37	C9H13+
123.0808	32	C8H11O+
128.0622	70	C10H8+
129.0701	95	C10H9+
130.0777	30	C10H10+
131.0856	166	C10H11+
133.0651	33	C9H9O+
133.1015	58	C10H13+
141.0702	45	C11H9+
142.078	73	C11H10+
143.0858	163	C11H11+
145.1014	165	C11H13+
147.0805	28	C10H11O+
149.0959	25	C10H13O+
154.0775	45	C12H10+
155.0858	95	C12H11+
157.1014	69	C12H13+
159.0803	27	C11H11O+
159.1168	26	C12H15+
161.0962	27	C11H13O+
167.0861	26	C13H11+
168.094	25	C13H12+
169.1012	60	C13H13+
170.1092	28	C13H14+
173.0961	36	C12H13O+
179.0863	30	C14H11+
181.1013	43	C14H13+
183.1174	38	C14H15+
185.1323	20	C14H17+
