Mass spectrum: Ciclopirox; LC-ESI-ITFT; MS2; CE: 40%; R=15000; [M+H]+
Name: Ciclopirox
Name: 6-cyclohexyl-1-hydroxy-4-methylpyridin-2-one
Formula: C12H17NO2
Exact mass: 207.1259
SMILES: CC1=CC(=O)N(O)C(=C1)C1CCCCC1
InChI: InChI=1S/C12H17NO2/c1-9-7-11(13(15)12(14)8-9)10-5-3-2-4-6-10/h7-8,10,15H,2-6H2,1H3
Instrument: LTQ Orbitrap XL Thermo Scientific
Instrument type: LC-ESI-ITFT
Ms type: MS2
Ion mode: POSITIVE
Ionization: ESI
Fragmentation mode: HCD
Collision energy: 40 % (nominal)
Resolution: 15000
Column name: Kinetex Evo C18 2.6 um 50 x 2.1 mm
Retention time: 11.858 min
Base peak: 116.9863
Precursor m/z: 208.1332
Precursor type: [M+H]+
m/z	relative intensity	assigned
81.0702	10	C6H9+
94.0654	4	C6H8N+
123.0684	8	C7H9NO+
136.0761	7	C8H10NO+
162.1282	18	C11H16N+
208.134	999	C12H18NO2+
