Mass spectrum: Butocarboxim; LC-ESI-ITFT; MS2; CE: 10%; R=15000; [M+Na]+
Name: Butocarboxim
Name: Butocarboxime
Name: [(Z)-3-methylsulfanylbutan-2-ylideneamino] N-methylcarbamate
Formula: C7H14N2O2S
Exact mass: 190.0776
SMILES: CNC(=O)O\N=C(\C)C(C)SC
InChI: InChI=1S/C7H14N2O2S/c1-5(6(2)12-4)9-11-7(10)8-3/h6H,1-4H3,(H,8,10)/b9-5-
Instrument: LTQ Orbitrap XL Thermo Scientific
Instrument type: LC-ESI-ITFT
Ms type: MS2
Ion mode: POSITIVE
Ionization: ESI
Fragmentation mode: HCD
Collision energy: 10% (nominal)
Resolution: 15000
Column name: Kinetex Evo C18 2.6 um 50 x 2.1 mm
Retention time: 7.150 min
Base peak: 116.9863
Precursor m/z: 213.0668
Precursor type: [M+Na]+
m/z	relative intensity	assigned
156.0459	999	C5H11NNaOS+
213.0673	828	C7H14N2NaO2S+
