Mass spectrum: Celecoxib; LC-ESI-ITFT; MS2; CE: 90%; R=15000; [M+H]+
Name: Celecoxib
Name: 4-[5-(4-methylphenyl)-3-(trifluoromethyl)pyrazol-1-yl]benzenesulfonamide
Formula: C17H14F3N3O2S
Exact mass: 381.07588
SMILES: CC1=CC=C(C=C1)C1=CC(=NN1C1=CC=C(C=C1)S(N)(=O)=O)C(F)(F)F
InChI: InChI=1S/C17H14F3N3O2S/c1-11-2-4-12(5-3-11)15-10-16(17(18,19)20)22-23(15)13-6-8-14(9-7-13)26(21,24)25/h2-10H,1H3,(H2,21,24,25)
Instrument: LTQ Orbitrap XL Thermo Scientific
Instrument type: LC-ESI-ITFT
Ms type: MS2
Ion mode: POSITIVE
Ionization: ESI
Fragmentation mode: HCD
Collision energy: 90% (nominal)
Resolution: 15000
Column name: Kinetex Evo C18 2.6 um 50 x 2.1 mm
Retention time: 12.021 min
Base peak: 552.1918
Precursor m/z: 382.0832
Precursor type: [M+H]+
m/z	relative intensity	assigned
58.0652	134	C3H8N+
65.0388	164	C5H5+
75.0232	453	C6H3+
91.0546	436	C7H7+
115.0549	235	CH7F2N3O+
116.0499	84	C8H6N+
118.0654	101	C8H8N+
131.0739	198	C6H10FNO+
133.0452	136	CH6F3N3O+
138.9849	73	C6H3O2S+
165.039	402	C6H6F3NO+
165.0707	121	C5H9F2N3O+
166.0462	95	C9H6F2N+
185.0448	77	C9H6F3N+
190.0661	87	C11H9FNO+
191.0738	205	C11H10FNO+
204.0818	140	C12H11FNO+
205.0887	89	C12H12FNO+
206.0972	258	C12H13FNO+
207.1051	90	C12H14FNO+
218.0848	249	C12H11FN2O+
231.0928	324	C13H12FN2O+
232.1007	164	C13H13FN2O+
233.1079	159	C13H14FN2O+
234.0722	94	C16H9FN+
235.0794	94	C16H10FN+
240.0633	98	C12H9F3NO+
247.0675	173	C13H9F2N2O+
254.079	84	C13H11F3NO+
255.0748	102	C12H10F3N2O+
261.083	379	C14H11F2N2O+
263.0976	79	C17H12FN2+
266.066	128	C13H9F3N2O+
267.0734	484	C13H10F3N2O+
280.0819	169	C14H11F3N2O+
281.0895	999	C14H12F3N2O+
282.0969	139	C14H13F3N2O+
301.0944	118	C17H12F3N2+
