Mass spectrum: L-Thyroxine; LC-ESI-ITFT; MS2; CE: 50%; R=15000; [M+H]+
Name: L-Thyroxine
Name: Levothyroxine
Name: (2S)-2-amino-3-[4-(4-hydroxy-3,5-diiodophenoxy)-3,5-diiodophenyl]propanoic acid
Formula: C15H11I4NO4
Exact mass: 776.68670
SMILES: N[C@@H](CC1=CC(I)=C(OC2=CC(I)=C(O)C(I)=C2)C(I)=C1)C(O)=O
InChI: InChI=1S/C15H11I4NO4/c16-8-4-7(5-9(17)13(8)21)24-14-10(18)1-6(2-11(14)19)3-12(20)15(22)23/h1-2,4-5,12,21H,3,20H2,(H,22,23)/t12-/m0/s1
Instrument: LTQ Orbitrap XL Thermo Scientific
Instrument type: LC-ESI-ITFT
Ms type: MS2
Ion mode: POSITIVE
Ionization: ESI
Fragmentation mode: HCD
Collision energy: 50% (nominal)
Resolution: 15000
Column name: Kinetex Evo C18 2.6 um 50 x 2.1 mm
Retention time: 11.101 min
Base peak: 777.6962
Precursor m/z: 777.694
Precursor type: [M+H]+
m/z	relative intensity	assigned
104.0498	21	C7H6N+
117.0579	142	C8H7N+
118.0655	45	C8H8N+
169.0656	72	C12H9O+
179.0494	23	C13H7O+
196.0764	135	C13H10NO+
197.0604	241	C13H9O2+
216.9517	106	C7H6I+
223.0636	282	C14H9NO2+
224.0714	147	C14H10NO2+
225.0547	29	C14H9O3+
232.9466	122	C7H6IO+
242.9541	32	C8H6IN+
243.9617	22	C8H7IN+
253.0506	22	C15H9O4+
259.9577	332	C8H7INO+
295.9704	29	C12H9IO+
309.9492	342	C12H7IO2+
322.9572	578	C13H8IO2+
323.965	999	C13H9IO2+
333.9495	54	C14H7IO2+
335.9642	48	C14H9IO2+
336.9369	134	C13H6IO3+
337.9441	168	C13H7IO3+
345.8353	100	C6H4I2O+
349.9679	215	C14H9INO2+
350.9513	69	C14H8IO3+
350.9758	654	C14H10INO2+
351.9599	71	C14H9IO3+
360.8229	52	C6H3I2O2+
378.9461	28	C15H8IO4+
379.9555	95	C15H9IO4+
432.8592	32	C13H7I2O+
448.8531	139	C13H7I2O2+
449.8607	72	C13H8I2O2+
450.8688	209	C13H9I2O2+
476.8708	105	C14H9I2NO2+
478.8624	27	C14H9I2O3+
488.848	33	C15H7I2O3+
576.7651	196	C13H8I3O2+
577.7757	27	C13H9I3O2+
604.7843	144	C14H10I3NO2+
