Mass spectrum: Ziprasidone; LC-ESI-ITFT; MS2; CE: 80%; R=15000; [M+H]+
Name: Ziprasidone
Name: 5-[2-[4-(1,2-benzothiazol-3-yl)piperazin-1-yl]ethyl]-6-chloro-1,3-dihydroindol-2-one
Formula: C21H21ClN4OS
Exact mass: 412.1125
SMILES: ClC1=C(CCN2CCN(CC2)C2=NSC3=CC=CC=C23)C=C2CC(=O)NC2=C1
InChI: InChI=1S/C21H21ClN4OS/c22-17-13-18-15(12-20(27)23-18)11-14(17)5-6-25-7-9-26(10-8-25)21-16-3-1-2-4-19(16)28-24-21/h1-4,11,13H,5-10,12H2,(H,23,27)
Instrument: LTQ Orbitrap XL Thermo Scientific
Instrument type: LC-ESI-ITFT
Ms type: MS2
Ion mode: POSITIVE
Ionization: ESI
Fragmentation mode: HCD
Collision energy: 80% (nominal)
Resolution: 15000
Column name: Kinetex Evo C18 2.6 um 50 x 2.1 mm
Retention time: 8.187 min
Base peak: 413.1211
Precursor m/z: 413.1197
Precursor type: [M+H]+
m/z	relative intensity	assigned
103.0547	90	C8H7+
123.0267	5	C7H7S+
130.0657	301	C9H8N+
131.0735	370	C9H9N+
136.0222	35	C7H6NS+
139.0316	95	C8H8Cl+
149.016	20	C9H6Cl+
150.0378	16	C8H8NS+
152.0172	9	C4H9ClN2S+
158.0608	139	C7H11ClN2+
159.0686	836	C7H12ClN2+
166.0426	999	C9H9ClN+
175.0345	6	C8H12ClS+
177.0489	149	C9H9N2S+
194.0376	584	C10H9ClNO+
