Mass spectrum: Dodemorph; LC-ESI-ITFT; MS2; CE: 60%; R=15000; [M+Na]+
Name: Dodemorph
Name: 4-cyclododecyl-2,6-dimethylmorpholine
Formula: C18H35NO
Exact mass: 281.2719
SMILES: CC1CN(CC(C)O1)C1CCCCCCCCCCC1
InChI: InChI=1S/C18H35NO/c1-16-14-19(15-17(2)20-16)18-12-10-8-6-4-3-5-7-9-11-13-18/h16-18H,3-15H2,1-2H3
Instrument: LTQ Orbitrap XL Thermo Scientific
Instrument type: LC-ESI-ITFT
Ms type: MS2
Ion mode: POSITIVE
Ionization: ESI
Fragmentation mode: HCD
Collision energy: 60% (nominal)
Resolution: 15000
Column name: Kinetex Evo C18 2.6 um 50 x 2.1 mm
Retention time: 9.321 min
Base peak: 304.2633
Precursor m/z: 304.2611
Precursor type: [M+Na]+
m/z	relative intensity	assigned
70.0649	7	C4H8N+
72.0806	17	C4H10N+
88.0757	7	C4H10NO+
91.0543	19	C7H7+
98.0965	266	C6H12N+
100.1125	2	C6H14N+
102.0914	8	C5H12NO+
105.0699	49	C8H9+
107.0856	4	C8H11+
112.1122	10	C7H14N+
114.0914	5	C6H12NO+
116.1071	225	C6H14NO+
119.0856	48	C9H11+
128.1073	2	C7H14NO+
130.1228	264	C7H16NO+
131.0855	3	C10H11+
132.0936	27	C10H12+
133.1013	4	C10H13+
145.1015	2	C11H13+
147.117	999	C11H15+
161.1327	28	C12H17+
189.1638	30	C14H21+
248.201	5	C16H26NO+
