Mass spectrum: Prosulfuron; LC-ESI-ITFT; MS2; CE: 20%; R=15000; [M+H]+
Name: Prosulfuron
Name: 1-(4-methoxy-6-methyl-1,3,5-triazin-2-yl)-3-[2-(3,3,3-trifluoropropyl)phenyl]sulfonylurea
Formula: C15H16F3N5O4S
Exact mass: 419.08751
SMILES: COC1=NC(C)=NC(NC(=O)NS(=O)(=O)C2=CC=CC=C2CCC(F)(F)F)=N1
InChI: InChI=1S/C15H16F3N5O4S/c1-9-19-12(22-14(20-9)27-2)21-13(24)23-28(25,26)11-6-4-3-5-10(11)7-8-15(16,17)18/h3-6H,7-8H2,1-2H3,(H2,19,20,21,22,23,24)
Instrument: LTQ Orbitrap XL Thermo Scientific
Instrument type: LC-ESI-ITFT
Ms type: MS2
Ion mode: POSITIVE
Ionization: ESI
Fragmentation mode: HCD
Collision energy: 20 % (nominal)
Resolution: 15000
Column name: Kinetex Evo C18 2.6 um 50 x 2.1 mm
Retention time: 11.325 min
Base peak: 420.0957
Precursor m/z: 420.0948
Precursor type: [M+H]+
m/z	relative intensity	assigned
56.0494	3	C3H6N+
109.045	8	C7H6F+
141.0776	999	C5H9N4O+
166.0728	13	H14N4O4S+
167.0569	679	C6H7N4O2+
217.0134	6	C12H2F3N+
237.02	12	C9H7N3O3S+
377.0899	5	C14H16F3N4O3S+
420.0954	138	C15H17F3N5O4S+
