Mass spectrum: N-Acetyl-4-aminoantipyrine; LC-ESI-ITFT; MS2; CE: 80%; R=15000; [M+Na]+
Name: N-Acetyl-4-aminoantipyrine
Name: N-(1,5-dimethyl-3-oxo-2-phenylpyrazol-4-yl)acetamide
Formula: C13H15N3O2
Exact mass: 245.1164
SMILES: CN1N(C(=O)C(NC(C)=O)=C1C)C1=CC=CC=C1
InChI: InChI=1S/C13H15N3O2/c1-9-12(14-10(2)17)13(18)16(15(9)3)11-7-5-4-6-8-11/h4-8H,1-3H3,(H,14,17)
Instrument: LTQ Orbitrap XL Thermo Scientific
Instrument type: LC-ESI-ITFT
Ms type: MS2
Ion mode: POSITIVE
Ionization: ESI
Fragmentation mode: HCD
Collision energy: 80% (nominal)
Resolution: 15000
Column name: Kinetex Evo C18 2.6 um 50 x 2.1 mm
Retention time: 4.624 min
Base peak: 268.1913
Precursor m/z: 268.1056
Precursor type: [M+Na]+
m/z	relative intensity	assigned
72.0805	691	C4H10N+
74.0598	999	C3H8NO+
77.0384	64	C6H5+
79.054	214	C6H7+
84.0807	68	C5H10N+
91.0542	419	C7H7+
93.0698	133	C7H9+
95.049	15	C6H7O+
98.0964	207	C6H12N+
100.112	104	C6H14N+
103.0542	821	C8H7+
104.062	23	C8H8+
105.0447	51	C6H5N2+
105.0699	808	C8H9+
107.049	30	C7H7O+
107.0855	15	C8H11+
115.0542	94	C9H7+
116.062	74	C9H8+
116.107	235	C6H14NO+
117.0698	51	C9H9+
119.0856	45	C9H11+
120.0571	48	C8H8O+
120.0806	11	C8H10N+
121.0648	879	C8H9O+
129.07	90	C10H9+
131.0492	36	C9H7O+
131.0606	12	C8H7N2+
131.0856	170	C10H11+
133.0648	914	C9H9O+
135.0804	117	C9H11O+
141.07	76	C11H9+
144.057	121	C10H8O+
147.0804	56	C10H11O+
148.0757	202	C9H10NO+
151.0755	29	C9H11O2+
159.0805	193	C11H11O+
163.0865	328	C9H11N2O+
165.0911	23	C10H13O2+
169.0755	24	C11H9N2+
191.1062	8	C12H15O2+
