Mass spectrum: Metribuzin; LC-ESI-ITFT; MS2; CE: 50%; R=15000; [M+H]+
Name: Metribuzin
Name: 4-amino-6-tert-butyl-3-methylsulfanyl-1,2,4-triazin-5-one
Formula: C8H14N4OS
Exact mass: 214.08883
SMILES: CSC1=NN=C(C(=O)N1N)C(C)(C)C
InChI: InChI=1S/C8H14N4OS/c1-8(2,3)5-6(13)12(9)7(14-4)11-10-5/h9H2,1-4H3
Instrument: LTQ Orbitrap XL Thermo Scientific
Instrument type: LC-ESI-ITFT
Ms type: MS2
Ion mode: POSITIVE
Ionization: ESI
Fragmentation mode: HCD
Collision energy: 50% (nominal)
Resolution: 15000
Column name: Kinetex Evo C18 2.6 um 50 x 2.1 mm
Retention time: 8.276 min
Base peak: 215.0964
Precursor m/z: 215.0961
Precursor type: [M+H]+
m/z	relative intensity	assigned
59.99	7	CH2NS+
69.0084	6	C2HN2O+
69.0696	13	C5H9+
74.0057	26	C2H4NS+
76.0214	13	C2H6NS+
82.065	15	C5H8N+
84.0806	87	C5H10N+
86.99	2	C3H3OS+
87.001	16	C2H3N2S+
88.0088	3	C2H4N2S+
89.0167	60	C2H5N2S+
89.0419	5	C4H9S+
97.0646	25	C6H9O+
99.0916	8	C5H11N2+
104.0275	16	C2H6N3S+
108.068	2	C6H8N2+
110.0598	7	C6H8NO+
114.9959	45	C3H3N2OS+
127.0861	4	C6H11N2O+
130.0685	8	C6H12NS+
131.0272	17	C4H7N2OS+
131.0384	59	C3H7N4S+
132.0224	3	C3H6N3OS+
139.0871	2	C7H11N2O+
140.1056	5	C6H12N4+
145.0542	26	C4H9N4S+
150.0664	2	C7H8N3O+
155.0508	3	C6H9N3S+
157.0426	7	C6H9N2OS+
167.092	3	C7H11N4O+
171.0585	42	C7H11N2OS+
172.0669	4	C7H12N2OS+
172.0772	7	C6H12N4S+
183.0461	3	C7H9N3OS+
184.0537	9	C7H10N3OS+
186.0819	55	C8H14N2OS+
187.101	936	C7H15N4S+
200.0726	5	C7H12N4OS+
215.0958	999	C8H15N4OS+
