Mass spectrum: 6-beta-Hydroxycortisol; LC-ESI-ITFT; MS2; CE: 40%; R=15000; [M+H]+
Name: 6-beta-Hydroxycortisol
Name: 6beta-Hydroxycortisol
Name: (6R,8S,9S,10R,11S,13S,14S,17R)-6,11,17-trihydroxy-17-(2-hydroxyacetyl)-10,13-dimethyl-2,6,7,8,9,11,12,14,15,16-decahydro-1H-cyclopenta[a]phenanthren-3-one
Formula: C21H30O6
Exact mass: 378.20424
SMILES: C[C@]12C[C@H](O)[C@H]3[C@@H](C[C@@H](O)C4=CC(=O)CC[C@]34C)[C@@H]1CC[C@]2(O)C(=O)CO
InChI: InChI=1S/C21H30O6/c1-19-5-3-11(23)7-14(19)15(24)8-12-13-4-6-21(27,17(26)10-22)20(13,2)9-16(25)18(12)19/h7,12-13,15-16,18,22,24-25,27H,3-6,8-10H2,1-2H3/t12-,13-,15+,16-,18+,19-,20-,21-/m0/s1
Instrument: LTQ Orbitrap XL Thermo Scientific
Instrument type: LC-ESI-ITFT
Ms type: MS2
Ion mode: POSITIVE
Ionization: ESI
Fragmentation mode: HCD
Collision energy: 40% (nominal)
Resolution: 15000
Column name: Kinetex Evo C18 2.6 um 50 x 2.1 mm
Retention time: 6.592 min
Base peak: 116.986
Precursor m/z: 379.2115
Precursor type: [M+H]+
m/z	relative intensity	assigned
93.0703	277	C7H9+
97.0649	422	C6H9O+
145.1012	594	C11H13+
149.0966	249	C10H13O+
187.1117	387	C13H15O+
237.1271	335	C17H17O+
239.1427	999	C17H19O+
247.1488	351	C19H19+
265.1585	779	C19H21O+
267.1756	674	C19H23O+
279.1746	373	C20H23O+
283.1702	517	C19H23O2+
285.1846	269	C19H25O2+
313.181	356	C20H25O3+
