Mass spectrum: Medroxyprogesterone; LC-ESI-ITFT; MS2; CE: 50%; R=15000; [M+H]+
Name: Medroxyprogesterone
Name: (6S,8R,9S,10R,13S,14S,17R)-17-acetyl-17-hydroxy-6,10,13-trimethyl-2,6,7,8,9,11,12,14,15,16-decahydro-1H-cyclopenta[a]phenanthren-3-one
Formula: C22H32O3
Exact mass: 344.23514
SMILES: [H][C@@]12CC[C@](O)(C(C)=O)[C@@]1(C)CC[C@@]1([H])[C@@]2([H])C[C@H](C)C2=CC(=O)CC[C@]12C
InChI: InChI=1S/C22H32O3/c1-13-11-16-17(20(3)8-5-15(24)12-19(13)20)6-9-21(4)18(16)7-10-22(21,25)14(2)23/h12-13,16-18,25H,5-11H2,1-4H3/t13-,16+,17-,18-,20+,21-,22-/m0/s1
Instrument: LTQ Orbitrap XL Thermo Scientific
Instrument type: LC-ESI-ITFT
Ms type: MS2
Ion mode: POSITIVE
Ionization: ESI
Fragmentation mode: HCD
Collision energy: 50% (nominal)
Resolution: 15000
Column name: Kinetex Evo C18 2.6 um 50 x 2.1 mm
Retention time: 12.149 min
Base peak: 345.2423
Precursor m/z: 345.2424
Precursor type: [M+H]+
m/z	relative intensity	assigned
67.0543	3	C5H7+
79.0542	3	C6H7+
81.0699	8	C6H9+
83.0492	26	C5H7O+
93.07	14	C7H9+
95.0856	22	C7H11+
97.0649	503	C6H9O+
99.0805	4	C6H11O+
105.07	10	C8H9+
107.0857	19	C8H11+
109.065	9	C7H9O+
109.1012	10	C8H13+
111.0805	8	C7H11O+
119.0858	22	C9H11+
121.0647	3	C8H9O+
121.1014	16	C9H13+
123.0806	999	C8H11O+
131.0858	7	C10H11+
133.1013	22	C10H13+
135.0806	12	C9H11O+
135.1169	13	C10H15+
137.0962	77	C9H13O+
143.0856	7	C11H11+
145.1014	27	C11H13+
147.117	27	C11H15+
149.0961	7	C10H13O+
149.1331	4	C11H17+
151.1117	4	C10H15O+
157.1013	12	C12H13+
159.117	25	C12H15+
161.0963	6	C11H13O+
161.1327	25	C12H17+
163.1118	16	C11H15O+
163.1477	4	C12H19+
169.1012	4	C13H13+
171.117	19	C13H15+
173.1327	33	C13H17+
175.1122	10	C12H15O+
175.1483	28	C13H19+
177.1277	16	C12H17O+
177.1636	3	C13H21+
183.117	8	C14H15+
185.1326	17	C14H17+
187.1123	8	C13H15O+
187.1482	21	C14H19+
189.1276	17	C13H17O+
189.1641	6	C14H21+
191.1432	15	C13H19O+
195.1171	3	C15H15+
197.1326	15	C15H17+
199.1484	18	C15H19+
201.1639	6	C15H21+
203.1431	10	C14H19O+
203.1795	3	C15H23+
205.1585	5	C14H21O+
211.1484	8	C16H19+
213.1635	8	C16H21+
214.1358	11	C15H18O+
215.1432	17	C15H19O+
217.1587	12	C15H21O+
225.1638	11	C17H21+
227.1424	2	C16H19O+
227.1795	13	C17H23+
229.1589	6	C16H21O+
231.1739	3	C16H23O+
239.1434	8	C17H19O+
239.18	4	C18H23+
241.1593	4	C17H21O+
243.1746	3	C17H23O+
245.1903	4	C17H25O+
251.1785	5	C19H23+
257.1538	28	C17H21O2+
257.1904	4	C18H25O+
265.1954	3	C20H25+
266.2026	4	C20H26+
267.2111	25	C20H27+
269.1897	7	C19H25O+
275.1645	10	C17H23O3+
283.207	4	C20H27O+
284.2135	7	C20H28O+
285.2214	14	C20H29O+
309.2209	9	C22H29O+
327.2327	6	C22H31O2+
345.2423	11	C22H33O3+
