Mass spectrum: Carbamazepine; LC-ESI-ITFT; MS2; CE: 50%; R=15000; [M+H]+
Name: Carbamazepine
Name: benzo[b][1]benzazepine-11-carboxamide
Formula: C15H12N2O
Exact mass: 236.0950
SMILES: NC(=O)N1C2=CC=CC=C2C=CC2=CC=CC=C12
InChI: InChI=1S/C15H12N2O/c16-15(18)17-13-7-3-1-5-11(13)9-10-12-6-2-4-8-14(12)17/h1-10H,(H2,16,18)
Instrument: LTQ Orbitrap XL Thermo Scientific
Instrument type: LC-ESI-ITFT
Ms type: MS2
Ion mode: POSITIVE
Ionization: ESI
Fragmentation mode: HCD
Collision energy: 50% (nominal)
Resolution: 15000
Column name: Kinetex Evo C18 2.6 um 50 x 2.1 mm
Retention time: 9.605 min
Base peak: 231.1503
Precursor m/z: 237.1022
Precursor type: [M+H]+
m/z	relative intensity	assigned
167.0862	2	C13H11+
179.0722	1	C13H9N+
192.0812	229	C14H10N+
193.089	18	C14H11N+
194.0966	999	C14H12N+
220.0759	5	C15H10NO+
237.1026	86	C15H13N2O+
