Mass spectrum: Acetochlor; LC-ESI-ITFT; MS2; CE: 40%; R=15000; [M+Na]+
Name: Acetochlor
Name: 2-chloro-N-(ethoxymethyl)-N-(2-ethyl-6-methylphenyl)acetamide
Formula: C14H20ClNO2
Exact mass: 269.11826
SMILES: CCOCN(C(=O)CCl)C1=C(C)C=CC=C1CC
InChI: InChI=1S/C14H20ClNO2/c1-4-12-8-6-7-11(3)14(12)16(10-18-5-2)13(17)9-15/h6-8H,4-5,9-10H2,1-3H3
Instrument: LTQ Orbitrap XL Thermo Scientific
Instrument type: LC-ESI-ITFT
Ms type: MS2
Ion mode: POSITIVE
Ionization: ESI
Fragmentation mode: HCD
Collision energy: 40% (nominal)
Resolution: 15000
Column name: Kinetex Evo C18 2.6 um 50 x 2.1 mm
Retention time: 11.632 min
Base peak: 224.0841
Precursor m/z: 292.1075
Precursor type: [M+Na]+
m/z	relative intensity	assigned
72.0442	999	C3H6NO+
118.0652	9	C8H8N+
147.068	15	C9H9NO+
148.1116	6	C10H14N+
160.1121	39	C11H14N+
162.1278	84	C11H16N+
164.0944	58	C6H18ClNaO+
206.1537	24	C13H20NO+
