Mass spectrum: Triethylcitrate; LC-ESI-ITFT; MS2; CE: 30%; R=15000; [M+Na]+
Name: Triethylcitrate
Name: Triethyl citrate
Name: triethyl 2-hydroxypropane-1,2,3-tricarboxylate
Formula: C12H20O7
Exact mass: 276.1209
SMILES: CCOC(=O)CC(O)(CC(=O)OCC)C(=O)OCC
InChI: InChI=1S/C12H20O7/c1-4-17-9(13)7-12(16,11(15)19-6-3)8-10(14)18-5-2/h16H,4-8H2,1-3H3
Instrument: LTQ Orbitrap XL Thermo Scientific
Instrument type: LC-ESI-ITFT
Ms type: MS2
Ion mode: POSITIVE
Ionization: ESI
Fragmentation mode: HCD
Collision energy: 30% (nominal)
Resolution: 15000
Column name: Kinetex Evo C18 2.6 um 50 x 2.1 mm
Retention time: 9.035 min
Base peak: 277.1281
Precursor m/z: 299.1101
Precursor type: [M+Na]+
m/z	relative intensity	assigned
179.0318	2	C7H8NaO4+
211.0574	60	C8H12NaO5+
225.0728	21	C9H14NaO5+
257.0047	1	C11H6NaO6+
271.0779	36	C10H16NaO7+
299.109	999	C12H20NaO7+
