Mass spectrum: Pethoxamid; LC-ESI-ITFT; MS2; CE: 90%; R=15000; [M+Na]+
Name: Pethoxamid
Name: 2-chloro-N-(2-ethoxyethyl)-N-(2-methyl-1-phenylprop-1-enyl)acetamide
Formula: C16H22ClNO2
Exact mass: NA
SMILES: CCOCCN(C(=O)CCl)C(=C(C)C)C1=CC=CC=C1
InChI: InChI=1S/C16H22ClNO2/c1-4-20-11-10-18(15(19)12-17)16(13(2)3)14-8-6-5-7-9-14/h5-9H,4,10-12H2,1-3H3
Instrument: LTQ Orbitrap XL Thermo Scientific
Instrument type: LC-ESI-ITFT
Ms type: MS2
Ion mode: POSITIVE
Ionization: ESI
Fragmentation mode: HCD
Collision energy: 90% (nominal)
Resolution: 15000
Column name: Kinetex Evo C18 2.6 um 50 x 2.1 mm
Retention time: 11.640 min
Base peak: 116.9859
Precursor m/z: 318.1231
Precursor type: [M+Na]+
m/z	relative intensity	assigned
91.054	999	C7H7+
103.054	64	C8H7+
105.0696	316	C8H9+
115.054	121	C9H7+
116.0618	124	C9H8+
117.0696	589	C9H9+
128.0618	508	C10H8+
129.0696	326	C10H9+
130.0775	237	C10H10+
131.0853	347	C10H11+
143.0852	181	C11H11+
144.0807	56	C10H10N+
145.1009	302	C11H13+
155.0599	89	C7H13ClNa+
158.0958	64	C11H12N+
170.0958	60	C12H12N+
171.0802	30	C12H11O+
