Mass spectrum: Flumequine; LC-ESI-ITFT; MS2; CE: 90%; R=15000; [M+H]+
Name: Flumequine
Formula: C14H12FNO3
Exact mass: 261.08012
SMILES: CC1CCC2=C3N1C=C(C(O)=O)C(=O)C3=CC(F)=C2
InChI: InChI=1S/C14H12FNO3/c1-7-2-3-8-4-9(15)5-10-12(8)16(7)6-11(13(10)17)14(18)19/h4-7H,2-3H2,1H3,(H,18,19)
Instrument: LTQ Orbitrap XL Thermo Scientific
Instrument type: LC-ESI-ITFT
Ms type: MS2
Ion mode: POSITIVE
Ionization: ESI
Fragmentation mode: HCD
Collision energy: 90% (nominal)
Resolution: 15000
Column name: Kinetex Evo C18 2.6 um 50 x 2.1 mm
Retention time: 9.262 min
Base peak: 262.0886
Precursor m/z: 262.0874
Precursor type: [M+H]+
m/z	relative intensity	assigned
146.0402	121	C9H5FN+
147.048	19	C9H6FN+
148.056	8	C9H7FN+
161.0637	5	C10H8FN+
174.0351	364	C10H5FNO+
176.0869	12	C11H11FN+
187.0433	5	C11H6FNO+
188.0507	3	C11H7FNO+
200.087	8	C13H11FN+
201.0589	7	C12H8FNO+
202.03	999	C11H5FNO2+
203.0377	10	C11H6FNO2+
216.046	3	C12H7FNO2+
220.0406	478	C11H7FNO3+
221.0486	6	C11H8FNO3+
234.0562	15	C12H9FNO3+
244.077	116	C14H11FNO2+
262.0875	42	C14H13FNO3+
