Mass spectrum: 17alpha-Hydroxyprogesterone; LC-ESI-ITFT; MS2; CE: 60%; R=15000; [M+H]+
Name: 17alpha-Hydroxyprogesterone
Name: 17alpha-Hydroxypregn-4-ene-3,20-dione
Name: 17-acetyl-17-hydroxy-10,13-dimethyl-2,6,7,8,9,11,12,14,15,16-decahydro-1H-cyclopenta[a]phenanthren-3-one
Formula: C21H30O3
Exact mass: 330.2195
SMILES: CC(=O)C1(O)CCC2C3CCC4=CC(=O)CCC4(C)C3CCC12C
InChI: InChI=1S/C21H30O3/c1-13(22)21(24)11-8-18-16-5-4-14-12-15(23)6-9-19(14,2)17(16)7-10-20(18,21)3/h12,16-18,24H,4-11H2,1-3H3
Instrument: LTQ Orbitrap XL Thermo Scientific
Instrument type: LC-ESI-ITFT
Ms type: MS2
Ion mode: POSITIVE
Ionization: ESI
Fragmentation mode: HCD
Collision energy: 60% (nominal)
Resolution: 15000
Column name: Kinetex Evo C18 2.6 um 50 x 2.1 mm
Retention time: 11.531 min
Base peak: 331.2269
Precursor m/z: 331.2268
Precursor type: [M+H]+
m/z	relative intensity	assigned
79.054	24	C6H7+
81.0696	50	C6H9+
83.0489	50	C5H7O+
85.0647	3	C5H9O+
87.0439	4	C4H7O2+
91.0541	11	C7H7+
93.0697	42	C7H9+
95.049	4	C6H7O+
95.0853	58	C7H11+
97.0645	964	C6H9O+
99.0802	5	C6H11O+
105.0696	42	C8H9+
107.0852	46	C8H11+
109.0645	999	C7H9O+
111.0802	15	C7H11O+
117.0694	9	C9H9+
119.0852	54	C9H11+
121.0645	27	C8H9O+
121.1009	26	C9H13+
123.0801	160	C8H11O+
131.0852	32	C10H11+
133.1009	45	C10H13+
135.0801	16	C9H11O+
135.1165	19	C10H15+
137.0957	29	C9H13O+
143.0851	28	C11H11+
145.1008	87	C11H13+
147.0801	8	C10H11O+
147.1164	57	C11H15+
149.0957	20	C10H13O+
149.132	10	C11H17+
151.1116	3	C10H15O+
155.085	5	C12H11+
157.1008	41	C12H13+
159.1164	68	C12H15+
161.096	7	C11H13O+
161.132	34	C12H17+
163.1113	55	C11H15O+
163.1483	7	C12H19+
169.1006	19	C13H13+
171.1164	41	C13H15+
173.0955	3	C12H13O+
173.1321	34	C13H17+
175.1113	16	C12H15O+
175.1477	35	C13H19+
177.1269	28	C12H17O+
183.1163	21	C14H15+
185.1321	29	C14H17+
187.1112	6	C13H15O+
187.1478	21	C14H19+
189.1271	17	C13H17O+
189.1633	4	C14H21+
191.1426	4	C13H19O+
195.1169	6	C15H15+
197.1321	24	C15H17+
199.1476	26	C15H19+
201.1267	8	C14H17O+
201.1635	8	C15H21+
203.1425	5	C14H19O+
205.1578	5	C14H21O+
209.1318	6	C16H17+
211.1477	23	C16H19+
213.127	3	C15H17O+
213.1634	22	C16H21+
215.1429	5	C15H19O+
217.1586	5	C15H21O+
223.1476	5	C17H19+
225.163	8	C17H21+
227.1792	5	C17H23+
229.1578	6	C16H21O+
237.1631	14	C18H21+
241.159	4	C17H21O+
251.1788	6	C19H23+
253.1945	29	C19H25+
255.174	8	C18H23O+
270.1981	5	C19H26O+
271.2051	12	C19H27O+
277.1944	3	C21H25+
295.205	6	C21H27O+
313.2148	2	C21H29O2+
