Mass spectrum: Amidosulfobetaine-14; LC-ESI-ITFT; MS2; CE: 90%; R=15000; [M]+
Name: Amidosulfobetaine-14
Formula: C22H47N2O4S
Exact mass: 435.3257
SMILES: CCCCCCCCCCCCCC(=O)NCCC[N+](C)(C)CCCS(O)(=O)=O
InChI: InChI=1S/C22H46N2O4S/c1-4-5-6-7-8-9-10-11-12-13-14-17-22(25)23-18-15-19-24(2,3)20-16-21-29(26,27)28/h4-21H2,1-3H3,(H-,23,25,26,27,28)/p+1
Instrument: LTQ Orbitrap XL Thermo Scientific
Instrument type: LC-ESI-ITFT
Ms type: MS2
Ion mode: POSITIVE
Ionization: ESI
Fragmentation mode: HCD
Collision energy: 90% (nominal)
Resolution: 15000
Column name: Kinetex Evo C18 2.6 um 50 x 2.1 mm
Retention time: 13.260 min
Base peak: 258.243
Precursor m/z: 435.3251
Precursor type: [M]+
m/z	relative intensity	assigned
55.054	56	C4H7+
57.0697	999	C4H9+
58.0649	179	C3H8N+
67.0541	96	C5H7+
69.0697	92	C5H9+
71.0854	466	C5H11+
81.0698	97	C6H9+
83.0854	29	C6H11+
85.1011	111	C6H13+
95.0854	158	C7H11+
109.1011	49	C8H13+
