Mass spectrum: Testosterone; LC-ESI-ITFT; MS2; CE: 40%; R=15000; [M+Na]+
Name: Testosterone
Name: (8R,9S,10R,13S,14S,17S)-17-hydroxy-10,13-dimethyl-1,2,6,7,8,9,11,12,14,15,16,17-dodecahydrocyclopenta[a]phenanthren-3-one
Formula: C19H28O2
Exact mass: 288.2089
SMILES: C[C@]12CC[C@H]3[C@@H](CCC4=CC(=O)CC[C@]34C)[C@@H]1CC[C@@H]2O
InChI: InChI=1S/C19H28O2/c1-18-9-7-13(20)11-12(18)3-4-14-15-5-6-17(21)19(15,2)10-8-16(14)18/h11,14-17,21H,3-10H2,1-2H3/t14-,15-,16-,17-,18-,19-/m0/s1
Instrument: LTQ Orbitrap XL Thermo Scientific
Instrument type: LC-ESI-ITFT
Ms type: MS2
Ion mode: POSITIVE
Ionization: ESI
Fragmentation mode: HCD
Collision energy: 40% (nominal)
Resolution: 15000
Column name: Kinetex Evo C18 2.6 um 50 x 2.1 mm
Retention time: 11.298 min
Base peak: 311.1998
Precursor m/z: 311.1982
Precursor type: [M+Na]+
m/z	relative intensity	assigned
79.054	125	C6H7+
81.0332	309	C5H5O+
81.0696	125	C6H9+
83.0489	312	C5H7O+
91.054	145	C7H7+
93.0697	156	C7H9+
95.049	39	C6H7O+
95.0854	178	C7H11+
97.0648	41	C6H9O+
105.0332	33	C7H5O+
105.0697	168	C8H9+
107.049	240	C7H7O+
107.0854	122	C8H11+
109.0646	999	C7H9O+
109.1011	85	C8H13+
117.0698	120	C9H9+
119.0492	14	C8H7O+
119.0854	237	C9H11+
121.0646	124	C8H9O+
121.1011	117	C9H13+
123.0802	79	C8H11O+
129.0698	147	C10H9+
131.0492	14	C9H7O+
131.0854	215	C10H11+
133.0646	187	C9H9O+
133.101	178	C10H13+
135.0803	282	C9H11O+
135.1167	54	C10H15+
137.096	36	C9H13O+
141.0698	67	C11H9+
142.0771	18	C11H10+
143.0854	165	C11H11+
145.0646	55	C10H9O+
145.101	247	C11H13+
147.0803	215	C10H11O+
147.1167	116	C11H15+
149.0959	251	C10H13O+
149.1321	42	C11H17+
153.0696	18	C12H9+
155.0853	120	C12H11+
157.0647	39	C11H9O+
157.101	181	C12H13+
159.0802	169	C11H11O+
159.1166	143	C12H15+
161.096	177	C11H13O+
161.1323	106	C12H17+
163.1115	159	C11H15O+
167.0854	52	C13H11+
168.093	21	C13H12+
169.1007	133	C13H13+
171.0799	29	C12H11O+
171.1166	206	C13H15+
173.0958	104	C12H13O+
173.1322	142	C13H17+
175.1114	182	C12H15O+
175.1482	53	C13H19+
179.0854	21	C14H11+
181.1008	118	C14H13+
183.0802	26	C13H11O+
183.1164	223	C14H15+
185.0955	58	C13H13O+
185.1322	138	C14H17+
187.1112	70	C13H15O+
187.1479	25	C14H19+
189.1268	87	C13H17O+
191.0855	15	C15H11+
193.1011	44	C15H13+
195.1163	86	C15H15+
197.0956	37	C14H13O+
197.1321	99	C15H17+
199.1114	71	C14H15O+
199.1476	58	C15H19+
201.1269	259	C14H17O+
201.1632	88	C15H21+
203.1425	70	C14H19O+
205.1012	18	C16H13+
206.1089	13	C16H14+
207.1161	38	C16H15+
209.0952	27	C15H13O+
209.1319	65	C16H17+
211.1111	27	C15H15O+
211.1473	45	C16H19+
213.1269	44	C15H17O+
213.1634	148	C16H21+
215.1424	60	C15H19O+
217.1578	33	C15H21O+
219.1171	45	C17H15+
219.1738	78	C15H23O+
221.1316	32	C17H17+
223.1113	35	C16H15O+
223.1474	89	C17H19+
225.1269	22	C16H17O+
225.163	95	C17H21+
227.1428	35	C16H19O+
229.158	41	C16H21O+
230.1661	49	C16H22O+
231.1735	190	C16H23O+
233.1311	37	C16H18Na+
235.1472	75	C18H19+
236.1207	9	C17H16O+
237.1632	29	C18H21+
239.1421	32	C17H19O+
241.1575	55	C15H22NaO+
243.1734	122	C17H23O+
249.163	33	C19H21+
251.1425	19	C18H19O+
253.1575	42	C16H22NaO+
264.149	14	C17H21NaO+
265.1576	37	C17H22NaO+
267.1726	14	C17H24NaO+
269.1896	15	C19H25O+
275.1783	47	C19H24Na+
293.1884	139	C19H26NaO+
311.1986	656	C19H28NaO2+
