Mass spectrum: Promethazin; LC-ESI-ITFT; MS2; CE: 10%; R=15000; [M+H]+
Name: Promethazin
Name: Promethazine
Name: N,N-dimethyl-1-phenothiazin-10-ylpropan-2-amine
Formula: C17H20N2S
Exact mass: NA
SMILES: CC(CN1C2=CC=CC=C2SC2=CC=CC=C12)N(C)C
InChI: InChI=1S/C17H20N2S/c1-13(18(2)3)12-19-14-8-4-6-10-16(14)20-17-11-7-5-9-15(17)19/h4-11,13H,12H2,1-3H3
Instrument: LTQ Orbitrap XL Thermo Scientific
Instrument type: LC-ESI-ITFT
Ms type: MS2
Ion mode: POSITIVE
Ionization: ESI
Fragmentation mode: HCD
Collision energy: 10% (nominal)
Resolution: 15000
Column name: Kinetex Evo C18 2.6 um 50 x 2.1 mm
Retention time: 8.126 min
Base peak: 285.1425
Precursor m/z: 285.142
Precursor type: [M+H]+
m/z	relative intensity	assigned
86.0962	111	C5H12N+
240.0837	8	C15H14NS+
285.1413	999	C17H21N2S+
