Mass spectrum: Benzothiazole; LC-ESI-ITFT; MS2; CE: 100%; R=15000; [M-H]-
Name: Benzothiazole
Name: 1,3-benzothiazole
Formula: C7H5NS
Exact mass: 135.0143
SMILES: S1C=NC2=CC=CC=C12
InChI: InChI=1S/C7H5NS/c1-2-4-7-6(3-1)8-5-9-7/h1-5H
Instrument: LTQ Orbitrap XL Thermo Scientific
Instrument type: LC-ESI-ITFT
Ms type: MS2
Ion mode: NEGATIVE
Ionization: ESI
Fragmentation mode: HCD
Collision energy: 100 % (nominal)
Resolution: 15000
Column name: Kinetex Evo C18 2.6 um 50 x 2.1 mm
Retention time: 7.820 min
Base peak: 91.0035
Precursor m/z: 134.007
Precursor type: [M-H]-
m/z	relative intensity	assigned
134.0071	999	C7H4NS-
