Mass spectrum: Thiophanate-methyl; LC-ESI-ITFT; MS2; CE: 70%; R=15000; [M+H]+
Name: Thiophanate-methyl
Name: CID 3085
Name: N`-methoxycarbonyl-N-[2-[(N-methoxycarbonyl-C-sulfanylcarbonimidoyl)amino]phenyl]carbamimidothioic acid
Formula: C12H14N4O4S2
Exact mass: 342.04565
SMILES: COC(=O)NC(=S)NC1=CC=CC=C1NC(=S)NC(=O)OC
InChI: InChI=1S/C12H14N4O4S2/c1-19-11(17)15-9(21)13-7-5-3-4-6-8(7)14-10(22)16-12(18)20-2/h3-6H,1-2H3,(H2,13,15,17,21)(H2,14,16,18,22)
Instrument: LTQ Orbitrap XL Thermo Scientific
Instrument type: LC-ESI-ITFT
Ms type: MS2
Ion mode: POSITIVE
Ionization: ESI
Fragmentation mode: HCD
Collision energy: 70% (nominal)
Resolution: 15000
Column name: Kinetex Evo C18 2.6 um 50 x 2.1 mm
Retention time: 8.979 min
Base peak: 343.0541
Precursor m/z: 343.0529
Precursor type: [M+H]+
m/z	relative intensity	assigned
59.0125	2	C2H3O2+
74.0059	128	C2H4NS+
76.0393	54	C2H6NO2+
85.9696	108	C2NOS+
92.0496	34	C6H6N+
93.0574	113	C6H7N+
94.0607	1	CH8N3O2+
107.0605	17	C6H7N2+
109.0761	87	C6H9N2+
117.0453	1	CH11NO3S+
117.9958	26	C3H4NO2S+
118.0526	54	C7H6N2+
119.0604	21	C7H7N2+
122.0063	1	H10O3S2+
132.0557	4	C7H6N3+
134.0714	15	C7H8N3+
135.0136	3	C7H5NS+
135.0554	11	C7H7N2O+
149.0171	61	C7H5N2S+
150.0021	1	CH10O4S2+
150.0247	8	C7H6N2S+
151.0326	999	C7H7N2S+
152.0357	19	C2H8N4O2S+
160.0507	114	C8H6N3O+
174.0126	1	C2H10N2O3S2+
175.0201	5	C2H11N2O3S2+
177.0119	9	C8H5N2OS+
192.0772	1	C9H10N3O2+
192.9891	16	C8H5N2S2+
