Mass spectrum: Finasteride; LC-ESI-ITFT; MS2; CE: 70%; R=15000; [M+H]+
Name: Finasteride
Name: (1S,3aS,3bS,5aR,9aR,9bS,11aS)-N-tert-butyl-9a,11a-dimethyl-7-oxo-1,2,3,3a,3b,4,5,5a,6,9b,10,11-dodecahydroindeno[5,4-f]quinoline-1-carboxamide
Formula: C23H36N2O2
Exact mass: 372.2777
SMILES: CC(C)(C)NC(=O)[C@H]1CC[C@H]2[C@@H]3CC[C@H]4NC(=O)C=C[C@]4(C)[C@H]3CC[C@]12C
InChI: InChI=1S/C23H36N2O2/c1-21(2,3)25-20(27)17-8-7-15-14-6-9-18-23(5,13-11-19(26)24-18)16(14)10-12-22(15,17)4/h11,13-18H,6-10,12H2,1-5H3,(H,24,26)(H,25,27)/t14-,15-,16-,17+,18+,22-,23+/m0/s1
Instrument: LTQ Orbitrap XL Thermo Scientific
Instrument type: LC-ESI-ITFT
Ms type: MS2
Ion mode: POSITIVE
Ionization: ESI
Fragmentation mode: HCD
Collision energy: 70% (nominal)
Resolution: 15000
Column name: Kinetex Evo C18 2.6 um 50 x 2.1 mm
Retention time: 11.836 min
Base peak: 373.2855
Precursor m/z: 373.285
Precursor type: [M+H]+
m/z	relative intensity	assigned
67.054	64	C5H7+
69.0333	835	C4H5O+
70.065	21	C4H8N+
72.0442	106	C3H6NO+
79.0542	74	C6H7+
81.0698	265	C6H9+
83.0853	29	C6H11+
86.06	86	C4H8NO+
91.0541	69	C7H7+
93.0698	286	C7H9+
95.0855	731	C7H11+
96.0443	89	C5H6NO+
96.0807	16	C6H10N+
98.0599	149	C5H8NO+
105.0698	148	C8H9+
107.0855	284	C8H11+
108.0811	19	C7H10N+
109.0651	13	C7H9O+
109.1011	110	C8H13+
110.06	69	C6H8NO+
110.0961	13	C7H12N+
117.0702	25	C9H9+
119.0855	167	C9H11+
121.0646	33	C8H9O+
121.1011	177	C9H13+
122.0599	60	C7H8NO+
124.0756	63	C7H10NO+
126.0914	56	C7H12NO+
129.0696	15	C10H9+
131.0854	92	C10H11+
133.1011	211	C10H13+
135.0802	14	C9H11O+
135.1168	98	C10H15+
136.0757	19	C8H10NO+
138.0912	63	C8H12NO+
143.0853	66	C11H11+
145.1011	159	C11H13+
147.0805	24	C10H11O+
147.1167	228	C11H15+
149.0963	27	C10H13O+
149.1324	42	C11H17+
150.0915	21	C9H12NO+
152.1067	20	C9H14NO+
155.0855	28	C12H11+
157.1011	49	C12H13+
159.0805	19	C11H11O+
159.1168	89	C12H15+
161.0958	46	C11H13O+
161.1323	78	C12H17+
164.1067	22	C10H14NO+
166.1231	15	C10H16NO+
169.1006	26	C13H13+
171.1167	47	C13H15+
173.1324	124	C13H17+
175.1116	34	C12H15O+
175.148	278	C13H19+
176.1065	24	C11H14NO+
177.1634	12	C13H21+
178.1225	23	C11H16NO+
183.1167	25	C14H15+
185.1325	110	C14H17+
187.1481	248	C14H19+
189.1636	165	C14H21+
190.1223	12	C12H16NO+
195.1165	29	C15H15+
197.132	40	C15H17+
199.1124	15	C14H15O+
199.1475	22	C15H19+
201.1275	23	C14H17O+
201.1631	18	C15H21+
203.1432	29	C14H19O+
213.1638	44	C16H21+
215.1429	90	C15H19O+
215.1797	13	C16H23+
220.1693	67	C14H22NO+
227.1797	39	C17H23+
232.1693	40	C15H22NO+
237.1636	48	C18H21+
249.1959	72	C15H25N2O+
254.1905	18	C18H24N+
255.1744	45	C18H23O+
272.2014	25	C18H26NO+
274.2169	17	C18H28NO+
299.2113	27	C19H27N2O+
305.2585	999	C19H33N2O+
317.2222	24	C19H29N2O2+
331.275	17	C21H35N2O+
355.274	36	C23H35N2O+
357.2532	35	C22H33N2O2+
373.2844	211	C23H37N2O2+
