Mass spectrum: 2-Nitroaniline; LC-ESI-ITFT; MS2; CE: 90%; R=15000; [M+H]+
Name: 2-Nitroaniline
Name: O-Nitroaniline
Formula: C6H6N2O2
Exact mass: 138.04293
SMILES: NC1=C(C=CC=C1)[N+]([O-])=O
InChI: InChI=1S/C6H6N2O2/c7-5-3-1-2-4-6(5)8(9)10/h1-4H,7H2
Instrument: LTQ Orbitrap XL Thermo Scientific
Instrument type: LC-ESI-ITFT
Ms type: MS2
Ion mode: POSITIVE
Ionization: ESI
Fragmentation mode: HCD
Collision energy: 90 % (nominal)
Resolution: 15000
Column name: Kinetex Evo C18 2.6 um 50 x 2.1 mm
Retention time: 5.799 min
Base peak: 184.0872
Precursor m/z: 139.0502
Precursor type: [M+H]+
m/z	relative intensity	assigned
51.0228	93	C4H3+
65.0385	118	C5H5+
66.0338	42	C4H4N+
76.0181	87	C5H2N+
78.0339	112	C5H4N+
80.0132	202	C4H2NO+
91.0418	918	C6H5N+
92.0497	999	C6H6N+
103.0294	91	C6H3N2+
104.0369	53	C6H4N2+
121.04	64	C6H5N2O+
122.0477	236	C6H6N2O+
