Mass spectrum: Propiconazole; LC-ESI-ITFT; MS2; CE: 80%; R=15000; [M+H]+
Name: Propiconazole
Name: 1-[[2-(2,4-dichlorophenyl)-4-propyl-1,3-dioxolan-2-yl]methyl]-1,2,4-triazole
Formula: C15H17Cl2N3O2
Exact mass: 341.06978
SMILES: CCCC1COC(CN2C=NC=N2)(O1)C1=C(Cl)C=C(Cl)C=C1
InChI: InChI=1S/C15H17Cl2N3O2/c1-2-3-12-7-21-15(22-12,8-20-10-18-9-19-20)13-5-4-11(16)6-14(13)17/h4-6,9-10,12H,2-3,7-8H2,1H3
Instrument: LTQ Orbitrap XL Thermo Scientific
Instrument type: LC-ESI-ITFT
Ms type: MS2
Ion mode: POSITIVE
Ionization: ESI
Fragmentation mode: HCD
Collision energy: 80% (nominal)
Resolution: 15000
Column name: Kinetex Evo C18 2.6 um 50 x 2.1 mm
Retention time: 12.379 min
Base peak: 342.0781
Precursor m/z: 342.0771
Precursor type: [M+H]+
m/z	relative intensity	assigned
67.0541	6	C5H7+
69.0697	125	C5H9+
70.0398	21	C2H4N3+
98.9995	3	C5H4Cl+
122.9996	26	C7H4Cl+
124.0073	10	C7H5Cl+
132.9604	2	C5H3Cl2+
139.0059	5	C6H4ClN2+
146.977	3	C6H5Cl2+
152.0022	3	C8H5ClO+
158.9763	999	C7H5Cl2+
172.9555	119	C7H3Cl2O+
172.9666	14	C6H3Cl2N2+
186.9713	3	C8H5Cl2O+
190.966	9	C7H5Cl2O2+
