Mass spectrum: Albendazole; LC-ESI-ITFT; MS2; CE: 50%; R=15000; [M+H]+
Name: Albendazole
Name: methyl N-(6-propylsulfanyl-1H-benzimidazol-2-yl)carbamate
Formula: C12H15N3O2S
Exact mass: 265.08850
SMILES: CCCSC1=CC2=C(NC(NC(=O)OC)=N2)C=C1
InChI: InChI=1S/C12H15N3O2S/c1-3-6-18-8-4-5-9-10(7-8)14-11(13-9)15-12(16)17-2/h4-5,7H,3,6H2,1-2H3,(H2,13,14,15,16)
Instrument: LTQ Orbitrap XL Thermo Scientific
Instrument type: LC-ESI-ITFT
Ms type: MS2
Ion mode: POSITIVE
Ionization: ESI
Fragmentation mode: HCD
Collision energy: 50% (nominal)
Resolution: 15000
Column name: Kinetex Evo C18 2.6 um 50 x 2.1 mm
Retention time: 9.214 min
Base peak: 266.0967
Precursor m/z: 266.0958
Precursor type: [M+H]+
m/z	relative intensity	assigned
159.0429	7	C8H5N3O+
179.051	1	C8H9N3S+
191.0149	56	C8H5N3OS+
192.0227	69	C8H6N3OS+
206.0748	1	C10H12N3S+
223.0411	7	C9H9N3O2S+
234.0697	999	C11H12N3OS+
266.0959	44	C12H16N3O2S+
