Mass spectrum: Labetalol; LC-ESI-ITFT; MS2; CE: 50%; R=15000; [M+H]+
Name: Labetalol
Name: 2-hydroxy-5-[1-hydroxy-2-(4-phenylbutan-2-ylamino)ethyl]benzamide
Formula: C19H24N2O3
Exact mass: 328.1787
SMILES: CC(CCC1=CC=CC=C1)NCC(O)C1=CC(C(N)=O)=C(O)C=C1
InChI: InChI=1S/C19H24N2O3/c1-13(7-8-14-5-3-2-4-6-14)21-12-18(23)15-9-10-17(22)16(11-15)19(20)24/h2-6,9-11,13,18,21-23H,7-8,12H2,1H3,(H2,20,24)
Instrument: LTQ Orbitrap XL Thermo Scientific
Instrument type: LC-ESI-ITFT
Ms type: MS2
Ion mode: POSITIVE
Ionization: ESI
Fragmentation mode: HCD
Collision energy: 50 % (nominal)
Resolution: 15000
Column name: Kinetex Evo C18 2.6 um 50 x 2.1 mm
Retention time: 7.162 min
Base peak: 329.187
Precursor m/z: 329.186
Precursor type: [M+H]+
m/z	relative intensity	assigned
91.0543	672	C7H7+
105.0702	1	C8H9+
106.0652	3	C7H8N+
107.0492	2	C7H7O+
119.0491	5	C8H7O+
120.0445	4	C7H6NO+
133.1012	6	C10H13+
134.0601	19	C8H8NO+
135.0439	2	C8H7O2+
136.0755	7	C8H10NO+
144.0444	5	C9H6NO+
145.0282	2	C9H5O2+
147.0441	32	C9H7O2+
148.1125	1	C10H14N+
161.0599	4	C10H9O2+
162.0551	999	C9H8NO2+
164.0706	65	C9H10NO2+
165.0547	28	C9H9O3+
179.0816	55	C9H11N2O2+
180.0655	13	C9H10NO3+
190.0863	82	C11H12NO2+
207.113	23	C11H15N2O2+
252.1021	2	C16H14NO2+
294.1489	95	C19H20NO2+
311.1757	6	C19H23N2O2+
312.1606	2	C19H22NO3+
