Mass spectrum: Fluoxastrobin; LC-ESI-ITFT; MS2; CE: 90%; R=15000; [M+H]+
Name: Fluoxastrobin
Name: (E)-1-[2-[6-(2-chlorophenoxy)-5-fluoropyrimidin-4-yl]oxyphenyl]-1-(5,6-dihydro-1,4,2-dioxazin-3-yl)-N-methoxymethanimine
Formula: C21H16ClFN4O5
Exact mass: 458.07933
SMILES: CO\N=C(\C1=NOCCO1)C1=C(OC2=C(F)C(OC3=C(Cl)C=CC=C3)=NC=N2)C=CC=C1
InChI: InChI=1S/C21H16ClFN4O5/c1-28-26-18(21-27-30-11-10-29-21)13-6-2-4-8-15(13)31-19-17(23)20(25-12-24-19)32-16-9-5-3-7-14(16)22/h2-9,12H,10-11H2,1H3/b26-18+
Instrument: LTQ Orbitrap XL Thermo Scientific
Instrument type: LC-ESI-ITFT
Ms type: MS2
Ion mode: POSITIVE
Ionization: ESI
Fragmentation mode: HCD
Collision energy: 90% (nominal)
Resolution: 15000
Column name: Kinetex Evo C18 2.6 um 50 x 2.1 mm
Retention time: 11.951 min
Base peak: 330.0811
Precursor m/z: 459.0866
Precursor type: [M+H]+
m/z	relative intensity	assigned
65.0386	242	C5H5+
76.0309	58	C6H4+
77.0388	306	C6H5+
78.0338	99	C5H4N+
90.0341	633	C6H4N+
91.0418	98	C6H5N+
92.026	249	C6H4O+
92.0499	67	C6H6N+
99.0001	180	C5H4Cl+
102.0343	378	C7H4N+
103.0421	100	C7H5N+
104.0253	47	C7H4O+
104.0371	76	C6H4N2+
105.0451	404	C6H5N2+
106.029	58	C6H4NO+
107.0296	166	C7H4F+
110.9999	443	C6H4Cl+
115.0419	106	C8H5N+
116.0372	166	C7H4N2+
121.0327	196	C7H4FN+
122.0405	413	C7H5FN+
123.0357	462	C6H4FN2+
128.0027	92	C6H5ClO+
128.0374	61	C8H4N2+
129.0104	120	C6H6ClO+
129.0452	999	C8H5N2+
132.0248	116	C8H3FN+
133.0327	752	C8H4FN+
134.0407	162	C8H5FN+
138.995	250	C7H4ClO+
140.0374	71	C9H4N2+
140.9908	146	C7H3ClF+
144.0326	119	C5H7ClN3+
146.0245	70	C5H7ClN2O+
149.0275	186	C5H7ClFN2+
154.0408	88	C2H12ClFO4+
159.0356	130	C9H4FN2+
160.0435	427	C9H5FN2+
161.0274	201	C6H7ClFN2+
161.0349	71	C5H8ClN3O+
168.0016	335	C8H4ClFN+
196.0562	114	C13H7FN+
223.0671	76	C14H8FN2+
230.036	110	C11H5FN3O2+
250.0544	69	C15H7FN2O+
251.0632	130	C17H12Cl+
