Mass spectrum: Enrofloxacin; LC-ESI-ITFT; MS2; CE: 50%; R=15000; [M+H]+
Name: Enrofloxacin
Name: 1-cyclopropyl-7-(4-ethylpiperazin-1-yl)-6-fluoro-4-oxoquinoline-3-carboxylic acid
Formula: C19H22FN3O3
Exact mass: 359.16452
SMILES: CCN1CCN(CC1)C1=C(F)C=C2C(=O)C(=CN(C3CC3)C2=C1)C(O)=O
InChI: InChI=1S/C19H22FN3O3/c1-2-21-5-7-22(8-6-21)17-10-16-13(9-15(17)20)18(24)14(19(25)26)11-23(16)12-3-4-12/h9-12H,2-8H2,1H3,(H,25,26)
Instrument: LTQ Orbitrap XL Thermo Scientific
Instrument type: LC-ESI-ITFT
Ms type: MS2
Ion mode: POSITIVE
Ionization: ESI
Fragmentation mode: HCD
Collision energy: 50 % (nominal)
Resolution: 15000
Column name: Kinetex Evo C18 2.6 um 50 x 2.1 mm
Retention time: 5.884 min
Base peak: 311.1321
Precursor m/z: 360.1718
Precursor type: [M+H]+
m/z	relative intensity	assigned
56.0492	11	C3H6N+
58.0649	4	C3H8N+
70.065	16	C4H8N+
72.0806	251	C4H10N+
84.0807	109	C5H10N+
85.0889	2	C5H11N+
86.0964	47	C5H12N+
96.0808	3	C6H10N+
98.0964	26	C6H12N+
99.1044	5	C6H13N+
135.0478	8	C8H6FN+
136.0557	9	C8H7FN+
150.0713	2	C9H9FN+
163.0433	3	C9H6FNO+
163.0665	14	C9H8FN2+
169.0764	2	C11H9N2+
174.0582	2	C10H7FN2+
174.0715	2	C11H9FN+
175.0669	2	C10H8FN2+
175.0794	2	C11H10FN+
176.0744	8	C10H9FN2+
184.0626	4	C11H8N2O+
189.0457	7	C10H6FN2O+
189.0822	13	C11H10FN2+
191.0615	5	C10H8FN2O+
197.1075	2	C13H13N2+
202.0668	3	C12H9FNO+
203.0616	87	C11H8FN2O+
204.0694	163	C11H9FN2O+
205.0779	9	C11H10FN2O+
215.0614	4	C12H8FN2O+
215.0982	2	C13H12FN2+
216.0692	7	C12H9FN2O+
217.0772	21	C12H10FN2O+
217.0896	9	C13H12FNO+
217.1136	16	C13H14FN2+
219.0932	6	C12H12FN2O+
225.102	10	C14H13N2O+
229.077	12	C13H10FN2O+
230.0476	2	C12H7FN2O2+
230.0855	4	C13H11FN2O+
231.0929	91	C13H12FN2O+
243.0925	4	C14H12FN2O+
245.1085	999	C14H14FN2O+
246.1118	65	C14H16NO3+
257.1085	39	C15H14FN2O+
258.0674	5	C13H9FN3O2+
259.125	11	C15H16FN2O+
260.1198	8	C19H16O+
268.1448	7	C16H18N3O+
275.1428	7	C18H17N3+
285.1271	21	C16H16FN3O+
286.0989	40	C15H13FN3O2+
287.1427	5	C16H18FN3O+
288.1508	27	C16H19FN3O+
296.1758	9	C15H23FN3O2+
300.1155	2	C16H15FN3O2+
314.1664	69	C18H21FN3O+
316.1818	387	C18H23FN3O+
342.1611	184	C19H21FN3O2+
360.1715	116	C19H23FN3O3+
