Mass spectrum: Flumequine; LC-ESI-ITFT; MS2; CE: 50%; R=15000; [M+H]+
Name: Flumequine
Formula: C14H12FNO3
Exact mass: 261.08012
SMILES: CC1CCC2=C3N1C=C(C(O)=O)C(=O)C3=CC(F)=C2
InChI: InChI=1S/C14H12FNO3/c1-7-2-3-8-4-9(15)5-10-12(8)16(7)6-11(13(10)17)14(18)19/h4-7H,2-3H2,1H3,(H,18,19)
Instrument: LTQ Orbitrap XL Thermo Scientific
Instrument type: LC-ESI-ITFT
Ms type: MS2
Ion mode: POSITIVE
Ionization: ESI
Fragmentation mode: HCD
Collision energy: 50% (nominal)
Resolution: 15000
Column name: Kinetex Evo C18 2.6 um 50 x 2.1 mm
Retention time: 9.262 min
Base peak: 262.0888
Precursor m/z: 262.0874
Precursor type: [M+H]+
m/z	relative intensity	assigned
176.0868	1	C11H11FN+
202.0299	30	C11H5FNO2+
220.0406	11	C11H7FNO3+
244.077	999	C14H11FNO2+
262.0875	429	C14H13FNO3+
