Mass spectrum: Isoproturon; LC-ESI-ITFT; MS2; CE: 50%; R=15000; [M+Na]+
Name: Isoproturon
Name: 1,1-dimethyl-3-(4-propan-2-ylphenyl)urea
Formula: C12H18N2O
Exact mass: 206.1419
SMILES: CC(C)C1=CC=C(NC(=O)N(C)C)C=C1
InChI: InChI=1S/C12H18N2O/c1-9(2)10-5-7-11(8-6-10)13-12(15)14(3)4/h5-9H,1-4H3,(H,13,15)
Instrument: LTQ Orbitrap XL Thermo Scientific
Instrument type: LC-ESI-ITFT
Ms type: MS2
Ion mode: POSITIVE
Ionization: ESI
Fragmentation mode: HCD
Collision energy: 50 % (nominal)
Resolution: 15000
Column name: Kinetex Evo C18 2.6 um 50 x 2.1 mm
Retention time: 10.021 min
Base peak: 207.1496
Precursor m/z: 229.1311
Precursor type: [M+Na]+
m/z	relative intensity	assigned
229.1312	999	C12H18N2NaO+
