Mass spectrum: Progesterone; LC-ESI-ITFT; MS2; CE: 50%; R=15000; [M+H]+
Name: Progesterone
Name: (8S,9S,10R,13S,14S,17S)-17-acetyl-10,13-dimethyl-1,2,6,7,8,9,11,12,14,15,16,17-dodecahydrocyclopenta[a]phenanthren-3-one
Formula: C21H30O2
Exact mass: 314.22458
SMILES: CC(=O)[C@H]1CC[C@H]2[C@@H]3CCC4=CC(=O)CC[C@]4(C)[C@H]3CC[C@]12C
InChI: InChI=1S/C21H30O2/c1-13(22)17-6-7-18-16-5-4-14-12-15(23)8-10-20(14,2)19(16)9-11-21(17,18)3/h12,16-19H,4-11H2,1-3H3/t16-,17+,18-,19-,20-,21+/m0/s1
Instrument: LTQ Orbitrap XL Thermo Scientific
Instrument type: LC-ESI-ITFT
Ms type: MS2
Ion mode: POSITIVE
Ionization: ESI
Fragmentation mode: HCD
Collision energy: 50 % (nominal)
Resolution: 15000
Column name: Kinetex Evo C18 2.6 um 50 x 2.1 mm
Retention time: 12.394 min
Base peak: 315.232
Precursor m/z: 315.2319
Precursor type: [M+H]+
m/z	relative intensity	assigned
67.054	6	C5H7+
69.0696	2	C5H9+
79.054	12	C6H7+
81.0696	29	C6H9+
83.0489	37	C5H7O+
85.0646	33	C5H9O+
91.0542	4	C7H7+
93.0697	21	C7H9+
95.0853	45	C7H11+
97.0646	999	C6H9O+
105.0697	17	C8H9+
107.0853	30	C8H11+
109.0645	917	C7H9O+
111.08	3	C7H11O+
117.0698	3	C9H9+
119.0852	26	C9H11+
121.0644	8	C8H9O+
121.1008	31	C9H13+
123.0801	109	C8H11O+
131.0853	18	C10H11+
133.1009	32	C10H13+
135.0802	4	C9H11O+
135.1165	15	C10H15+
137.0957	22	C9H13O+
137.1318	2	C10H17+
143.0852	4	C11H11+
145.1009	34	C11H13+
147.1165	36	C11H15+
149.0958	6	C10H13O+
149.1321	13	C11H17+
151.1115	6	C10H15O+
157.1008	11	C12H13+
159.1164	40	C12H15+
161.0953	2	C11H13O+
161.1321	22	C12H17+
163.1113	25	C11H15O+
163.1477	6	C12H19+
165.1272	2	C11H17O+
169.1016	2	C13H13+
171.1166	20	C13H15+
173.1322	36	C13H17+
175.1112	5	C12H15O+
175.1476	11	C13H19+
177.127	25	C12H17O+
179.1422	2	C12H19O+
183.1162	7	C14H15+
185.132	13	C14H17+
187.1116	3	C13H15O+
187.1479	16	C14H19+
189.1271	12	C13H17O+
189.1634	7	C14H21+
191.1427	8	C13H19O+
197.132	8	C15H17+
199.1475	13	C15H19+
201.1631	13	C15H21+
203.1427	2	C14H19O+
209.1318	3	C16H17+
211.1472	5	C16H19+
213.1633	14	C16H21+
215.1427	4	C15H19O+
215.1791	15	C16H23+
223.1477	8	C17H19+
227.1434	3	C16H19O+
227.179	8	C17H23+
233.1906	2	C16H25O+
237.1633	2	C18H21+
239.1788	18	C18H23+
245.1896	4	C17H25O+
251.1798	2	C19H23+
253.1946	8	C19H25+
255.1734	3	C18H23O+
255.2103	24	C19H27+
257.1891	5	C18H25O+
273.2209	7	C19H29O+
279.2102	17	C21H27+
297.2207	31	C21H29O+
315.2309	24	C21H31O2+
