Mass spectrum: Testosterone; LC-ESI-ITFT; MS2; CE: 50%; R=15000; [M+Na]+
Name: Testosterone
Name: (8R,9S,10R,13S,14S,17S)-17-hydroxy-10,13-dimethyl-1,2,6,7,8,9,11,12,14,15,16,17-dodecahydrocyclopenta[a]phenanthren-3-one
Formula: C19H28O2
Exact mass: 288.2089
SMILES: C[C@]12CC[C@H]3[C@@H](CCC4=CC(=O)CC[C@]34C)[C@@H]1CC[C@@H]2O
InChI: InChI=1S/C19H28O2/c1-18-9-7-13(20)11-12(18)3-4-14-15-5-6-17(21)19(15,2)10-8-16(14)18/h11,14-17,21H,3-10H2,1-2H3/t14-,15-,16-,17-,18-,19-/m0/s1
Instrument: LTQ Orbitrap XL Thermo Scientific
Instrument type: LC-ESI-ITFT
Ms type: MS2
Ion mode: POSITIVE
Ionization: ESI
Fragmentation mode: HCD
Collision energy: 50 % (nominal)
Resolution: 15000
Column name: Kinetex Evo C18 2.6 um 50 x 2.1 mm
Retention time: 11.298 min
Base peak: 311.1998
Precursor m/z: 311.1982
Precursor type: [M+Na]+
m/z	relative intensity	assigned
79.054	114	C6H7+
81.0332	317	C5H5O+
81.0695	128	C6H9+
83.0489	274	C5H7O+
91.054	168	C7H7+
93.0697	173	C7H9+
95.0491	37	C6H7O+
95.0853	165	C7H11+
97.0647	28	C6H9O+
103.0538	15	C8H7+
105.0333	67	C7H5O+
105.0696	179	C8H9+
107.049	188	C7H7O+
107.0853	131	C8H11+
109.0646	999	C7H9O+
109.101	72	C8H13+
115.0539	21	C9H7+
117.0697	107	C9H9+
119.0489	16	C8H7O+
119.0853	209	C9H11+
121.0645	91	C8H9O+
121.1009	82	C9H13+
123.0801	66	C8H11O+
128.0616	22	C10H8+
129.0696	126	C10H9+
131.049	13	C9H7O+
131.0853	186	C10H11+
133.0646	162	C9H9O+
133.101	146	C10H13+
135.0801	179	C9H11O+
135.1165	18	C10H15+
137.0959	26	C9H13O+
141.0695	76	C11H9+
142.0773	24	C11H10+
143.0852	163	C11H11+
145.0645	38	C10H9O+
145.1009	199	C11H13+
147.0801	156	C10H11O+
147.1165	68	C11H15+
149.0957	147	C10H13O+
149.1325	22	C11H17+
154.0772	19	C12H10+
155.0853	116	C12H11+
156.0933	14	C12H12+
157.0651	16	C11H9O+
157.1009	113	C12H13+
159.0801	111	C11H11O+
159.1166	102	C12H15+
161.0959	105	C11H13O+
161.1322	52	C12H17+
163.1114	76	C11H15O+
167.0854	47	C13H11+
168.0929	28	C13H12+
169.1008	84	C13H13+
171.0805	18	C12H11O+
171.1164	122	C13H15+
173.0956	66	C12H13O+
173.1321	79	C13H17+
175.1113	74	C12H15O+
175.148	24	C13H19+
179.0854	18	C14H11+
181.1007	76	C14H13+
183.1163	133	C14H15+
185.0953	31	C13H13O+
185.1322	76	C14H17+
187.1113	49	C13H15O+
187.1473	20	C14H19+
189.1269	23	C13H17O+
193.1006	19	C15H13+
197.1321	47	C15H17+
199.1473	20	C15H19+
201.1268	150	C14H17O+
201.163	38	C15H21+
203.1422	18	C14H19O+
207.1165	17	C16H15+
209.0958	12	C15H13O+
209.1315	41	C16H17+
211.1478	21	C16H19+
213.1633	52	C16H21+
215.1426	16	C15H19O+
219.1163	21	C17H15+
221.1319	12	C17H17+
223.1119	21	C16H15O+
223.1475	39	C17H19+
225.1628	41	C17H21+
230.1657	21	C16H22O+
231.1733	42	C16H23O+
233.1306	15	C16H18Na+
235.148	21	C18H19+
241.1561	15	C15H22NaO+
243.1734	46	C17H23O+
251.1794	17	C19H23+
253.1556	16	C16H22NaO+
265.156	11	C17H22NaO+
293.1882	20	C19H26NaO+
311.1978	77	C19H28NaO2+
