Mass spectrum: Pioglitazone; LC-ESI-ITFT; MS2; CE: 80%; R=15000; [M+H]+
Name: Pioglitazone
Name: 5-[[4-[2-(5-ethylpyridin-2-yl)ethoxy]phenyl]methyl]-1,3-thiazolidine-2,4-dione
Formula: C19H20N2O3S
Exact mass: 356.11946
SMILES: CCC1=CN=C(CCOC2=CC=C(CC3SC(=O)NC3=O)C=C2)C=C1
InChI: InChI=1S/C19H20N2O3S/c1-2-13-3-6-15(20-12-13)9-10-24-16-7-4-14(5-8-16)11-17-18(22)21-19(23)25-17/h3-8,12,17H,2,9-11H2,1H3,(H,21,22,23)
Instrument: LTQ Orbitrap XL Thermo Scientific
Instrument type: LC-ESI-ITFT
Ms type: MS2
Ion mode: POSITIVE
Ionization: ESI
Fragmentation mode: HCD
Collision energy: 80% (nominal)
Resolution: 15000
Column name: Kinetex Evo C18 2.6 um 50 x 2.1 mm
Retention time: 8.019 min
Base peak: 357.1281
Precursor m/z: 357.1267
Precursor type: [M+H]+
m/z	relative intensity	assigned
77.0389	3	C6H5+
79.0545	22	C6H7+
91.0547	4	C7H7+
93.0577	6	C6H7N+
104.0499	4	C7H6N+
106.0656	50	C7H8N+
107.0734	39	C7H9N+
108.0811	4	C7H10N+
118.0656	13	C2H14O3S+
119.0734	594	C2H15O3S+
120.0812	59	C2H16O3S+
121.089	16	C2H17O3S+
124.0761	12	C7H10NO+
134.0969	999	C3H18O3S+
135.1047	81	C9H13N+
