Mass spectrum: Aniline Yellow; LC-ESI-ITFT; MS2; CE: 30%; R=15000; [M+H]+
Name: Aniline Yellow
Formula: C12H11N3
Exact mass: 197.09530
SMILES: NC1=CC=C(C=C1)\N=N\C1=CC=CC=C1
InChI: InChI=1S/C12H11N3/c13-10-6-8-12(9-7-10)15-14-11-4-2-1-3-5-11/h1-9H,13H2/b15-14+
Instrument: LTQ Orbitrap XL Thermo Scientific
Instrument type: LC-ESI-ITFT
Ms type: MS2
Ion mode: POSITIVE
Ionization: ESI
Fragmentation mode: HCD
Collision energy: 30% (nominal)
Resolution: 15000
Column name: Kinetex Evo C18 2.6 um 50 x 2.1 mm
Retention time: 10.591 min
Base peak: 198.1026
Precursor m/z: 198.1026
Precursor type: [M+H]+
m/z	relative intensity	assigned
77.0382	163	C6H5+
92.0495	1	C6H6N+
93.057	2	C6H7N+
105.0444	49	C6H5N2+
198.102	999	C12H12N3+
