Mass spectrum: Testosterone; LC-ESI-ITFT; MS2; CE: 70%; R=15000; [M+Na]+
Name: Testosterone
Name: (8R,9S,10R,13S,14S,17S)-17-hydroxy-10,13-dimethyl-1,2,6,7,8,9,11,12,14,15,16,17-dodecahydrocyclopenta[a]phenanthren-3-one
Formula: C19H28O2
Exact mass: 288.2089
SMILES: C[C@]12CC[C@H]3[C@@H](CCC4=CC(=O)CC[C@]34C)[C@@H]1CC[C@@H]2O
InChI: InChI=1S/C19H28O2/c1-18-9-7-13(20)11-12(18)3-4-14-15-5-6-17(21)19(15,2)10-8-16(14)18/h11,14-17,21H,3-10H2,1-2H3/t14-,15-,16-,17-,18-,19-/m0/s1
Instrument: LTQ Orbitrap XL Thermo Scientific
Instrument type: LC-ESI-ITFT
Ms type: MS2
Ion mode: POSITIVE
Ionization: ESI
Fragmentation mode: HCD
Collision energy: 70 % (nominal)
Resolution: 15000
Column name: Kinetex Evo C18 2.6 um 50 x 2.1 mm
Retention time: 11.320 min
Base peak: 289.2157
Precursor m/z: 311.1982
Precursor type: [M+Na]+
m/z	relative intensity	assigned
91.0538	362	C7H7+
93.0695	213	C7H9+
95.0487	41	C6H7O+
95.0851	119	C7H11+
105.033	119	C7H5O+
105.0694	305	C8H9+
107.0487	199	C7H7O+
107.0851	113	C8H11+
109.0643	999	C7H9O+
115.0537	58	C9H7+
116.0618	31	C9H8+
117.0694	185	C9H9+
119.0486	16	C8H7O+
119.085	188	C9H11+
121.0644	52	C8H9O+
121.1007	51	C9H13+
123.08	55	C8H11O+
128.0616	75	C10H8+
129.0693	192	C10H9+
130.0772	25	C10H10+
131.085	182	C10H11+
133.0642	128	C9H9O+
133.1007	95	C10H13+
135.0799	96	C9H11O+
135.1169	12	C10H15+
141.0693	92	C11H9+
143.085	137	C11H11+
144.0564	17	C10H8O+
145.0643	42	C10H9O+
145.1006	114	C11H13+
147.08	71	C10H11O+
147.1163	37	C11H15+
149.0955	61	C10H13O+
153.0692	56	C12H9+
154.077	42	C12H10+
155.0848	117	C12H11+
157.1007	62	C12H13+
159.0799	59	C11H11O+
159.1161	48	C12H15+
161.0953	58	C11H13O+
161.1319	26	C12H17+
163.1112	21	C11H15O+
165.0694	31	C13H9+
169.1006	53	C13H13+
171.0804	16	C12H11O+
171.1162	58	C13H15+
173.1317	35	C13H17+
175.1112	15	C12H15O+
181.1003	53	C14H13+
183.116	36	C14H15+
185.0954	12	C13H13O+
191.0847	10	C15H11+
193.1008	19	C15H13+
199.1117	11	C14H15O+
209.1326	10	C16H17+
