Mass spectrum: Oxybutynin; LC-ESI-ITFT; MS2; CE: 60%; R=15000; [M+H]+
Name: Oxybutynin
Name: 4-(diethylamino)but-2-ynyl 2-cyclohexyl-2-hydroxy-2-phenylacetate
Formula: C22H31NO3
Exact mass: 357.23039
SMILES: CCN(CC)CC#CCOC(=O)C(O)(C1CCCCC1)C1=CC=CC=C1
InChI: InChI=1S/C22H31NO3/c1-3-23(4-2)17-11-12-18-26-21(24)22(25,19-13-7-5-8-14-19)20-15-9-6-10-16-20/h5,7-8,13-14,20,25H,3-4,6,9-10,15-18H2,1-2H3
Instrument: LTQ Orbitrap XL Thermo Scientific
Instrument type: LC-ESI-ITFT
Ms type: MS2
Ion mode: POSITIVE
Ionization: ESI
Fragmentation mode: HCD
Collision energy: 60% (nominal)
Resolution: 15000
Column name: Kinetex Evo C18 2.6 um 50 x 2.1 mm
Retention time: 9.039 min
Base peak: 358.2382
Precursor m/z: 358.2377
Precursor type: [M+H]+
m/z	relative intensity	assigned
68.0492	126	C4H6N+
69.0332	154	C4H5O+
69.0695	24	C5H9+
70.0648	24	C4H8N+
72.0805	763	C4H10N+
77.0383	15	C6H5+
79.054	130	C6H7+
80.0492	27	C5H6N+
81.057	38	C5H7N+
81.0697	45	C6H9+
82.0649	82	C5H8N+
83.0853	49	C6H11+
84.0805	11	C5H10N+
86.0962	24	C5H12N+
91.054	141	C7H7+
94.0649	124	C6H8N+
95.0727	37	C6H9N+
96.0806	118	C6H10N+
97.0282	332	C5H5O2+
105.0332	466	C7H5O+
107.0489	323	C7H7O+
108.0805	52	C7H10N+
109.0883	40	C7H11N+
113.0236	10	C5H5O3+
117.0697	20	C9H9+
121.0647	8	C8H9O+
122.0961	24	C8H12N+
124.1118	53	C8H14N+
125.1196	10	C8H15N+
128.0616	13	C10H8+
129.0696	133	C10H9+
142.1223	999	C8H16NO+
143.0853	25	C11H11+
157.0645	18	C11H9O+
171.1164	93	C13H15+
173.0593	8	C11H9O2+
181.1013	6	C14H13+
189.1269	114	C13H17O+
199.1115	29	C14H15O+
