Mass spectrum: N-Acetyl-4-aminoantipyrine; LC-ESI-ITFT; MS2; CE: 30%; R=15000; [M+Na]+
Name: N-Acetyl-4-aminoantipyrine
Name: 4-Acetamidoantipyrine
Name: N-(1,5-dimethyl-3-oxo-2-phenylpyrazol-4-yl)acetamide
Formula: C13H15N3O2
Exact mass: 245.1164
SMILES: CN1N(C(=O)C(NC(C)=O)=C1C)C1=CC=CC=C1
InChI: InChI=1S/C13H15N3O2/c1-9-12(14-10(2)17)13(18)16(15(9)3)11-7-5-4-6-8-11/h4-8H,1-3H3,(H,14,17)
Instrument: LTQ Orbitrap XL Thermo Scientific
Instrument type: LC-ESI-ITFT
Ms type: MS2
Ion mode: POSITIVE
Ionization: ESI
Fragmentation mode: HCD
Collision energy: 30 % (nominal)
Resolution: 15000
Column name: Kinetex Evo C18 2.6 um 50 x 2.1 mm
Retention time: 4.686 min
Base peak: 116.9864
Precursor m/z: 268.1056
Precursor type: [M+Na]+
m/z	relative intensity	assigned
74.0599	551	C3H8NO+
98.0968	797	C6H12N+
121.0654	309	C8H9O+
159.0811	336	C11H11O+
165.0913	99	C10H13O2+
176.1075	275	C11H14NO+
177.0917	152	C11H13O2+
191.1071	999	C12H15O2+
