Mass spectrum: 4-Androstene-3,17-dione; LC-ESI-ITFT; MS2; CE: 60%; R=15000; [M+H]+
Name: 4-Androstene-3,17-dione
Name: Androstenedione
Name: (8R,9S,10R,13S,14S)-10,13-dimethyl-2,6,7,8,9,11,12,14,15,16-decahydro-1H-cyclopenta[a]phenanthrene-3,17-dione
Formula: C19H26O2
Exact mass: 286.19328
SMILES: C[C@]12CC[C@H]3[C@@H](CCC4=CC(=O)CC[C@]34C)[C@@H]1CCC2=O
InChI: InChI=1S/C19H26O2/c1-18-9-7-13(20)11-12(18)3-4-14-15-5-6-17(21)19(15,2)10-8-16(14)18/h11,14-16H,3-10H2,1-2H3/t14-,15-,16-,18-,19-/m0/s1
Instrument: LTQ Orbitrap XL Thermo Scientific
Instrument type: LC-ESI-ITFT
Ms type: MS2
Ion mode: POSITIVE
Ionization: ESI
Fragmentation mode: HCD
Collision energy: 60% (nominal)
Resolution: 15000
Column name: Kinetex Evo C18 2.6 um 50 x 2.1 mm
Retention time: 11.080 min
Base peak: 287.2007
Precursor m/z: 287.2006
Precursor type: [M+H]+
m/z	relative intensity	assigned
79.0543	19	C6H7+
81.07	22	C6H9+
83.0493	28	C5H7O+
93.0701	20	C7H9+
95.0857	11	C7H11+
97.0651	999	C6H9O+
105.0702	20	C8H9+
107.0859	14	C8H11+
109.065	767	C7H9O+
117.0702	3	C9H9+
119.0859	16	C9H11+
121.1015	12	C9H13+
123.0808	102	C8H11O+
131.0858	14	C10H11+
133.1016	33	C10H13+
135.0805	4	C9H11O+
135.1172	6	C10H15+
143.0858	10	C11H11+
145.1014	33	C11H13+
147.08	4	C10H11O+
147.1171	15	C11H15+
149.1326	6	C11H17+
157.1012	7	C12H13+
159.1174	22	C12H15+
169.1017	9	C13H13+
171.1175	9	C13H15+
173.1328	26	C13H17+
183.1173	7	C14H15+
185.133	18	C14H17+
187.1483	7	C14H19+
195.1174	5	C15H15+
211.1485	16	C16H19+
229.1598	8	C16H21O+
251.1792	6	C19H23+
269.1907	8	C19H25O+
287.2009	7	C19H27O2+
