Mass spectrum: Velvione; LC-ESI-ITFT; MS2; CE: 20%; R=15000; [M+Na]+
Name: Velvione
Name: 5-Cyclohexadecen-1-one
Name: cyclohexadec-5-en-1-one
Formula: C16H28O
Exact mass: 236.2140
SMILES: O=C1CCCCCCCCCCC=CCCC1
InChI: InChI=1S/C16H28O/c17-16-14-12-10-8-6-4-2-1-3-5-7-9-11-13-15-16/h6,8H,1-5,7,9-15H2
Instrument: LTQ Orbitrap XL Thermo Scientific
Instrument type: LC-ESI-ITFT
Ms type: MS2
Ion mode: POSITIVE
Ionization: ESI
Fragmentation mode: HCD
Collision energy: 20% (nominal)
Resolution: 15000
Column name: Kinetex Evo C18 2.6 um 50 x 2.1 mm
Retention time: 14.212 min
Base peak: 259.2049
Precursor m/z: 259.2032
Precursor type: [M+Na]+
m/z	relative intensity	assigned
133.1016	40	C10H13+
175.1118	999	C12H15O+
