Mass spectrum: Pethoxamid; LC-ESI-ITFT; MS2; CE: 70%; R=15000; [M+Na]+
Name: Pethoxamid
Name: 2-chloro-N-(2-ethoxyethyl)-N-(2-methyl-1-phenylprop-1-enyl)acetamide
Formula: C16H22ClNO2
Exact mass: NA
SMILES: CCOCCN(C(=O)CCl)C(=C(C)C)C1=CC=CC=C1
InChI: InChI=1S/C16H22ClNO2/c1-4-20-11-10-18(15(19)12-17)16(13(2)3)14-8-6-5-7-9-14/h5-9H,4,10-12H2,1-3H3
Instrument: LTQ Orbitrap XL Thermo Scientific
Instrument type: LC-ESI-ITFT
Ms type: MS2
Ion mode: POSITIVE
Ionization: ESI
Fragmentation mode: HCD
Collision energy: 70 % (nominal)
Resolution: 15000
Column name: Kinetex Evo C18 2.6 um 50 x 2.1 mm
Retention time: 11.640 min
Base peak: 116.9859
Precursor m/z: 318.1231
Precursor type: [M+Na]+
m/z	relative intensity	assigned
91.0543	468	C7H7+
105.07	188	C8H9+
117.0701	481	C9H9+
128.0624	119	C10H8+
129.0702	396	C10H9+
131.0858	999	C10H11+
143.0858	398	C11H11+
145.1014	898	C11H13+
171.0803	136	C12H11O+
188.1075	138	C12H14NO+
214.1228	81	C14H16NO+
