Mass spectrum: Aldosterone; LC-ESI-ITFT; MS2; CE: 40%; R=15000; [M+H]+
Name: Aldosterone
Name: (8S,9S,10R,11S,13R,14S,17S)-11-hydroxy-17-(2-hydroxyacetyl)-10-methyl-3-oxo-1,2,6,7,8,9,11,12,14,15,16,17-dodecahydrocyclopenta[a]phenanthrene-13-carbaldehyde
Formula: C21H28O5
Exact mass: 360.19367
SMILES: [H][C@@]12CC[C@H](C(=O)CO)[C@]1(C[C@H](O)[C@@]1([H])[C@@]2([H])CCC2=CC(=O)CC[C@]12C)C=O
InChI: InChI=1S/C21H28O5/c1-20-7-6-13(24)8-12(20)2-3-14-15-4-5-16(18(26)10-22)21(15,11-23)9-17(25)19(14)20/h8,11,14-17,19,22,25H,2-7,9-10H2,1H3/t14-,15-,16+,17-,19+,20-,21+/m0/s1
Instrument: LTQ Orbitrap XL Thermo Scientific
Instrument type: LC-ESI-ITFT
Ms type: MS2
Ion mode: POSITIVE
Ionization: ESI
Fragmentation mode: HCD
Collision energy: 40% (nominal)
Resolution: 15000
Column name: Kinetex Evo C18 2.6 um 50 x 2.1 mm
Retention time: 9.371 min
Base peak: 116.986
Precursor m/z: 361.201
Precursor type: [M+H]+
m/z	relative intensity	assigned
83.0492	28	C5H7O+
93.0701	25	C7H9+
97.065	222	C6H9O+
105.0702	21	C8H9+
107.0855	16	C8H11+
109.065	156	C7H9O+
121.065	133	C8H9O+
123.0806	94	C8H11O+
131.0858	32	C10H11+
133.1014	26	C10H13+
135.0808	28	C9H11O+
143.0857	44	C11H11+
145.1013	48	C11H13+
147.0807	44	C10H11O+
155.0858	49	C12H11+
157.1014	77	C12H13+
159.117	55	C12H15+
161.0968	35	C11H13O+
163.1118	41	C11H15O+
169.1015	42	C13H13+
171.1175	44	C13H15+
173.0962	50	C12H13O+
175.1119	92	C12H15O+
181.1018	17	C14H13+
183.1168	56	C14H15+
195.1174	38	C15H15+
197.1331	44	C15H17+
199.1126	34	C14H15O+
209.1327	43	C16H17+
211.1113	20	C15H15O+
213.1279	33	C15H17O+
221.1331	53	C17H17+
223.112	17	C16H15O+
223.1485	20	C17H19+
225.1282	48	C16H17O+
227.1432	38	C16H19O+
233.1537	21	C15H21O2+
235.1486	40	C18H19+
237.1643	53	C18H21+
239.1431	108	C17H19O+
247.1493	22	C19H19+
249.1264	20	C18H17O+
251.1437	44	C18H19O+
253.1593	78	C18H21O+
255.1746	152	C18H23O+
257.1539	44	C17H21O2+
261.1636	39	C20H21+
263.1432	27	C19H19O+
265.1587	72	C19H21O+
267.1384	45	C18H19O2+
267.1744	77	C19H23O+
269.1902	25	C19H25O+
277.16	18	C20H21O+
279.1745	177	C20H23O+
281.154	94	C19H21O2+
283.1691	48	C19H23O2+
285.1491	19	C18H21O3+
285.185	37	C19H25O2+
289.1583	33	C21H21O+
297.1851	184	C20H25O2+
299.1644	240	C19H23O3+
307.1695	77	C21H23O2+
313.1807	21	C20H25O3+
315.1956	532	C20H27O3+
325.1799	261	C21H25O3+
343.1904	999	C21H27O4+
