Mass spectrum: N-Acetyl-4-aminoantipyrine; LC-ESI-ITFT; MS2; CE: 70%; R=15000; [M+Na]+
Name: N-Acetyl-4-aminoantipyrine
Name: N-(1,5-dimethyl-3-oxo-2-phenylpyrazol-4-yl)acetamide
Formula: C13H15N3O2
Exact mass: 245.1164
SMILES: CN1N(C(=O)C(NC(C)=O)=C1C)C1=CC=CC=C1
InChI: InChI=1S/C13H15N3O2/c1-9-12(14-10(2)17)13(18)16(15(9)3)11-7-5-4-6-8-11/h4-8H,1-3H3,(H,14,17)
Instrument: LTQ Orbitrap XL Thermo Scientific
Instrument type: LC-ESI-ITFT
Ms type: MS2
Ion mode: POSITIVE
Ionization: ESI
Fragmentation mode: HCD
Collision energy: 70% (nominal)
Resolution: 15000
Column name: Kinetex Evo C18 2.6 um 50 x 2.1 mm
Retention time: 4.624 min
Base peak: 268.1913
Precursor m/z: 268.1056
Precursor type: [M+Na]+
m/z	relative intensity	assigned
72.0806	762	C4H10N+
74.0598	965	C3H8NO+
77.0383	13	C6H5+
79.0541	68	C6H7+
84.0807	42	C5H10N+
91.0542	188	C7H7+
93.0699	44	C7H9+
95.0494	5	C6H7O+
98.0964	353	C6H12N+
100.1121	86	C6H14N+
103.0542	279	C8H7+
105.0699	417	C8H9+
107.049	14	C7H7O+
107.0856	17	C8H11+
115.0542	36	C9H7+
116.062	33	C9H8+
116.107	383	C6H14NO+
117.0699	48	C9H9+
119.049	10	C8H7O+
119.0856	50	C9H11+
120.0569	11	C8H8O+
121.0648	740	C8H9O+
129.0698	52	C10H9+
131.0493	25	C9H7O+
131.0602	11	C8H7N2+
131.0855	183	C10H11+
133.0648	999	C9H9O+
135.0804	94	C9H11O+
141.07	54	C11H9+
144.057	90	C10H8O+
147.0805	83	C10H11O+
148.0757	189	C9H10NO+
151.0754	37	C9H11O2+
159.0804	319	C11H11O+
163.0866	290	C9H11N2O+
165.091	73	C10H13O2+
169.0761	21	C11H9N2+
176.107	24	C11H14NO+
177.0909	29	C11H13O2+
179.1064	13	C11H15O2+
191.1066	45	C12H15O2+
