Mass spectrum: Fluconazole; LC-ESI-ITFT; MS2; CE: 70%; R=15000; [M+H]+
Name: Fluconazole
Name: 2-(2,4-difluorophenyl)-1,3-bis(1,2,4-triazol-1-yl)propan-2-ol
Formula: C13H12F2N6O
Exact mass: 306.10407
SMILES: OC(CN1C=NC=N1)(CN1C=NC=N1)C1=C(F)C=C(F)C=C1
InChI: InChI=1S/C13H12F2N6O/c14-10-1-2-11(12(15)3-10)13(22,4-20-8-16-6-18-20)5-21-9-17-7-19-21/h1-3,6-9,22H,4-5H2
Instrument: LTQ Orbitrap XL Thermo Scientific
Instrument type: LC-ESI-ITFT
Ms type: MS2
Ion mode: POSITIVE
Ionization: ESI
Fragmentation mode: HCD
Collision energy: 70% (nominal)
Resolution: 15000
Column name: Kinetex Evo C18 2.6 um 50 x 2.1 mm
Retention time: 6.975 min
Base peak: 307.1122
Precursor m/z: 307.1113
Precursor type: [M+H]+
m/z	relative intensity	assigned
70.0398	717	C2H4N3+
82.04	36	C3H4N3+
83.0477	48	C3H5N3+
84.0557	11	C3H6N3+
91.0543	10	C7H7+
100.0508	5	C3H6N3O+
101.0385	10	C8H5+
115.035	5	C6H5F2+
119.0492	6	C8H7O+
121.0448	737	C8H6F+
127.0354	770	C7H5F2+
129.0448	160	C8H5N2+
139.0354	999	C8H5F2+
140.0303	7	C7H4F2N+
141.0147	127	C7H3F2O+
141.0511	555	C8H7F2+
146.0404	12	C9H5FN+
147.0353	22	C8H4FN2+
149.0398	24	C9H6FO+
151.0354	652	C9H5F2+
153.0384	5	C8H5F2N+
164.0433	15	C10H6F2+
166.0464	84	C9H6F2N+
169.046	834	C9H7F2O+
173.051	149	C10H6FN2+
176.0304	8	C10H4F2N+
177.046	52	C9H6FN2O+
178.0464	6	C10H6F2N+
193.0571	46	C10H7F2N2+
200.0619	120	C11H7FN3+
219.061	10	C11H7F2N3+
220.0682	320	C11H8F2N3+
238.0788	72	C11H10F2N3O+
