Mass spectrum: Norgestimate; LC-ESI-ITFT; MS2; CE: 60%; R=15000; [M+H]+
Name: Norgestimate
Name: [(3E,8R,9S,10R,13S,14S,17R)-13-ethyl-17-ethynyl-3-hydroxyimino-1,2,6,7,8,9,10,11,12,14,15,16-dodecahydrocyclopenta[a]phenanthren-17-yl] acetate
Formula: C23H31NO3
Exact mass: 369.23039
SMILES: CC[C@]12CC[C@H]3[C@@H](CCC4=C\C(CC[C@H]34)=N\O)[C@@H]1CC[C@@]2(OC(C)=O)C#C
InChI: InChI=1S/C23H31NO3/c1-4-22-12-10-19-18-9-7-17(24-26)14-16(18)6-8-20(19)21(22)11-13-23(22,5-2)27-15(3)25/h2,14,18-21,26H,4,6-13H2,1,3H3/b24-17+/t18-,19+,20+,21-,22-,23-/m0/s1
Instrument: LTQ Orbitrap XL Thermo Scientific
Instrument type: LC-ESI-ITFT
Ms type: MS2
Ion mode: POSITIVE
Ionization: ESI
Fragmentation mode: HCD
Collision energy: 60% (nominal)
Resolution: 15000
Column name: Kinetex Evo C18 2.6 um 50 x 2.1 mm
Retention time: 12.979 min
Base peak: 65.0595
Precursor m/z: 370.2377
Precursor type: [M+H]+
m/z	relative intensity	assigned
65.0383	9	C5H5+
67.0539	60	C5H7+
69.0696	17	C5H9+
77.0383	17	C6H5+
79.054	190	C6H7+
80.0493	23	C5H6N+
81.0697	79	C6H9+
82.0649	43	C5H8N+
91.054	297	C7H7+
92.0493	23	C6H6N+
93.0697	152	C7H9+
94.0649	25	C6H8N+
95.0728	20	C6H9N+
95.0853	61	C7H11+
96.0444	7	C5H6NO+
96.0807	26	C6H10N+
98.0598	509	C5H8NO+
103.0538	19	C8H7+
105.0696	295	C8H9+
106.0649	61	C7H8N+
107.0727	20	C7H9N+
107.0853	100	C8H11+
108.0805	101	C7H10N+
109.0645	7	C7H9O+
109.0883	27	C7H11N+
109.1009	21	C8H13+
110.0598	45	C6H8NO+
111.0674	8	C6H9NO+
112.0761	13	C6H10NO+
115.0541	31	C9H7+
116.062	26	C9H8+
117.0567	9	C8H7N+
117.0697	170	C9H9+
118.065	20	C8H8N+
119.0853	178	C9H11+
120.0806	29	C8H10N+
121.0882	19	C8H11N+
121.1009	50	C9H13+
122.0599	32	C7H8NO+
122.0961	26	C8H12N+
124.0754	999	C7H10NO+
128.0616	34	C10H8+
129.0696	175	C10H9+
130.0648	18	C9H8N+
130.0773	32	C10H10+
131.0852	305	C10H11+
132.0805	36	C9H10N+
133.0881	9	C9H11N+
133.1009	152	C10H13+
134.0961	35	C9H12N+
135.0805	11	C9H11O+
135.1168	14	C10H15+
136.0753	26	C8H10NO+
137.0959	11	C9H13O+
138.0911	28	C8H12NO+
141.0696	42	C11H9+
142.0774	46	C11H10+
143.0723	10	C10H9N+
143.0852	173	C11H11+
144.0804	24	C10H10N+
144.093	27	C11H12+
145.0882	13	C10H11N+
145.1009	202	C11H13+
146.0959	44	C10H12N+
147.0809	6	C10H11O+
147.1165	40	C11H15+
148.0753	16	C9H10NO+
148.1116	24	C10H14N+
149.0958	35	C10H13O+
150.091	42	C9H12NO+
153.07	9	C12H9+
154.0783	16	C12H10+
155.0852	88	C12H11+
156.0806	9	C11H10N+
156.0929	26	C12H12+
157.0888	9	C11H11N+
157.1009	147	C12H13+
158.096	33	C11H12N+
159.1045	19	C11H13N+
159.1165	111	C12H15+
160.1118	36	C11H14N+
161.0961	8	C11H13O+
161.1195	13	C11H15N+
161.1322	18	C12H17+
162.0909	14	C10H12NO+
162.1275	23	C11H16N+
164.1067	36	C10H14NO+
165.0692	15	C13H9+
166.0771	11	C13H10+
167.0853	35	C13H11+
168.0929	27	C13H12+
169.0885	5	C12H11N+
169.1009	79	C13H13+
170.096	9	C12H12N+
170.1086	23	C13H14+
171.1164	73	C13H15+
172.1122	21	C12H14N+
172.1241	12	C13H16+
173.1322	48	C13H17+
174.0912	13	C11H12NO+
174.1278	11	C12H16N+
175.1109	10	C12H15O+
175.1476	10	C13H19+
176.1068	62	C11H14NO+
178.1224	55	C11H16NO+
179.0849	16	C14H11+
180.0933	11	C14H12+
181.1008	43	C14H13+
182.0972	9	C13H12N+
183.1164	79	C14H15+
184.112	12	C13H14N+
184.1237	10	C14H16+
185.1321	83	C14H17+
186.1271	10	C13H16N+
187.1477	18	C14H19+
190.1221	20	C12H16NO+
191.0858	8	C15H11+
193.101	28	C15H13+
195.1163	40	C15H15+
196.1115	10	C14H14N+
196.1241	11	C15H16+
197.1321	33	C15H17+
198.1273	11	C14H16N+
199.1481	16	C15H19+
205.1011	18	C16H13+
206.1085	9	C16H14+
207.1165	28	C16H15+
208.1114	11	C15H14N+
208.1244	8	C16H16+
209.1323	22	C16H17+
210.127	9	C15H16N+
211.1482	10	C16H19+
212.143	15	C15H18N+
219.1159	13	C17H15+
220.1252	8	C17H16+
221.1321	22	C17H17+
222.1275	12	C16H16N+
223.1478	16	C17H19+
224.1435	10	C16H18N+
225.1637	16	C17H21+
233.1326	11	C18H17+
234.1272	7	C17H16N+
235.1486	14	C18H19+
236.1429	18	C17H18N+
237.163	18	C18H21+
238.159	8	C17H20N+
247.1478	14	C19H19+
248.1548	11	C19H20+
249.164	15	C19H21+
250.1589	9	C18H20N+
260.2003	21	C17H26NO+
262.1594	7	C19H20N+
264.1744	45	C19H22N+
265.1831	6	C19H23N+
278.1902	16	C20H24N+
282.1846	59	C19H24NO+
292.2064	15	C21H26N+
310.2159	132	C21H28NO+
370.237	66	C23H32NO3+
