Mass spectrum: Spiroxamine; LC-ESI-ITFT; MS2; CE: 80%; R=15000; [M+Na]+
Name: Spiroxamine
Name: N-[(8-tert-butyl-1,4-dioxaspiro[4.5]decan-3-yl)methyl]-N-ethylpropan-1-amine
Formula: C18H35NO2
Exact mass: 297.26678
SMILES: CCCN(CC)CC1COC2(CCC(CC2)C(C)(C)C)O1
InChI: InChI=1S/C18H35NO2/c1-6-12-19(7-2)13-16-14-20-18(21-16)10-8-15(9-11-18)17(3,4)5/h15-16H,6-14H2,1-5H3
Instrument: LTQ Orbitrap XL Thermo Scientific
Instrument type: LC-ESI-ITFT
Ms type: MS2
Ion mode: POSITIVE
Ionization: ESI
Fragmentation mode: HCD
Collision energy: 80 % (nominal)
Resolution: 15000
Column name: Kinetex Evo C18 2.6 um 50 x 2.1 mm
Retention time: 9.755 min
Base peak: 116.986
Precursor m/z: 320.256
Precursor type: [M+Na]+
m/z	relative intensity	assigned
55.054	21	C4H7+
56.0494	21	C3H6N+
57.0697	255	C4H9+
70.0651	126	C4H8N+
74.0599	27	C3H8NO+
91.0546	65	C7H7+
96.081	14	C6H10N+
98.0968	29	C6H12N+
105.0702	306	C8H9+
107.086	50	C8H11+
110.0968	86	C7H12N+
117.0702	86	C9H9+
119.0859	373	C9H11+
128.1074	999	C7H14NO+
132.0938	591	C10H12+
147.1173	979	C11H15+
148.0887	14	C10H12O+
163.1115	24	C11H15O+
