Mass spectrum: Temazepam; LC-ESI-ITFT; MS2; CE: 50%; R=15000; [M+H]+
Name: Temazepam
Name: 7-chloro-3-hydroxy-1-methyl-5-phenyl-3H-1,4-benzodiazepin-2-one
Formula: C16H13ClN2O2
Exact mass: 300.06656
SMILES: CN1C2=CC=C(Cl)C=C2C(=NC(O)C1=O)C1=CC=CC=C1
InChI: InChI=1S/C16H13ClN2O2/c1-19-13-8-7-11(17)9-12(13)14(18-15(20)16(19)21)10-5-3-2-4-6-10/h2-9,15,20H,1H3
Instrument: LTQ Orbitrap XL Thermo Scientific
Instrument type: LC-ESI-ITFT
Ms type: MS2
Ion mode: POSITIVE
Ionization: ESI
Fragmentation mode: HCD
Collision energy: 50% (nominal)
Resolution: 15000
Column name: Kinetex Evo C18 2.6 um 50 x 2.1 mm
Retention time: 10.483 min
Base peak: 301.075
Precursor m/z: 301.0738
Precursor type: [M+H]+
m/z	relative intensity	assigned
104.0496	10	C7H6N+
117.0577	2	C8H7N+
125.0153	2	C7H6Cl+
138.011	1	C7H5ClN+
142.0422	2	C7H9ClN+
152.0264	3	C8H7ClN+
166.0053	2	C8H5ClNO+
170.0369	2	C8H9ClNO+
177.0218	3	C9H6ClN2+
180.0212	35	C9H7ClNO+
193.0889	49	C14H11N+
216.0576	21	C13H11ClN+
228.0577	100	C14H11ClN+
230.0733	1	C14H13ClN+
242.0376	1	C14H9ClNO+
243.0689	1	C14H12ClN2+
245.0845	9	C14H14ClN2+
255.0686	999	C15H12ClN2+
256.0519	1	C15H11ClNO+
257.0479	4	C14H10ClN2O+
271.063	1	C15H12ClN2O+
283.0635	17	C16H12ClN2O+
301.0738	1	C16H14ClN2O2+
