Mass spectrum: Genistein; LC-ESI-ITFT; MS2; CE: 80%; R=15000; [M+H]+
Name: Genistein
Name: 5,7-dihydroxy-3-(4-hydroxyphenyl)chromen-4-one
Formula: C15H10O5
Exact mass: 270.05282
SMILES: OC1=CC=C(C=C1)C1=COC2=CC(O)=CC(O)=C2C1=O
InChI: InChI=1S/C15H10O5/c16-9-3-1-8(2-4-9)11-7-20-13-6-10(17)5-12(18)14(13)15(11)19/h1-7,16-18H
Instrument: LTQ Orbitrap XL Thermo Scientific
Instrument type: LC-ESI-ITFT
Ms type: MS2
Ion mode: POSITIVE
Ionization: ESI
Fragmentation mode: HCD
Collision energy: 80% (nominal)
Resolution: 15000
Column name: Kinetex Evo C18 2.6 um 50 x 2.1 mm
Retention time: 9.929 min
Base peak: 192.1389
Precursor m/z: 271.0601
Precursor type: [M+H]+
m/z	relative intensity	assigned
65.0387	42	C5H5+
67.018	61	C4H3O+
68.9973	131	C3HO2+
69.0336	21	C4H5O+
81.0338	22	C5H5O+
89.0389	21	C7H5+
91.0546	999	C7H7+
105.0339	21	C7H5O+
107.0496	84	C7H7O+
117.0338	8	C8H5O+
117.0703	31	C9H9+
119.0497	287	C8H7O+
121.0289	112	C7H5O2+
131.0497	93	C9H7O+
131.0862	36	C10H11+
133.0285	8	C8H5O2+
135.0445	52	C8H7O2+
137.024	40	C7H5O3+
141.0705	285	C11H9+
144.0575	32	C10H8O+
145.0291	85	C9H5O2+
145.0655	56	C10H9O+
149.024	179	C8H5O3+
150.0319	20	C8H6O3+
152.0627	27	C12H8+
153.0189	980	C7H5O4+
155.0497	33	C11H7O+
157.0655	15	C11H9O+
163.0392	12	C9H7O3+
169.0655	275	C12H9O+
173.0604	40	C11H9O2+
183.0449	37	C12H7O2+
187.0397	20	C11H7O3+
187.0761	49	C12H11O2+
191.0345	28	C10H7O4+
197.0605	235	C13H9O2+
200.0474	54	C12H8O3+
213.0554	36	C13H9O3+
215.0711	335	C13H11O3+
242.0585	24	C14H10O4+
243.0661	166	C14H11O4+
253.0504	100	C15H9O4+
271.0609	107	C15H11O5+
