Mass spectrum: Cyprodinil; LC-ESI-ITFT; MS2; CE: 60%; R=15000; [M+H]+
Name: Cyprodinil
Name: 4-cyclopropyl-6-methyl-N-phenylpyrimidin-2-amine
Formula: C14H15N3
Exact mass: 225.12660
SMILES: CC1=NC(NC2=CC=CC=C2)=NC(=C1)C1CC1
InChI: InChI=1S/C14H15N3/c1-10-9-13(11-7-8-11)17-14(15-10)16-12-5-3-2-4-6-12/h2-6,9,11H,7-8H2,1H3,(H,15,16,17)
Instrument: LTQ Orbitrap XL Thermo Scientific
Instrument type: LC-ESI-ITFT
Ms type: MS2
Ion mode: POSITIVE
Ionization: ESI
Fragmentation mode: HCD
Collision energy: 60% (nominal)
Resolution: 15000
Column name: Kinetex Evo C18 2.6 um 50 x 2.1 mm
Retention time: 10.286 min
Base peak: 226.1345
Precursor m/z: 226.1339
Precursor type: [M+H]+
m/z	relative intensity	assigned
79.0541	2	C6H7+
80.0495	1	C5H6N+
81.0699	2	C6H9+
82.0651	3	C5H8N+
91.0543	9	C7H7+
92.0495	8	C6H6N+
93.0573	21	C6H7N+
94.0651	2	C6H8N+
104.0496	1	C7H6N+
106.0651	17	C7H8N+
107.0606	1	C6H7N2+
108.0681	4	C6H8N2+
108.0808	72	C7H10N+
109.0761	3	C6H9N2+
109.0885	1	C7H11N+
116.0497	3	C8H6N+
117.0573	3	C8H7N+
118.0526	7	C7H6N2+
118.0651	7	C8H8N+
119.0603	18	C7H7N2+
123.0917	7	C7H11N2+
131.0605	3	C8H7N2+
132.0682	5	C8H8N2+
133.076	42	C8H9N2+
142.0651	3	C10H8N+
143.0605	7	C9H7N2+
144.0808	26	C10H10N+
145.0762	5	C9H9N2+
158.0965	1	C11H12N+
159.0918	11	C10H11N2+
167.0729	1	C12H9N+
168.0808	3	C12H10N+
169.0763	2	C11H9N2+
182.0967	1	C13H12N+
183.0915	3	C12H11N2+
184.0868	14	C11H10N3+
185.1074	16	C12H13N2+
194.0837	5	C13H10N2+
197.0944	1	C12H11N3+
198.1024	4	C12H12N3+
199.1235	1	C13H15N2+
208.0998	1	C14H12N2+
209.1074	22	C14H13N2+
210.1027	21	C13H12N3+
211.1104	8	C13H13N3+
224.1187	3	C14H14N3+
226.1338	999	C14H16N3+
