Mass spectrum: Exemestane; LC-ESI-ITFT; MS2; CE: 50%; R=15000; [M+H]+
Name: Exemestane
Name: (8R,9S,10R,13S,14S)-10,13-dimethyl-6-methylidene-7,8,9,11,12,14,15,16-octahydrocyclopenta[a]phenanthrene-3,17-dione
Formula: C20H24O2
Exact mass: 296.17763
SMILES: [H][C@@]12CCC(=O)[C@@]1(C)CC[C@@]1([H])[C@@]2([H])CC(=C)C2=CC(=O)C=C[C@]12C
InChI: InChI=1S/C20H24O2/c1-12-10-14-15-4-5-18(22)20(15,3)9-7-16(14)19(2)8-6-13(21)11-17(12)19/h6,8,11,14-16H,1,4-5,7,9-10H2,2-3H3/t14-,15-,16-,19+,20-/m0/s1
Instrument: LTQ Orbitrap XL Thermo Scientific
Instrument type: LC-ESI-ITFT
Ms type: MS2
Ion mode: POSITIVE
Ionization: ESI
Fragmentation mode: HCD
Collision energy: 50% (nominal)
Resolution: 15000
Column name: Kinetex Evo C18 2.6 um 50 x 2.1 mm
Retention time: 11.172 min
Base peak: 297.1852
Precursor m/z: 297.1849
Precursor type: [M+H]+
m/z	relative intensity	assigned
67.0542	40	C5H7+
79.0544	97	C6H7+
81.07	148	C6H9+
83.0493	339	C5H7O+
91.0544	124	C7H7+
93.0701	227	C7H9+
95.0857	138	C7H11+
105.0701	235	C8H9+
107.0494	134	C7H7O+
107.0858	160	C8H11+
109.065	999	C7H9O+
109.1014	102	C8H13+
111.0807	49	C7H11O+
117.0702	119	C9H9+
119.0857	283	C9H11+
121.065	56	C8H9O+
121.1014	145	C9H13+
123.0808	83	C8H11O+
129.0701	83	C10H9+
131.0857	269	C10H11+
133.0653	32	C9H9O+
133.1013	125	C10H13+
135.0807	213	C9H11O+
137.0966	24	C9H13O+
141.0698	23	C11H9+
143.0858	179	C11H11+
145.1015	312	C11H13+
147.081	67	C10H11O+
147.1169	77	C11H15+
149.0963	104	C10H13O+
155.0855	40	C12H11+
156.0937	29	C12H12+
157.1015	163	C12H13+
159.0802	29	C11H11O+
159.1171	122	C12H15+
161.0966	102	C11H13O+
161.1326	98	C12H17+
163.1121	83	C11H15O+
169.1014	101	C13H13+
171.0804	32	C12H11O+
171.117	249	C13H15+
173.0964	30	C12H13O+
173.1328	138	C13H17+
175.1121	54	C12H15O+
181.1014	42	C14H13+
183.1173	74	C14H15+
185.0955	24	C13H13O+
185.1326	100	C14H17+
189.1272	27	C13H17O+
195.1174	60	C15H15+
197.133	27	C15H17+
199.1485	43	C15H19+
207.1172	29	C16H15+
209.1331	23	C16H17+
211.1487	73	C16H19+
213.1643	153	C16H21+
221.133	55	C17H17+
223.1488	82	C17H19+
231.1747	358	C16H23O+
235.1476	45	C18H19+
239.1427	26	C17H19O+
263.1795	43	C20H23+
281.1893	56	C20H25O+
