Mass spectrum: Imidacloprid; LC-ESI-ITFT; MS2; CE: 70%; R=15000; [M+H]+
Name: Imidacloprid
Name: N-[1-[(6-chloropyridin-3-yl)methyl]-4,5-dihydroimidazol-2-yl]nitramide
Formula: C9H10ClN5O2
Exact mass: 255.05230
SMILES: [O-][N+](=O)\N=C1/NCCN1CC1=CN=C(Cl)C=C1
InChI: InChI=1S/C9H10ClN5O2/c10-8-2-1-7(5-12-8)6-14-4-3-11-9(14)13-15(16)17/h1-2,5H,3-4,6H2,(H,11,13)
Instrument: LTQ Orbitrap XL Thermo Scientific
Instrument type: LC-ESI-ITFT
Ms type: MS2
Ion mode: POSITIVE
Ionization: ESI
Fragmentation mode: HCD
Collision energy: 70% (nominal)
Resolution: 15000
Column name: Kinetex Evo C18 2.6 um 50 x 2.1 mm
Retention time: 6.012 min
Base peak: 239.1511
Precursor m/z: 256.0596
Precursor type: [M+H]+
m/z	relative intensity	assigned
56.0492	27	C3H6N+
65.0383	2	C5H5+
69.0446	3	C3H5N2+
71.0603	7	C3H7N2+
72.0682	4	C3H8N2+
84.0556	167	C3H6N3+
90.0339	47	C6H4N+
91.0416	7	C6H5N+
92.0496	5	C6H6N+
93.0575	4	C6H7N+
97.0635	7	C4H7N3+
98.0713	12	C4H8N3+
98.9995	5	C5H4Cl+
99.0554	22	C4H7N2O+
105.045	4	C6H5N2+
106.0652	10	C7H8N+
107.0605	11	C6H7N2+
113.0027	11	C5H4ClN+
114.0106	7	C5H5ClN+
119.0478	6	C6H5N3+
119.0603	7	C7H7N2+
120.0559	2	C6H6N3+
121.0636	3	C6H7N3+
126.0106	157	C6H5ClN+
127.014	3	CH6ClN3O2+
127.0185	9	C6H6ClN+
128.0262	97	C6H7ClN+
131.048	3	C7H5N3+
131.0605	6	C8H7N2+
132.0556	6	C7H6N3+
132.0688	2	C8H8N2+
133.0635	19	C7H7N3+
133.076	37	C8H9N2+
134.0714	16	C7H8N3+
139.0058	6	C6H4ClN2+
140.014	4	C6H5ClN2+
140.0262	4	C7H7ClN+
141.0215	32	C6H6ClN2+
144.021	3	C6H7ClNO+
146.0588	22	C7H6N4+
146.0714	81	C8H8N3+
147.0666	87	C7H7N4+
147.0793	6	C8H9N3+
148.087	28	C8H10N3+
151.0186	9	C8H6ClN+
152.0138	5	C7H5ClN2+
153.0212	3	C7H6ClN2+
154.0167	2	C6H5ClN3+
157.0635	2	C9H7N3+
158.0714	36	C9H8N3+
159.0665	7	C8H7N4+
159.0792	39	C9H9N3+
160.0873	3	C9H10N3+
166.0168	4	C7H5ClN3+
167.0372	33	C8H8ClN2+
173.0824	103	C9H9N4+
174.0902	137	C9H10N4+
175.0979	999	C9H11N4+
180.0325	7	C8H7ClN3+
181.0276	38	C7H6ClN4+
191.0933	5	C9H11N4O+
192.0324	2	C9H7ClN3+
193.0407	6	C9H8ClN3+
194.0481	19	C9H9ClN3+
207.0439	2	C9H8ClN4+
208.0515	6	C9H9ClN4+
209.0589	810	C9H10ClN4+
210.0674	3	C9H11ClN4+
212.0584	4	C9H11ClN3O+
