Mass spectrum: Trenbolone; LC-ESI-ITFT; MS2; CE: 60%; R=15000; [M+H]+
Name: Trenbolone
Name: (13S,17S)-17-hydroxy-13-methyl-2,6,7,8,14,15,16,17-octahydro-1H-cyclopenta[a]phenanthren-3-one
Formula: C18H22O2
Exact mass: 270.1620
SMILES: C[C@]12C=CC3=C4CCC(=O)C=C4CCC3C1CC[C@@H]2O
InChI: InChI=1S/C18H22O2/c1-18-9-8-14-13-5-3-12(19)10-11(13)2-4-15(14)16(18)6-7-17(18)20/h8-10,15-17,20H,2-7H2,1H3/t15?,16?,17-,18-/m0/s1
Instrument: LTQ Orbitrap XL Thermo Scientific
Instrument type: LC-ESI-ITFT
Ms type: MS2
Ion mode: POSITIVE
Ionization: ESI
Fragmentation mode: HCD
Collision energy: 60 % (nominal)
Resolution: 15000
Column name: Kinetex Evo C18 2.6 um 50 x 2.1 mm
Retention time: 10.772 min
Base peak: 271.1695
Precursor m/z: 271.1693
Precursor type: [M+H]+
m/z	relative intensity	assigned
67.0541	26	C5H7+
79.0542	41	C6H7+
81.0699	59	C6H9+
83.0491	200	C5H7O+
85.0648	11	C5H9O+
91.0542	45	C7H7+
93.0698	63	C7H9+
95.0856	37	C7H11+
97.0649	12	C6H9O+
105.0699	89	C8H9+
107.0491	175	C7H7O+
107.0855	85	C8H11+
109.0648	34	C7H9O+
109.1013	19	C8H13+
117.0699	45	C9H9+
119.0855	39	C9H11+
121.0648	66	C8H9O+
129.0698	50	C10H9+
131.0489	13	C9H7O+
131.0855	90	C10H11+
133.0648	200	C9H9O+
133.1012	50	C10H13+
135.0805	69	C9H11O+
141.0697	59	C11H9+
143.0855	115	C11H11+
145.0647	57	C10H9O+
145.1011	160	C11H13+
147.0804	72	C10H11O+
148.0881	46	C10H12O+
149.096	21	C10H13O+
153.0699	9	C12H9+
155.0855	83	C12H11+
157.0648	121	C11H9O+
157.1012	60	C12H13+
159.0804	270	C11H11O+
159.1164	32	C12H15+
161.0961	49	C11H13O+
165.0699	20	C13H9+
167.0855	62	C13H11+
169.1013	106	C13H13+
171.0805	67	C12H11O+
171.1168	83	C13H15+
173.0961	58	C12H13O+
175.0754	7	C11H11O2+
178.0776	15	C14H10+
179.0854	100	C14H11+
180.0934	22	C14H12+
181.1011	82	C14H13+
183.0804	53	C13H11O+
183.1168	112	C14H15+
184.0882	50	C13H12O+
185.0962	108	C13H13O+
185.1328	16	C14H17+
186.1039	53	C13H14O+
187.1117	81	C13H15O+
189.1275	29	C13H17O+
192.0933	12	C15H12+
193.1012	81	C15H13+
194.1091	9	C15H14+
195.1168	96	C15H15+
196.0883	21	C14H12O+
197.0962	175	C14H13O+
197.1324	39	C15H17+
198.1039	155	C14H14O+
199.1117	926	C14H15O+
200.1196	113	C14H16O+
201.1282	10	C14H17O+
205.1013	20	C16H13+
206.1089	17	C16H14+
207.1168	62	C16H15+
209.1324	67	C16H17+
210.1043	18	C15H14O+
211.1117	166	C15H15O+
211.1481	64	C16H19+
212.1196	87	C15H16O+
213.1272	58	C15H17O+
214.1351	279	C15H18O+
215.1432	31	C15H19O+
220.1247	49	C17H16+
223.1481	22	C17H19+
224.1195	71	C16H16O+
225.1273	190	C16H17O+
225.1638	20	C17H21+
227.143	373	C16H19O+
228.151	29	C16H20O+
233.1317	11	C18H17+
235.1482	120	C18H19+
238.1352	144	C17H18O+
242.1299	20	C16H18O2+
243.1741	8	C17H23O+
251.1418	11	C18H19O+
253.1586	899	C18H21O+
271.1693	999	C18H23O2+
