Mass spectrum: Amidosulfuron; LC-ESI-ITFT; MS2; CE: 50%; R=15000; [M+H]+
Name: Amidosulfuron
Name: 1-(4,6-dimethoxypyrimidin-2-yl)-3-[methyl(methylsulfonyl)sulfamoyl]urea
Formula: C9H15N5O7S2
Exact mass: 369.0413
SMILES: COC1=CC(OC)=NC(NC(=O)NS(=O)(=O)N(C)S(C)(=O)=O)=N1
InChI: InChI=1S/C9H15N5O7S2/c1-14(22(4,16)17)23(18,19)13-9(15)12-8-10-6(20-2)5-7(11-8)21-3/h5H,1-4H3,(H2,10,11,12,13,15)
Instrument: LTQ Orbitrap XL Thermo Scientific
Instrument type: LC-ESI-ITFT
Ms type: MS2
Ion mode: POSITIVE
Ionization: ESI
Fragmentation mode: HCD
Collision energy: 50% (nominal)
Resolution: 15000
Column name: Kinetex Evo C18 2.6 um 50 x 2.1 mm
Retention time: 9.726 min
Base peak: 252.1234
Precursor m/z: 370.0486
Precursor type: [M+H]+
m/z	relative intensity	assigned
97.0398	93	C4H5N2O+
124.0508	222	C5H6N3O+
127.0506	157	C5H7N2O2+
139.0379	327	C5H5N3O2+
142.0613	103	C5H8N3O2+
169.007	28	C6H5N2O2S+
181.0728	55	C7H9N4O2+
182.0562	187	C7H8N3O3+
218.0234	999	H14N2O7S2+
236.0339	432	C6H10N3O5S+
261.0294	127	C7H9N4O5S+
