Mass spectrum: 11-Ketotestosterone; LC-ESI-ITFT; MS2; CE: 60%; R=15000; [M+H]+
Name: 11-Ketotestosterone
Name: (8S,9S,10R,13S,14S,17S)-17-hydroxy-10,13-dimethyl-2,6,7,8,9,12,14,15,16,17-decahydro-1H-cyclopenta[a]phenanthrene-3,11-dione
Formula: C19H26O3
Exact mass: 302.18819
SMILES: C[C@]12CC(=O)[C@H]3[C@@H](CCC4=CC(=O)CC[C@]34C)[C@@H]1CC[C@@H]2O
InChI: InChI=1S/C19H26O3/c1-18-8-7-12(20)9-11(18)3-4-13-14-5-6-16(22)19(14,2)10-15(21)17(13)18/h9,13-14,16-17,22H,3-8,10H2,1-2H3/t13-,14-,16-,17+,18-,19-/m0/s1
Instrument: LTQ Orbitrap XL Thermo Scientific
Instrument type: LC-ESI-ITFT
Ms type: MS2
Ion mode: POSITIVE
Ionization: ESI
Fragmentation mode: HCD
Collision energy: 60% (nominal)
Resolution: 15000
Column name: Kinetex Evo C18 2.6 um 50 x 2.1 mm
Retention time: 9.898 min
Base peak: 116.9859
Precursor m/z: 303.1955
Precursor type: [M+H]+
m/z	relative intensity	assigned
67.0539	35	C5H7+
69.0333	9	C4H5O+
69.0696	63	C5H9+
79.0541	66	C6H7+
81.0697	180	C6H9+
83.049	64	C5H7O+
83.0854	5	C6H11+
85.0646	22	C5H9O+
91.0541	61	C7H7+
93.0697	210	C7H9+
95.049	44	C6H7O+
95.0854	176	C7H11+
97.0646	310	C6H9O+
99.0438	8	C5H7O2+
105.0697	187	C8H9+
107.049	20	C7H7O+
107.0853	229	C8H11+
109.0646	82	C7H9O+
109.101	43	C8H13+
111.0803	50	C7H11O+
113.0599	5	C6H9O2+
117.0696	34	C9H9+
119.0853	172	C9H11+
121.0646	999	C8H9O+
121.1009	90	C9H13+
123.0801	182	C8H11O+
129.0697	28	C10H9+
131.0852	184	C10H11+
133.0645	22	C9H9O+
133.1009	187	C10H13+
135.0802	117	C9H11O+
135.1165	53	C10H15+
137.0958	57	C9H13O+
139.075	10	C8H11O2+
141.0696	8	C11H9+
143.0852	115	C11H11+
145.0647	19	C10H9O+
145.1009	238	C11H13+
147.0802	222	C10H11O+
147.1165	74	C11H15+
149.0958	97	C10H13O+
149.1319	6	C11H17+
151.1116	15	C10H15O+
155.0853	63	C12H11+
157.101	107	C12H13+
159.0801	72	C11H11O+
159.1166	129	C12H15+
161.0959	125	C11H13O+
161.1322	38	C12H17+
163.1114	197	C11H15O+
167.0851	9	C13H11+
167.1063	17	C10H15O2+
169.1008	61	C13H13+
171.0801	57	C12H11O+
171.1166	116	C13H15+
173.0958	107	C12H13O+
173.1322	32	C13H17+
174.1033	11	C12H14O+
175.1114	59	C12H15O+
175.1478	9	C13H19+
177.127	48	C12H17O+
179.0856	7	C14H11+
179.1063	9	C11H15O2+
181.1009	38	C14H13+
183.1165	115	C14H15+
185.0959	37	C13H13O+
185.1322	78	C14H17+
187.1114	38	C13H15O+
187.1481	10	C14H19+
189.1271	161	C13H17O+
193.1011	17	C15H13+
193.122	5	C12H17O2+
195.1166	26	C15H15+
197.0962	14	C14H13O+
197.1322	80	C15H17+
199.1114	42	C14H15O+
199.1478	81	C15H19+
201.1271	91	C14H17O+
201.1633	9	C15H21+
203.1428	42	C14H19O+
207.1166	17	C16H15+
209.1321	47	C16H17+
211.1113	24	C15H15O+
211.148	21	C16H19+
213.127	53	C15H17O+
213.1632	31	C16H21+
215.1429	15	C15H19O+
217.1219	6	C14H17O2+
217.1585	11	C15H21O+
221.1314	10	C17H17+
221.1535	16	C14H21O2+
223.1479	82	C17H19+
225.1269	24	C16H17O+
225.1635	47	C17H21+
226.1355	10	C16H18O+
227.1427	86	C16H19O+
229.1227	5	C15H17O2+
233.1531	13	C15H21O2+
234.1399	6	C18H18+
239.1429	19	C17H19O+
239.1791	34	C18H23+
241.1583	240	C17H21O+
243.1743	30	C17H23O+
244.1455	54	C16H20O2+
245.1534	35	C16H21O2+
249.1633	22	C19H21+
252.1509	7	C18H20O+
257.1898	18	C18H25O+
259.1689	540	C17H23O2+
267.1741	61	C19H23O+
285.1845	55	C19H25O2+
303.1952	55	C19H27O3+
