Mass spectrum: Hexaethylene glycol; LC-ESI-ITFT; MS2; CE: 30%; R=15000; [M+Na]+
Name: Hexaethylene glycol
Name: 2-[2-[2-[2-[2-(2-hydroxyethoxy)ethoxy]ethoxy]ethoxy]ethoxy]ethanol
Formula: C12H26O7
Exact mass: 282.1679
SMILES: C(COCCOCCOCCOCCOCCO)O
InChI: InChI=1S/C12H26O7/c13-1-3-15-5-7-17-9-11-19-12-10-18-8-6-16-4-2-14/h13-14H,1-12H2
Instrument: LTQ Orbitrap XL Thermo Scientific
Instrument type: LC-ESI-ITFT
Ms type: MS2
Ion mode: POSITIVE
Ionization: ESI
Fragmentation mode: HCD
Collision energy: 30 % (nominal)
Resolution: 15000
Column name: Kinetex Evo C18 2.6 um 50 x 2.1 mm
Retention time: 5.469 min
Base peak: 143.0013
Precursor m/z: 305.1571
Precursor type: [M+Na]+
m/z	relative intensity	assigned
305.157	999	C12H26NaO7+
