Mass spectrum: Diazinon; LC-ESI-ITFT; MS2; CE: 70%; R=15000; [M+H]+
Name: Diazinon
Name: Dimpylate
Name: diethoxy-(6-methyl-2-propan-2-ylpyrimidin-4-yl)oxy-sulfanylidene-$l^{5}-phosphane
Formula: C12H21N2O3PS
Exact mass: 304.1011
SMILES: CCOP(=S)(OCC)OC1=CC(C)=NC(=N1)C(C)C
InChI: InChI=1S/C12H21N2O3PS/c1-6-15-18(19,16-7-2)17-11-8-10(5)13-12(14-11)9(3)4/h8-9H,6-7H2,1-5H3
Instrument: LTQ Orbitrap XL Thermo Scientific
Instrument type: LC-ESI-ITFT
Ms type: MS2
Ion mode: POSITIVE
Ionization: ESI
Fragmentation mode: HCD
Collision energy: 70% (nominal)
Resolution: 15000
Column name: Kinetex Evo C18 2.6 um 50 x 2.1 mm
Retention time: 12.467 min
Base peak: 305.1092
Precursor m/z: 305.1083
Precursor type: [M+H]+
m/z	relative intensity	assigned
58.9947	4	C2H3S+
70.065	96	C4H8N+
80.9737	11	H2O3P+
84.0444	236	C4H6NO+
90.9944	5	C2H4O2P+
96.9508	404	H2O2PS+
100.0215	376	C4H6NS+
109.0049	58	C2H6O3P+
110.9664	7	CH4O2PS+
114.9613	305	H4O3PS+
124.982	8	C2H6O2PS+
128.0524	2	C6H10NS+
128.9769	5	CH6O3PS+
152.0529	2	C8H10NS+
153.1023	505	C8H13N2O+
154.0559	11	C7H10N2S+
167.0641	4	C8H11N2S+
168.0724	2	C8H12N2S+
169.0794	999	C8H13N2S+
