Mass spectrum: Cyprodinil; LC-ESI-ITFT; MS2; CE: 40%; R=15000; [M+H]+
Name: Cyprodinil
Name: 4-cyclopropyl-6-methyl-N-phenylpyrimidin-2-amine
Formula: C14H15N3
Exact mass: 225.12660
SMILES: CC1=NC(NC2=CC=CC=C2)=NC(=C1)C1CC1
InChI: InChI=1S/C14H15N3/c1-10-9-13(11-7-8-11)17-14(15-10)16-12-5-3-2-4-6-12/h2-6,9,11H,7-8H2,1H3,(H,15,16,17)
Instrument: LTQ Orbitrap XL Thermo Scientific
Instrument type: LC-ESI-ITFT
Ms type: MS2
Ion mode: POSITIVE
Ionization: ESI
Fragmentation mode: HCD
Collision energy: 40% (nominal)
Resolution: 15000
Column name: Kinetex Evo C18 2.6 um 50 x 2.1 mm
Retention time: 10.286 min
Base peak: 226.1345
Precursor m/z: 226.1339
Precursor type: [M+H]+
m/z	relative intensity	assigned
108.0809	1	C7H10N+
133.076	1	C8H9N2+
144.0808	1	C10H10N+
185.1077	1	C12H13N2+
226.1339	999	C14H16N3+
