Mass spectrum: Norfloxacin; LC-ESI-ITFT; MS2; CE: 70%; R=15000; [M+H]+
Name: Norfloxacin
Name: 1-ethyl-6-fluoro-4-oxo-7-piperazin-1-ylquinoline-3-carboxylic acid
Formula: C16H18FN3O3
Exact mass: 319.13322
SMILES: CCN1C=C(C(O)=O)C(=O)C2=CC(F)=C(C=C12)N1CCNCC1
InChI: InChI=1S/C16H18FN3O3/c1-2-19-9-11(16(22)23)15(21)10-7-12(17)14(8-13(10)19)20-5-3-18-4-6-20/h7-9,18H,2-6H2,1H3,(H,22,23)
Instrument: LTQ Orbitrap XL Thermo Scientific
Instrument type: LC-ESI-ITFT
Ms type: MS2
Ion mode: POSITIVE
Ionization: ESI
Fragmentation mode: HCD
Collision energy: 70% (nominal)
Resolution: 15000
Column name: Kinetex Evo C18 2.6 um 50 x 2.1 mm
Retention time: 4.239 min
Base peak: 320.1411
Precursor m/z: 320.1405
Precursor type: [M+H]+
m/z	relative intensity	assigned
56.0492	22	C3H6N+
58.065	12	C3H8N+
70.065	100	C4H8N+
71.0729	5	C4H9N+
116.0497	7	C8H6N+
130.0653	12	C9H8N+
135.048	8	C8H6FN+
136.0558	15	C8H7FN+
143.0604	5	C9H7N2+
144.0445	12	C9H6NO+
148.0558	11	C9H7FN+
149.0632	3	C9H8FN+
155.0602	5	C10H7N2+
156.0682	17	C10H8N2+
157.0763	19	C10H9N2+
158.0602	6	C10H8NO+
161.0513	7	C9H6FN2+
162.0352	11	C9H5FNO+
162.0713	4	C10H9FN+
163.0429	27	C9H6FNO+
163.0667	35	C9H8FN2+
163.0795	6	C10H10FN+
164.0508	51	C9H7FNO+
167.0599	5	C11H7N2+
169.0755	5	C11H9N2+
171.0551	6	C10H7N2O+
171.0919	7	C11H11N2+
172.0757	34	C11H10NO+
175.0669	19	C10H8FN2+
176.0507	23	C10H7FNO+
176.0745	155	C10H9FN2+
177.0586	22	C10H8FNO+
177.0823	38	C10H10FN2+
178.0538	18	C9H7FN2O+
178.0663	22	C10H9FNO+
178.0905	8	C10H11FN2+
179.0615	29	C9H8FN2O+
179.0739	6	C10H10FNO+
184.0633	36	C11H8N2O+
185.071	137	C11H9N2O+
186.0596	11	C11H7FN2+
187.0667	52	C11H8FN2+
188.0506	18	C11H7FNO+
189.0459	19	C10H6FN2O+
189.0823	23	C11H10FN2+
190.0535	20	C10H7FN2O+
190.0664	58	C11H9FNO+
190.0904	10	C11H11FN2+
191.0616	140	C10H8FN2O+
191.0742	72	C11H10FNO+
192.0691	29	C10H9FN2O+
192.0823	11	C11H11FNO+
198.0664	15	C11H8N3O+
198.0787	24	C12H10N2O+
198.1032	8	C12H12N3+
199.0743	15	C11H9N3O+
199.0866	11	C12H11N2O+
200.081	6	C11H10N3O+
202.0532	5	C11H7FN2O+
202.0904	10	C12H11FN2+
203.0616	394	C11H8FN2O+
204.0694	315	C11H9FN2O+
204.1059	89	C12H13FN2+
205.0772	999	C11H10FN2O+
206.085	75	C11H11FN2O+
206.0975	4	C12H13FNO+
207.0928	44	C11H12FN2O+
211.1102	12	C13H13N3+
212.082	23	C12H10N3O+
213.1024	42	C13H13N2O+
215.0977	40	C13H12FN2+
216.0701	10	C12H9FN2O+
217.0772	46	C12H10FN2O+
218.085	129	C12H11FN2O+
219.0928	323	C12H12FN2O+
225.0906	4	C13H11N3O+
226.0974	44	C13H12N3O+
226.1337	11	C14H16N3+
227.1056	33	C13H13N3O+
228.113	37	C13H14N3O+
230.0842	6	C13H11FN2O+
231.0565	245	C12H8FN2O2+
233.1085	974	C13H14FN2O+
245.0724	7	C13H10FN2O2+
249.0667	4	C12H10FN2O3+
253.0849	7	C14H11N3O2+
254.0925	35	C14H12N3O2+
254.1287	16	C15H16N3O+
256.1444	36	C15H18N3O+
259.0876	18	C14H12FN2O2+
272.1027	12	C14H14N3O3+
274.1343	9	C15H17FN3O+
276.1509	27	C15H19FN3O+
282.1237	72	C16H16N3O2+
292.1099	8	C14H15FN3O3+
300.1346	28	C16H18N3O3+
302.1299	149	C16H17FN3O2+
320.1404	76	C16H19FN3O3+
