Mass spectrum: Quinmerac BH518-2; LC-ESI-ITFT; MS2; CE: 90%; R=15000; [M+H]+
Name: Quinmerac BH518-2
Name: 7-chloroquinoline-3,8-dicarboxylic acid
Formula: C11H6ClNO4
Exact mass: 250.9985
SMILES: OC(=O)C1=CN=C2C(C=CC(Cl)=C2C(O)=O)=C1
InChI: InChI=1S/C11H6ClNO4/c12-7-2-1-5-3-6(10(14)15)4-13-9(5)8(7)11(16)17/h1-4H,(H,14,15)(H,16,17)
Instrument: LTQ Orbitrap XL Thermo Scientific
Instrument type: LC-ESI-ITFT
Ms type: MS2
Ion mode: POSITIVE
Ionization: ESI
Fragmentation mode: HCD
Collision energy: 90 % (nominal)
Resolution: 15000
Column name: Kinetex Evo C18 2.6 um 50 x 2.1 mm
Retention time: 7.071 min
Base peak: 116.9864
Precursor m/z: 252.0058
Precursor type: [M+H]+
m/z	relative intensity	assigned
150.0112	373	C8H5ClN+
154.0406	422	C11H6O+
159.9956	90	C9H3ClN+
162.0112	999	C9H5ClN+
163.9904	113	C8H3ClNO+
178.0062	139	C9H5ClNO+
187.9906	164	C10H3ClNO+
190.0063	12	C10H5ClNO+
206.0011	206	C10H5ClNO2+
224.0117	294	C10H7ClNO3+
233.9961	354	C11H5ClNO3+
252.0068	25	C11H7ClNO4+
