Mass spectrum: Metazachlor BH 479-9; LC-ESI-ITFT; MS2; CE: 30%; R=15000; [M+Na]+
Name: Metazachlor BH 479-9
Formula: C16H19N3O4S
Exact mass: 349.1096
SMILES: CC1=CC=CC(C)=C1N(CN1C=CC=N1)C(=O)CS(=O)CC(O)=O
InChI: InChI=1S/C16H19N3O4S/c1-12-5-3-6-13(2)16(12)19(11-18-8-4-7-17-18)14(20)9-24(23)10-15(21)22/h3-8H,9-11H2,1-2H3,(H,21,22)
Instrument: LTQ Orbitrap XL Thermo Scientific
Instrument type: LC-ESI-ITFT
Ms type: MS2
Ion mode: POSITIVE
Ionization: ESI
Fragmentation mode: HCD
Collision energy: 30% (nominal)
Resolution: 15000
Column name: Kinetex Evo C18 2.6 um 50 x 2.1 mm
Retention time: 8.340 min
Base peak: 350.1175
Precursor m/z: 372.0988
Precursor type: [M+Na]+
m/z	relative intensity	assigned
156.0793	82	C3H17NaO3S+
170.9729	221	C4HN3O3S+
185.0817	325	C4H18NaO4S+
220.9991	19	C7H6N2NaO3S+
250.0953	790	C13H13N3NaO+
265.1187	490	C14H16N3NaO+
266.1251	20	C13H18N2O4+
282.1226	16	C14H17N3NaO2+
296.083	43	C14H15N3NaOS+
298.0986	313	C14H17N3NaOS+
310.0987	999	C15H17N3NaOS+
313.0856	526	C14H16N3NaO2S+
328.1088	76	C15H19N3NaO2S+
372.0996	80	C16H19N3NaO4S+
