Mass spectrum: Pethoxamid; LC-ESI-ITFT; MS2; CE: 30%; R=15000; [M+Na]+
Name: Pethoxamid
Name: 2-chloro-N-(2-ethoxyethyl)-N-(2-methyl-1-phenylprop-1-enyl)acetamide
Formula: C16H22ClNO2
Exact mass: 295.1339
SMILES: CCOCCN(C(=O)CCl)C(=C(C)C)C1=CC=CC=C1
InChI: InChI=1S/C16H22ClNO2/c1-4-20-11-10-18(15(19)12-17)16(13(2)3)14-8-6-5-7-9-14/h5-9H,4,10-12H2,1-3H3
Instrument: LTQ Orbitrap XL Thermo Scientific
Instrument type: LC-ESI-ITFT
Ms type: MS2
Ion mode: POSITIVE
Ionization: ESI
Fragmentation mode: HCD
Collision energy: 30% (nominal)
Resolution: 15000
Column name: Kinetex Evo C18 2.6 um 50 x 2.1 mm
Retention time: 11.636 min
Base peak: 116.9861
Precursor m/z: 318.1231
Precursor type: [M+Na]+
m/z	relative intensity	assigned
145.101	111	C11H13+
188.1064	210	C12H14NO+
214.1219	349	C14H16NO+
216.1375	999	C14H18NO+
232.1327	31	C14H18NO2+
254.1143	32	C14H17NNaO2+
318.1216	718	C16H22ClNNaO2+
