Mass spectrum: Warfarin; LC-ESI-ITFT; MS2; CE: 10%; R=15000; [M+H]+
Name: Warfarin
Name: 4-hydroxy-3-(3-oxo-1-phenylbutyl)chromen-2-one
Formula: C19H16O4
Exact mass: 308.10486
SMILES: CC(=O)CC(C1=CC=CC=C1)C1=C(O)C2=CC=CC=C2OC1=O
InChI: InChI=1S/C19H16O4/c1-12(20)11-15(13-7-3-2-4-8-13)17-18(21)14-9-5-6-10-16(14)23-19(17)22/h2-10,15,21H,11H2,1H3
Instrument: LTQ Orbitrap XL Thermo Scientific
Instrument type: LC-ESI-ITFT
Ms type: MS2
Ion mode: POSITIVE
Ionization: ESI
Fragmentation mode: HCD
Collision energy: 10 % (nominal)
Resolution: 15000
Column name: Kinetex Evo C18 2.6 um 50 x 2.1 mm
Retention time: 11.273 min
Base peak: 309.1131
Precursor m/z: 309.1121
Precursor type: [M+H]+
m/z	relative intensity	assigned
147.0804	24	C10H11O+
163.0389	176	C9H7O3+
251.0703	26	C16H11O3+
291.1015	8	C19H15O3+
309.1119	999	C19H17O4+
