Mass spectrum: Medroxyprogesterone; LC-ESI-ITFT; MS2; CE: 60%; R=15000; [M+H]+
Name: Medroxyprogesterone
Name: (6S,8R,9S,10R,13S,14S,17R)-17-acetyl-17-hydroxy-6,10,13-trimethyl-2,6,7,8,9,11,12,14,15,16-decahydro-1H-cyclopenta[a]phenanthren-3-one
Formula: C22H32O3
Exact mass: 344.23514
SMILES: [H][C@@]12CC[C@](O)(C(C)=O)[C@@]1(C)CC[C@@]1([H])[C@@]2([H])C[C@H](C)C2=CC(=O)CC[C@]12C
InChI: InChI=1S/C22H32O3/c1-13-11-16-17(20(3)8-5-15(24)12-19(13)20)6-9-21(4)18(16)7-10-22(21,25)14(2)23/h12-13,16-18,25H,5-11H2,1-4H3/t13-,16+,17-,18-,20+,21-,22-/m0/s1
Instrument: LTQ Orbitrap XL Thermo Scientific
Instrument type: LC-ESI-ITFT
Ms type: MS2
Ion mode: POSITIVE
Ionization: ESI
Fragmentation mode: HCD
Collision energy: 60% (nominal)
Resolution: 15000
Column name: Kinetex Evo C18 2.6 um 50 x 2.1 mm
Retention time: 12.149 min
Base peak: 345.2423
Precursor m/z: 345.2424
Precursor type: [M+H]+
m/z	relative intensity	assigned
67.0542	12	C5H7+
69.0699	5	C5H9+
79.0544	10	C6H7+
81.07	13	C6H9+
83.0492	32	C5H7O+
93.07	22	C7H9+
95.0857	35	C7H11+
97.0649	553	C6H9O+
105.07	19	C8H9+
107.0856	27	C8H11+
109.065	19	C7H9O+
109.1012	17	C8H13+
111.0806	10	C7H11O+
119.0857	31	C9H11+
121.0645	4	C8H9O+
121.1013	18	C9H13+
123.0806	999	C8H11O+
131.0859	13	C10H11+
133.1014	28	C10H13+
135.0807	12	C9H11O+
135.1171	9	C10H15+
137.0963	86	C9H13O+
143.0856	9	C11H11+
145.1014	31	C11H13+
147.1171	30	C11H15+
149.0964	7	C10H13O+
157.1014	18	C12H13+
159.1171	26	C12H15+
161.0964	10	C11H13O+
161.1329	23	C12H17+
163.112	9	C11H15O+
163.1488	4	C12H19+
169.1018	10	C13H13+
171.1171	20	C13H15+
173.1326	28	C13H17+
175.1126	6	C12H15O+
175.1484	25	C13H19+
177.1276	9	C12H17O+
183.1172	4	C14H15+
185.1327	12	C14H17+
187.1121	7	C13H15O+
187.1489	8	C14H19+
189.1277	13	C13H17O+
191.1425	8	C13H19O+
197.1325	10	C15H17+
199.1479	14	C15H19+
201.1642	3	C15H21+
211.1485	10	C16H19+
214.1353	14	C15H18O+
215.1432	13	C15H19O+
225.1629	6	C17H21+
227.18	7	C17H23+
229.1586	7	C16H21O+
251.1789	4	C19H23+
257.1536	13	C17H21O2+
267.211	11	C20H27+
269.1904	7	C19H25O+
