Mass spectrum: Monensin; LC-ESI-ITFT; MS2; CE: 60%; R=15000; [M+Na]+
Name: Monensin
Name: Monensin A
Name: 4-[2-[5-ethyl-5-[5-[6-hydroxy-6-(hydroxymethyl)-3,5-dimethyloxan-2-yl]-3-methyloxolan-2-yl]oxolan-2-yl]-7-hydroxy-2,8-dimethyl-1,10-dioxaspiro[4.5]decan-9-yl]-3-methoxy-2-methylpentanoic acid
Formula: C36H62O11
Exact mass: 670.4292
SMILES: CCC1(CCC(O1)C1(C)CCC2(CC(O)C(C)C(O2)C(C)C(OC)C(C)C(O)=O)O1)C1OC(CC1C)C1OC(O)(CO)C(C)CC1C
InChI: InChI=1S/C36H62O11/c1-10-34(31-20(3)16-26(43-31)28-19(2)15-21(4)36(41,18-37)46-28)12-11-27(44-34)33(8)13-14-35(47-33)17-25(38)22(5)30(45-35)23(6)29(42-9)24(7)32(39)40/h19-31,37-38,41H,10-18H2,1-9H3,(H,39,40)
Instrument: LTQ Orbitrap XL Thermo Scientific
Instrument type: LC-ESI-ITFT
Ms type: MS2
Ion mode: POSITIVE
Ionization: ESI
Fragmentation mode: HCD
Collision energy: 60% (nominal)
Resolution: 15000
Column name: Kinetex Evo C18 2.6 um 50 x 2.1 mm
Retention time: 14.851 min
Base peak: 693.4232
Precursor m/z: 693.4184
Precursor type: [M+Na]+
m/z	relative intensity	assigned
191.1039	53	C10H16NaO2+
197.0784	80	C8H14NaO4+
237.1093	71	C11H18NaO4+
303.1921	64	C17H28NaO3+
345.2029	58	C19H30NaO4+
361.2337	55	C20H34NaO4+
387.2496	81	C22H36NaO4+
389.2295	45	C21H34NaO5+
405.2606	70	C22H38NaO5+
443.2763	323	C25H40NaO5+
444.2801	118	C32H37Na+
445.2587	20	C26H37O6+
461.287	999	C25H42NaO6+
462.2903	401	C32H39NaO+
479.2974	660	C25H44NaO7+
480.3009	267	C32H41NaO2+
483.3079	163	C28H44NaO5+
484.3118	67	C35H41Na+
489.283	41	C26H42NaO7+
501.3184	166	C28H46NaO6+
502.3222	78	C35H43NaO+
541.3473	34	C31H50NaO6+
559.3623	20	C31H52NaO7+
582.3871	42	C34H55NaO6+
599.391	74	C34H56NaO7+
