Mass spectrum: Aldosterone; LC-ESI-ITFT; MS2; CE: 90%; R=15000; [M+H]+
Name: Aldosterone
Name: (8S,9S,10R,11S,13R,14S,17S)-11-hydroxy-17-(2-hydroxyacetyl)-10-methyl-3-oxo-1,2,6,7,8,9,11,12,14,15,16,17-dodecahydrocyclopenta[a]phenanthrene-13-carbaldehyde
Formula: C21H28O5
Exact mass: 360.19367
SMILES: [H][C@@]12CC[C@H](C(=O)CO)[C@]1(C[C@H](O)[C@@]1([H])[C@@]2([H])CCC2=CC(=O)CC[C@]12C)C=O
InChI: InChI=1S/C21H28O5/c1-20-7-6-13(24)8-12(20)2-3-14-15-4-5-16(18(26)10-22)21(15,11-23)9-17(25)19(14)20/h8,11,14-17,19,22,25H,2-7,9-10H2,1H3/t14-,15-,16+,17-,19+,20-,21+/m0/s1
Instrument: LTQ Orbitrap XL Thermo Scientific
Instrument type: LC-ESI-ITFT
Ms type: MS2
Ion mode: POSITIVE
Ionization: ESI
Fragmentation mode: HCD
Collision energy: 90% (nominal)
Resolution: 15000
Column name: Kinetex Evo C18 2.6 um 50 x 2.1 mm
Retention time: 9.238 min
Base peak: 361.2011
Precursor m/z: 361.201
Precursor type: [M+H]+
m/z	relative intensity	assigned
67.0539	185	C5H7+
69.0332	65	C4H5O+
69.0696	68	C5H9+
77.0384	55	C6H5+
79.054	409	C6H7+
81.0332	25	C5H5O+
81.0697	348	C6H9+
83.0489	269	C5H7O+
87.044	22	C4H7O2+
91.0541	633	C7H7+
93.0697	323	C7H9+
95.0489	79	C6H7O+
95.0853	160	C7H11+
97.0646	999	C6H9O+
103.054	49	C8H7+
105.0697	654	C8H9+
107.049	128	C7H7O+
107.0853	127	C8H11+
109.0646	838	C7H9O+
115.054	120	C9H7+
116.0619	49	C9H8+
117.0697	357	C9H9+
119.0486	16	C8H7O+
119.0853	269	C9H11+
121.0646	486	C8H9O+
123.0802	299	C8H11O+
128.0618	305	C10H8+
129.0696	466	C10H9+
130.0775	112	C10H10+
131.0853	420	C10H11+
133.0646	64	C9H9O+
133.101	135	C10H13+
135.08	44	C9H11O+
141.0696	268	C11H9+
142.0775	260	C11H10+
143.0853	391	C11H11+
144.0934	38	C11H12+
145.0645	72	C10H9O+
145.1009	222	C11H13+
147.0802	100	C10H11O+
147.1167	31	C11H15+
148.088	88	C10H12O+
149.0959	26	C10H13O+
152.0617	37	C12H8+
153.0697	144	C12H9+
154.0774	119	C12H10+
155.0852	374	C12H11+
156.093	73	C12H12+
157.0648	31	C11H9O+
157.101	229	C12H13+
158.0727	19	C11H10O+
159.0802	84	C11H11O+
159.1165	69	C12H15+
160.0878	21	C11H12O+
161.0958	96	C11H13O+
163.1114	121	C11H15O+
165.0697	178	C13H9+
166.0775	127	C13H10+
167.0853	234	C13H11+
168.0929	111	C13H12+
169.1009	242	C13H13+
170.1084	31	C13H14+
171.0804	43	C12H11O+
171.1166	83	C13H15+
173.0959	56	C12H13O+
173.132	21	C13H17+
174.104	28	C12H14O+
175.1118	31	C12H15O+
178.0773	88	C14H10+
179.0851	154	C14H11+
180.0929	90	C14H12+
181.1009	224	C14H13+
182.1088	88	C14H14+
183.0806	34	C13H11O+
183.1166	151	C14H15+
184.124	18	C14H16+
185.0957	56	C13H13O+
185.1321	39	C14H17+
187.111	19	C13H15O+
191.0852	79	C15H11+
192.0932	78	C15H12+
193.1009	131	C15H13+
194.1087	50	C15H14+
195.0802	37	C14H11O+
195.1166	123	C15H15+
196.1241	23	C15H16+
197.096	52	C14H13O+
197.1321	71	C15H17+
198.1034	30	C14H14O+
199.1114	61	C14H15O+
199.1478	18	C15H19+
200.1193	29	C14H16O+
201.127	26	C14H17O+
203.0849	34	C16H11+
204.0937	29	C16H12+
205.1009	72	C16H13+
206.1088	34	C16H14+
207.1167	83	C16H15+
209.0957	28	C15H13O+
209.1324	58	C16H17+
210.1033	18	C15H14O+
211.1117	51	C15H15O+
211.1489	16	C16H19+
212.1198	34	C15H16O+
213.1269	129	C15H17O+
214.1351	41	C15H18O+
217.1012	21	C17H13+
218.1082	19	C17H14+
219.1164	28	C17H15+
220.1255	12	C17H16+
221.096	14	C16H13O+
221.1319	33	C17H17+
223.1113	43	C16H15O+
223.1478	27	C17H19+
225.127	246	C16H17O+
226.1351	41	C16H18O+
227.1424	30	C16H19O+
237.1268	21	C17H17O+
238.1341	29	C17H18O+
239.1425	80	C17H19O+
240.1505	118	C17H20O+
241.1592	38	C17H21O+
251.1426	35	C18H19O+
