Mass spectrum: Norgestimate; LC-ESI-ITFT; MS2; CE: 50%; R=15000; [M+H]+
Name: Norgestimate
Name: [(3E,8R,9S,10R,13S,14S,17R)-13-ethyl-17-ethynyl-3-hydroxyimino-1,2,6,7,8,9,10,11,12,14,15,16-dodecahydrocyclopenta[a]phenanthren-17-yl] acetate
Formula: C23H31NO3
Exact mass: 369.23039
SMILES: CC[C@]12CC[C@H]3[C@@H](CCC4=C\C(CC[C@H]34)=N\O)[C@@H]1CC[C@@]2(OC(C)=O)C#C
InChI: InChI=1S/C23H31NO3/c1-4-22-12-10-19-18-9-7-17(24-26)14-16(18)6-8-20(19)21(22)11-13-23(22,5-2)27-15(3)25/h2,14,18-21,26H,4,6-13H2,1,3H3/b24-17+/t18-,19+,20+,21-,22-,23-/m0/s1
Instrument: LTQ Orbitrap XL Thermo Scientific
Instrument type: LC-ESI-ITFT
Ms type: MS2
Ion mode: POSITIVE
Ionization: ESI
Fragmentation mode: HCD
Collision energy: 50% (nominal)
Resolution: 15000
Column name: Kinetex Evo C18 2.6 um 50 x 2.1 mm
Retention time: 12.979 min
Base peak: 65.0595
Precursor m/z: 370.2377
Precursor type: [M+H]+
m/z	relative intensity	assigned
65.0383	5	C5H5+
67.054	58	C5H7+
69.0697	15	C5H9+
70.0649	7	C4H8N+
77.0386	9	C6H5+
79.0541	131	C6H7+
80.0493	16	C5H6N+
81.0697	83	C6H9+
82.065	37	C5H8N+
91.0541	219	C7H7+
92.0494	23	C6H6N+
93.0698	164	C7H9+
94.065	22	C6H8N+
95.0729	19	C6H9N+
95.0855	83	C7H11+
96.0444	8	C5H6NO+
96.0808	27	C6H10N+
98.0599	516	C5H8NO+
103.0542	14	C8H7+
105.0698	266	C8H9+
106.065	61	C7H8N+
107.0729	11	C7H9N+
107.0854	134	C8H11+
108.0807	119	C7H10N+
109.0646	15	C7H9O+
109.0885	20	C7H11N+
109.1011	31	C8H13+
110.0599	40	C6H8NO+
111.0681	5	C6H9NO+
112.0756	13	C6H10NO+
115.0542	17	C9H7+
116.0619	13	C9H8+
117.0573	8	C8H7N+
117.0698	165	C9H9+
118.065	18	C8H8N+
119.0854	227	C9H11+
120.0807	28	C8H10N+
121.0884	18	C8H11N+
121.101	60	C9H13+
122.0599	48	C7H8NO+
122.0963	25	C8H12N+
123.0801	12	C8H11O+
123.1165	9	C9H15+
124.0756	999	C7H10NO+
128.0618	14	C10H8+
129.0697	123	C10H9+
130.065	19	C9H8N+
130.0776	16	C10H10+
131.0854	303	C10H11+
132.0806	38	C9H10N+
133.101	223	C10H13+
134.0964	32	C9H12N+
135.0804	9	C9H11O+
135.1037	7	C9H13N+
135.1166	24	C10H15+
136.0757	35	C8H10NO+
137.096	17	C9H13O+
138.0912	26	C8H12NO+
141.0698	47	C11H9+
142.0775	25	C11H10+
143.0854	175	C11H11+
144.0807	24	C10H10N+
144.0928	24	C11H12+
145.088	12	C10H11N+
145.101	218	C11H13+
146.0963	43	C10H12N+
147.0803	8	C10H11O+
147.1041	15	C10H13N+
147.1167	75	C11H15+
148.0754	20	C9H10NO+
148.1119	31	C10H14N+
149.0959	42	C10H13O+
150.0911	55	C9H12NO+
152.1069	18	C9H14NO+
153.0701	8	C12H9+
154.0776	10	C12H10+
155.0854	81	C12H11+
156.0807	12	C11H10N+
156.0927	24	C12H12+
157.0886	11	C11H11N+
157.101	167	C12H13+
158.0963	41	C11H12N+
159.104	19	C11H13N+
159.1166	183	C12H15+
160.1119	45	C11H14N+
161.0962	10	C11H13O+
161.1195	21	C11H15N+
161.1322	47	C12H17+
162.0912	33	C10H12NO+
162.1274	30	C11H16N+
163.1117	13	C11H15O+
164.1068	44	C10H14NO+
165.0701	8	C13H9+
166.0777	5	C13H10+
167.0855	34	C13H11+
168.0932	16	C13H12+
169.101	85	C13H13+
170.0963	14	C12H12N+
171.1045	8	C12H13N+
171.1167	102	C13H15+
172.1119	24	C12H14N+
173.0966	8	C12H13O+
173.1324	66	C13H17+
174.0911	26	C11H12NO+
174.1274	23	C12H16N+
175.1118	16	C12H15O+
176.1069	98	C11H14NO+
178.1226	60	C11H16NO+
179.0855	16	C14H11+
180.0929	10	C14H12+
181.1009	51	C14H13+
182.0967	12	C13H12N+
182.1089	15	C14H14+
183.1035	6	C13H13N+
183.1166	98	C14H15+
184.1122	15	C13H14N+
184.1244	10	C14H16+
185.1323	133	C14H17+
186.1276	13	C13H16N+
187.1115	7	C13H15O+
187.148	35	C14H19+
188.1073	10	C12H14NO+
188.1426	6	C13H18N+
190.1224	27	C12H16NO+
193.1012	22	C15H13+
194.0968	5	C14H12N+
194.1096	9	C15H14+
195.1167	53	C15H15+
196.1128	12	C14H14N+
196.125	13	C15H16+
197.1207	6	C14H15N+
197.1324	53	C15H17+
198.1279	17	C14H16N+
198.1411	7	C15H18+
199.148	39	C15H19+
200.1439	8	C14H18N+
201.1274	8	C14H17O+
202.1228	13	C13H16NO+
204.1382	12	C13H18NO+
205.1014	11	C16H13+
207.1169	28	C16H15+
208.1121	13	C15H14N+
208.125	10	C16H16+
209.1326	35	C16H17+
211.1486	20	C16H19+
212.1435	11	C15H18N+
213.164	10	C16H21+
219.1169	10	C17H15+
220.1248	9	C17H16+
221.1324	28	C17H17+
222.1286	10	C16H16N+
222.141	8	C17H18+
223.1483	35	C17H19+
224.1443	13	C16H18N+
225.1637	35	C17H21+
227.1438	4	C16H19O+
227.1795	6	C17H23+
230.1538	7	C15H20NO+
231.1176	7	C18H15+
234.128	6	C17H16N+
235.148	25	C18H19+
236.1437	20	C17H18N+
237.164	33	C18H21+
238.1602	11	C17H20N+
240.1746	8	C17H22N+
247.1478	17	C19H19+
248.1562	8	C19H20+
249.1639	18	C19H21+
250.1591	11	C18H20N+
251.1793	14	C19H23+
252.1758	7	C18H22N+
260.2007	44	C17H26NO+
261.1637	7	C20H21+
262.1596	8	C19H20N+
264.1746	71	C19H22N+
268.2061	10	C19H26N+
275.1802	5	C21H23+
277.1949	15	C21H25+
278.1907	24	C20H24N+
282.1854	50	C19H24NO+
282.2212	6	C20H28N+
292.2054	20	C21H26N+
293.2135	9	C21H27N+
310.2161	427	C21H28NO+
324.1947	6	C21H26NO2+
328.227	31	C21H30NO2+
370.2372	650	C23H32NO3+
