Mass spectrum: Daidzein; LC-ESI-ITFT; MS2; CE: 100%; R=15000; [M-H]-
Name: Daidzein
Name: 7-hydroxy-3-(4-hydroxyphenyl)chromen-4-one
Formula: C15H10O4
Exact mass: 254.0579
SMILES: OC1=CC=C(C=C1)C1=COC2=C(C=CC(O)=C2)C1=O
InChI: InChI=1S/C15H10O4/c16-10-3-1-9(2-4-10)13-8-19-14-7-11(17)5-6-12(14)15(13)18/h1-8,16-17H
Instrument: LTQ Orbitrap XL Thermo Scientific
Instrument type: LC-ESI-ITFT
Ms type: MS2
Ion mode: NEGATIVE
Ionization: ESI
Fragmentation mode: HCD
Collision energy: 100 % (nominal)
Resolution: 15000
Column name: Kinetex Evo C18 2.6 um 50 x 2.1 mm
Retention time: 9.194 min
Base peak: 91.0035
Precursor m/z: 253.0506
Precursor type: [M-H]-
m/z	relative intensity	assigned
91.0187	11	C6H3O-
133.0293	26	C8H5O2-
135.0088	29	C7H3O3-
169.0659	10	C12H9O-
197.0609	19	C13H9O2-
208.0523	18	C14H8O2-
209.0608	52	C14H9O2-
224.0478	48	C14H8O3-
225.0553	30	C14H9O3-
252.0427	7	C15H8O4-
253.0502	999	C15H9O4-
