Mass spectrum: Diphenylphosphine oxide; LC-ESI-ITFT; MS2; CE: 30%; R=15000; [M+Na]+
Name: Diphenylphosphine oxide
Name: phenylphosphonoylbenzene
Formula: C12H11OP
Exact mass: 202.0548
SMILES: O=P(C1=CC=CC=C1)C1=CC=CC=C1
InChI: InChI=1S/C12H11OP/c13-14(11-7-3-1-4-8-11)12-9-5-2-6-10-12/h1-10,14H
Instrument: LTQ Orbitrap XL Thermo Scientific
Instrument type: LC-ESI-ITFT
Ms type: MS2
Ion mode: POSITIVE
Ionization: ESI
Fragmentation mode: HCD
Collision energy: 30% (nominal)
Resolution: 15000
Column name: Kinetex Evo C18 2.6 um 50 x 2.1 mm
Retention time: 8.747 min
Base peak: 203.0624
Precursor m/z: 225.044
Precursor type: [M+Na]+
m/z	relative intensity	assigned
225.0441	999	C12H11NaOP+
