Mass spectrum: Aldosterone; LC-ESI-ITFT; MS2; CE: 50%; R=15000; [M+H]+
Name: Aldosterone
Name: (8S,9S,10R,11S,13R,14S,17S)-11-hydroxy-17-(2-hydroxyacetyl)-10-methyl-3-oxo-1,2,6,7,8,9,11,12,14,15,16,17-dodecahydrocyclopenta[a]phenanthrene-13-carbaldehyde
Formula: C21H28O5
Exact mass: 360.19367
SMILES: [H][C@@]12CC[C@H](C(=O)CO)[C@]1(C[C@H](O)[C@@]1([H])[C@@]2([H])CCC2=CC(=O)CC[C@]12C)C=O
InChI: InChI=1S/C21H28O5/c1-20-7-6-13(24)8-12(20)2-3-14-15-4-5-16(18(26)10-22)21(15,11-23)9-17(25)19(14)20/h8,11,14-17,19,22,25H,2-7,9-10H2,1H3/t14-,15-,16+,17-,19+,20-,21+/m0/s1
Instrument: LTQ Orbitrap XL Thermo Scientific
Instrument type: LC-ESI-ITFT
Ms type: MS2
Ion mode: POSITIVE
Ionization: ESI
Fragmentation mode: HCD
Collision energy: 50 % (nominal)
Resolution: 15000
Column name: Kinetex Evo C18 2.6 um 50 x 2.1 mm
Retention time: 9.371 min
Base peak: 116.986
Precursor m/z: 361.201
Precursor type: [M+H]+
m/z	relative intensity	assigned
83.0494	136	C5H7O+
93.0699	113	C7H9+
97.065	966	C6H9O+
105.0697	118	C8H9+
107.086	131	C8H11+
109.0649	938	C7H9O+
121.0648	523	C8H9O+
123.081	367	C8H11O+
131.0856	267	C10H11+
133.1014	199	C10H13+
135.0804	202	C9H11O+
143.0858	338	C11H11+
145.1016	228	C11H13+
147.0807	235	C10H11O+
155.0857	225	C12H11+
157.1014	414	C12H13+
159.1166	158	C12H15+
161.0954	117	C11H13O+
163.1118	172	C11H15O+
169.1016	151	C13H13+
171.1172	244	C13H15+
173.0964	222	C12H13O+
175.1122	498	C12H15O+
181.1008	185	C14H13+
183.1173	195	C14H15+
195.1172	292	C15H15+
197.1333	130	C15H17+
199.1112	148	C14H15O+
209.1325	185	C16H17+
211.1108	127	C15H15O+
213.1279	135	C15H17O+
221.1323	251	C17H17+
223.112	157	C16H15O+
223.1484	103	C17H19+
225.128	216	C16H17O+
227.1426	132	C16H19O+
239.143	342	C17H19O+
249.1649	106	C19H21+
251.1435	171	C18H19O+
253.1588	237	C18H21O+
255.1743	322	C18H23O+
267.174	219	C19H23O+
279.1741	282	C20H23O+
281.1537	258	C19H21O2+
283.1686	166	C19H23O2+
297.1854	227	C20H25O2+
299.164	650	C19H23O3+
315.1957	714	C20H27O3+
325.1806	318	C21H25O3+
343.1903	999	C21H27O4+
