Mass spectrum: Fluoxastrobin; LC-ESI-ITFT; MS2; CE: 80%; R=15000; [M+H]+
Name: Fluoxastrobin
Name: (E)-1-[2-[6-(2-chlorophenoxy)-5-fluoropyrimidin-4-yl]oxyphenyl]-1-(5,6-dihydro-1,4,2-dioxazin-3-yl)-N-methoxymethanimine
Formula: C21H16ClFN4O5
Exact mass: 458.07933
SMILES: CO\N=C(\C1=NOCCO1)C1=C(OC2=C(F)C(OC3=C(Cl)C=CC=C3)=NC=N2)C=CC=C1
InChI: InChI=1S/C21H16ClFN4O5/c1-28-26-18(21-27-30-11-10-29-21)13-6-2-4-8-15(13)31-19-17(23)20(25-12-24-19)32-16-9-5-3-7-14(16)22/h2-9,12H,10-11H2,1H3/b26-18+
Instrument: LTQ Orbitrap XL Thermo Scientific
Instrument type: LC-ESI-ITFT
Ms type: MS2
Ion mode: POSITIVE
Ionization: ESI
Fragmentation mode: HCD
Collision energy: 80% (nominal)
Resolution: 15000
Column name: Kinetex Evo C18 2.6 um 50 x 2.1 mm
Retention time: 11.951 min
Base peak: 330.0811
Precursor m/z: 459.0866
Precursor type: [M+H]+
m/z	relative intensity	assigned
65.0385	57	C5H5+
75.0228	66	CH2FN3+
76.0309	10	C6H4+
77.0387	49	C6H5+
78.034	19	C5H4N+
90.0339	154	C6H4N+
91.0417	14	C6H5N+
92.0258	31	C6H4O+
92.0495	16	C6H6N+
93.0336	46	C6H5O+
98.9996	31	C5H4Cl+
102.034	49	C7H4N+
103.0418	19	C7H5N+
104.037	13	C6H4N2+
104.0494	17	C7H6N+
105.0336	91	C7H5O+
105.0448	54	C6H5N2+
107.0293	39	C7H4F+
110.9997	89	C6H4Cl+
111.0443	10	C6H7O2+
115.0418	24	C8H5N+
116.037	18	C7H4N2+
117.0448	23	C7H5N2+
118.0527	15	C7H6N2+
119.0368	57	C7H5NO+
120.0445	74	C7H6NO+
121.0326	22	C7H4FN+
122.0402	105	C7H5FN+
123.0355	66	C6H4FN2+
128.0025	26	C6H5ClO+
128.0369	10	C8H4N2+
129.0101	35	C6H6ClO+
129.0449	279	C8H5N2+
130.0289	76	C8H4NO+
130.0401	538	C7H4N3+
132.0246	26	C8H3FN+
132.0445	9	C8H6NO+
133.0324	106	C8H4FN+
134.0402	44	C8H5FN+
138.0107	285	C7H5ClN+
138.9947	78	C7H4ClO+
139.0059	694	C6H4ClN2+
140.0366	11	C9H4N2+
140.9906	38	C7H3ClF+
144.032	44	C5H7ClN3+
145.0399	93	C8H5N2O+
146.0236	28	C5H7ClN2O+
147.0351	26	C8H4FN2+
148.0438	12	C8H5FN2+
150.0351	431	C8H5FNO+
151.0062	13	C7H4ClN2+
154.0402	42	C2H12ClFO4+
154.9896	11	C7H4ClO2+
157.0403	11	C6H8ClN3+
159.0355	49	C9H4FN2+
160.0269	20	C8H4N2O2+
160.0433	107	C9H5FN2+
161.0274	33	C6H7ClFN2+
161.0348	22	C5H8ClN3O+
162.035	19	C9H5FNO+
164.0343	35	C8H6NO3+
168.0012	114	C8H4ClFN+
169.0398	44	C10H5N2O+
174.0458	14	C14H6+
175.0302	48	C9H4FN2O+
178.03	111	C9H5FNO2+
188.0382	999	C10H5FN2O+
191.025	11	C9H4FN2O2+
196.055	8	C13H7FN+
197.0636	14	C13H8FN+
223.0667	18	C14H8FN2+
225.0584	23	C14H8FNO+
251.0623	47	C17H12Cl+
252.0683	12	C18H8N2+
