Mass spectrum: Metazachlor BH 479-11; LC-ESI-ITFT; MS2; CE: 70%; R=15000; [M+Na]+
Name: Metazachlor BH 479-11
Name: Metazachlor metabolite M11
Name: N-(2,6-dimethylphenyl)-2-methylsulfinyl-N-(pyrazol-1-ylmethyl)acetamide
Formula: C15H19N3O2S
Exact mass: NA
SMILES: CC1=CC=CC(C)=C1N(CN1C=CC=N1)C(=O)CS(C)=O
InChI: InChI=1S/C15H19N3O2S/c1-12-6-4-7-13(2)15(12)18(14(19)10-21(3)20)11-17-9-5-8-16-17/h4-9H,10-11H2,1-3H3
Instrument: LTQ Orbitrap XL Thermo Scientific
Instrument type: LC-ESI-ITFT
Ms type: MS2
Ion mode: POSITIVE
Ionization: ESI
Fragmentation mode: HCD
Collision energy: 70% (nominal)
Resolution: 15000
Column name: Kinetex Evo C18 2.6 um 50 x 2.1 mm
Retention time: 7.924 min
Base peak: 306.1276
Precursor m/z: 328.109
Precursor type: [M+Na]+
m/z	relative intensity	assigned
185.0808	271	C10H12NNaO+
250.0948	999	C13H13N3NaO+
264.1103	188	C14H15N3NaO+
