Mass spectrum: Daminozide; LC-ESI-ITFT; MS2; CE: 80%; R=15000; [M+H]+
Name: Daminozide
Name: 4-(2,2-dimethylhydrazinyl)-4-oxobutanoic acid
Formula: C6H12N2O3
Exact mass: 160.08479
SMILES: CN(C)NC(=O)CCC(O)=O
InChI: InChI=1S/C6H12N2O3/c1-8(2)7-5(9)3-4-6(10)11/h3-4H2,1-2H3,(H,7,9)(H,10,11)
Instrument: LTQ Orbitrap XL Thermo Scientific
Instrument type: LC-ESI-ITFT
Ms type: MS2
Ion mode: POSITIVE
Ionization: ESI
Fragmentation mode: HCD
Collision energy: 80% (nominal)
Resolution: 15000
Column name: Kinetex Evo C18 2.6 um 50 x 2.1 mm
Retention time: 0.541 min
Base peak: 161.0927
Precursor m/z: 161.0921
Precursor type: [M+H]+
m/z	relative intensity	assigned
54.0336	44	C3H4N+
58.0649	126	C3H8N+
59.0601	262	C2H7N2+
61.0758	511	C2H9N2+
70.0284	15	C3H4NO+
72.0443	367	C3H6NO+
72.0807	66	C4H10N+
73.0283	133	C3H5O2+
82.0287	89	C4H4NO+
87.0553	287	C3H7N2O+
99.0314	34	C4H5NO2+
100.0393	181	C4H6NO2+
100.063	44	C4H8N2O+
101.0233	157	C4H5O3+
101.071	68	C4H9N2O+
115.0866	384	C5H11N2O+
141.0659	17	C6H9N2O2+
143.0815	999	C6H11N2O2+
