Mass spectrum: Pyriproxyfen; LC-ESI-ITFT; MS2; CE: 90%; R=15000; [M+H]+
Name: Pyriproxyfen
Name: 2-[1-(4-phenoxyphenoxy)propan-2-yloxy]pyridine
Formula: C20H19NO3
Exact mass: 321.1365
SMILES: CC(COC1=CC=C(OC2=CC=CC=C2)C=C1)OC1=CC=CC=N1
InChI: InChI=1S/C20H19NO3/c1-16(23-20-9-5-6-14-21-20)15-22-17-10-12-19(13-11-17)24-18-7-3-2-4-8-18/h2-14,16H,15H2,1H3
Instrument: LTQ Orbitrap XL Thermo Scientific
Instrument type: LC-ESI-ITFT
Ms type: MS2
Ion mode: POSITIVE
Ionization: ESI
Fragmentation mode: HCD
Collision energy: 90% (nominal)
Resolution: 15000
Column name: Kinetex Evo C18 2.6 um 50 x 2.1 mm
Retention time: 13.619 min
Base peak: 322.1449
Precursor m/z: 322.1438
Precursor type: [M+H]+
m/z	relative intensity	assigned
65.0385	3	C5H5+
77.0387	195	C6H5+
78.0339	166	C5H4N+
79.0543	9	C6H7+
91.0544	121	C7H7+
92.0625	1	C7H8+
94.0414	8	C6H6O+
95.0494	36	C6H7O+
96.0446	999	C5H6NO+
103.0545	5	C8H7+
105.0701	32	C8H9+
106.0781	1	C8H10+
107.0492	6	C7H7O+
110.0601	4	C6H8NO+
115.0544	151	C9H7+
116.0623	4	C9H8+
117.07	5	C9H9+
119.0493	182	C8H7O+
123.0675	4	C7H9NO+
128.0623	108	C10H8+
129.0701	189	C10H9+
131.049	3	C9H7O+
133.065	32	C9H9O+
134.0729	12	C9H10O+
136.0762	3	C8H10NO+
141.0701	101	C11H9+
145.0648	3	C10H9O+
152.0621	6	C12H8+
153.0702	5	C12H9+
157.0652	20	C11H9O+
165.0702	8	C13H9+
168.0573	7	C12H8O+
169.0651	4	C12H9O+
170.0731	2	C12H10O+
181.0651	4	C13H9O+
185.0601	14	C12H9O2+
186.0681	2	C12H10O2+
194.073	2	C14H10O+
197.0599	3	C13H9O2+
