Mass spectrum: Velvione; LC-ESI-ITFT; MS2; CE: 90%; R=15000; [M+H]+
Name: Velvione
Name: 5-Cyclohexadecen-1-one
Name: cyclohexadec-5-en-1-one
Formula: C16H28O
Exact mass: 236.2140
SMILES: O=C1CCCCCCCCCCC=CCCC1
InChI: InChI=1S/C16H28O/c17-16-14-12-10-8-6-4-2-1-3-5-7-9-11-13-15-16/h6,8H,1-5,7,9-15H2
Instrument: LTQ Orbitrap XL Thermo Scientific
Instrument type: LC-ESI-ITFT
Ms type: MS2
Ion mode: POSITIVE
Ionization: ESI
Fragmentation mode: HCD
Collision energy: 90% (nominal)
Resolution: 15000
Column name: Kinetex Evo C18 2.6 um 50 x 2.1 mm
Retention time: 14.330 min
Base peak: 116.9859
Precursor m/z: 237.2213
Precursor type: [M+H]+
m/z	relative intensity	assigned
55.0541	999	C4H7+
57.0697	114	C4H9+
67.0542	551	C5H7+
69.0698	510	C5H9+
79.0543	156	C6H7+
81.07	684	C6H9+
83.0491	54	C5H7O+
83.0857	206	C6H11+
91.0543	42	C7H7+
93.0701	139	C7H9+
95.0857	424	C7H11+
107.0856	44	C8H11+
109.1015	51	C8H13+
179.0854	79	C14H11+
180.0939	29	C14H12+
193.1014	141	C15H13+
207.1168	122	C16H15+
