Mass spectrum: Azinphos methyl; LC-ESI-ITFT; MS2; CE: 30%; R=15000; [M+Na]+
Name: Azinphos methyl
Name: Azinphos-methyl
Name: 3-(dimethoxyphosphinothioylsulfanylmethyl)-1,2,3-benzotriazin-4-one
Formula: C10H12N3O3PS2
Exact mass: 317.0058
SMILES: COP(=S)(OC)SCN1N=NC2=CC=CC=C2C1=O
InChI: InChI=1S/C10H12N3O3PS2/c1-15-17(18,16-2)19-7-13-10(14)8-5-3-4-6-9(8)11-12-13/h3-6H,7H2,1-2H3
Instrument: LTQ Orbitrap XL Thermo Scientific
Instrument type: LC-ESI-ITFT
Ms type: MS2
Ion mode: POSITIVE
Ionization: ESI
Fragmentation mode: HCD
Collision energy: 30 % (nominal)
Resolution: 15000
Column name: Kinetex Evo C18 2.6 um 50 x 2.1 mm
Retention time: 10.702 min
Base peak: 339.9953
Precursor m/z: 339.995
Precursor type: [M+Na]+
m/z	relative intensity	assigned
77.0385	8	C6H5+
104.0499	48	C3H9N2P+
105.034	17	C3H8NOP+
105.0453	2	H11NO3S+
132.045	999	C4H9N2OP+
148.0225	3	C4H9N2PS+
150.0556	16	C4H11N2O2P+
160.0511	24	C8H6N3O+
164.071	4	C9H10NO2+
