Mass spectrum: Velvione; LC-ESI-ITFT; MS2; CE: 80%; R=15000; [M+Na]+
Name: Velvione
Name: 5-Cyclohexadecen-1-one
Name: cyclohexadec-5-en-1-one
Formula: C16H28O
Exact mass: NA
SMILES: O=C1CCCCCCCCCCC=CCCC1
InChI: InChI=1S/C16H28O/c17-16-14-12-10-8-6-4-2-1-3-5-7-9-11-13-15-16/h6,8H,1-5,7,9-15H2
Instrument: LTQ Orbitrap XL Thermo Scientific
Instrument type: LC-ESI-ITFT
Ms type: MS2
Ion mode: POSITIVE
Ionization: ESI
Fragmentation mode: HCD
Collision energy: 80% (nominal)
Resolution: 15000
Column name: Kinetex Evo C18 2.6 um 50 x 2.1 mm
Retention time: 14.247 min
Base peak: 259.2052
Precursor m/z: 259.2032
Precursor type: [M+Na]+
m/z	relative intensity	assigned
57.0696	31	C4H9+
69.0696	33	C5H9+
83.0855	39	C6H11+
91.0543	17	C7H7+
93.07	19	C7H9+
105.0699	168	C8H9+
117.0703	16	C9H9+
119.0856	604	C9H11+
129.0699	81	C10H9+
131.0859	31	C10H11+
133.1013	283	C10H13+
146.0731	19	C10H10O+
147.0806	707	C10H11O+
157.1009	21	C12H13+
161.0962	222	C11H13O+
173.1322	27	C13H17+
175.1117	999	C12H15O+
