Mass spectrum: Pendimethalin; LC-ESI-ITFT; MS2; CE: 90%; R=15000; [M+H]+
Name: Pendimethalin
Name: 3,4-dimethyl-2,6-dinitro-N-pentan-3-ylaniline
Formula: C13H19N3O4
Exact mass: 281.1376
SMILES: CCC(CC)NC1=C(C(C)=C(C)C=C1[N+]([O-])=O)[N+]([O-])=O
InChI: InChI=1S/C13H19N3O4/c1-5-10(6-2)14-12-11(15(17)18)7-8(3)9(4)13(12)16(19)20/h7,10,14H,5-6H2,1-4H3
Instrument: LTQ Orbitrap XL Thermo Scientific
Instrument type: LC-ESI-ITFT
Ms type: MS2
Ion mode: POSITIVE
Ionization: ESI
Fragmentation mode: HCD
Collision energy: 90% (nominal)
Resolution: 15000
Column name: Kinetex Evo C18 2.6 um 50 x 2.1 mm
Retention time: 13.728 min
Base peak: 282.1452
Precursor m/z: 282.1448
Precursor type: [M+H]+
m/z	relative intensity	assigned
53.0384	142	C4H5+
65.0386	638	C5H5+
66.0338	156	C4H4N+
66.0463	179	C5H6+
77.0387	116	C6H5+
78.0339	283	C5H4N+
80.0496	330	C5H6N+
90.034	135	C6H4N+
91.0419	580	C6H5N+
91.0544	232	C7H7+
92.0497	999	C6H6N+
93.0452	120	C5H5N2+
93.0575	233	C6H7N+
103.0418	387	C7H5N+
104.0495	259	C7H6N+
105.0451	620	C6H5N2+
117.0449	204	C7H5N2+
118.0529	142	C7H6N2+
118.0653	103	C8H8N+
119.0606	919	C7H7N2+
120.0686	266	C7H8N2+
129.0451	276	C8H5N2+
130.0402	130	C7H4N3+
131.0607	300	C8H7N2+
147.0557	205	C8H7N2O+
148.0635	812	C8H8N2O+
