Mass spectrum: Torasemide; LC-ESI-ITFT; MS2; CE: 60%; R=15000; [M+H]+
Name: Torasemide
Name: Torsemide
Name: 1-[4-(3-methylanilino)pyridin-3-yl]sulfonyl-3-propan-2-ylurea
Formula: C16H20N4O3S
Exact mass: 348.12561
SMILES: CC(C)NC(=O)NS(=O)(=O)C1=CN=CC=C1NC1=CC=CC(C)=C1
InChI: InChI=1S/C16H20N4O3S/c1-11(2)18-16(21)20-24(22,23)15-10-17-8-7-14(15)19-13-6-4-5-12(3)9-13/h4-11H,1-3H3,(H,17,19)(H2,18,20,21)
Instrument: LTQ Orbitrap XL Thermo Scientific
Instrument type: LC-ESI-ITFT
Ms type: MS2
Ion mode: POSITIVE
Ionization: ESI
Fragmentation mode: HCD
Collision energy: 60% (nominal)
Resolution: 15000
Column name: Kinetex Evo C18 2.6 um 50 x 2.1 mm
Retention time: 8.465 min
Base peak: 245.1183
Precursor m/z: 349.1329
Precursor type: [M+H]+
m/z	relative intensity	assigned
122.0601	28	C7H8NO+
125.0168	182	C5H5N2S+
126.0008	8	C5H4NOS+
128.0166	5	C5H6NOS+
137.0168	19	C6H5N2S+
153.0119	9	C6H5N2OS+
168.0683	229	C11H8N2+
182.084	70	C12H10N2+
183.0918	999	C12H11N2+
184.0947	9	C7H12N4O2+
185.071	13	C11H9N2O+
191.0638	43	C10H11N2S+
198.0789	69	C12H10N2O+
199.0867	71	C12H11N2O+
201.0482	58	C11H9N2S+
214.0737	8	C12H10N2O2+
219.0588	126	C11H11N2OS+
229.0433	22	C12H9N2OS+
230.051	109	C12H10N2OS+
247.0537	102	C12H11N2O2S+
264.0803	527	C12H14N3O2S+
265.0842	4	C15H11N3O2+
290.0595	60	C13H12N3O3S+
