Mass spectrum: N-Acetyl-4-aminoantipyrine; LC-ESI-ITFT; MS2; CE: 90%; R=15000; [M+Na]+
Name: N-Acetyl-4-aminoantipyrine
Name: N-(1,5-dimethyl-3-oxo-2-phenylpyrazol-4-yl)acetamide
Formula: C13H15N3O2
Exact mass: 245.1164
SMILES: CN1N(C(=O)C(NC(C)=O)=C1C)C1=CC=CC=C1
InChI: InChI=1S/C13H15N3O2/c1-9-12(14-10(2)17)13(18)16(15(9)3)11-7-5-4-6-8-11/h4-8H,1-3H3,(H,14,17)
Instrument: LTQ Orbitrap XL Thermo Scientific
Instrument type: LC-ESI-ITFT
Ms type: MS2
Ion mode: POSITIVE
Ionization: ESI
Fragmentation mode: HCD
Collision energy: 90% (nominal)
Resolution: 15000
Column name: Kinetex Evo C18 2.6 um 50 x 2.1 mm
Retention time: 4.624 min
Base peak: 268.1913
Precursor m/z: 268.1056
Precursor type: [M+Na]+
m/z	relative intensity	assigned
72.0805	360	C4H10N+
74.0598	571	C3H8NO+
77.0383	143	C6H5+
79.054	268	C6H7+
84.0806	53	C5H10N+
91.0541	444	C7H7+
93.0698	140	C7H9+
95.049	38	C6H7O+
98.0964	89	C6H12N+
100.112	66	C6H14N+
103.0541	999	C8H7+
104.0619	30	C8H8+
105.0446	102	C6H5N2+
105.0698	661	C8H9+
107.0491	29	C7H7O+
107.0857	13	C8H11+
115.0541	106	C9H7+
116.062	88	C9H8+
116.1069	84	C6H14NO+
117.0698	45	C9H9+
119.0491	15	C8H7O+
119.0854	17	C9H11+
120.0568	49	C8H8O+
120.0807	10	C8H10N+
121.0647	562	C8H9O+
129.0698	55	C10H9+
131.0491	34	C9H7O+
131.0603	24	C8H7N2+
131.0854	80	C10H11+
133.0647	413	C9H9O+
135.0803	67	C9H11O+
141.0699	40	C11H9+
144.0568	98	C10H8O+
147.0808	23	C10H11O+
148.0756	90	C9H10NO+
151.0751	10	C9H11O2+
159.0803	52	C11H11O+
163.0864	140	C9H11N2O+
169.0761	7	C11H9N2+
