Mass spectrum: Cortisone; LC-ESI-ITFT; MS2; CE: 80%; R=15000; [M+H]+
Name: Cortisone
Name: (8S,9S,10R,13S,14S,17R)-17-hydroxy-17-(2-hydroxyacetyl)-10,13-dimethyl-1,2,6,7,8,9,12,14,15,16-decahydrocyclopenta[a]phenanthrene-3,11-dione
Formula: C21H28O5
Exact mass: 360.1937
SMILES: C[C@]12CC(=O)[C@H]3[C@@H](CCC4=CC(=O)CC[C@]34C)[C@@H]1CC[C@]2(O)C(=O)CO
InChI: InChI=1S/C21H28O5/c1-19-7-5-13(23)9-12(19)3-4-14-15-6-8-21(26,17(25)11-22)20(15,2)10-16(24)18(14)19/h9,14-15,18,22,26H,3-8,10-11H2,1-2H3/t14-,15-,18+,19-,20-,21-/m0/s1
Instrument: LTQ Orbitrap XL Thermo Scientific
Instrument type: LC-ESI-ITFT
Ms type: MS2
Ion mode: POSITIVE
Ionization: ESI
Fragmentation mode: HCD
Collision energy: 80% (nominal)
Resolution: 15000
Column name: Kinetex Evo C18 2.6 um 50 x 2.1 mm
Retention time: 9.572 min
Base peak: 361.2009
Precursor m/z: 361.201
Precursor type: [M+H]+
m/z	relative intensity	assigned
67.0539	141	C5H7+
69.0332	46	C4H5O+
69.0696	94	C5H9+
71.0488	27	C4H7O+
77.0383	49	C6H5+
79.054	312	C6H7+
81.0333	20	C5H5O+
81.0697	320	C6H9+
83.0489	275	C5H7O+
91.054	363	C7H7+
93.0697	735	C7H9+
95.0489	63	C6H7O+
95.0853	199	C7H11+
97.0646	464	C6H9O+
103.054	30	C8H7+
105.0697	919	C8H9+
107.0489	118	C7H7O+
107.0853	566	C8H11+
109.0645	114	C7H9O+
109.1012	21	C8H13+
111.0804	13	C7H11O+
115.0541	48	C9H7+
116.0616	20	C9H8+
117.0696	249	C9H9+
119.0853	467	C9H11+
121.0645	879	C8H9O+
121.1009	189	C9H13+
123.0801	161	C8H11O+
128.0617	72	C10H8+
129.0696	132	C10H9+
130.0774	94	C10H10+
131.0852	250	C10H11+
132.0568	11	C9H8O+
133.0646	74	C9H9O+
133.1009	137	C10H13+
135.0801	115	C9H11O+
135.1165	83	C10H15+
137.0958	13	C9H13O+
139.075	13	C8H11O2+
141.0696	65	C11H9+
142.0774	69	C11H10+
143.0852	242	C11H11+
144.0569	14	C10H8O+
144.0928	26	C11H12+
145.0645	56	C10H9O+
145.1009	486	C11H13+
146.0721	33	C10H10O+
147.0802	181	C10H11O+
147.1165	27	C11H15+
148.0879	404	C10H12O+
153.0694	34	C12H9+
154.0772	25	C12H10+
155.0852	120	C12H11+
156.0928	44	C12H12+
157.0644	24	C11H9O+
157.1009	134	C12H13+
158.0722	19	C11H10O+
159.0801	101	C11H11O+
159.1167	62	C12H15+
161.0958	141	C11H13O+
163.1114	999	C11H15O+
165.0696	38	C13H9+
167.0854	54	C13H11+
168.093	35	C13H12+
169.0647	11	C12H9O+
169.1008	115	C13H13+
170.1087	20	C13H14+
171.0801	49	C12H11O+
171.1166	70	C13H15+
173.0956	67	C12H13O+
174.1035	80	C12H14O+
175.1113	26	C12H15O+
179.0852	39	C14H11+
180.0929	25	C14H12+
181.1007	81	C14H13+
182.1088	33	C14H14+
183.0799	27	C13H11O+
183.1164	93	C14H15+
184.0879	11	C13H12O+
185.0959	39	C13H13O+
185.132	56	C14H17+
187.1113	34	C13H15O+
189.1271	41	C13H17O+
191.0853	20	C15H11+
192.093	24	C15H12+
193.1009	46	C15H13+
194.1087	13	C15H14+
195.0806	15	C14H11O+
195.1165	67	C15H15+
196.1247	14	C15H16+
197.0961	18	C14H13O+
197.1321	41	C15H17+
199.1112	50	C14H15O+
199.1477	33	C15H19+
201.1273	18	C14H17O+
205.1002	22	C16H13+
206.1089	26	C16H14+
207.1167	44	C16H15+
209.0956	24	C15H13O+
209.1322	29	C16H17+
211.1114	34	C15H15O+
213.1272	27	C15H17O+
217.1005	11	C17H13+
221.133	19	C17H17+
223.1112	19	C16H15O+
223.148	24	C17H19+
224.119	11	C16H16O+
225.1268	65	C16H17O+
226.1354	31	C16H18O+
227.1427	55	C16H19O+
229.1578	9	C16H21O+
231.1166	10	C18H15+
240.151	24	C17H20O+
241.1582	84	C17H21O+
242.1662	24	C17H22O+
243.1375	159	C16H19O2+
251.1427	18	C18H19O+
255.1742	13	C18H23O+
256.1819	12	C18H24O+
257.1526	10	C17H21O2+
258.1607	117	C17H22O2+
269.1532	55	C18H21O2+
