Mass spectrum: Dimethachlor; LC-ESI-ITFT; MS2; CE: 10%; R=15000; [M+Na]+
Name: Dimethachlor
Name: 2-chloro-N-(2,6-dimethylphenyl)-N-(2-methoxyethyl)acetamide
Formula: C13H18ClNO2
Exact mass: 255.1026
SMILES: COCCN(C(=O)CCl)C1=C(C)C=CC=C1C
InChI: InChI=1S/C13H18ClNO2/c1-10-5-4-6-11(2)13(10)15(7-8-17-3)12(16)9-14/h4-6H,7-9H2,1-3H3
Instrument: LTQ Orbitrap XL Thermo Scientific
Instrument type: LC-ESI-ITFT
Ms type: MS2
Ion mode: POSITIVE
Ionization: ESI
Fragmentation mode: HCD
Collision energy: 10% (nominal)
Resolution: 15000
Column name: Kinetex Evo C18 2.6 um 50 x 2.1 mm
Retention time: 10.150 min
Base peak: 278.1049
Precursor m/z: 278.0918
Precursor type: [M+Na]+
m/z	relative intensity	assigned
134.0963	572	C9H12N+
210.0673	999	C11H13ClNO+
