Mass spectrum: Dimethachlor; LC-ESI-ITFT; MS2; CE: 90%; R=15000; [M+Na]+
Name: Dimethachlor
Name: 2-chloro-N-(2,6-dimethylphenyl)-N-(2-methoxyethyl)acetamide
Formula: C13H18ClNO2
Exact mass: NA
SMILES: COCCN(C(=O)CCl)C1=C(C)C=CC=C1C
InChI: InChI=1S/C13H18ClNO2/c1-10-5-4-6-11(2)13(10)15(7-8-17-3)12(16)9-14/h4-6H,7-9H2,1-3H3
Instrument: LTQ Orbitrap XL Thermo Scientific
Instrument type: LC-ESI-ITFT
Ms type: MS2
Ion mode: POSITIVE
Ionization: ESI
Fragmentation mode: HCD
Collision energy: 90% (nominal)
Resolution: 15000
Column name: Kinetex Evo C18 2.6 um 50 x 2.1 mm
Retention time: 10.152 min
Base peak: 278.1054
Precursor m/z: 278.0918
Precursor type: [M+Na]+
m/z	relative intensity	assigned
76.9786	23	C2H2ClO+
79.0539	41	C6H7+
91.0538	5	C7H7+
103.0541	22	C8H7+
105.0697	462	C8H9+
106.0774	10	C8H10+
107.0852	15	C8H11+
117.057	3	C8H7N+
119.0729	11	C8H9N+
123.0802	4	C8H11O+
132.0807	12	C9H10N+
133.0758	16	C5H15ClNa+
134.0962	999	C9H12N+
169.0129	2	C8H4NNaO2+
