Mass spectrum: Tris(1-chloro-2-propyl)phosphate; LC-ESI-ITFT; MS2; CE: 50%; R=15000; [M+Na]+
Name: Tris(1-chloro-2-propyl)phosphate
Name: tris(1-chloropropan-2-yl) phosphate
Formula: C9H18Cl3O4P
Exact mass: 326.00083
SMILES: CC(CCl)OP(=O)(OC(C)CCl)OC(C)CCl
InChI: InChI=1S/C9H18Cl3O4P/c1-7(4-10)14-17(13,15-8(2)5-11)16-9(3)6-12/h7-9H,4-6H2,1-3H3
Instrument: LTQ Orbitrap XL Thermo Scientific
Instrument type: LC-ESI-ITFT
Ms type: MS2
Ion mode: POSITIVE
Ionization: ESI
Fragmentation mode: HCD
Collision energy: 50 % (nominal)
Resolution: 15000
Column name: Kinetex Evo C18 2.6 um 50 x 2.1 mm
Retention time: 11.348 min
Base peak: 232.1338
Precursor m/z: 348.99
Precursor type: [M+Na]+
m/z	relative intensity	assigned
139.0161	999	C4H8ClO3+
