Mass spectrum: Propyphenazone; LC-ESI-ITFT; MS2; CE: 50%; R=15000; [M+H]+
Name: Propyphenazone
Name: 1,5-dimethyl-2-phenyl-4-propan-2-ylpyrazol-3-one
Formula: C14H18N2O
Exact mass: 230.1419
SMILES: CC(C)C1=C(C)N(C)N(C1=O)C1=CC=CC=C1
InChI: InChI=1S/C14H18N2O/c1-10(2)13-11(3)15(4)16(14(13)17)12-8-6-5-7-9-12/h5-10H,1-4H3
Instrument: LTQ Orbitrap XL Thermo Scientific
Instrument type: LC-ESI-ITFT
Ms type: MS2
Ion mode: POSITIVE
Ionization: ESI
Fragmentation mode: HCD
Collision energy: 50% (nominal)
Resolution: 15000
Column name: Kinetex Evo C18 2.6 um 50 x 2.1 mm
Retention time: 9.557 min
Base peak: 231.1503
Precursor m/z: 231.1492
Precursor type: [M+H]+
m/z	relative intensity	assigned
56.0493	50	C3H6N+
58.065	3	C3H8N+
70.0653	1	C4H8N+
81.0697	1	C6H9+
95.0731	1	C6H9N+
96.081	3	C6H10N+
97.0886	1	C6H11N+
98.06	2	C5H8NO+
100.1122	2	C6H14N+
110.0966	7	C7H12N+
112.0759	4	C6H10NO+
112.1122	31	C7H14N+
118.0653	2	C8H8N+
120.0446	2	C7H6NO+
120.0809	8	C8H10N+
124.076	5	C7H10NO+
128.1071	1	C7H14NO+
130.0648	1	C9H8N+
131.0731	3	C9H9N+
132.0813	1	C9H10N+
134.0963	1	C9H12N+
138.0916	8	C8H12NO+
144.0811	5	C10H10N+
146.084	3	C9H10N2+
146.0967	13	C10H12N+
147.0917	2	C9H11N2+
148.0756	1	C9H10NO+
148.112	1	C10H14N+
160.0759	1	C10H10NO+
160.0999	5	C10H12N2+
161.1074	7	C10H13N2+
172.1124	3	C12H14N+
188.095	2	C11H12N2O+
189.1025	211	C11H13N2O+
201.1026	31	C12H13N2O+
203.1547	7	C13H19N2+
215.1177	2	C13H15N2O+
216.1261	16	C13H16N2O+
231.1495	999	C14H19N2O+
