Mass spectrum: Androsterone; LC-ESI-ITFT; MS2; CE: 40%; R=15000; [M+Na]+
Name: Androsterone
Name: (3R,5S,8R,9S,10S,13S,14S)-3-hydroxy-10,13-dimethyl-1,2,3,4,5,6,7,8,9,11,12,14,15,16-tetradecahydrocyclopenta[a]phenanthren-17-one
Formula: C19H30O2
Exact mass: 290.2246
SMILES: C[C@]12CC[C@H]3[C@@H](CC[C@H]4C[C@H](O)CC[C@]34C)[C@@H]1CCC2=O
InChI: InChI=1S/C19H30O2/c1-18-9-7-13(20)11-12(18)3-4-14-15-5-6-17(21)19(15,2)10-8-16(14)18/h12-16,20H,3-11H2,1-2H3/t12-,13+,14-,15-,16-,18-,19-/m0/s1
Instrument: LTQ Orbitrap XL Thermo Scientific
Instrument type: LC-ESI-ITFT
Ms type: MS2
Ion mode: POSITIVE
Ionization: ESI
Fragmentation mode: HCD
Collision energy: 40% (nominal)
Resolution: 15000
Column name: Kinetex Evo C18 2.6 um 50 x 2.1 mm
Retention time: 11.688 min
Base peak: 313.2155
Precursor m/z: 313.2138
Precursor type: [M+Na]+
m/z	relative intensity	assigned
79.0539	86	C6H7+
81.0332	13	C5H5O+
81.0696	131	C6H9+
83.0489	246	C5H7O+
91.0541	128	C7H7+
93.0697	160	C7H9+
95.0854	155	C7H11+
97.0647	44	C6H9O+
105.0697	155	C8H9+
107.049	141	C7H7O+
107.0854	141	C8H11+
109.0646	708	C7H9O+
109.101	99	C8H13+
111.0805	13	C7H11O+
117.0698	106	C9H9+
119.0854	180	C9H11+
121.0647	54	C8H9O+
121.101	114	C9H13+
123.0802	161	C8H11O+
123.1166	77	C9H15+
125.0959	63	C8H13O+
129.0697	91	C10H9+
131.0853	248	C10H11+
133.0646	43	C9H9O+
133.101	311	C10H13+
135.0802	224	C9H11O+
135.1166	104	C10H15+
137.0958	40	C9H13O+
137.1322	37	C10H17+
141.0699	27	C11H9+
143.0854	140	C11H11+
144.0931	11	C11H12+
145.101	298	C11H13+
147.0802	66	C10H11O+
147.1166	136	C11H15+
149.0959	197	C10H13O+
149.1323	50	C11H17+
151.1113	33	C10H15O+
155.0853	53	C12H11+
157.101	214	C12H13+
159.0802	68	C11H11O+
159.1166	272	C12H15+
161.0959	123	C11H13O+
161.1322	68	C12H17+
163.1115	145	C11H15O+
163.1481	13	C12H19+
167.0852	28	C13H11+
169.101	87	C13H13+
171.0797	10	C12H11O+
171.1165	184	C13H15+
173.0956	38	C12H13O+
173.1322	102	C13H17+
175.1113	114	C12H15O+
175.1478	82	C13H19+
177.1269	27	C12H17O+
179.0848	15	C14H11+
181.1007	41	C14H13+
183.1164	140	C14H15+
185.096	50	C13H13O+
185.1321	295	C14H17+
187.1114	64	C13H15O+
187.1478	158	C14H19+
189.1269	79	C13H17O+
191.1428	10	C13H19O+
193.1009	22	C15H13+
195.1164	67	C15H15+
197.132	92	C15H17+
199.1109	30	C14H15O+
199.1476	142	C15H19+
201.1269	71	C14H17O+
201.1635	24	C15H21+
203.1424	45	C14H19O+
207.1166	44	C16H15+
208.1243	11	C16H16+
209.1318	55	C16H17+
211.1114	30	C15H15O+
211.1477	38	C16H19+
213.1267	39	C15H17O+
213.1632	38	C16H21+
215.1423	25	C15H19O+
215.1788	20	C16H23+
217.1585	14	C15H21O+
221.1316	63	C17H17+
223.1475	44	C17H19+
225.1267	36	C16H17O+
225.163	100	C17H21+
227.1422	19	C16H19O+
227.1787	223	C17H23+
229.1584	15	C16H21O+
235.1475	66	C18H19+
237.1629	110	C18H21+
239.1416	38	C15H20NaO+
243.1735	35	C17H23O+
245.189	999	C17H25O+
247.1463	10	C17H20Na+
248.1554	27	C19H20+
249.1626	39	C19H21+
251.1781	33	C17H24Na+
253.1943	32	C19H25+
266.1658	31	C19H22O+
267.1733	41	C19H23O+
267.2077	16	C18H28Na+
269.1886	13	C17H26NaO+
277.1936	114	C19H26Na+
295.2042	226	C19H28NaO+
313.2147	770	C19H30NaO2+
