Mass spectrum: Aldosterone; LC-ESI-ITFT; MS2; CE: 80%; R=15000; [M+H]+
Name: Aldosterone
Name: (8S,9S,10R,11S,13R,14S,17S)-11-hydroxy-17-(2-hydroxyacetyl)-10-methyl-3-oxo-1,2,6,7,8,9,11,12,14,15,16,17-dodecahydrocyclopenta[a]phenanthrene-13-carbaldehyde
Formula: C21H28O5
Exact mass: 360.19367
SMILES: [H][C@@]12CC[C@H](C(=O)CO)[C@]1(C[C@H](O)[C@@]1([H])[C@@]2([H])CCC2=CC(=O)CC[C@]12C)C=O
InChI: InChI=1S/C21H28O5/c1-20-7-6-13(24)8-12(20)2-3-14-15-4-5-16(18(26)10-22)21(15,11-23)9-17(25)19(14)20/h8,11,14-17,19,22,25H,2-7,9-10H2,1H3/t14-,15-,16+,17-,19+,20-,21+/m0/s1
Instrument: LTQ Orbitrap XL Thermo Scientific
Instrument type: LC-ESI-ITFT
Ms type: MS2
Ion mode: POSITIVE
Ionization: ESI
Fragmentation mode: HCD
Collision energy: 80% (nominal)
Resolution: 15000
Column name: Kinetex Evo C18 2.6 um 50 x 2.1 mm
Retention time: 9.238 min
Base peak: 361.2011
Precursor m/z: 361.201
Precursor type: [M+H]+
m/z	relative intensity	assigned
67.054	152	C5H7+
69.0332	62	C4H5O+
69.0696	62	C5H9+
71.0489	24	C4H7O+
77.0385	38	C6H5+
79.0541	296	C6H7+
81.0697	298	C6H9+
83.049	246	C5H7O+
87.0438	41	C4H7O2+
91.0541	399	C7H7+
93.0698	275	C7H9+
95.0489	47	C6H7O+
95.0854	134	C7H11+
97.0647	999	C6H9O+
101.0597	17	C5H9O2+
103.0538	20	C8H7+
105.0697	530	C8H9+
107.0489	106	C7H7O+
107.0854	136	C8H11+
109.0646	911	C7H9O+
111.0803	13	C7H11O+
115.0541	69	C9H7+
116.0618	18	C9H8+
117.0697	302	C9H9+
119.0489	20	C8H7O+
119.0854	252	C9H11+
121.0646	471	C8H9O+
121.101	50	C9H13+
123.0802	365	C8H11O+
128.0619	159	C10H8+
129.0697	345	C10H9+
130.0776	62	C10H10+
131.0853	446	C10H11+
133.0647	74	C9H9O+
133.1009	166	C10H13+
135.0803	62	C9H11O+
137.0601	10	C8H9O2+
137.0963	16	C9H13O+
141.0698	187	C11H9+
142.0775	202	C11H10+
143.0853	442	C11H11+
144.0927	40	C11H12+
145.0645	50	C10H9O+
145.101	340	C11H13+
147.0802	130	C10H11O+
147.1168	46	C11H15+
148.0882	57	C10H12O+
149.096	43	C10H13O+
152.062	22	C12H8+
153.0699	61	C12H9+
154.0777	69	C12H10+
155.0853	328	C12H11+
156.093	57	C12H12+
157.0653	24	C11H9O+
157.101	298	C12H13+
158.0731	14	C11H10O+
159.0802	90	C11H11O+
159.1166	123	C12H15+
160.0884	16	C11H12O+
161.0958	103	C11H13O+
163.1115	165	C11H15O+
165.0697	94	C13H9+
166.0775	59	C13H10+
167.0854	179	C13H11+
168.093	111	C13H12+
169.101	269	C13H13+
170.1084	31	C13H14+
171.0804	51	C12H11O+
171.1166	150	C13H15+
173.096	95	C12H13O+
173.1322	34	C13H17+
174.1035	19	C12H14O+
175.1117	72	C12H15O+
178.0776	44	C14H10+
179.0854	117	C14H11+
180.093	69	C14H12+
181.101	238	C14H13+
182.1088	92	C14H14+
183.0802	31	C13H11O+
183.1165	189	C14H15+
184.125	15	C14H16+
185.096	58	C13H13O+
185.1326	56	C14H17+
187.1116	30	C13H15O+
189.1277	21	C13H17O+
191.0848	49	C15H11+
192.0931	66	C15H12+
193.101	141	C15H13+
194.109	51	C15H14+
195.0802	23	C14H11O+
195.1167	167	C15H15+
196.1251	36	C15H16+
197.096	57	C14H13O+
197.1322	103	C15H17+
198.104	21	C14H14O+
199.1116	90	C14H15O+
199.1484	18	C15H19+
200.1195	28	C14H16O+
201.1271	45	C14H17O+
203.0852	25	C16H11+
204.0932	20	C16H12+
205.1011	60	C16H13+
206.1091	53	C16H14+
207.1165	88	C16H15+
208.1244	28	C16H16+
209.0956	17	C15H13O+
209.1323	94	C16H17+
210.1037	20	C15H14O+
211.1117	59	C15H15O+
211.1478	42	C16H19+
212.1193	30	C15H16O+
213.1271	129	C15H17O+
214.1349	49	C15H18O+
217.101	21	C17H13+
218.1094	21	C17H14+
219.1171	33	C17H15+
221.1321	58	C17H17+
222.1406	13	C17H18+
223.1116	50	C16H15O+
223.1481	53	C17H19+
224.1202	16	C16H16O+
225.1271	221	C16H17O+
226.1359	26	C16H18O+
227.1426	40	C16H19O+
231.1172	21	C18H15+
233.1321	30	C18H17+
235.1486	16	C18H19+
236.1206	17	C17H16O+
237.1272	42	C17H17O+
238.1357	18	C17H18O+
238.1722	11	C18H22+
239.1425	130	C17H19O+
240.1506	228	C17H20O+
241.1215	15	C16H17O2+
241.1592	77	C17H21O+
251.1429	58	C18H19O+
253.1588	24	C18H21O+
254.1663	27	C18H22O+
255.1371	22	C17H19O2+
255.1739	15	C18H23O+
263.1425	17	C19H19O+
266.1654	12	C19H22O+
269.1533	16	C18H21O2+
299.1638	25	C19H23O3+
