Mass spectrum: Tetracain; LC-ESI-ITFT; MS2; CE: 80%; R=15000; [M+H]+
Name: Tetracain
Name: Tetracaine
Name: 2-(dimethylamino)ethyl 4-(butylamino)benzoate
Formula: C15H24N2O2
Exact mass: 264.1838
SMILES: CCCCNC1=CC=C(C=C1)C(=O)OCCN(C)C
InChI: InChI=1S/C15H24N2O2/c1-4-5-10-16-14-8-6-13(7-9-14)15(18)19-12-11-17(2)3/h6-9,16H,4-5,10-12H2,1-3H3
Instrument: LTQ Orbitrap XL Thermo Scientific
Instrument type: LC-ESI-ITFT
Ms type: MS2
Ion mode: POSITIVE
Ionization: ESI
Fragmentation mode: HCD
Collision energy: 80% (nominal)
Resolution: 15000
Column name: Kinetex Evo C18 2.6 um 50 x 2.1 mm
Retention time: 7.272 min
Base peak: 265.1919
Precursor m/z: 265.1911
Precursor type: [M+H]+
m/z	relative intensity	assigned
55.054	2	C4H7+
56.0493	2	C3H6N+
57.057	2	C3H7N+
57.0697	14	C4H9+
65.0384	22	C5H5+
70.065	17	C4H8N+
72.0807	478	C4H10N+
79.0542	10	C6H7+
91.0543	7	C7H7+
92.0495	243	C6H6N+
93.0573	3	C6H7N+
93.0699	2	C7H9+
94.0651	8	C6H8N+
105.0573	84	C7H7N+
106.0651	57	C7H8N+
110.0601	19	C6H8NO+
118.0651	12	C8H8N+
119.073	12	C8H9N+
119.0856	2	C9H11+
120.0444	220	C7H6NO+
131.0854	3	C10H11+
132.0809	2	C9H10N+
133.0522	2	C8H7NO+
133.0885	9	C9H11N+
146.0961	1	C10H12N+
148.1122	31	C10H14N+
176.107	999	C11H14NO+
220.1332	16	C13H18NO2+
