Mass spectrum: Azinphos methyl; LC-ESI-ITFT; MS2; CE: 50%; R=15000; [M+Na]+
Name: Azinphos methyl
Name: Azinphos-methyl
Name: 3-(dimethoxyphosphinothioylsulfanylmethyl)-1,2,3-benzotriazin-4-one
Formula: C10H12N3O3PS2
Exact mass: 317.0058
SMILES: COP(=S)(OC)SCN1N=NC2=CC=CC=C2C1=O
InChI: InChI=1S/C10H12N3O3PS2/c1-15-17(18,16-2)19-7-13-10(14)8-5-3-4-6-9(8)11-12-13/h3-6H,7H2,1-2H3
Instrument: LTQ Orbitrap XL Thermo Scientific
Instrument type: LC-ESI-ITFT
Ms type: MS2
Ion mode: POSITIVE
Ionization: ESI
Fragmentation mode: HCD
Collision energy: 50% (nominal)
Resolution: 15000
Column name: Kinetex Evo C18 2.6 um 50 x 2.1 mm
Retention time: 10.680 min
Base peak: 339.9954
Precursor m/z: 339.995
Precursor type: [M+Na]+
m/z	relative intensity	assigned
77.0385	244	C6H5+
94.0414	3	C6H6O+
95.0492	42	C6H7O+
104.0497	357	C3H9N2P+
105.0336	294	C7H5O+
105.0448	108	C6H5N2+
106.0369	6	C2H6N2O3+
124.9823	6	C2H6O2PS+
130.0403	36	CH10N2O3S+
132.0446	999	C4H9N2OP+
133.0478	26	C3H7N3O3+
148.0216	3	C8H6NS+
150.0552	24	C4H11N2O2P+
164.071	3	C9H10NO2+
