Mass spectrum: Mebendazole; LC-ESI-ITFT; MS2; CE: 90%; R=15000; [M+H]+
Name: Mebendazole
Name: methyl N-(6-benzoyl-1H-benzimidazol-2-yl)carbamate
Formula: C16H13N3O3
Exact mass: 295.09569
SMILES: COC(=O)NC1=NC2=C(N1)C=C(C=C2)C(=O)C1=CC=CC=C1
InChI: InChI=1S/C16H13N3O3/c1-22-16(21)19-15-17-12-8-7-11(9-13(12)18-15)14(20)10-5-3-2-4-6-10/h2-9H,1H3,(H2,17,18,19,21)
Instrument: LTQ Orbitrap XL Thermo Scientific
Instrument type: LC-ESI-ITFT
Ms type: MS2
Ion mode: POSITIVE
Ionization: ESI
Fragmentation mode: HCD
Collision energy: 90% (nominal)
Resolution: 15000
Column name: Kinetex Evo C18 2.6 um 50 x 2.1 mm
Retention time: 9.741 min
Base peak: 296.1037
Precursor m/z: 296.103
Precursor type: [M+H]+
m/z	relative intensity	assigned
53.0383	2	C4H5+
77.0385	512	C6H5+
94.0412	5	C6H6O+
95.0491	109	C6H7O+
105.0335	999	C7H5O+
105.0446	367	C6H5N2+
130.04	32	C7H4N3+
131.0238	9	C7H3N2O+
131.0477	17	C7H5N3+
132.0557	13	C7H6N3+
147.079	2	C8H9N3+
156.0809	4	C11H10N+
158.0349	3	C8H4N3O+
159.0427	121	C8H5N3O+
160.0504	35	C8H6N3O+
166.0651	36	C12H8N+
167.0729	9	C12H9N+
181.0761	12	C12H9N2+
186.0297	49	C9H4N3O2+
191.0603	3	C13H7N2+
208.0869	20	C13H10N3+
219.0789	1	C14H9N3+
236.0822	8	C14H10N3O+
246.0657	4	C15H8N3O+
264.0766	159	C15H10N3O2+
