Mass spectrum: 2-Octyl-4-isothiazolin-3-one; LC-ESI-ITFT; MS2; CE: 50%; R=15000; [M+H]+
Name: 2-Octyl-4-isothiazolin-3-one
Name: Octhilinone
Name: 2-octyl-1,2-thiazol-3-one
Formula: C11H19NOS
Exact mass: 213.1187
SMILES: CCCCCCCCN1SC=CC1=O
InChI: InChI=1S/C11H19NOS/c1-2-3-4-5-6-7-9-12-11(13)8-10-14-12/h8,10H,2-7,9H2,1H3
Instrument: LTQ Orbitrap XL Thermo Scientific
Instrument type: LC-ESI-ITFT
Ms type: MS2
Ion mode: POSITIVE
Ionization: ESI
Fragmentation mode: HCD
Collision energy: 50% (nominal)
Resolution: 15000
Column name: Kinetex Evo C18 2.6 um 50 x 2.1 mm
Retention time: 11.694 min
Base peak: 214.1267
Precursor m/z: 214.126
Precursor type: [M+H]+
m/z	relative intensity	assigned
57.0697	230	C4H9+
69.0696	2	C5H9+
71.0854	181	C5H11+
102.0009	999	C3H4NOS+
214.1262	77	C11H20NOS+
