Mass spectrum: Celecoxib; LC-ESI-ITFT; MS2; CE: 30%; R=15000; [M+H]+
Name: Celecoxib
Name: 4-[5-(4-methylphenyl)-3-(trifluoromethyl)pyrazol-1-yl]benzenesulfonamide
Formula: C17H14F3N3O2S
Exact mass: 381.07588
SMILES: CC1=CC=C(C=C1)C1=CC(=NN1C1=CC=C(C=C1)S(N)(=O)=O)C(F)(F)F
InChI: InChI=1S/C17H14F3N3O2S/c1-11-2-4-12(5-3-11)15-10-16(17(18,19)20)22-23(15)13-6-8-14(9-7-13)26(21,24)25/h2-10H,1H3,(H2,21,24,25)
Instrument: LTQ Orbitrap XL Thermo Scientific
Instrument type: LC-ESI-ITFT
Ms type: MS2
Ion mode: POSITIVE
Ionization: ESI
Fragmentation mode: HCD
Collision energy: 30% (nominal)
Resolution: 15000
Column name: Kinetex Evo C18 2.6 um 50 x 2.1 mm
Retention time: 12.035 min
Base peak: 552.1923
Precursor m/z: 382.0832
Precursor type: [M+H]+
m/z	relative intensity	assigned
168.0122	14	C10HFN2+
300.0883	18	C17H11F3N2+
362.0763	24	C17H14F2N3O2S+
382.0836	999	C17H15F3N3O2S+
