Mass spectrum: Pethoxamid; LC-ESI-ITFT; MS2; CE: 80%; R=15000; [M+Na]+
Name: Pethoxamid
Name: 2-chloro-N-(2-ethoxyethyl)-N-(2-methyl-1-phenylprop-1-enyl)acetamide
Formula: C16H22ClNO2
Exact mass: NA
SMILES: CCOCCN(C(=O)CCl)C(=C(C)C)C1=CC=CC=C1
InChI: InChI=1S/C16H22ClNO2/c1-4-20-11-10-18(15(19)12-17)16(13(2)3)14-8-6-5-7-9-14/h5-9H,4,10-12H2,1-3H3
Instrument: LTQ Orbitrap XL Thermo Scientific
Instrument type: LC-ESI-ITFT
Ms type: MS2
Ion mode: POSITIVE
Ionization: ESI
Fragmentation mode: HCD
Collision energy: 80 % (nominal)
Resolution: 15000
Column name: Kinetex Evo C18 2.6 um 50 x 2.1 mm
Retention time: 11.640 min
Base peak: 116.9859
Precursor m/z: 318.1231
Precursor type: [M+Na]+
m/z	relative intensity	assigned
91.0539	999	C7H7+
103.0539	75	C8H7+
105.0696	377	C8H9+
115.0541	102	C9H7+
116.0618	109	C9H8+
117.0695	872	C9H9+
128.0617	470	C10H8+
129.0695	494	C10H9+
130.0773	308	C10H10+
131.0852	843	C10H11+
143.0851	448	C11H11+
144.0802	96	C10H10N+
145.1008	882	C11H13+
155.0601	71	C7H13ClNa+
158.0962	56	C11H12N+
170.0957	97	C12H12N+
171.0798	117	C12H11O+
188.1064	46	C12H14NO+
