Mass spectrum: Benzethonium; LC-ESI-ITFT; MS2; CE: 20%; R=15000; [M]+
Name: Benzethonium
Name: benzyl-dimethyl-[2-[2-[4-(2,4,4-trimethylpentan-2-yl)phenoxy]ethoxy]ethyl]azanium
Formula: C27H42NO2
Exact mass: 412.3216
SMILES: CC(C)(C)CC(C)(C)C1=CC=C(OCCOCC[N+](C)(C)CC2=CC=CC=C2)C=C1
InChI: InChI=1S/C27H42NO2/c1-26(2,3)22-27(4,5)24-13-15-25(16-14-24)30-20-19-29-18-17-28(6,7)21-23-11-9-8-10-12-23/h8-16H,17-22H2,1-7H3/q+1
Instrument: LTQ Orbitrap XL Thermo Scientific
Instrument type: LC-ESI-ITFT
Ms type: MS2
Ion mode: POSITIVE
Ionization: ESI
Fragmentation mode: HCD
Collision energy: 20% (nominal)
Resolution: 15000
Column name: Kinetex Evo C18 2.6 um 50 x 2.1 mm
Retention time: 11.385 min
Base peak: 412.3219
Precursor m/z: 412.321
Precursor type: [M]+
m/z	relative intensity	assigned
72.0804	3	C4H10N+
412.3208	999	C27H42NO2+
