Mass spectrum: Cortisone; LC-ESI-ITFT; MS2; CE: 70%; R=15000; [M+H]+
Name: Cortisone
Name: (8S,9S,10R,13S,14S,17R)-17-hydroxy-17-(2-hydroxyacetyl)-10,13-dimethyl-1,2,6,7,8,9,12,14,15,16-decahydrocyclopenta[a]phenanthrene-3,11-dione
Formula: C21H28O5
Exact mass: 360.1937
SMILES: C[C@]12CC(=O)[C@H]3[C@@H](CCC4=CC(=O)CC[C@]34C)[C@@H]1CC[C@]2(O)C(=O)CO
InChI: InChI=1S/C21H28O5/c1-19-7-5-13(23)9-12(19)3-4-14-15-6-8-21(26,17(25)11-22)20(15,2)10-16(24)18(14)19/h9,14-15,18,22,26H,3-8,10-11H2,1-2H3/t14-,15-,18+,19-,20-,21-/m0/s1
Instrument: LTQ Orbitrap XL Thermo Scientific
Instrument type: LC-ESI-ITFT
Ms type: MS2
Ion mode: POSITIVE
Ionization: ESI
Fragmentation mode: HCD
Collision energy: 70% (nominal)
Resolution: 15000
Column name: Kinetex Evo C18 2.6 um 50 x 2.1 mm
Retention time: 9.572 min
Base peak: 361.2009
Precursor m/z: 361.201
Precursor type: [M+H]+
m/z	relative intensity	assigned
67.0539	48	C5H7+
69.0332	27	C4H5O+
69.0696	45	C5H9+
71.0489	11	C4H7O+
77.0383	10	C6H5+
79.054	126	C6H7+
81.0333	8	C5H5O+
81.0696	162	C6H9+
83.0489	129	C5H7O+
91.054	127	C7H7+
93.0697	376	C7H9+
95.0489	29	C6H7O+
95.0853	102	C7H11+
97.0646	250	C6H9O+
105.0696	443	C8H9+
107.0489	55	C7H7O+
107.0853	319	C8H11+
109.0644	61	C7H9O+
109.101	18	C8H13+
111.0801	10	C7H11O+
115.054	11	C9H7+
117.0696	96	C9H9+
119.0852	238	C9H11+
121.0645	505	C8H9O+
121.1009	129	C9H13+
123.0801	109	C8H11O+
128.062	16	C10H8+
129.0695	57	C10H9+
130.0775	31	C10H10+
131.0852	128	C10H11+
133.0645	44	C9H9O+
133.1009	97	C10H13+
134.0721	4	C9H10O+
135.0801	98	C9H11O+
135.1165	75	C10H15+
137.0955	11	C9H13O+
139.075	14	C8H11O2+
141.0694	18	C11H9+
142.0773	21	C11H10+
143.0852	126	C11H11+
145.0646	32	C10H9O+
145.1008	312	C11H13+
147.0801	114	C10H11O+
147.1165	26	C11H15+
148.0879	138	C10H12O+
149.0956	40	C10H13O+
153.0694	11	C12H9+
154.0772	7	C12H10+
155.0852	64	C12H11+
156.0926	11	C12H12+
157.0646	15	C11H9O+
157.1009	82	C12H13+
158.0723	13	C11H10O+
159.08	70	C11H11O+
159.1165	51	C12H15+
161.0958	94	C11H13O+
163.1114	999	C11H15O+
165.0695	13	C13H9+
167.0854	26	C13H11+
168.0931	17	C13H12+
169.1007	62	C13H13+
170.1082	6	C13H14+
171.08	39	C12H11O+
171.1164	54	C13H15+
173.0955	52	C12H13O+
174.1034	24	C12H14O+
175.1112	32	C12H15O+
179.085	16	C14H11+
180.0929	11	C14H12+
181.1008	48	C14H13+
182.1086	18	C14H14+
183.0802	12	C13H11O+
183.1164	66	C14H15+
185.0957	35	C13H13O+
185.1321	35	C14H17+
187.1113	21	C13H15O+
189.0904	11	C12H13O2+
189.1271	33	C13H17O+
191.086	6	C15H11+
192.0928	10	C15H12+
193.1008	20	C15H13+
194.1089	17	C15H14+
195.0803	6	C14H11O+
195.1162	48	C15H15+
196.1253	8	C15H16+
197.0956	19	C14H13O+
197.1321	45	C15H17+
199.1113	31	C14H15O+
199.1477	23	C15H19+
201.0906	6	C13H13O2+
201.1267	17	C14H17O+
203.1434	7	C14H19O+
205.101	8	C16H13+
206.1082	16	C16H14+
207.1165	27	C16H15+
209.0957	11	C15H13O+
209.1319	25	C16H17+
211.1114	20	C15H15O+
211.1479	16	C16H19+
213.127	16	C15H17O+
215.1431	9	C15H19O+
217.1003	8	C17H13+
221.1321	21	C17H17+
223.1474	13	C17H19+
224.1192	8	C16H16O+
225.1269	31	C16H17O+
225.1636	9	C17H21+
226.135	21	C16H18O+
227.1427	35	C16H19O+
229.1598	4	C16H21O+
231.1159	6	C18H15+
232.1251	6	C18H16+
235.148	4	C18H19+
237.1272	10	C17H17O+
237.1632	9	C18H21+
239.1424	21	C17H19O+
240.151	13	C17H20O+
241.1583	68	C17H21O+
242.1664	31	C17H22O+
243.1373	47	C16H19O2+
249.1277	7	C18H17O+
251.143	13	C18H19O+
253.1587	11	C18H21O+
255.1736	17	C18H23O+
256.1813	20	C18H24O+
257.1534	10	C17H21O2+
258.161	113	C17H22O2+
265.1576	8	C19H21O+
269.153	52	C18H21O2+
284.1762	22	C19H24O2+
