Mass spectrum: Gestoden; LC-ESI-ITFT; MS2; CE: 90%; R=15000; [M+H]+
Name: Gestoden
Name: Gestodene
Name: (8R,9S,10R,13S,14S,17R)-13-ethyl-17-ethynyl-17-hydroxy-1,2,6,7,8,9,10,11,12,14-decahydrocyclopenta[a]phenanthren-3-one
Formula: C21H26O2
Exact mass: 310.1933
SMILES: [H][C@@]12C=C[C@@](O)(C#C)[C@@]1(CC)CC[C@]1([H])[C@@]3([H])CCC(=O)C=C3CC[C@@]21[H]
InChI: InChI=1S/C21H26O2/c1-3-20-11-9-17-16-8-6-15(22)13-14(16)5-7-18(17)19(20)10-12-21(20,23)4-2/h2,10,12-13,16-19,23H,3,5-9,11H2,1H3/t16-,17+,18+,19-,20-,21-/m0/s1
Instrument: LTQ Orbitrap XL Thermo Scientific
Instrument type: LC-ESI-ITFT
Ms type: MS2
Ion mode: POSITIVE
Ionization: ESI
Fragmentation mode: HCD
Collision energy: 90% (nominal)
Resolution: 15000
Column name: Kinetex Evo C18 2.6 um 50 x 2.1 mm
Retention time: 11.320 min
Base peak: 289.2163
Precursor m/z: 311.2006
Precursor type: [M+H]+
m/z	relative intensity	assigned
77.0382	126	C6H5+
79.0539	571	C6H7+
81.0332	348	C5H5O+
81.0696	519	C6H9+
83.0488	464	C5H7O+
91.0539	845	C7H7+
93.0695	249	C7H9+
95.0488	49	C6H7O+
95.0852	68	C7H11+
103.0538	111	C8H7+
105.0332	151	C7H5O+
105.0695	469	C8H9+
107.0488	245	C7H7O+
107.0853	77	C8H11+
109.0644	999	C7H9O+
115.0538	215	C9H7+
116.0616	62	C9H8+
117.0695	264	C9H9+
119.0851	170	C9H11+
123.0801	36	C8H11O+
128.0617	228	C10H8+
129.0694	267	C10H9+
131.0851	176	C10H11+
133.101	53	C10H13+
135.08	43	C9H11O+
141.0695	185	C11H9+
142.0773	94	C11H10+
143.0854	97	C11H11+
144.0929	42	C11H12+
145.0644	41	C10H9O+
145.1008	54	C11H13+
153.0693	132	C12H9+
154.0772	64	C12H10+
155.0852	120	C12H11+
157.0645	45	C11H9O+
157.1008	52	C12H13+
159.0805	40	C11H11O+
165.0696	101	C13H9+
166.0781	27	C13H10+
167.0853	101	C13H11+
171.117	27	C13H15+
179.0847	49	C14H11+
183.1165	50	C14H15+
193.1006	47	C15H13+
