Mass spectrum: Gestoden; LC-ESI-ITFT; MS2; CE: 60%; R=15000; [M+H]+
Name: Gestoden
Name: Gestodene
Name: (8R,9S,10R,13S,14S,17R)-13-ethyl-17-ethynyl-17-hydroxy-1,2,6,7,8,9,10,11,12,14-decahydrocyclopenta[a]phenanthren-3-one
Formula: C21H26O2
Exact mass: 310.1933
SMILES: [H][C@@]12C=C[C@@](O)(C#C)[C@@]1(CC)CC[C@]1([H])[C@@]3([H])CCC(=O)C=C3CC[C@@]21[H]
InChI: InChI=1S/C21H26O2/c1-3-20-11-9-17-16-8-6-15(22)13-14(16)5-7-18(17)19(20)10-12-21(20,23)4-2/h2,10,12-13,16-19,23H,3,5-9,11H2,1H3/t16-,17+,18+,19-,20-,21-/m0/s1
Instrument: LTQ Orbitrap XL Thermo Scientific
Instrument type: LC-ESI-ITFT
Ms type: MS2
Ion mode: POSITIVE
Ionization: ESI
Fragmentation mode: HCD
Collision energy: 60 % (nominal)
Resolution: 15000
Column name: Kinetex Evo C18 2.6 um 50 x 2.1 mm
Retention time: 11.298 min
Base peak: 311.2006
Precursor m/z: 311.2006
Precursor type: [M+H]+
m/z	relative intensity	assigned
67.054	71	C5H7+
69.0697	16	C5H9+
79.054	153	C6H7+
81.0333	302	C5H5O+
81.0697	126	C6H9+
83.049	300	C5H7O+
91.0541	209	C7H7+
93.0697	172	C7H9+
95.0489	41	C6H7O+
95.0853	99	C7H11+
97.0647	22	C6H9O+
103.0543	25	C8H7+
105.0333	87	C7H5O+
105.0697	225	C8H9+
107.049	165	C7H7O+
107.0853	105	C8H11+
109.0646	999	C7H9O+
109.1011	57	C8H13+
115.0542	16	C9H7+
117.0696	144	C9H9+
119.0496	17	C8H7O+
119.0853	183	C9H11+
121.0645	62	C8H9O+
121.101	72	C9H13+
123.0803	58	C8H11O+
128.0616	24	C10H8+
129.0696	141	C10H9+
131.0487	25	C9H7O+
131.0853	163	C10H11+
133.0645	135	C9H9O+
133.1009	101	C10H13+
135.0803	121	C9H11O+
135.1165	18	C10H15+
141.0698	70	C11H9+
142.0775	23	C11H10+
143.0854	133	C11H11+
145.0642	26	C10H9O+
145.1011	135	C11H13+
147.0803	99	C10H11O+
147.1165	50	C11H15+
149.096	95	C10H13O+
153.0697	23	C12H9+
154.0773	21	C12H10+
155.0852	104	C12H11+
156.0933	19	C12H12+
157.0641	17	C11H9O+
157.1009	92	C12H13+
159.0801	69	C11H11O+
159.1165	56	C12H15+
161.0959	62	C11H13O+
161.1321	26	C12H17+
163.1119	35	C11H15O+
165.0698	18	C13H9+
167.0854	42	C13H11+
168.0928	24	C13H12+
169.1006	47	C13H13+
171.1165	76	C13H15+
173.0957	37	C12H13O+
173.1323	42	C13H17+
175.1121	27	C12H15O+
179.0856	23	C14H11+
181.1011	49	C14H13+
183.1164	56	C14H15+
195.1171	30	C15H15+
199.1109	14	C14H15O+
199.1479	21	C15H19+
201.1271	88	C14H17O+
