Mass spectrum: Amidosulfobetaine-14; LC-ESI-ITFT; MS2; CE: 40%; R=15000; [M]+
Name: Amidosulfobetaine-14
Formula: C22H47N2O4S
Exact mass: 435.3257
SMILES: CCCCCCCCCCCCCC(=O)NCCC[N+](C)(C)CCCS(O)(=O)=O
InChI: InChI=1S/C22H46N2O4S/c1-4-5-6-7-8-9-10-11-12-13-14-17-22(25)23-18-15-19-24(2,3)20-16-21-29(26,27)28/h4-21H2,1-3H3,(H-,23,25,26,27,28)/p+1
Instrument: LTQ Orbitrap XL Thermo Scientific
Instrument type: LC-ESI-ITFT
Ms type: MS2
Ion mode: POSITIVE
Ionization: ESI
Fragmentation mode: HCD
Collision energy: 40 % (nominal)
Resolution: 15000
Column name: Kinetex Evo C18 2.6 um 50 x 2.1 mm
Retention time: 13.388 min
Base peak: 371.3269
Precursor m/z: 435.3251
Precursor type: [M]+
m/z	relative intensity	assigned
57.0698	1	C4H9+
58.0651	1	C3H8N+
71.0855	1	C5H11+
81.0699	1	C6H9+
85.1012	1	C6H13+
95.0856	3	C7H11+
97.1012	1	C7H13+
109.1013	1	C8H13+
111.1171	1	C8H15+
123.117	1	C9H15+
168.0678	7	C11H8N2+
211.2064	3	C14H27O+
225.1269	1	C8H21N2O3S+
268.2636	999	C17H34NO+
