Mass spectrum: Triethylphosphate; LC-ESI-ITFT; MS2; CE: 20%; R=15000; [M+Na]+
Name: Triethylphosphate
Name: triethyl phosphate
Formula: C6H15O4P
Exact mass: 182.0708
SMILES: CCOP(=O)(OCC)OCC
InChI: InChI=1S/C6H15O4P/c1-4-8-11(7,9-5-2)10-6-3/h4-6H2,1-3H3
Instrument: LTQ Orbitrap XL Thermo Scientific
Instrument type: LC-ESI-ITFT
Ms type: MS2
Ion mode: POSITIVE
Ionization: ESI
Fragmentation mode: HCD
Collision energy: 20% (nominal)
Resolution: 15000
Column name: Kinetex Evo C18 2.6 um 50 x 2.1 mm
Retention time: 7.636 min
Base peak: 183.0785
Precursor m/z: 205.06
Precursor type: [M+Na]+
m/z	relative intensity	assigned
177.029	1	C4H11NaO4P+
205.06	999	C6H15NaO4P+
