Mass spectrum: Carbendazim; LC-ESI-ITFT; MS2; CE: 80%; R=15000; [M+H]+
Name: Carbendazim
Name: methyl N-(1H-benzimidazol-2-yl)carbamate
Formula: C9H9N3O2
Exact mass: 191.06948
SMILES: COC(=O)NC1=NC2=CC=CC=C2N1
InChI: InChI=1S/C9H9N3O2/c1-14-9(13)12-8-10-6-4-2-3-5-7(6)11-8/h2-5H,1H3,(H2,10,11,12,13)
Instrument: LTQ Orbitrap XL Thermo Scientific
Instrument type: LC-ESI-ITFT
Ms type: MS2
Ion mode: POSITIVE
Ionization: ESI
Fragmentation mode: HCD
Collision energy: 80% (nominal)
Resolution: 15000
Column name: Kinetex Evo C18 2.6 um 50 x 2.1 mm
Retention time: 1.117 min
Base peak: 192.0774
Precursor m/z: 192.0768
Precursor type: [M+H]+
m/z	relative intensity	assigned
90.034	1	C6H4N+
91.0544	2	C7H7+
92.0496	17	C6H6N+
105.0448	9	C6H5N2+
107.0604	1	C6H7N2+
117.0448	3	C7H5N2+
119.0493	3	C8H7O+
119.0607	1	C7H7N2+
132.0558	109	C7H6N3+
133.0636	23	C7H7N3+
135.0554	13	C7H7N2O+
148.0876	1	C8H10N3+
160.0506	999	C8H6N3O+
192.076	1	C9H10N3O2+
