Mass spectrum: Amidosulfobetaine-14; LC-ESI-ITFT; MS2; CE: 50%; R=15000; [M]+
Name: Amidosulfobetaine-14
Formula: C22H47N2O4S
Exact mass: 435.3257
SMILES: CCCCCCCCCCCCCC(=O)NCCC[N+](C)(C)CCCS(O)(=O)=O
InChI: InChI=1S/C22H46N2O4S/c1-4-5-6-7-8-9-10-11-12-13-14-17-22(25)23-18-15-19-24(2,3)20-16-21-29(26,27)28/h4-21H2,1-3H3,(H-,23,25,26,27,28)/p+1
Instrument: LTQ Orbitrap XL Thermo Scientific
Instrument type: LC-ESI-ITFT
Ms type: MS2
Ion mode: POSITIVE
Ionization: ESI
Fragmentation mode: HCD
Collision energy: 50% (nominal)
Resolution: 15000
Column name: Kinetex Evo C18 2.6 um 50 x 2.1 mm
Retention time: 13.388 min
Base peak: 371.3269
Precursor m/z: 435.3251
Precursor type: [M]+
m/z	relative intensity	assigned
57.0698	999	C4H9+
58.0651	392	C3H8N+
67.0543	167	C5H7+
69.07	319	C5H9+
71.0856	935	C5H11+
81.07	360	C6H9+
83.0856	215	C6H11+
85.1014	465	C6H13+
95.0857	874	C7H11+
97.1012	210	C7H13+
109.1014	425	C8H13+
111.117	196	C8H15+
123.117	269	C9H15+
137.1327	130	C10H17+
158.339	165	C4H46O4+
168.068	143	C11H8N2+
211.2063	631	C14H27O+
