Mass spectrum: Dicyclohexylphthalate; LC-ESI-ITFT; MS2; CE: 40%; R=15000; [M+Na]+
Name: Dicyclohexylphthalate
Name: Dicyclohexyl phthalate
Name: dicyclohexyl benzene-1,2-dicarboxylate
Formula: C20H26O4
Exact mass: 330.1831
SMILES: O=C(OC1CCCCC1)C1=CC=CC=C1C(=O)OC1CCCCC1
InChI: InChI=1S/C20H26O4/c21-19(23-15-9-3-1-4-10-15)17-13-7-8-14-18(17)20(22)24-16-11-5-2-6-12-16/h7-8,13-16H,1-6,9-12H2
Instrument: LTQ Orbitrap XL Thermo Scientific
Instrument type: LC-ESI-ITFT
Ms type: MS2
Ion mode: POSITIVE
Ionization: ESI
Fragmentation mode: HCD
Collision energy: 40 % (nominal)
Resolution: 15000
Column name: Kinetex Evo C18 2.6 um 50 x 2.1 mm
Retention time: 14.072 min
Base peak: 331.19
Precursor m/z: 353.1723
Precursor type: [M+Na]+
m/z	relative intensity	assigned
171.0048	41	C8H4NaO3+
189.0152	999	C8H6NaO4+
