Mass spectrum: Piperine; LC-ESI-ITFT; MS2; CE: 60%; R=15000; [M+H]+
Name: Piperine
Name: (2E,4E)-5-(1,3-benzodioxol-5-yl)-1-piperidin-1-ylpenta-2,4-dien-1-one
Formula: C17H19NO3
Exact mass: 285.13649
SMILES: O=C(\C=C\C=C\C1=CC2=C(OCO2)C=C1)N1CCCCC1
InChI: InChI=1S/C17H19NO3/c19-17(18-10-4-1-5-11-18)7-3-2-6-14-8-9-15-16(12-14)21-13-20-15/h2-3,6-9,12H,1,4-5,10-11,13H2/b6-2+,7-3+
Instrument: LTQ Orbitrap XL Thermo Scientific
Instrument type: LC-ESI-ITFT
Ms type: MS2
Ion mode: POSITIVE
Ionization: ESI
Fragmentation mode: HCD
Collision energy: 60% (nominal)
Resolution: 15000
Column name: Kinetex Evo C18 2.6 um 50 x 2.1 mm
Retention time: 11.792 min
Base peak: 286.1441
Precursor m/z: 286.1438
Precursor type: [M+H]+
m/z	relative intensity	assigned
69.0697	105	C5H9+
70.065	4	C4H8N+
84.0807	35	C5H10N+
86.0964	33	C5H12N+
112.0756	94	C6H10NO+
115.0541	283	C9H7+
117.0698	20	C9H9+
131.0489	5	C9H7O+
134.0963	7	C9H12N+
135.044	470	C8H7O2+
143.0491	340	C10H7O+
145.0645	7	C10H9O+
150.0914	11	C9H12NO+
151.099	57	C9H13NO+
159.044	79	C10H7O2+
161.0594	6	C10H9O2+
171.044	299	C11H7O2+
173.0595	124	C11H9O2+
185.0957	6	C13H13O+
201.0544	999	C12H9O3+
218.1177	4	C13H16NO2+
258.1485	4	C16H20NO2+
286.1436	12	C17H20NO3+
