Mass spectrum: Medroxyprogesterone; LC-ESI-ITFT; MS2; CE: 70%; R=15000; [M+H]+
Name: Medroxyprogesterone
Name: (6S,8R,9S,10R,13S,14S,17R)-17-acetyl-17-hydroxy-6,10,13-trimethyl-2,6,7,8,9,11,12,14,15,16-decahydro-1H-cyclopenta[a]phenanthren-3-one
Formula: C22H32O3
Exact mass: 344.23514
SMILES: [H][C@@]12CC[C@](O)(C(C)=O)[C@@]1(C)CC[C@@]1([H])[C@@]2([H])C[C@H](C)C2=CC(=O)CC[C@]12C
InChI: InChI=1S/C22H32O3/c1-13-11-16-17(20(3)8-5-15(24)12-19(13)20)6-9-21(4)18(16)7-10-22(21,25)14(2)23/h12-13,16-18,25H,5-11H2,1-4H3/t13-,16+,17-,18-,20+,21-,22-/m0/s1
Instrument: LTQ Orbitrap XL Thermo Scientific
Instrument type: LC-ESI-ITFT
Ms type: MS2
Ion mode: POSITIVE
Ionization: ESI
Fragmentation mode: HCD
Collision energy: 70 % (nominal)
Resolution: 15000
Column name: Kinetex Evo C18 2.6 um 50 x 2.1 mm
Retention time: 12.134 min
Base peak: 345.2422
Precursor m/z: 345.2424
Precursor type: [M+H]+
m/z	relative intensity	assigned
67.0539	22	C5H7+
69.0695	10	C5H9+
79.054	18	C6H7+
81.0334	2	C5H5O+
81.0696	24	C6H9+
83.0489	39	C5H7O+
87.0438	4	C4H7O2+
91.054	13	C7H7+
93.0697	48	C7H9+
95.0489	12	C6H7O+
95.0853	67	C7H11+
97.0646	516	C6H9O+
105.0696	45	C8H9+
107.0852	34	C8H11+
108.0568	5	C7H8O+
109.0646	26	C7H9O+
109.1009	17	C8H13+
111.0802	10	C7H11O+
117.0697	7	C9H9+
119.0853	46	C9H11+
121.0644	6	C8H9O+
121.101	24	C9H13+
123.0801	999	C8H11O+
129.0696	6	C10H9+
131.0852	24	C10H11+
133.1009	37	C10H13+
135.0801	10	C9H11O+
135.1163	6	C10H15+
137.0958	77	C9H13O+
142.0773	3	C11H10+
143.0852	14	C11H11+
144.093	3	C11H12+
145.1009	37	C11H13+
147.0802	3	C10H11O+
147.1165	28	C11H15+
149.0955	5	C10H13O+
149.1321	3	C11H17+
155.0853	5	C12H11+
157.1008	21	C12H13+
159.0809	2	C11H11O+
159.1164	27	C12H15+
161.0958	7	C11H13O+
161.1322	20	C12H17+
163.1113	6	C11H15O+
169.1006	7	C13H13+
170.1086	2	C13H14+
171.1165	18	C13H15+
173.0955	3	C12H13O+
173.1321	22	C13H17+
175.1113	4	C12H15O+
175.1477	16	C13H19+
177.1269	5	C12H17O+
181.101	2	C14H13+
183.1164	12	C14H15+
185.1321	10	C14H17+
187.1114	5	C13H15O+
187.1483	6	C14H19+
189.1269	6	C13H17O+
195.1163	2	C15H15+
197.1322	11	C15H17+
199.1108	2	C14H15O+
199.1478	9	C15H19+
201.1631	2	C15H21+
209.1315	4	C16H17+
211.1476	7	C16H19+
214.1348	18	C15H18O+
215.1424	10	C15H19O+
221.1317	2	C17H17+
223.1481	3	C17H19+
225.1632	3	C17H21+
227.1787	5	C17H23+
251.1787	5	C19H23+
257.1536	3	C17H21O2+
266.2017	2	C20H26+
267.2105	2	C20H27+
269.1897	3	C19H25O+
