Mass spectrum: Spiroxamine; LC-ESI-ITFT; MS2; CE: 70%; R=15000; [M+Na]+
Name: Spiroxamine
Name: N-[(8-tert-butyl-1,4-dioxaspiro[4.5]decan-3-yl)methyl]-N-ethylpropan-1-amine
Formula: C18H35NO2
Exact mass: 297.26678
SMILES: CCCN(CC)CC1COC2(CCC(CC2)C(C)(C)C)O1
InChI: InChI=1S/C18H35NO2/c1-6-12-19(7-2)13-16-14-20-18(21-16)10-8-15(9-11-18)17(3,4)5/h15-16H,6-14H2,1-5H3
Instrument: LTQ Orbitrap XL Thermo Scientific
Instrument type: LC-ESI-ITFT
Ms type: MS2
Ion mode: POSITIVE
Ionization: ESI
Fragmentation mode: HCD
Collision energy: 70 % (nominal)
Resolution: 15000
Column name: Kinetex Evo C18 2.6 um 50 x 2.1 mm
Retention time: 9.755 min
Base peak: 116.986
Precursor m/z: 320.256
Precursor type: [M+Na]+
m/z	relative intensity	assigned
55.054	10	C4H7+
56.0493	8	C3H6N+
57.0697	180	C4H9+
70.0651	60	C4H8N+
74.06	16	C3H8NO+
91.0544	27	C7H7+
96.0808	14	C6H10N+
98.0967	17	C6H12N+
105.0701	133	C8H9+
107.0494	9	C7H7O+
107.0858	19	C8H11+
110.0967	26	C7H12N+
114.0915	5	C6H12NO+
116.1075	7	C6H14NO+
117.0701	17	C9H9+
119.0858	171	C9H11+
128.1073	800	C7H14NO+
132.0937	173	C10H12+
132.1024	26	C6H14NO2+
147.1172	999	C11H15+
148.0887	9	C10H12O+
161.1328	26	C12H17+
163.1121	31	C11H15O+
