Mass spectrum: Benalaxyl; LC-ESI-ITFT; MS2; CE: 70%; R=15000; [M+H]+
Name: Benalaxyl
Name: Benalaxyl, (+)-
Name: methyl (2S)-2-(2,6-dimethyl-N-(2-phenylacetyl)anilino)propanoate
Formula: C20H23NO3
Exact mass: 325.16779
SMILES: COC(=O)[C@H](C)N(C(=O)CC1=CC=CC=C1)C1=C(C)C=CC=C1C
InChI: InChI=1S/C20H23NO3/c1-14-9-8-10-15(2)19(14)21(16(3)20(23)24-4)18(22)13-17-11-6-5-7-12-17/h5-12,16H,13H2,1-4H3/t16-/m0/s1
Instrument: LTQ Orbitrap XL Thermo Scientific
Instrument type: LC-ESI-ITFT
Ms type: MS2
Ion mode: POSITIVE
Ionization: ESI
Fragmentation mode: HCD
Collision energy: 70 % (nominal)
Resolution: 15000
Column name: Kinetex Evo C18 2.6 um 50 x 2.1 mm
Retention time: 12.455 min
Base peak: 326.1762
Precursor m/z: 326.1751
Precursor type: [M+H]+
m/z	relative intensity	assigned
65.0388	2	C5H5+
91.0543	999	C7H7+
105.0699	11	C8H9+
106.0652	11	C7H8N+
107.073	3	C7H9N+
107.0857	2	C8H11+
118.0649	3	C8H8N+
119.086	2	C9H11+
120.081	6	C8H10N+
121.0887	591	C8H11N+
122.0964	25	C8H12N+
131.0856	4	C10H11+
133.0887	12	C9H11N+
148.1122	956	C10H14N+
196.1121	3	C14H14N+
