Mass spectrum: ISO E Super; LC-ESI-ITFT; MS2; CE: 70%; R=15000; [M+H]+
Name: ISO E Super
Name: Isocyclemone E
Name: 1-(2,3,8,8-tetramethyl-1,3,4,5,6,7-hexahydronaphthalen-2-yl)ethanone
Formula: C16H26O
Exact mass: 234.19837
SMILES: CC1CC2=C(CC1(C)C(C)=O)C(C)(C)CCC2
InChI: InChI=1S/C16H26O/c1-11-9-13-7-6-8-15(3,4)14(13)10-16(11,5)12(2)17/h11H,6-10H2,1-5H3
Instrument: LTQ Orbitrap XL Thermo Scientific
Instrument type: LC-ESI-ITFT
Ms type: MS2
Ion mode: POSITIVE
Ionization: ESI
Fragmentation mode: HCD
Collision energy: 70 % (nominal)
Resolution: 15000
Column name: Kinetex Evo C18 2.6 um 50 x 2.1 mm
Retention time: 13.849 min
Base peak: 116.9859
Precursor m/z: 235.2056
Precursor type: [M+H]+
m/z	relative intensity	assigned
59.0491	310	C3H7O+
69.0699	346	C5H9+
81.07	236	C6H9+
93.0701	231	C7H9+
95.0856	999	C7H11+
107.0855	416	C8H11+
109.1013	532	C8H13+
119.0851	299	C9H11+
121.1013	603	C9H13+
123.1167	224	C9H15+
133.1014	200	C10H13+
135.117	192	C10H15+
147.1166	251	C11H15+
