Mass spectrum: Azinphos methyl; LC-ESI-ITFT; MS2; CE: 80%; R=15000; [M+Na]+
Name: Azinphos methyl
Name: Azinphos-methyl
Name: 3-(dimethoxyphosphinothioylsulfanylmethyl)-1,2,3-benzotriazin-4-one
Formula: C10H12N3O3PS2
Exact mass: 317.0058
SMILES: COP(=S)(OC)SCN1N=NC2=CC=CC=C2C1=O
InChI: InChI=1S/C10H12N3O3PS2/c1-15-17(18,16-2)19-7-13-10(14)8-5-3-4-6-9(8)11-12-13/h3-6H,7H2,1-2H3
Instrument: LTQ Orbitrap XL Thermo Scientific
Instrument type: LC-ESI-ITFT
Ms type: MS2
Ion mode: POSITIVE
Ionization: ESI
Fragmentation mode: HCD
Collision energy: 80% (nominal)
Resolution: 15000
Column name: Kinetex Evo C18 2.6 um 50 x 2.1 mm
Retention time: 10.667 min
Base peak: 339.9957
Precursor m/z: 339.995
Precursor type: [M+Na]+
m/z	relative intensity	assigned
75.0228	3	C6H3+
77.0384	999	C6H5+
78.0335	4	C5H4N+
92.0257	3	C6H4O+
92.05	2	C2H9N2P+
94.0413	12	C6H6O+
95.0491	187	C6H7O+
96.0443	5	C5H6NO+
102.0338	16	C7H4N+
104.0495	208	C7H6N+
105.0335	389	C7H5O+
105.0446	675	C6H5N2+
106.0415	3	C3H9NOP+
120.0444	8	C7H6NO+
124.9819	5	C2H6O2PS+
130.04	157	C7H4N3+
132.0443	141	C8H6NO+
133.0478	3	C3H7N3O3+
142.9926	2	C7H4NaS+
150.0545	2	C8H8NO2+
