Mass spectrum: Canrenone; LC-ESI-ITFT; MS2; CE: 40%; R=15000; [M+H]+
Name: Canrenone
Formula: C22H28O3
Exact mass: 340.2038
SMILES: CC12CC[C@H]3C(C=CC4=CC(=O)CCC34C)[C@@H]1CCC21CCC(=O)O1
InChI: InChI=1S/C22H28O3/c1-20-9-5-15(23)13-14(20)3-4-16-17(20)6-10-21(2)18(16)7-11-22(21)12-8-19(24)25-22/h3-4,13,16-18H,5-12H2,1-2H3/t16?,17-,18-,20?,21?,22?/m0/s1
Instrument: LTQ Orbitrap XL Thermo Scientific
Instrument type: LC-ESI-ITFT
Ms type: MS2
Ion mode: POSITIVE
Ionization: ESI
Fragmentation mode: HCD
Collision energy: 40% (nominal)
Resolution: 15000
Column name: Kinetex Evo C18 2.6 um 50 x 2.1 mm
Retention time: 11.442 min
Base peak: 289.2164
Precursor m/z: 341.2111
Precursor type: [M+H]+
m/z	relative intensity	assigned
71.0489	11	C4H7O+
79.054	39	C6H7+
81.0698	9	C6H9+
83.0489	41	C5H7O+
91.0541	34	C7H7+
93.0697	23	C7H9+
95.0853	10	C7H11+
97.0646	167	C6H9O+
99.0439	98	C5H7O2+
105.0697	56	C8H9+
107.0853	594	C8H11+
109.0645	11	C7H9O+
109.1007	4	C8H13+
111.044	5	C6H7O2+
113.0595	11	C6H9O2+
119.0853	25	C9H11+
121.0646	16	C8H9O+
121.1009	25	C9H13+
123.0803	11	C8H11O+
131.0852	20	C10H11+
133.0644	5	C9H9O+
133.1008	20	C10H13+
135.0802	29	C9H11O+
135.1164	9	C10H15+
137.0959	17	C9H13O+
143.0853	73	C11H11+
145.1009	58	C11H13+
147.0802	37	C10H11O+
147.1167	11	C11H15+
149.0959	28	C10H13O+
153.0905	16	C9H13O2+
155.0851	15	C12H11+
157.101	21	C12H13+
159.0801	33	C11H11O+
159.1166	22	C12H15+
161.0958	56	C11H13O+
163.1113	28	C11H15O+
165.0906	25	C10H13O2+
167.1064	18	C10H15O2+
169.1009	129	C13H13+
171.0801	11	C12H11O+
171.1166	13	C13H15+
173.0957	138	C12H13O+
175.1115	77	C12H15O+
177.127	13	C12H17O+
179.1063	52	C11H15O2+
181.1014	8	C14H13+
181.1222	6	C11H17O2+
183.1166	19	C14H15+
185.1323	20	C14H17+
187.1114	425	C13H15O+
189.127	10	C13H17O+
193.1218	4	C12H17O2+
195.116	8	C15H15+
197.1317	5	C15H17+
199.1115	18	C14H15O+
199.1473	5	C15H19+
201.1275	10	C14H17O+
205.1219	159	C13H17O2+
207.1168	3	C16H15+
207.1374	6	C13H19O2+
209.132	21	C16H17+
211.1121	5	C15H15O+
213.1272	15	C15H17O+
215.1422	5	C15H19O+
217.1229	4	C14H17O2+
219.138	4	C14H19O2+
221.1316	11	C17H17+
223.1475	11	C17H19+
225.1275	6	C16H17O+
225.1634	6	C17H21+
227.1427	21	C16H19O+
231.1379	5	C15H19O2+
235.1478	8	C18H19+
237.1636	4	C18H21+
239.1435	5	C17H19O+
241.1583	19	C17H21O+
243.1742	10	C17H23O+
245.1531	14	C16H21O2+
247.1478	4	C19H19+
253.1587	4	C18H21O+
257.1533	10	C17H21O2+
259.1685	21	C17H23O2+
263.1434	4	C19H19O+
263.1789	15	C20H23+
265.1581	26	C19H21O+
268.182	6	C19H24O+
271.1683	4	C18H23O2+
277.1943	4	C21H25+
279.1739	16	C20H23O+
281.1893	22	C20H25O+
283.1687	106	C19H23O2+
287.1786	11	C22H23+
295.2057	13	C21H27O+
297.1839	12	C20H25O2+
305.1892	38	C22H25O+
323.1999	72	C22H27O2+
341.2103	999	C22H29O3+
