Mass spectrum: Linuron; LC-ESI-ITFT; MS2; CE: 90%; R=15000; [M+H]+
Name: Linuron
Name: 3-(3,4-dichlorophenyl)-1-methoxy-1-methylurea
Formula: C9H10Cl2N2O2
Exact mass: 248.0119
SMILES: CON(C)C(=O)NC1=CC=C(Cl)C(Cl)=C1
InChI: InChI=1S/C9H10Cl2N2O2/c1-13(15-2)9(14)12-6-3-4-7(10)8(11)5-6/h3-5H,1-2H3,(H,12,14)
Instrument: LTQ Orbitrap XL Thermo Scientific
Instrument type: LC-ESI-ITFT
Ms type: MS2
Ion mode: POSITIVE
Ionization: ESI
Fragmentation mode: HCD
Collision energy: 90% (nominal)
Resolution: 15000
Column name: Kinetex Evo C18 2.6 um 50 x 2.1 mm
Retention time: 10.660 min
Base peak: 249.02
Precursor m/z: 249.0192
Precursor type: [M+H]+
m/z	relative intensity	assigned
58.0286	8	C2H4NO+
60.0442	39	C2H6NO+
62.0598	12	C2H8NO+
90.0338	29	C6H4N+
119.0603	9	C7H7N2+
123.9949	94	C6H3ClN+
125.0027	520	C6H4ClN+
126.0104	51	C6H5ClN+
132.9606	999	C5H3Cl2+
133.9685	36	C5H4Cl2+
142.0056	5	C6H5ClNO+
153.0214	358	C7H6ClN2+
159.9716	305	C6H4Cl2N+
160.9793	605	C6H5Cl2N+
165.0216	19	C8H6ClN2+
167.0003	10	C7H4ClN2O+
173.9869	8	C7H6Cl2N+
181.0163	117	C8H6ClN2O+
182.0242	72	C8H7ClN2O+
216.9929	24	C8H7Cl2N2O+
