Mass spectrum: Lauryl diethanolamide; LC-ESI-ITFT; MS2; CE: 50%; R=15000; [M+H]+
Name: Lauryl diethanolamide
Name: N,N-bis(2-hydroxyethyl)dodecanamide
Formula: C16H33NO3
Exact mass: 287.2460
SMILES: CCCCCCCCCCCC(=O)N(CCO)CCO
InChI: InChI=1S/C16H33NO3/c1-2-3-4-5-6-7-8-9-10-11-16(20)17(12-14-18)13-15-19/h18-19H,2-15H2,1H3
Instrument: LTQ Orbitrap XL Thermo Scientific
Instrument type: LC-ESI-ITFT
Ms type: MS2
Ion mode: POSITIVE
Ionization: ESI
Fragmentation mode: HCD
Collision energy: 50 % (nominal)
Resolution: 15000
Column name: Kinetex Evo C18 2.6 um 50 x 2.1 mm
Retention time: 12.827 min
Base peak: 288.2538
Precursor m/z: 288.2533
Precursor type: [M+H]+
m/z	relative intensity	assigned
67.054	12	C5H7+
69.0696	2	C5H9+
70.0649	143	C4H8N+
71.0853	38	C5H11+
73.0283	2	C3H5O2+
81.0697	15	C6H9+
83.0854	10	C6H11+
85.101	24	C6H13+
88.0756	762	C4H10NO+
95.0854	41	C7H11+
97.1011	6	C7H13+
106.0861	999	C4H12NO2+
109.101	20	C8H13+
123.1166	4	C9H15+
135.0224	2	C11H3+
165.1634	1	C12H21+
226.2166	3	C14H28NO+
227.2004	318	C14H27O2+
270.2425	45	C16H32NO2+
