Mass spectrum: Ciclopirox; LC-ESI-ITFT; MS2; CE: 60%; R=15000; [M+H]+
Name: Ciclopirox
Name: 6-cyclohexyl-1-hydroxy-4-methylpyridin-2-one
Formula: C12H17NO2
Exact mass: 207.1259
SMILES: CC1=CC(=O)N(O)C(=C1)C1CCCCC1
InChI: InChI=1S/C12H17NO2/c1-9-7-11(13(15)12(14)8-9)10-5-3-2-4-6-10/h7-8,10,15H,2-6H2,1H3
Instrument: LTQ Orbitrap XL Thermo Scientific
Instrument type: LC-ESI-ITFT
Ms type: MS2
Ion mode: POSITIVE
Ionization: ESI
Fragmentation mode: HCD
Collision energy: 60% (nominal)
Resolution: 15000
Column name: Kinetex Evo C18 2.6 um 50 x 2.1 mm
Retention time: 11.858 min
Base peak: 116.9863
Precursor m/z: 208.1332
Precursor type: [M+H]+
m/z	relative intensity	assigned
53.0385	54	C4H5+
55.0542	28	C4H7+
67.0543	9	C5H7+
79.0545	17	C6H7+
80.0497	52	C5H6N+
81.0702	126	C6H9+
82.0654	44	C5H8N+
91.0546	14	C7H7+
93.0703	12	C7H9+
94.0655	100	C6H8N+
105.0703	30	C8H9+
106.0656	11	C7H8N+
108.0448	23	C6H6NO+
108.0811	8	C7H10N+
110.0602	12	C6H8NO+
120.0813	30	C8H10N+
122.0606	44	C7H8NO+
123.0683	91	C7H9NO+
124.076	10	C7H10NO+
126.055	7	C6H8NO2+
134.0595	5	C8H8NO+
134.0969	10	C9H12N+
136.0762	174	C8H10NO+
137.084	24	C8H11NO+
145.1014	7	C11H13+
148.0762	22	C9H10NO+
150.092	15	C9H12NO+
162.092	59	C10H12NO+
162.1284	94	C11H16N+
176.1077	8	C11H14NO+
190.1233	32	C12H16NO+
191.1314	9	C12H17NO+
208.1339	999	C12H18NO2+
