Mass spectrum: DEET; LC-ESI-ITFT; MS2; CE: 50%; R=15000; [M+Na]+
Name: DEET
Name: Diethyltoluamide
Name: N,N-diethyl-3-methylbenzamide
Formula: C12H17NO
Exact mass: 191.13101
SMILES: CCN(CC)C(=O)C1=CC=CC(C)=C1
InChI: InChI=1S/C12H17NO/c1-4-13(5-2)12(14)11-8-6-7-10(3)9-11/h6-9H,4-5H2,1-3H3
Instrument: LTQ Orbitrap XL Thermo Scientific
Instrument type: LC-ESI-ITFT
Ms type: MS2
Ion mode: POSITIVE
Ionization: ESI
Fragmentation mode: HCD
Collision energy: 50% (nominal)
Resolution: 15000
Column name: Kinetex Evo C18 2.6 um 50 x 2.1 mm
Retention time: 9.987 min
Base peak: 192.1389
Precursor m/z: 214.1202
Precursor type: [M+Na]+
m/z	relative intensity	assigned
214.1202	999	C12H17NNaO+
