Mass spectrum: Dodemorph; LC-ESI-ITFT; MS2; CE: 50%; R=15000; [M+Na]+
Name: Dodemorph
Name: 4-cyclododecyl-2,6-dimethylmorpholine
Formula: C18H35NO
Exact mass: 281.2719
SMILES: CC1CN(CC(C)O1)C1CCCCCCCCCCC1
InChI: InChI=1S/C18H35NO/c1-16-14-19(15-17(2)20-16)18-12-10-8-6-4-3-5-7-9-11-13-18/h16-18H,3-15H2,1-2H3
Instrument: LTQ Orbitrap XL Thermo Scientific
Instrument type: LC-ESI-ITFT
Ms type: MS2
Ion mode: POSITIVE
Ionization: ESI
Fragmentation mode: HCD
Collision energy: 50% (nominal)
Resolution: 15000
Column name: Kinetex Evo C18 2.6 um 50 x 2.1 mm
Retention time: 9.321 min
Base peak: 304.2633
Precursor m/z: 304.2611
Precursor type: [M+Na]+
m/z	relative intensity	assigned
70.0649	3	C4H8N+
72.0806	6	C4H10N+
88.0756	3	C4H10NO+
91.0542	7	C7H7+
98.0964	135	C6H12N+
102.0913	6	C5H12NO+
105.0699	8	C8H9+
112.1121	6	C7H14N+
114.0915	3	C6H12NO+
116.107	238	C6H14NO+
119.0855	9	C9H11+
128.1071	3	C7H14NO+
130.1227	279	C7H16NO+
131.0857	2	C10H11+
132.0934	2	C10H12+
133.1013	4	C10H13+
147.1169	613	C11H15+
161.1324	17	C12H17+
189.1636	51	C14H21+
246.2214	1	C17H28N+
248.2	9	C16H26NO+
304.2625	999	C18H35NNaO+
