Mass spectrum: Azoxystrobin acid; LC-ESI-ITFT; MS2; CE: 60%; R=15000; [M+H]+
Name: Azoxystrobin acid
Name: (E)-2-[2-[6-(2-cyanophenoxy)pyrimidin-4-yl]oxyphenyl]-3-methoxyprop-2-enoic acid
Formula: C21H15N3O5
Exact mass: 389.10117
SMILES: CO\C=C(\C(O)=O)c1ccccc1Oc1cc(Oc2ccccc2C#N)ncn1
InChI: InChI=1S/C21H15N3O5/c1-27-12-16(21(25)26)15-7-3-5-9-18(15)29-20-10-19(23-13-24-20)28-17-8-4-2-6-14(17)11-22/h2-10,12-13H,1H3,(H,25,26)/b16-12+
Instrument: LTQ Orbitrap XL Thermo Scientific
Instrument type: LC-ESI-ITFT
Ms type: MS2
Ion mode: POSITIVE
Ionization: ESI
Fragmentation mode: HCD
Collision energy: 60 % (nominal)
Resolution: 15000
Column name: Kinetex Evo C18 2.6 um 50 x 2.1 mm
Retention time: 10.598 min
Base peak: 272.0963
Precursor m/z: 390.1084
Precursor type: [M+H]+
m/z	relative intensity	assigned
91.0542	12	C7H7+
107.0496	20	C7H7O+
133.0528	79	C8H7NO+
134.0606	234	C8H8NO+
145.0291	33	C9H5O2+
145.0528	76	C9H7NO+
156.0451	204	C10H6NO+
172.0401	308	C10H6NO2+
182.072	38	C13H10O+
183.0562	685	C11H7N2O+
187.0511	41	C10H7N2O2+
199.0511	131	C11H7N2O2+
201.043	220	C11H7NO3+
201.0667	44	C11H9N2O2+
210.0433	209	C12H6N2O2+
210.0668	24	C12H8N3O+
211.0507	53	C12H7N2O2+
216.0664	108	C12H10NO3+
272.083	149	C19H12O2+
273.0909	107	C19H13O2+
275.0826	19	C17H11N2O2+
287.0827	33	C18H11N2O2+
300.0777	120	C20H12O3+
301.0858	289	C20H13O3+
314.0919	13	C19H12N3O2+
328.0726	316	C21H12O4+
329.0806	999	C21H13O4+
344.1045	92	C20H14N3O3+
