Mass spectrum: Ciprofloxacin; LC-ESI-ITFT; MS2; CE: 50%; R=15000; [M+H]+
Name: Ciprofloxacin
Name: 1-cyclopropyl-6-fluoro-4-oxo-7-piperazin-1-ylquinoline-3-carboxylic acid
Formula: C17H18FN3O3
Exact mass: 331.13322
SMILES: OC(=O)C1=CN(C2CC2)C2=C(C=C(F)C(=C2)N2CCNCC2)C1=O
InChI: InChI=1S/C17H18FN3O3/c18-13-7-11-14(8-15(13)20-5-3-19-4-6-20)21(10-1-2-10)9-12(16(11)22)17(23)24/h7-10,19H,1-6H2,(H,23,24)
Instrument: LTQ Orbitrap XL Thermo Scientific
Instrument type: LC-ESI-ITFT
Ms type: MS2
Ion mode: POSITIVE
Ionization: ESI
Fragmentation mode: HCD
Collision energy: 50 % (nominal)
Resolution: 15000
Column name: Kinetex Evo C18 2.6 um 50 x 2.1 mm
Retention time: 5.188 min
Base peak: 218.0851
Precursor m/z: 332.1405
Precursor type: [M+H]+
m/z	relative intensity	assigned
58.0652	11	C3H8N+
70.0653	61	C4H8N+
184.0641	7	C8H9FN2O2+
189.0463	11	C10H6FN2O+
191.0624	50	C10H8FN2O+
203.0623	106	C11H8FN2O+
203.075	13	C12H10FNO+
203.0985	8	C12H12FN2+
204.0701	172	C11H9FN2O+
205.078	144	C11H10FN2O+
217.0781	31	C12H10FN2O+
218.0857	22	C12H11FN2O+
219.0934	21	C12H12FN2O+
227.1051	22	C13H13N3O+
231.0572	79	C12H8FN2O2+
231.0937	157	C13H12FN2O+
232.0894	10	C17H12O+
240.1141	21	C14H14N3O+
245.1094	999	C14H14FN2O+
268.1453	114	C13H19FN3O2+
286.1363	36	C16H17FN3O+
288.1516	321	C16H19FN3O+
294.1243	9	C14H17FN3O3+
314.1308	225	C17H17FN3O2+
332.1414	152	C17H19FN3O3+
