Mass spectrum: 4-Androstene-3,17-dione; LC-ESI-ITFT; MS2; CE: 70%; R=15000; [M+H]+
Name: 4-Androstene-3,17-dione
Name: Androstenedione
Name: (8R,9S,10R,13S,14S)-10,13-dimethyl-2,6,7,8,9,11,12,14,15,16-decahydro-1H-cyclopenta[a]phenanthrene-3,17-dione
Formula: C19H26O2
Exact mass: 286.19328
SMILES: C[C@]12CC[C@H]3[C@@H](CCC4=CC(=O)CC[C@]34C)[C@@H]1CCC2=O
InChI: InChI=1S/C19H26O2/c1-18-9-7-13(20)11-12(18)3-4-14-15-5-6-17(21)19(15,2)10-8-16(14)18/h11,14-16H,3-10H2,1-2H3/t14-,15-,16-,18-,19-/m0/s1
Instrument: LTQ Orbitrap XL Thermo Scientific
Instrument type: LC-ESI-ITFT
Ms type: MS2
Ion mode: POSITIVE
Ionization: ESI
Fragmentation mode: HCD
Collision energy: 70% (nominal)
Resolution: 15000
Column name: Kinetex Evo C18 2.6 um 50 x 2.1 mm
Retention time: 11.075 min
Base peak: 287.2005
Precursor m/z: 287.2006
Precursor type: [M+H]+
m/z	relative intensity	assigned
69.0696	13	C5H9+
79.054	42	C6H7+
81.0696	48	C6H9+
83.0489	31	C5H7O+
91.054	13	C7H7+
93.0697	24	C7H9+
95.049	2	C6H7O+
95.0853	22	C7H11+
97.0645	999	C6H9O+
105.0696	27	C8H9+
107.0852	21	C8H11+
109.0645	778	C7H9O+
117.0694	7	C9H9+
119.0852	28	C9H11+
121.0645	5	C8H9O+
121.1009	12	C9H13+
123.0801	115	C8H11O+
131.0851	18	C10H11+
133.1008	29	C10H13+
135.0804	3	C9H11O+
135.1164	6	C10H15+
137.0958	4	C9H13O+
143.0851	11	C11H11+
145.1008	30	C11H13+
147.1163	10	C11H15+
157.1008	11	C12H13+
159.1165	16	C12H15+
161.0954	2	C11H13O+
161.1323	4	C12H17+
169.1008	9	C13H13+
171.1164	11	C13H15+
173.1321	15	C13H17+
181.1006	2	C14H13+
183.1166	8	C14H15+
185.1319	13	C14H17+
187.1476	5	C14H19+
195.1163	3	C15H15+
199.1472	3	C15H19+
209.1317	5	C16H17+
211.1477	8	C16H19+
229.1596	3	C16H21O+
