Mass spectrum: Ametryn; LC-ESI-ITFT; MS2; CE: 70%; R=15000; [M+Na]+
Name: Ametryn
Name: 4-N-ethyl-6-methylsulfanyl-2-N-propan-2-yl-1,3,5-triazine-2,4-diamine
Formula: C9H17N5S
Exact mass: 227.12047
SMILES: CCNC1=NC(SC)=NC(NC(C)C)=N1
InChI: InChI=1S/C9H17N5S/c1-5-10-7-12-8(11-6(2)3)14-9(13-7)15-4/h6H,5H2,1-4H3,(H2,10,11,12,13,14)
Instrument: LTQ Orbitrap XL Thermo Scientific
Instrument type: LC-ESI-ITFT
Ms type: MS2
Ion mode: POSITIVE
Ionization: ESI
Fragmentation mode: HCD
Collision energy: 70% (nominal)
Resolution: 15000
Column name: Kinetex Evo C18 2.6 um 50 x 2.1 mm
Retention time: 8.577 min
Base peak: 228.1282
Precursor m/z: 250.1097
Precursor type: [M+Na]+
m/z	relative intensity	assigned
55.054	170	C4H7+
67.0542	330	C5H7+
69.0699	293	C5H9+
79.0544	590	C6H7+
81.07	368	C6H9+
82.0653	144	C5H8N+
91.0545	519	C7H7+
92.0497	63	C6H6N+
93.0702	849	C7H9+
94.0654	102	C6H8N+
95.0858	276	C7H11+
103.0547	103	C8H7+
105.0703	999	C8H9+
107.0859	457	C8H11+
117.0703	105	C4H14NaS+
119.0861	142	C4H16NaS+
121.1016	203	C9H13+
122.0968	91	C8H12N+
129.0707	99	C5H14NaS+
131.086	645	C5H16NaS+
134.097	161	C4H17NNaS+
146.097	52	C5H17NNaS+
158.0974	55	C6H17NNaS+
162.0917	181	C3H15N4NaS+
174.0915	153	C4H15N4NaS+
176.1074	315	C4H17N4NaS+
188.1073	495	C5H17N4NaS+
