Mass spectrum: Thiacloprid; LC-ESI-ITFT; MS2; CE: 20%; R=15000; [M+H]+
Name: Thiacloprid
Name: CID 6011129
Name: (E)-[3-[(6-chloropyridin-3-yl)methyl]-1,3-thiazolidin-2-ylidene]cyanamide
Formula: C10H9ClN4S
Exact mass: 252.02364
SMILES: ClC1=CC=C(CN2CCS\C2=N\C#N)C=N1
InChI: InChI=1S/C10H9ClN4S/c11-9-2-1-8(5-13-9)6-15-3-4-16-10(15)14-7-12/h1-2,5H,3-4,6H2/b14-10+
Instrument: LTQ Orbitrap XL Thermo Scientific
Instrument type: LC-ESI-ITFT
Ms type: MS2
Ion mode: POSITIVE
Ionization: ESI
Fragmentation mode: HCD
Collision energy: 20% (nominal)
Resolution: 15000
Column name: Kinetex Evo C18 2.6 um 50 x 2.1 mm
Retention time: 7.735 min
Base peak: 253.0316
Precursor m/z: 253.0309
Precursor type: [M+H]+
m/z	relative intensity	assigned
126.0104	116	C6H5ClN+
186.0137	19	C8H9ClNS+
211.009	4	C9H8ClN2S+
217.0537	3	C10H9N4S+
226.0202	5	C9H9ClN3S+
236.0035	1	C10H7ClN3S+
253.0308	999	C10H10ClN4S+
