Mass spectrum: Quinmerac; LC-ESI-ITFT; MS2; CE: 80%; R=15000; [M+H]+
Name: Quinmerac
Name: 7-chloro-3-methylquinoline-8-carboxylic acid
Formula: C11H8ClNO2
Exact mass: 221.02436
SMILES: CC1=CC2=C(N=C1)C(C(O)=O)=C(Cl)C=C2
InChI: InChI=1S/C11H8ClNO2/c1-6-4-7-2-3-8(12)9(11(14)15)10(7)13-5-6/h2-5H,1H3,(H,14,15)
Instrument: LTQ Orbitrap XL Thermo Scientific
Instrument type: LC-ESI-ITFT
Ms type: MS2
Ion mode: POSITIVE
Ionization: ESI
Fragmentation mode: HCD
Collision energy: 80 % (nominal)
Resolution: 15000
Column name: Kinetex Evo C18 2.6 um 50 x 2.1 mm
Retention time: 6.338 min
Base peak: 222.0432
Precursor m/z: 222.0316
Precursor type: [M+H]+
m/z	relative intensity	assigned
63.9946	24	C4O+
65.0383	233	C5H5+
73.9791	5	C2HClN+
75.9946	26	C2H3ClN+
77.0384	436	C6H5+
87.9947	99	C3H3ClN+
92.0493	999	C6H6N+
93.0571	88	C6H7N+
94.0649	217	C6H8N+
95.049	91	C6H7O+
101.974	21	C3HClNO+
102.0466	2	C8H6+
103.0541	8	C8H7+
104.0493	762	C7H6N+
106.0648	2	C7H8N+
115.054	6	C9H7+
116.0492	8	C8H6N+
116.9974	19	C4H4ClNO+
117.0569	5	C8H7N+
119.0006	7	C6HNO2+
120.0442	9	C7H6NO+
125.0152	7	C7H6Cl+
130.0648	54	C9H8N+
132.0441	24	C8H6NO+
133.0519	2	C8H7NO+
140.0258	7	C10H4O+
140.0492	8	C10H6N+
141.057	11	C10H7N+
149.015	33	C9H6Cl+
158.06	11	C10H8NO+
166.0051	3	C11H2O2+
176.0261	10	C10H7ClN+
178.0047	7	C9H5ClNO+
193.0286	77	C10H8ClNO+
204.0207	17	C11H7ClNO+
