Mass spectrum: (Methoxymethyl)triphenylphosphonium; LC-ESI-ITFT; MS2; CE: 80%; R=15000; [M]+
Name: (Methoxymethyl)triphenylphosphonium
Name: methoxymethyl(triphenyl)phosphanium
Formula: C20H20OP
Exact mass: 307.1252
SMILES: COC[P+](C1=CC=CC=C1)(C1=CC=CC=C1)C1=CC=CC=C1
InChI: InChI=1S/C20H20OP/c1-21-17-22(18-11-5-2-6-12-18,19-13-7-3-8-14-19)20-15-9-4-10-16-20/h2-16H,17H2,1H3/q+1
Instrument: LTQ Orbitrap XL Thermo Scientific
Instrument type: LC-ESI-ITFT
Ms type: MS2
Ion mode: POSITIVE
Ionization: ESI
Fragmentation mode: HCD
Collision energy: 80 % (nominal)
Resolution: 15000
Column name: Kinetex Evo C18 2.6 um 50 x 2.1 mm
Retention time: 7.556 min
Base peak: 307.1251
Precursor m/z: 307.1246
Precursor type: [M]+
m/z	relative intensity	assigned
79.0542	12	C6H7+
91.0541	20	C7H7+
107.0044	21	C6H4P+
108.0123	291	C6H5P+
109.0201	4	C6H6P+
141.0699	18	C11H9+
152.062	42	C12H8+
154.0772	5	C12H10+
159.0359	4	C10H8P+
165.0696	21	C13H9+
170.0283	6	C11H7P+
183.0357	999	C12H8P+
185.0512	193	C12H10P+
196.0439	5	C13H9P+
197.0515	10	C13H10P+
199.0674	5	C13H12P+
261.0824	169	C18H14P+
262.0911	46	C18H15P+
263.0982	46	C18H16P+
277.1138	63	C19H18P+
