Mass spectrum: Androsterone; LC-ESI-ITFT; MS2; CE: 60%; R=15000; [M+Na]+
Name: Androsterone
Name: (3R,5S,8R,9S,10S,13S,14S)-3-hydroxy-10,13-dimethyl-1,2,3,4,5,6,7,8,9,11,12,14,15,16-tetradecahydrocyclopenta[a]phenanthren-17-one
Formula: C19H30O2
Exact mass: 290.2246
SMILES: C[C@]12CC[C@H]3[C@@H](CC[C@H]4C[C@H](O)CC[C@]34C)[C@@H]1CCC2=O
InChI: InChI=1S/C19H30O2/c1-18-9-7-13(20)11-12(18)3-4-14-15-5-6-17(21)19(15,2)10-8-16(14)18/h12-16,20H,3-11H2,1-2H3/t12-,13+,14-,15-,16-,18-,19-/m0/s1
Instrument: LTQ Orbitrap XL Thermo Scientific
Instrument type: LC-ESI-ITFT
Ms type: MS2
Ion mode: POSITIVE
Ionization: ESI
Fragmentation mode: HCD
Collision energy: 60% (nominal)
Resolution: 15000
Column name: Kinetex Evo C18 2.6 um 50 x 2.1 mm
Retention time: 11.688 min
Base peak: 313.2155
Precursor m/z: 313.2138
Precursor type: [M+Na]+
m/z	relative intensity	assigned
79.054	197	C6H7+
81.0332	23	C5H5O+
81.0696	220	C6H9+
83.0489	355	C5H7O+
91.054	326	C7H7+
93.0697	285	C7H9+
95.049	28	C6H7O+
95.0853	191	C7H11+
97.0647	40	C6H9O+
103.0541	15	C8H7+
105.0697	316	C8H9+
107.049	183	C7H7O+
107.0854	180	C8H11+
109.0646	999	C7H9O+
109.101	91	C8H13+
111.0803	8	C7H11O+
115.0541	22	C9H7+
116.0621	23	C9H8+
117.0697	223	C9H9+
119.0854	277	C9H11+
121.0645	43	C8H9O+
121.101	98	C9H13+
123.0802	139	C8H11O+
123.1167	104	C9H15+
125.0959	25	C8H13O+
128.0619	25	C10H8+
129.0697	167	C10H9+
130.0775	28	C10H10+
131.0853	306	C10H11+
133.0647	48	C9H9O+
133.101	251	C10H13+
135.0802	251	C9H11O+
135.1167	102	C10H15+
137.0957	25	C9H13O+
137.1324	18	C10H17+
141.0696	40	C11H9+
142.0775	48	C11H10+
143.0853	199	C11H11+
144.0928	30	C11H12+
145.101	285	C11H13+
147.0802	58	C10H11O+
147.1166	75	C11H15+
149.0959	148	C10H13O+
149.1321	34	C11H17+
151.1115	12	C10H15O+
154.077	14	C12H10+
155.0853	78	C12H11+
156.0928	26	C12H12+
157.0646	10	C11H9O+
157.1009	200	C12H13+
159.0801	43	C11H11O+
159.1166	147	C12H15+
161.0959	115	C11H13O+
161.1323	34	C12H17+
163.1115	77	C11H15O+
163.1477	10	C12H19+
165.0697	10	C13H9+
167.0852	41	C13H11+
168.0932	15	C13H12+
169.1008	88	C13H13+
170.1086	20	C13H14+
171.1164	126	C13H15+
173.0955	20	C12H13O+
173.1321	58	C13H17+
175.1113	56	C12H15O+
175.1477	65	C13H19+
179.0856	15	C14H11+
181.1008	47	C14H13+
183.1163	80	C14H15+
185.0957	18	C13H13O+
185.132	135	C14H17+
187.1112	17	C13H15O+
187.1477	56	C14H19+
188.1189	16	C13H16O+
189.1269	34	C13H17O+
193.1006	24	C15H13+
195.1164	37	C15H15+
196.1249	11	C15H16+
197.1321	40	C15H17+
199.1109	11	C14H15O+
199.1477	43	C15H19+
201.1268	28	C14H17O+
201.1631	13	C15H21+
203.1425	12	C14H19O+
207.1161	23	C16H15+
208.1251	8	C16H16+
209.1318	27	C16H17+
211.1112	9	C15H15O+
211.1471	13	C16H19+
215.1428	10	C15H19O+
219.1174	8	C17H15+
220.1242	11	C17H16+
221.1317	17	C17H17+
223.1472	11	C17H19+
225.1267	10	C16H17O+
225.1632	19	C17H21+
227.1786	63	C17H23+
235.1475	8	C18H19+
237.163	21	C18H21+
239.1413	7	C15H20NaO+
241.158	6	C17H21O+
245.189	112	C17H25O+
251.1772	7	C17H24Na+
313.215	7	C19H30NaO2+
