Mass spectrum: Testosterone; LC-ESI-ITFT; MS2; CE: 80%; R=15000; [M+H]+
Name: Testosterone
Name: (8R,9S,10R,13S,14S,17S)-17-hydroxy-10,13-dimethyl-1,2,6,7,8,9,11,12,14,15,16,17-dodecahydrocyclopenta[a]phenanthren-3-one
Formula: C19H28O2
Exact mass: 288.2089
SMILES: C[C@]12CC[C@H]3[C@@H](CCC4=CC(=O)CC[C@]34C)[C@@H]1CC[C@@H]2O
InChI: InChI=1S/C19H28O2/c1-18-9-7-13(20)11-12(18)3-4-14-15-5-6-17(21)19(15,2)10-8-16(14)18/h11,14-17,21H,3-10H2,1-2H3/t14-,15-,16-,17-,18-,19-/m0/s1
Instrument: LTQ Orbitrap XL Thermo Scientific
Instrument type: LC-ESI-ITFT
Ms type: MS2
Ion mode: POSITIVE
Ionization: ESI
Fragmentation mode: HCD
Collision energy: 80% (nominal)
Resolution: 15000
Column name: Kinetex Evo C18 2.6 um 50 x 2.1 mm
Retention time: 11.403 min
Base peak: 289.2162
Precursor m/z: 289.2162
Precursor type: [M+H]+
m/z	relative intensity	assigned
67.0539	30	C5H7+
69.0333	3	C4H5O+
69.0696	23	C5H9+
77.0383	6	C6H5+
79.054	99	C6H7+
81.0696	135	C6H9+
83.0489	40	C5H7O+
91.054	49	C7H7+
93.0697	78	C7H9+
95.049	5	C6H7O+
95.0853	67	C7H11+
97.0646	999	C6H9O+
105.0696	72	C8H9+
107.0491	4	C7H7O+
107.0853	44	C8H11+
109.0645	981	C7H9O+
111.0801	2	C7H11O+
117.0697	11	C9H9+
119.0852	48	C9H11+
121.0644	14	C8H9O+
121.101	22	C9H13+
123.0801	138	C8H11O+
129.0695	6	C10H9+
130.0779	2	C10H10+
131.0852	22	C10H11+
133.1009	23	C10H13+
135.1168	6	C10H15+
137.0954	5	C9H13O+
142.0771	3	C11H10+
143.0854	11	C11H11+
144.0927	2	C11H12+
145.1008	23	C11H13+
147.1164	17	C11H15+
149.0958	3	C10H13O+
155.0852	4	C12H11+
156.0935	2	C12H12+
157.1009	14	C12H13+
159.1164	19	C12H15+
161.1321	6	C12H17+
163.1109	4	C11H15O+
169.1008	6	C13H13+
171.1166	6	C13H15+
173.132	4	C13H17+
177.1266	3	C12H17O+
183.1164	4	C14H15+
185.1326	2	C14H17+
187.1479	4	C14H19+
197.1327	3	C15H17+
199.1482	2	C15H19+
213.1633	2	C16H21+
