Mass spectrum: 2-Acetonaphthone; LC-ESI-ITFT; MS2; CE: 60%; R=15000; [M+H]+
Name: 2-Acetonaphthone
Name: 1-naphthalen-2-ylethanone
Formula: C12H10O
Exact mass: 170.07316
SMILES: CC(=O)C1=CC=C2C=CC=CC2=C1
InChI: InChI=1S/C12H10O/c1-9(13)11-7-6-10-4-2-3-5-12(10)8-11/h2-8H,1H3
Instrument: LTQ Orbitrap XL Thermo Scientific
Instrument type: LC-ESI-ITFT
Ms type: MS2
Ion mode: POSITIVE
Ionization: ESI
Fragmentation mode: HCD
Collision energy: 60% (nominal)
Resolution: 15000
Column name: Kinetex Evo C18 2.6 um 50 x 2.1 mm
Retention time: 10.439 min
Base peak: 116.9861
Precursor m/z: 171.0804
Precursor type: [M+H]+
m/z	relative intensity	assigned
83.0857	179	C6H11+
129.0701	528	C10H9+
171.0808	999	C12H11O+
