Mass spectrum: Nitrendipin; LC-ESI-ITFT; MS2; CE: 100%; R=15000; [M-H]-
Name: Nitrendipin
Name: Nitrendipine
Name: 5-O-ethyl 3-O-methyl 2,6-dimethyl-4-(3-nitrophenyl)-1,4-dihydropyridine-3,5-dicarboxylate
Formula: C18H20N2O6
Exact mass: 360.1321
SMILES: CCOC(=O)C1=C(C)NC(C)=C(C1C1=CC=CC(=C1)[N+]([O-])=O)C(=O)OC
InChI: InChI=1S/C18H20N2O6/c1-5-26-18(22)15-11(3)19-10(2)14(17(21)25-4)16(15)12-7-6-8-13(9-12)20(23)24/h6-9,16,19H,5H2,1-4H3
Instrument: LTQ Orbitrap XL Thermo Scientific
Instrument type: LC-ESI-ITFT
Ms type: MS2
Ion mode: NEGATIVE
Ionization: ESI
Fragmentation mode: HCD
Collision energy: 100 % (nominal)
Resolution: 15000
Column name: Kinetex Evo C18 2.6 um 50 x 2.1 mm
Retention time: 11.661 min
Base peak: 286.1462
Precursor m/z: 359.1249
Precursor type: [M-H]-
m/z	relative intensity	assigned
141.0708	252	C11H9-
152.0631	374	C12H8-
153.0709	366	C12H9-
154.0656	168	C11H8N-
155.061	176	C10H7N2-
167.0739	620	C12H9N-
168.0818	999	C12H10N-
179.0733	129	C13H9N-
180.0822	892	C13H10N-
181.0897	357	C13H11N-
182.0978	389	C13H12N-
198.0931	414	C13H12NO-
210.0926	432	C14H12NO-
