Mass spectrum: Imazapyr; LC-ESI-ITFT; MS2; CE: 30%; R=15000; [M+Na]+
Name: Imazapyr
Name: 2-(4-methyl-5-oxo-4-propan-2-yl-1H-imidazol-2-yl)pyridine-3-carboxylic acid
Formula: C13H15N3O3
Exact mass: 261.1113
SMILES: CC(C)C1(C)N=C(NC1=O)C1=NC=CC=C1C(O)=O
InChI: InChI=1S/C13H15N3O3/c1-7(2)13(3)12(19)15-10(16-13)9-8(11(17)18)5-4-6-14-9/h4-7H,1-3H3,(H,17,18)(H,15,16,19)
Instrument: LTQ Orbitrap XL Thermo Scientific
Instrument type: LC-ESI-ITFT
Ms type: MS2
Ion mode: POSITIVE
Ionization: ESI
Fragmentation mode: HCD
Collision energy: 30 % (nominal)
Resolution: 15000
Column name: Kinetex Evo C18 2.6 um 50 x 2.1 mm
Retention time: 5.822 min
Base peak: 262.1187
Precursor m/z: 284.1006
Precursor type: [M+Na]+
m/z	relative intensity	assigned
242.0539	13	C10H9N3NaO3+
284.1006	999	C13H15N3NaO3+
