Mass spectrum: EDDP; LC-ESI-ITFT; MS2; CE: 70%; R=15000; [M+H]+
Name: EDDP
Name: 2-Ethylidene-1,5-dimethyl-3,3-diphenylpyrrolidine
Name: (2Z)-2-ethylidene-1,5-dimethyl-3,3-diphenylpyrrolidine
Formula: C20H23N
Exact mass: 277.18305
SMILES: C\C=C1/N(C)C(C)CC1(C1=CC=CC=C1)C1=CC=CC=C1
InChI: InChI=1S/C20H23N/c1-4-19-20(15-16(2)21(19)3,17-11-7-5-8-12-17)18-13-9-6-10-14-18/h4-14,16H,15H2,1-3H3/b19-4-
Instrument: LTQ Orbitrap XL Thermo Scientific
Instrument type: LC-ESI-ITFT
Ms type: MS2
Ion mode: POSITIVE
Ionization: ESI
Fragmentation mode: HCD
Collision energy: 70% (nominal)
Resolution: 15000
Column name: Kinetex Evo C18 2.6 um 50 x 2.1 mm
Retention time: 7.735 min
Base peak: 278.1914
Precursor m/z: 278.1903
Precursor type: [M+H]+
m/z	relative intensity	assigned
58.0649	6	C3H8N+
70.0651	8	C4H8N+
91.0543	14	C7H7+
98.0966	6	C6H12N+
105.07	10	C8H9+
117.0699	2	C9H9+
118.0652	6	C8H8N+
124.1121	2	C8H14N+
129.0699	9	C10H9+
143.0856	2	C11H11+
144.0809	2	C10H10N+
146.0967	1	C10H12N+
157.0892	4	C11H11N+
158.0966	14	C11H12N+
167.0855	2	C13H11+
170.0966	3	C12H12N+
171.1045	21	C12H13N+
172.1122	33	C12H14N+
185.1206	3	C13H15N+
186.1279	285	C13H16N+
192.0938	2	C15H12+
193.1012	2	C15H13+
200.1435	55	C14H18N+
201.1513	67	C14H19N+
206.0965	4	C15H12N+
207.1044	35	C15H13N+
208.112	6	C15H14N+
219.1046	17	C16H13N+
220.1122	8	C16H14N+
221.1198	3	C16H15N+
233.1209	6	C17H15N+
234.1279	999	C17H16N+
235.1356	4	C17H17N+
236.1433	4	C17H18N+
237.1509	1	C17H19N+
248.1436	56	C18H18N+
249.1514	213	C18H19N+
250.1596	2	C18H20N+
262.159	5	C19H20N+
278.1906	139	C20H24N+
