Mass spectrum: Ondansetron; LC-ESI-ITFT; MS2; CE: 80%; R=15000; [M+H]+
Name: Ondansetron
Name: 9-methyl-3-[(2-methylimidazol-1-yl)methyl]-2,3-dihydro-1H-carbazol-4-one
Formula: C18H19N3O
Exact mass: 293.1528
SMILES: CN1C2=C(C3=CC=CC=C13)C(=O)C(CN1C=CN=C1C)CC2
InChI: InChI=1S/C18H19N3O/c1-12-19-9-10-21(12)11-13-7-8-16-17(18(13)22)14-5-3-4-6-15(14)20(16)2/h3-6,9-10,13H,7-8,11H2,1-2H3
Instrument: LTQ Orbitrap XL Thermo Scientific
Instrument type: LC-ESI-ITFT
Ms type: MS2
Ion mode: POSITIVE
Ionization: ESI
Fragmentation mode: HCD
Collision energy: 80 % (nominal)
Resolution: 15000
Column name: Kinetex Evo C18 2.6 um 50 x 2.1 mm
Retention time: 6.087 min
Base peak: 294.1612
Precursor m/z: 294.1601
Precursor type: [M+H]+
m/z	relative intensity	assigned
56.0493	4	C3H6N+
67.0541	3	C5H7+
83.0604	12	C4H7N2+
115.0543	6	C9H7+
116.0621	6	C9H8+
128.0621	16	C10H8+
129.0699	18	C10H9+
131.0727	2	C9H9N+
142.0652	10	C10H8N+
143.0731	163	C10H9N+
143.0856	26	C11H11+
144.0808	17	C10H10N+
153.07	3	C12H9+
154.0653	19	C11H8N+
155.0732	31	C11H9N+
156.0809	9	C11H10N+
167.0731	101	C12H9N+
168.081	104	C12H10N+
169.0888	223	C12H11N+
170.0965	999	C12H12N+
171.0679	137	C11H9NO+
182.0965	137	C13H12N+
183.1043	15	C13H13N+
184.1122	565	C13H14N+
197.0843	2	C13H11NO+
212.1071	5	C14H14NO+
