Mass spectrum: Verapamil; LC-ESI-ITFT; MS2; CE: 70%; R=15000; [M+H]+
Name: Verapamil
Name: 2-(3,4-dimethoxyphenyl)-5-[2-(3,4-dimethoxyphenyl)ethyl-methylamino]-2-propan-2-ylpentanenitrile
Formula: C27H38N2O4
Exact mass: 454.28316
SMILES: COC1=CC=C(CCN(C)CCCC(C#N)(C(C)C)C2=CC(OC)=C(OC)C=C2)C=C1OC
InChI: InChI=1S/C27H38N2O4/c1-20(2)27(19-28,22-10-12-24(31-5)26(18-22)33-7)14-8-15-29(3)16-13-21-9-11-23(30-4)25(17-21)32-6/h9-12,17-18,20H,8,13-16H2,1-7H3
Instrument: LTQ Orbitrap XL Thermo Scientific
Instrument type: LC-ESI-ITFT
Ms type: MS2
Ion mode: POSITIVE
Ionization: ESI
Fragmentation mode: HCD
Collision energy: 70% (nominal)
Resolution: 15000
Column name: Kinetex Evo C18 2.6 um 50 x 2.1 mm
Retention time: 8.741 min
Base peak: 278.1915
Precursor m/z: 455.2904
Precursor type: [M+H]+
m/z	relative intensity	assigned
57.0333	3	C3H5O+
58.065	90	C3H8N+
77.0387	8	C6H5+
79.0543	89	C6H7+
80.0498	3	C5H6N+
80.0577	3	CH8N2O2+
84.0809	26	C5H10N+
86.0965	12	C5H12N+
90.0465	4	C7H6+
91.0544	33	C7H7+
92.0622	4	C7H8+
93.0699	3	C7H9+
94.0654	8	C6H8N+
95.0857	7	C7H11+
96.081	18	C6H10N+
103.0544	102	C8H7+
104.0579	3	C3H8N2O2+
104.0622	21	C8H8+
105.0701	365	C8H9+
106.0734	21	C3H10N2O2+
107.0493	53	C7H7O+
108.0571	6	C7H8O+
109.065	8	C7H9O+
115.0543	4	C9H7+
117.07	6	C9H9+
118.0415	53	C8H6O+
119.0494	39	C8H7O+
120.0572	52	C8H8O+
121.065	108	C8H9O+
122.0684	5	C3H10N2O3+
122.0728	41	C8H10O+
122.0965	25	C8H12N+
123.0807	7	C8H11O+
124.0519	12	C7H8O2+
131.0493	19	C9H7O+
132.0573	13	C9H8O+
133.0651	227	C9H9O+
133.0763	25	C8H9N2+
134.0728	258	C9H10O+
135.0443	149	C8H7O2+
135.0806	106	C9H11O+
136.0518	22	C8H8O2+
136.0841	6	C4H12N2O3+
137.0599	31	C8H9O2+
137.0964	6	C9H13O+
138.0677	35	C8H10O2+
139.0754	15	C8H11O2+
146.0728	14	C10H10O+
149.06	32	C9H9O2+
150.0678	982	C9H10O2+
151.0749	138	C9H11O2+
152.0829	28	C9H12O2+
158.2716	4	C8H34N2+
159.0812	3	C11H11O+
164.0835	13	C10H12O2+
165.0913	999	C10H13O2+
166.0946	78	C5H14N2O4+
172.0762	3	C11H10NO+
174.092	4	C11H12NO+
176.0708	13	C10H10NO2+
177.0913	64	C11H13O2+
186.0918	5	C12H12NO+
187.0996	17	C12H13NO+
188.0707	3	C11H10NO2+
191.1071	20	C12H15O2+
202.0867	18	C12H12NO2+
203.0947	12	C12H13NO2+
218.118	31	C13H16NO2+
245.142	5	C15H19NO2+
260.1645	11	C16H22NO2+
