Mass spectrum: Imidacloprid-urea; LC-ESI-ITFT; MS2; CE: 30%; R=15000; [M+H]+
Name: Imidacloprid-urea
Name: 1-[(6-chloropyridin-3-yl)methyl]imidazolidin-2-one
Formula: C9H10ClN3O
Exact mass: NA
SMILES: ClC1=NC=C(CN2CCNC2=O)C=C1
InChI: InChI=1S/C9H10ClN3O/c10-8-2-1-7(5-12-8)6-13-4-3-11-9(13)14/h1-2,5H,3-4,6H2,(H,11,14)
Instrument: LTQ Orbitrap XL Thermo Scientific
Instrument type: LC-ESI-ITFT
Ms type: MS2
Ion mode: POSITIVE
Ionization: ESI
Fragmentation mode: HCD
Collision energy: 30 % (nominal)
Resolution: 15000
Column name: Kinetex Evo C18 2.6 um 50 x 2.1 mm
Retention time: 5.353 min
Base peak: 212.0592
Precursor m/z: 212.0585
Precursor type: [M+H]+
m/z	relative intensity	assigned
99.0553	35	C4H7N2O+
126.0106	7	C6H5ClN+
128.0262	182	C6H7ClN+
170.0368	3	C8H9ClNO+
195.0322	7	C9H8ClN2O+
212.0585	999	C9H11ClN3O+
