Mass spectrum: 2-Oxindole; LC-ESI-ITFT; MS2; CE: 10%; R=15000; [M+Na]+
Name: 2-Oxindole
Name: Oxindole
Name: 1,3-dihydroindol-2-one
Formula: C8H7NO
Exact mass: 133.0528
SMILES: O=C1CC2=CC=CC=C2N1
InChI: InChI=1S/C8H7NO/c10-8-5-6-3-1-2-4-7(6)9-8/h1-4H,5H2,(H,9,10)
Instrument: LTQ Orbitrap XL Thermo Scientific
Instrument type: LC-ESI-ITFT
Ms type: MS2
Ion mode: POSITIVE
Ionization: ESI
Fragmentation mode: HCD
Collision energy: 10% (nominal)
Resolution: 15000
Column name: Kinetex Evo C18 2.6 um 50 x 2.1 mm
Retention time: 4.317 min
Base peak: 134.0601
Precursor m/z: 156.042
Precursor type: [M+Na]+
m/z	relative intensity	assigned
156.0423	999	C8H7NNaO+
