Mass spectrum: Benzyldimethylhexadecylammonium; LC-ESI-ITFT; MS2; CE: 20%; R=15000; [M]+
Name: Benzyldimethylhexadecylammonium
Name: Cetalkonium
Name: benzyl-hexadecyl-dimethylazanium
Formula: C25H46N
Exact mass: 360.3630
SMILES: CCCCCCCCCCCCCCCC[N+](C)(C)CC1=CC=CC=C1
InChI: InChI=1S/C25H46N/c1-4-5-6-7-8-9-10-11-12-13-14-15-16-20-23-26(2,3)24-25-21-18-17-19-22-25/h17-19,21-22H,4-16,20,23-24H2,1-3H3/q+1
Instrument: LTQ Orbitrap XL Thermo Scientific
Instrument type: LC-ESI-ITFT
Ms type: MS2
Ion mode: POSITIVE
Ionization: ESI
Fragmentation mode: HCD
Collision energy: 20% (nominal)
Resolution: 15000
Column name: Kinetex Evo C18 2.6 um 50 x 2.1 mm
Retention time: 12.621 min
Base peak: 360.3632
Precursor m/z: 360.3625
Precursor type: [M]+
m/z	relative intensity	assigned
360.3621	999	C25H46N+
