Mass spectrum: N-Acetyl-4-aminoantipyrine; LC-ESI-ITFT; MS2; CE: 50%; R=15000; [M+Na]+
Name: N-Acetyl-4-aminoantipyrine
Name: 4-Acetamidoantipyrine
Name: N-(1,5-dimethyl-3-oxo-2-phenylpyrazol-4-yl)acetamide
Formula: C13H15N3O2
Exact mass: 245.1164
SMILES: CN1N(C(=O)C(NC(C)=O)=C1C)C1=CC=CC=C1
InChI: InChI=1S/C13H15N3O2/c1-9-12(14-10(2)17)13(18)16(15(9)3)11-7-5-4-6-8-11/h4-8H,1-3H3,(H,14,17)
Instrument: LTQ Orbitrap XL Thermo Scientific
Instrument type: LC-ESI-ITFT
Ms type: MS2
Ion mode: POSITIVE
Ionization: ESI
Fragmentation mode: HCD
Collision energy: 50 % (nominal)
Resolution: 15000
Column name: Kinetex Evo C18 2.6 um 50 x 2.1 mm
Retention time: 4.500 min
Base peak: 116.9864
Precursor m/z: 268.1056
Precursor type: [M+Na]+
m/z	relative intensity	assigned
56.0494	346	C3H6N+
58.0651	66	C3H8N+
60.0807	14	C3H10N+
72.081	912	C4H10N+
74.0603	999	C3H8NO+
86.0968	15	C5H12N+
105.0703	67	C8H9+
176.1078	198	C11H14NO+
177.0917	134	C11H13O2+
179.1074	43	C11H15O2+
191.1075	473	C12H15O2+
