Mass spectrum: Propyphenazone; LC-ESI-ITFT; MS2; CE: 80%; R=15000; [M+Na]+
Name: Propyphenazone
Name: 1,5-dimethyl-2-phenyl-4-propan-2-ylpyrazol-3-one
Formula: C14H18N2O
Exact mass: NA
SMILES: CC(C)C1=C(C)N(C)N(C1=O)C1=CC=CC=C1
InChI: InChI=1S/C14H18N2O/c1-10(2)13-11(3)15(4)16(14(13)17)12-8-6-5-7-9-12/h5-10H,1-4H3
Instrument: LTQ Orbitrap XL Thermo Scientific
Instrument type: LC-ESI-ITFT
Ms type: MS2
Ion mode: POSITIVE
Ionization: ESI
Fragmentation mode: HCD
Collision energy: 80% (nominal)
Resolution: 15000
Column name: Kinetex Evo C18 2.6 um 50 x 2.1 mm
Retention time: 9.662 min
Base peak: 231.1498
Precursor m/z: 253.1311
Precursor type: [M+Na]+
m/z	relative intensity	assigned
167.0735	405	C12H9N+
180.0813	999	C13H10N+
182.097	432	C13H12N+
195.0686	271	C13H9NO+
208.076	761	C14H10NO+
210.0918	929	C14H12NO+
