Mass spectrum: Quinmerac; LC-ESI-ITFT; MS2; CE: 90%; R=15000; [M+H]+
Name: Quinmerac
Name: 7-chloro-3-methylquinoline-8-carboxylic acid
Formula: C11H8ClNO2
Exact mass: 221.02436
SMILES: CC1=CC2=C(N=C1)C(C(O)=O)=C(Cl)C=C2
InChI: InChI=1S/C11H8ClNO2/c1-6-4-7-2-3-8(12)9(11(14)15)10(7)13-5-6/h2-5H,1H3,(H,14,15)
Instrument: LTQ Orbitrap XL Thermo Scientific
Instrument type: LC-ESI-ITFT
Ms type: MS2
Ion mode: POSITIVE
Ionization: ESI
Fragmentation mode: HCD
Collision energy: 90 % (nominal)
Resolution: 15000
Column name: Kinetex Evo C18 2.6 um 50 x 2.1 mm
Retention time: 6.338 min
Base peak: 222.0432
Precursor m/z: 222.0316
Precursor type: [M+H]+
m/z	relative intensity	assigned
63.9946	30	C4O+
65.0383	433	C5H5+
73.979	14	C2HClN+
75.9947	36	C2H3ClN+
77.0384	636	C6H5+
87.9947	150	C3H3ClN+
92.0494	999	C6H6N+
93.0571	125	C6H7N+
94.065	195	C6H8N+
95.049	138	C6H7O+
101.974	30	C3HClNO+
102.0464	7	C8H6+
103.0542	12	C8H7+
104.0493	569	C7H6N+
115.054	8	C9H7+
116.0494	7	C8H6N+
116.9974	32	C4H4ClNO+
117.0572	7	C8H7N+
119.0004	4	C6HNO2+
120.0443	7	C7H6NO+
125.0152	6	C7H6Cl+
130.0649	74	C9H8N+
132.0443	32	C8H6NO+
133.0519	4	C8H7NO+
140.0258	9	C10H4O+
140.0493	11	C10H6N+
141.057	23	C10H7N+
149.0151	40	C9H6Cl+
150.0103	55	C8H5ClN+
158.0599	11	C10H8NO+
176.0261	9	C10H7ClN+
193.0286	47	C10H8ClNO+
204.0208	9	C11H7ClNO+
