Mass spectrum: 3mPFOA; LC-ESI-QQ; MS2; CE10eV
Name: 3mPFOA
Class: Non-Natural Product
Formula: C8HF15O2
Exact mass: 413.97370
SMILES: OC(=O)C(F)(F)C(F)(C(F)(F)F)C(F)(F)C(F)(F)C(F)(F)C(F)(F)F
InChI: InChI=1S/C8HF15O2/c9-2(10,1(24)25)3(11,7(18,19)20)4(12,13)5(14,15)6(16,17)8(21,22)23/h(H,24,25)
Instrument: Xevo TQ, Waters
Instrument type: LC-ESI-QQ
Ms type: MS2
Ion mode: NEGATIVE
Collision energy: 10eV
Retention time: 15.061216 min
Base peak: 369.206421
Ion type: [M-H]-
Precursor m/z: 413
Precursor type: [M-H]-
m/z	relative intensity
168.656516	167
218.746492	53
369.069631	999
412.897786	143
