Mass spectrum: 33FTA; LC-ESI-QQ; MS2; CE10; [M-H]-
Name: 33FTA
Name: 33Fluorotelomer Acid
Name: 4,4,5,5,6,6,6-Heptafluorohexanoic acid
Class: Non-Natural Product
Formula: C6H5F7O2
Exact mass: 242.01778
SMILES: OC(=O)CCC(F)(F)C(F)(F)C(F)(F)F
InChI: InChI=1S/C6H5F7O2/c7-4(8,2-1-3(14)15)5(9,10)6(11,12)13/h1-2H2,(H,14,15)
Instrument: Xevo TQ MS (Waters)
Instrument type: LC-ESI-QQ
Ms type: MS2
Ion mode: NEGATIVE
Collision energy: 10
Retention time: 0.016817
Base peak: 177.064529
Ion type: [M-H]-
Precursor m/z: 241
Precursor type: [M-H]-
m/z	relative intensity
62.999496	769
116.962746	41
136.956573	239
156.985565	105
177.037506	999
177.686432	101
180.996231	17
221.086761	42
241.070251	258
