Mass spectrum: nPFOA; LC-ESI-QQ; MS2; CE20eV
Name: nPFOA
Class: Non-Natural Product
Formula: C8HF15O2
Exact mass: 413.97370
SMILES: OC(=O)C(F)(F)C(F)(F)C(F)(F)C(F)(F)C(F)(F)C(F)(F)C(F)(F)F
InChI: InChI=1S/C8HF15O2/c9-2(10,1(24)25)3(11,12)4(13,14)5(15,16)6(17,18)7(19,20)8(21,22)23/h(H,24,25)
Instrument: Xevo TQ, Waters
Instrument type: LC-ESI-QQ
Ms type: MS2
Ion mode: NEGATIVE
Collision energy: 20eV
Retention time: 20.892700 min
Base peak: 168.594803
Precursor m/z: 413
Precursor type: [M-H]-
m/z	relative intensity
119.000001	298
168.663570	999
219.042244	238
369.262473	77
381.130243	176
410.672836	108
412.705942	80
