Mass spectrum: Coprostanol; LC-APPI-QQ; MS
Name: Coprostanol
Class: Natural Product; Sterol
Formula: C27H48O
Exact mass: 388.37052
SMILES: C(C)(C1)(C(C(C)CCCC(C)C)4)C(CC4)C(C2)C(C(C)(C3)C([H])(CC(C3)O)C2)C1
InChI: InChI=1S/C27H48O/c1-18(2)7-6-8-19(3)23-11-12-24-22-10-9-20-17-21(28)13-15-26(20,4)25(22)14-16-27(23,24)5/h18-25,28H,6-17H2,1-5H3/t19?,20-,21+,22?,23?,24?,25?,26?,27?/m1/s1
Instrument: API2000, Applied
Instrument type: LC-APPI-QQ
Ms type: MS
Ion mode: POSITIVE
Retention time: 0.821133 min
Base peak: 371.600006
Ion type: [M-H2O+H]+
m/z	relative intensity
201.163985	49
202.117226	19
203.146772	106
204.137333	30
205.167417	53
206.110616	12
207.156442	68
208.168378	17
209.158448	34
210.188790	17
211.161701	42
212.167440	10
213.128859	20
214.185851	10
215.210204	130
216.234100	31
217.235511	52
218.131056	20
219.160910	50
221.149767	41
222.131285	13
223.133236	23
224.184275	8
225.188114	13
226.225114	5
227.196626	12
228.206472	6
229.174886	20
230.214476	12
231.180968	96
232.206486	18
233.228735	35
234.147021	12
235.177459	22
237.126486	156
238.119120	37
239.153395	25
240.203493	6
241.275347	15
242.233616	4
243.264088	39
244.266058	10
245.274437	49
246.250000	12
247.242567	47
248.236718	14
249.201899	22
250.136383	6
251.133989	11
252.084294	5
253.143855	7
254.150000	3
255.189355	17
257.283124	58
258.257363	13
259.259397	42
260.254958	11
261.263032	55
263.181022	32
264.216137	8
265.203463	11
267.112500	7
268.152166	4
269.204382	10
271.167690	17
273.278827	33
275.277169	42
276.290677	11
277.189410	13
279.158105	20
280.205634	6
281.169626	8
282.181311	7
283.201983	12
284.190105	5
285.208760	17
287.286232	33
288.328129	14
289.315545	23
290.295267	6
291.239469	9
292.259341	2
293.206682	5
295.231705	7
297.209892	12
298.167770	4
299.235797	13
300.224941	5
301.331592	24
303.253650	7
304.303007	3
305.274193	4
307.268969	7
308.280927	2
309.237240	6
310.264179	2
311.265321	8
313.284156	12
314.299999	5
315.365237	28
316.376770	12
318.283848	2
319.257657	3
320.314841	2
321.289414	4
322.286388	2
323.256970	4
325.247718	6
326.247236	2
327.234730	8
328.275190	3
329.338004	9
330.322743	3
331.353126	9
332.322808	3
333.249687	4
334.241911	2
335.253067	4
336.233886	2
337.280678	5
338.329963	3
339.261436	5
341.292047	6
343.298956	6
344.324882	3
345.274624	3
347.239715	4
349.238096	4
351.306590	5
352.304009	2
353.379955	8
355.459797	147
356.414464	43
359.312349	7
361.258323	5
363.273670	6
365.319870	8
367.422347	27
369.479451	204
371.499739	999
372.451490	314
377.307639	4
379.363853	7
381.404087	11
383.440503	39
385.480985	76
386.456635	24
387.500619	51
388.440977	24
391.398460	15
392.386846	4
393.346773	2
395.358992	2
397.366547	3
398.371981	1
399.431344	11
401.450667	8
402.452733	3
403.448039	6
404.382906	3
405.389388	2
407.377640	2
408.395040	1
409.368207	2
411.402775	3
413.386186	2
414.392103	1
415.391733	1
416.413296	1
417.449734	2
419.469229	1
420.368622	1
421.426609	1
422.423805	1
423.427804	1
425.333570	2
427.441400	6
428.520956	3
429.388888	2
431.382987	1
433.392184	4
434.358518	2
435.427067	2
436.395347	1
437.437615	1
438.367267	1
439.420254	2
440.406522	1
441.364418	1
443.386885	1
444.486866	1
445.382203	1
446.325579	1
447.469833	2
448.397185	1
449.478702	1
450.436032	1
451.541088	2
453.482879	2
455.406492	1
456.356247	1
457.377418	1
458.355559	1
459.377299	1
460.380945	1
461.457766	5
462.440738	2
463.389475	2
465.380279	1
467.456579	1
469.404020	1
471.413723	1
472.380643	1
473.379823	1
474.385361	1
475.435142	2
477.471494	4
478.418703	2
479.457263	1
480.454836	1
481.528027	1
482.436363	1
483.417241	1
484.399994	1
485.513334	1
486.354546	1
487.413829	1
488.508888	1
489.384313	1
490.322847	1
491.379993	1
492.336729	1
493.510419	8
494.519231	3
495.535115	2
497.493332	1
499.466130	1
