Mass spectrum: 1,4-Androstadiene-3,17-dione; LC-APPI-QQ; MS2; CE:10 V; [M-H2O+H]+
Name: 1,4-Androstadiene-3,17-dione
Class: Natural Product; Anabolic Steroid
Formula: C19H24O2
Exact mass: 284.17763
SMILES: O=C(C=4)C=C(C3)C(C)(C4)C([H])(C2)C([H])(C3)C([H])(C1)C(C)(C2)C(=O)C1
InChI: InChI=1S/C19H24O2/c1-18-9-7-13(20)11-12(18)3-4-14-15-5-6-17(21)19(15,2)10-8-16(14)18/h7,9,11,14-16H,3-6,8,10H2,1-2H3/t14-,15-,16-,18-,19-/m0/s1
Instrument: API2000
Instrument type: LC-APPI-QQ
Ms type: MS2
Ion mode: POSITIVE
Retention time: 0.820850 min
Base peak: 267.100006
Precursor m/z: 267.300000
Precursor type: [M-H2O+H]+
m/z	relative intensity
68.800003	1
79.199997	1
79.500000	1
80.300003	1
80.500000	1
80.800003	1
81.099998	1
81.300003	1
83.049999	1
90.800003	1
91.099998	1
92.750000	1
93.400002	1
94.724998	1
95.049999	1
95.350002	1
96.099998	1
102.099998	1
104.699997	1
105.049999	1
105.450001	1
106.000000	1
106.805882	1
107.187999	2
108.812503	1
109.224998	1
109.500000	1
111.199997	1
116.800003	1
118.099998	1
120.049999	1
120.850002	1
121.283335	1
121.699997	1
123.800003	1
130.600006	1
131.500000	1
132.699997	1
133.177782	1
134.199997	1
135.225002	1
142.800003	1
143.300003	1
144.000000	1
144.800003	1
145.000000	1
145.379999	1
145.899994	1
147.146235	8
147.800003	1
148.300003	1
148.899994	1
149.100006	1
154.800003	1
157.000000	1
157.899994	1
158.100006	1
158.399994	1
159.086458	4
159.899994	1
161.199997	1
162.199997	1
167.000000	1
168.899994	1
169.199997	1
169.600006	1
169.800003	1
171.032342	23
171.949997	1
173.153206	18
175.100006	1
175.300003	1
178.100006	1
180.750000	1
181.100006	1
183.050003	1
185.177272	1
185.800003	1
186.962498	1
187.199997	1
187.500000	1
188.699997	1
188.899994	1
190.000000	1
192.600006	1
193.500000	1
195.300003	1
197.199997	1
197.500000	1
198.300003	1
198.600006	1
198.800003	1
199.275002	1
199.699997	1
206.899994	1
207.300003	1
209.199997	1
210.100006	1
210.300003	1
211.322680	4
212.100006	1
212.699997	1
212.899994	1
213.300003	1
213.600006	1
215.399994	1
217.100006	1
220.500000	1
220.949997	1
221.500000	1
222.650002	1
223.100006	1
223.300003	1
224.200002	1
225.102633	2
225.750000	1
226.199997	1
230.600006	1
234.500000	1
235.033333	1
235.500000	1
236.699997	1
237.000000	1
238.199997	1
239.040001	1
248.500000	1
249.157144	1
249.583338	1
249.800003	1
250.100006	1
250.300003	1
250.600006	1
251.199997	1
251.500000	1
252.000000	1
252.316668	1
264.000000	1
264.200012	1
264.449997	1
264.799988	1
265.000000	1
267.233427	999
284.899994	1
381.399994	1
