Mass spectrum: Estrone; LC-APPI-QQ; MS2; CE:10 V; [M-H2O+H]+
Name: Estrone
Class: Natural Product; Steroid hormone
Formula: C18H22O2
Exact mass: 270.16198
SMILES: Oc(c4)cc(C3)c(c4)C(C2)C(C3)C(C1)C(C)(C2)C(=O)C1
InChI: InChI=1S/C18H22O2/c1-18-9-8-14-13-5-3-12(19)10-11(13)2-4-15(14)16(18)6-7-17(18)20/h3,5,10,14-16,19H,2,4,6-9H2,1H3
Instrument: API2000
Instrument type: LC-APPI-QQ
Ms type: MS2
Ion mode: POSITIVE
Retention time: 0.820850 min
Base peak: 253.199997
Precursor m/z: 253.200000
Precursor type: [M-H2O+H]+
m/z	relative intensity
55.599998	1
67.400002	1
76.900002	1
78.400002	1
79.400002	1
80.099998	1
80.400002	1
80.850002	1
81.300003	1
83.000000	1
85.000000	1
90.850002	1
91.099998	1
91.500000	1
92.500000	1
93.355558	1
94.800003	1
95.300003	1
95.599998	1
104.699997	1
106.000000	1
106.800003	1
107.599998	1
108.500000	1
109.000000	1
117.300003	1
120.900002	1
121.800003	1
123.400002	1
128.949997	1
130.600006	1
131.399994	1
132.000000	1
132.199997	1
133.300003	1
137.199997	1
141.500000	1
143.100006	1
144.000000	1
144.500000	1
144.964284	1
145.199997	1
146.000000	1
146.699997	1
146.962498	1
152.899994	1
153.100006	1
153.399994	1
154.000000	1
154.600006	1
155.100006	1
155.500000	1
155.881818	1
157.102064	33
159.063703	7
159.899994	1
160.600006	1
161.000000	1
161.259998	1
164.949997	1
165.199997	1
167.100006	1
168.100006	1
169.199997	1
171.036362	1
172.722222	1
173.110005	1
173.399994	1
174.899994	1
175.100006	1
177.199997	1
178.399994	1
178.800003	1
179.300003	1
183.064004	1
184.000000	1
184.199997	1
185.100006	1
185.399994	1
186.949997	1
190.000000	1
191.000000	1
193.000000	1
193.300003	1
194.650002	1
195.300003	1
195.500000	1
195.699997	1
195.899994	1
197.170142	11
198.179999	1
198.399994	1
198.600006	1
199.100006	1
199.349998	1
203.399994	1
206.399994	1
207.299998	1
209.016668	1
210.000000	1
210.349998	1
210.912498	1
211.266666	1
211.974998	1
212.266668	1
212.500000	1
217.100006	1
220.100006	1
220.399994	1
220.963634	1
221.214998	1
221.600006	1
222.100006	1
222.699997	1
223.100006	1
223.300003	1
223.500000	1
223.871427	1
224.399994	1
225.203704	1
234.500000	1
234.750000	1
235.000000	1
236.000000	1
236.199997	1
237.100006	1
237.980002	1
238.300003	1
238.600006	1
238.800003	1
245.849998	1
246.300003	1
249.100006	1
249.500000	1
250.000000	1
250.199997	1
253.232293	999
254.100006	1
254.455553	1
255.100006	1
255.300003	1
271.299988	1
