Mass spectrum: Stigmastanol; LC-APPI-QQ; MS2; CE:20 V; [M-H2O+H]+
Name: Stigmastanol
Class: Natural Product; Sterol
Formula: C29H52O
Exact mass: 416.40182
SMILES: C(C4)C(C(CC4O)3)(C(C(CC3)2)CCC(C21)(C(CC1)C(C)CCC(C(C)C)CC)C)C
InChI: InChI=1S/C29H52O/c1-7-21(19(2)3)9-8-20(4)25-12-13-26-24-11-10-22-18-23(30)14-16-28(22,5)27(24)15-17-29(25,26)6/h19-27,30H,7-18H2,1-6H3/t20?,21?,22?,23-,24?,25?,26?,27?,28?,29?/m0/s1
Instrument: API2000
Instrument type: LC-APPI-QQ
Ms type: MS2
Ion mode: POSITIVE
Retention time: 0.820850 min
Base peak: 399.500000
Precursor m/z: 399.500000
Precursor type: [M-H2O+H]+
m/z	relative intensity
41.099998	1
42.700001	1
42.900002	1
43.299999	1
43.750000	1
45.073809	6
53.000000	1
53.799999	1
54.099998	1
54.799999	1
55.099998	1
55.400002	1
56.599998	1
57.024138	4
57.400002	1
58.799999	1
59.099998	1
61.500000	1
66.500000	1
66.699997	1
67.083332	1
67.400002	1
69.157895	1
69.900002	1
70.300003	1
70.500000	1
71.159998	1
77.000000	1
78.599998	1
79.250000	1
79.599998	1
79.900002	1
80.300003	1
81.082500	6
82.099998	1
83.153657	6
84.500000	1
85.074999	1
85.400002	1
86.000000	1
88.699997	1
89.000000	1
89.299999	1
91.099998	1
91.350002	1
92.400002	1
92.957142	1
93.400002	1
95.001210	18
95.800003	1
96.099998	1
97.000001	8
97.800003	1
98.300003	1
99.099998	2
99.975000	1
100.199997	1
101.119665	35
102.199997	1
103.400002	1
104.850002	1
105.099998	1
105.400002	1
105.900002	1
106.935715	1
107.257143	1
107.900002	1
109.103320	17
111.046667	9
111.800003	1
113.060001	1
113.500000	1
114.500000	1
117.300003	1
118.000000	1
118.800003	1
119.149998	1
119.500000	1
119.800003	1
120.000000	1
121.065909	6
122.000000	1
123.034188	17
124.400002	1
125.055770	8
126.900002	1
127.199997	1
129.100006	1
129.300003	1
129.600006	1
132.300003	1
132.699997	1
133.357141	1
133.899994	1
135.124475	21
136.100006	1
136.377775	1
137.165866	15
138.100006	1
139.165002	3
141.000000	1
141.800003	1
142.869044	3
144.699997	1
144.949997	1
145.328570	1
146.500000	1
146.800003	1
147.279999	1
147.800003	1
148.000000	1
149.183449	21
150.050003	1
151.210273	11
152.199997	1
152.899994	1
153.374996	1
154.899994	1
155.199997	1
155.399994	1
156.699997	1
158.800003	1
159.899994	1
160.250000	1
160.500000	1
160.699997	1
161.177274	2
161.699997	1
162.000000	1
163.166942	18
163.900002	1
165.208182	16
165.800003	1
167.100006	1
167.500000	1
168.750000	1
169.250000	1
170.899994	1
173.300003	1
174.500000	1
174.699997	1
175.199999	3
175.699997	1
175.949997	1
176.250000	1
177.267255	16
178.199997	1
179.215790	5
180.800003	1
181.199997	1
181.500000	1
181.699997	1
183.100006	1
186.000000	1
186.949997	1
187.300003	1
187.800003	1
188.300003	1
189.246378	10
191.219297	8
192.399994	1
193.182558	6
194.100006	1
194.300003	1
195.300003	1
195.600006	1
196.300003	1
196.500000	1
197.000000	1
197.250000	1
197.724998	1
198.287502	1
199.103586	157
201.650002	1
202.199997	1
203.279312	4
205.173833	8
206.199997	1
207.235616	5
208.449997	1
209.300003	1
209.500000	1
211.800003	1
214.800003	1
215.100006	1
215.333333	1
215.949997	1
217.316950	9
219.200002	3
220.199997	1
221.287156	8
224.869997	1
225.260000	4
227.300003	1
229.100006	1
229.300003	1
230.300003	1
230.600006	1
231.168751	8
232.600006	1
233.404347	3
233.849998	1
234.300003	1
235.317790	15
237.199997	1
241.399994	1
243.134618	4
244.449997	1
245.321428	8
247.000000	1
247.355554	1
247.600006	1
249.150005	1
254.300003	1
254.600001	1
254.899994	1
255.316668	1
257.149999	1
257.600006	1
258.200002	1
259.358652	8
261.200012	1
261.500000	2
263.517392	2
268.899994	1
269.600006	1
271.100006	1
273.368179	3
274.600006	1
274.799988	1
275.337504	5
276.500000	1
277.366659	1
277.675011	1
279.700012	1
280.000000	1
281.000000	1
281.299988	1
285.000000	1
285.399994	1
286.000000	1
286.299988	1
286.550003	1
287.276562	5
288.600006	1
289.410911	8
290.299988	1
291.050003	1
291.299988	1
291.799988	1
293.000000	1
296.500000	1
297.500000	1
298.000000	1
299.232171	152
300.399994	1
300.600006	1
301.445649	3
302.600006	1
303.342307	4
304.100006	1
304.899994	1
312.399994	1
313.399994	1
313.700012	1
315.575005	2
317.471427	2
317.799988	1
319.399994	1
325.100006	1
327.700012	1
329.000000	1
329.200012	1
329.399994	1
331.100006	1
331.600006	1
331.899994	1
337.100006	1
341.200012	1
342.399994	1
343.469998	1
345.299988	1
346.000000	1
355.250000	1
355.500000	1
355.700012	1
355.899994	1
357.399994	1
357.600006	1
367.200012	1
367.650009	1
370.299988	1
371.600006	1
371.799988	1
372.100006	1
381.200012	1
381.750000	1
382.000000	1
384.100006	1
384.600006	1
396.399994	1
396.600006	1
397.100006	1
397.671435	1
399.459575	999
400.600006	1
401.250000	1
