Mass spectrum: Oseltamivir acid; LC-APPI-QQ; MS2; CE10; [M+H]+
Name: Oseltamivir acid
Class: Non-Natural Product
Formula: C14H24N2O4
Exact mass: 284.17361
SMILES: CCC(CC)OC(C=1)C(NC(C)=O)C(N)CC(C(O)=O)1
InChI: InChI=1S/C14H24N2O4/c1-4-10(5-2)20-12-7-9(14(18)19)6-11(15)13(12)16-8(3)17/h7,10-13H,4-6,15H2,1-3H3,(H,16,17)(H,18,19)/t11-,12+,13+/m0/s1
Instrument: API2000, Applied
Instrument type: LC-APPI-QQ
Ms type: MS2
Ion mode: POSITIVE
Collision energy: 10V
Retention time: 0.820833 min
Base peak: 285.299988
Precursor m/z: 285.2
Precursor type: [M+H]+
m/z	relative intensity
42.900002	1
60.500000	1
71.199997	1
76.699997	1
81.400002	1
82.099998	1
85.699997	1
85.900002	1
86.099998	1
86.400002	1
86.800003	1
87.000000	1
87.300003	1
89.699997	1
91.500000	1
92.699997	1
93.000000	1
93.300003	1
93.910001	1
94.800003	1
95.099998	1
105.599998	1
109.099998	1
109.400002	1
109.599998	1
110.900002	1
111.124998	1
112.000000	1
115.199997	1
116.800003	1
118.400002	1
118.599998	1
119.000000	1
119.880392	4
120.949999	1
121.400002	1
124.900002	1
134.800003	1
135.500000	1
136.140002	1
136.399994	1
138.026466	48
139.099998	1
139.399994	1
139.600006	1
140.100006	1
142.699997	1
147.199997	1
149.100006	1
149.500000	1
150.600006	1
150.800003	1
151.300003	1
152.399994	1
153.100006	1
154.100006	1
154.699997	1
155.100006	1
155.300003	1
155.500000	1
155.775002	1
156.000000	1
156.399994	1
160.699997	1
161.300003	1
162.077776	4
164.199997	1
173.399994	1
175.199997	1
177.899994	1
180.096622	99
180.899994	1
182.050003	1
182.500000	1
190.699997	1
191.399994	1
193.399994	1
195.500000	1
197.149846	378
198.115217	47
199.100006	1
199.399994	1
207.550003	1
207.899994	1
208.399994	1
212.750000	1
213.000000	1
213.199997	1
215.123262	151
216.100006	1
217.100006	1
217.300003	1
223.500000	1
225.000000	1
225.699997	1
225.899994	1
226.150002	1
229.399994	1
235.000000	1
240.100006	1
250.199997	1
252.799998	1
253.300000	1
253.600006	1
255.300003	1
257.449997	1
267.000000	1
267.299988	1
267.500000	1
268.245910	32
269.000000	1
271.100006	1
280.500000	1
282.200012	1
283.200012	1
283.500000	1
285.230732	999
287.200012	1
288.000000	1
