Mass spectrum: Testosterone; LC-APPI-QQ; MS
Name: Testosterone
Class: Natural Product; Steroid hormone
Formula: C19H28O2
Exact mass: 288.20893
SMILES: O=C(C4)C=C(C3)C(C)(C4)C(C2)C(C3)C(C1)C(C)(C2)C(O)C1
InChI: InChI=1S/C19H28O2/c1-18-9-7-13(20)11-12(18)3-4-14-15-5-6-17(21)19(15,2)10-8-16(14)18/h11,14-17,21H,3-10H2,1-2H3/t14?,15?,16?,17-,18?,19?/m0/s1
Instrument: API2000
Instrument type: LC-APPI-QQ
Ms type: MS
Ion mode: POSITIVE
Retention time: 0.821067 min
Base peak: 289.200012
Ion type: [M+H]+
m/z	relative intensity
201.138375	6
202.103308	2
203.115643	5
205.118202	7
206.088863	1
207.137952	7
209.168884	10
211.161747	13
213.139986	9
214.194487	2
215.162722	8
216.157300	2
217.171529	4
219.124231	7
221.127324	16
222.131840	4
223.139489	14
225.205597	43
227.203863	45
228.202064	8
229.185387	31
231.191986	20
233.151546	9
235.125855	14
237.176016	12
238.129794	4
239.183806	14
241.254683	13
243.220772	14
245.188838	20
247.166176	19
249.164726	23
251.154039	19
253.214473	44
255.184004	29
257.206026	59
259.215344	57
261.159738	108
263.183397	95
265.196460	64
267.195028	98
269.222805	296
271.235030	283
275.205341	22
277.163009	21
279.156027	56
281.224647	19
283.201468	40
285.227616	110
287.258745	190
289.326503	999
293.193565	9
295.188387	6
297.241710	7
299.248169	11
301.268809	15
303.344985	82
304.390415	20
307.244839	5
309.238124	4
311.286632	13
312.297695	4
313.267827	4
315.277852	8
317.265455	8
319.253968	4
321.276382	3
323.219289	2
325.198260	2
327.248066	6
329.238366	2
331.202348	3
333.180074	2
335.252940	2
337.296712	2
339.220130	2
341.235576	1
342.265363	1
343.258230	1
345.247456	2
347.208560	2
349.361648	10
350.319176	3
353.306074	2
355.281473	2
357.300635	2
359.246093	2
361.266367	2
363.245269	2
365.248121	2
367.304136	2
369.382861	3
371.354158	3
373.358164	2
375.332640	4
377.334383	3
379.318167	2
381.313214	1
383.345369	1
385.403795	1
387.360692	1
389.396297	1
391.405509	5
393.375523	2
395.352528	6
396.358153	2
397.344566	1
399.375273	10
401.410063	1
402.414165	2
403.434515	1
405.383416	1
407.410851	1
409.412427	1
410.376921	1
411.411002	1
413.394019	1
415.370393	1
416.420369	1
417.411925	1
419.471850	1
421.459029	1
423.470354	1
425.416831	1
426.337184	1
427.407802	1
429.374184	1
430.312244	1
431.383530	1
432.520004	1
433.448906	1
434.517979	1
435.417831	1
437.468346	1
439.497222	1
440.388092	1
441.377463	1
442.504227	1
443.394257	1
445.446622	1
447.441778	1
449.477057	1
451.508466	1
452.528127	1
453.438373	1
455.434043	1
456.477776	1
457.344186	1
458.349996	1
459.387904	1
460.491111	1
461.403278	1
463.313043	1
464.680960	1
465.545258	1
467.496226	1
468.469695	1
469.426718	1
470.299988	1
471.468643	1
472.587102	1
473.428079	1
474.299997	1
475.426467	1
476.442858	1
477.475383	1
479.472788	1
481.500000	1
482.515152	1
483.505129	1
485.509524	1
487.489166	1
488.100006	1
488.618182	1
489.436169	1
490.299988	1
491.460935	1
492.299988	1
493.469697	1
495.518853	1
496.731823	1
497.535526	1
498.526317	1
499.485123	1
