Mass spectrum: beta-Sitosterol; LC-APPI-QQ; MS2; CE:60 V; [M-H2O+H]+
Name: beta-Sitosterol
Class: Natural Product; Sterol
Formula: C29H50O
Exact mass: 414.38617
SMILES: C(C4)C(C(CC4O)=3)(C(C(CC3)2)CCC(C21)(C(CC1)C(C)CCC(C(C)C)CC)C)C
InChI: InChI=1S/C29H50O/c1-7-21(19(2)3)9-8-20(4)25-12-13-26-24-11-10-22-18-23(30)14-16-28(22,5)27(24)15-17-29(25,26)6/h10,19-21,23-27,30H,7-9,11-18H2,1-6H3/t20?,21?,23-,24?,25?,26?,27?,28?,29?/m0/s1
Instrument: API2000
Instrument type: LC-APPI-QQ
Ms type: MS2
Ion mode: POSITIVE
Retention time: 0.820833 min
Base peak: 69.400002
Precursor m/z: 397.600000
Precursor type: [M-H2O+H]+
m/z	relative intensity
40.400002	5
40.750000	10
41.200001	5
42.200001	21
43.200000	139
45.400002	5
51.000000	5
53.099998	5
54.000000	5
54.400002	26
55.126000	257
55.500000	36
56.500000	36
57.170491	314
57.799999	5
58.049999	10
65.199997	10
65.400002	5
66.099998	5
67.104080	252
69.112822	402
70.000000	10
70.599998	15
71.074999	62
71.418183	57
71.800003	10
73.000000	10
76.800003	21
77.000000	5
77.250000	10
77.500000	5
77.800003	10
78.000000	21
78.325003	21
79.015585	397
79.883335	31
81.082474	999
82.199997	10
83.104083	252
84.500000	5
84.800003	21
85.049999	51
89.750000	21
90.000000	15
90.993479	237
91.900002	26
93.020833	618
95.085417	989
96.099998	5
96.938462	67
97.400002	36
97.599998	5
102.599998	5
102.800003	5
103.025000	21
103.500000	15
104.968421	587
106.099998	10
106.856524	237
107.187498	247
107.900002	21
109.043902	422
109.950001	10
111.049999	10
111.300003	5
114.199997	5
114.900002	5
115.099998	5
115.500000	5
116.149998	10
116.400002	5
116.800003	15
117.000000	26
117.325000	41
117.800003	10
119.107340	561
120.199997	5
121.076667	309
121.800003	5
122.049999	10
122.983334	31
123.199997	46
124.199997	5
127.599998	5
128.750000	10
129.050003	10
129.649999	31
130.990476	108
131.974998	21
133.139132	237
133.699997	15
134.300003	15
134.980000	206
135.800003	5
136.800003	15
137.100006	5
141.600006	5
141.849998	10
142.300003	5
142.800003	10
143.399994	15
143.600006	10
143.800003	15
144.150002	10
144.750004	41
145.199997	36
145.800003	10
146.316668	31
147.120002	206
147.949997	10
148.349998	10
148.849998	21
149.300003	21
154.699997	5
154.899994	5
155.199997	5
156.699997	5
157.000000	5
157.400002	21
157.899994	15
158.100006	15
158.449997	10
159.066668	62
159.699997	5
160.199997	15
160.399994	10
160.899994	62
161.399994	36
161.600006	15
162.500000	10
162.899994	15
163.150002	10
163.399994	5
167.600006	5
168.800003	5
169.600006	10
170.300003	5
170.800003	10
171.199997	26
171.800003	5
172.600006	5
172.924995	21
173.600006	10
174.000000	5
174.800000	26
175.100006	21
175.300003	15
177.500000	5
181.600006	5
183.100006	5
183.399994	5
184.600006	5
184.800003	5
185.199997	10
185.600006	5
185.899994	5
186.199997	5
186.600006	5
187.300003	21
187.600006	5
188.100006	5
188.399994	5
189.699997	5
195.399994	5
198.399994	10
198.600006	5
199.199997	15
199.500000	5
199.699997	5
200.000000	5
200.399994	5
201.100006	10
201.500000	15
202.300003	5
203.699997	5
213.100006	5
213.899994	5
214.199997	5
214.800003	5
215.050003	10
215.349998	10
215.699997	5
216.199997	5
218.000000	5
220.399994	5
224.899994	5
227.600006	5
227.899994	5
229.000000	5
229.199997	10
229.600006	5
230.899994	10
231.600006	5
233.600006	5
239.199997	5
241.949997	10
242.199997	5
243.199997	5
244.100006	5
244.300003	5
253.800003	5
254.899994	5
256.200012	5
257.000000	15
257.299988	5
257.700012	5
258.500000	5
259.000000	5
260.500000	5
266.200012	5
270.100006	5
271.299988	5
271.700012	5
276.500000	5
281.299988	5
283.100006	10
284.349991	10
287.399994	5
287.700012	5
293.500000	5
295.899994	5
297.100006	5
298.000000	5
324.299988	5
326.200012	5
337.399994	5
338.700012	5
345.600006	10
354.700012	5
382.399994	5
397.100006	10
