Mass spectrum: Progesterone; LC-APPI-QQ; MS2; CE:40 V; [M+H]+
Name: Progesterone
Class: Natural Product; Steroid hormone
Formula: C21H30O2
Exact mass: 314.22458
SMILES: O=C(C4)C=C(C3)C(C)(C4)C(C2)C(C3)C(C1)C(C)(C2)C(C(C)=O)C1
InChI: InChI=1S/C21H30O2/c1-13(22)17-6-7-18-16-5-4-14-12-15(23)8-10-20(14,2)19(16)9-11-21(17,18)3/h12,16-19H,4-11H2,1-3H3
Instrument: API2000
Instrument type: LC-APPI-QQ
Ms type: MS2
Ion mode: POSITIVE
Retention time: 0.820833 min
Base peak: 109.199997
Precursor m/z: 315.400000
Precursor type: [M+H]+
m/z	relative intensity
38.200001	1
39.000000	1
40.500000	1
41.113636	1
43.052207	39
44.599998	1
44.950000	1
45.400002	1
50.299999	1
50.700001	1
51.000000	1
53.142858	1
53.700001	1
53.950001	1
55.086364	4
55.950001	1
56.425001	1
57.200000	1
57.900002	1
58.400002	1
58.839999	1
59.500000	1
59.900002	1
63.299999	1
64.300003	1
64.987500	1
65.300003	1
67.102866	11
67.900002	1
68.099998	1
69.109896	13
69.800003	1
71.111142	12
72.149998	1
72.699997	1
73.199997	1
74.500000	1
75.199997	1
75.925001	1
76.300003	1
77.101694	4
79.064753	51
81.107074	66
83.076018	44
85.037455	19
86.699997	1
87.166667	1
88.800003	1
89.099998	1
89.300003	1
91.049470	19
93.076491	38
95.099089	66
97.097242	999
98.103332	1
99.133332	1
101.350002	1
101.699997	1
102.300003	1
103.012500	1
104.169228	1
105.073789	35
105.699997	1
107.079551	40
109.073514	969
111.068493	5
111.699997	1
111.900002	1
112.199997	1
112.599998	1
113.244445	1
113.900002	1
114.300003	1
114.875002	1
115.250000	1
117.114814	7
119.097551	33
121.094084	35
121.857502	1
123.063333	96
124.283335	1
125.362502	1
126.400002	1
126.699997	1
126.900002	1
127.249999	1
127.800001	1
128.899994	1
129.156671	2
131.125381	20
133.142262	25
135.126258	12
136.300003	1
137.150632	13
138.100006	1
138.983332	1
139.300003	1
139.800003	1
141.266666	1
143.080740	9
145.103913	31
147.158072	28
149.111270	16
150.262501	1
151.224998	1
152.050003	1
152.600006	1
153.000000	1
153.374996	1
153.799998	1
154.237499	1
155.126667	2
156.063637	1
157.142130	14
159.137819	34
161.148305	16
162.370584	1
163.149890	15
163.899994	1
165.133337	1
165.600006	1
166.250000	1
167.114285	1
168.221052	1
169.128571	3
171.113425	19
173.154812	15
175.181212	11
176.100006	1
176.330000	1
177.202809	12
178.199997	1
179.194285	1
179.800003	1
180.000000	1
181.104762	1
182.110346	1
183.118010	7
184.111111	1
185.192064	8
186.046668	1
187.155696	11
188.199997	1
189.228986	9
189.800003	1
190.100006	1
191.227272	4
192.300003	1
192.525002	1
192.937496	1
193.333333	1
194.184620	1
195.191304	3
196.089999	1
196.500000	1
197.210439	6
199.249106	8
200.300003	1
201.180374	7
202.250000	1
203.186208	2
203.899994	1
204.100006	1
204.399994	1
204.800003	1
205.278259	1
205.600006	1
206.500000	1
207.300003	1
207.855554	1
209.171171	4
210.366669	1
211.171970	4
212.166667	1
212.399994	1
213.277777	10
215.191129	8
216.459998	1
217.100006	1
217.300003	1
218.300000	1
218.699997	1
218.937496	1
219.322222	1
220.600006	1
221.000000	1
221.399994	1
222.000000	1
223.163269	3
223.899994	1
224.235298	1
225.285712	1
225.899994	1
227.279882	6
227.899994	1
228.199997	1
228.912495	1
229.234210	1
230.000000	1
230.237499	1
231.234616	2
232.399994	1
232.969998	1
233.283333	1
233.899994	1
234.399994	1
235.309999	1
236.255554	1
237.261403	2
238.000000	1
238.199997	1
239.297222	10
240.300003	1
241.184000	3
242.100006	1
242.325001	1
242.600006	1
242.800003	1
243.422223	1
243.724998	1
244.000000	1
244.300003	1
245.348147	1
246.899994	1
247.300003	1
247.600006	1
247.800003	1
249.200000	1
250.060001	1
250.500000	1
251.078571	1
252.399994	1
253.261363	3
254.312496	1
255.312012	11
256.183339	1
257.226090	2
258.274994	1
258.725006	1
259.240002	1
261.100006	1
261.299988	1
262.200012	1
262.500000	1
263.399994	1
264.379993	1
264.799988	1
265.200012	1
266.899994	1
267.200012	1
267.500000	1
267.899994	1
268.150009	1
268.449997	1
269.000000	1
269.207153	1
269.750000	1
270.200012	1
271.263641	1
271.899994	1
272.190012	1
273.321669	2
277.449997	1
277.799988	1
278.200012	1
279.297181	5
281.000000	1
281.299988	1
281.799988	1
282.125008	1
282.399994	1
282.600006	1
283.250000	1
283.899994	1
284.399994	1
284.899994	1
285.399994	1
285.600006	1
285.949997	1
286.299988	1
286.600006	1
286.833323	1
287.400002	1
295.000000	1
295.200012	1
296.100006	1
297.291726	10
299.000000	1
299.700002	1
300.000000	1
300.283325	1
300.575005	1
313.200012	1
313.399994	1
314.150002	1
315.263559	8
316.100006	1
