Mass spectrum: Dihydrotestosterone; LC-APPI-QQ; MS2; CE:40 V; [M-2H2O+H]+
Name: Dihydrotestosterone
Class: Natural Product; Steroid hormone
Formula: C19H30O2
Exact mass: 290.22458
SMILES: O=C(C4)CC([H])(C3)C(C)(C4)C(C2)C(C3)C(C1)C(C)(C2)C(O)C1
InChI: InChI=1S/C19H30O2/c1-18-9-7-13(20)11-12(18)3-4-14-15-5-6-17(21)19(15,2)10-8-16(14)18/h12,14-17,21H,3-11H2,1-2H3/t12-,14?,15?,16?,17-,18?,19?/m0/s1
Instrument: API2000
Instrument type: LC-APPI-QQ
Ms type: MS2
Ion mode: POSITIVE
Retention time: 0.820833 min
Base peak: 81.199997
Precursor m/z: 255.200000
Precursor type: [M-2H2O+H]+
m/z	relative intensity
38.799999	1
39.200001	1
40.250000	1
40.500000	1
41.050000	11
42.200001	1
42.500000	1
43.011111	8
43.325000	4
45.200001	1
50.900002	1
51.299999	1
51.799999	1
52.200001	1
52.500000	1
53.000000	1
53.200001	3
53.900002	1
55.094068	109
56.400002	1
56.799999	5
57.100000	8
58.799999	1
59.099998	1
62.900002	1
63.200001	1
64.500000	1
64.762501	4
65.400002	3
65.800003	2
67.141617	388
69.140560	132
70.099998	1
70.800003	1
71.119999	5
71.500000	1
72.099998	1
73.099998	1
75.049999	1
75.500000	1
75.699997	1
76.166665	3
77.029578	66
77.800003	5
79.050617	449
81.120268	861
83.131250	59
84.000000	1
84.199997	1
84.500000	1
84.699997	1
85.000000	1
85.250000	1
86.500000	1
86.900002	1
87.699997	1
88.599998	1
89.687497	4
91.064391	534
93.117767	728
95.071646	730
96.199997	2
97.199997	8
101.500000	1
102.049999	2
102.400002	1
103.088461	24
105.050485	999
107.042903	436
107.800003	2
108.012500	4
109.110066	211
110.000000	1
110.400002	1
110.699997	1
110.950001	1
111.224998	2
113.199997	1
113.599998	1
114.199997	1
115.145000	28
117.104225	262
119.080687	390
121.134344	183
121.699997	1
121.900002	1
122.099998	1
122.400002	1
123.070000	37
125.199997	1
126.099998	1
126.400002	1
126.724998	4
127.199999	12
128.087211	79
129.109049	204
131.157635	496
133.134686	250
135.123159	88
136.500000	1
136.899994	1
137.399994	2
137.899994	1
138.500000	1
139.228570	6
139.899994	2
143.099473	351
145.112563	640
147.156768	334
149.008928	26
149.750000	1
150.949997	1
152.177782	4
153.042860	6
153.300003	3
153.800003	3
154.242857	6
155.162501	37
156.219046	19
157.152281	243
159.126027	607
161.157858	203
161.800003	2
162.399994	1
162.750000	1
163.180005	5
163.550003	1
164.399994	1
165.118752	7
165.800003	2
166.360001	2
166.921424	6
167.199997	5
167.787502	4
169.117024	22
171.114804	293
172.300003	8
173.219961	241
174.316668	6
175.114894	43
177.000000	1
177.199997	1
177.500000	1
177.849998	1
178.199997	1
178.500000	1
178.699997	1
179.264284	6
180.379999	5
181.199997	6
182.100006	5
182.300003	5
183.122916	67
185.137789	280
186.077780	17
187.194841	72
187.899994	1
188.199997	1
188.600006	2
189.152632	9
190.899994	1
192.300003	1
193.033335	3
193.800003	1
194.199997	2
195.100006	5
195.300003	5
196.045456	5
197.182926	38
199.190649	356
200.189192	34
201.399994	6
202.199997	1
203.000000	1
204.000000	1
204.199997	1
204.399994	1
204.800003	1
205.100006	1
206.500000	1
206.949997	1
207.500000	1
207.899994	1
208.199997	1
208.399994	1
208.800003	2
209.040002	5
209.300003	3
209.899994	1
210.199997	1
211.203774	49
212.224998	7
213.217333	139
214.100006	6
220.500000	1
221.000000	1
221.399994	1
222.000000	1
222.399994	2
222.699997	1
223.300003	3
223.899997	2
224.300003	1
226.135442	146
227.190599	108
228.100006	1
229.199997	1
232.899994	1
236.899994	1
237.300003	1
237.699997	1
238.100006	1
238.300003	1
239.060001	5
240.412308	30
251.500000	1
251.750000	1
252.199997	1
252.600006	1
252.800003	1
253.000000	2
253.199997	4
255.330084	436
256.150009	2
256.500000	1
259.500000	1
