Mass spectrum: 24-Ethylepicoprostanol; LC-APPI-QQ; MS2; CE:60 V; [M-H2O+H]+
Name: 24-Ethylepicoprostanol
Class: Natural Product; Sterol
Formula: C29H52O
Exact mass: 416.40182
SMILES: [H]C(C([H])23)(CCC(C)(C4C(C)CCC(C(C)C)CC)C(CC4)3[H])C(C(CC2)1[H])(CCC(O)C1)C
InChI: InChI=1S/C29H52O/c1-7-21(19(2)3)9-8-20(4)25-12-13-26-24-11-10-22-18-23(30)14-16-28(22,5)27(24)15-17-29(25,26)6/h19-27,30H,7-18H2,1-6H3/t20-,21+,22-,23-,24+,25?,26+,27+,28+,29-/m1/s1
Instrument: API2000
Instrument type: LC-APPI-QQ
Ms type: MS2
Ion mode: POSITIVE
Retention time: 0.820867 min
Base peak: 80.900002
Precursor m/z: 399.500000
Precursor type: [M-H2O+H]+
m/z	relative intensity
32.200001	1
38.599998	1
38.900002	1
40.400002	1
41.047059	16
41.900002	1
42.099998	3
43.106040	142
45.099998	1
45.400002	1
49.500000	1
49.900002	1
50.900002	1
53.000000	2
53.599998	2
53.983334	3
55.084210	271
57.130729	183
61.099998	1
64.300003	1
64.699997	1
65.000000	1
65.777778	9
67.096267	433
69.096419	372
70.169997	5
71.154202	113
72.049999	1
72.500000	1
74.099998	1
74.500000	1
76.000000	1
76.300003	2
77.175610	19
78.976364	209
81.093146	999
83.061604	166
83.900002	1
84.400002	2
85.251999	12
85.750000	2
86.300003	1
89.000000	1
89.500000	1
89.900002	1
91.070792	96
93.087088	346
95.037395	898
95.881820	5
96.387502	4
97.277049	29
97.800003	1
99.149998	1
100.599998	1
102.900002	1
103.250000	1
103.599998	1
103.800003	1
104.000000	1
105.037984	61
107.031274	246
109.065229	353
109.950001	2
110.199997	1
110.599998	1
110.800003	3
116.400002	1
116.599998	1
117.049999	2
117.750000	2
118.099998	2
118.740624	15
119.096666	29
119.850002	5
120.142855	7
121.056598	162
121.699997	1
123.044827	55
128.000000	1
128.300003	1
128.699997	1
128.949997	1
130.449997	1
130.750000	3
131.100006	4
131.300003	1
132.000000	2
133.019999	33
133.699997	1
134.300003	3
135.033333	80
136.000000	1
136.500000	1
136.699997	3
137.057144	7
142.300003	1
142.600006	1
142.899994	1
143.100006	1
143.399994	1
143.750000	1
144.500000	1
144.849998	2
145.100006	2
145.300003	1
145.899994	1
146.150002	3
146.399994	1
147.118606	20
147.510001	5
148.199997	1
149.073809	40
150.800003	1
151.349998	1
157.050003	1
157.300003	1
158.550003	1
158.800003	1
159.100006	2
159.600006	1
160.083338	3
160.500000	1
160.974999	13
161.949997	1
162.971427	7
163.399999	7
164.300003	1
165.199997	1
165.600006	1
166.000000	1
171.699997	1
172.100006	1
173.000000	1
173.374996	2
173.899994	1
174.199997	1
174.399994	2
174.799998	1
175.100006	2
175.349998	2
176.100006	1
176.899994	1
177.300003	1
177.500000	1
183.399994	1
184.600006	1
185.899994	1
187.000000	1
187.250000	1
187.500000	1
188.000000	1
188.500000	1
188.800003	1
189.419998	5
190.899994	1
191.150002	1
196.050003	1
201.300003	1
202.300003	1
202.500000	1
202.800003	1
203.080002	5
203.699997	1
206.899994	1
211.600006	1
213.199997	1
213.399994	1
214.500000	1
215.899994	1
216.449997	2
217.000000	1
217.466670	3
227.800003	1
228.899994	1
230.899994	1
231.300003	1
231.750000	1
233.500000	1
240.500000	1
243.199997	1
245.199997	1
246.800003	1
249.000000	1
249.399994	1
249.600006	1
257.399994	1
257.700012	1
258.200012	1
260.100006	1
260.899994	1
271.899994	1
273.100006	1
273.600006	1
275.299988	1
277.000000	1
285.899994	1
286.799988	1
287.600006	1
291.500000	1
294.200012	1
299.000000	1
300.600006	1
300.799988	1
312.500000	1
313.100006	1
314.399994	1
317.799988	1
318.650009	1
328.399994	1
328.799988	1
329.500000	1
330.600006	1
353.700012	1
356.899994	1
357.200012	1
379.000000	1
383.299988	1
396.500000	1
