Mass spectrum: Androstenedione; LC-APPI-QQ; MS2; CE:50 V; [M+H]+
Name: Androstenedione
Class: Natural Product; Steroid hormone
Formula: C19H26O2
Exact mass: 286.19328
SMILES: O=C(C4)C=C(C3)C(C)(C4)C(C2)C(C3)C(C1)C(C)(C2)C(=O)C1
InChI: InChI=1S/C19H26O2/c1-18-9-7-13(20)11-12(18)3-4-14-15-5-6-17(21)19(15,2)10-8-16(14)18/h11,14-16H,3-10H2,1-2H3/t14?,15?,16?,18-,19-/m0/s1
Instrument: API2000
Instrument type: LC-APPI-QQ
Ms type: MS2
Ion mode: POSITIVE
Retention time: 0.820833 min
Base peak: 97.000000
Precursor m/z: 287.300000
Precursor type: [M+H]+
m/z	relative intensity
37.700001	1
38.800001	1
39.225000	1
39.500000	1
41.129384	4
41.700001	1
41.900002	1
43.087660	10
44.599998	1
44.850000	1
45.237500	1
45.599998	1
50.099998	1
50.299999	1
50.500000	1
50.700001	1
51.099998	1
51.700001	1
52.025000	1
52.299999	1
53.117442	2
55.082074	22
56.187500	1
57.073958	2
57.900002	1
58.150000	1
58.750000	1
59.166665	1
62.375001	1
63.000000	1
63.400002	1
63.599998	1
65.189999	1
67.101733	32
69.103091	45
70.199997	1
71.065000	2
71.900002	1
72.800003	1
73.099998	1
73.350002	1
74.800003	1
75.000000	1
75.992857	1
77.090497	20
79.052847	181
81.112287	153
83.080346	45
84.291667	1
84.599998	1
85.124242	1
85.900002	1
87.300003	1
88.000000	1
88.699997	1
89.199997	1
91.052321	54
93.101408	42
95.104994	47
97.099970	999
99.100000	1
99.800003	1
100.099998	1
100.900002	1
101.500000	1
101.900002	1
102.174997	1
103.108196	3
105.041659	48
107.090990	29
109.078137	711
111.117778	2
112.750000	1
113.199997	1
113.450001	1
113.699997	1
114.069999	1
115.087951	4
117.108463	14
119.082551	26
121.080839	14
123.065322	75
123.980000	1
124.400002	1
124.699999	1
125.300003	1
126.000000	1
126.300003	1
126.500000	1
128.110608	6
129.103734	13
131.132495	19
133.131968	16
135.164376	3
136.075005	1
137.115152	1
137.800003	1
138.199997	1
138.600006	1
139.000000	1
141.106826	6
142.126149	6
143.079463	13
144.113914	5
145.106550	19
146.063636	1
147.138966	6
149.146226	2
150.142859	1
151.150002	1
152.220000	1
153.104254	2
155.080474	7
156.116170	5
157.151270	8
159.145679	10
160.326662	1
161.090476	4
161.899994	1
162.125004	1
163.226666	1
165.116101	3
166.006664	1
167.167469	4
168.169792	2
169.095299	10
171.103682	7
173.190142	6
174.086666	1
175.146667	1
175.800003	1
176.100001	1
176.841666	1
177.250000	1
179.227273	1
181.196682	4
182.240300	1
183.165000	5
184.190908	1
185.174874	8
186.059091	1
187.201769	2
188.800003	1
189.115386	1
190.174999	1
190.800003	1
191.100006	1
191.300003	1
191.600006	1
192.016668	1
192.800003	1
193.277774	1
194.061542	1
195.108045	2
196.189473	2
197.234786	1
197.800003	1
198.184620	1
199.266070	2
200.247998	1
201.227941	3
202.046261	3
203.161112	2
204.100006	1
204.300003	1
204.500000	1
205.000000	1
205.600006	1
205.899994	1
206.133336	1
207.333332	1
207.899994	1
208.416664	1
209.179797	2
210.199997	1
210.416662	1
211.171698	2
213.226667	2
214.167726	17
215.155104	2
216.199997	1
217.100006	1
217.500000	1
217.899994	1
218.500000	1
219.100006	1
219.349998	1
219.600006	1
220.199997	1
220.399994	1
221.219995	1
221.866664	1
222.299997	1
223.199997	1
223.800003	1
224.300003	1
224.500000	1
225.170591	1
226.229999	1
227.242308	1
228.358819	1
229.210362	4
231.092856	1
231.800003	1
232.100006	1
233.349998	1
233.800003	1
234.500000	1
234.933329	1
235.199997	1
235.500000	1
236.000000	1
236.399994	1
236.600006	1
237.699997	1
238.349998	1
238.699997	1
239.160004	1
240.300003	1
240.500000	1
241.349998	1
242.100006	1
242.600006	1
243.137503	1
244.202634	1
245.000000	1
245.300003	1
245.600006	1
248.899994	1
249.399994	1
250.199997	1
251.066671	1
251.364706	1
251.899994	1
252.699997	1
253.399994	1
254.333338	1
254.800003	1
255.300003	1
255.800003	1
256.000000	1
256.600006	1
257.100002	1
257.575005	1
257.974998	1
259.283338	1
266.700012	1
267.700012	1
268.000000	1
269.050003	1
269.299988	1
270.399994	1
270.899994	1
271.500000	1
271.700012	1
271.937496	1
272.233337	1
272.600006	1
284.700012	1
285.200012	1
285.399994	1
286.000000	1
287.172727	1
