Mass spectrum: Ethinyl estradiol; LC-APPI-QQ; MS2; CE:30 V; [M-H2O+H]+
Name: Ethinyl estradiol
Class: Non-Natural Product; Steroid hormone
Formula: C20H24O2
Exact mass: 296.17763
SMILES: Oc(c4)cc(C3)c(c4)C(C2)C(C3)C(C1)C(C)(C2)C(O)(C#C)C1
InChI: InChI=1S/C20H24O2/c1-3-20(22)11-9-18-17-6-4-13-12-14(21)5-7-15(13)16(17)8-10-19(18,20)2/h1,5,7,12,16-18,21-22H,4,6,8-11H2,2H3
Instrument: API2000
Instrument type: LC-APPI-QQ
Ms type: MS2
Ion mode: POSITIVE
Retention time: 0.820833 min
Base peak: 279.200012
Precursor m/z: 279.300000
Precursor type: [M-H2O+H]+
m/z	relative intensity
38.950001	1
40.500000	1
41.033334	1
42.000000	1
42.299999	1
43.140000	1
44.200001	1
45.049999	1
45.400002	1
50.500000	1
51.000000	1
51.299999	1
52.799999	1
53.200001	1
53.400002	1
54.299999	1
55.090972	8
56.400002	1
57.122222	2
58.400002	1
58.799999	1
59.299999	1
62.750000	1
64.900002	1
65.300003	1
65.699997	1
66.099998	1
67.124549	16
68.000000	1
68.199997	1
69.072726	5
70.149998	1
70.500000	1
70.900002	1
71.233332	1
74.500000	1
75.199997	1
75.599998	1
75.800003	1
77.050001	7
77.810003	1
79.015647	40
81.098232	45
81.900002	1
82.199997	1
83.107058	5
83.800003	1
84.950001	1
85.199997	1
87.400002	1
88.300003	1
88.649998	1
89.099998	1
91.056626	104
92.000000	1
93.094707	60
95.062698	68
96.000000	1
96.199997	1
97.046153	1
97.500000	1
99.199997	1
100.599998	1
100.900002	1
101.199999	1
103.100001	6
105.032333	186
107.052383	103
108.099998	1
109.033051	20
110.000000	1
110.250000	1
111.049999	1
111.500000	1
112.900002	1
113.350002	1
115.020618	6
115.400002	1
116.068421	2
117.086397	15
119.065358	135
121.075580	47
121.850002	1
122.099998	1
122.599998	1
123.174997	1
124.800003	1
125.199997	1
126.199997	1
126.400002	1
126.960001	2
127.199997	2
128.096723	3
129.043386	11
131.149481	66
133.104576	999
134.200000	1
135.088685	22
135.800003	1
136.199997	1
137.100006	1
138.500000	1
138.899994	1
139.399994	1
141.130948	29
142.223812	2
143.131958	11
144.103785	42
145.069637	80
147.110685	117
149.070629	16
150.399994	1
150.699997	1
151.100006	1
151.650002	1
151.937496	1
153.130000	7
153.799998	1
154.377775	1
154.812763	3
155.189190	4
157.107234	204
159.109731	760
160.066671	1
161.173749	5
162.100006	1
162.700002	1
163.150002	1
163.600006	1
163.899994	1
164.500000	1
165.083267	14
165.993103	2
167.081819	8
167.800003	1
168.300000	1
169.064706	11
171.089590	51
173.121786	26
173.849998	1
174.199997	1
174.699997	1
174.899994	1
175.233332	1
176.199997	1
176.500000	1
177.200003	2
177.500000	1
178.107409	2
179.173786	12
180.200000	1
181.139798	11
183.118317	76
185.128860	73
186.199997	1
186.500000	1
186.811113	1
187.255554	3
187.899994	1
188.199997	1
188.500000	1
188.800003	1
189.171430	1
189.500000	1
191.096551	7
191.949997	1
192.399994	1
193.317947	4
195.119019	37
196.098112	12
197.167793	50
198.089830	7
199.123870	18
199.816668	1
201.062848	18
202.016668	1
203.037502	1
205.185828	7
206.300003	1
207.199997	2
209.125164	130
210.144156	9
211.132727	44
212.419995	1
213.126389	4
215.075005	1
215.300003	1
215.849998	1
216.100006	1
216.600006	1
216.919998	1
217.375000	1
218.000000	1
218.255554	1
219.026317	4
221.072665	9
222.183609	7
223.183890	78
224.185485	11
225.148150	3
226.000000	1
227.100006	1
228.899994	1
229.600006	1
230.300003	1
230.650002	1
230.899994	1
231.233332	1
231.600006	1
232.399994	1
233.135850	3
234.100006	1
234.300003	1
235.189658	7
236.188079	17
237.213299	44
238.180644	4
239.500000	1
243.100006	1
243.899994	1
244.199997	1
244.399994	1
244.899994	1
245.100006	1
245.550003	1
246.460001	1
247.305558	1
248.287502	1
249.164617	7
250.151281	9
251.202647	47
253.300003	1
258.700012	1
259.000000	1
259.200012	1
259.399994	1
260.399994	1
260.600006	1
261.330434	3
261.799988	1
262.140009	1
262.399994	1
262.675011	1
263.077783	1
264.212501	17
265.250000	1
270.299988	1
272.600006	1
273.299988	1
275.000000	1
275.500000	1
276.100006	1
276.299988	1
276.500000	1
276.700012	1
277.330768	1
279.248369	321
280.500000	1
280.750000	1
