Mass spectrum: 5mPFOS; LC-ESI-QQ; MS2; CE30eV
Name: 5mPFOS
Class: Non-Natural Product
Formula: C8HF17O3S
Exact mass: 499.93749
SMILES: FC(F)(F)C(F)(F)C(F)(C(F)(F)F)C(F)(F)C(F)(F)C(F)(F)C(F)(F)S(O)(=O)=O
InChI: InChI=1S/C8HF17O3S/c9-1(6(18,19)20,3(12,13)7(21,22)23)2(10,11)4(14,15)5(16,17)8(24,25)29(26,27)28/h(H,26,27,28)
Instrument: Xevo TQ, Waters
Instrument type: LC-ESI-QQ
Ms type: MS2
Ion mode: NEGATIVE
Collision energy: 30eV
Retention time: 15.845417 min
Base peak: 79.899559
Precursor m/z: 498.9
Precursor type: [M-H]-
m/z	relative intensity
79.882798	587
83.036797	174
98.717123	363
119.290468	65
130.013837	859
168.994805	59
179.841756	327
193.618040	252
218.896516	166
229.687277	475
280.089868	412
310.638891	64
379.986828	85
429.697153	96
496.816098	45
498.828325	999
