Mass spectrum: Estrone; LC-APPI-QQ; MS
Name: Estrone
Class: Natural Product; Steroid hormone
Formula: C18H22O2
Exact mass: 270.16198
SMILES: Oc(c4)cc(C3)c(c4)C(C2)C(C3)C(C1)C(C)(C2)C(=O)C1
InChI: InChI=1S/C18H22O2/c1-18-9-8-14-13-5-3-12(19)10-11(13)2-4-15(14)16(18)6-7-17(18)20/h3,5,10,14-16,19H,2,4,6-9H2,1H3
Instrument: API2000
Instrument type: LC-APPI-QQ
Ms type: MS
Ion mode: POSITIVE
Retention time: 0.804333 min
Base peak: 271.100006
Ion type: [M+H]+,[M-H2O+H]+
m/z	relative intensity
201.148460	31
203.102261	7
205.103644	7
207.115967	6
209.138035	17
211.142923	19
213.132722	24
214.187954	5
215.145620	9
216.167527	2
217.125029	4
218.102799	2
219.101575	8
221.103934	16
222.144253	4
223.132952	21
224.174785	5
225.159308	12
227.166739	9
229.139347	6
230.161795	6
231.140357	12
233.111668	27
235.104990	24
237.140738	34
238.143336	9
239.143213	22
241.190396	7
243.167297	5
244.167815	5
245.142843	18
247.126651	65
249.115383	64
251.143806	50
253.206742	377
257.156916	12
259.135252	34
261.105826	39
263.099540	50
265.104194	21
267.162145	69
269.187305	84
271.211214	999
275.146231	23
277.120330	20
279.131397	21
281.158441	15
283.155215	10
285.197135	28
287.179469	9
289.204904	12
291.177839	11
293.202712	16
295.160565	7
297.178998	9
299.195187	9
301.205094	6
303.194680	5
305.261526	6
307.204425	8
309.202680	10
311.214531	5
312.247465	2
313.209343	5
314.173938	2
315.251823	6
317.199057	3
318.205635	1
319.206020	3
321.218211	4
323.201791	6
324.214914	3
325.185096	6
326.239205	2
327.201021	4
328.229435	2
329.189759	3
331.178819	3
333.158166	3
335.192212	4
337.220177	7
338.239599	6
339.182567	6
341.219198	4
342.247559	2
343.225108	4
345.188855	2
347.205374	2
350.240355	9
351.221001	7
353.262298	7
355.228676	4
357.253484	3
359.256990	5
361.278685	7
365.234472	3
367.252171	3
369.318857	2
371.292081	3
373.345123	4
375.308984	6
377.289926	5
379.281481	1
381.272508	1
383.298775	2
385.289903	1
387.319628	1
388.338971	1
389.291233	2
391.342204	4
393.332671	2
395.296403	1
397.270689	1
399.317158	3
