Mass spectrum: Dehydroepiandrosterone; LC-APPI-QQ; MS2; CE:20 V; [M-2H2O+H]+
Name: Dehydroepiandrosterone
Class: Natural Product; Steroid hormone
Formula: C19H28O2
Exact mass: 288.20893
SMILES: OC(C4)CC(=C3)C(C)(C4)C(C2)C(C3)C(C1)C(C)(C2)C(=O)C1
InChI: InChI=1S/C19H28O2/c1-18-9-7-13(20)11-12(18)3-4-14-15-5-6-17(21)19(15,2)10-8-16(14)18/h3,13-16,20H,4-11H2,1-2H3/t13-,14?,15?,16?,18?,19?/m0/s1
Instrument: API2000
Instrument type: LC-APPI-QQ
Ms type: MS2
Ion mode: POSITIVE
Retention time: 0.820883 min
Base peak: 253.300003
Precursor m/z: 253.300000
Precursor type: [M-2H2O+H]+
m/z	relative intensity
38.700001	1
41.299999	1
43.100000	1
51.900002	1
53.000000	1
54.299999	1
54.966667	1
55.299999	1
56.875001	1
58.350000	1
59.000000	1
64.800003	1
65.300003	1
66.000000	1
66.199997	1
67.023308	2
67.800003	1
68.266668	1
69.041881	2
70.099998	1
70.400002	1
71.000000	1
71.400002	1
72.400002	1
74.699997	1
75.000000	1
77.087499	1
77.750000	1
78.000000	1
79.056897	2
81.080529	21
83.058923	4
84.624998	1
85.099998	1
85.300003	1
88.900002	1
89.300003	1
89.649998	1
89.900002	1
91.020354	3
92.300003	1
93.080915	7
95.027899	8
95.900002	1
96.450001	1
97.103845	1
98.000000	1
98.900002	1
99.300003	1
101.049999	1
101.400002	1
101.699997	1
102.699997	1
103.000000	1
103.300003	1
105.028190	7
105.699997	1
105.950001	1
107.020130	7
109.079544	15
110.525000	1
111.129630	1
112.199997	1
113.199997	1
113.400002	1
113.900002	1
114.800003	1
115.055555	1
115.559999	1
115.971429	1
117.088478	4
118.099998	1
119.026050	3
121.080509	10
122.000000	1
123.083388	4
123.900002	1
124.400002	1
124.699997	1
124.900002	1
125.300003	1
125.500000	1
126.400002	1
126.800003	1
128.027778	1
129.063897	5
130.191664	1
131.077700	6
131.800003	1
132.100006	1
133.098034	6
134.100006	1
135.108737	6
136.300003	1
137.193748	1
139.000000	1
139.399994	1
140.100006	1
141.070652	3
142.138574	1
143.075000	27
145.056090	20
147.137401	22
149.127689	14
150.000000	1
150.899994	1
151.399994	1
152.250000	1
152.550003	1
152.899994	1
153.100006	1
153.399994	1
155.091935	5
157.116458	46
159.084771	19
160.164286	1
161.084337	5
162.274998	1
162.650002	1
163.199997	1
164.500000	1
164.699997	1
164.899994	1
165.849998	1
166.100006	1
166.500000	1
166.950000	1
167.699997	1
169.071041	6
171.095981	38
172.166669	1
173.178704	9
173.899994	1
174.855554	1
175.391999	1
176.100006	1
178.000000	1
178.399994	1
178.650002	1
178.949997	1
179.899994	1
181.133334	1
183.115782	22
185.143151	17
187.160495	9
187.899994	1
188.300003	1
188.899994	1
189.100006	1
190.300003	1
190.899994	1
191.199997	1
191.550003	1
192.020000	1
192.837500	1
193.199997	1
193.775002	1
194.199997	1
195.248612	1
197.186969	118
199.174023	15
202.300003	1
203.000000	1
203.349998	1
204.000000	1
204.600006	1
205.000000	1
205.300003	1
205.500000	1
205.899994	1
206.199997	1
207.194737	1
208.100006	1
208.899994	1
211.166794	23
218.399994	1
218.800003	1
219.399994	1
219.699997	1
219.899994	1
220.399994	1
221.189191	1
222.000000	1
223.148838	2
224.239504	2
225.189708	15
233.100006	1
235.225000	1
235.916662	1
236.199997	1
236.500000	1
236.899994	1
238.252218	6
247.199997	1
248.949997	1
249.300003	1
249.699997	1
250.199997	1
250.399994	1
253.283448	999
265.600006	1
