Mass spectrum: Dihydrotestosterone; LC-APPI-QQ; MS2; CE:20 V; [M+CH3]+
Name: Dihydrotestosterone
Class: Natural Product; Steroid hormone
Formula: C19H30O2
Exact mass: 290.22458
SMILES: O=C(C4)CC([H])(C3)C(C)(C4)C(C2)C(C3)C(C1)C(C)(C2)C(O)C1
InChI: InChI=1S/C19H30O2/c1-18-9-7-13(20)11-12(18)3-4-14-15-5-6-17(21)19(15,2)10-8-16(14)18/h12,14-17,21H,3-11H2,1-2H3/t12-,14?,15?,16?,17-,18?,19?/m0/s1
Instrument: API2000
Instrument type: LC-APPI-QQ
Ms type: MS2
Ion mode: POSITIVE
Retention time: 0.820850 min
Base peak: 305.399994
Precursor m/z: 305.400000
Precursor type: [M+CH3]+
m/z	relative intensity
41.200001	1
54.799999	1
55.099998	1
55.500000	1
64.599998	1
66.400002	1
66.800003	1
67.400002	1
68.800003	1
70.599998	1
70.850002	1
71.099998	1
71.400002	1
72.599998	1
73.199997	1
77.199997	1
78.199997	1
78.950001	2
79.300003	1
79.500000	1
79.800003	1
80.991667	10
81.226922	11
82.800003	1
83.000000	1
83.400002	1
83.699997	1
85.060494	33
89.199997	1
89.900002	1
90.099998	1
90.300003	1
90.500000	1
91.000000	5
91.199997	5
91.800003	1
92.199997	1
93.066666	2
93.400002	1
94.400002	1
94.783335	2
95.000000	3
96.199997	1
96.400002	1
97.000000	1
97.199997	1
99.049999	1
102.300003	1
103.300003	1
103.800003	1
105.060909	45
106.149998	1
106.978572	11
108.000000	1
108.500000	1
109.095000	8
110.599998	1
110.975000	2
111.250000	1
112.199997	1
113.099998	1
115.199997	1
116.300003	1
117.199997	1
117.900002	1
119.130768	11
119.800003	1
120.199997	1
120.699997	2
121.000000	8
122.000000	1
123.179999	4
124.800003	1
125.049999	1
128.800003	1
130.650002	2
131.000000	2
131.300003	2
131.699997	1
133.142859	6
134.100006	1
134.935293	7
135.300003	4
135.800003	1
136.300003	1
136.978570	6
139.100006	1
142.399994	1
143.199997	1
143.600006	1
144.199997	1
145.047674	35
146.199997	1
147.227779	15
148.699997	2
149.046157	5
149.383329	2
150.199997	1
150.699997	1
150.899994	1
151.100006	1
153.399994	1
154.500000	1
154.899994	1
155.300003	1
155.500000	1
156.000000	1
156.399994	1
156.600006	1
156.800003	1
157.244442	4
157.699997	1
159.156865	41
160.000000	1
160.199997	1
160.399994	1
161.099999	28
161.949997	1
162.399994	1
162.800003	3
163.073335	6
163.462498	3
164.399994	1
165.075001	3
165.399994	2
167.100006	1
167.399994	1
167.800003	1
168.500000	1
168.899994	1
169.100006	1
170.000000	1
171.100006	6
171.899994	1
172.399994	1
173.166667	32
174.199997	1
175.115388	5
176.500000	1
177.200002	5
177.500000	1
179.399994	1
180.399994	1
181.075005	2
181.849998	1
183.000000	1
183.300003	1
183.899994	1
185.084210	15
185.699997	1
186.300003	1
186.500000	1
187.085713	6
187.600006	1
188.199997	1
188.600006	1
189.199997	3
189.583338	2
190.300003	1
190.716665	2
191.128573	6
192.399994	1
192.949997	1
193.800003	1
194.966665	2
195.399994	1
195.600006	1
196.050003	2
196.399994	1
197.062499	7
198.244446	4
199.120512	32
200.100006	1
200.399994	1
201.250527	39
201.800003	1
202.399994	1
202.699997	1
203.066671	2
203.399994	2
205.216665	2
205.500000	1
207.100006	1
207.399994	1
208.800003	1
209.100006	1
210.100006	2
210.300003	1
211.059998	4
212.300003	2
212.936362	18
213.249998	16
214.337500	3
215.000000	9
215.233331	15
217.293753	7
218.100006	1
219.199997	1
219.449997	1
221.500000	2
223.100006	1
223.300003	1
225.100006	1
226.300003	1
227.179998	6
227.899994	1
229.191998	10
230.000000	1
230.600006	1
230.800003	1
231.299997	4
233.339998	12
235.150002	1
236.500000	1
236.800003	1
237.100006	1
240.500000	1
241.100006	1
243.000000	1
243.199997	1
244.600006	1
244.899994	1
245.100006	2
245.424995	2
246.199997	1
246.600006	1
247.000000	1
248.899994	1
249.299998	1
251.100006	1
251.399994	1
253.300003	1
253.500000	1
254.199997	1
255.306240	274
257.600006	1
257.799988	1
258.100006	1
258.899994	1
259.160004	2
259.500000	1
259.700012	1
261.250000	2
262.250000	1
263.200012	1
269.000000	1
269.200012	1
269.399994	1
272.100006	1
272.399994	1
272.600006	1
273.403072	53
274.100006	1
275.399994	1
275.899994	1
276.100006	1
276.449997	1
277.150009	2
277.399994	1
277.700012	1
287.110007	4
289.899994	1
303.200012	1
303.600006	1
305.366383	999
