Mass spectrum: Coprostanone; LC-APPI-QQ; MS2; CE:30 V; [M+H]+
Name: Coprostanone
Class: Natural Product; Sterol
Formula: C27H46O
Exact mass: 386.35487
SMILES: C(C)(C1)(C(C(C)CCCC(C)C)4)C(CC4)C(C2)C(C(C)(C3)C([H])(CC(C3)=O)C2)C1
InChI: InChI=1S/C27H46O/c1-18(2)7-6-8-19(3)23-11-12-24-22-10-9-20-17-21(28)13-15-26(20,4)25(22)14-16-27(23,24)5/h18-20,22-25H,6-17H2,1-5H3/t19?,20-,22?,23?,24?,25?,26?,27?/m1/s1
Instrument: API2000, Applied
Instrument type: LC-APPI-QQ
Ms type: MS2
Ion mode: POSITIVE
Retention time: 0.820833 min
Base peak: 387.399994
Precursor m/z: 387.449000
Precursor type: [M+H]+
m/z	relative intensity
40.599998	1
41.000000	1
41.299999	1
42.400002	1
42.799999	1
43.000000	3
43.299999	1
43.500000	1
52.900002	1
54.500000	1
55.026666	10
55.799999	1
56.099998	4
57.036842	99
57.850000	1
58.200001	1
64.900002	1
65.099998	1
65.500000	1
67.015152	43
69.077406	156
70.099998	3
71.086666	98
77.000000	2
77.599998	1
77.800003	1
78.000000	1
79.046153	17
79.699997	3
79.983334	8
81.059799	521
82.083332	4
83.087463	219
84.099998	2
84.360002	7
85.107874	83
89.900002	1
90.099998	1
90.996923	43
93.057693	153
93.931819	14
95.023903	999
97.057711	263
97.925001	10
98.342857	9
99.300003	7
103.500000	3
103.800003	1
104.996552	114
105.800003	3
107.044578	217
109.057660	705
111.078948	323
111.900002	1
112.300001	2
113.074999	5
113.400002	2
114.099998	1
115.000000	1
115.699997	1
116.199997	1
116.400002	1
116.750000	3
117.199999	4
119.022064	184
120.000000	5
121.071937	331
123.057194	364
125.092091	116
125.900002	1
126.400002	2
126.599998	1
126.980000	7
128.800003	1
129.899994	1
130.300003	1
130.899994	12
131.188893	24
132.323528	11
133.083051	232
133.899994	5
135.085267	417
135.899994	2
137.129493	284
137.899994	1
138.100006	1
138.300003	1
138.999997	15
140.199997	1
141.100006	1
141.300003	1
142.500000	1
143.100006	1
143.600006	1
143.899994	1
144.300003	3
145.112265	69
145.883329	4
147.124398	461
149.117013	377
150.037498	10
151.157047	195
151.899994	1
152.449997	3
153.100006	2
153.399997	3
154.699997	1
154.899994	1
157.000000	1
157.399994	1
158.199997	1
159.122502	52
161.107241	669
163.103584	183
165.061476	160
166.299998	2
167.000000	2
167.300003	1
170.600006	1
171.100001	2
171.800003	1
172.100006	1
173.165713	92
175.107941	264
176.100006	1
176.300003	5
177.260227	58
179.184313	133
180.199997	1
180.399994	1
180.899994	2
181.300003	1
182.899994	1
183.399994	1
184.399994	1
184.899994	2
185.600001	2
185.899994	2
187.154205	280
189.203450	114
190.075005	3
190.500000	3
191.074512	33
191.899999	2
192.224998	3
193.220875	194
194.199997	1
195.300003	1
197.199997	1
197.899994	1
198.500000	1
198.699997	1
199.100001	4
199.399994	1
199.800003	1
200.266668	4
201.119445	236
202.100006	1
203.173332	118
204.000000	1
205.190265	148
206.199997	3
207.158491	208
209.000000	1
209.424995	3
212.300003	1
213.100006	2
213.500000	2
214.224998	5
214.500000	3
215.146774	122
215.949997	1
216.300003	1
217.156191	69
218.200002	4
219.173771	279
220.100006	1
220.800003	14
221.256250	52
222.000000	1
223.199997	1
226.899994	1
227.200002	2
228.199997	2
229.186666	128
230.199997	2
230.500000	1
231.140000	16
232.150002	7
233.168751	84
234.199997	1
234.399994	1
235.399994	8
236.300003	1
237.199997	1
241.399994	3
241.699997	1
242.100006	1
242.300003	2
243.287374	130
244.100006	1
244.349998	1
245.084619	17
246.199997	1
246.399994	1
247.253334	39
248.199997	1
248.449997	1
248.699997	1
249.240001	26
250.500000	1
250.800003	1
254.899994	1
255.100006	3
255.600006	2
255.800003	2
256.399994	3
257.286208	114
258.200012	1
259.269745	78
261.421870	42
262.399994	1
263.200012	4
263.449997	1
263.799988	1
268.700012	1
270.100006	1
270.987499	5
271.417390	15
272.200012	1
273.333534	109
274.000000	2
274.200012	1
274.650009	1
275.248649	48
277.100006	3
277.399994	1
281.250000	1
283.100006	1
284.000000	1
285.226666	10
286.500000	1
287.200012	9
287.526089	15
288.250000	1
289.257141	9
289.700012	3
290.600006	1
291.500000	1
296.399994	1
298.349991	1
299.213336	10
299.600006	5
300.000000	1
300.299988	1
300.799988	1
301.150009	3
301.399994	4
301.600006	1
301.799988	1
302.000000	2
302.200012	1
302.399994	2
302.939996	3
303.212509	5
304.600006	1
304.899994	1
305.600006	1
308.949997	1
309.299988	1
309.500000	1
312.299988	1
312.700012	1
313.422217	12
314.000000	1
314.399994	1
314.799988	1
315.449997	5
316.000000	2
316.399994	1
317.000000	1
317.399994	3
318.849991	1
319.100006	1
326.600006	1
327.100006	5
327.500000	3
327.799988	2
328.349991	3
329.050003	4
329.299988	3
329.500000	4
329.700012	1
329.899994	1
330.799988	1
331.100006	1
331.799988	1
339.849991	1
340.100006	1
340.399994	1
341.424995	3
341.799988	1
343.000000	1
344.399994	1
345.399994	1
353.700012	1
354.324989	3
354.633341	4
355.500000	1
358.550003	1
359.399994	1
367.100006	1
367.600006	1
368.175011	3
369.415587	747
371.349991	1
372.216675	4
372.500000	5
372.899994	1
373.100006	1
373.299988	1
385.100006	1
387.424465	733
388.700012	1
