Mass spectrum: Epicoprostanol; LC-APPI-QQ; MS
Name: Epicoprostanol
Class: Natural Product; Sterol
Formula: C27H48O
Exact mass: 388.37052
SMILES: CC(C4)(C(CC(O)C4)3)C(C2)C(CC3)C(C1)C(C)(C2)C(C(C)CCCC(C)C)C1
InChI: InChI=1S/C27H48O/c1-18(2)7-6-8-19(3)23-11-12-24-22-10-9-20-17-21(28)13-15-26(20,4)25(22)14-16-27(23,24)5/h18-25,28H,6-17H2,1-5H3
Instrument: API2000, Applied
Instrument type: LC-APPI-QQ
Ms type: MS
Ion mode: POSITIVE
Retention time: 0.821167 min
Base peak: 371.399994
Ion type: [M-H2O+H]+
m/z	relative intensity
201.168439	48
202.113577	14
203.153919	115
204.134932	26
205.176912	59
207.176853	61
208.187004	14
209.163230	28
210.179011	13
211.155103	42
212.182132	10
213.130115	20
214.201702	13
215.203936	162
216.240723	44
217.231855	61
218.151155	17
219.176736	47
220.149360	14
221.169715	36
222.150838	10
223.139715	21
224.153857	7
225.177430	14
226.188186	4
227.194210	15
228.211358	8
229.175524	22
230.198374	12
231.189246	82
232.219765	18
233.228070	34
234.159024	9
235.179297	22
237.128486	113
238.124057	29
239.160302	21
240.204135	6
241.263722	15
242.273899	5
243.270509	44
244.274170	11
245.278562	56
246.293917	13
247.246086	40
248.235112	10
249.203418	21
250.148822	6
251.134339	13
252.117754	4
253.177026	10
254.145263	3
255.204311	14
257.296867	45
259.270157	44
260.254864	12
261.264989	54
263.168727	28
264.203065	8
265.167157	9
266.094174	3
267.119058	10
268.129677	3
269.193834	10
270.129444	4
271.195932	17
272.201074	6
273.278909	33
275.287455	41
277.182366	13
279.176383	27
280.206416	8
281.186675	9
283.170983	9
285.224958	16
287.281172	29
289.318673	21
291.231197	7
292.246476	2
293.213532	6
295.210371	6
297.208432	10
298.194730	3
299.218887	11
301.322793	20
302.313333	8
303.293806	7
304.291456	3
305.281925	4
307.295058	7
309.259584	6
310.223924	2
311.266968	9
313.299465	12
315.374069	33
316.394776	13
317.294712	5
319.203593	3
320.277775	1
321.298749	4
322.290860	2
323.260682	4
324.308783	2
325.233823	6
326.247048	3
327.269453	7
328.344601	4
329.339044	10
330.301653	4
331.293095	5
332.299605	3
333.287425	4
334.183764	1
335.234075	4
336.321447	2
337.263520	5
339.302013	7
340.276151	3
341.307904	6
343.337586	6
344.345833	3
345.308827	3
347.251184	4
349.260338	6
351.289308	7
352.355845	2
353.374684	9
355.458105	50
357.342956	11
359.315683	7
361.282518	7
363.287084	8
365.363640	11
367.430667	40
369.480545	256
371.495268	999
375.305424	9
377.327432	6
379.332751	11
381.402120	20
383.433470	59
385.477461	107
387.495981	57
391.399934	16
392.389147	5
393.317960	3
394.321167	1
395.375887	3
397.367944	3
399.428543	11
401.458361	13
403.441521	5
404.451187	2
405.381878	2
407.425000	2
409.352674	2
411.378125	2
413.398749	3
415.498560	26
416.502372	8
417.473253	3
418.360997	1
419.477181	2
420.354542	1
421.442479	1
422.392521	1
423.352272	1
424.277611	1
425.382231	1
427.454643	5
428.500533	2
429.410124	1
431.370002	1
433.418182	4
434.419007	1
435.393241	1
436.394543	1
437.403596	1
439.414238	2
441.360994	1
443.363633	1
445.385533	2
447.516468	4
449.495225	2
451.474156	2
453.419559	2
454.370208	1
455.366316	1
456.475608	1
457.353501	1
458.358968	1
459.372925	1
460.425192	1
461.455141	5
462.450621	3
464.338261	1
465.474446	1
467.471560	1
468.388034	1
469.437718	1
470.474998	1
471.465940	1
473.388459	1
475.417287	2
477.461455	4
478.447401	2
479.447368	1
480.463302	1
481.399447	1
482.441270	1
483.476153	1
484.000000	1
484.451808	1
485.410753	1
486.445121	1
487.497143	1
488.445568	1
489.471429	1
490.435897	1
491.455469	1
493.512223	9
495.517675	1
496.541174	1
497.480487	1
498.299996	1
499.514816	1
