Mass spectrum: Dihydrotestosterone; LC-APPI-QQ; MS2; CE:50 V; [M+H]+
Name: Dihydrotestosterone
Class: Natural Product; Steroid hormone
Formula: C19H30O2
Exact mass: 290.22458
SMILES: O=C(C4)CC([H])(C3)C(C)(C4)C(C2)C(C3)C(C1)C(C)(C2)C(O)C1
InChI: InChI=1S/C19H30O2/c1-18-9-7-13(20)11-12(18)3-4-14-15-5-6-17(21)19(15,2)10-8-16(14)18/h12,14-17,21H,3-11H2,1-2H3/t12-,14?,15?,16?,17-,18?,19?/m0/s1
Instrument: API2000
Instrument type: LC-APPI-QQ
Ms type: MS2
Ion mode: POSITIVE
Retention time: 0.820833 min
Base peak: 79.199997
Precursor m/z: 291.300000
Precursor type: [M+H]+
m/z	relative intensity
40.500000	10
40.799999	10
41.099998	20
41.400000	30
41.900002	10
42.099998	20
42.350000	20
42.799999	80
43.191666	240
45.099998	10
45.299999	10
51.200001	10
51.799999	10
52.900002	10
53.299999	10
54.400002	20
54.700001	70
55.200001	130
55.700001	20
56.299999	10
56.700001	10
57.028571	70
57.400002	10
59.450001	20
60.299999	10
64.000000	10
64.699997	10
65.199997	20
65.800003	10
66.199997	30
66.699997	50
67.177273	440
68.149998	20
68.500000	20
69.014285	140
69.950001	20
70.350002	20
71.071427	140
71.699997	10
75.900002	20
76.300003	10
76.800003	30
77.012500	80
77.599998	10
77.900002	10
79.066667	659
79.900002	20
80.099998	20
81.156000	999
82.149998	60
82.400002	30
82.599998	40
82.975000	40
83.250000	60
84.400002	20
84.599998	10
85.300001	60
85.900002	10
89.250000	20
89.699997	10
91.062162	739
91.800003	30
92.199997	40
92.400002	50
93.101817	549
94.599998	60
95.054166	480
95.800003	20
96.099998	30
96.400002	10
96.800003	30
97.300003	80
97.800003	10
98.400002	10
99.099998	20
99.500000	10
101.000000	20
101.199997	10
101.400002	10
102.199997	10
102.400002	20
102.900002	10
103.099998	20
103.500000	10
103.950001	20
105.036508	629
105.699997	30
106.240001	50
106.884212	380
107.277779	270
107.900002	10
108.099998	10
108.400002	10
108.800003	50
109.400002	30
109.800003	10
110.099998	10
110.400002	40
111.124998	40
111.800003	10
112.900002	10
114.099998	10
114.400002	10
114.900002	50
115.500000	10
115.800003	10
116.099998	10
116.400002	20
117.053845	130
118.000000	10
118.199997	20
118.924001	250
119.300003	140
120.049999	20
120.400002	10
121.100002	200
123.039999	50
123.500000	20
124.800003	10
125.199997	20
126.400002	10
126.900002	20
127.250000	20
128.283335	60
128.916664	120
130.025002	40
130.300003	30
130.550003	20
131.181818	330
132.100006	30
132.300003	50
133.066671	180
133.335714	140
134.000000	20
134.399994	10
134.800003	60
135.300003	40
136.000000	10
139.000000	10
139.199997	10
140.100001	30
140.899994	10
141.399994	20
141.699997	10
142.049995	40
142.399994	30
142.937496	80
143.199997	30
143.399994	40
143.699997	20
144.199997	40
144.600006	30
145.021054	190
145.300003	130
145.800003	20
146.199997	20
146.399994	20
146.600006	10
147.166665	90
148.899994	20
149.500000	10
149.699997	10
150.500000	10
150.699997	10
150.899994	20
151.150002	20
151.600006	20
152.199997	20
152.399994	10
152.699997	10
152.899994	10
153.199997	20
153.399994	20
153.699997	10
154.300003	10
155.050003	20
155.300003	20
156.000000	10
156.399994	20
156.600006	10
157.025002	40
157.300003	50
157.849998	40
158.200002	60
158.800003	70
159.200002	270
160.100006	20
161.199997	60
161.600006	10
162.500000	10
162.699997	30
162.949997	60
163.399994	20
163.699997	20
164.100006	20
165.133336	60
165.600006	30
166.199997	20
167.250000	20
167.699997	10
168.000000	10
168.199997	10
168.699997	10
168.899994	10
169.199997	20
169.399994	10
169.600006	20
169.899994	10
170.100006	10
170.550003	20
171.199997	70
171.699997	10
171.899994	20
173.259998	100
173.800003	10
174.899994	40
175.233332	60
175.699997	10
176.125000	80
176.399994	30
177.199997	40
177.699997	10
177.899994	70
178.125004	80
178.500000	40
179.170000	100
181.500000	20
183.000000	10
183.500000	10
184.000000	10
184.300003	10
185.160001	100
185.500000	10
186.100006	20
186.399994	20
186.899994	20
187.300003	10
187.600006	10
188.300003	20
188.908332	240
189.387495	80
189.600006	30
189.899994	10
190.125004	40
190.399994	30
190.600006	50
191.028570	140
192.174998	200
192.600006	10
193.100006	20
193.300003	30
194.100006	20
194.399994	20
194.899994	10
197.000000	10
197.199997	10
197.399994	10
198.699997	20
198.899994	10
199.125004	40
199.800003	20
200.100006	20
200.399994	10
200.600006	10
200.899994	20
201.100006	10
202.136842	380
202.899994	90
203.300003	100
203.800003	30
204.139999	50
204.399994	20
205.012501	80
205.374996	80
205.800003	20
206.250000	40
207.139999	50
207.399994	10
208.199997	10
208.399994	10
209.199997	10
210.800003	10
211.100006	10
211.300003	10
212.000000	10
212.500000	10
212.800003	20
213.050003	20
213.449997	40
214.100006	20
214.300003	30
215.030000	200
215.849998	60
216.199997	90
216.899994	30
217.199997	70
217.699997	20
218.083338	60
218.500000	10
219.077779	180
220.071433	140
220.750000	20
221.100006	10
221.300003	20
222.100006	10
223.100006	10
225.500000	10
226.000000	20
226.399994	10
227.150002	20
228.000000	20
229.066666	60
229.899994	20
230.233337	60
231.100006	100
231.600006	10
232.000000	40
233.075003	160
234.199997	10
234.399994	30
234.699997	10
235.199997	30
235.500000	10
236.100006	10
237.399994	10
239.899994	20
240.100006	20
240.899994	10
241.300003	30
242.300003	10
242.800003	10
243.000000	20
243.199997	10
243.399994	20
243.750000	20
244.325001	80
245.060001	50
246.000000	10
246.199997	10
247.133336	60
247.525002	40
248.399994	70
248.600006	10
249.449997	20
250.300003	10
255.100006	10
255.300003	10
257.100006	10
258.200012	10
258.700012	10
259.200012	20
261.100006	70
261.500000	90
262.299988	10
263.100006	10
263.349991	40
273.200012	10
273.449997	20
274.500000	10
274.799988	10
275.100006	20
276.000000	10
276.399994	20
276.799988	10
288.899994	10
289.399994	10
291.200012	10
291.399994	10
