Mass spectrum: 44m2PFOS; LC-ESI-QQ; MS2; CE40eV
Name: 44m2PFOS
Class: Non-Natural Product
Formula: C8HF17O3S
Exact mass: 499.93749
SMILES: FC(F)(F)C(F)(F)C(C(F)(F)F)(C(F)(F)F)C(F)(F)C(F)(F)C(F)(F)S(O)(=O)=O
InChI: InChI=1S/C8HF17O3S/c9-2(10,4(13,14)8(24,25)29(26,27)28)1(5(15,16)17,6(18,19)20)3(11,12)7(21,22)23/h(H,26,27,28)
Instrument: Xevo TQ, Waters
Instrument type: LC-ESI-QQ
Ms type: MS2
Ion mode: NEGATIVE
Collision energy: 40eV
Retention time: 12.547717 min
Base peak: 269.177765
Precursor m/z: 498.9
Precursor type: [M-H]-
m/z	relative intensity
69.117596	897
79.986396	785
98.969457	112
118.745402	286
129.920367	256
179.667083	364
219.328579	62
230.102612	363
269.090139	999
318.768332	53
373.123060	52
412.496181	54
