Mass spectrum: 5-beta-Androstan-17-beta-ol-3-one; LC-APPI-QQ; MS2; CE:40 V; [M-H2O+H]+
Name: 5-beta-Androstan-17-beta-ol-3-one
Name: 5-beta-Dihydrotestosterone
Name: Etiocholane-17-beta-ol-3-one
Class: Natural Product; Steroid hormone
Formula: C19H30O2
Exact mass: 290.22458
SMILES: O=C(C4)CC([H])(C3)C(C)(C4)C(C2)C(C3)C(C1)C(C)(C2)C(O)C1
InChI: InChI=1S/C19H30O2/c1-18-9-7-13(20)11-12(18)3-4-14-15-5-6-17(21)19(15,2)10-8-16(14)18/h12,14-17,21H,3-11H2,1-2H3/t12-,14?,15?,16?,17+,18?,19?/m1/s1
Instrument: API2000
Instrument type: LC-APPI-QQ
Ms type: MS2
Ion mode: POSITIVE
Retention time: 0.820867 min
Base peak: 93.199997
Precursor m/z: 273.100000
Precursor type: [M-H2O+H]+
m/z	relative intensity
37.700001	1
38.900002	1
41.000000	4
41.400002	2
41.599998	1
41.900002	1
42.099998	1
43.181818	10
44.500000	1
49.700001	1
51.099998	1
52.799999	1
53.400002	1
53.799999	1
54.299999	3
55.075581	77
56.099998	1
57.113158	34
57.900002	1
59.400002	1
61.799999	1
64.500000	1
65.000000	2
67.109943	314
69.094737	102
70.074999	2
70.400002	1
71.081249	7
72.950001	1
73.250000	1
74.199997	1
75.699997	1
76.283335	3
77.155881	30
79.045071	444
81.133104	777
83.147726	59
84.100000	2
84.500000	1
84.926668	7
85.235713	6
87.699997	1
88.450001	2
88.800003	1
89.666664	4
91.057404	440
93.125660	999
95.061935	859
97.069231	87
97.800003	1
98.400002	2
98.599998	1
99.099998	3
99.300003	2
101.099998	1
102.199997	1
103.193747	7
105.089526	819
107.039673	437
107.900002	3
109.106944	322
110.583332	3
111.165218	21
111.800003	1
112.400002	1
113.199997	1
113.500000	1
113.900002	1
115.037036	12
117.092452	142
119.102800	335
121.104283	271
123.084153	163
123.900002	1
124.200001	2
124.866669	3
125.400002	2
125.800003	1
126.400002	1
127.199997	2
128.035299	8
129.074027	69
131.188791	303
133.166802	332
135.118512	222
137.000000	8
138.100006	1
138.500000	1
139.000000	1
139.250000	2
140.000000	1
140.399994	1
140.600006	1
140.849998	3
141.500002	4
143.108634	124
145.116036	496
147.151445	556
148.081822	5
148.399994	4
149.151471	61
149.800003	3
150.000000	1
150.699997	2
151.123531	8
151.399994	2
152.100006	1
152.600006	1
153.349998	2
153.600006	1
153.949997	1
154.199997	1
154.449997	2
155.300003	4
155.562504	4
155.800003	2
156.090005	4
157.186238	97
159.142265	528
161.157808	355
161.899994	4
162.279999	4
163.240000	49
163.800003	1
164.100006	1
164.300003	1
164.600006	1
164.800003	1
165.000000	2
165.699997	1
166.100006	1
166.600006	1
166.800003	1
167.200002	3
167.699997	1
167.899994	1
168.300003	1
168.699997	2
169.000000	4
169.327272	10
169.984614	6
171.104236	105
173.202743	212
173.800003	2
174.000000	1
174.199997	1
174.600006	4
175.177551	44
175.899994	1
176.349998	2
177.111905	19
177.699997	1
178.100006	1
179.166667	3
180.100006	1
180.399994	1
180.600006	1
181.000000	1
181.199997	1
181.399994	1
181.800003	1
182.199997	1
182.800003	3
183.000000	4
183.318182	5
185.155435	164
186.228945	17
187.253210	49
188.258334	5
189.135000	54
190.100006	1
190.300003	1
191.399994	3
194.849998	1
195.300003	1
195.800003	1
196.988888	8
197.899994	2
198.470587	8
199.212500	179
201.192475	42
202.146298	72
202.883329	3
203.344440	8
204.300003	1
204.500000	1
205.100006	1
205.300003	1
205.699997	1
207.349998	1
208.300003	1
208.899994	1
209.349998	1
211.213334	13
212.260001	4
213.180247	72
215.091194	71
216.100000	14
217.000000	12
217.303172	28
217.899994	1
218.199997	1
218.550003	2
218.949997	1
219.250000	1
219.500000	1
224.100006	1
224.300003	1
224.500000	1
224.800003	1
225.318180	10
226.156818	39
227.262337	34
228.312502	4
229.275002	11
230.040911	20
231.028573	3
231.300003	1
231.600006	1
232.050003	1
233.000000	1
236.699997	1
238.100006	1
238.500000	1
238.800003	1
239.300003	3
240.000000	4
240.366665	16
240.949997	5
241.355555	4
242.271430	6
243.290002	4
244.238460	6
245.250002	41
247.199997	1
251.399994	1
252.000000	1
253.199997	1
254.000000	1
255.308056	255
256.250000	5
257.000000	3
258.339581	21
269.700012	1
271.028573	3
271.299988	2
271.600006	1
272.000000	1
272.237503	4
273.226835	37
351.000000	1
