Mass spectrum: Dihydrotestosterone; LC-APPI-QQ; MS2; CE:30 V; [M+CH3]+
Name: Dihydrotestosterone
Class: Natural Product; Steroid hormone
Formula: C19H30O2
Exact mass: 290.22458
SMILES: O=C(C4)CC([H])(C3)C(C)(C4)C(C2)C(C3)C(C1)C(C)(C2)C(O)C1
InChI: InChI=1S/C19H30O2/c1-18-9-7-13(20)11-12(18)3-4-14-15-5-6-17(21)19(15,2)10-8-16(14)18/h12,14-17,21H,3-11H2,1-2H3/t12-,14?,15?,16?,17-,18?,19?/m0/s1
Instrument: API2000
Instrument type: LC-APPI-QQ
Ms type: MS2
Ion mode: POSITIVE
Retention time: 0.820833 min
Base peak: 185.199997
Precursor m/z: 305.400000
Precursor type: [M+CH3]+
m/z	relative intensity
38.900002	1
40.500000	1
40.900002	1
42.700001	1
43.000000	1
44.400002	1
44.799999	1
45.200001	1
45.400002	1
53.000000	1
53.200001	1
53.700001	1
54.599998	1
55.063637	11
56.799999	1
57.275000	1
59.025000	1
59.299999	1
65.199997	1
67.122414	19
68.000000	1
68.300003	1
68.883335	4
69.281252	5
69.750000	1
70.199997	1
70.599998	3
71.146152	9
71.599998	1
72.500000	1
72.900002	2
73.099998	2
75.599998	1
76.599998	1
77.000000	2
77.199997	2
78.000000	1
79.028001	25
81.143089	263
82.000000	1
82.300003	1
83.078378	24
85.065885	558
86.099998	1
89.699997	1
89.900002	1
90.099998	1
91.080769	34
91.840001	2
93.038589	79
95.060162	163
96.099998	1
97.095162	41
97.900002	1
98.199997	1
99.022222	3
102.000000	1
102.300003	1
102.800003	1
103.000000	1
103.599998	1
104.149998	3
105.029974	127
107.058642	159
107.699997	2
108.000000	2
109.092000	115
110.000000	1
110.462501	3
111.142372	19
111.800003	1
112.300003	1
112.500000	1
112.800003	2
113.400002	3
113.599998	1
113.900002	1
114.699997	1
115.000000	1
115.300001	1
115.599998	1
116.300003	1
117.231579	12
118.236365	4
119.067829	84
120.000000	3
121.110294	89
122.216665	2
123.042424	22
123.900002	1
124.149998	1
124.649998	2
125.150000	5
126.000000	1
127.599998	1
128.100006	1
129.022223	6
130.239999	3
131.111697	56
132.025000	3
133.138890	94
134.100006	1
134.300003	2
135.152175	75
137.118890	29
138.000000	1
138.600006	1
138.800003	1
139.214288	5
140.699997	1
141.000000	1
141.300003	1
141.699997	1
142.100006	1
142.449997	3
143.036844	12
143.305558	6
143.800003	3
144.076474	6
145.079278	245
145.899994	2
147.170784	167
148.100006	1
148.300003	1
149.146020	37
150.800003	1
151.179999	7
152.500000	1
152.800003	1
153.374996	1
154.500000	1
154.800003	1
155.399994	1
155.600006	1
156.000000	1
157.120002	16
158.100006	2
159.113931	303
161.140842	202
162.199997	1
163.193136	33
163.899994	1
164.100006	1
164.349998	1
165.127778	12
166.199997	1
166.500000	1
166.949997	1
167.800003	1
168.199997	1
168.399994	1
168.750000	1
169.150002	1
169.733332	2
170.000000	1
170.300003	2
171.108840	59
171.800003	2
173.194889	192
174.100006	1
175.174444	59
176.300003	1
176.500000	1
176.783335	6
177.234782	30
178.100006	1
178.300003	1
178.800003	1
179.122223	6
179.800003	1
181.199997	1
182.100006	1
182.699997	1
182.959998	2
183.699997	1
183.959998	3
185.167876	126
185.984614	4
187.160319	41
188.000000	1
189.243038	52
190.000000	1
190.399994	1
191.090248	13
192.500000	1
193.233332	2
193.500000	1
194.100006	1
194.300003	1
194.899994	1
195.300003	1
196.266668	2
196.899994	1
197.236364	4
197.550003	1
197.937501	5
199.201680	195
201.180033	200
202.399994	1
203.173685	12
203.899994	1
204.150002	1
205.000000	3
205.264287	5
206.000000	1
206.399994	1
206.800003	1
207.100006	1
209.100006	1
209.300003	1
209.500000	1
209.899994	1
210.300003	1
210.899994	2
211.899994	1
212.399994	2
213.244864	96
214.260004	3
215.221259	166
216.199997	1
216.399994	1
217.194446	24
218.000000	1
218.199997	1
218.699997	1
219.000000	1
219.199997	1
219.500000	1
220.000000	1
221.199997	1
221.500000	1
222.100006	1
222.399994	1
222.899994	1
223.100006	1
223.300003	1
225.000000	1
225.299998	1
226.000000	1
226.360001	3
227.290699	28
228.000000	1
229.242106	56
230.399994	1
231.200001	20
232.000000	1
232.199997	1
233.225000	41
234.100001	1
234.449997	1
234.800003	1
235.199997	1
235.500000	1
237.550003	1
238.199997	1
239.300003	1
239.800003	1
240.000000	2
240.412495	3
241.399994	1
243.000000	1
243.600006	1
243.949997	1
244.299998	1
245.214284	5
245.849998	1
246.300003	1
246.500000	1
247.000000	1
247.399994	1
247.800003	1
248.250000	1
248.699997	1
248.899994	1
249.300003	1
249.500000	1
249.699997	1
250.800003	1
251.100006	1
251.399994	1
252.800003	1
253.250000	2
254.000000	2
255.321691	999
256.550003	1
257.500000	1
257.799988	1
258.100006	1
258.449997	1
258.949997	1
259.200012	1
259.399994	1
261.000000	1
261.225006	1
261.899994	1
262.200002	2
262.500000	1
262.899994	1
263.200012	1
269.200012	1
269.650009	1
271.200012	1
271.399994	1
271.600006	1
272.399994	1
273.342716	135
274.400000	2
274.799988	1
275.200012	1
276.000000	1
276.266663	2
277.000000	2
277.500000	1
279.700012	1
287.261538	4
287.899994	1
289.100006	1
289.399994	1
290.100006	1
290.299988	1
290.600006	1
303.100006	1
303.299988	1
304.050003	1
304.299988	1
305.395448	503
306.500000	1
