Mass spectrum: Cholesterol; LC-APPI-QQ; MS
Name: Cholesterol
Class: Natural Product; Sterol
Formula: C27H46O
Exact mass: 386.35487
SMILES: CC(C4)(C(CC(O)C4)=3)C(C2)C(CC3)C(C1)C(C)(C2)C(C(C)CCCC(C)C)C1
InChI: InChI=1S/C27H46O/c1-18(2)7-6-8-19(3)23-11-12-24-22-10-9-20-17-21(28)13-15-26(20,4)25(22)14-16-27(23,24)5/h9,18-19,21-25,28H,6-8,10-17H2,1-5H3/t19?,21-,22?,23?,24?,25?,26?,27?/m0/s1
Instrument: API2000, Applied
Instrument type: LC-APPI-QQ
Ms type: MS
Ion mode: POSITIVE
Retention time: 0.820833 min
Base peak: 369.399994
Ion type: [M-H2O+H]+
m/z	relative intensity
201.164567	22
202.106255	6
203.150218	37
204.136414	9
205.172189	14
206.113317	4
207.144417	16
208.142635	4
209.162538	10
210.188749	5
211.149526	11
212.177139	3
213.155173	13
214.179871	4
215.196164	22
216.222866	4
217.224502	14
218.119146	6
219.182843	22
220.153404	6
221.152497	10
222.127998	3
223.146534	7
224.147261	2
225.189827	5
226.203985	2
227.213433	5
228.231012	3
229.202392	18
230.219854	5
231.172992	27
232.204193	5
233.255901	23
234.200388	6
235.168503	8
237.128539	47
238.129801	10
239.147962	8
240.189576	2
241.273358	8
242.256480	2
243.269982	37
244.273731	7
245.261782	11
246.259532	4
247.266917	22
248.253502	6
249.178217	6
250.130011	2
251.129061	4
252.131284	2
253.202471	6
254.186461	2
255.255532	23
256.288001	6
257.292481	26
258.265747	7
259.273518	21
260.280327	5
261.239877	8
262.242551	3
263.166249	9
264.197232	3
265.172728	3
266.094453	1
267.125768	3
268.147699	1
269.202110	4
270.153205	2
271.227041	14
273.284267	22
275.267524	11
277.161704	5
279.139062	60
280.162268	12
281.163014	5
282.147160	3
283.196840	5
285.251512	13
287.306669	25
289.227159	4
291.240594	2
292.198956	1
293.211359	2
295.192956	3
297.247391	5
298.222352	2
299.289725	9
300.279407	3
301.356118	17
302.349659	5
305.264011	2
306.321167	1
307.251063	2
308.257835	1
309.243473	2
311.288835	4
313.358392	10
314.338724	3
315.297647	3
316.304937	1
317.268042	1
318.200001	1
319.264982	1
320.250781	1
321.297823	2
322.279429	1
323.278332	2
324.238836	1
325.285972	3
326.323722	3
327.316430	5
328.363316	2
329.379522	9
330.359846	3
331.273778	2
333.265399	1
335.272316	1
336.284244	1
337.323332	2
338.307518	1
339.343156	3
340.325472	1
341.360259	4
342.325000	2
343.348120	3
344.340367	1
345.281280	2
347.261822	3
348.283849	1
349.277556	3
351.379014	4
353.444577	18
354.416982	7
355.410414	7
356.361155	3
357.371499	6
359.314622	3
361.314163	4
363.327732	6
365.372154	17
367.437434	106
369.460155	999
370.449789	370
375.321185	4
377.352506	5
379.376849	9
381.408859	30
383.439983	174
384.431324	55
385.481487	96
386.463179	39
391.388007	4
392.364663	1
393.360748	1
395.364020	2
397.418751	7
399.408508	5
401.446798	5
402.403523	2
404.469379	1
405.398351	1
406.388393	1
407.387273	1
409.362500	1
410.295511	1
411.389398	1
413.407679	1
415.444738	3
416.472332	1
417.457848	1
419.432631	1
420.372813	1
421.378900	1
423.422304	1
424.256198	1
425.357250	1
427.424205	2
428.511507	1
429.424504	1
430.411111	1
431.374794	1
433.390027	2
435.429065	1
437.456136	1
438.382568	1
439.451764	1
441.344792	1
442.289998	1
443.388887	1
444.417500	1
445.390424	1
446.429089	1
447.434225	1
449.482844	1
451.483283	1
452.390906	1
453.430619	1
454.408928	1
455.462575	1
457.436888	1
458.413328	1
459.457789	3
460.524401	2
461.430211	2
463.413089	1
465.483075	1
466.409801	1
467.493002	1
468.411320	1
469.449560	1
470.462929	1
471.504083	1
473.491480	3
475.458910	13
476.501068	6
479.440739	1
481.533452	1
482.476270	1
483.510146	1
484.412819	1
485.479633	1
487.483424	1
489.507555	1
491.472136	5
492.527536	2
493.512016	2
494.552035	1
495.491272	1
496.615000	1
497.273907	1
497.609098	1
498.461288	1
499.415218	1
