Mass spectrum: Estriol; LC-APPI-QQ; MS2; CE:10 V; [M-2H2O+H]+
Name: Estriol
Class: Natural Product; Steroid hormone
Formula: C18H24O3
Exact mass: 288.17254
SMILES: Oc(c4)cc(C3)c(c4)C(C2)C(C3)C(C1)C(C)(C2)C(O)C(O)1
InChI: InChI=1S/C18H24O3/c1-18-7-6-13-12-5-3-11(19)8-10(12)2-4-14(13)15(18)9-16(20)17(18)21/h3,5,8,13-17,19-21H,2,4,6-7,9H2,1H3/t13?,14?,15?,16-,17+,18?/m1/s1
Instrument: API2000
Instrument type: LC-APPI-QQ
Ms type: MS2
Ion mode: POSITIVE
Retention time: 0.820833 min
Base peak: 253.300003
Precursor m/z: 253.200000
Precursor type: [M-2H2O+H]+
m/z	relative intensity
38.900002	1
57.099998	1
68.699997	1
69.500000	1
79.300003	1
80.900002	1
83.199997	1
83.400002	1
89.900002	1
90.900002	1
91.199997	1
92.400002	1
92.937501	1
93.300003	1
94.000000	1
94.750000	1
95.199997	1
103.099998	1
104.900002	1
105.400002	1
106.599998	1
106.980000	1
108.900002	1
109.199997	1
115.099998	1
116.300003	1
116.500000	1
117.099998	1
119.099998	1
119.800003	1
120.666664	1
120.966667	1
121.199997	1
124.800003	1
130.500000	1
130.899994	1
131.349998	1
131.699997	1
132.000000	1
133.014999	1
137.300003	1
141.000000	1
141.399994	1
142.699997	1
143.100006	1
143.300003	1
143.800003	1
144.971427	1
145.199997	1
145.699997	1
146.699997	1
146.899994	1
147.266668	1
147.699997	1
148.899994	1
153.100006	1
154.199997	1
154.600006	1
155.300003	1
155.525002	1
157.116701	12
157.800003	1
159.017968	3
159.699997	1
160.500000	1
160.937501	1
161.800003	1
164.600006	1
165.000000	1
165.399994	1
165.899994	1
166.500000	1
167.300003	1
168.500000	1
168.800003	1
169.199997	1
170.300003	1
171.109092	1
172.349998	1
172.939999	1
175.150002	1
176.199997	1
176.500000	1
177.000000	1
178.699997	1
178.899994	1
179.399994	1
179.699997	1
180.500000	1
180.899994	1
181.500000	1
181.699997	1
181.899994	1
182.300003	1
182.500000	1
183.128071	1
184.549995	1
185.107692	1
185.525002	1
191.100006	1
191.800003	1
192.199997	1
192.500000	1
193.199997	1
193.600006	1
194.699997	1
195.000000	1
195.300003	1
195.699997	1
196.100006	1
196.300003	1
197.091111	6
197.766668	1
198.100006	1
198.300003	1
198.550003	1
199.300003	1
201.949997	1
202.899994	1
203.199997	1
204.600006	1
204.899994	1
205.699997	1
206.500000	1
207.199997	1
209.221052	1
209.871427	1
210.300003	1
211.045454	2
212.100006	1
217.000000	1
217.199997	1
217.600006	1
217.899994	1
220.199997	1
220.954839	2
221.899994	1
223.000000	1
223.300003	1
223.600006	1
223.800003	1
224.183337	1
225.131579	2
232.800003	1
234.500000	1
234.969235	1
235.899994	1
236.300003	1
236.800003	1
237.399994	1
238.021054	1
238.600006	1
245.000000	1
246.800003	1
247.899994	1
248.100006	1
249.500000	1
249.699997	1
250.100006	1
250.662500	1
250.899994	1
253.177806	999
254.550003	1
254.899994	1
