Mass spectrum: 2mPFOS; LC-ESI-QQ; MS2; CE50eV
Name: 2mPFOS
Class: Non-Natural Product
Formula: C8HF17O3S
Exact mass: 499.93749
SMILES: FC(F)(F)C(F)(F)C(F)(F)C(F)(F)C(F)(F)C(F)(C(F)(F)F)C(F)(F)S(O)(=O)=O
InChI: InChI=1S/C8HF17O3S/c9-1(6(18,19)20,8(24,25)29(26,27)28)2(10,11)3(12,13)4(14,15)5(16,17)7(21,22)23/h(H,26,27,28)
Instrument: Xevo TQ, Waters
Instrument type: LC-ESI-QQ
Ms type: MS2
Ion mode: NEGATIVE
Collision energy: 50eV
Retention time: 15.322766 min
Base peak: 129.651459
Precursor m/z: 498.9
Precursor type: [M-H]-
m/z	relative intensity
80.006515	802
82.908881	93
98.953253	999
118.603542	56
129.651524	805
339.056246	228
342.360090	68
352.895141	63
394.613078	78
462.481743	67
