Mass spectrum: beta-Estradiol; LC-APPI-QQ; MS
Name: beta-Estradiol
Class: Natural Product; Steroid hormone
Formula: C18H24O2
Exact mass: 272.17763
SMILES: Oc(c4)cc(C3)c(c4)C(C2)C(C3)C(C1)C(C)(C2)C(O)C1
InChI: InChI=1S/C18H24O2/c1-18-9-8-14-13-5-3-12(19)10-11(13)2-4-15(14)16(18)6-7-17(18)20/h3,5,10,14-17,19-20H,2,4,6-9H2,1H3/t14?,15?,16?,17-,18?/m0/s1
Instrument: API2000
Instrument type: LC-APPI-QQ
Ms type: MS
Ion mode: POSITIVE
Retention time: 0.821067 min
Base peak: 255.199997
Ion type: [M-H2O+H]+
m/z	relative intensity
151.149948	3
153.155346	5
155.100655	5
157.135875	10
159.147835	154
160.162442	22
161.169828	23
163.127316	14
164.159435	2
165.131742	3
166.165291	1
167.139931	4
168.152830	1
169.092965	5
170.102040	3
171.136689	13
172.111498	4
173.128052	22
174.100667	4
175.122954	9
176.172788	1
177.161498	9
179.140626	9
181.135226	22
182.172634	4
183.119985	16
184.159919	5
185.127970	14
186.104105	4
187.107366	14
188.115006	3
189.113320	10
190.089420	2
191.149338	7
192.139448	1
193.160403	10
195.144563	23
197.137086	44
199.144066	28
200.174161	4
201.126136	9
202.106964	3
203.111808	8
205.113529	8
206.097555	2
207.129116	10
208.136040	17
209.150772	28
210.177164	21
211.143515	41
213.142381	23
214.175534	5
215.145860	12
216.158449	2
217.139543	5
218.110515	3
219.135195	13
221.130583	15
223.131574	64
224.153824	14
225.168296	20
227.154452	13
228.202655	3
229.141693	9
230.177533	6
231.140395	24
233.126110	28
235.108185	27
237.150178	45
238.131176	12
239.146157	26
240.182358	7
241.211975	16
243.203692	12
245.135141	28
247.128440	72
249.123020	57
251.137408	38
253.179388	55
255.219657	999
259.141404	80
261.112835	58
263.113728	63
265.124898	30
267.127603	31
269.179980	47
271.186296	97
272.220945	63
273.205481	33
275.152445	26
277.168981	42
279.140197	66
281.158074	21
283.159381	17
285.189924	17
287.203206	31
288.271685	11
289.195240	19
291.173675	14
293.183798	16
295.174141	11
297.182656	12
299.193216	14
301.209428	12
303.227230	8
305.247408	8
307.206507	8
309.193320	7
311.214383	7
313.215356	7
314.191979	11
315.248423	14
317.196146	5
319.213658	5
321.235116	7
323.200572	8
324.209617	3
325.191613	7
326.228356	2
327.186199	5
328.210812	3
329.188586	5
331.155486	4
332.202604	2
333.185971	4
335.184735	6
337.240198	8
338.241119	5
339.206192	8
341.216262	5
342.230529	2
343.210042	4
345.267958	9
347.195608	4
350.250258	18
351.222242	12
353.250674	8
354.261982	5
355.212112	6
356.247728	3
357.251457	4
359.244897	5
361.258098	7
363.220334	4
365.256482	4
367.252087	5
369.319590	5
371.280094	3
373.293740	3
375.292341	6
377.294732	3
378.290425	2
379.301244	3
381.262048	2
383.295329	3
385.279934	2
387.303198	2
389.295964	2
391.348989	4
393.319760	2
395.371287	4
399.354521	20
