Mass spectrum: Daidzein; LC-APPI-QQ; MS2; CE:10 V; [M+H]+
Name: Daidzein
Class: Natural Product; Isoflavone
Formula: C15H10O4
Exact mass: 254.05791
SMILES: Oc(c3)ccc(c3)C(=C1)C(=O)c(c2)c(cc(O)c2)O1
InChI: InChI=1S/C15H10O4/c16-10-3-1-9(2-4-10)13-8-19-14-7-11(17)5-6-12(14)15(13)18/h1-8,16-17H
Instrument: API2000
Instrument type: LC-APPI-QQ
Ms type: MS2
Ion mode: POSITIVE
Retention time: 0.820850 min
Base peak: 255.199997
Precursor m/z: 255.400000
Precursor type: [M+H]+
m/z	relative intensity
38.799999	1
42.700001	1
53.099998	1
55.150000	1
63.599998	1
65.000000	1
65.400002	1
68.800003	1
69.000000	1
69.400002	1
77.099998	1
78.000000	1
80.800003	1
81.199997	1
82.900002	1
90.989474	1
91.300003	1
92.599998	1
93.000000	1
93.300003	1
93.900002	1
97.000000	1
104.500000	1
104.750000	1
105.300003	1
105.925001	1
106.850002	1
107.599998	1
109.500000	1
110.300003	1
111.099998	1
116.400002	1
117.500000	1
117.699997	1
118.000000	1
118.400002	1
118.666664	1
119.099998	1
120.300003	1
120.699997	1
120.950001	1
125.900002	1
127.599998	1
128.000000	1
128.399994	1
129.074999	1
129.500000	1
130.399994	1
131.150000	1
132.199997	1
132.399994	1
132.699997	1
132.899994	1
133.100006	1
133.500000	1
133.849998	1
134.199997	1
135.600006	1
136.100001	1
137.019297	1
138.699997	1
139.300003	1
141.199997	1
142.800003	1
144.199997	1
144.600006	1
144.800003	1
145.130771	1
145.399994	1
148.300003	1
148.600006	1
148.928569	1
149.199997	1
150.800003	1
151.000000	1
152.149999	1
152.936367	1
153.399994	1
153.600006	1
154.500000	1
154.949997	1
155.300003	1
156.150002	1
156.899994	1
159.250000	1
164.699997	1
165.075005	1
167.800003	1
168.250000	1
168.600006	1
168.900002	1
169.399994	1
170.199997	1
171.183332	1
173.300003	1
174.800003	1
175.399994	1
179.300003	1
179.500000	1
180.000000	1
180.832003	1
181.800003	1
182.199997	1
182.399994	1
183.199997	1
183.399994	1
183.775002	1
184.199997	1
184.399994	1
184.600006	1
185.069231	1
187.000000	1
187.300003	1
189.100006	1
192.550003	1
193.100006	1
194.500000	1
195.100006	1
195.399994	1
196.300003	1
196.800003	1
197.100003	1
197.399994	1
197.899994	1
198.116671	1
199.101232	2
201.000000	1
201.349998	1
208.199997	1
209.025925	1
209.800003	1
210.250000	1
210.500000	1
211.199997	1
211.800003	1
212.199997	1
212.899994	1
213.374996	1
219.399994	1
220.500000	1
222.399994	1
222.830000	1
224.833333	1
225.399994	1
227.128775	2
227.899994	1
228.300003	1
235.600006	1
235.800003	1
236.399994	1
237.096923	1
238.300003	1
239.800003	1
240.349998	1
243.699997	1
246.600006	1
247.300003	1
247.849998	1
248.600006	1
249.075005	1
249.300003	1
249.600001	1
249.899994	1
250.199997	1
250.500000	1
251.028573	1
255.135468	999
257.700012	1
288.600006	1
299.899994	1
