Mass spectrum: Coprostanone; LC-APPI-QQ; MS2; CE:20 V; [M-H2O+H]+
Name: Coprostanone
Class: Natural Product; Sterol
Formula: C27H46O
Exact mass: 386.35487
SMILES: C(C)(C1)(C(C(C)CCCC(C)C)4)C(CC4)C(C2)C(C(C)(C3)C([H])(CC(C3)=O)C2)C1
InChI: InChI=1S/C27H46O/c1-18(2)7-6-8-19(3)23-11-12-24-22-10-9-20-17-21(28)13-15-26(20,4)25(22)14-16-27(23,24)5/h18-20,22-25H,6-17H2,1-5H3/t19?,20-,22?,23?,24?,25?,26?,27?/m1/s1
Instrument: API2000, Applied
Instrument type: LC-APPI-QQ
Ms type: MS2
Ion mode: POSITIVE
Retention time: 0.820833 min
Base peak: 369.500000
Precursor m/z: 369.431000
Precursor type: [M-H2O+H]+
m/z	relative intensity
40.799999	1
41.099998	1
42.299999	1
42.599998	1
42.875001	1
43.250000	1
53.099998	1
54.500000	1
55.099998	1
57.096460	3
57.799999	1
58.000000	1
64.750000	1
65.049999	1
65.900002	1
66.300003	1
67.103508	2
69.057692	2
69.950001	1
71.053290	5
71.900002	1
74.500000	1
77.400002	1
78.500000	1
79.117390	1
79.699997	1
81.116781	9
81.750000	1
82.124998	1
83.022857	4
83.900002	1
85.074193	2
85.699997	1
88.800003	1
90.400002	1
90.856252	1
91.178569	1
92.124998	1
93.125226	3
93.900002	1
95.055761	15
97.077860	8
97.900002	1
98.870002	1
99.242857	1
103.400002	1
104.000000	1
105.073077	3
105.942858	1
107.085714	8
109.114899	24
109.925001	1
111.088318	13
112.250000	1
113.199997	1
114.400002	1
114.800003	1
115.199997	1
116.699997	1
117.059999	1
119.032679	5
119.599998	1
121.147919	21
121.699997	1
122.099998	1
123.089801	12
125.123948	9
127.063158	2
128.500000	1
128.849998	1
129.300003	1
129.500000	1
131.066668	1
133.102143	9
135.090246	59
136.000000	1
136.250000	1
137.135962	10
138.000000	1
138.199997	1
139.118947	3
141.033335	1
141.399994	1
141.800003	1
143.100006	1
143.399994	1
143.650002	1
144.150002	1
145.093652	2
147.132809	43
149.143309	25
150.300003	1
151.183200	8
152.500000	1
153.064516	1
155.000000	1
155.399994	1
155.899994	1
156.899994	1
157.100006	1
157.449997	1
158.100006	1
159.095413	3
159.600006	1
161.092632	63
163.181449	14
164.266668	1
165.126923	11
166.550003	1
167.362499	1
168.699997	1
168.899994	1
169.199997	1
169.399994	1
170.600006	1
171.000000	1
171.500000	1
171.800003	1
172.199997	1
173.118867	3
173.800003	1
175.149337	34
177.211416	8
178.344442	1
179.207086	15
179.899994	1
180.300003	1
181.062500	1
181.500000	1
181.800003	1
182.899994	1
183.300003	1
185.099999	1
185.600006	1
185.950001	1
186.300003	1
187.134591	10
189.201169	47
191.212499	5
192.050003	1
193.209264	11
194.199997	1
194.849998	1
195.100006	1
195.300003	1
196.500000	1
196.699997	1
197.000000	1
199.000000	1
199.349998	1
199.800003	1
200.100006	1
201.149311	18
202.100006	1
203.194725	28
205.253170	12
206.150002	1
206.399994	1
207.168750	9
208.899994	1
209.200002	1
209.600006	1
210.699997	1
211.000000	1
211.449997	1
212.300003	1
212.800003	1
213.200000	1
214.100006	1
215.181558	28
216.000000	1
216.199997	1
216.399994	1
217.202374	13
218.100006	1
218.300003	1
219.257603	21
220.199997	1
221.187234	4
224.899994	1
225.199997	1
225.500000	1
226.975000	1
227.349998	1
228.116671	1
229.188178	19
230.100006	1
230.399994	1
231.208954	2
231.800003	1
233.162146	22
234.100006	1
234.300003	1
235.178946	2
237.399994	1
238.800003	1
239.100006	1
239.399994	1
240.199997	1
240.500000	1
240.800003	1
241.053846	1
241.462498	1
243.218939	32
244.399994	1
245.333750	2
246.100006	1
246.600006	1
247.236532	16
248.300003	1
249.281816	1
251.399994	1
252.699997	1
253.399994	1
254.449997	1
255.000000	1
255.212498	1
255.949997	1
257.285815	26
258.299988	1
258.600006	1
259.253039	19
260.500000	1
261.326028	4
263.300000	1
268.799988	1
269.100006	1
269.299988	1
271.256895	4
273.274025	19
274.200002	1
275.299988	1
275.899994	1
277.299988	1
277.550003	1
278.399994	1
283.050003	1
283.299988	1
283.600006	1
284.050003	1
284.399994	1
285.286953	5
287.297407	14
289.266673	1
289.700012	1
291.399994	1
297.200012	1
297.650009	1
298.100006	1
298.600006	1
299.276474	3
300.299988	1
300.500000	1
301.255558	1
301.949997	1
308.399994	1
308.799988	1
311.000000	1
311.799988	1
312.200012	1
313.340175	7
314.449997	1
315.000000	1
315.200012	1
315.500000	1
323.299988	1
325.849991	1
326.500000	1
327.313333	1
328.100006	1
333.500000	1
337.000000	1
337.299988	1
337.500000	1
339.399994	1
339.799988	1
340.100006	1
340.600006	1
340.799988	1
341.200003	1
351.299997	1
351.799988	1
354.200012	1
354.600006	1
364.000000	1
364.700012	1
365.600006	1
366.100006	1
366.399994	1
366.799988	1
367.066671	1
369.430221	999
378.100006	1
