Mass spectrum: Coprostanone; LC-APPI-QQ; MS2; CE:40 V; [M+H]+
Name: Coprostanone
Class: Natural Product; Sterol
Formula: C27H46O
Exact mass: 386.35487
SMILES: C(C)(C1)(C(C(C)CCCC(C)C)4)C(CC4)C(C2)C(C(C)(C3)C([H])(CC(C3)=O)C2)C1
InChI: InChI=1S/C27H46O/c1-18(2)7-6-8-19(3)23-11-12-24-22-10-9-20-17-21(28)13-15-26(20,4)25(22)14-16-27(23,24)5/h18-20,22-25H,6-17H2,1-5H3/t19?,20-,22?,23?,24?,25?,26?,27?/m1/s1
Instrument: API2000, Applied
Instrument type: LC-APPI-QQ
Ms type: MS2
Ion mode: POSITIVE
Retention time: 0.820883 min
Base peak: 94.699997
Precursor m/z: 387.449000
Precursor type: [M+H]+
m/z	relative intensity
39.049999	1
40.900002	1
41.300001	1
42.450001	2
42.991666	9
52.950001	1
53.400002	1
53.599998	1
54.074999	1
55.083674	36
56.099998	2
57.107595	145
58.150000	1
64.750000	1
65.000000	1
65.300003	1
65.500000	1
67.013906	124
69.079518	305
70.119048	8
71.094315	142
71.900002	1
72.400002	1
73.400002	1
76.674997	1
77.199997	2
79.032825	96
81.075518	604
83.073171	241
85.119079	56
86.150002	1
87.500000	1
88.199997	1
89.800003	1
91.011000	74
93.083490	236
95.033358	999
97.082412	146
98.187497	3
98.833333	4
99.300003	1
99.500000	1
100.000000	1
101.699997	1
103.599998	2
105.006717	148
105.864288	5
107.013266	288
109.076637	623
111.051835	80
111.699997	1
112.000000	1
112.199997	1
112.933334	2
113.900002	1
115.099998	1
115.500000	1
117.023333	11
117.925001	4
119.004664	142
121.075418	242
122.099998	4
123.039578	261
124.199999	3
125.241306	17
126.099998	1
126.599998	1
126.900002	1
127.400002	1
128.000000	1
128.800003	1
129.116671	2
129.599998	1
131.127029	27
133.122878	199
135.059246	215
135.849998	3
136.160004	2
137.082114	90
137.800003	1
138.000000	1
138.399994	1
138.899994	1
139.250000	1
139.949997	1
141.399994	1
142.300003	1
142.500000	1
142.699997	1
142.899994	1
143.299998	2
145.074562	84
147.112185	248
147.899994	3
149.117635	171
150.000000	1
150.199997	1
151.184315	38
151.899994	1
152.100006	1
152.300003	1
153.000000	1
153.300003	1
155.899994	1
156.199997	1
156.600006	1
156.800003	1
157.100006	1
157.500000	1
158.166667	2
159.102752	80
161.096472	271
163.123573	51
163.899994	1
164.100006	1
165.195239	15
165.949997	1
166.699997	1
167.100006	1
167.300003	1
169.250000	1
169.849998	1
170.199997	1
170.699997	1
171.142857	3
171.750000	1
172.100006	1
173.164515	68
174.000000	2
175.107910	65
176.199997	1
177.074999	18
177.494444	7
177.800003	1
178.199997	1
179.127120	22
180.100006	1
180.300003	1
181.100006	1
183.100006	1
185.033335	4
187.098874	131
188.000000	1
188.199997	1
189.233332	15
190.000000	1
190.300003	2
191.224998	13
191.699997	1
192.300003	1
193.255001	22
194.100006	1
194.399994	1
194.800003	1
195.250000	1
197.600006	1
198.500000	1
199.242857	5
199.699997	1
201.158050	87
202.300003	1
202.500000	1
203.229032	23
204.000000	1
204.300003	1
204.849998	12
205.167857	10
205.431246	6
206.300003	1
207.099999	24
207.800003	1
208.000000	1
209.699997	1
212.500000	1
212.699997	1
212.899994	1
213.100006	1
213.383329	2
213.600006	1
214.249999	9
214.600006	1
215.237301	46
215.899994	1
216.199997	1
216.600006	1
217.241667	9
218.299998	1
219.117505	15
220.150002	1
220.399994	1
220.900000	3
221.316663	4
226.300003	1
226.800003	1
227.300003	1
227.699997	1
229.159374	24
229.899994	1
230.300003	1
230.899994	3
231.399994	3
232.150002	1
232.500000	1
233.182222	17
234.899994	1
235.300003	2
236.600006	1
239.399994	1
240.399994	1
241.100006	1
241.500000	1
241.699997	1
242.000000	1
242.300003	1
242.500000	1
243.231483	20
244.199997	1
244.600006	1
244.899994	1
245.450003	4
245.899994	1
246.300003	1
247.199997	5
248.199997	1
249.283335	2
249.750000	1
252.849998	1
254.100006	1
254.899994	1
255.349998	1
255.600006	1
256.000000	1
256.299998	1
257.335706	10
258.100006	1
259.426663	17
260.200012	1
260.650009	1
261.210526	7
261.600006	3
262.100006	1
263.200012	1
263.399994	1
265.399994	1
267.399994	1
269.700012	1
270.399994	1
270.799988	1
271.100006	1
271.399994	1
271.700012	1
273.234786	17
274.000000	1
275.062504	3
277.000000	1
280.299988	1
281.000000	1
285.000000	1
285.299988	1
285.700012	1
287.116674	2
287.399994	1
287.600006	1
288.700012	1
289.000000	1
289.474998	1
289.700012	1
291.299988	1
295.899994	1
297.700012	1
298.299988	1
299.200012	1
299.600006	1
300.000000	1
300.200012	1
300.949997	1
301.200012	1
301.600006	1
301.949997	1
302.200012	1
302.600006	1
303.100006	1
308.799988	1
309.000000	1
309.299988	1
313.299998	4
313.899994	1
314.899994	1
315.100006	1
315.500000	1
316.500000	1
316.700012	1
316.899994	1
317.150009	1
317.500000	1
317.799988	1
319.299988	1
325.799988	1
327.600006	1
328.000000	1
328.200012	1
328.500000	1
329.000000	1
329.200012	1
329.399994	1
329.600006	1
329.899994	1
330.949997	1
331.299988	1
340.399994	1
341.199999	3
343.200012	1
343.799988	1
345.500000	1
353.299988	1
354.100006	1
354.500000	2
355.000000	1
355.200012	1
358.750000	1
368.200012	1
368.399994	1
368.600006	1
369.423609	53
370.299988	1
372.000000	1
372.500000	1
373.000000	1
386.866659	2
387.330761	10
