Mass spectrum: 53FTA; LC-ESI-QQ; MS2; CE50; [M-H]-
Name: 53FTA
Name: 53Fluorotelomer Acid
Name: 4,4,5,5,6,6,7,7,8,8,8-Undecafluorooctanoic acid
Class: Non-Natural Product
Formula: C8H5F11O2
Exact mass: 342.01139
SMILES: OC(=O)CCC(F)(F)C(F)(F)C(F)(F)C(F)(F)C(F)(F)F
InChI: InChI=1S/C8H5F11O2/c9-4(10,2-1-3(20)21)5(11,12)6(13,14)7(15,16)8(17,18)19/h1-2H2,(H,20,21)
Instrument: Xevo TQ MS (Waters)
Instrument type: LC-ESI-QQ
Ms type: MS2
Ion mode: NEGATIVE
Collision energy: 50
Retention time: 0.016883
Base peak: 167.042542
Precursor m/z: 341
Precursor type: [M-H]-
m/z	relative intensity
62.814938	52
68.971405	42
92.825836	180
97.982887	720
116.963066	383
117.664803	32
118.903763	35
143.001450	567
143.648468	57
147.909012	98
167.061569	999
181.175552	34
216.980606	371
