Mass spectrum: 1,4-Androstadiene-3,17-dione; LC-APPI-QQ; MS2; CE:50 V; [M+H]+
Name: 1,4-Androstadiene-3,17-dione
Class: Natural Product; Anabolic Steroid
Formula: C19H24O2
Exact mass: 284.17763
SMILES: O=C(C=4)C=C(C3)C(C)(C4)C([H])(C2)C([H])(C3)C([H])(C1)C(C)(C2)C(=O)C1
InChI: InChI=1S/C19H24O2/c1-18-9-7-13(20)11-12(18)3-4-14-15-5-6-17(21)19(15,2)10-8-16(14)18/h7,9,11,14-16H,3-6,8,10H2,1-2H3/t14-,15-,16-,18-,19-/m0/s1
Instrument: API2000
Instrument type: LC-APPI-QQ
Ms type: MS2
Ion mode: POSITIVE
Retention time: 0.820833 min
Base peak: 121.000000
Precursor m/z: 285.500000
Precursor type: [M+H]+
m/z	relative intensity
37.900002	1
38.900002	1
39.200001	1
39.900002	1
40.400002	1
41.139583	4
42.000000	1
43.058088	22
44.099998	1
44.400002	1
44.599998	1
44.900002	1
45.299999	1
49.900002	1
50.175000	1
50.700001	1
51.117391	2
51.500000	1
51.700001	1
52.099998	1
52.700001	1
53.239286	2
55.077219	28
55.900002	1
56.099998	1
56.299999	1
57.085715	1
58.200001	1
58.599998	1
59.000000	1
59.200001	1
59.400002	1
61.299999	1
63.299999	1
63.599998	1
64.099998	1
65.059999	6
67.133169	83
68.099998	1
69.126530	16
69.800003	1
70.266668	1
71.069047	7
73.699997	1
74.149998	1
74.500000	1
74.699997	1
74.900002	1
75.166664	1
77.061780	219
79.025938	157
81.103997	102
83.185965	5
83.850002	1
85.277779	1
85.699997	1
86.850002	1
87.599998	1
87.900002	1
88.800003	1
91.055422	477
93.089774	221
95.062781	77
95.900002	1
97.086250	13
98.000000	1
98.800003	1
99.333335	1
100.300003	1
100.699997	1
100.950001	1
101.199997	1
101.599998	1
101.887502	1
103.077253	38
105.059489	154
107.040097	136
109.107375	56
110.199997	1
110.978947	3
111.699997	1
112.400002	1
112.950001	1
113.450001	1
115.066187	46
117.090373	61
118.070587	4
119.076183	221
121.085150	999
123.006897	5
125.000000	1
125.649998	1
128.107665	66
129.123324	61
130.110526	31
132.142486	145
134.100006	1
135.139640	18
136.500000	1
137.025002	1
137.300003	1
137.899994	1
138.500000	1
139.100006	1
139.349998	1
139.955553	1
141.117407	22
143.114285	29
145.092818	121
147.117131	550
148.973332	1
149.399994	1
149.666667	1
150.075005	1
151.159022	22
153.121319	16
155.077208	57
155.946151	2
158.113164	148
159.095761	66
160.399994	1
161.095721	15
162.224998	1
163.007693	2
163.455553	1
163.899994	1
165.172825	8
166.217395	2
167.201220	7
168.221427	5
169.028916	14
171.079949	96
173.127551	96
174.699997	1
175.066671	1
175.335714	1
175.899994	1
176.100006	1
176.300003	1
176.700002	1
177.043753	1
178.241420	14
179.230772	9
180.057146	1
181.098596	23
182.184946	15
183.045122	13
183.877269	2
184.100006	2
184.879996	3
185.260919	7
186.000000	1
186.399994	1
187.000000	1
187.300003	1
187.500000	1
188.050003	1
188.399994	1
189.000000	1
189.699997	1
189.899994	1
190.399994	1
191.107143	3
192.193936	3
193.182410	9
194.199997	1
195.107373	18
196.100751	22
197.200000	14
198.137503	2
198.578576	1
199.146154	3
200.270000	2
200.912495	1
201.342854	1
202.066668	1
202.699997	1
203.075005	1
203.349998	1
203.899994	1
204.100006	1
204.399994	1
204.650002	1
204.987499	1
205.500000	1
206.000000	1
206.566671	1
207.121433	1
207.500000	1
207.959998	2
209.085509	6
210.182758	9
211.169697	16
212.145002	2
212.527779	1
214.199997	1
214.449997	1
215.199997	1
215.399994	1
216.899994	1
217.199997	1
217.600006	1
218.150002	1
218.500000	1
218.899994	1
219.224998	1
219.800003	1
220.300003	1
220.600006	1
221.300003	1
221.700005	1
222.275002	1
222.500000	1
223.199997	1
224.000000	1
224.199997	1
224.699997	1
225.210002	5
226.060004	1
226.349998	1
227.156251	1
228.175001	1
228.516668	1
229.100006	1
229.424995	1
230.899994	1
232.100006	1
233.100006	1
234.199997	1
235.300003	1
235.500000	1
236.100006	1
237.277777	3
237.971427	1
238.400001	1
239.399994	1
239.825001	1
240.100006	1
240.500000	1
240.699997	1
241.436365	2
241.800003	1
242.416665	2
243.300003	1
244.600006	1
247.199997	1
247.399994	1
249.100006	1
249.349998	1
249.600006	1
250.100006	1
250.300003	1
251.100006	1
251.449997	1
252.000000	1
252.300003	1
252.500000	1
252.800003	1
253.500000	1
253.800003	1
254.100006	1
254.699997	1
255.100006	1
255.550003	1
255.899994	1
256.349991	1
256.600006	1
256.799988	1
257.075005	1
257.500000	1
266.100006	1
266.500000	1
266.700012	1
267.100006	1
267.299988	1
267.550003	1
268.874992	1
269.200012	1
269.600006	1
269.899994	1
270.200012	1
282.600006	1
283.299988	1
284.100006	1
284.399994	1
284.799988	1
285.128579	1
285.650009	1
