Mass spectrum: 102FTA; LC-ESI-QQ; MS
Name: 102FTA
Name: 102Fluorotelomer Acid
Name: 3,3,4,4,5,5,6,6,7,7,8,8,9,9,10,10,11,11,12,12,12-Heneicosafluorododecanoic acid
Class: Non-Natural Product
Formula: C12H3F21O2
Exact mass: 577.97977
SMILES: OC(=O)CC(F)(F)C(F)(F)C(F)(F)C(F)(F)C(F)(F)C(F)(F)C(F)(F)C(F)(F)C(F)(F)C(F)(F)F
InChI: InChI=1S/C12H3F21O2/c13-3(14,1-2(34)35)4(15,16)5(17,18)6(19,20)7(21,22)8(23,24)9(25,26)10(27,28)11(29,30)12(31,32)33/h1H2,(H,34,35)
Instrument: Xevo TQ MS (Waters)
Instrument type: LC-ESI-QQ
Ms type: MS
Ion mode: NEGATIVE
Retention time: 0.016833
Base peak: 635.027832
Ion type: [M-H]-
m/z	relative intensity
58.897598	472
61.918549	274
88.900970	400
92.821045	955
94.838837	557
102.905037	279
116.888443	174
126.968781	121
146.883972	144
492.966858	636
512.942932	208
576.939209	123
634.884155	999
636.896973	349
644.957825	338
