Mass spectrum: Testosterone; LC-APPI-QQ; MS2; CE:50 V; [M+H]+
Name: Testosterone
Class: Natural Product; Steroid hormone
Formula: C19H28O2
Exact mass: 288.20893
SMILES: O=C(C4)C=C(C3)C(C)(C4)C(C2)C(C3)C(C1)C(C)(C2)C(O)C1
InChI: InChI=1S/C19H28O2/c1-18-9-7-13(20)11-12(18)3-4-14-15-5-6-17(21)19(15,2)10-8-16(14)18/h11,14-17,21H,3-10H2,1-2H3/t14?,15?,16?,17-,18?,19?/m0/s1
Instrument: API2000
Instrument type: LC-APPI-QQ
Ms type: MS2
Ion mode: POSITIVE
Retention time: 0.820850 min
Base peak: 96.900002
Precursor m/z: 289.300000
Precursor type: [M+H]+
m/z	relative intensity
31.000000	1
31.299999	1
38.500000	1
38.970000	1
39.225000	1
40.016666	1
41.061088	4
41.750000	1
43.042014	9
44.599998	1
45.000000	1
49.799999	1
50.200001	1
50.400002	1
50.799999	1
51.000000	1
51.333334	1
51.799999	1
52.099998	1
52.299999	1
53.012088	1
53.900002	1
55.047051	22
57.082313	4
57.900002	1
58.450001	1
58.942857	1
60.400002	1
60.799999	1
62.099998	1
63.099998	1
64.000000	1
65.044319	3
67.081504	40
69.082655	39
70.450001	1
71.091667	2
71.699997	1
72.199997	1
72.400002	1
72.950001	1
73.300003	1
73.699997	1
74.199997	1
74.500000	1
77.055987	23
79.021444	196
81.090918	193
83.061692	62
84.099998	1
85.064999	1
85.800003	1
87.900002	1
88.433334	1
88.800003	1
91.046754	76
93.075171	86
95.073912	75
97.073374	999
99.099998	1
99.400002	1
99.699997	1
100.400002	1
100.800003	1
101.099998	1
101.300003	1
101.850002	1
103.176923	3
105.027505	86
107.081463	52
109.053079	908
111.089130	3
112.000000	1
112.199997	1
112.400002	1
113.074999	1
113.599998	1
113.900002	1
115.046875	2
117.066105	14
119.054491	41
121.084833	26
123.033436	93
124.199997	1
124.599998	1
125.088234	1
125.699997	1
126.099998	1
126.500000	1
126.995918	1
128.127478	5
129.060647	11
131.093490	20
133.120316	15
135.090271	6
136.100006	1
137.057692	2
137.899994	1
138.300003	1
138.600006	1
139.100006	1
139.699997	1
141.149999	3
142.056609	5
143.066356	11
145.074857	18
147.118422	10
149.089840	6
149.899994	1
150.250000	1
150.921424	1
151.500000	1
151.899998	1
152.300003	1
153.120000	1
153.800003	1
155.049383	6
156.061818	3
157.103965	12
159.101241	12
159.938459	1
161.098927	6
163.144119	3
163.950001	1
164.699997	1
165.112501	1
165.800003	1
166.216665	1
167.172727	1
169.070350	6
171.084173	6
172.100006	1
173.171323	4
174.100001	1
175.162301	4
175.937503	1
176.310002	1
177.135200	2
178.550003	1
179.000000	1
179.199997	1
179.437496	1
180.266668	1
181.096719	1
182.233654	2
183.138096	4
185.103333	4
187.210965	3
188.300003	1
189.108277	2
190.000000	1
190.343475	1
190.828570	1
191.228572	1
192.100006	1
192.600001	1
192.949997	1
193.199997	1
193.449997	1
194.333333	1
195.100006	1
195.368179	1
196.199997	1
197.099053	3
199.181250	2
201.136584	2
202.111113	1
203.097778	1
204.219998	1
204.899994	1
205.130003	1
205.699997	1
205.899994	1
206.700002	1
207.199997	1
207.500000	1
208.250000	1
209.228572	1
210.300003	1
211.172725	2
212.100006	1
213.138954	3
214.042858	1
215.126314	2
216.090005	1
217.234210	1
218.100001	1
218.699997	1
219.266668	1
220.199997	1
220.899994	1
221.199997	1
221.600006	1
222.300003	1
223.131577	1
224.400002	1
225.234288	1
225.500000	1
225.699997	1
226.199997	1
226.500000	1
227.213335	1
227.800003	1
228.288233	1
229.315002	1
230.100006	1
230.800003	1
231.167744	1
232.000000	1
232.199997	1
232.474998	1
232.855555	1
233.370000	1
235.100006	1
236.049995	1
236.949997	1
237.500000	1
237.899994	1
238.373331	1
238.949997	1
239.199997	1
239.500000	1
240.100006	1
240.399994	1
240.800003	1
241.199997	1
241.533335	1
242.100006	1
242.399994	1
243.364707	1
244.000000	1
244.400002	1
245.135087	1
246.086366	1
246.625004	1
247.500000	1
249.500000	1
250.500000	1
250.899994	1
251.200000	1
251.600006	1
252.300003	1
253.426466	1
254.199997	1
255.199997	1
255.600006	1
256.000000	1
256.459998	1
257.000000	1
257.200012	1
257.675011	1
257.899994	1
258.250000	1
259.000000	1
259.200012	1
259.500000	1
259.799988	1
260.200000	1
261.015386	1
261.383326	1
268.899994	1
270.100006	1
270.299988	1
271.193331	1
271.949997	1
272.600006	1
272.799988	1
273.100006	1
273.474998	1
274.125008	1
274.399994	1
287.600006	1
287.799988	1
288.100006	1
288.750000	1
289.207696	1
289.799988	1
290.000000	1
