Mass spectrum: 5-beta-Androstan-17-beta-ol-3-one; LC-APPI-QQ; MS2; CE:10 V; [M-H2O+H]+
Name: 5-beta-Androstan-17-beta-ol-3-one
Name: 5-beta-Dihydrotestosterone
Name: Etiocholane-17-beta-ol-3-one
Class: Natural Product; Steroid hormone
Formula: C19H30O2
Exact mass: 290.22458
SMILES: O=C(C4)CC([H])(C3)C(C)(C4)C(C2)C(C3)C(C1)C(C)(C2)C(O)C1
InChI: InChI=1S/C19H30O2/c1-18-9-7-13(20)11-12(18)3-4-14-15-5-6-17(21)19(15,2)10-8-16(14)18/h12,14-17,21H,3-11H2,1-2H3/t12-,14?,15?,16?,17+,18?,19?/m1/s1
Instrument: API2000
Instrument type: LC-APPI-QQ
Ms type: MS2
Ion mode: POSITIVE
Retention time: 0.820850 min
Base peak: 273.399994
Precursor m/z: 273.100000
Precursor type: [M-H2O+H]+
m/z	relative intensity
32.500000	1
66.800003	1
78.400002	1
79.599998	1
80.599998	1
81.099998	1
81.400002	1
82.800003	1
83.300003	1
92.699997	1
93.099998	1
94.649998	1
94.900002	1
96.400002	1
96.900002	1
97.299999	1
99.199997	1
104.699997	1
105.199997	1
105.900002	1
106.400002	1
106.885716	1
108.000000	1
108.599998	1
108.980000	1
109.300003	1
110.900002	1
111.300001	1
112.950001	1
116.599998	1
117.800003	1
119.199997	1
119.900002	1
120.199997	1
120.800003	1
121.025000	1
122.350002	1
122.812503	1
123.500000	1
124.599998	1
125.000000	1
131.300003	1
132.199997	1
133.025002	1
133.399994	1
133.800003	1
134.199997	1
134.399994	1
135.155001	2
136.000000	1
136.699997	1
137.399994	1
138.000000	1
138.699997	1
139.000000	1
143.000000	1
143.300003	1
143.800003	1
144.199997	1
144.500000	1
145.125929	1
146.000000	1
146.250000	1
147.196924	3
148.399994	1
148.600006	1
149.300003	1
149.500000	1
151.000000	1
152.750000	1
153.100006	1
154.899994	1
156.849998	1
157.300003	1
157.899994	1
158.100006	1
159.022224	2
160.100006	1
160.300003	1
161.073081	1
162.399994	1
162.600006	1
162.800003	1
163.250002	1
164.750000	1
165.224998	1
165.600006	1
167.399994	1
171.000000	1
172.199997	1
173.130000	2
174.849998	1
175.125004	1
176.000000	1
176.199997	1
176.800003	1
177.222226	1
177.699997	1
183.100006	1
184.300003	1
184.500000	1
185.218185	1
185.849998	1
186.199997	1
186.500000	1
187.399994	1
188.199997	1
188.500000	1
188.899994	1
189.240002	1
191.069234	1
192.399994	1
192.899994	1
195.199997	1
198.600006	1
198.924999	2
199.288234	2
200.000000	1
200.399994	1
201.308826	2
202.050003	1
202.300003	1
202.500000	1
202.899994	1
203.433329	1
205.000000	1
205.300003	1
205.899994	1
209.300003	1
210.800003	1
211.199997	1
212.100006	1
212.925001	1
213.500000	1
214.000000	1
214.500000	1
215.121054	1
215.399994	1
216.100006	1
216.300003	1
217.049995	1
217.600006	1
225.500000	1
226.000000	1
226.399994	1
227.052003	1
227.474998	1
227.899994	1
228.100006	1
229.233332	1
229.600006	1
230.100006	1
230.600006	1
231.000000	1
237.050003	1
237.300003	1
237.500000	1
239.899994	1
240.625004	1
241.199997	1
241.699997	1
244.100006	1
244.399994	1
244.816668	1
245.237501	1
245.600006	1
252.699997	1
253.299995	1
255.323062	138
256.200012	1
258.299988	1
258.899994	1
259.399994	1
264.399994	1
265.000000	1
265.299988	1
268.299988	1
268.899994	1
269.899994	1
270.100006	1
270.974998	1
273.328389	999
274.899994	1
275.200012	1
390.500000	1
