Mass spectrum: Genistein; LC-APPI-QQ; MS2; CE:40 V; [M+H]+
Name: Genistein
Class: Natural Product; Isoflavone
Formula: C15H10O5
Exact mass: 270.05282
SMILES: Oc(c3)ccc(c3)C(=C1)C(=O)c(c(O)2)c(cc(O)c2)O1
InChI: InChI=1S/C15H10O5/c16-9-3-1-8(2-4-9)11-7-20-13-6-10(17)5-12(18)14(13)15(11)19/h1-7,16-18H
Instrument: API2000
Instrument type: LC-APPI-QQ
Ms type: MS2
Ion mode: POSITIVE
Retention time: 0.820883 min
Base peak: 153.000000
Precursor m/z: 271.200000
Precursor type: [M+H]+
m/z	relative intensity
37.599998	1
38.200001	1
38.500000	1
39.233334	1
40.299999	1
41.104167	1
41.800001	1
42.371429	1
43.056329	3
43.700001	1
44.900002	1
45.200001	1
50.599998	1
51.200001	1
52.000000	1
53.064444	1
53.916668	1
55.017355	4
55.700001	1
56.799999	1
57.500000	1
59.099998	1
60.000000	1
60.700001	1
61.000000	1
61.940000	1
62.400002	1
63.002500	1
65.078759	21
67.095489	32
69.051605	80
70.199997	1
71.040259	3
71.900002	1
72.099998	1
73.000000	1
73.400002	1
73.750000	1
74.300003	1
74.949999	1
75.950001	1
77.066071	8
77.800003	1
78.190000	1
79.031490	4
81.074331	12
81.983334	1
83.041000	3
83.800003	1
84.000000	1
85.058334	2
86.300003	1
86.500000	1
86.962501	1
89.091536	24
91.058870	501
93.073567	11
95.004933	21
97.054959	13
98.000000	1
98.500000	1
98.950001	1
99.699997	1
100.199997	1
100.400002	1
101.111904	1
103.055402	16
105.010160	32
107.034447	59
109.044320	26
111.023237	39
112.400002	1
113.122581	1
115.066125	41
117.084985	34
119.052267	168
121.021607	88
122.996939	10
125.028713	7
127.084533	19
128.109472	22
129.093232	26
131.110395	103
133.076123	24
135.038045	40
137.030576	36
139.093163	4
141.126873	174
145.029824	211
147.099713	73
149.043307	285
153.029694	979
155.052955	31
155.938458	1
157.130192	17
159.075896	160
161.120588	5
163.076169	12
165.039487	114
169.069226	243
171.053978	6
173.096607	46
175.109615	31
176.300003	1
177.122807	4
178.114065	10
179.066885	5
181.073514	13
183.091283	35
185.100939	22
187.099225	108
188.000000	1
189.157893	1
191.073609	24
192.000000	1
192.199997	1
193.054545	1
197.121989	264
200.098835	57
201.093903	46
203.094455	9
204.250000	1
205.015928	2
206.150002	1
207.050487	2
208.081816	1
209.108750	1
211.075344	15
213.086147	38
215.098164	621
217.123256	2
217.800003	1
218.899994	1
219.100006	1
219.449997	1
221.100006	1
221.300003	1
221.699997	1
222.100006	1
223.091665	1
225.115130	64
226.113707	17
227.143080	16
228.079276	18
229.128691	17
230.349998	1
231.062504	1
231.300003	1
233.899994	1
235.049463	3
236.005000	1
237.250000	1
237.899994	1
238.250000	1
238.674999	1
239.121053	1
241.147234	8
243.176780	351
244.699997	1
245.000000	1
245.300003	1
245.650002	1
246.399994	1
247.125004	1
247.550003	1
248.199997	1
248.800003	1
249.600006	1
250.000000	1
250.739999	1
251.199997	1
253.117934	225
255.025002	1
256.316671	1
260.500000	1
260.700012	1
263.299988	1
264.200012	1
265.200012	1
265.799988	1
266.000000	1
266.399994	1
266.600006	1
266.799988	1
267.200012	1
267.600006	1
268.177785	1
268.500000	1
269.195536	2
271.122879	999
273.100006	1
284.324989	1
