Mass spectrum: Coprostanol; LC-APPI-QQ; MS2; CE:30 V; [M-H2O+H]+
Name: Coprostanol
Class: Natural Product; Sterol
Formula: C27H48O
Exact mass: 388.37052
SMILES: C(C)(C1)(C(C(C)CCCC(C)C)4)C(CC4)C(C2)C(C(C)(C3)C([H])(CC(C3)O)C2)C1
InChI: InChI=1S/C27H48O/c1-18(2)7-6-8-19(3)23-11-12-24-22-10-9-20-17-21(28)13-15-26(20,4)25(22)14-16-27(23,24)5/h18-25,28H,6-17H2,1-5H3/t19?,20-,21+,22?,23?,24?,25?,26?,27?/m1/s1
Instrument: API2000, Applied
Instrument type: LC-APPI-QQ
Ms type: MS2
Ion mode: POSITIVE
Retention time: 0.820850 min
Base peak: 371.500000
Precursor m/z: 371.466000
Precursor type: [M-H2O+H]+
m/z	relative intensity
38.700001	1
39.000000	1
39.599998	1
40.400002	1
40.599998	1
41.000000	2
41.400002	1
42.099998	1
42.450001	1
43.000000	5
43.500000	1
52.900002	1
53.599998	1
54.000000	1
54.200001	1
54.400002	1
54.934616	9
57.082258	41
57.750000	1
58.500000	1
64.599998	1
65.400002	1
65.699997	1
67.111017	78
69.042654	140
70.000000	2
71.063414	54
73.020000	3
73.400002	1
76.500000	1
77.000000	2
77.199997	1
77.400002	1
77.699997	1
78.199999	1
79.174075	18
81.066149	575
83.085696	259
84.199997	1
84.855771	17
85.699997	1
86.500000	1
88.199997	1
88.800003	1
89.099998	1
89.500000	1
90.000000	1
90.199997	1
90.862502	5
91.383335	2
93.027715	88
95.034417	999
97.085148	259
97.950001	2
98.300003	1
99.030769	9
99.400002	1
100.950001	1
101.250000	1
104.000000	1
105.083333	16
105.500000	3
107.016771	158
109.066220	790
111.039619	156
112.300003	1
112.549999	1
112.800003	1
113.079999	3
117.049999	1
118.099998	1
119.005999	17
120.099998	5
121.056780	313
121.872224	6
123.053943	420
125.078652	59
126.099998	1
126.300003	1
127.000000	2
127.599998	1
128.100006	1
128.800003	1
129.275002	1
129.500000	1
130.399994	1
130.750000	1
131.000000	1
131.199997	1
131.500000	1
131.699997	1
132.050003	1
133.051281	26
133.724998	4
135.078147	479
137.104949	228
138.399994	1
139.064706	11
140.300003	1
140.899994	1
141.100006	1
141.300003	1
143.100006	1
144.399994	1
144.699997	1
144.949997	1
145.424995	1
146.199997	2
147.129547	58
149.090284	491
150.000000	2
151.164240	100
151.899994	1
152.899994	1
153.199997	2
153.500000	2
153.800003	1
155.399994	1
155.899994	1
157.199997	1
157.399994	1
158.449997	1
158.699997	1
159.174999	3
159.600006	1
160.120001	3
161.066480	59
162.144446	6
163.119454	303
164.100001	2
165.174046	87
165.800003	1
167.150002	1
169.000000	1
171.100006	1
172.966665	2
173.300003	1
174.000000	1
174.300003	1
175.074491	65
176.174999	1
177.181271	187
178.100006	1
178.500000	1
179.218909	91
180.300003	1
180.550003	1
180.949997	1
181.199997	1
182.500000	1
183.199997	1
184.849998	1
185.199997	1
186.600006	1
186.800003	1
187.000000	2
187.500000	1
189.189840	248
189.883329	2
191.206187	64
192.100006	1
193.157233	105
194.199997	1
194.399994	1
194.800003	1
195.000000	1
195.500000	1
198.800003	1
199.100006	1
200.000000	1
200.300003	1
200.900002	1
201.399994	1
202.258334	4
203.188764	147
203.899994	2
204.283335	2
205.232108	72
205.899994	1
207.139428	116
208.949997	1
213.199997	1
213.550003	1
213.800003	1
214.935713	9
215.337502	5
217.169349	86
218.199997	1
219.160240	55
220.910709	9
221.356817	29
221.899994	1
226.000000	1
226.800003	1
229.000000	1
229.199997	1
230.500000	2
231.222353	56
232.374996	1
233.154227	67
234.199997	1
234.449997	1
235.039131	8
235.469229	4
235.899994	1
238.899994	1
241.000000	1
241.399994	1
242.899994	1
243.300003	1
243.500000	1
243.899994	1
244.459998	2
245.279592	32
246.000000	1
246.250000	1
246.600006	1
247.252173	61
248.199997	1
249.244446	6
250.100006	1
253.300003	1
256.500000	1
257.100006	1
257.299988	2
258.250000	3
259.263391	37
260.250000	1
261.312047	82
262.399994	1
263.359991	3
263.700012	2
264.799988	1
266.700012	1
266.899994	1
267.399994	1
269.200012	1
269.399994	1
271.299988	1
271.600006	1
272.399994	1
273.336657	10
274.474998	1
275.321872	42
276.100006	1
277.140009	2
277.500000	1
277.700012	1
278.899994	1
279.500000	1
281.299988	1
282.500000	1
284.799988	1
285.150002	1
286.349991	1
286.974998	4
287.200012	5
288.299988	1
288.500000	1
289.255003	26
289.899994	1
292.799988	1
294.500000	1
296.600006	1
297.100006	1
297.700012	1
299.299988	1
300.050003	1
301.218750	11
301.899994	1
302.600006	1
303.120001	3
303.899994	1
311.100006	1
312.899994	1
313.299988	1
313.600006	1
313.799988	1
314.339996	3
315.211117	12
316.299988	1
316.500000	1
327.299988	1
328.100006	1
328.550003	1
329.299988	2
329.500000	1
339.100006	1
339.600006	1
342.000000	1
342.449997	1
342.899994	1
343.200012	1
343.500000	1
353.100006	1
353.299988	1
353.700012	1
355.299988	1
355.500000	1
356.200012	2
356.481817	4
357.000000	1
369.200012	1
369.899994	1
371.408047	906
372.600006	1
