Mass spectrum: Genistein; LC-APPI-QQ; MS2; CE:10 V; [M+H]+
Name: Genistein
Class: Natural Product; Isoflavone
Formula: C15H10O5
Exact mass: 270.05282
SMILES: Oc(c3)ccc(c3)C(=C1)C(=O)c(c(O)2)c(cc(O)c2)O1
InChI: InChI=1S/C15H10O5/c16-9-3-1-8(2-4-9)11-7-20-13-6-10(17)5-12(18)14(13)15(11)19/h1-7,16-18H
Instrument: API2000
Instrument type: LC-APPI-QQ
Ms type: MS2
Ion mode: POSITIVE
Retention time: 0.820850 min
Base peak: 271.100006
Precursor m/z: 271.200000
Precursor type: [M+H]+
m/z	relative intensity
74.800003	1
82.900002	1
88.000000	1
90.599998	1
90.800003	1
104.300003	1
105.900002	1
106.500000	1
116.900002	1
125.500000	1
130.100006	1
133.300003	1
135.000000	1
143.100006	1
144.800003	1
145.199997	1
149.000000	1
149.199997	1
149.699997	1
152.500000	1
153.000000	1
153.399994	1
155.399994	1
157.100006	1
158.899994	1
160.600006	1
161.300003	1
164.799998	1
173.399994	1
176.899994	1
177.300003	1
178.899994	1
179.300003	1
180.000000	1
182.899994	1
183.300003	1
185.349998	1
186.699997	1
187.000000	1
193.199997	1
193.500000	1
196.399994	1
196.800003	1
197.050003	1
198.899994	1
199.300003	1
200.100006	1
200.949997	1
202.800003	1
203.600006	1
206.800003	1
207.199997	1
210.800003	1
211.199997	1
212.000000	1
212.500000	1
215.003333	2
218.300003	1
221.199997	1
221.600006	1
224.849998	1
225.100006	1
225.300003	1
225.600006	1
226.199997	1
226.799998	1
227.199997	1
229.300003	1
229.500000	1
235.100006	1
239.154545	1
241.300003	1
243.094595	2
251.699997	1
252.300003	1
253.260714	1
254.300003	1
256.200012	1
257.500000	1
268.399994	1
268.799998	1
271.101798	999
272.449997	1
277.600006	1
286.500000	1
