Mass spectrum: Coprostanone; LC-APPI-QQ; MS2; CE:60 V; [M+H]+
Name: Coprostanone
Class: Natural Product; Sterol
Formula: C27H46O
Exact mass: 386.35487
SMILES: C(C)(C1)(C(C(C)CCCC(C)C)4)C(CC4)C(C2)C(C(C)(C3)C([H])(CC(C3)=O)C2)C1
InChI: InChI=1S/C27H46O/c1-18(2)7-6-8-19(3)23-11-12-24-22-10-9-20-17-21(28)13-15-26(20,4)25(22)14-16-27(23,24)5/h18-20,22-25H,6-17H2,1-5H3/t19?,20-,22?,23?,24?,25?,26?,27?/m1/s1
Instrument: API2000, Applied
Instrument type: LC-APPI-QQ
Ms type: MS2
Ion mode: POSITIVE
Retention time: 0.820850 min
Base peak: 81.000000
Precursor m/z: 387.449000
Precursor type: [M+H]+
m/z	relative intensity
39.250000	1
41.106780	20
43.104395	62
44.000000	1
44.299999	1
45.000000	1
49.900002	1
50.850000	1
51.150000	1
51.400002	1
51.799999	1
52.700001	1
53.000000	1
53.466667	2
55.064043	220
57.099344	207
58.000000	1
58.299999	1
58.900002	1
59.299999	1
62.700001	1
63.850000	1
64.099998	1
64.500000	1
65.307143	10
67.092470	515
69.069085	431
71.100862	79
71.800003	3
72.250000	1
72.599998	1
73.000000	1
73.350002	1
75.599998	1
76.300003	4
77.026364	37
79.003894	332
81.083096	978
83.139817	149
84.199997	2
84.900002	3
85.131248	5
86.300003	1
88.400002	1
88.649998	1
89.325003	1
91.025170	300
93.095318	509
95.051856	999
96.099998	7
97.041723	51
99.000000	1
100.599998	1
101.300003	1
101.800003	1
102.199997	1
103.000000	7
103.400002	2
103.599998	2
105.040447	335
107.018663	244
109.071630	290
110.010256	13
111.091665	8
112.000000	1
113.000000	1
114.500000	1
114.900002	1
115.300003	2
115.599998	1
117.075213	40
119.073009	175
120.210000	7
121.096932	111
122.159998	3
123.072222	67
124.300003	1
124.699997	1
124.900002	1
125.400002	1
126.900002	1
127.400002	1
128.083338	2
128.876923	9
129.439996	3
130.000000	3
131.135714	67
131.800003	2
133.096876	65
133.800003	1
135.123457	55
136.100006	1
137.155557	6
137.899994	1
138.399994	1
140.699997	1
140.899994	1
141.399994	1
142.025002	1
142.976000	9
143.699997	1
145.043961	70
145.983332	2
147.090990	76
148.224998	1
149.165626	22
150.500000	1
151.100006	1
151.399994	1
153.899994	1
154.399994	1
155.399994	1
156.100006	1
156.500000	1
157.088889	6
158.000000	2
159.095238	43
160.000000	2
161.132143	38
161.950001	1
163.399994	2
165.000000	1
166.100006	1
167.399994	1
168.699997	1
168.899994	1
169.199997	1
169.399994	1
169.800003	1
170.250000	1
170.925001	5
172.399994	1
173.180002	14
174.000000	1
175.199997	3
176.600006	1
176.800003	1
177.150002	1
177.500000	1
179.000000	1
179.449997	1
182.849998	1
183.600006	1
184.025002	1
184.699997	2
184.899994	4
185.100006	4
186.150004	4
187.078666	26
187.699997	1
188.100006	1
188.399994	1
188.800003	1
189.300003	1
189.525002	1
190.699997	1
191.199997	1
191.600006	1
192.800003	1
193.250000	1
196.500000	1
196.800003	1
197.399994	1
197.699997	1
198.399994	1
199.000004	5
199.333333	4
199.949997	2
200.500000	1
201.214286	5
201.699997	1
202.100006	1
202.399994	1
202.899994	1
203.150002	1
205.100006	1
205.899994	1
206.849998	1
207.500000	1
213.000000	2
213.300003	1
213.600006	1
213.974998	1
214.199997	1
214.449997	1
215.228572	2
216.800003	1
217.150002	1
217.399994	1
218.399994	1
218.800003	1
219.100006	1
220.800003	1
226.399994	1
227.100006	1
227.300003	1
227.899994	1
228.500000	1
228.800003	1
229.000000	1
229.199997	1
229.399994	1
229.600006	1
230.100006	1
231.000000	1
231.250000	1
232.199997	1
232.699997	1
234.100006	1
237.100006	1
239.000000	1
239.500000	1
240.949997	1
241.300003	1
241.500000	1
242.199997	1
242.899994	1
243.699997	1
244.399994	1
244.699997	1
245.800003	1
246.600006	1
246.800003	1
247.100006	1
248.100006	1
249.399994	1
250.500000	1
251.500000	1
252.000000	1
252.300003	1
253.300003	1
254.000000	1
254.300003	1
255.199997	1
255.600006	1
255.899994	1
256.899994	1
258.299988	1
259.200012	1
269.000000	1
271.399994	1
272.700012	1
272.899994	1
273.150009	1
273.600006	1
274.000000	1
274.349991	1
275.500000	1
276.399994	1
281.100006	1
281.899994	1
283.200012	1
284.799988	1
285.100006	1
287.449997	1
295.500000	1
301.050003	1
301.500000	1
302.000000	1
303.200012	1
303.700012	1
311.200012	1
313.200012	1
313.500000	1
314.000000	1
314.299988	1
315.799988	1
316.399994	1
318.299988	1
325.500000	1
326.299988	1
328.799988	1
329.200012	1
339.100006	1
341.949997	1
344.000000	1
355.799988	1
365.600006	1
384.700012	1
387.100006	1
