Mass spectrum: Dihydrotestosterone; LC-APPI-QQ; MS2; CE:40 V; [M-H2O+H]+
Name: Dihydrotestosterone
Class: Natural Product; Steroid hormone
Formula: C19H30O2
Exact mass: 290.22458
SMILES: O=C(C4)CC([H])(C3)C(C)(C4)C(C2)C(C3)C(C1)C(C)(C2)C(O)C1
InChI: InChI=1S/C19H30O2/c1-18-9-7-13(20)11-12(18)3-4-14-15-5-6-17(21)19(15,2)10-8-16(14)18/h12,14-17,21H,3-11H2,1-2H3/t12-,14?,15?,16?,17-,18?,19?/m0/s1
Instrument: API2000
Instrument type: LC-APPI-QQ
Ms type: MS2
Ion mode: POSITIVE
Retention time: 0.820850 min
Base peak: 107.099998
Precursor m/z: 273.200000
Precursor type: [M-H2O+H]+
m/z	relative intensity
39.099998	1
39.900002	1
40.299999	1
40.500000	1
40.799999	1
41.150000	3
41.799999	1
42.299999	1
42.500000	3
43.100000	33
43.700001	1
44.099998	1
44.799999	1
45.000000	1
45.200001	1
45.700001	1
50.900002	1
51.099998	1
52.599998	1
53.099998	1
53.400002	1
53.599998	1
54.000000	4
54.299999	3
55.058333	73
55.599998	2
56.099998	1
56.500000	2
57.064706	11
58.099998	1
59.000000	1
59.200001	1
64.549999	1
64.950001	3
65.199997	2
65.460001	3
66.099998	4
67.135751	261
69.155999	135
69.800003	1
70.252941	11
70.915001	14
71.400002	7
72.000000	1
72.850002	1
74.900002	1
75.199997	1
75.800003	1
76.199997	1
77.051999	34
77.900002	6
79.033448	394
81.109515	681
82.010000	7
83.150336	101
83.900002	2
84.099998	1
84.300003	1
84.699997	3
85.011765	11
85.333336	4
85.800003	1
86.000000	1
87.099998	1
87.900002	1
88.400002	1
88.800003	1
89.000000	1
89.400002	4
91.092495	306
93.099815	730
95.056174	826
97.108203	173
97.800003	1
98.049999	4
98.350002	4
98.850002	3
99.239999	7
100.000000	1
101.000000	1
102.250000	1
102.833333	8
105.097520	599
107.041351	570
109.110632	673
109.840002	7
110.133331	4
110.900002	10
111.219356	21
112.850002	1
113.400002	1
114.199997	1
115.312500	11
115.699997	2
117.059459	100
119.077481	354
121.127126	333
121.910528	13
123.073040	999
124.124998	3
124.699997	1
125.199997	3
125.400002	2
126.099998	1
126.500000	1
126.699997	1
127.300001	4
129.130252	80
130.229416	23
131.123794	210
133.147245	171
134.100006	5
134.300003	5
135.096638	161
135.800003	1
136.150002	3
137.127586	39
137.699997	1
137.949997	1
138.199997	1
138.600006	1
139.000000	3
139.399994	1
139.800003	1
140.300003	1
140.866664	4
141.199997	4
141.525002	3
143.075000	92
143.699997	7
145.100388	348
147.144179	255
148.016668	4
148.359998	7
149.173190	93
150.300003	1
151.020001	7
151.325001	3
151.750000	1
152.100006	1
153.000000	4
153.399994	3
154.150002	1
154.449997	1
155.223532	11
155.600006	5
156.064284	19
157.137180	105
159.105850	485
161.152051	263
161.849998	7
162.100006	3
163.173305	159
163.949997	3
164.500000	3
165.374996	5
166.199997	2
166.399994	1
166.800003	1
167.250000	3
167.700002	2
168.100001	2
168.500000	1
168.800003	1
169.116666	8
171.075001	65
172.216671	16
173.171875	130
173.800003	1
174.100006	1
174.557146	5
175.318751	22
176.100006	1
176.500000	3
177.011765	11
177.371425	9
177.849998	3
178.300003	1
178.600006	1
178.899994	1
179.399994	2
180.000000	1
180.399994	1
181.000000	3
181.199997	2
181.399994	2
182.800003	3
183.399994	9
185.123973	99
185.500000	26
186.100006	7
187.149350	52
188.000000	5
189.176812	47
189.800003	1
190.100006	2
191.199997	3
191.399994	2
191.899994	1
193.100006	1
193.650002	1
194.800003	1
195.000000	2
195.199997	1
195.449997	1
195.800003	1
196.100006	1
196.550003	1
197.280002	7
197.766668	4
199.202173	186
200.244446	12
201.217145	24
202.175609	111
203.172417	39
204.800003	1
205.000000	2
205.199997	1
205.699997	1
206.000000	1
208.000000	1
208.800003	1
210.300003	1
210.500000	1
210.916662	4
211.355555	6
212.000000	3
213.399994	23
214.199997	4
215.154840	126
215.857141	9
216.100006	7
217.071431	38
218.100006	1
218.399994	1
218.849998	1
219.300003	2
220.800003	1
222.050003	1
223.000000	1
223.399994	1
224.899994	3
225.212498	5
226.100006	16
227.219997	27
228.020001	7
228.325001	5
229.200000	17
230.107144	38
231.000000	1
231.250000	3
231.800003	1
232.100001	2
234.500000	1
238.800003	3
239.199997	5
240.112505	5
240.416662	4
241.116669	8
241.600006	2
241.800003	1
242.269231	9
243.260000	27
243.899994	6
244.300003	3
244.500000	4
245.224692	55
246.199997	1
251.300003	1
252.300003	2
252.949997	3
253.199997	1
253.600006	2
254.199997	2
255.327485	231
256.200012	1
256.500000	1
256.962498	5
258.202566	53
270.550003	3
271.000000	1
271.200012	3
271.449997	3
271.849991	3
272.449997	5
273.217286	109
274.000000	1
