Mass spectrum: Oseltamivir acid; LC-APPI-QQ; MS
Name: Oseltamivir acid
Class: Non-Natural Product
Formula: C14H24N2O4
Exact mass: 284.17361
SMILES: CCC(CC)OC(C=1)C(NC(C)=O)C(N)CC(C(O)=O)1
InChI: InChI=1S/C14H24N2O4/c1-4-10(5-2)20-12-7-9(14(18)19)6-11(15)13(12)16-8(3)17/h7,10-13H,4-6,15H2,1-3H3,(H,16,17)(H,18,19)/t11-,12+,13+/m0/s1
Instrument: API2000, Applied
Instrument type: LC-APPI-QQ
Ms type: MS
Ion mode: POSITIVE
Retention time: 0.821083 min
Base peak: 285.100006
Ion type: [M+H]+
m/z	relative intensity
201.123232	19
202.082367	7
203.111997	22
205.115084	80
207.130913	24
209.142443	33
211.127341	37
213.102299	26
215.128544	103
217.148953	17
219.107465	25
221.110165	22
223.143734	24
224.170468	12
225.164067	21
226.185919	11
227.157109	15
228.162989	8
229.157803	16
230.194211	5
231.145293	21
232.157865	6
233.145430	15
235.129784	15
237.155330	47
239.163699	19
240.189570	9
241.234938	15
243.173376	13
244.163085	4
245.165078	13
247.175359	12
249.147004	13
251.155868	15
252.173902	5
253.154446	13
255.184933	17
256.216997	7
257.190725	11
258.159879	6
259.180388	10
261.153618	10
263.178966	13
265.175932	16
267.179612	30
268.184706	50
269.212687	26
271.174387	11
273.218874	16
275.179404	7
276.200000	3
277.153744	8
279.156813	21
281.179034	10
283.193921	15
285.213822	999
289.225350	7
291.234775	6
293.215800	6
295.203113	6
297.256564	13
299.260000	16
301.202773	6
302.277006	2
303.226569	6
304.279866	2
305.227605	4
307.265761	24
309.283941	5
311.287179	8
313.298237	13
315.310548	11
317.238758	5
319.208362	3
320.252543	1
321.288960	4
323.229767	23
325.294464	14
326.336553	4
327.302939	7
329.270822	5
330.282179	2
331.201110	3
333.226267	3
335.276285	3
337.258271	4
339.324956	199
343.254916	3
344.311023	1
345.265086	3
347.230703	3
348.326662	1
349.281170	2
351.301334	3
353.335301	6
354.946310	7
357.298538	2
359.267157	2
361.265819	3
363.272147	3
365.345224	3
367.376546	7
369.463416	31
370.473325	8
373.337876	146
377.268090	3
378.246097	1
379.339873	2
380.339997	1
381.370000	3
383.398003	4
385.421726	4
387.379845	3
389.328376	5
391.390470	10
393.375984	1
395.358853	2
397.384307	2
399.341692	27
