Mass spectrum: Coprostanone; LC-APPI-QQ; MS2; CE:10 V; [M+H]+
Name: Coprostanone
Class: Natural Product; Sterol
Formula: C27H46O
Exact mass: 386.35487
SMILES: C(C)(C1)(C(C(C)CCCC(C)C)4)C(CC4)C(C2)C(C(C)(C3)C([H])(CC(C3)=O)C2)C1
InChI: InChI=1S/C27H46O/c1-18(2)7-6-8-19(3)23-11-12-24-22-10-9-20-17-21(28)13-15-26(20,4)25(22)14-16-27(23,24)5/h18-20,22-25H,6-17H2,1-5H3/t19?,20-,22?,23?,24?,25?,26?,27?/m1/s1
Instrument: API2000, Applied
Instrument type: LC-APPI-QQ
Ms type: MS2
Ion mode: POSITIVE
Retention time: 0.820917 min
Base peak: 387.500000
Precursor m/z: 387.449000
Precursor type: [M+H]+
m/z	relative intensity
56.700001	1
57.299999	1
66.800003	1
69.099998	1
70.699997	1
71.000000	1
71.199997	1
80.599998	1
81.099998	1
81.300003	1
81.500000	1
81.800003	1
82.649998	1
83.300003	1
83.599998	1
84.300003	1
84.599998	1
84.950001	1
85.199997	1
90.900002	1
94.699997	1
94.900002	1
95.224998	1
95.599998	1
96.500000	1
96.800003	1
97.199997	1
97.400002	1
98.000000	1
98.900002	1
105.099998	1
106.800003	1
107.000000	1
108.000000	1
108.400002	1
108.800003	1
109.099998	1
109.400002	1
110.699997	1
111.099998	1
113.000000	1
118.699997	1
118.900002	1
119.199997	1
119.400002	1
120.699997	1
121.157140	1
121.400002	1
122.000000	1
122.599998	1
122.800003	1
123.025000	1
123.350002	1
123.900002	1
124.833336	1
125.199997	1
125.400002	1
126.400002	1
126.699997	1
126.900002	1
127.300003	1
130.899994	1
131.300003	1
133.300003	1
133.500000	1
133.800003	1
134.100006	1
135.062161	4
135.849998	1
136.949997	1
137.199997	1
138.349998	1
138.600006	1
138.949997	1
139.399994	1
140.800003	1
144.800003	1
145.000000	1
145.399994	1
145.949997	1
147.089999	2
147.899994	1
148.500000	1
149.416662	1
150.600006	1
150.800003	1
151.000000	1
151.262501	1
153.050003	1
153.449997	1
158.699997	1
159.199997	1
160.399994	1
161.299999	2
162.800003	1
163.000000	1
163.299998	1
163.899994	1
164.399994	1
164.912495	1
165.199997	1
165.399994	1
166.699997	1
167.100001	1
167.399994	1
173.299998	1
174.300003	1
175.076921	3
175.399994	1
176.100006	1
176.800003	1
177.299998	1
177.600006	1
178.100006	1
179.000000	1
179.280002	1
179.500000	1
180.600006	1
180.800003	1
181.125004	1
181.399994	1
185.300003	1
186.199997	1
186.800003	1
187.100006	1
187.699997	1
188.600006	1
188.899994	1
189.133337	2
189.500000	1
190.000000	1
191.100006	1
192.349998	1
193.235713	2
195.000000	1
195.199997	1
195.500000	1
200.899994	1
201.184617	1
201.500000	1
202.500000	1
203.177781	3
204.399994	1
205.036364	2
205.399994	1
206.500000	1
207.169700	4
208.199997	1
209.199997	1
213.500000	1
215.184615	1
216.500000	1
217.100006	1
217.358331	1
219.231747	7
220.199997	1
220.912495	1
221.699997	1
223.300003	1
227.600006	1
228.399994	1
229.136365	2
230.000000	1
230.699997	1
231.000000	1
231.300003	1
231.500000	1
232.199997	1
233.241666	3
234.500000	1
234.800003	1
235.077781	1
240.849998	1
241.199997	1
243.285000	9
244.800003	1
245.200002	1
245.500000	1
246.550003	1
247.268421	2
248.300003	1
249.233337	2
256.100006	1
256.500000	1
257.000000	1
257.377770	2
259.100006	1
259.324989	2
260.299988	1
260.550003	1
261.299988	1
263.100006	1
263.399994	1
271.250000	1
273.000000	2
273.366659	1
273.849991	1
275.200012	1
275.399994	1
277.100006	1
277.600006	1
281.399994	1
285.000000	1
285.424995	1
285.700012	1
286.100006	1
286.899994	1
287.100006	1
287.349991	1
289.050003	1
289.399994	1
289.600006	1
291.150009	1
291.399994	1
291.799988	1
296.600006	1
298.949997	1
299.575005	1
300.799988	1
301.150009	1
301.399994	1
303.050003	1
303.299988	1
309.100006	1
309.399994	1
313.339996	1
313.600006	1
314.200012	1
315.200012	1
317.100006	1
317.700012	1
328.500000	1
329.399994	1
329.799988	1
330.200012	1
331.050003	1
331.399994	1
340.399994	1
341.299988	1
341.600006	1
345.250000	1
351.200012	1
356.399994	1
367.100006	1
367.700012	1
367.899994	1
368.100006	1
368.500000	1
369.391438	126
370.500000	1
370.899994	1
380.500000	1
383.000000	1
384.700012	1
385.399994	1
387.432977	999
388.600006	1
389.700012	1
