Mass spectrum: Cholestanol; LC-APPI-QQ; MS
Name: Cholestanol
Class: Natural Product; Sterol
Formula: C27H48O
Exact mass: 388.37052
SMILES: C(C)(C1)(C(C(C)CCCC(C)C)4)C(CC4)C(C2)C(C(C)(C3)C([H])(CC(C3)O)C2)C1
InChI: InChI=1S/C27H48O/c1-18(2)7-6-8-19(3)23-11-12-24-22-10-9-20-17-21(28)13-15-26(20,4)25(22)14-16-27(23,24)5/h18-25,28H,6-17H2,1-5H3/t19?,20-,21-,22?,23?,24?,25?,26?,27?/m0/s1
Instrument: API2000, Applied
Instrument type: LC-APPI-QQ
Ms type: MS
Ion mode: POSITIVE
Retention time: 0.821067 min
Base peak: 371.500000
Ion type: [M-H2O+H]+
m/z	relative intensity
201.174738	52
202.116533	17
203.152245	92
204.138336	22
205.187044	53
207.173299	64
208.168363	16
209.156139	36
210.175940	14
211.161320	42
212.186240	9
213.124959	26
214.191435	12
215.208831	163
216.238320	37
217.228779	57
218.154220	18
219.166459	46
220.151331	13
221.154792	35
222.134739	10
223.146523	22
224.173132	7
225.183459	14
226.207795	5
227.199716	15
228.222259	6
229.163937	20
230.207550	10
231.187487	93
232.212524	17
233.232480	42
234.175752	12
235.160941	23
237.134537	129
238.123241	32
239.163800	24
240.200156	7
241.279686	14
242.226935	3
243.262599	40
244.270471	8
245.275742	53
246.259840	13
247.245758	49
249.193282	21
251.133917	13
252.108231	4
253.168773	9
254.127164	4
255.191794	16
257.278988	35
259.256286	44
260.255175	11
261.262233	59
263.174792	35
265.181035	10
267.123248	9
268.130378	3
269.192694	11
271.181231	17
273.263200	38
275.267804	42
277.169208	16
279.164746	16
280.196421	5
281.170769	10
282.141961	5
283.167299	11
285.206656	17
287.282374	31
289.301784	24
291.234789	8
292.209335	2
293.196896	6
294.232265	2
295.219100	8
296.246171	3
297.215323	11
299.252623	14
301.336674	29
303.246763	9
304.289712	3
305.289018	5
307.269231	8
308.273541	3
309.234367	7
310.259798	2
311.259338	10
313.269324	11
315.373331	32
316.374976	11
317.281279	7
318.268888	2
319.281379	4
320.269054	2
321.309597	5
322.269196	2
323.262389	6
324.231142	2
325.255273	7
327.253905	10
329.343219	11
331.296604	9
333.254924	5
335.204999	5
336.297316	2
337.290706	6
338.266316	3
339.275776	9
340.310263	3
341.305412	9
343.299542	7
344.325204	3
345.304550	5
346.256154	3
347.247910	6
348.247794	3
349.246064	8
350.278053	4
351.307653	7
352.307142	3
353.377295	11
355.444487	89
357.368136	23
359.299601	8
361.264366	8
362.205297	3
363.277400	8
365.324156	11
367.412045	43
369.471540	139
371.500270	999
377.322045	10
379.357595	23
381.411556	35
383.435217	96
385.480495	285
386.464547	82
387.491212	85
388.464805	29
391.396769	13
393.318350	3
395.354522	4
397.370833	4
399.432387	9
401.485715	29
403.475762	12
405.418345	3
406.371493	1
407.346667	3
408.338889	1
409.394503	2
411.409431	4
413.380446	3
414.405783	1
415.418165	3
416.396687	2
417.459011	3
419.407509	2
420.415681	1
421.391519	1
422.401352	1
423.375350	2
425.328021	2
427.457910	5
428.463780	3
429.359182	2
431.383201	1
433.389285	4
434.377036	1
435.455591	2
436.404135	1
437.449372	2
439.400000	2
441.346712	2
442.399999	1
443.342798	1
444.443874	1
445.371191	2
447.516843	4
449.429294	2
451.442030	2
452.367547	1
453.473792	2
454.408912	1
455.396754	2
457.413483	1
458.331370	1
459.362972	2
461.411684	4
462.412665	2
463.368749	2
465.421894	2
467.431738	2
469.383941	1
471.436503	1
473.397244	1
475.406184	2
477.432267	3
479.458045	2
480.397362	1
481.512049	2
482.506897	1
483.445715	1
484.292847	1
485.490476	1
486.510290	1
487.423529	1
488.421213	1
489.412901	1
491.427811	2
493.519804	4
494.499428	2
495.513761	1
496.560143	1
497.514001	1
498.399996	1
499.573139	1
