Mass spectrum: Estrone; LC-APPI-QQ; MS2; CE:30 V; [M+H]+
Name: Estrone
Class: Natural Product; Steroid hormone
Formula: C18H22O2
Exact mass: 270.16198
SMILES: Oc(c4)cc(C3)c(c4)C(C2)C(C3)C(C1)C(C)(C2)C(=O)C1
InChI: InChI=1S/C18H22O2/c1-18-9-8-14-13-5-3-12(19)10-11(13)2-4-15(14)16(18)6-7-17(18)20/h3,5,10,14-16,19H,2,4,6-9H2,1H3
Instrument: API2000
Instrument type: LC-APPI-QQ
Ms type: MS2
Ion mode: POSITIVE
Retention time: 0.820850 min
Base peak: 159.000000
Precursor m/z: 271.100000
Precursor type: [M+H]+
m/z	relative intensity
39.000000	1
40.500000	1
40.940000	1
41.299999	1
41.500000	1
43.048387	7
43.799999	1
44.200001	1
44.599998	1
44.900002	1
45.400002	1
51.299999	1
51.500000	1
51.900002	1
53.099998	1
54.099998	1
54.500000	1
55.154838	2
55.800001	1
56.299999	1
56.950000	1
57.299999	1
58.000000	1
58.400002	1
59.000000	1
61.099998	1
62.900002	1
64.350002	1
64.649998	1
64.960001	1
65.649998	1
67.130814	13
69.077192	4
71.060604	51
72.400002	1
73.250000	1
75.199997	1
75.800003	1
76.099998	1
77.152172	2
79.044504	22
81.102747	109
83.120779	3
83.916668	1
85.092910	21
85.800003	1
87.350002	1
88.699997	1
88.900002	1
89.099998	1
89.300003	1
90.049999	1
90.366669	1
91.094811	8
93.117895	80
95.082054	33
96.000000	1
97.097115	4
97.900002	1
98.466667	1
99.110989	3
99.750000	1
100.900002	1
101.099998	1
101.400002	1
101.699997	1
102.000000	1
102.300003	1
103.021739	2
105.038413	30
107.042987	131
109.130612	30
110.199997	1
111.085602	15
113.099998	1
113.900002	1
115.061289	2
117.103603	4
117.966667	1
118.199997	1
119.151219	6
121.092894	52
122.099998	1
122.300003	1
123.000000	1
125.052874	7
126.300003	1
127.192105	3
128.146512	2
129.109167	5
131.126595	50
133.100180	896
134.399994	1
134.674999	1
135.152175	2
135.800003	1
136.399994	1
136.699997	1
137.275002	1
138.100006	1
138.500000	1
139.300003	1
141.124492	26
142.300003	1
145.078093	127
147.102839	28
148.100006	1
148.399994	1
149.121053	1
149.800003	1
150.100006	1
151.180002	1
151.928569	1
153.243857	2
153.887495	1
157.115066	785
159.106023	999
161.089504	13
161.899994	1
162.199997	1
162.500000	1
163.019049	1
163.416662	1
163.800003	1
165.087880	10
166.199997	1
167.083606	9
169.155406	11
171.067791	60
173.146867	56
174.171428	1
175.125778	9
175.800003	1
176.050003	1
176.874996	1
177.199997	1
179.149776	34
180.180002	1
181.069023	7
183.120766	129
185.125499	69
186.040508	3
186.399994	1
187.063834	2
188.972974	1
190.000000	1
190.300003	1
190.600001	1
191.100006	1
191.359998	1
193.182500	6
194.000000	1
194.250000	1
195.159793	7
197.161175	411
198.180615	75
199.214612	8
201.144958	110
202.550003	1
203.000000	1
203.500000	1
203.899994	1
204.500000	1
204.799998	1
205.371427	1
206.199997	1
207.121054	1
207.800003	1
209.158883	19
211.152265	136
213.177534	193
215.082927	2
216.100006	1
217.150002	1
218.199997	1
218.399994	1
219.699997	1
220.100006	1
220.349998	1
220.800003	1
221.000000	1
222.100000	1
223.200001	2
224.145715	11
225.200000	30
226.399994	1
227.016668	1
228.133337	1
229.328570	1
229.800003	1
232.600001	1
233.399994	1
233.699997	1
234.300003	1
234.500000	1
235.229168	1
236.199997	1
236.399994	1
236.800003	1
237.000000	1
237.399994	1
238.231397	7
240.899994	1
241.125004	1
242.000000	1
242.300003	1
242.550003	1
243.139683	2
245.000000	1
248.600006	1
249.100006	1
249.300003	1
249.600006	1
249.899994	1
250.300003	1
251.190076	5
253.260584	541
254.399994	1
254.699997	1
255.000000	1
255.199997	1
255.800003	1
256.000000	1
256.300000	1
268.500000	1
269.100006	1
271.246548	94
