Mass spectrum: nPFOA; LC-ESI-QQ; MS2; CE10eV
Name: nPFOA
Class: Non-Natural Product
Formula: C8HF15O2
Exact mass: 413.97370
SMILES: OC(=O)C(F)(F)C(F)(F)C(F)(F)C(F)(F)C(F)(F)C(F)(F)C(F)(F)F
InChI: InChI=1S/C8HF15O2/c9-2(10,1(24)25)3(11,12)4(13,14)5(15,16)6(17,18)7(19,20)8(21,22)23/h(H,24,25)
Instrument: Xevo TQ, Waters
Instrument type: LC-ESI-QQ
Ms type: MS2
Ion mode: NEGATIVE
Collision energy: 10eV
Retention time: 20.812283 min
Base peak: 368.823975
Precursor m/z: 413
Precursor type: [M-H]-
m/z	relative intensity
119.114391	91
169.142544	261
219.179396	154
368.924676	999
403.247514	38
412.794558	242
