Mass spectrum: Epicoprostanol; LC-APPI-QQ; MS2; CE:20 V; [M-H2O+H]+
Name: Epicoprostanol
Class: Natural Product; Sterol
Formula: C27H48O
Exact mass: 388.37052
SMILES: CC(C4)(C(CC(O)C4)3)C(C2)C(CC3)C(C1)C(C)(C2)C(C(C)CCCC(C)C)C1
InChI: InChI=1S/C27H48O/c1-18(2)7-6-8-19(3)23-11-12-24-22-10-9-20-17-21(28)13-15-26(20,4)25(22)14-16-27(23,24)5/h18-25,28H,6-17H2,1-5H3
Instrument: API2000, Applied
Instrument type: LC-APPI-QQ
Ms type: MS2
Ion mode: POSITIVE
Retention time: 0.820850 min
Base peak: 371.399994
Precursor m/z: 371.471000
Precursor type: [M-H2O+H]+
m/z	relative intensity
40.900002	1
41.099998	1
42.700001	1
55.000000	1
55.200001	1
55.900002	1
56.450001	1
57.057894	1
58.500000	1
66.400002	1
67.110715	2
67.800001	1
69.051111	3
69.800003	1
71.158333	2
71.800003	1
72.250000	1
72.800003	1
76.699999	1
78.099998	1
78.300003	1
79.099998	1
79.850002	1
81.025582	19
81.900002	1
82.099998	1
83.129140	11
83.800003	1
84.649998	1
85.073912	2
85.400002	1
86.049999	1
89.000000	1
90.800003	1
91.199997	1
91.400002	1
91.900002	1
93.184617	2
95.023442	50
97.093730	23
97.900002	1
98.400002	1
99.162498	1
100.900002	1
104.099998	1
104.880002	1
105.199997	1
105.400002	1
105.950001	1
106.844447	3
107.176743	3
109.090390	57
111.056374	26
111.900002	1
112.400002	1
112.983334	1
113.399999	1
113.699997	1
115.000000	1
116.500000	1
116.699997	1
117.000000	1
117.199997	1
118.900002	1
119.174997	1
119.500000	1
119.800003	1
121.048252	21
121.800003	1
123.034783	34
125.017778	13
126.400002	1
126.800003	1
127.149999	1
128.000000	1
128.399994	1
128.900001	1
129.300003	1
129.500000	1
129.949997	1
130.600006	1
130.800003	1
131.199997	1
132.300003	1
132.500000	1
132.750000	1
133.300003	1
134.172222	1
135.072348	39
137.080318	23
137.800003	1
138.000000	1
138.199997	1
139.029166	4
139.699997	1
141.399994	1
143.300003	1
143.899994	1
144.750000	1
145.100006	1
145.500000	1
146.150002	1
147.072732	2
148.000000	1
149.068664	54
151.084472	24
152.550003	1
152.800003	1
153.374996	1
153.600006	1
155.000000	1
155.399994	1
158.500000	1
158.699997	1
159.399994	1
160.100006	1
160.500000	1
160.899994	1
161.800003	1
162.000000	1
163.136538	46
163.833333	1
165.129032	23
166.100006	1
166.399994	1
167.100006	1
167.399994	1
167.600006	1
170.600006	1
171.000000	1
172.349998	1
172.600006	1
172.949997	1
173.300003	1
173.899994	1
174.199997	1
175.067087	6
175.899994	1
177.134872	29
178.199997	1
178.399994	1
179.146899	19
180.500000	1
181.100006	1
181.474998	1
183.349998	1
185.399994	1
186.849998	1
187.100006	1
187.699997	1
188.060001	1
189.171917	21
189.899994	1
191.143479	14
192.100006	1
193.209937	12
194.199997	1
194.899994	1
199.100006	1
199.899994	1
200.199997	1
201.000000	1
201.199997	1
201.550003	1
201.849998	1
203.157378	18
203.800003	1
204.259998	1
205.166315	14
205.899994	1
207.180342	34
207.899994	1
208.399994	1
208.750000	1
209.100006	1
209.300003	1
213.100006	1
214.100006	1
214.399994	1
214.600006	1
215.132146	2
216.228000	7
217.127043	23
219.200001	10
219.974998	1
220.250000	1
221.116406	9
221.899994	1
222.500000	1
223.199997	1
226.899994	1
227.100006	1
227.300003	1
227.500000	1
229.199997	1
230.075005	1
230.449997	1
231.128000	11
232.000000	1
233.178946	10
234.199997	1
235.246666	4
236.800003	1
237.199997	1
240.100006	1
240.300003	1
240.899999	1
241.199997	1
241.500000	1
243.100001	1
243.800003	1
244.100006	1
244.399994	1
245.258462	10
247.198425	19
248.199997	1
249.133999	4
250.000000	1
255.199997	1
256.899994	1
257.200012	1
257.500000	1
257.799988	1
258.366659	1
259.281699	11
260.050003	1
261.293268	22
262.200012	1
263.000000	1
263.500000	1
266.849991	1
269.100006	1
271.849991	1
272.299988	1
273.350003	4
274.600006	1
275.307825	17
276.424995	1
277.000000	1
277.349991	1
277.899994	1
278.200012	1
279.200012	1
280.000000	1
285.150009	1
285.849991	1
286.200012	1
286.399994	1
286.600006	1
287.399997	3
288.000000	1
288.449997	1
289.339191	11
290.899994	1
292.799988	1
293.000000	1
293.299988	1
296.100006	1
296.500000	1
297.600006	1
299.500000	1
299.899994	1
300.200012	1
300.600006	1
301.147498	3
302.100006	1
302.700012	1
303.200012	1
303.700012	1
310.700012	1
311.100006	1
312.399994	1
313.250000	1
313.500000	1
313.799988	1
314.175011	1
315.214491	5
316.000000	1
316.349991	1
316.799988	1
327.899994	1
328.100006	1
328.349991	1
328.750000	1
329.125008	1
329.424995	1
338.299988	1
338.700012	1
339.200012	1
339.399994	1
341.200012	1
341.500000	1
341.799988	1
342.200012	1
342.600006	1
343.200012	1
343.600006	1
343.799988	1
352.500000	1
352.924995	1
353.200012	1
353.500000	1
353.824989	1
354.399994	1
354.899994	1
355.100006	1
355.399994	1
355.700012	1
355.937496	1
356.500000	1
357.000000	1
368.100006	1
368.899994	1
369.100006	1
369.474998	1
369.799988	1
371.389587	999
372.600006	1
373.000000	1
373.399994	1
374.000000	1
