Mass spectrum: Testosterone; LC-APPI-QQ; MS2; CE:60 V; [M+H]+
Name: Testosterone
Class: Natural Product; Steroid hormone
Formula: C19H28O2
Exact mass: 288.20893
SMILES: O=C(C4)C=C(C3)C(C)(C4)C(C2)C(C3)C(C1)C(C)(C2)C(O)C1
InChI: InChI=1S/C19H28O2/c1-18-9-7-13(20)11-12(18)3-4-14-15-5-6-17(21)19(15,2)10-8-16(14)18/h11,14-17,21H,3-10H2,1-2H3/t14?,15?,16?,17-,18?,19?/m0/s1
Instrument: API2000
Instrument type: LC-APPI-QQ
Ms type: MS2
Ion mode: POSITIVE
Retention time: 0.820900 min
Base peak: 97.099998
Precursor m/z: 289.300000
Precursor type: [M+H]+
m/z	relative intensity
30.799999	1
31.100000	1
31.550000	1
37.700001	1
38.400002	1
39.063636	1
41.081565	24
43.085180	34
44.250000	1
44.700001	1
44.900002	1
45.500000	1
45.799999	1
46.000000	1
49.450001	1
49.900002	1
50.300000	1
50.799999	1
51.266667	1
51.599998	1
51.799999	1
53.074503	13
55.057677	75
57.050670	10
58.000000	1
58.200001	1
58.599998	1
58.799999	1
59.159999	1
59.500000	1
59.900002	1
60.700001	1
61.799999	1
62.000000	1
62.200001	1
62.800001	1
63.500000	1
63.799999	1
65.080001	14
67.098418	113
69.096445	96
71.038776	2
72.199997	1
72.699997	1
73.000000	1
73.500000	1
73.900002	1
74.199997	1
74.500000	1
75.174997	1
77.053510	105
79.037408	516
81.089390	394
83.071732	68
84.000000	1
84.337502	1
85.122499	1
85.800003	1
86.699997	1
87.199997	1
87.599998	1
88.099998	1
91.048245	200
93.086470	118
95.070944	96
97.082441	999
99.099999	1
100.500000	1
100.699997	1
101.400002	1
101.699997	1
103.088955	11
105.018080	124
107.046700	43
109.059718	741
111.083458	3
111.900002	1
113.539999	1
113.900002	1
114.099998	1
114.977653	8
117.063544	21
119.049733	40
121.045731	22
123.022192	77
124.599998	1
125.063635	1
126.262501	1
126.699997	1
128.085333	12
129.049215	16
130.086448	9
131.132702	18
132.300003	1
133.106149	10
133.911111	1
135.053704	2
136.025002	1
137.069999	1
137.399994	1
138.699997	1
139.000000	1
139.199997	1
139.639999	1
139.899994	1
141.099090	9
142.098102	10
143.095834	13
144.114778	4
145.072542	13
147.150575	4
148.045615	1
148.399994	1
149.113158	2
149.899994	1
151.061540	1
153.094928	3
154.061323	2
155.071948	8
157.147525	4
159.108912	4
160.268751	1
160.991175	1
162.000000	1
162.956247	1
163.389995	1
165.069565	1
165.943477	1
166.485713	1
167.144445	2
169.049123	5
170.165116	1
171.038557	2
171.899994	1
172.287498	1
173.139130	1
173.899994	1
174.416662	1
175.135715	1
175.945457	1
177.042860	1
178.000000	1
178.283335	1
179.184617	1
179.990001	1
181.000003	1
182.087879	1
183.161251	2
183.969998	1
185.108335	1
186.000000	1
186.349998	1
187.192857	1
189.088777	4
189.800003	1
190.338093	1
190.800003	1
191.399994	1
191.899994	1
192.100006	1
192.899994	1
193.449997	1
193.750000	1
194.100006	1
194.770001	1
195.164286	1
196.199997	1
197.113792	1
197.766668	1
198.200001	1
200.092307	2
201.055176	1
201.470832	1
201.996080	2
203.085484	1
204.133336	1
204.600006	1
205.000000	1
206.199997	1
206.849998	1
207.199997	1
207.800003	1
208.300003	1
208.600006	1
209.150002	1
209.399994	1
209.874996	1
210.300003	1
211.062504	1
212.000000	1
212.300003	1
212.500000	1
213.000000	1
214.000000	1
214.199997	1
214.500000	1
215.214999	1
215.716665	1
216.122221	1
216.500000	1
216.899998	1
217.299999	1
218.000000	1
218.800003	1
219.000000	1
219.300003	1
220.500000	1
220.899994	1
221.100006	1
221.449997	1
222.500000	1
223.387495	1
224.000000	1
224.300003	1
224.825001	1
226.133334	1
226.600006	1
227.266668	1
227.899994	1
228.199997	1
229.047619	1
229.500000	1
229.959998	1
230.399994	1
231.109758	1
232.050003	1
232.399994	1
232.800003	1
233.000000	1
233.300003	1
233.550003	1
234.300003	1
235.300003	1
236.300003	1
237.600006	1
237.899994	1
238.100006	1
238.300003	1
239.000000	1
239.199997	1
240.300003	1
241.239999	1
241.699997	1
241.899994	1
242.500000	1
243.266663	1
243.600006	1
243.899994	1
244.316668	1
245.107692	1
246.157142	1
248.300003	1
253.000000	1
253.199997	1
253.399994	1
253.699997	1
255.100006	1
255.349998	1
256.000000	1
256.299988	1
256.650009	1
257.100006	1
257.399994	1
258.100006	1
258.899994	1
259.125008	1
259.600006	1
259.949997	1
260.600006	1
260.899994	1
261.100006	1
261.399994	1
273.000000	1
273.500000	1
273.700012	1
274.000000	1
274.299988	1
274.500000	1
284.799988	1
286.600006	1
286.899994	1
287.200012	1
287.700012	1
294.600006	1
