Mass spectrum: 55m2PFOA; LC-ESI-QQ; MS2; CE10eV
Name: 55m2PFOA
Class: Non-Natural Product
Formula: C8HF15O2
Exact mass: 413.97370
SMILES: OC(=O)C(F)(F)C(F)(F)C(F)(F)C(C(F)(F)F)(C(F)(F)F)C(F)(F)F
InChI: InChI=1S/C8HF15O2/c9-2(10,1(24)25)4(11,12)5(13,14)3(6(15,16)17,7(18,19)20)8(21,22)23/h(H,24,25)
Instrument: Xevo TQ, Waters
Instrument type: LC-ESI-QQ
Ms type: MS2
Ion mode: NEGATIVE
Collision energy: 10eV
Retention time: 13.573216 min
Base peak: 412.936096
Precursor m/z: 413
Precursor type: [M-H]-
m/z	relative intensity
192.466924	235
218.678510	772
345.169203	119
412.962360	999
