Mass spectrum: 5-beta-Androstan-17-beta-ol-3-one; LC-APPI-QQ; MS2; CE:20 V; [M-H2O+H]+
Name: 5-beta-Androstan-17-beta-ol-3-one
Name: 5-beta-Dihydrotestosterone
Name: Etiocholane-17-beta-ol-3-one
Class: Natural Product; Steroid hormone
Formula: C19H30O2
Exact mass: 290.22458
SMILES: O=C(C4)CC([H])(C3)C(C)(C4)C(C2)C(C3)C(C1)C(C)(C2)C(O)C1
InChI: InChI=1S/C19H30O2/c1-18-9-7-13(20)11-12(18)3-4-14-15-5-6-17(21)19(15,2)10-8-16(14)18/h12,14-17,21H,3-11H2,1-2H3/t12-,14?,15?,16?,17+,18?,19?/m1/s1
Instrument: API2000
Instrument type: LC-APPI-QQ
Ms type: MS2
Ion mode: POSITIVE
Retention time: 0.820850 min
Base peak: 273.299988
Precursor m/z: 273.100000
Precursor type: [M-H2O+H]+
m/z	relative intensity
39.000000	1
42.700001	1
43.000000	1
43.200001	1
53.299999	1
54.900002	1
55.200001	1
55.799999	1
56.725000	1
57.275001	1
66.199997	1
67.056249	1
67.300003	1
67.599998	1
67.900002	1
68.450001	1
69.016666	1
69.900002	1
70.400002	1
70.800003	1
71.000000	1
76.900002	1
77.500000	1
78.000000	1
78.350002	1
79.133332	1
79.800003	1
80.300003	1
81.122857	10
82.099998	1
82.460001	1
82.900002	1
83.900002	1
84.099998	1
84.400002	1
85.099998	1
89.900002	1
90.945000	1
91.699997	1
92.000000	1
93.085228	13
95.072222	22
96.200001	1
97.139473	6
98.099998	1
98.350002	1
98.699997	1
98.900002	1
99.199997	1
99.500000	1
103.400002	1
103.599998	1
103.800003	1
104.199997	1
105.057746	11
106.000000	1
106.199997	1
107.061745	22
107.800003	1
108.300003	1
109.107500	21
109.900002	1
110.199997	1
111.025000	2
111.699997	1
112.750000	1
113.000000	1
115.699997	1
115.900002	1
116.300003	1
116.988889	1
118.099998	1
119.077869	9
121.159777	34
123.056871	20
124.599998	1
124.960001	1
125.300003	1
125.500000	1
127.199997	1
127.400002	1
127.699997	1
129.100006	1
129.600006	1
130.300003	1
131.101871	8
131.699997	1
132.125004	1
133.125232	24
134.073335	1
135.130284	32
136.000000	1
136.600006	1
137.216494	7
138.889995	1
139.233332	1
139.800003	1
140.899994	1
141.199997	1
141.800003	1
142.300003	1
142.600006	1
142.979999	1
143.249996	1
145.097942	44
147.165958	63
147.800003	1
148.199997	1
149.103659	12
149.800003	1
150.100006	1
151.096364	4
152.199997	1
153.100001	1
156.000000	1
156.800003	1
157.300003	1
159.147826	76
159.899994	1
161.130731	61
163.184079	15
163.800003	1
164.199997	1
164.500000	1
165.144448	1
166.100006	1
166.399994	1
167.000000	1
167.399994	1
168.650002	1
169.050003	1
169.349998	1
169.899994	1
170.199997	1
171.100001	3
171.600006	1
171.949997	1
173.203334	36
174.050003	1
174.374996	1
175.173913	10
177.250980	8
178.300003	1
178.600006	1
178.966665	1
179.363635	1
179.699997	1
180.100006	1
180.699997	1
180.899994	1
181.349998	1
182.200002	1
182.699997	1
182.899994	1
183.199997	1
184.287502	1
185.143557	24
187.289130	7
187.699997	1
188.100006	1
188.300003	1
189.192453	8
190.100006	1
190.457142	1
191.200001	5
192.000000	1
193.300003	1
193.500000	1
194.800003	1
195.199997	1
195.399994	1
195.899994	1
196.949997	1
197.199997	1
197.500000	1
198.199997	1
198.399994	1
199.194478	38
200.366662	1
201.202961	45
203.259648	9
203.899994	1
204.699997	1
205.199997	1
205.600006	1
207.199997	1
209.250000	1
210.199997	1
210.800003	1
211.025002	1
211.699997	1
212.100006	1
212.466665	1
213.232508	21
213.924995	1
215.183078	10
216.199997	1
216.399994	1
217.213047	3
221.600006	1
225.300003	1
226.242857	2
227.274789	9
227.899994	1
228.199997	1
228.399994	1
229.285715	5
230.300003	1
230.500000	1
230.699997	1
231.058337	1
237.299998	1
238.899994	1
239.937496	1
240.650002	1
241.250001	3
241.699997	1
242.250000	1
242.500000	1
242.800003	1
243.250000	1
243.550003	1
244.100006	1
244.500000	1
245.110345	9
248.550003	1
250.800003	1
251.300003	1
251.500000	1
252.000000	1
252.500000	1
253.118748	1
253.814285	1
255.318253	690
256.600006	1
256.849991	1
257.299988	1
258.000000	1
258.317136	3
259.500000	1
270.200012	1
270.799988	1
271.399994	1
273.327981	999
274.399994	1
274.949997	1
275.399994	1
346.000000	1
365.200012	1
