Mass spectrum: Oseltamivir; LC-APPI-QQ; MS2; CE20; [M+H]+
Name: Oseltamivir
Class: Non-Natural Product
Formula: C16H28N2O4
Exact mass: 312.20491
SMILES: CCOC(=O)C(C1)=CC(OC(CC)CC)C(NC(C)=O)C(N)1
InChI: InChI=1S/C16H28N2O4/c1-5-12(6-2)22-14-9-11(16(20)21-7-3)8-13(17)15(14)18-10(4)19/h9,12-15H,5-8,17H2,1-4H3,(H,18,19)/t13-,14+,15+/m0/s1
Instrument: API2000, Applied
Instrument type: LC-APPI-QQ
Ms type: MS2
Ion mode: POSITIVE
Collision energy: 20V
Retention time: 0.820850 min
Base peak: 166.000000
Precursor m/z: 313.3
Precursor type: [M+H]+
m/z	relative intensity
41.000000	1
41.299999	1
42.299999	1
42.599998	1
42.954546	1
43.299999	1
43.599998	1
44.250000	1
44.750000	1
45.099998	1
45.400002	1
46.299999	1
46.500000	1
56.200001	1
59.299999	1
59.700001	1
59.940001	1
60.299999	1
60.799999	1
64.599998	1
64.850002	1
65.199997	1
66.400002	1
66.699997	1
67.300002	1
67.800003	1
68.149998	1
69.000000	1
69.800003	1
70.199997	1
70.833335	1
71.300001	1
73.400002	1
73.599998	1
73.800003	1
77.000000	1
77.450001	1
78.099998	1
78.450001	1
78.900002	1
79.549999	1
79.800003	1
80.350002	1
81.699997	1
82.300000	1
83.000000	1
83.400002	1
83.699997	1
84.400002	1
85.000000	1
85.199997	1
86.074999	2
86.430770	2
87.094894	15
87.699997	1
88.000000	1
89.000000	1
90.850002	1
91.199997	1
91.800003	1
92.074999	2
94.075396	24
94.800003	1
95.025000	1
95.699997	1
96.400002	1
98.800003	1
99.500000	1
100.400002	1
100.900002	1
103.300003	1
103.900002	1
104.699997	1
105.033333	1
105.316669	1
106.012766	3
106.850001	1
107.300003	1
108.300003	1
109.169231	3
109.900002	1
110.300003	1
110.903450	2
111.500000	1
111.960001	1
112.300003	1
112.699997	1
117.000000	1
117.300003	1
117.500000	1
120.012833	104
121.266668	2
122.087730	10
123.119999	1
123.699997	1
124.549999	1
124.850002	1
125.199999	1
126.199997	1
127.199997	1
127.599998	1
127.900002	1
129.699997	1
130.000000	1
131.000000	1
132.000000	1
132.949997	1
133.800003	1
134.849995	1
136.094615	68
137.123027	49
138.011184	19
139.080851	15
140.090909	15
140.800003	1
142.199997	1
145.500000	1
146.090005	1
147.000000	1
147.199997	1
147.899994	1
148.399994	1
149.224998	1
149.500000	1
149.949997	1
151.075001	4
151.699997	1
152.125004	1
152.900002	1
153.883329	1
154.199997	1
154.399994	1
155.100006	1
155.858331	1
156.160001	1
156.800003	1
162.090318	45
164.298570	9
166.094078	999
167.899994	1
168.399994	1
168.899994	1
169.100006	1
169.300003	1
175.300003	1
175.899994	1
176.600006	1
177.100006	1
177.399994	1
179.121398	73
180.109665	34
181.000000	1
181.300003	1
181.800003	1
182.291665	2
183.223212	7
184.103923	6
189.399994	1
189.600006	1
189.862497	1
190.100006	1
190.500000	1
190.899994	1
192.800003	1
193.199997	1
195.199997	1
195.700002	1
196.125004	1
196.600006	1
197.000000	1
197.250000	1
198.100006	1
198.300003	1
204.000000	1
204.199997	1
204.600006	1
204.899994	1
205.199997	1
205.937496	1
208.131309	720
208.899994	1
209.399994	1
210.000000	1
210.199997	1
210.600006	1
215.199997	1
219.000000	1
219.300003	1
220.699997	1
221.050003	1
221.600006	1
221.849998	1
222.100006	1
222.500000	1
223.000000	1
224.000000	1
225.185104	648
226.155000	65
227.100006	1
227.699997	1
231.100006	1
234.800003	1
235.300003	1
235.899994	1
236.500000	1
239.399994	1
240.500000	1
241.600006	1
242.000000	1
243.236906	82
244.000000	1
244.600006	1
248.800003	1
250.100006	1
252.300003	1
253.250000	1
253.971427	1
254.388885	1
255.000000	1
264.000000	1
266.949997	1
267.500000	1
269.000000	1
271.000000	1
271.200012	1
272.500000	1
277.100006	1
280.500000	1
280.799988	1
281.233337	1
281.700012	1
283.799988	1
284.650009	1
292.899994	1
293.100006	1
293.799988	1
294.899994	1
295.100006	1
296.256765	38
297.200012	1
311.200012	1
311.750000	1
312.100006	1
313.312977	121
