Mass spectrum: 33FTA; LC-ESI-QQ; MS2; CE60; [M-H]-
Name: 33FTA
Name: 33Fluorotelomer Acid
Name: 4,4,5,5,6,6,6-Heptafluorohexanoic acid
Class: Non-Natural Product
Formula: C6H5F7O2
Exact mass: 242.01778
SMILES: OC(=O)CCC(F)(F)C(F)(F)C(F)(F)F
InChI: InChI=1S/C6H5F7O2/c7-4(8,2-1-3(14)15)5(9,10)6(11,12)13/h1-2H2,(H,14,15)
Instrument: Xevo TQ MS (Waters)
Instrument type: LC-ESI-QQ
Ms type: MS2
Ion mode: NEGATIVE
Collision energy: 60
Retention time: 0.016817
Base peak: 117.121872
Precursor m/z: 241
Precursor type: [M-H]-
m/z	relative intensity
63.001179	15
66.976295	318
69.077316	12
80.971985	42
104.909950	44
116.244987	34
116.965584	999
131.064163	45
132.902267	28
136.945084	18
