Mass spectrum: Epiandrosterone; LC-APPI-QQ; MS2; CE:50 V; [M-2H2O+H]+
Name: Epiandrosterone
Name: 3-beta-Hydroxy-5alpha-androstan-17-one
Class: Natural Product; Steroid hormone
Formula: C19H30O2
Exact mass: 290.22458
SMILES: OC(C4)CC([H])(C3)C(C)(C4)C(C2)C(C3)C(C1)C(C)(C2)C(=O)C1
InChI: InChI=1S/C19H30O2/c1-18-9-7-13(20)11-12(18)3-4-14-15-5-6-17(21)19(15,2)10-8-16(14)18/h12-16,20H,3-11H2,1-2H3/t12-,13-,14?,15?,16?,18?,19?/m0/s1
Instrument: API2000
Instrument type: LC-APPI-QQ
Ms type: MS2
Ion mode: POSITIVE
Retention time: 0.820850 min
Base peak: 91.000000
Precursor m/z: 255.300000
Precursor type: [M-2H2O+H]+
m/z	relative intensity
38.450001	1
39.062500	1
41.107675	29
41.925001	1
43.103603	14
44.799999	1
45.200001	1
49.850000	1
50.299999	1
50.500000	1
50.700001	1
50.957144	1
53.071053	15
55.082431	253
56.231250	1
57.102778	5
57.799999	1
58.500000	1
58.700001	1
59.000000	1
61.299999	1
61.900002	1
62.650000	1
63.099998	1
63.299999	1
63.500000	1
65.090625	33
67.118251	552
69.119021	90
70.500000	1
71.099998	1
71.400002	1
72.800003	1
73.350002	1
73.750000	1
74.025000	1
74.450001	1
74.933334	1
77.061537	245
79.044058	740
81.108288	755
83.123720	51
84.300003	1
84.599998	1
85.099998	1
85.400002	1
85.900002	1
86.250000	1
86.599998	1
86.900002	1
87.674997	1
88.099998	1
91.064259	999
93.107238	512
95.069862	304
96.199997	1
96.599998	1
96.800003	1
97.116666	2
97.525000	1
98.400002	1
99.199997	1
99.800003	1
100.000000	1
101.099998	1
101.300003	1
102.099998	1
103.086308	52
105.048155	984
107.059471	183
109.124206	48
110.099998	1
110.750000	1
111.199999	1
111.500000	1
111.900002	1
112.599998	1
112.800003	1
115.088156	85
117.092197	256
119.073647	264
121.112612	35
122.199997	1
123.079999	3
124.000000	1
124.199997	1
124.500000	1
124.850002	1
125.149998	1
125.525000	1
128.106498	137
129.082364	242
131.144247	308
133.133160	85
135.147143	18
135.800003	1
136.399994	1
136.600006	1
137.100006	1
137.699997	1
139.025925	2
139.537502	1
141.147369	48
142.109541	89
143.103865	224
145.113086	330
147.154881	59
147.800003	1
148.240002	1
149.174489	6
150.050003	1
150.300003	1
150.600006	1
151.100006	1
151.449997	1
153.006757	5
155.068114	43
157.150438	138
158.195990	22
159.137367	108
161.135257	41
162.199997	1
162.600006	1
162.800003	1
163.000000	1
163.299995	1
163.600006	1
163.800003	1
164.800003	1
165.221053	1
165.800003	1
166.266668	1
167.134042	6
169.133591	41
171.096333	97
173.186473	48
174.233332	1
174.600006	1
175.300003	1
176.100006	1
176.899994	1
177.100006	1
177.399994	1
177.849998	1
178.150002	1
178.399994	1
178.766663	1
179.250000	1
179.974998	1
180.300003	1
181.144001	3
182.284209	5
183.179847	25
185.176316	77
186.208696	7
187.158975	10
188.399994	1
189.244999	3
189.699997	1
190.699997	1
191.399994	1
192.825001	1
193.199997	1
193.399994	1
193.899994	1
194.100006	1
194.399994	1
194.699997	1
195.160715	2
196.409998	1
197.189928	18
198.188680	7
199.211125	50
200.127501	5
201.093105	4
202.000000	1
203.600006	1
206.300003	1
207.300003	1
208.100006	1
208.500000	1
208.699997	1
209.050003	1
209.300003	1
209.650002	1
209.899994	1
210.199997	1
211.190955	13
212.285002	1
213.272438	8
214.191664	1
214.558337	1
219.800003	1
220.000000	1
221.050003	1
221.899994	1
222.849998	1
223.399994	1
224.150002	1
224.449997	1
225.219643	14
226.130062	10
227.249999	4
236.199997	1
236.899994	1
237.699997	1
238.600006	1
239.277778	1
240.411106	1
252.300003	1
252.500000	1
252.800003	1
253.199997	1
254.100006	1
255.289473	7
257.100006	1
