Mass spectrum: Progesterone; LC-APPI-QQ; MS2; CE:30 V; [M+H]+
Name: Progesterone
Class: Natural Product; Steroid hormone
Formula: C21H30O2
Exact mass: 314.22458
SMILES: O=C(C4)C=C(C3)C(C)(C4)C(C2)C(C3)C(C1)C(C)(C2)C(C(C)=O)C1
InChI: InChI=1S/C21H30O2/c1-13(22)17-6-7-18-16-5-4-14-12-15(23)8-10-20(14,2)19(16)9-11-21(17,18)3/h12,16-19H,4-11H2,1-3H3
Instrument: API2000
Instrument type: LC-APPI-QQ
Ms type: MS2
Ion mode: POSITIVE
Retention time: 0.820850 min
Base peak: 109.099998
Precursor m/z: 315.400000
Precursor type: [M+H]+
m/z	relative intensity
39.000000	1
40.700001	1
41.000000	1
41.799999	1
43.069565	9
43.799999	1
44.500000	1
44.700001	1
45.099998	1
45.400002	1
52.299999	1
52.925001	1
53.500000	1
54.000000	1
54.299999	1
54.599998	1
55.009091	1
56.500000	1
56.700001	1
56.900002	1
57.099998	1
57.450001	1
59.200001	1
59.500000	1
62.400002	1
64.199997	1
65.099998	1
65.400002	1
66.199997	1
66.400002	1
67.055555	2
68.199997	1
69.127778	3
69.928573	1
70.199997	1
71.169443	2
71.800003	1
72.099998	1
73.049999	1
76.539999	1
76.875002	1
77.212903	1
77.649998	1
78.000000	1
79.010307	12
80.012500	1
81.091384	21
83.077479	31
85.080861	27
86.099998	1
87.199997	1
88.599998	1
89.000000	1
89.599998	1
89.850002	1
90.099998	1
91.021951	3
93.154838	10
95.105956	34
97.097714	999
99.126250	3
100.800003	1
101.149998	1
101.400002	1
102.900002	1
103.199997	1
103.900002	1
105.063351	12
105.699997	1
107.065578	26
109.075311	942
111.002679	4
111.674997	1
113.120689	2
113.950001	1
114.199997	1
114.400002	1
114.966667	1
115.599998	1
116.099998	1
117.034999	1
117.392859	1
117.800003	1
119.077922	20
119.868752	1
121.099226	42
123.053619	88
124.400002	1
125.000000	1
126.000000	1
126.300003	1
126.783335	1
127.271428	1
127.850002	1
128.100006	1
128.300003	1
128.500000	1
129.131427	2
131.149107	15
133.154445	23
135.137117	18
137.132542	19
137.916662	1
138.250000	1
139.072826	3
140.899994	1
141.199997	1
141.399994	1
142.100006	1
143.116216	7
145.125777	25
147.164563	27
149.101575	16
149.800003	1
150.199997	1
151.150001	4
151.899994	1
152.150002	1
152.949997	1
153.300001	1
153.800003	1
155.019696	2
157.152123	17
158.065002	1
159.128096	35
161.153909	20
163.163529	25
164.150002	1
164.399994	1
165.113558	4
166.699997	1
166.899994	1
167.112505	1
167.399994	1
167.800003	1
168.033335	1
168.300003	1
169.133333	2
169.899994	1
170.100006	1
171.088410	17
172.000000	1
173.173445	27
175.107505	17
176.233334	1
177.213542	25
178.200001	1
179.186003	2
180.300003	1
181.133332	1
183.189963	9
184.241666	1
185.147988	11
187.159564	19
189.194231	24
190.260001	1
191.136363	9
192.100006	1
193.071429	1
195.188001	3
196.227273	1
197.189333	10
198.070004	1
199.217943	12
201.144015	26
203.179619	5
204.050003	1
204.300003	1
205.201063	3
206.199997	1
206.399994	1
207.204085	2
208.100006	1
209.203884	7
210.071427	1
210.399994	1
211.229204	7
212.250000	1
213.222000	23
215.195173	34
216.500000	1
217.254348	3
218.000000	1
218.199997	1
219.259769	3
220.000000	1
220.399994	1
221.066666	1
221.399994	1
223.225419	12
225.202459	4
226.349998	1
227.230378	17
228.040002	1
228.300003	1
229.231641	11
230.300003	1
231.156520	6
232.050003	1
233.243501	6
234.100006	1
234.800003	1
235.300003	1
235.500000	1
236.000000	1
236.459998	1
237.277942	4
239.266735	32
241.251628	14
242.333333	1
242.699997	1
243.310001	1
243.849998	1
244.150002	1
245.296519	10
246.899994	1
247.300003	1
247.500000	1
247.699997	1
251.186440	4
252.025002	1
252.399999	1
253.274419	11
255.318153	41
257.320531	9
258.249992	1
259.349995	1
260.700012	1
261.700012	1
263.299988	1
264.306673	1
265.500000	1
265.700012	1
266.799988	1
267.399994	1
267.600006	1
268.200012	1
269.243662	5
270.150009	1
270.449997	1
271.334212	4
273.340655	13
274.100006	1
275.500000	1
276.500000	1
276.899994	1
277.299988	1
277.500000	1
277.949997	1
278.462498	1
279.325945	30
280.250000	1
282.100006	1
282.324989	1
283.269564	1
284.100006	1
284.299988	1
284.500000	1
284.700012	1
285.100006	1
285.500000	1
286.050003	1
286.299988	1
287.130771	1
287.728572	1
289.000000	1
293.299988	1
295.100006	1
295.299988	1
295.600006	1
297.286947	79
298.299988	1
298.949997	1
299.500000	1
299.700012	1
300.266663	1
300.600006	1
305.600006	1
308.700012	1
309.200012	1
311.899994	1
312.700012	1
312.899994	1
313.525002	1
313.899994	1
315.287930	257
316.299988	1
316.700002	1
317.000000	1
