Mass spectrum: Epicholestanol; LC-APPI-QQ; MS
Name: Epicholestanol
Class: Natural Product; Sterol
Formula: C27H48O
Exact mass: 388.37052
SMILES: C(C)(C1)(C(C(C)CCCC(C)C)4)C(CC4)C(C2)C(C(C)(C3)C([H])(CC(C3)O)C2)C1
InChI: InChI=1S/C27H48O/c1-18(2)7-6-8-19(3)23-11-12-24-22-10-9-20-17-21(28)13-15-26(20,4)25(22)14-16-27(23,24)5/h18-25,28H,6-17H2,1-5H3/t19?,20-,21+,22?,23?,24?,25?,26?,27?/m0/s1
Instrument: API2000
Instrument type: LC-APPI-QQ
Ms type: MS
Ion mode: POSITIVE
Retention time: 0.821067 min
Base peak: 371.600006
Ion type: [M-H2O+H]+
m/z	relative intensity
201.196014	56
203.171367	116
205.185759	77
207.204591	68
209.161599	30
211.160585	33
213.137693	30
215.206513	172
216.237156	42
217.237307	79
219.186289	60
221.179741	35
223.131413	26
224.178546	7
225.184664	19
227.166180	17
228.229905	6
229.180163	26
231.213249	74
233.228538	57
235.180839	24
237.145417	108
238.130408	28
239.167704	25
240.228618	6
241.261908	22
243.267079	47
245.248061	81
247.240987	63
249.175898	27
251.149753	15
253.176058	15
255.231880	60
257.267480	73
259.277187	58
261.265342	81
262.325589	27
265.153169	13
267.166283	11
269.190473	15
271.196403	30
273.294060	55
275.296300	54
279.183454	26
281.220455	12
283.177607	16
285.243732	21
287.300907	44
289.344546	31
291.258437	11
293.232623	7
294.280001	2
295.234057	8
297.247848	12
299.238804	16
301.355204	38
303.308278	12
305.339090	12
307.263342	12
309.242050	9
311.266373	9
313.305174	11
315.387422	46
316.400130	19
319.283641	6
321.298211	8
322.294286	3
323.240313	8
325.244397	9
327.291906	9
328.297969	4
329.345851	14
331.298751	9
333.259935	8
334.256086	2
335.263484	7
337.290272	8
339.258324	10
341.369388	10
343.349285	10
345.270753	7
347.278941	9
349.337135	9
351.308578	9
353.395608	12
355.490373	104
356.430895	32
359.340258	13
361.329521	16
363.348122	17
365.399756	25
367.420627	42
369.495906	149
371.533566	999
372.484810	327
375.353859	16
377.338696	12
379.405348	19
381.402870	22
383.451642	65
385.511102	112
386.497777	37
387.529192	38
388.494063	15
391.411078	12
393.351480	3
395.369632	4
397.391339	4
399.401023	15
401.510369	17
402.476807	6
403.516071	9
405.376255	4
407.402281	4
409.380382	3
411.402647	4
413.388319	3
415.413377	3
417.476238	3
418.403615	1
419.508582	2
421.418382	2
423.369966	2
425.385672	2
426.157510	1
427.392736	2
429.420312	2
431.393749	1
432.393328	1
433.447207	2
434.295787	1
435.487829	2
437.483961	1
439.453876	2
441.379166	1
442.375761	1
443.371194	1
445.322650	1
447.425432	1
448.282218	1
449.478801	1
450.433329	1
451.482715	1
452.581708	1
453.459723	1
455.445745	1
457.384049	1
459.377249	1
460.470001	1
461.486805	3
462.479435	2
463.454310	1
465.429483	1
466.521486	1
467.465275	1
468.522224	1
469.446970	1
470.899994	1
471.573440	1
472.493333	1
473.452685	1
475.529643	3
477.512244	4
479.570941	1
480.443899	1
481.492000	1
482.449997	1
483.515001	1
484.517022	1
485.500000	1
486.496154	1
487.449365	1
488.595244	1
489.534288	1
490.836839	1
491.514165	1
493.569430	5
494.637277	2
496.666667	1
497.481131	1
498.368748	1
498.899994	1
499.472726	1
