Mass spectrum: beta-Sitosterol; LC-APPI-QQ; MS2; CE:40 V; [M-H2O+H]+
Name: beta-Sitosterol
Class: Natural Product; Sterol
Formula: C29H50O
Exact mass: 414.38617
SMILES: C(C4)C(C(CC4O)=3)(C(C(CC3)2)CCC(C21)(C(CC1)C(C)CCC(C(C)C)CC)C)C
InChI: InChI=1S/C29H50O/c1-7-21(19(2)3)9-8-20(4)25-12-13-26-24-11-10-22-18-23(30)14-16-28(22,5)27(24)15-17-29(25,26)6/h10,19-21,23-27,30H,7-9,11-18H2,1-6H3/t20?,21?,23-,24?,25?,26?,27?,28?,29?/m0/s1
Instrument: API2000
Instrument type: LC-APPI-QQ
Ms type: MS2
Ion mode: POSITIVE
Retention time: 0.820867 min
Base peak: 81.099998
Precursor m/z: 397.600000
Precursor type: [M-H2O+H]+
m/z	relative intensity
40.900002	6
41.099998	6
42.700001	18
43.500000	12
44.900002	6
54.699999	36
55.299999	12
55.549999	12
55.799999	6
56.000000	6
56.200001	6
57.200000	102
57.500000	30
65.300003	6
66.400002	12
66.800003	42
67.300000	60
67.699997	6
67.900002	12
68.099998	18
68.599998	60
69.105555	217
69.900002	6
70.224998	24
71.136363	132
72.199997	6
72.800003	6
73.199997	12
73.599998	6
77.900002	6
78.199997	6
78.500000	12
79.000000	18
79.300003	18
79.500000	6
79.699997	6
79.950001	12
81.101887	638
82.000000	12
82.400002	12
83.400002	90
84.875002	96
85.300003	90
90.049999	12
90.500000	6
91.174999	48
92.099998	12
92.300003	6
92.500000	30
92.872224	108
93.171426	84
93.400002	72
93.750000	12
95.074193	746
97.263159	114
99.000000	12
99.300003	12
103.199997	6
104.149998	24
104.500000	30
105.000000	259
105.800003	18
106.000000	30
106.199997	18
107.203508	343
107.599998	30
108.099998	42
109.098612	867
109.900002	6
110.149998	12
110.500000	6
110.900002	66
111.215384	156
111.599998	6
111.900002	6
112.099998	6
113.099998	6
113.400002	6
116.800003	12
117.400002	6
117.599998	6
117.800003	6
118.300003	18
118.973333	361
119.599998	30
119.800003	36
120.099998	18
121.112500	289
121.699997	6
122.099998	12
122.946666	361
124.099998	6
124.400002	6
124.699997	12
124.900002	30
125.149998	12
125.400002	6
127.800003	6
128.100006	6
128.800003	12
129.699997	12
130.500000	6
131.100006	18
131.399994	36
131.600006	6
131.849998	24
132.199997	24
133.157350	409
133.800003	24
134.116671	36
135.085542	999
135.699997	6
136.000000	18
136.199997	18
136.600006	6
136.886667	90
137.399998	84
137.699997	6
139.300003	12
142.699997	6
142.899994	6
143.300003	6
143.699997	6
144.000000	6
144.600006	36
144.992591	162
145.874996	24
146.266668	72
147.114152	638
147.899994	6
148.444443	54
149.078130	193
149.399994	96
150.699997	18
150.899994	24
151.199997	24
151.550003	12
153.050003	12
156.699997	12
156.899994	12
157.199997	6
157.399994	6
158.050003	24
158.300003	6
159.064290	84
159.399994	36
161.028031	794
161.699997	24
162.000000	6
163.084376	193
164.800003	6
165.100006	6
171.100006	12
171.349998	12
171.750000	12
172.100006	6
172.575005	24
173.000000	12
173.199997	36
175.051667	361
176.000000	6
176.600006	6
176.974998	24
177.300003	36
179.500000	6
179.899994	12
181.199997	6
181.800003	18
183.600006	6
184.000000	6
184.800003	6
185.000000	6
185.500000	18
185.800003	12
186.000000	6
186.300003	6
186.600006	6
187.262501	48
188.199997	12
189.363638	66
191.199997	6
191.399994	12
192.199997	6
193.399994	6
194.300003	6
197.399994	6
198.899994	12
199.399994	12
200.299998	18
201.200004	90
201.500000	30
201.699997	18
202.600006	12
203.174999	193
205.199997	12
207.000000	12
207.300003	12
211.300003	6
212.000000	6
212.849998	12
213.199997	18
213.800003	12
214.000000	6
214.500000	12
214.899994	54
215.849998	12
216.150002	12
216.800003	12
217.183332	36
217.500000	12
218.600006	6
218.800003	6
219.000000	12
219.300003	6
220.699997	6
221.100006	12
221.399994	12
221.600006	6
222.800003	12
223.000000	6
225.500000	6
227.100006	6
227.300003	6
228.100006	6
228.800003	36
230.650002	12
231.100006	18
232.849998	12
233.199997	18
233.650002	12
234.899994	6
235.100006	6
235.300003	6
239.600006	6
240.899994	6
241.199997	6
241.899994	12
242.949997	24
243.253845	78
243.699997	24
244.300003	6
245.000000	12
245.500000	18
247.399994	12
249.399994	6
253.100006	12
254.199997	12
255.399994	6
255.699997	12
255.899994	12
256.100006	12
256.399994	36
257.200012	42
257.550003	48
258.100006	18
258.399994	12
258.799988	12
259.000000	6
259.399994	6
261.100006	6
261.500000	24
262.799988	6
263.200012	6
265.299988	6
265.700012	6
266.200012	6
269.000000	12
269.399994	6
269.899994	6
270.799988	6
271.100006	6
271.399994	6
271.600006	12
273.000000	12
273.300003	24
273.600006	6
273.899994	6
275.100006	36
275.449997	12
275.750000	12
277.100006	6
279.600006	6
281.299988	6
283.200012	18
283.500000	6
284.349991	12
285.000000	6
285.299998	18
285.750000	12
286.150009	12
286.500000	6
287.600006	30
292.700012	6
293.500000	6
294.200012	12
294.600006	6
296.299988	12
297.200012	6
298.000000	6
298.500000	18
298.899994	6
299.100006	12
299.299988	12
299.600006	24
300.200012	6
300.500000	6
301.100001	36
303.100006	6
305.600006	6
308.100006	6
310.200012	6
313.200012	12
313.399994	6
314.399994	6
314.899994	6
315.100006	6
315.299988	24
315.799988	18
325.000000	6
327.700012	12
336.799988	6
337.600006	12
338.100006	6
339.100006	6
339.299988	12
339.600006	6
340.700012	6
341.100006	6
341.399994	18
342.000000	12
353.200012	6
354.100006	12
355.299988	6
379.399994	6
379.700012	12
380.100006	12
381.799988	6
382.500000	12
397.500003	361
398.600006	6
401.200012	6
