Mass spectrum: 44m2PFOA; LC-ESI-QQ; MS2; CE30eV
Name: 44m2PFOA
Class: Non-Natural Product
Formula: C8HF15O2
Exact mass: 413.97370
SMILES: OC(=O)C(F)(F)C(F)(F)C(C(F)(F)F)(C(F)(F)F)C(F)(F)C(F)(F)F
InChI: InChI=1S/C8HF15O2/c9-2(10,1(24)25)4(11,12)3(6(15,16)17,7(18,19)20)5(13,14)8(21,22)23/h(H,24,25)
Instrument: Xevo TQ, Waters
Instrument type: LC-ESI-QQ
Ms type: MS2
Ion mode: NEGATIVE
Collision energy: 30eV
Retention time: 13.090584 min
Base peak: 268.999908
Precursor m/z: 413
Precursor type: [M-H]-
m/z	relative intensity
68.762587	283
118.884051	558
168.722838	711
218.868759	164
269.016323	999
