Mass spectrum: isoPFOA; LC-ESI-QQ; MS2; CE10eV
Name: isoPFOA
Class: Non-Natural Product
Formula: C8HF15O2
Exact mass: 413.97370
SMILES: OC(=O)C(F)(F)C(F)(F)C(F)(F)C(F)(F)C(F)(C(F)(F)F)C(F)(F)F
InChI: InChI=1S/C8HF15O2/c9-2(10,1(24)25)4(12,13)6(16,17)5(14,15)3(11,7(18,19)20)8(21,22)23/h(H,24,25)
Instrument: Xevo TQ, Waters
Instrument type: LC-ESI-QQ
Ms type: MS2
Ion mode: NEGATIVE
Collision energy: 10eV
Retention time: 16.951433 min
Base peak: 368.823975
Precursor m/z: 413
Precursor type: [M-H]-
m/z	relative intensity
85.264710	40
168.998259	971
219.036203	324
267.320987	32
368.932701	999
394.576329	74
412.786205	609
