Mass spectrum: Coprostanone; LC-APPI-QQ; MS2; CE:50 V; [M-H2O+H]+
Name: Coprostanone
Class: Natural Product; Sterol
Formula: C27H46O
Exact mass: 386.35487
SMILES: C(C)(C1)(C(C(C)CCCC(C)C)4)C(CC4)C(C2)C(C(C)(C3)C([H])(CC(C3)=O)C2)C1
InChI: InChI=1S/C27H46O/c1-18(2)7-6-8-19(3)23-11-12-24-22-10-9-20-17-21(28)13-15-26(20,4)25(22)14-16-27(23,24)5/h18-20,22-25H,6-17H2,1-5H3/t19?,20-,22?,23?,24?,25?,26?,27?/m1/s1
Instrument: API2000, Applied
Instrument type: LC-APPI-QQ
Ms type: MS2
Ion mode: POSITIVE
Retention time: 0.820867 min
Base peak: 94.800003
Precursor m/z: 369.431000
Precursor type: [M-H2O+H]+
m/z	relative intensity
37.850000	1
38.971429	1
39.500000	1
39.700001	1
40.400002	1
41.238889	9
41.700001	1
43.072844	68
43.900002	1
49.900002	1
50.966666	1
52.299999	1
53.200001	1
55.054023	239
57.110784	327
58.350000	1
58.650000	1
59.900002	1
61.099998	1
61.350000	1
63.350000	1
63.700001	1
64.000000	1
64.250000	1
65.175000	6
67.108142	500
69.088333	709
71.115229	235
72.599998	1
74.900002	1
75.800003	1
77.051724	22
79.009306	290
81.089820	999
83.097091	283
85.083505	36
85.699997	1
87.300003	1
88.599998	1
89.400002	1
91.039704	237
93.076623	522
95.058173	884
96.000000	2
97.108043	93
98.400002	1
98.599998	1
98.900002	1
99.099998	1
99.599998	1
101.699997	1
101.900002	1
102.199997	1
102.980488	5
105.042710	509
107.036466	546
109.091665	606
110.500000	2
111.155171	14
113.099998	1
113.300003	1
113.850002	1
114.400002	1
114.800003	1
115.119998	2
116.185711	2
117.088986	43
119.064957	360
121.108344	299
123.070000	119
123.900002	1
124.099998	1
124.400002	1
124.987500	1
125.242856	1
125.599998	1
125.800003	1
126.900002	1
127.599998	1
128.085714	2
129.183332	3
131.155000	77
133.120550	304
135.107738	313
137.155000	22
138.250000	1
138.600006	1
138.800003	1
139.000000	1
139.199997	1
141.160004	1
142.066671	1
142.300003	1
142.500000	1
142.699997	1
143.056667	7
145.082884	158
147.134659	396
149.132630	154
150.250000	1
151.119051	5
153.500000	1
154.000000	1
154.650002	1
155.199997	1
155.399994	1
155.699997	1
155.899994	1
157.115790	5
158.124003	3
159.109889	101
161.134446	236
163.174584	30
164.699997	1
165.203843	3
167.199997	1
167.399994	1
167.699997	1
168.349998	1
168.766668	1
169.100006	1
169.399994	1
169.849998	1
170.150002	1
171.030437	6
173.156940	70
174.088234	2
175.102431	72
177.264407	7
178.500000	1
179.324999	2
179.600006	1
180.899994	1
181.100006	1
181.800003	1
182.100006	1
182.300003	1
182.500000	1
182.899994	1
183.300003	1
184.000000	1
184.300003	1
185.191667	12
187.174428	60
188.033333	1
189.266891	37
190.000000	1
190.199997	1
191.272917	6
191.949997	1
192.300003	1
193.037502	2
193.300003	1
194.750000	1
195.000000	1
195.300003	1
195.699997	1
196.800003	1
197.299998	1
197.750000	1
198.199997	1
198.500000	1
199.226530	12
201.177680	57
202.259998	1
203.188889	13
205.053334	4
205.399994	1
206.800003	1
207.100006	1
207.399994	1
210.300003	1
210.849998	1
211.100006	1
211.800003	1
212.100006	1
213.231249	2
215.190607	45
215.800003	1
216.449997	1
217.178263	6
217.800003	1
218.300003	1
218.825001	1
219.258333	3
220.699997	1
221.199997	1
221.600006	1
222.800003	1
223.500000	1
225.000000	1
225.600006	1
225.800003	1
226.000000	1
227.100006	1
227.300003	1
227.933334	1
229.216669	11
230.000000	1
230.300003	1
230.500000	1
231.300003	1
232.100006	1
233.200001	3
235.550003	1
238.399994	1
238.949997	1
239.300003	1
239.500000	1
240.050003	1
240.399994	1
241.075005	1
241.399998	1
242.250000	1
243.254546	5
244.100006	1
244.300003	1
245.307691	3
247.174999	1
247.442854	1
250.199997	1
251.150002	1
252.199997	1
252.600006	1
253.199997	1
254.100006	1
254.899994	1
255.100006	1
255.500000	1
255.899994	1
256.328565	1
256.700012	1
257.291998	6
258.200012	1
259.180952	5
259.500000	2
261.266668	1
263.500000	1
264.799988	1
265.000000	1
265.200012	1
266.000000	1
267.100006	1
269.100006	1
269.600006	1
269.799988	1
270.200012	1
271.025002	1
271.799988	1
272.100006	1
273.100006	2
274.600006	1
275.100006	1
275.399994	1
275.899994	1
277.399994	1
277.799988	1
281.500000	1
282.250000	1
283.050003	1
283.349991	1
284.150009	1
284.500000	1
284.899994	1
285.299988	1
285.600006	1
286.700012	1
287.299988	1
287.550003	1
289.100006	1
294.200012	1
296.849991	1
297.500000	1
297.700012	1
297.899994	1
298.200012	1
299.125008	1
299.500000	1
300.100006	1
300.799988	1
301.250000	1
301.550003	1
301.799988	1
307.500000	1
308.600006	1
309.399994	1
311.050003	1
311.299988	1
311.600006	1
312.500000	1
313.300001	2
314.200012	1
315.500000	1
321.500000	1
324.299988	1
325.050003	1
325.299988	1
325.550003	1
325.949997	1
326.500000	1
327.100006	1
327.899994	1
339.000000	1
340.100006	1
340.500000	1
341.000000	1
341.799988	1
349.799988	1
351.200012	1
354.000000	1
354.299988	1
354.500000	1
354.700012	1
369.414283	3
379.700012	1
