Mass spectrum: Epiandrosterone; LC-APPI-QQ; MS2; CE:50 V; [M-H2O+H]+
Name: Epiandrosterone
Name: 3-beta-Hydroxy-5alpha-androstan-17-one
Class: Natural Product; Steroid hormone
Formula: C19H30O2
Exact mass: 290.22458
SMILES: OC(C4)CC([H])(C3)C(C)(C4)C(C2)C(C3)C(C1)C(C)(C2)C(=O)C1
InChI: InChI=1S/C19H30O2/c1-18-9-7-13(20)11-12(18)3-4-14-15-5-6-17(21)19(15,2)10-8-16(14)18/h12-16,20H,3-11H2,1-2H3/t12-,13-,14?,15?,16?,18?,19?/m0/s1
Instrument: API2000
Instrument type: LC-APPI-QQ
Ms type: MS2
Ion mode: POSITIVE
Retention time: 0.820833 min
Base peak: 105.000000
Precursor m/z: 273.300000
Precursor type: [M-H2O+H]+
m/z	relative intensity
37.599998	1
38.799999	1
39.200001	1
39.500000	1
39.900002	1
41.070213	15
41.599998	1
41.900000	1
42.200001	2
43.087951	26
44.799999	1
50.549999	1
50.799999	1
51.400002	1
52.299999	1
53.130000	12
55.066497	181
56.299999	1
57.107143	9
57.400002	2
57.799999	1
58.299999	1
58.900002	1
59.099998	1
59.500000	1
62.250000	1
62.750000	1
63.650000	1
64.500000	1
65.066667	19
65.800003	3
67.135253	354
69.066372	70
70.099998	1
71.052380	6
72.599998	1
72.800003	1
73.099998	1
73.500000	1
75.099998	1
75.350002	1
75.699997	3
77.057016	277
79.057810	806
81.108681	569
82.000000	1
83.096179	48
83.900002	1
84.099998	1
84.900002	2
85.099998	2
85.300003	2
86.400002	1
87.199997	1
87.699997	1
88.500000	2
89.000000	2
91.071835	999
93.103861	639
95.070024	263
95.900002	1
96.731249	5
97.192728	17
98.300003	1
98.599998	1
98.800003	1
99.099998	1
99.350002	1
99.900002	1
100.500000	1
101.350002	1
101.599998	1
101.800003	1
103.096078	31
105.064279	935
107.060782	292
108.300001	5
109.039999	32
110.840001	2
111.099998	3
111.500000	1
111.750000	1
113.350000	1
115.047297	46
117.097419	143
119.088249	515
120.000000	2
120.264287	4
121.122885	62
122.000000	2
122.199997	1
122.500000	1
123.072000	15
125.000000	3
125.400002	1
125.699997	1
125.900002	1
126.199997	1
127.147058	16
128.133333	85
129.087428	160
131.151591	233
133.180597	124
133.800003	1
134.184620	4
134.600006	5
135.105387	40
136.733332	2
137.000000	1
137.199997	1
138.000000	1
138.500000	1
138.800003	1
139.399994	1
141.202666	23
143.097993	169
145.160312	178
147.179053	137
149.000000	6
150.899994	1
151.199997	2
152.133336	2
152.699997	1
153.337500	2
153.800003	2
154.199997	2
155.127588	18
156.300001	16
157.129704	125
158.128127	20
159.124346	118
161.151811	85
162.100006	1
163.099997	3
163.416662	2
163.899994	1
164.399994	1
164.600006	1
165.099998	2
165.800003	1
166.349998	1
166.949997	4
167.399994	1
167.600006	1
168.125002	5
169.098319	37
171.225881	52
172.100006	4
173.198369	57
174.299998	1
175.033334	3
175.525002	1
176.000000	1
176.300003	1
176.800003	1
177.000000	1
177.199997	1
177.500000	1
177.699997	1
178.349998	2
178.800003	1
179.399994	1
180.300003	1
180.600006	1
180.800003	1
181.200001	2
181.600006	1
181.849998	1
182.100006	1
182.325001	1
183.130559	11
183.424995	6
184.308695	14
185.147622	39
185.974998	2
186.233332	4
187.123685	12
187.800003	1
188.000000	1
188.199997	2
189.228571	11
189.950001	1
190.600006	1
190.949997	1
191.300003	1
192.000000	1
193.399994	1
194.699997	1
194.899994	1
195.199997	1
195.600006	1
195.800003	1
196.300003	1
197.217391	7
198.052173	7
199.197590	51
200.187502	5
201.075005	5
201.537502	2
202.116667	33
202.800003	1
203.449997	1
203.800003	1
204.899994	1
205.349998	1
206.899994	1
208.500000	1
210.000000	1
210.399994	1
211.214287	9
211.600006	1
211.899994	1
212.220001	3
213.100006	6
214.100006	2
214.424995	1
215.050001	10
216.100000	3
216.600006	1
217.000000	1
217.300003	2
218.100006	1
218.800003	1
225.184003	8
226.250001	10
226.699997	1
226.899994	1
227.250000	4
228.055557	3
228.674999	1
229.075005	2
229.300003	2
229.899994	1
230.600006	1
231.000000	1
231.300003	1
232.199997	1
232.399994	1
232.899994	1
237.199997	1
238.300003	1
239.033333	2
239.899994	1
240.199997	2
240.500000	1
240.699997	1
241.300003	1
241.650002	1
242.150002	1
242.399994	1
242.600006	1
243.000000	1
243.300003	1
243.899994	1
244.100006	1
244.599998	1
244.899994	1
245.399994	2
253.100000	2
253.500000	1
254.100006	1
255.331250	5
255.600006	2
256.000000	1
257.050003	1
257.349991	1
257.600006	1
258.100006	2
258.600006	1
271.000000	1
271.200012	1
271.500000	1
272.100006	1
272.600006	1
273.349998	2
