Mass spectrum: 24-Ethylcoprostanol; LC-APPI-QQ; MS
Name: 24-Ethylcoprostanol
Class: Natural Product; Sterol
Formula: C29H52O
Exact mass: 416.40182
SMILES: C(C34[H])(CCC(O)C4)(C([H])(C([H])2CC3)CCC(C([H])12)(C)C(CC1)([H])C(CCC(C(C)C)CC)C)C
InChI: InChI=1S/C29H52O/c1-7-21(19(2)3)9-8-20(4)25-12-13-26-24-11-10-22-18-23(30)14-16-28(22,5)27(24)15-17-29(25,26)6/h19-27,30H,7-18H2,1-6H3/t20-,21+,22-,23+,24+,25-,26+,27+,28+,29-/m1/s1
Instrument: API2000
Instrument type: LC-APPI-QQ
Ms type: MS
Ion mode: POSITIVE
Retention time: 0.821067 min
Base peak: 399.399994
Ion type: [M-H2O+H]+
m/z	relative intensity
201.168305	39
203.166505	122
205.181102	61
207.187252	25
209.176674	19
211.157966	23
213.138698	23
214.191630	11
215.194269	84
216.230753	16
217.222727	63
219.180846	39
221.202333	26
223.144638	15
224.187932	6
225.204130	20
227.187518	19
228.205128	9
229.203196	25
231.233367	59
233.240187	25
235.227630	41
237.153560	35
238.131555	10
239.183306	13
240.218692	5
241.281190	29
243.264696	46
245.262245	59
247.232464	25
249.246978	26
251.175233	14
252.165202	5
253.216873	19
255.198165	32
257.295693	74
259.282648	48
261.240899	25
263.218127	18
265.183325	10
267.197330	15
269.220891	15
271.232464	27
273.306891	51
275.308252	29
277.249028	15
279.188540	34
281.245616	9
283.237893	15
285.289032	28
287.328416	73
289.387776	35
290.382071	11
291.235731	9
293.214150	6
295.270967	10
297.319771	11
299.282946	34
301.412259	65
303.435572	24
304.440293	7
307.305621	5
309.282451	7
311.355561	10
313.371840	21
315.373836	60
316.375611	17
317.360520	15
319.289448	5
321.306295	5
322.319591	2
323.322009	5
325.331826	5
327.326609	13
329.371666	25
330.361078	8
331.307233	7
333.251036	4
335.316934	4
337.328419	7
339.333732	7
340.372190	2
341.386086	7
343.426953	20
344.440428	6
345.346202	5
347.332258	4
349.354563	5
350.308589	2
351.334457	6
353.420548	11
355.415258	8
357.425682	13
359.396155	9
361.318925	5
363.293007	5
365.362477	6
367.401388	10
369.476349	24
371.445116	11
373.392280	6
375.373087	5
377.351443	5
379.409311	5
381.427810	10
383.477617	69
385.514077	23
386.520743	7
387.459371	9
389.444856	8
391.442662	23
393.446246	15
395.428858	36
397.464548	199
399.487885	999
400.538140	288
403.463034	10
405.457697	9
407.479801	17
409.460756	23
411.436649	60
413.472130	74
414.491415	28
415.535741	28
416.569015	10
417.509312	5
419.508309	4
421.449001	9
423.525692	4
425.468024	7
427.470088	12
429.494262	18
430.539937	7
431.523784	6
433.509375	3
434.530823	1
435.538111	2
437.457625	7
439.522249	5
441.476114	4
443.431332	5
445.468173	4
447.479902	2
449.559998	2
451.561114	2
452.489473	1
453.576117	2
454.522379	1
455.506631	2
456.539882	1
457.455170	2
459.423648	2
460.528986	1
461.449198	1
462.565217	1
463.435906	1
465.573512	2
467.535667	3
469.583790	14
470.558263	5
473.515278	2
475.483978	1
477.503184	1
479.591817	2
480.584699	1
481.590999	2
483.533929	1
484.521054	1
485.547563	1
486.548424	1
487.554508	1
488.603509	1
489.583400	1
490.538777	1
491.532455	1
493.557316	2
495.590947	3
496.648572	1
497.603885	1
498.579247	1
499.572249	1
