Mass spectrum: Ergosterol; LC-APPI-QQ; MS2; CE:40 V; [M-H2O+H]+
Name: Ergosterol
Class: Natural Product; Sterol
Formula: C28H44O
Exact mass: 396.33922
SMILES: C(C(C=CC(C)C(C4)C(C3C4)(C)CCC(C=13)C(C2)(C(CC(C2)O)=CC1)C)C)(C)C
InChI: InChI=1S/C28H44O/c1-18(2)19(3)7-8-20(4)24-11-12-25-23-10-9-21-17-22(29)13-15-27(21,5)26(23)14-16-28(24,25)6/h7-10,18-20,22,24-26,29H,11-17H2,1-6H3/b8-7+/t19?,20?,22-,24?,25?,26?,27?,28?/m0/s1
Instrument: API2000
Instrument type: LC-APPI-QQ
Ms type: MS2
Ion mode: POSITIVE
Retention time: 0.820850 min
Base peak: 69.000000
Precursor m/z: 379.400000
m/z	relative intensity
38.799999	1
39.299999	1
40.783333	2
41.133333	3
41.599998	1
41.900002	1
42.200001	1
43.197143	18
44.299999	1
52.299999	1
52.799999	1
53.299999	1
53.549999	1
53.939999	3
55.054587	56
57.118442	196
58.099998	1
64.199997	1
64.800003	1
65.099998	1
65.900002	1
67.129252	75
69.111824	999
71.126316	97
72.099998	1
72.350002	1
75.900002	1
76.400002	1
77.015384	3
77.599998	1
77.800003	1
78.350002	4
78.998625	56
81.124773	308
83.119019	343
84.450001	5
85.047142	36
85.900002	1
87.199997	1
87.500000	1
87.800003	1
88.500000	1
89.500000	1
91.063596	58
93.120373	205
95.054493	394
97.147385	78
98.450001	1
98.800003	1
99.000000	1
99.300003	1
99.500000	1
101.850002	1
102.099998	1
103.217392	6
105.075103	186
106.099998	3
107.079885	266
108.031250	4
109.120196	260
111.013592	26
112.000000	1
112.950001	1
113.699997	1
113.900002	1
114.350002	1
114.599998	1
114.975000	1
115.466667	2
115.983334	2
117.086956	59
119.077273	157
121.140236	172
121.800003	2
123.081012	121
124.049999	1
124.400002	2
125.288890	9
125.900002	1
126.400002	1
126.850002	1
127.199997	1
128.078572	7
129.129814	41
131.133515	141
133.160001	167
133.887495	2
135.146957	117
135.899994	1
136.100006	1
136.600006	1
137.184820	29
138.000000	1
138.500000	1
139.000000	1
139.399994	1
139.600006	1
140.000000	1
140.399994	1
141.175759	17
143.106564	132
145.123244	421
147.158476	237
147.874996	1
149.164451	88
150.300003	1
150.699997	1
151.199997	5
152.699997	1
153.100006	1
153.399994	1
153.800003	1
155.024243	34
155.899994	3
157.156693	194
159.151220	355
161.159028	147
163.160577	53
164.199997	1
164.800003	2
165.300003	4
165.600006	1
165.899994	1
166.399994	1
166.899994	1
167.100006	1
167.316668	2
167.800003	1
168.280002	3
169.155964	56
169.891661	3
171.104711	141
173.224001	140
174.000000	1
175.182639	73
175.899994	1
177.181967	31
178.300003	1
178.762501	2
179.307998	6
180.399994	1
180.971429	4
182.199997	2
183.175363	70
185.190740	275
186.199997	3
187.176201	133
188.100006	1
189.299997	36
190.000000	1
190.300003	1
191.281817	11
191.899994	1
192.100006	1
193.100006	1
193.300003	2
194.300003	1
194.625004	1
195.270372	7
196.036362	6
196.478570	4
197.204838	95
199.202547	220
200.272729	6
201.181428	178
202.199997	1
203.237374	25
204.000000	1
204.199997	1
205.251516	8
205.899994	1
206.500000	1
206.800003	1
207.500000	1
208.150002	1
208.399994	1
209.155001	5
209.407137	4
210.128573	7
211.183659	143
212.505558	9
213.245025	205
215.196795	111
216.550003	1
217.325972	20
219.209998	3
219.500000	1
220.000000	1
220.399994	1
220.600006	1
220.949997	1
221.199997	1
221.399994	1
222.000000	1
222.399999	1
223.182455	15
223.866664	5
225.260144	177
226.163637	6
227.272638	102
228.399994	2
229.248205	50
230.100006	1
230.300003	1
230.500000	1
231.211112	14
232.000000	1
233.187502	4
233.500000	1
233.800003	1
234.899994	1
235.349998	1
235.899994	1
236.100006	1
236.349998	1
237.218919	19
238.399994	5
239.248267	191
240.289132	12
241.285076	68
242.174999	1
242.474998	1
243.319300	29
244.033335	2
245.282857	9
247.000000	1
247.300000	1
248.000000	1
248.699997	1
249.699997	1
250.399994	1
252.220350	73
253.299230	198
254.260526	19
255.238298	48
256.500000	1
257.362790	22
258.500000	1
259.075005	1
259.309988	3
260.200012	1
260.500000	1
261.100006	1
261.650009	1
262.500000	1
264.100006	1
264.349991	1
264.700012	1
265.322716	6
266.133341	8
266.399994	3
267.247241	74
268.200012	2
268.416662	2
269.298950	49
270.449997	3
271.326025	37
272.100006	1
273.100006	1
273.439996	1
273.700012	1
275.000000	1
277.050003	1
277.349991	1
277.899994	1
278.100006	1
278.399994	1
278.700012	1
279.344437	7
280.282089	17
281.330072	70
282.200012	2
283.305681	45
284.366659	2
285.346431	14
286.100006	1
287.200012	1
287.399994	1
288.399994	1
289.299988	1
289.650009	1
290.200012	1
290.700012	1
291.349991	1
292.600006	1
293.227273	6
294.068754	4
294.515386	7
295.343698	129
296.000000	1
297.363635	22
298.299988	1
298.700012	1
299.379999	3
300.100006	1
300.899994	1
301.799988	1
303.000000	1
303.399994	1
304.200012	1
304.799988	1
305.100006	1
305.299988	1
305.700012	1
306.399994	1
306.750000	1
307.100006	1
307.299988	2
307.650009	3
309.348000	127
310.474998	1
311.411106	5
312.399994	1
312.700012	1
313.250000	1
313.500000	1
313.799988	1
315.500000	1
317.500000	1
318.000000	1
318.299988	1
318.500000	1
319.200012	1
319.500000	1
320.150002	1
320.500000	1
321.281819	6
322.228572	2
322.700012	1
323.376086	35
324.299988	1
324.500000	1
324.799988	1
325.200012	1
325.399994	1
325.799988	1
329.399994	1
329.600006	1
331.150009	1
331.399994	1
332.949997	1
335.199997	1
335.600006	1
336.206253	8
337.454164	12
338.299988	1
338.799988	1
345.500000	1
346.200012	1
347.000000	1
348.600006	1
349.000000	1
349.200012	2
350.299988	1
351.378566	7
361.200012	1
363.200012	1
363.399994	1
363.799988	1
364.300002	7
377.050003	1
377.299988	1
377.575005	1
378.200012	1
379.421807	363
380.299988	1
384.200012	1
397.399994	1
