Mass spectrum: 82FTA; LC-ESI-QQ; MS2; CE50; [M-H]-
Name: 82FTA
Name: 82Fluorotelomer Acid
Name: 3,3,4,4,5,5,6,6,7,7,8,8,9,9,10,10,10-Heptadecafluorodecanoic acid
Class: Non-Natural Product
Formula: C10H3F17O2
Exact mass: 477.98616
SMILES: OC(=O)CC(F)(F)C(F)(F)C(F)(F)C(F)(F)C(F)(F)C(F)(F)C(F)(F)C(F)(F)F
InChI: InChI=1S/C10H3F17O2/c11-3(12,1-2(28)29)4(13,14)5(15,16)6(17,18)7(19,20)8(21,22)9(23,24)10(25,26)27/h1H2,(H,28,29)
Instrument: Xevo TQ MS (Waters)
Instrument type: LC-ESI-QQ
Ms type: MS2
Ion mode: NEGATIVE
Collision energy: 50
Retention time: 0.016833
Base peak: 118.565720
Precursor m/z: 477
Precursor type: [M-H]-
m/z	relative intensity
63.037777	299
69.108322	618
92.310371	301
92.960449	999
94.797302	309
102.759422	137
118.740593	871
131.241501	219
142.894073	288
160.998642	128
168.889587	442
179.067200	268
188.087952	133
193.163300	518
215.153320	102
243.420197	216
247.012772	140
254.945007	767
293.177612	600
329.687317	119
343.277802	417
393.077332	818
