Mass spectrum: Androstenedione; LC-APPI-QQ; MS2; CE:30 V; [M+H]+
Name: Androstenedione
Class: Natural Product; Steroid hormone
Formula: C19H26O2
Exact mass: 286.19328
SMILES: O=C(C4)C=C(C3)C(C)(C4)C(C2)C(C3)C(C1)C(C)(C2)C(=O)C1
InChI: InChI=1S/C19H26O2/c1-18-9-7-13(20)11-12(18)3-4-14-15-5-6-17(21)19(15,2)10-8-16(14)18/h11,14-16H,3-10H2,1-2H3/t14?,15?,16?,18-,19-/m0/s1
Instrument: API2000
Instrument type: LC-APPI-QQ
Ms type: MS2
Ion mode: POSITIVE
Retention time: 0.820833 min
Base peak: 97.099998
Precursor m/z: 287.300000
Precursor type: [M+H]+
m/z	relative intensity
39.049999	1
39.299999	1
40.400002	1
40.650000	1
41.200001	1
41.799999	1
42.200001	1
42.400002	1
43.047369	1
43.900002	1
44.799999	1
45.400002	1
45.700001	1
52.850000	1
53.199999	1
53.549999	1
53.900002	1
54.099998	1
54.400002	1
54.979167	1
56.500000	1
56.949999	1
57.400002	1
59.000000	1
59.299999	1
60.799999	1
63.200001	1
63.700001	1
65.200002	1
65.599998	1
65.800003	1
66.000000	1
66.400002	1
67.334618	1
68.000000	1
68.312503	1
69.095588	3
69.900002	1
70.099998	1
70.300003	1
70.500000	1
71.165218	1
72.900002	1
73.300001	1
74.099998	1
76.838891	1
77.277274	1
79.090086	9
79.900002	1
81.092258	12
83.087867	39
84.099998	1
85.009678	1
85.900002	1
86.099998	1
86.549999	1
87.000000	1
89.300003	1
89.766668	1
90.099998	1
91.091908	3
93.073060	9
97.091820	999
99.175001	1
99.699997	1
100.900002	1
101.149998	1
101.699997	1
102.300003	1
102.900002	1
103.300003	1
103.500000	1
104.994150	11
109.069291	670
111.031452	2
112.099998	1
113.149998	1
114.599998	1
114.850002	1
115.099998	1
117.111538	3
117.699997	1
119.062240	12
119.762501	1
121.135030	13
123.054317	55
124.099998	1
124.900002	1
125.099998	1
125.316669	1
125.950001	1
126.199997	1
126.850002	1
127.300000	1
129.020832	2
131.140289	8
132.000000	1
133.135144	18
134.062504	1
135.054573	6
135.699997	1
136.300003	1
137.125716	3
138.133331	1
138.899994	1
139.899994	1
140.199997	1
141.080490	1
141.899994	1
143.094082	7
145.103030	26
147.120176	13
149.141892	9
150.133518	3
151.158536	3
152.000000	1
153.224998	1
155.102704	3
157.125980	8
159.157013	21
161.116991	11
163.147657	5
164.100006	1
165.150001	2
166.150002	1
167.127780	1
167.699997	1
169.074258	10
171.115676	15
172.100006	1
173.192825	35
175.129413	5
176.199997	1
176.500000	1
177.194060	4
179.180166	2
180.171429	1
181.125925	4
182.068186	1
183.167873	9
185.149155	25
186.012122	1
187.174657	17
188.000000	1
189.167568	3
191.179047	4
191.800003	1
192.100006	1
192.300003	1
193.261291	1
193.969998	1
195.134529	9
197.191549	3
198.000000	1
199.178397	8
200.000000	1
201.156045	4
201.968419	1
202.399994	1
203.155952	3
203.899994	1
204.100006	1
204.300003	1
205.204918	2
206.600006	1
206.971427	1
207.300003	1
209.176838	11
209.899994	1
211.178716	33
213.195545	8
214.185816	6
215.168493	1
216.061702	1
217.214323	7
218.399994	1
218.874996	1
219.299998	1
220.100006	1
220.699997	1
221.433329	1
222.099999	1
223.199181	2
224.300003	1
225.234517	8
226.500000	1
227.268421	13
229.207510	66
230.083338	1
231.125532	3
231.950001	1
232.300003	1
232.849998	1
233.200002	1
233.550003	1
234.050003	1
235.100006	1
235.600006	1
236.140911	1
237.300003	1
237.500000	1
237.750000	1
238.100006	1
239.036366	1
240.245453	1
241.263226	6
243.230000	2
244.176595	2
244.699997	1
245.300000	2
246.100006	1
248.899994	1
249.324997	1
249.600006	1
250.000000	1
251.232353	22
252.000000	1
252.399994	1
253.000000	1
253.933329	1
254.199997	1
254.687498	1
255.345452	1
255.800003	1
256.000000	1
256.399994	1
256.899994	1
257.500000	1
258.200012	1
259.201169	3
266.899994	1
267.366669	1
267.899994	1
269.271126	41
270.299988	1
270.750000	1
271.200012	1
271.799988	1
272.095460	1
272.700012	1
282.399994	1
283.100006	1
283.600006	1
283.799988	1
284.050003	1
284.833323	1
285.500000	1
287.258903	285
288.700012	1
