Mass spectrum: Epiandrosterone; LC-APPI-QQ; MS2; CE:60 V; [M-2H2O+H]+
Name: Epiandrosterone
Name: 3-beta-Hydroxy-5alpha-androstan-17-one
Class: Natural Product; Steroid hormone
Formula: C19H30O2
Exact mass: 290.22458
SMILES: OC(C4)CC([H])(C3)C(C)(C4)C(C2)C(C3)C(C1)C(C)(C2)C(=O)C1
InChI: InChI=1S/C19H30O2/c1-18-9-7-13(20)11-12(18)3-4-14-15-5-6-17(21)19(15,2)10-8-16(14)18/h12-16,20H,3-11H2,1-2H3/t12-,13-,14?,15?,16?,18?,19?/m0/s1
Instrument: API2000
Instrument type: LC-APPI-QQ
Ms type: MS2
Ion mode: POSITIVE
Retention time: 0.820850 min
Base peak: 79.000000
Precursor m/z: 255.300000
Precursor type: [M-2H2O+H]+
m/z	relative intensity
37.700001	1
38.299999	1
39.057894	2
41.086666	60
43.099017	21
44.000000	1
45.099998	1
51.176595	2
53.114200	25
55.093646	264
56.185714	1
57.106896	3
58.700001	1
59.200001	1
59.400002	1
61.049999	1
61.500000	1
61.799999	1
62.099998	1
62.500000	1
62.700001	1
62.900002	1
63.400002	1
65.094376	74
67.112309	486
69.100601	50
70.300003	1
71.300003	1
71.800003	1
72.199997	1
72.800003	1
73.099998	1
73.300003	1
73.900002	1
74.199997	1
77.063768	439
79.056107	703
81.125526	472
83.079643	14
84.500000	1
86.099998	1
86.800003	1
87.199997	1
87.699997	1
87.900002	1
91.064914	999
93.121306	252
95.060033	123
96.199997	1
96.599998	1
96.900002	1
97.099998	1
99.500000	1
99.699997	1
99.900002	1
100.099998	1
100.500000	1
103.082335	85
105.055223	639
107.064140	55
109.104878	8
110.500000	1
111.000000	1
111.800003	1
112.199997	1
112.500000	1
112.775002	1
113.025000	1
113.659373	2
115.081502	165
117.100000	172
119.080898	142
120.400002	1
121.098572	7
122.500000	1
123.039999	1
123.325003	1
123.599998	1
124.500000	1
124.699997	1
124.900002	1
126.061363	2
128.099700	201
129.101364	229
130.121372	90
131.142573	134
132.246268	7
133.139862	22
134.139999	1
134.399994	1
135.147062	2
137.000000	1
137.399994	1
138.150002	1
139.076469	3
141.155190	95
142.093462	79
143.101057	115
145.109835	102
147.125568	9
147.899994	1
148.199997	1
148.899994	1
149.150002	1
149.500000	1
150.449997	1
150.699997	1
151.339999	1
151.994447	2
153.114886	16
155.116666	52
156.135048	26
157.144074	54
158.186861	7
159.135714	20
159.860001	1
160.274998	1
161.131081	4
162.199997	1
162.500000	1
163.150002	1
163.600006	1
164.100006	1
164.300003	1
165.148485	2
166.036586	2
167.173530	10
169.075155	32
171.160859	22
172.217648	2
173.192158	5
175.000000	1
176.100001	1
176.800003	1
177.300003	1
177.600006	1
177.899994	1
178.800003	1
179.100006	1
179.300003	1
179.899994	1
180.150002	1
180.399994	1
181.135616	4
183.200000	14
184.152438	4
185.190332	17
186.157142	1
187.100006	1
187.300003	1
188.600006	1
189.000000	1
190.899994	1
191.250000	1
191.500000	1
192.399994	1
192.600006	1
192.800003	1
193.399994	1
193.699997	1
194.049995	1
194.449997	1
194.750000	1
195.238095	1
195.750000	1
196.140002	1
197.272000	5
198.118182	1
199.166929	6
200.118182	1
201.100006	1
201.500000	1
202.000000	1
203.449997	1
206.300003	1
207.250000	1
207.899994	1
208.250000	1
208.500000	1
209.100006	1
209.500000	1
209.699997	1
209.899994	1
210.399998	1
211.179310	4
212.000000	1
212.199997	1
212.800003	1
213.200002	1
214.000000	1
214.199997	1
214.600006	1
221.300003	1
222.199997	1
222.600006	1
223.000000	1
223.300003	1
224.189998	1
225.267212	6
226.161904	4
226.899997	1
227.199997	1
227.550003	1
227.800003	1
228.899994	1
237.600006	1
238.399999	1
239.224998	1
239.699997	1
239.899994	1
241.699997	1
242.000000	1
251.699997	1
253.000000	1
253.300003	1
254.199997	1
255.100006	1
255.450001	1
