Mass spectrum: Progesterone; LC-APPI-QQ; MS2; CE:50 V; [M+H]+
Name: Progesterone
Class: Natural Product; Steroid hormone
Formula: C21H30O2
Exact mass: 314.22458
SMILES: O=C(C4)C=C(C3)C(C)(C4)C(C2)C(C3)C(C1)C(C)(C2)C(C(C)=O)C1
InChI: InChI=1S/C21H30O2/c1-13(22)17-6-7-18-16-5-4-14-12-15(23)8-10-20(14,2)19(16)9-11-21(17,18)3/h12,16-19H,4-11H2,1-3H3
Instrument: API2000
Instrument type: LC-APPI-QQ
Ms type: MS2
Ion mode: POSITIVE
Retention time: 0.820850 min
Base peak: 97.099998
Precursor m/z: 315.400000
Precursor type: [M+H]+
m/z	relative intensity
38.500000	1
38.900002	1
39.299999	1
39.700001	1
39.900002	1
40.400002	1
41.058729	3
43.066220	63
43.900002	1
44.200001	1
45.171428	1
45.599998	1
45.799999	1
50.099998	1
50.900002	1
51.299999	1
51.500000	1
51.700001	1
52.299999	1
52.500000	1
53.116667	2
53.900002	1
55.069613	15
56.000000	1
56.225000	1
56.500000	1
57.085185	2
59.022222	1
59.700001	1
60.000000	1
63.700001	1
64.300001	1
64.920688	1
65.400002	1
65.900002	1
67.087537	41
69.086000	28
71.071923	10
71.900002	1
72.199999	1
72.599998	1
72.975000	1
73.400002	1
75.199997	1
75.674997	1
77.102033	12
79.055459	140
81.124435	159
83.088643	51
85.071186	10
85.800003	1
86.300003	1
86.649998	1
87.300003	1
87.699997	1
88.000000	1
88.500000	1
89.993750	1
91.061267	56
93.111379	55
95.108141	87
97.099187	873
98.837502	1
99.149998	1
99.400002	1
102.900002	1
103.267858	1
105.065207	64
107.088478	49
109.076531	999
111.046428	3
112.099998	1
112.699997	1
113.000000	1
113.400002	1
113.699997	1
114.099998	1
115.156897	2
117.061170	15
119.070290	39
121.120275	23
123.053296	86
124.450001	1
124.699997	1
125.000000	1
125.239998	1
126.400002	1
126.699997	1
127.000000	1
128.126191	3
129.168216	5
131.138381	23
133.145835	15
134.016668	1
135.129240	7
136.100006	1
137.158140	3
138.100006	1
138.300003	1
138.900000	1
139.300003	1
139.500000	1
139.800003	1
140.199997	1
140.699997	1
141.042858	1
143.125484	13
145.081288	26
147.135519	15
148.092310	1
149.181668	7
149.800003	1
150.000000	1
150.399994	1
150.899994	1
151.280002	1
152.150002	1
152.528573	1
152.899994	1
153.181821	1
153.955556	1
155.104631	4
156.155262	3
157.176190	8
159.139774	14
160.044447	1
161.108590	7
161.899994	1
162.100006	1
162.399994	1
163.130814	7
164.049999	1
165.100006	1
165.300003	1
165.960001	1
166.325001	1
167.107843	2
168.105000	2
169.142656	6
170.008000	1
171.139870	6
172.155560	1
173.194737	9
173.800003	1
174.016668	1
174.399994	1
175.134785	2
176.171430	1
177.211112	2
178.100006	1
178.500000	1
179.199997	1
180.099998	1
180.666666	1
181.167999	2
181.983332	1
182.372725	1
183.211881	4
184.261542	1
185.253571	5
185.825001	1
186.199997	1
187.109757	3
188.399994	1
188.849998	1
189.281817	1
190.000000	1
190.399994	1
190.699997	1
191.174999	1
191.500000	1
191.800003	1
192.000000	1
192.299998	1
192.750000	1
193.000000	1
193.257143	1
193.699997	1
194.111113	1
194.570004	1
195.166666	2
195.909995	1
196.229999	1
196.600006	1
197.141671	2
197.500000	1
198.399994	1
198.600006	1
199.324559	2
199.899994	1
201.073081	1
202.071427	1
203.369997	1
203.699997	1
205.399994	1
205.800003	1
206.000000	1
206.924995	1
207.322222	1
207.974998	1
208.399994	1
209.000000	1
209.314287	1
210.000000	1
210.399994	1
210.800003	1
211.255000	2
211.916662	1
212.199997	1
212.399994	1
213.365714	1
214.100000	1
215.242310	2
215.899994	1
216.199997	1
217.100006	1
219.150002	1
219.399994	1
220.000000	1
220.500000	1
220.800003	1
221.000000	1
222.120001	1
222.600006	1
223.260000	1
223.899994	1
224.174999	1
224.500000	1
225.058337	1
225.439996	1
225.899994	1
226.699997	1
227.248387	1
227.878572	1
228.800003	1
229.371427	1
229.899994	1
230.199997	1
230.500000	1
231.199997	1
231.399994	1
233.000000	1
233.399994	1
234.349998	1
235.224998	1
236.000000	1
236.549999	1
237.233335	1
237.899994	1
238.266668	1
239.335714	1
240.125004	1
240.700005	1
241.366662	1
242.300003	1
242.575005	1
242.800003	1
243.075005	1
243.300003	1
243.800003	1
244.000000	1
244.325001	1
244.600006	1
244.949997	1
245.424995	1
248.199997	1
249.299998	1
249.699997	1
250.199997	1
250.600006	1
251.000000	1
252.199997	1
252.500000	1
252.800003	1
253.100006	1
253.522223	1
254.199997	1
255.399999	1
255.849998	1
256.200012	1
257.077783	1
257.500000	1
258.000000	1
258.799988	1
259.100006	1
259.399994	1
259.600006	1
262.500000	1
263.200012	1
264.100006	1
264.299988	1
265.100006	1
265.299988	1
266.899994	1
267.399994	1
267.899994	1
268.100006	1
268.349991	1
268.600006	1
268.899994	1
269.100006	1
269.324989	1
269.600006	1
269.899994	1
271.050003	1
271.500000	1
271.700012	1
272.399994	1
273.100006	1
273.299988	1
273.500000	1
273.799988	1
276.200012	1
276.899994	1
278.500000	1
279.000000	1
279.375000	1
281.399994	1
281.600006	1
281.899994	1
282.299988	1
282.500000	1
282.799988	1
283.000000	1
283.299988	1
284.799988	1
285.200012	1
285.399994	1
285.700012	1
286.449997	1
287.000000	1
287.500000	1
296.399994	1
297.000000	1
297.516668	1
299.100006	1
299.799988	1
300.200002	1
300.500000	1
313.700012	1
314.100006	1
314.399994	1
314.600006	1
315.299988	1
315.500000	1
