Mass spectrum: Estrone; LC-APPI-QQ; MS2; CE:60 V; [M-H2O+H]+
Name: Estrone
Class: Natural Product; Steroid hormone
Formula: C18H22O2
Exact mass: 270.16198
SMILES: Oc(c4)cc(C3)c(c4)C(C2)C(C3)C(C1)C(C)(C2)C(=O)C1
InChI: InChI=1S/C18H22O2/c1-18-9-8-14-13-5-3-12(19)10-11(13)2-4-15(14)16(18)6-7-17(18)20/h3,5,10,14-16,19H,2,4,6-9H2,1H3
Instrument: API2000
Instrument type: LC-APPI-QQ
Ms type: MS2
Ion mode: POSITIVE
Retention time: 0.820850 min
Base peak: 157.199997
Precursor m/z: 253.200000
Precursor type: [M-H2O+H]+
m/z	relative intensity
38.825000	1
39.275000	1
39.599998	1
39.900002	1
41.069231	32
43.200000	13
43.900002	1
44.799999	1
45.099998	1
50.200001	1
50.500000	1
51.056249	5
51.350000	2
52.000000	1
53.104082	31
55.059926	168
56.200001	1
56.900002	1
57.150000	1
57.500000	1
58.299999	1
58.900002	1
59.325000	1
61.799999	1
62.299999	1
62.866667	2
63.099998	1
63.400002	1
63.700001	1
65.093233	83
67.124072	243
68.099998	1
68.983334	11
69.400002	5
70.400002	1
71.049999	1
71.400002	1
72.500000	1
72.944445	3
73.250000	3
74.099998	1
74.300003	1
74.599998	1
74.933334	2
77.075371	504
79.054142	617
81.103803	361
82.099998	1
82.500000	1
83.250000	1
86.800003	1
87.500000	1
88.099998	1
89.000000	4
91.082014	724
93.075882	106
95.018590	49
96.699997	1
98.699997	1
101.099998	3
101.378573	4
103.082312	183
105.052126	396
105.875002	5
107.015132	190
107.900002	1
109.300003	1
110.099998	1
112.000000	1
113.066666	2
115.075198	432
116.146667	150
117.079464	70
118.131248	5
118.400002	3
119.051021	15
120.300001	3
121.121429	17
122.000000	1
122.599998	1
123.000000	1
124.099998	1
124.699997	2
125.074999	2
127.088640	598
128.092014	999
129.093091	325
131.097595	389
133.094055	147
134.000000	1
135.000000	1
135.199997	1
135.500000	1
135.899994	1
136.550003	1
137.100006	1
137.800003	1
138.128573	2
139.050002	30
141.100416	225
142.144154	24
144.058234	416
145.047968	115
145.969998	3
146.333333	2
147.081818	3
148.899994	1
150.199997	2
152.123393	243
153.131045	400
154.132802	137
155.092259	149
157.111306	904
158.092683	26
159.153227	58
160.100006	1
160.300003	1
160.699997	1
161.300003	1
161.699997	1
162.025002	1
162.399994	1
165.095481	704
167.158206	122
168.117801	60
169.090889	137
170.082330	78
171.028572	17
172.250000	1
172.600006	1
172.949997	1
173.399994	2
173.800003	1
174.050003	1
174.300003	1
174.500000	1
174.800003	1
175.500000	2
176.238460	32
178.152016	294
179.141978	284
181.112263	824
182.164078	385
183.170000	246
183.949997	5
184.300003	2
185.133336	4
186.000000	1
186.600006	1
186.899994	1
187.100006	1
187.500000	1
187.849998	1
188.500000	1
188.813334	5
189.213045	14
189.821876	10
191.025002	11
194.141401	98
195.158078	143
196.059186	31
197.204976	132
198.158182	34
199.199997	1
199.600006	1
199.899994	1
201.100006	1
201.399994	1
202.200003	3
203.000000	2
203.300003	1
203.899994	1
204.600006	1
205.150002	4
205.500000	1
207.362497	7
208.190001	12
209.118518	50
210.085005	6
210.387495	5
211.147368	12
211.849998	1
212.100006	1
212.349998	1
212.699997	1
213.000000	1
214.899994	1
215.100006	1
215.300003	1
216.399994	1
217.100006	1
217.300003	1
218.100006	1
219.100006	1
220.000000	1
220.300003	1
221.183332	2
221.449997	1
221.699997	1
221.899994	1
222.300003	1
223.028573	4
223.300003	3
223.500000	1
223.949997	1
224.550003	1
225.100006	1
225.399994	1
229.000000	1
233.300003	1
234.500000	1
234.800003	1
235.300003	1
235.800003	1
236.100006	1
236.750000	1
237.100006	2
237.699997	1
238.000000	1
238.250000	1
250.100006	1
250.300003	1
251.300003	1
252.100006	1
252.399994	1
252.699997	1
253.199997	1
253.399994	1
