Mass spectrum: Coprostanol; LC-APPI-QQ; MS2; CE:50 V; [M-H2O+H]+
Name: Coprostanol
Class: Natural Product; Sterol
Formula: C27H48O
Exact mass: 388.37052
SMILES: C(C)(C1)(C(C(C)CCCC(C)C)4)C(CC4)C(C2)C(C(C)(C3)C([H])(CC(C3)O)C2)C1
InChI: InChI=1S/C27H48O/c1-18(2)7-6-8-19(3)23-11-12-24-22-10-9-20-17-21(28)13-15-26(20,4)25(22)14-16-27(23,24)5/h18-25,28H,6-17H2,1-5H3/t19?,20-,21+,22?,23?,24?,25?,26?,27?/m1/s1
Instrument: API2000, Applied
Instrument type: LC-APPI-QQ
Ms type: MS2
Ion mode: POSITIVE
Retention time: 0.820883 min
Base peak: 80.900002
Precursor m/z: 371.466000
Precursor type: [M-H2O+H]+
m/z	relative intensity
39.100000	1
39.799999	1
41.199999	7
41.799999	1
43.043352	32
43.900002	1
51.049999	1
52.599998	1
53.220000	2
55.061322	153
56.043749	3
57.115846	122
58.300001	1
58.599998	1
58.799999	1
59.200001	1
60.900002	1
61.200001	1
64.099998	1
65.025000	1
67.087123	329
69.062648	365
71.060991	60
72.000000	1
72.500000	1
72.750000	1
73.049999	1
74.300003	1
74.800003	1
75.500000	1
75.900002	1
77.099999	9
79.024581	168
81.074979	877
82.016666	7
83.078534	248
84.099998	1
85.111765	13
86.199997	1
88.699999	1
89.049999	1
89.500000	1
91.035416	36
93.096145	379
95.042568	999
97.107126	79
98.049999	1
98.649998	1
99.400002	1
99.850002	1
100.549999	1
100.800003	1
101.000000	1
101.300003	1
101.599998	1
102.199997	1
102.800003	1
103.400002	1
105.044865	69
107.035942	282
109.066293	451
110.149998	2
110.400002	1
111.020000	11
113.199997	1
116.099998	1
116.500000	1
116.928573	1
117.199997	1
117.400002	1
118.083332	2
118.989899	37
121.078747	206
123.039063	96
123.900002	1
124.250000	1
124.750000	1
125.300003	1
128.899994	1
129.199997	1
129.399994	1
129.699997	1
129.949997	1
130.250000	1
131.225002	3
132.300003	1
133.111766	29
135.044299	115
136.399994	1
137.111235	17
138.100006	1
141.500000	1
142.399994	1
143.250000	1
144.000000	1
144.500000	1
145.069565	9
146.150002	2
147.111466	29
149.115731	83
150.224998	1
150.500000	1
150.800003	1
151.157145	5
151.699997	1
152.050003	1
156.300003	1
157.000000	1
157.899994	1
158.300003	1
158.600006	1
159.276922	5
160.016668	2
161.127907	16
162.150002	2
163.094029	25
164.199997	1
164.500000	1
165.100006	1
165.399994	1
165.699997	1
167.300003	1
169.300003	1
170.300003	1
171.050003	1
171.750000	1
172.199997	1
172.766668	1
173.100006	1
173.433329	1
173.699997	1
173.899994	1
174.416662	1
174.989475	11
175.699997	1
176.150002	1
177.129731	7
177.899994	1
178.100006	1
178.699997	1
179.037502	1
179.424995	1
179.899994	1
183.399994	1
184.899994	1
185.199997	1
185.500000	1
185.800003	1
186.300003	1
186.500000	1
187.199997	1
187.800003	1
188.100006	1
188.300003	1
189.192684	8
189.949997	1
190.300003	1
190.550003	1
191.000000	2
191.399994	1
192.199997	1
192.600006	1
193.000000	1
193.399994	1
197.399994	1
198.199997	1
199.199997	1
200.000000	1
200.199997	1
200.500000	1
200.899994	1
201.300003	1
202.250000	1
203.293749	6
203.800003	1
204.300003	1
205.099999	2
206.699997	1
207.100006	1
207.399999	1
208.000000	1
208.699997	1
209.000000	1
213.100006	1
214.199997	1
214.399994	1
215.270001	4
216.000000	1
216.300003	1
216.699997	1
217.200005	1
217.500000	1
219.033333	1
219.500000	1
221.199997	1
223.500000	1
227.100006	1
227.300003	1
229.000000	1
230.600006	1
231.099998	1
232.000000	1
232.250000	1
232.899994	1
233.100006	1
233.500000	1
233.699997	1
239.800003	1
240.100006	1
240.600006	1
241.199997	1
241.500000	1
242.600006	1
245.300003	1
245.600006	1
247.000000	1
247.399994	1
247.600006	1
248.399994	1
249.500000	1
250.000000	1
250.699997	1
250.949997	1
252.000000	1
256.200012	1
257.100006	1
257.399994	1
257.949997	1
259.050003	1
259.700012	1
260.700012	1
260.899994	1
261.100006	1
261.299988	1
261.500000	1
265.200012	1
267.000000	1
268.399994	1
272.299988	1
272.799988	1
273.150009	1
273.700012	1
273.899994	1
275.299988	1
275.500000	1
275.799988	1
276.100006	1
277.799988	1
279.500000	1
284.100006	1
284.299988	1
286.849991	1
287.500000	1
287.700012	1
289.100006	1
301.200012	1
303.299988	1
310.700012	1
312.799988	1
315.299988	1
315.700012	1
327.100006	1
328.399994	1
341.899994	1
342.150009	1
345.000000	1
351.899994	1
356.100006	1
356.399994	1
356.600006	1
368.799988	1
369.899994	1
371.000000	1
371.399994	1
371.700012	1
372.299988	1
382.899994	1
