Mass spectrum: 1,4-Androstadiene-3,17-dione; LC-APPI-QQ; MS2; CE:40 V; [M-H2O+H]+
Name: 1,4-Androstadiene-3,17-dione
Class: Natural Product; Anabolic Steroid
Formula: C19H24O2
Exact mass: 284.17763
SMILES: O=C(C=4)C=C(C3)C(C)(C4)C([H])(C2)C([H])(C3)C([H])(C1)C(C)(C2)C(=O)C1
InChI: InChI=1S/C19H24O2/c1-18-9-7-13(20)11-12(18)3-4-14-15-5-6-17(21)19(15,2)10-8-16(14)18/h7,9,11,14-16H,3-6,8,10H2,1-2H3/t14-,15-,16-,18-,19-/m0/s1
Instrument: API2000
Instrument type: LC-APPI-QQ
Ms type: MS2
Ion mode: POSITIVE
Retention time: 0.820850 min
Base peak: 171.000000
Precursor m/z: 267.300000
Precursor type: [M-H2O+H]+
m/z	relative intensity
38.500000	1
38.900002	1
39.400000	1
40.000000	1
40.299999	1
41.129091	3
41.799999	1
43.011297	7
44.200001	1
44.900002	1
45.250000	1
46.799999	1
51.027273	1
51.500000	1
51.900002	1
52.400002	1
53.168421	1
54.058332	1
55.057164	19
56.200001	1
56.400002	1
57.027777	1
57.700001	1
58.700001	1
59.200001	1
60.950001	1
61.299999	1
62.799999	1
63.099998	1
63.299999	1
63.800001	1
65.094846	6
67.098919	101
69.103114	24
70.599998	1
71.400002	1
71.900002	1
72.300003	1
72.599998	1
72.900002	1
73.300003	1
73.800003	1
75.133331	1
75.400002	1
77.068077	45
79.037068	358
81.108602	193
82.000000	1
83.071199	4
83.699997	1
84.599998	1
84.900002	1
85.400002	1
85.699997	1
87.400002	1
87.599998	1
87.800003	1
88.199997	1
88.500000	1
91.053152	276
93.092707	249
95.052479	166
96.400002	1
96.800003	1
97.025000	1
98.900002	1
99.099998	1
99.599998	1
100.400002	1
100.699997	1
100.900002	1
101.149998	1
101.500000	1
103.191965	6
105.057915	153
107.047641	461
109.106563	72
110.300003	1
110.900002	1
111.124998	1
112.400002	1
112.850002	1
113.199997	1
113.562499	1
115.060520	24
117.096016	49
119.094940	98
121.077213	294
123.099998	1
124.000000	1
124.500000	1
125.300003	1
125.916668	1
128.083494	144
129.089458	40
131.148162	45
132.136484	35
133.113277	20
135.067857	16
136.100006	1
136.300003	1
136.899994	1
137.500000	1
138.100006	1
138.600006	1
138.800003	1
141.124272	46
143.097607	113
145.087292	186
147.120618	655
148.399994	1
149.057141	1
150.200000	1
151.207547	2
152.163018	8
153.114324	21
155.081133	88
158.120957	177
159.109757	308
161.111852	46
162.300003	1
162.899994	1
163.100006	1
163.500000	1
164.014289	1
165.092499	11
167.150818	16
168.185365	14
169.137331	38
171.071344	999
173.140595	498
175.118488	7
175.800003	1
178.183445	30
179.156171	27
181.107585	45
182.183726	24
183.153786	48
185.140761	86
187.173757	13
188.699997	1
189.083336	1
189.540002	1
190.072227	1
190.399994	1
191.151666	5
193.168928	71
195.197338	41
196.131718	99
197.166247	109
198.222449	17
199.195076	36
200.150002	1
200.500000	1
201.066667	1
202.100006	1
202.399994	1
202.699997	1
203.199997	1
203.500000	1
203.899994	1
205.104877	4
206.025290	2
207.154978	13
209.170866	29
211.161787	252
212.194650	56
213.284617	2
215.250000	1
215.849998	1
216.500000	1
216.699997	1
217.240002	1
217.500000	1
218.028573	1
218.300003	1
218.500000	1
219.105129	2
221.187963	6
223.201374	25
224.169906	18
225.208678	58
227.349998	1
227.600006	1
229.399994	1
230.800003	1
231.199997	1
231.600006	1
231.800003	1
232.349998	1
232.800003	1
233.000000	1
233.275000	1
234.322222	1
235.160976	2
235.949997	1
237.215235	15
238.347801	5
239.236768	25
241.100006	1
245.199997	1
246.000000	1
246.300003	1
247.264284	1
248.199997	1
248.500000	1
249.225001	1
250.205883	1
252.183620	13
253.000000	1
263.100006	1
264.000000	1
264.399994	1
264.600006	1
265.337835	1
267.237069	67
268.349991	1
269.200012	1
277.399994	1
340.399994	1
