Mass spectrum: 102FTA; LC-ESI-QQ; MS2; CE20; [M-H]-
Name: 102FTA
Name: 102Fluorotelomer Acid
Name: 3,3,4,4,5,5,6,6,7,7,8,8,9,9,10,10,11,11,12,12,12-Heneicosafluorododecanoic acid
Class: Non-Natural Product
Formula: C12H3F21O2
Exact mass: 577.97977
SMILES: OC(=O)CC(F)(F)C(F)(F)C(F)(F)C(F)(F)C(F)(F)C(F)(F)C(F)(F)C(F)(F)C(F)(F)C(F)(F)F
InChI: InChI=1S/C12H3F21O2/c13-3(14,1-2(34)35)4(15,16)5(17,18)6(19,20)7(21,22)8(23,24)9(25,26)10(27,28)11(29,30)12(31,32)33/h1H2,(H,34,35)
Instrument: Xevo TQ MS (Waters)
Instrument type: LC-ESI-QQ
Ms type: MS2
Ion mode: NEGATIVE
Collision energy: 20
Retention time: 0.016833
Base peak: 493.295227
Precursor m/z: 577
Precursor type: [M-H]-
m/z	relative intensity
62.356503	171
62.862301	540
168.399872	127
168.881287	304
180.729462	58
218.743805	77
231.261292	144
242.987823	101
277.090759	60
292.918060	458
343.108459	527
374.211731	56
492.966278	999
