Mass spectrum: Daidzein; LC-APPI-QQ; MS2; CE:50 V; [M+H]+
Name: Daidzein
Class: Natural Product; Isoflavone
Formula: C15H10O4
Exact mass: 254.05791
SMILES: Oc(c3)ccc(c3)C(=C1)C(=O)c(c2)c(cc(O)c2)O1
InChI: InChI=1S/C15H10O4/c16-10-3-1-9(2-4-10)13-8-19-14-7-11(17)5-6-12(14)15(13)18/h1-8,16-17H
Instrument: API2000
Instrument type: LC-APPI-QQ
Ms type: MS2
Ion mode: POSITIVE
Retention time: 0.820850 min
Base peak: 91.000000
Precursor m/z: 255.400000
Precursor type: [M+H]+
m/z	relative intensity
36.799999	1
37.000000	1
37.900002	1
38.599998	1
38.976924	1
39.400002	1
40.299999	1
40.599998	1
40.990000	1
41.400002	1
41.700001	1
43.042000	4
43.850000	1
45.500000	1
49.099998	1
49.900002	1
51.166666	1
52.099998	1
53.078355	8
55.033644	50
55.900002	1
56.200001	1
56.775000	1
57.200001	1
58.900002	1
59.099998	1
59.299999	1
59.700001	1
60.599998	1
61.400000	1
61.700001	1
63.222223	3
65.067661	255
66.300003	1
66.933334	1
69.032436	59
71.016667	3
71.699997	1
71.900002	1
72.800003	1
73.000000	1
73.733335	1
75.015219	2
75.500000	1
77.066895	52
78.030904	25
81.059777	186
82.800000	1
83.500000	1
84.099998	1
84.800003	1
85.000000	1
85.599998	1
85.900002	1
86.199997	1
86.500000	1
87.669229	1
89.094803	46
91.052291	999
93.029509	44
94.400002	1
94.978102	5
96.128569	1
96.400002	1
97.099998	1
98.850002	1
99.300003	1
100.066666	1
101.058491	4
103.077402	19
104.996744	77
105.989765	60
107.016327	14
109.025926	43
110.037499	1
110.880001	1
111.199997	1
111.400002	1
111.900002	1
112.300003	1
112.649998	1
115.060879	65
116.131035	6
119.039491	97
121.018255	54
122.500000	1
123.035294	1
123.699997	1
123.900002	1
124.099998	1
125.000000	1
125.199997	1
128.072195	299
129.064556	79
131.099357	100
133.070231	25
134.079073	51
137.022716	509
139.109334	5
141.111692	47
143.078015	44
145.027175	43
147.051515	24
148.199997	1
149.010940	26
152.095362	547
153.078973	352
155.056969	26
157.092673	69
158.080952	2
159.108697	4
159.977776	1
160.399994	1
160.787500	1
161.238888	1
162.199997	1
163.058526	8
165.117022	15
166.018183	1
168.124309	6
169.046006	48
171.057671	81
172.100006	1
172.699997	1
173.216666	1
174.100006	1
175.048370	13
175.899994	1
176.299998	1
176.899994	1
177.399994	1
178.290002	1
181.086085	567
184.091008	105
186.200003	1
187.082953	6
188.566671	1
188.937496	1
189.899994	1
190.250000	1
190.600006	1
191.142857	1
192.013334	1
192.777778	1
193.366664	1
194.042858	1
197.109935	115
199.115025	236
201.000000	1
205.600006	1
206.199997	1
206.699997	1
207.000000	1
208.183335	3
209.084164	37
210.104990	17
210.986209	4
212.113534	10
213.111701	3
213.949997	1
214.650002	1
215.100006	1
215.399994	1
218.399994	1
219.018071	3
219.800003	1
220.800003	1
221.000000	1
221.199997	1
221.399994	1
222.399994	1
222.899994	1
223.199997	1
223.399994	1
223.650002	1
223.941663	1
224.374996	1
225.175460	12
226.166523	17
227.145332	69
228.199997	1
230.000000	1
232.100006	1
234.800003	1
237.156991	47
238.099998	1
238.600006	1
238.849998	1
239.650002	1
239.899994	1
240.300003	1
253.109522	2
255.159606	58
256.500000	1
