Mass spectrum: 62FTA; LC-ESI-QQ; MS2; CE50; [M-H]-
Name: 62FTA
Name: 62Fluorotelomer Acid
Name: 3,3,4,4,5,5,6,6,7,7,8,8,8-Tridecafluorooctanoic acid
Class: Non-Natural Product
Formula: C8H3F13O2
Exact mass: 377.99255
SMILES: OC(=O)CC(F)(F)C(F)(F)C(F)(F)C(F)(F)C(F)(F)C(F)(F)F
InChI: InChI=1S/C8H3F13O2/c9-3(10,1-2(22)23)4(11,12)5(13,14)6(15,16)7(17,18)8(19,20)21/h1H2,(H,22,23)
Instrument: Xevo TQ MS (Waters)
Instrument type: LC-ESI-QQ
Ms type: MS2
Ion mode: NEGATIVE
Collision energy: 50
Retention time: 0.016817
Base peak: 92.847626
Precursor m/z: 377
Precursor type: [M-H]-
m/z	relative intensity
62.981686	131
69.016106	217
73.877487	104
80.886505	63
93.021141	999
107.057671	51
114.996399	63
118.721977	128
142.912048	263
168.919785	138
169.196457	180
173.403839	72
174.022125	210
188.875916	52
192.387085	142
192.932144	405
242.999191	545
278.302002	66
293.220947	281
