Mass spectrum: Oseltamivir; LC-APPI-QQ; MS2; CE10; [M+H]+
Name: Oseltamivir
Class: Non-Natural Product
Formula: C16H28N2O4
Exact mass: 312.20491
SMILES: CCOC(=O)C(C1)=CC(OC(CC)CC)C(NC(C)=O)C(N)1
InChI: InChI=1S/C16H28N2O4/c1-5-12(6-2)22-14-9-11(16(20)21-7-3)8-13(17)15(14)18-10(4)19/h9,12-15H,5-8,17H2,1-4H3,(H,18,19)/t13-,14+,15+/m0/s1
Instrument: API2000, Applied
Instrument type: LC-APPI-QQ
Ms type: MS2
Ion mode: POSITIVE
Collision energy: 10V
Retention time: 0.820850 min
Base peak: 313.399994
Precursor m/z: 313.3
Precursor type: [M+H]+
m/z	relative intensity
60.200001	1
86.000000	1
87.000000	1
87.239999	1
90.500000	1
92.099998	1
93.500000	1
94.059999	1
94.400002	1
96.099998	1
105.900002	1
106.099998	1
106.300003	1
108.500000	1
109.000000	1
109.199997	1
110.250000	1
110.649998	1
111.000000	1
112.099998	1
118.699997	1
119.233335	1
120.040385	7
120.900002	1
121.199997	1
122.000000	1
122.199997	1
122.800003	1
123.000000	1
123.199997	1
133.899994	1
134.500000	1
134.799998	1
136.149314	5
137.040678	4
138.043478	2
139.044444	1
140.143752	1
140.800003	1
146.300003	1
147.899994	1
148.300003	1
149.000000	1
149.399994	1
150.800003	1
151.050003	1
151.800003	1
152.500000	1
154.000000	1
154.300003	1
154.800003	1
155.000000	1
155.849998	1
156.199997	1
160.775002	1
161.100006	1
161.374996	1
162.005406	5
162.899994	1
163.100006	1
166.091164	124
167.054170	2
175.399994	1
175.949997	1
176.600006	1
178.199997	1
179.160999	13
180.173585	4
181.600006	1
181.899994	1
182.199997	1
182.699997	1
183.000000	1
183.199997	1
183.866664	1
184.300003	1
189.750000	1
190.100006	1
190.300003	1
190.899994	1
195.800003	1
196.199997	1
196.500000	1
197.000000	1
197.899994	1
200.800003	1
201.300003	1
204.300003	1
205.600006	1
206.000000	1
206.199997	1
206.899994	1
208.118077	302
209.800003	1
210.199997	1
221.550003	1
222.000000	1
222.500000	1
222.699997	1
222.974998	1
225.179983	624
235.000000	1
241.199997	1
243.221517	76
244.000000	1
253.300003	1
253.800003	1
254.000000	1
254.300003	1
254.600006	1
266.949997	1
267.200012	1
269.899994	1
271.200012	1
281.100006	1
281.299988	1
281.500000	1
285.100006	1
294.899994	1
295.100006	1
296.279837	33
297.100006	1
298.700012	1
305.799988	1
307.600006	1
309.000000	1
309.799988	1
310.299988	1
310.600006	1
313.310271	999
321.200012	1
