Mass spectrum: alpha-Estradiol; LC-APPI-QQ; MS
Name: alpha-Estradiol
Class: Natural Product; Steroid hormone
Formula: C18H24O2
Exact mass: 272.17763
SMILES: Oc(c4)cc(C3)c(c4)C(C2)C(C3)C(C1)C(C)(C2)C(O)C1
InChI: InChI=1S/C18H24O2/c1-18-9-8-14-13-5-3-12(19)10-11(13)2-4-15(14)16(18)6-7-17(18)20/h3,5,10,14-17,19-20H,2,4,6-9H2,1H3/t14?,15?,16?,17-,18?/m1/s1
Instrument: API2000
Instrument type: LC-APPI-QQ
Ms type: MS
Ion mode: POSITIVE
Retention time: 0.821067 min
Base peak: 255.199997
Ion type: [M-H2O+H]+
m/z	relative intensity
201.136075	6
202.095674	2
203.101420	5
205.102857	6
206.102263	1
207.124675	6
208.135063	14
209.147176	16
210.172607	25
211.145300	23
213.125994	16
214.196732	4
215.142265	7
216.152351	1
217.154488	4
218.112149	2
219.110031	7
221.105010	10
223.130173	27
224.156227	7
225.174678	14
227.150089	9
228.191746	2
229.143946	6
230.188496	12
231.143067	21
233.129522	18
234.121894	7
235.111853	18
236.118864	6
237.163514	19
239.146716	17
240.196148	5
241.218116	11
243.174400	9
244.189979	13
245.153119	26
247.136398	65
249.150675	42
250.104715	16
251.141026	32
253.193354	177
255.220007	999
259.155538	81
260.164157	20
261.127262	48
263.130486	56
265.140088	23
266.126639	10
267.137545	22
269.180862	40
271.190042	92
272.239643	42
275.164621	20
277.149141	35
279.144478	29
281.154635	17
283.159272	10
285.186610	12
287.195130	14
289.244403	33
291.184433	13
293.169702	13
295.172783	7
297.182557	10
299.175497	8
301.198025	6
303.195437	5
305.244187	6
307.208896	7
309.203718	6
311.249103	5
313.233680	4
314.201574	3
315.250042	7
317.208490	3
319.220221	4
321.250382	4
323.201982	4
325.197972	4
327.220618	4
329.200992	2
331.158284	3
333.164458	3
335.187531	4
337.257030	5
338.249771	3
339.236532	4
341.254376	4
343.219390	2
345.269057	4
347.207276	3
350.215534	7
351.233824	8
353.262306	4
355.291464	5
357.254983	3
359.291735	4
361.284927	9
365.229332	3
367.260568	4
369.385879	5
371.263752	3
373.295633	2
375.303278	3
377.285616	3
379.263025	1
381.267219	2
382.243670	1
383.342449	2
385.354771	2
387.307565	1
389.333163	1
391.383403	4
395.317988	2
397.364906	1
399.367499	16
400.429467	3
403.302479	1
405.364193	1
407.344385	1
408.446073	1
409.343477	1
411.426604	1
413.392631	1
415.386177	1
416.431955	1
417.388000	1
419.447261	1
421.374074	1
423.369944	1
425.343178	1
427.412429	1
429.414538	1
430.430842	1
431.434834	1
433.399999	1
435.453914	1
437.445562	1
438.306053	1
439.460000	1
441.351530	1
443.397379	1
445.407559	1
446.489217	1
447.392727	1
449.422935	1
451.498171	1
453.429852	1
454.464813	1
455.406150	1
457.379238	1
459.380099	1
460.406712	1
461.327824	1
462.399994	1
463.398231	1
465.459215	1
467.502742	1
469.558699	1
469.934611	1
470.368932	1
471.480357	1
473.364512	1
474.428002	1
475.350739	1
476.422857	1
477.340322	1
478.394228	1
479.457481	1
481.474137	1
483.463459	1
484.371997	1
485.445108	1
486.489996	1
487.481937	1
489.412141	1
491.362766	1
493.500001	1
494.490476	1
495.477339	1
496.495959	1
497.495000	1
499.458535	1
