Mass spectrum: Coprostanol; LC-APPI-QQ; MS2; CE:60 V; [M-H2O+H]+
Name: Coprostanol
Class: Natural Product; Sterol
Formula: C27H48O
Exact mass: 388.37052
SMILES: C(C)(C1)(C(C(C)CCCC(C)C)4)C(CC4)C(C2)C(C(C)(C3)C([H])(CC(C3)O)C2)C1
InChI: InChI=1S/C27H48O/c1-18(2)7-6-8-19(3)23-11-12-24-22-10-9-20-17-21(28)13-15-26(20,4)25(22)14-16-27(23,24)5/h18-25,28H,6-17H2,1-5H3/t19?,20-,21+,22?,23?,24?,25?,26?,27?/m1/s1
Instrument: API2000, Applied
Instrument type: LC-APPI-QQ
Ms type: MS2
Ion mode: POSITIVE
Retention time: 0.820833 min
Base peak: 95.000000
Precursor m/z: 371.466000
Precursor type: [M-H2O+H]+
m/z	relative intensity
38.350000	1
38.799999	1
39.049999	1
39.299999	1
39.500000	1
39.799999	1
40.000000	1
40.225000	1
41.155883	15
43.092818	78
43.850000	1
44.150000	1
45.200001	1
50.200001	1
50.500000	1
50.900002	1
51.299999	1
51.799999	1
52.000000	1
52.700001	1
53.112500	3
55.057742	371
55.977778	4
57.088630	167
59.299999	1
61.099998	1
64.199997	1
64.400002	1
64.699997	2
65.099998	3
67.097751	615
69.069200	427
70.089999	2
71.091561	51
71.850002	1
72.099998	1
72.300003	1
72.674997	1
73.016666	1
73.400002	1
73.599998	1
74.900002	1
75.099998	1
75.300003	1
77.061314	30
77.699997	2
79.010106	347
81.087576	999
83.083800	216
84.300002	2
85.091665	5
87.800003	1
88.699997	1
88.950001	1
91.037725	144
93.068811	467
95.023658	854
97.072093	37
98.000000	1
98.699997	1
101.000000	1
101.800003	1
102.599998	1
102.800003	1
103.699997	2
105.035294	110
107.037825	266
109.063687	312
110.049999	1
110.400002	1
110.599998	1
111.135712	3
111.800003	1
113.699997	1
114.825003	1
115.199999	1
116.250000	1
117.055556	4
119.058408	49
121.066917	115
123.015023	46
123.800003	1
124.850002	1
126.900002	1
129.100006	1
129.300003	1
130.000000	1
130.360001	1
131.064707	4
132.212498	2
133.080000	35
133.699997	2
134.046157	3
135.037188	69
136.000000	1
137.057142	3
141.300003	1
142.399994	1
143.000000	1
143.199997	1
143.699997	1
145.013332	6
145.771428	2
146.212498	2
147.129231	28
147.899994	1
149.102502	17
150.199997	1
150.699997	1
151.100006	1
155.199997	1
157.050003	1
157.699997	1
158.100006	1
158.300003	1
158.899994	2
159.257143	3
159.800003	1
160.166667	1
160.449997	1
160.800003	2
161.100006	2
162.100006	1
162.349998	1
163.250000	3
167.199997	1
167.699997	1
169.399994	1
170.600006	1
171.100006	1
171.899994	1
172.699997	1
173.000000	1
173.399994	1
173.800003	1
174.174999	1
174.699997	1
175.183332	1
175.399994	1
175.849998	1
176.800003	1
177.000000	1
177.500000	1
181.100006	1
182.699997	1
183.600006	1
184.949997	1
185.199997	1
185.500000	1
186.199997	1
186.699997	1
187.000000	1
187.300003	1
187.550003	1
188.250000	1
189.140002	2
189.466665	1
190.500000	1
190.699997	1
191.000000	1
191.300003	1
193.300003	1
199.300003	1
199.600006	1
201.000000	1
201.399994	1
201.899994	1
202.800003	1
203.050003	1
203.300003	1
203.500000	1
205.100006	1
205.399994	1
206.650002	1
211.000000	1
214.399994	1
214.699997	1
214.899994	1
215.300003	1
216.250000	1
216.550003	1
216.849998	1
217.300003	1
226.300003	1
226.500000	1
228.600006	1
229.250000	1
231.050003	1
231.300003	1
231.899994	1
236.800003	1
238.800003	1
239.199997	1
240.849998	1
241.399994	1
241.899994	2
242.800003	1
243.000000	1
243.399994	1
244.100006	1
244.300003	1
251.000000	1
252.000000	1
256.200012	1
257.100006	1
258.000000	1
259.700012	1
262.899994	1
263.500000	1
264.399994	1
266.299988	1
269.200012	1
270.899994	1
271.100006	1
279.449997	1
283.200012	1
284.200012	1
287.799988	1
294.000000	1
296.000000	1
297.399994	1
301.399994	1
313.050003	1
313.500000	1
313.799988	1
314.299988	1
325.299988	1
326.700012	1
341.299988	1
342.000000	1
356.200012	1
356.799988	1
371.299988	1
