Mass spectrum: 1mPFOS; LC-ESI-QQ; MS2; CE50eV
Name: 1mPFOS
Class: Non-Natural Product
Formula: C8HF17O3S
Exact mass: 499.93749
SMILES: FC(F)(F)C(F)(F)C(F)(F)C(F)(F)C(F)(F)C(F)(F)C(F)(C(F)(F)F)S(O)(=O)=O
InChI: InChI=1S/C8HF17O3S/c9-1(10,3(13,14)5(17,18)7(20,21)22)2(11,12)4(15,16)6(19,8(23,24)25)29(26,27)28/h(H,26,27,28)
Instrument: Xevo TQ, Waters
Instrument type: LC-ESI-QQ
Ms type: MS2
Ion mode: NEGATIVE
Collision energy: 50eV
Retention time: 14.840067 min
Base peak: 98.780609
Precursor m/z: 498.9
Precursor type: [M-H]-
m/z	relative intensity
79.603112	128
98.869183	999
118.824206	284
129.710625	113
168.698660	283
218.617014	183
254.768154	45
406.566715	39
444.038030	64
499.110620	165
