Mass spectrum: 53FTA; LC-ESI-QQ; MS
Name: 53FTA
Name: 53Fluorotelomer Acid
Name: 4,4,5,5,6,6,7,7,8,8,8-Undecafluorooctanoic acid
Class: Non-Natural Product
Formula: C8H5F11O2
Exact mass: 342.01139
SMILES: OC(=O)CCC(F)(F)C(F)(F)C(F)(F)C(F)(F)C(F)(F)F
InChI: InChI=1S/C8H5F11O2/c9-4(10,2-1-3(20)21)5(11,12)6(13,14)7(15,16)8(17,18)19/h1-2H2,(H,20,21)
Instrument: Xevo TQ MS (Waters)
Instrument type: LC-ESI-QQ
Ms type: MS
Ion mode: NEGATIVE
Retention time: 0.016833
Base peak: 341.132111
Ion type: [M-H]-
m/z	relative intensity
58.964134	124
62.931816	67
74.350632	32
74.918922	94
88.972420	56
135.041641	85
217.036972	57
237.020798	198
256.419952	34
257.043793	123
341.038422	999
