Mass spectrum: Ethinyl estradiol; LC-APPI-QQ; MS2; CE:40 V; [M-H2O+H]+
Name: Ethinyl estradiol
Class: Non-Natural Product; Steroid hormone
Formula: C20H24O2
Exact mass: 296.17763
SMILES: Oc(c4)cc(C3)c(c4)C(C2)C(C3)C(C1)C(C)(C2)C(O)(C#C)C1
InChI: InChI=1S/C20H24O2/c1-3-20(22)11-9-18-17-6-4-13-12-14(21)5-7-15(13)16(17)8-10-19(18,20)2/h1,5,7,12,16-18,21-22H,4,6,8-11H2,2H3
Instrument: API2000
Instrument type: LC-APPI-QQ
Ms type: MS2
Ion mode: POSITIVE
Retention time: 0.820883 min
Base peak: 159.000000
Precursor m/z: 279.300000
Precursor type: [M-H2O+H]+
m/z	relative intensity
39.000000	1
39.299999	1
39.599998	1
39.799999	1
40.049999	1
41.160000	5
41.750000	1
42.299999	1
42.900001	3
44.900002	1
50.599998	1
51.060000	1
51.500000	1
51.700001	1
52.650000	1
53.011765	2
53.364286	1
53.900002	1
55.063227	48
56.099998	1
57.174999	1
58.750000	1
59.400002	1
62.200001	1
62.700001	1
62.900002	1
63.450001	1
64.199997	1
65.123730	5
65.766668	1
67.135494	58
68.000000	1
69.076743	8
70.599998	1
70.850002	1
71.099998	1
71.400002	1
73.300003	1
73.699997	1
74.400002	1
74.599998	1
75.500000	1
77.075940	48
79.022303	124
81.107484	96
82.000000	1
82.300003	1
83.222222	2
84.950001	1
85.500000	1
86.099998	1
87.099998	1
87.300003	1
88.099998	1
89.033333	1
91.042089	319
93.094677	95
95.064488	73
97.000000	1
97.400002	1
98.599998	1
99.199997	1
99.900002	1
100.199997	1
100.699999	1
101.099998	1
101.599998	1
103.058129	41
105.044629	540
107.035389	146
108.199997	1
109.109722	13
110.199997	1
110.950001	1
111.199997	1
112.649998	1
113.000000	1
113.224998	1
115.046417	58
117.104601	59
119.074912	155
120.099998	1
121.070330	49
122.199999	1
122.900002	1
123.450001	1
123.850002	1
124.199997	1
125.199997	1
125.599998	1
127.073333	27
128.090685	29
129.089038	47
131.122801	203
133.096596	999
134.300003	1
135.070368	7
135.899994	1
136.899994	1
137.399994	1
138.100006	1
138.399994	1
139.170000	1
139.500000	1
141.127402	152
142.194445	10
144.060364	204
145.075153	103
147.124504	105
148.000000	1
149.086260	12
149.899994	1
150.500000	1
150.699997	1
151.300003	1
152.205085	11
153.091724	26
155.084146	22
157.116066	326
159.108242	884
160.437496	1
161.176474	3
161.899994	1
162.100006	1
162.500000	1
162.699997	1
163.099998	1
163.399994	1
165.105667	54
166.130555	13
167.150910	20
168.025002	3
169.064546	30
171.080669	49
172.229333	7
173.120524	21
174.399994	1
174.699997	1
174.899994	1
175.150002	1
175.500000	1
176.025002	1
177.078946	7
178.176992	10
179.154125	27
181.063450	36
182.174610	35
183.143262	54
184.122807	10
185.115733	68
186.200002	1
187.100003	1
188.100001	1
189.100006	1
189.379996	2
190.153625	6
191.189998	20
192.136365	3
193.177360	10
194.154608	52
195.118156	63
197.178055	36
198.207317	7
198.928570	4
199.254163	4
201.090612	38
202.075004	1
203.006061	6
203.800003	1
204.399994	2
205.135616	13
205.857141	1
206.171428	1
207.207785	15
209.127991	124
210.143333	11
211.131008	23
212.033335	1
212.500000	1
213.161905	4
214.500000	1
214.899994	1
215.100006	1
216.150002	1
217.250001	2
218.246665	3
219.036667	11
220.133334	4
221.179033	22
222.212435	17
223.127083	48
224.157694	9
224.881815	1
225.269231	1
225.600006	1
226.199997	1
226.899994	1
228.949997	1
229.300003	1
230.000000	1
230.600006	1
230.899994	1
231.239996	1
231.983332	1
232.250000	1
232.600006	1
233.096428	5
234.168750	3
235.095689	21
236.178195	24
237.114608	16
238.334286	3
239.000000	1
239.899994	1
241.699997	1
242.899994	1
243.399994	1
244.000000	1
244.500000	1
244.699997	1
244.899994	1
245.275002	1
245.550003	1
246.139999	1
246.550003	1
247.243752	3
247.975000	1
249.160761	14
250.228986	6
251.173529	12
252.100006	1
258.949997	1
259.200012	1
259.500000	1
260.399994	1
260.600006	1
261.357138	1
262.100006	1
262.700012	1
263.100006	2
264.211007	10
265.299988	1
275.700012	1
276.000000	1
276.500000	1
277.283325	1
278.000000	1
278.399994	1
279.198099	33
280.299988	1
