Mass spectrum: Campesterol; LC-APPI-QQ; MS
Name: Campesterol
Class: Natural Product; Sterol
Formula: C28H48O
Exact mass: 400.37052
SMILES: C(C(CCC(C)C(C4)C(C3C4)(C)CCC(C13)C(C2)(C(CC(C2)O)=CC1)C)C)(C)C
InChI: InChI=1S/C28H48O/c1-18(2)19(3)7-8-20(4)24-11-12-25-23-10-9-21-17-22(29)13-15-27(21,5)26(23)14-16-28(24,25)6/h9,18-20,22-26,29H,7-8,10-17H2,1-6H3/t19?,20?,22-,23?,24?,25?,26?,27?,28?/m0/s1
Instrument: API2000
Instrument type: LC-APPI-QQ
Ms type: MS
Ion mode: POSITIVE
Retention time: 0.821117 min
Base peak: 383.500000
Ion type: [M-H2O+H]+
m/z	relative intensity
201.187460	11
203.175923	29
205.147865	7
207.166826	7
209.167207	6
211.158158	7
213.133767	9
214.208443	3
215.177405	16
216.204627	3
217.216182	12
218.170074	3
219.171618	9
221.167722	7
223.142928	5
225.183671	5
227.198937	5
228.222531	2
229.223510	14
231.208953	9
232.197591	2
233.236729	12
235.165391	5
237.158798	18
238.136381	5
239.190947	7
241.270660	7
243.267141	32
244.288321	7
245.224595	7
247.261940	21
249.160155	6
251.150474	5
253.214434	5
255.232161	23
257.278133	27
259.247037	9
261.239908	14
263.163481	5
265.160817	3
267.154304	3
269.214497	4
271.214367	12
273.301753	16
275.251613	6
277.180130	3
279.168451	8
281.214386	3
283.214194	6
285.299532	16
287.287345	11
289.329861	7
291.254430	3
293.231544	2
295.230045	3
297.300571	6
299.356216	19
301.377108	14
305.301519	2
307.256492	2
308.274486	1
309.247600	2
311.335781	4
313.355871	7
315.383065	15
319.257795	2
321.285209	2
323.262068	2
325.307344	3
327.339365	5
329.285714	2
331.239576	1
333.208856	2
335.272406	2
337.330290	2
339.350001	4
341.366789	4
343.422491	7
347.249646	2
349.290133	2
351.299808	3
353.360569	3
355.383440	4
357.355852	4
359.342547	3
361.315695	4
363.325547	4
365.344509	5
367.411090	14
369.458659	19
371.431709	10
373.410849	8
375.414563	17
377.383448	15
379.408531	30
381.440907	65
383.486193	999
389.421064	7
391.421180	11
393.412378	8
395.408378	38
397.433301	148
399.459323	50
400.504927	17
401.477348	5
403.398864	1
405.414255	2
407.456519	2
409.426031	4
411.431960	5
413.417904	4
414.475603	2
415.476586	5
417.457887	2
419.489951	1
421.468525	1
423.450000	1
425.401053	1
427.397422	2
429.455410	3
430.490960	1
431.450693	1
433.411294	1
435.480463	1
437.488921	1
438.571424	1
439.383912	1
440.444681	1
441.382996	1
443.417163	1
445.457209	1
446.437497	1
447.493626	1
448.500000	1
449.505857	1
451.529311	1
453.408182	1
455.496225	1
456.503077	1
457.424027	1
458.100006	1
459.422306	1
461.408824	1
463.512807	1
465.485157	1
467.445252	1
468.451850	1
469.492892	1
470.219351	1
470.500000	1
471.515545	1
473.502384	2
474.532828	1
475.459722	1
476.560258	1
477.407438	1
478.439996	1
479.415345	1
481.521455	1
482.481650	1
483.480486	1
485.538776	1
487.548739	2
489.560553	7
490.554400	2
492.289276	1
493.495655	1
494.520316	1
495.490001	1
496.702633	1
497.607895	1
498.500000	1
499.517858	1
