Mass spectrum: 53FTA; LC-ESI-QQ; MS2; CE60; [M-H]-
Name: 53FTA
Name: 53Fluorotelomer Acid
Name: 4,4,5,5,6,6,7,7,8,8,8-Undecafluorooctanoic acid
Class: Non-Natural Product
Formula: C8H5F11O2
Exact mass: 342.01139
SMILES: OC(=O)CCC(F)(F)C(F)(F)C(F)(F)C(F)(F)C(F)(F)F
InChI: InChI=1S/C8H5F11O2/c9-4(10,2-1-3(20)21)5(11,12)6(13,14)7(15,16)8(17,18)19/h1-2H2,(H,20,21)
Instrument: Xevo TQ MS (Waters)
Instrument type: LC-ESI-QQ
Ms type: MS2
Ion mode: NEGATIVE
Collision energy: 60
Retention time: 0.016817
Base peak: 97.894821
Precursor m/z: 341
Precursor type: [M-H]-
m/z	relative intensity
62.975243	64
66.986610	67
68.788284	89
92.301216	140
92.831451	412
93.491234	47
97.980782	999
98.541992	153
113.974411	30
116.960320	515
128.842377	43
142.998566	428
143.632431	49
147.922470	75
167.061066	448
217.051682	120
