Mass spectrum: Ethinyl estradiol; LC-APPI-QQ; MS2; CE:20 V; [M-H2O+H]+
Name: Ethinyl estradiol
Class: Non-Natural Product; Steroid hormone
Formula: C20H24O2
Exact mass: 296.17763
SMILES: Oc(c4)cc(C3)c(c4)C(C2)C(C3)C(C1)C(C)(C2)C(O)(C#C)C1
InChI: InChI=1S/C20H24O2/c1-3-20(22)11-9-18-17-6-4-13-12-14(21)5-7-15(13)16(17)8-10-19(18,20)2/h1,5,7,12,16-18,21-22H,4,6,8-11H2,2H3
Instrument: API2000
Instrument type: LC-APPI-QQ
Ms type: MS2
Ion mode: POSITIVE
Retention time: 0.820833 min
Base peak: 279.200012
Precursor m/z: 279.300000
Precursor type: [M-H2O+H]+
m/z	relative intensity
39.500000	1
40.799999	1
41.299999	1
42.700001	1
43.000000	1
43.200001	1
43.400002	1
47.200001	1
50.900002	1
51.099998	1
53.000000	1
53.299999	1
53.599998	1
54.325000	1
55.127143	2
55.799999	1
56.350000	1
56.900002	1
57.599998	1
62.000000	1
64.699997	1
65.000000	1
65.549999	1
66.936843	2
67.950001	1
69.104000	2
70.750000	1
71.099998	1
71.400002	1
76.000000	1
76.475000	1
77.000000	1
77.966667	1
79.096759	7
79.876472	1
81.119391	24
82.340001	1
83.089362	3
84.300003	1
84.699997	1
84.900002	1
85.357144	1
86.900002	1
87.099998	1
88.199997	1
89.099998	1
89.300003	1
89.500000	1
89.962501	1
91.040952	21
93.111531	34
95.057911	43
96.199997	1
96.400002	1
97.155556	2
99.300003	1
101.500000	1
101.950001	1
102.500000	1
103.208331	1
103.691664	1
105.037300	58
107.037425	55
109.087791	19
110.000000	1
110.900002	1
111.199997	1
113.599998	1
114.099998	1
114.500000	1
114.872224	1
115.933334	1
116.599998	1
117.108182	4
119.075852	100
121.059335	26
122.900002	1
123.099998	1
123.500000	1
124.900002	1
125.500000	1
126.099998	1
126.500000	1
127.142856	1
127.962500	1
128.500000	1
129.124001	2
129.699997	1
131.152446	22
133.100542	739
135.139063	34
136.650002	1
137.000000	1
137.199997	1
137.399994	1
139.699997	1
140.399994	1
141.035443	3
141.399994	1
141.933329	1
143.072838	3
145.066717	44
147.122362	117
149.010063	11
151.050003	1
151.800003	1
152.000000	1
152.474998	1
153.046666	1
153.800003	1
154.100006	1
154.300003	1
155.202941	2
157.107691	160
159.100548	512
161.102273	6
162.399994	1
162.899999	1
163.300003	1
164.100006	1
165.032355	2
166.199997	1
166.985714	2
168.100006	1
169.069232	3
171.077248	50
173.158567	21
173.800003	1
175.218184	1
175.949997	1
176.500000	1
176.699997	1
177.100004	1
178.200003	1
179.187098	2
180.100006	1
181.044896	3
181.399994	1
183.123249	66
185.105785	86
186.175003	1
187.151064	6
188.000000	1
188.899994	1
189.100006	1
189.349998	1
189.800003	1
190.066671	1
190.300003	1
190.600006	1
191.212501	1
191.899994	1
193.144069	2
195.158125	21
197.165366	48
198.082860	2
199.164452	19
200.882348	1
202.000000	1
202.699997	1
202.942854	1
203.399994	1
204.191666	1
205.119445	2
206.000000	1
206.500000	1
207.190000	1
209.138813	90
210.162501	3
211.084685	44
212.266668	1
213.233017	4
213.899994	1
214.100006	1
214.750000	1
215.300003	1
217.199997	1
217.500000	1
218.100006	1
218.300003	1
219.065386	2
219.949997	1
220.242855	1
221.133335	3
223.166612	81
224.204760	6
225.174138	4
226.500000	1
226.899994	1
228.899994	1
229.699997	1
229.899994	1
230.199997	1
230.949997	1
231.300003	1
231.500000	1
231.699997	1
231.899994	1
232.199997	1
233.161293	1
233.924995	1
234.300003	1
235.112122	3
236.136904	6
237.217580	35
238.216071	4
239.050003	1
239.500000	1
240.399994	1
242.949997	1
243.399994	1
243.899994	1
245.299998	1
245.800003	1
247.188059	2
248.000000	1
248.199997	1
249.111112	2
251.202321	60
252.600006	1
253.300003	1
257.399994	1
259.100006	1
259.399994	1
260.100006	1
260.299988	1
261.315004	2
262.500000	1
262.700012	1
264.241764	11
265.200012	1
265.399994	1
273.000000	1
273.200012	1
273.799988	1
274.100006	1
274.799988	1
275.050003	1
275.399994	1
275.600006	1
275.799988	1
277.075762	2
279.249372	999
281.299988	1
282.399994	1
