Mass spectrum: Estriol; LC-APPI-QQ; MS2; CE:20 V; [M-2H2O+H]+
Name: Estriol
Class: Natural Product; Steroid hormone
Formula: C18H24O3
Exact mass: 288.17254
SMILES: Oc(c4)cc(C3)c(c4)C(C2)C(C3)C(C1)C(C)(C2)C(O)C(O)1
InChI: InChI=1S/C18H24O3/c1-18-7-6-13-12-5-3-11(19)8-10(12)2-4-14(13)15(18)9-16(20)17(18)21/h3,5,8,13-17,19-21H,2,4,6-7,9H2,1H3/t13?,14?,15?,16-,17+,18?/m1/s1
Instrument: API2000
Instrument type: LC-APPI-QQ
Ms type: MS2
Ion mode: POSITIVE
Retention time: 0.820883 min
Base peak: 253.100006
Precursor m/z: 253.200000
Precursor type: [M-2H2O+H]+
m/z	relative intensity
37.299999	1
38.700001	1
38.900002	1
40.599998	1
40.900002	1
42.099998	1
43.099998	1
44.700001	1
54.799999	1
55.200001	1
56.700001	1
57.000000	1
58.700001	1
64.500000	1
66.500000	1
67.200000	1
67.900002	1
68.300003	1
68.699997	1
69.199997	1
69.450001	1
70.400002	1
71.000000	1
71.199997	1
75.000000	1
76.699997	1
77.099998	1
77.300003	1
77.599998	1
77.900002	1
78.400002	1
79.000000	1
79.800003	1
81.135673	12
82.000000	1
82.300003	1
82.599998	1
82.916668	1
83.400002	1
84.900002	1
88.800003	1
89.099998	1
89.400002	1
90.099998	1
90.500000	1
90.800003	1
91.199997	1
91.900002	1
93.065518	9
95.034210	3
97.099998	1
98.699997	1
98.900002	1
100.800003	1
102.850002	1
104.000000	1
105.066666	1
105.800003	1
106.099998	1
107.012571	24
107.900002	1
109.059741	5
109.900002	1
112.300003	1
112.699997	1
114.099998	1
114.800003	1
115.099998	1
115.350002	1
116.300003	1
116.699997	1
117.000000	1
117.199997	1
117.900002	1
118.574999	1
119.030000	1
119.800003	1
120.233334	1
121.020001	6
121.900002	1
123.149998	1
125.049999	1
125.599998	1
127.000000	1
127.250000	1
127.500000	1
127.900002	1
128.300003	1
128.600006	1
128.800003	1
129.199997	1
129.399994	1
130.699997	1
131.135292	1
133.081533	15
133.800003	1
134.600001	1
135.000000	1
135.349998	1
136.600006	1
139.000000	1
139.399994	1
140.600006	1
141.000000	1
141.300003	1
142.000000	1
142.600006	1
142.916662	1
143.299997	1
143.887495	1
145.015873	15
145.899998	1
147.043010	3
148.699997	1
149.000000	1
149.399994	1
149.899994	1
150.899994	1
151.224998	1
151.699997	1
151.899994	1
152.100006	1
152.849998	1
153.500000	1
153.800003	1
154.000000	1
154.500000	1
154.799999	1
157.061808	134
158.109091	1
159.074285	31
160.250000	1
161.020339	4
162.800003	1
163.699997	1
164.863634	1
165.399994	1
167.000000	1
167.399994	1
167.750000	1
168.000000	1
168.199997	1
168.915217	2
169.899994	1
171.003495	10
171.899994	1
173.173554	4
174.000000	1
174.699997	1
175.050003	1
175.300003	1
175.500000	1
176.399994	1
177.300003	1
177.600006	1
177.800003	1
178.500000	1
179.014706	2
179.899994	1
181.010001	1
181.333336	1
182.116671	1
183.103816	27
185.051020	7
186.699997	1
187.133336	1
187.550003	1
188.699997	1
189.000000	1
189.500000	1
189.800003	1
191.000000	1
191.349998	1
191.600006	1
191.849998	1
192.100006	1
192.300003	1
193.089584	2
193.981818	1
195.052084	2
197.112173	56
198.066668	5
198.858331	1
199.233334	1
199.800003	1
201.100006	1
202.800003	1
203.000000	1
203.600006	1
204.849998	1
205.199997	1
205.399994	1
205.750000	1
206.000000	1
206.374996	1
206.978947	1
207.949997	1
209.188237	3
209.970453	1
210.318178	2
211.115770	19
211.993336	1
212.899994	1
214.000000	1
215.899994	1
216.800003	1
217.100006	1
217.399994	1
218.800003	1
219.199997	1
220.142859	1
221.045802	9
221.787502	1
222.600006	1
223.349998	1
225.147710	18
226.000000	1
226.399994	1
230.899994	1
233.000000	1
233.500000	1
234.300003	1
235.079562	5
236.100001	1
236.699997	1
237.250000	1
238.060000	2
245.600006	1
248.699997	1
249.199997	1
249.399994	1
250.399994	1
251.159091	3
253.186670	999
254.399994	1
288.000000	1
