Mass spectrum: Progesterone; LC-APPI-QQ; MS2; CE:10 V; [M+H]+
Name: Progesterone
Class: Natural Product; Steroid hormone
Formula: C21H30O2
Exact mass: 314.22458
SMILES: O=C(C4)C=C(C3)C(C)(C4)C(C2)C(C3)C(C1)C(C)(C2)C(C(C)=O)C1
InChI: InChI=1S/C21H30O2/c1-13(22)17-6-7-18-16-5-4-14-12-15(23)8-10-20(14,2)19(16)9-11-21(17,18)3/h12,16-19H,4-11H2,1-3H3
Instrument: API2000
Instrument type: LC-APPI-QQ
Ms type: MS2
Ion mode: POSITIVE
Retention time: 0.820850 min
Base peak: 315.299988
Precursor m/z: 315.400000
Precursor type: [M+H]+
m/z	relative intensity
57.200001	1
69.099998	1
79.099998	1
79.500000	1
80.699997	1
81.300003	1
82.599998	1
82.900002	1
83.300003	1
84.000000	1
84.599998	1
84.900002	1
90.800003	1
91.400002	1
93.099998	1
93.300003	1
94.799999	1
95.183331	1
95.599998	1
97.090032	9
97.850002	1
98.199997	1
98.500000	1
99.099998	1
105.099998	1
105.500000	1
106.866669	1
109.087667	5
109.699997	1
111.149998	1
111.400002	1
113.149998	1
115.000000	1
119.225000	1
119.599998	1
120.800003	1
121.800003	1
122.350000	1
123.121427	1
123.900002	1
124.800003	1
125.300003	1
126.800003	1
128.399994	1
128.600006	1
129.100006	1
129.300003	1
130.000000	1
130.800003	1
131.075005	1
131.349998	1
132.699997	1
132.899994	1
133.224998	1
134.833328	1
135.133336	1
136.699997	1
136.899994	1
137.150002	1
138.949997	1
139.199997	1
143.000000	1
144.399994	1
145.046663	1
146.100006	1
146.399994	1
147.272724	1
148.300003	1
148.500000	1
148.699997	1
149.025002	1
149.600006	1
150.699997	1
151.300003	1
151.500000	1
153.300003	1
155.000000	1
155.199997	1
155.699997	1
156.250000	1
157.212498	1
158.199997	1
158.500000	1
158.971427	1
159.271426	1
159.699997	1
160.199997	1
160.399994	1
160.899994	1
161.250000	1
161.800003	1
162.300003	1
163.171425	1
164.199997	1
165.100003	1
166.899994	1
167.200002	1
169.250000	1
170.250000	1
170.919045	1
172.500000	1
173.243752	1
173.800003	1
174.250000	1
174.550003	1
174.879996	1
175.339999	1
176.100006	1
176.500000	1
177.228573	1
178.199997	1
179.099998	1
179.500000	1
180.600006	1
181.050003	1
182.000000	1
183.100001	1
184.250000	1
184.600006	1
185.242859	1
185.800003	1
187.207999	1
188.199997	1
189.063998	1
189.414995	1
189.899994	1
190.500000	1
190.912495	1
191.237499	1
191.600006	1
193.000000	1
193.399994	1
194.800003	1
195.399994	1
197.287497	1
199.184615	1
199.500000	1
200.300003	1
201.163724	1
202.600006	1
202.975002	1
203.314287	1
205.200002	1
206.000000	1
207.300003	1
208.000000	1
208.650002	1
209.149998	1
209.600006	1
210.300003	1
210.600006	1
210.800003	1
211.120004	1
211.800003	1
212.000000	1
213.250878	1
213.699997	1
215.160366	2
216.199997	1
217.000000	1
217.383329	1
217.650002	1
218.150002	1
219.160524	1
220.699997	1
221.000000	1
221.500000	1
222.100006	1
222.349998	1
223.167742	1
223.800003	1
224.100006	1
224.699997	1
225.184617	1
227.233335	1
227.800003	1
228.100006	1
228.300003	1
229.220001	1
230.399994	1
231.210001	1
231.899994	1
232.600006	1
233.156521	1
234.800003	1
235.300003	1
237.300003	1
237.899994	1
238.399994	1
238.699997	1
239.274468	1
240.399994	1
241.244444	2
242.899994	1
243.299995	1
243.600006	1
244.199997	1
244.399994	1
245.157145	1
246.100006	1
250.300003	1
250.500000	1
250.974998	1
251.475002	1
253.263638	1
254.399994	1
255.258065	3
256.200012	1
256.500000	1
257.273328	1
258.799988	1
259.200012	1
259.600006	1
264.299988	1
265.299988	1
267.100006	1
267.500000	1
267.799988	1
268.000000	1
269.200012	1
270.200012	1
270.500000	1
270.700012	1
271.193101	1
272.000000	1
272.299988	1
272.500000	1
273.330280	2
274.299988	1
277.000000	1
277.200012	1
277.799988	1
278.299988	1
278.600006	1
279.267565	4
282.000000	1
282.299988	1
282.799988	1
283.071433	1
283.449997	1
283.899994	1
284.100006	1
285.200012	1
286.799988	1
287.299988	1
287.600006	1
293.000000	1
295.200012	1
295.500000	1
295.700012	1
297.275163	17
298.100006	1
298.299988	1
299.799988	1
300.650009	1
305.700012	1
306.399994	1
309.500000	1
310.299988	1
310.550003	1
311.000000	1
311.299988	1
311.700012	1
312.000000	1
312.200012	1
313.216675	1
315.284301	999
316.650009	1
317.200012	1
317.399994	1
319.000000	1
