Mass spectrum: 62FTA; LC-ESI-QQ; MS2; CE60; [M-H]-
Name: 62FTA
Name: 62Fluorotelomer Acid
Name: 3,3,4,4,5,5,6,6,7,7,8,8,8-Tridecafluorooctanoic acid
Class: Non-Natural Product
Formula: C8H3F13O2
Exact mass: 377.99255
SMILES: OC(=O)CC(F)(F)C(F)(F)C(F)(F)C(F)(F)C(F)(F)C(F)(F)F
InChI: InChI=1S/C8H3F13O2/c9-3(10,1-2(22)23)4(11,12)5(13,14)6(15,16)7(17,18)8(19,20)21/h1H2,(H,22,23)
Instrument: Xevo TQ MS (Waters)
Instrument type: LC-ESI-QQ
Ms type: MS2
Ion mode: NEGATIVE
Collision energy: 60
Retention time: 0.016817
Base peak: 93.099754
Precursor m/z: 377
Precursor type: [M-H]-
m/z	relative intensity
63.161488	255
63.433968	97
68.728256	239
68.997414	138
74.066116	131
92.295433	231
92.953194	999
99.629440	88
109.165344	95
121.159409	172
121.463470	71
124.037201	116
142.847458	205
166.689728	80
192.850433	795
242.911819	377
254.652328	78
286.822815	182
