Mass spectrum: Brassicasterol; LC-APPI-QQ; MS2; CE:50 V; [M-H2O+H]+
Name: Brassicasterol
Class: Natural Product; Sterol
Formula: C28H46O
Exact mass: 398.35487
SMILES: C(C(C=CC(C)C(C4)C(C3C4)(C)CCC(C13)C(C2)(C(CC(C2)O)=CC1)C)C)(C)C
InChI: InChI=1S/C28H46O/c1-18(2)19(3)7-8-20(4)24-11-12-25-23-10-9-21-17-22(29)13-15-27(21,5)26(23)14-16-28(24,25)6/h7-9,18-20,22-26,29H,10-17H2,1-6H3/b8-7+/t19?,20?,22-,23?,24?,25?,26?,27?,28?/m0/s1
Instrument: API2000
Instrument type: LC-APPI-QQ
Ms type: MS2
Ion mode: POSITIVE
Retention time: 0.820833 min
Base peak: 68.900002
Precursor m/z: 381.400000
Precursor type: [M-H2O+H]+
m/z	relative intensity
39.000000	1
39.900002	1
40.099998	1
40.500000	1
41.178787	7
43.064925	54
44.099998	1
44.400002	1
49.799999	1
50.900002	1
51.900002	1
52.299999	1
53.000000	1
55.054580	212
55.970834	5
57.125953	275
58.400000	1
59.799999	1
64.500000	1
65.149998	3
67.105420	290
69.084919	921
71.095775	143
72.099998	1
72.350002	1
75.099998	1
75.300003	1
76.049999	1
77.043590	16
79.040497	236
81.095660	995
83.094347	436
83.800003	4
85.165441	27
86.099998	1
87.900002	1
88.400002	1
88.699997	1
88.900002	1
89.199997	1
89.699997	2
91.036280	219
93.080122	597
95.053657	999
97.086231	117
98.000000	1
98.300003	1
99.300003	1
101.000000	1
101.450001	1
102.000000	1
102.500000	1
102.837502	3
103.293750	6
103.766668	5
105.045657	618
107.027251	601
109.096959	677
111.082796	19
112.099998	1
113.300003	1
114.300003	1
114.963637	4
115.385716	3
116.063635	4
117.055778	91
119.051818	444
121.089142	301
123.061875	129
124.250000	1
124.500000	1
124.775002	1
125.371431	1
126.960001	1
127.350002	1
128.092863	3
129.046826	51
131.130033	239
133.128892	324
135.100233	347
136.300003	1
136.500000	1
136.993103	12
139.050003	1
140.100006	1
140.981817	2
141.300003	1
143.084925	80
145.086207	410
147.122905	479
148.068749	10
149.125880	161
150.399994	1
151.193333	6
151.800003	1
152.899994	1
153.100006	1
154.199997	1
154.862497	3
155.200002	5
155.691664	2
157.143042	125
159.106409	485
161.124877	368
162.116671	1
163.170741	54
164.100006	1
164.349998	1
165.090909	4
166.100006	1
166.775002	1
167.000000	1
167.199997	1
167.899994	1
169.146430	6
170.184998	4
171.066956	93
173.145728	335
174.250000	5
175.103334	109
176.300003	1
177.100001	14
177.600006	2
178.500000	1
178.699997	1
179.050003	1
179.349998	2
180.100006	1
180.800003	1
181.100006	1
181.800003	1
183.213639	9
183.885714	6
185.177715	145
187.114301	186
189.181817	84
190.399994	1
191.160001	7
192.899994	1
193.300003	1
193.899994	1
194.800003	1
195.000000	1
195.600006	1
196.166667	1
196.500000	1
196.985715	8
197.331035	6
199.180976	157
201.163518	186
203.174685	32
204.299998	1
204.600006	1
205.217856	6
206.500000	1
207.100006	1
207.300003	1
207.899994	1
208.849998	1
209.200002	1
209.849998	1
210.174999	1
210.800003	4
212.337836	15
213.175688	176
214.156411	16
215.187686	108
216.100006	1
216.300003	1
217.279311	12
219.000000	2
221.399994	1
223.100006	1
223.300003	1
223.500000	1
223.800003	1
224.100006	1
224.399994	1
225.173916	9
226.219044	8
227.216705	87
229.269713	35
230.000000	1
230.199997	1
231.160001	6
232.449997	1
233.040002	1
233.600006	1
235.100006	1
235.500000	1
236.899994	1
238.199997	1
238.399994	1
239.220896	27
240.013637	4
241.230902	94
242.100006	1
242.349998	1
243.313699	15
244.199997	1
245.112499	3
245.562504	3
247.050003	1
247.300003	1
247.600006	1
249.199997	1
250.300003	1
251.100006	1
252.199997	1
253.280646	6
254.181580	15
255.238888	58
256.700012	1
257.251220	8
258.100006	1
258.500000	1
258.799988	1
259.242850	3
259.625008	2
260.700012	1
261.000000	1
261.399994	1
262.299988	1
264.500000	1
265.050003	1
265.600006	1
265.799988	1
266.600006	1
266.799988	1
267.188571	7
268.163638	2
269.281082	30
270.500000	1
271.160010	8
271.441173	7
271.899994	1
272.299988	1
273.279999	4
275.500000	1
276.899994	1
277.799988	1
278.050003	1
278.399994	1
279.000000	1
279.200012	1
279.399994	1
280.250000	1
280.600006	1
281.279993	2
281.874992	1
282.171435	1
283.254095	12
283.949997	1
284.500000	1
285.000000	3
285.360000	11
286.100006	1
286.299988	1
286.949997	1
287.200012	1
287.500000	1
291.000000	1
293.100006	1
293.299988	1
294.000000	1
294.299988	1
295.100006	1
295.500000	1
296.000000	1
296.299988	1
297.343858	23
299.299988	3
299.600006	3
302.000000	1
303.200012	1
304.700012	1
306.899994	1
307.299988	1
308.500000	1
309.200012	1
309.500000	1
309.700012	1
310.100006	1
310.299988	1
311.467693	13
312.399994	1
312.600006	1
313.500000	1
313.899994	1
320.200012	1
321.000000	1
322.799988	1
323.050003	1
323.299988	1
323.500000	2
324.000000	1
324.299988	1
325.250005	5
326.500000	1
326.899994	1
335.200012	1
336.200012	1
336.600006	1
337.000000	1
337.399994	1
337.600006	1
338.200012	1
338.600006	1
339.200012	1
339.399994	1
339.600006	1
347.000000	1
347.899994	1
350.399994	1
350.799988	1
351.324989	1
351.600006	1
352.799988	1
353.050003	1
353.500000	1
353.700012	1
361.899994	1
365.750000	1
366.299988	1
380.500000	1
380.799988	1
381.405103	40
