Mass spectrum: Dihydrotestosterone; LC-APPI-QQ; MS2; CE:40 V; [M+CH3]+
Name: Dihydrotestosterone
Class: Natural Product; Steroid hormone
Formula: C19H30O2
Exact mass: 290.22458
SMILES: O=C(C4)CC([H])(C3)C(C)(C4)C(C2)C(C3)C(C1)C(C)(C2)C(O)C1
InChI: InChI=1S/C19H30O2/c1-18-9-7-13(20)11-12(18)3-4-14-15-5-6-17(21)19(15,2)10-8-16(14)18/h12,14-17,21H,3-11H2,1-2H3/t12-,14?,15?,16?,17-,18?,19?/m0/s1
Instrument: API2000
Instrument type: LC-APPI-QQ
Ms type: MS2
Ion mode: POSITIVE
Retention time: 0.820833 min
Base peak: 85.400002
Precursor m/z: 305.400000
Precursor type: [M+CH3]+
m/z	relative intensity
39.400002	1
40.599998	1
40.799999	1
41.299999	1
43.082609	8
44.599998	1
44.900002	1
45.099998	1
45.350000	1
50.200001	1
50.599998	1
50.950001	1
51.400002	1
52.299999	1
52.850000	1
53.200001	1
53.400002	1
55.090441	91
56.000000	1
56.883334	6
57.400002	4
57.799999	1
58.250000	1
58.980000	7
63.799999	1
64.650000	1
65.099998	1
65.366669	2
65.599998	1
67.100000	133
68.371431	5
69.116666	48
70.033333	2
71.072413	39
72.000000	1
73.176470	6
75.099998	1
77.100001	16
79.003093	194
81.097833	584
82.000000	3
82.500000	5
83.116868	55
85.090791	999
86.139998	2
86.400002	1
86.699997	1
86.900002	1
88.400002	1
88.699997	1
89.099998	1
91.048500	133
93.102799	262
95.071972	281
96.025000	1
96.400002	2
97.164748	46
98.900002	4
99.199997	2
99.400002	1
101.900002	1
102.199997	1
102.500000	1
102.800003	1
103.174997	1
103.800003	2
105.040333	200
105.800003	2
107.078082	170
109.108181	73
110.000000	1
110.574999	1
111.102985	22
111.699997	1
111.900002	1
112.099998	1
112.500000	1
113.235000	7
114.400002	1
115.099998	2
115.800003	1
117.089534	57
118.199997	8
119.069091	183
119.900002	3
121.126210	165
121.750000	2
122.342858	5
123.044067	39
124.049999	1
124.400002	1
125.087499	5
125.500000	1
125.699997	1
126.599998	1
127.099998	1
128.000000	3
129.076362	37
129.959998	7
131.120082	163
133.145727	156
135.150765	109
135.950001	1
136.500000	1
137.087096	10
138.050003	1
138.600006	1
138.899994	2
139.183337	4
140.300003	1
140.949997	1
141.399997	3
142.100004	4
143.101036	64
145.130711	263
145.944444	6
147.181884	138
147.899994	2
149.179488	26
150.100006	1
150.300003	1
151.214815	9
152.800003	1
153.250000	1
153.600006	1
154.100006	1
154.399994	1
155.100001	4
155.575005	1
156.142859	5
157.143821	59
159.149375	267
159.899994	1
161.166481	180
161.899994	1
162.399994	1
163.067504	13
163.699997	1
164.100006	1
164.300003	1
164.500000	1
165.138712	10
165.699997	1
166.050003	1
166.399994	1
167.100006	1
167.399994	1
168.100006	1
168.500000	1
169.099999	6
171.094410	107
173.183387	209
173.899994	1
175.159259	45
177.081823	7
177.899994	1
178.199997	1
178.399994	1
178.971427	2
179.399994	2
180.000000	1
180.399994	1
180.949997	1
181.300003	1
182.075005	1
182.399999	2
182.899994	1
183.199997	2
183.399994	3
185.164667	100
186.011765	11
187.214054	62
188.000000	1
188.399994	2
189.238596	38
190.100006	1
190.474998	1
191.133336	6
191.500000	2
191.699997	1
192.300003	1
193.000000	1
193.300003	1
193.699997	1
194.849998	1
195.100006	1
195.399994	1
195.899994	1
196.100006	1
196.300003	1
196.800003	2
197.042860	5
197.399994	1
198.158334	4
198.399994	2
199.233953	126
200.100006	4
201.178804	61
202.200000	2
203.022224	3
203.325001	1
203.600006	1
203.800003	1
204.100006	1
204.399994	1
205.000000	1
205.250000	2
205.849998	1
207.100006	1
207.300003	1
209.100006	1
209.349998	1
210.500000	1
211.100006	1
211.449997	2
212.000000	2
213.218867	53
215.204015	91
216.300003	1
216.500000	1
217.088894	6
217.600006	2
218.100006	1
218.416662	2
218.699997	1
219.000000	1
219.300003	1
220.449997	1
221.199997	1
221.449997	1
223.199997	1
224.199997	1
224.899994	1
225.275002	1
225.600006	1
226.100006	2
226.500000	2
227.293548	10
228.250000	1
228.500000	1
229.286664	10
231.173912	8
231.899994	1
232.250000	1
232.600006	1
232.962498	3
233.339999	7
233.899994	1
234.174999	1
235.300003	1
235.500000	1
236.300003	1
236.949997	1
239.300003	1
239.933329	2
240.474998	3
240.800003	1
241.060001	2
242.199997	1
242.800003	1
243.199997	1
243.500000	1
244.000000	1
244.199997	1
244.899994	1
245.239999	3
245.899994	1
246.899994	1
247.250000	1
247.550003	1
249.000000	1
249.299995	1
251.399994	1
252.699997	1
253.139999	2
253.525002	1
253.899994	1
254.100006	1
255.311429	222
256.100006	1
256.399994	1
257.100006	1
257.299988	1
257.500000	1
258.100006	1
259.000000	1
259.399994	1
260.100006	1
260.799988	1
261.100006	1
261.299988	1
262.200012	1
262.399994	1
262.600006	1
271.399994	1
272.200012	1
272.500000	1
272.899994	2
273.429409	11
274.500000	1
275.399994	1
276.000000	1
276.399994	1
277.000000	1
277.299988	1
277.600006	1
286.600006	1
287.200012	1
287.449997	1
288.799988	1
289.449997	1
289.799988	1
290.050003	1
290.299988	1
303.200012	1
303.899994	1
304.100006	1
304.449997	1
305.343638	37
