Mass spectrum: 62FTA; LC-ESI-QQ; MS2; CE40; [M-H]-
Name: 62FTA
Name: 62Fluorotelomer Acid
Name: 3,3,4,4,5,5,6,6,7,7,8,8,8-Tridecafluorooctanoic acid
Class: Non-Natural Product
Formula: C8H3F13O2
Exact mass: 377.99255
SMILES: OC(=O)CC(F)(F)C(F)(F)C(F)(F)C(F)(F)C(F)(F)C(F)(F)F
InChI: InChI=1S/C8H3F13O2/c9-3(10,1-2(22)23)4(11,12)5(13,14)6(15,16)7(17,18)8(19,20)21/h1H2,(H,22,23)
Instrument: Xevo TQ MS (Waters)
Instrument type: LC-ESI-QQ
Ms type: MS2
Ion mode: NEGATIVE
Collision energy: 40
Retention time: 0.016817
Base peak: 293.119446
Precursor m/z: 377
Precursor type: [M-H]-
m/z	relative intensity
62.982948	170
68.860367	119
74.066460	81
88.981842	52
92.915260	400
100.147675	46
102.823204	55
119.171036	86
124.283646	57
131.068619	121
143.119690	354
143.622177	62
169.141525	46
170.727646	31
192.829483	118
212.936066	31
243.082474	646
293.167206	999
