Mass spectrum: Androsterone; LC-APPI-QQ; MS2; CE:20 V; [M-H2O+H]+
Name: Androsterone
Class: Natural Product; Steroid hormone
Formula: C19H30O2
Exact mass: 290.22458
SMILES: OC(C4)CC([H])(C3)C(C)(C4)C(C2)C(C3)C(C1)C(C)(C2)C(=O)C1
InChI: InChI=1S/C19H30O2/c1-18-9-7-13(20)11-12(18)3-4-14-15-5-6-17(21)19(15,2)10-8-16(14)18/h12-16,20H,3-11H2,1-2H3/t12-,13+,14?,15?,16?,18?,19?/m0/s1
Instrument: API2000
Instrument type: LC-APPI-QQ
Ms type: MS2
Ion mode: POSITIVE
Retention time: 0.820833 min
Base peak: 255.199997
Precursor m/z: 273.300000
Precursor type: [M-H2O+H]+
m/z	relative intensity
38.299999	1
40.400002	1
40.799999	1
41.099998	1
41.299999	1
42.700001	1
43.100000	1
43.400002	1
53.000000	1
53.200001	1
53.400002	1
54.400002	1
54.883334	1
55.163636	1
55.799999	1
56.000000	1
57.000000	1
57.200001	1
63.000000	1
64.599998	1
64.900002	1
65.099998	1
65.300003	1
65.699997	1
66.000000	1
66.199997	1
66.800003	1
67.099998	1
67.699997	1
68.199997	1
69.219998	1
70.500000	1
71.000000	1
71.266668	1
72.599998	1
75.699997	1
76.300003	1
77.206667	1
78.000000	1
78.199997	1
79.037097	4
79.883335	1
80.300003	1
81.116520	19
81.850002	1
83.055953	6
84.199997	1
85.068749	1
86.099998	1
87.400002	1
89.599998	1
89.800003	1
91.102150	3
91.800003	1
92.000000	1
92.208331	1
93.063000	10
95.035952	11
95.828573	1
97.102952	9
98.250000	1
99.000000	1
99.336365	1
100.199997	1
100.599998	1
101.000000	1
102.000000	1
102.500000	1
102.699997	1
102.950001	1
103.500000	1
103.699997	1
105.025200	17
107.063948	47
109.099600	17
110.199997	1
111.089999	1
111.950001	1
113.250000	1
114.800003	1
115.000000	1
115.199997	1
115.500000	1
115.900002	1
116.099998	1
117.075001	3
117.699997	1
117.900002	1
118.112498	1
119.099999	10
121.061698	29
122.300003	1
123.113816	10
124.300003	1
125.023404	3
126.900002	1
127.199997	1
127.400002	1
127.599998	1
128.399994	1
129.278573	1
129.500000	1
129.825001	1
131.138255	10
133.120750	27
134.033335	1
135.106184	38
136.200000	1
137.120384	5
138.000000	1
139.130558	2
140.849998	1
141.199997	1
141.399994	1
142.050003	1
143.079309	3
145.098571	113
147.140678	196
149.145820	21
149.800003	1
150.199997	1
151.130646	6
152.899994	1
153.174999	1
154.399994	1
155.000000	1
155.300003	1
155.600006	1
155.949997	1
156.349998	1
157.107080	4
159.142638	94
161.127644	187
163.164823	22
164.100006	1
164.300003	1
164.859998	1
165.300003	1
165.800003	1
166.399994	1
166.800003	1
167.399994	1
167.600006	1
168.000000	1
168.799998	1
169.100006	1
169.550003	1
170.000000	1
170.199997	1
171.100888	8
171.837500	1
172.199997	1
173.166429	61
175.155001	19
176.000000	1
176.500000	1
177.138183	6
177.899994	1
178.100006	1
179.199997	1
179.399994	1
179.800003	1
180.500000	1
181.266668	1
181.600006	1
182.100006	1
182.924995	1
183.199997	1
183.399994	1
183.699997	1
184.100006	1
185.173170	36
187.182793	17
188.099998	1
189.168562	10
190.100001	1
191.169454	9
193.000000	1
193.399994	1
193.650002	1
194.600006	1
195.199997	1
195.600006	1
195.899994	1
196.399994	1
196.800003	1
197.261903	1
199.198991	120
201.191920	13
202.000000	1
202.325001	1
203.115931	4
204.199997	1
204.799998	1
205.266668	1
206.199997	1
207.199997	1
207.600006	1
209.050003	1
209.500000	1
209.849998	1
210.500000	1
211.328572	1
211.699997	1
213.216412	48
215.202944	30
216.000000	1
216.216665	1
217.166730	18
218.399994	1
218.600006	1
219.100006	1
219.349998	1
223.250000	1
223.800003	1
224.899994	1
225.100006	1
225.300003	1
225.525002	1
227.253105	22
228.300003	1
229.323998	2
230.199997	1
231.274998	1
236.699997	1
237.199997	1
237.500000	1
238.399994	1
239.000000	1
240.368294	1
241.100006	1
241.333334	1
242.199997	1
242.500000	1
242.800003	1
243.199997	1
243.500000	1
244.000000	1
244.300003	1
245.063337	1
248.199997	1
249.150002	1
249.699997	1
251.600006	1
251.899994	1
252.100006	1
252.780002	1
255.306094	999
256.849991	1
257.150009	1
257.500000	1
258.309299	1
259.100006	1
259.399994	1
266.899994	1
269.399994	1
269.799988	1
270.500000	1
271.299988	1
271.625008	1
273.322076	929
275.200012	1
279.100006	1
