Mass spectrum: 5-beta-Androstane-3-alpha,17-beta-diol; LC-APPI-QQ; MS
Name: 5-beta-Androstane-3-alpha,17-beta-diol
Name: Etiocholane-3-alpha,17-beta-diol
Class: Natural Product; Steroid hormone
Formula: C19H32O2
Exact mass: 292.24023
SMILES: OC(C4)CC([H])(C3)C(C)(C4)C(C2)C(C3)C(C1)C(C)(C2)C(O)C1
InChI: InChI=1S/C19H32O2/c1-18-9-7-13(20)11-12(18)3-4-14-15-5-6-17(21)19(15,2)10-8-16(14)18/h12-17,20-21H,3-11H2,1-2H3/t12-,13-,14?,15?,16?,17+,18?,19?/m1/s1
Instrument: API2000
Instrument type: LC-APPI-QQ
Ms type: MS
Ion mode: POSITIVE
Retention time: 0.821083 min
Base peak: 257.299988
Ion type: [M-2H2O+H]+
m/z	relative intensity
151.163071	5
152.170326	1
153.148234	5
155.117679	6
156.132906	2
157.159834	9
158.123756	6
159.169781	18
161.196840	70
163.170582	33
164.211769	3
165.172225	5
167.144757	11
168.142746	2
169.122112	8
170.115261	4
171.140616	16
173.159605	19
175.177283	74
176.217249	10
177.197645	10
178.200565	2
179.172139	9
181.128408	11
183.135274	15
184.166168	3
185.147236	13
186.125384	4
187.151004	25
189.184328	21
191.166082	9
192.183513	2
193.170705	13
194.197191	5
195.168223	15
197.137918	40
198.195420	10
199.169763	30
201.207825	54
203.160847	17
205.140975	13
206.133812	3
207.143058	12
209.170902	18
210.175426	6
211.162015	19
212.217070	5
213.167132	29
215.196794	60
216.224088	12
217.216615	28
218.187773	8
219.133663	10
221.162526	11
223.144315	15
224.180324	4
225.187459	13
227.203554	16
228.231204	5
229.209042	19
231.176168	28
233.175373	17
235.142947	14
237.159339	35
238.139025	9
239.186697	20
241.283860	31
243.246676	22
245.191163	38
247.178623	39
249.196368	72
251.204454	78
253.244747	94
255.257333	476
257.295881	999
258.294896	220
261.173068	26
263.158041	25
265.170760	31
267.184942	38
269.208590	61
271.236541	89
273.289781	116
274.290962	37
275.243962	30
277.156673	13
279.183399	17
281.210499	11
283.196321	13
285.228293	21
287.232402	23
289.287196	19
291.222024	9
293.205698	7
295.217809	6
297.244247	7
299.239444	8
301.280728	8
303.309042	7
305.340993	6
307.258824	5
309.236384	4
311.259429	4
313.268328	4
315.278598	6
317.253175	4
318.290216	1
319.291095	3
321.286337	3
323.241446	3
325.204273	3
327.258012	3
329.252910	2
331.186192	2
333.250744	2
335.255798	3
337.320681	3
339.289805	3
341.288960	4
342.259411	1
343.277433	3
345.297162	3
347.323831	4
349.284458	3
350.306727	1
351.302180	3
353.288726	3
355.305406	5
357.302610	4
359.308723	3
361.313767	6
363.343568	6
365.305758	2
367.342294	2
369.420194	5
371.392358	3
373.335124	2
375.319649	3
377.291875	3
379.357914	3
380.326587	1
381.350082	1
383.368751	2
385.387105	2
387.311983	1
389.333670	1
391.397277	3
393.331936	1
394.330972	1
395.355588	1
397.318101	1
399.357437	6
