Mass spectrum: 5-beta-Androstan-17-beta-ol-3-one; LC-APPI-QQ; MS2; CE:60 V; [M-H2O+H]+
Name: 5-beta-Androstan-17-beta-ol-3-one
Name: 5-beta-Dihydrotestosterone
Name: Etiocholane-17-beta-ol-3-one
Class: Natural Product; Steroid hormone
Formula: C19H30O2
Exact mass: 290.22458
SMILES: O=C(C4)CC([H])(C3)C(C)(C4)C(C2)C(C3)C(C1)C(C)(C2)C(O)C1
InChI: InChI=1S/C19H30O2/c1-18-9-7-13(20)11-12(18)3-4-14-15-5-6-17(21)19(15,2)10-8-16(14)18/h12,14-17,21H,3-11H2,1-2H3/t12-,14?,15?,16?,17+,18?,19?/m1/s1
Instrument: API2000
Instrument type: LC-APPI-QQ
Ms type: MS2
Ion mode: POSITIVE
Retention time: 0.820833 min
Base peak: 105.099998
Precursor m/z: 273.100000
Precursor type: [M-H2O+H]+
m/z	relative intensity
38.900002	1
39.099998	2
40.000000	2
41.160377	35
42.299999	3
43.080000	40
44.500000	1
44.799999	1
45.099998	1
48.200001	1
50.400002	1
50.599998	1
50.799999	1
51.000000	1
51.700001	1
52.000000	1
52.200001	1
53.114286	23
55.114591	264
56.058332	4
57.163265	16
58.650000	1
59.000000	1
59.400002	1
63.233334	2
63.599998	1
63.850000	1
65.170770	43
67.127190	545
69.055294	56
70.350002	1
71.124998	3
72.199997	1
73.300003	1
74.099998	1
75.000000	1
75.972223	6
77.070629	432
79.044074	786
81.118975	570
82.099998	2
83.085937	21
84.300003	1
85.099998	2
85.350002	1
88.699997	1
91.050083	999
93.111694	556
95.087408	316
96.099998	1
97.116363	36
97.916668	2
98.400002	1
98.900002	1
101.000000	1
101.400002	1
101.800003	1
103.031147	40
105.077918	631
107.059302	114
109.076577	37
110.049999	1
110.425001	1
111.000000	2
111.300003	1
112.599998	1
112.900002	1
113.300003	1
113.639998	2
115.043805	75
117.125686	169
119.121428	176
120.399999	5
121.032468	26
121.950001	1
122.971429	9
124.099998	1
125.300003	1
125.599998	1
127.090475	14
128.103630	82
129.098887	179
130.149106	74
131.155193	112
131.883329	2
133.155385	43
133.800003	1
134.500000	2
135.131580	13
135.600006	1
135.899994	1
136.800003	1
137.300003	1
137.600006	1
139.000000	1
139.199997	1
140.139999	2
141.183332	12
142.127160	54
143.116114	70
144.127777	36
145.155386	65
146.229999	3
147.173079	17
147.899994	1
148.300003	1
148.899994	1
149.174999	1
149.899994	1
150.199997	1
150.750000	1
151.000000	1
151.199997	1
151.650002	1
152.100003	4
152.800003	2
153.150002	3
153.474998	1
153.699997	1
154.200002	6
155.100000	20
156.160608	11
157.198811	28
158.000000	3
158.312502	3
159.222581	21
160.000000	1
160.199997	1
160.600001	1
161.080005	3
162.899994	2
163.300003	1
163.600006	1
163.899994	1
164.100006	1
164.750000	3
165.271428	2
166.399999	1
167.266668	2
167.916662	2
169.348148	9
170.166668	6
171.087502	11
171.800003	1
172.399994	1
172.774998	3
173.339999	3
173.899994	1
174.699997	1
175.099998	1
175.399994	1
175.699997	1
175.924995	1
176.300003	1
177.199997	1
177.924995	1
178.199997	1
178.399994	1
178.600006	1
178.899994	1
179.300003	1
180.150002	1
180.500000	1
180.699997	1
180.899994	1
181.433334	2
182.100001	2
182.939999	3
183.300000	5
184.436364	4
185.246154	9
186.000000	1
186.399994	1
187.257145	5
188.180955	7
188.962498	21
190.000000	1
190.550003	1
190.800003	1
191.199997	1
191.399994	1
192.500000	1
192.949997	1
194.399994	1
195.300003	1
195.699997	1
195.899994	1
196.150002	1
197.175001	8
198.000000	1
199.200004	5
201.200001	18
202.134396	94
202.699997	1
203.100006	1
203.325001	1
203.899994	1
204.100006	1
204.349998	1
205.050003	1
205.500000	1
209.100006	1
209.500000	1
210.199997	1
210.399994	1
210.750000	1
211.000000	2
211.237499	3
211.600006	1
212.050003	1
212.500000	1
213.135715	9
213.957140	5
215.147897	63
215.949997	4
216.399994	1
216.799998	1
217.274998	3
217.899994	1
218.600006	1
222.699997	1
223.250000	1
223.899994	1
224.600006	1
224.929996	3
225.300001	2
226.192984	19
226.928569	2
227.199997	2
227.399994	2
227.674999	1
228.188889	6
229.300003	3
229.825001	1
230.200003	3
230.699997	1
231.399994	1
232.500000	1
237.050003	1
237.300003	1
238.100006	1
238.300003	1
238.899994	1
239.199997	2
239.399994	2
239.899999	1
240.899994	1
241.300003	1
241.500000	1
241.699997	1
242.183332	2
242.899994	2
243.399994	2
243.899994	1
244.250000	2
245.000000	2
245.399994	1
245.600006	1
252.000000	1
252.300003	1
253.699997	1
255.000000	1
255.449997	1
256.100006	1
256.299988	1
257.000000	1
257.500000	1
258.000000	1
262.100006	1
270.650009	1
271.000000	1
271.600006	1
272.949997	1
273.500000	1
