Mass spectrum: Campesterol; LC-APPI-QQ; MS2; CE:20 V; [M-H2O+H]+
Name: Campesterol
Class: Natural Product; Sterol
Formula: C28H48O
Exact mass: 400.37052
SMILES: C(C(CCC(C)C(C4)C(C3C4)(C)CCC(C13)C(C2)(C(CC(C2)O)=CC1)C)C)(C)C
InChI: InChI=1S/C28H48O/c1-18(2)19(3)7-8-20(4)24-11-12-25-23-10-9-21-17-22(29)13-15-27(21,5)26(23)14-16-28(24,25)6/h9,18-20,22-26,29H,7-8,10-17H2,1-6H3/t19?,20?,22-,23?,24?,25?,26?,27?,28?/m0/s1
Instrument: API2000
Instrument type: LC-APPI-QQ
Ms type: MS2
Ion mode: POSITIVE
Retention time: 0.820850 min
Base peak: 383.500000
Precursor m/z: 383.400000
Precursor type: [M-H2O+H]+
m/z	relative intensity
40.750000	1
42.299999	1
42.599998	1
43.000000	1
43.400002	1
52.700001	1
53.099998	1
54.599998	1
54.900002	1
55.300000	1
56.400002	1
57.116250	2
57.799999	1
66.599998	1
67.103333	1
68.400002	1
69.125926	2
70.099998	1
70.300003	1
70.599998	1
71.135417	3
72.300003	1
72.900002	1
77.000000	1
77.300003	1
77.800003	1
78.599998	1
79.116666	1
79.733332	1
81.103509	7
81.699997	1
82.325003	1
83.087413	4
84.000000	1
85.116129	4
90.199997	1
90.549999	1
90.950001	1
91.199997	1
91.599998	1
91.800003	1
92.099998	1
92.300003	1
93.171794	1
93.800003	1
95.032979	12
97.165555	6
97.800003	1
98.500000	1
98.699997	1
99.153846	1
102.300003	1
103.099998	1
104.000000	1
105.161111	1
105.699997	1
105.983334	1
106.199997	1
106.400002	1
107.001818	3
109.112024	15
110.000000	1
111.106778	5
112.149998	1
112.400002	1
112.599998	1
113.142856	1
116.500000	1
116.699997	1
117.000000	1
117.199997	1
117.799999	1
118.500000	1
119.083783	2
120.229999	1
121.129496	9
122.137498	1
123.041313	8
124.099998	1
125.110500	6
127.146154	1
127.500000	1
130.399994	1
130.600006	1
131.199997	1
132.399994	1
133.179748	5
135.130615	43
135.800003	1
136.100006	1
137.130986	7
138.199997	1
139.147191	3
141.181818	1
141.699997	1
142.899994	1
143.899994	1
145.327275	1
147.144394	41
149.187888	22
149.900000	1
150.250000	1
151.203687	7
152.299998	1
153.046157	1
153.357895	1
154.300003	1
155.100006	1
155.300003	1
157.100006	1
157.300003	1
158.000000	1
159.031820	1
161.141681	73
163.179369	13
164.125004	1
165.210335	11
166.000000	1
166.399994	1
166.800003	1
167.162500	1
167.399994	1
167.699997	1
171.300003	1
172.100006	1
172.300003	1
173.176471	2
174.070004	1
175.175312	25
175.899994	1
177.239165	4
179.245834	7
181.300003	1
182.800003	1
184.399994	1
185.000000	1
185.300003	1
185.849998	1
186.199997	1
186.399994	1
186.600006	1
187.269510	3
189.207592	24
191.262766	3
191.949997	1
192.300003	1
193.209822	7
194.050003	1
194.699997	1
195.100006	1
195.300003	1
199.500000	1
200.000000	1
201.194667	7
202.300003	1
203.248867	19
204.150002	1
204.399994	1
205.225001	2
206.399994	1
207.296665	4
207.899994	1
208.300003	1
209.300003	1
211.699997	1
212.899994	1
213.349998	1
214.100006	1
214.300003	1
215.205745	23
217.257832	10
218.100006	1
218.399994	1
219.245850	8
220.199997	1
221.237635	3
226.800003	1
227.300003	1
227.750000	1
229.252860	16
230.199997	1
230.500000	1
231.246970	2
232.300003	1
233.299999	11
234.199997	1
235.299999	2
238.899994	1
239.100006	1
239.600006	1
241.211114	1
242.000000	1
242.299997	1
243.332960	30
244.250000	1
245.357144	1
246.300003	1
247.353567	25
248.199997	1
248.399994	1
249.392856	2
255.258827	1
255.500000	1
257.313623	21
258.349991	1
259.383333	4
261.382769	8
262.225006	1
263.500000	1
267.100006	1
269.200012	1
269.600006	1
271.250002	2
272.200012	1
273.415243	15
275.348800	4
277.799988	1
283.500000	1
284.050003	1
284.299988	1
285.316868	5
286.200012	1
287.325244	13
288.200012	1
288.600006	1
289.000000	1
289.479999	1
298.500000	1
299.363528	5
301.389416	17
302.200012	1
302.600006	1
303.100006	1
303.500000	1
310.000000	1
311.299988	1
312.349991	1
313.315376	2
314.200012	1
315.390475	1
323.299988	1
323.600006	1
325.299988	1
326.100006	1
326.299988	1
326.550003	1
327.365706	2
328.399994	1
329.200012	1
329.399994	1
329.700012	1
334.000000	1
337.200012	1
339.399994	1
339.700012	1
340.000000	1
340.299988	1
341.307691	1
341.700012	1
346.899994	1
347.399994	1
351.299988	1
354.100006	1
354.399994	1
354.849991	1
355.299988	1
355.516668	1
365.050003	1
365.500000	1
366.399994	1
366.700012	1
367.200012	1
368.433334	1
371.299988	1
372.399994	1
377.000000	1
379.349991	1
379.899994	1
380.100006	1
380.399994	1
380.774994	1
381.100006	1
383.454294	999
384.700012	1
