Mass spectrum: Androstenedione; LC-APPI-QQ; MS2; CE:60 V; [M+H]+
Name: Androstenedione
Class: Natural Product; Steroid hormone
Formula: C19H26O2
Exact mass: 286.19328
SMILES: O=C(C4)C=C(C3)C(C)(C4)C(C2)C(C3)C(C1)C(C)(C2)C(=O)C1
InChI: InChI=1S/C19H26O2/c1-18-9-7-13(20)11-12(18)3-4-14-15-5-6-17(21)19(15,2)10-8-16(14)18/h11,14-16H,3-10H2,1-2H3/t14?,15?,16?,18-,19-/m0/s1
Instrument: API2000
Instrument type: LC-APPI-QQ
Ms type: MS2
Ion mode: POSITIVE
Retention time: 0.820917 min
Base peak: 97.099998
Precursor m/z: 287.300000
Precursor type: [M+H]+
m/z	relative intensity
31.200001	1
38.400002	1
38.599998	1
38.799999	1
39.214286	1
39.700001	1
41.124379	26
41.700001	1
43.072776	44
44.549999	1
45.200001	1
50.000000	1
50.250000	1
50.799999	1
51.000000	1
51.250000	1
51.900002	1
53.101923	12
55.077080	79
56.049999	1
57.101754	7
57.900002	1
58.900002	1
59.450001	1
62.200001	1
62.500000	1
62.700001	1
62.900002	1
65.065169	16
67.090499	102
69.099434	126
70.112498	1
70.500000	1
71.231250	2
71.900002	1
73.599998	1
74.250000	1
74.800003	1
75.149998	1
77.083168	108
79.043963	536
81.110482	379
83.086065	75
84.624998	1
84.962501	1
85.199997	1
85.400002	1
86.500000	1
88.199999	1
91.072046	188
93.123049	83
95.103031	71
97.103449	999
98.500000	1
98.800003	1
99.124998	1
99.500000	1
100.300003	1
100.599998	1
100.800003	1
101.500000	1
101.750000	1
102.216665	1
103.095605	11
105.057645	105
107.072892	36
109.082432	624
110.973913	1
111.699997	1
113.599998	1
113.900002	1
115.158847	15
117.067240	21
119.068627	27
120.291669	1
121.091573	11
123.057373	48
124.650000	1
125.000000	1
125.199997	1
125.400002	1
125.800003	1
128.098231	20
129.098773	29
130.223388	7
131.148649	18
132.474998	1
133.172321	7
133.949997	1
135.085000	2
135.650002	1
136.000000	1
136.300003	1
137.199997	1
137.550003	1
138.600006	1
138.800003	1
139.300003	1
139.699997	1
140.500000	1
141.116837	12
142.055172	7
143.083809	13
145.103011	10
145.949997	1
147.135714	2
147.899994	1
148.359998	1
149.150002	1
149.899994	1
150.100006	1
150.300003	1
150.800003	1
151.033335	1
151.699997	1
152.132257	4
153.108849	7
154.265518	3
155.100000	12
157.213444	7
158.093335	2
159.111224	6
160.100006	1
160.399994	1
161.150005	1
161.899994	1
162.100006	1
162.600006	1
162.966667	1
163.500000	1
164.250000	1
165.049999	6
166.082144	3
167.100000	4
169.163096	5
170.184998	1
170.399994	1
171.120453	5
171.800003	1
172.133334	1
172.839999	1
173.183332	1
174.050003	1
174.500000	1
174.699997	1
175.125000	1
175.949997	1
176.199997	1
176.500000	1
176.899994	1
178.135717	1
179.113638	3
179.874996	1
180.319444	2
181.111765	4
182.124996	1
183.147369	2
184.139999	1
184.399994	1
185.141176	2
185.500000	1
185.837500	1
186.225002	1
187.300003	1
188.300000	1
189.149999	1
190.199997	1
190.650002	1
191.600006	1
191.800003	1
192.160004	1
193.189998	1
193.500000	1
193.874996	1
194.333333	1
195.313636	1
196.320001	1
196.600006	1
197.170000	1
197.449997	1
197.899999	1
198.399994	1
198.959998	1
200.199997	1
200.424995	1
201.178952	1
202.104444	8
203.300003	1
203.500000	1
203.899994	1
204.600006	1
205.100006	1
205.449997	1
205.899994	1
206.199997	1
206.399994	1
206.699997	1
207.100006	1
207.399994	1
207.899994	1
208.300003	1
209.349998	1
209.849998	1
210.100006	1
210.300003	1
210.600006	1
211.250000	1
212.000000	1
212.449997	1
214.156003	6
215.157145	3
215.899994	1
216.300003	1
216.550003	1
217.300003	1
217.500000	1
218.800003	1
219.600006	1
220.199997	1
220.899994	1
221.274998	1
222.800003	1
223.100006	1
223.300003	1
224.199997	1
224.449997	1
225.079999	1
225.916662	1
226.287502	1
226.974998	1
227.199997	1
227.600006	1
228.000000	1
228.333328	1
229.225002	1
230.100006	1
230.399994	1
230.600006	1
230.962498	1
231.600006	1
235.100006	1
235.699997	1
236.100006	1
238.500000	1
239.049997	1
240.000000	1
240.899994	1
241.199997	1
241.650002	1
242.100006	1
242.300003	1
242.699997	1
242.899994	1
243.299998	1
243.800003	1
244.000000	1
244.399994	1
244.600006	1
250.199997	1
251.500000	1
251.800003	1
252.199997	1
252.399994	1
252.800003	1
253.000000	1
253.250000	1
253.500000	1
253.899994	1
254.199997	1
254.399994	1
254.800003	1
255.050003	1
255.399994	1
256.000000	1
257.000000	1
257.399994	1
257.600006	1
258.125008	1
258.500000	1
259.200012	1
261.399994	1
266.399994	1
267.299988	1
268.250000	1
269.000000	1
269.899994	1
270.200012	1
271.200012	1
271.399994	1
272.100006	1
286.000000	1
286.799988	1
287.000000	1
