Mass spectrum: Daidzein; LC-APPI-QQ; MS
Name: Daidzein
Class: Natural Product; Isoflavone
Formula: C15H10O4
Exact mass: 254.05791
SMILES: Oc(c3)ccc(c3)C(=C1)C(=O)c(c2)c(cc(O)c2)O1
InChI: InChI=1S/C15H10O4/c16-10-3-1-9(2-4-10)13-8-19-14-7-11(17)5-6-12(14)15(13)18/h1-8,16-17H
Instrument: API2000
Instrument type: LC-APPI-QQ
Ms type: MS
Ion mode: POSITIVE
Retention time: 0.821067 min
Base peak: 255.500000
Ion type: [M+H]+
m/z	relative intensity
201.149776	5
202.132750	2
203.115534	7
205.127162	7
207.146920	2
209.185874	2
210.211607	1
211.165642	4
213.146615	5
215.154827	9
216.174389	1
217.156500	4
219.139048	4
221.126129	5
222.124662	1
223.167094	2
225.192096	3
227.182379	5
229.159020	7
231.157121	5
233.174495	2
235.140992	3
236.163211	1
237.188650	4
239.141002	5
241.202058	14
243.175189	5
245.156749	5
246.212018	1
247.171322	3
249.172716	3
250.131185	1
251.191821	2
253.165911	3
255.149762	999
259.177278	3
261.172037	3
263.161946	2
265.172194	2
267.163394	5
269.146711	38
271.131620	8
273.201039	7
274.218033	1
275.197351	2
277.128441	13
279.192734	18
281.219471	2
283.168909	12
285.195546	5
287.187870	3
289.229344	2
291.245296	1
293.143351	6
295.186674	2
297.255970	3
299.242112	3
301.218149	2
303.232154	1
304.340347	1
305.276931	1
307.251444	1
309.245522	1
311.333849	3
313.284090	2
315.318167	3
317.264674	1
319.257906	1
320.299039	1
321.286823	1
323.234467	1
325.280555	1
327.319369	1
328.332189	1
329.240635	1
331.220297	1
333.193014	1
334.233508	1
335.262712	1
336.313977	1
337.321647	1
339.282026	1
340.341986	1
341.415072	2
343.246558	1
345.265602	4
347.241667	1
349.265231	1
351.289173	1
353.362630	1
355.474610	3
359.266471	7
361.259512	2
363.354623	1
364.438372	1
365.298638	1
367.356014	1
369.490423	1
371.380652	1
373.314073	1
375.328286	1
377.302184	1
379.325573	1
381.380238	1
382.235711	1
383.389091	1
385.486191	1
387.315418	1
389.424727	1
390.135492	1
391.477284	2
392.431305	1
393.389150	1
395.332865	1
397.495228	3
399.428797	15
400.482921	3
401.491376	1
403.462563	1
404.395607	1
405.430770	1
407.437619	1
408.200012	1
409.457016	1
410.380556	1
411.469395	1
413.475713	1
415.453261	1
417.487439	1
418.399994	1
419.557252	1
420.123084	1
420.569701	1
421.446855	1
422.349996	1
423.554467	1
424.500000	1
425.431863	1
427.490147	1
429.512175	1
430.573610	1
433.451304	1
435.488147	1
436.200012	1
437.508617	1
438.539009	1
439.506015	1
441.474999	1
442.481817	1
443.488671	1
445.456920	1
447.442199	1
448.561906	1
449.476270	1
451.590244	1
453.510472	1
454.362497	1
455.532309	1
456.525808	1
457.546536	1
458.247223	1
458.546003	1
459.408274	1
460.560952	1
461.419995	1
462.100006	1
462.394111	1
463.509999	1
464.430002	1
465.100006	1
465.609336	1
467.529078	1
468.508276	1
469.566042	1
471.437495	1
473.509050	1
474.552944	1
475.500000	1
476.625008	1
476.899994	1
477.406059	1
479.522872	1
481.538406	1
482.565717	1
483.524349	1
484.100006	1
484.692002	1
485.348477	1
485.695004	1
486.588005	1
487.593534	1
488.534851	1
488.923680	1
489.532392	1
490.671422	1
491.600002	1
492.530002	1
493.662181	1
495.596583	1
496.652468	1
497.657147	1
498.422217	1
498.944443	1
499.606894	1
