Mass spectrum: Daidzein; LC-APPI-QQ; MS2; CE:30 V; [M+H]+
Name: Daidzein
Class: Natural Product; Isoflavone
Formula: C15H10O4
Exact mass: 254.05791
SMILES: Oc(c3)ccc(c3)C(=C1)C(=O)c(c2)c(cc(O)c2)O1
InChI: InChI=1S/C15H10O4/c16-10-3-1-9(2-4-10)13-8-19-14-7-11(17)5-6-12(14)15(13)18/h1-8,16-17H
Instrument: API2000
Instrument type: LC-APPI-QQ
Ms type: MS2
Ion mode: POSITIVE
Retention time: 0.820917 min
Base peak: 255.199997
Precursor m/z: 255.400000
Precursor type: [M+H]+
m/z	relative intensity
36.900002	1
37.200001	1
38.500000	1
38.850000	1
39.320000	1
41.000000	1
41.900002	1
42.299999	1
42.500000	1
42.700001	1
42.900002	1
44.799999	1
48.799999	1
49.599998	1
50.099998	1
50.962500	1
52.150000	1
52.525000	1
52.900002	1
53.280000	1
53.750000	1
55.050819	1
57.150000	1
61.400002	1
61.700001	1
62.200001	1
62.683334	1
63.212501	1
63.599998	1
65.043094	1
66.000000	1
66.350002	1
66.900002	1
67.300003	1
67.599998	1
67.800003	1
69.051454	1
70.000000	1
70.842860	1
71.199997	1
71.599998	1
72.199997	1
73.000000	1
73.649998	1
73.900002	1
74.199999	1
75.079999	1
75.599998	1
75.900002	1
76.199997	1
77.067442	1
77.950001	1
79.069231	1
81.028191	1
81.850002	1
82.099998	1
82.300003	1
82.800003	1
83.099998	1
83.400002	1
84.099998	1
84.300003	1
84.599998	1
84.900002	1
85.400002	1
86.000000	1
86.699997	1
86.900002	1
87.900002	1
88.912632	1
89.343399	1
91.034942	13
93.042149	1
93.800003	1
94.000000	1
95.020000	1
95.750000	1
96.199997	1
96.599998	1
97.000000	1
97.500000	1
98.000000	1
98.599998	1
99.049999	1
99.300003	1
100.099998	1
100.699997	1
101.000000	1
101.699997	1
102.174997	1
102.400002	1
102.933334	1
103.312503	1
104.984086	2
107.103332	1
107.900002	1
109.040088	1
109.699997	1
110.300003	1
110.599998	1
110.900002	1
111.300003	1
112.900002	1
113.300003	1
113.599998	1
113.800003	1
115.057317	1
117.100001	1
119.012682	10
120.974107	5
122.000000	1
122.199997	1
122.400002	1
123.199997	1
123.699997	1
124.099998	1
124.599998	1
125.049999	1
125.400002	1
128.068694	6
129.059603	8
131.085261	5
133.021786	10
133.997921	2
134.725924	1
137.010063	101
138.300003	1
138.500000	1
139.199997	1
141.106768	2
143.096478	5
145.003838	20
147.042636	1
149.019019	10
150.109091	1
153.076052	24
155.119532	2
157.100301	16
159.063637	1
159.899994	1
160.100006	1
161.064287	1
162.199997	1
162.992857	1
165.072932	4
166.266666	1
167.204997	1
169.101756	2
171.042042	20
172.100006	1
172.766665	1
173.199997	1
174.000000	1
174.199997	1
175.023129	1
175.800003	1
176.199997	1
176.899994	1
177.100006	1
177.349998	1
177.833333	1
179.254544	1
181.095325	61
184.085549	6
185.082250	4
186.199997	1
187.139734	1
187.800003	1
188.000000	1
188.300003	1
189.130002	1
190.300003	1
190.600006	1
191.013334	1
191.399994	1
191.899994	1
193.131580	1
194.177782	1
195.036366	1
197.127851	7
199.112009	217
201.022729	1
201.699997	1
202.500000	1
202.899994	1
205.100006	1
205.699997	1
206.199997	1
206.399994	1
206.750000	1
207.050003	1
209.097804	13
210.136041	3
211.084486	6
212.109426	2
213.057613	2
214.399994	1
214.899994	1
215.100006	1
215.500000	1
217.199997	1
218.575005	1
219.100003	1
219.966665	1
220.500000	1
220.800003	1
221.100006	1
221.300003	1
221.600006	1
221.899994	1
222.399994	1
223.127781	1
227.137818	105
228.100006	1
229.100006	1
229.300003	1
230.300003	1
232.500000	1
233.100006	1
233.699997	1
234.800003	1
235.199997	1
237.103589	45
238.399994	1
238.924995	1
240.135134	1
243.199997	1
243.699997	1
245.699997	1
246.750000	1
247.100006	1
247.399994	1
248.000000	1
248.600006	1
248.800003	1
249.150002	1
249.500000	1
249.699997	1
250.200002	1
250.899994	1
251.100006	1
251.657144	1
255.141413	999
257.100006	1
268.399994	1
279.500000	1
