Mass spectrum: 73FTA; LC-ESI-QQ; MS2; CE50; [M-H]-
Name: 73FTA
Name: 73Fluorotelomer Acid
Name: 4,4,5,5,6,6,7,7,8,8,9,9,10,10,10-Pentadecafluorodecanoic acid
Class: Non-Natural Product
Formula: C10H5F15O2
Exact mass: 442.00500
SMILES: OC(=O)CCC(F)(F)C(F)(F)C(F)(F)C(F)(F)C(F)(F)C(F)(F)C(F)(F)F
InChI: InChI=1S/C10H5F15O2/c11-4(12,2-1-3(26)27)5(13,14)6(15,16)7(17,18)8(19,20)9(21,22)10(23,24)25/h1-2H2,(H,26,27)
Instrument: Xevo TQ MS (Waters)
Instrument type: LC-ESI-QQ
Ms type: MS2
Ion mode: NEGATIVE
Collision energy: 50
Retention time: 0.016817
Base peak: 266.723785
Precursor m/z: 441
Precursor type: [M-H]-
m/z	relative intensity
62.986752	110
67.112801	31
68.969772	76
93.053818	264
97.920013	293
98.600906	32
104.928093	55
117.070702	191
118.965683	74
128.621368	43
130.902542	79
142.773514	80
147.964996	416
154.912125	133
166.286560	51
167.004807	170
168.906082	65
178.842422	122
185.916245	96
193.031113	91
197.894485	357
204.940598	98
217.043549	365
217.670471	52
228.947464	56
236.154434	31
242.999680	237
247.856842	151
266.954132	999
281.119049	36
317.034485	292
