Mass spectrum: 3mPFOS; LC-ESI-QQ; MS2; CE40eV
Name: 3mPFOS
Class: Non-Natural Product
Formula: C8HF17O3S
Exact mass: 499.93749
SMILES: FC(F)(F)C(F)(F)C(F)(F)C(F)(F)C(F)(C(F)(F)F)C(F)(F)C(F)(F)S(O)(=O)=O
InChI: InChI=1S/C8HF17O3S/c9-1(6(18,19)20,3(12,13)8(24,25)29(26,27)28)2(10,11)4(14,15)5(16,17)7(21,22)23/h(H,26,27,28)
Instrument: Xevo TQ, Waters
Instrument type: LC-ESI-QQ
Ms type: MS2
Ion mode: NEGATIVE
Collision energy: 40eV
Retention time: 15.000967 min
Base peak: 80.027122
Precursor m/z: 498.9
Precursor type: [M-H]-
m/z	relative intensity
63.948324	65
68.900404	72
79.865953	795
82.665711	80
99.069947	405
118.998553	188
129.747507	999
146.681890	230
168.827968	531
180.276627	226
229.647750	288
261.398542	158
270.836810	208
280.017783	451
364.354835	54
372.393938	58
462.404832	121
498.929479	283
