Mass spectrum: Oseltamivir acid; LC-APPI-QQ; MS2; CE60; [M+H]+
Name: Oseltamivir acid
Class: Non-Natural Product
Formula: C14H24N2O4
Exact mass: 284.17361
SMILES: CCC(CC)OC(C=1)C(NC(C)=O)C(N)CC(C(O)=O)1
InChI: InChI=1S/C14H24N2O4/c1-4-10(5-2)20-12-7-9(14(18)19)6-11(15)13(12)16-8(3)17/h7,10-13H,4-6,15H2,1-3H3,(H,16,17)(H,18,19)/t11-,12+,13+/m0/s1
Instrument: API2000, Applied
Instrument type: LC-APPI-QQ
Ms type: MS2
Ion mode: POSITIVE
Collision energy: 60V
Retention time: 0.820867 min
Base peak: 94.199997
Precursor m/z: 285.2
Precursor type: [M+H]+
m/z	relative intensity
38.500000	1
38.799999	1
39.200001	1
39.400002	1
39.599998	1
40.099998	1
41.073333	23
43.067797	178
44.268750	8
45.052632	10
46.084614	3
49.599998	1
49.900002	1
50.099998	1
50.299999	1
50.500000	1
51.016667	3
51.900002	1
52.400002	1
52.599998	1
53.266666	5
53.799999	1
54.346667	4
55.053448	29
55.750000	1
56.000000	1
57.133333	2
58.200001	1
60.096238	80
60.900002	1
61.200001	1
62.000000	1
62.350000	1
62.599998	1
65.088996	576
67.100000	459
69.099998	4
70.116668	6
71.038461	7
72.000000	1
72.199997	1
72.400002	1
73.199997	1
73.500000	1
73.750000	1
74.199999	1
74.500000	1
74.960001	3
75.400002	2
77.064780	884
78.192855	7
80.054839	156
82.106572	176
83.058334	54
83.833336	2
84.250000	3
84.900002	1
85.250000	1
85.900002	1
86.599998	1
87.099998	1
87.800003	1
88.300001	1
89.199999	1
89.599998	1
92.068215	731
93.106589	710
94.064401	999
96.227271	3
96.750000	1
97.199997	1
97.800003	1
98.199999	1
99.049999	1
100.599998	1
101.300003	1
102.000000	2
102.450001	2
102.750000	1
103.000000	1
103.300001	1
104.049999	1
105.244446	5
105.933334	3
106.377780	2
107.000000	3
109.067915	94
110.033000	101
110.810003	3
111.149999	4
111.599998	1
111.900002	1
112.149998	1
112.699997	1
113.300003	1
113.800003	1
114.099998	1
114.300003	1
115.000000	1
115.800003	1
116.099998	1
116.800003	1
117.199997	1
117.699997	1
120.042829	502
121.199997	4
121.850002	1
122.099998	1
122.900002	1
123.300003	1
124.250000	1
125.400002	1
125.850002	1
126.300003	1
126.900002	1
127.099998	1
128.199997	1
129.000000	1
129.300003	1
130.300003	1
130.500000	1
130.699997	1
131.100006	1
131.650002	1
131.899994	1
132.150002	1
132.449997	1
132.924995	1
133.199997	2
133.399994	1
134.214285	5
134.600006	1
135.000000	1
135.300003	1
135.600006	1
135.900002	1
136.199997	1
137.216279	22
138.037759	85
139.300003	1
140.000000	1
141.300003	1
142.300003	1
144.100006	1
145.000000	1
145.600006	1
149.800003	1
150.300003	1
150.949997	1
151.199997	1
152.300003	1
152.600006	1
153.100006	1
154.000000	1
154.300003	1
154.600006	1
155.000000	1
155.199997	1
155.399994	1
155.699997	1
156.199997	1
157.399994	1
158.899994	1
159.500000	1
160.199997	1
161.150002	1
161.800003	1
162.000000	1
162.275002	1
162.550003	1
163.100006	1
164.199997	1
164.500000	1
164.750000	1
165.100006	1
165.349998	1
165.600006	1
167.199997	1
168.100006	1
168.500000	1
169.199997	1
169.399994	1
170.000000	1
174.899994	1
176.899994	1
177.899994	1
178.150002	1
180.100006	1
180.399994	1
181.399994	1
185.000000	1
189.000000	1
195.199997	1
196.000000	1
196.699997	1
199.899999	1
200.199997	1
200.399994	1
200.600006	1
201.899994	1
202.325001	1
206.600006	1
208.399994	1
208.800003	1
210.199997	1
210.500000	1
212.899994	1
214.800003	1
215.000000	1
215.300003	1
226.100006	1
226.300003	1
226.500000	1
227.000000	1
227.300003	1
228.300003	1
228.500000	1
228.899994	1
237.600006	1
237.800003	1
238.150002	1
238.800003	1
239.100006	1
240.199997	1
241.199997	1
241.500000	1
251.399994	1
252.000000	1
252.600006	1
253.000000	1
255.100006	1
255.399994	1
257.100006	1
266.399994	1
267.899994	1
268.150009	1
269.100006	1
270.000000	1
285.000000	1
294.100006	2
