Mass spectrum: Dehydroepiandrosterone; LC-APPI-QQ; MS2; CE:10 V; [M-2H2O+H]+
Name: Dehydroepiandrosterone
Class: Natural Product; Steroid hormone
Formula: C19H28O2
Exact mass: 288.20893
SMILES: OC(C4)CC(=C3)C(C)(C4)C(C2)C(C3)C(C1)C(C)(C2)C(=O)C1
InChI: InChI=1S/C19H28O2/c1-18-9-7-13(20)11-12(18)3-4-14-15-5-6-17(21)19(15,2)10-8-16(14)18/h3,13-16,20H,4-11H2,1-2H3/t13-,14?,15?,16?,18?,19?/m0/s1
Instrument: API2000
Instrument type: LC-APPI-QQ
Ms type: MS2
Ion mode: POSITIVE
Retention time: 0.820850 min
Base peak: 253.199997
Precursor m/z: 253.300000
Precursor type: [M-2H2O+H]+
m/z	relative intensity
38.000000	1
48.400002	1
59.000000	1
67.199997	1
67.500000	1
68.300003	1
68.750000	1
69.025000	1
69.300003	1
78.699997	1
81.126866	1
82.500000	1
83.035000	1
84.900002	1
90.983334	1
91.199997	1
93.000000	1
93.199997	1
93.500000	1
94.400002	1
94.699997	1
95.034999	1
95.400002	1
96.925001	1
97.300003	1
98.199997	1
99.099998	1
101.900002	1
103.900002	1
104.784617	1
105.199997	1
105.400002	1
106.199997	1
107.115790	1
109.048889	2
110.000000	1
110.400002	1
110.599998	1
110.875002	1
111.325003	1
116.000000	1
116.300003	1
117.026315	1
118.787500	1
119.200000	1
119.900002	1
120.099998	1
120.500000	1
120.880001	1
121.216667	1
122.099998	1
123.048936	1
124.000000	1
124.850002	1
125.149998	1
126.500000	1
126.800003	1
127.900002	1
128.474998	1
129.021432	1
130.000000	1
131.074194	1
131.500000	1
132.150002	1
132.399994	1
133.136365	1
134.000000	1
135.156923	1
137.000000	1
141.058333	1
142.157142	1
143.050680	3
143.899994	1
145.145455	1
145.899994	1
146.100006	1
147.086554	2
148.099998	1
149.145206	1
150.300003	1
151.199997	1
153.199997	1
153.699997	1
154.000000	1
154.199997	1
154.399994	1
154.887495	1
155.244000	1
157.144906	5
157.899994	1
158.300003	1
159.117323	1
159.800003	1
160.100006	1
160.500000	1
161.027085	1
162.100006	1
162.500000	1
165.800003	1
166.899994	1
168.000000	1
168.399994	1
169.193753	1
171.120833	5
173.145003	1
174.300003	1
174.699997	1
175.000000	1
175.199997	1
175.600006	1
177.100006	1
177.699997	1
179.199997	1
180.300003	1
180.699997	1
180.899994	1
181.199997	1
181.399994	1
181.899994	1
183.152174	2
183.825001	1
184.100006	1
184.300003	1
185.122399	2
186.040002	1
187.173684	1
190.899994	1
191.800003	1
192.300003	1
192.600006	1
192.800003	1
193.300003	1
194.550003	1
195.033335	1
195.399994	1
197.163437	10
198.115383	1
198.416662	1
199.145091	2
204.899994	1
205.899994	1
207.300003	1
207.500000	1
208.399994	1
208.600006	1
209.166665	1
209.699997	1
210.000000	1
211.186957	3
212.199997	1
212.550003	1
217.199997	1
217.500000	1
218.000000	1
220.300003	1
220.779999	1
221.300003	1
221.600006	1
221.899994	1
222.699997	1
222.953843	1
223.399994	1
224.221873	1
225.175892	4
234.777778	1
235.275000	1
235.800003	1
236.100006	1
236.449997	1
236.899994	1
237.500000	1
238.273684	1
238.849998	1
245.699997	1
247.199997	1
247.600006	1
248.100006	1
248.800003	1
249.100006	1
249.399994	1
250.150002	1
250.500000	1
250.899994	1
253.270336	999
255.349998	1
