Mass spectrum: Cholestanol; LC-APPI-QQ; MS2; CE:20 V; [M-H2O+H]+
Name: Cholestanol
Class: Natural Product; Sterol
Formula: C27H48O
Exact mass: 388.37052
SMILES: C(C)(C1)(C(C(C)CCCC(C)C)4)C(CC4)C(C2)C(C(C)(C3)C([H])(CC(C3)O)C2)C1
InChI: InChI=1S/C27H48O/c1-18(2)7-6-8-19(3)23-11-12-24-22-10-9-20-17-21(28)13-15-26(20,4)25(22)14-16-27(23,24)5/h18-25,28H,6-17H2,1-5H3/t19?,20-,21-,22?,23?,24?,25?,26?,27?/m0/s1
Instrument: API2000, Applied
Instrument type: LC-APPI-QQ
Ms type: MS2
Ion mode: POSITIVE
Retention time: 0.820850 min
Base peak: 371.299988
Precursor m/z: 371.451000
Precursor type: [M-H2O+H]+
m/z	relative intensity
39.099998	1
40.950001	1
42.900002	1
43.200001	1
53.900002	1
54.400002	1
54.980000	1
55.500000	1
56.250000	1
57.116666	1
57.599998	1
65.400002	1
66.250000	1
66.784617	1
67.199997	1
68.099998	1
69.014285	3
69.800003	1
70.000000	1
70.868752	1
72.199997	1
78.400002	1
79.000000	1
79.500000	1
81.103356	21
82.025000	1
83.071951	12
84.199997	1
84.933334	2
90.599998	1
90.800003	1
91.049999	1
91.300003	1
91.649998	1
92.992308	2
95.009126	56
96.000000	1
96.199997	1
97.081147	18
98.199997	1
98.599998	1
99.000000	1
99.316669	1
104.933332	1
107.015556	6
107.860002	1
109.078656	37
111.076431	21
111.800003	1
112.000000	1
112.350000	1
113.000000	1
113.475000	1
118.599998	1
118.900002	1
119.099998	1
119.300003	1
119.699997	1
121.031765	18
123.042275	34
124.099998	1
125.096836	11
126.850002	1
127.259999	1
128.100006	1
128.600006	1
128.800003	1
129.233332	1
129.500000	1
131.199997	1
132.000000	1
133.155557	1
133.800003	1
134.231249	1
135.043986	42
137.101648	26
137.800003	1
138.250000	1
139.059259	2
140.699997	1
141.000000	1
141.300003	1
144.399994	1
144.600006	1
144.800003	1
145.399994	1
146.266668	1
147.130001	3
147.699997	1
147.899994	1
149.110334	47
151.105978	27
152.000000	1
153.109999	1
155.000000	1
155.399994	1
157.100006	1
157.300003	1
158.699997	1
159.100006	1
159.650002	1
159.899994	1
160.100006	1
161.176470	2
161.800003	1
163.157143	37
163.899994	1
164.299997	1
165.178106	24
165.949997	1
166.349998	1
167.200003	1
168.899994	1
169.300003	1
170.500000	1
172.899994	1
173.199997	1
173.399994	1
174.000000	1
174.500000	1
175.128571	4
177.179352	36
178.100006	1
179.205661	15
180.000000	1
180.300003	1
181.100006	1
185.349998	1
186.100006	1
186.600006	1
186.899994	1
187.300003	1
188.000000	1
189.167115	21
190.000000	1
191.136275	15
192.300003	1
193.185771	18
193.800003	1
194.100006	1
194.399994	1
195.399994	1
195.899994	1
199.300003	1
201.199997	1
201.500000	1
201.699997	1
203.196428	20
203.899994	1
205.170138	21
206.049999	1
207.169318	38
208.550003	1
208.800003	1
209.300003	1
209.500000	1
210.300003	1
210.899994	1
212.899994	1
213.399994	1
214.974998	1
215.533335	1
215.899994	1
216.300003	1
217.147183	20
218.300003	1
219.255555	10
219.899994	1
220.199997	1
220.399994	1
221.200001	7
221.899994	1
227.199997	1
228.800003	1
229.199997	1
229.550003	1
230.050003	1
231.146499	11
231.899994	1
232.199997	1
232.500000	1
233.251613	9
234.500000	1
235.188679	4
236.899994	1
237.300003	1
239.899994	1
240.800003	1
241.100006	1
241.300003	1
241.600006	1
243.150002	1
243.650002	1
243.949997	1
244.300003	1
245.152755	9
246.199997	1
247.249167	17
248.399994	1
249.361904	2
250.199997	1
250.849998	1
253.100006	1
253.800003	1
256.700012	1
257.500000	1
257.799988	1
258.150009	1
258.399994	1
259.255171	8
260.100006	1
261.269444	26
262.500000	1
262.799988	1
263.075005	1
263.399994	1
265.100006	1
265.399994	1
266.899994	1
267.100006	1
267.299988	1
270.799988	1
271.150009	1
271.799988	1
272.400000	1
273.170001	4
275.280645	11
277.399994	1
285.000000	1
285.200012	1
286.000000	1
286.399994	1
287.351715	2
288.449997	1
289.428121	5
290.200012	1
300.600006	1
300.961109	1
301.413328	2
302.100006	1
303.100006	1
303.449997	1
311.399994	1
313.200012	1
314.000000	1
314.200012	1
315.325716	5
316.299988	1
317.299988	1
327.200012	1
328.399994	1
328.600006	1
328.799988	1
329.349991	1
329.600006	1
339.000000	1
343.500000	1
343.799988	1
353.166677	1
353.899994	1
354.700012	1
355.000000	1
355.299998	1
356.175011	1
356.399994	1
367.600006	1
367.899994	1
368.150009	1
368.600006	1
368.799988	1
369.100006	1
371.419353	999
372.799988	1
373.399994	1
