Mass spectrum: Ethinyl estradiol; LC-APPI-QQ; MS2; CE:10 V; [M-H2O+H]+
Name: Ethinyl estradiol
Class: Non-Natural Product; Steroid hormone
Formula: C20H24O2
Exact mass: 296.17763
SMILES: Oc(c4)cc(C3)c(c4)C(C2)C(C3)C(C1)C(C)(C2)C(O)(C#C)C1
InChI: InChI=1S/C20H24O2/c1-3-20(22)11-9-18-17-6-4-13-12-14(21)5-7-15(13)16(17)8-10-19(18,20)2/h1,5,7,12,16-18,21-22H,4,6,8-11H2,2H3
Instrument: API2000
Instrument type: LC-APPI-QQ
Ms type: MS2
Ion mode: POSITIVE
Retention time: 0.820850 min
Base peak: 279.299988
Precursor m/z: 279.300000
Precursor type: [M-H2O+H]+
m/z	relative intensity
55.299999	1
55.700001	1
56.799999	1
57.500000	1
67.400002	1
68.400002	1
69.300003	1
69.500000	1
71.000000	1
71.199997	1
73.000000	1
78.400002	1
78.937500	1
79.400002	1
79.699997	1
80.199997	1
80.885716	1
82.000000	1
82.500000	1
83.000000	1
84.000000	1
85.300003	1
85.500000	1
87.099998	1
89.800003	1
90.400002	1
91.111538	1
91.800001	1
92.199997	1
93.052830	1
93.699997	1
95.028467	2
96.099998	1
96.800003	1
97.000000	1
97.199997	1
103.900002	1
105.008334	1
106.099998	1
106.300003	1
107.028750	3
108.099998	1
109.133331	1
110.800003	1
111.300003	1
113.599998	1
114.599998	1
115.000000	1
115.300003	1
116.099998	1
116.599998	1
116.960001	1
117.875000	1
119.075188	7
120.149998	1
120.574999	1
121.058139	1
126.400002	1
127.300003	1
127.500000	1
127.900002	1
128.600006	1
128.899994	1
129.300003	1
129.650002	1
129.899994	1
131.270454	1
133.096315	60
135.134482	4
140.399999	1
140.699997	1
140.899994	1
141.150002	1
141.399994	1
142.250000	1
142.949997	1
143.316668	1
143.800003	1
145.057576	4
147.138705	10
149.072603	1
151.100006	1
151.300003	1
152.600006	1
152.800003	1
153.200005	1
154.100006	1
154.500000	1
155.250000	1
157.084401	15
159.092313	41
159.899994	1
160.100006	1
160.841666	1
161.172732	1
162.699997	1
163.500000	1
164.000000	1
164.974998	1
165.216665	1
166.699997	1
166.949997	1
167.199997	1
167.699997	1
169.050003	1
169.699997	1
169.899994	1
171.099453	3
171.899994	1
172.183332	1
173.100000	2
174.899994	1
175.100006	1
176.199997	1
176.800003	1
177.199997	1
178.950001	1
179.500000	1
180.000000	1
180.600006	1
181.050003	1
181.800003	1
183.095507	9
183.833333	1
185.090060	9
185.899994	1
186.199997	1
186.842856	1
187.247825	1
187.899994	1
188.100006	1
189.100006	1
190.550003	1
191.000000	1
191.250000	1
191.600006	1
192.199997	1
192.500000	1
193.000000	1
193.360001	1
193.849998	1
194.100006	1
195.183334	2
197.118989	6
197.849998	1
198.120004	1
199.068334	2
199.899994	1
200.300003	1
200.775002	1
201.199997	1
203.100006	1
203.300003	1
204.000000	1
205.115001	1
206.933329	1
207.399994	1
209.133074	13
211.096739	5
212.199997	1
212.600006	1
213.342856	1
214.899994	1
218.500000	1
219.100006	1
219.500000	1
219.800003	1
220.150002	1
221.366664	1
221.775002	1
223.203719	10
224.199999	1
225.100000	1
228.800003	1
229.300003	1
231.600006	1
232.150002	1
232.399994	1
232.949997	1
233.330000	1
233.600006	1
233.800003	1
234.300003	1
234.762501	1
235.114288	1
235.399994	1
237.191345	4
238.283335	1
239.199997	1
239.500000	1
246.000000	1
246.300003	1
247.039999	1
247.899994	1
248.250000	1
248.833328	1
249.289474	1
249.874996	1
250.199997	1
251.188481	8
251.949997	1
253.150002	1
258.899994	1
259.500000	1
260.000000	1
261.213334	1
261.899994	1
262.100006	1
262.299988	1
262.600006	1
263.100006	1
264.191112	1
264.700012	1
270.299988	1
270.600006	1
272.299988	1
273.299988	1
273.600006	1
274.100006	1
274.600006	1
275.100006	1
275.959998	1
276.700012	1
277.294989	1
279.241455	999
281.250000	1
282.399994	1
289.100006	1
297.200012	1
