Mass spectrum: 5mPFOS; LC-ESI-QQ; MS2; CE10eV
Name: 5mPFOS
Class: Non-Natural Product
Formula: C8HF17O3S
Exact mass: 499.93749
SMILES: FC(F)(F)C(F)(F)C(F)(C(F)(F)F)C(F)(F)C(F)(F)C(F)(F)C(F)(F)S(O)(=O)=O
InChI: InChI=1S/C8HF17O3S/c9-1(6(18,19)20,3(12,13)7(21,22)23)2(10,11)4(14,15)5(16,17)8(24,25)29(26,27)28/h(H,26,27,28)
Instrument: Xevo TQ, Waters
Instrument type: LC-ESI-QQ
Ms type: MS2
Ion mode: NEGATIVE
Collision energy: 10eV
Retention time: 15.765067 min
Base peak: 498.922394
Precursor m/z: 498.9
Precursor type: [M-H]-
m/z	relative intensity
79.995522	35
91.383705	8
98.620557	21
119.063825	9
129.635645	50
219.130535	24
229.659450	78
280.025752	132
379.838436	23
499.015630	999
