Mass spectrum: Genistein; LC-APPI-QQ; MS2; CE:30 V; [M+H]+
Name: Genistein
Class: Natural Product; Isoflavone
Formula: C15H10O5
Exact mass: 270.05282
SMILES: Oc(c3)ccc(c3)C(=C1)C(=O)c(c(O)2)c(cc(O)c2)O1
InChI: InChI=1S/C15H10O5/c16-9-3-1-8(2-4-9)11-7-20-13-6-10(17)5-12(18)14(13)15(11)19/h1-7,16-18H
Instrument: API2000
Instrument type: LC-APPI-QQ
Ms type: MS2
Ion mode: POSITIVE
Retention time: 0.820833 min
Base peak: 271.200012
Precursor m/z: 271.200000
Precursor type: [M+H]+
m/z	relative intensity
39.099998	1
40.900002	1
41.299999	1
41.950001	1
42.200001	1
43.016668	1
44.000000	1
45.500000	1
50.299999	1
50.799999	1
51.200001	1
51.950001	1
52.299999	1
52.799999	1
53.200001	1
53.799999	1
54.978948	1
55.500000	1
57.000000	1
58.700001	1
59.200001	1
61.599998	1
61.799999	1
62.200001	1
62.500000	1
63.166667	1
64.000000	1
64.500000	1
65.129786	1
65.800003	1
66.025000	1
67.056081	1
67.800003	1
69.018864	2
69.800003	1
70.649998	1
71.000000	1
71.233332	1
73.300003	1
73.800003	1
74.400002	1
75.199997	1
75.400002	1
75.850002	1
76.099998	1
76.300003	1
77.115687	1
77.971429	1
78.350002	1
79.400002	1
79.699997	1
80.000000	1
81.039394	1
81.699997	1
81.900002	1
82.099998	1
82.500000	1
82.883335	1
83.250000	1
84.199997	1
85.199997	1
85.699997	1
85.900002	1
86.099998	1
86.649998	1
87.000000	1
87.350002	1
87.599998	1
89.092307	1
91.054001	14
92.000000	1
92.400002	1
93.093103	1
94.039999	1
94.976316	1
96.033333	1
97.048001	1
98.500000	1
99.099998	1
100.300003	1
100.649998	1
101.383335	1
102.000000	1
103.044000	1
103.900002	1
105.018773	1
107.020000	2
107.780002	1
109.033553	1
111.015721	4
111.800003	1
112.699999	1
113.099998	1
113.300003	1
113.599998	1
113.900002	1
115.132847	1
116.037499	1
117.071491	2
119.047905	14
121.044485	5
121.983334	1
123.047368	1
124.970834	1
127.032743	1
128.147170	1
129.065417	1
130.000000	1
131.124665	6
133.082695	4
135.041040	2
135.844999	1
137.072223	2
139.119353	1
139.790909	1
141.114965	7
142.100006	1
145.021146	35
147.109553	6
149.032796	52
153.030056	133
155.005660	1
156.100006	1
157.144891	1
159.075907	24
160.234999	1
161.041466	1
161.699997	1
161.949997	1
163.091953	1
165.028292	17
166.199997	1
167.028262	1
169.075851	20
169.947500	1
171.081818	1
173.131343	6
175.109600	3
175.949997	1
177.090770	1
178.062143	1
179.132558	1
181.135950	2
182.000000	1
183.098613	3
185.068498	3
187.104394	17
187.899994	1
188.150002	1
188.800003	1
189.016668	1
189.399994	1
189.800003	1
190.100006	1
191.092740	1
192.100006	1
192.699997	1
192.899994	1
193.320001	1
193.699997	1
193.949997	1
194.399994	1
197.116734	28
200.090564	5
201.059219	6
202.163157	1
203.087729	2
205.052173	1
207.110910	1
207.800003	1
208.087505	1
208.500000	1
209.094030	1
210.178947	1
211.047237	2
213.097474	4
215.098732	161
217.045836	1
218.300003	1
218.750000	1
219.300003	1
220.899994	1
221.699997	1
222.399994	1
222.600006	1
225.100905	14
226.075605	2
227.141850	4
228.101442	2
229.075579	4
230.100006	1
230.300003	1
230.849998	1
233.600006	1
234.399994	1
235.068295	1
236.130003	1
236.800003	1
237.050003	1
237.300003	1
237.500000	1
238.000000	1
238.300003	1
238.500000	1
239.077776	1
239.699997	1
239.949997	1
241.141353	1
243.165631	109
244.500000	1
245.199997	1
246.000000	1
246.849998	1
247.349998	1
247.600006	1
249.399994	1
250.000000	1
250.199997	1
250.800000	1
253.104857	58
254.899994	1
255.300003	1
256.000000	1
256.366659	1
257.299988	1
258.000000	1
259.700012	1
259.899994	1
260.299998	1
261.000000	1
261.799988	1
262.500000	1
262.700012	1
263.600006	1
263.899994	1
264.600006	1
265.200012	1
265.500000	1
265.949997	1
266.200012	1
266.433329	1
266.899994	1
267.200012	1
268.200012	1
271.112508	999
273.849991	1
274.299988	1
275.000000	1
275.200012	1
279.399994	1
284.000000	1
284.299988	1
285.200012	1
