Mass spectrum: 24-Ethylepicoprostanol; LC-APPI-QQ; MS2; CE:30 V; [M-H2O+H]+
Name: 24-Ethylepicoprostanol
Class: Natural Product; Sterol
Formula: C29H52O
Exact mass: 416.40182
SMILES: [H]C(C([H])23)(CCC(C)(C4C(C)CCC(C(C)C)CC)C(CC4)3[H])C(C(CC2)1[H])(CCC(O)C1)C
InChI: InChI=1S/C29H52O/c1-7-21(19(2)3)9-8-20(4)25-12-13-26-24-11-10-22-18-23(30)14-16-28(22,5)27(24)15-17-29(25,26)6/h19-27,30H,7-18H2,1-6H3/t20-,21+,22-,23-,24+,25?,26+,27+,28+,29-/m1/s1
Instrument: API2000
Instrument type: LC-APPI-QQ
Ms type: MS2
Ion mode: POSITIVE
Retention time: 0.820850 min
Base peak: 399.500000
Precursor m/z: 399.500000
Precursor type: [M-H2O+H]+
m/z	relative intensity
39.299999	1
41.000000	1
41.299999	1
42.700001	1
43.275000	2
45.000000	1
52.299999	1
55.031250	9
55.750000	1
56.099998	1
56.400002	3
57.076000	28
58.400002	1
65.000000	1
67.088462	29
68.099998	1
69.079709	78
69.800003	2
71.042308	88
72.000000	1
72.199997	1
77.099998	3
78.099998	3
78.763637	6
79.241666	7
79.724998	2
81.075439	321
83.021583	157
83.950001	1
85.092233	58
86.400002	1
89.699997	1
90.599998	1
90.850002	2
91.149998	6
91.450001	2
92.000000	1
93.125317	45
93.599998	3
95.020000	569
96.000000	2
97.092593	167
98.099998	1
98.599998	2
98.861113	10
99.123076	7
100.099998	1
100.300003	1
100.599998	1
102.500000	1
104.960001	8
106.970213	79
109.036658	418
111.069491	100
112.599998	1
113.199997	2
113.500000	1
114.000000	1
116.699997	1
117.599998	1
118.149998	1
118.699997	2
119.300003	3
119.500000	3
119.699997	2
121.099543	246
122.024999	11
123.066667	227
123.950001	1
125.026667	51
126.949997	2
128.849998	2
129.699997	1
130.800003	1
131.199997	1
132.100006	1
132.575005	2
132.800003	4
133.188572	20
133.750000	3
134.218181	6
135.067038	304
136.100006	3
136.399994	5
137.091550	200
138.000000	1
139.145000	23
139.600006	1
140.699997	1
141.049995	2
143.000000	1
143.600006	1
144.399994	1
144.600006	1
144.899994	2
145.100006	2
145.399994	1
145.899994	1
146.100006	1
147.125317	45
147.800003	5
149.107750	378
151.155366	100
152.000000	1
153.000000	2
153.199997	1
153.399994	1
154.899994	1
158.699997	1
159.100006	1
159.300003	1
160.300003	1
161.152499	45
163.120791	271
164.199997	1
165.165771	84
166.800003	1
167.100006	1
167.399999	2
169.600006	1
170.199997	1
171.399994	1
172.399994	1
172.600006	1
172.849998	2
173.199997	1
173.500000	2
173.699997	1
173.899994	1
174.100006	1
175.185002	34
177.155853	169
177.899994	1
178.199997	1
179.229031	35
180.100006	1
181.100006	1
183.500000	1
184.800003	1
187.000000	1
187.250000	2
187.800003	1
188.100006	2
189.120229	245
191.244442	51
191.800003	1
192.199997	1
193.244825	16
195.500000	1
197.199997	1
198.600006	1
198.800003	1
199.100006	1
199.300003	2
200.300003	1
200.500000	1
201.000000	4
201.800003	1
202.100006	1
202.349998	1
203.193728	162
203.899994	2
204.100006	2
205.164556	45
206.199997	1
206.500000	1
207.253573	16
208.399994	1
208.699997	1
210.399994	1
213.300003	2
215.000000	7
215.474999	9
216.038891	10
216.399994	7
217.210884	83
218.349998	1
218.944443	10
219.261536	15
220.199997	1
221.294031	38
222.500000	1
223.199997	1
227.199997	1
229.000000	1
229.250000	3
229.600006	1
229.899994	2
230.199997	3
230.500000	1
231.177028	42
232.399994	1
233.008334	7
233.361109	10
234.000000	1
235.284374	72
237.399994	1
239.000000	1
241.300003	1
243.399994	1
243.600006	1
243.949997	1
244.300003	2
244.500000	1
245.362857	39
246.050003	1
246.699997	1
247.000000	5
247.429999	11
248.199997	1
249.311362	25
252.000000	1
253.399994	1
255.899994	1
256.399994	1
256.799988	1
257.050003	1
257.700012	1
257.899994	1
258.299988	1
258.600006	2
259.500000	18
260.050003	1
260.500000	2
261.360706	16
261.600006	7
261.949997	1
263.000000	1
263.299988	5
269.100006	1
271.799988	1
272.957140	4
273.409085	12
274.100006	1
274.650009	5
275.230005	23
277.183345	3
279.700012	1
285.399994	1
285.700012	1
286.000000	1
286.299988	1
287.292157	29
288.399994	1
289.310293	38
290.500000	1
290.899994	1
291.550003	5
292.799988	1
297.200012	1
297.500000	1
300.600006	1
301.285363	23
303.207149	16
303.700012	8
304.399994	1
304.899994	1
305.399994	1
307.100006	1
309.500000	1
314.200012	1
315.183334	7
315.616674	3
316.000000	1
316.200012	1
316.399994	1
317.066671	14
317.471427	16
319.700012	1
324.399994	1
328.200012	1
328.399994	1
328.899994	1
329.399994	10
330.000000	1
330.899994	1
331.150009	2
331.650009	2
339.500000	1
341.200012	2
342.399994	1
342.600006	2
343.299998	10
345.000000	1
345.700012	1
354.299988	1
355.399994	1
356.000000	1
357.200012	1
357.700012	1
360.899994	1
363.899994	1
365.600006	1
367.100006	1
367.299988	1
368.799988	1
370.600006	1
371.399994	1
381.399994	1
382.899994	1
384.100006	1
384.399994	3
384.799988	2
396.399994	1
397.100006	1
397.849991	1
398.150009	1
399.454515	999
