Mass spectrum: Dihydrotestosterone; LC-APPI-QQ; MS2; CE:10 V; [M-2H2O+H]+
Name: Dihydrotestosterone
Class: Natural Product; Steroid hormone
Formula: C19H30O2
Exact mass: 290.22458
SMILES: O=C(C4)CC([H])(C3)C(C)(C4)C(C2)C(C3)C(C1)C(C)(C2)C(O)C1
InChI: InChI=1S/C19H30O2/c1-18-9-7-13(20)11-12(18)3-4-14-15-5-6-17(21)19(15,2)10-8-16(14)18/h12,14-17,21H,3-11H2,1-2H3/t12-,14?,15?,16?,17-,18?,19?/m0/s1
Instrument: API2000
Instrument type: LC-APPI-QQ
Ms type: MS2
Ion mode: POSITIVE
Retention time: 0.820850 min
Base peak: 255.300003
Precursor m/z: 255.200000
Precursor type: [M-2H2O+H]+
m/z	relative intensity
34.400002	1
68.800003	1
78.699997	1
79.900002	1
80.400002	1
80.800003	1
81.000000	1
81.199997	1
81.400002	1
83.099998	1
84.500000	1
90.800003	1
92.199997	1
92.900002	1
93.099998	1
93.350002	1
94.649998	1
95.033333	1
95.400002	1
95.699997	1
95.900002	1
96.900002	1
97.099998	1
103.800003	1
104.500000	1
105.059999	1
105.599998	1
105.900002	1
106.099998	1
106.500000	1
107.000000	1
107.316669	1
108.699999	1
109.300003	1
109.599998	1
110.699997	1
111.000000	1
111.250000	1
113.000000	1
116.850002	1
117.199999	1
117.599998	1
118.699997	1
118.900002	1
119.149998	1
120.250000	1
120.800003	1
121.053845	1
122.500000	1
123.199998	1
127.300003	1
128.399994	1
129.050003	1
129.600006	1
130.000000	1
130.500000	1
130.874996	1
131.100006	1
132.300003	1
132.600006	1
133.112501	1
134.899994	1
135.100006	1
135.300003	1
136.699997	1
136.899994	1
137.399994	1
139.100006	1
141.100006	1
142.349998	1
142.600006	1
143.100006	1
143.600006	1
144.100006	1
145.138460	3
145.899994	1
146.300003	1
147.126926	2
148.199997	1
148.399994	1
149.000000	1
149.199997	1
149.399994	1
149.699997	1
150.699997	1
151.150002	1
155.500000	1
155.800003	1
156.699997	1
157.228572	1
157.800003	1
158.000000	1
158.250000	1
158.500000	1
159.115281	3
160.600006	1
161.049999	1
162.100006	1
162.800003	1
163.275002	1
166.699997	1
169.000000	1
169.399994	1
171.200003	1
171.800003	1
172.424995	1
173.058068	1
174.988888	1
177.600006	1
181.000000	1
181.300003	1
183.100006	1
184.399994	1
185.049999	1
185.399994	1
186.100006	1
186.500000	1
187.200001	1
187.500000	1
188.199997	1
188.750000	1
189.000000	1
189.281816	1
194.699997	1
194.899994	1
195.399994	1
196.000000	1
196.699997	1
196.949997	1
197.199997	1
197.399994	1
197.699997	1
198.150002	1
198.399994	1
198.670000	1
199.176317	4
200.000000	1
200.550003	1
200.800003	1
201.276921	1
201.699997	1
209.300003	1
210.849998	1
211.300003	1
212.150002	1
212.500000	1
212.943747	1
213.351722	2
213.899994	1
214.349998	1
218.899994	1
222.500000	1
223.233332	1
224.600006	1
225.100006	1
225.699997	1
226.199997	1
227.100003	1
236.699997	1
237.100006	1
237.399994	1
238.000000	1
238.199997	1
238.550003	1
239.300003	1
239.849998	1
240.500000	1
251.100006	1
251.600006	1
251.899994	1
253.100006	1
253.300003	1
253.622223	1
255.315910	999
256.500000	1
256.799988	1
257.000000	1
273.200012	1
275.799988	1
