Mass spectrum: 62FTA; LC-ESI-QQ; MS2; CE20; [M-H-CO2-2HF]-
Name: 62FTA
Name: 62Fluorotelomer Acid
Name: 3,3,4,4,5,5,6,6,7,7,8,8,8-Tridecafluorooctanoic acid
Class: Non-Natural Product
Formula: C8H3F13O2
Exact mass: 377.99255
SMILES: OC(=O)CC(F)(F)C(F)(F)C(F)(F)C(F)(F)C(F)(F)C(F)(F)F
InChI: InChI=1S/C8H3F13O2/c9-3(10,1-2(22)23)4(11,12)5(13,14)6(15,16)7(17,18)8(19,20)21/h1H2,(H,22,23)
Instrument: Xevo TQ MS (Waters)
Instrument type: LC-ESI-QQ
Ms type: MS2
Ion mode: NEGATIVE
Collision energy: 20
Retention time: 0.016833
Base peak: 292.900696
Ion type: [M-H]-
Precursor m/z: 293
Precursor type: [M-H-CO2-2HF]-
m/z	relative intensity
68.838913	42
85.080154	14
88.996605	11
92.940041	83
118.963562	31
130.313599	17
130.962311	59
142.310410	24
143.013214	101
180.982132	18
193.085922	20
219.022171	27
242.304626	34
243.012772	194
292.997559	999
