Mass spectrum: Epicholestanol; LC-APPI-QQ; MS2; CE:50 V; [M-H2O+H]+
Name: Epicholestanol
Class: Natural Product; Sterol
Formula: C27H48O
Exact mass: 388.37052
SMILES: C(C)(C1)(C(C(C)CCCC(C)C)4)C(CC4)C(C2)C(C(C)(C3)C([H])(CC(C3)O)C2)C1
InChI: InChI=1S/C27H48O/c1-18(2)7-6-8-19(3)23-11-12-24-22-10-9-20-17-21(28)13-15-26(20,4)25(22)14-16-27(23,24)5/h18-25,28H,6-17H2,1-5H3/t19?,20-,21+,22?,23?,24?,25?,26?,27?/m0/s1
Instrument: API2000
Instrument type: LC-APPI-QQ
Ms type: MS2
Ion mode: POSITIVE
Retention time: 0.820900 min
Base peak: 80.900002
Precursor m/z: 371.300000
Precursor type: [M-H2O+H]+
m/z	relative intensity
39.099998	1
39.400002	1
41.066667	5
41.599998	1
42.083332	1
43.060464	17
44.700001	1
44.900002	1
45.250000	1
50.500000	1
51.099998	1
52.500000	1
52.700001	1
53.400000	1
55.113752	135
55.700001	3
57.145230	115
58.900002	1
63.299999	1
64.649998	1
64.900002	1
65.330003	2
67.136331	286
69.107535	328
71.146923	53
72.199997	1
72.400002	1
72.599998	1
73.099998	1
74.300003	1
76.149998	1
76.400002	1
77.137838	15
77.784616	3
79.058669	146
81.123702	784
83.119497	193
84.300003	1
84.977778	9
86.000000	1
87.900002	1
88.500000	1
88.900002	1
89.099998	1
89.500000	1
89.800003	1
91.076429	57
93.104957	327
95.074539	999
97.149057	86
98.000000	1
98.300003	1
101.000000	1
101.300003	1
102.300003	1
103.099998	1
103.500000	1
104.000000	1
105.046364	45
107.045603	235
109.124580	410
110.216665	1
111.102174	9
112.000000	1
112.199997	1
112.500000	2
113.000000	1
115.500000	1
116.199997	1
116.599998	1
117.099998	1
117.300003	1
117.500000	1
118.000000	1
119.108334	19
121.121524	151
121.960001	2
122.199997	2
123.065168	72
125.450001	1
128.800003	1
129.199997	1
129.449997	1
130.100006	1
131.277778	2
132.116671	1
133.095124	25
135.157808	135
135.899994	1
136.100006	1
136.474998	1
137.151808	17
137.699997	1
142.699997	1
142.899994	1
144.500000	1
144.800003	1
145.100006	1
145.724998	1
146.300003	1
147.185717	20
149.151781	63
150.399994	1
150.800003	1
151.178570	3
151.699997	1
155.500000	1
156.600006	1
156.899994	1
158.199997	1
158.699997	1
159.260001	2
159.800003	1
160.100001	1
160.399994	1
161.188888	15
161.949997	1
163.206557	25
164.000000	1
164.300003	1
164.899999	2
165.199997	2
165.800003	1
170.800003	1
171.000000	1
171.600006	1
172.000000	1
172.399999	1
172.974998	1
173.300003	1
173.500000	1
173.800003	1
174.050003	1
175.106251	6
175.899994	1
176.199997	1
177.244444	4
177.800003	1
178.800003	1
179.000000	1
179.375000	2
180.300003	1
181.000000	1
181.399994	1
183.150002	1
185.000000	1
186.000000	1
186.300003	1
187.199997	1
187.500000	1
188.100006	1
189.264286	11
190.100006	1
191.083338	1
191.399994	1
193.262501	2
193.500000	1
195.399994	1
198.600006	1
200.600006	1
201.199997	1
201.600006	1
202.199997	1
202.500000	1
203.127271	4
205.362497	2
207.199997	1
207.399994	1
213.199997	1
213.399994	1
214.300003	1
215.300003	1
215.500000	1
215.750000	1
216.174999	2
216.974998	1
217.224998	2
217.600006	1
218.050003	1
218.800003	1
219.100006	1
219.300003	1
220.949997	1
221.250000	1
221.500000	1
222.500000	1
223.199997	1
223.399994	1
225.800003	1
226.300003	1
226.500000	1
227.000000	1
227.699997	1
228.800003	1
229.300003	1
229.800003	1
230.000000	1
230.250000	1
231.000000	1
231.300003	1
231.500000	1
232.800003	1
233.000000	1
233.300003	1
233.500000	1
234.949997	1
235.349998	1
239.500000	1
241.699997	1
242.899994	1
243.199997	1
243.399994	1
243.600006	1
243.899994	1
244.399994	1
245.300003	1
246.500000	1
247.100006	1
247.300003	1
247.500000	1
247.800003	1
249.300003	1
251.100006	1
252.550003	1
254.800003	1
255.500000	1
255.699997	1
255.949997	1
256.399994	1
257.000000	1
257.500000	1
258.000000	1
258.600006	1
259.324989	1
261.150009	1
261.700012	1
263.399994	1
265.100006	1
265.500000	1
265.899994	1
266.799988	1
267.050003	1
267.299988	1
268.000000	1
268.299988	1
269.100006	1
269.299988	1
271.366659	1
272.600006	1
273.200012	1
273.500000	1
275.200012	1
275.449997	1
276.200012	1
279.799988	1
283.299988	1
283.799988	1
285.125008	1
286.000000	1
286.200012	1
286.399994	1
286.849991	1
287.500000	1
289.100006	1
292.700012	1
298.299988	1
299.000000	1
299.500000	1
300.000000	1
303.299988	1
310.150009	1
313.399994	1
313.799988	1
314.600006	1
315.000000	1
324.399994	1
326.000000	1
326.500000	1
327.500000	1
328.200012	1
328.500000	1
338.299988	1
339.399994	1
341.200012	1
341.399994	1
342.399994	1
353.000000	1
355.799988	1
356.600006	1
369.799988	1
370.299988	1
371.299988	1
371.600006	1
371.899994	1
