Mass spectrum: Cholestanol; LC-APPI-QQ; MS2; CE:10 V; [M-H2O+H]+
Name: Cholestanol
Class: Natural Product; Sterol
Formula: C27H48O
Exact mass: 388.37052
SMILES: C(C)(C1)(C(C(C)CCCC(C)C)4)C(CC4)C(C2)C(C(C)(C3)C([H])(CC(C3)O)C2)C1
InChI: InChI=1S/C27H48O/c1-18(2)7-6-8-19(3)23-11-12-24-22-10-9-20-17-21(28)13-15-26(20,4)25(22)14-16-27(23,24)5/h18-25,28H,6-17H2,1-5H3/t19?,20-,21-,22?,23?,24?,25?,26?,27?/m0/s1
Instrument: API2000, Applied
Instrument type: LC-APPI-QQ
Ms type: MS2
Ion mode: POSITIVE
Retention time: 0.820833 min
Base peak: 371.500000
Precursor m/z: 371.451000
Precursor type: [M-H2O+H]+
m/z	relative intensity
55.099998	1
68.699997	1
71.099998	1
71.400002	1
80.199997	1
80.800003	1
81.000000	1
81.400002	1
83.066666	1
85.099998	1
85.300003	1
94.900002	1
95.239999	1
95.599998	1
95.900002	1
96.699997	1
96.916668	1
97.400002	1
98.800003	1
99.099998	1
99.400002	1
106.800003	1
107.049999	1
107.850002	1
108.250000	1
109.033333	1
111.063635	1
111.425001	1
112.950001	1
119.099998	1
120.199997	1
120.871431	1
121.500000	1
122.199997	1
122.946667	1
123.900002	1
124.500000	1
124.699997	1
125.000000	1
126.000000	1
126.199997	1
126.750000	1
129.300003	1
133.000000	1
134.000000	1
134.199997	1
134.399994	1
134.943747	1
135.699997	1
136.199997	1
136.966665	1
137.337498	1
138.699997	1
138.949997	1
139.300003	1
139.500000	1
146.800003	1
147.300003	1
147.899994	1
148.300003	1
149.092310	3
150.199997	1
151.156251	1
152.500000	1
153.100006	1
153.399994	1
160.800003	1
161.349998	1
162.100006	1
162.995000	1
163.310001	1
164.000000	1
164.862497	1
165.145002	1
165.399994	1
166.949997	1
167.500000	1
172.899994	1
173.100006	1
174.000000	1
174.800003	1
175.125004	1
175.399994	1
177.123529	2
177.899994	1
178.150002	1
179.220000	2
180.399994	1
181.199997	1
181.500000	1
188.983332	1
189.300003	1
191.231249	1
192.600006	1
193.383333	2
193.699997	1
195.399999	1
200.600006	1
201.399994	1
202.150002	1
203.178379	2
203.899994	1
204.399994	1
205.230000	1
206.199997	1
207.169233	3
214.500000	1
214.899994	1
215.150002	1
215.899994	1
216.999999	2
219.171427	2
220.000000	1
220.883329	1
221.372728	1
229.300003	1
230.300003	1
231.200002	2
232.349998	1
233.374996	1
233.849998	1
234.699997	1
235.199997	1
235.399994	1
240.899994	1
241.300003	1
243.800003	1
244.199997	1
244.500000	1
245.223811	3
246.300003	1
247.300003	1
248.699997	1
248.899994	1
249.366669	1
250.100006	1
251.100006	1
256.500000	1
256.899994	1
257.399994	1
258.774994	1
259.258823	2
260.500000	1
261.377774	2
262.899994	1
263.100006	1
263.600006	1
265.100006	1
273.100006	1
273.500000	1
274.200012	1
275.100006	1
275.391660	1
275.600006	1
276.799988	1
277.700012	1
284.500000	1
286.849991	1
287.200012	1
287.500000	1
289.025002	1
289.411106	1
300.600006	1
300.916662	1
301.399994	1
301.600006	1
303.299988	1
303.600006	1
314.399994	1
315.158343	1
315.537502	1
315.799988	1
327.299988	1
328.000000	1
328.299988	1
328.899994	1
329.200012	1
329.399994	1
343.500000	1
353.100006	1
353.299988	1
353.899994	1
355.300000	1
356.299988	1
364.100006	1
364.700012	1
368.000000	1
368.399994	1
368.700002	1
371.413589	999
373.700012	1
