Mass spectrum: Dihydrotestosterone; LC-APPI-QQ; MS2; CE:20 V; [M-H2O+H]+
Name: Dihydrotestosterone
Class: Natural Product; Steroid hormone
Formula: C19H30O2
Exact mass: 290.22458
SMILES: O=C(C4)CC([H])(C3)C(C)(C4)C(C2)C(C3)C(C1)C(C)(C2)C(O)C1
InChI: InChI=1S/C19H30O2/c1-18-9-7-13(20)11-12(18)3-4-14-15-5-6-17(21)19(15,2)10-8-16(14)18/h12,14-17,21H,3-11H2,1-2H3/t12-,14?,15?,16?,17-,18?,19?/m0/s1
Instrument: API2000
Instrument type: LC-APPI-QQ
Ms type: MS2
Ion mode: POSITIVE
Retention time: 0.820833 min
Base peak: 273.100006
Precursor m/z: 273.200000
Precursor type: [M-H2O+H]+
m/z	relative intensity
42.700001	1
43.000000	1
49.599998	1
54.799999	1
55.049999	1
55.299999	1
66.500000	1
66.850002	1
67.099998	1
67.400002	1
67.599998	1
68.400002	1
68.599998	1
68.928573	1
69.250000	1
69.599998	1
70.300003	1
70.599998	1
70.800003	1
71.199997	1
73.300003	1
76.699997	1
77.099998	1
77.300003	1
79.020000	1
80.049999	1
81.100000	8
82.000000	1
82.500000	1
82.930770	2
84.500000	1
84.942858	1
86.950001	1
87.300003	1
90.099998	1
90.350002	1
90.900002	1
91.099998	1
91.500000	1
91.900002	1
92.099998	1
92.300003	1
93.000000	2
93.900002	1
95.011765	16
96.300003	1
97.300003	4
98.199997	1
98.500000	1
99.020000	1
101.199997	1
102.699997	1
103.099998	1
103.800003	1
104.860871	2
106.199997	1
107.054999	11
107.699997	1
108.022222	1
109.089447	37
110.099998	1
110.400002	1
111.200001	2
111.900002	1
112.250000	1
112.500000	1
113.063637	2
115.000000	1
115.699997	1
116.833333	1
117.400002	1
117.699997	1
117.900002	1
118.539999	1
119.106896	5
120.099998	1
121.106849	14
123.058163	91
123.800003	1
124.199997	1
124.450001	1
125.080002	1
126.900002	1
127.300003	1
128.800003	1
129.300003	1
129.600006	1
131.147828	4
131.800003	1
132.000000	1
132.199997	1
133.108850	10
134.000000	1
134.199997	1
135.108247	9
136.000000	1
137.106252	6
138.300003	1
138.500000	1
139.199999	1
140.100006	1
141.199997	1
142.300003	1
142.724998	1
143.249996	1
143.750000	1
144.000000	1
145.081731	19
145.974998	1
147.192684	15
147.899994	1
149.166500	19
149.899994	1
150.199997	1
151.142857	3
151.899994	1
152.750000	1
153.100006	1
154.199997	1
154.449997	1
154.750000	1
155.099998	1
155.899994	1
156.399994	1
156.699997	1
156.924995	1
158.000000	1
159.123128	42
161.157755	46
163.196593	38
164.100006	1
164.600006	1
165.115383	2
166.750000	1
167.000000	1
167.199997	1
167.399994	1
168.699997	1
168.899994	1
169.199997	1
169.399994	1
169.699997	1
170.000000	1
170.300003	1
171.175001	3
172.300003	1
172.500000	1
173.189744	22
175.125641	7
176.300003	1
177.218750	6
178.100006	1
178.500000	1
179.000002	1
179.362497	1
180.000000	1
180.874996	1
181.100006	1
181.849998	1
182.100006	1
182.300003	1
183.349998	1
184.100006	1
185.144444	17
186.125000	1
187.231818	6
188.039999	1
189.171111	8
189.899994	1
190.600006	1
190.994735	2
192.899994	1
193.100006	1
195.250000	1
196.750000	1
197.199997	1
199.207223	41
200.125004	1
200.399994	1
201.300003	4
203.232258	17
203.800003	1
204.199997	1
204.399994	1
204.699997	1
205.077781	1
205.399994	1
207.100006	1
208.800003	1
209.100006	1
209.300003	1
209.500000	1
210.199997	1
210.699997	1
210.949997	1
211.199997	1
211.399994	1
212.000000	1
213.171874	18
215.185567	27
217.096155	5
219.100006	1
222.899994	1
223.399999	1
224.800003	1
225.300003	1
226.224998	1
227.269443	7
228.000000	1
228.349998	1
229.260603	3
230.000000	1
230.283333	1
231.016668	1
233.349998	1
237.075005	1
237.300003	1
237.600006	1
237.800003	1
238.699997	1
239.800003	1
241.184906	5
242.150002	1
242.699997	1
243.274998	1
244.000000	1
244.300003	1
245.200594	16
246.100006	1
246.600006	1
249.800003	1
252.699997	1
253.144446	1
253.600006	1
253.849998	1
255.314161	392
256.200012	1
256.500000	1
257.299988	1
258.241178	8
264.500000	1
267.500000	1
269.200012	1
270.200012	1
270.799988	1
271.399994	1
271.757141	1
273.321865	999
274.399994	1
