Mass spectrum: Stigmasterol; LC-APPI-QQ; MS2; CE:50 V; [M-H2O+H]+
Name: Stigmasterol
Class: Natural Product; Sterol
Formula: C29H48O
Exact mass: 412.37052
SMILES: C(C4)C(C(CC4O)=3)(C(C(CC3)2)CCC(C21)(C(CC1)C(C)C=CC(C(C)C)CC)C)C
InChI: InChI=1S/C29H48O/c1-7-21(19(2)3)9-8-20(4)25-12-13-26-24-11-10-22-18-23(30)14-16-28(22,5)27(24)15-17-29(25,26)6/h8-10,19-21,23-27,30H,7,11-18H2,1-6H3/b9-8+/t20?,21?,23-,24?,25?,26?,27?,28?,29?/m0/s1
Instrument: API2000
Instrument type: LC-APPI-QQ
Ms type: MS2
Ion mode: POSITIVE
Retention time: 0.820833 min
Base peak: 83.199997
Precursor m/z: 395.500000
Precursor type: [M-H2O+H]+
m/z	relative intensity
39.000000	1
39.299999	1
40.000000	1
41.200001	4
42.099998	2
43.106522	100
44.000000	1
51.025000	1
51.900002	1
52.500000	1
52.799999	1
53.249999	4
54.068749	5
55.080621	290
57.135082	267
58.200001	1
58.599998	1
64.099998	1
64.300003	1
65.059999	3
65.400002	1
65.699997	2
66.199997	3
67.125130	299
69.121626	696
71.120933	206
72.900002	1
75.800003	1
76.099998	1
76.362502	2
77.103922	16
79.057423	222
81.126323	999
83.126872	726
85.125000	87
88.300003	1
88.599998	1
88.800003	1
89.300003	2
90.054545	3
91.052811	210
93.098164	643
95.069363	980
95.900002	2
97.161111	168
98.099998	1
98.500000	1
98.850000	1
99.199997	1
99.400002	1
100.599998	1
101.199997	1
101.400002	1
102.000000	1
102.199997	1
102.574999	1
103.000000	3
103.537499	5
105.076872	564
107.068581	530
109.136164	538
110.099998	1
110.400002	2
111.093749	20
111.800003	1
112.199997	1
113.800003	1
114.500000	2
115.175000	5
115.757144	2
117.111111	56
119.071203	413
121.136452	385
122.064285	4
123.114155	136
124.199997	1
124.400002	1
124.900002	2
125.099998	2
125.400002	1
126.500000	1
127.066666	2
127.300003	1
128.100003	9
129.300003	11
131.120793	188
131.926666	9
133.136050	332
133.869231	8
135.145925	282
136.199997	2
137.090697	27
140.000000	1
140.733332	2
141.959088	7
143.071573	61
145.127811	409
147.153493	534
148.000000	2
149.188048	127
149.899994	1
150.300003	1
150.800003	2
151.130003	3
151.399994	3
152.000000	1
153.000000	1
153.699997	1
154.000000	1
154.199997	1
154.399994	1
155.163638	7
155.750000	4
156.037500	5
157.149351	96
159.140876	419
161.150357	348
162.233332	4
163.176106	70
164.750000	1
165.199997	2
165.500000	1
167.000000	1
167.800003	1
168.374996	1
168.699997	2
169.030768	8
170.075001	7
171.148147	84
173.221924	301
174.072732	3
175.103247	96
176.300003	1
177.245282	16
179.374996	1
179.600006	1
180.699997	1
181.100006	1
181.500000	1
181.950001	1
182.325001	1
183.210526	12
185.149062	99
187.190729	188
188.083338	2
189.234746	73
191.177782	6
191.500000	1
192.000000	1
192.699997	1
192.899994	1
193.100006	1
194.800003	1
195.100006	1
195.300003	1
195.600006	1
196.349998	1
197.205265	12
199.257492	102
201.200597	208
202.399994	1
203.318348	34
205.185717	4
205.600006	1
207.300003	1
209.000000	1
209.199997	1
210.300003	1
211.106670	9
212.255000	12
213.225708	143
215.189936	148
216.075005	1
216.300003	1
216.600006	1
217.300000	8
218.500000	1
218.800003	1
219.060001	2
219.500000	1
221.250000	1
221.500000	1
222.899994	1
223.199997	1
223.399994	1
223.899994	1
224.199997	1
225.183335	11
227.288297	88
228.000000	2
228.284614	4
228.600006	2
229.355171	36
230.399994	1
231.163638	7
231.600006	2
232.600006	1
233.100006	1
233.300003	2
233.899994	1
235.300003	1
237.100006	1
237.399994	1
238.300003	1
239.193748	10
240.219998	3
241.258306	95
242.299997	2
243.299998	12
244.100006	1
244.600006	1
244.800003	1
245.116671	2
245.500000	2
245.800003	1
247.300003	1
250.899994	1
252.100006	1
253.285294	11
254.300003	6
255.340186	67
256.000000	1
256.799988	1
257.185717	9
257.899994	1
258.100006	1
259.100006	2
259.437496	5
259.799988	1
260.600006	1
260.949997	1
261.299988	1
261.500000	1
261.700012	1
262.200012	1
263.899994	1
264.700012	1
266.299988	1
266.500000	1
266.700012	1
267.255554	6
267.600006	3
268.084621	4
268.500000	1
269.376249	25
270.050003	1
270.600006	1
271.323520	5
272.799988	1
273.337490	2
273.899994	1
275.550003	1
277.000000	1
278.399994	1
279.000000	1
279.200012	1
279.399994	1
279.799988	1
280.100006	1
281.000000	1
281.449997	1
281.799988	1
282.299988	1
283.365451	17
284.200012	1
284.399994	1
284.799988	1
285.418745	5
287.100006	1
287.299988	2
289.100006	1
292.899994	1
293.299988	1
294.299988	1
294.500000	1
294.799988	1
295.262497	2
295.799988	1
296.000000	1
297.324494	30
298.399994	1
299.352001	8
300.799988	1
301.299988	1
301.700012	1
307.600006	1
308.000000	1
308.299988	1
309.000000	1
309.299998	1
309.600006	1
309.899994	1
310.150009	1
310.600006	1
310.799988	1
311.000000	2
311.349995	11
312.100006	1
312.799988	1
313.228577	4
313.600006	2
313.899994	2
314.700012	1
315.399994	1
320.399994	1
322.000000	1
322.200012	1
323.000000	1
323.399994	1
324.700012	1
325.100006	1
325.337490	2
325.600006	1
326.050003	1
326.600006	1
326.799988	1
327.700012	1
327.899994	1
333.200012	1
336.799988	1
337.100006	1
337.600006	1
338.100006	1
338.899994	1
339.453333	5
340.200012	1
340.700012	1
349.799988	1
350.299988	1
351.100006	1
351.600006	1
352.349991	1
352.899994	1
353.200012	1
353.650009	1
364.600006	1
365.399994	1
366.399994	1
366.700012	1
367.200012	1
367.399994	1
367.799988	1
380.100006	1
380.449997	1
380.700012	1
380.899994	1
393.299988	1
394.600006	1
395.513890	22
