Mass spectrum: 82FTA; LC-ESI-QQ; MS2; CE10; [M-H]-
Name: 82FTA
Name: 82Fluorotelomer Acid
Name: 3,3,4,4,5,5,6,6,7,7,8,8,9,9,10,10,10-Heptadecafluorodecanoic acid
Class: Non-Natural Product
Formula: C10H3F17O2
Exact mass: 477.98616
SMILES: OC(=O)CC(F)(F)C(F)(F)C(F)(F)C(F)(F)C(F)(F)C(F)(F)C(F)(F)C(F)(F)F
InChI: InChI=1S/C10H3F17O2/c11-3(12,1-2(28)29)4(13,14)5(15,16)6(17,18)7(19,20)8(21,22)9(23,24)10(25,26)27/h1H2,(H,28,29)
Instrument: Xevo TQ MS (Waters)
Instrument type: LC-ESI-QQ
Ms type: MS2
Ion mode: NEGATIVE
Collision energy: 10
Retention time: 0.016817
Base peak: 393.357391
Precursor m/z: 477
Precursor type: [M-H]-
m/z	relative intensity
61.545025	46
61.826477	74
62.823208	652
67.449860	74
293.060120	41
312.934448	64
327.125122	44
392.380890	292
392.997864	999
394.994995	45
408.869171	46
413.072357	372
419.059113	31
433.099609	140
477.017731	554
