Mass spectrum: Epicholestanol; LC-APPI-QQ; MS2; CE:60 V; [M-H2O+H]+
Name: Epicholestanol
Class: Natural Product; Sterol
Formula: C27H48O
Exact mass: 388.37052
SMILES: C(C)(C1)(C(C(C)CCCC(C)C)4)C(CC4)C(C2)C(C(C)(C3)C([H])(CC(C3)O)C2)C1
InChI: InChI=1S/C27H48O/c1-18(2)7-6-8-19(3)23-11-12-24-22-10-9-20-17-21(28)13-15-26(20,4)25(22)14-16-27(23,24)5/h18-25,28H,6-17H2,1-5H3/t19?,20-,21+,22?,23?,24?,25?,26?,27?/m0/s1
Instrument: API2000
Instrument type: LC-APPI-QQ
Ms type: MS2
Ion mode: POSITIVE
Retention time: 0.820850 min
Base peak: 67.099998
Precursor m/z: 371.300000
Precursor type: [M-H2O+H]+
m/z	relative intensity
38.800001	1
39.500000	1
40.000000	1
41.157895	21
42.200001	1
43.144736	41
44.299999	1
45.200001	1
51.200001	1
51.400002	1
52.000000	1
52.799999	1
53.172728	3
53.400002	2
55.115706	291
57.175490	138
58.599998	1
63.750000	1
64.300003	1
65.155555	5
65.588234	5
67.126107	586
69.133928	470
71.120555	49
72.300003	1
72.975000	1
73.199997	1
73.699997	1
74.300003	1
75.000000	1
75.599998	1
76.000000	1
77.079200	34
79.042016	349
81.123984	979
83.123541	139
84.699997	1
84.986667	4
85.300003	3
87.000000	1
88.350002	1
88.699997	1
89.350002	1
89.599998	1
91.079555	122
93.114956	514
95.080612	999
97.174242	36
97.850002	1
100.199997	1
102.400002	1
103.049999	1
103.300003	1
103.600000	2
104.099998	1
105.048176	74
107.038677	270
109.125252	268
110.200000	1
111.025000	2
111.400002	1
111.599998	1
114.099998	1
114.900002	1
115.250000	1
115.699997	1
116.099998	1
116.800002	1
117.228571	4
117.699997	1
119.105618	48
121.132515	88
122.000000	1
123.085599	34
124.199997	1
124.450001	1
127.199997	1
128.899994	1
129.100006	1
130.000000	1
130.300003	1
130.810002	3
131.200003	3
132.100006	1
132.399994	2
133.080003	19
133.699997	1
135.155761	59
135.899994	1
136.100006	1
136.399994	1
136.650002	1
137.237503	4
141.600006	1
141.800003	1
142.050003	1
142.800003	1
144.000000	1
144.449997	1
145.030002	3
145.300003	2
145.600006	1
146.100006	1
147.148573	19
147.800003	1
148.199997	1
148.399994	2
149.238461	14
151.300003	1
152.000000	1
155.899994	1
156.600006	1
157.100006	1
157.600006	1
158.150002	1
158.399994	1
159.066671	2
159.399994	1
159.699997	1
160.100001	1
160.399994	1
160.600006	1
161.107142	8
161.650002	2
162.300003	1
163.083336	3
164.800003	1
167.100006	1
173.000000	1
173.399994	1
173.600006	1
173.800003	1
174.000000	1
174.199997	1
174.399994	1
174.600006	1
175.383329	2
176.500000	1
176.849998	1
177.199997	1
177.949997	1
178.199997	1
179.100006	1
183.899994	1
186.899994	1
187.100006	1
187.300003	1
188.899994	1
189.150002	1
189.650002	1
191.100006	1
191.300003	1
192.399994	1
193.699997	1
201.199997	1
201.600000	1
202.050003	1
202.349998	1
202.949997	1
203.600006	1
206.050003	1
207.100006	1
208.699997	1
215.000000	1
215.250000	1
215.500000	1
215.800003	1
216.100006	1
216.400002	1
217.000000	1
217.600006	1
218.100006	1
218.500000	1
227.699997	1
228.300003	1
229.199997	1
229.399994	1
229.600006	1
230.199997	1
231.000000	1
231.800003	1
233.000000	1
233.199997	1
236.699997	1
239.000000	1
239.199997	1
240.100006	1
240.349998	1
241.300003	1
241.500000	1
242.000000	1
242.300003	1
242.500000	1
243.000000	1
243.199997	1
243.600006	1
244.100006	1
245.000000	1
245.600006	1
247.600006	1
251.399994	1
252.199997	1
253.100006	1
253.500000	1
254.899994	1
256.299988	1
256.899994	1
257.299998	1
258.000000	1
258.200012	1
258.399994	1
258.899994	1
259.150009	1
259.449997	1
260.600006	1
265.000000	1
265.500000	1
266.299988	1
267.200012	1
268.899994	1
269.500000	1
270.700012	1
271.000000	1
271.299988	1
271.899994	1
272.100006	1
273.600006	1
273.899994	1
279.000000	1
281.000000	1
282.100006	1
283.899994	1
284.899994	1
285.349991	1
286.299988	1
286.500000	1
293.700012	1
300.100006	1
311.399994	1
313.299988	1
313.600006	1
313.799988	1
315.299988	1
315.500000	1
326.399994	1
327.700012	1
328.100006	1
341.299988	1
341.899994	1
342.100006	1
342.600006	1
352.000000	1
354.500000	1
