Mass spectrum: 1mPFOS; LC-ESI-QQ; MS2; CE10eV
Name: 1mPFOS
Class: Non-Natural Product
Formula: C8HF17O3S
Exact mass: 499.93749
SMILES: FC(F)(F)C(F)(F)C(F)(F)C(F)(F)C(F)(F)C(F)(F)C(F)(C(F)(F)F)S(O)(=O)=O
InChI: InChI=1S/C8HF17O3S/c9-1(10,3(13,14)5(17,18)7(20,21)22)2(11,12)4(15,16)6(19,8(23,24)25)29(26,27)28/h(H,26,27,28)
Instrument: Xevo TQ, Waters
Instrument type: LC-ESI-QQ
Ms type: MS2
Ion mode: NEGATIVE
Collision energy: 10eV
Retention time: 14.759617 min
Base peak: 499.049835
Precursor m/z: 498.9
Precursor type: [M-H]-
m/z	relative intensity
98.799586	159
168.732323	85
219.079361	45
268.909921	16
418.718776	92
498.957716	999
