Mass spectrum: 24-Ethylcoprostanol; LC-APPI-QQ; MS2; CE:20 V; [M-H2O+H]+
Name: 24-Ethylcoprostanol
Class: Natural Product; Sterol
Formula: C29H52O
Exact mass: 416.40182
SMILES: C(C34[H])(CCC(O)C4)(C([H])(C([H])2CC3)CCC(C([H])12)(C)C(CC1)([H])C(CCC(C(C)C)CC)C)C
InChI: InChI=1S/C29H52O/c1-7-21(19(2)3)9-8-20(4)25-12-13-26-24-11-10-22-18-23(30)14-16-28(22,5)27(24)15-17-29(25,26)6/h19-27,30H,7-18H2,1-6H3/t20-,21+,22-,23+,24+,25-,26+,27+,28+,29-/m1/s1
Instrument: API2000
Instrument type: LC-APPI-QQ
Ms type: MS2
Ion mode: POSITIVE
Retention time: 0.820833 min
Base peak: 399.200012
Precursor m/z: 399.500000
Precursor type: [M-H2O+H]+
m/z	relative intensity
40.500000	1
41.000000	1
42.799999	1
43.799999	1
44.099998	1
44.299999	1
45.062500	2
45.425001	1
54.650000	1
55.100000	1
55.500000	1
56.599998	1
56.900000	1
57.299999	1
58.799999	1
64.800003	1
65.199997	1
66.199997	1
66.549999	1
66.900002	1
69.037499	2
69.699997	1
70.049999	1
70.450001	1
71.043334	3
71.800003	1
73.099998	1
78.099998	1
78.599998	1
79.000000	1
79.699997	1
80.000000	1
80.199997	1
80.919446	4
82.149998	1
82.500000	1
82.986957	5
83.500000	1
84.300003	1
84.937501	2
85.266666	2
85.699997	1
87.099998	1
90.699997	1
90.900002	1
91.099998	1
92.199997	1
92.500000	1
93.000000	2
93.599998	1
93.800003	1
95.026744	17
95.900002	1
97.167593	11
99.189997	1
99.400002	1
99.975000	1
100.699997	1
101.123913	9
103.900002	1
104.800003	1
105.049999	1
105.400002	1
105.900002	1
106.199997	1
106.616666	1
107.079999	1
107.422223	1
108.972567	23
110.300001	1
111.054348	9
113.000000	1
113.400002	1
115.199997	1
118.500000	1
119.000000	1
119.500000	1
121.054718	11
123.071500	20
123.699997	1
123.900002	1
125.151062	5
126.900002	1
127.099998	1
127.400002	1
128.800003	1
129.100006	1
132.600006	1
132.800003	1
133.100006	1
133.300003	1
133.600006	1
134.125000	1
135.078448	24
135.866664	1
136.283335	1
137.146268	20
138.300003	1
139.075610	4
140.699997	1
142.699997	1
143.099999	2
144.849998	1
145.233332	1
145.550003	1
146.300003	1
147.217391	2
147.699997	1
149.144445	27
149.800003	1
150.199997	1
151.170396	15
152.399994	1
152.800003	1
153.166669	1
154.899994	1
160.199997	1
161.275002	1
161.800003	1
162.487499	1
163.188890	24
164.199997	1
165.178211	18
166.600006	1
166.899994	1
167.300003	1
169.500000	1
172.399994	1
174.250000	1
175.137208	4
175.849998	1
176.100006	1
177.216237	28
178.300003	1
179.165001	8
179.899994	1
180.300003	1
180.699997	1
181.349998	1
187.199997	1
187.849998	1
189.164788	14
190.300003	1
191.159575	10
192.300003	1
192.500000	1
193.259648	6
193.800003	1
194.000000	1
195.000000	1
195.300003	1
195.500000	1
196.449997	1
197.500000	1
199.102953	48
201.100006	1
201.899994	1
202.150002	1
202.399994	1
203.176404	18
204.000000	1
204.199997	1
204.399994	1
205.360525	8
207.220288	7
207.699997	1
208.100006	1
208.899994	1
209.100006	1
209.300003	1
213.500000	1
214.933329	1
215.224998	1
216.000000	1
216.437496	1
217.230769	8
218.399994	1
218.600006	1
219.217646	7
219.800003	1
220.100006	1
221.248891	5
222.300003	1
225.136365	1
225.500000	1
226.800003	1
227.399994	1
227.600006	1
229.550003	1
230.199997	1
230.500000	1
231.193182	9
232.300003	1
232.800003	1
233.000000	1
233.199997	1
235.309375	20
236.100006	1
237.699997	1
241.300003	1
242.974998	1
243.349998	1
244.000000	1
244.349998	1
244.600006	1
245.009376	3
245.385454	6
247.204166	2
247.899994	1
249.270369	5
254.949997	1
255.199997	1
256.700012	1
256.899994	1
257.100006	1
257.324989	1
258.000000	1
258.200012	1
258.683345	1
259.285712	6
260.449997	1
261.185726	1
261.433329	2
262.150009	1
262.600006	1
263.253333	3
263.899994	1
269.299988	1
269.500000	1
270.899994	1
271.299988	1
273.472221	2
274.500000	1
275.415382	5
276.200012	1
276.500000	1
277.342848	1
277.700012	1
284.500000	1
285.399994	1
285.849991	1
286.150009	1
287.186486	8
288.100006	1
288.500000	1
289.374514	10
291.100006	1
291.600006	1
291.799988	1
292.299988	1
293.100006	1
295.600006	1
297.000000	1
297.299988	1
298.100006	1
299.213868	38
300.200012	1
300.399994	1
301.288708	6
302.200012	1
302.399994	1
303.314630	4
305.349991	1
305.700012	1
313.399994	1
315.259998	1
315.564290	1
317.214281	3
317.500000	1
325.200012	1
327.600006	1
328.200012	1
328.399994	1
328.799988	1
329.344438	1
329.633341	1
330.399994	1
331.340002	1
341.000000	1
341.200012	1
342.299988	1
343.394730	2
349.299988	1
356.600006	1
357.299988	1
357.500000	1
363.700012	1
365.600006	1
368.899994	1
370.299988	1
371.100006	1
371.299988	1
381.200012	1
381.600006	1
382.000000	1
383.899994	1
384.299988	1
384.500000	1
384.700012	1
384.899994	1
396.200012	1
396.650009	1
397.050003	1
397.299988	1
397.600006	1
398.000000	1
399.420131	999
400.600006	1
400.799988	1
401.100006	1
401.899994	1
423.700012	1
