Mass spectrum: Cholesterol; LC-APPI-QQ; MS2; CE:60 V; [M-H2O+H]+
Name: Cholesterol
Class: Natural Product; Sterol
Formula: C27H46O
Exact mass: 386.35487
SMILES: CC(C4)(C(CC(O)C4)=3)C(C2)C(CC3)C(C1)C(C)(C2)C(C(C)CCCC(C)C)C1
InChI: InChI=1S/C27H46O/c1-18(2)7-6-8-19(3)23-11-12-24-22-10-9-20-17-21(28)13-15-26(20,4)25(22)14-16-27(23,24)5/h9,18-19,21-25,28H,6-8,10-17H2,1-5H3/t19?,21-,22?,23?,24?,25?,26?,27?/m0/s1
Instrument: API2000, Applied
Instrument type: LC-APPI-QQ
Ms type: MS2
Ion mode: POSITIVE
Retention time: 0.820833 min
Base peak: 81.000000
Precursor m/z: 369.420000
Precursor type: [M-H2O+H]+
m/z	relative intensity
38.099998	1
38.299999	1
39.000000	1
39.599998	1
41.125882	30
43.068073	96
44.200001	1
45.099998	1
49.900002	1
50.599998	1
51.000001	1
52.025000	1
55.046705	369
57.099626	235
58.350000	1
59.099998	1
61.099998	1
61.400002	1
62.400002	1
63.200001	1
64.948719	7
67.078130	589
69.065085	440
71.111496	89
72.099998	1
73.599998	1
74.000000	1
74.300003	1
74.699997	1
74.950001	1
77.034329	47
79.016466	381
81.085378	999
83.081250	220
85.129412	9
86.049999	1
86.900002	1
87.300003	1
87.500000	1
87.900002	1
91.031129	475
93.078157	651
95.030215	776
97.077647	45
98.199997	1
100.500000	1
100.750000	1
101.099998	1
101.300003	1
102.099998	1
105.025764	790
107.026007	385
109.065295	355
110.183331	1
111.035555	4
111.800003	1
113.500000	1
113.800003	1
114.199997	1
114.971930	5
117.066159	58
119.033533	398
121.061129	112
123.072167	36
123.850002	1
124.199997	1
124.400002	1
124.900002	1
125.800003	1
126.599998	1
128.100002	3
129.124309	16
131.084562	75
133.079872	179
135.053676	96
135.983332	1
136.250000	1
137.155557	4
140.874996	1
141.100006	1
142.011765	1
143.023188	12
145.017537	94
147.079889	191
148.000000	1
149.102439	22
150.050003	1
150.399994	1
150.600006	1
150.899994	1
151.399994	1
153.199997	1
153.750000	1
154.000000	1
154.500000	1
155.000000	1
155.424995	1
156.087505	1
157.048836	8
159.088475	52
161.084543	75
162.250000	1
163.446152	2
164.800003	1
165.100006	1
166.000000	1
166.399999	1
167.000000	1
168.199997	1
168.399994	1
169.000000	1
169.666667	1
170.926923	5
173.131901	14
173.820001	1
175.070943	10
176.500000	1
177.174999	1
177.500000	1
177.899994	1
178.600006	1
179.374996	1
179.600006	1
182.100006	1
182.399994	1
182.699997	1
183.000000	1
183.349998	1
183.650002	1
183.899994	1
184.399994	1
185.190589	7
185.900001	2
187.056002	4
188.000000	1
188.300003	1
189.217855	2
190.800003	1
191.199997	1
193.199997	1
193.500000	1
194.800003	1
195.100006	1
195.500000	1
196.100006	1
196.849998	1
197.199997	1
197.699997	1
198.199997	1
198.500000	1
199.157894	7
200.176922	2
201.192500	7
202.000000	1
202.600006	1
203.025002	1
203.500000	1
204.800003	1
205.199997	1
205.399994	1
205.600006	1
207.100006	1
207.399994	1
208.300003	1
210.899994	1
211.349998	1
211.949997	1
212.199997	1
212.500000	1
213.080005	1
213.937496	1
215.012501	2
215.899994	1
216.100006	1
217.077781	1
218.800003	1
219.000000	1
220.899994	1
223.300003	1
223.800003	1
224.899994	1
225.300003	1
226.400000	1
227.075005	1
228.100006	1
229.199997	1
229.399994	1
231.100006	1
232.600006	1
233.300003	1
235.000000	1
239.399994	1
240.000000	1
240.199997	1
240.600006	1
240.800003	1
241.000000	1
241.300003	1
242.000000	1
243.100006	1
243.360001	1
244.899994	1
245.100006	1
245.300003	1
245.500000	1
247.100006	1
247.600006	1
251.899994	1
252.399994	1
252.600006	1
252.849998	1
253.100006	1
254.100006	1
254.349998	1
254.750000	1
255.100006	1
255.600006	1
256.000000	1
256.799988	1
257.000000	1
257.299988	1
257.500000	1
257.799988	1
258.600006	1
258.899994	1
259.150009	1
259.550003	1
263.100006	1
265.100006	1
265.799988	1
266.299988	1
268.200012	1
268.750000	1
269.250000	1
269.500000	1
269.700012	1
270.200012	1
271.100006	1
271.299988	1
271.500000	1
273.000000	1
273.200012	1
273.399994	1
277.399994	1
282.799988	1
283.299988	1
284.250000	1
285.100006	1
285.500000	1
287.349991	1
289.100006	1
290.899994	1
292.299988	1
298.799988	1
299.100006	1
299.399994	1
301.600006	1
313.250000	1
313.500000	1
325.600006	1
327.399994	1
327.700012	1
332.899994	1
337.500000	1
339.600006	1
340.700012	1
341.150009	1
353.399994	1
369.100006	1
369.500000	1
369.700012	1
