Mass spectrum: 82FTA; LC-ESI-QQ; MS2; CE40; [M-H]-
Name: 82FTA
Name: 82Fluorotelomer Acid
Name: 3,3,4,4,5,5,6,6,7,7,8,8,9,9,10,10,10-Heptadecafluorodecanoic acid
Class: Non-Natural Product
Formula: C10H3F17O2
Exact mass: 477.98616
SMILES: OC(=O)CC(F)(F)C(F)(F)C(F)(F)C(F)(F)C(F)(F)C(F)(F)C(F)(F)C(F)(F)F
InChI: InChI=1S/C10H3F17O2/c11-3(12,1-2(28)29)4(13,14)5(15,16)6(17,18)7(19,20)8(21,22)9(23,24)10(25,26)27/h1H2,(H,28,29)
Instrument: Xevo TQ MS (Waters)
Instrument type: LC-ESI-QQ
Ms type: MS2
Ion mode: NEGATIVE
Collision energy: 40
Retention time: 0.016833
Base peak: 254.940994
Precursor m/z: 477
Precursor type: [M-H]-
m/z	relative intensity
63.004852	430
68.788933	133
89.122482	118
92.895218	289
118.929420	606
126.709175	83
130.823639	252
142.803146	102
168.898453	192
170.731232	231
192.937897	505
201.254013	66
204.874832	73
210.825104	142
211.114716	74
242.953766	712
247.108612	89
254.955872	557
259.040283	56
274.106445	96
292.868744	68
331.162140	63
342.953094	444
393.068604	999
