Mass spectrum: Dehydroepiandrosterone; LC-APPI-QQ; MS2; CE:40 V; [M-2H2O+H]+
Name: Dehydroepiandrosterone
Class: Natural Product; Steroid hormone
Formula: C19H28O2
Exact mass: 288.20893
SMILES: OC(C4)CC(=C3)C(C)(C4)C(C2)C(C3)C(C1)C(C)(C2)C(=O)C1
InChI: InChI=1S/C19H28O2/c1-18-9-7-13(20)11-12(18)3-4-14-15-5-6-17(21)19(15,2)10-8-16(14)18/h3,13-16,20H,4-11H2,1-2H3/t13-,14?,15?,16?,18?,19?/m0/s1
Instrument: API2000
Instrument type: LC-APPI-QQ
Ms type: MS2
Ion mode: POSITIVE
Retention time: 0.820833 min
Base peak: 197.100006
Precursor m/z: 253.300000
Precursor type: [M-2H2O+H]+
m/z	relative intensity
38.799999	1
39.299999	1
39.700001	1
40.100000	1
41.109434	7
43.050981	10
45.200001	1
47.599998	1
50.500000	1
51.200001	1
51.400002	1
52.758333	1
53.010000	1
54.000000	1
55.072131	75
56.500000	1
57.096428	4
58.700001	1
59.000000	1
60.000000	1
61.900002	1
62.900002	1
63.299999	1
63.850000	1
64.099998	1
64.500000	1
65.116439	5
67.083414	184
69.092835	65
70.450001	1
71.250000	1
72.599998	1
72.850002	1
73.099998	1
74.699997	1
75.099998	1
77.056897	36
79.012934	202
81.085045	438
82.221053	3
83.067668	39
84.000000	1
84.599998	1
85.099998	1
87.199997	1
87.500000	1
87.699997	1
88.099998	1
88.300003	1
88.549999	1
91.040444	303
93.099132	284
95.042988	135
96.400002	1
96.931580	1
97.400002	1
98.000000	1
100.500000	1
101.300003	1
101.500000	1
102.139998	1
103.135385	18
105.005597	351
107.048285	108
109.091553	55
109.900002	1
110.300003	1
110.500000	1
110.699997	1
111.000000	1
111.450001	1
113.099998	1
113.624998	1
115.037370	40
117.092845	119
119.067328	111
121.073273	61
122.942858	4
124.500000	1
125.099998	1
125.599998	1
129.078945	307
130.109511	52
131.120534	149
133.092857	63
135.128000	17
135.800003	1
136.050003	1
136.899994	1
137.150002	1
137.800003	1
138.399994	1
139.271430	1
141.113037	207
142.097529	233
143.083591	373
145.073272	240
147.118616	83
147.962498	1
149.162162	5
150.199997	1
153.117273	45
155.065451	380
157.125894	428
159.122640	142
160.000000	2
161.132143	8
162.271428	1
162.800003	1
163.500000	1
163.899994	1
164.100006	1
165.173405	13
167.101509	136
169.089279	379
171.099096	182
173.227325	35
173.833333	1
174.500000	1
174.800003	1
175.199997	1
175.399994	1
176.300003	1
176.600006	1
177.000000	1
177.300003	1
177.550003	1
178.212502	2
178.971430	4
180.199999	11
181.152548	113
182.179298	317
183.147859	313
185.121636	104
187.187642	24
188.250000	1
189.100006	1
190.100006	1
190.500000	1
190.799998	1
191.100006	1
191.366664	1
191.699997	1
191.899994	1
192.155557	2
192.899994	1
195.159099	73
197.191990	999
199.162185	33
201.699997	1
201.899994	1
202.699997	1
203.100006	1
204.000000	1
204.199997	1
204.699997	1
204.899994	1
205.133336	1
205.800003	1
206.000000	1
207.388886	2
208.100006	2
209.175687	65
211.175280	172
212.194220	12
213.000000	1
213.199997	1
213.500000	1
217.000000	1
218.600006	1
218.966670	1
219.300003	1
219.600006	1
220.075005	1
220.800003	1
221.399994	1
222.164289	2
223.238342	98
224.215281	31
225.208489	55
234.100006	1
234.699997	1
235.100006	1
236.093938	2
236.500000	1
237.263461	14
238.256267	77
239.100006	1
239.300003	1
249.199997	1
249.600006	1
250.399994	1
251.146810	3
252.100006	1
253.301128	219
254.899994	1
