Mass spectrum: Dehydroepiandrosterone; LC-APPI-QQ; MS
Name: Dehydroepiandrosterone
Class: Natural Product; Steroid hormone
Formula: C19H28O2
Exact mass: 288.20893
SMILES: OC(C4)CC(=C3)C(C)(C4)C(C2)C(C3)C(C1)C(C)(C2)C(=O)C1
InChI: InChI=1S/C19H28O2/c1-18-9-7-13(20)11-12(18)3-4-14-15-5-6-17(21)19(15,2)10-8-16(14)18/h3,13-16,20H,4-11H2,1-2H3/t13-,14?,15?,16?,18?,19?/m0/s1
Instrument: API2000
Instrument type: LC-APPI-QQ
Ms type: MS
Ion mode: POSITIVE
Retention time: 0.821067 min
Base peak: 253.300003
Ion type: [M-2H2O+H]+,[M-H2O+H]+
m/z	relative intensity
201.178535	13
203.144138	16
205.149895	13
207.163737	13
208.187256	4
209.190884	18
211.201067	37
213.186349	160
214.231207	29
215.188579	19
216.237500	4
217.188737	6
219.138148	9
221.146940	12
222.155151	4
223.172772	13
224.212778	4
225.244933	35
227.232143	24
228.224113	10
229.189997	25
231.199148	38
232.223122	8
233.193970	16
235.175929	27
237.212423	26
238.195806	7
239.228326	22
241.295374	23
243.231738	40
244.251619	12
245.201082	50
246.239580	15
247.211697	49
249.232865	109
251.229338	100
253.267924	999
257.240811	26
259.235594	41
261.186744	30
263.190734	33
265.210534	36
267.213782	50
269.245353	92
271.280065	937
275.222526	11
277.191294	14
279.188102	39
281.252297	14
283.224668	37
285.268826	121
287.277050	34
289.332916	22
290.328690	6
291.229923	7
293.233266	7
295.217185	6
297.290072	6
299.279644	8
301.281747	9
303.343217	11
304.387309	3
305.333865	4
307.306132	4
309.264395	3
310.309313	1
311.299243	4
313.275171	4
315.330062	8
317.285916	6
319.299371	4
321.315863	3
323.290948	2
325.281917	2
327.252802	3
329.276867	2
331.259352	3
333.295063	3
335.317154	7
336.330844	2
337.341950	5
339.314220	4
341.333195	3
343.341573	3
345.342558	3
347.290920	3
349.333112	7
350.297873	2
351.332053	5
353.351571	5
355.357621	6
357.383748	8
359.379472	23
361.332131	4
363.321521	3
365.320164	3
367.332220	2
369.396936	3
371.400553	5
373.405592	5
375.409865	10
377.372831	15
379.354171	2
381.371526	1
383.346708	1
385.443144	2
386.378123	1
387.439055	1
389.402490	2
391.445764	6
393.390642	2
395.409835	1
397.377440	1
399.412576	5
401.449364	1
402.299988	1
403.468281	1
405.450257	1
407.453815	1
409.440580	1
411.423998	2
413.452995	1
415.411765	1
416.456883	1
417.479703	1
419.486288	1
421.510406	1
422.519720	1
423.502958	1
425.439229	1
426.597733	1
427.452056	1
428.517155	1
429.439998	1
431.390907	1
433.539616	1
434.554549	1
435.497959	1
436.511112	1
437.479547	1
439.502326	1
440.459088	1
441.435650	1
442.400002	1
443.424071	1
445.417910	1
446.348149	1
447.550236	1
448.518180	1
449.550724	1
451.520304	1
452.405257	1
453.446028	1
455.504855	1
456.546973	1
457.435290	1
459.409936	1
460.512000	1
461.481538	1
462.646427	1
463.506534	1
464.480006	1
465.534849	1
467.450448	1
468.543905	1
469.580708	1
470.299988	1
471.394340	1
472.594736	1
473.424136	1
474.458333	1
475.484617	1
476.498363	1
477.490153	1
479.526167	1
480.164296	1
480.658334	1
481.538197	1
483.509616	1
484.484376	1
485.448646	1
487.496210	1
488.710010	1
489.506667	1
490.500000	1
491.388092	1
492.521054	1
493.498959	1
494.200012	1
495.535116	1
496.603360	1
497.496345	1
498.600006	1
499.482715	1
