Mass spectrum: Epiandrosterone; LC-APPI-QQ; MS2; CE:40 V; [M-H2O+H]+
Name: Epiandrosterone
Name: 3-beta-Hydroxy-5alpha-androstan-17-one
Class: Natural Product; Steroid hormone
Formula: C19H30O2
Exact mass: 290.22458
SMILES: OC(C4)CC([H])(C3)C(C)(C4)C(C2)C(C3)C(C1)C(C)(C2)C(=O)C1
InChI: InChI=1S/C19H30O2/c1-18-9-7-13(20)11-12(18)3-4-14-15-5-6-17(21)19(15,2)10-8-16(14)18/h12-16,20H,3-11H2,1-2H3/t12-,13-,14?,15?,16?,18?,19?/m0/s1
Instrument: API2000
Instrument type: LC-APPI-QQ
Ms type: MS2
Ion mode: POSITIVE
Retention time: 0.820833 min
Base peak: 104.900002
Precursor m/z: 273.300000
Precursor type: [M-H2O+H]+
m/z	relative intensity
38.799999	1
39.000000	1
39.799999	1
41.140000	4
43.116216	14
45.099998	1
50.799999	1
51.000000	1
51.400002	1
51.700001	1
52.400002	1
53.000000	1
53.266666	2
54.000000	1
55.121084	61
56.000000	1
56.299999	1
57.166666	7
59.500000	1
62.000000	1
62.700001	1
63.900002	1
64.300003	1
64.500000	1
64.733332	2
65.179997	4
65.500000	3
67.101034	214
68.300003	2
69.064239	56
70.300003	1
70.599998	2
70.955556	7
71.199997	4
71.599998	1
71.900002	1
73.000000	1
74.699997	1
75.000000	1
75.199997	1
76.000000	2
77.092857	83
79.051460	530
81.122117	623
83.130645	91
84.300003	1
85.354547	4
85.900002	1
86.400002	1
88.599998	1
89.000000	2
91.077888	520
93.122501	734
95.059396	439
96.362502	3
97.053571	21
98.800003	1
99.099998	2
99.500000	1
100.300003	1
101.599998	1
101.950001	1
102.299999	1
102.900002	6
105.043247	999
107.059690	784
109.114957	173
109.900002	1
110.099998	1
110.325003	1
111.207693	10
112.699997	1
113.000000	1
113.350002	1
113.900002	1
114.099998	1
114.400002	1
115.176923	19
117.097948	144
117.800003	7
119.078582	504
120.000000	2
121.076605	161
122.000000	1
123.127000	74
123.699997	1
124.199997	1
124.699999	2
125.124998	1
128.226315	28
129.131374	75
131.153847	288
133.124070	257
133.899994	2
135.152501	192
135.800003	1
136.000000	1
137.068186	8
137.449997	4
139.275002	1
140.075005	1
140.500000	1
140.800003	3
141.042860	5
143.063493	186
145.118480	427
147.141820	482
149.168235	63
149.949997	1
150.399994	1
151.172729	8
151.899994	1
152.125004	1
152.600006	1
153.083338	2
153.500000	1
154.050003	1
154.399994	1
155.035716	5
155.699997	4
157.166822	158
159.122727	389
161.131215	598
162.099998	3
162.399994	1
163.233333	13
164.000000	1
164.300003	1
164.750000	2
165.225002	3
165.600006	1
166.000000	1
166.299998	1
166.800003	1
167.174999	3
167.775002	1
168.199997	1
169.175000	22
171.069557	191
173.192746	285
174.199997	3
175.173973	54
175.899994	1
176.199997	1
176.500000	1
177.145002	7
177.800003	1
178.500000	1
178.699997	1
179.216665	2
179.849998	1
180.699997	1
181.025002	1
182.133336	2
182.416662	2
183.142857	10
184.178377	27
185.181250	177
185.800003	3
186.136843	14
187.165673	49
188.000000	1
188.199997	2
189.158334	13
189.899994	1
190.699997	1
191.100006	2
193.199997	1
194.849998	2
195.199997	1
195.899994	1
196.100006	1
197.013334	6
197.300003	3
197.928571	5
199.206875	236
200.173333	17
201.369230	14
202.180554	27
203.172224	7
204.199997	1
204.699997	1
205.100006	1
205.399994	1
207.500000	1
210.300003	1
211.199997	7
211.899994	1
212.300003	2
213.231522	68
214.239999	4
214.600006	3
215.213861	37
216.000000	1
216.216665	2
217.199997	6
218.000000	1
218.349998	1
218.800003	1
219.199997	1
224.399994	1
224.600006	1
225.362499	6
226.185713	5
227.242109	14
228.399994	1
228.800003	1
229.100006	3
229.384614	5
230.208331	4
230.899994	1
231.399994	1
232.199997	1
238.500000	1
239.100006	1
239.399994	1
239.699997	1
240.100006	4
241.000000	1
241.199997	1
241.399994	1
242.349998	1
242.699997	1
243.100006	1
243.349998	1
243.800003	1
244.100006	3
245.157144	13
248.600006	1
251.800003	1
252.300003	1
252.699997	1
253.100006	1
253.666667	2
253.899994	1
254.399994	2
255.310940	168
256.100006	1
256.449997	1
257.000000	2
258.299991	4
259.500000	1
265.799988	1
271.000000	1
271.200012	1
271.799988	1
272.000000	1
272.299988	1
273.269228	19
