Mass spectrum: Epiandrosterone; LC-APPI-QQ; MS2; CE:40 V; [M-2H2O+H]+
Name: Epiandrosterone
Name: 3-beta-Hydroxy-5alpha-androstan-17-one
Class: Natural Product; Steroid hormone
Formula: C19H30O2
Exact mass: 290.22458
SMILES: OC(C4)CC([H])(C3)C(C)(C4)C(C2)C(C3)C(C1)C(C)(C2)C(=O)C1
InChI: InChI=1S/C19H30O2/c1-18-9-7-13(20)11-12(18)3-4-14-15-5-6-17(21)19(15,2)10-8-16(14)18/h12-16,20H,3-11H2,1-2H3/t12-,13-,14?,15?,16?,18?,19?/m0/s1
Instrument: API2000
Instrument type: LC-APPI-QQ
Ms type: MS2
Ion mode: POSITIVE
Retention time: 0.820850 min
Base peak: 81.099998
Precursor m/z: 255.300000
Precursor type: [M-2H2O+H]+
m/z	relative intensity
38.250000	1
38.900002	1
39.099998	1
39.400002	1
39.700001	1
40.299999	1
41.200000	5
42.000000	1
43.093125	13
49.900002	1
50.200001	1
50.574999	1
51.200001	1
51.400002	1
51.650000	1
52.100000	1
52.872728	2
53.226667	2
53.799999	1
54.000000	1
55.086696	151
56.387500	1
57.130000	10
57.599998	1
57.900002	1
58.150000	1
58.700001	1
58.900002	1
59.200001	1
62.299999	1
62.599998	1
62.825000	1
63.150000	1
63.599998	1
63.900002	1
65.114036	9
67.116180	475
69.102283	109
70.300003	1
71.033333	1
71.900002	1
73.000000	1
74.300003	1
74.599998	1
74.900002	1
75.099998	1
77.073810	108
79.049882	630
81.107209	992
83.110902	158
84.400002	1
84.599998	1
84.900002	1
85.350002	1
85.599998	1
86.599998	1
86.900002	1
87.300003	1
88.133331	1
91.055345	745
93.101486	726
95.065403	589
96.099998	1
97.199997	2
98.800003	1
100.199997	1
100.400002	1
100.800003	1
101.099998	1
101.500000	1
105.049784	999
107.052910	406
109.094219	169
110.099998	1
110.599998	1
111.400002	1
112.300003	1
112.900002	1
113.724998	1
115.040594	34
117.081302	259
119.078547	398
121.100119	139
123.078261	31
123.800003	1
124.099998	1
124.500000	1
124.950001	1
125.966667	1
126.300003	1
129.086436	187
131.140297	470
133.151027	234
135.138366	99
136.299995	1
137.300003	1
138.399994	1
138.983336	1
139.300003	1
139.600006	1
140.075005	1
143.090682	280
145.103184	745
147.153124	316
149.157273	46
149.899994	1
150.199997	1
150.500000	1
150.800003	1
151.000000	1
151.399994	1
151.849998	1
152.300003	1
153.106666	2
154.091672	1
155.100000	26
157.150594	223
159.144957	424
161.156015	261
162.118754	1
163.213794	5
163.500000	1
164.100006	1
164.928571	1
165.399997	1
165.699997	1
166.066671	1
167.116670	2
169.147519	23
171.111318	218
173.196707	297
174.192646	6
175.205465	30
176.399994	1
176.800003	1
177.252172	2
179.399994	1
179.874996	1
180.899994	1
181.399994	1
183.134876	23
185.171926	233
187.174597	103
189.210025	33
190.849998	1
192.000000	1
192.500000	1
192.800003	1
193.200005	1
194.000000	1
194.399994	1
195.000000	1
196.091672	1
196.399994	1
197.206690	24
199.210536	284
201.169938	40
201.899994	1
202.199997	1
206.650002	1
206.949997	1
208.300003	1
208.600006	1
209.100006	1
209.500000	1
209.800003	1
211.178883	27
211.899994	1
213.242094	78
214.272729	4
214.899994	1
217.300003	1
218.399994	1
218.600006	1
220.899994	1
221.100006	1
221.300003	1
221.800003	1
223.255556	1
223.800003	1
224.100006	1
224.366664	1
225.221428	19
226.166407	21
227.262366	31
228.300003	1
236.100006	1
236.600006	1
237.100006	1
238.300003	1
238.500000	1
239.324999	1
240.282835	11
251.000000	1
251.600006	1
252.100006	1
252.600006	1
253.329032	5
254.000000	1
255.326734	196
256.200012	1
