Mass spectrum: Progesterone; LC-APPI-QQ; MS2; CE:20 V; [M+H]+
Name: Progesterone
Class: Natural Product; Steroid hormone
Formula: C21H30O2
Exact mass: 314.22458
SMILES: O=C(C4)C=C(C3)C(C)(C4)C(C2)C(C3)C(C1)C(C)(C2)C(C(C)=O)C1
InChI: InChI=1S/C21H30O2/c1-13(22)17-6-7-18-16-5-4-14-12-15(23)8-10-20(14,2)19(16)9-11-21(17,18)3/h12,16-19H,4-11H2,1-3H3
Instrument: API2000
Instrument type: LC-APPI-QQ
Ms type: MS2
Ion mode: POSITIVE
Retention time: 0.820850 min
Base peak: 315.299988
Precursor m/z: 315.400000
Precursor type: [M+H]+
m/z	relative intensity
41.000000	1
41.500000	1
42.099998	1
43.048386	1
52.900002	1
53.200001	1
53.400002	1
54.599998	1
55.074999	1
55.299999	1
56.900002	1
57.250000	1
58.299999	1
65.199997	1
65.500000	1
65.800003	1
66.000000	1
66.300003	1
66.500000	1
67.135712	1
67.900002	1
68.699999	1
69.199997	1
69.599998	1
70.927274	1
71.900002	1
76.500000	1
76.950001	1
77.400002	1
78.250000	1
79.154544	1
79.599998	1
79.900002	1
80.300003	1
81.142553	2
83.067482	5
84.099998	1
85.101216	6
85.950001	1
87.000000	1
90.875002	1
91.171426	1
91.900002	1
92.199997	1
92.599998	1
93.058025	2
93.950001	1
97.086757	253
98.599998	1
99.000000	1
99.450001	1
99.800003	1
100.099998	1
100.950001	1
102.800003	1
103.699997	1
103.900002	1
104.199997	1
104.800003	1
105.121428	1
106.000000	1
109.073503	181
110.981250	1
111.222726	1
112.366669	1
113.094286	1
115.199999	1
115.599998	1
115.900002	1
116.674997	1
117.042856	1
117.400002	1
117.800003	1
119.057408	3
119.900002	1
121.093443	7
123.061905	14
123.699997	1
123.900002	1
124.300003	1
124.500000	1
125.000000	1
125.300003	1
126.199997	1
127.099998	1
127.300003	1
127.500000	1
128.000000	1
128.300003	1
128.550003	1
128.899994	1
129.800003	1
130.000000	1
131.146666	2
132.177778	1
133.115875	2
134.000000	1
135.120482	3
135.866664	1
136.100006	1
137.143577	3
138.000000	1
138.199997	1
138.399994	1
139.122498	1
139.800003	1
141.100006	1
141.399994	1
142.000000	1
142.300003	1
143.124244	1
143.899994	1
145.109442	4
147.096865	6
147.966665	1
148.374996	1
149.147458	3
149.800003	1
150.050003	1
151.078313	2
152.199997	1
152.899994	1
153.279996	1
153.899994	1
154.300003	1
154.550003	1
155.100000	1
155.750000	1
156.399994	1
157.139682	2
158.150002	1
159.128211	8
161.109314	4
161.800003	1
162.025002	1
162.300003	1
163.129927	5
164.050003	1
164.399994	1
165.075002	1
166.699997	1
167.000000	1
167.266668	1
167.600006	1
168.100006	1
169.015001	1
169.441663	1
169.724998	1
170.100006	1
171.136529	4
172.300003	1
173.157144	7
174.000000	1
174.199997	1
175.138583	5
176.000000	1
177.175711	7
178.100006	1
179.199999	1
179.899994	1
180.600006	1
180.800003	1
181.254547	1
181.799998	1
182.100006	1
182.399994	1
183.191791	3
184.000000	1
185.174783	4
185.899994	1
187.168987	6
188.000000	1
189.204918	9
190.300003	1
191.154348	3
193.144445	1
194.000000	1
194.250000	1
194.699997	1
195.079171	1
196.000000	1
196.449997	1
197.202225	2
198.100006	1
199.172511	4
200.100006	1
200.387495	1
201.167742	9
202.300003	1
203.135253	3
204.100006	1
204.300003	1
205.257502	2
206.199997	1
207.177422	1
207.800003	1
209.080909	2
210.000000	1
210.433334	1
211.137929	2
212.399994	1
213.188559	8
215.205066	19
216.000000	1
216.349998	1
217.230985	1
219.242672	4
220.399994	1
220.699997	1
221.000000	1
221.449997	1
222.000000	1
222.424995	1
223.196176	3
224.500000	1
225.307792	1
226.000000	1
226.600006	1
227.249237	9
228.166667	1
229.207213	6
231.163478	2
232.100006	1
233.236788	7
234.100001	1
234.500000	1
235.000000	1
235.449997	1
236.199997	1
236.500000	1
237.318180	2
239.270158	10
240.025002	1
240.300003	1
241.259166	7
242.100001	1
242.699997	1
243.143752	1
243.849998	1
245.293748	5
246.899994	1
247.399994	1
249.000000	1
249.250000	1
249.849998	1
251.163635	2
252.000000	1
253.271129	7
254.183332	1
255.313457	21
257.265580	4
258.299988	1
258.600006	1
259.150009	1
259.459998	1
259.799988	1
263.600006	1
264.000000	1
264.399994	1
264.600006	1
265.449997	1
266.200012	1
266.899994	1
267.274994	1
268.100006	1
268.299988	1
269.311536	2
270.299988	1
271.309089	2
272.180011	1
273.331150	11
276.600006	1
277.500000	1
278.183345	1
279.283547	25
280.349991	1
282.100006	1
282.299988	1
282.849991	1
283.200000	1
283.600006	1
284.799988	1
285.125008	1
286.500000	1
287.191678	1
291.600006	1
295.000000	1
295.474998	1
297.276090	72
298.500000	1
299.399994	1
300.299988	1
310.100006	1
310.550003	1
311.150009	1
311.399994	1
311.750000	1
312.200012	1
312.750000	1
315.282433	999
317.150009	1
317.550003	1
