Mass spectrum: Stigmasterol; LC-APPI-QQ; MS
Name: Stigmasterol
Class: Natural Product; Sterol
Formula: C29H48O
Exact mass: 412.37052
SMILES: C(C4)C(C(CC4O)=3)(C(C(CC3)2)CCC(C21)(C(CC1)C(C)C=CC(C(C)C)CC)C)C
InChI: InChI=1S/C29H48O/c1-7-21(19(2)3)9-8-20(4)25-12-13-26-24-11-10-22-18-23(30)14-16-28(22,5)27(24)15-17-29(25,26)6/h8-10,19-21,23-27,30H,7,11-18H2,1-6H3/b9-8+/t20?,21?,23-,24?,25?,26?,27?,28?,29?/m0/s1
Instrument: API2000
Instrument type: LC-APPI-QQ
Ms type: MS
Ion mode: POSITIVE
Retention time: 0.821067 min
Base peak: 395.399994
Ion type: [M-H2O+H]+
m/z	relative intensity
201.200655	61
202.163595	15
203.174667	53
205.148884	15
207.174591	16
209.169184	19
211.164769	29
213.146847	33
214.191404	9
215.185950	53
216.220256	10
217.219923	17
218.151907	5
219.141022	13
221.136275	12
223.156553	14
224.167782	4
225.196464	15
227.206031	23
228.214545	8
229.192936	29
231.187641	23
233.181692	16
235.137384	13
237.145671	80
238.125756	22
239.159391	25
241.269824	34
243.238273	30
245.197925	31
247.180833	31
249.176738	27
251.162666	28
253.226440	47
255.242420	689
259.223699	23
261.199289	23
263.153890	16
265.169819	13
267.193302	21
269.213755	32
271.220301	53
273.267997	33
275.205716	13
277.171812	10
279.174962	19
281.256150	17
283.253402	36
285.257419	29
287.260182	34
289.265545	10
291.213384	8
292.227042	2
293.245897	10
295.270977	15
297.347523	122
298.340434	34
299.302003	37
300.292611	15
301.311263	17
303.258946	9
304.319410	2
305.299387	8
307.304914	11
309.304056	18
311.379203	196
312.389735	57
313.342104	26
314.314618	11
315.290012	13
317.233941	6
319.264327	4
321.307603	6
323.283509	8
325.327237	21
327.296774	11
329.290244	8
331.209516	5
333.173308	4
335.238293	5
337.294944	7
339.345487	14
341.287569	5
343.290340	5
345.259388	5
347.264759	7
349.279548	7
351.393338	25
353.385508	12
355.450538	14
357.307355	6
359.277131	5
361.303694	12
363.302874	10
365.355576	9
367.360064	10
369.437316	18
371.382767	7
373.376822	9
375.365887	11
377.364112	14
379.401086	30
381.414835	25
383.470984	90
385.452644	17
387.456833	19
389.467228	31
391.474168	70
393.444617	82
395.425703	999
396.482792	443
397.448331	186
401.438349	17
403.462187	24
405.445421	28
407.478893	121
409.444008	216
410.449291	83
411.418015	75
412.489186	57
413.448243	23
417.460468	7
418.441594	3
419.455151	4
421.464172	7
423.500838	9
425.450563	6
427.436187	11
429.429315	5
430.530802	2
431.489080	4
433.467440	3
434.427415	1
435.474078	3
437.480089	3
439.469250	3
441.439000	4
442.451465	2
443.381818	2
445.388204	2
446.335803	1
447.468109	2
449.512632	2
451.398989	1
453.402190	1
455.443931	1
456.496613	1
457.320932	1
459.386398	1
461.439078	1
463.468233	1
465.434287	1
467.367241	1
468.479309	1
469.424240	1
471.387605	1
473.422024	1
474.440481	1
475.427628	1
476.501613	1
477.457221	1
479.440911	1
480.650569	1
481.497561	1
482.511595	1
483.511735	1
485.543432	3
486.533739	1
487.563322	2
489.516783	2
490.550259	1
491.413371	1
492.535149	1
493.480664	1
494.680529	1
495.523563	1
497.572175	2
499.559302	3
