Mass spectrum: Androsterone; LC-APPI-QQ; MS2; CE:60 V; [M-H2O+H]+
Name: Androsterone
Class: Natural Product; Steroid hormone
Formula: C19H30O2
Exact mass: 290.22458
SMILES: OC(C4)CC([H])(C3)C(C)(C4)C(C2)C(C3)C(C1)C(C)(C2)C(=O)C1
InChI: InChI=1S/C19H30O2/c1-18-9-7-13(20)11-12(18)3-4-14-15-5-6-17(21)19(15,2)10-8-16(14)18/h12-16,20H,3-11H2,1-2H3/t12-,13+,14?,15?,16?,18?,19?/m0/s1
Instrument: API2000
Instrument type: LC-APPI-QQ
Ms type: MS2
Ion mode: POSITIVE
Retention time: 0.820867 min
Base peak: 91.199997
Precursor m/z: 273.300000
Precursor type: [M-H2O+H]+
m/z	relative intensity
37.500000	1
38.099998	1
38.984616	1
41.120354	37
42.200001	1
43.120606	27
44.099998	1
44.299999	1
44.500000	1
44.799999	1
45.099998	1
45.400002	1
47.299999	1
49.599998	1
49.799999	1
50.049999	1
50.400002	1
51.200000	1
52.099998	1
53.144444	15
55.069967	197
56.299999	1
57.142353	7
57.900002	1
58.750000	1
59.124999	1
59.425001	1
60.799999	1
61.000000	1
62.500000	1
63.150000	1
63.475000	1
63.799999	1
65.088048	41
67.124807	293
69.115490	47
70.400002	1
70.952633	3
72.000000	1
72.400002	1
73.099998	1
73.500000	1
73.800003	1
74.099998	1
74.883335	1
77.070538	386
79.052216	660
81.126006	349
82.491667	1
83.162376	16
83.800003	1
84.599998	1
84.850002	1
85.099998	1
87.099998	1
87.549999	1
88.083332	1
88.559999	1
91.069262	999
93.099306	349
95.081005	103
96.000000	1
97.139215	4
98.400002	1
98.900002	1
99.500000	1
99.900002	1
100.599998	1
100.800003	1
101.599998	1
103.105677	63
105.057482	736
107.069752	98
108.000000	1
109.085611	11
109.950001	1
110.599998	1
110.900002	1
111.350002	1
112.000000	1
113.099998	1
113.400002	1
115.087453	86
117.097880	152
119.085996	221
119.800003	1
120.176471	3
121.161224	8
121.900002	1
122.099998	1
123.010000	2
123.300003	1
124.099998	1
124.300003	1
124.800003	1
125.099998	1
125.800003	1
128.110927	121
129.085266	164
130.123667	76
131.133739	106
132.160376	4
133.160046	36
135.120000	5
136.600001	1
136.924995	1
137.349998	1
138.399994	1
138.800003	1
139.100003	1
141.142702	52
142.094268	79
143.097200	98
144.152459	30
145.093667	79
146.208696	4
147.131138	27
147.899994	1
148.349998	1
148.666667	1
149.225002	1
149.600006	1
150.399994	1
150.699997	1
151.000000	1
151.300003	1
151.766668	1
152.012501	1
152.300003	1
152.516668	1
153.084374	5
155.064773	28
156.118644	24
157.133241	58
159.107844	16
160.000000	1
160.199997	1
161.245651	7
162.000000	1
162.600001	1
163.166667	1
163.399994	1
163.600006	1
164.300003	1
164.600006	1
164.800003	1
165.275002	1
165.899994	1
166.199997	1
166.399994	1
167.109089	4
168.077361	4
168.399994	2
169.087076	24
170.100000	10
171.113935	20
173.175865	5
173.500000	2
173.849998	1
174.399994	1
174.600006	1
175.000000	1
175.399994	1
175.949997	1
176.800003	1
177.100006	1
178.000000	1
178.300003	1
178.500000	1
178.800003	1
179.150002	1
180.399994	1
181.100006	1
181.481817	1
181.869997	1
182.200002	2
183.166667	11
184.271427	3
185.126829	13
186.199997	1
186.960001	1
187.474998	1
187.977776	1
188.399994	1
188.800003	1
189.220408	4
189.800003	1
190.100001	1
191.050003	1
191.500000	1
192.500000	1
193.000000	1
193.300003	1
193.800003	1
194.000000	1
194.600006	1
194.800003	1
195.000000	1
195.199997	1
195.399994	1
195.899994	1
196.150002	1
196.500000	1
197.211537	4
198.257141	1
199.230769	9
199.956247	1
201.122225	2
202.110063	13
202.899994	1
207.399994	1
208.500000	1
208.699997	1
209.100006	1
209.300003	1
209.500000	1
210.050003	1
210.500000	1
211.188572	3
211.800003	1
212.199997	1
212.899994	1
213.168422	2
213.699997	1
213.899994	1
214.287502	1
215.125000	7
216.316668	1
217.250000	1
223.199997	1
223.500000	1
223.699997	1
224.100006	1
225.100006	1
225.947823	2
226.500000	1
226.833333	1
227.374996	1
227.771428	1
228.100006	1
228.899994	1
229.100006	1
229.300003	1
230.100006	1
237.500000	1
238.399994	1
239.133336	1
240.100006	1
240.600006	1
240.899994	1
241.399994	1
242.000000	1
242.849998	1
243.100006	1
243.449997	1
243.699997	1
243.899994	1
244.100006	1
245.100006	1
246.300003	1
251.800003	1
253.600006	1
254.849998	1
255.199997	1
256.399994	1
256.600006	1
257.100006	1
258.000000	1
258.600006	1
270.849991	1
271.250000	1
