Mass spectrum: Dihydrotestosterone; LC-APPI-QQ; MS2; CE:20 V; [M-2H2O+H]+
Name: Dihydrotestosterone
Class: Natural Product; Steroid hormone
Formula: C19H30O2
Exact mass: 290.22458
SMILES: O=C(C4)CC([H])(C3)C(C)(C4)C(C2)C(C3)C(C1)C(C)(C2)C(O)C1
InChI: InChI=1S/C19H30O2/c1-18-9-7-13(20)11-12(18)3-4-14-15-5-6-17(21)19(15,2)10-8-16(14)18/h12,14-17,21H,3-11H2,1-2H3/t12-,14?,15?,16?,17-,18?,19?/m0/s1
Instrument: API2000
Instrument type: LC-APPI-QQ
Ms type: MS2
Ion mode: POSITIVE
Retention time: 0.820850 min
Base peak: 255.399994
Precursor m/z: 255.200000
Precursor type: [M-2H2O+H]+
m/z	relative intensity
41.000000	1
43.400002	1
54.599998	1
54.799999	1
55.000000	1
55.316666	1
57.299999	1
64.199997	1
65.099998	1
65.300003	1
65.699997	1
67.075861	1
67.800003	1
68.300003	1
69.300003	1
69.599998	1
70.500000	1
71.049999	1
74.800003	1
77.199997	1
77.400002	1
78.099998	1
78.868752	1
79.199997	1
81.117470	13
82.549999	1
83.275002	1
84.900002	1
85.300003	1
86.800003	1
89.300003	1
89.900002	1
90.300003	1
90.500000	1
90.972223	2
91.900002	1
93.044047	3
94.037499	1
95.035849	13
96.250000	1
96.500000	1
96.843752	1
97.099998	1
97.408335	1
100.800003	1
103.300003	1
103.500000	1
104.099998	1
105.030667	12
106.025000	1
107.034341	15
107.800003	1
109.121505	8
110.350002	1
110.599998	1
111.000000	1
113.000000	1
115.099998	1
115.400002	1
115.699997	1
117.167567	1
117.975000	1
119.053703	4
119.900001	1
121.154504	9
121.800003	1
122.000000	1
123.093182	4
124.199997	1
124.900002	1
125.199997	1
126.599998	1
128.199997	1
128.399994	1
129.166668	1
129.883329	1
131.092209	6
133.180954	10
134.362497	1
135.139767	7
136.150002	1
137.230002	1
137.500000	1
139.199997	1
140.500000	1
140.699997	1
141.000000	1
141.399994	1
142.199997	1
142.995831	2
143.963638	1
145.093045	34
147.117750	19
148.300003	1
149.141893	6
150.300003	1
151.275002	1
152.699997	1
153.300003	1
154.399994	1
154.800003	1
155.000000	1
155.399994	1
155.699997	1
156.000000	1
156.199997	1
157.245900	2
157.874996	1
159.132742	43
161.131314	24
163.221052	2
164.899994	1
165.100006	1
165.300003	1
165.899994	1
166.650002	1
167.100006	1
167.699997	1
167.899994	1
168.399994	1
168.899994	1
169.300001	1
169.800003	1
171.138711	6
173.195138	25
175.165934	7
176.800003	1
177.199997	1
177.399994	1
177.600006	1
179.150002	1
180.000000	1
180.250000	1
181.077777	1
182.399994	1
182.899994	1
183.330000	1
184.312502	1
185.145284	13
186.224998	1
186.500000	1
187.177940	8
188.150002	1
188.600006	1
189.349999	1
191.000000	1
191.399994	1
192.600006	1
193.199997	1
193.399994	1
193.899994	1
194.199997	1
194.399994	1
194.600006	1
195.170368	1
196.300003	1
197.020001	1
197.379996	1
197.699997	1
199.202304	39
200.121053	2
200.500000	1
201.240912	2
204.899994	1
205.150002	1
205.600006	1
207.300003	1
208.099998	1
208.874996	1
209.218184	1
210.449997	1
210.899994	1
211.200002	1
211.971427	1
213.222869	22
214.000000	1
214.600006	1
218.899994	1
219.500000	1
221.199997	1
222.000000	1
222.300003	1
223.037313	3
223.600006	1
224.199997	1
224.399994	1
224.800003	1
225.100006	1
225.374996	1
225.899994	1
226.324242	1
227.243897	17
228.199997	1
235.399994	1
236.199997	1
236.525002	1
237.275000	2
238.199997	1
238.399994	1
239.199997	1
239.399994	1
239.800003	1
240.100006	1
240.378946	1
243.600006	1
247.800003	1
251.050003	1
251.899994	1
252.399994	1
255.316322	999
257.000000	1
