Mass spectrum: Dehydroepiandrosterone; LC-APPI-QQ; MS2; CE:50 V; [M-H2O+H]+
Name: Dehydroepiandrosterone
Class: Natural Product; Steroid hormone
Formula: C19H28O2
Exact mass: 288.20893
SMILES: OC(C4)CC(=C3)C(C)(C4)C(C2)C(C3)C(C1)C(C)(C2)C(=O)C1
InChI: InChI=1S/C19H28O2/c1-18-9-7-13(20)11-12(18)3-4-14-15-5-6-17(21)19(15,2)10-8-16(14)18/h3,13-16,20H,4-11H2,1-2H3/t13-,14?,15?,16?,18?,19?/m0/s1
Instrument: API2000
Instrument type: LC-APPI-QQ
Ms type: MS2
Ion mode: POSITIVE
Retention time: 0.820850 min
Base peak: 91.199997
Precursor m/z: 271.300000
Precursor type: [M-H2O+H]+
m/z	relative intensity
38.599998	1
38.799999	1
39.200001	1
39.599998	1
39.799999	1
40.099998	1
41.083168	26
43.070220	70
44.200001	1
44.700001	1
45.400002	1
49.599998	1
50.750000	1
51.216667	2
52.000000	1
52.299999	1
53.200001	3
53.700001	1
53.950001	4
55.084677	257
55.933334	2
56.299999	1
57.322222	5
58.049999	1
58.500000	1
58.900002	1
59.099998	1
59.500000	1
63.400002	1
64.375002	1
65.134147	21
67.101239	460
69.111210	88
70.099998	1
71.047127	45
72.199997	1
72.500000	1
74.199997	1
74.400002	1
74.800003	1
75.360002	1
76.099998	2
77.072615	168
79.041814	703
81.109126	954
83.077236	96
83.900002	1
84.199999	1
85.119999	3
86.199997	1
86.400002	1
88.000000	1
88.400002	1
91.041997	947
93.076135	662
95.062105	369
97.100000	354
97.950001	2
98.300003	1
98.699997	1
99.099998	1
99.450001	1
100.900002	1
101.300003	1
101.699997	1
102.033333	2
102.992857	40
105.023237	999
107.020516	231
109.094611	87
110.000000	1
110.800003	2
111.044444	5
112.500000	1
112.699997	1
113.000000	1
113.300003	1
113.950001	3
115.069067	97
117.071691	282
119.055866	362
120.230769	3
121.151938	67
122.099998	1
122.300003	1
123.086047	22
124.699997	1
125.074999	1
126.470000	3
128.085149	314
129.083221	460
131.132036	399
133.128592	188
134.199997	2
135.074586	47
135.899994	1
136.600006	1
136.912495	2
137.233332	5
138.100006	1
138.300003	1
138.899994	1
139.487501	2
141.114914	212
142.084090	239
143.105878	344
145.051644	315
147.144613	120
147.899994	1
148.160001	3
149.073334	8
150.899994	2
151.200001	2
152.154763	11
153.084032	62
155.100546	285
157.145413	282
158.120689	30
159.095594	153
160.100006	5
161.110667	39
162.250000	1
163.115388	3
163.600006	1
164.300003	1
165.066666	22
166.077500	21
167.120099	106
169.091872	293
171.072936	226
172.214492	18
173.179546	57
174.202379	11
175.092312	7
176.100006	1
176.699997	1
177.100006	1
177.300003	1
177.500000	1
178.000000	2
179.368420	5
181.072506	96
182.180344	105
183.129426	113
184.150002	21
185.168949	113
186.237503	4
187.234374	33
188.283334	6
189.138891	9
190.800003	1
191.199997	1
192.000000	1
192.199997	1
193.100000	3
193.399994	1
194.235897	10
195.243284	35
196.330508	31
197.190316	155
198.230823	72
199.198856	45
200.131253	4
201.056758	10
202.100006	1
202.500000	1
203.139999	3
203.600006	1
205.899994	1
206.100006	1
206.800003	1
207.100003	1
207.500000	1
207.899994	2
208.150002	3
209.196490	30
211.206249	66
213.224457	95
215.122221	23
215.899994	1
219.000000	1
219.300003	1
219.600006	1
220.100006	1
220.399994	1
220.750000	1
221.050003	1
221.500000	1
222.199997	1
222.399994	1
223.235779	56
224.000000	3
224.399994	2
225.250001	8
226.399994	2
226.699997	1
227.205405	29
228.199997	1
228.500000	1
228.699997	1
229.000000	1
229.199997	1
230.199997	1
231.399994	1
234.899994	1
235.800003	1
236.050003	1
236.399994	1
237.308336	3
238.347056	9
238.974998	1
239.428569	2
240.500000	1
241.235832	31
242.100006	2
243.325001	2
250.000000	1
250.600006	1
251.233332	2
252.100006	1
252.399994	1
253.320833	25
254.100006	1
254.399994	1
254.800003	1
255.377777	5
256.086369	6
256.799988	1
268.799988	1
269.299988	1
269.500000	1
269.700012	1
270.500000	1
271.386666	8
