Mass spectrum: 5-beta-Androstane-3-alpha,17-beta-diol; LC-APPI-QQ; MS2; CE:60 V; [M-2H2O+H]+
Name: 5-beta-Androstane-3-alpha,17-beta-diol
Name: Etiocholane-3-alpha,17-beta-diol
Class: Natural Product; Steroid hormone
Formula: C19H32O2
Exact mass: 292.24023
SMILES: OC(C4)CC([H])(C3)C(C)(C4)C(C2)C(C3)C(C1)C(C)(C2)C(O)C1
InChI: InChI=1S/C19H32O2/c1-18-9-7-13(20)11-12(18)3-4-14-15-5-6-17(21)19(15,2)10-8-16(14)18/h12-17,20-21H,3-11H2,1-2H3/t12-,13-,14?,15?,16?,17+,18?,19?/m1/s1
Instrument: API2000
Instrument type: LC-APPI-QQ
Ms type: MS2
Ion mode: POSITIVE
Retention time: 0.820850 min
Base peak: 90.900002
Precursor m/z: 257.300000
Precursor type: [M-2H2O+H]+
m/z	relative intensity
38.200001	1
38.500000	1
38.799999	1
39.099999	2
41.109832	87
43.151553	36
43.900002	1
44.200001	1
48.700001	1
50.450001	1
51.071428	2
51.700001	1
53.108333	36
55.084864	527
56.200001	1
57.156000	3
58.099998	1
58.500000	1
61.299999	1
62.299999	1
63.050001	1
63.500000	1
65.137027	80
67.130617	999
69.122696	115
70.049999	1
71.066666	1
71.400002	1
72.400002	1
73.950001	1
74.599998	1
75.300003	1
77.068314	433
79.063152	925
81.123703	712
83.110869	41
84.350002	1
85.000000	1
86.800003	1
87.300003	1
87.699997	1
91.077602	948
93.118863	467
95.085087	344
96.400002	1
96.800003	1
97.300003	1
99.950001	1
100.750000	1
101.000000	1
103.118654	73
105.065067	632
107.066573	120
108.054999	2
109.152059	38
110.099998	1
110.300003	1
110.900002	1
112.599998	1
112.900002	1
113.300003	1
115.028677	46
117.093388	108
119.075392	186
120.400002	1
121.112791	19
122.049999	1
122.500000	1
122.900002	1
123.549999	1
124.300003	1
124.850002	1
125.400002	1
125.900002	1
126.199997	1
126.466667	1
128.153573	19
129.099999	46
131.168061	67
132.177777	6
133.169608	46
134.189998	1
134.462498	1
135.129167	8
138.600006	1
139.100006	1
139.500000	1
139.800003	1
140.050003	1
141.016000	6
142.104546	5
143.087050	16
144.097332	8
145.111411	37
147.131067	12
147.899994	1
148.450005	1
149.135712	2
149.699997	1
150.100006	1
150.399994	1
150.799998	1
151.199997	1
152.116671	1
153.000000	1
153.300003	1
153.600006	1
153.800003	1
154.125000	1
155.100001	2
156.109092	2
157.183673	5
158.215380	3
159.084000	8
160.100006	1
160.300003	1
160.699997	1
160.940905	2
161.281819	2
163.300003	1
163.600006	1
164.300003	1
164.600006	1
164.899994	1
165.271428	1
166.250000	1
166.600006	1
166.899994	1
167.250000	1
168.100006	1
168.500000	1
168.975002	1
169.374996	1
169.666672	1
170.333333	1
171.109093	2
171.800003	1
172.800003	1
173.200000	4
173.899994	1
174.300003	1
174.600006	1
175.025000	1
175.699997	1
176.000000	1
176.399994	1
177.799998	1
178.250000	1
178.600006	1
179.199997	1
179.399994	1
179.899994	1
180.699997	1
180.899994	1
181.399994	1
182.199997	1
182.399994	1
182.899994	1
183.349998	1
183.600006	1
184.000000	1
184.199997	1
185.033334	1
186.374996	1
186.600006	1
187.300003	1
187.500000	1
187.699997	1
187.899994	1
188.100006	1
188.399994	1
188.699997	1
189.150002	1
189.399994	1
189.699997	1
190.000000	1
195.500000	1
196.100006	1
196.949997	1
197.699997	1
198.000000	1
198.199997	1
198.449997	1
198.800003	1
199.000000	1
199.300003	1
200.139288	3
201.229999	1
201.975999	3
202.699997	1
203.100006	1
209.300003	1
210.800003	1
212.500000	1
213.100006	1
214.100006	1
214.300003	1
214.950001	1
215.300003	1
215.500000	1
215.800003	1
224.100006	1
224.800003	1
225.000000	1
226.137931	13
227.213113	7
228.105798	8
229.250000	1
231.300003	1
231.500000	1
236.949997	1
237.199997	1
238.100006	1
239.266663	1
240.000000	1
240.300003	1
240.699997	1
241.100006	1
241.300003	1
241.699997	1
242.199997	1
242.399994	1
242.699997	1
254.699997	1
255.200003	1
255.550003	1
256.299988	1
281.600006	1
285.700012	1
291.600006	1
