Mass spectrum: Ergosterol; LC-APPI-QQ; MS2; CE:50 V; [M-H2O+H]+
Name: Ergosterol
Class: Natural Product; Sterol
Formula: C28H44O
Exact mass: 396.33922
SMILES: C(C(C=CC(C)C(C4)C(C3C4)(C)CCC(C=13)C(C2)(C(CC(C2)O)=CC1)C)C)(C)C
InChI: InChI=1S/C28H44O/c1-18(2)19(3)7-8-20(4)24-11-12-25-23-10-9-21-17-22(29)13-15-27(21,5)26(23)14-16-28(24,25)6/h7-10,18-20,22,24-26,29H,11-17H2,1-6H3/b8-7+/t19?,20?,22-,24?,25?,26?,27?,28?/m0/s1
Instrument: API2000
Instrument type: LC-APPI-QQ
Ms type: MS2
Ion mode: POSITIVE
Retention time: 0.820833 min
Base peak: 69.099998
Precursor m/z: 379.400000
m/z	relative intensity
38.599998	1
39.100000	1
39.599998	1
41.109677	14
43.082828	44
43.799999	1
49.799999	1
51.000000	1
51.300001	1
51.799999	1
52.650000	1
53.012500	2
53.400001	1
53.799999	2
55.109673	157
57.163135	210
59.000000	1
63.799999	1
64.699997	1
65.099998	1
65.400002	1
65.599998	1
67.133333	126
69.132136	999
71.091139	70
72.199997	1
72.500000	1
74.599998	1
74.800003	1
75.149998	1
76.000000	1
76.400002	1
77.039999	7
79.034926	149
81.123357	472
83.138468	294
84.000000	1
84.300003	1
85.092307	23
86.099998	1
87.350002	1
88.900002	1
89.099998	1
89.450001	2
91.042651	155
93.109492	237
95.057761	438
97.112097	55
98.800003	1
99.300003	1
102.400002	1
102.869233	3
103.314285	3
105.069585	301
107.058557	315
109.113851	212
109.900002	1
110.800003	2
111.199997	4
113.000000	1
113.599998	1
114.000000	1
115.094000	11
117.107780	97
119.106979	214
121.123032	153
121.900002	1
122.099998	1
122.300003	1
123.118750	50
124.049999	1
124.300003	1
124.875001	2
125.199997	1
126.400002	1
127.099998	5
128.205128	26
129.097075	84
131.138435	191
133.155429	156
134.075005	2
135.095254	70
135.800003	1
136.199997	1
136.600006	1
137.126089	10
138.100006	1
138.800003	1
139.449997	1
139.699997	1
139.899994	1
140.399994	2
141.107894	34
143.125064	177
145.098104	353
147.159019	141
149.144617	43
150.100006	1
150.449997	1
150.699997	1
151.199997	1
151.500000	1
151.750000	1
152.100006	1
152.300003	1
153.000000	2
154.108697	5
155.118382	61
157.149303	208
159.145719	276
160.145452	10
161.153106	72
162.100006	1
162.449997	1
163.230264	17
165.100006	1
165.300003	3
165.533335	1
166.000000	1
166.275002	1
167.246666	7
167.892852	3
169.120350	77
170.118183	15
171.108112	126
173.217917	107
173.899998	2
174.300003	1
175.178313	37
176.349998	1
177.186667	7
177.899994	1
178.100006	1
178.699997	1
179.228572	3
179.500000	1
179.800003	1
180.000000	1
181.230769	14
183.208408	74
184.294517	16
185.173976	152
187.183649	94
188.100006	1
189.244443	20
189.899994	1
191.150002	3
192.300003	1
192.500000	1
193.075005	1
193.625004	1
194.250000	1
195.187143	16
197.187866	107
197.899994	3
199.211174	156
201.241295	55
202.000000	1
202.666667	1
203.178576	6
203.899994	1
205.444443	2
205.699997	1
206.000000	1
206.699997	1
207.100006	1
207.399994	1
207.800003	1
208.050003	1
208.550003	2
209.145653	21
211.186207	91
213.281481	102
214.269998	4
215.238532	24
216.100006	1
216.399994	1
216.800003	1
217.070004	2
217.300003	1
218.100006	1
218.699997	1
219.150002	1
220.100001	1
220.899994	1
221.300003	1
221.800003	1
222.199997	1
223.169356	14
224.000000	4
225.246470	76
226.199997	3
227.339695	29
228.100006	1
228.300003	1
228.600006	1
229.235001	9
229.506250	4
230.299998	1
230.800003	1
231.399999	2
233.899994	1
234.300003	1
235.275002	1
235.600006	1
236.199997	1
237.274667	33
239.293028	93
240.315789	8
241.318868	24
242.000000	1
242.199997	1
242.899994	1
243.300003	4
244.500000	1
245.087505	2
245.300003	1
245.500000	1
247.800003	1
248.500000	1
249.000000	1
249.449997	1
249.699997	1
249.949997	1
250.399994	1
252.232394	32
253.273950	53
254.363334	7
255.351353	8
256.025002	1
256.550003	1
257.033335	4
257.424995	3
258.200012	1
259.000000	1
259.449997	1
261.100006	1
263.150009	1
263.399994	1
264.100006	1
265.244441	10
266.373336	7
267.320438	31
268.200012	1
268.500000	1
269.278946	13
270.625008	1
270.937496	2
271.312489	4
272.399994	1
273.299988	1
274.100006	1
276.349991	1
276.899994	1
277.200012	1
277.399994	1
277.600006	1
278.000000	1
278.274994	1
279.424995	4
280.050003	4
280.299988	4
281.264105	17
283.402629	8
284.500000	1
284.774994	1
285.200012	1
285.399994	1
285.600006	1
287.250000	1
287.700012	1
288.899994	1
289.250000	1
289.600006	1
290.100006	1
290.399994	1
291.000000	1
291.200012	1
291.399994	1
291.600006	1
292.100006	1
292.399994	1
293.150009	4
293.700012	1
294.377777	4
295.328568	19
296.750000	1
297.125008	3
297.589478	4
298.299988	1
299.000000	1
299.200012	1
299.399994	1
299.799988	1
302.200012	1
302.849991	1
303.399994	1
304.550003	1
305.000000	1
305.200012	1
305.500000	1
306.100006	1
306.299988	1
306.600006	1
307.200012	1
307.424995	2
307.700012	1
308.033335	1
308.600006	1
309.412496	18
310.399994	1
311.500000	1
311.700012	1
313.299988	1
314.000000	1
314.700012	1
315.150009	1
315.500000	1
316.150009	1
317.600006	1
318.100006	1
318.899994	1
319.399994	1
320.100006	1
321.346151	6
321.799988	1
322.274994	1
322.600006	1
323.299988	5
324.100006	1
324.299988	1
324.799988	1
329.100006	1
330.799988	1
331.100006	1
331.500000	1
331.799988	1
333.000000	1
334.200012	1
335.100001	1
335.600006	1
336.000000	1
336.299988	2
336.566671	1
337.016668	1
337.849991	1
338.500000	1
346.200012	1
347.200012	1
347.399994	1
348.200012	1
349.100006	1
349.299988	1
349.600006	1
350.000000	1
350.550003	1
351.200012	1
351.625008	1
351.899994	1
359.299988	1
361.100006	1
361.500000	1
363.299988	1
363.500000	1
364.225006	1
364.600006	1
377.700012	1
378.750000	1
379.472307	29
