Mass spectrum: 3mPFOS; LC-ESI-QQ; MS2; CE30eV
Name: 3mPFOS
Class: Non-Natural Product
Formula: C8HF17O3S
Exact mass: 499.93749
SMILES: FC(F)(F)C(F)(F)C(F)(F)C(F)(F)C(F)(C(F)(F)F)C(F)(F)C(F)(F)S(O)(=O)=O
InChI: InChI=1S/C8HF17O3S/c9-1(6(18,19)20,3(12,13)8(24,25)29(26,27)28)2(10,11)4(14,15)5(16,17)7(21,22)23/h(H,26,27,28)
Instrument: Xevo TQ, Waters
Instrument type: LC-ESI-QQ
Ms type: MS2
Ion mode: NEGATIVE
Collision energy: 30eV
Retention time: 15.000900 min
Base peak: 498.922394
Precursor m/z: 498.9
Precursor type: [M-H]-
m/z	relative intensity
79.638390	834
83.012504	216
98.958581	606
118.777929	101
130.063086	999
168.849937	345
180.292267	642
229.761141	43
260.992537	349
279.902930	674
319.085292	230
329.806496	171
361.435071	82
378.258880	211
498.853353	831
