Mass spectrum: 2mPFOS; LC-ESI-QQ; MS2; CE20eV
Name: 2mPFOS
Class: Non-Natural Product
Formula: C8HF17O3S
Exact mass: 499.93749
SMILES: FC(F)(F)C(F)(F)C(F)(F)C(F)(F)C(F)(F)C(F)(C(F)(F)F)C(F)(F)S(O)(=O)=O
InChI: InChI=1S/C8HF17O3S/c9-1(6(18,19)20,8(24,25)29(26,27)28)2(10,11)3(12,13)4(14,15)5(16,17)7(21,22)23/h(H,26,27,28)
Instrument: Xevo TQ, Waters
Instrument type: LC-ESI-QQ
Ms type: MS2
Ion mode: NEGATIVE
Collision energy: 20eV
Retention time: 15.362766 min
Base peak: 499.049835
Precursor m/z: 498.9
Precursor type: [M-H]-
m/z	relative intensity
79.712831	58
97.192518	35
98.732404	107
130.162265	39
169.064526	373
419.111415	37
498.834542	999
