Mass spectrum: Campesterol; LC-APPI-QQ; MS2; CE:60 V; [M-H2O+H]+
Name: Campesterol
Class: Natural Product; Sterol
Formula: C28H48O
Exact mass: 400.37052
SMILES: C(C(CCC(C)C(C4)C(C3C4)(C)CCC(C13)C(C2)(C(CC(C2)O)=CC1)C)C)(C)C
InChI: InChI=1S/C28H48O/c1-18(2)19(3)7-8-20(4)24-11-12-25-23-10-9-21-17-22(29)13-15-27(21,5)26(23)14-16-28(24,25)6/h9,18-20,22-26,29H,7-8,10-17H2,1-6H3/t19?,20?,22-,23?,24?,25?,26?,27?,28?/m0/s1
Instrument: API2000
Instrument type: LC-APPI-QQ
Ms type: MS2
Ion mode: POSITIVE
Retention time: 0.820850 min
Base peak: 105.199997
Precursor m/z: 383.400000
Precursor type: [M-H2O+H]+
m/z	relative intensity
38.799999	1
39.099998	1
39.299999	1
39.500000	1
41.098571	21
43.098559	126
44.000000	1
44.299999	1
47.900002	1
50.900002	1
51.200001	1
51.400002	1
52.150000	1
52.475000	1
55.104377	338
57.140360	302
58.049999	1
63.049999	1
63.599998	1
64.433334	1
65.184617	4
67.102617	495
69.122680	366
71.124475	129
72.300001	1
74.500000	1
75.000000	1
75.199997	1
77.042064	38
79.044692	352
81.121612	999
83.141722	228
84.199997	1
85.121905	32
85.750000	1
86.099998	1
87.599998	1
88.000000	1
88.300003	1
89.400002	1
91.084628	377
93.121218	567
95.063905	755
96.280002	3
97.156368	64
98.250000	1
99.000000	1
100.099998	1
103.122221	7
105.080014	637
107.063636	352
109.116859	288
111.138459	4
111.900002	1
113.000000	1
113.300003	1
113.900002	1
114.500000	1
115.259999	2
115.900002	1
117.124028	43
119.099066	355
121.136876	115
121.975000	2
123.115480	49
124.599998	1
125.000000	1
125.350002	1
126.900002	1
127.599998	1
128.142856	2
129.108332	7
130.081823	3
131.140000	53
133.146975	179
133.800003	1
135.123543	77
135.874996	1
136.199997	1
137.194446	5
140.650002	1
140.899994	1
141.699997	1
142.100006	1
143.073912	7
145.128283	75
147.163130	198
149.145213	28
151.333333	1
152.300003	1
154.799998	1
155.100006	1
155.450001	1
156.325001	1
156.600006	1
157.347614	3
159.129458	39
161.151703	97
162.000000	1
162.374996	1
163.193338	5
163.800003	1
165.199997	1
165.399994	1
165.600006	1
168.000000	1
168.250000	1
169.050003	1
169.550003	1
170.075005	1
170.300003	1
171.052941	5
171.409995	2
173.249999	14
173.899994	1
174.399994	2
175.251199	19
175.800003	1
176.000000	1
176.199997	1
176.899994	1
177.199997	1
177.399994	1
177.699997	1
178.500000	1
179.300003	1
179.600006	1
181.100006	1
183.600006	1
184.000000	1
184.399994	1
185.079166	7
185.790002	2
186.174999	3
186.500000	1
187.165853	12
188.300003	1
188.500000	1
189.089473	6
190.750000	1
191.100006	1
191.500000	1
192.699997	1
193.100006	1
193.349998	1
197.100006	1
197.300003	1
198.300003	1
199.185000	6
199.899994	1
200.319995	2
201.165216	7
202.100001	1
202.500000	1
202.874996	1
203.200005	1
203.500000	1
203.699997	1
204.000000	1
204.199997	1
205.100006	1
205.300003	1
207.100006	1
211.300003	1
211.500000	1
212.899994	1
213.450001	1
214.100001	2
215.255557	5
216.050003	1
216.699997	1
217.000000	1
217.250000	1
217.500000	1
217.699997	1
218.899994	1
219.300003	1
220.000000	1
222.500000	1
223.000000	1
225.800003	1
226.000000	1
226.199997	1
226.399994	1
227.399994	1
227.899994	1
228.100006	1
228.300003	1
228.600006	1
229.116671	1
229.474998	1
230.699997	1
231.000000	1
231.250000	1
231.600006	1
233.399994	1
235.199997	1
238.800003	1
239.100006	1
240.100006	1
240.399994	1
241.000000	1
241.233332	1
241.600006	1
242.200005	1
242.500000	1
243.325001	1
243.800003	1
244.100006	1
245.000000	1
245.300003	1
251.000000	1
252.100006	1
252.300003	1
252.500000	1
253.000000	1
253.449997	1
253.899994	1
254.500000	1
255.259998	1
256.100006	1
256.600006	1
256.899994	1
257.575005	1
258.799988	1
259.299988	1
259.550003	1
260.899994	1
261.299988	1
265.899994	1
266.899994	1
267.200012	1
269.200012	1
270.299988	1
270.899994	1
271.100006	1
273.650009	1
281.600006	1
282.200012	1
282.799988	1
283.299988	1
284.299988	1
284.700012	1
285.100006	1
285.700012	1
286.299988	1
287.700012	1
294.700012	1
297.100006	1
297.299988	1
298.600006	1
299.200012	1
301.299988	1
307.100006	1
310.100006	1
310.399994	1
312.899994	1
323.299988	1
324.899994	1
325.899994	1
326.449997	1
326.799988	1
339.200012	1
353.700012	1
354.299988	1
363.399994	1
367.100006	1
368.700012	1
382.899994	1
383.250000	1
383.500000	1
