Mass spectrum: 62FTA; LC-ESI-QQ; MS2; CE10; [M-H-CO2-2HF]-
Name: 62FTA
Name: 62Fluorotelomer Acid
Name: 3,3,4,4,5,5,6,6,7,7,8,8,8-Tridecafluorooctanoic acid
Class: Non-Natural Product
Formula: C8H3F13O2
Exact mass: 377.99255
SMILES: OC(=O)CC(F)(F)C(F)(F)C(F)(F)C(F)(F)C(F)(F)C(F)(F)F
InChI: InChI=1S/C8H3F13O2/c9-3(10,1-2(22)23)4(11,12)5(13,14)6(15,16)7(17,18)8(19,20)21/h1H2,(H,22,23)
Instrument: Xevo TQ MS (Waters)
Instrument type: LC-ESI-QQ
Ms type: MS2
Ion mode: NEGATIVE
Collision energy: 10
Retention time: 0.016817
Base peak: 293.028198
Ion type: [M-H]-
Precursor m/z: 293
Precursor type: [M-H-CO2-2HF]-
m/z	relative intensity
130.955185	10
142.931580	10
243.009872	17
293.065674	999
293.713898	24
