Mass spectrum: 82FTA; LC-ESI-QQ; MS2; CE60; [M-H]-
Name: 82FTA
Name: 82Fluorotelomer Acid
Name: 3,3,4,4,5,5,6,6,7,7,8,8,9,9,10,10,10-Heptadecafluorodecanoic acid
Class: Non-Natural Product
Formula: C10H3F17O2
Exact mass: 477.98616
SMILES: OC(=O)CC(F)(F)C(F)(F)C(F)(F)C(F)(F)C(F)(F)C(F)(F)C(F)(F)C(F)(F)F
InChI: InChI=1S/C10H3F17O2/c11-3(12,1-2(28)29)4(13,14)5(15,16)6(17,18)7(19,20)8(21,22)9(23,24)10(25,26)27/h1H2,(H,28,29)
Instrument: Xevo TQ MS (Waters)
Instrument type: LC-ESI-QQ
Ms type: MS2
Ion mode: NEGATIVE
Collision energy: 60
Retention time: 0.016817
Base peak: 293.123810
Precursor m/z: 477
Precursor type: [M-H]-
m/z	relative intensity
63.030174	307
69.021500	305
73.815964	451
88.943794	256
92.936691	999
94.694626	182
104.831093	109
118.792061	714
124.182411	548
124.451942	182
130.755646	114
137.098846	370
142.978043	360
154.957626	139
156.827072	166
158.692535	171
168.796341	135
193.104370	200
243.234955	346
244.889435	111
251.066849	119
293.105865	673
303.894287	232
343.044922	158
393.185486	157
