Mass spectrum: 5mPFOA; LC-ESI-QQ; MS2; CE10eV
Name: 5mPFOA
Class: Non-Natural Product
Formula: C8HF15O2
Exact mass: 413.97370
SMILES: OC(=O)C(F)(F)C(F)(F)C(F)(F)C(F)(C(F)(F)F)C(F)(F)C(F)(F)F
InChI: InChI=1S/C8HF15O2/c9-2(10,1(24)25)4(12,13)5(14,15)3(11,7(18,19)20)6(16,17)8(21,22)23/h(H,24,25)
Instrument: Xevo TQ, Waters
Instrument type: LC-ESI-QQ
Ms type: MS2
Ion mode: NEGATIVE
Collision energy: 10eV
Retention time: 15.423233 min
Base peak: 218.933090
Precursor m/z: 413
Precursor type: [M-H]-
m/z	relative intensity
118.923720	119
169.158658	781
218.902668	999
278.800855	112
326.570382	74
369.012885	429
413.188400	715
