Mass spectrum: 4mPFOS; LC-ESI-QQ; MS2; CE20eV
Name: 4mPFOS
Class: Non-Natural Product
Formula: C8HF17O3S
Exact mass: 499.93749
SMILES: FC(F)(F)C(F)(F)C(F)(F)C(F)(C(F)(F)F)C(F)(F)C(F)(F)C(F)(F)S(O)(=O)=O
InChI: InChI=1S/C8HF17O3S/c9-1(6(18,19)20,2(10,11)4(14,15)7(21,22)23)3(12,13)5(16,17)8(24,25)29(26,27)28/h(H,26,27,28)
Instrument: Xevo TQ, Waters
Instrument type: LC-ESI-QQ
Ms type: MS2
Ion mode: NEGATIVE
Collision energy: 20eV
Retention time: 15.282467 min
Base peak: 498.731171
Precursor m/z: 498.9
Precursor type: [M-H]-
m/z	relative intensity
104.190215	26
150.634369	34
230.027674	168
279.699623	140
329.739927	42
367.089036	17
434.545483	53
498.890127	999
