Mass spectrum: Estrone; LC-APPI-QQ; MS2; CE:10 V; [M+H]+
Name: Estrone
Class: Natural Product; Steroid hormone
Formula: C18H22O2
Exact mass: 270.16198
SMILES: Oc(c4)cc(C3)c(c4)C(C2)C(C3)C(C1)C(C)(C2)C(=O)C1
InChI: InChI=1S/C18H22O2/c1-18-9-8-14-13-5-3-12(19)10-11(13)2-4-15(14)16(18)6-7-17(18)20/h3,5,10,14-16,19H,2,4,6-9H2,1H3
Instrument: API2000
Instrument type: LC-APPI-QQ
Ms type: MS2
Ion mode: POSITIVE
Retention time: 0.820850 min
Base peak: 271.200012
Precursor m/z: 271.100000
Precursor type: [M+H]+
m/z	relative intensity
69.900002	1
70.699997	1
71.099998	1
78.900002	1
81.033333	1
82.699997	1
82.900002	1
83.500000	1
83.900002	1
84.099998	1
84.300003	1
84.699997	1
85.078570	1
91.000000	1
91.900002	1
92.099998	1
92.300003	1
92.975000	1
94.000000	1
94.599998	1
94.800003	1
95.300003	1
96.699997	1
97.049999	1
99.000000	1
103.300003	1
104.850002	1
105.500000	1
106.174997	1
107.075862	1
108.250000	1
108.599998	1
109.149998	1
109.699997	1
109.900002	1
110.450001	1
110.900002	1
111.599998	1
112.000000	1
114.599998	1
114.900002	1
115.149998	1
118.800003	1
119.000000	1
119.500000	1
119.900002	1
120.549999	1
121.118183	1
123.900002	1
124.500000	1
125.000000	1
125.300003	1
125.500000	1
126.300003	1
130.399994	1
133.083963	10
134.300003	1
135.000000	1
137.500000	1
139.000000	1
139.199997	1
139.399994	1
140.799998	1
141.100006	1
141.300003	1
143.300003	1
143.750000	1
144.199997	1
145.087096	1
146.199997	1
146.699997	1
147.000000	1
147.699997	1
148.899994	1
149.300003	1
151.000000	1
151.300003	1
152.699997	1
153.199997	1
153.699997	1
154.300003	1
154.500000	1
155.770001	1
157.109792	18
159.103633	10
159.849998	1
160.200002	1
160.907999	1
161.199997	1
161.399994	1
163.100006	1
164.699997	1
165.150002	1
165.399994	1
165.699997	1
166.899994	1
167.100006	1
167.300003	1
168.699997	1
169.000000	1
169.199997	1
171.046670	1
171.899994	1
172.100006	1
173.057627	1
173.899994	1
174.700000	1
175.100006	1
176.899994	1
178.300003	1
178.699997	1
179.025002	1
179.500000	1
180.399994	1
181.000000	1
181.699997	1
181.899994	1
183.135294	1
184.000000	1
184.399994	1
185.319232	1
185.949997	1
186.199997	1
186.699997	1
187.100004	1
187.500000	1
188.600006	1
189.000000	1
189.199997	1
192.399994	1
192.899994	1
193.250000	1
193.500000	1
195.150002	1
195.974998	1
197.156583	12
198.224998	1
198.600006	1
199.100006	1
200.050003	1
201.152823	14
202.000000	1
203.250000	1
204.699997	1
204.899994	1
205.100006	1
207.300003	1
208.500000	1
208.699997	1
209.177782	1
209.699997	1
210.199997	1
211.131639	2
213.180940	7
214.100006	1
214.300003	1
214.899994	1
215.100006	1
215.300003	1
215.500000	1
217.500000	1
222.899994	1
223.250000	1
223.500000	1
223.800003	1
224.000000	1
224.349998	1
225.188888	1
225.800003	1
226.000000	1
226.962498	1
227.300003	1
227.500000	1
228.100006	1
228.399994	1
229.050003	1
229.399994	1
232.399994	1
235.100006	1
235.399994	1
237.699997	1
238.383329	1
238.883329	1
239.309088	1
242.100006	1
242.500000	1
243.258334	1
246.399994	1
249.000000	1
250.500000	1
250.919998	1
251.237499	1
253.236541	153
254.600006	1
255.800003	1
256.100006	1
256.299988	1
262.200012	1
265.500000	1
265.899994	1
266.100006	1
266.600006	1
267.200012	1
267.399994	1
268.000000	1
268.600006	1
268.936360	1
271.246104	999
272.899994	1
273.399994	1
273.700012	1
299.100006	1
