Mass spectrum: beta-Estradiol; LC-APPI-QQ; MS2; CE:40 V; [M-H2O+H]+
Name: beta-Estradiol
Class: Natural Product; Steroid hormone
Formula: C18H24O2
Exact mass: 272.17763
SMILES: Oc(c4)cc(C3)c(c4)C(C2)C(C3)C(C1)C(C)(C2)C(O)C1
InChI: InChI=1S/C18H24O2/c1-18-9-8-14-13-5-3-12(19)10-11(13)2-4-15(14)16(18)6-7-17(18)20/h3,5,10,14-17,19-20H,2,4,6-9H2,1H3/t14?,15?,16?,17-,18?/m0/s1
Instrument: API2000
Instrument type: LC-APPI-QQ
Ms type: MS2
Ion mode: POSITIVE
Retention time: 0.820933 min
Base peak: 159.100006
Precursor m/z: 255.000000
Precursor type: [M-H2O+H]+
m/z	relative intensity
37.900002	1
40.799999	1
41.175000	1
41.650000	1
42.200001	1
43.131192	3
43.799999	1
45.000000	1
50.700001	1
51.000000	1
51.400002	1
52.500000	1
53.299999	1
55.078871	19
56.200001	1
56.400002	1
57.092593	1
58.300001	1
58.650000	1
59.099998	1
59.299999	1
59.500000	1
63.200001	1
63.500000	1
64.171427	1
64.930304	1
65.295651	1
67.110406	155
69.087855	31
70.199997	1
70.500000	1
71.350002	1
74.000000	1
74.900002	1
75.199997	1
75.599998	1
75.800003	1
77.056594	6
79.042105	19
81.107911	89
83.060000	2
83.900002	1
84.800003	1
85.000000	1
86.000000	1
87.000000	1
87.699997	1
88.250000	1
88.599998	1
89.579999	1
91.045288	50
93.100000	25
95.077094	151
96.124998	1
97.280002	1
99.699997	1
99.950001	1
100.699997	1
100.900002	1
101.199997	1
101.500000	1
101.800003	1
103.121177	8
105.060756	96
107.036070	62
109.105578	93
110.199997	1
110.500000	1
111.099998	1
111.500000	1
111.900002	1
112.300003	1
113.049999	1
113.500000	1
113.900002	1
115.064358	30
116.154356	16
117.093507	14
118.000000	1
119.093269	6
121.075261	18
122.199997	1
123.039759	3
124.000000	1
124.800003	1
125.000000	1
125.300003	1
127.048627	16
129.082609	21
131.127812	178
133.102257	471
135.134043	6
136.399994	1
136.600006	1
137.450001	1
137.800003	1
141.122693	162
144.074972	221
145.050358	120
147.116615	30
148.199997	1
149.077776	1
150.300003	1
150.700005	1
151.600006	1
151.887495	1
152.221427	1
153.005262	1
155.113726	3
157.140522	32
159.112036	999
161.108145	7
162.399994	1
162.849998	1
163.500000	1
163.699997	1
164.699997	1
164.899994	1
165.284001	1
165.771428	1
166.212502	1
167.254762	1
169.053499	12
170.042860	1
171.084001	6
172.089999	1
173.165918	15
174.199997	1
175.000000	1
175.283335	1
176.275002	1
176.500000	1
177.300003	1
177.500000	1
178.100006	1
178.374996	1
178.989999	1
179.199997	1
179.866664	1
181.255000	1
181.983330	1
183.196667	2
184.195918	2
185.156452	8
186.133336	1
186.500000	1
187.084616	1
189.100006	1
190.150002	1
190.699997	1
192.399994	1
192.699997	1
193.050003	1
193.300003	1
194.000000	1
194.300003	1
195.300003	1
196.138887	1
197.142857	2
198.142105	1
198.399994	1
199.159028	9
199.899994	1
200.399994	1
201.100006	1
201.399994	1
201.600006	1
206.800003	1
207.100006	1
207.600001	1
208.300003	1
208.816668	1
209.500000	1
209.899994	1
210.299997	1
210.600006	1
211.061290	1
212.012501	1
212.320001	1
213.179659	2
214.250000	1
219.399994	1
221.399994	1
222.050003	1
222.449997	1
222.876923	1
223.199997	1
224.000000	1
224.250000	1
224.600006	1
224.800003	1
225.137503	1
226.150003	1
227.235713	1
232.699997	1
236.800003	1
237.000000	1
237.250000	1
237.600006	1
237.899994	1
238.300003	1
238.699997	1
239.037502	1
240.322222	1
251.199997	1
252.500000	1
253.300003	1
253.500000	1
253.800003	1
254.100006	1
254.600006	1
255.234427	4
279.299988	1
