Mass spectrum: Epicholestanol; LC-APPI-QQ; MS2; CE:20 V; [M-H2O+H]+
Name: Epicholestanol
Class: Natural Product; Sterol
Formula: C27H48O
Exact mass: 388.37052
SMILES: C(C)(C1)(C(C(C)CCCC(C)C)4)C(CC4)C(C2)C(C(C)(C3)C([H])(CC(C3)O)C2)C1
InChI: InChI=1S/C27H48O/c1-18(2)7-6-8-19(3)23-11-12-24-22-10-9-20-17-21(28)13-15-26(20,4)25(22)14-16-27(23,24)5/h18-25,28H,6-17H2,1-5H3/t19?,20-,21+,22?,23?,24?,25?,26?,27?/m0/s1
Instrument: API2000
Instrument type: LC-APPI-QQ
Ms type: MS2
Ion mode: POSITIVE
Retention time: 0.820883 min
Base peak: 371.299988
Precursor m/z: 371.300000
Precursor type: [M-H2O+H]+
m/z	relative intensity
41.400002	1
42.299999	1
43.150000	1
54.299999	1
54.950001	1
55.299999	1
55.500000	1
56.350000	1
57.120000	1
57.400002	1
64.900002	1
66.000000	1
66.199997	1
66.475000	1
67.022222	2
68.400002	1
68.883335	1
69.358335	1
70.199997	1
70.400002	1
70.800003	1
71.000000	1
71.349999	1
72.199997	1
72.699997	1
77.599998	1
78.400002	1
78.900002	1
79.149998	1
79.400002	1
79.599998	1
80.199997	1
81.110680	22
82.000000	1
82.328573	1
83.132259	10
83.900002	1
84.099998	1
84.400002	1
84.699997	1
84.900002	1
85.099998	1
85.599998	1
87.000000	1
89.099998	1
90.649998	1
91.800003	1
92.000000	1
93.199997	1
93.400002	1
93.862502	1
95.067049	76
97.054225	15
97.900002	1
98.199997	1
98.400002	1
98.674997	1
99.074999	1
104.000000	1
104.599998	1
104.900002	1
106.000000	1
106.500000	1
107.019047	5
107.649998	1
108.000000	1
109.100344	63
110.372224	2
110.599998	1
111.116604	29
111.900002	1
112.099998	1
112.699997	1
113.000000	1
113.500000	1
117.099998	1
118.400002	1
118.599998	1
119.049999	1
119.350002	1
119.599998	1
121.021818	12
123.089461	44
124.300003	1
125.092592	12
126.500000	1
126.900002	1
127.099998	1
127.300003	1
127.549999	1
127.900002	1
128.699997	1
128.899994	1
129.399994	1
131.399994	1
132.199997	1
132.899994	1
133.100006	1
133.300003	1
133.700003	1
135.152001	43
135.800003	1
137.181907	23
138.199997	1
138.699997	1
139.100006	2
140.899994	1
142.100006	1
144.500000	1
145.199997	1
145.399994	1
146.199997	1
146.899994	1
147.188894	2
148.040002	1
149.148788	67
150.339996	1
151.195103	27
152.800003	1
153.000000	1
153.262501	1
153.500000	1
155.100006	1
160.300003	1
160.633336	1
160.921424	2
161.307692	3
162.037502	1
163.196569	44
165.130435	25
166.199997	1
166.949997	1
167.300003	1
170.300003	1
173.200002	1
173.800003	1
174.150002	1
174.500000	1
175.005557	6
177.208960	38
178.000000	1
179.276159	16
180.699997	1
180.899994	1
181.100006	1
181.500000	1
187.199997	1
188.150002	1
189.253261	20
190.300003	1
191.218182	13
193.232052	17
194.800003	1
195.100006	1
195.399994	1
195.600006	1
200.899994	1
201.899994	1
202.399994	1
203.216925	14
203.900000	1
205.242269	21
207.237464	38
209.600006	1
214.979997	1
215.500000	1
216.300003	1
217.301258	17
218.399994	1
219.263108	11
220.000000	1
221.200001	7
225.300003	1
229.000000	1
230.180002	1
231.266218	16
232.166667	1
233.246875	7
234.399994	1
234.600006	1
235.226669	7
241.100006	1
241.349998	1
242.949997	1
243.699997	1
244.550003	1
245.389284	12
247.366663	7
248.300003	1
248.500000	1
249.033335	1
249.400000	1
250.000000	1
251.300003	1
256.700012	1
257.100006	1
257.324989	1
258.000000	1
258.200012	1
259.397618	9
260.299988	1
261.366949	26
263.100006	1
263.399994	1
263.700012	1
265.500000	1
267.200012	1
267.500000	1
273.453124	3
274.700012	1
275.373986	13
276.100006	1
277.200002	1
277.500000	1
279.899994	1
280.299988	1
285.849991	1
286.399994	1
287.240625	7
289.475002	8
291.100006	1
293.799988	1
299.000000	1
300.200012	1
300.500000	1
300.916662	1
301.349996	3
302.449997	1
303.100006	1
303.500000	1
303.700012	1
305.700012	1
311.500000	1
313.100006	1
314.200012	1
314.399994	1
314.650009	1
315.350000	6
327.799988	1
328.000000	1
328.299988	1
328.600006	1
329.125008	1
329.399994	1
335.299988	1
338.849991	1
339.500000	1
341.399994	1
342.399994	1
343.100006	1
343.399994	1
352.500000	1
352.799988	1
353.500000	1
353.700012	1
354.500000	1
355.200012	1
355.399994	1
355.899994	1
356.299988	1
357.000000	1
367.299988	1
368.000000	1
368.200012	1
369.000000	1
369.299998	1
369.600006	1
371.510411	999
372.899994	1
