Mass spectrum: 4mPFOS; LC-ESI-QQ; MS2; CE60eV
Name: 4mPFOS
Class: Non-Natural Product
Formula: C8HF17O3S
Exact mass: 499.93749
SMILES: FC(F)(F)C(F)(F)C(F)(F)C(F)(C(F)(F)F)C(F)(F)C(F)(F)C(F)(F)S(O)(=O)=O
InChI: InChI=1S/C8HF17O3S/c9-1(6(18,19)20,2(10,11)4(14,15)7(21,22)23)3(12,13)5(16,17)8(24,25)29(26,27)28/h(H,26,27,28)
Instrument: Xevo TQ, Waters
Instrument type: LC-ESI-QQ
Ms type: MS2
Ion mode: NEGATIVE
Collision energy: 60eV
Retention time: 15.483500 min
Base peak: 79.580612
Precursor m/z: 498.9
Precursor type: [M-H]-
m/z	relative intensity
79.993461	999
89.144690	51
98.774616	304
118.977555	344
129.758775	458
182.144169	33
229.772006	244
341.858032	56
