Mass spectrum: Cholesterol; LC-APPI-QQ; MS2; CE:40 V; [M-H2O+H]+
Name: Cholesterol
Class: Natural Product; Sterol
Formula: C27H46O
Exact mass: 386.35487
SMILES: CC(C4)(C(CC(O)C4)=3)C(C2)C(CC3)C(C1)C(C)(C2)C(C(C)CCCC(C)C)C1
InChI: InChI=1S/C27H46O/c1-18(2)7-6-8-19(3)23-11-12-24-22-10-9-20-17-21(28)13-15-26(20,4)25(22)14-16-27(23,24)5/h9,18-19,21-25,28H,6-8,10-17H2,1-5H3/t19?,21-,22?,23?,24?,25?,26?,27?/m0/s1
Instrument: API2000, Applied
Instrument type: LC-APPI-QQ
Ms type: MS2
Ion mode: POSITIVE
Retention time: 0.820850 min
Base peak: 80.900002
Precursor m/z: 369.420000
Precursor type: [M-H2O+H]+
m/z	relative intensity
39.000000	1
39.299999	1
41.000000	1
41.299999	1
43.052308	14
43.900002	1
44.099998	1
51.099998	1
51.500000	1
52.099998	1
53.100000	1
55.046254	66
57.094278	150
58.400002	1
62.799999	1
63.000000	1
63.650000	1
63.900002	1
64.250000	1
64.750000	1
67.083844	182
69.067922	330
71.073377	163
72.033333	1
72.699997	1
74.500000	1
75.099998	1
75.549999	1
75.850002	1
76.224998	1
77.087097	7
77.599998	1
79.020669	106
81.087531	706
83.098412	364
85.047178	53
86.049999	1
87.699997	1
88.300003	1
88.599998	1
89.000000	1
89.700000	2
91.046400	107
93.083012	372
95.034199	999
97.096570	225
98.000000	1
98.224998	1
98.883335	1
99.199997	1
101.750000	1
102.099998	1
102.300003	1
103.072221	2
105.017750	370
107.025657	424
109.068219	838
111.074441	67
111.900002	1
112.599998	1
112.922223	1
113.216665	1
114.500000	1
114.875002	1
115.099998	1
117.067742	20
119.024611	324
121.055794	300
123.026468	245
125.024801	13
126.450001	1
126.900002	1
127.325003	1
127.699997	1
128.000000	1
128.199997	1
128.984618	3
129.356248	2
131.067742	53
133.067974	366
135.047668	584
137.081648	69
137.899994	1
138.399994	1
138.699997	1
139.150002	1
140.899994	1
141.399994	1
141.849998	1
142.199997	1
143.059998	4
143.699997	1
145.038855	105
147.090504	734
149.081478	246
151.155883	18
151.899994	1
153.399994	1
154.199997	1
154.849998	1
155.600006	1
156.100006	1
157.212501	3
159.092622	110
161.073318	669
163.108928	96
164.399994	1
165.067606	15
165.899994	1
166.100006	1
167.300003	1
167.699997	1
168.750000	1
169.000000	1
169.199997	1
169.500000	1
169.899994	1
170.300003	1
171.167855	3
171.812498	2
173.089325	68
175.077572	185
176.125004	1
177.153135	32
178.374996	1
179.225175	15
180.800003	1
181.100006	1
183.000000	1
183.199997	1
183.899994	1
185.116214	4
187.142038	67
187.857895	2
188.199997	1
189.160490	96
190.328570	1
191.130589	18
193.197520	26
194.600006	1
195.300003	1
196.949997	1
197.800003	1
198.266668	1
199.074071	6
201.113486	84
203.130882	73
204.399994	1
205.146611	25
206.299998	1
207.098915	10
207.899994	1
208.100006	1
208.699997	1
209.100006	1
211.000000	1
211.349998	1
212.199997	1
213.159091	5
215.119813	137
217.149680	34
218.199997	1
219.166666	20
220.300003	1
220.500000	1
221.115385	3
221.399994	1
221.800003	1
223.199997	1
224.600006	1
225.600006	1
226.000000	1
227.100006	1
227.383329	1
227.600006	1
228.399994	1
229.167193	54
231.123424	12
232.399994	1
233.178047	35
235.079996	1
235.459998	1
236.000000	1
236.399994	1
236.699997	1
237.000000	1
239.000000	1
239.500000	1
240.250000	1
241.199997	1
243.214458	53
245.215586	17
246.100006	1
246.349998	1
247.224710	28
248.300003	1
248.500000	1
249.100006	1
249.600006	1
251.000000	1
253.000000	1
253.199997	1
254.100006	1
255.154168	5
255.500000	2
256.278385	4
257.222467	39
259.278423	92
260.150009	1
260.700012	1
261.188892	12
262.899994	1
264.600006	1
264.799988	1
266.100006	1
267.500000	1
269.199997	1
270.000000	1
270.399994	1
270.600006	1
271.218180	7
272.150009	1
272.399994	1
273.307548	45
274.799988	1
275.453333	2
281.899994	1
282.100006	1
283.200012	1
283.799988	1
284.299988	1
284.974072	6
286.000000	1
286.200012	1
287.273731	25
288.200012	1
289.200002	1
290.949997	1
291.700012	1
297.200002	1
298.100006	1
298.500000	1
299.290000	6
300.349991	1
300.600006	1
301.315627	3
303.500000	1
306.799988	1
309.100006	1
310.700012	1
311.250000	1
312.000000	1
312.449997	1
313.403332	6
314.650009	1
322.299988	1
324.500000	1
325.449997	1
326.100006	1
326.299988	1
326.600006	1
327.000000	1
327.399999	1
333.100006	1
335.100006	1
339.000000	1
339.200012	1
339.899994	1
340.250000	1
340.849991	1
341.399994	1
341.849991	1
350.899994	1
351.100006	1
353.200012	1
353.650009	1
354.399996	1
367.299988	1
367.849991	1
368.200012	1
369.382825	112
