Mass spectrum: 5-beta-Androstane-3-alpha,17-beta-diol; LC-APPI-QQ; MS2; CE:10 V; [M-2H2O+H]+
Name: 5-beta-Androstane-3-alpha,17-beta-diol
Name: Etiocholane-3-alpha,17-beta-diol
Class: Natural Product; Steroid hormone
Formula: C19H32O2
Exact mass: 292.24023
SMILES: OC(C4)CC([H])(C3)C(C)(C4)C(C2)C(C3)C(C1)C(C)(C2)C(O)C1
InChI: InChI=1S/C19H32O2/c1-18-9-7-13(20)11-12(18)3-4-14-15-5-6-17(21)19(15,2)10-8-16(14)18/h12-17,20-21H,3-11H2,1-2H3/t12-,13-,14?,15?,16?,17+,18?,19?/m1/s1
Instrument: API2000
Instrument type: LC-APPI-QQ
Ms type: MS2
Ion mode: POSITIVE
Retention time: 0.820850 min
Base peak: 257.200012
Precursor m/z: 257.300000
Precursor type: [M-2H2O+H]+
m/z	relative intensity
54.099998	1
54.700001	1
66.900002	1
67.099998	1
67.300003	1
69.099998	1
69.400002	1
78.750000	1
79.000000	1
79.300003	1
80.000000	1
81.147617	1
82.000000	1
82.599998	1
83.085713	1
90.800003	1
91.099998	1
91.400002	1
92.350002	1
93.025001	1
94.099998	1
94.425001	1
95.031868	1
95.800003	1
96.199997	1
96.750000	1
97.149998	1
104.000000	1
104.816668	1
105.300003	1
105.900002	1
106.199997	1
106.939131	1
108.000000	1
108.300003	1
109.009459	1
110.800003	1
111.199997	1
111.599998	1
117.500000	1
117.900002	1
118.500000	1
118.699997	1
118.960001	1
119.199997	1
121.089349	2
121.800003	1
122.174997	1
122.466667	1
122.900002	1
124.000000	1
124.933334	1
125.433334	1
126.300003	1
130.550003	1
131.000000	1
131.199997	1
131.699997	1
132.199997	1
133.048488	1
133.300003	1
133.899994	1
134.199997	1
135.097647	4
135.800003	1
136.699997	1
137.100001	1
141.600006	1
142.800003	1
144.600006	1
144.883329	1
145.150002	1
145.449997	1
147.161760	7
149.134727	4
150.800003	1
151.050003	1
152.399994	1
157.000000	1
157.399994	1
158.881818	1
159.311108	1
159.600006	1
161.127586	10
163.123608	1
164.550003	1
165.000000	1
165.199997	1
165.449997	1
168.899994	1
170.699997	1
170.899994	1
171.349998	1
171.600006	1
172.100006	1
173.089474	1
173.500000	1
174.230772	1
175.166362	13
175.899994	1
176.100006	1
177.216670	1
178.699997	1
182.949997	1
183.300003	1
184.899999	1
185.299998	1
186.125004	1
187.130898	2
188.199997	1
189.269229	1
190.100006	1
190.399994	1
194.899994	1
196.000000	1
196.800003	1
197.100006	1
198.399994	1
199.199997	1
199.550003	1
200.000000	1
201.200458	5
202.300003	1
202.500000	1
202.899994	1
203.100006	1
203.500000	1
203.699997	1
211.500000	1
212.899994	1
213.300003	1
213.500000	1
214.300003	1
215.225715	1
221.300003	1
224.000000	1
224.699997	1
225.100000	1
225.600006	1
227.150002	1
227.399994	1
228.000000	1
228.199997	1
228.399994	1
229.153969	1
229.500000	1
238.766668	1
239.000000	1
239.333332	1
240.000000	1
241.000000	1
241.800003	1
242.199997	1
242.429996	1
250.399994	1
251.399999	1
251.899994	1
252.100006	1
252.300003	1
252.899994	1
253.500000	1
254.399994	1
257.319707	999
258.799988	1
259.600006	1
275.100006	1
