Mass spectrum: Stigmastanol; LC-APPI-QQ; MS2; CE:60 V; [M-H2O+H]+
Name: Stigmastanol
Class: Natural Product; Sterol
Formula: C29H52O
Exact mass: 416.40182
SMILES: C(C4)C(C(CC4O)3)(C(C(CC3)2)CCC(C21)(C(CC1)C(C)CCC(C(C)C)CC)C)C
InChI: InChI=1S/C29H52O/c1-7-21(19(2)3)9-8-20(4)25-12-13-26-24-11-10-22-18-23(30)14-16-28(22,5)27(24)15-17-29(25,26)6/h19-27,30H,7-18H2,1-6H3/t20?,21?,22?,23-,24?,25?,26?,27?,28?,29?/m0/s1
Instrument: API2000
Instrument type: LC-APPI-QQ
Ms type: MS2
Ion mode: POSITIVE
Retention time: 0.820867 min
Base peak: 95.199997
Precursor m/z: 399.500000
Precursor type: [M-H2O+H]+
m/z	relative intensity
38.799999	1
39.300001	1
39.900002	1
41.156250	16
42.200001	4
43.158394	134
44.299999	3
45.107627	115
45.850000	1
50.500000	1
52.450001	1
52.750000	2
53.099998	2
53.400002	1
54.000000	4
55.091471	292
56.000000	5
57.179180	298
57.850000	1
58.799999	1
59.000000	1
59.200001	1
61.099998	1
63.200001	1
64.800003	2
65.220000	5
67.111429	478
69.118669	455
69.900002	3
71.093333	117
71.900002	2
72.199997	1
74.300003	1
75.900002	1
76.500000	1
76.994595	18
78.191664	6
78.981539	254
81.124508	991
83.156847	235
84.383335	3
85.182352	17
88.950001	1
89.699997	1
89.900002	1
91.087817	96
93.069771	320
95.047363	999
96.896430	14
97.264583	47
98.000000	1
98.500000	1
98.960869	22
101.000000	1
102.300003	1
102.900002	1
103.099998	1
103.300003	1
103.624998	2
104.400002	3
105.060000	107
107.039559	332
109.106949	323
110.199997	1
110.500000	1
111.079999	5
114.699999	1
116.300003	1
116.500000	1
116.699997	1
117.400002	2
117.699997	1
118.099998	2
118.312503	4
119.050893	55
119.862502	4
120.149998	7
121.154801	86
122.994118	50
123.800003	1
124.800003	2
125.199997	1
128.000000	1
128.699997	1
129.100006	1
129.800003	1
130.000000	1
130.399994	1
130.600006	1
130.800003	1
131.266666	4
131.800003	1
132.000000	1
133.119449	18
133.833333	3
134.150002	5
135.139326	87
136.100006	1
136.399994	1
136.750000	2
137.114286	7
137.600006	1
142.199997	1
142.899994	1
143.199997	1
143.699997	1
144.150002	1
144.699997	1
144.941663	6
145.399994	1
145.899994	1
146.100006	1
147.065219	34
148.100006	1
149.104689	31
150.100006	1
150.300003	1
150.699997	1
150.899994	1
151.100006	2
151.399994	1
151.699997	1
155.800003	1
156.800003	1
157.100006	1
157.300003	1
158.899994	1
159.949997	2
160.424995	2
161.199997	7
162.000000	1
162.199997	1
163.100006	9
163.349998	10
165.300003	1
172.100006	1
172.500000	1
173.100006	1
173.399994	1
174.150002	2
174.449997	1
174.974998	2
175.600006	1
176.199997	1
176.399994	1
176.800003	1
177.100006	1
177.300003	1
177.500000	1
185.100006	1
185.399994	1
185.899994	1
186.849998	2
187.150002	1
187.500000	1
188.300003	1
188.899997	2
189.275002	2
189.600006	1
191.250000	1
192.800003	1
197.100006	1
199.300003	1
201.449997	1
202.150002	1
203.199997	2
204.899994	1
205.300003	1
205.500000	1
215.075005	2
215.349998	1
215.600006	1
215.899994	1
216.300003	1
217.150002	1
217.399994	1
217.899994	1
220.500000	1
227.000000	1
228.399994	1
228.899994	1
229.199997	1
229.399994	1
230.199997	1
231.000000	1
231.300003	1
232.000000	1
232.800003	1
240.949997	1
242.199997	1
243.300003	1
243.899994	1
244.300003	1
245.100006	1
245.399994	1
253.399994	1
256.600006	1
257.000000	1
257.500000	1
259.000000	1
260.200012	1
261.500000	1
263.600006	1
270.600006	1
272.600006	1
273.200012	1
273.449997	1
277.299988	1
279.399994	1
283.299988	1
284.899994	1
287.399994	1
299.100006	1
299.700012	1
310.899994	1
384.700012	1
