Mass spectrum: Campesterol; LC-APPI-QQ; MS2; CE:10 V; [M-H2O+H]+
Name: Campesterol
Class: Natural Product; Sterol
Formula: C28H48O
Exact mass: 400.37052
SMILES: C(C(CCC(C)C(C4)C(C3C4)(C)CCC(C13)C(C2)(C(CC(C2)O)=CC1)C)C)(C)C
InChI: InChI=1S/C28H48O/c1-18(2)19(3)7-8-20(4)24-11-12-25-23-10-9-21-17-22(29)13-15-27(21,5)26(23)14-16-28(24,25)6/h9,18-20,22-26,29H,7-8,10-17H2,1-6H3/t19?,20?,22-,23?,24?,25?,26?,27?,28?/m0/s1
Instrument: API2000
Instrument type: LC-APPI-QQ
Ms type: MS2
Ion mode: POSITIVE
Retention time: 0.820833 min
Base peak: 383.500000
Precursor m/z: 383.400000
Precursor type: [M-H2O+H]+
m/z	relative intensity
57.400002	1
70.500000	1
70.900002	1
76.800003	1
79.199997	1
80.599998	1
80.900002	1
81.400002	1
81.900002	1
83.000000	1
84.900002	1
85.300003	1
92.800003	1
94.199997	1
94.400002	1
94.950001	1
95.199997	1
95.599998	1
96.000000	1
96.199997	1
96.500000	1
96.900002	1
97.199997	1
97.400002	1
98.000000	1
98.900002	1
99.300003	1
105.049999	1
107.149998	1
108.400002	1
109.300003	1
110.500000	1
111.000000	1
111.699997	1
112.699997	1
113.400002	1
117.800003	1
118.800003	1
119.099998	1
120.300003	1
120.599998	1
120.800003	1
121.225000	1
122.000000	1
122.400002	1
122.900002	1
123.099998	1
123.300003	1
124.699997	1
124.925001	1
125.500000	1
126.800003	1
132.300003	1
133.200002	1
133.550003	1
133.899994	1
134.100006	1
135.112859	2
136.600006	1
137.349998	1
138.699997	1
139.250000	1
140.899994	1
141.199997	1
141.500000	1
144.699997	1
145.100006	1
145.899994	1
146.100006	1
147.300003	1
148.000000	1
148.199997	1
149.225000	1
150.100006	1
150.699997	1
151.000000	1
151.219998	1
152.899994	1
153.199997	1
153.399994	1
158.600006	1
159.000000	1
159.699997	1
159.899994	1
160.300003	1
161.102339	4
161.899994	1
163.100006	1
163.899994	1
164.399994	1
165.000000	1
165.325001	1
167.050003	1
172.800003	1
173.199997	1
173.399994	1
174.199997	1
175.181668	1
176.399994	1
176.699997	1
177.299999	1
178.500000	1
178.933329	1
179.333332	1
180.800003	1
181.150002	1
183.199997	1
185.100006	1
186.600006	1
187.100006	1
187.800003	1
189.182926	2
190.500000	1
190.800003	1
191.166672	1
193.221430	1
193.699997	1
199.399994	1
200.974998	1
201.219998	1
201.849998	1
202.100006	1
202.600006	1
203.257142	2
204.800003	1
205.050003	1
205.399994	1
205.899994	1
206.959998	1
207.462498	1
211.600006	1
213.100006	1
214.500000	1
215.237930	1
217.310257	1
219.330000	1
219.800003	1
220.800003	1
221.333333	1
222.699997	1
227.199997	1
227.399994	1
227.600006	1
228.399994	1
229.300003	1
230.199997	1
230.899994	1
231.199997	1
231.424995	1
233.173912	1
235.139999	1
240.800003	1
241.275002	1
241.899994	1
243.311110	3
245.250000	1
245.699997	1
246.399994	1
247.409434	3
249.000000	1
249.500000	1
249.800003	1
255.199997	1
255.699997	1
256.200012	1
256.399994	1
257.274193	3
258.200012	1
259.227276	1
261.185011	1
263.500000	1
269.299988	1
271.000000	1
271.299988	1
271.500000	1
271.899994	1
273.368887	1
274.200012	1
275.083338	1
275.299988	1
282.500000	1
285.088894	1
286.600006	1
286.972221	1
287.388461	1
289.200012	1
289.449997	1
297.399994	1
298.299988	1
298.500000	1
298.799988	1
299.271428	1
300.150009	1
300.399994	1
301.389740	2
311.299988	1
312.100006	1
313.100006	1
313.299988	1
313.585720	1
313.899994	1
314.899994	1
315.399999	1
325.100006	1
326.500000	1
327.289990	1
328.399994	1
337.700012	1
340.600006	1
341.700012	1
350.899994	1
355.299988	1
355.700012	1
365.100006	1
367.700012	1
368.349991	1
377.600006	1
379.949997	1
380.225006	1
380.700012	1
381.799988	1
383.449132	999
384.949997	1
392.100006	1
