Mass spectrum: 62FTA; LC-ESI-QQ; MS2; CE40; [M-H-CO2-2HF]-
Name: 62FTA
Name: 62Fluorotelomer Acid
Name: 3,3,4,4,5,5,6,6,7,7,8,8,8-Tridecafluorooctanoic acid
Class: Non-Natural Product
Formula: C8H3F13O2
Exact mass: 377.99255
SMILES: OC(=O)CC(F)(F)C(F)(F)C(F)(F)C(F)(F)C(F)(F)C(F)(F)F
InChI: InChI=1S/C8H3F13O2/c9-3(10,1-2(22)23)4(11,12)5(13,14)6(15,16)7(17,18)8(19,20)21/h1H2,(H,22,23)
Instrument: Xevo TQ MS (Waters)
Instrument type: LC-ESI-QQ
Ms type: MS2
Ion mode: NEGATIVE
Collision energy: 40
Retention time: 0.016833
Base peak: 92.977409
Ion type: [M-H]-
Precursor m/z: 293
Precursor type: [M-H-CO2-2HF]-
m/z	relative intensity
54.962803	81
69.039497	495
73.411911	163
73.944527	478
86.799011	57
88.998055	57
92.314468	271
92.942490	999
96.882072	58
118.990440	147
123.869537	187
131.036102	196
137.126526	70
142.949783	521
152.874603	93
168.987167	133
193.016190	394
243.071320	309
293.181122	113
