Mass spectrum: 5-beta-Androstane-3-alpha,17-beta-diol; LC-APPI-QQ; MS2; CE:30 V; [M-2H2O+H]+
Name: 5-beta-Androstane-3-alpha,17-beta-diol
Name: Etiocholane-3-alpha,17-beta-diol
Class: Natural Product; Steroid hormone
Formula: C19H32O2
Exact mass: 292.24023
SMILES: OC(C4)CC([H])(C3)C(C)(C4)C(C2)C(C3)C(C1)C(C)(C2)C(O)C1
InChI: InChI=1S/C19H32O2/c1-18-9-7-13(20)11-12(18)3-4-14-15-5-6-17(21)19(15,2)10-8-16(14)18/h12-17,20-21H,3-11H2,1-2H3/t12-,13-,14?,15?,16?,17+,18?,19?/m1/s1
Instrument: API2000
Instrument type: LC-APPI-QQ
Ms type: MS2
Ion mode: POSITIVE
Retention time: 0.820867 min
Base peak: 257.299988
Precursor m/z: 257.300000
Precursor type: [M-2H2O+H]+
m/z	relative intensity
38.599998	1
39.400002	1
40.900002	1
42.000000	1
42.299999	1
42.900001	1
43.250000	1
43.500000	1
50.900002	1
51.200001	1
51.400002	1
52.799999	1
53.299999	1
55.087267	31
57.117391	4
58.400002	1
59.099998	1
64.049999	1
64.500000	1
64.900002	1
65.216667	1
67.121441	164
69.093750	78
69.900002	1
70.300003	1
70.599998	1
70.987500	1
71.300003	1
75.300003	1
75.599998	1
76.000000	1
77.055815	8
79.055784	114
81.111528	509
83.114406	209
84.250000	1
85.000000	1
85.599998	1
87.400002	1
88.450001	1
88.699997	1
89.099998	1
89.500000	1
91.072944	111
93.099409	331
95.082714	644
97.158197	24
98.800003	1
101.000000	1
101.500000	1
101.900002	1
102.099998	1
103.407694	3
105.060312	289
107.055688	329
109.100493	556
110.199997	1
110.562499	1
111.162500	6
112.549999	1
114.450001	1
115.150002	1
117.020253	15
119.080565	228
121.114347	321
123.083851	145
123.800003	1
124.983334	1
125.300003	1
125.699997	1
126.300003	1
127.599998	1
127.900002	1
128.199997	1
128.449997	1
129.143749	2
131.130366	43
133.134383	239
135.129540	444
137.167263	16
138.300003	1
138.800003	1
139.100006	1
140.699997	1
141.000000	1
141.300003	1
141.974998	1
142.199997	1
142.916662	2
143.199997	2
145.143056	91
147.146009	705
149.164103	382
150.000000	1
150.300003	1
150.800003	1
151.000000	1
151.250000	1
152.300003	1
152.699997	1
153.100006	1
153.300003	1
154.199997	1
154.899994	1
155.199997	1
155.399994	1
155.600006	1
155.849998	1
156.300003	1
157.248276	3
159.148433	62
161.134689	716
163.193737	94
164.199997	1
165.000000	1
165.449997	1
167.050003	1
167.300003	1
168.199997	1
169.125000	1
170.128573	1
170.885716	1
171.330766	1
171.800003	1
173.205148	76
175.171310	458
177.250925	11
178.000000	1
179.100006	1
180.800003	1
181.300003	1
182.150002	1
182.449997	1
183.225000	2
183.650002	1
185.300003	2
187.172299	141
188.127778	4
189.216540	103
189.899994	1
190.199997	1
190.699997	1
191.100006	1
191.399994	1
193.500000	1
194.349998	1
195.000000	1
195.199997	1
195.399994	1
195.699997	1
196.000000	1
196.399994	1
196.650002	1
196.899994	1
197.170003	2
197.899994	1
198.150002	1
199.108696	4
201.196938	268
202.114288	3
203.000000	1
208.199997	1
208.500000	1
209.100006	1
209.800003	1
211.050003	1
211.300003	1
213.233336	2
215.250000	45
216.000000	1
216.300003	1
216.575005	1
222.899994	1
223.974998	1
224.349998	1
224.600006	1
225.000000	1
225.300003	1
226.075005	1
227.100000	4
228.200000	13
229.212121	32
230.000000	1
230.600006	1
235.800003	1
238.299998	1
239.199999	8
240.199997	1
240.399994	1
240.899994	1
241.399994	1
242.268751	9
250.399994	1
252.699997	1
253.199997	1
254.399994	1
254.750000	1
255.242860	3
257.337304	999
258.100006	1
258.700012	1
259.299988	1
283.600006	1
