Mass spectrum: isoPFOS; LC-ESI-QQ; MS2; CE30eV
Name: isoPFOS
Class: Non-Natural Product
Formula: C8HF17O3S
Exact mass: 499.93749
SMILES: FC(F)(F)C(F)(C(F)(F)F)C(F)(F)C(F)(F)C(F)(F)C(F)(F)C(F)(F)S(O)(=O)=O
InChI: InChI=1S/C8HF17O3S/c9-1(6(18,19)20,7(21,22)23)2(10,11)3(12,13)4(14,15)5(16,17)8(24,25)29(26,27)28/h(H,26,27,28)
Instrument: Xevo TQ, Waters
Instrument type: LC-ESI-QQ
Ms type: MS2
Ion mode: NEGATIVE
Collision energy: 30eV
Retention time: 17.454184 min
Base peak: 79.899559
Precursor m/z: 498.9
Precursor type: [M-H]-
m/z	relative intensity
62.734936	38
68.744071	59
79.820716	567
82.762893	613
84.873384	272
99.061444	492
118.817185	74
129.959358	421
145.517997	27
169.012807	455
180.005627	436
219.188217	130
229.974616	495
279.966943	183
329.705993	199
344.696963	70
350.658739	44
364.493026	42
408.539346	300
430.017323	114
498.901785	999
