Mass spectrum: Brassicasterol; LC-APPI-QQ; MS
Name: Brassicasterol
Class: Natural Product; Sterol
Formula: C28H46O
Exact mass: 398.35487
SMILES: C(C(C=CC(C)C(C4)C(C3C4)(C)CCC(C13)C(C2)(C(CC(C2)O)=CC1)C)C)(C)C
InChI: InChI=1S/C28H46O/c1-18(2)19(3)7-8-20(4)24-11-12-25-23-10-9-21-17-22(29)13-15-27(21,5)26(23)14-16-28(24,25)6/h7-9,18-20,22-26,29H,10-17H2,1-6H3/b8-7+/t19?,20?,22-,23?,24?,25?,26?,27?,28?/m0/s1
Instrument: API2000
Instrument type: LC-APPI-QQ
Ms type: MS
Ion mode: POSITIVE
Retention time: 0.821067 min
Base peak: 381.399994
Ion type: [M-H2O+H]+
m/z	relative intensity
201.206653	38
203.169574	30
205.155945	8
207.141444	6
209.177609	6
211.168709	10
213.152737	17
215.198098	28
216.217366	5
217.211901	9
219.162874	9
221.156020	7
223.156600	5
224.170082	2
225.199862	6
227.212897	13
229.221668	14
231.201054	16
233.214414	11
235.135778	6
237.170447	7
238.163653	2
239.190000	8
241.281879	19
243.236067	15
245.214036	17
247.213431	19
249.195100	14
251.195945	15
253.236383	34
255.254079	578
259.238872	15
261.177815	9
263.164998	9
265.181086	7
267.188289	11
269.228585	23
271.238846	37
273.272091	17
275.220322	7
277.191557	5
279.184521	11
281.271774	10
283.272174	23
285.290181	18
287.265247	12
289.308279	10
290.283968	3
291.238196	4
293.244899	7
295.302056	11
297.346971	90
298.345984	25
299.313299	19
301.291762	7
303.271799	5
305.321648	4
307.307903	6
309.341815	12
311.382616	102
312.387391	29
313.344472	12
315.310795	8
316.331836	2
317.263820	4
319.285317	3
321.331242	4
323.315208	5
325.367615	12
327.322192	6
329.295446	4
331.265500	3
333.279722	4
335.339470	8
337.383923	10
339.361261	10
341.417546	13
343.334053	4
345.294548	3
347.303891	4
349.309891	5
351.342383	8
353.394346	15
355.382767	8
357.358734	5
359.350247	7
361.334465	14
363.343648	11
365.387348	22
367.389544	16
369.421401	15
371.420415	14
373.423318	18
375.420145	24
377.398190	44
379.417566	84
381.442584	999
387.430628	9
389.435405	16
391.446903	25
393.422966	55
395.414849	205
397.438151	70
398.464447	35
399.401308	28
401.436374	4
403.457642	4
405.448939	4
407.465591	5
409.431846	6
411.424486	9
413.432992	13
414.464504	5
415.445992	4
417.490691	6
418.477971	2
419.461368	2
421.455447	3
423.476535	2
425.445624	3
427.439622	4
428.492934	2
429.450260	2
430.452506	1
431.469517	1
433.478961	2
435.517028	2
437.478400	1
438.426756	1
439.461807	1
441.424201	1
443.397221	1
445.459240	1
446.554635	1
447.514414	1
449.515611	1
451.496581	1
453.496048	1
455.475489	1
457.469713	1
459.373375	1
460.524559	1
461.450399	1
463.441443	1
464.540001	1
465.512994	1
467.531424	1
469.500841	1
471.531778	1
473.501908	1
474.487252	1
475.412474	1
476.444207	1
477.474303	1
478.356058	1
479.523281	1
481.532920	1
483.517920	1
485.546957	4
487.568267	14
488.565323	5
490.505418	1
491.462313	1
492.455854	1
493.482051	1
495.529814	1
496.659201	1
497.606561	1
499.568393	1
