Mass spectrum: 33FTA; LC-ESI-QQ; MS2; CE30; [M-H]-
Name: 33FTA
Name: 33Fluorotelomer Acid
Name: 4,4,5,5,6,6,6-Heptafluorohexanoic acid
Class: Non-Natural Product
Formula: C6H5F7O2
Exact mass: 242.01778
SMILES: OC(=O)CCC(F)(F)C(F)(F)C(F)(F)F
InChI: InChI=1S/C6H5F7O2/c7-4(8,2-1-3(14)15)5(9,10)6(11,12)13/h1-2H2,(H,14,15)
Instrument: Xevo TQ MS (Waters)
Instrument type: LC-ESI-QQ
Ms type: MS2
Ion mode: NEGATIVE
Collision energy: 30
Retention time: 0.016817
Base peak: 117.058830
Precursor m/z: 241
Precursor type: [M-H]-
m/z	relative intensity
62.313190	56
62.997890	324
116.966400	999
131.081024	28
133.029816	55
136.954987	535
153.029846	22
156.983612	30
168.965225	27
176.982834	18
180.994995	40
