Mass spectrum: Stigmasterol; LC-APPI-QQ; MS2; CE:20 V; [M-H2O+H]+
Name: Stigmasterol
Class: Natural Product; Sterol
Formula: C29H48O
Exact mass: 412.37052
SMILES: C(C4)C(C(CC4O)=3)(C(C(CC3)2)CCC(C21)(C(CC1)C(C)C=CC(C(C)C)CC)C)C
InChI: InChI=1S/C29H48O/c1-7-21(19(2)3)9-8-20(4)25-12-13-26-24-11-10-22-18-23(30)14-16-28(22,5)27(24)15-17-29(25,26)6/h8-10,19-21,23-27,30H,7,11-18H2,1-6H3/b9-8+/t20?,21?,23-,24?,25?,26?,27?,28?,29?/m0/s1
Instrument: API2000
Instrument type: LC-APPI-QQ
Ms type: MS2
Ion mode: POSITIVE
Retention time: 0.820850 min
Base peak: 395.299988
Precursor m/z: 395.500000
Precursor type: [M-H2O+H]+
m/z	relative intensity
54.900002	1
57.400002	4
61.900002	1
66.400002	1
68.800003	1
69.149998	2
71.049999	3
79.500000	1
80.199997	1
81.237499	6
82.000000	1
82.199997	1
82.649998	3
83.133333	24
83.500000	4
83.800003	2
84.599998	1
84.800003	1
85.250000	3
85.500000	1
92.699997	1
93.099998	1
94.800003	3
95.000000	2
95.199997	2
96.199997	1
96.400002	1
96.599998	1
97.049999	10
97.400002	1
104.450001	2
104.800001	2
105.250000	2
106.599998	2
106.800003	2
107.000000	4
107.900002	1
108.400002	1
108.699997	2
108.900002	3
109.242856	6
110.900002	2
111.500000	1
112.000000	1
113.199997	1
113.599998	1
118.250000	2
118.699997	1
119.099998	1
120.199997	1
120.599998	1
121.000000	2
121.400002	2
121.599998	1
122.099998	2
122.500000	1
122.800003	1
123.099998	2
123.300003	2
123.699997	1
125.000000	2
125.300001	2
127.099998	1
127.300003	1
130.899994	1
131.199997	1
131.500000	1
132.399994	1
132.849998	5
133.349998	2
134.399994	2
135.062498	13
136.699997	1
137.199997	5
137.399994	2
138.000000	1
138.500000	2
138.800003	1
139.300003	3
145.033333	5
147.104348	37
147.899994	1
148.399994	1
149.212498	6
150.800003	1
151.100001	2
151.399994	2
151.600006	1
153.600006	2
159.000000	5
159.199997	3
159.399994	5
160.000000	1
160.399994	1
160.816663	10
161.250000	13
162.600006	2
163.174999	3
163.399994	2
164.000000	1
164.899994	2
165.100006	1
167.199997	1
170.899994	2
171.399994	1
172.600006	1
173.000002	6
173.424995	3
174.399994	2
174.866664	5
175.300003	5
176.100006	1
176.399994	1
176.800003	1
177.071431	6
177.600001	2
179.125004	3
179.500000	3
183.300003	1
185.300003	1
185.550003	2
186.899994	4
187.260004	8
189.137503	6
189.399994	3
190.500000	1
191.122225	7
192.500000	1
193.000000	1
193.399994	1
194.899994	1
197.100006	1
197.300003	2
198.899994	1
199.150002	3
199.399994	1
200.250000	3
200.500000	1
200.699997	1
200.974998	3
201.199997	7
201.537502	6
202.000000	1
203.000000	8
203.199997	4
203.424995	3
205.199997	1
205.399994	2
206.849998	2
207.266668	5
210.899994	1
211.100006	1
211.399994	1
211.600006	1
212.975000	6
213.300003	4
214.199997	2
215.016668	10
215.300003	4
216.300003	1
216.800003	1
217.300003	2
217.699997	1
218.799998	2
219.100006	2
219.500000	3
224.899994	1
226.699997	1
226.899994	1
227.399994	2
227.600006	1
228.100006	1
228.399994	1
228.699997	1
229.300003	4
229.500000	2
231.199997	1
231.399994	1
233.250000	3
233.600006	1
234.800003	1
235.100006	2
235.550003	2
237.000000	1
239.199997	1
241.300003	5
241.537502	6
242.300003	2
243.100006	1
243.349998	2
245.016668	5
245.550003	2
247.399994	2
249.199997	1
252.899994	1
253.449997	2
254.199997	1
255.358064	25
256.100006	1
256.500000	2
257.000000	2
257.399994	4
257.750000	2
259.500000	3
259.700012	1
261.000000	1
261.328565	6
261.899994	1
265.100006	1
265.500000	1
268.299988	2
268.799988	2
269.263636	9
269.700012	2
270.399994	1
270.700012	1
270.899994	1
271.400004	5
273.100006	1
273.500000	2
275.150009	2
275.399994	1
277.399994	1
280.799988	1
282.799988	2
283.199992	5
283.600006	5
284.600006	1
285.324989	6
285.799988	1
287.200012	2
287.449997	2
287.799988	1
289.200012	1
296.200012	1
297.312305	52
298.500000	1
299.100006	2
300.899994	2
301.500000	1
301.700012	1
303.000000	2
309.100006	1
310.150009	2
311.200012	8
311.521430	11
312.399994	2
313.000000	1
313.439996	4
317.399994	1
321.000000	1
325.000000	1
325.424995	3
325.799988	1
335.100006	1
339.100006	2
339.500000	2
339.750000	2
346.200012	1
353.000000	2
353.399994	1
353.700012	2
363.150009	3
363.500000	1
366.000000	1
370.299988	1
377.200012	1
377.600006	1
392.399994	2
393.600006	1
394.100006	1
394.299988	2
395.450956	999
