Mass spectrum: Estrone; LC-APPI-QQ; MS2; CE:40 V; [M-H2O+H]+
Name: Estrone
Class: Natural Product; Steroid hormone
Formula: C18H22O2
Exact mass: 270.16198
SMILES: Oc(c4)cc(C3)c(c4)C(C2)C(C3)C(C1)C(C)(C2)C(=O)C1
InChI: InChI=1S/C18H22O2/c1-18-9-8-14-13-5-3-12(19)10-11(13)2-4-15(14)16(18)6-7-17(18)20/h3,5,10,14-16,19H,2,4,6-9H2,1H3
Instrument: API2000
Instrument type: LC-APPI-QQ
Ms type: MS2
Ion mode: POSITIVE
Retention time: 0.820833 min
Base peak: 157.199997
Precursor m/z: 253.200000
Precursor type: [M-H2O+H]+
m/z	relative intensity
31.299999	1
38.400002	1
38.900002	1
39.200001	1
39.900002	1
40.099998	1
41.099998	1
42.200001	1
43.030435	5
44.299999	1
44.700001	1
45.150000	1
51.099998	1
52.000000	1
52.500000	1
52.928572	1
53.433333	1
53.750000	1
54.099998	1
55.058421	19
55.700001	1
56.299999	1
57.100000	1
59.200001	1
59.400002	1
62.350000	1
62.700001	1
62.900002	1
63.700001	1
63.900002	1
65.118182	2
67.107649	72
68.049999	1
69.140741	11
69.900002	1
70.850002	1
71.400002	1
72.699997	1
74.599998	1
75.400002	1
75.699997	1
77.100000	21
79.039764	112
81.092750	231
82.400002	1
83.257144	2
85.000000	1
85.400002	1
88.000000	1
88.500000	1
89.000000	1
89.428573	1
91.042960	86
93.098050	115
95.054167	64
95.900002	1
96.099998	1
97.049999	1
99.000000	1
99.699997	1
101.199997	1
101.649998	1
101.900002	1
102.400002	1
103.082979	10
105.044993	70
106.099998	2
107.042422	124
108.000000	1
109.095726	24
110.500000	1
110.900002	1
112.900002	1
113.199997	1
113.599998	1
114.166664	1
115.050000	14
116.348277	3
117.114000	20
117.800003	1
119.130302	7
120.012500	2
121.046397	45
121.900002	1
122.599998	1
123.000000	1
123.699997	1
125.350002	1
125.800003	1
127.059701	27
128.056600	40
129.096383	40
131.120796	69
133.105746	180
134.100006	1
134.300003	1
134.816668	1
135.137503	1
136.899994	1
137.399994	1
138.500000	1
138.699997	1
139.171430	1
139.799997	1
141.131159	56
142.366663	2
145.082241	145
146.012499	3
147.166667	10
148.500000	1
148.699997	1
149.399994	1
150.199997	1
150.699997	1
151.100006	1
152.198000	10
153.067952	34
155.146783	41
157.120366	999
159.123944	218
159.899994	1
161.066668	4
162.199997	1
162.399994	1
162.600006	1
162.899994	1
163.275002	1
163.600006	1
165.136862	82
167.127777	66
168.186959	5
169.092028	59
170.111981	22
171.088014	60
172.080005	1
173.156279	22
173.899994	1
174.750000	1
175.000000	1
175.300003	1
175.500000	1
176.110002	1
176.600006	1
177.033335	3
178.179479	35
179.152461	177
181.123989	76
182.160940	139
183.135176	183
184.123650	15
185.139265	36
186.100006	1
186.300003	1
186.500000	1
187.199997	1
187.399994	1
188.399994	1
188.699997	1
188.899994	1
189.100006	1
189.500000	1
189.750000	1
190.324997	1
191.205000	4
192.161537	1
193.199062	22
194.136634	21
195.150566	36
197.160674	431
198.171237	230
201.500000	1
201.699997	1
202.050003	1
202.300003	1
202.600006	1
202.800003	1
203.000000	1
203.199997	1
203.399994	1
203.699997	1
203.899994	1
204.199997	1
204.600006	1
205.199997	1
205.600006	1
205.825001	1
206.250000	1
206.600006	1
207.170834	5
208.085720	1
209.154326	59
211.133885	136
212.218909	28
213.199997	1
214.300003	1
215.199997	1
216.600006	1
216.800003	1
217.100006	1
217.300003	1
218.500000	1
218.949997	1
219.600006	1
220.199997	1
221.156252	3
221.899994	1
223.188393	11
224.125532	10
225.159574	29
226.300003	1
226.500000	1
227.500000	1
231.100006	1
232.849998	1
233.100006	1
233.600006	1
233.899994	1
234.399994	1
235.000000	1
235.199997	1
235.800003	1
237.218518	6
238.282856	14
249.199997	1
250.932000	3
251.333333	1
252.000000	1
253.276693	92
254.199997	1
