Mass spectrum: 24-Ethylepicoprostanol; LC-APPI-QQ; MS
Name: 24-Ethylepicoprostanol
Class: Natural Product; Sterol
Formula: C29H52O
Exact mass: 416.40182
SMILES: [H]C(C([H])23)(CCC(C)(C4C(C)CCC(C(C)C)CC)C(CC4)3[H])C(C(CC2)1[H])(CCC(O)C1)C
InChI: InChI=1S/C29H52O/c1-7-21(19(2)3)9-8-20(4)25-12-13-26-24-11-10-22-18-23(30)14-16-28(22,5)27(24)15-17-29(25,26)6/h19-27,30H,7-18H2,1-6H3/t20-,21+,22-,23-,24+,25?,26+,27+,28+,29-/m1/s1
Instrument: API2000
Instrument type: LC-APPI-QQ
Ms type: MS
Ion mode: POSITIVE
Retention time: 0.821067 min
Base peak: 437.500000
Ion type: [M-H2O+H]+
m/z	relative intensity
201.203564	24
202.143692	16
203.185737	35
205.193680	27
207.207783	15
209.233880	19
210.216377	7
211.201573	19
213.166908	17
214.242606	10
215.226814	38
216.240281	12
217.245770	23
219.209049	19
221.208464	14
222.207984	5
223.216801	14
225.293379	46
226.257817	15
227.236141	16
228.263340	9
229.219503	15
231.252933	41
232.253705	15
233.242163	15
235.232843	18
237.232242	23
238.198026	7
239.226491	15
241.315718	48
243.278988	18
245.274174	19
247.250129	15
249.268281	15
251.222310	12
253.242149	12
255.256536	17
257.328098	21
258.306208	5
259.301766	16
261.268427	12
263.233671	21
265.264734	23
267.229539	9
268.163020	13
269.279119	22
271.260249	13
273.353844	63
275.307612	14
277.241093	12
279.234908	31
280.292113	8
281.294496	8
282.365661	22
283.329282	21
285.352605	14
287.348383	26
289.393093	13
291.344472	10
293.292944	8
295.321300	15
296.407055	6
297.395719	14
299.318625	122
301.380602	21
303.347176	19
304.405538	6
305.387405	6
306.416859	4
307.394280	7
309.400295	8
311.404184	22
313.393402	21
315.421081	102
317.365004	12
319.333322	7
321.351592	22
322.354138	5
323.370561	6
325.439849	8
327.423758	35
328.417577	9
329.406029	11
331.334679	6
332.389406	7
333.363332	5
335.342809	6
337.353039	34
338.430018	14
339.421134	14
341.470134	14
343.400551	14
344.437064	5
345.379757	4
347.352995	5
349.379397	4
351.365276	6
353.415030	29
355.459066	12
357.453449	8
359.343431	11
360.415427	5
361.367989	5
362.303500	5
363.396610	5
365.415325	5
367.487947	13
369.547856	30
371.491071	10
373.386583	8
375.346056	8
377.391091	4
379.430282	3
381.451577	6
383.522821	22
385.554262	11
387.460510	8
389.408164	8
391.516063	13
393.476470	5
395.478514	9
397.538210	48
399.462425	999
403.430548	7
404.457650	2
405.494784	4
407.543793	5
409.566975	9
411.535419	22
413.535147	21
414.561280	10
415.564527	10
417.297490	6
419.557445	7
421.491289	72
423.563769	6
425.569379	7
427.546020	10
429.515089	9
431.559417	3
433.559848	3
434.560524	1
435.589312	3
437.487689	118
439.508870	18
440.520852	5
441.537820	4
444.544626	9
445.523751	4
447.592150	3
449.636560	3
451.641956	5
453.574347	3
455.556510	3
457.507618	3
458.527207	3
459.445305	3
461.509335	2
462.552969	1
463.598351	2
465.665663	5
467.639590	4
468.627123	2
469.604851	2
472.608331	6
473.573325	4
474.561887	1
475.576203	2
477.637501	2
479.711124	7
481.651640	6
482.697119	2
483.624012	3
485.595529	2
486.583039	1
487.615318	2
488.670886	2
489.612650	2
491.713187	2
493.727683	7
495.737985	8
496.749540	3
497.728216	3
498.691743	4
499.638250	2
