Mass spectrum: nPFOS; LC-ESI-QQ; MS2; CE60eV; [M-H]-
Name: nPFOS
Class: Non-Natural Product
Formula: C8HF17O3S
Exact mass: 499.93749
SMILES: FC(F)(F)C(F)(F)C(F)(F)C(F)(F)C(F)(F)C(F)(F)C(F)(F)C(F)(F)S(O)(=O)=O
InChI: InChI=1S/C8HF17O3S/c9-1(10,3(13,14)5(17,18)7(21,22)23)2(11,12)4(15,16)6(19,20)8(24,25)29(26,27)28/h(H,26,27,28)
Instrument: Xevo TQ, Waters
Instrument type: LC-ESI-QQ
Ms type: MS2
Ion mode: NEGATIVE
Collision energy: 60eV
Retention time: 21.395416 min
Base peak: 79.963341
Precursor m/z: 498.9
Precursor type: [M-H]-
m/z	relative intensity
79.745870	999
82.733199	254
98.749260	609
119.024129	145
129.734863	155
168.944930	163
180.189870	66
229.537819	118
277.210308	18
279.895930	22
312.777231	15
394.764686	49
435.050698	22
499.306701	49
