Mass spectrum: Coprostanone; LC-APPI-QQ; MS2; CE:30 V; [M-H2O+H]+
Name: Coprostanone
Class: Natural Product; Sterol
Formula: C27H46O
Exact mass: 386.35487
SMILES: C(C)(C1)(C(C(C)CCCC(C)C)4)C(CC4)C(C2)C(C(C)(C3)C([H])(CC(C3)=O)C2)C1
InChI: InChI=1S/C27H46O/c1-18(2)7-6-8-19(3)23-11-12-24-22-10-9-20-17-21(28)13-15-26(20,4)25(22)14-16-27(23,24)5/h18-20,22-25H,6-17H2,1-5H3/t19?,20-,22?,23?,24?,25?,26?,27?/m1/s1
Instrument: API2000, Applied
Instrument type: LC-APPI-QQ
Ms type: MS2
Ion mode: POSITIVE
Retention time: 0.820833 min
Base peak: 369.500000
Precursor m/z: 369.431000
Precursor type: [M-H2O+H]+
m/z	relative intensity
39.099998	1
40.000000	1
40.900002	1
41.260001	1
42.808333	1
52.549999	1
53.000000	1
53.400002	1
53.900002	1
54.099998	1
55.032558	9
57.126284	70
58.400002	1
59.200001	1
64.350002	1
64.699999	1
65.300003	1
65.500000	1
65.699997	1
65.983334	1
67.139362	40
69.108417	95
71.090920	82
76.500000	1
76.770001	1
77.086665	2
77.599998	1
78.000000	1
78.966667	16
81.080785	204
83.065922	113
85.088177	43
87.400002	1
89.649998	1
89.900002	1
91.024732	20
93.070948	69
95.036915	304
97.102215	95
98.500000	1
99.108332	1
99.699997	1
101.199997	1
102.750000	1
103.166667	1
104.000000	1
105.039233	71
107.047669	140
109.090881	372
111.075934	102
112.400002	1
112.900002	1
114.800003	1
115.049999	1
116.954546	2
119.076284	86
121.104860	199
123.070417	177
124.199997	1
125.114474	48
126.400002	1
127.113462	5
128.449997	1
129.266668	1
130.100006	1
130.312502	1
131.133136	18
133.106562	154
135.103753	460
137.141136	76
138.300003	1
139.120000	7
140.899994	1
141.300003	1
142.300003	1
143.062504	1
143.300003	1
144.254547	1
145.117705	32
147.136030	402
149.139666	239
149.962498	1
150.237499	1
151.144385	60
152.100006	1
152.300003	1
153.284614	3
154.949997	1
155.399994	1
155.699997	1
156.550003	1
156.899994	1
157.100006	1
157.499997	1
158.100006	1
159.120826	64
161.120383	462
163.165389	165
164.300003	1
165.154098	51
166.100006	1
167.399997	1
167.699997	1
168.750000	1
169.199997	1
169.699997	1
170.150002	1
171.186666	2
171.699997	1
173.178839	51
175.148102	272
177.227214	82
179.228387	65
180.500000	1
181.100006	1
181.500000	1
182.150002	1
182.800003	1
183.000000	1
183.349998	1
184.300003	1
184.699997	1
185.009524	2
185.328572	1
185.899994	1
186.137503	2
187.156045	93
189.198101	233
191.176126	47
193.234539	64
194.100006	1
194.800003	1
195.099998	1
196.699997	1
197.100000	1
197.500000	1
198.250000	1
199.166664	1
199.918181	1
201.179589	159
203.207676	151
204.000000	1
205.204878	65
207.194202	44
208.000000	1
208.800003	1
209.399994	1
209.800003	1
210.250000	1
211.200005	1
211.600006	1
212.199997	1
212.399994	1
212.899994	1
213.280952	2
215.202308	201
217.199673	64
218.000000	1
219.225340	93
220.199997	1
221.262033	20
223.100006	1
225.050003	1
225.399994	1
225.699997	1
227.171430	1
227.899994	1
229.198473	110
230.000000	1
231.168162	26
233.172919	85
234.250000	1
235.252223	9
236.000000	1
237.600006	1
238.199997	1
238.449997	1
238.899994	1
239.319998	1
239.600006	1
240.600006	1
241.330768	3
241.800003	1
242.174999	1
243.207295	167
244.000000	1
245.218345	29
247.268990	60
249.000000	1
249.314285	1
252.199997	1
253.050003	1
253.300003	1
255.220511	4
257.255920	116
258.100006	1
259.294376	120
260.200012	1
260.600006	1
261.298314	25
262.000000	1
263.399994	1
265.000000	1
267.500000	1
268.899994	1
269.150009	1
269.500000	1
269.899994	1
270.100006	1
270.299988	1
270.500000	1
271.237377	10
271.899994	1
272.150009	1
273.287275	99
275.100006	1
275.370362	3
276.899994	1
277.899994	1
278.399994	1
278.899994	1
279.500000	1
281.399994	1
281.700012	1
282.200012	1
282.899994	1
283.100006	1
283.299988	1
283.700012	1
284.100006	1
284.299988	1
284.600006	1
285.191763	18
287.333055	51
289.325005	1
289.700012	1
290.899994	1
291.100006	1
291.299988	1
295.150009	1
295.899994	1
296.200012	1
297.000000	1
298.150009	1
299.279428	18
300.500000	1
301.390470	4
303.050003	1
303.899994	1
304.299988	1
309.100006	1
309.299988	1
309.500000	1
309.899994	1
310.200012	1
311.000000	1
311.575005	1
312.399999	1
313.373529	36
314.399994	1
314.600006	1
315.075005	1
315.650009	1
325.200012	1
325.449997	1
325.899994	1
326.100006	1
326.399994	1
326.700012	1
327.417642	4
328.349991	1
336.299988	1
337.000000	1
337.500000	1
337.700012	1
340.166677	1
340.600006	1
341.407142	3
341.899994	1
346.600006	1
351.156260	2
351.774994	1
353.600006	1
354.100006	1
354.500000	1
355.000000	1
364.899994	1
366.500000	1
367.150009	1
367.399994	1
367.799988	1
369.433397	999
370.700012	1
