Mass spectrum: Epiandrosterone; LC-APPI-QQ; MS2; CE:10 V; [M-2H2O+H]+
Name: Epiandrosterone
Name: 3-beta-Hydroxy-5alpha-androstan-17-one
Class: Natural Product; Steroid hormone
Formula: C19H30O2
Exact mass: 290.22458
SMILES: OC(C4)CC([H])(C3)C(C)(C4)C(C2)C(C3)C(C1)C(C)(C2)C(=O)C1
InChI: InChI=1S/C19H30O2/c1-18-9-7-13(20)11-12(18)3-4-14-15-5-6-17(21)19(15,2)10-8-16(14)18/h12-16,20H,3-11H2,1-2H3/t12-,13-,14?,15?,16?,18?,19?/m0/s1
Instrument: API2000
Instrument type: LC-APPI-QQ
Ms type: MS2
Ion mode: POSITIVE
Retention time: 0.820850 min
Base peak: 255.399994
Precursor m/z: 255.300000
Precursor type: [M-2H2O+H]+
m/z	relative intensity
61.200001	1
66.199997	1
66.699997	1
67.049999	1
67.900002	1
68.800003	1
69.199997	1
77.900002	1
78.800003	1
79.033333	1
79.699997	1
80.099998	1
81.091228	1
82.199997	1
82.400002	1
83.062499	1
83.300003	1
84.900002	1
85.199997	1
90.099998	1
91.107998	1
91.850002	1
92.400002	1
93.100001	1
93.599998	1
93.900002	1
95.075714	1
95.699997	1
96.574999	1
97.000000	1
97.500000	1
99.400002	1
103.099998	1
103.699997	1
105.054436	2
105.900002	1
106.099998	1
107.000001	1
107.950001	1
108.400002	1
109.052577	1
110.500000	1
110.900002	1
111.199998	1
111.850002	1
115.549999	1
117.110525	1
118.000000	1
119.248571	1
120.049999	1
120.300003	1
121.054840	1
122.199997	1
123.008065	1
123.699997	1
124.699997	1
125.400002	1
125.599998	1
126.599998	1
128.500000	1
129.022224	1
129.699997	1
130.000000	1
131.168033	1
131.699997	1
132.300003	1
133.152526	2
135.113924	1
137.100006	1
138.899994	1
140.399994	1
140.800003	1
141.899994	1
143.090001	1
144.020001	1
145.091489	4
147.170502	4
148.049999	1
149.167469	1
150.200001	1
151.190000	3
152.000000	1
152.699997	1
154.699997	1
155.199997	1
156.100006	1
156.600006	1
157.192592	1
159.118324	5
161.126887	7
161.899994	1
162.199997	1
163.172727	1
164.000000	1
168.500000	1
168.699997	1
169.199997	1
169.699997	1
171.200000	1
172.066671	1
172.300003	1
173.172637	5
175.111321	2
177.230475	1
177.899994	1
179.300003	1
181.000000	1
183.199997	1
183.500000	1
183.800003	1
184.100006	1
185.170179	3
187.144186	2
187.899994	1
189.160527	3
189.899994	1
191.199997	1
193.300003	1
194.750000	1
195.000000	1
195.250000	1
197.199997	1
197.474998	1
198.199997	1
199.193648	9
201.182100	7
204.899994	1
208.000000	1
209.000000	1
209.300003	1
210.399994	1
211.233332	1
211.800003	1
212.000000	1
213.184966	3
214.000000	1
214.199997	1
215.000000	1
219.150002	1
219.399994	1
221.199997	1
222.399994	1
222.699997	1
222.899994	1
223.300003	1
224.699997	1
225.275002	1
225.750000	1
226.399998	1
227.214287	2
236.699997	1
237.399994	1
238.100006	1
239.000000	1
239.399994	1
239.699997	1
240.145456	1
247.000000	1
247.300003	1
247.800003	1
248.000000	1
248.199997	1
248.500000	1
249.600006	1
249.899994	1
250.399994	1
250.600006	1
250.800003	1
251.100006	1
251.733337	1
252.100006	1
255.307667	999
256.899994	1
257.199997	1
273.299988	1
