Mass spectrum: Testosterone; LC-APPI-QQ; MS2; CE:30 V; [M+H]+
Name: Testosterone
Class: Natural Product; Steroid hormone
Formula: C19H28O2
Exact mass: 288.20893
SMILES: O=C(C4)C=C(C3)C(C)(C4)C(C2)C(C3)C(C1)C(C)(C2)C(O)C1
InChI: InChI=1S/C19H28O2/c1-18-9-7-13(20)11-12(18)3-4-14-15-5-6-17(21)19(15,2)10-8-16(14)18/h11,14-17,21H,3-10H2,1-2H3/t14?,15?,16?,17-,18?,19?/m0/s1
Instrument: API2000
Instrument type: LC-APPI-QQ
Ms type: MS2
Ion mode: POSITIVE
Retention time: 0.820850 min
Base peak: 109.000000
Precursor m/z: 289.300000
Precursor type: [M+H]+
m/z	relative intensity
31.799999	1
38.200001	1
38.900000	1
40.099998	1
40.299999	1
40.799999	1
41.266666	1
42.299999	1
43.275000	1
43.599998	1
45.099998	1
50.900002	1
52.299999	1
52.799999	1
53.000000	1
53.200001	1
53.599998	1
54.250000	1
54.500000	1
55.068181	1
55.599998	1
55.900002	1
56.200001	1
57.232433	1
57.950001	1
59.099998	1
59.299999	1
62.299999	1
64.737499	1
65.241667	1
66.000000	1
66.400002	1
67.123913	3
69.052809	2
70.000000	1
70.833336	1
72.880000	1
73.233332	1
74.300003	1
75.199997	1
75.500000	1
75.750000	1
76.000000	1
76.950633	1
77.699997	1
79.031265	12
81.089215	26
83.052307	46
85.129921	2
86.300003	1
86.800003	1
89.450001	1
89.800003	1
90.030000	1
91.040139	6
93.090761	25
95.076740	42
97.067633	999
99.004167	1
99.699997	1
100.500000	1
101.000000	1
101.300001	1
101.800003	1
102.199997	1
102.400002	1
102.699997	1
103.000000	1
104.998413	19
107.065848	35
109.051162	861
111.036302	4
113.146154	1
114.300003	1
114.850002	1
115.199997	1
115.599998	1
117.052476	3
117.855002	1
119.034846	17
121.059202	36
123.026034	70
124.400002	1
125.030986	1
125.800003	1
126.816669	1
127.400002	1
128.040002	1
129.055933	2
130.049999	1
131.120098	11
133.094505	16
133.904761	1
135.092384	17
137.041539	5
138.349998	1
139.073134	1
140.000000	1
140.600006	1
141.183333	1
143.076460	8
145.059443	24
147.117215	31
149.121354	16
149.800003	1
151.111049	2
152.044447	1
152.349998	1
152.900000	1
153.300003	1
154.066666	1
155.080660	3
157.132521	15
159.113482	26
161.092903	28
163.122882	22
163.899994	1
164.100006	1
164.865622	1
165.270833	1
166.000000	1
167.250000	1
169.055036	4
171.068159	22
171.899994	1
173.143699	14
175.135795	33
177.163198	18
178.000000	1
179.125639	1
180.000000	1
180.500000	1
180.912495	1
181.199997	1
181.899994	1
183.147765	9
185.159574	13
187.146016	29
188.100006	1
189.201498	24
190.300003	1
191.158757	2
192.000000	1
192.333333	1
193.115000	1
194.300003	1
194.899994	1
195.199997	1
196.150000	1
197.175736	16
199.191725	20
200.041669	1
200.399994	1
201.143615	19
202.321430	1
203.100000	3
204.199997	1
205.132591	2
206.300003	1
207.085185	1
208.000000	1
208.916662	1
209.199997	1
211.133027	14
212.277274	1
213.192807	28
215.104518	9
216.199997	1
217.164035	6
218.025643	1
219.156292	4
220.899994	1
221.399994	1
221.600006	1
222.100006	1
222.500000	1
222.800003	1
223.274998	1
223.949999	1
225.181250	6
226.300003	1
226.600006	1
227.250237	9
228.180003	1
229.199999	7
231.148530	3
232.060001	1
232.399994	1
233.126230	1
234.899999	1
235.300003	1
235.849998	1
236.150002	1
236.949997	1
237.300003	1
238.232692	1
238.699997	1
239.399994	1
239.650002	1
240.199997	1
240.399994	1
240.650002	1
241.416662	1
241.825001	1
242.320001	1
243.271924	5
245.316346	3
246.699997	1
247.224998	1
247.550003	1
247.800003	1
248.199997	1
249.199997	1
250.800003	1
251.270000	1
251.800003	1
252.000000	1
253.269105	84
254.199997	1
254.399994	1
254.775002	1
255.000000	1
255.300003	1
255.857138	1
256.183345	1
257.190365	1
258.200002	1
259.030002	1
259.799988	1
260.000000	1
260.399994	1
261.180174	2
263.299988	1
268.974998	1
269.600006	1
271.249949	81
273.299988	1
274.128579	1
275.100006	1
279.000000	1
279.200012	1
284.100006	1
284.799988	1
285.550003	1
285.799988	1
286.200002	1
287.000000	1
289.307529	383
290.500000	1
290.799988	1
