Mass spectrum: Progesterone; LC-APPI-QQ; MS2; CE:60 V; [M+H]+
Name: Progesterone
Class: Natural Product; Steroid hormone
Formula: C21H30O2
Exact mass: 314.22458
SMILES: O=C(C4)C=C(C3)C(C)(C4)C(C2)C(C3)C(C1)C(C)(C2)C(C(C)=O)C1
InChI: InChI=1S/C21H30O2/c1-13(22)17-6-7-18-16-5-4-14-12-15(23)8-10-20(14,2)19(16)9-11-21(17,18)3/h12,16-19H,4-11H2,1-3H3
Instrument: API2000
Instrument type: LC-APPI-QQ
Ms type: MS2
Ion mode: POSITIVE
Retention time: 0.820833 min
Base peak: 97.099998
Precursor m/z: 315.400000
Precursor type: [M+H]+
m/z	relative intensity
31.300000	1
37.400002	1
38.599998	1
38.799999	1
39.049999	1
39.316666	1
39.650000	1
40.000000	1
41.049515	17
43.067299	149
44.599998	1
44.799999	1
45.200001	1
45.400002	1
46.599998	1
49.900002	1
50.250000	1
50.599998	1
51.260001	1
51.700001	1
51.900002	1
53.067999	4
55.094942	57
56.599998	1
57.263636	4
57.599998	1
57.799999	1
58.099998	1
58.599998	1
59.200001	1
59.400002	1
60.900002	1
62.900002	1
63.200001	1
63.700001	1
64.000000	1
64.199997	1
65.110345	10
67.132625	98
69.102162	92
71.088976	21
72.000000	1
72.250000	1
73.099998	1
73.400002	1
73.599998	1
74.699997	1
75.199997	1
77.084335	52
79.055759	445
81.111483	364
83.108505	68
85.094873	6
86.049999	1
86.300003	1
86.800003	1
87.149998	1
88.000000	1
88.500000	1
89.699997	1
91.060606	131
93.128807	81
93.936560	8
95.085159	117
97.117201	999
99.200001	1
100.800003	1
101.099998	1
101.300003	1
101.549999	1
102.074999	1
102.400002	1
103.114999	3
105.080188	97
107.066721	51
109.086652	685
110.300003	1
110.956522	2
113.099998	1
113.300003	1
113.750000	1
114.149998	1
115.203843	2
117.102941	17
119.100000	36
121.163941	22
121.759999	1
123.093684	63
123.800003	1
124.300003	1
124.950001	1
125.400002	1
126.300003	1
128.214505	11
129.084393	14
130.232307	5
131.170849	22
132.025002	1
133.113335	10
133.800003	1
135.000001	2
135.300003	1
136.250000	1
136.899994	1
137.280002	1
138.600006	1
139.050003	1
139.500000	1
139.800003	1
141.133333	4
142.047695	5
143.098485	11
144.158329	5
145.155758	14
145.899994	1
146.199997	1
147.147728	4
148.199999	2
149.168571	3
151.199997	1
151.600006	1
152.000000	1
153.162498	1
154.100006	1
154.474998	1
155.083825	6
156.065001	3
157.135484	5
158.157142	1
159.129631	4
159.800003	1
160.174999	1
161.144450	1
161.800003	1
162.000000	1
162.300003	1
163.016668	1
165.000000	1
165.299999	2
166.100006	1
166.300003	1
166.600006	1
167.103124	3
168.311764	1
169.209999	2
170.228572	1
171.140000	4
171.800003	1
172.349998	1
172.699997	1
173.286666	2
174.259998	1
175.300003	1
175.800003	1
176.300003	1
177.099998	1
178.000000	1
178.550003	1
179.108339	1
180.177778	1
180.525002	1
181.234782	2
181.800003	1
182.100006	1
182.466665	1
182.899994	1
183.166670	1
184.199997	1
185.041669	1
186.000000	1
186.399994	1
187.000000	1
187.399994	1
187.600006	1
187.899994	1
188.150002	1
188.399994	1
189.199997	1
191.199997	1
191.500000	1
192.300003	1
192.550003	1
193.199997	1
193.699997	1
193.899994	1
194.700002	1
195.200002	1
195.899994	1
196.300003	1
197.100006	1
198.000000	1
198.199997	1
198.399994	1
198.600006	1
199.300003	1
200.266668	1
200.800003	1
201.399994	1
202.000000	1
202.199997	1
202.416662	1
203.399994	1
204.699997	1
205.000000	1
205.300003	1
205.800003	1
206.100001	1
206.849998	1
207.199997	1
207.500000	1
207.899994	1
208.100006	1
208.399999	1
208.849998	1
209.100006	1
209.750000	1
210.100006	1
210.399994	1
210.899994	1
211.199997	1
211.699997	1
211.899994	1
212.399994	1
212.899994	1
213.100006	1
213.399994	1
214.100006	1
215.000000	1
215.342856	1
215.800003	1
216.100006	1
216.399994	1
216.800003	1
217.349998	1
218.699997	1
219.000000	1
219.300003	1
220.399994	1
220.750000	1
221.100001	1
221.449997	1
223.166667	1
224.000000	1
224.199997	1
225.000000	1
225.600006	1
225.849998	1
226.100006	1
226.371427	1
227.275002	1
227.500000	1
228.200001	1
229.050001	1
229.600006	1
230.199997	1
230.600006	1
230.899994	1
231.199997	1
231.399994	1
235.150002	1
235.399994	1
236.050003	1
236.399994	1
237.200002	1
237.500000	1
237.899994	1
238.199997	1
238.600006	1
238.800003	1
239.050003	1
239.449997	1
239.899994	1
241.199997	1
241.949997	1
242.199997	1
242.399994	1
242.600006	1
243.000000	1
243.199997	1
243.399994	1
244.150002	1
249.000000	1
249.199997	1
251.000000	1
252.399994	1
253.000000	1
253.600001	1
254.399994	1
254.983332	1
255.449997	1
255.800003	1
256.200012	1
257.299988	1
258.000000	1
258.299988	1
259.399994	1
260.600006	1
262.500000	1
263.500000	1
266.799988	1
267.399994	1
269.299988	1
270.200012	1
270.899994	1
271.100006	1
271.500000	1
272.700012	1
281.100006	1
281.299988	1
282.899994	1
283.200012	1
283.399994	1
283.600006	1
284.550003	1
287.000000	1
297.399994	1
299.000000	1
300.700012	1
