Mass spectrum: Estriol; LC-APPI-QQ; MS2; CE:30 V; [M-H2O+H]+
Name: Estriol
Class: Natural Product; Steroid hormone
Formula: C18H24O3
Exact mass: 288.17254
SMILES: Oc(c4)cc(C3)c(c4)C(C2)C(C3)C(C1)C(C)(C2)C(O)C(O)1
InChI: InChI=1S/C18H24O3/c1-18-7-6-13-12-5-3-11(19)8-10(12)2-4-14(13)15(18)9-16(20)17(18)21/h3,5,8,13-17,19-21H,2,4,6-7,9H2,1H3/t13?,14?,15?,16-,17+,18?/m1/s1
Instrument: API2000
Instrument type: LC-APPI-QQ
Ms type: MS2
Ion mode: POSITIVE
Retention time: 0.820850 min
Base peak: 253.199997
Precursor m/z: 271.200000
Precursor type: [M-H2O+H]+
m/z	relative intensity
38.799999	1
40.400002	1
41.000000	1
41.200001	1
42.049999	1
42.983334	6
43.799999	1
44.850000	1
45.299999	1
52.000000	1
53.049999	1
53.799999	1
54.400002	1
55.038095	3
55.400002	1
55.599998	1
55.799999	1
56.775000	1
57.000000	1
57.299999	1
57.599998	1
58.750000	1
59.000000	1
59.400002	1
65.000000	1
65.300003	1
65.500000	1
65.850002	1
67.079867	24
68.199997	1
68.995000	6
69.800003	1
70.000000	1
70.199997	1
71.093221	38
72.900002	1
74.400002	1
75.250000	1
76.099998	1
76.400002	1
76.875002	3
77.800001	1
78.978704	35
81.085060	133
81.900002	1
82.300001	1
83.111111	6
83.900002	1
84.300003	1
85.023809	20
85.800003	1
86.699997	1
87.699997	1
89.300003	1
90.000000	1
90.350002	1
91.003333	10
93.079246	102
95.066622	118
96.000000	1
96.300003	1
97.236364	5
98.099998	1
98.400002	1
99.066667	3
100.199997	1
100.699997	1
100.900002	1
103.150000	2
103.900002	1
104.224998	1
105.014161	36
107.035070	207
109.092899	81
111.049999	12
113.000000	1
113.250000	1
114.500000	1
115.000000	1
115.699997	1
116.039999	1
116.861113	3
117.699997	1
118.199997	1
118.933333	7
121.068862	81
122.800000	2
123.233331	1
124.978572	9
126.300003	1
126.599998	1
127.116665	2
128.000000	1
128.892852	2
129.237501	3
131.119393	53
133.064061	999
134.961109	3
135.800003	1
136.199997	1
136.500000	1
136.699997	1
137.199997	1
138.300003	1
138.500000	1
139.040002	2
139.699997	1
140.000000	1
140.199997	1
141.061903	20
142.100006	1
142.399994	1
142.928567	2
145.010306	200
147.068126	40
148.100006	1
148.500000	1
149.099998	2
150.699997	1
151.066671	1
151.399994	1
151.699997	1
152.050003	1
153.165218	7
153.883329	1
154.300003	1
155.183332	10
157.072533	811
159.080301	866
161.056604	34
162.000000	1
162.600006	1
163.000000	1
163.284612	2
164.300003	1
164.500000	1
165.016325	16
165.699997	1
165.899994	1
166.125004	1
167.158332	12
168.399994	1
169.036537	17
170.238888	3
170.996015	89
173.128910	68
174.150002	1
175.111269	11
176.500000	1
177.199997	1
177.899994	1
178.199997	1
179.089166	39
180.150002	1
180.399994	1
180.800001	4
181.120004	5
183.084210	171
185.066120	88
185.800003	1
186.120001	2
186.800003	2
187.158332	4
188.699997	1
189.000000	1
189.300003	1
190.500000	1
191.100006	1
191.300003	1
192.150002	1
192.399994	1
193.154547	7
194.160004	2
195.150000	15
197.118274	536
198.149456	74
199.303846	8
199.899994	1
201.086132	104
203.044444	1
203.399994	1
204.699997	1
204.899994	1
205.500000	1
205.799998	1
206.399994	1
207.277776	3
207.800003	1
208.050003	1
209.101802	18
210.072727	9
211.062020	159
213.167588	186
213.955553	1
214.699997	1
214.955553	3
215.266665	2
215.849998	1
216.300003	1
217.000000	1
217.300003	1
219.300003	1
219.600006	1
219.899999	1
220.199997	1
220.874996	1
221.100006	1
221.900002	1
222.199997	1
222.500000	1
223.177780	3
225.100683	47
227.162278	63
228.000000	1
228.263636	2
229.000000	1
229.300003	1
233.100006	1
233.899994	1
234.500000	1
234.935710	2
235.500000	1
236.200002	1
236.750000	1
237.000000	1
237.250000	1
237.600006	1
238.100006	4
239.055556	14
239.899994	1
240.300003	1
240.816663	2
241.283335	1
241.500000	1
241.899994	1
242.500000	1
242.889995	2
243.100006	2
243.378572	5
244.300003	1
246.100006	1
249.100006	1
249.399994	1
249.600006	1
251.086665	10
251.899994	1
253.215366	964
254.399994	1
255.000000	1
255.250000	1
255.650002	1
256.283335	2
269.200012	1
269.500000	1
271.203736	267
272.500000	1
