Mass spectrum: 82FTA; LC-ESI-QQ; MS2; CE30; [M-H]-
Name: 82FTA
Name: 82Fluorotelomer Acid
Name: 3,3,4,4,5,5,6,6,7,7,8,8,9,9,10,10,10-Heptadecafluorodecanoic acid
Class: Non-Natural Product
Formula: C10H3F17O2
Exact mass: 477.98616
SMILES: OC(=O)CC(F)(F)C(F)(F)C(F)(F)C(F)(F)C(F)(F)C(F)(F)C(F)(F)C(F)(F)F
InChI: InChI=1S/C10H3F17O2/c11-3(12,1-2(28)29)4(13,14)5(15,16)6(17,18)7(19,20)8(21,22)9(23,24)10(25,26)27/h1H2,(H,28,29)
Instrument: Xevo TQ MS (Waters)
Instrument type: LC-ESI-QQ
Ms type: MS2
Ion mode: NEGATIVE
Collision energy: 30
Retention time: 0.016817
Base peak: 393.231415
Precursor m/z: 477
Precursor type: [M-H]-
m/z	relative intensity
62.296001	32
62.975071	403
68.796944	57
89.146866	91
92.834908	41
102.813828	44
118.794693	137
153.088181	39
169.054489	125
170.721848	38
181.023499	100
192.814011	179
200.927521	32
216.860046	31
223.166504	41
239.189575	38
243.073288	491
254.959961	106
324.251892	281
324.672211	48
343.135132	180
393.179291	999
429.072144	37
