Mass spectrum: Coprostanone; LC-APPI-QQ; MS2; CE:60 V; [M-H2O+H]+
Name: Coprostanone
Class: Natural Product; Sterol
Formula: C27H46O
Exact mass: 386.35487
SMILES: C(C)(C1)(C(C(C)CCCC(C)C)4)C(CC4)C(C2)C(C(C)(C3)C([H])(CC(C3)=O)C2)C1
InChI: InChI=1S/C27H46O/c1-18(2)7-6-8-19(3)23-11-12-24-22-10-9-20-17-21(28)13-15-26(20,4)25(22)14-16-27(23,24)5/h18-20,22-25H,6-17H2,1-5H3/t19?,20-,22?,23?,24?,25?,26?,27?/m1/s1
Instrument: API2000, Applied
Instrument type: LC-APPI-QQ
Ms type: MS2
Ion mode: POSITIVE
Retention time: 0.820833 min
Base peak: 93.099998
Precursor m/z: 369.431000
Precursor type: [M-H2O+H]+
m/z	relative intensity
38.500000	1
39.299999	1
39.799999	1
41.096522	38
43.054379	90
43.833333	1
44.250000	1
44.599998	1
44.799999	1
45.099998	1
50.099998	1
50.400002	1
50.900002	1
51.450001	1
51.700001	1
53.126190	5
53.599998	2
55.061353	430
57.117190	330
58.500000	1
59.299999	1
60.799999	1
62.200001	1
62.400002	1
62.799999	1
63.350000	1
63.700001	1
63.900002	1
64.400002	1
65.160242	9
67.107447	720
69.096845	601
71.127682	126
72.300001	1
74.099998	1
74.350002	1
75.099998	1
75.300003	1
77.073977	59
79.023186	447
81.096793	999
83.091405	198
84.133331	1
85.066668	11
86.500000	1
87.599998	1
88.199999	1
88.599998	1
91.034277	396
93.092479	632
95.052605	757
97.144878	45
98.300003	1
98.500000	1
99.300003	1
100.599998	1
101.400002	1
101.649998	1
103.032309	7
105.051635	560
107.052018	362
109.092616	307
110.199997	1
111.088235	4
113.800001	1
115.047888	8
116.084614	4
117.114757	56
119.079538	368
121.127204	159
122.169997	1
123.067529	38
123.800003	1
124.800001	1
125.199997	1
125.400002	1
126.400002	1
127.099998	1
128.145162	7
129.026316	6
131.122386	89
133.112391	162
135.102386	100
136.100006	1
136.399994	1
137.066668	3
140.671430	1
141.100003	1
142.000000	1
143.066050	18
145.087755	101
147.140740	141
149.147900	26
150.700002	1
151.128573	1
151.550003	1
152.600006	1
152.849998	1
153.150002	1
153.699997	1
154.000000	1
154.300003	1
154.899994	1
155.300003	1
155.862497	1
156.100006	1
157.069230	8
159.075832	62
161.098889	78
162.199997	1
163.181816	7
164.800003	1
165.199997	1
165.899994	1
166.300003	1
166.699997	1
166.949997	1
167.300003	1
168.399994	1
168.699997	1
168.974998	1
169.399999	1
169.699997	1
170.128573	1
171.193749	7
173.173984	27
175.126282	17
176.299998	1
176.800003	1
177.300003	1
178.300003	1
178.500000	1
179.000000	1
179.300003	1
180.800003	1
181.000000	1
181.199997	1
181.399994	1
182.000000	1
182.300003	1
182.800003	1
183.012501	1
183.849998	1
184.199997	1
185.121950	9
187.119136	18
188.075005	1
189.302271	5
190.199997	1
190.800003	1
191.100006	1
191.449997	1
192.000000	1
192.849998	1
193.600006	1
193.899994	1
194.399994	1
194.849998	1
195.199997	1
195.800003	1
197.000000	1
197.300003	1
198.000000	1
198.300003	1
198.500000	1
199.209089	10
201.164864	16
202.000000	1
202.399994	1
203.099999	2
203.500000	1
203.949997	1
204.600006	1
204.800003	1
205.000000	1
205.199997	1
205.500000	1
205.699997	1
206.899994	1
207.100006	1
207.300003	1
207.500000	1
207.800003	1
209.899994	1
210.899994	1
211.199997	1
211.449997	1
212.500000	1
212.874996	1
213.170000	1
213.600006	1
214.250000	1
215.134117	9
216.500000	1
216.750000	1
217.200002	1
217.699997	1
217.949997	1
218.199997	1
218.849998	1
219.199997	1
219.399994	1
219.600006	1
221.399994	1
221.600006	1
221.899994	1
222.849998	1
225.100006	1
225.399994	1
225.899994	1
226.199997	1
226.500000	1
227.166667	1
228.050003	1
228.399994	1
229.238888	2
230.100006	1
230.500000	1
230.800003	1
231.233332	1
231.600006	1
232.899994	1
233.150002	1
233.399994	1
237.050003	1
239.000000	1
239.300003	1
239.800003	1
240.000000	1
240.199997	1
240.500000	1
240.800003	1
241.336362	1
241.949997	1
242.500000	1
242.699997	1
243.150002	1
243.550003	1
244.300003	1
245.266668	1
247.000000	1
247.500000	1
250.000000	1
252.150002	1
252.399994	1
252.800003	1
253.300003	1
253.899994	1
254.300003	1
254.899999	1
255.300003	1
257.200012	1
257.500000	1
258.600006	1
259.200012	1
266.500000	1
266.949997	1
267.750000	1
268.200012	1
268.849991	1
269.150009	1
269.650009	1
271.399994	1
273.200012	1
273.399994	1
273.600006	1
274.000000	1
275.299988	1
276.000000	1
280.899994	1
282.000000	1
283.100006	1
283.500000	1
283.700012	1
283.899994	1
284.799988	1
285.150009	1
287.100006	1
287.600006	1
288.899994	1
289.600006	1
291.100006	1
296.100006	1
296.399994	1
297.200012	1
297.399994	1
297.600006	1
298.899994	1
299.250000	1
299.500000	1
306.700012	1
309.200012	1
312.799988	1
313.000000	1
313.550003	1
325.100006	1
326.500000	1
339.100006	1
339.299988	1
341.200012	1
353.200012	1
353.449997	1
367.299988	1
368.000000	1
369.399994	1
369.600006	1
