Mass spectrum: 5-beta-Androstan-17-beta-ol-3-one; LC-APPI-QQ; MS
Name: 5-beta-Androstan-17-beta-ol-3-one
Name: 5-beta-Dihydrotestosterone
Name: Etiocholane-17-beta-ol-3-one
Class: Natural Product; Steroid hormone
Formula: C19H30O2
Exact mass: 290.22458
SMILES: O=C(C4)CC([H])(C3)C(C)(C4)C(C2)C(C3)C(C1)C(C)(C2)C(O)C1
InChI: InChI=1S/C19H30O2/c1-18-9-7-13(20)11-12(18)3-4-14-15-5-6-17(21)19(15,2)10-8-16(14)18/h12,14-17,21H,3-11H2,1-2H3/t12-,14?,15?,16?,17+,18?,19?/m1/s1
Instrument: API2000
Instrument type: LC-APPI-QQ
Ms type: MS
Ion mode: POSITIVE
Retention time: 0.821083 min
Base peak: 255.100006
Ion type: [M-2H2O+H]+,[M-H2O+H]+
m/z	relative intensity
201.171892	41
202.144301	12
203.139527	28
205.126349	27
207.133904	24
209.145711	42
211.153428	43
213.138015	48
214.194483	10
215.177111	48
216.194720	9
217.150975	18
218.113820	6
219.130644	19
221.122132	33
223.139781	53
224.171696	13
225.176381	35
227.181284	41
229.186130	32
231.157837	71
233.144396	33
235.119388	29
237.145536	56
239.189521	31
241.232917	27
243.219600	35
245.179327	55
247.160262	77
249.149784	73
251.178304	57
253.227940	130
255.257412	999
259.172667	76
261.161910	94
263.162567	87
265.163591	77
267.192557	113
269.215375	217
271.233103	422
273.279886	494
277.166417	32
279.180439	58
281.200248	42
283.191723	63
285.255369	130
287.288249	303
289.288576	73
291.262932	38
293.214466	17
295.188948	16
297.216119	19
299.218024	27
301.264257	36
303.338133	86
305.382484	582
309.237450	15
311.248913	16
313.244750	13
315.255852	13
317.238066	9
319.275401	9
321.252414	10
323.243426	13
325.202335	10
327.208327	7
329.190921	6
331.208682	7
333.202724	9
335.220773	8
337.248024	9
339.222870	7
341.238477	5
343.232303	5
345.242896	6
347.245167	9
349.242199	8
351.274436	8
353.267740	7
355.260000	6
357.287695	13
359.249114	8
361.251223	10
363.246514	7
365.248118	7
367.274864	6
369.326582	5
371.337425	8
373.313277	8
375.290123	10
377.298730	10
379.312634	7
381.297322	4
383.326512	4
385.314417	4
387.337718	4
389.317159	4
391.373409	10
393.357702	5
395.335065	3
397.300757	3
399.324891	5
