Mass spectrum: 3mPFOS; LC-ESI-QQ; MS2; CE10eV
Name: 3mPFOS
Class: Non-Natural Product
Formula: C8HF17O3S
Exact mass: 499.93749
SMILES: FC(F)(F)C(F)(F)C(F)(F)C(F)(F)C(F)(C(F)(F)F)C(F)(F)C(F)(F)S(O)(=O)=O
InChI: InChI=1S/C8HF17O3S/c9-1(6(18,19)20,3(12,13)8(24,25)29(26,27)28)2(10,11)4(14,15)5(16,17)7(21,22)23/h(H,26,27,28)
Instrument: Xevo TQ, Waters
Instrument type: LC-ESI-QQ
Ms type: MS2
Ion mode: NEGATIVE
Collision energy: 10eV
Retention time: 14.759583 min
Base peak: 499.177307
Precursor m/z: 498.9
Precursor type: [M-H]-
m/z	relative intensity
79.696567	75
83.153827	24
98.848955	74
129.698929	106
169.093487	26
179.838546	63
268.724490	11
279.643289	98
319.039368	32
498.957549	999
