Mass spectrum: Androsterone; LC-APPI-QQ; MS2; CE:50 V; [M-2H2O+H]+
Name: Androsterone
Class: Natural Product; Steroid hormone
Formula: C19H30O2
Exact mass: 290.22458
SMILES: OC(C4)CC([H])(C3)C(C)(C4)C(C2)C(C3)C(C1)C(C)(C2)C(=O)C1
InChI: InChI=1S/C19H30O2/c1-18-9-7-13(20)11-12(18)3-4-14-15-5-6-17(21)19(15,2)10-8-16(14)18/h12-16,20H,3-11H2,1-2H3/t12-,13+,14?,15?,16?,18?,19?/m0/s1
Instrument: API2000
Instrument type: LC-APPI-QQ
Ms type: MS2
Ion mode: POSITIVE
Retention time: 0.820850 min
Base peak: 90.800003
Precursor m/z: 255.300000
Precursor type: [M-H2O+H]+
m/z	relative intensity
38.925000	1
39.299999	1
39.799999	1
41.108333	28
41.833333	1
42.099998	1
43.120488	18
43.900002	1
44.099998	1
49.799999	1
50.000000	1
50.200001	1
50.500000	1
51.212500	1
51.599998	1
51.900002	1
53.105785	11
53.895835	2
55.078897	207
56.025000	1
57.099998	2
58.099998	1
58.599998	1
58.799999	1
59.049999	1
59.299999	1
60.400002	1
61.599998	1
62.000000	1
62.599998	1
62.900002	1
63.299999	1
63.700001	1
64.000000	1
65.049164	27
67.109371	511
69.089087	90
70.300003	1
70.549999	1
70.900002	1
71.275002	1
71.599998	1
72.699997	1
73.099998	1
73.900002	1
74.099998	1
74.466667	1
74.699997	1
74.900002	1
75.886365	2
77.084991	279
79.060373	774
81.110907	723
83.114250	36
84.500000	1
84.900002	1
85.500000	1
86.800003	1
87.500000	1
88.000000	1
88.300003	1
89.099998	2
91.070897	999
93.097901	458
95.074577	284
96.833333	1
97.333336	1
100.900002	1
101.300003	1
103.067634	58
105.045267	886
107.056632	172
109.118041	35
111.199997	1
112.500000	1
112.699997	1
113.199997	1
113.827273	2
115.055162	85
117.091721	244
119.061755	314
121.091774	35
122.000000	1
122.199997	1
122.400002	1
123.114634	4
123.900002	1
124.950001	1
126.480000	2
128.092189	148
129.098224	231
131.141186	275
133.126226	73
133.800003	1
134.100006	1
135.064584	9
136.800003	1
137.250000	1
137.899994	1
138.300003	1
138.909090	2
139.300003	1
139.500000	1
139.699997	1
141.165131	58
143.103320	247
145.104629	319
147.151217	73
148.100006	1
149.127710	7
150.500000	1
151.000000	1
151.250000	1
152.119998	1
153.121738	8
155.105115	66
157.131721	184
159.137891	91
161.168388	43
162.020001	1
162.500000	1
162.699997	1
163.000000	1
163.600006	1
164.199997	1
164.958620	3
166.500000	1
167.092307	5
169.097457	35
171.122994	82
172.010527	3
173.202521	42
174.100006	1
174.366664	1
175.204652	4
176.800003	1
177.025002	1
177.849998	1
178.199997	1
178.399994	1
178.600006	1
178.800003	1
179.100006	1
179.300003	1
179.699997	1
180.299998	1
181.399994	1
182.221873	3
183.167940	23
184.207728	20
185.172073	63
186.157144	6
187.182457	10
188.200002	1
189.349998	1
190.349998	1
190.899994	1
191.199997	1
191.399994	1
193.199997	1
193.399994	1
193.600006	1
193.899994	1
194.600006	1
194.899994	1
195.300000	1
196.399994	1
197.218478	16
198.104760	4
199.204210	59
200.316668	3
201.034485	3
202.000000	1
202.800003	1
203.100006	1
204.100006	1
204.699997	1
205.600006	1
206.600006	1
207.000000	1
207.199997	1
207.550003	1
208.199997	1
209.199997	1
210.266668	1
211.176871	13
211.800003	1
212.350002	2
213.177776	8
214.516668	1
215.100006	1
218.699997	1
221.000000	1
221.449997	1
222.800003	1
223.162500	1
223.500000	1
224.150002	1
225.203030	12
226.114857	16
227.399994	1
228.199997	1
236.100006	1
236.600006	1
236.800003	1
237.150002	1
237.399994	1
238.399994	1
239.040001	1
239.399994	1
239.989999	1
240.406896	3
252.100001	1
252.650002	1
253.000000	1
253.300003	1
253.699997	1
254.399994	1
255.343477	10
