Mass spectrum: Dehydroepiandrosterone; LC-APPI-QQ; MS2; CE:30 V; [M-H2O+H]+
Name: Dehydroepiandrosterone
Class: Natural Product; Steroid hormone
Formula: C19H28O2
Exact mass: 288.20893
SMILES: OC(C4)CC(=C3)C(C)(C4)C(C2)C(C3)C(C1)C(C)(C2)C(=O)C1
InChI: InChI=1S/C19H28O2/c1-18-9-7-13(20)11-12(18)3-4-14-15-5-6-17(21)19(15,2)10-8-16(14)18/h3,13-16,20H,4-11H2,1-2H3/t13-,14?,15?,16?,18?,19?/m0/s1
Instrument: API2000
Instrument type: LC-APPI-QQ
Ms type: MS2
Ion mode: POSITIVE
Retention time: 0.820833 min
Base peak: 213.199997
Precursor m/z: 271.300000
Precursor type: [M-H2O+H]+
m/z	relative intensity
38.500000	1
38.900002	1
39.150000	1
41.000000	1
41.275000	1
41.799999	1
42.099998	1
43.078947	6
45.099998	1
45.299999	1
52.900002	1
53.299999	1
53.700001	1
54.099998	1
55.098742	14
55.900002	1
56.928572	2
57.350000	1
57.799999	1
58.299999	1
59.049999	1
59.450001	1
59.799999	1
62.000000	1
64.500000	1
64.699997	1
65.350002	1
65.649998	1
67.111960	51
67.900002	1
68.300003	1
69.038889	22
70.418183	1
71.046666	6
72.049999	1
72.599998	1
73.000000	1
75.099998	1
75.400002	1
75.800003	1
76.000000	1
76.530769	1
77.080645	5
77.599998	1
79.025641	47
81.083578	269
83.102309	81
85.131159	12
85.850002	1
86.800003	1
87.199997	1
88.500000	1
88.699997	1
89.250000	1
91.049105	67
93.089333	160
95.061220	171
97.070302	286
98.166664	1
99.161537	2
99.800003	1
102.149998	1
102.599998	1
102.800003	1
103.186666	1
104.999242	158
107.018881	147
109.104878	98
110.000000	1
111.085454	9
112.400002	1
112.750000	1
113.000000	1
113.199997	1
113.500000	1
114.000000	1
115.106521	4
115.954546	1
117.064731	40
119.055293	130
121.087891	126
123.067063	43
123.875002	1
124.199997	1
125.057407	9
126.300003	1
126.800002	1
127.199997	1
127.400002	1
128.248039	9
129.073083	52
131.109867	135
133.110443	183
134.300003	2
135.113783	112
136.000000	1
137.083421	48
139.145454	2
141.105556	31
143.082527	110
145.070981	278
147.116973	219
149.158592	61
150.157142	1
151.115295	15
151.899994	1
152.100006	1
152.954164	2
153.219998	1
155.064109	76
157.142946	273
159.120095	341
161.126757	189
162.100004	1
163.118750	36
164.266663	1
165.080000	2
165.500000	1
165.800003	1
167.105557	3
169.094710	65
171.081368	280
173.172662	119
175.140126	163
177.090208	17
178.399994	1
179.233335	1
180.050003	1
181.090908	6
183.142964	126
185.136935	174
186.082354	9
187.158589	56
189.164325	95
191.204445	4
192.899994	1
193.374996	1
194.260001	1
195.106560	5
197.184042	392
199.189964	49
201.122541	42
203.170823	36
204.150002	1
204.600006	1
205.309089	2
206.000000	1
206.800003	1
207.550003	1
207.800003	1
208.300003	1
209.231766	15
211.152726	215
213.204554	965
215.132768	50
216.199997	1
217.369231	1
217.899994	1
219.500000	1
220.300003	1
221.000000	1
221.500000	1
221.699997	1
221.899994	1
222.100006	1
223.176137	15
225.200947	72
226.016668	1
226.399994	1
227.216478	99
228.090476	4
229.248029	48
230.374996	1
230.699997	1
234.500000	1
235.000000	1
235.450001	1
236.000000	1
236.199997	1
238.272115	53
239.237499	1
239.899994	1
240.199997	1
241.271579	16
242.100006	1
243.327240	24
249.300003	1
249.600006	1
250.300003	1
250.500000	1
251.273771	5
253.295073	896
255.066671	1
255.300003	1
256.239507	69
266.799988	1
267.500000	1
268.100006	1
268.600006	1
269.175007	1
271.290533	999
272.700012	1
273.399994	1
278.899994	1
