Mass spectrum: Dihydrotestosterone; LC-APPI-QQ; MS2; CE:40 V; [M+H]+
Name: Dihydrotestosterone
Class: Natural Product; Steroid hormone
Formula: C19H30O2
Exact mass: 290.22458
SMILES: O=C(C4)CC([H])(C3)C(C)(C4)C(C2)C(C3)C(C1)C(C)(C2)C(O)C1
InChI: InChI=1S/C19H30O2/c1-18-9-7-13(20)11-12(18)3-4-14-15-5-6-17(21)19(15,2)10-8-16(14)18/h12,14-17,21H,3-11H2,1-2H3/t12-,14?,15?,16?,17-,18?,19?/m0/s1
Instrument: API2000
Instrument type: LC-APPI-QQ
Ms type: MS2
Ion mode: POSITIVE
Retention time: 0.820850 min
Base peak: 273.299988
Precursor m/z: 291.300000
Precursor type: [M+H]+
m/z	relative intensity
42.099998	15
42.400002	15
43.175000	119
43.500000	15
45.599998	15
54.400002	15
55.066666	179
57.050001	60
58.099998	30
64.800003	15
65.300003	60
66.400002	30
67.250000	239
67.699997	15
68.500000	15
69.099998	89
69.599998	15
69.900002	15
70.099998	15
70.938462	194
72.300003	15
73.099998	30
76.400002	15
76.800003	45
77.000000	45
77.300003	45
77.699997	15
78.099998	30
79.006249	239
79.599998	45
80.099998	15
81.183672	731
82.300003	15
82.944445	134
84.250000	30
84.825003	60
85.099998	75
85.350002	30
86.000000	15
89.500000	15
89.699997	30
90.000000	15
90.961539	194
91.199997	209
92.179999	149
92.836366	328
93.228571	835
93.800003	15
94.300003	60
95.071641	999
96.250000	60
97.174999	119
97.500000	60
98.350002	30
98.800003	45
99.350002	149
100.300003	30
100.850002	30
101.199997	30
102.900002	15
104.199997	45
105.091665	716
106.099998	45
106.400002	75
107.049999	417
108.199997	30
109.189189	552
110.300003	60
110.500000	15
110.850002	89
111.099998	75
111.699997	15
114.800003	15
115.199997	15
115.599998	15
116.400002	15
116.599998	15
116.983334	89
117.800003	15
118.099998	15
118.400002	60
119.018182	328
119.950001	30
120.400002	15
121.166664	268
121.699997	15
122.500000	45
122.957144	209
123.300003	15
124.000000	15
124.400002	15
124.950001	30
126.900002	15
127.599998	15
128.000000	15
128.399999	45
129.000000	119
129.500000	15
129.800003	15
130.000000	15
130.199997	75
130.399994	15
130.899994	179
132.000000	15
132.600006	60
133.122220	537
133.800003	15
134.050003	30
134.349998	30
135.162498	239
135.800003	15
136.800003	30
137.000000	15
137.250000	30
139.699997	15
140.699997	15
140.899994	15
141.100006	45
142.399997	75
142.936361	164
143.399994	45
143.800003	15
144.892852	209
145.204543	328
146.000000	30
146.300003	30
146.600006	15
146.949997	239
147.316664	358
148.100006	30
148.699997	45
149.000000	45
150.300003	15
150.899994	45
151.100006	30
152.899994	30
153.100006	30
153.300003	30
153.899994	15
154.300003	15
154.949997	30
155.250000	30
155.500000	30
155.800003	15
156.300003	30
156.750000	60
157.100006	45
157.399994	45
157.899994	30
158.366664	89
159.166667	716
159.899994	30
161.165625	477
162.600006	15
163.100006	30
163.449997	30
164.000000	45
164.300003	15
164.849998	60
165.500000	15
166.199997	15
167.199997	15
168.300003	15
168.650002	30
169.000000	15
169.399994	30
169.600006	15
170.000000	15
170.500000	15
170.699997	60
171.000000	89
171.800003	15
172.600006	75
173.081818	492
174.300003	45
174.600006	30
175.100003	149
175.800003	15
176.133336	89
176.949997	30
177.199997	15
177.449997	30
177.899994	30
178.500000	60
178.800003	30
179.325001	60
179.699997	15
180.199997	15
180.399994	45
180.899994	15
181.399994	15
183.150002	30
183.399994	45
183.899994	15
184.100006	30
185.237499	119
186.100006	30
187.000000	104
187.800003	45
188.050003	30
188.300003	15
188.600006	15
189.241666	358
189.766668	89
190.100006	60
190.300003	45
191.185717	209
192.000000	60
192.449997	30
193.050003	30
193.349998	30
194.300003	15
194.500000	15
194.800003	15
195.000000	15
195.300003	15
195.500000	15
196.500000	15
196.699997	15
197.000000	30
197.250000	30
198.150002	30
199.300003	164
200.000000	15
200.199997	15
200.449997	30
200.699997	15
201.199997	134
201.600006	60
202.172729	328
202.933329	179
203.244444	268
204.000000	45
204.300003	60
205.000000	60
205.428569	104
205.899994	30
206.100006	15
206.349998	30
206.600006	15
206.966665	89
207.199997	30
207.399994	45
207.800003	15
208.100006	15
208.899994	15
210.899994	30
211.100006	15
211.300003	15
211.500000	15
212.199997	15
213.271430	209
213.500000	45
214.100006	15
214.449997	30
215.241666	358
215.500000	194
215.800003	30
216.000000	104
216.600006	45
217.263636	164
217.699997	30
217.899994	15
218.250000	60
219.159999	298
219.600006	15
220.299995	179
221.000000	30
221.250000	89
221.500000	15
222.000000	30
222.800003	15
223.100006	30
224.100006	15
225.750000	30
226.150002	30
226.399994	15
227.000000	30
227.500000	15
229.374996	60
229.600006	45
229.933329	89
230.399994	45
231.189998	149
231.449997	149
232.139999	149
232.941663	179
233.199997	104
233.600006	45
234.166667	89
235.144446	268
238.899994	15
239.600006	30
239.899994	15
240.449997	30
240.899994	30
241.150002	30
241.500000	15
242.000000	15
243.000000	30
243.199997	45
243.800003	15
244.000000	30
244.300003	30
245.275002	119
245.600006	75
246.299995	60
247.224998	119
248.129628	403
248.800003	45
249.000000	60
249.399994	30
254.500000	15
254.699997	15
255.275002	179
257.500000	15
257.899994	15
258.200012	30
258.449997	30
259.263641	164
259.600006	30
259.899994	30
260.100006	15
260.500000	45
261.200012	89
261.700012	30
261.899994	45
262.399994	30
262.985713	209
263.299988	75
272.200012	15
272.899994	30
273.274994	119
273.699997	60
274.799988	30
275.200012	60
275.600006	60
276.171996	373
276.799988	30
289.349991	30
290.000000	15
290.449997	30
291.299992	209
291.849991	30
