Mass spectrum: Coprostanol; LC-APPI-QQ; MS2; CE:40 V; [M-H2O+H]+
Name: Coprostanol
Class: Natural Product; Sterol
Formula: C27H48O
Exact mass: 388.37052
SMILES: C(C)(C1)(C(C(C)CCCC(C)C)4)C(CC4)C(C2)C(C(C)(C3)C([H])(CC(C3)O)C2)C1
InChI: InChI=1S/C27H48O/c1-18(2)7-6-8-19(3)23-11-12-24-22-10-9-20-17-21(28)13-15-26(20,4)25(22)14-16-27(23,24)5/h18-25,28H,6-17H2,1-5H3/t19?,20-,21+,22?,23?,24?,25?,26?,27?/m1/s1
Instrument: API2000, Applied
Instrument type: LC-APPI-QQ
Ms type: MS2
Ion mode: POSITIVE
Retention time: 0.820850 min
Base peak: 81.199997
Precursor m/z: 371.466000
Precursor type: [M-H2O+H]+
m/z	relative intensity
38.799999	1
39.200001	1
39.799999	1
40.200001	1
41.025000	2
42.299999	1
42.929411	6
50.900002	1
53.000000	1
53.500000	1
55.049621	50
56.072726	2
57.077555	95
58.200001	1
58.700001	1
59.200001	1
61.700001	1
63.599998	1
65.255555	2
67.107392	180
69.069668	281
71.092841	85
71.800003	1
72.099998	1
72.500000	1
72.850002	1
73.149998	1
73.599998	1
73.800003	1
75.099998	1
76.433334	1
77.115383	2
77.800003	1
79.015160	65
81.075297	640
83.077047	237
84.000000	1
85.120859	31
86.199997	1
88.699997	1
88.900002	1
89.199997	1
89.549999	1
89.900002	1
91.063935	23
93.048394	183
95.038380	999
97.067115	127
98.800003	1
99.099998	1
101.149998	1
101.400002	1
101.599998	1
102.900002	1
103.199999	1
103.500000	1
103.699997	1
104.099998	1
105.116866	16
107.028956	240
109.065269	616
111.043457	41
111.800003	1
112.400002	1
112.599998	1
112.933334	2
113.400002	1
115.400002	1
116.599998	1
116.900002	1
117.300003	1
117.699997	1
118.124998	2
119.059090	25
121.080410	250
123.058895	186
124.475000	1
125.140000	6
126.300003	1
126.900002	1
127.199997	1
127.400002	1
128.600006	1
128.800003	1
129.300003	1
130.199997	1
130.399994	1
130.833328	1
131.928569	1
133.130392	39
135.079178	287
136.178570	3
136.399994	2
137.085835	67
138.500000	1
138.899994	1
139.300003	1
142.100006	1
142.800003	1
143.300003	1
144.000000	1
144.500000	1
144.966666	5
147.110551	79
149.101844	227
149.800003	1
151.124580	34
153.199997	1
153.699997	1
156.100006	1
158.100006	1
159.100006	2
159.500000	1
159.874996	2
160.158334	2
161.048102	30
163.137542	111
164.000000	1
164.199997	1
165.074471	9
166.899994	1
169.000000	1
170.800003	1
171.000000	1
171.199997	1
172.500000	1
172.699997	1
172.981817	2
174.133334	2
175.075000	24
176.000000	1
177.167936	35
178.299998	1
179.190627	12
184.100006	1
185.150002	1
186.699997	1
187.171430	3
187.899994	1
188.177778	2
189.173077	89
191.136365	13
191.949997	1
192.199997	1
193.183505	18
197.000000	1
199.150002	1
199.449997	1
200.199997	1
200.699997	1
201.228572	1
201.600006	1
202.139999	1
202.399994	1
203.094854	26
203.825001	1
204.133336	1
204.399994	1
205.149425	17
207.088888	10
208.199997	1
213.199997	1
214.100006	1
215.053846	2
216.168966	11
217.149152	22
218.000000	1
218.299998	1
219.163158	7
220.150002	1
220.937496	2
221.199997	1
221.525002	2
226.000000	1
228.899994	1
229.199997	1
229.699997	1
230.000000	1
230.449997	1
230.899994	1
231.100006	2
231.899994	1
232.199997	1
232.550003	1
233.191838	9
234.199997	1
234.899994	1
235.100006	1
239.399994	1
240.100006	1
241.250000	1
242.899994	1
244.100006	1
244.399994	1
244.899994	1
245.322220	3
246.100006	1
246.399994	1
247.258335	5
247.507143	3
248.300003	1
249.000000	1
249.299998	1
249.699997	1
250.899994	1
251.300003	1
252.899994	1
257.600006	1
258.200012	1
258.500000	1
259.299988	2
259.600006	1
260.200012	1
261.000000	3
262.899994	1
263.200012	1
263.700012	1
264.100006	1
264.600006	1
265.100006	1
266.799988	1
267.200012	1
268.000000	1
270.100006	1
271.000000	1
271.299988	1
272.000000	1
272.299988	1
272.799988	1
273.183345	1
275.354991	4
277.000000	1
277.299988	1
277.600006	1
279.349991	1
280.500000	1
282.299988	1
283.000000	1
283.200012	1
283.399994	1
285.000000	1
285.500000	1
286.000000	1
286.600006	1
286.949997	1
287.366659	1
287.849998	1
289.527274	4
292.899994	1
293.100006	1
297.100006	1
299.100006	1
299.550003	1
300.000000	1
300.600006	1
300.799988	1
301.050003	1
301.299988	1
302.200012	1
302.500000	1
302.899994	1
303.299988	1
303.650009	1
313.000000	1
314.500000	1
315.411106	2
316.100006	1
316.500000	1
327.200012	1
327.600006	1
327.899994	1
328.100006	1
328.399994	1
328.899994	1
329.299988	1
329.600006	1
330.100006	1
336.899994	1
340.100006	1
341.700012	1
341.899994	1
342.100006	1
342.399994	1
343.250000	1
343.600006	1
353.000000	1
353.399994	1
353.799988	1
355.700012	1
355.949997	1
356.200012	1
356.399994	1
356.700012	1
371.431820	25
372.299988	1
