Mass spectrum: Genistein; LC-APPI-QQ; MS2; CE:60 V; [M+H]+
Name: Genistein
Class: Natural Product; Isoflavone
Formula: C15H10O5
Exact mass: 270.05282
SMILES: Oc(c3)ccc(c3)C(=C1)C(=O)c(c(O)2)c(cc(O)c2)O1
InChI: InChI=1S/C15H10O5/c16-9-3-1-8(2-4-9)11-7-20-13-6-10(17)5-12(18)14(13)15(11)19/h1-7,16-18H
Instrument: API2000
Instrument type: LC-APPI-QQ
Ms type: MS2
Ion mode: POSITIVE
Retention time: 0.820850 min
Base peak: 91.000000
Precursor m/z: 271.200000
Precursor type: [M+H]+
m/z	relative intensity
36.400002	1
37.250000	1
37.825000	1
39.059868	4
41.091268	12
43.069349	13
44.099998	1
44.400002	1
44.900002	1
45.099998	1
48.299999	1
49.099998	1
49.400002	1
49.799999	1
50.099998	1
51.137963	3
53.119259	10
55.066400	23
56.325000	1
56.599998	1
56.900002	1
57.271428	1
58.450001	1
58.900002	1
59.299999	1
59.500000	1
59.700001	1
60.500000	1
63.104786	16
65.093141	441
67.090017	103
69.059913	297
71.080986	4
71.900002	1
72.300003	1
72.500000	1
72.699997	1
72.900002	1
73.250000	1
73.862502	1
74.996597	7
77.075363	64
79.050668	39
81.073778	33
83.039303	16
85.023244	5
85.900002	1
87.099998	1
89.112513	61
91.068282	999
93.068106	30
95.031818	22
97.079712	28
98.099998	1
98.400002	1
98.724998	1
99.337502	1
101.068286	9
103.081352	44
105.016916	26
107.038720	78
109.050000	7
111.027920	9
115.078045	296
116.128161	16
117.114504	21
119.059420	48
121.045290	59
123.084242	2
124.088236	4
125.063498	7
127.066090	57
128.089379	35
129.107457	13
131.121892	47
132.149068	2
133.129580	2
135.064093	16
137.058593	7
139.069057	23
141.132479	129
144.086720	29
145.065088	28
147.082718	14
149.063964	17
150.105500	21
151.117658	27
153.041459	192
155.055828	36
157.125610	8
159.072567	12
161.107317	1
161.825001	1
163.061464	11
164.199997	1
165.059616	5
168.082711	40
169.080082	54
171.037609	9
172.067151	4
173.113669	4
174.090001	1
175.070002	1
175.899994	1
176.100006	1
176.300003	1
176.812502	1
178.094118	1
179.118087	7
181.120000	5
183.115433	4
184.090477	3
185.099999	6
187.102219	7
188.087500	1
189.157896	1
189.600006	1
190.040002	1
191.110294	4
191.900000	1
192.650002	1
193.050003	1
193.300003	1
193.500000	1
195.204040	1
197.140832	41
198.050932	2
200.095590	15
201.899994	1
203.112501	2
204.199997	1
205.030771	1
205.600006	1
205.899994	1
207.199997	1
208.199997	1
209.114288	1
209.874996	1
210.133336	1
210.399994	1
211.111817	1
211.899994	1
213.086692	14
215.126297	11
215.936667	1
216.313638	1
217.000000	1
217.500000	1
219.199997	1
219.399994	1
222.300003	1
222.849998	1
223.379996	1
224.128845	1
225.100953	3
226.165875	2
227.171999	1
228.122989	2
229.099997	1
230.100006	1
230.300003	1
233.600006	1
233.800003	1
234.000000	1
235.023077	1
236.300003	1
236.899994	1
237.600006	1
238.750000	1
239.500000	1
239.800003	1
240.050003	1
240.399994	1
241.170720	3
242.205334	3
243.144444	3
244.300003	1
245.399994	1
249.750000	1
250.899994	1
251.399994	1
252.114285	1
253.127248	5
254.300003	1
254.750000	1
255.300003	1
255.699997	1
256.000000	1
256.500000	1
256.700012	1
268.299988	1
269.125000	1
270.000000	1
271.146550	1
272.000000	1
284.000000	1
285.500000	1
298.200012	1
