Mass spectrum: beta-Estradiol; LC-APPI-QQ; MS2; CE:20 V; [M-H2O+H]+
Name: beta-Estradiol
Class: Natural Product; Steroid hormone
Formula: C18H24O2
Exact mass: 272.17763
SMILES: Oc(c4)cc(C3)c(c4)C(C2)C(C3)C(C1)C(C)(C2)C(O)C1
InChI: InChI=1S/C18H24O2/c1-18-9-8-14-13-5-3-12(19)10-11(13)2-4-15(14)16(18)6-7-17(18)20/h3,5,10,14-17,19-20H,2,4,6-9H2,1H3/t14?,15?,16?,17-,18?/m0/s1
Instrument: API2000
Instrument type: LC-APPI-QQ
Ms type: MS2
Ion mode: POSITIVE
Retention time: 0.820850 min
Base peak: 255.300003
Precursor m/z: 255.000000
Precursor type: [M-H2O+H]+
m/z	relative intensity
40.599998	1
41.200001	1
42.799999	1
43.099998	1
53.200001	1
54.299999	1
55.085714	1
56.800001	1
57.250000	1
58.000000	1
64.950001	1
65.250000	1
65.699997	1
66.124998	1
67.091062	4
69.081901	5
69.900002	1
70.199997	1
70.850002	1
71.199999	1
71.500000	1
74.900002	1
76.800003	1
77.000000	1
77.500000	1
78.350002	1
79.049999	1
79.699997	1
81.068027	6
81.900002	1
82.300003	1
82.900002	1
83.200000	1
83.599998	1
84.850002	1
85.099998	1
87.300003	1
88.699997	1
90.199997	1
90.400002	1
90.815384	1
91.266667	1
91.850000	1
92.375002	1
93.281818	1
95.049658	50
96.000000	1
96.400002	1
97.102439	1
98.800003	1
99.199997	1
101.000000	1
103.000000	1
103.450001	1
104.300003	1
104.900002	1
106.030000	1
107.027778	8
109.108150	72
111.102292	7
111.800003	1
112.699997	1
114.700001	1
115.000000	1
115.599998	1
115.900002	1
116.300001	1
116.800003	1
117.300001	1
117.800003	1
118.000000	1
119.033333	1
119.549999	1
121.077778	4
121.699997	1
121.900002	1
123.043910	7
124.900002	1
127.174997	1
127.450001	1
128.000000	1
128.300003	1
128.960001	1
129.383329	1
130.066671	1
130.300003	1
133.092442	321
135.111540	13
137.399994	1
138.899994	1
139.300003	1
139.500000	1
139.899994	1
140.199997	1
141.052477	2
141.899994	1
142.100006	1
142.650002	1
145.067840	53
147.113662	23
148.000000	1
148.300003	1
149.145714	1
149.800003	1
151.449997	1
152.300003	1
152.899994	1
153.349998	1
153.699997	1
154.199997	1
154.800003	1
155.300003	1
159.099803	999
161.068254	7
161.899994	1
163.000000	1
163.399999	1
164.600006	1
164.800003	1
165.000000	1
165.199997	1
165.399994	1
166.100006	1
166.699997	1
166.899994	1
167.200005	1
167.600006	1
167.899999	1
168.374996	1
168.600006	1
169.100000	1
170.000000	1
170.399994	1
171.018366	1
173.127887	35
174.550003	1
174.800003	1
175.219998	1
176.800003	1
177.000000	1
177.250000	1
178.500000	1
179.299998	1
180.300003	1
181.100006	1
181.699997	1
182.150002	1
182.500000	1
183.050003	1
183.300003	1
183.900002	1
185.123760	6
185.899994	1
186.800003	1
187.000000	1
188.899994	1
191.000000	1
192.100006	1
192.500000	1
193.000000	1
193.300003	1
193.500000	1
193.899994	1
194.199997	1
194.600006	1
195.071740	1
195.500000	1
195.899994	1
196.300003	1
196.600006	1
197.062504	1
197.337500	1
197.974998	1
199.172118	16
200.450005	1
201.399994	1
204.800003	1
205.100006	1
206.899994	1
207.100006	1
207.300003	1
207.600006	1
208.199997	1
209.450001	1
210.100006	1
210.500000	1
211.100006	1
213.155883	4
213.899994	1
214.100006	1
217.699997	1
219.199997	1
219.500000	1
221.300003	1
221.800003	1
222.100006	1
223.208065	3
224.300003	1
224.500000	1
224.999995	1
225.650002	1
226.042858	1
226.412495	1
226.800003	1
227.213636	2
236.940000	1
237.300003	1
237.500000	1
237.800003	1
238.100006	1
238.699997	1
239.100006	1
240.000000	1
240.374996	1
240.600006	1
241.100006	1
241.600006	1
250.000000	1
250.399994	1
250.699997	1
251.300003	1
251.699997	1
252.300003	1
252.939999	1
255.273998	882
257.000000	1
258.550003	1
273.600006	1
278.299988	1
