Mass spectrum: 5-beta-Androstan-17-beta-ol-3-one; LC-APPI-QQ; MS2; CE:50 V; [M-H2O+H]+
Name: 5-beta-Androstan-17-beta-ol-3-one
Name: 5-beta-Dihydrotestosterone
Name: Etiocholane-17-beta-ol-3-one
Class: Natural Product; Steroid hormone
Formula: C19H30O2
Exact mass: 290.22458
SMILES: O=C(C4)CC([H])(C3)C(C)(C4)C(C2)C(C3)C(C1)C(C)(C2)C(O)C1
InChI: InChI=1S/C19H30O2/c1-18-9-7-13(20)11-12(18)3-4-14-15-5-6-17(21)19(15,2)10-8-16(14)18/h12,14-17,21H,3-11H2,1-2H3/t12-,14?,15?,16?,17+,18?,19?/m1/s1
Instrument: API2000
Instrument type: LC-APPI-QQ
Ms type: MS2
Ion mode: POSITIVE
Retention time: 0.820850 min
Base peak: 91.199997
Precursor m/z: 273.100000
Precursor type: [M-H2O+H]+
m/z	relative intensity
38.700001	1
38.900002	1
39.400002	1
40.299999	1
41.224999	9
42.200001	2
42.420001	4
43.051111	35
43.700001	1
43.900002	1
44.200001	1
45.099998	1
51.250000	2
52.400002	1
52.940001	6
53.333333	5
55.081538	202
56.060000	2
57.123333	47
57.700001	1
58.000000	1
58.799999	1
59.599998	1
63.799999	1
64.149998	1
64.902631	15
67.132147	645
69.121165	127
70.000000	1
70.400002	1
70.988235	7
71.300003	4
73.300003	1
74.800003	1
75.199997	1
77.067331	195
79.051184	773
81.121947	816
82.350002	6
83.139506	63
84.199997	1
84.500000	2
85.162498	3
87.000000	1
88.099998	1
88.600000	2
89.400002	3
89.699997	7
91.066786	870
93.106498	923
95.069070	632
97.130527	74
98.000000	1
98.350002	2
99.049999	2
99.400002	1
100.000000	1
102.240001	2
103.054412	26
105.077943	999
107.080135	345
107.900002	5
109.100000	189
110.099998	2
110.539999	2
111.191665	9
112.400002	1
112.800003	1
113.800003	1
114.099998	1
115.080702	44
117.096621	230
119.110799	361
121.071680	88
123.033333	49
123.699997	1
124.000000	1
124.199997	1
124.549999	1
125.199997	1
127.225000	12
129.124584	117
130.218605	100
131.133570	274
133.143148	153
134.000000	1
134.426667	6
135.143219	92
136.300003	1
137.114284	5
139.100000	2
139.699997	1
140.300003	1
140.831575	7
141.233332	12
142.150001	38
143.103922	119
145.103800	225
147.154746	107
148.050003	2
148.333333	2
149.189998	8
149.899994	1
150.500000	1
151.040002	2
151.300003	2
152.166667	2
153.199997	2
154.050003	2
154.918182	17
155.800003	5
157.148705	75
159.167130	168
161.174674	60
162.100006	1
163.077777	7
164.199997	1
164.799995	2
165.100006	1
165.300003	1
166.325001	2
166.800003	1
167.300003	1
167.500000	1
167.799995	2
169.047369	22
171.083702	53
172.100006	3
173.192856	44
173.800003	1
174.000000	1
174.399999	1
175.030002	4
175.800003	1
176.300003	1
177.035715	5
177.600006	1
178.349998	2
178.699997	1
179.299995	2
180.000000	1
180.899999	1
181.199997	1
181.500000	1
181.699997	1
182.100006	1
182.300003	2
182.938885	7
183.291664	9
184.100006	4
184.375998	10
185.274000	58
186.300003	4
186.800003	2
187.113793	11
187.399994	5
187.899994	1
188.200003	5
189.058696	36
190.000000	2
190.325001	2
191.000000	2
191.399994	1
192.300003	1
192.500000	1
193.100006	1
195.199997	1
195.699997	1
195.899994	1
196.100006	1
196.500000	1
197.100002	4
197.466665	5
197.900002	3
198.344442	7
199.218097	41
200.123999	10
200.800003	4
202.120370	84
203.100006	1
203.500000	1
205.300003	1
206.199997	1
208.349998	1
210.000000	1
210.199997	1
210.449997	1
210.699997	1
211.211765	7
211.699997	1
212.000000	2
213.099998	12
214.283335	2
214.500000	2
215.087891	100
216.084614	10
216.437496	3
217.171873	12
221.600006	1
222.899994	1
223.399994	1
223.899994	1
224.449997	1
224.775002	2
225.156523	9
226.090000	31
227.218180	9
227.943747	6
228.400001	4
228.972726	9
229.261539	10
230.056249	12
231.349998	2
237.000000	1
238.600006	1
238.946152	5
239.699997	1
239.983332	2
240.300003	1
240.500000	2
241.000000	1
241.250000	2
241.500000	1
242.087505	3
242.500000	2
242.899994	2
243.100006	1
244.214290	5
244.800003	3
245.100002	11
245.399994	5
249.100006	4
251.300003	1
253.250000	1
254.300003	1
255.357501	16
257.066671	2
257.374992	3
258.309995	8
270.000000	1
270.600006	1
271.133331	2
272.000000	2
272.299988	1
272.899994	1
273.133341	2
355.100006	1
