Mass spectrum: 44m2PFOS; LC-ESI-QQ; MS2; CE30eV
Name: 44m2PFOS
Class: Non-Natural Product
Formula: C8HF17O3S
Exact mass: 499.93749
SMILES: FC(F)(F)C(F)(F)C(C(F)(F)F)(C(F)(F)F)C(F)(F)C(F)(F)C(F)(F)S(O)(=O)=O
InChI: InChI=1S/C8HF17O3S/c9-2(10,4(13,14)8(24,25)29(26,27)28)1(5(15,16)17,6(18,19)20)3(11,12)7(21,22)23/h(H,26,27,28)
Instrument: Xevo TQ, Waters
Instrument type: LC-ESI-QQ
Ms type: MS2
Ion mode: NEGATIVE
Collision energy: 30eV
Retention time: 12.507433 min
Base peak: 268.795166
Precursor m/z: 498.9
Precursor type: [M-H]-
m/z	relative intensity
68.808000	234
80.050429	340
129.798504	151
180.124819	335
229.935047	369
268.808980	999
279.878837	115
430.654565	126
431.355136	105
498.659003	501
