Mass spectrum: 44m2PFOA; LC-ESI-QQ; MS2; CE20eV
Name: 44m2PFOA
Class: Non-Natural Product
Formula: C8HF15O2
Exact mass: 413.97370
SMILES: OC(=O)C(F)(F)C(F)(F)C(C(F)(F)F)(C(F)(F)F)C(F)(F)C(F)(F)F
InChI: InChI=1S/C8HF15O2/c9-2(10,1(24)25)4(11,12)3(6(15,16)17,7(18,19)20)5(13,14)8(21,22)23/h(H,24,25)
Instrument: Xevo TQ, Waters
Instrument type: LC-ESI-QQ
Ms type: MS2
Ion mode: NEGATIVE
Collision energy: 20eV
Retention time: 13.050384 min
Base peak: 381.073700
Precursor m/z: 413
Precursor type: [M-H]-
m/z	relative intensity
118.878489	999
268.903876	556
337.111109	474
368.986931	79
381.073521	714
394.469679	93
