Mass spectrum: Genistein; LC-APPI-QQ; MS2; CE:20 V; [M+H]+
Name: Genistein
Class: Natural Product; Isoflavone
Formula: C15H10O5
Exact mass: 270.05282
SMILES: Oc(c3)ccc(c3)C(=C1)C(=O)c(c(O)2)c(cc(O)c2)O1
InChI: InChI=1S/C15H10O5/c16-9-3-1-8(2-4-9)11-7-20-13-6-10(17)5-12(18)14(13)15(11)19/h1-7,16-18H
Instrument: API2000
Instrument type: LC-APPI-QQ
Ms type: MS2
Ion mode: POSITIVE
Retention time: 0.820867 min
Base peak: 271.200012
Precursor m/z: 271.200000
Precursor type: [M+H]+
m/z	relative intensity
43.200001	1
45.299999	1
53.000000	1
55.299999	1
57.299999	1
64.699997	1
65.099998	1
65.400002	1
67.099998	1
67.400002	1
67.900002	1
68.099998	1
68.300003	1
68.599998	1
69.199999	1
71.199997	1
71.400002	1
75.400002	1
76.099998	1
76.400002	1
76.800003	1
78.950001	1
81.199997	1
82.850002	1
86.900002	1
88.800003	1
89.099998	1
89.750000	1
90.000000	1
90.375002	1
90.893752	1
91.127776	1
91.400002	1
91.950001	1
92.800003	1
93.199997	1
94.099998	1
94.800003	1
95.149998	1
96.900002	1
97.300003	1
97.500000	1
97.900002	1
102.500000	1
102.800003	1
104.599998	1
104.900002	1
105.400002	1
106.500000	1
106.900002	1
107.199997	1
107.400002	1
108.099998	1
108.900002	1
109.099998	1
109.500000	1
110.599998	1
111.133331	1
111.500000	1
113.099998	1
114.500000	1
115.000000	1
115.300003	1
115.500000	1
115.950001	1
117.300003	1
117.900002	1
118.149998	1
118.699997	1
119.199997	1
119.900002	1
120.699997	1
121.000000	1
121.900002	1
122.599998	1
123.199997	1
123.500000	1
123.950001	1
125.099998	1
126.800003	1
127.400002	1
127.950001	1
128.899994	1
130.699997	1
130.966665	1
131.800003	1
132.399994	1
132.849998	1
133.200003	1
133.899994	1
134.699997	1
134.899994	1
135.300003	1
135.600006	1
136.766668	1
137.100006	1
138.800003	1
140.500000	1
141.144446	1
142.600006	1
143.399994	1
143.849998	1
144.981817	2
146.300003	1
147.266668	1
147.600006	1
147.800003	1
148.100006	1
149.024617	3
150.399994	1
150.699997	1
151.100006	1
151.300003	1
151.500000	1
151.800003	1
152.999442	7
154.650002	1
155.300003	1
156.399994	1
157.000000	1
157.300003	1
158.000000	1
158.199997	1
159.079310	1
159.800003	1
160.199997	1
160.600006	1
160.825001	1
161.250000	1
162.500000	1
163.349998	1
163.600006	1
164.919997	1
165.265386	1
166.899994	1
167.399994	1
167.699997	1
168.000000	1
168.300003	1
169.094595	1
170.650002	1
171.299998	1
173.100006	1
173.899994	1
174.800003	1
175.215386	1
176.650002	1
177.199997	1
177.399994	1
177.800003	1
178.300003	1
179.199997	1
179.500000	1
180.349998	1
181.399994	1
181.699997	1
182.800003	1
183.000000	1
183.275002	1
184.100006	1
184.300003	1
184.979997	1
185.449997	1
185.699997	1
187.198077	1
187.699997	1
188.300003	1
189.100006	1
189.399999	1
190.699997	1
190.899994	1
191.100006	1
191.399994	1
193.075005	1
193.300003	1
195.100006	1
195.399994	1
197.093901	2
197.899994	1
198.500000	1
199.449997	1
200.140002	1
200.399994	1
200.985713	1
202.250000	1
203.142857	1
204.300003	1
207.000000	1
208.399994	1
209.199997	1
210.000000	1
210.300003	1
210.962502	1
211.300003	1
211.500000	1
211.800003	1
212.300003	1
212.899994	1
213.249997	1
213.600006	1
215.085394	18
217.100006	1
220.800003	1
221.000000	1
221.250000	1
221.600006	1
223.699997	1
223.899994	1
224.150002	1
224.399994	1
225.082357	1
225.800003	1
226.150002	1
226.424995	1
227.040002	1
227.466665	1
227.899994	1
228.199997	1
228.399994	1
228.938458	1
229.331250	1
230.800003	1
231.100006	1
234.800003	1
235.199997	1
237.199997	1
238.349998	1
238.954997	1
239.325001	1
240.199997	1
241.174999	1
241.600006	1
243.130864	15
244.000000	1
244.399994	1
246.899994	1
251.899994	1
252.100006	1
253.068441	6
254.250000	1
255.849998	1
256.100006	1
256.700012	1
262.600006	1
264.500000	1
266.000000	1
266.774994	1
267.399994	1
267.700012	1
268.100006	1
268.366659	1
271.105335	999
273.000000	1
273.250000	1
