Mass spectrum: Androsterone; LC-APPI-QQ; MS2; CE:20 V; [M-2H2O+H]+
Name: Androsterone
Class: Natural Product; Steroid hormone
Formula: C19H30O2
Exact mass: 290.22458
SMILES: OC(C4)CC([H])(C3)C(C)(C4)C(C2)C(C3)C(C1)C(C)(C2)C(=O)C1
InChI: InChI=1S/C19H30O2/c1-18-9-7-13(20)11-12(18)3-4-14-15-5-6-17(21)19(15,2)10-8-16(14)18/h12-16,20H,3-11H2,1-2H3/t12-,13+,14?,15?,16?,18?,19?/m0/s1
Instrument: API2000
Instrument type: LC-APPI-QQ
Ms type: MS2
Ion mode: POSITIVE
Retention time: 0.820850 min
Base peak: 255.300003
Precursor m/z: 255.300000
Precursor type: [M-H2O+H]+
m/z	relative intensity
39.700001	1
40.299999	1
40.599998	1
41.050000	1
42.850000	1
43.199999	1
51.299999	1
52.099998	1
52.549999	1
53.099998	1
53.900002	1
54.299999	1
55.134375	1
55.700001	1
56.500000	1
56.700001	1
56.966667	1
57.266666	1
64.599998	1
65.171427	1
65.599998	1
66.000000	1
67.108695	2
69.109998	1
70.950001	1
73.000000	1
75.699997	1
76.946874	1
79.037073	4
81.098893	37
83.155491	4
83.800003	1
84.400002	1
85.199997	1
85.400002	1
87.199997	1
87.500000	1
88.750000	1
89.099998	1
89.956251	1
91.060806	12
93.114639	10
95.052230	31
97.095328	2
97.900002	1
98.800003	1
99.400002	1
100.599998	1
101.699997	1
102.000000	1
102.350002	1
102.933334	1
105.039675	32
105.800003	1
107.055870	21
109.068690	12
111.110714	1
112.199997	1
114.300003	1
114.980000	1
115.962501	1
117.048896	7
119.066601	11
120.186361	1
121.123995	17
123.075416	5
123.900002	1
124.199997	1
124.500000	1
125.079999	1
125.500000	1
126.500000	1
126.699997	1
128.199997	1
129.060294	1
131.122061	13
133.149298	15
133.865216	1
135.099431	11
137.096100	2
137.849998	1
138.600006	1
139.199997	1
140.600000	1
141.100006	1
141.379996	1
141.650002	1
143.123400	5
145.096604	56
147.155011	49
149.147401	14
149.987499	1
151.169842	8
151.899994	1
153.000000	1
153.300003	1
154.000000	1
154.399994	1
155.187504	1
155.766666	1
156.199997	1
157.134490	5
159.137219	50
161.146757	72
163.174965	8
164.000000	1
164.300003	1
164.849998	1
165.550003	1
166.849998	1
167.100006	1
168.000000	1
168.500000	1
169.237501	1
171.093512	11
173.182283	46
175.159976	18
176.100006	1
177.232850	7
178.199997	1
179.000000	1
180.300003	1
180.866669	1
181.233332	1
181.750000	1
182.325001	1
183.179996	1
185.158404	27
187.163760	17
189.218649	22
190.000000	1
190.250000	1
190.800003	1
191.100006	1
191.399994	1
191.600006	1
193.100006	1
193.399994	1
194.000000	1
195.100006	1
195.466665	1
199.198067	76
201.191011	44
202.199997	1
202.699997	1
204.699997	1
205.199997	1
205.500000	1
206.500000	1
206.899994	1
208.199997	1
208.800003	1
209.449997	1
209.899994	1
210.199997	1
210.500000	1
211.094202	1
213.220738	18
214.017646	1
214.399994	1
218.800003	1
219.150002	1
220.399994	1
222.100006	1
222.300003	1
222.500000	1
223.272723	1
224.300003	1
224.550003	1
225.500000	1
227.258772	10
236.199997	1
236.699997	1
237.243333	1
238.600006	1
238.849998	1
239.100006	1
240.262744	1
243.100006	1
245.500000	1
248.199997	1
249.100006	1
249.349998	1
250.199997	1
250.399994	1
250.699997	1
251.000000	1
251.300003	1
251.866664	1
252.199997	1
255.308095	999
257.849991	1
