Mass spectrum: Ergosterol; LC-APPI-QQ; MS2; CE:30 V; [M-H2O+H]+
Name: Ergosterol
Class: Natural Product; Sterol
Formula: C28H44O
Exact mass: 396.33922
SMILES: C(C(C=CC(C)C(C4)C(C3C4)(C)CCC(C=13)C(C2)(C(CC(C2)O)=CC1)C)C)(C)C
InChI: InChI=1S/C28H44O/c1-18(2)19(3)7-8-20(4)24-11-12-25-23-10-9-21-17-22(29)13-15-27(21,5)26(23)14-16-28(24,25)6/h7-10,18-20,22,24-26,29H,11-17H2,1-6H3/b8-7+/t19?,20?,22-,24?,25?,26?,27?,28?/m0/s1
Instrument: API2000
Instrument type: LC-APPI-QQ
Ms type: MS2
Ion mode: POSITIVE
Retention time: 0.820850 min
Base peak: 379.500000
Precursor m/z: 379.400000
m/z	relative intensity
39.200001	1
40.200001	1
40.400002	1
40.900002	1
41.150000	1
41.400002	1
42.200001	1
42.799999	1
43.000000	1
43.450001	1
50.900002	1
53.099998	1
53.450001	1
53.900002	1
54.299999	1
55.028572	6
55.700001	1
56.000000	2
57.092461	62
57.799999	1
58.500000	1
63.200001	1
64.900002	1
65.099998	1
65.400002	1
66.199997	1
67.150000	11
69.112106	387
70.300003	1
71.059017	17
72.099998	1
77.099998	1
77.300003	1
77.800003	1
78.000000	1
78.400002	1
78.800003	2
79.109522	3
79.699997	1
81.099242	73
83.120759	124
85.025000	11
85.300003	5
89.900002	1
90.957144	6
91.599998	1
93.085276	23
95.049220	98
97.151151	30
98.400002	1
98.699997	1
98.900002	1
99.300003	1
100.300003	1
100.500000	1
101.900002	1
102.400002	1
103.199997	1
103.800003	1
104.099998	1
105.040000	28
107.073377	85
107.840001	2
109.104828	69
110.066666	1
111.071929	16
112.099998	1
112.599998	1
113.250000	1
114.300003	1
114.850002	1
115.350002	1
115.950001	1
117.191303	6
117.900002	1
118.137498	1
119.097107	34
121.122384	57
123.079661	49
125.149862	50
125.900002	1
127.050001	1
127.500000	1
128.000000	1
129.107502	6
131.159574	26
131.775002	1
133.153044	64
133.962498	1
135.136692	38
136.000000	1
137.160000	15
138.899994	1
139.166672	1
140.699997	1
141.145456	3
142.000000	1
143.068645	33
145.128275	161
147.164142	82
147.971427	1
148.300003	1
149.198668	42
150.300003	1
151.080644	9
152.199997	1
152.699997	1
153.199997	1
153.449997	1
154.000000	1
154.399994	1
155.040002	3
155.300003	2
155.683332	1
157.135803	45
159.126939	136
161.163255	60
161.937496	1
163.173437	35
164.300003	1
165.199999	7
166.000000	1
166.349998	1
167.699997	1
168.399994	1
168.869997	3
169.191304	3
171.071885	43
171.983332	1
173.168585	63
173.800003	1
175.186399	35
177.263541	27
179.330262	11
180.000000	1
180.849998	1
181.100006	1
181.399994	1
182.100000	1
183.214569	21
185.172040	110
187.184091	73
187.899994	1
189.240186	30
190.100006	1
191.205554	15
193.293331	4
194.974998	1
195.275002	1
195.500000	1
196.199997	1
197.219999	36
199.223299	134
201.168024	92
202.100006	1
203.200000	17
205.235527	11
206.399994	1
207.275002	2
207.899994	1
208.933329	1
209.333333	1
210.245453	2
211.214650	43
212.199997	1
212.459088	3
213.207640	102
213.933329	2
214.199997	1
215.245161	43
216.199997	1
217.353843	11
217.899994	1
219.179999	8
221.177778	1
221.600006	1
221.899994	1
222.650002	1
223.185717	2
225.190213	65
225.899994	1
227.274490	54
229.262980	29
230.100006	1
231.228987	19
233.192855	2
234.899994	1
235.366664	1
235.899994	1
236.150002	1
237.259998	2
237.987499	1
239.273351	103
240.600006	2
241.285157	35
242.300003	1
242.500000	1
242.699997	1
243.318963	16
244.399994	1
245.280647	9
246.199997	1
246.699997	1
246.987499	1
247.309521	3
247.699997	1
248.949997	1
249.449997	1
252.186122	34
253.270131	159
254.291426	10
255.233209	37
256.328570	1
257.272221	15
258.200012	1
259.299995	4
259.799988	1
260.449997	1
260.899994	1
261.500000	1
261.700012	1
262.200012	1
262.600006	1
263.100006	1
264.987499	1
265.300000	2
266.057146	1
266.399994	1
267.264473	48
268.299988	1
269.303955	49
270.200012	1
271.255314	51
272.799988	1
273.200012	1
273.650009	2
277.399994	1
278.299988	1
279.340002	1
281.317794	33
283.322929	43
285.316667	18
286.899994	1
287.133341	1
287.399994	1
287.700012	1
289.000000	1
289.600006	1
290.849991	1
291.100006	1
292.349991	1
292.700012	1
293.016668	1
293.399994	1
294.000000	1
295.327423	157
296.200012	1
296.399994	1
297.242106	18
297.602387	6
298.250000	1
298.600006	1
299.000000	1
299.377772	2
301.100006	1
301.299988	1
301.899994	1
303.299988	1
305.899994	1
306.600006	1
307.162510	1
309.358207	128
310.483332	1
310.799988	1
311.261536	4
312.100006	1
312.299988	1
312.750000	1
313.000000	1
313.200012	1
313.600006	1
314.700012	1
315.100006	1
317.949997	1
318.799988	1
319.000000	1
319.399994	1
319.899994	1
320.299988	1
321.200003	2
323.348347	34
324.150009	1
324.799988	1
325.100006	1
325.324989	1
325.600006	1
325.849991	1
331.000000	1
332.000000	1
333.100006	1
333.399994	1
335.299998	1
335.899994	1
336.333336	3
337.410123	11
346.700012	1
346.899994	1
347.299988	1
347.600006	1
349.200012	1
349.500000	1
350.200012	1
350.399994	1
351.360606	9
361.399994	1
362.299988	1
363.000000	1
363.200012	1
363.700012	1
364.388882	2
373.700012	1
376.600006	1
377.000000	1
377.733341	1
379.430884	999
380.299988	1
380.500000	1
