Mass spectrum: Estrone; LC-APPI-QQ; MS2; CE:50 V; [M+H]+
Name: Estrone
Class: Natural Product; Steroid hormone
Formula: C18H22O2
Exact mass: 270.16198
SMILES: Oc(c4)cc(C3)c(c4)C(C2)C(C3)C(C1)C(C)(C2)C(=O)C1
InChI: InChI=1S/C18H22O2/c1-18-9-8-14-13-5-3-12(19)10-11(13)2-4-15(14)16(18)6-7-17(18)20/h3,5,10,14-16,19H,2,4,6-9H2,1H3
Instrument: API2000
Instrument type: LC-APPI-QQ
Ms type: MS2
Ion mode: POSITIVE
Retention time: 0.820867 min
Base peak: 133.300003
Precursor m/z: 271.100000
Precursor type: [M+H]+
m/z	relative intensity
38.500000	1
38.900000	1
39.299999	1
40.099998	1
41.042623	11
43.071325	100
45.144444	2
50.200001	1
50.599998	1
51.049999	1
51.299999	1
51.900002	1
52.099998	1
53.128169	6
53.799999	1
55.041311	59
56.966667	2
57.254167	2
57.900002	1
58.400002	1
58.900002	1
59.200001	1
60.400002	1
61.200001	1
62.200001	1
62.500000	1
62.900002	1
63.299999	1
65.089166	11
65.699997	1
67.109684	129
69.108974	28
71.110753	93
72.300003	1
72.599998	1
72.900002	1
73.300003	1
74.599998	1
75.300003	1
77.087992	97
79.057143	293
81.116937	274
83.168183	4
83.800003	1
84.099998	1
84.300003	1
85.140578	6
86.900002	1
87.500000	1
89.093749	1
91.067435	342
93.112927	125
95.096410	50
96.199997	1
97.059999	5
98.157144	1
98.500000	1
98.800003	1
99.099998	1
99.599998	1
100.699997	1
100.900002	1
103.075168	81
105.052510	790
107.050639	227
107.966667	1
108.400002	1
109.182351	6
109.950001	1
110.199997	1
111.062792	4
112.000000	1
115.070917	207
116.121436	95
117.114140	62
119.094378	23
121.018360	46
122.250000	1
122.900002	1
123.099998	1
123.400002	1
123.699997	1
124.099998	1
125.025000	1
127.076406	148
128.084188	163
129.090915	136
131.135462	469
133.107543	999
134.759998	1
135.250000	1
135.899994	1
136.800003	1
137.100006	1
137.300003	1
138.174999	1
138.399994	1
139.268965	5
141.131687	337
144.075030	618
145.049518	225
147.102564	42
148.300003	1
148.899994	1
149.130003	1
150.100006	1
150.399994	1
150.699997	1
151.399994	2
152.155357	30
153.111287	91
154.122930	28
155.125500	72
157.120428	982
159.110875	576
160.025002	1
161.170969	3
162.100006	1
162.816668	1
163.266668	2
163.500000	1
165.134088	144
167.135762	55
169.093785	82
171.100631	86
172.144737	28
173.177174	17
173.849998	1
174.174999	1
174.449997	1
175.000000	1
176.022221	2
176.399994	1
178.183018	67
179.163072	139
181.108758	116
182.182542	141
183.161586	146
184.188210	22
185.131078	50
187.000000	1
187.275002	1
187.500000	1
187.899994	1
189.024998	2
189.399994	1
189.830000	1
190.399994	1
191.149998	5
191.899994	1
192.241665	2
193.174119	15
195.189400	51
196.180194	56
197.165572	130
198.185808	68
199.106898	3
200.000000	1
200.500000	1
201.157144	1
201.750000	1
202.199997	1
202.800003	1
203.200002	1
203.699997	1
204.000000	1
204.399994	1
204.600006	1
205.420001	1
205.899994	1
206.100006	1
206.399994	1
206.600006	1
207.180488	4
209.154650	31
210.181112	8
211.133061	44
212.300001	9
213.151709	21
214.200001	2
215.105128	7
216.199997	1
216.449997	1
216.899994	1
217.199997	1
218.399994	1
218.899994	1
219.199997	1
220.399994	1
220.800003	1
221.500000	1
221.899994	1
222.150002	1
223.291110	8
224.213515	3
225.334480	3
226.212502	1
226.500000	1
226.800003	1
227.399999	1
228.150002	1
228.650002	1
229.100006	1
229.300003	1
229.550003	1
230.899994	1
231.399994	1
231.800003	1
232.899994	1
233.100006	1
233.500000	1
235.000000	1
235.300003	1
235.899994	1
236.199997	1
236.821430	1
238.273810	4
238.800003	1
239.199997	1
239.399994	1
239.699997	1
239.899994	1
240.250000	1
240.966670	1
241.550003	1
241.800003	1
242.158620	3
243.000000	1
243.199997	1
243.424995	1
243.800003	1
246.600006	1
248.800003	1
249.300003	1
249.699997	1
249.899994	1
250.699997	1
251.100006	1
251.500000	1
251.800003	1
252.000000	1
252.575005	1
253.255558	2
254.949997	1
255.399994	1
255.650002	1
255.899994	1
256.200012	1
256.399994	1
268.799988	1
269.200012	1
269.700012	1
270.000000	1
270.200012	1
270.500000	1
270.799988	1
271.174999	1
