Mass spectrum: Estrone; LC-APPI-QQ; MS2; CE:40 V; [M+H]+
Name: Estrone
Class: Natural Product; Steroid hormone
Formula: C18H22O2
Exact mass: 270.16198
SMILES: Oc(c4)cc(C3)c(c4)C(C2)C(C3)C(C1)C(C)(C2)C(=O)C1
InChI: InChI=1S/C18H22O2/c1-18-9-8-14-13-5-3-12(19)10-11(13)2-4-15(14)16(18)6-7-17(18)20/h3,5,10,14-16,19H,2,4,6-9H2,1H3
Instrument: API2000
Instrument type: LC-APPI-QQ
Ms type: MS2
Ion mode: POSITIVE
Retention time: 0.820867 min
Base peak: 133.100006
Precursor m/z: 271.100000
Precursor type: [M+H]+
m/z	relative intensity
38.500000	1
41.138462	2
41.599998	1
41.962501	1
43.035700	30
43.850000	1
44.350000	1
45.175000	1
46.799999	1
51.099998	1
51.299999	1
52.500000	1
52.971428	1
53.433334	1
53.799999	1
55.063107	13
55.599998	1
55.900000	1
56.299999	1
57.155000	1
57.700001	1
58.150000	1
58.766668	1
59.400002	1
61.000000	1
63.000000	1
63.650000	1
64.400002	1
64.900002	1
65.099998	1
67.115758	52
69.109460	18
71.099835	74
72.199997	1
72.450001	1
72.800003	1
73.099998	1
75.599998	1
75.800003	1
76.000000	1
77.030000	13
77.981250	1
79.031115	74
81.106354	178
83.213794	4
85.076842	12
86.400002	1
87.900002	1
88.099998	1
88.300003	1
88.599998	1
89.300003	1
89.537499	1
91.068506	61
93.097193	83
94.099998	1
95.054866	37
96.464286	1
97.076471	7
98.200001	1
98.783335	1
99.152939	1
100.149998	1
100.800003	1
101.300003	1
101.800003	1
102.280000	1
103.061538	11
105.060562	176
107.048875	153
109.123560	24
111.049218	8
111.900002	1
112.699997	1
112.900002	1
113.300003	1
113.733332	1
115.086133	23
116.178766	9
117.092820	24
119.046835	10
121.072431	49
121.900002	1
122.599998	1
122.966667	1
124.422223	1
124.913335	2
125.277779	1
127.095801	23
128.126368	19
129.098941	35
131.128778	205
133.110190	999
135.136364	3
136.100006	1
136.349998	1
136.600006	1
136.899994	1
137.300003	1
137.750000	1
138.300003	1
139.268751	1
139.665000	1
141.136215	155
142.047561	5
144.078586	154
145.065077	191
147.146646	39
148.240002	1
148.972728	1
150.000000	1
150.449997	1
150.899994	1
151.199997	1
153.086797	25
155.143830	29
157.114703	802
159.104897	931
160.300002	1
161.157143	8
161.899994	1
162.349998	1
163.000000	1
163.474998	1
163.899994	1
165.076242	52
167.115441	34
168.092456	3
169.056849	36
171.087911	83
172.122519	16
173.192216	41
174.133336	1
175.136365	2
176.150002	1
176.600006	1
177.317140	2
179.152767	96
181.112130	42
183.149947	117
185.119921	79
186.219231	3
187.053849	2
188.600006	1
188.899994	1
189.250000	1
189.600006	1
189.849998	1
190.333333	1
191.045456	3
193.209962	16
194.105968	4
195.158929	21
197.171404	259
198.166237	100
199.127500	5
200.100006	1
201.138070	11
202.199997	1
202.500000	1
203.500000	1
204.199997	1
204.942858	1
205.666667	1
206.050003	1
206.879996	1
207.289474	2
208.130003	1
209.133962	33
210.275001	7
211.128006	81
213.196714	83
214.268751	1
214.500000	1
215.075610	5
215.800003	1
216.300003	1
217.100006	1
217.699997	1
218.000000	1
218.199997	1
218.899999	1
219.500000	1
220.000000	1
220.500000	1
221.150005	1
222.000000	1
222.250000	1
223.076543	5
224.222449	6
225.205949	17
227.170000	1
227.416662	1
227.899994	1
228.100006	1
229.149998	1
232.899994	1
233.100006	1
233.300003	1
234.750000	1
235.250000	1
235.800003	1
236.050003	1
236.500000	1
237.211109	1
238.258976	5
239.399994	1
240.000000	1
240.300003	1
240.500000	1
241.125000	1
242.200000	1
242.800003	1
243.345832	1
249.150002	1
250.500000	1
251.500000	1
252.100006	1
253.235856	50
254.500000	1
255.075000	1
255.600006	1
255.800003	1
256.100006	1
256.299988	1
269.100006	1
269.299988	1
271.170531	6
271.899994	1
272.700012	1
280.200012	1
