Mass spectrum: 24-Ethylcoprostanol; LC-APPI-QQ; MS2; CE:50 V; [M-H2O+H]+
Name: 24-Ethylcoprostanol
Class: Natural Product; Sterol
Formula: C29H52O
Exact mass: 416.40182
SMILES: C(C34[H])(CCC(O)C4)(C([H])(C([H])2CC3)CCC(C([H])12)(C)C(CC1)([H])C(CCC(C(C)C)CC)C)C
InChI: InChI=1S/C29H52O/c1-7-21(19(2)3)9-8-20(4)25-12-13-26-24-11-10-22-18-23(30)14-16-28(22,5)27(24)15-17-29(25,26)6/h19-27,30H,7-18H2,1-6H3/t20-,21+,22-,23+,24+,25-,26+,27+,28+,29-/m1/s1
Instrument: API2000
Instrument type: LC-APPI-QQ
Ms type: MS2
Ion mode: POSITIVE
Retention time: 0.820850 min
Base peak: 94.800003
Precursor m/z: 399.500000
Precursor type: [M-H2O+H]+
m/z	relative intensity
38.900002	1
39.299999	1
39.900002	1
40.400002	1
41.176667	11
41.599998	1
41.900002	1
43.100000	64
45.074126	105
46.299999	1
47.000000	1
50.599998	1
50.900002	1
52.850000	1
53.350000	1
53.599998	1
55.045641	143
56.000000	3
57.126331	248
58.200001	1
58.450001	1
58.700001	1
58.900002	1
59.099998	1
59.500000	1
63.099998	1
64.400002	1
64.800003	1
65.016666	2
65.400002	2
65.900002	1
67.115458	309
69.059222	407
71.102041	144
71.800003	2
72.199997	1
72.400002	1
73.099998	1
75.300003	1
75.900002	1
76.300003	1
77.022222	7
77.650001	3
79.043549	137
81.096562	898
82.000000	7
83.107238	274
84.000000	1
84.199997	2
85.071653	47
86.300003	1
89.000000	1
89.199997	1
89.900002	1
90.099998	1
91.011667	44
93.075483	324
95.050331	999
95.900002	2
96.174997	6
97.085897	86
97.900002	1
98.300003	1
98.970270	27
100.900002	1
101.099998	2
103.049999	1
103.450001	1
103.699997	1
105.097184	52
107.039723	318
109.095992	550
110.366669	2
111.264287	15
112.000000	1
114.800003	1
115.000000	1
116.599998	1
116.800003	1
117.300003	1
117.525000	1
117.900002	2
119.124529	39
120.300003	6
121.112289	239
123.078351	143
124.275002	1
124.744445	3
125.549999	1
126.199997	1
128.000000	1
129.800003	1
131.199997	1
131.399994	1
131.800003	1
133.065882	62
133.974998	3
135.082079	205
135.800003	1
136.100006	1
137.143207	30
138.000000	1
141.699997	1
142.100006	1
143.050003	1
143.399994	1
143.800003	1
144.199997	1
145.077273	8
146.100006	2
147.113636	65
149.179825	126
150.174999	1
150.500000	1
150.699997	1
151.278573	5
154.899994	1
155.100006	1
155.399994	1
157.100001	1
157.899994	1
158.399994	1
158.928569	3
159.212498	3
159.849998	2
160.100006	3
160.300003	1
161.180209	35
161.900002	1
162.199997	1
163.127025	54
164.000000	1
164.399994	1
165.100006	1
165.500000	1
170.849998	1
171.300003	1
173.050003	1
173.300003	1
173.600006	1
173.800003	1
174.000000	1
174.988236	12
175.419995	4
175.899994	1
176.199997	1
177.258335	9
178.300003	1
178.600006	1
179.100001	2
179.600006	1
181.199997	1
185.949997	1
186.933329	2
187.199997	1
187.500000	1
187.899994	1
188.100006	1
189.086363	32
190.000000	2
190.500000	1
191.000000	4
193.199997	1
193.500000	1
198.899994	1
199.199997	1
200.000000	1
200.899994	1
201.399994	1
201.700002	1
202.100006	1
202.349998	1
202.600006	1
203.118186	8
203.899994	1
204.100006	1
204.300003	1
205.083338	2
205.399994	1
205.699997	1
206.600006	1
206.899994	1
207.300003	1
207.500000	1
209.000000	1
212.800003	1
213.300003	1
214.899994	2
215.399994	1
215.699997	1
216.000000	2
216.300003	2
217.173334	6
217.800003	1
218.199997	1
218.600006	1
219.000000	1
219.399994	1
220.899994	1
221.399994	1
221.600006	1
227.399994	1
229.000000	1
229.399994	1
230.000000	1
230.300003	1
230.500000	1
230.699997	1
231.100006	1
231.399994	1
232.300003	1
232.899994	1
233.250000	1
233.500000	2
235.199997	1
235.424995	1
239.199997	1
240.300003	1
241.100006	1
242.699997	1
243.300003	1
244.600006	1
245.100006	1
245.349998	1
245.699997	1
247.000000	1
247.199997	1
247.600006	1
248.000000	1
252.199997	1
256.600006	1
257.000000	1
258.050003	1
258.299988	1
258.849991	1
259.100006	1
259.299988	1
259.600006	1
260.000000	1
260.500000	1
261.100006	1
261.500000	1
261.700012	1
265.100006	1
266.399994	1
270.299988	1
271.100006	1
271.600006	1
271.799988	1
272.600006	1
273.100006	1
273.399994	1
274.799988	1
275.100006	1
275.299988	1
275.500000	1
275.750000	1
280.100006	1
283.299988	1
283.600006	1
285.299988	1
285.700012	1
285.899994	1
286.250000	1
286.799988	1
287.299988	1
287.700012	1
287.899994	1
288.399994	1
289.100006	1
289.399994	1
299.200012	1
299.449997	1
301.200012	1
302.299988	1
303.600006	1
313.100006	1
315.500000	1
317.000000	1
322.700012	1
326.899994	1
328.399994	1
328.700012	1
329.600006	1
331.299988	1
337.000000	1
341.000000	1
341.399994	1
342.050003	1
355.799988	1
356.500000	1
357.899994	1
370.500000	1
371.100006	1
381.100006	1
384.100006	1
384.500000	1
384.700012	1
384.899994	1
399.000000	1
399.200012	1
399.500000	1
