Mass spectrum: nPFOS; LC-ESI-QQ; MS2; CE30eV; [M-H]-
Name: nPFOS
Class: Non-Natural Product
Formula: C8HF17O3S
Exact mass: 499.93749
SMILES: FC(F)(F)C(F)(F)C(F)(F)C(F)(F)C(F)(F)C(F)(F)C(F)(F)C(F)(F)S(O)(=O)=O
InChI: InChI=1S/C8HF17O3S/c9-1(10,3(13,14)5(17,18)7(21,22)23)2(11,12)4(15,16)6(19,20)8(24,25)29(26,27)28/h(H,26,27,28)
Instrument: Xevo TQ, Waters
Instrument type: LC-ESI-QQ
Ms type: MS2
Ion mode: NEGATIVE
Collision energy: 30eV
Retention time: 21.556232 min
Base peak: 498.858612
Precursor m/z: 498.9
Precursor type: [M-H]-
m/z	relative intensity
79.987679	655
83.069015	173
84.907628	37
99.013250	568
118.897451	150
129.886098	173
168.983179	132
179.658795	47
218.975768	50
229.658133	115
280.155934	31
330.165322	69
379.950589	48
394.775573	31
498.778642	999
