Mass spectrum: Dihydrotestosterone; LC-APPI-QQ; MS2; CE:10 V; [M+CH3]+
Name: Dihydrotestosterone
Class: Natural Product; Steroid hormone
Formula: C19H30O2
Exact mass: 290.22458
SMILES: O=C(C4)CC([H])(C3)C(C)(C4)C(C2)C(C3)C(C1)C(C)(C2)C(O)C1
InChI: InChI=1S/C19H30O2/c1-18-9-7-13(20)11-12(18)3-4-14-15-5-6-17(21)19(15,2)10-8-16(14)18/h12,14-17,21H,3-11H2,1-2H3/t12-,14?,15?,16?,17-,18?,19?/m0/s1
Instrument: API2000
Instrument type: LC-APPI-QQ
Ms type: MS2
Ion mode: POSITIVE
Retention time: 0.820850 min
Base peak: 305.500000
Precursor m/z: 305.400000
Precursor type: [M+CH3]+
m/z	relative intensity
80.900002	1
81.699997	1
84.850002	1
85.300003	1
90.850002	1
91.099998	1
99.300003	1
104.000000	1
104.800003	1
105.100001	1
106.400002	1
106.800003	1
107.000000	1
107.300003	1
107.699997	1
111.000000	1
112.850002	1
118.099998	1
118.800003	1
120.900002	1
121.199999	1
122.900002	1
123.300003	1
130.750000	1
132.399994	1
133.199997	1
133.500000	1
134.899994	1
135.300003	1
135.500000	1
137.100006	1
137.300003	1
144.699997	1
145.399994	1
145.600006	1
146.399994	1
146.699997	1
147.000000	1
147.399994	1
148.500000	1
149.300003	1
156.800003	1
157.399994	1
158.500000	1
159.075005	1
160.550003	1
160.899994	1
161.199997	1
162.899994	1
163.100006	1
163.600006	1
164.800003	1
169.000000	1
169.199997	1
170.800003	1
171.300003	1
172.699997	1
173.275002	2
173.500000	1
174.500000	1
174.849998	1
175.199997	1
176.949997	1
177.300003	1
178.800003	1
181.199997	1
183.100006	1
183.300003	1
184.899994	1
185.300003	1
186.750000	1
187.125004	1
187.600006	1
188.000000	1
189.000000	1
189.424995	1
190.399994	1
191.000000	1
191.199997	1
194.949997	1
195.199997	1
195.449997	1
196.199997	1
196.449997	1
197.150002	1
197.700002	1
198.449997	1
199.199997	3
199.650002	1
201.255554	2
205.150002	1
209.199997	1
210.300003	1
210.899994	1
211.199997	1
211.449997	1
212.399994	1
212.775002	1
213.240002	2
214.349998	1
215.100003	1
215.399994	1
217.250000	1
220.699997	1
221.199997	1
221.399994	1
227.199999	3
229.100006	1
229.600006	1
231.199997	1
232.800003	1
233.399994	1
235.300003	1
235.600006	1
236.750000	1
237.000000	1
245.399994	1
254.100006	1
255.186668	19
255.600006	7
256.700012	1
259.399994	1
262.899994	1
263.200012	1
269.899994	1
272.399994	1
272.600006	1
273.313955	21
275.600006	1
277.000000	1
277.200012	1
277.500000	1
286.299988	1
287.099999	3
287.600006	1
288.200012	1
288.399994	1
291.500000	1
302.899994	1
303.349991	1
303.799998	1
304.100006	1
305.381102	999
306.399994	1
307.000000	1
307.799988	1
