Mass spectrum: Androstenedione; LC-APPI-QQ; MS2; CE:40 V; [M+H]+
Name: Androstenedione
Class: Natural Product; Steroid hormone
Formula: C19H26O2
Exact mass: 286.19328
SMILES: O=C(C4)C=C(C3)C(C)(C4)C(C2)C(C3)C(C1)C(C)(C2)C(=O)C1
InChI: InChI=1S/C19H26O2/c1-18-9-7-13(20)11-12(18)3-4-14-15-5-6-17(21)19(15,2)10-8-16(14)18/h11,14-16H,3-10H2,1-2H3/t14?,15?,16?,18-,19-/m0/s1
Instrument: API2000
Instrument type: LC-APPI-QQ
Ms type: MS2
Ion mode: POSITIVE
Retention time: 0.820850 min
Base peak: 97.099998
Precursor m/z: 287.300000
Precursor type: [M+H]+
m/z	relative intensity
39.099998	1
39.299999	1
41.033333	1
43.153061	2
43.700001	1
44.200001	1
44.500000	1
44.700001	1
45.150000	1
45.400002	1
50.800001	1
51.099998	1
51.299999	1
51.900002	1
52.799999	1
53.099998	1
54.000000	1
55.052101	5
56.000000	1
56.299999	1
56.994445	1
57.280952	1
58.500000	1
58.900002	1
59.400002	1
60.700001	1
64.400002	1
64.918183	1
65.239999	1
65.599998	1
65.900002	1
67.091847	7
69.108104	13
71.004762	2
71.800003	1
72.000000	1
73.099998	1
73.400002	1
75.199997	1
75.400002	1
75.599998	1
75.900002	1
77.128235	3
79.062701	58
81.112362	42
83.090226	44
84.118748	1
85.058620	1
85.800003	1
86.599998	1
87.300003	1
87.599998	1
87.900002	1
88.850002	1
89.500000	1
91.056887	16
93.110279	22
97.094505	999
99.114285	1
100.800003	1
101.500000	1
101.900002	1
102.649998	1
102.954167	1
105.057262	27
107.099484	24
109.069837	751
111.047973	3
111.800003	1
113.099998	1
113.300003	1
113.500000	1
114.300003	1
115.200002	1
117.087125	7
119.069883	21
119.818753	1
121.071875	13
123.061587	77
124.500000	1
124.840001	1
125.300003	1
125.599998	1
126.400002	1
127.054545	1
128.059156	1
129.081304	5
131.145139	15
133.132648	23
133.899994	1
134.199997	1
135.126531	6
137.087288	2
138.199997	1
138.759998	1
139.100006	1
141.125689	2
142.060716	1
143.098822	12
145.126087	28
147.157782	12
149.134688	6
150.083331	2
151.073470	2
152.180002	1
153.076664	1
155.099347	6
156.209093	1
157.086777	10
159.120438	18
160.027274	1
161.116615	7
161.839999	1
163.116667	3
165.145159	1
166.107409	1
167.144681	2
168.175473	1
169.116187	11
171.097791	15
173.176226	22
174.000000	1
175.088571	3
176.100006	1
176.500000	1
177.168420	2
178.050003	1
178.500000	1
179.052635	1
179.500000	1
180.254838	1
181.168947	4
183.146981	6
185.140587	17
187.187827	7
187.983332	1
188.399999	1
189.144826	1
190.100006	1
191.162500	1
192.000000	1
192.250000	1
193.145454	1
193.899994	1
195.178905	5
196.111475	2
197.177777	1
198.276920	1
199.189999	6
201.126760	3
202.089147	3
203.037499	2
203.699997	1
204.000000	1
204.699997	1
205.208331	1
205.600006	1
206.199997	1
207.338462	1
207.899994	1
208.300001	1
209.180175	7
210.299999	1
211.176470	16
212.358823	1
213.218421	5
214.190437	20
215.209757	2
215.968964	1
217.145240	1
218.100006	1
218.399994	1
219.300003	1
220.050003	1
221.135294	1
222.217143	1
223.500000	1
225.236363	3
226.156523	1
227.246182	5
229.226466	27
230.275003	1
230.500000	1
231.152555	3
232.000000	1
233.699997	1
233.899994	1
234.500000	1
235.199997	1
235.399994	1
236.399994	1
238.300003	1
239.300003	1
239.500000	1
240.100006	1
240.399994	1
241.241666	1
241.899994	1
242.166667	1
242.449997	1
243.185712	1
243.462498	1
244.208420	2
245.075005	1
245.800003	1
246.300003	1
249.400002	1
249.699997	1
250.300003	1
251.223729	5
252.000000	1
252.199997	1
252.699997	1
253.150002	1
253.899994	1
254.157146	1
254.983332	1
255.275002	1
255.500000	1
256.150009	1
256.799988	1
257.062504	1
257.500000	1
258.188890	1
259.191130	3
260.299988	1
260.500000	1
266.700012	1
267.100006	1
267.600006	1
268.000000	1
268.299988	1
269.259533	5
271.050003	1
272.100006	1
280.500000	1
282.500000	1
285.100006	1
285.399994	1
287.211928	15
288.200012	1
