Mass spectrum: 24-Ethylcoprostanol; LC-APPI-QQ; MS2; CE:40 V; [M-H2O+H]+
Name: 24-Ethylcoprostanol
Class: Natural Product; Sterol
Formula: C29H52O
Exact mass: 416.40182
SMILES: C(C34[H])(CCC(O)C4)(C([H])(C([H])2CC3)CCC(C([H])12)(C)C(CC1)([H])C(CCC(C(C)C)CC)C)C
InChI: InChI=1S/C29H52O/c1-7-21(19(2)3)9-8-20(4)25-12-13-26-24-11-10-22-18-23(30)14-16-28(22,5)27(24)15-17-29(25,26)6/h19-27,30H,7-18H2,1-6H3/t20-,21+,22-,23+,24+,25-,26+,27+,28+,29-/m1/s1
Instrument: API2000
Instrument type: LC-APPI-QQ
Ms type: MS2
Ion mode: POSITIVE
Retention time: 0.820833 min
Base peak: 94.699997
Precursor m/z: 399.500000
Precursor type: [M-H2O+H]+
m/z	relative intensity
38.900002	1
40.700001	1
40.950001	2
41.400002	2
42.000000	2
42.400002	1
42.599998	2
43.100000	10
43.900002	1
44.299999	5
45.125000	87
53.099998	1
53.700001	1
53.900002	3
54.200001	3
55.148148	49
55.700001	5
55.950001	4
57.104951	182
57.799999	3
58.700001	1
59.049999	7
64.500000	1
64.699997	1
65.099998	1
65.699999	3
66.400002	8
66.599998	13
67.096202	142
69.106373	368
70.400002	5
71.151852	146
71.875002	4
72.300003	1
72.699997	2
73.400002	1
76.300003	1
76.500000	1
76.750000	4
77.400002	3
78.000000	2
78.300003	4
79.069766	39
81.085825	585
83.073403	170
83.800003	4
84.900002	20
85.224998	22
89.000000	1
89.199997	1
90.300003	1
90.599998	2
91.077777	16
91.800003	3
93.092222	162
93.911766	15
95.060650	999
96.199997	7
97.024712	157
98.099998	2
98.500000	1
99.099998	10
100.969231	12
101.400002	1
102.199997	1
104.400002	1
104.599998	5
104.987500	14
107.036179	222
109.077893	522
109.900002	5
110.300003	4
111.161765	61
111.950001	2
112.400002	1
113.300003	2
113.500000	1
116.850002	2
117.099998	1
117.300003	1
117.500000	1
117.800003	1
118.149998	2
118.599998	7
119.210526	17
121.072947	187
121.699997	4
122.099998	5
123.079578	256
124.525000	4
125.199997	10
127.400002	1
128.899994	2
129.199997	2
130.100006	1
131.000000	3
131.750000	2
133.165388	23
134.349998	13
135.130846	181
135.699997	5
135.899994	5
136.199997	3
137.104226	128
137.899994	2
138.699997	1
139.050003	2
139.399994	1
140.500000	1
140.899994	1
142.500000	1
142.849998	2
143.125004	4
143.399994	1
144.300003	1
144.800003	4
145.166667	5
145.699997	1
145.899994	2
146.300003	3
147.109090	60
148.000000	3
149.110726	286
149.800003	1
150.100006	5
150.300003	4
151.156002	45
151.600006	4
152.899994	1
155.000000	1
157.199997	1
157.899994	2
158.500000	2
158.825001	4
159.250000	5
159.800003	4
161.090477	38
161.800003	5
162.199997	5
163.144445	146
164.600006	3
164.933329	11
165.699997	1
171.199997	1
173.000000	1
173.300003	3
173.699997	1
174.100006	1
174.500000	1
174.892852	13
175.199999	17
175.800003	4
177.185366	74
178.399994	1
178.699997	1
179.400000	9
180.500000	1
184.899994	1
185.600006	1
186.300003	2
187.075005	4
187.500000	1
188.300003	4
189.243750	144
190.583338	5
191.000000	14
191.500000	5
191.899994	1
193.199997	5
193.600006	2
198.699997	1
198.899994	1
199.299995	4
200.800003	1
201.150002	2
201.600006	2
202.100006	2
202.300003	2
203.211111	49
204.050003	2
204.449997	2
205.000000	2
205.300000	9
207.100006	3
207.325001	4
212.500000	1
213.000000	3
213.199997	1
214.349998	2
214.800003	3
215.300003	4
216.037502	7
216.399994	5
216.600006	3
217.258140	39
218.500000	1
218.800003	1
219.183332	5
219.500000	2
220.399994	3
220.699997	2
221.399994	3
221.600006	3
227.100006	1
228.100006	1
229.000000	2
229.800003	1
230.349998	2
230.800003	2
231.500000	6
231.899994	1
232.100006	1
233.237499	7
235.022224	8
235.500000	5
239.000000	1
239.899994	2
241.200002	3
243.349998	2
244.600006	1
245.000000	5
245.260001	9
245.600006	4
246.399994	1
247.100006	2
247.600006	2
249.199997	2
249.600006	2
253.100006	1
257.575005	4
258.100006	1
258.399994	2
258.750000	2
259.066671	5
259.474998	7
260.899994	1
261.339996	5
261.600006	2
261.799988	1
262.100006	1
262.700012	1
263.000000	1
263.349991	2
263.600006	1
264.399994	1
269.600006	1
271.500000	1
273.275002	7
273.700012	3
273.899994	2
274.399994	2
275.300003	5
275.799988	2
277.100006	2
277.299988	1
277.600006	1
285.100006	1
286.050003	2
286.399994	1
286.600006	1
287.100006	1
287.374992	4
287.600006	2
287.799988	1
289.200012	6
289.449997	9
289.700012	2
289.899994	1
291.200012	1
291.500000	1
297.000000	1
300.100006	1
300.399994	1
301.000000	2
301.299988	2
301.500000	2
301.799988	3
302.500000	1
302.799988	1
303.200012	3
303.566671	5
304.000000	1
314.200012	1
315.399994	1
315.600006	2
316.000000	1
316.700012	2
317.200012	5
317.700012	1
329.500000	2
330.600006	1
337.100006	1
339.299988	1
341.299988	2
342.600006	1
343.150009	2
343.399994	4
343.700012	1
345.700012	1
353.600006	1
357.299988	1
357.500000	2
357.899994	1
381.000000	1
381.200012	1
381.399994	1
384.399994	1
399.485717	63
