Mass spectrum: Cholestanol; LC-APPI-QQ; MS2; CE:50 V; [M-H2O+H]+
Name: Cholestanol
Class: Natural Product; Sterol
Formula: C27H48O
Exact mass: 388.37052
SMILES: C(C)(C1)(C(C(C)CCCC(C)C)4)C(CC4)C(C2)C(C(C)(C3)C([H])(CC(C3)O)C2)C1
InChI: InChI=1S/C27H48O/c1-18(2)7-6-8-19(3)23-11-12-24-22-10-9-20-17-21(28)13-15-26(20,4)25(22)14-16-27(23,24)5/h18-25,28H,6-17H2,1-5H3/t19?,20-,21-,22?,23?,24?,25?,26?,27?/m0/s1
Instrument: API2000, Applied
Instrument type: LC-APPI-QQ
Ms type: MS2
Ion mode: POSITIVE
Retention time: 0.820900 min
Base peak: 81.300003
Precursor m/z: 371.451000
Precursor type: [M-H2O+H]+
m/z	relative intensity
37.799999	1
38.599998	1
39.000000	1
39.200001	1
39.400002	1
40.799999	2
41.157143	5
41.750000	1
43.044059	35
50.500000	1
50.799999	1
51.099998	1
51.599998	1
52.916668	1
53.200001	1
53.400002	1
53.799999	2
55.048871	169
56.081249	3
57.135340	132
60.599998	1
63.850000	1
64.350002	1
64.599998	1
67.081426	337
69.079955	387
71.097549	71
72.199997	1
72.400002	1
72.699997	1
75.350002	1
75.699997	1
76.124998	1
77.111110	12
79.008933	159
81.084373	877
83.107789	249
84.000000	1
84.300003	1
85.154348	16
85.850002	1
87.450001	1
87.699997	1
88.950001	1
91.035755	62
93.072851	368
95.038472	999
97.076230	84
98.300003	1
99.000000	1
100.500000	1
101.000000	1
101.400002	1
102.900002	1
103.299999	1
103.599998	1
105.027723	70
107.022085	279
109.061069	434
110.099998	1
110.500000	1
110.993333	10
111.305003	3
111.800003	1
114.599998	1
114.800003	1
115.000000	1
115.300003	1
116.199997	1
116.800003	1
117.133331	1
117.500000	1
118.000000	1
118.241666	2
119.083556	39
121.096090	177
123.075772	112
123.850002	1
124.149998	1
124.775002	1
125.199997	1
125.400002	1
127.900002	1
128.750000	1
129.100006	1
129.600006	1
130.000000	1
130.300003	1
131.079999	3
131.699997	1
132.116671	1
133.131314	34
135.074944	156
135.800003	1
136.100006	1
137.095588	24
138.899994	1
139.500000	1
140.500000	1
141.199997	1
141.699997	1
142.500000	1
142.699997	1
143.050003	1
143.300003	1
143.600006	1
145.199997	2
145.539998	2
147.128070	39
148.209998	2
149.091204	75
150.349998	1
151.355554	3
151.699997	1
153.300003	1
153.899994	1
155.300003	1
156.899994	1
157.250000	1
157.750000	1
159.010001	2
159.300003	1
161.069490	20
161.899994	1
162.100006	1
163.070140	25
163.800003	1
164.199997	1
164.399994	1
164.699997	1
165.060001	1
165.600006	1
168.800003	1
171.199997	1
171.399994	1
172.000000	1
172.300003	1
172.650002	1
172.899994	1
173.199997	1
173.500000	1
173.800003	1
174.228572	1
174.989473	7
176.300003	1
176.899994	2
177.899994	1
178.600006	1
179.083338	1
179.399994	1
180.399994	1
182.100006	1
184.199997	1
184.949997	1
185.399999	1
186.399994	1
187.107144	2
188.000000	1
188.300003	1
189.114894	16
189.800003	1
190.050003	1
190.399994	1
191.119998	3
193.033332	2
197.000000	1
197.899994	1
198.800003	1
199.000000	1
199.500000	1
200.150002	1
201.325001	1
201.800003	1
202.199997	1
203.106667	5
203.699997	1
204.799995	1
205.100006	1
205.300003	1
205.525002	1
206.050003	1
207.099998	1
207.399994	1
209.199997	1
211.100006	1
211.300003	1
213.500000	1
214.600006	1
214.899994	1
215.100006	1
215.399994	1
215.800003	1
216.174999	1
216.399994	1
217.300003	1
217.500000	1
218.874996	1
219.233332	1
219.899994	1
221.100006	1
221.500000	1
221.699997	1
226.899994	1
227.150002	1
229.800003	1
230.000000	1
230.600006	1
230.800003	1
231.300003	1
231.899994	1
232.899994	1
233.100006	1
233.474998	1
234.000000	1
235.100006	1
238.699997	1
239.050003	1
241.000000	1
241.650002	1
242.399994	1
242.750000	1
243.199997	1
243.399994	1
244.399994	1
245.300003	1
245.600006	1
247.100006	1
247.399994	1
247.800003	1
251.100006	1
251.399994	1
252.449997	1
252.899994	1
254.199997	1
254.899994	1
255.299998	1
256.849991	1
257.299988	1
258.000000	1
258.200012	1
258.899994	1
259.266673	1
261.000000	1
261.450002	1
262.600006	1
263.799988	1
265.100006	1
265.299988	1
266.899994	1
267.349991	1
269.100006	1
271.100006	1
271.299988	1
271.700012	1
272.500000	1
272.899994	1
273.349991	1
279.150009	1
280.299988	1
283.100006	1
283.899994	1
284.399994	1
284.799988	1
285.000000	1
285.250000	1
285.650009	1
285.949997	1
287.200012	1
287.650009	1
288.949997	1
289.299988	1
289.500000	1
292.299988	1
293.100006	1
293.500000	1
299.500000	1
300.100006	1
301.050003	1
301.399994	1
303.100006	1
312.500000	1
313.299988	1
315.200012	1
315.500000	1
326.100006	1
327.500000	1
343.299988	1
343.600006	1
353.200012	1
356.399994	1
369.000000	1
369.899994	1
370.500000	1
370.799988	1
371.340002	2
