Mass spectrum: Estriol; LC-APPI-QQ; MS2; CE:50 V; [M-H2O+H]+
Name: Estriol
Class: Natural Product; Steroid hormone
Formula: C18H24O3
Exact mass: 288.17254
SMILES: Oc(c4)cc(C3)c(c4)C(C2)C(C3)C(C1)C(C)(C2)C(O)C(O)1
InChI: InChI=1S/C18H24O3/c1-18-7-6-13-12-5-3-11(19)8-10(12)2-4-14(13)15(18)9-16(20)17(18)21/h3,5,8,13-17,19-21H,2,4,6-7,9H2,1H3/t13?,14?,15?,16-,17+,18?/m1/s1
Instrument: API2000
Instrument type: LC-APPI-QQ
Ms type: MS2
Ion mode: POSITIVE
Retention time: 0.820850 min
Base peak: 133.199997
Precursor m/z: 271.200000
Precursor type: [M-H2O+H]+
m/z	relative intensity
38.799999	1
39.599998	1
39.900002	1
41.138461	7
42.099998	2
43.019199	65
43.900002	1
44.900000	2
45.262500	2
45.599998	1
49.500000	1
51.000000	1
51.350000	1
52.200001	1
52.650000	1
53.318182	3
54.000000	1
55.066915	105
55.700001	2
56.000000	1
56.200001	1
57.038461	3
59.150000	3
62.700001	1
62.900002	1
64.500000	2
65.286668	4
65.800003	2
67.052289	148
68.099998	1
69.115517	30
71.078205	41
71.900002	1
72.300003	1
72.649998	1
74.599998	1
74.900002	1
75.200001	1
75.816669	2
77.063682	105
79.033534	259
81.079497	269
83.163158	10
84.000000	1
84.199997	1
84.500000	1
85.107999	7
85.599998	1
86.900002	1
87.199997	1
87.900002	1
88.199999	1
89.450001	3
91.037900	285
93.010870	144
95.045260	170
96.099998	1
96.350002	1
97.089285	15
98.099998	1
98.300003	1
98.500000	1
98.800003	2
100.750000	1
101.049999	1
101.940001	3
102.400002	3
103.099107	58
105.015165	672
107.035858	271
108.300003	1
109.116949	31
109.900002	1
110.400002	1
110.779999	3
111.099998	1
111.400002	2
113.500000	3
113.914287	4
115.065507	179
116.125491	53
117.095515	58
118.099998	2
119.139998	10
121.050544	48
122.000000	1
122.199997	1
123.000000	1
123.400002	1
123.800003	1
124.250000	1
124.699997	1
124.925001	1
127.095434	114
128.078340	144
129.059426	127
131.097535	422
133.065956	999
134.474998	1
134.766668	2
135.283335	2
137.100006	1
137.399994	1
138.100006	1
138.733331	2
139.309999	5
141.099314	303
142.048840	11
144.030456	485
145.024784	241
146.264704	4
147.122679	50
148.724998	1
149.199997	1
149.600006	1
149.800003	1
150.000000	1
150.199997	1
150.399994	1
150.699997	1
150.973332	4
151.383329	3
151.972001	26
153.132501	83
155.099359	81
157.089531	715
159.071545	514
160.060004	3
161.100003	5
161.800003	1
162.500000	1
162.699997	1
163.250000	2
163.699997	2
164.033335	5
165.055634	148
166.150002	10
167.130076	69
167.974998	10
169.006849	76
171.042991	111
172.045455	23
173.041303	24
174.000000	1
174.783335	2
175.383329	2
175.775002	1
176.199997	1
177.399994	6
178.206087	60
179.086028	130
180.100006	2
181.118407	147
182.112780	163
183.115873	147
184.100001	25
185.120978	37
185.959998	1
186.300003	1
186.500000	1
186.949997	2
187.199997	1
187.600006	1
188.000000	1
188.766668	2
189.071431	2
190.066671	2
190.975002	4
191.436361	3
191.716665	2
192.199997	2
193.079221	20
194.064000	13
195.092828	65
196.071909	46
197.165651	128
198.061048	45
199.100006	2
199.330000	3
200.000000	1
200.349998	1
200.800003	1
201.100006	1
201.399994	1
202.399994	1
203.000000	1
203.300003	1
204.399994	1
205.000000	1
205.199997	1
205.550003	1
205.800003	1
206.000000	1
206.800003	2
207.341666	3
207.800003	1
208.262501	2
209.106481	28
210.189998	5
210.406244	4
211.110778	43
211.891661	3
212.207694	7
213.128002	13
214.000000	1
214.399994	1
215.049997	6
218.199997	1
218.500000	1
218.800003	1
219.199997	1
219.800003	1
220.199997	1
221.199997	1
221.849998	1
222.300003	1
222.500000	1
223.073335	8
223.800003	1
224.100006	2
224.399994	2
225.161110	9
226.935710	4
227.300003	2
227.500000	1
227.699997	1
227.899994	1
228.500000	1
228.699997	1
229.500000	1
230.699997	1
232.899994	1
234.699997	1
235.199997	1
235.399994	1
235.800003	1
236.000000	1
236.300003	1
236.699997	1
237.000000	2
237.449997	2
238.166667	3
238.500000	1
238.899994	1
239.150002	2
239.600006	1
240.150002	1
240.800003	1
241.100006	1
241.300003	1
241.899994	1
242.300003	2
242.500000	1
242.775002	1
243.100003	1
243.699997	1
248.800003	1
249.399994	1
250.100006	1
251.000000	1
251.899994	1
252.299995	1
252.600006	1
253.150003	4
255.399994	1
255.900000	1
268.299988	1
268.849991	1
269.399994	1
269.600006	1
270.399994	1
270.849991	1
271.100006	1
271.299988	1
271.600006	1
