Mass spectrum: Epicoprostanol; LC-APPI-QQ; MS2; CE:50 V; [M-H2O+H]+
Name: Epicoprostanol
Class: Natural Product; Sterol
Formula: C27H48O
Exact mass: 388.37052
SMILES: CC(C4)(C(CC(O)C4)3)C(C2)C(CC3)C(C1)C(C)(C2)C(C(C)CCCC(C)C)C1
InChI: InChI=1S/C27H48O/c1-18(2)7-6-8-19(3)23-11-12-24-22-10-9-20-17-21(28)13-15-26(20,4)25(22)14-16-27(23,24)5/h18-25,28H,6-17H2,1-5H3
Instrument: API2000, Applied
Instrument type: LC-APPI-QQ
Ms type: MS2
Ion mode: POSITIVE
Retention time: 0.820833 min
Base peak: 95.199997
Precursor m/z: 371.471000
Precursor type: [M-H2O+H]+
m/z	relative intensity
38.299999	1
38.799999	1
39.000000	1
39.350000	1
41.068000	5
43.048515	37
44.950001	1
51.000000	1
51.500000	1
51.799999	1
52.200001	1
53.360000	1
53.945455	4
55.081005	150
57.104699	125
58.500000	1
58.900002	1
59.099998	1
60.700001	1
61.000000	1
62.599998	1
63.299999	1
63.599998	1
64.000000	1
65.099998	1
67.091959	319
69.055882	324
71.072174	63
72.674997	1
73.025000	1
74.800003	1
75.199997	1
75.500000	1
76.250000	1
76.910001	7
77.800003	1
79.010661	158
81.073386	886
83.078674	268
84.325002	3
85.225926	10
85.900002	1
89.099998	1
91.042350	67
93.073927	363
95.054075	999
97.087444	82
98.049999	1
98.950001	1
99.199997	1
99.900002	1
100.699997	1
100.900002	1
101.300003	1
101.500000	1
101.699997	1
102.400002	1
103.000000	1
103.837502	1
105.009745	79
107.030604	307
109.078390	526
110.400002	2
111.044444	10
112.350002	1
113.000000	1
113.699997	1
114.400002	1
115.699997	1
116.199997	1
116.862502	1
117.500000	1
119.076470	44
121.071685	205
123.025381	108
124.250000	1
124.950001	1
125.500000	1
127.800003	1
128.199997	1
129.100006	1
129.699997	1
130.050003	1
130.500000	1
131.200000	8
133.062621	38
135.043869	135
136.100006	1
137.116038	19
137.899994	1
138.300003	1
142.399994	1
142.699997	1
143.300003	1
143.600006	1
143.899994	1
144.992592	5
147.119916	44
149.085839	63
150.000000	1
151.190911	4
151.500000	1
153.000000	1
154.899994	1
156.600006	1
157.049999	1
157.800003	1
158.150002	1
159.095555	8
159.999997	5
161.087718	21
162.387495	1
163.070000	26
163.899994	1
164.399994	1
164.800003	1
165.100006	1
165.399994	1
168.800003	1
169.199997	1
169.899994	1
171.100006	1
171.399994	1
171.750000	1
172.000000	1
172.800003	1
173.249997	4
173.699997	1
175.151431	6
175.800003	1
176.100006	1
176.399994	1
176.800003	1
177.052001	5
178.000000	1
179.249996	1
183.399994	1
184.399994	1
184.750000	1
185.000000	1
185.550003	1
186.550003	1
186.800003	1
187.379999	2
187.874996	1
188.299997	1
189.209090	20
190.300003	1
190.674999	1
191.016668	1
191.424995	1
191.800003	1
192.899994	1
193.199997	1
193.474998	1
197.699997	1
199.199997	1
199.399994	1
199.600006	1
200.000000	1
200.399994	1
200.849998	1
201.199997	1
201.899994	1
202.150002	1
202.699997	1
203.215386	5
204.000000	1
204.600006	1
205.100006	1
205.349998	1
205.699997	1
206.600006	1
206.800003	1
207.100006	1
207.600001	1
211.199997	1
213.000000	1
215.052380	4
215.600006	1
216.200005	3
217.011764	3
217.849998	1
218.799995	1
219.300003	1
220.899994	1
221.399994	1
227.100006	1
228.100006	1
228.699997	1
229.000000	1
229.399994	1
229.699997	1
230.000000	1
230.250000	1
230.899994	1
231.449997	1
232.800003	1
233.199997	1
233.800003	1
234.849998	1
239.000000	1
239.899994	1
241.100006	1
241.300003	1
244.000000	1
244.300003	1
244.550003	1
244.800003	1
245.199997	1
245.399994	1
245.800003	1
246.300003	1
247.050003	1
247.300003	1
248.699997	1
249.500000	1
251.000000	1
251.300003	1
252.000000	1
256.299988	1
257.050003	1
257.299988	1
257.799988	1
258.100006	1
258.299988	1
258.799988	1
259.050003	1
259.449997	1
260.200012	1
260.500000	1
260.899994	1
261.250000	1
261.650009	1
263.200012	1
267.200012	1
268.299988	1
268.500000	1
270.200012	1
270.700012	1
270.899994	1
271.500000	1
271.700012	1
274.500000	1
274.700012	1
275.100006	1
275.500000	1
278.200012	1
278.700012	1
279.000000	1
283.000000	1
284.799988	1
285.100006	1
285.399994	1
285.949997	1
286.600006	1
287.399994	1
288.700012	1
294.200012	1
296.500000	1
297.000000	1
297.200012	1
297.399994	1
299.000000	1
300.100006	1
300.299988	1
300.500000	1
300.799988	1
303.200012	1
311.799988	1
312.899994	1
313.500000	1
314.449997	1
315.000000	1
315.299988	1
315.600006	1
315.799988	1
316.000000	1
316.799988	1
323.750000	1
326.600006	1
327.200012	1
327.500000	1
328.100006	1
328.299988	1
329.799988	1
339.600006	1
341.899994	1
343.100006	1
353.399994	1
356.150002	1
356.700012	1
356.899994	1
369.100006	1
369.799988	1
371.150009	1
