Mass spectrum: Dihydrotestosterone; LC-APPI-QQ; MS2; CE:10 V; [M+H]+
Name: Dihydrotestosterone
Class: Natural Product; Steroid hormone
Formula: C19H30O2
Exact mass: 290.22458
SMILES: O=C(C4)CC([H])(C3)C(C)(C4)C(C2)C(C3)C(C1)C(C)(C2)C(O)C1
InChI: InChI=1S/C19H30O2/c1-18-9-7-13(20)11-12(18)3-4-14-15-5-6-17(21)19(15,2)10-8-16(14)18/h12,14-17,21H,3-11H2,1-2H3/t12-,14?,15?,16?,17-,18?,19?/m0/s1
Instrument: API2000
Instrument type: LC-APPI-QQ
Ms type: MS2
Ion mode: POSITIVE
Retention time: 0.820833 min
Base peak: 291.100006
Precursor m/z: 291.300000
Precursor type: [M+H]+
m/z	relative intensity
80.500000	1
81.199997	1
90.800003	1
91.000000	1
98.900002	1
100.900002	1
104.699997	1
104.900002	1
106.800003	2
107.400002	2
109.199997	1
120.800003	1
127.000000	1
129.100006	1
131.199997	1
132.800003	1
135.000000	1
139.199997	1
143.899994	1
144.899994	4
145.500000	1
147.100006	2
150.800003	1
156.899994	1
158.000000	1
159.000000	3
159.300003	1
163.100006	1
164.899994	1
165.100006	1
167.199997	1
171.300003	1
171.500000	1
172.500000	1
172.699997	1
173.349998	4
174.699997	2
177.100006	1
177.399994	1
182.399994	1
182.899994	1
183.250000	2
184.399994	1
184.699997	1
185.100001	6
185.399994	1
187.000000	1
196.750000	2
197.000000	2
197.199997	2
198.100006	1
199.062504	17
199.399994	5
199.899994	2
200.750000	2
201.199997	1
201.449997	2
203.000000	2
205.399994	1
207.199997	1
209.100006	1
213.000000	3
213.500000	1
214.000000	1
214.600006	1
215.100006	4
215.424995	4
217.100006	3
218.699997	1
219.399994	1
225.699997	1
226.899994	1
227.199997	1
228.199997	1
228.899994	1
229.100006	1
229.449997	2
231.000000	3
231.300003	1
231.500000	1
232.699997	1
233.500000	1
235.199997	2
237.600006	1
241.399994	1
244.399994	1
245.050003	2
245.600001	6
249.100006	1
254.000000	1
254.399994	1
254.699997	6
255.275002	51
256.100006	1
258.899994	3
259.315383	14
263.100006	4
273.172233	19
273.799988	1
276.100006	1
288.200012	1
289.399994	1
289.899994	2
290.200012	2
291.315727	999
