Mass spectrum: Oseltamivir acid; LC-APPI-QQ; MS2; CE40; [M+H]+
Name: Oseltamivir acid
Class: Non-Natural Product
Formula: C14H24N2O4
Exact mass: 284.17361
SMILES: CCC(CC)OC(C=1)C(NC(C)=O)C(N)CC(C(O)=O)1
InChI: InChI=1S/C14H24N2O4/c1-4-10(5-2)20-12-7-9(14(18)19)6-11(15)13(12)16-8(3)17/h7,10-13H,4-6,15H2,1-3H3,(H,16,17)(H,18,19)/t11-,12+,13+/m0/s1
Instrument: API2000, Applied
Instrument type: LC-APPI-QQ
Ms type: MS2
Ion mode: POSITIVE
Collision energy: 40V
Retention time: 0.820850 min
Base peak: 94.199997
Precursor m/z: 285.2
Precursor type: [M+H]+
m/z	relative intensity
39.000000	1
40.150000	1
41.037499	1
43.094103	48
44.041379	3
44.875001	1
45.799999	1
46.099999	1
47.200001	1
50.799999	1
51.099998	1
51.799999	1
52.700001	1
53.050000	1
53.500000	1
54.099998	1
54.299999	1
54.922223	1
55.200001	1
55.400002	1
55.699999	1
56.099998	1
56.400002	1
57.133333	1
57.700001	1
58.200001	1
60.093137	60
61.799999	1
62.400002	1
63.200001	1
63.700001	1
63.900002	1
64.099998	1
65.125000	27
65.812503	1
67.099724	85
68.086070	24
69.066666	1
69.599998	1
70.025000	1
71.071739	11
71.800003	1
72.049999	1
72.900002	1
73.699997	1
74.099998	1
74.599998	1
75.266668	1
77.072713	74
79.441668	1
80.047873	11
80.800003	1
81.137498	2
82.211940	16
83.065534	24
83.933334	1
84.300003	1
84.699997	1
85.199997	1
85.900002	1
86.400002	1
87.175000	2
89.199997	1
89.800003	1
90.300003	1
90.716665	1
92.079036	112
94.061453	999
96.039999	1
96.500000	1
96.950001	1
98.049999	1
98.950001	1
99.599998	1
100.099998	1
100.400002	1
100.900002	1
101.699997	1
102.099998	1
102.950001	1
103.350002	1
103.800003	1
104.300003	1
104.771429	1
105.275001	2
106.091999	3
106.941668	1
107.336365	1
109.068258	84
110.044378	59
111.023793	34
111.992308	3
112.900002	1
114.099998	1
114.900002	1
115.199997	1
116.099998	1
116.300003	1
116.599998	1
116.800003	1
120.020875	655
121.699997	1
122.000000	1
122.250000	1
123.000000	1
123.300001	1
123.800001	1
124.099998	1
124.500000	1
124.800003	1
125.333333	1
126.043478	3
126.400002	1
128.000003	1
128.300003	1
129.199997	1
130.449997	1
130.750000	1
131.000000	1
131.349998	1
131.600006	1
131.800003	1
132.100006	1
132.399994	1
133.082431	9
134.112902	22
138.039861	644
139.699997	1
139.899994	1
140.899994	1
143.800003	1
144.300003	1
144.699997	1
145.100001	1
146.000000	1
147.699997	1
148.199997	1
149.199997	1
149.899994	1
150.100006	1
150.868747	2
151.143752	2
151.699997	1
151.899994	1
152.100006	1
152.525002	1
152.800003	1
153.000000	1
153.250000	1
153.500000	1
153.977776	1
154.399994	1
156.039674	22
156.899994	1
158.199997	1
158.600006	1
159.000000	1
159.699997	1
160.100006	1
162.117223	42
162.800003	1
163.000000	1
165.100006	1
165.300003	1
167.000000	1
167.800003	1
168.100006	1
169.050003	1
169.449997	1
170.399994	1
170.699997	1
170.899994	1
171.100006	1
171.500000	1
172.199997	1
172.899994	1
173.300003	1
175.100006	1
176.800003	1
177.150002	1
177.600001	1
179.066667	3
180.056945	17
181.200002	1
181.899994	1
182.100006	1
182.449997	1
183.800003	1
184.100006	1
185.800003	1
187.100006	1
187.399994	1
188.100006	1
189.199997	1
190.399994	1
191.250000	1
192.500000	1
192.800003	1
193.800003	1
195.100006	1
195.699997	1
196.399994	1
198.138889	21
200.800003	1
201.100006	1
201.800003	1
202.500000	1
207.000000	1
208.699997	1
209.899994	1
212.199997	1
214.100006	1
215.000000	1
216.300003	1
219.800003	1
223.000000	1
225.150002	1
225.399994	1
225.899994	1
226.299995	1
227.100006	1
228.399994	1
229.100006	1
229.399994	1
229.899994	1
232.100006	1
238.199997	1
238.500000	1
238.800003	1
239.100006	1
239.500000	1
240.199997	1
241.199997	1
241.449997	1
241.899994	1
252.000000	1
252.899994	1
253.100006	1
253.399994	1
255.100001	1
257.000000	1
257.399994	1
268.100006	1
268.299988	1
269.399994	1
270.449997	1
284.899994	1
285.200002	1
285.500000	1
