Mass spectrum: Oseltamivir acid; LC-APPI-QQ; MS2; CE20; [M+H]+
Name: Oseltamivir acid
Class: Non-Natural Product
Formula: C14H24N2O4
Exact mass: 284.17361
SMILES: CCC(CC)OC(C=1)C(NC(C)=O)C(N)CC(C(O)=O)1
InChI: InChI=1S/C14H24N2O4/c1-4-10(5-2)20-12-7-9(14(18)19)6-11(15)13(12)16-8(3)17/h7,10-13H,4-6,15H2,1-3H3,(H,16,17)(H,18,19)/t11-,12+,13+/m0/s1
Instrument: API2000, Applied
Instrument type: LC-APPI-QQ
Ms type: MS2
Ion mode: POSITIVE
Collision energy: 20V
Retention time: 0.820867 min
Base peak: 197.199997
Precursor m/z: 285.2
Precursor type: [M+H]+
m/z	relative intensity
41.200001	1
41.599998	1
42.000000	1
42.350000	1
42.750000	1
43.064705	2
43.900002	1
44.200001	1
45.000000	1
45.200001	1
54.950001	1
55.500000	1
57.000000	1
58.599998	1
59.000000	1
59.200001	1
60.069105	16
65.149998	1
65.400002	1
67.180002	1
68.049999	1
68.400002	1
69.000000	1
70.300003	1
70.583332	1
71.157143	7
71.900002	1
72.400002	1
76.049999	1
76.300003	1
77.066668	1
77.699997	1
78.900002	1
79.250000	1
79.900002	1
80.199997	1
80.400002	1
80.850002	1
81.250000	1
81.900002	1
82.300001	1
82.699997	1
83.000000	1
83.350002	1
84.500000	1
85.000000	1
85.500000	1
85.936365	3
86.890911	3
87.649998	1
89.500000	1
89.900002	1
90.400002	1
91.500000	1
92.133334	3
94.055461	154
96.149998	1
96.500000	1
97.174997	1
98.199997	1
98.500000	1
99.300003	1
104.199997	1
104.400002	1
104.950001	1
105.300003	1
105.987500	2
106.400002	1
106.599998	1
106.800003	1
107.199997	1
107.599998	1
108.000000	1
109.093104	4
110.068421	8
111.043860	15
111.941668	3
112.500000	1
112.900002	1
114.000000	1
115.900002	1
117.699997	1
117.900002	1
118.283335	1
119.996239	119
120.959614	7
122.800003	1
123.400002	1
125.099998	1
125.599998	1
126.000000	1
126.199997	1
127.099998	1
127.300003	1
127.900002	1
130.800003	1
131.800003	1
132.300003	1
133.000000	1
133.266668	1
133.500000	1
134.000000	1
134.699997	1
135.000000	1
135.300003	1
138.029091	999
140.800003	1
141.000000	1
141.300003	1
143.199997	1
146.699997	1
146.899994	1
148.849998	1
149.399994	1
151.051851	7
152.199997	1
152.399994	1
153.255556	2
155.115388	7
156.017707	13
158.899994	1
159.300003	1
159.600001	1
160.100006	1
162.047771	62
162.899999	1
163.949997	1
164.349998	1
165.100006	1
165.500000	1
166.300003	1
167.000000	1
167.750000	1
168.000000	1
168.250000	1
168.899994	1
169.250000	1
169.600006	1
171.399994	1
172.600006	1
172.800003	1
173.050003	1
173.449997	1
175.000000	1
175.199997	1
176.949997	1
180.114327	813
181.399994	1
182.000000	1
184.500000	1
185.100006	1
190.699997	1
191.199997	1
192.800003	1
193.399994	1
193.699997	1
193.899994	1
194.300003	1
194.500000	1
194.699997	1
197.147943	906
198.120675	363
201.200002	1
201.500000	1
202.800003	1
203.050003	1
207.199997	1
207.399994	1
207.874996	1
208.500000	1
209.300003	1
211.000000	1
211.250000	1
211.600006	1
212.199997	1
212.399994	1
213.300003	1
213.500000	1
215.138944	394
216.199997	1
217.399994	1
220.699997	1
224.750000	1
225.400002	1
226.062500	2
227.899994	1
228.899994	1
232.100006	1
235.600006	1
239.500000	1
241.000000	1
241.199997	1
248.800003	1
250.199997	1
250.449997	1
252.250000	1
252.800003	1
253.075005	1
253.300003	1
253.700002	1
254.100006	1
255.199997	1
255.399994	1
257.000000	1
257.250000	1
257.500000	1
265.299988	1
266.774994	1
267.349991	1
268.211820	68
269.349991	1
270.299988	1
282.500000	1
283.100006	1
284.000000	1
285.250578	205
286.200012	1
