Mass spectrum: 44m2PFOS; LC-ESI-QQ; MS2; CE20eV
Name: 44m2PFOS
Class: Non-Natural Product
Formula: C8HF17O3S
Exact mass: 499.93749
SMILES: FC(F)(F)C(F)(F)C(C(F)(F)F)(C(F)(F)F)C(F)(F)C(F)(F)C(F)(F)S(O)(=O)=O
InChI: InChI=1S/C8HF17O3S/c9-2(10,4(13,14)8(24,25)29(26,27)28)1(5(15,16)17,6(18,19)20)3(11,12)7(21,22)23/h(H,26,27,28)
Instrument: Xevo TQ, Waters
Instrument type: LC-ESI-QQ
Ms type: MS2
Ion mode: NEGATIVE
Collision energy: 20eV
Retention time: 12.547684 min
Base peak: 499.049835
Precursor m/z: 498.9
Precursor type: [M-H]-
m/z	relative intensity
99.234338	63
179.948738	24
230.220239	216
268.894161	593
279.761627	123
319.123967	327
498.908106	999
