Mass spectrum: Stigmasterol; LC-APPI-QQ; MS2; CE:40 V; [M-H2O+H]+
Name: Stigmasterol
Class: Natural Product; Sterol
Formula: C29H48O
Exact mass: 412.37052
SMILES: C(C4)C(C(CC4O)=3)(C(C(CC3)2)CCC(C21)(C(CC1)C(C)C=CC(C(C)C)CC)C)C
InChI: InChI=1S/C29H48O/c1-7-21(19(2)3)9-8-20(4)25-12-13-26-24-11-10-22-18-23(30)14-16-28(22,5)27(24)15-17-29(25,26)6/h8-10,19-21,23-27,30H,7,11-18H2,1-6H3/b9-8+/t20?,21?,23-,24?,25?,26?,27?,28?,29?/m0/s1
Instrument: API2000
Instrument type: LC-APPI-QQ
Ms type: MS2
Ion mode: POSITIVE
Retention time: 0.820850 min
Base peak: 83.000000
Precursor m/z: 395.500000
Precursor type: [M-H2O+H]+
m/z	relative intensity
39.049999	1
39.299999	1
40.500000	1
41.000000	3
41.358334	5
41.700001	1
42.000000	1
42.299999	3
43.106667	50
51.200001	1
52.400002	1
52.700001	1
53.250000	2
53.700001	1
55.081228	116
57.156250	222
57.950001	2
58.299999	1
64.000000	1
64.500000	1
64.800003	1
65.099998	1
65.300003	1
65.599998	1
65.933334	3
67.150857	147
69.095545	679
71.144216	225
75.300003	1
76.199997	1
76.500000	1
77.227271	5
79.030825	117
81.129362	850
83.112679	998
85.114728	108
85.900002	1
86.199997	1
87.300003	1
89.000000	1
89.300003	1
89.950001	3
91.068136	124
93.105531	380
95.069205	999
97.138532	275
98.350002	2
98.944445	4
99.199997	5
99.699997	1
102.000000	1
102.199997	1
103.400002	3
104.099998	9
105.041417	350
107.058855	470
109.120437	790
111.086138	85
112.300003	1
112.900002	1
113.300003	1
114.500000	1
115.000000	2
115.199997	1
117.084482	49
119.090313	295
119.735713	6
121.131068	433
122.012500	3
123.102162	233
123.800003	1
124.375002	2
124.800003	5
125.220409	21
125.800003	1
127.300003	1
127.916668	3
128.199997	2
129.245454	9
130.214817	11
131.131989	135
133.142206	377
135.132340	578
137.179592	124
137.800003	1
138.000000	1
138.500000	1
138.899994	2
139.314283	6
139.600006	1
140.699997	1
140.899994	1
141.250000	2
141.699997	1
142.050003	3
143.065115	36
145.103870	391
147.150197	856
149.148632	399
149.899994	1
151.172973	31
152.600006	1
153.100006	1
153.699997	1
155.330000	4
157.140910	55
159.125920	720
161.145196	770
163.194312	177
164.349998	1
165.050003	8
165.355554	11
165.699997	1
167.199997	1
167.899994	1
168.300003	1
168.600006	1
168.874996	2
169.100006	1
169.374996	2
169.699997	1
170.139999	2
171.066460	68
171.800003	1
173.196489	551
174.100006	5
175.177384	308
175.899994	1
176.100006	1
176.300003	1
177.225000	74
178.100006	1
179.300003	6
181.000000	1
181.199997	1
182.100006	1
182.699997	1
183.219998	4
185.217427	101
186.155173	12
187.166272	390
188.100006	1
189.223729	248
189.899994	1
191.122974	31
192.500000	1
192.699997	1
192.909995	4
193.299998	8
194.899994	1
195.100006	1
195.600006	1
195.899999	1
196.800003	3
197.000000	3
197.263633	5
199.207946	254
201.174896	506
202.100006	1
202.300003	2
203.234879	190
204.399994	1
205.193750	27
206.000000	1
206.199997	1
206.500000	1
207.261112	8
207.500000	5
207.699997	1
208.199997	1
208.500000	1
209.000000	1
210.100001	1
211.141669	5
211.399994	3
212.270590	7
213.238095	291
215.227308	437
216.199997	1
217.303388	50
218.349998	2
219.109525	9
219.438885	8
220.000000	1
220.399994	1
221.157144	6
221.500000	4
222.300003	1
222.849998	1
223.100006	1
224.100006	1
225.264284	12
226.062504	7
227.275048	221
229.240179	188
230.300003	1
231.170833	40
233.331110	19
233.699997	3
234.000000	1
234.750000	2
235.118182	5
235.500000	3
237.000000	1
237.899994	1
238.100006	1
238.300003	1
238.800003	3
239.087505	7
240.100006	3
240.399994	5
241.333219	245
242.300003	2
243.318604	54
244.500000	1
245.289190	31
246.199997	1
246.600006	1
247.355554	19
248.800003	1
249.399994	1
249.699997	1
251.199997	1
251.399994	1
251.800003	1
252.650002	1
253.372726	18
255.331332	322
256.279999	4
257.326087	58
259.408826	29
260.200012	1
261.283335	10
262.299988	1
262.899994	1
265.000000	1
265.700012	1
266.700012	1
267.250000	6
268.279999	4
269.336491	120
270.000000	1
270.200012	1
270.600006	1
271.395738	20
272.100006	1
272.399994	1
273.322034	25
275.100006	1
275.299988	1
275.550003	1
276.949997	1
278.600006	1
279.399994	1
279.600006	1
280.899994	1
281.299988	3
283.305645	104
284.200012	1
285.362281	96
286.600006	1
287.395994	21
288.100006	1
289.200012	1
289.399994	1
291.000000	1
291.399994	1
293.200012	1
294.299988	1
294.750000	1
295.200012	2
295.500000	3
295.799988	1
297.322840	234
298.299998	3
299.338350	31
300.399994	1
301.050003	4
301.299988	3
301.799988	1
302.399994	1
303.399994	1
307.000000	1
307.899994	1
308.399994	1
309.200012	2
309.500000	2
309.799998	1
310.100006	1
310.399994	1
311.388133	99
312.200012	1
312.399994	1
312.700012	1
313.347614	35
314.899994	1
315.100006	1
315.399994	1
315.600006	1
322.399994	1
322.700012	1
323.500000	1
323.700012	1
324.200012	1
324.799988	1
325.393744	7
326.100006	1
326.299988	1
326.600006	1
327.399994	4
327.899994	1
328.500000	1
329.000000	1
335.100006	1
337.299988	1
337.700012	1
338.000000	1
338.200012	1
338.399994	1
339.487098	26
340.399994	1
341.000000	1
341.200012	1
351.299988	1
352.200012	1
352.500000	1
353.000000	3
353.443997	11
363.600006	1
364.500000	1
366.150009	1
366.399994	1
367.274994	2
367.625008	3
377.399994	1
380.000000	1
380.233337	3
380.600006	1
381.000000	1
393.100006	1
393.399994	1
394.100006	1
394.299988	2
395.463175	546
397.500000	1
