Mass spectrum: 2mPFOS; LC-ESI-QQ; MS2; CE60eV
Name: 2mPFOS
Class: Non-Natural Product
Formula: C8HF17O3S
Exact mass: 499.93749
SMILES: FC(F)(F)C(F)(F)C(F)(F)C(F)(F)C(F)(F)C(F)(C(F)(F)F)C(F)(F)S(O)(=O)=O
InChI: InChI=1S/C8HF17O3S/c9-1(6(18,19)20,8(24,25)29(26,27)28)2(10,11)3(12,13)4(14,15)5(16,17)7(21,22)23/h(H,26,27,28)
Instrument: Xevo TQ, Waters
Instrument type: LC-ESI-QQ
Ms type: MS2
Ion mode: NEGATIVE
Collision energy: 60eV
Retention time: 15.161834 min
Base peak: 98.971977
Precursor m/z: 498.9
Precursor type: [M-H]-
m/z	relative intensity
79.743129	999
82.912576	194
99.005582	677
218.677678	233
422.633262	150
