Mass spectrum: Ethinyl estradiol; LC-APPI-QQ; MS2; CE:50 V; [M-H2O+H]+
Name: Ethinyl estradiol
Class: Non-Natural Product; Steroid hormone
Formula: C20H24O2
Exact mass: 296.17763
SMILES: Oc(c4)cc(C3)c(c4)C(C2)C(C3)C(C1)C(C)(C2)C(O)(C#C)C1
InChI: InChI=1S/C20H24O2/c1-3-20(22)11-9-18-17-6-4-13-12-14(21)5-7-15(13)16(17)8-10-19(18,20)2/h1,5,7,12,16-18,21-22H,4,6,8-11H2,2H3
Instrument: API2000
Instrument type: LC-APPI-QQ
Ms type: MS2
Ion mode: POSITIVE
Retention time: 0.820850 min
Base peak: 133.100006
Precursor m/z: 279.300000
Precursor type: [M-H2O+H]+
m/z	relative intensity
38.966666	1
39.299999	1
40.000000	1
41.143976	17
42.357143	1
43.069444	7
44.000000	1
44.200001	1
45.200001	1
46.950001	1
49.799999	1
50.299999	1
50.799999	1
51.114286	1
51.400002	1
51.900002	1
53.093056	7
53.799999	1
55.085766	82
56.099998	1
56.450001	1
57.115000	2
57.700001	1
58.500000	1
58.799999	1
59.450001	1
61.700001	1
62.799999	1
63.200001	1
63.700001	1
64.000000	1
65.074313	22
67.119286	103
67.900002	1
69.169999	10
69.800003	1
70.000000	1
70.699997	1
71.300003	1
71.500000	1
73.199997	1
73.699997	1
74.000000	1
74.199997	1
74.500000	1
74.900002	1
75.250000	1
75.750000	2
77.048256	188
79.046004	316
81.117527	102
82.350002	1
82.900002	1
83.283335	1
84.699997	1
85.099998	1
85.500000	1
86.400002	1
87.300003	1
87.699997	1
87.950001	1
91.069633	731
93.095842	89
95.062865	68
95.950001	1
96.199997	1
96.950001	1
97.300003	1
97.500000	1
99.800003	1
103.090754	123
105.048725	999
107.038206	201
107.800003	1
109.062500	3
110.900002	1
112.149998	1
112.400002	1
112.599998	1
112.800003	1
115.065704	227
116.133292	81
117.075766	68
119.059202	97
121.045509	33
122.000000	1
123.062499	2
123.500000	1
124.500000	1
125.099998	1
127.070064	94
128.077149	116
129.079180	121
131.126111	363
133.093065	694
134.300003	1
134.984614	1
137.349998	1
138.000000	1
141.110839	297
142.086022	19
144.054646	478
145.063756	75
147.112443	44
147.800003	1
148.199997	1
149.050003	3
150.100006	1
150.300003	1
151.211541	5
152.126726	45
153.103489	51
154.080000	14
155.096032	25
157.144712	269
159.119015	458
159.899994	1
161.000001	1
162.000000	1
162.199997	1
163.014816	3
163.462498	2
165.099842	126
166.111540	18
167.118606	30
169.086667	36
170.103555	22
171.119795	29
172.235000	4
173.088543	10
174.600006	1
174.899994	1
177.156790	24
178.122365	31
179.142388	33
181.102864	90
182.144325	37
183.135088	34
184.380765	3
185.103398	20
186.100006	1
186.449997	1
187.000000	1
187.199997	1
187.399994	1
187.600006	1
189.130509	12
191.150672	30
194.136648	89
195.170992	52
196.064152	11
197.123587	11
198.175000	4
199.138096	2
200.000000	1
200.362497	1
200.992654	24
202.106452	9
203.146622	15
204.600006	2
205.198864	18
207.114078	41
208.128443	33
209.134579	64
210.000000	2
210.999999	6
211.899994	1
212.300003	1
212.699997	1
213.271428	1
214.399994	1
215.055556	2
216.189476	2
216.899994	1
217.354543	3
217.899994	1
218.199997	1
219.120001	10
220.164515	12
221.127879	33
222.123532	7
223.100000	24
224.399994	1
225.100006	1
225.399994	1
225.600006	1
226.100006	1
226.899994	1
227.300003	1
227.600006	1
228.000000	1
228.300003	1
228.800003	1
229.240002	1
229.699997	1
230.150002	1
230.399994	1
231.221427	1
231.800003	1
232.200000	1
233.165218	5
234.108335	5
235.137159	18
236.168934	10
237.285999	5
238.239999	1
238.600006	1
241.100006	1
241.300003	1
242.500000	1
243.000000	1
243.250000	1
244.199997	1
244.899994	1
245.100006	1
245.300003	1
245.949997	1
246.199997	1
246.399994	1
247.220003	2
248.287498	2
249.197436	8
250.233332	2
251.251853	3
252.100006	1
252.699997	1
257.600006	1
258.200012	1
259.100006	1
259.600006	1
260.000000	1
260.449997	1
261.000000	1
261.500000	1
261.799988	1
262.200012	1
262.500000	1
263.273340	3
264.200012	2
264.454164	2
274.899994	1
275.299988	1
276.100006	1
277.200012	1
277.600006	1
277.799988	1
278.100006	1
278.600006	1
279.327273	2
