Mass spectrum: Stigmastanol; LC-APPI-QQ; MS2; CE:30 V; [M-H2O+H]+
Name: Stigmastanol
Class: Natural Product; Sterol
Formula: C29H52O
Exact mass: 416.40182
SMILES: C(C4)C(C(CC4O)3)(C(C(CC3)2)CCC(C21)(C(CC1)C(C)CCC(C(C)C)CC)C)C
InChI: InChI=1S/C29H52O/c1-7-21(19(2)3)9-8-20(4)25-12-13-26-24-11-10-22-18-23(30)14-16-28(22,5)27(24)15-17-29(25,26)6/h19-27,30H,7-18H2,1-6H3/t20?,21?,22?,23-,24?,25?,26?,27?,28?,29?/m0/s1
Instrument: API2000
Instrument type: LC-APPI-QQ
Ms type: MS2
Ion mode: POSITIVE
Retention time: 0.820833 min
Base peak: 399.600006
Precursor m/z: 399.500000
Precursor type: [M-H2O+H]+
m/z	relative intensity
40.500000	1
40.700001	1
41.287499	3
41.900002	1
43.099998	1
45.105336	348
45.900002	1
46.599998	1
47.400002	1
51.299999	1
51.599998	1
53.400002	1
53.700001	1
53.900002	1
54.099998	1
55.116477	65
57.112832	252
58.500000	1
59.046429	10
60.400002	1
62.599998	1
63.299999	1
65.199997	1
65.900002	1
66.500000	3
66.967214	23
69.075676	110
69.900002	2
71.108290	72
72.099998	1
73.049999	1
73.300003	1
76.900002	2
77.599998	1
78.400002	1
78.850002	4
79.250000	7
81.127307	294
81.800003	4
83.122642	276
83.900002	3
84.099998	1
85.097127	65
87.000000	1
87.500000	1
88.800003	1
89.066666	4
89.400002	1
90.500000	1
91.099998	1
91.325003	1
92.000000	1
93.104801	46
95.035908	549
97.152585	166
99.044086	69
99.699997	2
101.084127	234
102.300003	1
102.500000	1
102.800003	1
103.400002	1
103.599998	1
103.800003	1
104.500000	1
104.699997	4
105.300003	2
105.975000	1
107.086000	74
109.119241	441
111.083123	176
112.199997	1
112.400002	1
112.599998	1
113.000000	4
113.300003	3
118.199997	1
118.400002	1
118.812501	6
119.162498	6
119.699997	1
121.079105	224
121.900002	4
122.099998	5
123.050365	306
124.000000	1
124.199997	1
125.145686	73
125.825003	1
126.400002	1
126.800003	1
127.099998	3
127.599998	1
128.800003	1
129.150002	1
129.500000	1
130.800003	1
131.000000	1
131.199997	1
132.150002	1
132.583338	2
133.126088	17
133.923529	6
134.263637	8
135.137899	326
136.000000	3
137.135130	200
138.300003	1
138.869227	10
139.100006	8
140.924995	1
141.199997	1
141.399994	1
142.100006	1
143.007446	70
144.500000	1
144.849998	1
145.474998	1
146.300003	1
147.190910	25
148.343474	9
149.145883	402
150.000000	2
150.199997	3
151.199270	102
151.800003	1
152.000000	1
152.600006	1
153.000000	4
153.439998	4
154.699997	1
155.100006	1
155.349998	1
157.100006	1
157.699997	1
158.600006	1
158.949997	1
159.399994	1
160.275002	1
161.166667	22
163.200000	257
164.125004	1
165.169159	80
166.600006	1
167.150002	1
167.500000	1
167.699997	1
168.100006	1
168.899994	2
169.199997	1
169.399994	1
171.000000	1
172.600006	1
172.974998	3
173.750000	1
174.399994	1
175.160344	43
176.000000	1
177.257659	216
178.399999	1
179.291820	41
181.150002	2
181.399994	1
184.000000	1
184.849998	1
185.100006	1
186.100006	1
186.800003	1
187.349998	2
187.600006	1
187.800003	1
189.220482	185
190.199997	1
191.160869	68
192.199997	1
192.500000	1
193.323076	29
194.000000	1
195.300003	1
196.899994	1
199.118885	327
200.100006	1
200.500000	1
201.500000	2
202.199997	1
203.245425	118
204.399994	2
205.190728	56
206.399994	1
207.235954	33
208.899994	1
213.250000	1
214.800003	1
215.000000	1
215.237499	3
215.500000	3
216.275000	6
217.294326	105
218.300003	1
218.600006	1
219.376363	20
221.241096	54
223.100006	1
223.600006	1
224.800003	2
225.387495	3
227.000000	1
227.500000	1
229.000000	1
229.250000	1
230.000000	1
230.439999	2
231.046001	37
232.100006	1
232.500000	1
233.415000	15
234.150002	1
234.399994	1
235.287793	79
236.000000	1
237.000000	1
240.899994	1
241.399994	1
243.500000	4
243.949997	1
245.343182	33
245.899994	1
246.600006	1
247.312244	18
247.949997	1
248.800003	1
249.116665	9
251.199997	1
254.874996	1
255.100006	1
255.399999	2
256.799988	1
257.500000	1
258.000000	1
258.500000	1
258.700012	1
259.357718	55
260.600006	1
261.429162	18
262.449997	1
263.278564	5
265.299988	1
268.399994	1
269.600006	1
270.000000	1
271.600006	1
271.799988	1
272.299988	1
273.459088	16
274.100006	1
274.399994	1
274.600006	1
275.415685	38
277.175011	1
277.575005	1
277.899994	1
282.899994	1
283.600006	1
285.299988	1
285.899994	1
286.299988	1
287.351512	25
288.399994	1
289.404215	62
291.100006	1
291.299988	2
291.560004	2
292.000000	1
293.100006	1
293.500000	1
298.299988	1
299.217858	83
300.100006	1
300.500000	1
301.244443	27
302.600006	1
303.429548	33
304.799988	1
305.000000	1
305.500000	1
305.799988	1
306.100006	1
307.299988	1
311.299988	1
313.100006	1
314.650009	1
315.233334	16
316.399994	1
316.700012	1
317.396423	21
319.000000	1
324.200012	1
324.799988	1
325.399994	1
327.399994	1
327.799988	1
328.600006	1
329.461116	13
331.366659	2
331.675011	1
331.899994	1
339.700012	1
341.750000	1
342.550003	1
342.799988	1
343.458335	18
345.600006	1
355.250000	1
355.899994	1
356.399994	1
357.299988	1
357.650002	1
363.299988	1
370.600006	1
371.100006	1
371.600006	1
381.299988	1
381.600006	1
383.899994	1
384.799988	1
396.700012	1
396.899994	1
397.500000	1
397.799988	1
398.283325	2
399.490470	999
400.899994	1
