Mass spectrum: Epicoprostanol; LC-APPI-QQ; MS2; CE:10 V; [M-H2O+H]+
Name: Epicoprostanol
Class: Natural Product; Sterol
Formula: C27H48O
Exact mass: 388.37052
SMILES: CC(C4)(C(CC(O)C4)3)C(C2)C(CC3)C(C1)C(C)(C2)C(C(C)CCCC(C)C)C1
InChI: InChI=1S/C27H48O/c1-18(2)7-6-8-19(3)23-11-12-24-22-10-9-20-17-21(28)13-15-26(20,4)25(22)14-16-27(23,24)5/h18-25,28H,6-17H2,1-5H3
Instrument: API2000, Applied
Instrument type: LC-APPI-QQ
Ms type: MS2
Ion mode: POSITIVE
Retention time: 0.820850 min
Base peak: 371.299988
Precursor m/z: 371.471000
Precursor type: [M-H2O+H]+
m/z	relative intensity
55.299999	1
68.599998	1
70.950001	1
71.300003	1
80.699997	1
81.183331	1
82.800003	1
83.000000	1
83.199997	1
83.450001	1
93.300001	1
93.900002	1
94.875002	1
96.199997	1
96.900002	1
98.400002	1
98.800003	1
105.000000	1
106.199997	1
106.800003	1
107.300003	1
107.900002	1
108.300003	1
109.081820	2
109.699997	1
110.099998	1
110.800003	1
111.000000	1
112.199997	1
112.699997	1
113.099998	1
118.300003	1
119.099998	1
119.599998	1
120.000000	1
120.500000	1
120.864288	1
121.300003	1
121.500000	1
121.800003	1
123.022222	1
123.599998	1
124.099998	1
124.500000	1
124.699997	1
125.400002	1
125.599998	1
127.099998	1
128.150002	1
128.949997	1
129.199997	1
133.000000	1
133.300003	1
133.500000	1
133.800003	1
134.100006	1
134.938885	1
135.289474	1
135.949997	1
136.199997	1
136.500000	1
136.800003	1
137.313332	1
137.699997	1
139.100001	1
139.399994	1
146.800003	1
147.100006	1
147.399994	1
148.300003	1
149.086541	4
150.100006	1
150.399999	1
150.846151	1
151.338461	2
152.899994	1
159.600006	1
160.699997	1
161.000000	1
161.199997	1
161.800003	1
162.050003	1
162.300003	1
163.094450	1
163.800003	1
164.199997	1
164.449997	1
165.079312	2
167.100006	1
167.300003	1
169.000000	1
174.500000	1
174.799998	1
175.300003	1
177.189998	2
177.699997	1
178.300003	1
179.044446	1
181.199997	1
184.699997	1
185.000000	1
188.600002	1
188.991304	2
191.058332	2
192.050003	1
192.300003	1
192.600006	1
192.869997	1
193.212503	1
194.600006	1
195.150002	1
195.399994	1
200.800003	1
202.100006	1
202.854542	1
203.211110	1
203.699997	1
203.899994	1
204.800003	1
205.325001	1
207.166667	4
209.399994	1
214.800003	1
215.299998	1
216.000000	1
216.500000	1
217.133335	2
217.600006	1
217.849998	1
218.399994	1
219.000000	1
219.437496	1
220.899994	1
227.100006	1
229.100006	1
229.300003	1
230.300003	1
230.600006	1
230.800003	1
231.164287	2
232.199997	1
232.399994	1
233.020001	1
233.441663	1
234.000000	1
234.600006	1
235.140002	1
235.500000	1
241.399999	1
242.199997	1
244.100006	1
244.300003	1
244.500000	1
245.143752	2
245.500000	1
245.800003	1
246.000000	1
247.246155	2
247.543753	1
249.199997	1
249.500000	1
249.699997	1
255.000000	1
257.700012	1
258.299988	1
258.600006	1
259.116667	3
259.569235	1
260.299988	1
261.152271	3
263.200012	1
263.500000	1
273.112507	1
273.725006	1
275.281394	3
275.899994	1
277.000000	1
285.399994	1
286.799988	1
287.100006	1
288.399994	1
288.899994	1
289.130008	1
289.541669	1
296.299988	1
299.799988	1
300.349991	1
301.299988	1
301.583338	1
302.100006	1
303.000000	1
311.200012	1
313.349991	1
314.100006	1
314.449997	1
315.000000	1
315.200012	1
315.500000	1
316.799988	1
328.500000	1
329.299988	1
329.500000	1
338.700012	1
339.100006	1
342.399994	1
352.899994	1
353.200012	1
353.500000	1
353.700012	1
354.299988	1
354.799988	1
355.000000	1
355.299998	1
355.700012	1
356.000000	1
356.600006	1
368.000000	1
368.200012	1
368.399994	1
369.100006	1
369.399994	1
369.600006	1
371.390295	999
372.799988	1
373.000000	1
