Mass spectrum: 1,4-Androstadiene-3,17-dione; LC-APPI-QQ; MS2; CE:20 V; [M-H2O+H]+
Name: 1,4-Androstadiene-3,17-dione
Class: Natural Product; Anabolic Steroid
Formula: C19H24O2
Exact mass: 284.17763
SMILES: O=C(C=4)C=C(C3)C(C)(C4)C([H])(C2)C([H])(C3)C([H])(C1)C(C)(C2)C(=O)C1
InChI: InChI=1S/C19H24O2/c1-18-9-7-13(20)11-12(18)3-4-14-15-5-6-17(21)19(15,2)10-8-16(14)18/h7,9,11,14-16H,3-6,8,10H2,1-2H3/t14-,15-,16-,18-,19-/m0/s1
Instrument: API2000
Instrument type: LC-APPI-QQ
Ms type: MS2
Ion mode: POSITIVE
Retention time: 0.820867 min
Base peak: 267.200012
Precursor m/z: 267.300000
Precursor type: [M-H2O+H]+
m/z	relative intensity
42.700001	1
43.200001	1
53.099998	1
54.900002	1
55.099998	1
65.400002	1
66.000000	1
66.400002	1
66.800003	1
67.074999	1
67.350002	1
68.350002	1
69.000000	1
69.350002	1
69.900002	1
70.199997	1
71.300003	1
73.000000	1
76.699997	1
77.000000	1
77.300003	1
77.500000	1
77.900002	1
78.300003	1
79.077777	2
80.199997	1
81.081513	9
82.950001	1
83.300003	1
83.800003	1
84.699997	1
85.300003	1
87.199997	1
89.199997	1
89.599998	1
89.800003	1
90.000000	1
90.400002	1
90.844446	1
93.011905	7
95.033553	24
95.950001	1
97.199997	1
97.400002	1
98.950001	1
101.900002	1
103.000000	1
104.099998	1
104.500000	1
104.843752	1
105.099998	1
105.350002	1
105.900002	1
107.033520	113
109.047487	14
110.300003	1
110.649998	1
111.199997	1
112.699997	1
114.400002	1
114.699997	1
114.900002	1
115.149998	1
115.900002	1
116.099998	1
116.450001	1
117.099998	1
118.500000	1
118.857144	1
119.244444	1
119.825001	1
120.280002	1
121.087087	48
121.900002	1
122.099998	1
122.949999	1
123.400002	1
125.199997	1
125.400002	1
126.800003	1
127.099998	1
127.599998	1
127.800003	1
128.224998	1
128.500000	1
129.000000	1
129.899994	1
130.199997	1
130.399994	1
130.720001	1
131.050003	1
131.600006	1
132.100006	1
132.374996	1
133.158572	6
135.081668	10
136.600006	1
136.800003	1
137.100006	1
138.399994	1
138.800003	1
139.199997	1
140.800003	1
141.000000	1
141.949997	1
142.500000	1
142.974997	1
143.800003	1
144.199997	1
145.018520	4
145.899994	1
147.132526	115
149.199997	1
151.899994	1
153.250000	1
154.100006	1
154.449997	1
154.983332	1
155.250000	1
155.500000	1
155.899994	1
156.899994	1
157.399994	1
159.103050	52
159.849998	1
161.071579	15
162.500000	1
163.100006	1
165.399994	1
167.100006	1
167.699997	1
168.000000	1
168.199997	1
168.600006	1
169.184617	1
171.036730	224
173.117405	200
174.300003	1
174.699997	1
175.149999	4
175.899994	1
177.899994	1
178.699997	1
179.000000	1
179.449997	1
180.100006	1
181.075005	1
181.349998	1
182.000000	1
182.600001	1
182.899994	1
183.199997	1
184.890735	4
186.100006	1
186.300003	1
187.495454	2
189.100006	1
189.325001	1
191.000000	1
191.399994	1
192.000000	1
192.399994	1
192.600006	1
192.899994	1
193.116671	1
193.399994	1
193.849998	1
194.399994	1
195.500000	1
195.859998	1
196.100006	1
196.500000	1
197.169334	12
198.025002	1
198.300003	1
199.172729	5
200.825001	1
201.474998	1
203.800003	1
204.000000	1
204.800003	1
205.199997	1
205.899994	1
206.799998	1
207.174999	1
207.462498	1
207.800003	1
208.000000	1
208.500000	1
208.900002	1
209.399994	1
210.000000	1
211.126650	65
211.800003	1
212.370831	2
213.150002	1
213.399994	1
216.600006	1
218.800003	1
219.000000	1
219.500000	1
219.750000	1
220.600006	1
220.979999	1
221.325001	1
221.600006	1
222.349998	1
222.699997	1
223.483332	1
224.000000	1
224.424995	1
225.231896	9
226.500000	1
226.699997	1
231.100006	1
231.349998	1
233.750000	1
234.050003	1
235.100006	1
235.399994	1
235.899994	1
237.000000	1
237.349998	1
239.228447	9
247.600006	1
248.600006	1
249.300003	2
249.546157	2
250.100006	1
250.300003	1
250.625004	1
251.966665	1
252.283335	1
262.600006	1
264.650009	1
265.399994	1
267.227794	999
270.799988	1
