Mass spectrum: beta-Estradiol; LC-APPI-QQ; MS2; CE:60 V; [M-H2O+H]+
Name: beta-Estradiol
Class: Natural Product; Steroid hormone
Formula: C18H24O2
Exact mass: 272.17763
SMILES: Oc(c4)cc(C3)c(c4)C(C2)C(C3)C(C1)C(C)(C2)C(O)C1
InChI: InChI=1S/C18H24O2/c1-18-9-8-14-13-5-3-12(19)10-11(13)2-4-15(14)16(18)6-7-17(18)20/h3,5,10,14-17,19-20H,2,4,6-9H2,1H3/t14?,15?,16?,17-,18?/m0/s1
Instrument: API2000
Instrument type: LC-APPI-QQ
Ms type: MS2
Ion mode: POSITIVE
Retention time: 0.820850 min
Base peak: 91.099998
Precursor m/z: 255.000000
Precursor type: [M-H2O+H]+
m/z	relative intensity
31.500000	1
38.200001	1
39.000000	1
40.200001	1
41.084987	38
42.099998	1
43.125517	29
43.700001	1
44.500000	1
49.799999	1
50.400002	1
50.900002	1
53.120960	23
55.091132	218
56.933334	1
57.299999	1
58.200001	1
58.500000	1
58.799999	1
59.200001	1
61.599998	1
61.850000	1
62.200001	1
62.500000	1
62.900002	1
63.260000	1
65.073097	79
67.132820	543
69.088484	33
70.049999	1
72.800003	1
73.224998	1
73.599998	1
74.599998	1
77.070177	262
79.061602	377
81.117293	196
82.400002	1
82.916668	1
83.400002	1
86.000000	1
86.500000	1
86.800003	1
87.199999	1
87.800003	1
88.000000	1
91.063841	699
93.117408	52
94.118987	48
95.053664	102
99.149998	1
99.599998	1
99.900002	1
100.300003	1
100.800003	1
101.260000	3
103.074628	176
105.062009	636
107.040452	294
108.099998	1
108.400002	1
109.112500	11
110.000000	1
110.599998	1
111.099998	1
111.699997	1
112.139998	1
115.080007	857
116.138432	368
117.089978	46
119.049265	14
119.766668	1
120.000000	1
121.114634	17
122.000000	1
122.400002	1
122.850002	1
123.599998	1
123.900002	1
124.099998	1
124.400002	1
124.599998	1
125.000000	1
127.081004	128
128.146155	76
129.088945	100
131.131185	374
133.103941	271
134.125004	1
135.100006	1
135.300003	1
136.300003	1
136.800003	1
137.800003	1
138.000000	1
139.109755	21
141.130634	337
144.070819	999
146.186666	2
147.111540	5
148.100006	1
148.899994	1
149.300003	1
149.699997	1
149.899994	1
150.100006	1
151.984313	5
153.066670	4
154.100006	1
154.389995	1
155.039773	9
157.137192	65
159.117894	166
160.000000	1
160.449997	1
160.949997	1
161.300003	1
162.399994	1
163.199997	1
163.449997	1
163.949997	1
165.104880	8
166.211110	2
166.849998	1
167.100006	1
168.399994	1
169.145071	14
170.282351	3
171.075555	5
171.899994	1
172.100006	1
172.600006	1
173.100006	1
173.300003	1
174.899994	1
175.699997	1
176.000000	1
176.199997	1
177.300003	1
177.699997	1
178.220001	1
178.899994	1
179.699997	1
179.899994	1
180.100006	1
180.699997	1
181.179999	1
181.500000	1
182.100006	1
182.500000	1
183.146666	3
183.500000	1
184.114287	1
185.000000	1
185.550003	1
188.600006	1
188.949997	1
189.349998	1
190.750000	1
191.300003	1
192.200002	1
192.949997	1
193.600006	1
193.849998	1
194.250000	1
194.500000	1
194.800003	1
195.025002	1
196.300003	1
197.100003	1
197.500000	1
197.699997	1
198.025002	1
198.399994	1
199.300003	1
199.800003	1
201.199997	1
202.000000	1
202.849998	1
205.000000	1
207.100006	1
207.399994	1
209.000000	1
209.300003	1
210.399994	1
210.600006	1
210.899994	1
211.333333	1
211.849998	1
212.100006	1
213.600006	1
218.899994	1
221.199997	1
222.924995	1
223.800003	1
224.199997	1
224.699997	1
224.974998	1
225.800003	1
226.100006	1
227.300003	1
228.600006	1
238.800003	1
239.125004	1
239.399994	1
241.500000	1
252.399994	1
252.800003	1
255.000000	1
273.799988	1
