Mass spectrum: Epiandrosterone; LC-APPI-QQ; MS2; CE:30 V; [M-2H2O+H]+
Name: Epiandrosterone
Name: 3-beta-Hydroxy-5alpha-androstan-17-one
Class: Natural Product; Steroid hormone
Formula: C19H30O2
Exact mass: 290.22458
SMILES: OC(C4)CC([H])(C3)C(C)(C4)C(C2)C(C3)C(C1)C(C)(C2)C(=O)C1
InChI: InChI=1S/C19H30O2/c1-18-9-7-13(20)11-12(18)3-4-14-15-5-6-17(21)19(15,2)10-8-16(14)18/h12-16,20H,3-11H2,1-2H3/t12-,13-,14?,15?,16?,18?,19?/m0/s1
Instrument: API2000
Instrument type: LC-APPI-QQ
Ms type: MS2
Ion mode: POSITIVE
Retention time: 0.820850 min
Base peak: 255.399994
Precursor m/z: 255.300000
Precursor type: [M-2H2O+H]+
m/z	relative intensity
38.799999	1
39.299999	1
40.400000	1
40.776471	1
41.163635	1
42.000000	1
43.116666	1
45.200001	1
51.000000	1
51.350000	1
52.599998	1
52.966667	1
53.500000	1
53.700001	1
53.900002	1
55.076142	16
56.200001	1
56.400002	1
57.099998	1
57.362501	1
57.599998	1
59.000000	1
64.099998	1
65.079412	1
67.116802	88
69.157292	27
70.199999	1
70.500000	1
70.800003	1
71.049999	1
71.649998	1
71.900002	1
73.199997	1
75.000000	1
75.199997	1
75.400002	1
75.699997	1
76.000000	1
77.061112	9
79.044593	107
81.100904	359
83.115006	72
84.599998	1
84.866669	1
85.199997	1
86.000000	1
87.300003	1
87.599998	1
88.099998	1
89.300003	1
91.045197	142
93.102384	186
95.070694	261
96.383335	1
97.091000	8
99.599998	1
100.549999	1
101.000000	1
101.840001	1
103.096152	1
103.300003	1
105.040679	289
107.046382	220
109.090333	105
110.000000	1
110.952501	2
113.099998	1
113.800003	1
115.006154	3
117.080374	76
119.076062	133
121.083950	133
123.084449	44
125.074999	1
125.300003	1
125.699997	1
125.900002	1
126.350002	1
126.800003	1
127.000000	1
127.300003	1
127.500000	1
128.206121	4
129.067447	35
131.129210	153
133.144103	143
135.128609	92
135.883329	1
137.131406	5
138.699997	1
138.899994	1
139.100006	1
139.300003	1
140.000000	1
140.199997	1
141.081250	1
143.099705	67
145.106221	424
147.157465	286
149.141208	59
150.199997	1
151.206779	5
151.800003	1
152.000000	1
152.199997	1
152.449997	1
152.899994	1
153.100006	1
153.300003	1
153.550003	1
154.199997	1
155.070690	2
157.149665	71
159.143046	370
161.139008	317
163.176359	19
164.250000	1
164.600006	1
164.899994	1
165.399994	1
165.849998	1
166.399994	1
166.800003	1
167.150002	1
168.199997	1
169.129271	3
171.096051	92
173.190314	315
175.175351	56
175.999998	1
176.500000	1
177.239147	10
178.100006	1
178.300003	1
178.699997	1
178.949997	1
179.399994	1
180.000000	1
180.300003	1
181.137503	1
181.399994	1
182.000000	1
182.216665	1
183.215625	5
185.159204	191
187.183492	116
189.224860	71
190.000000	1
192.300003	1
192.949997	1
193.266668	1
193.500000	1
193.800003	1
194.000000	1
194.399994	1
194.600006	1
194.899994	1
196.199997	1
197.226022	11
199.204194	322
201.183030	85
202.083338	1
202.600006	1
204.000000	1
207.100006	1
207.550003	1
208.000000	1
208.550003	1
208.974998	1
209.216665	1
209.500000	1
209.699997	1
210.199997	1
211.101828	6
213.229627	93
215.000000	1
220.899994	1
221.199997	1
221.500000	1
221.899994	1
222.349998	1
222.800003	1
223.163637	1
224.300003	1
225.139364	4
226.227778	13
227.254298	38
236.699997	1
237.179999	1
238.000000	1
238.300003	1
238.600006	1
238.825001	1
239.200001	1
239.500000	1
240.298921	15
241.000000	1
244.199997	1
248.899994	1
250.899994	1
251.199997	1
251.699997	1
252.150002	1
252.800003	1
253.328916	7
255.316125	999
257.000000	1
265.500000	1
