Mass spectrum: Dihydrotestosterone; LC-APPI-QQ; MS2; CE:30 V; [M-H2O+H]+
Name: Dihydrotestosterone
Class: Natural Product; Steroid hormone
Formula: C19H30O2
Exact mass: 290.22458
SMILES: O=C(C4)CC([H])(C3)C(C)(C4)C(C2)C(C3)C(C1)C(C)(C2)C(O)C1
InChI: InChI=1S/C19H30O2/c1-18-9-7-13(20)11-12(18)3-4-14-15-5-6-17(21)19(15,2)10-8-16(14)18/h12,14-17,21H,3-11H2,1-2H3/t12-,14?,15?,16?,17-,18?,19?/m0/s1
Instrument: API2000
Instrument type: LC-APPI-QQ
Ms type: MS2
Ion mode: POSITIVE
Retention time: 0.820833 min
Base peak: 123.199997
Precursor m/z: 273.200000
Precursor type: [M-H2O+H]+
m/z	relative intensity
38.700001	1
41.299999	1
42.099998	1
42.900002	2
43.299999	2
44.500000	1
52.799999	1
53.299999	1
54.200001	1
54.500000	1
55.028572	5
55.799999	1
56.000000	1
56.400002	1
56.650000	1
56.900002	1
57.166667	2
58.900002	1
59.400002	1
62.799999	1
64.699997	1
64.900002	1
65.099998	1
66.000000	1
66.599998	4
67.096039	40
68.350002	2
69.091305	36
70.099998	1
71.139998	4
72.750000	1
76.199997	1
76.500000	1
76.699997	2
77.049999	3
78.500000	4
79.001493	52
79.400002	8
81.107197	207
82.233332	2
83.123009	44
84.500000	2
85.100000	4
87.500000	1
88.800003	1
89.300003	1
89.599998	1
91.060000	51
91.975000	5
93.107114	198
95.037736	207
96.066666	2
97.074242	103
97.900002	1
98.280000	4
99.162500	6
101.000000	1
102.500000	1
103.124999	3
103.775002	2
105.063782	122
107.046109	271
109.070328	477
110.040001	4
110.500000	2
111.084849	26
111.900002	1
112.400002	1
113.000000	2
113.500000	1
114.966667	2
115.900002	1
116.099998	1
117.100001	27
117.699997	2
118.000000	1
118.275002	3
119.095935	96
121.112619	164
123.055308	545
124.199997	1
124.699997	1
124.989474	7
125.360002	2
125.800003	1
126.800003	1
127.049999	1
127.300003	1
127.500000	1
127.850002	2
128.300003	1
129.032000	10
130.100006	3
131.142678	61
131.899994	4
133.097092	108
133.959999	4
135.112403	101
136.100006	2
137.259998	27
138.150002	1
138.899994	1
139.228572	3
139.600006	1
140.699997	1
141.000000	1
141.199997	1
143.122859	27
143.899994	5
144.100006	3
145.084704	205
146.000000	4
147.118577	198
148.100006	2
149.162368	149
149.949997	1
150.250000	1
150.600006	1
151.000000	7
151.300000	8
151.699997	1
151.899994	1
152.399999	1
152.899994	2
153.449997	1
154.699997	1
154.899994	1
155.233337	2
156.250000	2
157.051067	18
157.362501	13
159.125870	337
161.172570	250
162.012501	6
163.183385	250
164.000000	1
164.300003	1
165.242855	5
166.050003	1
166.699997	1
166.966665	2
167.399994	1
167.800003	1
168.449997	1
168.941667	5
169.750000	1
170.199997	2
171.056820	34
172.224998	5
173.202553	184
174.100006	1
174.300003	1
175.188194	56
176.000000	1
176.300003	1
177.200000	29
178.399994	1
178.600006	1
178.800003	1
179.199997	2
180.199997	1
181.000000	5
181.300003	3
181.949997	2
182.399994	1
182.899994	1
183.200002	2
183.600006	1
184.000000	1
184.266668	2
185.133058	95
186.150002	5
187.203049	64
188.399994	2
189.282525	40
190.000000	1
190.639999	2
191.207144	11
193.100006	1
194.699997	1
194.924995	2
195.333333	2
196.000000	1
196.199997	1
196.750000	1
197.000000	2
199.211000	235
201.160578	41
201.973332	12
202.239473	15
203.251638	95
204.300003	1
204.699997	2
205.299999	3
207.000000	1
207.399994	1
207.899994	1
208.399994	1
208.899994	1
209.300003	1
209.500000	1
210.199997	1
210.600006	1
211.062504	3
211.399996	3
211.699997	1
212.139999	2
213.207430	126
215.192202	171
217.190197	40
218.399994	1
219.200002	1
223.150002	1
223.899994	1
225.233332	2
225.985001	8
227.327586	34
227.899994	1
228.275002	3
228.500000	2
229.235715	22
229.952381	16
230.399994	4
231.379996	4
232.899994	1
236.699997	2
237.100006	1
237.300003	1
238.199997	1
238.699997	1
239.199997	1
239.849998	3
240.199997	5
240.469998	8
240.947618	8
242.100006	3
242.328572	5
243.100006	4
243.699997	1
244.260001	4
245.172917	75
246.500000	1
250.899994	1
253.337500	3
253.600006	2
254.399994	5
255.321535	999
256.100006	2
256.399994	1
256.899994	1
257.399994	2
258.222916	75
259.000000	1
268.899994	1
271.100006	1
271.424995	2
272.000000	2
272.200012	2
272.399994	2
273.306362	652
275.799988	1
