Mass spectrum: nPFOS; LC-ESI-QQ; MS2; CE40eV; [M-H]-
Name: nPFOS
Class: Non-Natural Product
Formula: C8HF17O3S
Exact mass: 499.93749
SMILES: FC(F)(F)C(F)(F)C(F)(F)C(F)(F)C(F)(F)C(F)(F)C(F)(F)C(F)(F)S(O)(=O)=O
InChI: InChI=1S/C8HF17O3S/c9-1(10,3(13,14)5(17,18)7(21,22)23)2(11,12)4(15,16)6(19,20)8(24,25)29(26,27)28/h(H,26,27,28)
Instrument: Xevo TQ, Waters
Instrument type: LC-ESI-QQ
Ms type: MS2
Ion mode: NEGATIVE
Collision energy: 40eV
Retention time: 21.556284 min
Base peak: 79.771988
Precursor m/z: 498.9
Precursor type: [M-H]-
m/z	relative intensity
79.802414	999
83.083642	178
84.763589	104
98.691478	763
118.986672	206
129.702365	212
168.640529	231
179.977469	171
219.123321	50
229.932360	303
279.570068	88
329.748645	34
379.799175	42
498.769703	283
