Mass spectrum: Stigmastanol; LC-APPI-QQ; MS
Name: Stigmastanol
Class: Natural Product; Sterol
Formula: C29H52O
Exact mass: 416.40182
SMILES: C(C4)C(C(CC4O)3)(C(C(CC3)2)CCC(C21)(C(CC1)C(C)CCC(C(C)C)CC)C)C
InChI: InChI=1S/C29H52O/c1-7-21(19(2)3)9-8-20(4)25-12-13-26-24-11-10-22-18-23(30)14-16-28(22,5)27(24)15-17-29(25,26)6/h19-27,30H,7-18H2,1-6H3/t20?,21?,22?,23-,24?,25?,26?,27?,28?,29?/m0/s1
Instrument: API2000
Instrument type: LC-APPI-QQ
Ms type: MS
Ion mode: POSITIVE
Retention time: 0.821067 min
Base peak: 399.500000
Ion type: [M-3]+,[M-H2O+H]+
m/z	relative intensity
201.192791	25
202.139358	13
203.183707	94
205.198609	55
207.210175	21
209.208159	16
210.210012	8
211.171391	18
213.152390	19
214.214950	8
215.231604	73
216.231408	16
217.255230	61
219.212813	36
221.218703	27
223.177495	14
224.208219	6
225.257269	25
226.253032	7
227.224335	14
228.228184	7
229.206555	17
231.243421	58
233.263827	26
235.243695	37
237.192514	30
238.140039	7
239.198182	12
241.296472	32
243.285736	35
245.287650	55
247.258304	22
249.253346	21
251.211013	12
253.207263	11
255.176017	54
257.298397	31
259.308639	40
261.275106	21
263.248945	16
265.216168	15
267.217415	37
268.182845	11
269.227360	15
271.266811	13
273.339562	54
275.339252	27
277.235352	11
279.220826	26
280.288313	5
281.259820	8
282.351077	9
283.284182	14
285.306981	29
287.389157	64
289.442444	36
290.428275	12
291.284304	10
293.257359	7
295.288553	9
297.355370	12
299.296002	50
301.436418	61
302.429599	14
303.471929	19
305.347185	5
307.333390	5
309.325109	6
311.379637	11
313.387433	13
315.404490	70
316.405102	18
317.418057	14
319.307975	4
321.346636	8
323.334524	5
325.399491	6
327.382001	16
329.402947	23
330.418080	6
333.352168	4
335.370537	4
337.357118	11
338.423111	6
339.401374	10
341.428955	10
343.470550	20
344.486845	7
345.371751	5
347.332892	4
349.370299	4
351.380342	4
353.416730	10
355.470670	8
357.449324	12
359.424772	7
361.321748	4
363.355339	5
365.405847	5
367.455115	10
369.512442	34
370.543146	9
371.462513	10
373.421839	6
375.464745	4
377.395323	4
379.428893	5
381.447229	7
383.507805	44
385.569561	30
387.506130	6
389.509849	6
391.484968	19
393.484033	11
395.443198	19
397.500393	79
399.511124	999
403.512484	7
405.510786	6
407.520114	12
409.505347	16
411.488717	55
413.515208	85
415.588913	22
416.640237	6
417.558682	4
419.519845	4
421.467090	11
422.435710	2
423.546005	4
425.503529	7
427.464293	8
429.539882	16
430.594373	5
431.565621	4
433.543375	3
435.559828	2
437.464659	10
438.503208	3
439.567202	5
441.487714	3
442.518685	1
443.484899	3
444.556632	2
445.522270	2
447.592462	2
449.592958	2
451.640898	3
453.543260	3
455.586012	2
456.570880	1
457.454625	1
459.466290	1
461.525833	1
462.570835	1
463.570514	1
465.582205	3
467.601273	4
468.630689	2
469.530953	2
470.557692	1
471.628700	1
473.577001	2
474.700923	1
475.620548	1
477.609353	1
479.658079	3
481.570361	3
483.591836	2
484.603408	1
485.600005	1
486.569051	1
487.592530	1
488.594165	1
489.664287	1
490.615157	1
491.640925	1
493.678486	3
495.676697	5
496.722467	2
497.683524	2
498.667685	1
499.615810	1
