Mass spectrum: isoPFOA; LC-ESI-QQ; MS2; CE20eV
Name: isoPFOA
Class: Non-Natural Product
Formula: C8HF15O2
Exact mass: 413.97370
SMILES: OC(=O)C(F)(F)C(F)(F)C(F)(F)C(F)(F)C(F)(C(F)(F)F)C(F)(F)F
InChI: InChI=1S/C8HF15O2/c9-2(10,1(24)25)4(12,13)6(16,17)5(14,15)3(11,7(18,19)20)8(21,22)23/h(H,24,25)
Instrument: Xevo TQ, Waters
Instrument type: LC-ESI-QQ
Ms type: MS2
Ion mode: NEGATIVE
Collision energy: 20eV
Retention time: 16.911217 min
Base peak: 169.357468
Precursor m/z: 413
Precursor type: [M-H]-
m/z	relative intensity
169.292983	999
218.746410	199
309.104549	281
365.135379	225
380.944834	573
394.528942	334
