Mass spectrum: Testosterone; LC-APPI-QQ; MS2; CE:20 V; [M+H]+
Name: Testosterone
Class: Natural Product; Steroid hormone
Formula: C19H28O2
Exact mass: 288.20893
SMILES: O=C(C4)C=C(C3)C(C)(C4)C(C2)C(C3)C(C1)C(C)(C2)C(O)C1
InChI: InChI=1S/C19H28O2/c1-18-9-7-13(20)11-12(18)3-4-14-15-5-6-17(21)19(15,2)10-8-16(14)18/h11,14-17,21H,3-10H2,1-2H3/t14?,15?,16?,17-,18?,19?/m0/s1
Instrument: API2000
Instrument type: LC-APPI-QQ
Ms type: MS2
Ion mode: POSITIVE
Retention time: 0.820850 min
Base peak: 289.299988
Precursor m/z: 289.300000
Precursor type: [M+H]+
m/z	relative intensity
38.599998	1
39.200001	1
40.900000	1
41.500000	1
42.299999	1
42.700001	1
43.250000	1
44.799999	1
45.000000	1
52.099998	1
52.799999	1
53.250000	1
54.200001	1
54.500000	1
54.900002	1
55.099998	1
56.549999	1
56.799999	1
57.300001	1
64.800001	1
65.400002	1
66.199997	1
67.055555	1
67.300003	1
68.500000	1
69.077143	1
70.500000	1
70.699997	1
71.099998	1
71.450001	1
72.199997	1
72.500000	1
72.900002	1
73.325001	1
76.099998	1
76.400002	1
76.800003	1
77.099998	1
77.400002	1
78.000000	1
79.004762	1
79.599998	1
80.000000	1
81.099333	2
83.058236	6
84.775000	1
89.900002	1
90.300003	1
90.991304	1
91.599998	1
91.850002	1
93.082222	2
95.067902	5
97.059816	176
99.244444	1
99.800003	1
100.750000	1
102.000000	1
102.900002	1
103.300001	1
103.699997	1
103.900002	1
104.979592	1
107.087607	3
109.043644	117
111.006896	1
112.199997	1
113.000000	1
113.599998	1
114.699997	1
115.400002	1
116.149998	1
116.500000	1
117.123528	1
118.000000	1
118.972882	1
121.066530	5
123.031367	10
125.073076	1
126.800003	1
127.000000	1
127.500000	1
127.900002	1
128.250000	1
128.800003	1
129.050003	1
129.300003	1
130.000000	1
131.095322	1
131.800003	1
133.167205	1
135.038756	3
137.021540	1
138.100006	1
139.000000	1
139.199997	1
139.699997	1
140.399994	1
141.000000	1
141.199997	1
141.600006	1
142.000000	1
142.290002	1
143.075759	1
145.052249	4
146.000000	1
147.105714	5
149.045583	3
150.756250	1
151.127781	1
151.800003	1
152.150002	1
152.899994	1
153.275002	1
153.500000	1
153.899994	1
154.199997	1
154.500000	1
154.924490	1
157.130622	3
159.081520	5
159.699997	1
160.199997	1
161.116443	4
162.244446	1
163.083694	4
164.300003	1
165.060004	1
165.600006	1
167.000000	1
167.399999	1
167.849998	1
168.838093	1
169.100006	1
171.058922	4
171.800003	1
172.100006	1
172.500000	1
173.129539	3
174.300003	1
175.122866	9
177.199770	3
178.100006	1
178.399994	1
179.077783	1
180.100006	1
180.300003	1
181.000000	1
181.300003	1
181.800003	1
183.092029	2
184.266668	1
185.193901	2
185.841666	1
187.161216	7
187.924995	1
189.168817	11
191.079592	1
191.800003	1
193.000000	1
195.000000	1
195.199997	1
195.500000	1
196.025002	1
196.424999	1
197.147204	5
198.100006	1
199.166242	5
201.159603	4
202.000000	1
202.199997	1
203.155173	1
204.100006	1
205.142855	1
206.399994	1
207.300003	1
208.899994	1
209.599998	1
210.199997	1
211.089809	2
213.192743	8
214.474998	1
215.150810	3
216.000000	1
216.399994	1
217.147058	2
218.116671	1
219.199441	3
220.399994	1
221.300003	1
222.800003	1
223.000000	1
223.199997	1
224.028573	1
225.206849	2
226.300003	1
227.223418	2
228.000000	1
228.399994	1
229.220329	3
230.040002	1
230.349998	1
231.213207	1
232.299998	1
233.109523	1
234.800003	1
235.000000	1
237.500000	1
238.123530	1
238.899994	1
239.300003	1
239.600006	1
241.066668	1
241.650002	1
242.500000	1
243.310776	2
244.200002	1
245.240335	1
245.962498	1
246.199997	1
246.424995	1
247.250000	1
247.600006	1
248.199997	1
249.000000	1
251.100006	1
251.373333	1
253.244968	44
254.100006	1
254.600006	1
255.399994	1
256.140009	1
257.156777	1
257.899994	1
258.200012	1
258.500000	1
259.100006	1
259.324989	1
259.600006	1
259.974998	1
260.399994	1
260.600006	1
261.173229	1
268.299988	1
268.799988	1
269.324997	1
271.240755	50
272.500000	1
273.550003	1
274.018183	1
274.650009	1
279.100006	1
280.299988	1
282.000000	1
283.000000	1
284.550003	1
285.299988	1
285.699999	1
286.000000	1
286.339996	1
287.019356	1
289.302487	999
290.899994	1
291.500000	1
291.899994	1
292.100006	1
292.600006	1
