Mass spectrum: beta-Estradiol; LC-APPI-QQ; MS2; CE:10 V; [M-H2O+H]+
Name: beta-Estradiol
Class: Natural Product; Steroid hormone
Formula: C18H24O2
Exact mass: 272.17763
SMILES: Oc(c4)cc(C3)c(c4)C(C2)C(C3)C(C1)C(C)(C2)C(O)C1
InChI: InChI=1S/C18H24O2/c1-18-9-8-14-13-5-3-12(19)10-11(13)2-4-15(14)16(18)6-7-17(18)20/h3,5,10,14-17,19-20H,2,4,6-9H2,1H3/t14?,15?,16?,17-,18?/m0/s1
Instrument: API2000
Instrument type: LC-APPI-QQ
Ms type: MS2
Ion mode: POSITIVE
Retention time: 0.820867 min
Base peak: 255.300003
Precursor m/z: 255.000000
Precursor type: [M-H2O+H]+
m/z	relative intensity
66.500000	1
67.199997	1
68.549999	1
68.900002	1
69.400002	1
79.000000	1
80.699997	1
81.099998	1
81.300003	1
90.099998	1
90.900002	1
92.599998	1
94.500000	1
94.981250	1
95.400002	1
97.500000	1
103.800003	1
104.599998	1
104.900002	1
105.099998	1
105.300003	1
105.599998	1
106.350002	1
106.800003	1
107.099998	1
107.400002	1
107.850000	1
109.126563	1
110.099998	1
110.300003	1
111.136363	1
117.199997	1
121.128569	1
121.400002	1
122.862502	1
123.300003	1
123.500000	1
126.800003	1
127.099998	1
128.100006	1
128.899994	1
129.100006	1
131.037502	1
131.399994	1
133.097288	14
133.849998	1
134.199997	1
135.219999	1
135.800003	1
141.100001	1
142.800003	1
144.016669	1
145.037221	2
146.240002	1
147.112502	1
148.399994	1
148.825001	1
149.100006	1
149.500000	1
154.399994	1
155.399994	1
155.699997	1
156.100001	1
157.411107	1
159.087323	67
160.199997	1
161.300003	1
161.600006	1
162.500000	1
166.750000	1
167.000000	1
168.750000	1
169.399994	1
170.100006	1
170.600006	1
170.899994	1
171.100006	1
171.300003	1
171.699997	1
173.094619	2
173.800003	1
177.199997	1
180.899994	1
181.500000	1
184.399994	1
185.030000	1
186.000000	1
187.137503	1
194.199997	1
194.600006	1
194.966665	1
196.500000	1
196.800003	1
197.500000	1
197.899994	1
198.150002	1
198.500000	1
199.232557	1
201.300003	1
201.500000	1
203.600006	1
207.699997	1
209.049999	1
209.449997	1
210.800003	1
211.600006	1
212.199997	1
212.399994	1
213.229999	1
214.100006	1
219.100006	1
219.300003	1
222.399994	1
223.196227	1
223.899994	1
224.100006	1
224.300003	1
224.600006	1
224.899994	1
225.150002	1
225.500000	1
226.000000	1
226.199997	1
226.899994	1
227.250000	1
235.300003	1
236.300003	1
236.899994	1
237.174999	1
237.500000	1
238.050003	1
239.399994	1
241.000000	1
241.300003	1
248.500000	1
248.899994	1
249.300003	1
249.699997	1
251.399994	1
252.100006	1
252.399994	1
252.822220	1
255.266127	999
256.899994	1
257.500000	1
