Mass spectrum: nPFOS; LC-ESI-QQ; MS2; CE50eV; [M-H]-
Name: nPFOS
Class: Non-Natural Product
Formula: C8HF17O3S
Exact mass: 499.93749
SMILES: FC(F)(F)C(F)(F)C(F)(F)C(F)(F)C(F)(F)C(F)(F)C(F)(F)C(F)(F)S(O)(=O)=O
InChI: InChI=1S/C8HF17O3S/c9-1(10,3(13,14)5(17,18)7(21,22)23)2(11,12)4(15,16)6(19,20)8(24,25)29(26,27)28/h(H,26,27,28)
Instrument: Xevo TQ, Waters
Instrument type: LC-ESI-QQ
Ms type: MS2
Ion mode: NEGATIVE
Collision energy: 50eV
Retention time: 21.475849 min
Base peak: 79.963341
Precursor m/z: 498.9
Precursor type: [M-H]-
m/z	relative intensity
79.746593	999
82.732329	272
98.749194	612
119.062082	150
129.827420	219
168.918309	215
180.229531	94
229.521930	56
277.219940	21
279.883245	21
394.766275	65
435.052056	26
499.297338	48
