Mass spectrum: 33FTA; LC-ESI-QQ; MS2; CE20; [M-H]-
Name: 33FTA
Name: 33Fluorotelomer Acid
Name: 4,4,5,5,6,6,6-Heptafluorohexanoic acid
Class: Non-Natural Product
Formula: C6H5F7O2
Exact mass: 242.01778
SMILES: OC(=O)CCC(F)(F)C(F)(F)C(F)(F)F
InChI: InChI=1S/C6H5F7O2/c7-4(8,2-1-3(14)15)5(9,10)6(11,12)13/h1-2H2,(H,14,15)
Instrument: Xevo TQ MS (Waters)
Instrument type: LC-ESI-QQ
Ms type: MS2
Ion mode: NEGATIVE
Collision energy: 20
Retention time: 0.016817
Base peak: 116.806686
Precursor m/z: 241
Precursor type: [M-H]-
m/z	relative intensity
66.792038	518
67.036377	650
68.805710	59
69.053276	34
80.649849	36
80.911278	127
81.120399	166
104.895355	79
105.281921	40
116.529030	64
116.732422	806
116.964783	999
117.198212	836
124.698021	49
130.816696	32
131.106201	42
132.879471	37
137.164017	54
