Mass spectrum: Epiandrosterone; LC-APPI-QQ; MS2; CE:30 V; [M-H2O+H]+
Name: Epiandrosterone
Name: 3-beta-Hydroxy-5alpha-androstan-17-one
Class: Natural Product; Steroid hormone
Formula: C19H30O2
Exact mass: 290.22458
SMILES: OC(C4)CC([H])(C3)C(C)(C4)C(C2)C(C3)C(C1)C(C)(C2)C(=O)C1
InChI: InChI=1S/C19H30O2/c1-18-9-7-13(20)11-12(18)3-4-14-15-5-6-17(21)19(15,2)10-8-16(14)18/h12-16,20H,3-11H2,1-2H3/t12-,13-,14?,15?,16?,18?,19?/m0/s1
Instrument: API2000
Instrument type: LC-APPI-QQ
Ms type: MS2
Ion mode: POSITIVE
Retention time: 0.820850 min
Base peak: 147.300003
Precursor m/z: 273.300000
Precursor type: [M-H2O+H]+
m/z	relative intensity
38.700001	1
40.250000	1
41.299999	1
42.500000	1
42.850000	2
43.275000	1
50.900002	1
52.900002	1
53.099998	1
54.200001	1
54.599998	1
55.121428	8
55.750000	1
57.200001	3
57.400002	1
59.150000	1
64.800003	1
65.099998	1
65.599998	1
66.300003	1
67.096581	34
68.199997	1
68.935295	10
69.246154	8
70.000000	1
71.033333	3
71.500000	1
72.900002	1
75.500000	1
75.950001	1
76.199997	1
77.088234	10
77.800003	1
78.000000	1
79.073034	103
81.112102	182
82.545833	7
83.127848	46
84.000000	1
84.757143	4
85.179997	4
87.099998	1
88.000000	1
88.800003	1
89.199997	1
89.500000	1
89.699997	1
89.900002	1
91.028014	82
91.986667	4
93.122131	213
93.988889	5
95.069697	153
97.097959	28
98.400002	1
98.799999	1
99.099998	1
99.325003	1
99.599998	1
100.500000	1
100.699997	1
101.250000	1
102.500000	1
103.066666	2
105.032065	252
107.068270	507
109.101546	113
110.500000	1
110.900002	5
111.134613	8
112.800003	1
113.099998	1
113.400002	1
113.800003	1
114.250000	1
114.800003	1
115.099998	1
115.400002	1
115.900002	1
116.387502	2
117.101283	45
117.800003	1
119.078049	167
121.076515	153
123.046315	55
124.000000	1
125.117648	10
127.000000	1
127.500000	1
128.199997	2
129.110713	8
130.140000	7
131.175927	94
131.699997	3
133.131490	205
135.136884	224
136.500000	1
137.204000	15
137.800003	1
139.149998	2
139.600006	1
140.600006	1
140.899994	1
141.374996	1
142.000000	1
143.090000	49
145.095283	308
147.151854	611
149.157564	69
150.399994	1
151.140676	17
152.100006	1
152.349998	1
152.800003	2
153.100006	1
153.949997	1
154.600006	1
154.800003	1
155.000000	2
155.399994	1
155.800003	1
156.100002	2
157.174244	38
157.699997	2
159.126809	410
161.144403	940
163.127478	65
164.300003	1
164.600006	1
165.009091	6
166.100006	1
166.300003	1
166.500000	1
167.100006	1
167.399994	1
168.100006	1
168.500000	1
169.099998	2
169.449997	2
169.699997	1
170.000000	1
171.104839	72
173.199825	332
173.899994	1
175.158452	83
176.300003	1
177.138710	18
178.500000	1
178.800003	1
179.136365	6
179.949997	1
180.199997	1
180.500000	1
180.987499	2
181.199997	2
181.500000	1
181.775002	1
182.100006	1
182.474998	1
183.180953	6
183.849998	2
185.200372	156
186.055559	5
187.171590	77
189.190000	35
189.800003	1
190.300003	1
191.175000	9
193.399994	1
194.000000	1
194.600006	1
195.000000	3
195.325001	1
195.699997	1
196.075005	1
197.399994	3
198.154168	7
199.211829	373
200.222580	18
201.158000	44
202.076924	8
203.247222	21
204.849998	1
205.399994	1
207.199997	1
207.399994	1
209.250000	1
210.500000	1
211.000000	3
213.221929	133
214.282352	5
215.238033	68
217.204819	24
217.899994	1
218.399994	1
222.800003	1
224.449997	1
225.199997	1
225.449997	2
226.000000	6
227.180173	34
227.800003	1
228.075005	1
228.300003	1
229.251853	8
229.500000	5
229.800003	1
230.242857	4
230.699997	1
230.999998	2
231.474998	1
232.199997	1
236.699997	1
237.199997	1
237.500000	1
238.300003	1
239.000000	1
239.374996	1
240.256863	15
241.322222	3
242.300003	1
242.600006	1
242.949997	1
243.399994	1
243.600006	1
243.800003	1
244.199997	1
244.992857	4
245.600006	2
250.300003	1
251.899994	1
253.066666	5
253.500000	1
255.334090	999
256.200012	1
256.399994	1
256.750000	1
257.000000	1
257.299988	1
257.700012	1
258.228572	8
270.700012	1
271.200012	1
272.316655	2
273.336748	261
274.399994	1
274.899994	1
