Mass spectrum: Androsterone; LC-APPI-QQ; MS2; CE:10 V; [M-2H2O+H]+
Name: Androsterone
Class: Natural Product; Steroid hormone
Formula: C19H30O2
Exact mass: 290.22458
SMILES: OC(C4)CC([H])(C3)C(C)(C4)C(C2)C(C3)C(C1)C(C)(C2)C(=O)C1
InChI: InChI=1S/C19H30O2/c1-18-9-7-13(20)11-12(18)3-4-14-15-5-6-17(21)19(15,2)10-8-16(14)18/h12-16,20H,3-11H2,1-2H3/t12-,13+,14?,15?,16?,18?,19?/m0/s1
Instrument: API2000
Instrument type: LC-APPI-QQ
Ms type: MS2
Ion mode: POSITIVE
Retention time: 0.820867 min
Base peak: 255.300003
Precursor m/z: 255.300000
Precursor type: [M-H2O+H]+
m/z	relative intensity
55.250000	1
66.800003	1
67.199999	1
67.599998	1
69.049999	1
69.300003	1
69.699997	1
75.900002	1
76.400002	1
77.099998	1
78.500000	1
79.199997	1
79.800003	1
81.104968	1
83.112498	1
83.450001	1
89.599998	1
89.800003	1
90.537499	1
91.065000	1
91.599998	1
92.000000	1
92.500000	1
93.129167	1
95.194935	1
96.049999	1
96.400002	1
97.040000	1
102.500000	1
102.800003	1
105.046667	2
106.000000	1
107.060811	1
108.000000	1
108.325003	1
109.035789	1
109.800003	1
110.099998	1
110.599998	1
111.099998	1
111.475000	1
115.049999	1
115.800003	1
117.095294	1
117.800003	1
118.049999	1
119.059615	1
119.850002	1
120.199997	1
121.067441	1
122.000000	1
122.199997	1
123.096722	1
124.699997	1
125.099998	1
125.300003	1
127.300003	1
127.800003	1
128.199997	1
128.399994	1
128.600006	1
129.000000	1
129.300003	1
129.500000	1
129.939999	1
131.156250	1
132.000000	1
132.300003	1
133.101821	1
134.100006	1
134.300003	1
135.133334	1
136.150002	1
137.145001	1
139.199997	1
141.399994	1
141.800003	1
142.100006	1
142.349998	1
142.953843	1
143.300003	1
144.199997	1
145.095361	6
147.135863	4
149.172000	2
150.000000	1
151.168151	2
153.199997	1
155.000000	1
155.899994	1
156.399994	1
157.107142	1
158.100006	1
159.115242	5
159.899994	1
161.135205	7
163.155075	1
165.150002	1
165.800003	1
166.699997	1
168.650002	1
169.100006	1
170.000000	1
171.078790	1
173.175249	5
175.190076	2
176.000000	1
177.179999	1
180.800003	1
181.100006	1
182.800003	1
183.100006	1
183.300003	1
183.899994	1
184.100006	1
184.300003	1
185.183613	4
185.924995	1
187.234120	1
187.800003	1
188.050003	1
189.201129	4
192.800003	1
195.199997	1
195.449997	1
195.699997	1
197.000000	1
197.216665	1
197.600006	1
197.974998	1
199.179571	11
199.899994	1
201.197201	9
203.000000	1
208.600006	1
208.800003	1
209.100006	1
209.699997	1
210.600006	1
211.100006	1
211.424995	1
212.399994	1
213.253449	3
214.166667	1
214.500000	1
219.100006	1
219.600006	1
223.359998	1
223.699997	1
224.800003	1
225.316668	1
227.250350	2
228.100006	1
235.199997	1
236.800003	1
237.000000	1
237.325001	1
239.100006	1
239.699997	1
240.186668	1
245.500000	1
245.899994	1
247.199997	1
248.299998	1
249.000000	1
249.300003	1
249.849998	1
250.199997	1
250.650002	1
251.000000	1
251.399994	1
251.750000	1
252.349998	1
255.304445	999
256.534617	1
257.899994	1
279.600006	1
285.299988	1
