Mass spectrum: Stigmasterol; LC-APPI-QQ; MS2; CE:10 V; [M-H2O+H]+
Name: Stigmasterol
Class: Natural Product; Sterol
Formula: C29H48O
Exact mass: 412.37052
SMILES: C(C4)C(C(CC4O)=3)(C(C(CC3)2)CCC(C21)(C(CC1)C(C)C=CC(C(C)C)CC)C)C
InChI: InChI=1S/C29H48O/c1-7-21(19(2)3)9-8-20(4)25-12-13-26-24-11-10-22-18-23(30)14-16-28(22,5)27(24)15-17-29(25,26)6/h8-10,19-21,23-27,30H,7,11-18H2,1-6H3/b9-8+/t20?,21?,23-,24?,25?,26?,27?,28?,29?/m0/s1
Instrument: API2000
Instrument type: LC-APPI-QQ
Ms type: MS2
Ion mode: POSITIVE
Retention time: 0.820883 min
Base peak: 395.299988
Precursor m/z: 395.500000
Precursor type: [M-H2O+H]+
m/z	relative intensity
68.500000	1
80.800003	1
82.199997	1
82.500000	1
82.800003	1
83.000000	1
83.699997	1
94.800003	1
95.199997	1
97.133334	1
107.049999	1
107.400002	1
108.400002	1
108.900002	1
109.300003	1
109.900002	1
110.699997	1
111.199997	1
112.900002	1
120.900002	1
121.240001	1
122.900002	1
123.250000	1
124.800003	1
125.400002	1
130.699997	1
132.600006	1
133.100006	1
133.600006	1
134.250000	1
134.600006	1
135.199997	1
135.500000	1
137.000000	1
138.300003	1
138.550003	1
139.000000	1
139.262501	1
142.600006	1
144.199997	1
144.899994	1
145.100006	1
146.575005	1
146.887495	1
147.280002	1
148.000000	1
149.300003	1
150.699997	1
151.000000	1
151.399994	1
152.800003	1
153.500000	1
158.600006	1
158.800003	1
159.125004	1
159.399994	1
160.199997	1
160.699997	1
161.057142	1
161.600006	1
163.200000	1
165.100006	1
165.300003	1
166.600006	1
170.800003	1
172.699997	1
173.299999	1
173.600006	1
174.199997	1
175.000000	1
175.275002	1
177.271428	1
178.800003	1
179.050003	1
179.399994	1
179.699997	1
181.100006	1
183.100006	1
184.899994	1
185.199997	1
185.399994	1
186.899994	1
187.171432	1
188.500000	1
189.224998	1
190.500000	1
191.150002	1
192.550003	1
192.800003	1
193.400002	1
193.699997	1
198.899994	1
199.199997	1
199.500000	1
200.000000	1
200.600001	1
201.199997	1
201.500000	1
202.899994	1
205.042855	1
206.800003	1
207.399994	1
211.300003	1
212.199997	1
213.174999	1
213.600006	1
215.262501	1
215.699997	1
216.600006	1
216.800003	1
217.300003	1
218.899994	1
221.100006	1
221.450001	1
223.100006	1
227.110001	1
228.100006	1
228.300003	1
228.899994	1
229.300003	1
229.525002	1
231.100006	1
231.424995	1
232.800003	1
233.000000	1
233.300003	1
235.000000	1
235.449997	1
240.199997	1
240.949997	1
241.428571	1
242.300003	1
242.600006	1
242.899994	1
243.133336	1
245.000000	1
245.399994	1
245.600006	1
247.200002	1
247.500000	1
251.399994	1
254.100006	1
254.300003	1
254.500000	1
255.381249	7
256.000000	1
256.200012	1
256.799988	1
257.293751	2
259.000000	1
259.336362	1
259.600006	1
261.200012	1
261.562504	1
268.700012	1
269.283330	1
269.600006	1
270.700012	1
271.133341	1
271.500000	1
272.899994	1
273.233337	1
273.700012	1
274.299988	1
275.200012	1
282.299988	1
283.000000	1
283.299997	1
284.799988	1
285.600006	1
287.399994	1
288.399994	1
293.200012	1
295.100006	1
296.500000	1
297.353838	5
299.000000	1
299.483332	1
301.200012	1
301.399994	1
301.600006	1
310.299988	1
311.372858	7
312.899994	1
313.233337	1
313.500000	1
313.700012	1
325.100006	1
325.299988	1
325.600006	1
327.500000	1
328.899994	1
329.500000	1
339.600006	1
339.899994	1
352.200012	1
352.500000	1
353.200012	1
353.399994	1
353.799988	1
362.949997	1
363.200012	1
367.100006	1
377.200012	1
379.899994	1
380.100006	1
380.299988	1
380.700012	1
389.200012	1
391.100006	1
391.449997	1
392.600006	1
392.799988	1
393.100006	1
393.650009	1
393.899994	1
394.100006	1
395.461848	999
398.000000	1
