Mass spectrum: 1,4-Androstadiene-3,17-dione; LC-APPI-QQ; MS2; CE:50 V; [M-H2O+H]+
Name: 1,4-Androstadiene-3,17-dione
Class: Natural Product; Anabolic Steroid
Formula: C19H24O2
Exact mass: 284.17763
SMILES: O=C(C=4)C=C(C3)C(C)(C4)C([H])(C2)C([H])(C3)C([H])(C1)C(C)(C2)C(=O)C1
InChI: InChI=1S/C19H24O2/c1-18-9-7-13(20)11-12(18)3-4-14-15-5-6-17(21)19(15,2)10-8-16(14)18/h7,9,11,14-16H,3-6,8,10H2,1-2H3/t14-,15-,16-,18-,19-/m0/s1
Instrument: API2000
Instrument type: LC-APPI-QQ
Ms type: MS2
Ion mode: POSITIVE
Retention time: 0.820867 min
Base peak: 91.199997
Precursor m/z: 267.300000
Precursor type: [M-H2O+H]+
m/z	relative intensity
33.500000	1
38.974999	1
39.500000	1
39.799999	1
41.121429	12
43.060651	30
44.799999	1
45.280000	1
49.049999	1
49.299999	1
51.070589	2
51.700001	1
52.025000	1
52.299999	1
53.108536	7
54.053124	1
55.068398	81
56.000000	1
56.275000	1
57.000000	1
57.700001	1
57.900002	1
58.200001	1
58.700001	1
60.900002	1
61.799999	1
62.000000	1
62.500000	1
62.799999	1
63.000000	1
65.048512	30
67.111324	252
69.070494	30
70.300003	1
70.500000	1
70.699997	1
71.099998	1
71.300003	1
72.699997	1
73.099998	1
73.300003	1
73.850002	1
74.300003	1
75.199997	1
77.063161	253
79.039028	709
81.106941	281
82.977143	2
84.099998	1
84.649998	1
85.000000	1
85.199997	1
87.000000	1
87.300003	1
87.699997	1
91.061584	999
93.092599	312
95.060148	168
96.400002	1
97.000000	1
97.400002	1
98.099998	1
98.500000	1
98.800003	1
99.000000	1
99.400002	1
99.900002	1
100.300003	1
100.900002	1
103.050939	35
105.056102	317
107.053428	344
109.099183	33
109.900002	1
110.699997	1
111.300003	1
111.800003	1
112.199997	1
112.400002	1
112.900002	1
113.280002	1
115.066464	160
117.091854	124
119.079135	251
121.077312	287
122.549999	1
123.028571	1
123.400002	1
123.699997	1
123.900002	1
124.099998	1
124.699997	1
128.081168	712
130.111527	95
131.132371	118
132.131449	164
133.158380	16
133.899994	1
135.071429	16
135.699997	1
136.100006	1
136.799998	1
137.500000	1
138.199997	1
141.119044	133
143.096981	241
144.077213	143
145.089158	270
147.109738	501
148.500000	1
148.849998	1
149.339999	1
149.699997	1
150.199997	1
152.151020	48
153.117238	83
155.087154	165
158.110750	360
159.100278	255
161.123207	21
161.899994	1
162.300003	1
162.500000	1
163.113332	1
165.100000	49
167.114600	44
168.122581	38
169.105120	83
171.075431	684
173.146897	246
174.199997	1
174.399994	1
175.095919	2
178.189751	121
179.141695	77
181.099029	155
182.157642	68
183.166573	64
185.153461	46
186.107148	1
187.009679	3
187.359089	2
188.199997	1
189.170003	2
191.169388	22
192.205668	22
193.172125	76
195.169103	133
196.128317	149
197.168335	113
199.188312	14
199.899994	1
201.050003	1
202.100006	1
203.127502	2
204.089286	2
204.853569	2
205.216668	6
206.121977	4
207.158940	13
208.134472	14
209.148986	52
211.166162	111
212.193201	31
213.099998	1
213.699997	1
214.500000	1
215.000000	1
215.199997	1
215.500000	1
215.899994	1
216.224998	1
217.440000	1
219.113333	3
221.149999	4
222.202899	3
223.155712	25
224.219107	14
225.211253	17
226.181083	3
227.500000	1
229.800003	1
231.199997	1
231.600006	1
231.899994	1
232.500000	1
233.113636	1
233.800003	1
234.422219	1
235.082352	3
236.080005	1
237.234883	15
238.166667	1
239.150001	5
241.100006	1
241.300003	1
243.399994	1
245.600006	1
245.800003	1
246.600006	1
247.033330	1
247.500000	1
248.000000	1
249.100006	1
249.300003	1
249.500000	1
250.160001	1
251.170526	4
252.188637	4
264.799988	1
265.399994	1
265.700012	1
266.500000	1
267.233327	2
316.799988	1
