Mass spectrum: isoPFOS; LC-ESI-QQ; MS2; CE40eV
Name: isoPFOS
Class: Non-Natural Product
Formula: C8HF17O3S
Exact mass: 499.93749
SMILES: FC(F)(F)C(F)(C(F)(F)F)C(F)(F)C(F)(F)C(F)(F)C(F)(F)C(F)(F)S(O)(=O)=O
InChI: InChI=1S/C8HF17O3S/c9-1(6(18,19)20,7(21,22)23)2(10,11)3(12,13)4(14,15)5(16,17)8(24,25)29(26,27)28/h(H,26,27,28)
Instrument: Xevo TQ, Waters
Instrument type: LC-ESI-QQ
Ms type: MS2
Ion mode: NEGATIVE
Collision energy: 40eV
Retention time: 17.413933 min
Base peak: 79.835770
Precursor m/z: 498.9
Precursor type: [M-H]-
m/z	relative intensity
63.759377	74
68.680518	35
79.924646	999
82.806293	528
85.052073	45
98.800336	858
119.084463	121
130.108245	435
168.740579	553
180.204712	414
219.029563	72
230.218109	631
279.954940	209
330.119039	282
376.927065	47
400.648738	35
481.142511	272
499.056429	542
