Mass spectrum: 1,4-Androstadiene-3,17-dione; LC-APPI-QQ; MS2; CE:30 V; [M-H2O+H]+
Name: 1,4-Androstadiene-3,17-dione
Class: Natural Product; Anabolic Steroid
Formula: C19H24O2
Exact mass: 284.17763
SMILES: O=C(C=4)C=C(C3)C(C)(C4)C([H])(C2)C([H])(C3)C([H])(C1)C(C)(C2)C(=O)C1
InChI: InChI=1S/C19H24O2/c1-18-9-7-13(20)11-12(18)3-4-14-15-5-6-17(21)19(15,2)10-8-16(14)18/h7,9,11,14-16H,3-6,8,10H2,1-2H3/t14-,15-,16-,18-,19-/m0/s1
Instrument: API2000
Instrument type: LC-APPI-QQ
Ms type: MS2
Ion mode: POSITIVE
Retention time: 0.820867 min
Base peak: 171.000000
Precursor m/z: 267.300000
Precursor type: [M-H2O+H]+
m/z	relative intensity
38.599998	1
38.799999	1
39.200001	1
40.500000	1
40.900002	1
41.200001	1
41.400002	1
42.099998	1
42.900002	1
43.900002	1
44.800001	1
50.099998	1
51.000000	1
51.599998	1
52.400002	1
52.650000	1
53.000000	1
53.299999	1
53.500000	1
54.099998	1
54.299999	1
55.066356	2
55.900002	1
56.599998	1
57.168750	1
59.000000	1
59.299999	1
64.000000	1
64.699997	1
65.160000	1
67.120257	22
68.099998	1
69.082418	7
70.500000	1
70.699997	1
71.000000	1
71.425001	1
73.649998	1
74.199997	1
75.000000	1
75.599998	1
75.883335	1
77.050001	6
79.023740	74
81.102118	97
83.082523	2
83.800003	1
84.199997	1
85.099998	1
85.400002	1
86.699997	1
87.400002	1
88.199997	1
88.699997	1
88.900002	1
89.400002	1
91.043537	43
93.090673	117
95.056939	130
96.699997	1
97.099998	1
98.699997	1
99.099998	1
99.350002	1
100.300003	1
101.099998	1
101.500000	1
102.000000	1
102.283335	1
103.031818	1
105.073512	36
107.044337	497
109.106359	96
110.199997	1
110.500000	1
110.783335	1
111.199997	1
111.400002	1
111.599998	1
112.699997	1
112.900002	1
114.000000	1
114.400002	1
115.005555	1
117.074368	10
119.078677	18
121.081561	201
123.166664	1
123.699997	1
124.300003	1
125.350002	1
125.699997	1
126.099998	1
128.080251	13
129.076512	5
131.119826	10
132.212000	4
133.120969	13
135.064973	20
136.000000	1
136.199997	1
136.500000	1
136.699997	1
137.000000	1
137.399994	1
137.600006	1
138.000000	1
138.250000	1
139.000000	1
139.299998	1
139.600006	1
139.825001	1
140.100006	1
141.077536	5
143.108275	26
145.086103	74
147.112670	513
149.053571	1
149.899994	1
150.600006	1
150.899994	1
151.224998	1
152.135717	1
153.096775	2
153.952002	1
155.078144	17
159.104186	253
161.108966	51
162.399994	1
163.199997	1
164.250000	1
164.880765	1
165.178726	1
167.123166	5
171.060485	999
173.140875	603
175.137500	19
176.100006	1
177.100006	1
177.449997	1
178.164179	5
179.114174	7
180.091664	1
181.054253	10
183.136338	13
185.129215	72
187.131048	22
188.000000	1
188.199997	1
188.600006	1
188.800003	1
189.120001	1
189.800003	1
190.250000	1
191.100006	1
191.471427	1
193.166922	23
196.132539	27
197.164088	66
199.173978	43
200.174999	1
201.179033	1
202.000000	1
202.500000	1
202.900002	1
203.400002	1
203.800003	1
204.000000	1
205.092861	1
207.154334	6
208.103847	1
209.176100	9
211.149304	287
212.190176	39
213.800003	1
214.750000	1
215.899994	1
216.150002	1
216.399994	1
216.800003	1
217.100006	1
217.399994	1
217.899994	1
218.250000	1
219.222858	1
221.152856	3
221.899994	1
223.129069	15
225.176903	69
229.000000	1
230.399994	1
230.949997	1
231.199997	1
231.500000	1
232.000000	1
232.199997	1
232.399994	1
232.699997	1
232.899994	1
233.199997	1
233.600006	1
234.183334	1
235.118748	1
235.983332	1
237.229382	3
239.257951	37
240.449997	1
246.899994	1
247.587505	1
248.300003	1
248.500000	1
249.254820	3
250.339996	1
252.217901	17
253.100006	1
262.700012	1
263.000000	1
263.299988	1
263.500000	1
263.700012	1
264.000000	1
264.500000	1
265.303074	2
267.242693	574
268.500000	1
268.700012	1
269.299988	1
