Mass spectrum: Cholesterol; LC-APPI-QQ; MS2; CE:50 V; [M-H2O+H]+
Name: Cholesterol
Class: Natural Product; Sterol
Formula: C27H46O
Exact mass: 386.35487
SMILES: CC(C4)(C(CC(O)C4)=3)C(C2)C(CC3)C(C1)C(C)(C2)C(C(C)CCCC(C)C)C1
InChI: InChI=1S/C27H46O/c1-18(2)7-6-8-19(3)23-11-12-24-22-10-9-20-17-21(28)13-15-26(20,4)25(22)14-16-27(23,24)5/h9,18-19,21-25,28H,6-8,10-17H2,1-5H3/t19?,21-,22?,23?,24?,25?,26?,27?/m0/s1
Instrument: API2000, Applied
Instrument type: LC-APPI-QQ
Ms type: MS2
Ion mode: POSITIVE
Retention time: 0.820833 min
Base peak: 94.800003
Precursor m/z: 369.420000
Precursor type: [M-H2O+H]+
m/z	relative intensity
38.099998	1
38.500000	1
38.850000	1
39.299999	1
39.700001	1
40.000000	1
41.082222	9
41.624999	1
43.077056	47
43.850000	1
44.099998	1
50.400000	1
50.750000	1
51.099998	1
51.799999	1
52.100000	1
52.799999	1
53.299999	1
55.058566	203
57.093949	197
58.074999	1
58.299999	1
58.799999	1
60.799999	1
61.299999	1
63.199999	1
63.800001	1
64.099998	1
64.400002	1
67.069510	367
69.068985	448
71.088956	133
72.300003	1
72.500000	1
74.450001	1
74.699997	1
75.400002	1
75.599998	1
75.875002	1
77.057608	19
79.002067	273
81.078161	919
83.089546	278
85.083224	31
86.000000	1
86.199997	1
87.000000	1
87.500000	1
87.900002	1
88.099998	1
88.800003	1
91.029258	281
93.071793	602
95.047526	999
97.092618	118
97.900002	1
98.099998	1
98.400002	1
98.850002	1
99.450001	1
101.199997	1
101.500000	1
102.000000	1
105.001976	643
107.023438	465
109.071261	652
111.072632	29
112.199997	1
112.400002	1
112.750000	1
113.450001	1
114.988889	2
117.081140	46
119.020730	431
121.045455	209
123.028004	112
123.900002	1
124.199997	1
124.599998	1
125.137500	2
125.699997	1
125.900002	1
126.199997	1
126.500000	1
127.199997	1
127.699997	1
128.150002	1
128.968749	6
131.095190	71
133.083542	275
135.039983	240
137.154651	17
138.199997	1
138.750000	1
139.399994	1
140.349998	1
140.800003	1
141.300003	1
141.900000	1
143.137235	9
145.062295	123
147.085563	457
149.089309	96
151.133334	5
152.699997	1
153.300003	1
154.199997	1
154.500000	1
154.699997	1
155.299998	1
155.600006	1
156.033335	1
157.084782	9
158.060004	4
159.094898	99
161.092967	250
163.156411	24
164.000000	1
164.199997	1
164.525002	1
164.842856	1
165.271430	1
165.600006	1
166.500000	1
167.500000	1
168.699997	1
168.899994	1
169.100006	1
169.399994	1
169.699997	1
170.300003	1
171.069565	5
172.200000	2
173.115111	45
175.089856	70
176.199997	1
177.192594	5
177.899994	1
178.199997	1
179.031579	2
179.458331	1
181.000000	1
181.500000	1
182.800003	1
183.100006	1
183.500000	1
183.849998	1
184.100006	1
185.240000	6
187.108242	37
187.862497	1
188.199997	1
189.151219	25
190.050003	1
190.349998	1
190.950002	3
191.371425	1
191.899994	1
192.699997	1
193.161540	3
194.600006	1
196.199997	1
197.099998	1
197.699997	1
198.000000	1
198.300003	1
198.830769	3
199.300000	6
199.989742	4
200.432139	3
201.107647	34
202.139999	1
203.125735	14
205.247366	2
207.066671	1
207.500000	1
211.000000	1
211.199997	1
211.399994	1
211.600006	1
212.000000	1
212.300003	1
213.076000	3
214.207144	3
215.173459	43
216.300003	1
217.038891	4
218.300003	1
219.075003	2
219.416662	1
220.300003	1
220.699997	1
221.100006	1
221.500000	1
222.699997	1
224.750000	1
225.500000	1
225.849998	1
226.199997	1
227.000000	1
227.199997	1
227.987501	1
228.500000	1
229.144002	5
229.849998	1
230.100006	1
230.989999	1
231.349998	1
232.399994	1
233.244444	2
235.000000	1
235.300003	1
235.600006	1
238.399994	1
239.199997	1
239.399994	1
240.100006	1
240.899994	1
241.200001	1
241.525002	1
242.300003	1
243.272882	6
244.199997	1
244.399994	1
245.399994	2
245.750000	1
247.022224	1
247.399996	1
248.199997	1
250.300003	1
251.399994	1
254.500000	1
255.274998	1
255.600006	1
256.000000	1
256.250000	1
256.500000	1
257.378723	5
257.899994	1
258.600006	1
259.245095	10
260.959998	1
261.299988	1
261.500000	1
261.799988	1
264.600006	1
268.100006	1
268.799988	1
270.200002	1
270.700012	1
271.399994	1
273.175011	1
273.500000	2
273.700012	1
274.299988	1
275.299988	1
276.200012	1
278.000000	1
280.899994	1
281.600006	1
282.200012	1
282.899994	1
283.200012	1
283.399994	1
283.849991	1
284.299988	1
285.000000	1
285.600006	1
285.899994	1
286.299988	1
287.000000	1
287.399997	2
288.100006	1
291.150009	1
292.299988	1
293.899994	1
294.200012	1
297.100006	1
298.799988	1
299.200012	1
299.750000	1
301.100006	1
301.399994	1
301.750000	1
309.600006	1
310.700012	1
311.100006	1
311.600006	1
312.899994	1
313.160004	1
313.575005	1
313.899994	1
315.000000	1
324.700012	1
325.000000	1
325.750000	1
326.399994	1
326.799988	1
327.200012	1
327.399994	1
327.600006	1
338.799988	1
339.050003	1
339.299988	1
340.799988	1
341.600006	1
351.449997	1
353.899994	1
354.100006	1
354.399994	1
354.600006	1
366.899994	1
367.100006	1
367.500000	1
368.299988	1
369.371421	3
370.100006	1
370.500000	1
