Mass spectrum: Stigmastanol; LC-APPI-QQ; MS2; CE:10 V; [M-H2O+H]+
Name: Stigmastanol
Class: Natural Product; Sterol
Formula: C29H52O
Exact mass: 416.40182
SMILES: C(C4)C(C(CC4O)3)(C(C(CC3)2)CCC(C21)(C(CC1)C(C)CCC(C(C)C)CC)C)C
InChI: InChI=1S/C29H52O/c1-7-21(19(2)3)9-8-20(4)25-12-13-26-24-11-10-22-18-23(30)14-16-28(22,5)27(24)15-17-29(25,26)6/h19-27,30H,7-18H2,1-6H3/t20?,21?,22?,23-,24?,25?,26?,27?,28?,29?/m0/s1
Instrument: API2000
Instrument type: LC-APPI-QQ
Ms type: MS2
Ion mode: POSITIVE
Retention time: 0.820850 min
Base peak: 399.500000
Precursor m/z: 399.500000
Precursor type: [M-H2O+H]+
m/z	relative intensity
44.799999	1
54.900002	1
57.099998	1
57.400002	1
69.250000	1
71.400002	1
80.099998	1
80.699997	1
81.099998	1
81.699997	1
83.099998	1
83.400002	1
84.800003	1
85.149998	1
94.825003	1
95.400002	1
96.850002	1
97.200001	1
98.800003	1
99.099998	1
99.400002	1
99.900002	1
100.099998	1
101.210001	1
106.099998	1
106.599998	1
107.699997	1
108.800003	1
109.199997	1
110.300003	1
110.649998	1
111.071429	1
111.500000	1
120.649998	1
121.049999	1
121.500000	1
122.500000	1
122.950001	1
123.199997	1
123.500000	1
125.000000	1
125.325003	1
127.300003	1
127.500000	1
128.600006	1
132.600006	1
133.000000	1
134.399994	1
134.800003	1
135.174999	1
135.899994	1
136.899994	1
137.474998	1
138.100006	1
138.399994	1
138.699997	1
139.025002	1
139.374996	1
141.000000	1
142.700005	1
143.025002	1
144.899994	1
145.199997	1
147.600006	1
148.699997	1
149.200000	2
150.050003	1
151.000000	1
151.287498	1
152.899994	1
153.199997	1
155.600006	1
160.800003	1
161.100006	1
161.399994	1
161.949997	1
162.939996	1
163.399994	1
164.600006	1
165.100006	1
165.357141	1
174.699997	1
174.949997	1
176.300003	1
177.102704	2
178.800003	1
179.000000	1
179.199997	1
179.525002	1
180.899994	1
189.100006	1
189.500000	1
190.399994	1
191.018183	1
191.366669	1
192.600006	1
192.800003	1
193.000000	1
193.224998	1
193.500000	1
193.699997	1
194.899994	1
199.151218	9
202.800003	1
203.100006	1
203.330000	1
205.053848	1
205.500000	1
206.899994	1
207.199997	1
207.399994	1
209.199997	1
209.500000	1
215.449997	1
217.474998	1
217.699997	1
219.200002	1
219.550003	1
221.100006	1
221.300003	1
221.600006	1
224.500000	1
225.008333	1
231.199997	1
232.899994	1
233.199997	1
233.399994	1
235.206899	2
242.600006	1
242.949997	1
243.300003	1
243.600006	1
243.899994	1
244.699997	1
244.974998	1
245.316666	1
247.000000	1
247.199997	1
247.500000	1
249.366664	1
255.000000	1
255.300003	1
257.100006	1
258.299988	1
258.899994	1
259.120007	1
259.500000	1
261.000000	1
261.349991	1
263.000000	1
263.399994	1
263.799988	1
270.899994	1
273.175011	1
273.399994	1
273.600006	1
274.899994	1
275.637508	1
277.250000	1
277.799988	1
283.200012	1
287.116674	1
289.385182	2
289.899994	1
296.299988	1
298.200012	1
299.212201	42
300.949997	1
301.200012	1
301.399994	1
301.750000	1
303.200012	1
303.399994	1
303.700012	1
315.299998	1
316.899994	1
317.200012	1
317.700002	1
324.399994	1
325.449997	1
329.500000	1
331.000000	1
338.500000	1
343.175011	1
343.500000	1
344.000000	1
345.399994	1
353.399994	1
355.100006	1
355.700012	1
357.600006	1
371.600006	1
381.399994	1
381.799988	1
395.399994	1
395.799988	1
396.000000	1
396.349991	1
396.700012	1
397.399994	1
399.425679	999
