Mass spectrum: 44m2PFOS; LC-ESI-QQ; MS2; CE60eV
Name: 44m2PFOS
Class: Non-Natural Product
Formula: C8HF17O3S
Exact mass: 499.93749
SMILES: FC(F)(F)C(F)(F)C(C(F)(F)F)(C(F)(F)F)C(F)(F)C(F)(F)C(F)(F)S(O)(=O)=O
InChI: InChI=1S/C8HF17O3S/c9-2(10,4(13,14)8(24,25)29(26,27)28)1(5(15,16)17,6(18,19)20)3(11,12)7(21,22)23/h(H,26,27,28)
Instrument: Xevo TQ, Waters
Instrument type: LC-ESI-QQ
Ms type: MS2
Ion mode: NEGATIVE
Collision energy: 60eV
Retention time: 12.547733 min
Base peak: 79.580612
Precursor m/z: 498.9
Precursor type: [M-H]-
m/z	relative intensity
61.716126	77
68.719945	606
79.749132	999
118.927652	96
129.606516	426
244.376133	63
268.858547	392
326.876530	445
382.085087	54
