Mass spectrum: Androstenedione; LC-APPI-QQ; MS2; CE:10 V; [M+H]+
Name: Androstenedione
Class: Natural Product; Steroid hormone
Formula: C19H26O2
Exact mass: 286.19328
SMILES: O=C(C4)C=C(C3)C(C)(C4)C(C2)C(C3)C(C1)C(C)(C2)C(=O)C1
InChI: InChI=1S/C19H26O2/c1-18-9-7-13(20)11-12(18)3-4-14-15-5-6-17(21)19(15,2)10-8-16(14)18/h11,14-16H,3-10H2,1-2H3/t14?,15?,16?,18-,19-/m0/s1
Instrument: API2000
Instrument type: LC-APPI-QQ
Ms type: MS2
Ion mode: POSITIVE
Retention time: 0.820850 min
Base peak: 287.200012
Precursor m/z: 287.300000
Precursor type: [M+H]+
m/z	relative intensity
36.099998	1
71.099998	1
80.900002	1
81.800003	1
82.000000	1
82.199997	1
82.400002	1
82.955556	1
83.300003	1
91.300003	1
93.199997	1
93.699997	1
94.950001	1
95.400002	1
96.049999	1
97.073896	5
98.300003	1
104.800003	1
105.199997	1
105.800003	1
106.500000	1
107.000000	1
109.042581	3
110.599998	1
110.900002	1
111.400002	1
115.000000	1
118.599998	1
118.900002	1
120.199997	1
120.980000	1
121.400002	1
122.199997	1
123.099998	1
123.300003	1
130.000000	1
130.399994	1
131.000000	1
131.400002	1
131.800003	1
133.137503	1
134.000000	1
135.000000	1
135.300003	1
136.800003	1
137.199997	1
139.500000	1
140.600006	1
141.100006	1
141.800003	1
142.600006	1
142.899994	1
143.199997	1
143.849998	1
144.199997	1
145.099998	1
145.899994	1
147.062965	1
147.800003	1
148.199997	1
149.100006	1
149.300003	1
149.500000	1
150.000000	1
151.100006	1
151.600006	1
152.800003	1
153.100006	1
153.399994	1
154.199997	1
154.500000	1
154.699997	1
155.150002	1
156.600006	1
156.800003	1
157.000000	1
157.349998	1
158.399994	1
159.015384	1
161.094445	1
162.699997	1
162.899994	1
163.100006	1
163.300003	1
164.399994	1
164.600006	1
165.075005	1
165.300003	1
166.699997	1
167.100006	1
168.300003	1
168.500000	1
168.800003	1
169.042858	1
169.399994	1
169.800003	1
170.399994	1
171.090910	1
171.600006	1
172.199997	1
173.192001	1
175.000000	1
175.300003	1
176.500000	1
176.800003	1
177.229999	1
177.600006	1
178.100006	1
178.899994	1
179.300000	1
179.899994	1
180.800003	1
181.200001	1
182.775002	1
183.100001	1
184.300003	1
185.195656	1
185.500000	1
186.300003	1
186.899994	1
187.278572	1
189.100006	1
189.374996	1
190.300003	1
191.138465	1
193.133330	1
194.100006	1
194.899994	1
195.100006	1
196.699997	1
196.949997	1
198.399994	1
199.211762	1
200.000000	1
200.674999	1
201.199997	1
201.699997	1
202.916667	1
203.399998	1
204.100006	1
204.300003	1
205.090001	1
205.800003	1
206.300003	1
206.899994	1
207.300003	1
207.500000	1
208.550003	1
209.134614	1
209.849998	1
210.300003	1
211.169048	1
212.200002	1
213.260001	1
213.949997	1
214.399994	1
215.000000	1
215.199997	1
216.000000	1
216.399994	1
217.187500	1
222.000000	1
222.399994	1
223.000000	1
223.239999	1
223.500000	1
224.300003	1
225.031581	1
225.361536	1
226.399999	1
227.256000	1
227.899994	1
229.197069	5
230.000000	1
231.066666	1
231.540002	1
235.800003	1
236.100006	1
239.000000	1
239.300003	1
240.500000	1
241.249999	1
243.199997	1
243.500000	1
244.100006	1
244.600006	1
244.949997	1
245.233332	1
245.699997	1
250.416662	1
251.237931	3
254.000000	1
255.224998	1
256.399994	1
256.799988	1
257.299988	1
257.500000	1
257.899994	1
258.600006	1
259.228568	1
266.000000	1
267.100006	1
267.799988	1
269.256368	8
270.700012	1
272.100006	1
272.650009	1
279.000000	1
280.399994	1
280.899994	1
281.100006	1
281.600006	1
282.100006	1
282.299988	1
282.550003	1
282.799988	1
283.000000	1
283.299998	1
283.733337	1
284.200012	1
284.516668	1
287.255846	999
289.250000	1
289.600006	1
291.799988	1
