Mass spectrum: Dihydrotestosterone; LC-APPI-QQ; MS2; CE:50 V; [M-H2O+H]+
Name: Dihydrotestosterone
Class: Natural Product; Steroid hormone
Formula: C19H30O2
Exact mass: 290.22458
SMILES: O=C(C4)CC([H])(C3)C(C)(C4)C(C2)C(C3)C(C1)C(C)(C2)C(O)C1
InChI: InChI=1S/C19H30O2/c1-18-9-7-13(20)11-12(18)3-4-14-15-5-6-17(21)19(15,2)10-8-16(14)18/h12,14-17,21H,3-11H2,1-2H3/t12-,14?,15?,16?,17-,18?,19?/m0/s1
Instrument: API2000
Instrument type: LC-APPI-QQ
Ms type: MS2
Ion mode: POSITIVE
Retention time: 0.820833 min
Base peak: 81.099998
Precursor m/z: 273.200000
Precursor type: [M-H2O+H]+
m/z	relative intensity
39.400002	1
39.900002	1
40.099998	1
40.966667	9
41.228572	9
43.086047	54
43.950001	1
44.850000	2
45.275000	2
50.799999	1
52.400002	1
53.000000	4
53.270000	6
53.574999	2
53.900002	2
55.098300	220
56.299999	2
57.050000	31
58.000000	1
59.000000	1
59.400002	1
65.122222	17
65.562499	5
65.800003	4
67.130929	510
69.110089	210
69.875002	2
70.566666	4
71.143476	14
71.800003	1
72.199997	1
73.099998	1
75.150002	2
75.699997	2
75.900002	2
77.076712	182
79.047578	721
81.124859	999
83.052688	116
84.099998	1
84.400002	1
84.800003	2
85.250000	2
87.699997	1
88.000000	1
88.300003	1
88.900000	3
89.512500	5
89.900002	7
91.093396	794
93.103125	799
95.070781	688
97.054924	165
97.900002	2
98.099998	2
98.300003	1
98.500000	1
98.900002	1
99.199999	2
100.000000	1
101.099998	1
101.400002	1
101.750000	2
102.350002	4
103.095453	27
105.062536	866
107.066139	512
109.095594	510
110.099998	2
111.067999	16
113.000000	1
113.199997	1
113.500000	1
113.900002	1
114.149998	1
115.170730	26
116.063636	14
117.067987	205
119.089937	397
120.099998	6
121.139754	152
121.800003	6
123.060369	439
124.300003	1
125.099998	2
125.500000	1
125.800003	1
126.000000	1
126.199997	1
127.000000	5
127.366669	7
129.076238	126
131.166170	251
133.179897	121
133.800003	1
134.000000	2
135.152380	26
136.100006	1
136.300003	1
136.500000	1
137.187498	5
138.899994	1
140.050003	1
140.500000	2
140.699997	3
141.176190	26
141.699997	7
142.137778	56
143.158475	147
145.131161	172
145.849998	4
147.155921	95
147.800003	2
148.000000	4
148.399994	2
149.168518	34
149.750000	1
150.100006	1
150.500000	1
151.100001	2
152.075005	5
152.300003	2
152.500000	2
153.060001	3
153.399994	1
153.800003	1
154.000000	2
154.333328	4
154.800003	5
155.252633	12
155.600006	3
157.121951	102
159.115386	130
161.133627	71
161.899994	1
162.300003	1
162.600006	2
163.200000	20
164.250000	1
165.199997	5
165.600006	1
165.899994	1
166.899994	2
167.399994	1
167.899994	1
168.500000	2
169.058337	15
171.062500	50
172.199997	5
172.399994	6
173.000000	14
173.199997	21
174.000000	1
174.300003	1
174.600006	1
175.416662	4
176.100001	2
176.399994	1
176.899994	3
177.399994	2
177.699997	1
178.100000	4
178.600006	1
179.000000	2
179.199997	1
180.000000	1
180.199997	1
181.100006	1
181.399994	1
181.799998	2
182.800003	6
183.000000	6
183.783335	4
184.200003	12
185.187879	41
186.133334	7
187.207140	9
187.939996	6
189.123405	59
189.800003	1
190.250000	5
190.899994	2
191.199997	2
191.399994	1
191.600006	1
192.199997	1
193.899994	1
194.800003	1
195.150002	1
195.399994	1
195.699997	1
196.199997	1
196.600006	1
197.162502	10
198.166665	7
199.290243	51
199.800003	3
200.000000	4
200.440002	12
202.140192	130
203.299999	5
204.600006	1
205.199997	1
209.150002	1
210.100006	1
210.449997	1
210.899994	1
211.100006	3
211.500000	3
212.199997	2
213.020001	12
213.399996	9
213.914287	9
215.153208	165
216.018181	14
217.067743	19
217.849998	1
218.200005	2
218.800003	1
219.349998	1
223.000000	1
223.399994	1
223.899994	1
224.300003	1
225.081250	10
226.155103	31
227.238461	16
228.199997	7
228.487499	5
229.203572	35
230.025002	15
230.600006	1
231.000000	1
232.349998	1
237.699997	1
238.000000	1
238.199997	2
239.175862	18
239.800003	1
240.259998	6
241.257143	9
242.399994	3
243.085713	9
243.500000	3
244.000000	6
244.325001	5
244.600006	2
245.257141	9
245.800003	1
246.600006	1
251.600006	1
252.699997	1
253.300003	1
253.600006	2
254.000000	1
255.150002	14
255.600006	6
256.200012	1
256.849991	4
257.200012	2
257.500000	2
257.725006	2
258.216675	7
258.799988	1
270.799988	1
271.000000	2
271.500000	1
271.799988	1
272.299988	2
273.399994	9
273.799988	1
