Mass spectrum: Daidzein; LC-APPI-QQ; MS2; CE:60 V; [M+H]+
Name: Daidzein
Class: Natural Product; Isoflavone
Formula: C15H10O4
Exact mass: 254.05791
SMILES: Oc(c3)ccc(c3)C(=C1)C(=O)c(c2)c(cc(O)c2)O1
InChI: InChI=1S/C15H10O4/c16-10-3-1-9(2-4-10)13-8-19-14-7-11(17)5-6-12(14)15(13)18/h1-8,16-17H
Instrument: API2000
Instrument type: LC-APPI-QQ
Ms type: MS2
Ion mode: POSITIVE
Retention time: 0.820867 min
Base peak: 91.000000
Precursor m/z: 255.400000
Precursor type: [M+H]+
m/z	relative intensity
31.500000	1
36.500000	1
37.000000	1
37.200001	1
37.500000	1
39.037037	5
41.098165	4
41.799999	1
43.082456	4
44.000000	1
44.299999	1
44.500000	1
44.799999	1
47.099998	1
48.599998	1
48.950001	1
49.200001	1
49.400002	1
49.700001	1
51.110393	7
53.100238	31
55.043417	53
56.124999	1
56.400002	1
56.650000	1
56.900002	1
57.300000	1
58.800001	1
59.099998	1
59.400002	1
59.599998	1
60.099998	1
60.799999	1
61.400000	1
65.078986	690
67.153751	1
69.031468	75
71.014634	2
71.900002	1
72.400002	1
72.850002	1
75.012876	9
77.083727	110
78.032782	68
81.072061	341
82.849999	1
83.199997	1
83.599998	1
84.300003	1
85.099998	1
85.400002	1
85.900002	1
86.450001	1
89.087291	65
91.058519	999
93.064051	31
95.003637	4
96.099999	1
96.900002	1
97.199997	1
97.599998	1
97.800003	1
98.099998	1
98.350002	1
98.599998	1
98.933334	1
99.649998	1
101.101881	12
103.062269	28
105.025829	101
106.019494	57
107.009334	14
109.046147	40
110.012500	1
111.220832	1
112.166664	1
115.064801	104
118.087097	32
119.031440	38
121.015498	28
121.800003	1
122.099998	1
123.358335	1
123.975000	1
127.098151	155
128.074493	314
131.083917	59
134.098580	18
137.027803	202
139.024898	14
141.102398	62
142.091886	8
143.118069	15
144.081015	20
145.026458	17
147.102108	19
148.090005	1
152.088959	663
153.083281	143
155.055148	32
156.071200	9
157.098725	20
158.120001	1
159.133332	1
160.105883	1
160.973683	1
163.074496	14
164.232728	4
165.080171	11
166.500000	1
169.071122	45
170.064677	15
171.049697	18
171.978570	1
172.299997	1
172.962498	1
175.085982	2
176.300003	1
176.600006	1
177.025002	1
177.500000	1
178.100006	1
179.138519	5
181.093194	204
184.086591	39
185.334998	1
186.100006	1
187.092858	2
189.150005	1
190.000000	1
190.500000	1
191.000000	1
191.300003	1
191.979999	1
192.219998	1
193.000000	1
193.500000	1
193.699997	1
194.100006	1
194.300003	1
195.484210	1
197.123031	81
199.153825	21
200.142623	1
201.254547	1
205.800003	1
206.899994	1
207.199997	1
208.130231	2
209.146847	6
210.128302	4
212.162502	2
212.883329	1
213.410526	1
214.899994	1
215.100006	1
215.750000	1
217.750000	1
218.100006	1
219.057500	1
220.150002	1
220.699997	1
221.050003	1
221.399994	1
222.000000	1
222.849998	1
223.250000	1
223.500000	1
223.899994	1
224.100006	1
224.300003	1
225.161590	6
226.081862	4
227.103722	4
228.199997	1
229.199997	1
235.050003	1
235.899994	1
236.141669	1
237.181092	4
238.300003	1
238.500000	1
239.199997	1
239.399994	1
240.399994	1
253.080357	1
253.899994	1
254.199997	1
254.399994	1
254.978124	1
