Mass spectrum: Estrone; LC-APPI-QQ; MS2; CE:60 V; [M+H]+
Name: Estrone
Class: Natural Product; Steroid hormone
Formula: C18H22O2
Exact mass: 270.16198
SMILES: Oc(c4)cc(C3)c(c4)C(C2)C(C3)C(C1)C(C)(C2)C(=O)C1
InChI: InChI=1S/C18H22O2/c1-18-9-8-14-13-5-3-12(19)10-11(13)2-4-15(14)16(18)6-7-17(18)20/h3,5,10,14-16,19H,2,4,6-9H2,1H3
Instrument: API2000
Instrument type: LC-APPI-QQ
Ms type: MS2
Ion mode: POSITIVE
Retention time: 0.820867 min
Base peak: 105.199997
Precursor m/z: 271.100000
Precursor type: [M+H]+
m/z	relative intensity
37.299999	1
38.000000	1
38.400002	1
39.075000	1
39.860000	1
41.088930	23
43.077598	139
45.071429	5
46.500000	1
46.900002	1
47.099998	1
50.099998	1
50.400002	1
51.124999	1
53.063133	19
55.077029	113
56.400002	1
57.023076	2
57.299999	1
58.299999	1
58.916667	2
59.400002	1
61.200001	1
61.700001	1
62.099998	1
62.350000	1
63.142857	1
65.087915	44
67.116967	149
68.099998	1
68.300003	1
69.129032	16
71.106927	60
71.900002	1
72.199997	1
72.400002	1
73.099998	1
73.800001	1
74.699997	1
75.025000	1
77.070483	333
79.049642	506
81.137972	181
82.300003	1
82.539999	1
83.000000	3
84.300003	1
84.886666	3
86.500000	1
86.800003	1
87.033333	1
87.699997	1
88.674997	2
91.075715	574
93.128616	55
94.078461	28
95.114047	26
96.000000	1
96.400002	1
97.020513	3
97.699999	1
98.199997	1
98.400002	1
98.900002	1
99.149998	1
99.699997	1
99.900002	1
100.350002	1
103.075629	240
105.059713	999
107.040072	290
108.099998	1
109.000000	1
110.199997	1
110.500000	1
110.800003	1
111.173333	1
111.900002	1
115.089230	574
116.121475	209
117.115240	65
119.040876	12
121.108219	25
122.000000	1
122.950001	1
123.500000	1
124.000000	1
124.300003	1
124.800003	1
127.085843	278
128.096655	351
129.088926	184
131.127675	426
133.108327	487
134.058337	1
134.825001	1
135.374996	1
136.800003	1
137.199997	1
137.399994	1
137.899994	1
138.174999	1
139.064635	14
141.131346	326
144.075377	688
146.183332	6
147.117424	11
148.100006	1
148.399994	1
148.699997	1
149.050003	1
149.300003	1
149.849998	1
150.100006	1
152.133115	79
153.120736	115
155.104966	63
157.128170	479
159.118988	145
160.216665	1
161.030002	1
161.924995	1
162.399994	1
162.837500	1
165.113945	173
166.073912	20
167.153052	28
168.207299	24
169.082819	64
170.141131	34
171.108138	40
172.181187	9
173.099998	3
174.650002	1
174.974998	1
175.528573	1
177.189610	27
178.176523	78
179.168691	74
181.138899	185
182.198387	118
183.121167	87
184.107318	7
185.066667	11
186.100006	1
186.399994	1
186.899994	1
187.500000	1
187.800003	1
188.150002	1
189.125863	5
190.140985	5
191.125531	8
192.266666	3
194.161018	20
195.131005	40
196.146738	16
197.176768	34
198.186364	11
199.199997	1
199.500000	1
199.899994	1
200.100006	1
200.349998	1
201.100006	1
201.500000	1
202.100006	1
202.349998	1
202.600006	1
203.000000	1
203.600006	1
203.899994	1
204.100006	1
204.399994	1
205.349998	1
205.899994	1
206.199997	1
206.800003	1
207.000000	1
207.261538	2
208.019047	4
209.206850	13
209.952378	2
211.178183	5
212.300003	1
212.800003	1
213.084616	3
213.899994	1
214.100006	1
214.399994	1
215.199997	1
216.699997	1
218.950001	1
219.449997	1
219.800003	1
220.600006	1
221.000000	1
221.199997	1
221.500000	1
221.800003	1
223.273809	4
224.160004	1
224.600006	1
225.200005	1
225.899994	1
226.899999	1
227.299998	1
227.899994	1
228.300003	1
228.699997	1
230.399994	1
233.199997	1
234.800003	1
235.500000	1
236.349998	1
237.300003	1
237.600006	1
237.899994	1
238.399994	1
239.000000	1
239.500000	1
240.000000	1
240.500000	1
240.800003	1
241.000000	1
241.349998	1
242.199997	1
242.464284	1
242.750000	1
243.100006	1
243.349998	1
243.600006	1
244.800003	1
249.300003	1
250.100006	1
250.399994	1
250.800003	1
251.000000	1
251.300003	1
251.550003	1
252.199997	1
252.500000	1
253.000000	1
253.300003	1
254.949997	1
255.199997	1
256.399994	1
268.399994	1
268.899994	1
269.100006	1
270.299988	1
270.700012	1
271.133341	1
271.700012	1
