Mass spectrum: Oseltamivir acid; LC-APPI-QQ; MS2; CE50; [M+H]+
Name: Oseltamivir acid
Class: Non-Natural Product
Formula: C14H24N2O4
Exact mass: 284.17361
SMILES: CCC(CC)OC(C=1)C(NC(C)=O)C(N)CC(C(O)=O)1
InChI: InChI=1S/C14H24N2O4/c1-4-10(5-2)20-12-7-9(14(18)19)6-11(15)13(12)16-8(3)17/h7,10-13H,4-6,15H2,1-3H3,(H,16,17)(H,18,19)/t11-,12+,13+/m0/s1
Instrument: API2000, Applied
Instrument type: LC-APPI-QQ
Ms type: MS2
Ion mode: POSITIVE
Collision energy: 50V
Retention time: 0.820867 min
Base peak: 94.099998
Precursor m/z: 285.2
Precursor type: [M+H]+
m/z	relative intensity
38.599998	1
38.900002	1
41.153846	4
41.875001	2
43.129052	88
43.799999	1
44.191666	3
45.172222	5
46.163636	1
46.900002	1
48.700001	1
49.900002	1
50.500000	1
50.900002	1
51.099998	1
51.599998	1
52.299999	1
52.500000	1
53.100001	1
54.099998	1
55.044445	5
55.750000	1
56.225000	1
57.100000	2
57.900000	1
58.200001	1
58.400002	1
60.062761	65
61.700001	1
62.299999	1
62.700001	1
62.900002	1
63.500000	1
63.700001	1
65.100797	136
67.113532	200
68.800003	1
69.083332	1
69.579999	1
70.063636	3
71.189656	8
72.199997	1
72.450001	1
73.049999	1
73.400002	1
74.000000	1
74.875002	1
75.300000	1
77.074839	294
80.040404	54
82.136451	56
83.078539	30
84.000000	1
84.266665	1
85.199999	1
85.500000	1
86.599998	1
87.000000	1
87.300003	1
87.699997	1
88.149998	1
88.450001	1
89.049999	1
89.400002	1
89.599998	1
89.850002	1
92.057827	294
94.056603	999
95.900002	2
96.950001	1
97.199997	1
97.400002	1
97.900002	1
98.400002	1
98.599998	1
99.300003	1
99.900002	1
100.199999	1
101.300003	1
101.599998	1
101.850002	1
102.300003	1
102.599998	1
103.099998	1
103.966667	1
104.500000	1
105.089999	1
105.966667	2
106.199997	1
107.074999	1
109.100841	97
110.024635	74
111.050893	15
112.118180	1
112.900002	1
113.400002	1
113.900002	1
114.099998	1
114.400002	1
115.599998	1
116.000000	1
116.599998	1
116.875002	1
117.199997	1
120.020320	542
121.800003	1
122.300003	1
122.900002	1
123.199997	1
123.825003	1
124.300003	1
124.950001	1
125.500000	1
125.699997	1
125.900002	1
126.099998	1
126.300003	1
126.800003	1
127.000000	1
127.300003	1
127.925001	1
129.000000	1
129.199997	1
129.399994	1
129.699997	1
130.199997	1
130.800003	1
131.250000	1
131.650002	1
131.899994	1
132.150002	1
132.961905	6
134.078408	12
135.050003	1
138.058440	232
138.899994	1
139.899994	1
141.300003	1
143.300003	1
143.899994	1
144.300003	1
144.550003	1
144.800003	1
145.199997	1
146.500000	1
147.199997	1
147.500000	1
147.899994	1
148.699997	1
149.150002	1
149.899994	1
150.899994	1
151.399994	1
151.899994	1
152.300003	1
152.699997	1
153.399994	1
153.699997	1
154.000000	1
154.399994	1
154.600006	1
154.949997	1
155.300003	1
156.000001	4
157.899994	1
159.250000	1
159.650002	1
160.100006	1
160.349998	1
160.699997	1
161.091667	3
162.140817	7
164.050003	1
164.699997	1
164.949997	1
165.300003	1
165.800003	1
166.399994	1
167.300003	1
168.250000	1
168.500000	1
168.800003	1
169.000000	1
169.399994	1
172.699997	1
172.899994	1
173.199997	1
175.100006	1
177.399994	1
178.199997	1
178.399994	1
179.166667	1
179.500000	1
179.800003	1
180.100006	1
180.600006	1
180.800003	1
181.899994	1
182.150002	1
184.199997	1
194.199997	1
196.699997	1
197.399994	1
197.699997	1
198.199997	1
199.000000	1
199.899994	1
201.000000	1
202.300003	1
203.300003	1
204.500000	1
207.899994	1
210.000000	1
210.300003	1
211.399994	1
212.100006	1
212.300003	1
213.300003	1
215.199997	1
223.300003	1
224.899994	1
225.800003	1
226.250000	1
227.399994	1
228.000000	1
228.299998	1
228.750000	1
229.200002	1
229.500000	1
231.199997	1
234.100006	1
238.300003	1
238.899999	1
239.300003	1
240.800003	1
241.199997	1
242.199997	1
249.899994	1
251.000000	1
252.800003	1
253.399994	1
254.399994	1
254.800003	1
255.300003	1
256.200012	1
257.100006	1
257.299988	1
269.050003	1
269.700012	1
269.899994	1
283.700012	1
285.299988	1
