Mass spectrum: 73FTA; LC-ESI-QQ; MS
Name: 73FTA
Name: 73Fluorotelomer Acid
Name: 4,4,5,5,6,6,7,7,8,8,9,9,10,10,10-Pentadecafluorodecanoic acid
Class: Non-Natural Product
Formula: C10H5F15O2
Exact mass: 442.00500
SMILES: OC(=O)CCC(F)(F)C(F)(F)C(F)(F)C(F)(F)C(F)(F)C(F)(F)C(F)(F)F
InChI: InChI=1S/C10H5F15O2/c11-4(12,2-1-3(26)27)5(13,14)6(15,16)7(17,18)8(19,20)9(21,22)10(23,24)25/h1-2H2,(H,26,27)
Instrument: Xevo TQ MS (Waters)
Instrument type: LC-ESI-QQ
Ms type: MS
Ion mode: NEGATIVE
Retention time: 0.016867
Base peak: 441.169586
Ion type: [M-H]-
m/z	relative intensity
58.965401	163
62.928867	34
74.364227	31
74.920387	91
135.042053	43
317.027863	31
337.007965	204
356.986267	78
441.073853	999
