Mass spectrum: Androsterone; LC-APPI-QQ; MS2; CE:10 V; [M-H2O+H]+
Name: Androsterone
Class: Natural Product; Steroid hormone
Formula: C19H30O2
Exact mass: 290.22458
SMILES: OC(C4)CC([H])(C3)C(C)(C4)C(C2)C(C3)C(C1)C(C)(C2)C(=O)C1
InChI: InChI=1S/C19H30O2/c1-18-9-7-13(20)11-12(18)3-4-14-15-5-6-17(21)19(15,2)10-8-16(14)18/h12-16,20H,3-11H2,1-2H3/t12-,13+,14?,15?,16?,18?,19?/m0/s1
Instrument: API2000
Instrument type: LC-APPI-QQ
Ms type: MS2
Ion mode: POSITIVE
Retention time: 0.820850 min
Base peak: 273.299988
Precursor m/z: 273.300000
Precursor type: [M-H2O+H]+
m/z	relative intensity
67.400002	1
69.199997	1
78.699997	1
80.450001	1
80.699997	1
81.400002	1
82.649998	1
82.900002	1
85.500000	1
91.000000	1
93.149998	1
94.199997	1
94.900002	1
95.199997	1
96.900002	1
97.300003	1
104.500000	1
104.866666	1
106.400002	1
106.728571	1
107.033333	1
107.350002	1
108.599998	1
108.900002	1
109.300003	1
109.500000	1
110.699997	1
111.199997	1
118.000000	1
118.500000	1
119.199997	1
119.400002	1
121.199998	1
121.900002	1
123.000000	1
123.300003	1
124.900002	1
125.099998	1
128.399994	1
129.300003	1
130.949997	1
131.374996	1
132.500000	1
133.016668	1
133.333333	1
133.699997	1
134.100006	1
134.399994	1
135.080000	2
136.100006	1
136.300003	1
136.949997	1
137.316668	1
139.000000	1
139.250000	1
141.699997	1
142.899994	1
143.100006	1
143.600006	1
145.028888	5
146.100006	1
147.129517	9
147.800003	1
148.199997	1
149.185715	1
150.000000	1
150.500000	1
150.899994	1
151.100006	1
151.359998	1
152.699997	1
157.800003	1
159.124244	4
161.112149	12
162.899994	1
163.216665	1
164.800003	1
165.050003	1
165.399994	1
165.600006	1
167.199997	1
170.849998	1
171.224998	1
171.500000	1
172.199997	1
172.500000	1
172.966665	1
174.600006	1
175.168750	1
175.600006	1
176.199997	1
176.899994	1
177.228572	1
178.800003	1
179.550003	1
180.800003	1
181.033335	1
181.500000	1
182.100006	1
182.899994	1
183.250000	1
185.100006	1
186.800003	1
187.000000	1
187.199997	1
187.899994	1
188.600006	1
189.399994	1
190.100006	1
190.399994	1
191.154548	1
194.800003	1
195.199997	1
195.699997	1
197.150002	1
198.250000	1
199.185245	13
199.899994	1
200.300003	1
200.989999	1
201.209998	1
202.199997	1
202.600006	1
202.800003	1
203.125000	1
205.600006	1
208.800003	1
209.100006	1
209.399994	1
211.300003	1
211.899994	1
212.300003	1
212.500000	1
213.235716	3
214.300003	1
214.600006	1
215.225000	1
215.899994	1
216.150002	1
216.399994	1
217.272730	1
226.000000	1
227.200000	1
227.500000	1
227.800003	1
228.399994	1
228.899994	1
229.100006	1
229.500000	1
230.199997	1
230.500000	1
230.800003	1
231.300003	1
237.500000	1
240.300003	1
240.550003	1
241.132608	3
242.300003	1
243.399994	1
244.600006	1
245.100003	1
245.399994	1
248.500000	1
252.800003	1
253.199997	1
253.699997	1
253.899994	1
255.305993	217
256.399994	1
256.600006	1
257.100006	1
257.700012	1
258.200002	1
259.000000	1
259.399994	1
265.500000	1
269.799988	1
270.100006	1
270.299988	1
270.500000	1
270.750000	1
271.239996	1
273.314401	999
274.899994	1
