Mass spectrum: Coprostanol; LC-APPI-QQ; MS2; CE:20 V; [M-H2O+H]+
Name: Coprostanol
Class: Natural Product; Sterol
Formula: C27H48O
Exact mass: 388.37052
SMILES: C(C)(C1)(C(C(C)CCCC(C)C)4)C(CC4)C(C2)C(C(C)(C3)C([H])(CC(C3)O)C2)C1
InChI: InChI=1S/C27H48O/c1-18(2)7-6-8-19(3)23-11-12-24-22-10-9-20-17-21(28)13-15-26(20,4)25(22)14-16-27(23,24)5/h18-25,28H,6-17H2,1-5H3/t19?,20-,21+,22?,23?,24?,25?,26?,27?/m1/s1
Instrument: API2000, Applied
Instrument type: LC-APPI-QQ
Ms type: MS2
Ion mode: POSITIVE
Retention time: 0.820867 min
Base peak: 371.500000
Precursor m/z: 371.466000
Precursor type: [M-H2O+H]+
m/z	relative intensity
40.799999	1
41.000000	1
41.200001	1
43.199999	1
53.099998	1
53.400002	1
55.000000	1
55.400000	1
55.750000	1
57.000000	1
57.212501	1
65.699997	1
65.900002	1
66.909525	2
67.271429	1
67.800003	1
68.000000	1
68.300003	1
68.900002	1
69.133331	2
69.950001	1
70.199997	1
70.912123	3
73.099998	1
76.800003	1
78.699997	1
78.950001	1
79.199997	1
79.400002	1
81.088542	32
82.124998	1
83.102857	11
83.800003	1
84.884617	1
85.335717	1
85.900002	1
89.049999	1
90.599998	1
90.800003	1
91.199997	1
92.099998	1
93.272729	2
93.775002	1
95.046883	63
97.096875	21
98.000000	1
98.599998	1
98.900002	1
99.199997	1
100.599998	1
103.000000	1
104.049999	1
104.300003	1
104.599998	1
104.800003	1
105.224998	1
105.699997	1
105.950001	1
107.033721	7
109.057801	55
111.070286	29
113.130770	1
115.099998	1
118.000000	1
118.800003	1
119.099998	1
119.633331	1
119.975000	1
121.044803	23
123.034867	34
123.800003	1
125.117895	16
127.039999	1
127.900002	1
128.700000	1
129.000000	1
129.500000	1
131.699997	1
132.000000	1
132.600006	1
133.077779	1
134.140001	1
135.084615	49
137.093438	26
138.050003	1
138.399994	1
139.131817	4
140.750000	1
141.100006	1
141.449997	1
141.899994	1
144.899994	1
145.699997	1
146.100006	1
146.349998	1
147.199999	4
149.121702	56
149.800003	1
150.100006	1
151.104013	25
151.800003	1
153.020690	2
153.399994	1
155.000000	1
157.800003	1
159.000000	1
159.399994	1
159.699997	1
159.949997	1
161.090910	4
161.781819	1
163.157475	42
165.121927	25
165.800003	1
166.300003	1
166.800003	1
167.100006	1
172.300003	1
172.699997	1
172.899994	1
173.349998	1
173.800003	1
174.300003	1
175.267997	4
176.174999	1
177.201892	35
178.399994	1
179.180666	25
180.199997	1
180.974998	1
181.342858	1
183.250000	1
184.899994	1
186.100006	1
186.849998	1
187.199997	1
187.399994	1
187.600006	1
188.000000	1
189.199216	21
190.000000	1
191.161650	17
191.699997	1
192.000000	1
193.198666	25
193.800003	1
194.100006	1
194.500000	1
195.100006	1
195.500000	1
199.150002	1
200.800003	1
201.300003	1
201.699997	1
202.100006	1
203.134782	26
203.899994	1
205.213726	17
207.175177	46
208.100006	1
208.699997	1
209.000000	1
213.800003	1
214.199997	1
214.934782	2
217.179311	21
218.000000	1
218.399994	1
219.024617	5
221.189473	16
223.100006	1
229.500000	1
229.960001	1
231.213979	15
232.200002	1
233.209092	11
234.300003	1
235.146156	4
236.399994	1
239.100006	1
240.849998	1
241.150002	1
241.399994	1
242.800003	1
243.000000	1
243.500000	1
243.899994	1
244.200003	1
245.231846	13
246.100001	1
246.500000	1
247.323933	10
248.050003	1
248.500000	1
248.800003	1
249.523531	1
256.399994	1
257.100006	1
257.399994	1
257.899994	1
258.100006	1
258.600006	1
259.241667	14
260.200002	1
261.315434	26
263.200012	1
266.500000	1
266.899994	1
267.250000	1
267.700012	1
269.600006	1
271.700012	1
272.200012	1
272.799988	1
273.215997	4
274.500000	1
275.259849	11
276.799988	1
277.299988	1
277.650009	1
279.500000	1
280.799988	1
285.500000	1
286.299988	1
286.500000	1
287.108702	2
287.399994	1
288.299988	1
288.500000	1
289.345832	8
290.299988	1
300.100006	1
300.700012	1
301.192305	2
302.399994	1
303.274994	1
303.600006	1
313.000000	1
313.299988	1
313.700012	1
314.399994	1
315.287344	6
317.399994	1
327.150009	1
327.899994	1
328.299988	1
329.100006	1
329.299988	1
329.533335	1
330.500000	1
339.200012	1
341.100006	1
342.000000	1
342.399994	1
342.899994	1
343.100006	1
343.399994	1
353.266673	1
353.700012	1
354.399994	1
355.200012	1
356.335295	1
367.100006	1
367.700012	1
368.500000	1
368.799998	1
369.200012	1
369.600006	1
371.412872	999
