Mass spectrum: alpha-Estradiol; LC-APPI-QQ; MS2; CE:10 V; [M-H2O+H]+
Name: alpha-Estradiol
Class: Natural Product; Steroid hormone
Formula: C18H24O2
Exact mass: 272.17763
SMILES: Oc(c4)cc(C3)c(c4)C(C2)C(C3)C(C1)C(C)(C2)C(O)C1
InChI: InChI=1S/C18H24O2/c1-18-9-8-14-13-5-3-12(19)10-11(13)2-4-15(14)16(18)6-7-17(18)20/h3,5,10,14-17,19-20H,2,4,6-9H2,1H3/t14?,15?,16?,17-,18?/m1/s1
Instrument: API2000
Instrument type: LC-APPI-QQ
Ms type: MS2
Ion mode: POSITIVE
Retention time: 0.820867 min
Base peak: 255.300003
Precursor m/z: 255.200000
Precursor type: [M-H2O+H]+
m/z	relative intensity
57.099998	1
66.799999	1
67.250000	1
68.750000	1
69.049999	1
69.300003	1
69.599998	1
80.400002	1
81.099998	1
83.350002	1
90.699997	1
91.199997	1
92.800003	1
93.300003	1
93.599998	1
94.099998	1
94.300003	1
95.068469	1
95.950001	1
96.400002	1
96.750000	1
97.199997	1
97.400002	1
104.750000	1
105.400002	1
106.099998	1
106.400002	1
106.866668	1
107.199997	1
107.500000	1
107.866669	1
109.094231	1
110.049999	1
111.000000	1
111.199997	1
114.699997	1
117.300003	1
118.900002	1
119.099998	1
120.835294	1
122.099998	1
123.070831	1
124.699997	1
126.000000	1
126.500000	1
127.800003	1
128.800003	1
129.100006	1
129.349998	1
129.899994	1
130.150002	1
131.264287	1
133.048796	14
134.183332	1
135.139641	1
139.050003	1
140.250000	1
140.699997	1
141.000000	1
142.800003	1
143.233332	1
143.699997	1
143.966662	1
144.998565	2
145.800003	1
146.000000	1
147.069370	1
148.199997	1
148.699997	1
148.899994	1
149.133336	1
149.500000	1
155.500000	1
155.699997	1
156.300003	1
159.058720	69
161.103076	1
164.699997	1
168.600006	1
169.000000	1
169.199997	1
170.800003	1
171.000000	1
171.325001	1
171.839996	1
173.055667	3
174.800003	1
175.100006	1
179.300003	1
180.600006	1
181.300003	1
182.800003	1
183.050003	1
184.100006	1
185.079310	1
186.100006	1
186.899994	1
187.224998	1
194.600006	1
194.800003	1
195.128573	1
195.699997	1
196.900002	1
197.399994	1
197.600006	1
198.100006	1
199.144151	2
200.349998	1
200.600006	1
201.000000	1
201.399994	1
204.399994	1
207.800003	1
208.899994	1
211.300003	1
211.600006	1
211.800003	1
212.000000	1
212.199997	1
213.171053	1
219.150002	1
220.899994	1
221.800003	1
222.100006	1
223.204350	1
224.500000	1
225.000000	1
225.300003	1
226.050003	1
226.500000	1
227.000000	1
234.699997	1
235.899994	1
237.062504	1
238.100006	1
238.899994	1
240.600006	1
246.899994	1
248.600006	1
249.399994	1
250.100006	1
250.500000	1
250.899994	1
251.399994	1
251.899994	1
252.100006	1
252.500000	1
255.232011	999
256.600006	1
273.399994	1
