Mass spectrum: 53FTA; LC-ESI-QQ; MS2; CE10; [M-H]-
Name: 53FTA
Name: 53Fluorotelomer Acid
Name: 4,4,5,5,6,6,7,7,8,8,8-Undecafluorooctanoic acid
Class: Non-Natural Product
Formula: C8H5F11O2
Exact mass: 342.01139
SMILES: OC(=O)CCC(F)(F)C(F)(F)C(F)(F)C(F)(F)C(F)(F)F
InChI: InChI=1S/C8H5F11O2/c9-4(10,2-1-3(20)21)5(11,12)6(13,14)7(15,16)8(17,18)19/h1-2H2,(H,20,21)
Instrument: Xevo TQ MS (Waters)
Instrument type: LC-ESI-QQ
Ms type: MS2
Ion mode: NEGATIVE
Collision energy: 10
Retention time: 0.016833
Base peak: 237.059967
Precursor m/z: 341
Precursor type: [M-H]-
m/z	relative intensity
62.933552	130
216.984634	261
237.035660	999
257.061066	220
341.058685	144
