Mass spectrum: 1,4-Androstadiene-3,17-dione; LC-APPI-QQ; MS2; CE:20 V; [M+H]+
Name: 1,4-Androstadiene-3,17-dione
Class: Natural Product; Anabolic Steroid
Formula: C19H24O2
Exact mass: 284.17763
SMILES: O=C(C=4)C=C(C3)C(C)(C4)C([H])(C2)C([H])(C3)C([H])(C1)C(C)(C2)C(=O)C1
InChI: InChI=1S/C19H24O2/c1-18-9-7-13(20)11-12(18)3-4-14-15-5-6-17(21)19(15,2)10-8-16(14)18/h7,9,11,14-16H,3-6,8,10H2,1-2H3/t14-,15-,16-,18-,19-/m0/s1
Instrument: API2000
Instrument type: LC-APPI-QQ
Ms type: MS2
Ion mode: POSITIVE
Retention time: 0.820850 min
Base peak: 147.199997
Precursor m/z: 285.500000
Precursor type: [M+H]+
m/z	relative intensity
41.099998	1
42.200001	1
42.875001	1
43.500000	1
53.099998	1
54.400002	1
54.700001	1
54.900002	1
55.300000	1
57.299999	1
63.200001	1
65.300003	1
66.000000	1
66.199997	1
66.900002	1
67.099998	1
67.400002	1
68.649998	1
69.099998	1
69.500000	1
71.212498	1
71.599998	1
74.599998	1
76.300003	1
77.199997	1
77.800003	1
78.099998	1
78.731249	1
79.200001	2
79.866666	1
81.086777	15
82.942858	1
83.360002	1
84.000000	1
85.176664	2
89.400002	1
90.099998	1
90.425001	1
90.930001	2
92.066666	1
93.087302	16
93.800003	1
94.000000	1
95.035909	14
96.099998	1
96.800003	1
97.058332	1
98.000000	1
98.199997	1
98.821054	1
99.131816	1
100.800003	1
102.574999	1
102.950001	1
103.199997	1
103.450001	1
103.699997	1
103.900002	1
104.199997	1
104.863891	2
106.099998	1
107.038456	90
109.060123	20
109.900002	1
110.099998	1
111.045370	7
113.149998	1
113.400002	1
114.000000	1
114.800003	1
115.099998	1
115.400002	1
115.599998	1
116.000000	1
116.450001	1
117.091667	1
118.000000	1
121.057738	640
122.300003	1
122.910810	2
123.950001	1
124.199997	1
124.877780	2
125.314289	1
125.699997	1
126.000000	1
126.699997	1
126.900002	1
127.224998	1
127.500000	1
127.699997	1
128.199997	1
128.449997	1
128.899994	1
129.199997	1
129.575005	1
130.010002	1
131.086002	3
133.168255	31
135.070167	45
135.899994	1
136.150002	1
137.000000	1
138.399994	1
138.962498	1
139.300003	1
139.600006	1
140.699997	1
140.899994	1
141.100006	1
141.600006	1
141.899994	1
142.300003	1
143.174999	1
143.424995	1
143.733332	1
145.196574	29
147.112543	993
148.399994	1
149.170000	5
151.138923	169
152.000000	1
152.800003	1
153.200000	1
153.800003	1
154.399994	1
155.200002	1
155.600006	1
156.199997	1
157.000000	1
157.314283	2
159.109468	74
161.153571	17
161.949997	1
163.148486	4
163.899994	1
164.100006	1
164.300003	1
165.155356	7
166.100006	1
166.449997	1
166.800003	1
167.000000	1
167.300003	1
167.650002	1
168.000000	1
168.819995	1
169.100006	1
169.300003	1
169.620001	1
170.000000	1
171.045323	233
173.137737	295
173.899994	1
175.129629	7
177.189285	10
178.300003	1
178.800003	1
179.000000	1
179.250000	1
179.600006	1
180.000000	1
180.300003	1
180.849998	1
181.199997	1
182.000000	1
182.600006	1
183.157896	1
185.089436	17
186.300003	1
187.148112	13
188.000000	1
188.300003	1
189.099038	26
190.300003	1
190.600006	1
190.800003	1
191.000000	1
192.500000	1
192.977776	1
194.100006	1
194.300003	1
195.000000	1
195.399994	1
195.962498	1
196.212498	1
197.149284	13
198.000000	1
198.424995	1
199.167857	7
199.849998	1
200.100006	1
201.062500	3
201.428567	2
203.028573	2
203.500000	1
204.199997	1
204.899994	1
205.250000	1
206.942854	1
207.436361	1
208.000000	1
208.199997	1
208.650002	1
209.254547	1
211.155952	73
212.056253	1
212.928121	2
213.333336	1
213.899994	1
214.374996	1
215.213332	14
215.899994	1
216.199997	1
217.000000	1
217.216665	1
219.199997	1
219.600006	1
219.899994	1
220.399994	1
220.750000	1
221.000000	1
222.899994	1
223.150002	1
223.500000	1
225.231662	24
227.273949	15
228.100006	1
229.173077	2
230.899994	1
234.600006	1
235.199997	1
236.699997	1
237.100006	1
237.349998	1
237.816668	1
239.226923	13
240.399994	1
241.180004	2
242.160004	1
243.295003	1
243.500000	1
246.399994	1
247.000000	1
249.400001	2
252.008334	1
253.075005	1
253.500000	1
254.800003	1
255.100006	1
255.899994	1
256.200002	1
256.500000	1
257.194117	2
261.399994	1
262.700012	1
262.899994	1
264.700012	1
265.080005	1
267.236639	939
268.500000	1
269.200012	1
270.059095	1
280.100006	1
280.899994	1
282.100006	1
282.799988	1
283.200012	1
285.255759	999
286.799988	1
287.100006	1
393.100006	1
