Mass spectrum: Testosterone; LC-APPI-QQ; MS2; CE:10 V; [M+H]+
Name: Testosterone
Class: Natural Product; Steroid hormone
Formula: C19H28O2
Exact mass: 288.20893
SMILES: O=C(C4)C=C(C3)C(C)(C4)C(C2)C(C3)C(C1)C(C)(C2)C(O)C1
InChI: InChI=1S/C19H28O2/c1-18-9-7-13(20)11-12(18)3-4-14-15-5-6-17(21)19(15,2)10-8-16(14)18/h11,14-17,21H,3-10H2,1-2H3/t14?,15?,16?,17-,18?,19?/m0/s1
Instrument: API2000
Instrument type: LC-APPI-QQ
Ms type: MS2
Ion mode: POSITIVE
Retention time: 0.820850 min
Base peak: 289.299988
Precursor m/z: 289.300000
Precursor type: [M+H]+
m/z	relative intensity
67.049999	1
71.800003	1
72.599998	1
73.049999	1
73.500000	1
76.900002	1
78.400002	1
79.000000	1
80.699997	1
80.900002	1
81.250000	1
81.950001	1
82.300003	1
82.500000	1
82.800003	1
83.000000	1
85.099998	1
89.000000	1
93.099998	1
94.800001	1
95.116665	1
95.936365	1
97.017220	3
105.800003	1
106.916668	1
107.699997	1
107.900002	1
109.067876	2
109.699997	1
110.500000	1
110.800003	1
111.199997	1
117.400002	1
118.400002	1
119.099998	1
120.945001	1
121.800001	1
122.099998	1
122.964705	1
123.699997	1
124.900002	1
125.400002	1
127.199997	1
128.600006	1
130.650002	1
131.133333	1
132.000000	1
132.500000	1
132.800003	1
133.000000	1
133.199997	1
133.550003	1
134.300003	1
135.038891	1
136.500000	1
137.100006	1
137.300003	1
138.500000	1
138.699997	1
139.000000	1
141.399994	1
142.775002	1
143.300003	1
144.300003	1
144.600006	1
144.899994	1
146.000000	1
146.699997	1
147.075003	1
147.500000	1
147.800003	1
148.500000	1
148.699997	1
149.123530	1
150.600006	1
150.899994	1
151.300003	1
154.600006	1
154.800003	1
155.000000	1
155.300003	1
156.399994	1
156.987499	1
157.462498	1
158.100006	1
159.260715	1
160.000000	1
161.058621	1
161.600006	1
162.000000	1
163.155553	1
165.000000	1
165.349998	1
168.650002	1
168.899994	1
169.300003	1
169.899994	1
170.200002	1
171.063640	1
172.300003	1
173.100006	1
173.449997	1
174.100006	1
175.111267	1
177.109090	1
177.500000	1
177.699997	1
178.899994	1
179.300000	1
180.699997	1
180.899994	1
181.500000	1
183.066671	1
184.900001	1
187.124658	1
187.800003	1
188.300003	1
189.196772	1
190.699997	1
191.075005	1
191.462498	1
191.699997	1
193.000000	1
193.199997	1
195.300003	1
195.500000	1
196.399994	1
197.064286	1
197.500000	1
198.300003	1
199.150004	1
200.199997	1
200.500000	1
201.104346	1
203.000000	1
203.300003	1
204.724998	1
205.250000	1
205.500000	1
206.699997	1
207.100006	1
207.349998	1
208.699997	1
209.100006	1
209.300003	1
210.399994	1
211.275002	1
212.000000	1
213.167857	1
214.399994	1
215.061540	1
216.199997	1
216.399994	1
217.061115	1
217.899994	1
218.199997	1
219.199997	1
224.100006	1
224.300003	1
225.219051	1
225.500000	1
225.899994	1
227.343332	1
227.899994	1
228.199997	1
229.192106	1
230.300003	1
231.000000	1
231.362497	1
231.800003	1
232.750000	1
233.100006	1
233.399994	1
237.199997	1
237.949997	1
238.199997	1
239.250000	1
239.500000	1
241.600006	1
242.300003	1
243.300002	1
244.100006	1
244.300003	1
244.699997	1
245.000000	1
245.339998	1
246.399994	1
246.699997	1
247.000000	1
247.500000	1
250.899994	1
251.300003	1
251.500000	1
251.699997	1
252.125004	1
253.246720	5
254.500000	1
255.500000	1
255.899994	1
256.100006	1
256.399994	1
257.124076	1
257.899994	1
259.000000	1
259.399994	1
260.200012	1
260.399994	1
261.066671	1
262.299988	1
267.700012	1
269.100006	1
269.299988	1
269.600006	1
270.000000	1
270.299988	1
271.259459	8
273.799988	1
274.000000	1
274.200012	1
274.399994	1
275.299988	1
279.399994	1
280.000000	1
282.500000	1
283.100006	1
283.500000	1
284.399994	1
284.700012	1
285.583338	1
289.296679	999
291.000000	1
291.200012	1
291.899994	1
