Mass spectrum: Brassicasterol; LC-APPI-QQ; MS2; CE:20 V; [M-H2O+H]+
Name: Brassicasterol
Class: Natural Product; Sterol
Formula: C28H46O
Exact mass: 398.35487
SMILES: C(C(C=CC(C)C(C4)C(C3C4)(C)CCC(C13)C(C2)(C(CC(C2)O)=CC1)C)C)(C)C
InChI: InChI=1S/C28H46O/c1-18(2)19(3)7-8-20(4)24-11-12-25-23-10-9-21-17-22(29)13-15-27(21,5)26(23)14-16-28(24,25)6/h7-9,18-20,22-26,29H,10-17H2,1-6H3/b8-7+/t19?,20?,22-,23?,24?,25?,26?,27?,28?/m0/s1
Instrument: API2000
Instrument type: LC-APPI-QQ
Ms type: MS2
Ion mode: POSITIVE
Retention time: 0.820950 min
Base peak: 381.500000
Precursor m/z: 381.400000
Precursor type: [M-H2O+H]+
m/z	relative intensity
41.500000	1
42.750000	1
43.000000	1
43.450001	1
53.599998	1
55.099998	1
55.799999	1
56.099998	1
57.090217	2
57.799999	1
63.200001	1
66.149998	1
66.450001	1
66.908001	1
67.599998	1
67.800003	1
69.077143	6
70.000000	1
70.300003	1
70.500000	1
71.108333	1
72.699997	1
76.099998	1
76.500000	1
76.900002	1
77.375002	1
77.599998	1
78.649998	1
79.199997	1
79.800003	1
80.000000	1
81.056808	4
82.000000	1
83.062085	4
83.900002	1
84.149998	1
85.199999	1
90.900002	1
91.199997	1
92.099998	1
92.709998	1
93.119999	1
93.875002	1
94.099998	1
94.300003	1
95.010626	6
96.099998	1
97.118749	2
98.099998	1
98.400002	1
98.850002	1
99.124998	1
100.900002	1
104.000000	1
104.300003	1
104.975001	1
105.699997	1
106.977444	2
107.766668	1
108.000000	1
109.063077	7
110.000000	1
110.266668	1
111.186076	3
112.099998	1
112.699997	1
112.933334	1
114.699997	1
116.900002	1
117.400002	1
117.750000	1
118.199997	1
119.025758	1
121.067547	5
121.866669	1
123.043678	5
125.090609	14
125.800003	1
126.400002	1
126.599998	1
127.000000	1
127.350000	1
127.800003	1
128.800003	1
129.100001	1
129.500000	1
129.800003	1
130.150002	1
131.141270	1
131.800003	1
132.100006	1
133.134883	3
135.088000	14
137.124210	3
138.000000	1
138.300003	1
138.833333	1
139.100006	1
139.699997	1
140.500000	1
141.000000	1
141.300003	1
141.550003	1
141.800003	1
142.399994	1
142.600006	1
142.849998	1
143.199997	1
143.399994	1
143.800003	1
144.250000	1
145.115054	3
147.118035	15
148.083338	1
149.133280	11
150.000000	1
150.199997	1
151.090700	2
152.800003	1
153.166667	1
153.550003	1
155.150002	1
155.600006	1
156.000000	1
156.300003	1
156.800000	1
157.319995	1
157.600006	1
159.069565	13
161.097671	21
163.131601	8
164.000000	1
164.300003	1
165.106541	2
165.899994	1
166.899994	1
167.349998	1
169.250000	1
169.600001	1
170.100006	1
170.600006	1
171.066665	1
171.399994	1
171.699997	1
171.899994	1
173.163077	9
174.199997	1
175.134071	8
175.899994	1
176.199997	1
177.194118	4
179.058337	1
180.650002	1
180.899994	1
181.300003	1
182.800003	1
183.100001	1
183.500000	1
184.150002	1
185.115254	2
185.899994	1
186.300003	1
187.132872	12
187.825001	1
189.185140	9
190.300003	1
191.188233	1
191.899994	1
192.199997	1
192.399994	1
193.142554	2
195.200002	1
196.800003	1
197.199997	1
197.800003	1
199.158573	2
201.166990	16
203.162208	11
204.399994	1
205.181082	3
206.399994	1
207.288000	2
209.000000	1
209.550003	1
210.800003	1
211.050003	1
211.300003	1
211.650002	1
212.449997	1
213.182773	8
214.359999	1
215.166970	12
217.217900	6
219.192026	5
220.050003	1
221.262238	3
223.100006	1
224.949997	1
225.199997	1
225.399994	1
225.699997	1
226.000000	1
227.194286	6
228.000000	1
228.224998	1
229.193877	7
230.000000	1
230.500000	1
231.140875	2
232.000000	1
232.500000	1
233.256316	3
234.500000	1
234.699997	1
235.266668	1
235.600006	1
235.899994	1
237.199997	1
238.849998	1
239.100006	1
240.100006	1
241.237127	13
242.400002	1
243.323474	4
244.100006	1
244.575005	1
245.282609	5
246.500000	1
247.244574	5
249.000000	1
249.199997	1
252.199997	1
252.699997	1
252.974998	1
253.311762	1
254.367566	1
255.283802	32
256.329414	1
257.274875	7
258.299988	1
259.339025	4
260.150009	1
260.449997	1
261.000000	1
261.357138	1
261.899994	1
262.899994	1
263.399994	1
263.600006	1
266.799988	1
267.200012	1
267.399994	1
267.700012	1
268.100006	1
269.248238	7
271.264061	11
273.346236	3
275.000000	1
275.550003	1
279.050003	1
279.600006	1
281.399994	1
282.100006	1
283.300404	9
284.200012	1
284.600006	1
285.324724	6
286.299988	1
286.600006	1
287.459998	1
288.799988	1
289.399994	1
289.600006	1
290.000000	1
292.899994	1
293.100006	1
293.399994	1
293.799988	1
294.700012	1
295.000000	1
295.399994	1
295.600006	1
295.799988	1
296.000000	1
297.303250	44
299.349594	9
301.337490	1
301.600006	1
307.299988	1
308.799988	1
309.100006	1
309.600006	1
309.974998	1
311.326673	20
312.399994	1
312.700012	1
312.899994	1
313.247374	1
313.799988	1
314.299988	1
314.700012	1
315.025002	1
315.299988	1
315.600006	1
320.000000	1
320.700012	1
321.100006	1
321.600006	1
322.799988	1
323.000000	1
323.600006	1
324.299988	1
325.381913	3
326.449997	1
326.700012	1
327.200012	1
331.000000	1
335.399994	1
337.150009	1
338.100006	1
338.299988	1
339.508334	1
341.000000	1
347.100006	1
347.799988	1
348.600006	1
349.200012	1
349.500000	1
350.899994	1
351.600006	1
352.200012	1
352.799988	1
353.480770	1
362.899994	1
363.300003	1
365.399994	1
365.750000	1
366.367501	1
366.899994	1
375.000000	1
377.399994	1
378.250000	1
378.600006	1
379.084621	1
381.407618	999
383.399994	1
399.200012	1
