Mass spectrum: 73FTA; LC-ESI-QQ; MS2; CE60; [M-H]-
Name: 73FTA
Name: 73Fluorotelomer Acid
Name: 4,4,5,5,6,6,7,7,8,8,9,9,10,10,10-Pentadecafluorodecanoic acid
Class: Non-Natural Product
Formula: C10H5F15O2
Exact mass: 442.00500
SMILES: OC(=O)CCC(F)(F)C(F)(F)C(F)(F)C(F)(F)C(F)(F)C(F)(F)C(F)(F)F
InChI: InChI=1S/C10H5F15O2/c11-4(12,2-1-3(26)27)5(13,14)6(15,16)7(17,18)8(19,20)9(21,22)10(23,24)25/h1-2H2,(H,26,27)
Instrument: Xevo TQ MS (Waters)
Instrument type: LC-ESI-QQ
Ms type: MS2
Ion mode: NEGATIVE
Collision energy: 60
Retention time: 0.016833
Base peak: 216.881256
Precursor m/z: 441
Precursor type: [M-H]-
m/z	relative intensity
63.046070	152
63.528591	43
67.049873	89
69.041031	131
80.808060	50
92.944633	400
97.921524	720
98.489662	133
104.925133	57
113.963356	79
116.885574	292
118.808975	122
129.052536	151
130.896240	93
135.933899	51
142.909760	159
147.962387	999
154.398224	63
154.919266	175
167.002914	229
168.841324	172
178.986481	179
186.073181	97
192.986832	272
198.128403	434
204.807785	95
213.831345	39
216.983002	506
229.200684	97
243.070450	306
248.211136	198
267.067932	380
316.250092	38
317.185577	207
