Mass spectrum: isoPFOS; LC-ESI-QQ; MS2; CE60eV
Name: isoPFOS
Class: Non-Natural Product
Formula: C8HF17O3S
Exact mass: 499.93749
SMILES: FC(F)(F)C(F)(C(F)(F)F)C(F)(F)C(F)(F)C(F)(F)C(F)(F)C(F)(F)S(O)(=O)=O
InChI: InChI=1S/C8HF17O3S/c9-1(6(18,19)20,7(21,22)23)2(10,11)3(12,13)4(14,15)5(16,17)8(24,25)29(26,27)28/h(H,26,27,28)
Instrument: Xevo TQ, Waters
Instrument type: LC-ESI-QQ
Ms type: MS2
Ion mode: NEGATIVE
Collision energy: 60eV
Retention time: 17.333483 min
Base peak: 98.525459
Precursor m/z: 498.9
Precursor type: [M-H]-
m/z	relative intensity
79.743136	999
83.050121	179
94.955580	47
98.850482	781
130.226443	706
168.980566	124
229.577150	124
367.544621	86
