Mass spectrum: 4mPFOS; LC-ESI-QQ; MS2; CE30eV
Name: 4mPFOS
Class: Non-Natural Product
Formula: C8HF17O3S
Exact mass: 499.93749
SMILES: FC(F)(F)C(F)(F)C(F)(F)C(F)(C(F)(F)F)C(F)(F)C(F)(F)C(F)(F)S(O)(=O)=O
InChI: InChI=1S/C8HF17O3S/c9-1(6(18,19)20,2(10,11)4(14,15)7(21,22)23)3(12,13)5(16,17)8(24,25)29(26,27)28/h(H,26,27,28)
Instrument: Xevo TQ, Waters
Instrument type: LC-ESI-QQ
Ms type: MS2
Ion mode: NEGATIVE
Collision energy: 30eV
Retention time: 15.483517 min
Base peak: 79.771988
Precursor m/z: 498.9
Precursor type: [M-H]-
m/z	relative intensity
61.466103	108
68.995415	78
79.858092	999
82.635057	793
85.001594	94
98.698097	462
119.118566	272
129.995634	318
168.685744	70
179.815585	785
230.046663	620
269.184574	225
311.291445	225
330.112318	299
499.134661	782
