Mass spectrum: 4mPFOS; LC-ESI-QQ; MS2; CE10eV
Name: 4mPFOS
Class: Non-Natural Product
Formula: C8HF17O3S
Exact mass: 499.93749
SMILES: FC(F)(F)C(F)(F)C(F)(F)C(F)(C(F)(F)F)C(F)(F)C(F)(F)C(F)(F)S(O)(=O)=O
InChI: InChI=1S/C8HF17O3S/c9-1(6(18,19)20,2(10,11)4(14,15)7(21,22)23)3(12,13)5(16,17)8(24,25)29(26,27)28/h(H,26,27,28)
Instrument: Xevo TQ, Waters
Instrument type: LC-ESI-QQ
Ms type: MS2
Ion mode: NEGATIVE
Collision energy: 10eV
Retention time: 15.483517 min
Base peak: 498.858612
Precursor m/z: 498.9
Precursor type: [M-H]-
m/z	relative intensity
79.834974	30
83.023021	34
98.898466	66
118.926340	14
180.190600	50
229.857208	121
268.936113	22
330.005346	64
498.892996	999
