Mass spectrum: Epicoprostanol; LC-APPI-QQ; MS2; CE:30 V; [M-H2O+H]+
Name: Epicoprostanol
Class: Natural Product; Sterol
Formula: C27H48O
Exact mass: 388.37052
SMILES: CC(C4)(C(CC(O)C4)3)C(C2)C(CC3)C(C1)C(C)(C2)C(C(C)CCCC(C)C)C1
InChI: InChI=1S/C27H48O/c1-18(2)7-6-8-19(3)23-11-12-24-22-10-9-20-17-21(28)13-15-26(20,4)25(22)14-16-27(23,24)5/h18-25,28H,6-17H2,1-5H3
Instrument: API2000, Applied
Instrument type: LC-APPI-QQ
Ms type: MS2
Ion mode: POSITIVE
Retention time: 0.820850 min
Base peak: 108.800003
Precursor m/z: 371.471000
Precursor type: [M-H2O+H]+
m/z	relative intensity
40.799999	1
41.200001	1
41.599998	1
42.900002	1
43.299999	1
43.599998	1
52.850000	1
53.299999	1
54.900002	4
55.194736	11
55.850000	1
57.075294	49
63.900002	1
64.099998	1
64.900002	1
65.400002	1
65.599998	1
67.115817	56
69.073894	129
71.039806	59
72.300003	1
72.500000	1
72.699997	1
72.900002	1
73.099998	1
73.400002	1
73.599998	1
76.728571	2
77.300000	2
77.699997	1
78.971428	20
81.077561	497
83.097727	201
85.132966	26
86.049999	1
86.400002	1
87.400002	1
88.800001	1
89.400002	1
89.750000	1
90.199997	1
91.200000	7
93.100000	93
95.029001	999
97.093140	217
98.300003	1
98.599998	1
98.850002	5
99.099998	2
99.400002	2
99.699997	1
100.400002	1
100.900002	1
101.099998	1
101.300003	1
102.800003	1
103.300003	1
103.549999	1
103.900002	1
104.099998	1
104.988235	19
107.044767	148
109.054801	766
111.063095	168
112.099998	1
112.500000	1
112.800003	2
113.400002	1
114.199997	1
115.400002	1
116.800003	1
117.000000	1
117.199997	1
117.549999	1
117.950001	1
118.400002	1
119.106059	9
121.060809	325
123.036955	387
125.074432	50
125.900002	1
126.649998	1
127.028571	2
127.300003	1
128.299998	1
128.650002	2
129.087498	2
129.600006	1
130.000000	1
130.199997	1
130.699997	1
130.899994	1
131.225002	2
131.674999	1
133.106899	25
133.621433	4
135.042490	446
135.800003	3
137.092767	182
137.874996	1
138.699997	1
139.226087	7
141.399994	1
142.600006	1
142.899994	1
143.199997	1
144.100006	1
145.105882	5
145.700000	1
146.050003	2
146.300003	1
147.111864	67
149.073024	456
151.076316	109
152.100001	1
152.699997	1
153.166667	2
153.500000	1
157.449997	1
159.083333	7
159.700001	3
160.199999	2
161.063351	55
163.110256	312
165.151505	86
165.800003	1
166.199997	1
167.100006	1
170.899994	1
171.199997	1
172.600006	1
172.800003	2
173.033335	2
173.500000	1
173.775002	1
174.000000	3
175.051111	51
176.022224	3
176.300003	2
177.159551	153
178.199997	1
179.188489	80
180.200002	1
181.300003	1
183.399994	1
184.949997	1
185.299998	1
185.899994	1
187.075001	2
187.399994	1
187.600006	1
188.087505	2
189.152890	198
190.199997	3
191.093636	63
192.000000	1
193.210452	82
194.600001	1
195.000000	1
195.349998	1
198.899994	1
199.199997	1
199.500000	1
199.800003	1
200.100006	1
201.000003	2
201.450005	2
202.229999	3
203.143568	138
204.300003	1
205.161289	53
207.157879	94
208.300003	1
208.699997	1
208.899994	1
210.800003	1
213.000000	1
213.199997	1
213.500000	1
213.800003	1
214.199997	1
214.449997	1
215.176667	34
216.161039	44
217.114914	65
218.199997	2
218.433329	2
219.176922	45
220.000000	1
220.300003	1
220.994117	10
221.363634	16
225.500000	1
226.699997	1
226.949997	1
227.199997	1
227.399994	1
228.800003	1
229.230769	4
229.600006	1
230.199997	3
231.126548	65
233.189583	55
234.250000	1
235.326189	12
237.150002	1
239.199997	1
239.399994	1
240.399994	1
241.300003	1
241.600006	1
241.800003	1
243.000000	1
243.500000	1
243.899994	1
245.187273	31
245.899994	1
247.173684	65
248.000000	1
248.899994	1
249.419997	6
251.250000	1
251.600006	1
255.000000	1
255.899994	1
257.000000	1
257.299994	1
257.675011	1
258.200012	1
259.250000	41
260.299988	1
261.321753	75
262.000000	1
262.349991	1
263.275999	7
264.899994	1
265.200012	1
266.650009	1
268.849991	1
270.849991	1
271.200012	1
271.399994	1
271.799988	1
272.200012	1
273.336983	21
274.150009	1
274.600006	1
275.262810	69
276.100006	1
276.349991	1
276.600006	1
277.100006	1
277.399994	1
279.700012	1
280.000000	1
282.799988	1
283.100006	1
285.600006	1
285.899994	1
286.299988	1
286.600006	1
287.330381	23
288.050003	1
288.399994	1
289.263078	37
290.200012	1
291.100006	1
291.299988	1
292.700012	1
293.000000	1
293.250000	1
294.700012	1
295.100006	1
296.250000	1
297.100006	1
297.399994	1
299.050003	1
299.299988	1
300.100006	1
300.399994	1
301.410526	11
302.299988	1
302.550003	1
303.033335	3
303.500000	1
311.200012	1
311.799988	1
312.399994	1
313.000000	1
313.449997	1
313.899994	1
314.399994	1
315.250574	25
316.200012	1
316.650009	1
317.200012	1
326.000000	1
326.700012	1
327.399994	1
328.000000	1
329.324989	1
329.600006	1
338.899994	1
342.349991	1
343.050003	1
343.349991	1
343.899994	1
353.100006	1
353.299988	1
353.500000	1
354.899994	1
355.200012	1
355.399994	1
356.183337	3
356.500000	2
357.000000	1
369.299988	1
369.700012	1
369.899994	1
370.200012	1
371.400734	779
