Mass spectrum: 1,4-Androstadiene-3,17-dione; LC-APPI-QQ; MS2; CE:40 V; [M+H]+
Name: 1,4-Androstadiene-3,17-dione
Class: Natural Product; Anabolic Steroid
Formula: C19H24O2
Exact mass: 284.17763
SMILES: O=C(C=4)C=C(C3)C(C)(C4)C([H])(C2)C([H])(C3)C([H])(C1)C(C)(C2)C(=O)C1
InChI: InChI=1S/C19H24O2/c1-18-9-7-13(20)11-12(18)3-4-14-15-5-6-17(21)19(15,2)10-8-16(14)18/h7,9,11,14-16H,3-6,8,10H2,1-2H3/t14-,15-,16-,18-,19-/m0/s1
Instrument: API2000
Instrument type: LC-APPI-QQ
Ms type: MS2
Ion mode: POSITIVE
Retention time: 0.820850 min
Base peak: 121.000000
Precursor m/z: 285.500000
Precursor type: [M+H]+
m/z	relative intensity
40.099998	1
40.400002	1
41.000000	1
41.400002	1
43.000001	6
44.500000	1
44.700001	1
44.933334	1
45.300001	1
50.900002	1
51.299999	1
51.700001	1
52.200001	1
52.400002	1
52.599998	1
52.875001	1
53.525000	1
53.799999	1
54.000000	1
55.299999	2
55.799999	1
56.000000	1
56.200001	1
56.900002	1
57.500000	1
58.450001	1
58.900002	1
59.099998	1
59.299999	1
64.099998	1
64.500000	1
65.121429	2
67.093929	34
69.062499	7
71.125000	6
71.699997	1
72.199997	1
72.800003	1
74.599998	1
75.416668	1
77.032543	36
79.032670	73
81.085064	52
82.000000	1
82.350002	1
82.990698	5
83.750000	1
85.157690	2
85.699997	1
86.750000	1
88.350002	1
89.350002	1
91.061694	118
93.100000	105
95.071333	54
97.053897	9
98.199997	1
99.036363	1
99.400002	1
100.900002	1
101.199997	1
101.599998	1
102.037499	1
103.120833	6
105.049365	72
107.038078	150
109.111824	61
111.037142	2
111.900002	1
113.400002	1
113.699997	1
114.000000	1
115.059259	10
117.117675	26
119.090698	94
121.077651	999
123.000001	4
124.000000	1
124.900002	1
125.337502	1
125.800003	1
126.000000	1
127.099998	1
128.106301	15
129.095031	20
132.135747	40
133.113786	26
135.087075	36
135.899994	1
136.250000	1
136.750000	1
137.050003	1
138.399994	1
138.800003	1
139.100006	1
139.300003	1
139.899994	1
140.300003	1
141.133582	8
143.078724	14
145.097359	102
147.121864	800
149.132758	4
149.699997	1
151.132283	41
152.260001	1
153.104444	5
154.199997	1
155.064658	30
158.089764	62
159.128615	80
160.067924	3
161.103653	27
161.949997	1
162.250000	1
163.100006	2
163.899994	1
164.300003	1
165.153226	4
166.199997	1
167.130231	5
168.172415	2
169.206666	7
171.077017	169
173.140995	240
174.199997	1
175.071083	5
175.899994	1
176.100006	1
176.399994	1
177.283335	1
178.151854	3
179.188653	9
180.366662	1
181.110588	10
182.159999	5
183.190697	10
183.859998	1
185.144263	22
186.418745	1
187.186795	3
188.300003	1
189.103175	8
190.474998	1
191.004545	1
192.050003	1
193.233332	6
194.213336	1
194.927496	2
195.388060	4
196.081120	17
197.189582	23
198.212195	5
199.159210	9
199.912495	1
200.337500	1
201.078260	3
202.200002	1
202.899994	1
203.239999	1
203.899994	1
204.300003	1
204.500000	1
204.799995	1
205.279999	1
205.899994	1
206.133336	1
207.129997	4
207.800003	1
208.266668	1
209.146938	6
210.182856	11
211.170600	57
212.167121	9
212.949997	1
213.280949	1
213.699997	1
214.171429	1
214.800003	1
215.315383	1
216.250000	1
217.050003	1
217.500000	1
217.800003	1
218.199997	1
218.800003	1
219.199997	1
219.500000	1
219.899994	1
220.100006	1
220.399994	1
220.800003	1
221.000000	1
221.300003	1
221.566671	1
222.000000	1
222.199997	1
223.132205	4
224.245831	3
225.193333	15
226.274999	2
227.153125	6
228.000000	1
228.199997	1
228.974997	1
231.100006	1
231.899994	1
232.100006	1
232.300003	1
233.300003	1
233.800003	1
234.300003	1
235.150002	1
235.500000	1
236.000000	1
236.349998	1
237.226667	2
237.899994	1
238.314815	2
239.263725	6
240.100006	1
240.399999	1
241.244444	1
241.899994	1
242.399994	1
242.800003	1
243.000000	1
243.399994	1
243.800003	1
247.300003	1
248.949997	1
249.216665	1
250.100006	1
250.600006	1
251.224998	1
251.600006	1
251.800003	1
252.135295	2
253.100006	1
253.399994	1
253.600006	1
254.199997	1
255.100006	1
255.899994	1
256.237503	1
257.000000	1
257.899994	1
258.250000	1
258.600006	1
265.000000	1
265.399994	1
265.650009	1
266.000000	1
267.225806	15
268.799988	1
269.050003	1
269.299988	1
270.157406	3
279.200012	1
283.250000	1
283.750000	1
284.100006	1
284.799988	1
285.203078	4
318.200012	1
