Mass spectrum: Cholestanol; LC-APPI-QQ; MS2; CE:30 V; [M-H2O+H]+
Name: Cholestanol
Class: Natural Product; Sterol
Formula: C27H48O
Exact mass: 388.37052
SMILES: C(C)(C1)(C(C(C)CCCC(C)C)4)C(CC4)C(C2)C(C(C)(C3)C([H])(CC(C3)O)C2)C1
InChI: InChI=1S/C27H48O/c1-18(2)7-6-8-19(3)23-11-12-24-22-10-9-20-17-21(28)13-15-26(20,4)25(22)14-16-27(23,24)5/h18-25,28H,6-17H2,1-5H3/t19?,20-,21-,22?,23?,24?,25?,26?,27?/m0/s1
Instrument: API2000, Applied
Instrument type: LC-APPI-QQ
Ms type: MS2
Ion mode: POSITIVE
Retention time: 0.820867 min
Base peak: 94.800003
Precursor m/z: 371.451000
Precursor type: [M-H2O+H]+
m/z	relative intensity
38.900002	1
40.099998	1
40.599998	1
41.166667	2
42.200001	1
42.725000	1
43.155555	3
52.599998	1
53.000000	1
53.200001	1
54.200001	1
55.005769	15
55.700001	1
55.900002	1
57.108750	47
58.299999	1
59.200001	1
63.400002	1
64.400002	1
64.800003	1
65.099998	1
65.500000	1
66.183331	2
67.050485	61
69.055702	134
70.099998	1
71.098830	50
72.500000	1
72.875002	1
73.199997	1
74.000000	1
75.400002	1
76.000000	1
77.000000	1
77.750000	1
79.071591	26
81.063386	491
83.085791	220
84.142856	2
85.003670	32
85.800003	1
88.750000	1
89.000000	1
90.099998	1
91.151852	8
93.137183	105
95.028559	999
97.073201	237
97.800003	1
98.900002	2
99.189997	3
100.500000	1
101.000000	1
101.199997	1
101.400002	1
102.800003	1
103.199997	1
103.599998	1
104.400002	1
105.140000	12
107.007593	159
109.071119	787
111.081086	179
111.900002	1
112.300003	1
112.649998	1
113.000000	3
113.316669	2
113.699997	1
115.000000	1
116.599998	1
117.900002	1
118.199997	1
119.061819	16
119.820000	3
121.080645	283
123.057153	416
125.071621	44
126.400002	1
126.800003	1
127.049999	3
128.399994	1
128.600006	1
128.899994	1
129.500000	1
130.800003	1
131.000000	1
131.199997	1
131.699997	1
131.949997	2
133.114772	26
135.051906	448
137.151917	200
138.000000	1
138.300003	1
138.600006	1
139.100005	4
140.600006	1
140.899994	1
141.250000	1
141.600006	1
142.399994	1
142.600006	1
143.000000	1
144.500000	1
145.160001	3
147.131280	62
149.109080	486
151.161182	140
151.800003	1
152.899994	3
153.199997	1
154.800003	1
155.100006	1
155.399994	1
155.600006	1
156.000000	1
156.500000	1
156.899994	1
157.100006	1
158.199997	1
158.800003	1
159.100006	1
159.349998	2
160.100006	1
161.072414	60
163.147530	346
165.112903	91
166.899994	1
167.250000	1
169.300003	1
170.950001	1
173.312500	2
173.750000	2
174.199997	1
175.116393	72
176.062504	2
176.300003	2
177.203039	194
179.188271	95
180.750000	1
181.100006	1
181.399994	1
183.300003	1
184.750000	1
185.000000	1
186.100006	1
186.800003	1
187.299995	1
187.800003	1
189.154399	221
191.135598	91
191.899994	1
193.154167	85
194.000000	1
195.199997	1
195.500000	1
197.399994	1
199.000000	1
199.300003	1
199.500000	1
201.199997	1
201.399994	1
201.949997	2
203.117011	128
204.250000	1
205.166782	85
206.000000	1
207.176316	112
208.500000	1
212.949997	1
213.199997	1
214.800000	1
215.100006	2
215.428569	2
216.000000	2
216.258334	4
217.195651	135
219.199126	67
220.199997	1
221.140000	29
222.199997	1
222.899994	1
223.100006	1
226.800003	1
227.199997	1
227.399994	1
228.899994	1
229.199997	1
229.399994	1
229.600006	1
230.000000	1
231.186174	64
231.899994	1
232.200000	1
233.204123	86
234.399994	1
235.248647	11
238.800003	1
240.699997	1
241.300003	1
241.600006	1
243.200002	1
243.600006	1
243.899994	1
244.100006	1
244.300003	1
244.500000	1
245.249297	42
245.899994	1
246.199997	1
247.232950	77
248.000000	1
248.300003	1
248.650002	1
249.000000	3
249.349998	5
249.600006	1
249.800003	1
251.100006	1
254.800003	1
255.000000	1
255.399994	1
256.000000	1
256.700012	1
257.250000	2
257.849991	1
258.250000	1
259.198677	44
260.100006	1
260.600006	1
261.305209	90
262.700012	1
263.050003	3
263.445451	6
266.399994	1
267.000000	1
267.299988	1
268.500000	1
268.899994	1
269.100006	1
271.349991	1
271.700012	1
272.299988	1
273.294116	15
275.244827	34
277.100006	1
277.449997	2
277.700012	1
278.399994	1
278.799988	1
279.050003	1
279.700012	1
279.949997	1
280.200012	1
282.799988	1
284.799988	1
285.200012	1
286.200012	1
286.500000	1
287.194120	20
288.299998	1
289.282431	22
290.100006	1
291.500000	1
291.700012	1
293.100006	1
298.200012	1
298.799988	1
299.000000	1
299.500000	1
300.100006	1
301.000000	7
301.399994	8
302.200012	1
303.033335	4
303.459998	3
307.000000	1
311.100006	1
313.299988	1
314.150009	1
314.449997	1
315.292857	25
325.000000	1
325.299988	1
328.000000	1
328.200012	1
328.399994	1
329.200012	2
329.799988	1
335.200012	1
338.100006	1
339.100006	1
341.250000	1
342.349991	1
342.600006	1
343.200012	1
352.200012	1
352.899994	1
353.399994	1
355.000000	1
355.299988	1
355.500000	1
356.299988	1
356.500000	1
368.200012	1
369.299988	1
369.550003	1
370.000000	1
371.419200	889
372.550003	1
