Mass spectrum: Stigmasterol; LC-APPI-QQ; MS2; CE:30 V; [M-H2O+H]+
Name: Stigmasterol
Class: Natural Product; Sterol
Formula: C29H48O
Exact mass: 412.37052
SMILES: C(C4)C(C(CC4O)=3)(C(C(CC3)2)CCC(C21)(C(CC1)C(C)C=CC(C(C)C)CC)C)C
InChI: InChI=1S/C29H48O/c1-7-21(19(2)3)9-8-20(4)25-12-13-26-24-11-10-22-18-23(30)14-16-28(22,5)27(24)15-17-29(25,26)6/h8-10,19-21,23-27,30H,7,11-18H2,1-6H3/b9-8+/t20?,21?,23-,24?,25?,26?,27?,28?,29?/m0/s1
Instrument: API2000
Instrument type: LC-APPI-QQ
Ms type: MS2
Ion mode: POSITIVE
Retention time: 0.820850 min
Base peak: 395.399994
Precursor m/z: 395.500000
Precursor type: [M-H2O+H]+
m/z	relative intensity
40.400002	1
40.599998	1
41.050000	1
42.200001	1
42.600000	1
42.900002	1
43.280000	2
53.200001	1
53.400002	1
54.000000	1
54.600000	1
55.042500	12
55.799999	1
56.200001	1
57.147083	37
58.099998	1
65.000000	1
65.900002	1
66.099998	1
66.500000	1
67.300002	4
68.000000	1
69.108768	73
71.121621	34
72.000000	1
77.049999	2
78.000000	1
79.040001	6
81.118524	106
83.112563	241
84.174997	1
84.400002	1
85.108783	23
86.199997	1
89.900002	1
90.440001	1
91.114285	6
93.136363	30
95.057514	135
95.900002	1
97.119333	46
97.900002	1
98.400002	1
98.699997	1
99.115384	4
99.649998	1
102.850002	1
103.099998	1
104.124998	1
105.048719	24
107.062366	57
109.088840	137
110.466667	2
111.117204	28
111.900002	1
112.699997	1
113.124998	1
113.699997	1
114.099998	1
115.500000	1
116.599998	1
116.800003	1
117.000000	1
117.199997	1
117.875002	1
118.400002	1
119.092157	31
120.169997	2
121.112941	78
121.983334	1
123.091561	73
123.900002	1
124.099998	1
124.699997	2
125.211765	16
126.400002	1
126.800003	1
127.199997	1
127.800003	1
128.399994	1
128.600006	1
129.183332	1
129.800003	1
131.097580	19
132.000000	1
132.229999	2
133.143435	61
135.156858	138
136.000000	1
137.182741	30
138.199997	1
139.087301	10
141.000000	1
141.399994	1
142.160004	1
142.500000	1
142.933329	1
143.339999	2
145.128407	53
147.154984	184
149.139075	119
150.300003	1
151.168539	14
152.199997	1
153.025002	1
154.199997	1
154.399994	1
154.899994	1
155.100006	1
155.500000	1
156.000000	1
156.199997	1
156.474998	1
157.184616	6
157.699997	1
159.163508	140
161.132070	198
161.899994	1
163.157831	51
164.150002	1
165.253126	10
165.899994	1
166.800003	1
167.100006	1
167.300003	1
167.500000	1
168.300003	1
168.699997	1
169.300003	1
169.500000	1
169.800003	1
170.639999	2
171.186666	5
171.625004	1
172.000000	1
172.250000	2
173.179710	106
173.974998	1
175.192713	76
176.100006	1
177.275416	37
178.100006	1
178.300003	1
179.275000	14
180.100006	1
181.199997	1
181.550003	1
182.000000	1
182.775002	1
183.100006	1
183.300003	1
183.899994	1
184.250000	1
185.209999	20
187.180079	116
188.000000	1
188.270001	2
189.231974	94
190.199997	1
191.228777	21
192.500000	1
193.207410	8
194.949997	1
195.300003	1
196.300003	1
197.250000	1
197.600006	1
198.133336	1
199.244737	35
200.200000	4
201.202203	153
203.248016	73
204.000000	1
204.399994	1
205.276317	12
206.300003	1
207.275002	10
207.800003	1
209.300003	1
210.600006	1
210.800003	1
211.433332	2
211.999998	2
213.227233	72
215.225389	128
216.300003	1
217.284360	32
218.500000	1
219.204546	13
220.000000	1
220.399994	1
221.199999	6
222.899994	1
223.500000	1
224.399994	1
225.166672	1
225.600006	1
225.966665	1
226.199997	1
227.267661	67
228.000000	1
229.272676	54
231.193836	22
232.300003	1
233.275974	24
234.500000	1
235.223188	11
236.899994	1
237.399994	1
238.600006	1
238.849998	1
239.500000	1
240.199997	1
241.294479	100
242.100006	1
242.449997	1
243.345454	24
244.199997	1
244.500000	1
245.343587	12
246.349998	1
247.273258	13
248.100006	1
249.100001	1
249.500000	1
251.199997	1
253.358822	5
253.699997	1
255.303135	137
256.200012	1
257.365477	26
259.337495	15
260.500000	1
261.402851	11
262.100006	1
263.100006	1
263.299988	1
263.500000	1
265.500000	1
267.300008	1
267.799988	1
268.200012	1
269.316766	51
270.166677	1
270.600006	1
271.299999	20
272.399994	1
273.396152	20
275.000000	1
275.375000	1
275.899994	1
277.100006	1
278.500000	1
279.000000	1
280.200012	1
281.100006	1
281.600006	1
282.000000	1
283.341126	57
284.100006	1
284.299988	1
285.416057	42
287.411759	10
288.399994	1
289.399994	1
289.700012	1
293.500000	1
294.500000	1
295.000000	1
295.279993	2
296.000000	1
297.358990	194
298.250000	1
299.334587	20
300.500000	1
301.250000	4
301.600006	1
303.399994	1
303.799988	1
309.274994	1
309.899994	1
310.200012	1
311.358436	100
312.399994	1
312.737503	1
313.366182	32
314.500000	1
314.700012	1
314.949997	1
315.299988	1
315.650009	1
317.600006	1
318.899994	1
321.000000	1
323.399994	1
324.299988	1
325.383333	10
326.650009	1
327.514287	2
329.399994	1
330.000000	1
335.100006	1
337.000000	1
337.200012	1
337.449997	1
338.200012	1
338.399994	1
339.407811	20
340.100006	1
340.500000	1
340.949997	1
341.500000	1
341.799988	1
349.100006	1
351.100006	1
351.399994	1
351.700012	1
352.299988	1
352.799988	1
353.500000	2
359.399994	1
363.200012	1
365.600006	1
366.399994	1
367.312500	2
377.100006	1
377.399994	1
377.600006	1
379.100006	1
379.899994	1
380.500000	1
390.600006	1
391.299988	1
391.500000	1
392.000000	1
392.600006	1
393.000000	1
393.374992	1
393.733337	1
395.468418	999
396.799988	1
397.000000	1
