Mass spectrum: Cholesterol; LC-APPI-QQ; MS2; CE:30 V; [M-H2O+H]+
Name: Cholesterol
Class: Natural Product; Sterol
Formula: C27H46O
Exact mass: 386.35487
SMILES: CC(C4)(C(CC(O)C4)=3)C(C2)C(CC3)C(C1)C(C)(C2)C(C(C)CCCC(C)C)C1
InChI: InChI=1S/C27H46O/c1-18(2)7-6-8-19(3)23-11-12-24-22-10-9-20-17-21(28)13-15-26(20,4)25(22)14-16-27(23,24)5/h9,18-19,21-25,28H,6-8,10-17H2,1-5H3/t19?,21-,22?,23?,24?,25?,26?,27?/m0/s1
Instrument: API2000, Applied
Instrument type: LC-APPI-QQ
Ms type: MS2
Ion mode: POSITIVE
Retention time: 0.820850 min
Base peak: 369.299988
Precursor m/z: 369.420000
Precursor type: [M-H2O+H]+
m/z	relative intensity
39.000000	1
39.299999	1
41.066666	1
41.400002	1
42.250000	1
43.266666	1
50.599998	1
52.400002	1
53.000000	1
53.299999	1
54.000000	1
55.067858	8
55.900002	1
57.106928	42
59.200001	1
64.800003	1
65.049999	1
65.300003	1
67.085906	29
69.039083	72
71.085452	69
72.400002	1
72.599998	1
74.000000	1
76.199997	1
77.028571	1
77.300003	1
77.500000	1
78.991729	13
81.065683	230
83.069504	152
85.084296	42
86.250000	1
87.500000	1
88.699997	1
89.149998	1
89.900002	1
91.011429	20
93.058271	90
95.036927	384
97.105931	153
99.000000	4
103.000000	1
103.400002	1
103.599998	1
104.988727	93
107.013088	132
109.051873	419
111.069341	109
112.099998	1
112.900002	1
113.119999	1
113.950001	1
115.000000	1
115.325003	1
115.850002	1
116.099998	1
117.000000	2
117.491667	1
119.036384	89
121.078364	180
123.024261	196
125.061317	47
126.250000	1
127.112499	5
128.100006	1
128.399994	1
128.600006	1
128.800003	1
129.100006	1
129.399994	1
129.800003	1
131.066129	12
133.056035	135
135.042081	381
137.110714	76
139.097620	8
140.550003	1
140.849998	1
141.349998	1
142.000000	1
142.399994	1
142.600006	1
143.025002	1
143.374996	1
143.699997	1
145.076777	41
147.080147	554
149.083686	247
151.145470	56
152.000000	1
152.399994	1
152.816668	1
153.180000	2
155.000000	1
155.300003	1
156.000000	1
156.199997	1
156.449997	1
156.699997	1
157.040002	1
159.088672	50
161.079449	576
163.121141	115
163.860001	1
164.199997	1
165.118069	47
165.899994	1
166.299998	1
166.600006	1
166.800003	1
167.000000	1
168.500000	1
170.199997	1
170.800003	1
171.300003	1
171.500000	1
172.199997	1
173.089715	34
175.088596	227
176.287502	1
177.184425	55
177.899994	1
179.210453	56
180.300003	1
180.800003	1
181.100006	1
181.449997	1
182.399994	1
183.000000	1
183.399994	1
183.800003	1
184.000000	1
184.300003	1
184.500000	1
185.180952	2
185.966666	2
187.111744	54
189.131216	180
191.091667	37
192.100006	1
193.154249	59
195.100006	1
196.699997	1
197.000000	1
197.250000	1
197.600006	1
198.050003	1
198.500000	1
198.800003	1
199.328572	1
201.114576	114
203.138538	156
203.899994	1
205.145378	69
206.399994	1
207.084000	34
208.199997	1
210.899994	1
211.600006	1
211.899994	1
212.300003	1
213.025806	3
215.135256	181
216.070004	1
217.142045	85
219.157292	74
221.189915	12
226.399994	1
227.100006	1
228.100006	1
228.300003	1
229.178481	107
230.300003	1
231.167022	18
233.138429	138
234.000000	1
235.084621	5
237.000000	1
238.250000	1
238.750000	1
239.150002	1
239.399994	1
240.100006	1
241.399994	1
241.800003	1
243.214843	179
245.302133	41
247.205535	77
248.275002	1
249.159998	1
249.800003	1
252.100006	1
253.199997	1
254.000000	1
254.500000	1
255.241666	7
257.258762	147
259.252890	157
260.299998	1
261.249367	38
262.600006	1
263.000000	1
263.200012	1
264.799988	1
269.050003	1
269.399994	1
270.000000	1
270.399994	1
271.227230	21
272.025002	1
273.295503	99
274.100006	1
274.500000	1
275.432254	3
277.600006	1
281.299988	1
281.949997	1
282.799988	1
283.075005	1
283.399994	1
285.192308	20
286.175011	1
286.399994	1
287.278877	104
288.949997	1
289.299988	1
289.700012	1
291.299988	1
296.899994	1
297.449997	1
297.700012	1
298.150009	1
299.224598	18
300.200012	1
301.257144	7
303.000000	1
303.349998	1
306.899994	1
308.949997	1
309.349991	1
311.100006	1
311.399994	1
312.100006	1
313.278687	24
314.200012	1
314.600006	1
315.000000	1
315.200012	1
315.399994	1
315.650009	1
315.899994	1
322.700012	1
324.200012	1
326.449997	1
326.799988	1
327.200000	3
327.528573	1
327.899994	1
328.500000	1
333.000000	1
336.600006	1
339.000000	1
339.500000	1
339.700012	1
340.166667	1
340.649994	1
341.100003	2
341.600006	1
351.200012	1
351.899994	1
353.100006	1
353.449997	1
354.399998	3
366.100006	1
366.399994	1
366.700012	1
367.100006	1
367.299988	1
369.371827	999
370.750000	1
371.399994	1
