Mass spectrum: alpha-Estradiol; LC-APPI-QQ; MS2; CE:50 V; [M-H2O+H]+
Name: alpha-Estradiol
Class: Natural Product; Steroid hormone
Formula: C18H24O2
Exact mass: 272.17763
SMILES: Oc(c4)cc(C3)c(c4)C(C2)C(C3)C(C1)C(C)(C2)C(O)C1
InChI: InChI=1S/C18H24O2/c1-18-9-8-14-13-5-3-12(19)10-11(13)2-4-15(14)16(18)6-7-17(18)20/h3,5,10,14-17,19-20H,2,4,6-9H2,1H3/t14?,15?,16?,17-,18?/m1/s1
Instrument: API2000
Instrument type: LC-APPI-QQ
Ms type: MS2
Ion mode: POSITIVE
Retention time: 0.820833 min
Base peak: 144.000000
Precursor m/z: 255.200000
Precursor type: [M-H2O+H]+
m/z	relative intensity
38.400002	1
38.900002	1
39.500000	1
39.750000	1
40.495000	1
41.078515	11
43.099117	20
43.900002	1
44.299999	1
45.000000	1
45.299999	1
47.200001	1
49.700001	1
50.000000	1
50.200001	1
50.500000	1
50.875001	1
51.250000	1
51.950001	1
52.200001	1
52.400002	1
53.092053	7
55.062509	118
56.375001	1
57.063635	1
57.299999	1
58.099998	1
58.871429	1
59.500000	1
61.400002	1
61.900000	1
62.200001	1
62.400002	1
62.900002	1
63.299999	1
65.036694	22
67.089109	506
69.081264	61
70.500000	1
73.400002	1
73.800003	1
74.099998	1
74.649998	1
74.950001	1
75.300003	1
77.066089	64
79.021614	158
81.083965	220
83.073750	4
83.699997	1
85.500000	1
86.900002	1
87.300003	1
87.699999	1
88.099998	1
88.400002	1
88.775002	1
91.043075	422
93.074268	65
95.057376	230
96.500000	1
97.149998	1
98.300003	1
98.900002	1
99.099998	1
99.400002	1
99.800003	1
100.049999	1
100.300003	1
103.047718	68
105.017263	571
107.028079	212
109.082794	65
110.199997	1
110.400002	1
110.800003	1
111.400002	1
112.000000	1
115.041550	351
116.093416	173
117.048580	44
119.031893	22
121.038212	33
122.000000	1
123.000000	1
123.325003	1
124.000000	1
124.199997	1
124.450001	1
124.900002	1
125.199997	1
127.047774	86
129.057839	92
131.091578	537
133.065235	670
134.312502	1
135.171877	3
136.000000	1
136.550003	1
136.800003	1
137.199997	1
137.600006	1
141.098056	550
144.030652	999
145.023046	141
147.069296	32
148.100001	1
148.800003	1
149.266668	1
149.600006	1
150.199997	1
150.957145	1
152.099999	5
152.948781	4
155.054027	13
157.085867	71
159.081420	923
161.107777	4
161.949997	1
162.399994	1
162.600006	1
162.800003	1
163.000000	1
163.199997	1
163.399994	1
163.800003	1
164.920001	4
166.176000	2
167.068291	4
169.027798	38
171.114286	9
173.094117	12
174.300003	1
175.000000	1
175.399994	1
176.000000	1
176.199997	1
176.899997	1
178.300003	1
179.146551	3
180.133334	1
181.129413	2
182.363154	1
182.800003	1
183.167818	4
184.071641	6
185.061541	3
186.250000	1
186.500000	1
187.100002	1
187.699997	1
188.300003	1
188.600006	1
189.000000	1
189.300003	1
189.500000	1
189.899994	1
190.100006	1
190.800003	1
191.199997	1
191.800003	1
192.380002	1
192.800003	1
193.199997	1
194.066671	1
195.184849	1
196.000000	1
196.435710	1
197.166670	2
198.050001	2
198.899994	1
199.200002	2
199.800003	1
200.000000	1
200.325001	1
200.899994	1
201.100006	1
202.600006	1
202.899994	1
203.150002	1
203.500000	1
205.199997	1
205.899994	1
206.899994	1
207.399994	1
207.800003	1
208.199997	1
208.800003	1
209.233332	1
209.699997	1
210.000000	1
210.300003	1
210.899994	1
211.100006	1
211.360002	1
212.185714	2
212.919997	1
214.200002	1
220.500000	1
221.100006	1
222.100006	1
222.650002	1
223.300003	1
223.699997	1
223.899994	1
224.349998	1
225.100006	1
225.366664	1
226.239999	1
226.849998	1
227.300003	1
227.600006	1
235.800003	1
237.000000	1
238.150002	1
238.899994	1
239.500000	1
239.949997	1
240.300003	1
241.300003	1
252.600006	1
253.399994	1
254.000000	1
254.300003	1
254.500000	1
255.016668	1
278.100006	1
