Mass spectrum: 73FTA; LC-ESI-QQ; MS2; CE40; [M-H]-
Name: 73FTA
Name: 73Fluorotelomer Acid
Name: 4,4,5,5,6,6,7,7,8,8,9,9,10,10,10-Pentadecafluorodecanoic acid
Class: Non-Natural Product
Formula: C10H5F15O2
Exact mass: 442.00500
SMILES: OC(=O)CCC(F)(F)C(F)(F)C(F)(F)C(F)(F)C(F)(F)C(F)(F)C(F)(F)F
InChI: InChI=1S/C10H5F15O2/c11-4(12,2-1-3(26)27)5(13,14)6(15,16)7(17,18)8(19,20)9(21,22)10(23,24)25/h1-2H2,(H,26,27)
Instrument: Xevo TQ MS (Waters)
Instrument type: LC-ESI-QQ
Ms type: MS2
Ion mode: NEGATIVE
Collision energy: 40
Retention time: 0.016817
Base peak: 267.101807
Precursor m/z: 441
Precursor type: [M-H]-
m/z	relative intensity
198.110992	138
267.001373	999
317.032166	571
