Mass spectrum: Estriol; LC-APPI-QQ; MS2; CE:20 V; [M-H2O+H]+
Name: Estriol
Class: Natural Product; Steroid hormone
Formula: C18H24O3
Exact mass: 288.17254
SMILES: Oc(c4)cc(C3)c(c4)C(C2)C(C3)C(C1)C(C)(C2)C(O)C(O)1
InChI: InChI=1S/C18H24O3/c1-18-7-6-13-12-5-3-11(19)8-10(12)2-4-14(13)15(18)9-16(20)17(18)21/h3,5,8,13-17,19-21H,2,4,6-7,9H2,1H3/t13?,14?,15?,16-,17+,18?/m1/s1
Instrument: API2000
Instrument type: LC-APPI-QQ
Ms type: MS2
Ion mode: POSITIVE
Retention time: 0.820833 min
Base peak: 253.100006
Precursor m/z: 271.200000
Precursor type: [M-H2O+H]+
m/z	relative intensity
42.500000	1
42.700001	1
43.150000	1
43.400002	1
43.599998	1
54.750000	1
55.000000	1
55.200001	1
56.900002	1
57.299999	1
59.200001	1
66.000000	1
66.599998	1
66.970000	1
67.325003	1
67.599998	1
67.900002	1
68.699997	1
68.966667	1
69.549999	1
70.300001	1
71.007407	5
76.300003	1
77.000000	1
77.800003	1
78.624998	1
78.900002	1
79.228571	1
79.500000	1
81.048340	13
81.699997	1
82.099998	1
82.400002	1
82.971429	1
83.599998	1
83.800003	1
84.049999	1
84.300003	1
85.066401	8
86.099998	1
86.950001	1
90.400002	1
90.599998	1
91.237499	1
91.500000	1
91.699997	1
92.099998	1
92.500000	1
93.036986	9
94.039999	1
94.300003	1
94.998864	11
95.900002	1
96.400002	1
96.900002	1
97.323530	1
97.699997	1
98.000000	1
98.350000	1
98.800003	1
99.199997	1
102.800003	1
103.300003	1
103.599998	1
104.099998	1
104.400002	1
105.200001	2
107.023597	31
109.084445	11
110.099998	1
111.120690	5
111.900002	1
113.350002	1
113.699997	1
115.099998	1
115.800003	1
116.000000	1
116.699997	1
117.000000	1
117.199997	1
117.900002	1
118.199997	1
118.599998	1
119.260001	1
119.750000	1
120.199997	1
120.967205	11
121.800003	1
122.960001	1
124.000000	1
125.060000	2
125.699997	1
126.800003	1
127.000000	1
127.199997	1
128.100006	1
128.300003	1
129.000000	1
129.224998	1
130.100006	1
130.300003	1
133.040320	236
134.300003	1
134.899994	1
135.100006	1
135.800003	1
137.500000	1
138.199997	1
138.399994	1
138.800003	1
139.000000	1
139.199997	1
140.775002	1
141.100003	1
141.800003	1
142.800003	1
143.000000	1
143.199997	1
145.017473	23
146.199997	1
146.474998	1
147.107317	5
148.100006	1
148.399994	1
148.699997	1
149.133331	1
150.699997	1
151.100006	1
151.374996	1
151.800003	1
152.100006	1
152.500000	1
152.800003	1
153.399994	1
153.699997	1
154.000000	1
154.399994	1
157.077304	243
159.073032	186
161.095084	7
162.600006	1
163.000000	1
163.949997	1
164.600006	1
165.000000	1
165.199997	1
165.500000	1
166.100006	1
167.099996	1
167.500000	1
167.800003	1
168.199997	1
169.099999	1
169.800003	1
171.025843	11
172.050003	1
173.108147	16
174.000000	1
174.199997	1
175.120834	3
176.699997	1
176.899994	1
177.116671	1
178.300003	1
178.972729	1
180.100006	1
180.800003	1
181.319998	1
181.983336	1
183.103922	25
185.031036	7
186.000000	1
186.300003	1
187.168750	1
188.800003	1
189.199997	1
190.699997	1
192.699997	1
193.300000	1
193.899994	1
194.399994	1
195.192856	1
196.270835	1
197.102685	122
199.153125	4
201.087869	74
201.899994	1
202.925001	1
203.500000	1
204.300003	1
205.300003	1
205.600006	1
206.699997	1
207.100006	1
207.399994	1
208.199997	1
208.699997	1
208.969229	2
209.341666	1
210.066668	1
211.069977	28
213.137333	64
214.199997	1
214.820001	1
219.199997	1
220.000000	1
220.199997	1
220.600006	1
220.899994	1
221.199997	1
222.199997	1
222.899994	1
223.300003	1
223.500000	1
223.783335	1
224.000000	1
225.164088	11
226.199997	1
227.194252	32
228.000000	1
228.300003	1
228.600006	1
229.255554	1
229.699997	1
230.500000	1
234.699997	1
235.000000	1
235.333333	1
236.150002	1
236.399994	1
236.899994	1
237.199997	1
238.046667	1
239.145782	10
240.250000	1
240.987499	1
241.399994	1
242.199997	1
243.207500	5
243.800003	1
245.600006	1
248.699997	1
250.300003	1
250.500000	1
251.440002	1
253.199534	915
254.650002	1
255.199997	1
255.975000	1
256.700012	1
268.799988	1
269.100006	1
271.192153	999
