Mass spectrum: 4mPFOS; LC-ESI-QQ; MS2; CE50eV
Name: 4mPFOS
Class: Non-Natural Product
Formula: C8HF17O3S
Exact mass: 499.93749
SMILES: FC(F)(F)C(F)(F)C(F)(F)C(F)(C(F)(F)F)C(F)(F)C(F)(F)C(F)(F)S(O)(=O)=O
InChI: InChI=1S/C8HF17O3S/c9-1(6(18,19)20,2(10,11)4(14,15)7(21,22)23)3(12,13)5(16,17)8(24,25)29(26,27)28/h(H,26,27,28)
Instrument: Xevo TQ, Waters
Instrument type: LC-ESI-QQ
Ms type: MS2
Ion mode: NEGATIVE
Collision energy: 50eV
Retention time: 15.483566 min
Base peak: 80.090935
Precursor m/z: 498.9
Precursor type: [M-H]-
m/z	relative intensity
74.724546	40
79.995179	999
83.144232	249
98.878865	416
118.738930	424
130.073540	211
180.213559	354
229.872870	134
324.783108	23
330.258120	86
363.027890	62
400.630434	119
498.795774	103
