Mass spectrum: 2mPFOS; LC-ESI-QQ; MS2; CE10eV
Name: 2mPFOS
Class: Non-Natural Product
Formula: C8HF17O3S
Exact mass: 499.93749
SMILES: FC(F)(F)C(F)(F)C(F)(F)C(F)(F)C(F)(F)C(F)(C(F)(F)F)C(F)(F)S(O)(=O)=O
InChI: InChI=1S/C8HF17O3S/c9-1(6(18,19)20,8(24,25)29(26,27)28)2(10,11)3(12,13)4(14,15)5(16,17)7(21,22)23/h(H,26,27,28)
Instrument: Xevo TQ, Waters
Instrument type: LC-ESI-QQ
Ms type: MS2
Ion mode: NEGATIVE
Collision energy: 10eV
Retention time: 15.161817 min
Base peak: 498.667450
Precursor m/z: 498.9
Precursor type: [M-H]-
m/z	relative intensity
79.899179	70
99.038899	37
168.875382	28
219.027982	103
230.033235	14
418.990275	31
498.827341	999
