Mass spectrum: beta-Sitosterol; LC-APPI-QQ; MS
Name: beta-Sitosterol
Class: Natural Product; Sterol
Formula: C29H50O
Exact mass: 414.38617
SMILES: C(C4)C(C(CC4O)=3)(C(C(CC3)2)CCC(C21)(C(CC1)C(C)CCC(C(C)C)CC)C)C
InChI: InChI=1S/C29H50O/c1-7-21(19(2)3)9-8-20(4)25-12-13-26-24-11-10-22-18-23(30)14-16-28(22,5)27(24)15-17-29(25,26)6/h10,19-21,23-27,30H,7-9,11-18H2,1-6H3/t20?,21?,23-,24?,25?,26?,27?,28?,29?/m0/s1
Instrument: API2000
Instrument type: LC-APPI-QQ
Ms type: MS
Ion mode: POSITIVE
Retention time: 0.821050 min
Base peak: 411.600006
Ion type: [M-3]+,[M-H2O+H]+
m/z	relative intensity
201.187613	40
202.107999	17
203.161493	31
204.182514	8
205.162080	48
206.120512	14
207.167567	21
208.151304	8
209.189440	29
210.256190	9
211.177624	42
213.146569	43
214.208148	18
215.195489	45
217.203916	22
218.144230	11
219.160896	22
221.156298	29
223.173333	37
224.256888	15
225.255487	36
226.235307	9
227.237037	28
228.238340	11
229.200427	21
231.192288	27
232.227864	9
233.246946	19
234.152404	18
235.188950	28
237.202531	59
238.168905	13
239.232984	28
241.292249	35
243.264895	17
245.204369	28
246.236628	8
247.228903	31
249.200728	31
251.215038	39
252.235398	10
253.212346	33
255.275319	53
257.256480	23
259.218453	26
260.283110	7
261.220863	34
263.195302	32
265.190875	36
267.219514	149
269.207714	25
271.239130	24
273.319561	33
274.254085	12
275.274391	32
277.243490	17
279.241926	104
281.279853	15
283.278177	33
285.298238	123
287.256154	29
289.338489	18
290.396772	4
291.258829	23
293.289275	19
295.293871	16
296.359564	5
297.340648	24
299.286297	56
301.317598	31
303.387073	18
305.388886	10
307.347855	11
309.322501	20
311.391477	25
313.351158	21
315.375496	84
317.354544	15
319.322408	11
321.342644	17
323.353873	13
325.385282	17
327.352579	27
328.385956	8
329.386787	26
331.322141	12
332.339605	7
333.364659	11
335.348143	15
337.382540	20
338.416666	8
339.312163	13
341.405741	13
343.350843	16
345.335526	10
347.318853	11
349.382340	11
351.358497	11
353.433252	18
355.420123	15
357.434852	20
359.372223	15
361.323754	12
363.348588	14
365.419527	14
367.437037	26
369.469534	23
371.476689	34
373.439470	19
375.430142	19
377.423821	18
379.435776	15
381.456782	38
383.499111	46
385.505393	28
387.528363	25
389.519917	33
391.524339	95
393.477033	48
395.494577	154
397.513547	505
399.433510	475
401.507500	49
403.536130	26
405.535601	37
407.545266	62
409.521614	211
411.498090	999
413.510421	199
415.521772	32
417.531380	13
419.539297	15
421.482447	25
423.557282	23
425.546600	34
427.523778	40
429.548195	43
430.574385	12
431.542158	9
433.568830	16
435.563259	16
437.566142	30
439.555269	13
441.535444	21
443.490393	21
444.585630	8
445.550233	10
447.602685	7
449.631430	9
451.582797	8
453.532770	8
455.585605	9
456.619391	4
457.503061	7
459.424955	13
460.528285	4
461.541754	4
462.500000	1
463.590833	5
465.586488	7
466.579523	2
467.576271	7
468.513263	2
469.559747	5
471.594119	3
473.499549	5
474.620182	2
475.448976	2
476.583532	2
477.553731	3
479.563639	3
481.631667	4
482.545655	1
483.580614	4
484.488235	1
485.644260	3
486.654544	1
487.590362	4
488.665384	1
489.627694	3
490.399994	1
490.713340	1
491.603131	1
492.691305	1
493.672725	2
494.686210	1
495.616894	3
496.524001	1
496.893744	1
497.630001	2
498.611118	1
498.921424	1
499.629409	2
