Mass spectrum: alpha-Estradiol; LC-APPI-QQ; MS2; CE:60 V; [M-H2O+H]+
Name: alpha-Estradiol
Class: Natural Product; Steroid hormone
Formula: C18H24O2
Exact mass: 272.17763
SMILES: Oc(c4)cc(C3)c(c4)C(C2)C(C3)C(C1)C(C)(C2)C(O)C1
InChI: InChI=1S/C18H24O2/c1-18-9-8-14-13-5-3-12(19)10-11(13)2-4-15(14)16(18)6-7-17(18)20/h3,5,10,14-17,19-20H,2,4,6-9H2,1H3/t14?,15?,16?,17-,18?/m1/s1
Instrument: API2000
Instrument type: LC-APPI-QQ
Ms type: MS2
Ion mode: POSITIVE
Retention time: 0.820833 min
Base peak: 144.000000
Precursor m/z: 255.200000
Precursor type: [M-H2O+H]+
m/z	relative intensity
37.700001	1
38.200001	1
39.137499	2
40.099998	1
41.090356	32
42.112499	1
43.070632	25
43.900002	1
44.400002	1
45.049999	1
46.599998	1
49.099998	1
49.900002	1
50.200001	1
50.500000	1
51.163636	1
53.068815	23
55.063438	198
56.000000	1
56.855556	1
57.266666	1
57.900002	1
59.000000	1
59.200001	1
60.500000	1
60.950001	1
61.400002	1
61.599998	1
61.900002	1
62.099998	1
62.400002	1
62.960869	1
65.100967	68
67.097411	478
69.110364	24
70.000000	1
71.099998	1
71.400002	1
71.800003	1
72.800003	1
73.000000	1
73.400002	1
74.300003	1
74.935295	1
77.051995	221
79.033553	342
81.083208	174
83.099998	1
84.199997	1
85.350002	1
85.800003	1
86.099998	1
86.500000	1
87.000000	1
87.500000	1
88.049999	1
91.048697	616
93.107490	55
94.090239	45
95.058639	91
96.400002	1
97.199997	1
97.850000	1
98.750000	1
99.199997	1
99.599998	1
100.124998	1
101.271876	2
103.061381	188
105.019021	642
107.013016	286
109.104839	12
109.699997	1
110.000000	1
110.800003	1
112.337501	1
115.041960	853
116.098715	373
119.096644	14
120.143751	2
121.044444	14
121.850002	1
122.599998	1
123.000000	1
123.250000	1
124.099998	1
127.057910	111
129.061370	105
131.089410	346
133.068468	273
133.800003	1
134.339999	1
134.800003	1
135.037502	1
135.500000	1
136.600006	1
136.899994	1
137.171430	1
137.575005	1
141.101245	324
144.033706	999
147.085791	9
148.000000	1
148.500000	1
148.849998	1
149.199997	1
149.399994	1
149.600006	1
149.800003	1
150.828570	1
151.200000	1
151.954700	5
153.088095	4
154.037775	2
155.069434	12
157.096863	63
159.082682	204
160.153335	1
161.036366	1
161.600006	1
162.800003	1
163.100006	1
163.650002	1
164.000000	1
165.058107	7
166.086208	3
167.000000	1
169.030623	20
171.023811	4
171.800003	1
172.299998	1
173.233335	1
174.899994	1
175.650002	1
175.899994	1
176.100006	1
176.300003	1
176.500000	1
177.025002	1
178.333330	1
179.017778	2
180.084617	1
180.439996	1
180.914286	2
181.353844	1
181.835000	1
182.222581	1
182.842855	3
183.276467	2
184.068423	2
184.962498	1
185.199997	1
186.250000	1
186.500000	1
187.500000	1
188.600006	1
188.800003	1
189.050003	1
190.000000	1
190.600006	1
190.899994	1
191.449997	1
191.949997	1
192.899994	1
193.550003	1
194.139999	1
194.500000	1
195.100006	1
195.399994	1
195.862497	1
196.222226	1
196.500000	1
197.300003	1
197.800003	1
198.241666	1
198.500000	1
198.800003	1
199.041669	1
199.399994	1
199.800003	1
200.000000	1
200.250000	1
202.899994	1
203.600006	1
205.000000	1
205.600006	1
206.899994	1
207.399994	1
208.100001	1
208.399994	1
209.300003	1
209.899994	1
210.100006	1
210.300003	1
210.600006	1
210.800003	1
211.000000	1
211.300003	1
211.500000	1
211.800003	1
212.000000	1
212.550003	1
213.250000	1
222.800003	1
223.899994	1
224.399994	1
224.699997	1
225.174999	1
226.071426	1
226.899994	1
238.199997	1
238.600006	1
239.199997	1
239.500000	1
240.000000	1
247.199997	1
252.100006	1
253.399994	1
254.250000	1
255.600006	1
