Mass spectrum: 5-beta-Androstane-3-alpha,17-beta-diol; LC-APPI-QQ; MS2; CE:40 V; [M-2H2O+H]+
Name: 5-beta-Androstane-3-alpha,17-beta-diol
Name: Etiocholane-3-alpha,17-beta-diol
Class: Natural Product; Steroid hormone
Formula: C19H32O2
Exact mass: 292.24023
SMILES: OC(C4)CC([H])(C3)C(C)(C4)C(C2)C(C3)C(C1)C(C)(C2)C(O)C1
InChI: InChI=1S/C19H32O2/c1-18-9-7-13(20)11-12(18)3-4-14-15-5-6-17(21)19(15,2)10-8-16(14)18/h12-17,20-21H,3-11H2,1-2H3/t12-,13-,14?,15?,16?,17+,18?,19?/m1/s1
Instrument: API2000
Instrument type: LC-APPI-QQ
Ms type: MS2
Ion mode: POSITIVE
Retention time: 0.820867 min
Base peak: 95.099998
Precursor m/z: 257.300000
Precursor type: [M-2H2O+H]+
m/z	relative intensity
38.750000	1
39.599998	1
39.900002	1
40.995455	5
42.133333	1
43.321052	5
43.799999	1
50.400002	1
50.650000	1
51.050000	1
51.400002	1
51.700001	1
52.000000	1
53.400002	1
55.092027	180
55.916668	1
56.225000	1
56.500000	1
57.205715	9
58.099998	1
61.700001	1
62.000000	1
63.400002	1
63.900002	1
64.099998	1
64.649998	2
67.107552	608
69.108558	157
70.300003	1
70.500000	1
71.127272	3
71.599998	1
72.699997	1
73.099998	1
74.599998	1
74.900002	1
75.599998	1
75.900002	1
77.068827	40
79.061940	499
81.106952	999
83.128265	277
84.316669	1
84.900002	1
85.099998	1
85.400002	1
86.599998	1
86.900002	1
87.300003	1
87.599998	1
88.199997	1
91.055001	443
93.090870	869
95.069448	913
97.098245	14
99.900002	1
100.699997	1
101.149998	1
101.400002	1
101.900002	1
105.052589	728
107.065178	467
109.121671	475
110.724998	1
111.250000	1
112.500000	1
112.800003	1
113.549999	1
114.199997	1
115.025000	3
117.071860	53
119.064729	448
121.111945	226
123.095445	60
124.300003	1
124.900002	1
125.199997	1
126.250000	1
126.699997	1
126.900002	1
127.200001	1
127.599998	1
127.933334	1
128.315380	2
129.132652	12
131.156715	103
133.146834	243
134.199999	6
135.140364	218
137.088235	4
137.399994	1
140.300003	1
140.500000	1
140.871427	1
141.399994	1
142.100006	1
143.088333	7
143.746155	3
145.119520	155
147.155270	377
149.150837	133
150.199997	1
150.500000	1
150.899994	1
151.174999	1
151.399994	1
152.699997	1
152.899994	1
153.300003	1
154.199997	1
155.000000	1
155.899994	1
157.238711	8
159.132551	74
161.140187	318
162.500000	1
163.188551	37
164.300003	1
164.600006	1
165.399994	1
166.750000	1
167.399994	1
168.000000	1
168.399994	1
169.062500	2
169.600006	1
169.800003	1
170.800003	1
171.130437	6
172.184998	2
173.204484	55
174.277274	3
175.164605	122
176.300003	1
177.112505	1
177.500000	1
178.300003	1
178.500000	1
179.050003	1
179.300003	1
179.800003	1
181.000000	1
181.349998	1
181.600006	1
182.000000	1
183.199997	1
184.199997	1
184.540002	1
185.219673	8
186.199997	2
187.172170	53
189.231159	34
190.250000	1
190.800003	1
191.100006	1
191.399994	1
194.100006	1
194.399994	1
195.000000	1
195.300003	1
195.500000	1
196.250000	1
196.600006	1
196.899994	1
197.177778	1
198.000000	1
199.264704	8
201.179805	90
203.300003	1
203.600006	1
203.800003	1
205.500000	1
208.300003	1
209.199997	1
209.500000	1
209.899994	1
210.449997	1
211.199997	1
211.449997	1
211.750000	1
212.000000	1
212.199997	1
213.199997	2
214.164709	4
215.185265	12
216.150002	1
217.000000	1
218.000000	1
221.100006	1
221.399994	1
223.000000	1
223.699997	1
224.199997	1
224.699997	1
225.016668	1
225.300003	1
225.550003	1
226.399994	1
227.114002	6
228.233333	15
229.144086	12
229.800003	1
231.000000	1
237.000000	1
237.300003	1
237.500000	1
238.399994	1
238.879996	1
239.250002	4
239.849998	1
240.500000	1
240.699997	1
241.000000	1
241.377779	1
242.362162	5
254.849998	1
255.200005	1
256.012501	1
257.337382	66
