Mass spectrum: Epicoprostanol; LC-APPI-QQ; MS2; CE:60 V; [M-H2O+H]+
Name: Epicoprostanol
Class: Natural Product; Sterol
Formula: C27H48O
Exact mass: 388.37052
SMILES: CC(C4)(C(CC(O)C4)3)C(C2)C(CC3)C(C1)C(C)(C2)C(C(C)CCCC(C)C)C1
InChI: InChI=1S/C27H48O/c1-18(2)7-6-8-19(3)23-11-12-24-22-10-9-20-17-21(28)13-15-26(20,4)25(22)14-16-27(23,24)5/h18-25,28H,6-17H2,1-5H3
Instrument: API2000, Applied
Instrument type: LC-APPI-QQ
Ms type: MS2
Ion mode: POSITIVE
Retention time: 0.820833 min
Base peak: 94.900002
Precursor m/z: 371.471000
Precursor type: [M-H2O+H]+
m/z	relative intensity
38.500000	1
38.850000	1
39.099998	1
39.299999	1
39.900002	1
40.299999	1
41.169565	20
43.055263	81
44.000000	1
45.400002	1
49.299999	1
51.250000	1
51.950001	1
52.574999	1
53.057144	3
55.059686	325
57.098636	156
58.000000	1
58.299999	1
58.599998	1
58.950001	1
61.000000	1
61.400002	1
62.000000	1
62.799999	1
63.400002	1
63.700001	1
64.861113	4
65.255554	4
67.081427	534
69.074603	429
70.400002	3
71.086234	53
72.049999	1
72.300003	1
73.133333	3
75.000000	1
77.006780	25
79.030871	291
81.079715	985
83.092027	187
84.300003	1
84.699997	2
85.093103	6
85.800003	1
86.900002	1
88.099998	1
89.275002	1
89.500000	1
89.762501	2
91.042857	150
93.077974	531
95.028736	999
96.257893	4
97.097059	43
98.400002	1
100.800003	1
101.299999	1
101.800003	1
102.926667	3
103.350002	1
105.036901	115
107.026323	313
109.075860	365
110.300003	1
110.683331	1
111.199997	1
114.800003	1
115.099998	1
115.699997	1
116.250000	1
116.800003	1
117.000000	3
117.766668	3
119.088210	49
120.000000	3
121.050968	132
121.912501	2
122.980770	22
125.000000	1
125.500000	1
127.900002	1
128.399994	1
128.699997	1
128.899994	1
129.199997	1
129.699997	1
129.949997	2
130.399994	1
131.062963	6
132.025925	6
133.116667	33
134.116666	6
135.108228	67
135.800003	1
136.266668	1
137.035714	6
138.199997	1
138.600006	1
141.300003	1
141.899994	1
142.199997	1
142.399994	1
142.699997	1
143.399994	1
143.600006	1
143.899994	1
144.216665	1
145.031581	4
147.091406	27
148.149998	2
149.082525	22
149.849998	1
150.899994	1
151.199997	1
152.399994	1
154.199997	1
155.000000	1
156.899994	1
157.699997	1
158.150002	1
159.061291	7
160.000000	2
160.273332	3
160.879996	4
161.800003	1
162.100006	1
162.449997	1
163.000000	2
163.800003	1
164.800003	1
168.300003	1
169.100006	1
169.399994	1
171.300003	1
171.700002	1
172.224998	1
172.600006	1
173.228572	3
174.000000	1
174.349998	1
174.883329	1
175.155558	2
176.100006	1
177.000000	1
177.199997	1
177.600006	1
178.399994	1
178.800003	1
179.000000	1
179.300003	1
180.199997	1
183.399994	1
185.199997	1
185.449997	1
186.199997	1
186.550003	1
186.849998	1
187.500000	1
188.050003	1
188.399994	1
188.600006	1
188.800003	1
189.333328	1
191.100006	1
191.349998	1
193.000000	1
200.100006	1
200.399994	1
200.949997	1
201.300003	1
201.800003	1
202.000000	1
202.199997	1
202.833333	1
203.300003	1
213.399994	1
214.899994	1
215.500000	1
215.899994	1
216.600006	1
216.899994	1
217.100006	1
217.300003	1
219.000000	1
225.600006	1
226.000000	1
226.899994	1
228.300003	1
229.100006	1
229.300003	1
229.849998	1
231.150002	1
235.100006	1
238.899994	1
240.000000	1
241.300003	1
243.399994	1
244.100006	1
245.199997	1
246.800003	1
247.899994	1
248.100006	1
249.300003	1
250.800003	1
251.000000	1
253.699997	1
254.000000	1
255.300003	1
256.600006	1
257.200002	1
258.150009	1
261.799988	1
262.899994	1
264.600006	1
265.399994	1
267.100006	1
268.799988	1
270.799988	1
273.000000	1
275.100006	1
285.100006	1
285.299988	1
287.150009	1
312.799988	1
313.000000	1
313.250000	1
326.050003	1
353.500000	1
368.700012	1
