Mass spectrum: Estriol; LC-APPI-QQ; MS2; CE:40 V; [M-H2O+H]+
Name: Estriol
Class: Natural Product; Steroid hormone
Formula: C18H24O3
Exact mass: 288.17254
SMILES: Oc(c4)cc(C3)c(c4)C(C2)C(C3)C(C1)C(C)(C2)C(O)C(O)1
InChI: InChI=1S/C18H24O3/c1-18-7-6-13-12-5-3-11(19)8-10(12)2-4-14(13)15(18)9-16(20)17(18)21/h3,5,8,13-17,19-21H,2,4,6-7,9H2,1H3/t13?,14?,15?,16-,17+,18?/m1/s1
Instrument: API2000
Instrument type: LC-APPI-QQ
Ms type: MS2
Ion mode: POSITIVE
Retention time: 0.820833 min
Base peak: 157.000000
Precursor m/z: 271.200000
Precursor type: [M-H2O+H]+
m/z	relative intensity
35.900002	1
39.500000	1
40.400002	1
41.050000	2
41.700001	1
43.076623	30
44.299999	1
44.875001	1
45.175000	1
46.000000	1
51.200001	1
51.900002	1
52.400002	1
52.900000	1
53.200001	1
53.500000	1
53.799999	1
55.006863	20
55.799999	1
56.299999	1
56.950001	2
58.099998	1
58.975000	1
59.200001	1
64.500000	1
64.800003	1
65.149998	2
65.400002	1
66.099998	1
67.083950	64
69.119510	8
71.076333	59
73.049999	1
74.199997	1
74.599998	1
75.900002	1
77.086957	18
77.800003	1
79.062904	98
81.086626	192
81.950001	1
83.099999	4
84.000000	1
84.300003	1
85.072729	9
85.699997	1
87.300003	1
88.500000	1
88.699997	1
88.900002	1
89.250000	1
89.599998	1
90.000000	1
90.949607	50
93.041356	117
95.038089	139
96.000000	1
96.300003	1
97.044643	11
97.800001	1
98.199999	1
98.649998	1
99.099998	1
99.350002	1
100.800003	1
101.000000	1
102.199997	1
103.199997	4
105.002229	142
107.016315	206
109.063013	29
109.900002	1
110.350002	1
110.938462	5
111.699997	1
113.300003	1
113.599998	1
113.800003	1
114.266668	1
115.090697	17
115.996226	10
117.070666	15
118.183331	1
119.075001	16
119.699997	1
120.199997	1
121.078892	57
122.199999	1
122.549999	1
122.800003	2
123.266668	1
123.800003	1
124.000000	1
124.250000	1
124.500000	1
125.000000	2
125.400002	1
126.099998	1
127.043443	24
128.090626	13
129.029031	25
131.087814	165
133.061785	999
135.142857	3
136.199997	1
137.150002	1
138.100006	1
138.399994	1
139.173336	3
139.525002	1
141.061317	96
142.118182	4
145.029322	233
147.123076	46
148.100006	1
148.449997	1
148.775002	1
149.100006	1
149.399997	1
149.750000	1
150.199997	1
150.750000	1
151.000000	1
151.440002	2
153.042353	34
153.906248	6
154.216665	4
155.057576	39
157.071656	795
159.064069	756
159.880002	2
161.061536	10
162.199997	1
162.824997	2
163.259998	1
163.699997	1
163.899994	1
164.199997	1
165.102985	53
165.800003	2
166.028573	3
166.300003	2
167.006349	25
167.899995	3
169.072414	46
170.996605	128
173.035615	29
173.800003	1
174.981817	2
176.000000	1
176.300003	1
176.766668	1
177.000000	1
177.199997	2
178.093548	12
179.140889	89
181.025838	41
182.128283	78
183.117283	144
184.077778	28
185.080629	82
186.000000	1
186.316668	1
186.750000	2
187.100006	1
187.300003	2
188.500000	1
188.799998	1
189.399994	1
189.799998	1
190.100006	1
190.775002	1
191.075001	2
191.825001	1
192.100006	1
192.500000	1
193.147191	18
193.800003	1
194.133336	2
195.084446	18
197.124559	269
198.105508	93
198.800003	3
199.399994	4
199.699997	1
200.100006	1
201.194997	4
202.100001	1
202.849998	1
203.399994	1
203.899994	1
204.699997	1
205.000000	1
205.399994	1
205.750000	1
206.000000	1
206.199997	1
206.899994	1
207.100006	2
207.600006	1
208.025002	1
208.300003	1
209.075632	24
211.104190	104
212.104167	9
213.097193	56
213.800003	1
214.200002	1
214.500000	1
215.000004	3
216.300003	1
217.399994	1
219.199997	1
219.399994	1
220.100006	1
220.399994	1
221.000000	1
221.300003	1
221.500000	1
221.849998	1
222.283335	1
222.800003	2
223.285002	4
224.061113	11
224.500000	1
225.076470	20
226.199997	1
227.187501	19
227.899994	2
228.275002	2
228.800003	1
229.150002	1
229.600006	1
230.899994	1
233.050003	1
234.799998	1
235.150002	1
235.500000	1
235.800003	1
236.000000	1
236.300003	1
236.699997	1
237.000000	1
237.300003	1
238.175609	8
239.246154	5
240.849998	1
241.142862	1
241.699997	1
242.100001	1
242.500000	1
242.800003	1
243.283333	2
250.600006	1
251.166667	3
251.600006	1
252.100006	1
253.291219	81
254.100006	1
254.699997	1
254.899994	1
255.100006	1
255.600006	1
255.800003	1
256.399994	1
267.799988	1
269.299998	1
270.349991	1
271.120832	9
