Mass spectrum: Epiandrosterone; LC-APPI-QQ; MS2; CE:20 V; [M-H2O+H]+
Name: Epiandrosterone
Name: 3-beta-Hydroxy-5alpha-androstan-17-one
Class: Natural Product; Steroid hormone
Formula: C19H30O2
Exact mass: 290.22458
SMILES: OC(C4)CC([H])(C3)C(C)(C4)C(C2)C(C3)C(C1)C(C)(C2)C(=O)C1
InChI: InChI=1S/C19H30O2/c1-18-9-7-13(20)11-12(18)3-4-14-15-5-6-17(21)19(15,2)10-8-16(14)18/h12-16,20H,3-11H2,1-2H3/t12-,13-,14?,15?,16?,18?,19?/m0/s1
Instrument: API2000
Instrument type: LC-APPI-QQ
Ms type: MS2
Ion mode: POSITIVE
Retention time: 0.820833 min
Base peak: 273.200012
Precursor m/z: 273.300000
Precursor type: [M-H2O+H]+
m/z	relative intensity
39.099998	1
39.299999	1
40.599998	1
40.900002	1
42.650000	1
43.000000	1
44.000000	1
52.900002	1
53.150000	1
54.984615	1
56.950001	1
57.299999	1
59.200001	1
61.500000	1
64.900002	1
65.099998	1
65.900002	1
66.199997	1
67.107408	3
68.862502	1
69.129998	1
71.237499	1
71.599998	1
72.400002	1
72.900002	1
75.000000	1
76.099998	1
76.500000	1
76.800003	1
77.081249	1
77.400002	1
77.900002	1
78.149998	1
79.109373	3
81.112797	18
82.000000	1
82.500000	1
83.105000	7
84.049999	1
84.993182	5
87.000000	1
89.400002	1
89.900002	1
90.275002	1
91.078846	6
92.000000	1
93.143062	11
95.078000	16
95.900002	1
97.072580	7
98.000000	1
98.300003	1
98.780002	1
99.104761	1
99.699997	1
101.199997	1
101.500000	1
102.750000	1
103.199997	1
104.183331	1
105.057062	19
107.036731	67
108.062499	1
109.060331	20
110.149998	1
110.400002	1
111.090000	3
112.549999	1
113.124998	1
113.500000	1
114.099998	1
114.800003	1
115.000000	1
115.649998	1
116.149998	1
116.985715	2
117.306253	1
118.099998	1
119.078740	14
119.900002	1
121.117323	35
121.775002	1
123.044737	14
124.000000	1
124.300003	1
125.191779	4
126.800003	1
127.049999	1
128.025002	1
128.399994	1
128.600006	1
128.899994	1
129.199997	1
129.600006	1
129.800003	1
131.180770	11
132.100006	1
133.142801	41
135.142043	60
136.000000	1
137.097115	11
138.349998	1
138.874996	1
139.162500	1
140.600006	1
140.800003	1
141.000000	1
141.250000	1
142.025002	1
142.300003	1
142.500000	1
143.078260	3
144.100006	1
145.105347	82
147.146296	203
148.199997	1
149.176527	23
150.337500	1
151.140307	11
152.000000	1
152.600006	1
153.150002	1
154.300003	1
154.699997	1
154.899994	1
155.200002	1
155.600006	1
155.899994	1
156.100006	1
157.037498	3
159.124092	105
161.132477	312
163.160715	31
164.100006	1
165.306062	2
166.500000	1
167.500000	1
168.000000	1
168.300003	1
168.800003	1
169.199997	1
170.000000	1
171.085228	10
171.800003	1
173.191210	76
175.191061	39
176.300000	1
177.202857	11
178.200002	1
178.800003	1
179.133334	1
179.800003	1
180.199997	1
180.800003	1
181.150002	1
182.100006	1
182.349998	1
183.349998	1
183.837500	1
185.173639	45
185.899994	1
186.275000	1
187.163174	18
188.000000	1
189.241060	16
190.250000	1
191.169281	8
192.100006	1
193.300003	1
194.800003	1
195.000000	1
195.300003	1
195.899994	1
196.899994	1
197.400002	1
199.202603	113
200.293333	2
201.193181	24
202.025002	1
203.241807	19
204.349998	1
204.600006	1
205.077781	1
205.550003	1
206.600006	1
207.000000	1
208.800003	1
210.199997	1
211.287502	1
211.750000	1
212.500000	1
213.219722	51
215.225942	36
216.100006	1
216.300003	1
217.200000	12
218.100006	1
218.899994	1
222.500000	1
224.000000	1
225.100006	1
225.500000	1
225.883329	1
226.309092	1
227.251237	15
228.050003	1
228.300003	1
229.071427	4
230.100006	1
230.399994	1
230.859998	1
231.199997	1
231.416662	1
236.100006	1
237.100001	1
237.500000	1
238.399994	1
239.399994	1
239.699997	1
240.270832	1
241.200001	1
242.399994	1
243.050003	1
243.300003	1
243.600006	1
244.000000	1
244.600006	1
245.269766	2
245.600006	1
245.800003	1
248.000000	1
248.199997	1
251.899994	1
252.100006	1
253.246152	1
253.600006	1
255.316799	944
257.000000	1
257.399994	1
258.175011	1
258.533335	1
265.299988	1
266.399994	1
269.600006	1
270.399994	1
270.600006	1
270.799988	1
271.100006	1
273.328248	999
275.000000	1
