Mass spectrum: 24-Ethylepicoprostanol; LC-APPI-QQ; MS2; CE:10 V; [M-H2O+H]+
Name: 24-Ethylepicoprostanol
Class: Natural Product; Sterol
Formula: C29H52O
Exact mass: 416.40182
SMILES: [H]C(C([H])23)(CCC(C)(C4C(C)CCC(C(C)C)CC)C(CC4)3[H])C(C(CC2)1[H])(CCC(O)C1)C
InChI: InChI=1S/C29H52O/c1-7-21(19(2)3)9-8-20(4)25-12-13-26-24-11-10-22-18-23(30)14-16-28(22,5)27(24)15-17-29(25,26)6/h19-27,30H,7-18H2,1-6H3/t20-,21+,22-,23-,24+,25?,26+,27+,28+,29-/m1/s1
Instrument: API2000
Instrument type: LC-APPI-QQ
Ms type: MS2
Ion mode: POSITIVE
Retention time: 0.820833 min
Base peak: 399.500000
Precursor m/z: 399.500000
Precursor type: [M-H2O+H]+
m/z	relative intensity
39.599998	1
43.099998	1
57.500000	1
63.900002	1
69.000000	1
70.000000	1
70.800003	1
71.400002	1
80.900002	1
81.199997	1
81.400002	1
82.000000	1
82.950001	1
85.000000	1
92.000000	1
93.900002	1
94.800003	1
95.450001	1
96.900002	1
97.400002	1
106.400002	1
107.300003	1
107.950001	1
108.400002	1
108.649998	1
108.900002	1
109.099998	1
110.300003	1
110.799999	1
111.199997	1
111.400002	1
113.000000	1
113.500000	1
118.900002	1
120.900002	1
122.300003	1
122.699997	1
123.000000	1
124.199997	1
124.500000	1
124.800003	1
125.000000	1
126.599998	1
134.300003	1
135.300003	1
136.199997	1
136.500000	1
136.699997	1
137.066668	1
138.799998	1
139.100006	1
139.600006	1
147.199997	1
147.699997	1
148.349998	1
149.015386	2
150.300003	1
150.766668	1
151.000000	1
151.216665	1
152.750000	1
153.000000	1
153.399994	1
155.399994	1
157.699997	1
160.600006	1
160.800003	1
161.000000	1
161.399994	1
162.199997	1
162.600006	1
163.000000	1
163.339999	1
165.300003	1
171.399994	1
174.500000	1
174.800003	1
175.299998	1
175.899994	1
177.055553	3
177.399994	1
177.600006	1
178.300003	1
178.600006	1
179.300003	1
179.500000	1
181.100006	1
188.300003	1
188.899994	1
189.100006	1
189.300003	1
189.500000	1
191.166667	1
191.399994	1
193.000000	1
203.200003	3
204.699997	1
205.300003	1
207.075005	1
207.600006	1
207.899994	1
209.100006	1
215.000000	1
215.399994	1
215.699997	1
215.899994	1
216.199997	1
216.849998	1
217.242857	2
218.000000	1
219.250000	1
219.500000	1
221.075005	1
221.500000	1
223.500000	1
229.800003	1
230.100006	1
230.699997	1
231.033335	1
231.333333	1
231.899994	1
233.000000	1
233.300003	1
234.300003	1
234.750000	1
235.000000	1
235.212498	1
236.000000	1
241.500000	1
243.600006	1
244.600006	1
244.899994	1
245.125004	1
245.500000	1
246.000000	1
246.399994	1
246.899994	1
247.600006	1
249.050003	2
249.550003	1
254.800003	1
255.050003	1
255.600006	1
258.399994	1
259.100006	1
259.299988	1
259.500000	1
261.000000	1
261.449997	1
261.700012	1
262.899994	1
263.299988	1
263.600006	1
263.799988	1
267.899994	1
271.000000	1
271.399994	1
271.600006	1
272.349991	1
273.399994	1
273.899994	1
275.000000	1
275.500010	1
276.899994	1
277.500000	1
279.399994	1
283.100006	1
286.299988	1
286.899994	1
287.300003	1
287.600006	1
288.600006	1
288.899994	1
289.257137	1
291.100006	1
291.799988	1
298.799988	1
299.100006	1
299.600006	1
300.000000	1
300.299988	1
300.600006	1
300.899994	1
301.349998	1
302.100006	1
303.279999	1
303.700002	1
305.100006	1
307.299988	1
314.100006	1
315.100006	1
315.500000	1
316.600006	1
316.899994	1
317.399994	1
317.899994	1
319.000000	1
323.899994	1
325.500000	1
327.700012	1
328.799988	1
329.100006	1
329.399994	1
331.399994	1
331.600006	1
333.200012	1
339.200012	1
339.500000	1
343.200012	1
343.399994	1
349.200012	1
352.200012	1
356.500000	1
357.449997	1
357.799988	1
363.200012	1
367.399994	1
376.399994	1
381.500000	1
383.399994	1
384.000000	1
384.399994	1
396.100006	1
397.000000	1
397.500000	1
397.799988	1
398.200012	1
399.427086	999
