Mass spectrum: 1,4-Androstadiene-3,17-dione; LC-APPI-QQ; MS2; CE:10 V; [M+H]+
Name: 1,4-Androstadiene-3,17-dione
Class: Natural Product; Anabolic Steroid
Formula: C19H24O2
Exact mass: 284.17763
SMILES: O=C(C=4)C=C(C3)C(C)(C4)C([H])(C2)C([H])(C3)C([H])(C1)C(C)(C2)C(=O)C1
InChI: InChI=1S/C19H24O2/c1-18-9-7-13(20)11-12(18)3-4-14-15-5-6-17(21)19(15,2)10-8-16(14)18/h7,9,11,14-16H,3-6,8,10H2,1-2H3/t14-,15-,16-,18-,19-/m0/s1
Instrument: API2000
Instrument type: LC-APPI-QQ
Ms type: MS2
Ion mode: POSITIVE
Retention time: 0.820867 min
Base peak: 285.200012
Precursor m/z: 285.500000
Precursor type: [M+H]+
m/z	relative intensity
71.000000	1
78.900002	1
79.149998	1
80.700000	1
81.099998	1
81.500000	1
83.099998	1
85.000000	1
85.199997	1
85.500000	1
91.000000	1
91.500000	1
93.074999	1
93.500000	1
94.740001	1
95.133331	1
95.599998	1
96.900002	1
97.199997	1
99.000000	1
99.199997	1
105.000000	1
105.199997	1
105.649998	1
106.992392	2
108.199997	1
108.400002	1
109.135294	1
110.833333	1
111.340001	1
111.699997	1
114.099998	1
115.400002	1
119.000000	1
119.900002	1
120.099998	1
121.073373	16
121.800003	1
122.099998	1
122.800003	1
123.000000	1
123.500000	1
124.975000	1
125.199997	1
125.400002	1
125.599998	1
127.850002	1
129.100006	1
130.100006	1
130.699997	1
131.100006	1
131.600006	1
132.199997	1
132.399994	1
133.006818	1
133.800003	1
134.982277	2
136.399994	1
136.699997	1
137.300003	1
138.800003	1
139.000000	1
139.300003	1
143.199997	1
144.250000	1
144.500000	1
144.699997	1
144.899994	1
147.117812	63
148.199997	1
148.500000	1
149.100006	1
149.424995	1
150.199997	1
151.133838	9
151.800003	1
152.000000	1
154.699997	1
154.899994	1
155.199997	1
156.250000	1
156.750000	1
157.100006	1
157.300003	1
158.050003	1
159.045349	4
159.899994	1
160.199997	1
160.500000	1
160.800003	1
161.012501	1
161.300003	1
162.399994	1
162.650002	1
163.100006	1
163.449997	1
164.000000	1
164.300003	1
164.828570	1
165.180002	1
165.600006	1
169.199997	1
169.449997	1
170.199997	1
171.075241	12
172.200000	1
173.130077	15
174.399994	1
175.028573	1
176.899994	1
177.189998	1
179.100006	1
180.600006	1
181.000000	1
181.550003	1
183.100006	1
184.300003	1
185.075000	1
187.300003	1
189.135897	2
193.199997	1
196.100006	1
196.449997	1
197.199997	1
198.000000	1
198.650002	1
198.899994	1
199.100006	1
199.500000	1
200.150002	1
201.060001	1
201.550003	1
202.600006	1
202.924995	1
203.300003	1
203.600006	1
206.699997	1
207.000000	1
207.199997	1
208.699997	1
209.699997	1
209.899994	1
210.100006	1
210.300003	1
211.183335	4
212.399994	1
212.849998	1
213.300003	1
213.899994	1
214.600006	1
215.157376	1
217.199997	1
217.399994	1
217.600006	1
219.000000	1
219.899994	1
221.150002	1
223.000000	1
223.300003	1
225.215092	1
225.600006	1
225.899994	1
226.100006	1
226.500000	1
227.249208	1
227.800003	1
228.100006	1
228.399994	1
228.974998	1
229.550003	1
237.100006	1
237.899994	1
239.278947	1
240.399994	1
241.140002	1
241.575005	1
242.000000	1
242.600006	1
243.500003	1
246.899994	1
249.100002	1
250.199997	1
251.300003	1
251.800003	1
252.000000	1
252.699997	1
253.374996	1
254.100006	1
255.449997	1
256.650009	1
256.899994	1
257.133341	1
257.650009	1
264.000000	1
264.600006	1
265.100006	1
265.899994	1
267.222369	227
268.316655	1
268.600006	1
269.000000	1
269.200012	1
270.150002	1
271.200012	1
280.200012	1
280.700012	1
281.700012	1
282.349991	1
282.700012	1
283.150009	1
283.449997	1
285.255728	999
286.899994	1
287.700012	1
328.700012	1
