Mass spectrum: isoPFOS; LC-ESI-QQ; MS2; CE10eV
Name: isoPFOS
Class: Non-Natural Product
Formula: C8HF17O3S
Exact mass: 499.93749
SMILES: FC(F)(F)C(F)(C(F)(F)F)C(F)(F)C(F)(F)C(F)(F)C(F)(F)C(F)(F)S(O)(=O)=O
InChI: InChI=1S/C8HF17O3S/c9-1(6(18,19)20,7(21,22)23)2(10,11)3(12,13)4(14,15)5(16,17)8(24,25)29(26,27)28/h(H,26,27,28)
Instrument: Xevo TQ, Waters
Instrument type: LC-ESI-QQ
Ms type: MS2
Ion mode: NEGATIVE
Collision energy: 10eV
Retention time: 17.413918 min
Base peak: 498.986145
Precursor m/z: 498.9
Precursor type: [M-H]-
m/z	relative intensity
79.514564	58
84.946596	20
98.787489	84
168.735184	149
179.689750	35
229.581607	11
280.134195	36
330.057412	26
430.839416	18
499.012679	999
