Mass spectrum: Dihydrotestosterone; LC-APPI-QQ; MS2; CE:30 V; [M-2H2O+H]+
Name: Dihydrotestosterone
Class: Natural Product; Steroid hormone
Formula: C19H30O2
Exact mass: 290.22458
SMILES: O=C(C4)CC([H])(C3)C(C)(C4)C(C2)C(C3)C(C1)C(C)(C2)C(O)C1
InChI: InChI=1S/C19H30O2/c1-18-9-7-13(20)11-12(18)3-4-14-15-5-6-17(21)19(15,2)10-8-16(14)18/h12,14-17,21H,3-11H2,1-2H3/t12-,14?,15?,16?,17-,18?,19?/m0/s1
Instrument: API2000
Instrument type: LC-APPI-QQ
Ms type: MS2
Ion mode: POSITIVE
Retention time: 0.820867 min
Base peak: 255.399994
Precursor m/z: 255.200000
Precursor type: [M-2H2O+H]+
m/z	relative intensity
40.799999	1
41.099998	1
43.199999	1
44.750000	1
47.099998	1
52.900002	1
53.200001	1
53.400002	1
53.700001	1
54.250000	1
55.147059	5
55.900002	1
56.400002	1
56.599998	1
56.900002	1
57.400002	1
59.099998	1
65.149998	1
65.450001	1
65.975000	1
67.159375	30
68.099998	1
69.146296	15
70.099998	1
70.500000	1
70.900002	1
71.199997	1
72.599998	1
76.199997	1
76.400002	1
77.115385	4
77.900002	1
79.075000	45
81.114445	158
82.000000	1
83.093940	18
83.800003	1
85.149998	1
85.500000	1
86.699997	1
88.000000	1
89.500000	1
89.990000	1
90.300003	1
91.048876	48
91.800003	1
93.063881	101
95.048841	164
96.224998	1
97.070587	5
97.800003	1
99.599998	1
102.199997	1
102.500000	1
103.300000	1
103.599998	1
105.019066	140
107.038365	141
107.900002	1
109.138053	61
110.000000	1
110.700001	1
111.099998	1
111.375002	1
112.800003	1
114.199997	1
114.962501	1
115.800003	1
116.199997	1
117.125247	27
119.083227	85
120.099998	1
121.094905	72
122.928573	10
124.400002	1
124.800003	1
126.599998	1
126.800003	1
127.199997	1
129.135714	19
131.147856	76
133.133512	101
134.177778	1
135.082370	45
136.449997	1
137.125807	4
138.500000	1
139.199997	1
139.899994	1
140.399994	1
140.816668	1
141.199997	1
142.149998	7
143.099349	42
145.121673	198
147.145324	151
148.300003	1
149.098058	28
150.100006	1
151.233332	1
151.799998	1
152.100006	1
152.300003	1
152.699997	1
152.899994	1
153.283335	1
153.550003	1
154.100006	1
154.300003	1
155.194120	5
155.962498	2
157.146512	53
159.133720	304
161.139400	127
162.000000	1
163.172414	8
164.100006	1
164.966665	1
165.300003	1
165.500000	1
165.800003	1
166.199997	1
166.800003	1
167.087505	1
168.100006	1
168.966665	2
169.291669	2
171.116531	84
171.899994	1
172.293753	2
173.194275	142
175.174522	43
176.000000	1
176.199997	1
176.500000	1
177.000000	1
177.300003	1
177.600006	1
178.275002	1
178.874996	1
179.300003	1
179.750000	1
180.199997	1
181.087500	2
181.750000	1
182.240002	1
183.145946	5
183.600006	1
185.149803	138
187.165564	41
188.199997	1
189.141667	10
190.500000	1
192.199997	1
192.699997	1
193.000000	1
193.199997	1
193.500000	1
193.874996	1
194.224998	1
195.134374	9
196.000000	1
196.229999	1
197.239130	6
199.206929	255
201.279710	9
202.800003	1
203.600006	1
203.950001	1
205.250000	1
205.800003	1
207.125004	1
208.000000	1
209.177775	2
209.899994	1
210.275002	1
211.114034	8
213.221622	95
214.199997	2
214.899994	1
215.399994	1
216.800003	1
221.899994	1
223.190002	8
223.849998	1
224.150002	1
224.500000	1
226.131252	11
227.225940	72
234.899994	1
235.100006	1
236.800001	1
237.179999	1
237.500000	1
238.199997	1
238.800003	1
239.025002	1
239.399994	1
240.289393	9
241.000000	1
251.150002	1
251.449997	1
252.349998	1
253.378572	4
255.326111	999
256.600006	1
257.000000	1
