Mass spectrum: 5-beta-Androstane-3-alpha,17-beta-diol; LC-APPI-QQ; MS2; CE:50 V; [M-2H2O+H]+
Name: 5-beta-Androstane-3-alpha,17-beta-diol
Name: Etiocholane-3-alpha,17-beta-diol
Class: Natural Product; Steroid hormone
Formula: C19H32O2
Exact mass: 292.24023
SMILES: OC(C4)CC([H])(C3)C(C)(C4)C(C2)C(C3)C(C1)C(C)(C2)C(O)C1
InChI: InChI=1S/C19H32O2/c1-18-9-7-13(20)11-12(18)3-4-14-15-5-6-17(21)19(15,2)10-8-16(14)18/h12-17,20-21H,3-11H2,1-2H3/t12-,13-,14?,15?,16?,17+,18?,19?/m1/s1
Instrument: API2000
Instrument type: LC-APPI-QQ
Ms type: MS2
Ion mode: POSITIVE
Retention time: 0.820850 min
Base peak: 81.199997
Precursor m/z: 257.300000
Precursor type: [M-2H2O+H]+
m/z	relative intensity
38.599998	1
39.000000	1
39.275000	1
40.099998	1
41.093023	30
43.145000	23
44.700001	1
45.000000	1
45.200001	1
50.500000	1
50.700001	1
51.150000	1
51.799999	1
52.150000	1
53.108889	10
55.094182	429
56.781250	2
57.114705	8
58.799999	1
59.200001	1
60.900002	1
61.650000	1
62.400002	1
63.150000	1
63.400002	1
67.124811	999
69.118372	165
70.199997	1
70.800003	1
71.271429	1
74.450001	1
74.775002	1
75.099998	1
75.500000	1
77.068824	154
79.072026	757
81.115149	989
83.099334	120
84.400002	1
85.000000	1
85.400002	1
87.000000	1
87.300003	1
88.483334	1
91.077563	807
93.100451	762
95.071183	626
96.199997	1
96.978261	3
97.300003	1
97.750000	1
98.800003	1
99.149998	1
99.500000	1
100.649998	1
101.000000	1
101.300003	1
101.549999	1
101.800003	1
103.075410	42
105.058010	861
107.064526	307
109.133146	143
109.900002	1
110.199997	1
110.900002	1
111.099998	1
111.400002	1
111.599998	1
112.999997	1
114.099998	1
115.073000	11
117.107250	92
119.078113	341
121.112552	82
121.900002	1
123.041837	11
123.800003	1
124.199997	1
124.900002	1
125.099998	1
125.400002	1
125.900002	1
126.099998	1
127.099998	1
128.265515	7
129.102233	21
131.142093	96
133.143673	110
134.388456	3
135.134342	42
136.000000	1
136.199997	1
136.399994	1
136.699997	1
137.000000	1
137.399994	1
140.100006	1
140.449997	1
140.762501	1
141.100006	1
141.300003	1
143.108333	16
145.069679	79
147.122716	85
147.899999	1
148.379996	1
149.125000	22
150.100006	1
151.000000	1
151.300003	1
151.500000	1
151.699997	1
152.000000	1
152.800003	1
153.199999	1
153.800003	1
154.160001	1
155.127272	3
156.199997	1
156.699997	1
157.178824	10
157.800003	1
158.242307	3
159.145170	40
161.203415	47
162.100001	1
163.000000	1
163.199997	1
163.429996	1
163.699997	1
164.600006	1
164.849998	1
165.100006	1
165.500000	1
165.699997	1
165.899994	1
166.100006	1
167.000000	1
167.199997	1
167.449997	1
167.699997	1
168.000000	1
169.062504	1
169.316668	1
170.100006	1
171.105262	4
171.600006	1
172.199997	2
173.229033	14
174.100002	1
174.399994	1
175.094447	12
175.899994	1
176.199997	1
177.100006	1
177.449997	1
177.899994	1
178.100006	1
178.399994	1
179.399994	1
180.899994	1
182.100006	1
182.700005	1
183.300003	1
183.699997	1
183.899994	1
184.300003	1
184.737499	1
185.158334	3
186.066664	2
187.213462	12
189.299999	4
189.899994	1
190.500000	1
190.800003	1
191.199997	1
192.000000	1
192.300003	1
193.000000	1
194.849998	1
195.250000	1
195.500000	1
195.800003	1
196.500000	1
196.699997	1
197.166667	1
198.000000	1
198.399994	1
199.399994	2
200.009998	2
201.177967	14
202.100006	2
202.325001	1
203.075005	1
207.800003	1
211.199997	1
211.399994	1
212.899994	1
213.100006	1
214.037502	1
214.300003	1
215.184620	1
216.000000	1
216.600006	1
217.699997	1
217.899994	1
223.899994	1
224.100006	1
225.100006	1
225.300003	1
226.146874	7
227.161540	6
228.129730	17
228.944441	2
229.416662	1
229.699997	1
231.199997	1
231.399994	1
236.699997	1
237.199997	1
237.399994	1
238.100006	1
238.724998	1
239.137503	2
239.500000	1
239.800003	1
240.000000	1
240.199997	1
240.399994	1
240.699997	1
241.228572	1
241.899994	1
242.199997	1
242.449997	1
242.699997	1
253.199997	1
254.983332	1
255.399994	1
255.699997	1
255.899994	1
256.349991	1
257.299988	1
257.562504	1
257.799988	1
