Mass spectrum: Stigmasterol; LC-APPI-QQ; MS2; CE:60 V; [M-H2O+H]+
Name: Stigmasterol
Class: Natural Product; Sterol
Formula: C29H48O
Exact mass: 412.37052
SMILES: C(C4)C(C(CC4O)=3)(C(C(CC3)2)CCC(C21)(C(CC1)C(C)C=CC(C(C)C)CC)C)C
InChI: InChI=1S/C29H48O/c1-7-21(19(2)3)9-8-20(4)25-12-13-26-24-11-10-22-18-23(30)14-16-28(22,5)27(24)15-17-29(25,26)6/h8-10,19-21,23-27,30H,7,11-18H2,1-6H3/b9-8+/t20?,21?,23-,24?,25?,26?,27?,28?,29?/m0/s1
Instrument: API2000
Instrument type: LC-APPI-QQ
Ms type: MS2
Ion mode: POSITIVE
Retention time: 0.820883 min
Base peak: 105.099998
Precursor m/z: 395.500000
Precursor type: [M-H2O+H]+
m/z	relative intensity
37.950001	1
38.400002	1
39.200001	1
39.900002	1
40.200001	1
41.088680	28
43.106789	203
44.200001	1
44.500000	1
49.799999	1
50.500000	1
50.900002	1
51.200001	1
51.500000	1
52.000000	1
53.215385	7
53.599998	2
55.092762	477
57.144522	267
57.900002	1
62.700001	1
63.200001	1
63.700001	1
64.000000	1
64.400002	1
64.775002	2
67.108014	451
69.092260	597
71.129858	112
72.199997	1
72.500000	1
73.500000	1
75.599998	1
77.071605	43
79.042450	410
81.128344	999
83.136986	427
85.131730	28
86.149998	1
87.400002	1
88.350002	1
88.599998	1
88.900002	1
89.199997	1
91.054934	361
93.120583	684
95.065851	890
95.900002	2
97.157647	45
97.800003	1
98.000000	1
98.350002	1
99.149998	1
101.699997	1
102.577777	2
103.143750	8
105.083843	713
107.065968	431
109.127965	363
110.400002	1
111.066666	3
111.699997	1
113.750000	1
114.049999	1
114.500000	1
115.031819	12
117.084565	122
119.106579	384
121.130649	205
123.098975	52
123.900002	1
125.199997	1
126.300003	1
126.500000	1
126.900002	2
129.127272	76
131.165808	237
133.140538	227
135.156530	130
135.899994	1
136.199997	1
136.699997	1
137.118754	4
141.313891	10
143.107838	98
145.123469	312
146.006251	8
147.142416	224
149.214198	43
150.399994	1
150.699997	1
151.050003	1
151.600006	1
151.899994	1
152.300003	1
153.000000	1
153.399994	1
153.899994	1
154.199997	1
155.000000	6
157.204601	87
159.147222	239
161.161023	135
161.949997	1
162.199997	1
163.108004	7
163.899994	1
164.100006	1
164.800003	1
165.150002	1
165.500000	1
165.899994	1
166.300003	1
166.600001	1
166.899994	1
167.200002	2
168.180002	3
169.107690	14
170.189192	10
171.094233	55
173.192905	120
173.899994	2
174.100006	2
175.159016	32
176.600001	1
177.233332	3
177.600006	1
178.100006	1
178.399994	1
179.550003	1
180.500000	1
180.800003	1
181.300003	1
181.500000	1
181.899994	1
182.199997	1
182.399994	2
183.184212	10
184.293333	8
185.205202	66
187.168751	64
187.949997	1
189.236364	12
190.300003	1
190.849998	1
191.399994	1
193.449997	1
194.699997	1
194.949997	1
195.199997	1
195.500000	1
195.800003	1
196.325001	1
197.162500	21
198.500000	5
199.189427	60
200.000000	5
201.194690	60
202.199997	1
202.399994	1
202.600006	1
203.125004	2
203.500000	1
204.399994	1
205.000000	1
205.399999	1
205.699997	1
209.100006	1
209.399994	1
209.949997	1
211.240000	13
212.151282	10
213.263101	50
214.290475	6
215.146478	19
216.849998	1
217.199997	1
217.500000	1
217.800003	1
219.100006	1
219.300003	1
220.399994	1
221.050003	1
222.300003	1
222.849998	1
223.199997	1
223.399994	1
224.500000	1
225.112902	8
225.800003	1
226.279996	3
227.271428	15
227.974998	1
228.199997	1
228.899994	2
229.252942	5
230.199997	1
230.899994	1
231.100006	1
231.500000	1
232.800003	1
233.300003	1
235.300003	1
236.000000	1
237.899994	1
238.300003	1
238.500000	1
238.699997	1
239.100006	4
240.133336	2
240.500000	1
241.199997	6
242.199997	1
242.399994	1
242.699997	1
243.000000	1
243.399999	3
245.100006	1
245.300003	1
249.300003	1
251.250000	1
251.800003	1
252.899994	1
253.335714	4
254.275002	2
254.699997	1
255.100006	3
255.473334	8
256.100006	1
256.500000	1
256.700012	1
257.000000	1
257.200012	1
257.550003	1
258.399994	1
259.500000	1
264.200012	1
265.225006	1
265.500000	1
266.000000	1
267.276188	6
268.100006	1
268.399994	1
268.799988	1
269.441663	3
270.500000	1
270.949997	1
271.399994	1
271.700012	1
273.600006	1
276.349991	1
277.899994	1
278.200012	1
279.150009	1
279.799988	1
280.200012	1
280.700012	1
281.199997	1
281.700012	1
281.949997	1
282.500000	1
282.799988	1
283.100006	1
283.349991	3
283.600006	1
284.700012	1
285.399994	1
287.000000	1
287.600006	1
289.000000	1
291.899994	1
293.100006	1
294.200012	1
294.399994	1
294.700012	1
295.000000	1
295.200012	1
295.500000	1
295.899994	1
296.299988	1
297.100006	1
297.299988	1
297.600006	1
299.449997	1
307.299988	1
308.000000	1
308.500000	1
309.550003	1
310.050003	1
310.500000	1
310.799988	1
311.050003	1
311.449997	2
311.799988	1
313.000000	1
313.500000	1
313.899994	1
321.299988	1
321.500000	1
323.100006	1
323.299988	1
324.600006	1
325.600006	1
337.000000	1
337.349991	1
339.500000	1
340.000000	1
340.200012	1
347.399994	1
348.399994	1
351.200012	1
365.250000	1
365.600006	1
365.899994	1
366.500000	1
379.299988	1
395.500000	1
395.799988	1
