Mass spectrum: Dehydroepiandrosterone; LC-APPI-QQ; MS2; CE:40 V; [M-H2O+H]+
Name: Dehydroepiandrosterone
Class: Natural Product; Steroid hormone
Formula: C19H28O2
Exact mass: 288.20893
SMILES: OC(C4)CC(=C3)C(C)(C4)C(C2)C(C3)C(C1)C(C)(C2)C(=O)C1
InChI: InChI=1S/C19H28O2/c1-18-9-7-13(20)11-12(18)3-4-14-15-5-6-17(21)19(15,2)10-8-16(14)18/h3,13-16,20H,4-11H2,1-2H3/t13-,14?,15?,16?,18?,19?/m0/s1
Instrument: API2000
Instrument type: LC-APPI-QQ
Ms type: MS2
Ion mode: POSITIVE
Retention time: 0.820900 min
Base peak: 81.000000
Precursor m/z: 271.300000
Precursor type: [M-H2O+H]+
m/z	relative intensity
39.000000	1
39.299999	1
39.975000	1
40.225000	1
41.100000	7
43.048921	50
43.799999	1
44.549999	1
45.000000	1
45.299999	1
50.400002	1
50.900002	1
51.124999	1
51.799999	1
52.000000	1
52.299999	1
52.750000	2
53.153333	5
53.500000	1
55.055983	127
55.900002	1
57.186765	12
57.599998	1
57.950001	1
58.500000	1
58.700001	1
58.900002	1
59.299999	1
62.400002	1
62.799999	1
63.000000	1
63.200001	1
63.500000	1
64.500000	1
65.137931	10
67.085441	331
69.118927	128
71.028028	52
72.000000	1
72.750000	1
73.000000	1
73.300003	1
73.699997	1
74.900002	1
75.400002	1
75.699997	1
77.056557	44
79.036370	489
81.084892	999
83.083930	167
84.199997	1
85.004546	12
86.000000	1
87.199997	1
87.900002	1
88.199997	1
88.699997	1
89.699997	3
91.041471	524
93.089228	699
95.046323	561
97.087608	628
98.599998	1
98.940001	2
99.266668	1
100.400002	1
100.900002	1
101.199997	1
101.549999	1
102.250000	1
102.994737	14
105.025550	806
107.037451	371
109.083492	228
110.183334	2
111.071134	18
112.400002	1
112.900002	1
113.199997	1
114.099998	1
115.066233	28
117.050471	192
119.041426	500
119.900002	3
121.107500	203
123.030682	64
123.850002	1
124.250000	1
124.976000	5
125.400002	1
125.900002	1
126.300003	1
129.060408	346
131.107073	466
133.105931	446
135.105870	173
136.000000	1
137.073584	29
137.800003	1
138.100006	1
138.300003	1
138.800003	1
139.199997	1
139.528573	1
139.800003	1
140.075005	4
141.093453	122
143.076192	429
145.094940	629
147.137961	412
147.899994	2
149.068091	64
151.157813	12
152.000000	1
155.084217	314
157.116207	650
159.124320	552
160.275292	15
161.109060	212
161.899994	1
162.435293	3
163.125000	30
164.300003	1
165.000000	3
165.968180	4
166.199997	2
167.133335	34
169.111914	328
171.091502	549
173.178998	188
175.157512	112
176.958333	4
177.292860	5
178.199997	1
178.399994	1
179.222221	3
181.107670	61
182.202105	138
183.144283	274
185.144352	349
186.194643	20
187.164705	92
189.221083	60
190.100006	1
190.700000	1
191.163638	2
192.000000	1
192.199997	1
192.699997	1
192.899994	1
193.300003	1
194.399994	3
195.227326	31
197.185597	488
198.238667	136
199.160534	122
201.151002	36
202.010527	3
203.187976	29
204.550003	1
205.166667	1
205.699997	1
206.899999	1
207.250000	1
207.550003	1
208.199997	2
209.163196	52
211.163464	267
213.209554	682
214.564710	6
215.204045	63
215.899994	1
216.287502	1
216.825001	1
217.237499	1
219.800003	1
220.000000	1
220.199997	1
220.550003	1
220.800003	1
221.100006	1
221.399994	1
221.924999	1
223.165237	76
224.249761	38
225.207528	77
227.264908	89
228.508696	4
229.246357	27
230.025002	1
230.600006	1
231.800003	1
234.899994	1
235.300003	1
235.699997	1
235.899994	1
236.399994	1
237.199997	3
238.281967	88
239.030002	2
240.233332	1
241.251899	71
243.232000	18
249.199997	1
249.399994	1
251.017392	4
251.423076	5
252.346149	2
253.306834	360
254.100006	1
254.349998	1
255.394872	7
256.279893	101
268.899994	1
269.269995	2
269.650009	1
269.899994	1
270.449997	3
271.302508	231
272.399994	1
273.600006	1
