Mass spectrum: 3mPFOS; LC-ESI-QQ; MS2; CE50eV
Name: 3mPFOS
Class: Non-Natural Product
Formula: C8HF17O3S
Exact mass: 499.93749
SMILES: FC(F)(F)C(F)(F)C(F)(F)C(F)(F)C(F)(C(F)(F)F)C(F)(F)C(F)(F)S(O)(=O)=O
InChI: InChI=1S/C8HF17O3S/c9-1(6(18,19)20,3(12,13)8(24,25)29(26,27)28)2(10,11)4(14,15)5(16,17)7(21,22)23/h(H,26,27,28)
Instrument: Xevo TQ, Waters
Instrument type: LC-ESI-QQ
Ms type: MS2
Ion mode: NEGATIVE
Collision energy: 50eV
Retention time: 14.960700 min
Base peak: 79.708176
Precursor m/z: 498.9
Precursor type: [M-H]-
m/z	relative intensity
68.865815	184
79.863981	911
83.010253	406
98.667440	677
118.688522	103
129.877792	999
169.263893	105
260.571812	238
280.014165	130
354.737251	200
411.279592	39
489.181662	31
