Mass spectrum: Brassicasterol; LC-APPI-QQ; MS2; CE:30 V; [M-H2O+H]+
Name: Brassicasterol
Class: Natural Product; Sterol
Formula: C28H46O
Exact mass: 398.35487
SMILES: C(C(C=CC(C)C(C4)C(C3C4)(C)CCC(C13)C(C2)(C(CC(C2)O)=CC1)C)C)(C)C
InChI: InChI=1S/C28H46O/c1-18(2)19(3)7-8-20(4)24-11-12-25-23-10-9-21-17-22(29)13-15-27(21,5)26(23)14-16-28(24,25)6/h7-9,18-20,22-26,29H,10-17H2,1-6H3/b8-7+/t19?,20?,22-,23?,24?,25?,26?,27?,28?/m0/s1
Instrument: API2000
Instrument type: LC-APPI-QQ
Ms type: MS2
Ion mode: POSITIVE
Retention time: 0.820833 min
Base peak: 381.600006
Precursor m/z: 381.400000
Precursor type: [M-H2O+H]+
m/z	relative intensity
39.099998	1
40.700001	1
41.033333	1
42.400000	1
42.978572	1
43.599998	1
53.400002	1
53.799999	1
54.200001	1
55.127586	3
55.900002	1
57.058947	18
58.000000	1
64.699997	1
65.099998	1
65.500000	1
65.850002	1
66.099998	1
67.101665	6
69.084861	116
70.240001	1
71.113499	9
72.099998	1
72.400002	1
72.800003	1
73.300003	1
75.599998	1
76.300003	1
76.500000	1
76.875001	1
77.224998	1
77.800001	1
78.974360	4
79.781818	1
81.086480	58
83.100176	54
85.070114	8
87.000000	1
89.400002	1
89.800003	1
90.124998	1
90.400002	1
91.016981	5
91.875002	1
93.063780	18
95.035061	93
97.064045	30
97.900002	1
98.400002	1
98.800002	1
99.260001	1
101.599998	1
102.099998	1
102.400002	1
103.266665	1
103.599998	1
105.021183	19
107.031809	47
109.072665	103
111.062528	21
112.099998	1
112.300003	1
113.150002	1
114.599998	1
114.900002	1
115.199997	1
115.599998	1
116.000000	1
116.199997	1
117.004762	2
119.085924	23
120.300003	1
121.102355	48
122.007407	1
123.063747	47
125.108553	29
126.049999	1
127.074999	1
127.950001	1
128.199997	1
128.399994	1
128.825001	1
130.000000	1
131.139286	13
133.106616	43
135.089096	102
137.159174	21
137.899994	1
138.100006	1
139.054545	1
140.699997	1
141.100006	1
141.699997	1
142.199997	1
142.449997	1
143.058463	3
143.879996	1
145.087089	40
147.125062	135
149.107950	106
149.900003	1
151.152831	10
151.800003	1
152.100006	1
152.500000	1
152.899997	1
153.199997	1
153.500000	1
155.133336	1
155.500000	1
155.750000	1
156.100006	1
157.150411	6
159.102351	109
161.095694	179
163.138655	62
164.081818	1
165.152451	13
166.199997	1
166.899994	1
167.100006	1
167.849998	1
168.399994	1
168.699997	1
169.224998	1
169.500000	1
170.300003	1
171.055139	5
171.699997	1
171.899994	1
173.141741	85
174.037502	1
175.114412	65
177.209275	33
178.000000	1
178.300003	1
179.285943	12
180.000000	1
180.399994	1
181.000000	1
182.699997	1
182.924995	1
183.320001	1
183.699997	1
184.000000	1
185.162500	21
187.152743	85
189.175897	74
191.122162	18
192.000000	1
192.199997	1
192.575005	1
193.194476	9
194.699997	1
195.000000	1
196.199997	1
196.399994	1
197.049999	1
197.500000	1
197.800003	1
198.316667	1
199.180815	40
201.155731	114
203.183498	58
204.000000	1
204.300003	1
205.228686	12
205.899994	1
206.199997	1
207.164487	5
208.199997	1
208.899994	1
209.500000	1
211.000000	1
211.199997	1
211.399994	1
212.000000	1
213.180851	54
215.177611	108
216.469998	1
217.197464	34
219.229851	19
220.399999	1
221.194535	9
222.000000	1
222.800003	1
223.199997	1
223.600006	1
224.000000	1
224.600006	1
225.299998	1
225.800003	1
227.208574	44
228.191671	1
229.198348	46
229.899994	1
230.487499	1
231.219028	23
232.100006	1
232.500000	1
233.252702	21
235.163638	1
235.600006	1
235.899994	1
237.250000	1
237.600006	1
239.031249	2
239.488235	1
240.083338	1
241.286003	85
243.326634	19
244.150002	1
244.500000	1
245.295968	24
246.500000	1
247.306406	13
249.000000	1
249.450005	1
250.899994	1
251.300003	1
251.600006	1
252.854998	1
253.174999	1
255.269827	110
256.225805	1
257.300378	25
258.200012	1
258.566671	1
259.331192	21
260.299988	1
261.330775	1
264.200012	1
265.150009	1
265.399994	1
265.600006	1
267.166667	1
267.600006	1
268.000000	1
268.374996	1
269.273098	35
271.276096	52
273.382921	19
274.250000	1
275.299998	1
275.625008	1
278.200012	1
278.899994	1
279.399994	1
279.600006	1
280.100006	1
281.337490	1
282.190012	1
282.456247	1
283.287391	44
284.399994	1
285.354479	26
286.324989	1
287.323081	2
287.899994	1
289.100006	1
289.500000	1
290.600006	1
292.100006	1
293.299994	1
293.600006	1
294.399994	1
295.175003	1
295.699992	1
297.318933	170
299.330642	40
300.250000	1
301.500000	1
305.899994	1
306.899994	1
308.000000	1
309.100006	1
309.600006	1
310.100006	1
311.326008	57
312.200012	1
312.399994	1
312.700012	1
313.413332	2
314.899994	1
315.299988	1
315.600006	1
319.799988	1
320.500000	1
321.399994	1
321.700012	1
322.799988	1
323.200012	1
323.500000	1
323.799988	1
324.100006	1
324.399994	1
325.371472	15
326.200012	1
327.200012	1
327.600006	1
331.100006	1
337.149999	1
337.899994	1
338.500000	1
339.420650	4
340.200012	1
345.500000	1
348.000000	1
348.899994	1
349.299998	1
350.200012	1
350.700012	1
350.899994	1
351.100006	1
351.299988	1
352.200012	1
352.700012	1
353.322211	1
363.299988	1
363.799988	1
365.000000	1
365.200012	1
365.799988	1
366.417500	2
366.899994	1
373.399994	1
376.200012	1
376.700012	1
378.750000	1
379.170010	1
379.562504	1
380.100006	1
380.299988	1
381.408423	999
382.600006	1
388.100006	1
