Mass spectrum: Ergosterol; LC-APPI-QQ; MS2; CE:60 V; [M-H2O+H]+
Name: Ergosterol
Class: Natural Product; Sterol
Formula: C28H44O
Exact mass: 396.33922
SMILES: C(C(C=CC(C)C(C4)C(C3C4)(C)CCC(C=13)C(C2)(C(CC(C2)O)=CC1)C)C)(C)C
InChI: InChI=1S/C28H44O/c1-18(2)19(3)7-8-20(4)24-11-12-25-23-10-9-21-17-22(29)13-15-27(21,5)26(23)14-16-28(24,25)6/h7-10,18-20,22,24-26,29H,11-17H2,1-6H3/b8-7+/t19?,20?,22-,24?,25?,26?,27?,28?/m0/s1
Instrument: API2000
Instrument type: LC-APPI-QQ
Ms type: MS2
Ion mode: POSITIVE
Retention time: 0.820850 min
Base peak: 81.300003
Precursor m/z: 379.400000
m/z	relative intensity
38.099998	1
38.599998	1
39.099998	1
39.299999	1
39.599998	1
40.000000	1
41.157353	52
41.716667	2
43.126903	100
44.099998	1
44.299999	1
44.500000	1
49.700001	1
50.350000	1
50.700001	1
51.500000	1
52.500000	1
52.700001	1
52.960001	3
53.200001	2
54.033333	6
55.093470	273
57.146161	265
58.400002	1
59.400002	1
60.900002	1
64.000000	1
64.599998	1
65.169998	5
67.100404	252
69.120071	999
70.313639	6
71.154687	65
72.199997	1
72.400002	1
74.300001	1
75.000000	1
75.500000	1
75.699997	1
77.080303	34
79.045690	295
81.138428	589
83.127790	223
84.275002	1
85.066667	9
87.300003	1
88.400002	1
88.599998	1
89.000000	1
91.047554	333
93.108296	448
95.058295	495
96.118180	3
97.175825	23
98.199997	1
98.699997	1
98.900002	1
101.099998	1
101.300003	1
101.699997	1
101.900002	1
103.152380	5
105.045823	515
107.035318	256
109.116792	170
110.099998	1
110.500000	1
111.087499	2
111.699997	1
113.599998	1
113.800003	1
114.074999	1
115.124000	32
117.075093	136
117.699997	4
119.104136	277
121.137057	93
122.199997	1
123.076069	30
123.800003	1
125.000000	1
125.599998	1
126.099998	1
127.124998	5
127.400002	5
128.123430	89
129.111008	136
131.153741	204
131.933329	5
133.153601	127
135.150848	30
136.399994	1
137.283335	2
137.525002	1
138.800003	1
139.300003	1
139.500000	2
139.899994	1
141.135048	54
143.099344	233
145.130001	275
146.000000	3
147.167965	85
148.339996	1
149.203446	15
150.849998	1
151.275002	1
152.100006	1
153.151728	7
154.074001	25
155.107672	96
156.165333	38
157.147923	172
158.126119	34
159.155700	214
160.251726	7
161.228777	35
162.000000	1
163.100006	3
163.300003	2
163.500000	1
164.050003	1
164.800003	1
165.199997	3
166.699997	4
167.190475	21
169.105138	74
170.117912	17
171.121235	103
172.054549	6
172.322223	5
173.200001	55
173.899994	1
174.199997	1
175.111112	9
177.100006	1
177.449997	1
177.699997	1
178.000000	1
178.399994	1
178.750000	1
179.100006	2
179.849995	2
180.162500	2
180.500000	2
181.150757	34
182.245283	27
183.169231	93
184.215386	20
185.179184	125
186.070001	5
186.500000	1
187.142030	35
187.899994	1
188.699997	1
189.179999	3
189.600006	1
190.100006	1
191.050003	1
191.349998	1
191.699997	1
192.929996	3
193.333333	2
193.899994	1
194.472727	3
195.152830	27
196.240001	18
197.206425	91
198.353191	12
199.230000	71
200.300002	6
201.170175	29
202.000000	1
202.199997	1
202.449997	1
203.199997	1
203.500000	1
204.000000	1
204.449997	1
204.899994	1
205.100006	1
205.500000	1
206.000000	1
206.300003	1
206.800003	1
207.275002	1
208.142862	2
209.134785	18
211.170940	60
211.969998	3
212.265215	6
213.248447	41
214.500000	2
215.250001	11
216.000000	1
216.300003	1
217.000000	1
217.449997	1
218.949997	1
219.300003	1
219.949997	1
220.399994	1
220.949997	2
221.199997	2
221.600006	1
222.166665	2
222.483332	2
223.146298	14
224.195002	10
225.306105	33
226.330766	3
227.249999	14
228.000000	1
228.250000	2
229.157142	4
230.199997	1
230.600006	1
231.100006	1
231.300003	1
232.300003	1
233.199997	1
234.000000	1
234.199997	1
234.399994	1
234.849998	1
235.100006	1
235.449997	1
235.949997	2
236.457142	2
237.275257	25
238.118751	8
238.500000	1
239.258902	19
240.071429	2
240.600003	1
241.135715	7
241.800003	1
242.100006	1
242.500000	1
242.699997	1
242.899994	1
243.100006	1
243.525002	1
244.300003	1
245.250000	1
245.500000	1
245.699997	1
246.100006	1
247.600006	1
247.800003	1
249.399994	1
249.750000	1
250.000000	1
250.300003	1
251.199999	14
252.314582	12
253.238096	21
254.233332	2
254.533335	2
255.100006	1
255.399994	1
255.600006	2
255.800003	1
256.000000	1
256.399994	1
257.424995	1
258.399994	1
259.150009	1
260.899994	1
263.166677	2
264.000000	1
264.339996	1
264.700012	1
265.355999	13
266.200002	5
267.474998	4
268.000000	1
268.200012	1
268.600006	1
269.383326	2
269.600006	1
270.200012	1
270.399994	1
271.000000	1
271.349991	1
271.799988	1
272.600006	1
273.799988	1
275.399994	1
276.100006	1
276.374992	1
276.899994	1
277.200002	1
277.500000	1
277.899994	1
278.100006	1
278.349991	2
279.206249	8
280.100006	2
280.399994	1
280.700012	1
281.344440	5
281.783325	2
282.399994	1
283.000000	1
283.299988	1
283.600006	1
285.200012	1
285.449997	1
287.200012	1
289.100006	1
289.299988	1
289.799988	1
290.100006	1
290.500000	1
291.250000	2
291.899994	1
292.175011	1
292.500000	1
293.433329	5
294.250000	1
294.600006	1
295.383334	3
295.700012	1
296.299988	1
296.799988	1
297.300003	1
299.000000	1
300.100006	1
301.500000	1
301.899994	1
302.200012	1
302.399994	1
302.700012	1
303.100006	1
304.200012	1
304.399994	1
305.100006	1
305.500000	1
305.799988	1
306.250000	2
306.500000	1
307.166677	2
307.399994	1
307.700012	1
307.899994	1
308.100006	1
309.000000	1
309.322215	2
309.899994	1
310.399994	1
311.399994	1
314.200012	1
315.299988	1
315.700012	1
316.150002	1
316.899994	1
318.299988	1
319.299988	1
320.000000	1
320.500000	1
321.210010	3
322.200012	1
323.200012	1
323.600006	1
323.799988	1
325.299988	1
330.899994	1
331.600006	1
331.899994	1
333.500000	1
334.250000	1
334.600006	1
335.000000	1
335.299988	1
336.100006	1
336.299988	1
336.500000	1
345.000000	1
346.700012	1
348.200012	1
348.700012	1
349.299988	1
349.600006	1
349.899994	1
351.399994	1
351.899994	1
361.100006	1
361.600006	1
364.500000	1
377.750000	1
379.300003	1
379.600006	1
