Mass spectrum: Dehydroepiandrosterone; LC-APPI-QQ; MS2; CE:30 V; [M-2H2O+H]+
Name: Dehydroepiandrosterone
Class: Natural Product; Steroid hormone
Formula: C19H28O2
Exact mass: 288.20893
SMILES: OC(C4)CC(=C3)C(C)(C4)C(C2)C(C3)C(C1)C(C)(C2)C(=O)C1
InChI: InChI=1S/C19H28O2/c1-18-9-7-13(20)11-12(18)3-4-14-15-5-6-17(21)19(15,2)10-8-16(14)18/h3,13-16,20H,4-11H2,1-2H3/t13-,14?,15?,16?,18?,19?/m0/s1
Instrument: API2000
Instrument type: LC-APPI-QQ
Ms type: MS2
Ion mode: POSITIVE
Retention time: 0.820850 min
Base peak: 197.300003
Precursor m/z: 253.300000
Precursor type: [M-2H2O+H]+
m/z	relative intensity
40.000000	1
40.200001	1
40.400002	1
40.799999	1
41.087500	1
41.700001	1
42.299999	1
43.200001	1
50.700001	1
51.099998	1
51.299999	1
52.599998	1
52.950001	1
53.300001	1
53.599998	1
53.799999	1
54.099998	1
55.083758	11
56.870001	1
58.200001	1
58.900002	1
59.500000	1
61.400002	1
63.700001	1
64.300003	1
65.000000	1
67.086398	41
69.064265	23
70.000000	1
70.300003	1
70.599998	1
70.900002	1
71.174999	1
71.750000	1
72.099998	1
72.900002	1
73.099998	1
73.400002	1
74.900002	1
75.300003	1
75.699997	1
76.049999	1
77.043333	2
79.057421	39
81.088696	173
83.102550	24
84.199997	1
84.500000	1
84.900001	1
85.271429	1
87.900002	1
88.300003	1
88.599998	1
88.800003	1
89.300003	1
89.900002	1
91.026967	57
93.079374	97
94.000000	1
95.053660	62
97.101961	3
99.199997	1
101.049999	1
103.433334	1
105.017401	96
107.045455	67
109.064314	53
109.900002	1
110.400002	1
110.800003	1
111.200000	1
111.599998	1
112.300003	1
113.199997	1
113.500000	1
113.750000	1
115.086791	4
117.065354	30
117.790002	1
119.046747	37
121.077942	65
123.042754	14
124.199997	1
124.500000	1
125.099998	1
125.800003	1
126.099998	1
129.051224	75
131.092371	66
133.099693	44
135.088044	25
135.800003	1
136.999997	1
137.399994	1
138.100006	1
138.500000	1
139.100006	1
139.399994	1
139.899994	1
141.108073	45
143.073241	181
145.074625	155
147.127562	87
149.128258	25
149.899994	1
150.699997	1
151.150002	1
151.500000	1
152.316666	1
153.033663	3
155.064765	89
157.127447	258
159.105235	125
161.118989	17
162.110005	1
162.399994	1
162.600006	1
163.100006	1
163.300003	1
163.550003	1
163.899994	1
164.199997	1
164.800003	1
165.000000	1
165.199997	1
165.431246	1
165.807141	1
167.112638	12
169.082320	91
171.077626	175
173.162975	43
174.000000	1
174.399994	1
175.191804	2
176.300003	1
176.899994	1
177.199997	1
177.600006	1
177.939999	1
178.300003	1
179.029631	1
181.166087	16
183.144338	192
185.135599	101
187.151165	32
188.099998	1
188.800003	1
190.100006	1
190.899994	1
191.100006	1
192.100006	1
193.105000	1
195.134537	13
197.181566	844
199.157532	53
200.300003	1
203.100006	1
204.600006	1
204.800003	1
205.066671	1
206.000000	1
207.050001	1
207.500000	1
208.300003	1
209.163468	18
211.156435	165
215.500000	1
217.000000	1
218.150002	1
218.399994	1
219.100006	1
219.699997	1
219.899994	1
220.199997	1
220.533335	1
221.147619	1
223.212824	25
224.186630	26
225.201002	61
234.699997	1
234.899994	1
235.600006	1
236.235716	1
238.259545	54
239.100006	1
239.399994	1
246.500000	1
247.800003	1
249.000000	1
249.399994	1
249.800003	1
250.199997	1
250.399994	1
251.223750	5
253.301468	999
255.100006	1
279.500000	1
