Mass spectrum: 33FTA; LC-ESI-QQ; MS2; CE40; [M-H]-
Name: 33FTA
Name: 33Fluorotelomer Acid
Name: 4,4,5,5,6,6,6-Heptafluorohexanoic acid
Class: Non-Natural Product
Formula: C6H5F7O2
Exact mass: 242.01778
SMILES: OC(=O)CCC(F)(F)C(F)(F)C(F)(F)F
InChI: InChI=1S/C6H5F7O2/c7-4(8,2-1-3(14)15)5(9,10)6(11,12)13/h1-2H2,(H,14,15)
Instrument: Xevo TQ MS (Waters)
Instrument type: LC-ESI-QQ
Ms type: MS2
Ion mode: NEGATIVE
Collision energy: 40
Retention time: 0.016833
Base peak: 117.184921
Precursor m/z: 241
Precursor type: [M-H]-
m/z	relative intensity
63.003811	45
66.970528	22
104.926620	16
116.966537	999
130.327972	15
131.018982	52
133.026840	57
137.063797	100
