Mass spectrum: Dehydroepiandrosterone; LC-APPI-QQ; MS2; CE:10 V; [M-H2O+H]+
Name: Dehydroepiandrosterone
Class: Natural Product; Steroid hormone
Formula: C19H28O2
Exact mass: 288.20893
SMILES: OC(C4)CC(=C3)C(C)(C4)C(C2)C(C3)C(C1)C(C)(C2)C(=O)C1
InChI: InChI=1S/C19H28O2/c1-18-9-7-13(20)11-12(18)3-4-14-15-5-6-17(21)19(15,2)10-8-16(14)18/h3,13-16,20H,4-11H2,1-2H3/t13-,14?,15?,16?,18?,19?/m0/s1
Instrument: API2000
Instrument type: LC-APPI-QQ
Ms type: MS2
Ion mode: POSITIVE
Retention time: 0.820850 min
Base peak: 271.299988
Precursor m/z: 271.300000
Precursor type: [M-H2O+H]+
m/z	relative intensity
55.299999	1
56.599998	1
63.000000	1
69.199997	1
69.599998	1
77.000000	1
78.900002	1
79.199997	1
80.875002	1
81.099998	1
81.950001	1
82.900000	1
83.300003	1
84.928573	1
86.800003	1
89.099998	1
91.099998	1
92.900002	1
93.099998	1
94.049999	1
94.400002	1
94.960001	1
96.099998	1
97.092500	1
98.599998	1
98.800003	1
99.300003	1
99.800003	1
105.055555	1
105.699997	1
106.500000	1
106.881820	1
107.199997	1
107.800003	1
108.199997	1
109.206667	1
110.199997	1
110.500000	1
111.233332	1
112.549999	1
114.699997	1
116.599998	1
117.125000	1
118.199997	1
119.049999	1
119.375002	1
120.425001	1
121.053030	1
122.400002	1
122.957144	1
123.199997	1
123.400002	1
124.775002	1
125.300003	1
126.699997	1
127.099998	1
127.800003	1
128.949997	1
129.500000	1
130.399994	1
131.025002	1
131.949997	1
132.199997	1
133.190910	1
134.100006	1
135.060867	1
136.988885	1
137.399994	1
138.699997	1
138.899994	1
139.160004	1
141.000000	1
141.349998	1
142.000000	1
142.428569	1
142.995000	1
143.899994	1
145.117505	1
145.699997	1
146.000000	1
147.107144	1
148.300003	1
149.311540	1
149.899994	1
150.250000	1
151.129631	1
152.800003	1
153.100001	1
153.800003	1
154.944443	1
155.239999	1
156.000000	1
157.073719	2
157.800003	1
158.199997	1
159.036585	2
160.100006	1
161.109836	1
161.899994	1
162.625004	1
163.129630	1
165.300003	1
167.800003	1
169.100006	1
169.399994	1
171.068626	2
171.899994	1
173.242666	1
174.100006	1
175.124138	4
176.957140	1
177.299998	1
177.600006	1
179.199997	1
179.399994	1
180.849998	1
182.000000	1
182.349998	1
183.174578	1
185.129509	1
186.300003	1
187.131580	1
188.199997	1
189.135150	4
190.899994	1
191.233332	1
191.699997	1
192.800003	1
195.500000	1
195.800003	1
196.025002	1
197.203113	6
198.300003	1
199.061906	1
201.192855	1
201.399994	1
202.000000	1
202.500000	1
203.399994	1
205.046668	1
208.899999	1
209.349998	1
209.600006	1
209.899994	1
210.150002	1
211.136667	3
213.209023	35
214.100006	1
214.399994	1
215.133334	1
215.800003	1
216.150002	1
216.399994	1
217.233332	1
220.600006	1
223.150002	1
223.699997	1
224.083338	1
225.162961	1
226.100006	1
227.241734	2
228.349998	1
229.256819	1
234.899994	1
235.100006	1
235.399994	1
236.000000	1
237.500000	1
238.356248	1
239.250000	1
239.500000	1
240.600006	1
241.000000	1
241.199997	1
241.399994	1
242.000000	1
243.337838	1
250.600006	1
251.066666	1
251.437496	1
253.279839	71
254.449997	1
255.000000	1
255.300003	1
256.282978	1
257.399994	1
260.200012	1
264.899994	1
265.500000	1
265.750000	1
266.500000	1
266.750000	1
267.100006	1
267.399994	1
267.799988	1
268.100006	1
268.500000	1
268.762497	1
271.279949	999
272.949997	1
289.299988	1
289.600006	1
