Mass spectrum: Ergosterol; LC-APPI-QQ; MS
Name: Ergosterol
Class: Natural Product; Sterol
Formula: C28H44O
Exact mass: 396.33922
SMILES: C(C(C=CC(C)C(C4)C(C3C4)(C)CCC(C=13)C(C2)(C(CC(C2)O)=CC1)C)C)(C)C
InChI: InChI=1S/C28H44O/c1-18(2)19(3)7-8-20(4)24-11-12-25-23-10-9-21-17-22(29)13-15-27(21,5)26(23)14-16-28(24,25)6/h7-10,18-20,22,24-26,29H,11-17H2,1-6H3/b8-7+/t19?,20?,22-,24?,25?,26?,27?,28?/m0/s1
Instrument: API2000
Instrument type: LC-APPI-QQ
Ms type: MS
Ion mode: POSITIVE
Retention time: 0.821050 min
Base peak: 379.399994
m/z	relative intensity
151.204488	9
153.152256	9
155.118657	11
156.114394	2
157.176131	17
158.128788	6
159.169511	37
161.193612	43
163.177632	32
164.205556	4
165.173985	9
167.164285	9
169.131744	11
170.130862	5
171.134496	26
172.142595	6
173.147646	23
174.114736	5
175.135793	21
176.210257	3
177.221837	18
179.197154	20
181.147306	21
183.134049	20
184.191016	5
185.182019	27
186.128855	6
187.137379	31
188.146268	9
189.160106	19
190.089728	3
191.172502	17
192.222481	3
193.194297	26
195.186402	36
197.150598	58
198.202402	11
199.197649	56
200.217053	9
201.208090	28
202.141978	8
203.145540	18
205.138200	16
206.135154	3
207.149480	20
209.195960	26
211.180601	35
213.172132	41
214.227498	9
215.179822	27
216.181064	5
217.207292	17
219.140643	20
221.165335	15
222.132058	4
223.149447	18
225.199237	21
226.212640	5
227.207149	20
229.179996	25
231.174678	52
232.207632	13
233.206980	36
235.151797	42
237.163326	56
238.138709	14
239.198108	34
240.234018	7
241.268378	21
243.230337	33
245.177534	75
247.192177	99
249.219326	125
250.164664	33
251.187565	76
253.232687	245
255.231106	97
257.200216	30
259.202800	30
261.171109	33
263.185321	34
265.196809	27
267.189582	35
269.219429	39
271.234527	90
273.250371	31
274.243602	7
275.221649	25
277.190737	23
279.208767	28
281.264468	27
283.215515	36
285.223845	28
287.209041	21
289.290252	21
291.265863	18
293.268722	21
295.304097	135
296.360254	31
297.306035	36
299.255585	27
301.265985	18
303.312913	21
304.356295	6
305.344502	18
307.330781	17
309.364534	140
311.330627	26
313.337655	21
315.278352	16
317.273751	12
318.294428	3
319.295743	11
321.329217	13
323.325159	26
325.269674	17
327.302581	19
328.328130	5
329.268548	10
331.256868	13
333.285153	17
335.309661	25
337.356192	26
339.283476	18
341.298142	17
343.305240	11
345.279189	11
347.280187	18
349.302706	27
351.325090	41
353.364379	43
355.329469	42
357.348401	48
359.338754	49
361.326421	42
363.369576	81
365.340252	52
367.378683	82
369.406390	87
371.423964	82
373.431720	133
375.448103	180
377.396911	384
379.417751	999
380.459018	435
381.434379	208
383.436836	47
385.399971	31
387.427664	30
389.429137	49
391.445992	91
393.421259	136
394.435519	52
395.411056	98
396.487525	87
397.435434	173
398.431601	59
400.480364	7
401.426436	10
403.407378	9
405.425357	10
407.431508	15
409.414713	22
411.412207	40
412.463227	16
413.408883	14
415.407634	7
417.416504	4
418.419781	1
419.425324	4
421.439965	5
423.452355	7
425.421955	11
427.411110	13
429.406593	7
430.475093	2
431.418790	4
433.457373	3
435.485358	3
437.447296	4
439.459680	6
441.399843	6
443.404156	7
444.424745	3
445.392807	3
446.414074	1
447.469953	2
449.518534	3
451.459811	4
453.456288	4
455.475664	5
457.417215	6
459.359266	5
460.459010	2
461.376657	2
463.437533	4
465.495686	7
467.394980	6
469.499357	4
471.473948	4
472.428408	1
473.421977	3
474.359285	1
475.389653	2
477.419417	3
479.466889	6
481.517289	5
482.506382	2
483.525990	6
485.542071	15
486.531261	5
487.524953	5
489.418869	2
490.468665	1
491.386155	2
493.404603	2
495.526590	2
497.528832	3
499.535867	4
