Mass spectrum: 5mPFOS; LC-ESI-QQ; MS2; 60eV
Name: 5mPFOS
Class: Non-Natural Product
Formula: C8HF17O3S
Exact mass: 499.93749
SMILES: FC(F)(F)C(F)(F)C(F)(C(F)(F)F)C(F)(F)C(F)(F)C(F)(F)C(F)(F)S(O)(=O)=O
InChI: InChI=1S/C8HF17O3S/c9-1(6(18,19)20,3(12,13)7(21,22)23)2(10,11)4(14,15)5(16,17)8(24,25)29(26,27)28/h(H,26,27,28)
Instrument: Xevo TQ, Waters
Instrument type: LC-ESI-QQ
Ms type: MS2
Ion mode: NEGATIVE
Collision energy: 60eV
Retention time: 15.925950 min
Base peak: 79.580612
Precursor m/z: 498.9
Precursor type: [M-H]-
m/z	relative intensity
68.988394	95
79.760324	999
98.706874	321
129.667720	682
180.152133	80
229.321354	139
273.624466	31
338.901669	29
