Mass spectrum: Dihydrotestosterone; LC-APPI-QQ; MS2; CE:50 V; [M-2H2O+H]+
Name: Dihydrotestosterone
Class: Natural Product; Steroid hormone
Formula: C19H30O2
Exact mass: 290.22458
SMILES: O=C(C4)CC([H])(C3)C(C)(C4)C(C2)C(C3)C(C1)C(C)(C2)C(O)C1
InChI: InChI=1S/C19H30O2/c1-18-9-7-13(20)11-12(18)3-4-14-15-5-6-17(21)19(15,2)10-8-16(14)18/h12,14-17,21H,3-11H2,1-2H3/t12-,14?,15?,16?,17-,18?,19?/m0/s1
Instrument: API2000
Instrument type: LC-APPI-QQ
Ms type: MS2
Ion mode: POSITIVE
Retention time: 0.820867 min
Base peak: 91.000000
Precursor m/z: 255.200000
Precursor type: [M-2H2O+H]+
m/z	relative intensity
37.599998	1
39.049999	2
40.099998	1
41.100000	22
41.700001	1
41.950001	1
43.247368	13
44.400002	1
44.700001	1
45.099998	1
50.500000	1
50.799999	1
51.099998	1
51.299999	1
51.500000	1
52.000000	1
53.000000	5
53.300000	4
55.085660	180
56.539999	2
57.000000	8
57.599998	1
58.750000	1
59.250000	1
60.200001	1
62.000000	1
63.700001	1
64.400002	2
65.166664	10
67.130462	427
69.094048	86
70.099998	1
70.900002	1
71.199999	2
73.199997	1
73.500000	1
73.800003	1
74.300003	1
74.599998	1
75.450001	1
77.058298	160
79.061017	602
81.107718	609
82.071427	2
83.130357	19
84.500000	1
86.400002	1
86.649998	1
86.900002	1
87.300003	1
88.350002	1
88.750000	1
91.065075	834
93.102414	536
95.077757	367
96.049999	1
96.400002	1
96.750000	1
97.049999	3
97.500000	1
101.000000	1
101.549999	1
101.900002	1
103.065068	50
105.063544	999
107.034223	140
107.825003	1
108.099998	2
109.130729	65
112.699997	1
113.099998	1
113.839999	3
115.036272	100
117.106632	267
119.082913	311
120.099998	2
121.101639	42
121.850002	1
123.229999	3
124.500000	1
125.199999	1
125.649998	1
125.925001	1
126.400002	2
127.000000	14
128.104320	205
129.105389	328
130.200667	102
131.150203	335
133.154484	99
134.000000	1
134.300003	1
134.699997	2
135.089999	14
136.199997	1
138.050003	1
138.699997	2
138.963634	7
139.300003	4
139.674999	1
139.899994	1
141.172223	61
142.116829	140
143.087985	272
144.148849	74
145.111372	245
147.142857	76
148.100006	1
148.300003	1
148.699997	1
149.100006	2
149.600006	1
149.800003	1
150.000000	1
150.600006	1
150.800003	1
151.250000	1
151.500000	1
152.127781	6
153.205882	12
154.023078	9
155.074856	60
156.105161	53
157.171714	171
159.132726	112
161.146379	23
162.800003	1
163.199997	1
163.899994	1
164.300003	1
164.899994	3
165.260001	7
166.200005	3
167.206452	11
168.006250	5
169.080108	63
171.063335	82
172.070590	12
173.148215	38
174.449997	1
175.211110	6
175.600006	1
175.899994	1
176.100006	1
176.399994	1
177.500000	1
177.959998	2
178.899994	3
179.110005	3
180.066668	2
180.600006	1
181.131248	11
182.357141	5
183.231481	37
185.202798	85
186.018183	4
186.338462	4
187.245832	16
188.100006	1
189.349998	1
189.600006	1
190.000000	1
191.899994	1
192.199997	1
192.500000	1
192.699997	1
192.899994	1
193.199997	2
193.600006	1
194.000000	1
194.199997	2
194.699997	2
195.100006	3
195.800003	2
196.299995	3
197.195239	29
198.220001	12
198.699997	4
199.229631	55
200.126315	13
201.049997	4
204.800003	1
205.500000	1
205.899994	1
206.899994	1
207.300003	1
207.500000	1
208.000000	1
208.199997	1
208.500000	1
208.699997	1
209.199997	1
209.399994	1
209.899994	1
211.000000	4
211.299998	16
212.199997	2
213.208064	21
214.199997	1
214.399994	1
215.100006	1
218.899994	1
221.000000	1
221.500000	1
222.699997	1
222.899994	1
223.399994	1
224.016668	2
226.137501	109
227.318180	15
228.050003	1
237.000000	1
237.199997	1
237.699997	1
238.000000	1
238.600006	1
239.033335	2
239.500000	1
240.223530	6
240.600006	1
241.100006	1
251.600006	1
252.100006	1
252.600006	1
253.100006	1
254.199997	1
254.699997	2
255.313334	20
256.100006	1
