Mass spectrum: 5mPFOA; LC-ESI-QQ; MS2; CE30eV
Name: 5mPFOA
Class: Non-Natural Product
Formula: C8HF15O2
Exact mass: 413.97370
SMILES: OC(=O)C(F)(F)C(F)(F)C(F)(F)C(F)(C(F)(F)F)C(F)(F)C(F)(F)F
InChI: InChI=1S/C8HF15O2/c9-2(10,1(24)25)4(12,13)5(14,15)3(11,7(18,19)20)6(16,17)8(21,22)23/h(H,24,25)
Instrument: Xevo TQ, Waters
Instrument type: LC-ESI-QQ
Ms type: MS2
Ion mode: NEGATIVE
Collision energy: 30eV
Retention time: 15.584000 min
Base peak: 219.117996
Precursor m/z: 413
Precursor type: [M-H]-
m/z	relative intensity
78.597128	81
118.783953	646
124.657106	103
219.121206	999
407.198511	98
