Mass spectrum: 82FTA; LC-ESI-QQ; MS
Name: 82FTA
Name: 82Fluorotelomer Acid
Name: 3,3,4,4,5,5,6,6,7,7,8,8,9,9,10,10,10-Heptadecafluorodecanoic acid
Class: Non-Natural Product
Formula: C10H3F17O2
Exact mass: 477.98616
SMILES: OC(=O)CC(F)(F)C(F)(F)C(F)(F)C(F)(F)C(F)(F)C(F)(F)C(F)(F)C(F)(F)F
InChI: InChI=1S/C10H3F17O2/c11-3(12,1-2(28)29)4(13,14)5(15,16)6(17,18)7(19,20)8(21,22)9(23,24)10(25,26)27/h1H2,(H,28,29)
Instrument: Xevo TQ MS (Waters)
Instrument type: LC-ESI-QQ
Ms type: MS
Ion mode: NEGATIVE
Retention time: 0.016833
Base peak: 392.897736
Ion type: [M-H]-
m/z	relative intensity
58.858181	605
59.473560	87
61.860798	115
62.897663	99
88.318848	79
88.913055	337
92.816933	197
94.828209	123
102.896584	111
112.969551	73
116.873993	160
118.834679	70
127.009521	119
140.941727	125
146.920273	74
392.937714	999
393.979492	88
412.958527	120
476.909943	113
534.887390	898
536.962646	275
544.951477	430
