Mass spectrum: 24-Ethylepicoprostanol; LC-APPI-QQ; MS2; CE:20 V; [M-H2O+H]+
Name: 24-Ethylepicoprostanol
Class: Natural Product; Sterol
Formula: C29H52O
Exact mass: 416.40182
SMILES: [H]C(C([H])23)(CCC(C)(C4C(C)CCC(C(C)C)CC)C(CC4)3[H])C(C(CC2)1[H])(CCC(O)C1)C
InChI: InChI=1S/C29H52O/c1-7-21(19(2)3)9-8-20(4)25-12-13-26-24-11-10-22-18-23(30)14-16-28(22,5)27(24)15-17-29(25,26)6/h19-27,30H,7-18H2,1-6H3/t20-,21+,22-,23-,24+,25?,26+,27+,28+,29-/m1/s1
Instrument: API2000
Instrument type: LC-APPI-QQ
Ms type: MS2
Ion mode: POSITIVE
Retention time: 0.820833 min
Base peak: 399.399994
Precursor m/z: 399.500000
Precursor type: [M-H2O+H]+
m/z	relative intensity
37.000000	1
41.299999	1
48.700001	1
52.000000	1
53.200001	1
54.799999	1
56.983334	1
66.900002	1
67.099998	1
67.300003	1
68.716665	1
69.049999	1
69.800003	1
70.199997	1
71.057143	2
79.199997	1
80.099998	1
80.366669	1
81.008696	7
81.699997	1
82.099998	1
82.400002	1
82.878573	2
83.099998	2
83.699997	1
84.199997	1
85.184616	4
88.800003	1
90.649998	1
91.250000	1
91.699997	1
93.199997	1
94.199997	1
94.493750	2
94.965477	24
96.199997	1
97.036842	5
98.599998	1
99.159999	1
100.099998	1
100.500000	1
101.049999	1
104.800003	1
105.000000	1
105.300003	1
105.699997	1
106.149998	1
106.846156	2
107.099998	1
107.900002	1
108.099998	1
108.300003	1
109.043750	23
109.800003	1
110.000000	1
111.066666	9
112.099998	1
112.875002	1
113.099998	1
113.350002	1
114.699997	1
117.199997	1
118.099998	1
119.199997	1
120.000000	1
120.199997	1
121.122950	9
122.000000	1
122.199997	1
123.048837	12
123.800003	1
124.099998	1
124.440001	1
125.045715	10
126.800003	1
127.250000	1
127.500000	1
127.900002	1
128.699997	1
128.949997	1
129.300003	1
130.500000	1
132.300003	1
132.699997	1
132.949997	1
133.300003	1
133.699997	1
133.949997	1
135.123158	27
136.000000	1
137.131819	16
138.100001	1
139.030001	6
139.500000	1
141.000000	1
141.399994	1
143.000000	1
144.100006	1
144.949997	1
145.199997	1
146.000000	1
146.699997	1
147.184617	2
147.699997	1
147.899994	1
149.125744	29
150.000000	1
150.300003	1
151.074243	19
152.600006	1
153.000000	1
153.424995	1
155.150002	1
155.500000	1
157.000000	1
158.100006	1
158.800003	1
159.100006	1
161.147368	3
161.600006	1
161.899994	1
162.199997	1
163.123528	34
164.000000	1
165.058334	14
166.300003	1
167.000000	1
167.399994	1
167.600006	1
168.300003	1
169.300003	1
172.199997	1
173.300003	1
173.800003	1
175.150002	4
175.899994	1
176.500000	1
177.176888	32
178.399994	1
179.316390	9
180.100006	1
181.100006	1
182.199997	1
186.800003	1
187.000000	1
188.000000	1
188.300003	1
189.187500	18
190.000000	1
191.115003	9
192.199997	1
193.353335	4
195.100006	1
197.199997	1
197.500000	1
198.949997	1
199.399994	1
201.000000	1
201.199997	1
202.199997	1
202.500000	1
203.242962	19
203.899994	1
204.100006	1
205.259575	13
206.250000	1
207.100006	2
207.316668	3
209.100001	1
209.500000	1
209.800003	1
212.800003	1
213.199997	1
215.000000	1
215.199997	2
215.399994	1
215.830000	1
216.100006	1
216.450001	2
217.203128	9
218.199997	1
218.992857	2
219.362499	5
220.300003	1
221.217393	7
222.699997	1
222.899994	1
223.399994	1
225.000000	1
226.899994	1
227.300003	1
229.100006	1
229.349998	1
229.899994	1
230.224998	1
231.226414	15
232.300003	1
232.550003	1
233.123076	4
233.759998	1
234.500000	1
235.268571	20
236.100006	1
237.100006	1
237.500000	1
239.100006	1
241.300003	1
243.000000	1
243.349998	1
243.849998	1
244.250000	1
244.699997	1
245.306581	11
246.600006	1
247.330000	1
247.600006	1
248.000000	1
248.399994	1
249.000000	2
249.432433	5
251.300003	1
254.000000	1
254.874996	1
255.300003	1
255.500000	1
256.799988	1
257.299988	1
257.600006	1
258.100006	1
258.449997	1
259.247061	14
260.899994	1
261.359991	3
261.899994	1
262.700012	1
263.176924	4
263.700012	1
264.399994	1
268.100006	1
272.200012	1
272.962498	1
273.200012	1
273.609530	3
274.299988	1
275.383333	6
276.200012	1
276.550003	1
277.316655	1
277.625008	1
278.700012	1
283.200012	1
284.799988	1
285.050003	1
285.650009	1
286.500000	1
287.090482	3
288.200012	1
288.700012	1
289.383633	8
290.500000	1
290.750000	1
291.100006	1
291.600006	1
292.899994	1
293.200012	1
293.799988	1
298.200012	1
298.799988	1
299.100006	1
301.112507	3
303.431110	6
305.000000	1
305.600006	1
307.299988	1
312.000000	1
314.299988	1
314.899994	1
315.100006	1
315.299988	1
316.349991	1
316.600006	1
317.444441	3
324.500000	1
328.500000	1
329.427777	3
330.500000	1
331.150009	1
331.500000	1
339.399994	1
342.700012	1
343.200012	1
343.500000	1
344.700012	1
345.100006	1
352.500000	1
355.700002	1
356.299988	1
356.899994	1
357.399994	1
367.100006	1
367.299988	1
368.200012	1
370.299988	1
371.899994	1
381.075005	1
381.600006	1
382.899994	1
384.200012	1
384.500000	1
384.750000	1
385.600006	1
390.700012	1
393.600006	1
395.000000	1
395.600006	1
397.500000	1
398.040002	1
399.415879	999
