Mass spectrum: beta-Estradiol; LC-APPI-QQ; MS2; CE:50 V; [M-H2O+H]+
Name: beta-Estradiol
Class: Natural Product; Steroid hormone
Formula: C18H24O2
Exact mass: 272.17763
SMILES: Oc(c4)cc(C3)c(c4)C(C2)C(C3)C(C1)C(C)(C2)C(O)C1
InChI: InChI=1S/C18H24O2/c1-18-9-8-14-13-5-3-12(19)10-11(13)2-4-15(14)16(18)6-7-17(18)20/h3,5,10,14-17,19-20H,2,4,6-9H2,1H3/t14?,15?,16?,17-,18?/m0/s1
Instrument: API2000
Instrument type: LC-APPI-QQ
Ms type: MS2
Ion mode: POSITIVE
Retention time: 0.820850 min
Base peak: 133.100006
Precursor m/z: 255.000000
Precursor type: [M-H2O+H]+
m/z	relative intensity
38.500000	1
38.900002	1
39.200001	1
39.900000	1
41.090083	12
43.116271	28
43.900002	1
44.099998	1
44.900002	1
45.200001	1
50.500000	1
50.799999	1
51.200000	1
51.900002	1
52.099998	1
52.915791	4
55.086345	142
56.299999	1
56.500000	1
57.000000	1
58.700001	1
59.028571	1
61.099998	1
62.700001	1
63.049999	1
63.799999	1
65.159316	25
67.112300	578
69.120466	74
70.199997	1
70.900002	1
72.599998	1
73.000000	1
73.900002	1
75.149998	1
75.500000	1
75.699997	1
77.067526	74
77.900002	2
79.063420	184
81.120157	267
82.549999	1
82.860002	2
83.200000	2
85.000000	1
86.199997	1
86.400002	1
87.400002	1
87.599998	1
88.199997	1
88.400002	1
88.699997	1
89.199997	1
91.077368	408
93.128854	67
95.053961	218
96.400002	1
96.699997	1
97.149998	1
100.000000	1
100.699997	1
101.099998	1
101.300003	1
103.075866	77
105.050615	573
107.043492	244
109.101292	74
109.900002	1
110.099998	1
110.900002	1
111.699997	1
111.900002	1
112.099998	1
115.062086	360
116.115407	197
117.063338	58
117.699997	1
119.074468	22
121.103065	25
122.199997	1
122.599998	1
122.800003	1
123.099998	1
124.000000	1
124.800003	1
125.124998	1
127.048505	102
128.087598	25
129.089404	101
131.141513	527
133.110066	732
134.300003	1
135.175000	4
135.800003	1
136.699997	1
137.374996	1
139.181634	9
141.132511	575
144.075310	999
146.166177	6
147.166346	20
147.800003	1
148.399994	1
148.699997	1
149.100006	1
150.399994	1
151.066671	1
152.131249	6
152.822222	3
154.025002	1
155.080951	10
155.699997	1
155.899994	1
157.120173	77
159.111203	826
160.100006	1
161.050001	3
163.399994	1
163.600006	1
163.800003	1
165.143479	7
165.968419	2
166.338462	1
167.184211	4
169.037821	30
170.100006	2
171.054167	7
171.699997	1
172.125004	1
173.131251	9
174.699997	1
174.899994	1
176.500000	1
177.100006	1
177.300003	1
177.699997	1
178.125000	1
178.650002	1
179.100006	1
179.650002	1
181.149999	2
183.069230	5
184.128206	4
185.231817	2
185.500000	1
185.899994	1
186.399994	1
186.699997	1
187.100001	1
187.500000	1
188.699997	1
191.349998	1
192.199997	1
192.949997	1
193.199997	1
193.399994	1
193.700002	1
194.100006	1
194.600006	1
195.160004	2
195.600006	1
195.899994	1
196.199997	1
196.399994	1
196.974998	2
197.399994	1
197.983332	1
198.199997	1
198.600006	1
199.064286	3
200.300003	1
200.500000	1
201.600006	1
201.800003	1
203.399999	1
205.100006	1
206.300003	1
207.150002	1
208.100006	1
208.600006	1
209.000000	1
209.399994	1
209.849998	1
210.500000	1
210.937496	1
211.199997	1
211.899994	1
212.349998	1
212.650002	1
213.100006	1
213.300003	1
220.800003	1
221.100006	1
221.399994	1
222.100006	1
222.349998	1
222.799998	1
223.174999	1
223.899994	1
224.399994	1
224.699997	1
225.100006	1
225.366664	1
226.144738	4
227.000000	1
227.399994	1
232.699997	1
235.699997	1
238.699997	1
238.899994	1
239.199997	1
239.399994	1
240.500000	1
250.899994	1
251.899994	1
252.300003	1
252.500000	1
252.699997	1
252.899994	1
253.399994	1
254.000000	1
255.166667	1
255.399994	1
255.699997	1
290.500000	1
