Mass spectrum: Coprostanone; LC-APPI-QQ; MS
Name: Coprostanone
Class: Natural Product; Sterol
Formula: C27H46O
Exact mass: 386.35487
SMILES: C(C)(C1)(C(C(C)CCCC(C)C)4)C(CC4)C(C2)C(C(C)(C3)C([H])(CC(C3)=O)C2)C1
InChI: InChI=1S/C27H46O/c1-18(2)7-6-8-19(3)23-11-12-24-22-10-9-20-17-21(28)13-15-26(20,4)25(22)14-16-27(23,24)5/h18-20,22-25H,6-17H2,1-5H3/t19?,20-,22?,23?,24?,25?,26?,27?/m1/s1
Instrument: API2000, Applied
Instrument type: LC-APPI-QQ
Ms type: MS
Ion mode: POSITIVE
Retention time: 0.821067 min
Base peak: 369.500000
Ion type: [M+H]+,[M-H2O+H]+
m/z	relative intensity
201.198736	65
202.138054	15
203.156930	74
204.151872	15
205.166032	20
206.123397	4
207.184763	24
208.189066	6
209.164500	15
210.179038	6
211.165086	21
212.161712	5
213.143912	18
214.196212	7
215.199265	41
216.224783	8
217.230487	34
218.154655	10
219.181294	29
220.156421	7
221.174593	16
222.146131	5
223.139386	9
224.178237	4
225.198274	7
226.201918	2
227.229770	9
228.214906	4
229.217372	44
230.242218	10
231.181468	35
232.202550	7
233.251711	29
234.185766	7
235.164194	12
237.130781	56
238.138364	13
239.156839	10
240.192631	3
241.289268	17
242.280304	5
243.276857	112
244.291855	20
245.251223	13
247.255904	28
248.242575	7
249.242066	19
251.149959	7
252.135881	3
253.172249	6
254.149096	2
255.239171	11
256.254559	3
257.297188	41
258.273548	11
259.257518	29
260.259146	7
261.252429	19
262.246478	5
263.176762	16
264.189042	4
265.175764	5
266.117830	2
267.119145	6
268.116734	2
269.206111	7
271.232662	23
273.302155	31
275.238636	14
276.229699	4
277.181890	8
279.162119	14
280.204259	4
281.190252	5
282.142231	3
283.191305	7
284.168889	3
285.267364	20
287.295237	21
289.235248	7
291.224005	4
292.244148	2
293.218579	4
294.239458	1
295.196959	4
297.231957	6
298.217006	2
299.303295	12
301.288379	8
303.265207	5
304.276609	2
305.289726	3
306.314057	2
307.257263	3
308.246254	1
309.266615	4
310.256630	1
311.285002	6
313.364761	17
314.345819	5
315.355933	12
316.369932	7
317.337648	4
319.277652	2
320.225133	1
321.283567	2
322.256364	1
323.271665	3
325.282938	4
327.311289	7
329.352750	7
331.352067	5
332.303079	2
333.295801	3
334.276957	1
335.250251	3
336.319810	1
337.291524	3
338.296502	2
339.321565	4
341.321017	5
343.356281	5
344.380000	2
345.320976	3
346.304150	1
347.294482	3
348.279510	2
349.298465	5
351.340478	6
353.424123	15
355.429573	10
357.370838	8
359.302405	4
361.301592	4
362.307032	2
363.297927	6
365.353994	12
367.431420	73
369.478639	999
370.451878	381
375.335845	10
377.351867	8
379.373574	19
381.410043	35
383.438462	135
385.480376	238
387.500693	332
391.418487	9
392.374571	3
393.336509	3
394.319608	1
395.371280	3
397.402386	4
399.441039	13
401.506764	117
402.486844	34
404.484996	4
405.425897	3
406.352754	1
407.429798	2
408.441692	1
409.367563	2
411.375558	2
413.408490	4
415.497901	27
416.496016	7
419.458888	1
420.381913	1
421.457926	1
423.465627	1
425.353373	1
427.438995	3
428.461642	1
429.447440	1
430.343103	1
431.380562	1
433.389286	2
434.348590	1
435.467143	1
436.431770	1
437.393910	1
438.368685	1
439.431317	1
441.338889	1
442.390397	1
443.415734	1
444.448837	1
445.443544	3
447.570308	15
451.480692	1
453.445368	1
455.457693	1
457.395972	1
459.406725	1
461.428908	1
462.390696	1
463.347475	1
465.443334	1
466.442983	1
467.468278	1
468.448077	1
469.422368	1
471.469430	1
473.440718	1
475.448651	2
476.443767	1
477.469329	1
479.405607	1
481.458333	1
482.477049	1
483.444733	1
485.531447	1
486.500558	1
487.519200	1
489.478191	1
491.417024	1
492.524262	1
493.508741	1
494.417458	1
495.476042	1
496.551000	1
497.487182	1
499.495122	1
