Mass spectrum: Dihydrotestosterone; LC-APPI-QQ; MS2; CE:60 V; [M-H2O+H]+
Name: Dihydrotestosterone
Class: Natural Product; Steroid hormone
Formula: C19H30O2
Exact mass: 290.22458
SMILES: O=C(C4)CC([H])(C3)C(C)(C4)C(C2)C(C3)C(C1)C(C)(C2)C(O)C1
InChI: InChI=1S/C19H30O2/c1-18-9-7-13(20)11-12(18)3-4-14-15-5-6-17(21)19(15,2)10-8-16(14)18/h12,14-17,21H,3-11H2,1-2H3/t12-,14?,15?,16?,17-,18?,19?/m0/s1
Instrument: API2000
Instrument type: LC-APPI-QQ
Ms type: MS2
Ion mode: POSITIVE
Retention time: 0.820883 min
Base peak: 81.199997
Precursor m/z: 273.200000
Precursor type: [M-H2O+H]+
m/z	relative intensity
37.900002	1
38.799999	1
39.099998	1
39.400002	1
40.200001	3
41.131034	63
41.900002	2
43.029032	34
44.099998	1
44.700001	1
45.200001	2
50.099998	1
50.299999	1
50.799999	1
51.124999	2
52.000000	1
52.200001	1
52.500000	2
53.200000	32
55.104247	282
56.074999	2
56.433334	3
56.900002	6
57.241667	13
58.700001	1
59.000000	1
59.400002	1
62.000000	1
62.500000	1
63.000000	1
63.200001	1
63.500000	1
63.799999	1
64.000000	1
65.232727	30
66.188459	14
67.106048	522
69.067407	147
70.000000	3
71.229999	5
72.800003	1
74.250000	1
74.500000	1
74.900002	1
75.099998	1
75.400002	1
75.884617	7
77.042798	397
79.057489	876
81.123553	828
83.089131	75
83.875002	2
84.699997	1
85.000000	1
85.500000	1
86.900002	1
88.599998	3
89.099998	2
89.813334	16
91.066849	999
93.108127	550
95.128621	316
95.942858	8
97.082500	87
98.099998	1
98.699997	1
99.149998	2
99.400002	2
101.099998	1
101.599998	1
102.000000	2
103.126415	58
105.063357	604
105.978948	10
107.086702	205
108.033333	10
109.107086	138
109.975000	2
110.300003	1
110.500000	1
111.224998	4
111.699997	1
112.800003	1
113.300003	1
113.599998	1
113.800003	1
115.141379	63
115.699997	7
116.018604	23
116.300003	12
117.088421	103
119.075226	180
119.966667	7
121.088636	48
123.029946	102
124.800003	2
125.000000	1
126.000000	1
126.500000	3
129.102501	153
130.159523	69
131.153912	125
132.100006	3
132.300003	3
132.600006	3
133.209376	35
133.800003	2
134.300003	1
134.500000	1
135.054998	11
136.500000	1
136.825001	2
137.199997	1
137.500000	1
138.740002	3
139.399994	2
140.050003	2
141.120833	26
142.064367	47
143.037929	63
144.133782	40
145.152713	70
145.825001	2
146.199997	3
147.100006	8
147.399994	10
147.800003	1
148.200005	2
148.500000	1
148.699997	2
149.000000	2
149.371427	4
149.699997	1
150.100006	1
150.399994	1
150.600006	1
151.300003	2
151.800003	4
152.500000	7
153.000000	6
153.199997	3
153.800003	1
154.000000	3
154.709998	5
155.154547	24
156.022580	17
157.232499	22
157.966668	10
158.913631	12
160.349998	2
160.650002	1
161.100006	4
161.750000	1
162.000000	2
162.899994	7
163.100006	3
163.550003	1
164.100006	1
164.399994	1
165.183332	3
165.600006	1
165.849998	2
166.100006	1
166.300003	1
166.600006	1
167.300003	2
167.800003	1
168.199997	2
169.147619	11
169.674999	2
169.949997	7
171.105264	21
171.800003	1
172.150002	2
172.733332	3
173.199997	4
173.399994	4
173.699997	1
174.150002	1
175.000000	2
175.199997	2
175.759998	3
176.100006	2
176.650002	1
177.199997	2
177.399994	1
178.200002	3
178.899994	1
179.199997	2
179.699997	1
179.899994	1
180.800003	1
181.050003	1
181.399994	1
182.000000	1
182.500000	1
182.874996	2
183.166672	3
184.050003	1
184.300003	1
184.500000	1
184.800003	2
185.162502	9
186.000000	1
186.300003	1
186.766668	3
187.100003	8
187.499995	3
188.092856	15
189.225455	30
190.100006	1
190.300003	2
191.000000	1
191.250000	1
191.800003	1
192.399994	1
192.800003	1
195.199997	1
196.199997	1
196.600006	1
197.100001	2
197.449997	2
197.899994	1
198.100006	1
198.399994	1
199.114284	8
200.118754	9
200.483332	3
201.076195	11
202.075880	108
202.724998	2
203.128573	4
204.300003	1
209.000000	1
209.349998	1
211.100006	2
211.300003	2
212.299998	2
213.207407	15
214.041669	7
215.103509	124
216.699997	1
217.000000	3
217.199997	3
218.100006	1
218.300003	1
219.100006	1
223.399994	1
223.800003	1
224.199997	1
224.500000	1
224.899994	4
225.199997	3
225.899994	9
226.227273	24
227.300003	3
228.092863	8
229.133333	10
229.800003	1
230.000000	2
230.360001	3
230.699997	1
231.100006	1
237.800003	1
238.300003	1
239.240909	12
239.899994	1
240.100006	1
240.300003	1
240.500000	1
240.699997	1
241.000000	1
241.199997	2
241.399994	1
241.650002	1
242.100006	1
242.300003	2
242.500000	2
242.874996	2
243.436365	6
244.000000	1
244.199997	2
244.800003	1
245.399994	1
247.300003	1
252.500000	1
253.199997	1
253.399994	1
255.100001	2
255.449997	2
255.800003	1
256.150009	1
257.099996	3
257.700012	2
258.000000	1
258.600006	1
270.700012	1
271.000000	1
271.250000	1
271.600006	1
272.200012	1
272.600006	1
