Mass spectrum: 62FTA; LC-ESI-QQ; MS2; CE10; [M-H]-
Name: 62FTA
Name: 62Fluorotelomer Acid
Name: 3,3,4,4,5,5,6,6,7,7,8,8,8-Tridecafluorooctanoic acid
Class: Non-Natural Product
Formula: C8H3F13O2
Exact mass: 377.99255
SMILES: OC(=O)CC(F)(F)C(F)(F)C(F)(F)C(F)(F)C(F)(F)C(F)(F)F
InChI: InChI=1S/C8H3F13O2/c9-3(10,1-2(22)23)4(11,12)5(13,14)6(15,16)7(17,18)8(19,20)21/h1H2,(H,22,23)
Instrument: Xevo TQ MS (Waters)
Instrument type: LC-ESI-QQ
Ms type: MS2
Ion mode: NEGATIVE
Collision energy: 10
Retention time: 0.016817
Base peak: 292.930450
Precursor m/z: 377
Precursor type: [M-H]-
m/z	relative intensity
62.992111	399
64.679779	32
213.034393	51
265.017395	39
292.965332	999
295.169617	65
309.002075	54
313.063660	354
333.140228	73
377.070068	206
