Mass spectrum: Ergosterol; LC-APPI-QQ; MS2; CE:10 V; [M-H2O+H]+
Name: Ergosterol
Class: Natural Product; Sterol
Formula: C28H44O
Exact mass: 396.33922
SMILES: C(C(C=CC(C)C(C4)C(C3C4)(C)CCC(C=13)C(C2)(C(CC(C2)O)=CC1)C)C)(C)C
InChI: InChI=1S/C28H44O/c1-18(2)19(3)7-8-20(4)24-11-12-25-23-10-9-21-17-22(29)13-15-27(21,5)26(23)14-16-28(24,25)6/h7-10,18-20,22,24-26,29H,11-17H2,1-6H3/b8-7+/t19?,20?,22-,24?,25?,26?,27?,28?/m0/s1
Instrument: API2000
Instrument type: LC-APPI-QQ
Ms type: MS2
Ion mode: POSITIVE
Retention time: 0.820883 min
Base peak: 379.500000
Precursor m/z: 379.300000
m/z	relative intensity
57.000000	1
57.299999	1
66.750000	1
67.199997	1
68.800003	1
69.233335	1
71.099998	1
80.500000	1
80.800003	1
81.000000	1
81.350002	1
82.099998	1
82.599998	1
82.925001	1
83.300003	1
93.049999	1
94.300003	1
94.825000	1
95.224998	1
97.099998	1
97.400002	1
104.400002	1
105.000000	1
105.250000	1
107.000000	1
108.199997	1
108.500000	1
109.066666	1
109.549999	1
110.500000	1
110.699997	1
111.199997	1
116.900002	1
118.099998	1
118.300003	1
119.300003	1
119.900002	1
120.599998	1
120.900002	1
121.300003	1
121.500000	1
122.599998	1
123.099998	1
123.599998	1
123.800003	1
125.193103	5
126.599998	1
130.550003	1
130.899994	1
131.233332	1
131.699997	1
132.874996	1
133.399994	1
134.300003	1
134.800003	1
135.083338	1
135.300003	1
135.600006	1
136.800003	1
137.100006	1
137.300003	1
137.500000	1
139.399994	1
142.449997	1
142.974998	1
143.325001	1
143.600006	1
144.000000	1
144.199997	1
144.500000	1
145.084616	3
145.600006	1
145.899994	1
147.100006	1
147.300003	1
147.500000	1
148.750000	1
149.000000	1
149.399994	1
150.600006	1
151.000000	1
151.500000	1
156.399994	1
156.849998	1
157.224998	1
158.050003	1
159.233335	2
160.500000	1
161.080005	1
163.155558	1
164.699997	1
165.312502	1
169.399994	1
170.800003	1
171.140002	1
171.600006	1
172.899994	1
173.364283	1
173.699997	1
173.899994	1
174.399994	1
174.600006	1
175.040002	1
175.600006	1
176.500000	1
177.224998	1
179.449997	1
182.974998	1
184.300003	1
185.100006	1
186.740002	1
187.000000	1
187.500000	1
188.849998	1
189.100006	1
190.949997	1
191.500000	1
192.399994	1
192.800003	1
193.050003	1
193.399994	1
193.699997	1
195.300003	1
196.899994	1
197.199997	1
197.399994	1
198.550003	1
199.230435	2
200.050003	1
200.300003	1
200.699997	1
201.116002	1
202.600006	1
203.174999	1
203.399994	1
203.600006	1
204.800003	1
205.100006	1
205.399994	1
205.699997	1
207.000000	1
207.199997	1
207.399994	1
209.100006	1
210.199997	1
210.874996	1
211.137503	1
211.424995	1
212.399994	1
212.699997	1
213.000000	1
213.208331	1
214.199997	1
214.500000	1
214.985713	1
215.300003	1
215.800003	1
217.250000	1
217.600006	1
218.399994	1
218.825001	1
219.300003	1
219.500000	1
221.199997	1
224.899994	1
225.200000	1
225.899994	1
226.199997	1
226.800003	1
227.269998	1
228.300003	1
229.170000	1
229.500000	1
229.699997	1
230.600006	1
231.050003	1
231.383329	1
231.600006	1
232.899994	1
233.199997	1
233.650002	1
235.300003	1
237.699997	1
238.399994	1
239.268182	2
240.500000	1
240.800003	1
241.283335	1
241.500000	1
241.699997	1
243.000000	1
243.300003	1
244.500000	1
245.125004	1
245.399994	1
245.800003	1
247.362497	1
247.699997	1
250.199997	1
250.800003	1
252.174999	1
252.500000	1
253.285282	10
254.150002	1
255.187879	3
257.100006	1
257.399994	1
257.700002	1
259.600006	1
260.000000	1
261.399994	1
265.299988	1
266.700012	1
267.240911	1
267.500000	1
269.100006	1
269.500000	1
270.700012	1
271.337496	1
273.500000	1
273.899994	1
280.399994	1
281.274287	2
282.600006	1
283.290910	1
284.200012	1
284.600006	1
284.799988	1
285.100006	1
285.500000	1
285.700012	1
287.399994	1
287.600006	1
295.309613	9
296.500000	1
297.324997	1
299.050003	1
306.799988	1
307.449997	1
308.150009	1
308.399994	1
308.658343	1
309.348182	10
311.799988	1
319.299988	1
320.899994	1
321.299988	1
321.600006	1
323.426666	1
325.200012	1
331.000000	1
335.899994	1
336.200012	1
336.600006	1
336.949997	1
337.299988	1
338.000000	1
338.399994	1
338.650009	1
351.000000	1
351.459998	1
360.949997	1
361.299988	1
361.500000	1
363.100006	1
364.000000	1
364.550003	1
375.100006	1
376.299988	1
377.000000	1
377.200012	1
377.600006	1
379.420325	999
381.550003	1
381.899994	1
