Mass spectrum: Genistein; LC-APPI-QQ; MS
Name: Genistein
Class: Natural Product; Isoflavone
Formula: C15H10O5
Exact mass: 270.05282
SMILES: Oc(c3)ccc(c3)C(=C1)C(=O)c(c(O)2)c(cc(O)c2)O1
InChI: InChI=1S/C15H10O5/c16-9-3-1-8(2-4-9)11-7-20-13-6-10(17)5-12(18)14(13)15(11)19/h1-7,16-18H
Instrument: API2000
Instrument type: LC-APPI-QQ
Ms type: MS
Ion mode: POSITIVE
Retention time: 0.821100 min
Base peak: 271.399994
Ion type: [M+H]+
m/z	relative intensity
151.127387	3
153.114439	5
155.105312	5
156.098195	1
157.142244	4
158.124954	3
159.142532	6
161.163639	15
163.121709	9
165.125082	5
167.133344	3
169.111842	4
170.116514	2
171.130853	6
173.119936	8
174.113080	2
175.109609	8
176.159067	1
177.147818	6
178.165920	1
179.151731	6
180.195513	3
181.135670	6
183.117956	11
184.168051	3
185.131118	7
186.105627	2
187.101349	10
189.097150	14
191.131017	5
193.159741	6
195.162579	11
197.135315	27
199.144646	13
200.162037	2
201.140540	5
203.112812	12
205.104422	6
206.099281	1
207.134902	4
209.145967	5
211.149776	10
213.142474	8
214.184511	3
215.130128	10
216.145886	1
217.129456	5
219.106407	4
221.143227	4
223.139141	8
224.163574	2
225.161456	6
227.153244	6
228.200533	2
229.143295	4
231.140352	6
233.130063	4
235.118186	4
237.145990	23
239.152879	7
241.190837	5
243.180732	4
244.192217	1
245.147439	4
247.126051	5
249.124280	6
251.115092	4
252.117287	1
253.134160	3
255.164178	7
257.119499	8
258.158119	2
259.155561	4
261.120292	4
263.121837	4
265.121758	5
267.133718	3
271.111503	999
275.149627	4
277.155360	4
279.164087	7
281.177177	4
283.130891	6
285.122206	32
287.116038	9
289.206032	4
291.187390	3
293.148444	3
295.172568	2
297.218865	2
299.139831	9
301.173625	3
303.209645	2
304.272583	1
305.247191	2
307.217030	2
309.186791	2
311.228823	2
313.185689	11
315.216796	4
317.161680	3
319.216929	2
321.249012	1
323.213146	2
325.189218	2
327.179319	2
329.177432	2
331.144252	2
333.145316	1
335.209905	2
336.192764	1
337.217250	1
339.198115	2
341.221996	1
343.193358	1
345.209067	1
347.197911	1
349.164115	2
351.218711	1
353.233121	2
355.219041	1
357.226281	1
359.198798	1
361.180692	16
363.198772	2
364.234002	1
365.220704	2
367.286753	1
369.369387	1
371.326269	1
373.244389	1
375.232338	4
377.199053	30
381.265933	1
383.305968	1
385.307930	1
387.305441	1
389.299331	1
391.267828	6
393.226282	4
395.260345	1
397.278644	1
399.349807	3
