Mass spectrum: Dehydroepiandrosterone; LC-APPI-QQ; MS2; CE:20 V; [M-H2O+H]+
Name: Dehydroepiandrosterone
Class: Natural Product; Steroid hormone
Formula: C19H28O2
Exact mass: 288.20893
SMILES: OC(C4)CC(=C3)C(C)(C4)C(C2)C(C3)C(C1)C(C)(C2)C(=O)C1
InChI: InChI=1S/C19H28O2/c1-18-9-7-13(20)11-12(18)3-4-14-15-5-6-17(21)19(15,2)10-8-16(14)18/h3,13-16,20H,4-11H2,1-2H3/t13-,14?,15?,16?,18?,19?/m0/s1
Instrument: API2000
Instrument type: LC-APPI-QQ
Ms type: MS2
Ion mode: POSITIVE
Retention time: 0.820850 min
Base peak: 271.299988
Precursor m/z: 271.300000
Precursor type: [M-H2O+H]+
m/z	relative intensity
39.000000	1
40.099998	1
40.400002	1
41.250000	1
42.400002	1
42.799999	1
43.033333	1
43.500000	1
44.000000	1
44.200001	1
45.299999	1
53.299999	1
54.599998	1
55.068750	1
55.599998	1
56.750000	1
57.200000	1
59.000000	1
64.500000	1
64.900002	1
65.199997	1
65.699997	1
67.095714	1
68.000000	1
68.500000	1
69.141668	1
69.800003	1
71.061539	1
74.699997	1
76.500000	1
76.866666	1
77.300003	1
77.500000	1
77.800003	1
78.000000	1
78.500000	1
79.048889	2
79.870002	1
81.094038	21
82.199997	1
83.094649	6
84.049999	1
84.483334	1
85.072478	2
87.000000	1
89.099998	1
89.500000	1
89.900002	1
90.099998	1
91.032692	2
93.079755	6
94.293753	1
95.040681	9
97.078516	26
97.800003	1
98.224998	1
98.958334	1
102.199997	1
102.599998	1
103.000000	1
103.500000	1
104.199997	1
105.030594	8
107.012537	13
109.068489	12
111.123684	1
112.099998	1
112.400002	1
113.000000	1
114.599998	1
115.000000	1
115.199997	1
115.400002	1
115.900002	1
116.099998	1
117.087628	2
117.970000	1
119.046753	6
120.265001	1
121.073709	16
123.030882	4
123.800003	1
125.077966	2
126.800003	1
127.099998	1
127.500000	1
128.083336	1
129.081255	1
131.097126	9
132.000000	1
133.131484	12
135.080803	13
135.800003	1
137.063978	7
138.100006	1
138.300003	1
138.699997	1
138.949997	1
139.328572	1
139.800003	1
140.500000	1
141.050000	1
143.066666	6
145.085788	22
147.117043	21
147.800003	1
149.111448	11
150.000000	1
151.102162	3
152.500000	1
153.100006	1
153.300003	1
153.500000	1
153.699997	1
153.899994	1
155.052657	4
157.116487	26
158.199997	1
159.128155	34
161.101871	24
162.399994	1
163.078595	6
164.199997	1
165.186206	1
165.800003	1
166.699997	1
167.300003	1
167.866664	1
168.100006	1
168.399994	1
169.133802	5
171.083368	35
172.242859	1
173.163484	16
175.142357	47
176.000000	1
176.199997	1
177.185251	4
179.100000	1
179.399994	1
179.800003	1
180.100006	1
180.399994	1
180.775002	1
181.100006	1
181.300003	1
183.160691	12
185.130913	16
187.193040	7
189.176168	25
190.199997	1
191.166665	2
193.100006	1
193.300003	1
193.600006	1
194.100006	1
194.500000	1
194.899994	1
195.100006	1
195.300003	1
197.181621	56
198.034614	1
199.161627	6
200.321430	1
201.162128	6
201.899994	1
202.100006	1
202.399994	1
203.185881	3
204.399994	1
205.289286	1
206.000000	1
206.899999	1
207.800003	1
208.300003	1
209.216665	1
211.171184	30
213.209934	217
215.180644	10
216.199997	1
217.300003	1
217.540002	1
221.100006	1
221.300003	1
221.899994	1
222.199997	1
222.399994	1
222.924995	1
223.199997	1
225.201883	10
227.243805	15
229.210704	7
230.399994	1
235.100006	1
235.424995	1
236.000000	1
237.540002	1
238.285119	3
239.399994	1
239.600006	1
241.322223	1
242.500000	1
243.317347	7
244.100006	1
247.100006	1
249.550003	1
249.899994	1
250.300003	1
250.500000	1
250.899994	1
251.153573	1
253.291057	312
254.416662	1
255.071431	1
255.500000	1
256.279938	6
261.000000	1
266.100006	1
267.399994	1
267.799998	1
269.470586	1
271.292078	999
272.700012	1
273.299988	1
273.500000	1
279.500000	1
