Mass spectrum: 5-beta-Androstan-17-beta-ol-3-one; LC-APPI-QQ; MS2; CE:30 V; [M-H2O+H]+
Name: 5-beta-Androstan-17-beta-ol-3-one
Name: 5-beta-Dihydrotestosterone
Name: Etiocholane-17-beta-ol-3-one
Class: Natural Product; Steroid hormone
Formula: C19H30O2
Exact mass: 290.22458
SMILES: O=C(C4)CC([H])(C3)C(C)(C4)C(C2)C(C3)C(C1)C(C)(C2)C(O)C1
InChI: InChI=1S/C19H30O2/c1-18-9-7-13(20)11-12(18)3-4-14-15-5-6-17(21)19(15,2)10-8-16(14)18/h12,14-17,21H,3-11H2,1-2H3/t12-,14?,15?,16?,17+,18?,19?/m1/s1
Instrument: API2000
Instrument type: LC-APPI-QQ
Ms type: MS2
Ion mode: POSITIVE
Retention time: 0.820850 min
Base peak: 255.300003
Precursor m/z: 273.100000
Precursor type: [M-H2O+H]+
m/z	relative intensity
38.700001	1
41.049999	1
41.299999	1
42.200001	1
42.650000	1
42.966667	1
43.299999	1
43.900002	1
45.400002	1
52.900002	1
53.200001	1
54.099998	1
54.350000	1
54.599998	1
55.163636	4
55.599998	1
55.799999	1
57.241177	7
58.700001	1
59.000000	1
59.200001	1
64.850002	1
65.300003	1
66.099998	1
67.099438	36
68.000000	1
68.483334	1
69.208162	10
69.900002	1
70.099998	1
70.500000	1
70.900002	1
71.199997	1
71.500000	1
73.099998	1
73.300003	1
74.800003	1
77.000000	2
77.816669	1
79.028333	48
81.050433	139
83.131034	23
83.900002	1
84.199997	1
84.400002	1
84.926668	3
85.309524	4
87.300003	1
89.000000	1
89.699997	1
91.050000	58
93.098601	171
95.050509	236
96.000000	1
96.400002	2
97.083710	44
98.500000	1
98.925001	1
99.250000	2
99.599998	1
100.500000	1
102.400002	1
103.039999	1
103.900002	2
105.095775	142
107.046232	196
107.878573	3
109.121936	186
110.000000	2
111.192857	11
112.500000	1
112.699997	1
112.900002	1
113.099998	1
113.400002	1
113.900002	1
115.000000	1
115.300003	1
117.087179	31
117.800003	2
118.064285	3
119.080544	95
121.134596	195
123.070098	122
123.875002	1
124.099998	1
124.800003	1
125.199998	3
127.049999	1
127.800003	1
128.000000	1
128.399994	1
129.150982	10
130.200003	6
131.146530	98
133.143456	143
135.139301	188
136.199997	1
137.243809	21
137.800003	1
138.889475	4
139.400000	2
140.799998	1
141.349998	1
143.074603	25
145.115481	255
147.142405	365
149.179629	65
150.050003	1
150.995454	4
152.399999	1
152.899994	1
153.199997	1
154.000000	1
154.699997	1
155.000000	1
155.300003	1
155.600006	1
155.899994	1
156.100006	1
156.462498	2
157.123225	31
159.165180	398
161.157142	260
162.100006	3
163.190575	49
163.949997	1
164.349998	1
165.077781	5
166.199997	1
166.800003	1
167.050003	2
167.399994	1
167.800003	1
168.000000	1
168.699997	1
168.899994	1
169.100006	1
169.300003	1
169.750000	1
170.000000	1
171.105690	49
171.800003	1
172.300003	4
173.163685	223
173.899994	2
174.224998	2
175.163637	26
175.849998	1
176.199997	1
177.196397	22
178.349998	1
178.650002	1
179.183334	2
179.699997	1
179.899994	1
180.349998	1
180.800003	1
181.050003	1
181.300003	1
181.750000	1
182.125004	1
182.399994	1
182.775002	1
183.399994	1
183.750000	1
185.188112	134
187.196079	41
188.000000	1
189.203054	26
190.174999	1
191.122223	11
192.300003	1
193.300003	1
195.116671	1
196.349998	1
196.600006	1
197.016669	2
198.022224	2
199.203883	165
201.184283	102
202.077779	14
203.184785	18
203.500000	3
204.500000	1
205.100002	2
206.800003	1
207.050003	1
208.100006	1
208.750000	1
209.199997	1
209.500000	1
210.849998	1
211.279999	2
211.600006	1
212.062504	2
212.300003	2
213.243454	72
215.240490	33
216.243750	3
217.169655	29
217.899994	1
218.100006	1
218.600006	1
219.100006	1
219.300003	1
222.299998	1
224.399994	1
224.899994	1
225.333333	2
226.228571	10
227.233929	34
228.199997	3
229.226531	20
230.146668	6
231.088889	4
231.399994	1
233.100006	1
236.849998	1
237.199997	1
237.500000	1
238.100006	1
238.699997	1
239.028573	1
240.279167	10
241.177782	4
242.055557	2
242.500000	1
243.063639	2
244.050001	2
244.399994	2
244.600006	1
245.215626	38
246.500000	1
251.300003	1
252.399994	1
252.980002	2
253.500000	2
255.310551	999
256.899994	1
257.100006	1
257.399994	1
258.256755	15
262.500000	1
270.000000	1
270.200012	1
271.025002	1
271.399994	1
271.799988	1
273.302797	314
