Mass spectrum: 1,4-Androstadiene-3,17-dione; LC-APPI-QQ; MS2; CE:30 V
Name: 1,4-Androstadiene-3,17-dione
Class: Natural Product; Anabolic Steroid
Formula: C19H24O2
Exact mass: 284.17763
SMILES: O=C(C=4)C=C(C3)C(C)(C4)C([H])(C2)C([H])(C3)C([H])(C1)C(C)(C2)C(=O)C1
InChI: InChI=1S/C19H24O2/c1-18-9-7-13(20)11-12(18)3-4-14-15-5-6-17(21)19(15,2)10-8-16(14)18/h7,9,11,14-16H,3-6,8,10H2,1-2H3/t14-,15-,16-,18-,19-/m0/s1
Instrument: API2000
Instrument type: LC-APPI-QQ
Ms type: MS2
Ion mode: POSITIVE
Retention time: 0.820883 min
Base peak: 147.000000
Precursor m/z: 285.500000
Precursor type: [M+H]+
m/z	relative intensity
38.299999	1
39.099998	1
41.099998	1
41.500000	1
42.400002	1
43.043750	2
44.799999	1
45.299999	1
50.500000	1
50.799999	1
51.200001	1
52.099998	1
53.799999	1
54.250000	1
54.933334	1
55.231818	1
55.850000	1
56.299999	1
56.650000	1
56.900002	1
57.330000	1
58.950001	1
59.299999	1
62.099998	1
64.500000	1
64.724998	1
65.699997	1
65.900002	1
67.055952	9
67.900002	1
68.266668	1
68.599998	1
68.956001	1
69.199997	1
69.699997	1
69.900002	1
70.400002	1
70.926924	1
71.400002	1
72.199997	1
74.900002	1
75.300003	1
75.699997	1
77.018988	9
79.034819	19
81.095902	40
82.099998	1
82.300003	1
83.114583	3
84.000000	1
84.400002	1
85.170586	2
86.400002	1
87.199997	1
88.699997	1
89.350002	1
89.599998	1
89.800003	1
91.029887	29
93.080849	50
95.051377	45
96.000000	1
96.400002	1
97.110458	8
98.133331	1
98.500000	1
99.069230	1
99.400002	1
100.300003	1
101.599998	1
101.800003	1
103.054545	2
103.599998	1
105.069112	28
107.043460	154
109.099052	46
111.064077	6
112.300003	1
113.699997	1
114.099998	1
114.300003	1
114.549999	1
115.044446	2
115.699997	1
116.124998	1
116.400002	1
117.047143	8
119.139715	38
121.072477	999
122.199997	1
123.041667	6
123.900002	1
125.100000	4
126.500000	1
126.699997	1
127.233332	1
127.658331	1
128.057145	2
129.258334	2
130.166670	1
131.153847	8
133.151573	52
135.088499	56
136.100006	1
136.300003	1
137.054546	1
137.600006	1
138.699997	1
138.924995	1
139.300003	1
139.500000	1
140.600006	1
141.000000	1
141.300003	1
141.800003	1
142.174999	1
143.187837	4
144.013044	2
145.097163	53
147.106405	940
149.140219	5
151.131235	90
152.399994	1
152.899994	1
153.214288	1
155.152272	5
155.699997	1
159.105452	119
161.111372	28
163.121917	8
164.399994	1
165.125399	3
166.000000	1
166.199997	1
166.399994	1
167.025002	1
167.899994	1
169.167647	4
171.066075	238
173.134173	348
175.091011	10
175.800003	1
176.100006	1
176.300003	1
176.500000	1
177.211904	9
178.000000	1
178.374996	1
179.243752	2
180.000000	1
180.822223	1
181.107148	1
181.399994	1
183.120692	3
184.199997	1
185.147653	30
186.500000	1
187.146211	14
189.135185	18
190.650002	1
191.174999	1
191.500000	1
192.120001	1
193.122580	5
194.150002	1
196.160376	6
197.161733	30
199.157806	13
199.949997	1
201.131430	4
202.500000	1
202.899994	1
203.224998	1
204.750000	1
205.100006	1
205.899994	1
206.199997	1
207.129413	2
207.800003	1
208.100006	1
209.126668	2
211.160563	92
212.899994	1
213.155557	2
214.000000	1
214.399994	1
215.152728	6
216.100006	1
216.300003	1
217.060004	1
217.399994	1
217.600006	1
218.800003	1
219.025002	1
219.300003	1
219.500000	1
220.050003	1
220.424995	1
221.100006	1
221.316668	1
222.199997	1
223.226088	2
225.223372	37
226.286441	3
227.214724	18
228.100006	1
229.020691	2
230.399994	1
231.199997	1
232.399994	1
233.800003	1
234.100006	1
234.466665	1
235.100006	1
235.500000	1
235.699997	1
236.800003	1
237.150002	1
237.399994	1
238.134782	1
239.313914	12
239.949997	1
240.500000	1
241.000000	1
241.325001	1
241.600006	1
242.112000	1
243.304168	3
245.199997	1
246.899994	1
247.300003	1
247.600006	1
248.250000	1
249.100006	1
249.424995	1
250.150002	1
250.399994	1
251.200002	1
252.062499	3
253.000000	1
253.199997	1
253.399994	1
253.650002	1
255.100006	1
255.500000	1
255.849998	1
256.200012	1
257.268967	3
258.000000	1
258.600006	1
264.000000	1
265.299988	1
267.254733	194
269.500000	1
270.127280	2
282.799988	1
283.000000	1
283.399994	1
283.899994	1
284.100006	1
285.233453	60
286.650009	1
