Mass spectrum: Dehydroepiandrosterone; LC-APPI-QQ; MS2; CE:60 V; [M-H2O+H]+
Name: Dehydroepiandrosterone
Class: Natural Product; Steroid hormone
Formula: C19H28O2
Exact mass: 288.20893
SMILES: OC(C4)CC(=C3)C(C)(C4)C(C2)C(C3)C(C1)C(C)(C2)C(=O)C1
InChI: InChI=1S/C19H28O2/c1-18-9-7-13(20)11-12(18)3-4-14-15-5-6-17(21)19(15,2)10-8-16(14)18/h3,13-16,20H,4-11H2,1-2H3/t13-,14?,15?,16?,18?,19?/m0/s1
Instrument: API2000
Instrument type: LC-APPI-QQ
Ms type: MS2
Ion mode: POSITIVE
Retention time: 0.820867 min
Base peak: 91.000000
Precursor m/z: 271.300000
Precursor type: [M-H2O+H]+
m/z	relative intensity
38.700001	1
39.299999	1
39.871429	1
41.093774	51
43.088535	77
44.857143	1
49.799999	1
50.400002	1
50.799999	1
51.099998	1
51.866667	1
53.070256	19
55.080031	252
57.062963	8
57.599998	1
58.150000	1
58.500000	1
58.700001	1
58.950001	1
59.200001	1
62.299999	1
62.599998	1
62.900002	1
63.099998	1
63.730000	1
65.096892	38
67.107137	346
69.100820	72
71.047009	23
72.400002	1
73.400002	1
73.599998	1
74.025000	1
74.400002	1
75.099998	1
77.066523	297
79.043393	642
81.095399	510
83.075172	29
84.300003	1
85.316669	1
85.599998	1
86.599998	1
87.300003	1
87.549999	1
87.900002	1
88.099998	1
88.725001	2
91.056511	999
93.107356	311
95.027299	140
97.097434	123
98.500000	1
99.300003	1
99.599998	1
100.099998	1
100.599998	1
100.800003	1
101.000000	1
101.599998	1
103.077593	71
105.030567	661
107.048578	83
109.081674	25
110.033333	1
110.450001	1
110.800003	1
111.187500	2
115.086207	169
117.071283	195
119.061695	184
120.178571	3
121.082301	11
122.000000	1
122.895456	2
124.199997	1
124.400002	1
124.599998	1
124.800003	1
125.099998	1
128.086725	346
129.080148	307
130.099486	115
131.132274	158
133.139494	51
134.211109	2
135.213332	6
135.849998	1
136.100006	1
136.300003	1
136.674999	1
137.250000	1
138.100006	1
138.449997	1
141.116333	232
142.098138	191
143.098218	166
144.131905	46
145.080000	113
147.090697	25
147.800003	1
148.000000	1
148.599998	1
149.000000	1
149.288886	2
149.600006	1
150.500001	1
151.166672	2
152.126389	21
153.096583	87
155.075963	172
157.144597	100
157.984616	5
159.102528	35
159.963634	2
160.245454	2
161.082499	8
161.899994	1
162.100006	1
162.399994	1
162.699997	1
163.528573	1
164.100006	1
164.300003	1
165.115344	37
167.091594	124
169.095817	99
171.045946	40
172.164865	7
173.143104	17
174.081818	4
174.600006	1
175.141665	2
175.699997	1
176.000000	1
176.399994	1
177.100006	1
177.399994	1
179.300003	4
181.117380	81
182.221022	35
183.158427	44
185.133218	29
186.125004	1
187.130109	18
188.000000	1
188.800003	1
189.000000	1
189.300003	1
190.449997	1
191.000000	1
191.199997	1
191.399994	1
191.775002	1
192.100006	1
192.500000	1
193.359089	2
195.188618	24
196.217886	12
197.260389	30
198.133333	15
199.162653	16
200.453848	3
201.220001	3
201.500000	1
202.300003	1
202.550003	1
203.000000	1
203.199997	1
203.600001	1
204.199997	1
205.100006	1
205.399994	1
206.200005	1
206.600006	1
207.150002	1
208.046157	1
208.399994	1
208.997619	4
209.699997	1
209.899994	1
211.166233	8
212.100000	2
213.127834	19
214.100002	2
214.542860	1
214.862497	2
215.122731	2
220.300003	1
220.949997	1
221.199997	1
222.100006	1
222.359998	1
223.206173	16
224.000000	1
224.199997	1
225.133334	2
226.433329	1
227.193334	12
228.320001	1
228.600006	1
229.199997	1
235.100006	1
235.500000	1
235.800003	1
236.100006	1
236.600006	1
237.311111	2
237.799999	1
238.100006	1
238.369997	1
238.625004	1
239.157146	1
240.120001	1
241.331666	12
242.300003	1
242.500000	1
243.000000	1
243.399994	1
245.199997	1
251.300003	1
251.500000	1
252.100006	1
252.699997	1
253.000000	1
253.500000	1
253.899994	1
254.775002	1
255.100006	1
255.550003	1
255.899994	1
256.200012	1
256.399994	1
256.799988	1
269.399994	1
270.700012	1
271.200012	1
