Mass spectrum: Cholesterol; LC-APPI-QQ; MS2; CE:10 V; [M-H2O+H]+
Name: Cholesterol
Class: Natural Product; Sterol
Formula: C27H46O
Exact mass: 386.35487
SMILES: CC(C4)(C(CC(O)C4)=3)C(C2)C(CC3)C(C1)C(C)(C2)C(C(C)CCCC(C)C)C1
InChI: InChI=1S/C27H46O/c1-18(2)7-6-8-19(3)23-11-12-24-22-10-9-20-17-21(28)13-15-26(20,4)25(22)14-16-27(23,24)5/h9,18-19,21-25,28H,6-8,10-17H2,1-5H3/t19?,21-,22?,23?,24?,25?,26?,27?/m0/s1
Instrument: API2000, Applied
Instrument type: LC-APPI-QQ
Ms type: MS2
Ion mode: POSITIVE
Retention time: 0.820867 min
Base peak: 369.399994
Precursor m/z: 369.420000
Precursor type: [M-H2O+H]+
m/z	relative intensity
57.000000	1
57.299999	1
67.099998	1
69.099998	1
71.300003	1
79.500000	1
79.900002	1
80.400002	1
80.599998	1
81.025000	1
81.350002	1
81.699997	1
82.599998	1
82.900002	1
83.300003	1
84.300003	1
84.699997	1
85.000000	1
85.300003	1
91.099998	1
92.300003	1
93.000000	1
93.400002	1
94.199997	1
94.853847	1
95.800003	1
96.400002	1
97.099998	1
97.325003	1
98.900002	1
99.099998	1
99.400002	1
104.699997	1
104.900002	1
105.099998	1
106.999997	1
107.699997	1
108.450001	1
109.078570	1
110.199997	1
110.400002	1
110.925001	1
112.099998	1
112.500000	1
112.950001	1
113.199997	1
113.699997	1
116.599998	1
116.800003	1
119.000000	1
119.900002	1
120.099998	1
120.800003	1
121.138462	1
121.599998	1
122.400002	1
122.922223	1
123.300003	1
124.400002	1
124.649998	1
125.069231	1
125.500000	1
126.049999	1
126.599998	1
126.900002	1
127.099998	1
127.400002	1
130.899994	1
131.300003	1
132.666667	1
133.022224	1
133.300003	1
133.800003	1
134.000000	1
134.300003	1
135.045391	3
136.199997	1
136.674999	1
137.000000	1
138.699997	1
139.374996	1
143.100006	1
144.549999	1
145.000000	1
145.399994	1
145.800003	1
146.000000	1
147.121936	4
147.800003	1
148.250000	1
149.011363	2
150.944444	1
151.500000	1
152.500000	1
152.800003	1
153.100006	1
153.300003	1
153.500000	1
158.100006	1
158.550003	1
158.949997	1
159.300003	1
159.924995	1
161.081462	5
161.800003	1
162.100006	1
163.150001	1
164.199997	1
165.152633	1
166.800003	1
167.300003	1
170.800003	1
172.899994	1
173.199997	1
173.399994	1
173.600006	1
173.949997	1
174.399994	1
175.013253	2
176.100006	1
176.450001	1
176.899994	1
177.299999	1
177.899994	1
178.199997	1
178.399994	1
178.976923	1
179.285716	1
181.100001	1
181.399994	1
185.199997	1
186.000000	1
186.199997	1
187.258334	1
189.035137	2
191.020003	1
191.399994	1
191.800003	1
192.000000	1
193.250000	1
194.100006	1
195.399994	1
199.550003	1
201.207693	1
203.062500	3
204.100006	1
205.116666	1
207.166667	1
207.699997	1
213.100006	1
213.500000	1
213.699997	1
214.100001	1
214.500000	1
215.077142	3
216.100006	1
217.195652	1
218.250000	1
219.256452	2
221.100000	1
221.600006	1
228.399994	1
229.096553	1
230.100006	1
231.262501	1
231.500000	1
232.399994	1
233.201726	4
234.500000	1
234.838462	1
235.277778	1
240.899994	1
241.325001	1
241.600006	1
243.185937	6
245.254718	1
246.300003	1
246.500000	1
247.207352	3
248.100006	1
248.450001	1
248.899994	1
249.199997	1
249.600006	1
255.325001	1
255.899994	1
256.299994	1
257.287673	4
258.299988	1
258.500000	1
259.241316	4
261.254166	1
263.399994	1
269.399994	1
271.150005	1
272.000000	1
273.291302	3
275.000000	1
275.299988	1
276.600006	1
283.799988	1
284.600006	1
284.899994	1
285.400002	1
285.899994	1
286.299988	1
287.187500	4
287.637045	1
289.150009	1
298.000000	1
299.259998	1
299.633341	1
299.899994	1
301.250000	1
301.700012	1
303.899994	1
309.399994	1
311.200012	1
311.899994	1
313.276317	1
314.600006	1
325.600006	1
325.799988	1
326.100006	1
327.050003	1
327.349991	1
327.600006	1
328.799988	1
337.100006	1
339.200012	1
340.000000	1
340.399994	1
341.200012	1
341.600006	1
341.799988	1
351.100006	1
351.399994	1
351.600006	1
352.000000	1
354.424995	1
364.799988	1
365.399994	1
365.700012	1
366.200012	1
366.550003	1
369.368716	999
371.100006	1
371.349991	1
371.600006	1
394.600006	1
