Mass spectrum: Androsterone; LC-APPI-QQ; MS2; CE:30 V; [M-2H2O+H]+
Name: Androsterone
Class: Natural Product; Steroid hormone
Formula: C19H30O2
Exact mass: 290.22458
SMILES: OC(C4)CC([H])(C3)C(C)(C4)C(C2)C(C3)C(C1)C(C)(C2)C(=O)C1
InChI: InChI=1S/C19H30O2/c1-18-9-7-13(20)11-12(18)3-4-14-15-5-6-17(21)19(15,2)10-8-16(14)18/h12-16,20H,3-11H2,1-2H3/t12-,13+,14?,15?,16?,18?,19?/m0/s1
Instrument: API2000
Instrument type: LC-APPI-QQ
Ms type: MS2
Ion mode: POSITIVE
Retention time: 0.820867 min
Base peak: 161.100006
Precursor m/z: 255.300000
Precursor type: [M-H2O+H]+
m/z	relative intensity
40.900002	1
41.250000	1
42.799999	1
43.275000	1
51.000000	1
51.250000	1
52.250000	1
52.799999	1
53.099998	1
53.500000	1
53.900002	1
55.061165	15
56.400002	1
57.000000	1
57.253846	2
58.000000	1
58.400002	1
58.700001	1
62.799999	1
63.700001	1
64.000000	1
64.400002	1
65.000000	1
65.280000	1
66.199997	2
67.096021	82
69.059375	29
70.000000	1
70.599998	1
70.966667	1
71.400002	1
77.014285	8
77.800003	1
79.028448	103
81.100387	384
83.114785	55
84.099998	1
84.400002	1
85.000000	1
85.450001	1
87.199997	1
88.500000	1
88.800003	1
89.049999	1
89.699997	1
91.046734	177
93.086453	204
95.093489	274
97.133898	9
98.000000	1
101.199997	1
102.099998	1
102.400002	1
105.029040	272
107.060584	203
109.100000	107
110.099998	1
110.800003	1
111.283335	1
111.599998	1
114.400002	1
114.900002	1
115.099998	1
115.300003	1
117.094200	74
119.100470	126
119.810003	1
121.122665	119
121.800003	1
122.250000	2
123.050000	36
124.699997	1
124.900002	1
125.099998	1
125.300003	1
126.300003	1
126.500000	1
126.766668	1
127.199997	1
129.064546	33
131.122737	148
133.109026	104
135.118710	71
135.899994	1
136.300003	1
137.102775	5
139.050003	1
139.300003	1
140.800003	1
141.077777	1
141.399994	1
141.699997	1
143.086765	81
145.095680	447
147.154301	325
147.837500	1
148.300003	1
149.153259	52
149.899994	1
150.199997	1
151.154551	3
151.899994	1
152.825001	1
153.300003	1
153.600006	1
154.199999	1
155.172973	5
155.800003	1
157.146412	97
159.149763	375
161.125199	429
163.175000	23
164.199997	1
164.899994	1
165.199997	1
165.399994	1
165.899994	1
167.075001	1
168.000000	1
168.199997	1
169.068750	5
170.052173	7
171.106383	84
173.187267	343
174.199997	1
175.185791	56
177.252173	7
178.699997	1
179.100006	1
179.300003	1
179.500000	1
179.800003	1
180.300003	1
181.020004	1
181.799998	1
182.125004	1
182.399994	1
183.259998	6
185.159701	159
187.178413	94
188.125004	1
189.217062	63
190.899994	1
191.199997	1
192.600006	1
192.899994	1
193.199997	1
193.500000	1
193.899999	1
194.399994	1
194.977778	3
195.500000	1
195.800003	1
196.000000	1
196.250000	1
197.065383	8
199.190000	428
201.157678	83
204.699997	1
207.150002	1
207.399994	1
208.100006	1
208.300003	1
208.600006	1
209.220001	1
210.100006	1
211.107407	8
211.883329	2
213.221053	87
214.249996	2
219.300003	1
219.899994	1
221.300003	1
221.750000	1
222.100006	1
222.399994	1
222.900000	3
223.207140	2
225.399994	3
226.125002	10
227.264769	42
228.600006	1
231.100006	1
233.800003	1
235.899994	1
236.199997	1
236.600006	1
237.257143	2
238.300003	1
239.000000	1
239.800003	1
240.272816	15
247.100006	1
247.500000	1
249.699997	1
252.300003	1
252.500000	1
252.827275	2
253.452633	6
255.322054	999
256.225006	1
256.600006	1
257.100006	1
266.600006	1
