Mass spectrum: Cholestanol; LC-APPI-QQ; MS2; CE:60 V; [M-H2O+H]+
Name: Cholestanol
Class: Natural Product; Sterol
Formula: C27H48O
Exact mass: 388.37052
SMILES: C(C)(C1)(C(C(C)CCCC(C)C)4)C(CC4)C(C2)C(C(C)(C3)C([H])(CC(C3)O)C2)C1
InChI: InChI=1S/C27H48O/c1-18(2)7-6-8-19(3)23-11-12-24-22-10-9-20-17-21(28)13-15-26(20,4)25(22)14-16-27(23,24)5/h18-25,28H,6-17H2,1-5H3/t19?,20-,21-,22?,23?,24?,25?,26?,27?/m0/s1
Instrument: API2000, Applied
Instrument type: LC-APPI-QQ
Ms type: MS2
Ion mode: POSITIVE
Retention time: 0.820850 min
Base peak: 94.800003
Precursor m/z: 371.451000
Precursor type: [M-H2O+H]+
m/z	relative intensity
38.500000	1
39.049999	1
39.400002	1
39.900002	1
40.099998	1
41.135789	18
43.096532	65
44.099998	1
45.200001	1
50.000000	1
50.900002	1
51.099998	1
51.450001	1
51.750000	1
52.099998	1
53.100000	5
55.062800	360
57.136193	160
58.099998	1
58.350000	1
58.799999	1
59.100000	1
60.799999	1
61.099998	1
61.799999	1
62.400002	1
63.200001	1
64.000000	1
65.079168	9
67.087769	594
69.083388	399
71.128929	53
71.900002	1
72.300003	1
72.599998	1
72.850002	1
73.300003	1
75.099998	1
75.699997	1
75.900002	1
76.199997	1
77.010959	27
79.018701	287
81.088967	999
83.114683	169
84.300001	1
84.599998	1
85.017241	5
85.850002	1
86.199997	1
86.699997	1
87.300003	1
88.199997	1
88.400002	1
88.599998	1
88.900002	1
89.599998	1
91.030914	140
93.066593	421
95.046208	913
97.103529	32
97.950001	1
99.099998	1
101.199997	1
101.699997	1
101.900002	1
102.199997	1
102.984616	2
103.583332	1
105.004903	77
107.041744	244
109.079806	309
110.500000	1
110.783335	1
111.000000	1
111.237499	2
115.199997	1
115.699997	1
116.049999	1
116.400002	1
116.857143	3
117.269230	2
117.599998	1
118.099998	1
118.300003	1
119.049557	43
121.102128	106
121.800003	2
123.092593	46
123.750000	1
127.599998	1
128.100001	1
128.800003	1
129.000000	1
129.500000	1
129.750000	1
130.000000	1
130.300003	1
130.984211	4
131.500000	1
131.799998	1
132.160001	2
133.141959	27
135.098092	49
136.100006	1
136.399994	1
137.171795	7
139.100006	1
141.199997	1
142.199997	1
142.600006	1
142.949997	1
143.399994	1
143.800003	1
144.150002	1
145.250000	3
145.899994	1
146.125004	1
146.449997	2
147.175001	22
148.100006	1
148.349998	1
149.094230	20
149.800003	1
151.000000	1
151.349998	1
152.899994	1
154.699997	1
156.699997	1
157.000000	1
157.300003	1
157.899999	1
158.300003	1
159.333328	1
160.133331	1
161.154999	4
161.750000	1
162.100006	1
162.500000	1
163.074999	3
163.800003	1
164.800003	1
165.300003	1
168.199997	1
169.199997	1
169.800003	1
170.100006	1
170.600006	1
170.800003	1
171.100001	1
172.349998	1
173.100001	1
173.500000	1
174.100006	1
174.399994	1
174.833328	1
175.100006	1
175.333333	1
176.500000	1
177.100001	1
177.500000	1
178.800003	1
179.100006	1
179.349998	1
184.899994	1
185.100006	1
185.699997	1
186.000000	1
186.500000	1
187.100006	1
187.300003	1
188.100006	1
188.833328	1
189.500000	1
189.899994	1
190.699997	1
190.949997	1
191.300003	1
191.699997	1
193.399994	1
195.199997	1
199.500000	1
200.899994	1
201.500000	1
201.849998	1
202.300003	1
202.700002	1
203.162500	2
203.600006	1
204.000000	1
205.100006	1
207.100006	1
207.399994	1
208.899994	1
211.100006	1
212.899994	1
213.100006	1
214.100006	1
214.399994	1
215.100001	1
215.500000	1
215.949997	1
216.299998	1
216.600006	1
217.150002	1
217.449997	1
218.199997	1
218.699997	1
219.100006	1
220.199997	1
220.899994	1
222.899994	1
225.949997	1
226.600006	1
227.699997	1
229.100006	1
229.300003	1
229.600006	1
230.000000	1
230.950001	1
231.399994	1
232.500000	1
232.800003	1
233.100006	1
235.100006	1
239.349998	1
240.500000	1
241.100006	1
241.399994	1
242.199997	1
243.100006	1
243.399994	1
243.849998	1
244.100006	1
245.000000	1
245.199997	1
246.899994	1
247.399994	1
249.199997	1
250.600006	1
251.050003	1
251.699997	1
251.899994	1
253.050003	1
255.000000	1
257.299988	1
257.700012	1
258.200012	1
259.399994	1
259.600006	1
261.299988	1
261.500000	1
265.100006	1
265.399994	1
265.600006	1
267.700012	1
268.399994	1
268.799988	1
269.000000	1
270.299988	1
271.000000	1
272.100006	1
273.200012	1
274.299988	1
276.399994	1
282.399994	1
285.100006	1
285.399994	1
291.799988	1
293.299988	1
297.299988	1
300.100006	1
315.600006	1
316.399994	1
326.399994	1
326.700012	1
328.000000	1
339.899994	1
340.399994	1
341.500000	1
341.700012	1
342.000000	1
342.200012	1
343.399994	1
355.299988	1
370.100006	1
370.299988	1
