Mass spectrum: 5-beta-Androstane-3-alpha,17-beta-diol; LC-APPI-QQ; MS2; CE:20 V; [M-2H2O+H]+
Name: 5-beta-Androstane-3-alpha,17-beta-diol
Name: Etiocholane-3-alpha,17-beta-diol
Class: Natural Product; Steroid hormone
Formula: C19H32O2
Exact mass: 292.24023
SMILES: OC(C4)CC([H])(C3)C(C)(C4)C(C2)C(C3)C(C1)C(C)(C2)C(O)C1
InChI: InChI=1S/C19H32O2/c1-18-9-7-13(20)11-12(18)3-4-14-15-5-6-17(21)19(15,2)10-8-16(14)18/h12-17,20-21H,3-11H2,1-2H3/t12-,13-,14?,15?,16?,17+,18?,19?/m1/s1
Instrument: API2000
Instrument type: LC-APPI-QQ
Ms type: MS2
Ion mode: POSITIVE
Retention time: 0.820867 min
Base peak: 257.299988
Precursor m/z: 257.300000
Precursor type: [M-2H2O+H]+
m/z	relative intensity
41.199999	1
42.400002	1
42.599998	1
43.199999	1
51.400002	1
52.750000	1
53.799999	1
54.299999	1
55.135714	1
55.500000	1
56.599998	1
56.933333	1
57.500000	1
63.599998	1
65.149998	1
66.099998	1
66.986668	2
69.066872	3
70.250000	1
70.699997	1
70.900002	1
71.199999	1
76.599998	1
76.900002	1
77.224998	1
77.500000	1
77.699997	1
78.099998	1
79.070909	2
79.930770	1
81.107382	21
81.838891	1
83.111455	13
84.000000	1
84.350002	1
84.699997	1
84.900002	1
86.900002	1
88.500000	1
89.099998	1
89.300003	1
89.500000	1
89.699997	1
91.026356	2
92.099998	1
93.106604	9
95.058782	41
96.000000	1
96.535294	1
97.146667	2
97.800003	1
101.800003	1
102.500000	1
103.099998	1
103.800003	1
105.036749	10
107.049831	21
109.101538	37
110.000000	1
111.020000	2
112.400002	1
114.699997	1
115.350002	1
116.199997	1
116.883335	1
117.174998	1
119.092396	9
121.103891	35
123.071132	17
124.000000	1
125.112500	1
126.300003	1
127.199997	1
127.950001	1
128.600006	1
128.928569	1
129.300003	1
129.699997	1
130.000000	1
131.081052	2
133.141184	16
135.130330	68
136.259998	1
137.151968	2
138.849998	1
139.100006	1
140.899994	1
141.100006	1
142.199997	1
142.500000	1
143.128573	1
144.000000	1
145.098709	6
147.147047	93
149.145055	43
150.100006	1
150.449997	1
151.000000	1
151.399994	1
152.399994	1
153.000000	1
153.600006	1
154.500000	1
154.699997	1
155.100006	1
155.300003	1
156.150002	1
156.699997	1
157.024998	1
157.699997	1
159.163543	5
161.139103	101
163.199584	13
165.174999	1
165.800003	1
166.399994	1
166.800003	1
168.500000	1
168.924995	1
170.250000	1
170.771428	1
171.199997	1
171.800003	1
172.500000	1
173.187931	8
175.171873	97
176.388887	1
177.281816	1
178.000000	1
179.100006	1
179.300003	1
181.199997	1
181.849998	1
182.899994	1
183.200005	1
184.500000	1
184.926663	1
187.188469	19
189.226683	15
191.300003	1
191.500000	1
195.100006	1
195.300003	1
196.399994	1
196.699997	1
197.328574	1
197.699997	1
198.000000	1
198.199997	1
198.399994	1
199.180554	1
200.118182	1
201.167325	46
202.199997	1
202.600006	1
202.962498	1
203.600006	1
207.000000	1
209.349998	1
210.100006	1
210.899994	1
211.374996	1
213.218183	1
215.222367	8
216.199997	1
220.899994	1
221.300003	1
223.849998	1
224.100006	1
224.399994	1
225.218183	1
225.600006	1
226.600006	1
227.150002	1
227.500000	1
227.699997	1
229.273648	5
236.899994	1
238.199997	1
239.334482	1
240.100006	1
240.399994	1
241.000000	1
242.307691	1
247.800003	1
251.100006	1
251.849998	1
252.100006	1
252.500000	1
253.399994	1
253.800003	1
254.000000	1
254.399994	1
254.625004	1
257.325725	999
275.100006	1
