Mass spectrum: Androsterone; LC-APPI-QQ; MS2; CE:60 V; [M-2H2O+H]+
Name: Androsterone
Class: Natural Product; Steroid hormone
Formula: C19H30O2
Exact mass: 290.22458
SMILES: OC(C4)CC([H])(C3)C(C)(C4)C(C2)C(C3)C(C1)C(C)(C2)C(=O)C1
InChI: InChI=1S/C19H30O2/c1-18-9-7-13(20)11-12(18)3-4-14-15-5-6-17(21)19(15,2)10-8-16(14)18/h12-16,20H,3-11H2,1-2H3/t12-,13+,14?,15?,16?,18?,19?/m0/s1
Instrument: API2000
Instrument type: LC-APPI-QQ
Ms type: MS2
Ion mode: POSITIVE
Retention time: 0.820850 min
Base peak: 91.199997
Precursor m/z: 255.300000
Precursor type: [M-H2O+H]+
m/z	relative intensity
39.000000	1
39.850000	3
40.250000	3
40.878572	19
41.154166	33
41.900002	1
42.099998	1
42.299999	1
42.675000	5
43.000000	11
43.299999	8
50.099998	1
50.400002	1
50.799999	4
52.099998	3
52.799999	12
53.127272	30
54.099998	3
55.101242	221
56.200001	1
56.400002	1
56.700001	3
57.099998	3
57.350000	3
59.299999	1
61.099998	1
61.299999	3
62.799999	1
63.099998	3
63.799999	3
64.099998	1
65.058000	69
65.699997	3
66.000000	4
66.500000	18
67.120217	380
68.199997	3
68.500000	4
68.800003	14
69.173334	41
73.400002	1
74.599998	1
75.049999	3
75.400002	1
75.740001	7
77.030986	389
79.074588	830
80.099998	12
81.104978	330
81.950001	3
82.300003	1
82.900002	12
83.800003	1
88.400002	3
89.099998	4
89.599998	5
91.051715	999
91.833336	16
93.123602	221
94.237499	11
95.318185	30
95.699997	3
97.000000	1
97.400002	1
101.199999	4
101.500000	3
101.699997	1
102.425001	11
103.065218	63
105.036928	508
105.900002	4
106.599998	7
106.953334	41
107.500000	1
108.199997	1
108.500000	1
108.816669	8
109.300003	1
113.000000	1
113.199997	1
113.699997	3
114.099998	4
115.082354	140
116.144999	55
117.118253	173
118.199997	5
119.018182	121
120.099998	8
120.933334	8
121.300003	7
121.800003	3
125.099998	1
125.800003	3
126.000000	1
126.250000	3
126.985000	27
127.300003	16
128.043001	274
129.091415	271
131.060349	79
132.025002	5
132.399994	3
133.050003	16
133.500000	4
134.500000	1
134.800003	1
135.199997	1
135.399994	1
138.199997	1
138.760001	14
139.245453	15
139.924995	5
141.098809	115
142.093549	85
143.120652	126
144.110713	38
145.080001	69
146.899994	3
147.300003	3
147.500000	1
150.300003	1
150.800003	3
151.150002	5
152.100006	8
152.449997	3
153.000000	11
153.500000	4
154.000000	10
154.437496	11
155.053488	59
156.114815	37
157.210872	63
157.800003	1
158.025002	5
159.000000	11
161.100006	3
161.399994	1
163.600006	1
163.800003	1
164.100006	1
164.300003	1
165.000002	14
165.800003	1
166.199997	1
166.500000	1
166.699997	7
166.999997	8
167.899994	8
168.299997	10
169.047059	47
169.500000	5
170.099998	5
170.949997	14
171.399994	11
172.199997	1
172.399994	4
172.849998	3
173.349998	5
176.899994	3
177.549999	5
178.050003	3
178.300003	3
178.600006	1
178.899994	1
179.199997	1
179.399994	1
179.800003	1
180.300003	1
180.525002	5
180.849998	3
181.150002	5
181.800003	4
182.250000	3
182.550003	5
183.044447	12
183.899994	1
184.125004	5
184.833333	8
185.300000	14
187.399994	1
188.000000	3
189.100006	1
193.000000	1
193.399994	3
193.699997	1
194.899994	4
195.300003	1
196.800003	5
197.100006	4
197.500000	4
198.600006	1
198.800003	1
199.100006	5
199.325001	5
199.600006	1
200.050003	3
200.800003	1
201.000000	1
201.600006	1
208.800003	1
209.250000	3
209.899994	1
210.800003	1
211.000000	1
211.399994	1
213.199997	1
213.500000	1
216.600006	1
221.199997	1
222.800003	1
224.000000	4
224.250000	5
225.000000	4
225.199997	1
225.500000	4
226.000000	7
226.199997	7
226.800003	3
237.100006	1
238.800003	1
239.000000	1
239.399999	4
239.899994	1
240.300003	1
252.100006	3
252.699997	3
253.100006	1
253.399994	1
254.199997	1
297.500000	1
