Mass spectrum: Epiandrosterone; LC-APPI-QQ; MS2; CE:20 V; [M-2H2O+H]+
Name: Epiandrosterone
Name: 3-beta-Hydroxy-5alpha-androstan-17-one
Class: Natural Product; Steroid hormone
Formula: C19H30O2
Exact mass: 290.22458
SMILES: OC(C4)CC([H])(C3)C(C)(C4)C(C2)C(C3)C(C1)C(C)(C2)C(=O)C1
InChI: InChI=1S/C19H30O2/c1-18-9-7-13(20)11-12(18)3-4-14-15-5-6-17(21)19(15,2)10-8-16(14)18/h12-16,20H,3-11H2,1-2H3/t12-,13-,14?,15?,16?,18?,19?/m0/s1
Instrument: API2000
Instrument type: LC-APPI-QQ
Ms type: MS2
Ion mode: POSITIVE
Retention time: 0.820833 min
Base peak: 255.300003
Precursor m/z: 255.300000
Precursor type: [M-2H2O+H]+
m/z	relative intensity
38.500000	1
38.799999	1
39.000000	1
39.799999	1
40.700001	1
41.000000	1
41.350000	1
42.799999	1
43.250000	1
44.400002	1
51.200001	1
52.700001	1
53.175000	1
54.500000	1
55.030435	1
55.599998	1
56.500000	1
56.700001	1
59.099998	1
64.300003	1
65.000000	1
65.599998	1
66.039999	1
67.053873	3
67.900002	1
69.039623	1
70.750000	1
71.000000	1
71.300003	1
75.300003	1
76.099998	1
76.400002	1
76.800003	1
77.000000	1
77.370002	1
77.883335	1
79.008122	4
81.082747	30
83.120392	5
84.300003	1
85.199997	1
86.800003	1
87.000000	1
87.800003	1
88.199997	1
88.400002	1
89.000000	1
91.063542	10
93.123092	10
95.044322	29
96.000000	1
96.199997	1
97.118274	2
99.000000	1
99.300003	1
99.500000	1
100.199997	1
101.099998	1
101.649998	1
102.049999	1
102.400002	1
105.040856	29
107.044797	18
109.097211	15
109.950001	1
110.400002	1
111.064999	1
112.099998	1
112.900002	1
113.300003	1
114.099998	1
114.300003	1
114.962501	1
115.199997	1
117.084171	7
119.076740	10
121.100000	17
123.097920	8
124.862502	1
125.199997	1
126.599998	1
126.850002	1
127.199997	1
128.199997	1
129.055883	1
131.138058	15
133.129464	19
135.119011	16
137.147253	4
138.199997	1
138.399994	1
139.000000	1
139.300003	1
139.500000	1
140.349998	1
140.699997	1
140.899994	1
141.399994	1
141.650002	1
142.199997	1
143.082403	5
145.103235	50
147.150070	43
149.145402	12
150.199997	1
151.165143	7
152.100001	1
152.500000	1
152.699997	1
153.000000	1
153.800003	1
154.199997	1
155.000000	1
155.600006	1
157.166867	3
159.136598	49
161.131386	63
163.177078	8
164.100006	1
164.399994	1
165.000000	1
165.349998	1
166.100006	1
166.699997	1
167.000000	1
167.199997	1
167.449997	1
168.150002	1
168.899994	1
169.174999	1
169.459998	1
171.127980	10
173.196111	51
174.007693	1
175.182074	15
177.231556	5
180.300003	1
180.600006	1
180.950001	1
181.300003	1
182.100006	1
182.399994	1
183.100006	1
185.171054	28
187.167014	17
189.209390	23
190.399994	1
191.100006	1
192.000000	1
193.800003	1
194.100006	1
194.300003	1
195.012501	1
195.337500	1
195.699997	1
196.025002	1
196.600006	1
197.195831	1
199.208533	60
201.189789	41
202.800003	1
203.899994	1
207.800003	1
208.250000	1
208.800003	1
209.000000	1
209.259998	1
209.699997	1
210.100001	1
211.000000	1
211.236363	1
211.959998	1
213.225299	18
214.279999	1
216.600006	1
219.000000	1
219.199997	1
219.800003	1
222.050003	1
222.300003	1
223.239998	1
223.899994	1
224.199997	1
224.650002	1
225.033335	1
225.300003	1
226.189815	1
227.240181	9
234.750000	1
235.699997	1
236.100006	1
236.800003	1
237.000000	1
238.150002	1
239.225002	1
240.282308	1
241.199997	1
241.699997	1
247.899994	1
248.300003	1
249.500000	1
249.699997	1
250.800003	1
251.250000	1
251.899994	1
252.430772	1
253.425001	1
255.318233	999
257.200012	1
257.399994	1
257.600006	1
271.799988	1
