Mass spectrum: Coprostanone; LC-APPI-QQ; MS2; CE:40 V; [M-H2O+H]+
Name: Coprostanone
Class: Natural Product; Sterol
Formula: C27H46O
Exact mass: 386.35487
SMILES: C(C)(C1)(C(C(C)CCCC(C)C)4)C(CC4)C(C2)C(C(C)(C3)C([H])(CC(C3)=O)C2)C1
InChI: InChI=1S/C27H46O/c1-18(2)7-6-8-19(3)23-11-12-24-22-10-9-20-17-21(28)13-15-26(20,4)25(22)14-16-27(23,24)5/h18-20,22-25H,6-17H2,1-5H3/t19?,20-,22?,23?,24?,25?,26?,27?/m1/s1
Instrument: API2000, Applied
Instrument type: LC-APPI-QQ
Ms type: MS2
Ion mode: POSITIVE
Retention time: 0.820833 min
Base peak: 81.199997
Precursor m/z: 369.431000
Precursor type: [M-H2O+H]+
m/z	relative intensity
38.599998	1
38.850000	1
39.150000	1
40.150000	1
40.400002	1
40.920001	2
41.225000	3
41.950001	1
43.090419	30
50.750000	1
51.150000	1
51.500000	1
51.900002	1
53.000000	1
53.799999	1
54.099998	1
55.048393	100
57.108938	309
58.500000	1
58.900002	1
59.700001	1
63.799999	1
64.099998	1
64.781818	2
65.199997	1
65.400002	1
67.086521	279
69.097235	583
71.111905	331
72.250000	1
75.599998	1
77.135293	12
79.005970	180
81.082982	952
83.079413	421
85.087063	102
86.149998	1
87.000000	1
88.199997	1
89.000000	1
89.599998	1
91.049335	135
93.070399	422
95.043221	999
97.123333	172
98.000000	1
99.080953	4
101.000000	1
102.099998	1
103.033333	3
105.027648	399
107.044810	533
109.091969	906
111.106923	93
112.400002	1
113.125000	1
114.000000	1
114.199997	1
115.000000	1
115.400002	1
116.074999	1
117.107229	30
119.059939	409
121.089913	554
123.074692	320
124.099998	1
125.108850	20
126.500000	1
126.850002	1
127.300003	1
127.500000	1
127.900002	1
128.199997	1
128.833328	1
129.300003	1
129.500000	1
129.739999	2
130.141669	2
131.120379	76
133.118432	379
135.110484	670
136.222222	2
137.111553	90
139.254547	2
140.600006	1
141.000000	1
141.275002	1
142.150002	1
142.533335	1
143.152942	6
143.699997	1
143.979999	4
145.112622	165
147.134987	823
149.134868	436
150.100006	1
150.300003	1
151.167480	44
152.500000	1
152.899994	1
153.100006	1
153.399994	1
153.899994	1
154.100006	1
154.300003	1
154.500000	1
154.800003	1
155.174999	1
155.800003	1
156.100006	1
156.399994	1
157.399994	2
157.600006	1
159.116938	165
161.109890	699
163.162736	190
163.899994	1
165.144886	32
166.699997	1
167.449997	1
168.000000	1
168.300003	1
169.050003	1
169.349998	1
169.899994	1
170.150002	1
170.500000	1
171.225002	6
172.020001	2
173.157516	164
175.151168	322
177.225516	70
178.100006	1
178.300003	1
179.249573	21
180.399994	1
181.000000	1
181.199997	1
182.500000	1
183.000000	1
183.299998	1
183.600006	1
183.899994	1
185.187301	11
186.078260	8
187.161905	188
188.028573	3
189.206192	231
189.899994	1
191.195999	45
191.899994	1
192.399994	1
193.317856	20
194.300003	1
194.899994	1
195.300003	1
196.600006	1
197.050003	1
197.374996	1
197.699997	1
198.000000	1
198.575005	1
199.115385	14
199.699997	1
200.234786	4
201.192654	215
203.169664	102
205.180166	43
206.100006	1
207.232654	18
209.100006	1
210.100006	1
210.899994	1
211.300000	1
211.699997	1
212.000000	1
212.550003	1
213.194444	6
214.445235	8
215.205956	229
216.100006	1
216.362497	1
217.191080	76
218.000000	1
219.220299	60
220.800003	2
221.225863	10
222.949997	1
224.050003	1
224.750000	1
225.100006	1
225.300003	1
225.500000	1
226.199997	1
227.000000	1
227.316666	2
228.000000	1
229.204589	94
229.899994	1
230.100006	1
231.219354	11
232.000000	1
232.374996	1
233.189922	46
234.399994	1
235.283333	4
236.750000	1
237.199997	1
237.500000	1
238.199997	1
238.399994	1
238.950005	1
239.349998	1
239.800003	1
240.050003	1
241.000000	1
241.312502	1
243.214579	79
244.500000	1
245.298975	35
246.200002	1
246.600006	1
247.293590	28
248.949997	1
249.349998	1
250.000000	1
252.750000	1
253.349998	1
253.899994	1
254.500000	1
254.750000	1
255.247060	3
255.800003	1
256.200012	1
256.399994	2
257.312544	51
258.100006	1
259.274945	82
260.399994	1
260.600006	1
261.342858	18
263.200012	1
266.299988	1
266.500000	1
266.799988	1
268.299988	1
268.799988	1
269.100006	1
269.349991	1
269.899994	1
270.399994	1
271.305263	7
272.100006	1
273.353253	61
274.299988	1
274.700012	1
275.416667	2
276.899994	1
277.399994	1
278.299988	1
281.399994	1
281.799988	1
283.050003	1
283.349991	1
284.000000	1
284.399994	1
284.779993	2
285.316326	9
287.284375	23
288.100006	1
289.200012	1
290.000000	1
290.899994	1
295.399994	1
295.600006	1
296.799988	1
297.250000	1
297.899994	1
298.100006	1
298.399994	1
299.334668	13
300.100006	1
300.500000	1
300.799988	1
301.343748	6
301.899994	1
303.799988	1
307.500000	1
308.200012	1
309.500000	1
309.899994	1
311.250000	1
311.500000	1
311.700012	1
311.899994	1
312.299988	1
312.600006	1
313.292592	24
314.250000	1
315.000000	1
315.550003	1
318.899994	1
323.100006	1
323.399994	1
324.799988	1
325.449997	1
325.799988	1
326.200012	1
326.399994	1
327.016668	1
327.355547	2
336.000000	1
336.299988	1
336.500000	1
337.000000	1
337.600006	1
340.399994	1
341.000000	1
341.600006	1
351.100006	1
351.500000	1
351.899994	1
354.050003	1
354.525002	1
366.899994	1
367.750000	1
369.443629	146
370.700012	1
376.000000	1
