Mass spectrum: Oseltamivir; LC-APPI-QQ; MS
Name: Oseltamivir
Class: Non-Natural Product
Formula: C16H28N2O4
Exact mass: 312.20491
SMILES: CCOC(=O)C(C1)=CC(OC(CC)CC)C(NC(C)=O)C(N)1
InChI: InChI=1S/C16H28N2O4/c1-5-12(6-2)22-14-9-11(16(20)21-7-3)8-13(17)15(14)18-10(4)19/h9,12-15H,5-8,17H2,1-4H3,(H,18,19)/t13-,14+,15+/m0/s1
Instrument: API2000, Applied
Instrument type: LC-APPI-QQ
Ms type: MS
Ion mode: POSITIVE
Retention time: 0.821100 min
Base peak: 313.299988
Ion type: [M+H]+
Precursor m/z: 313.3
m/z	relative intensity
201.110563	12
202.113267	5
203.104057	15
205.114570	166
206.088757	66
207.121595	46
208.128842	85
209.130747	36
211.138743	41
212.155321	11
213.103118	16
214.173009	9
215.129904	19
216.130770	5
217.134506	7
219.112030	35
221.110585	51
222.134969	12
223.141919	33
225.176555	357
227.154201	16
228.154883	6
229.143979	10
230.152652	3
231.143842	8
233.133608	8
235.110150	12
237.152088	40
238.110594	12
239.153682	16
240.177237	10
241.200119	10
243.190141	35
244.203708	6
245.164706	7
246.164404	2
247.143506	5
249.128749	7
250.080087	3
251.130457	8
252.150745	8
253.150151	12
254.152178	6
255.149297	9
256.135748	4
257.141073	6
258.159557	6
259.169965	5
261.127960	4
263.130514	6
265.150841	8
266.122038	3
267.138137	7
268.127500	4
269.161085	7
271.145501	6
272.166371	7
273.196561	7
274.188494	2
275.139306	3
277.166421	5
279.170394	22
281.181317	9
283.161193	6
285.182608	6
287.211874	5
288.186230	2
289.211050	4
291.197386	4
293.171676	3
295.252395	32
296.249258	28
297.204253	11
299.262020	26
301.196831	4
303.203738	3
304.253779	1
305.261703	2
306.241176	1
307.200718	2
309.234665	4
311.222046	6
313.299631	999
318.280315	1
319.241102	2
320.279886	1
321.247039	2
322.208985	1
323.230967	2
325.266785	10
327.240022	5
328.227796	2
329.212538	4
331.192383	4
332.224000	2
333.171727	1
334.265855	1
335.246975	3
336.271237	1
337.280787	1
339.247323	3
341.249225	2
343.192069	2
344.290208	1
345.220203	2
347.224769	2
349.254310	1
351.306318	2
353.359158	18
355.253845	3
356.342294	2
357.288732	2
359.205716	1
360.411262	1
361.214576	1
363.200749	2
364.291260	1
365.324137	1
367.357957	217
368.360769	94
371.261877	2
372.259442	1
373.238323	1
374.238462	1
375.236655	1
377.223178	1
379.309593	1
380.280853	1
381.351094	4
383.301566	2
385.404302	1
387.338150	3
388.273512	1
389.284508	1
391.378720	6
395.317411	1
396.362263	1
397.298096	1
399.340619	20
