Mass spectrum: Epicholestanol; LC-APPI-QQ; MS2; CE:30 V; [M-H2O+H]+
Name: Epicholestanol
Class: Natural Product; Sterol
Formula: C27H48O
Exact mass: 388.37052
SMILES: C(C)(C1)(C(C(C)CCCC(C)C)4)C(CC4)C(C2)C(C(C)(C3)C([H])(CC(C3)O)C2)C1
InChI: InChI=1S/C27H48O/c1-18(2)7-6-8-19(3)23-11-12-24-22-10-9-20-17-21(28)13-15-26(20,4)25(22)14-16-27(23,24)5/h18-25,28H,6-17H2,1-5H3/t19?,20-,21+,22?,23?,24?,25?,26?,27?/m0/s1
Instrument: API2000
Instrument type: LC-APPI-QQ
Ms type: MS2
Ion mode: POSITIVE
Retention time: 0.820833 min
Base peak: 108.900002
Precursor m/z: 371.300000
Precursor type: [M-H2O+H]+
m/z	relative intensity
33.099998	1
39.200001	1
40.900002	1
41.200001	1
41.599998	1
42.975000	1
43.299999	1
52.599998	1
53.900002	1
54.200001	1
55.050001	8
56.000000	1
56.400002	2
57.152586	41
58.400002	1
64.099998	4
65.250000	1
65.500000	1
66.000000	1
67.173287	51
68.171429	5
69.066239	82
71.130171	41
73.149998	1
73.400002	1
76.300003	1
76.599998	1
77.099998	1
77.300003	1
77.699997	1
78.000000	1
78.500000	2
78.990909	15
79.500000	3
81.107063	468
83.102291	215
84.099998	1
85.099999	30
86.900002	1
88.400002	1
88.599998	1
88.900002	1
89.099998	1
89.300003	1
89.649998	1
90.000000	1
90.300003	1
90.633331	2
91.214286	5
91.800003	1
93.150000	76
95.062210	999
97.156536	215
98.599998	1
99.287500	6
104.049999	1
104.300003	1
105.071428	20
107.061282	137
109.104721	745
110.099998	2
111.092607	181
112.149998	1
112.500000	1
113.233335	2
114.500000	1
115.000000	1
117.099998	1
117.699997	1
118.199997	1
118.920001	7
119.699997	2
121.118377	212
123.095251	400
125.166892	52
126.400002	1
126.850002	1
127.099998	1
127.400002	1
129.000000	1
129.300003	1
131.374996	1
132.000000	1
132.199997	1
133.017859	20
133.379162	8
133.800003	2
135.129374	488
136.146152	5
137.164706	203
137.800003	1
139.361109	6
140.000000	1
140.399994	1
141.300003	1
143.500000	1
144.449997	1
144.800003	1
145.062504	3
145.699997	1
147.157143	49
147.699997	2
149.175000	509
151.171515	118
152.000000	1
152.500000	1
153.166667	2
153.550003	1
155.000000	1
157.500000	1
158.899994	1
159.300003	1
159.700002	1
161.157141	49
163.210446	229
164.266663	2
165.157618	74
167.399994	1
171.600006	1
172.449997	1
172.799998	1
173.150002	1
173.449997	1
174.050003	1
174.300003	1
175.176666	63
175.800003	1
176.000000	1
176.199997	1
177.240183	154
178.100006	1
179.223120	65
180.000000	1
181.399994	1
184.899994	1
186.800003	1
187.000000	1
187.199997	1
187.399994	1
187.750000	1
188.199997	2
189.222933	170
189.899994	1
191.175677	78
192.100006	1
193.252499	84
193.699997	5
194.199997	1
195.000000	1
199.100006	1
201.100006	1
201.399994	1
201.899994	1
202.100006	1
203.223665	152
204.000000	1
204.199997	1
205.275000	62
206.100006	1
207.266456	111
208.000000	1
211.399994	1
212.300003	1
214.924995	1
215.199997	2
216.000000	2
217.290304	116
218.299998	3
219.249999	56
220.199997	1
220.699997	4
221.365117	30
222.600006	1
222.899994	1
226.000000	1
226.199997	1
227.100006	1
227.300003	1
227.600006	1
228.199997	1
229.000000	1
230.000000	1
230.500000	1
231.298809	59
233.270370	57
234.600006	1
234.983332	4
235.199997	6
237.399994	1
238.800003	1
240.199997	1
241.000000	1
241.300003	1
243.000000	1
243.199997	1
243.550003	1
244.100006	1
244.300003	1
245.320741	47
246.199997	1
246.399994	1
247.382467	54
248.100006	1
248.399994	1
249.199997	3
249.424995	3
254.600006	1
255.000000	1
257.100006	1
258.000000	1
259.311113	32
260.100006	1
261.422580	109
263.000000	1
263.216675	2
263.550003	1
267.000000	1
268.899994	1
269.799988	1
270.500000	1
270.799988	1
271.299988	1
272.000000	1
272.349991	1
272.600006	1
273.360002	16
274.299988	1
275.339252	38
275.899994	2
276.899994	1
277.200012	1
277.399994	1
277.700012	1
280.799988	1
281.299988	1
282.000000	1
285.200012	1
285.500000	1
286.399994	1
286.600006	1
287.265957	17
288.299988	1
289.465384	37
290.500000	1
291.399994	1
291.700012	1
297.000000	1
297.200012	1
299.100006	1
301.378564	10
302.399994	1
303.333333	2
303.600006	2
303.799988	1
311.200012	1
313.299988	1
313.550003	1
314.449997	1
315.366666	23
315.799988	3
327.399994	1
328.500000	1
328.849991	1
329.377774	3
330.100006	1
332.100006	1
338.899994	1
342.750000	1
343.299988	1
343.650009	1
353.600006	1
356.200012	1
356.550003	1
356.899994	1
368.600006	1
369.000000	1
369.299988	1
369.899994	2
370.100006	1
371.513113	775
372.700012	1
393.100006	7
