Mass spectrum: isoPFOS; LC-ESI-QQ; MS2; CE50eV
Name: isoPFOS
Class: Non-Natural Product
Formula: C8HF17O3S
Exact mass: 499.93749
SMILES: FC(F)(F)C(F)(C(F)(F)F)C(F)(F)C(F)(F)C(F)(F)C(F)(F)C(F)(F)S(O)(=O)=O
InChI: InChI=1S/C8HF17O3S/c9-1(6(18,19)20,7(21,22)23)2(10,11)3(12,13)4(14,15)5(16,17)8(24,25)29(26,27)28/h(H,26,27,28)
Instrument: Xevo TQ, Waters
Instrument type: LC-ESI-QQ
Ms type: MS2
Ion mode: NEGATIVE
Collision energy: 50eV
Retention time: 17.454233 min
Base peak: 80.090935
Precursor m/z: 498.9
Precursor type: [M-H]-
m/z	relative intensity
63.732792	128
69.056186	42
73.950267	33
80.115125	999
83.157930	133
85.132442	76
99.049375	408
129.954174	456
169.033525	386
179.773168	109
191.051892	37
230.069225	278
321.587575	56
357.480317	40
412.771869	73
498.693403	35
