Mass spectrum: Cholestanol; LC-APPI-QQ; MS2; CE:40 V; [M-H2O+H]+
Name: Cholestanol
Class: Natural Product; Sterol
Formula: C27H48O
Exact mass: 388.37052
SMILES: C(C)(C1)(C(C(C)CCCC(C)C)4)C(CC4)C(C2)C(C(C)(C3)C([H])(CC(C3)O)C2)C1
InChI: InChI=1S/C27H48O/c1-18(2)7-6-8-19(3)23-11-12-24-22-10-9-20-17-21(28)13-15-26(20,4)25(22)14-16-27(23,24)5/h18-25,28H,6-17H2,1-5H3/t19?,20-,21-,22?,23?,24?,25?,26?,27?/m0/s1
Instrument: API2000, Applied
Instrument type: LC-APPI-QQ
Ms type: MS2
Ion mode: POSITIVE
Retention time: 0.820917 min
Base peak: 81.099998
Precursor m/z: 371.451000
Precursor type: [M-H2O+H]+
m/z	relative intensity
38.900002	1
39.599998	1
40.981818	2
41.700001	1
42.250000	1
43.299999	3
43.799999	1
44.299999	1
51.900002	1
52.599998	1
52.900000	1
53.400002	1
55.061755	59
57.086270	81
58.200001	1
59.200001	1
61.799999	1
63.200001	1
64.300003	1
65.025000	1
65.800003	1
67.071366	170
69.068585	260
70.099998	1
71.098913	68
71.800003	1
72.099998	1
72.599998	1
73.025000	1
73.400002	1
76.000000	1
76.500000	1
77.008000	5
77.525000	1
77.900002	1
79.016666	55
81.084325	704
83.095190	253
84.099998	1
84.300003	2
85.125806	23
85.900002	1
86.300003	1
87.199997	1
87.500000	1
88.800003	1
90.000000	1
91.093163	22
91.764706	3
93.072374	223
95.038308	999
97.107243	158
98.599998	1
99.099998	2
99.400002	1
99.699997	1
100.199997	1
100.800003	1
101.199999	1
102.699997	1
103.199997	1
103.450001	1
105.050000	40
107.015520	231
109.077678	617
111.037904	46
113.099998	1
113.300003	1
115.149998	1
116.000000	1
116.300003	1
116.549999	1
116.900002	1
117.724998	1
118.074999	1
119.057576	24
119.715384	5
121.077097	229
123.059931	214
124.000000	1
124.400002	1
124.900000	7
127.000000	1
127.500000	1
128.600006	1
129.000000	1
129.500000	1
129.800003	1
130.199997	1
130.399994	1
131.170000	2
131.600006	1
133.116130	34
135.072989	307
137.139221	62
137.800003	1
139.075005	1
139.500000	1
141.000000	1
142.699997	1
143.000000	1
143.199997	1
143.500000	1
144.199997	1
144.699997	1
145.000000	3
145.399994	1
147.119903	76
149.124105	253
151.124109	21
152.699997	1
153.000000	1
153.399994	1
156.500000	1
156.750000	1
157.899994	1
158.199997	1
158.550003	1
158.899994	1
161.116379	43
161.762501	1
163.126395	99
164.399994	1
165.102223	17
166.100006	1
167.300003	1
168.899994	1
170.100006	1
170.799995	1
171.199997	1
172.199997	1
173.200001	1
174.000000	1
175.091945	27
176.300003	1
177.196461	42
179.199997	8
180.250000	1
183.300003	1
184.300003	1
184.600006	1
185.199997	1
185.399994	1
185.800003	1
186.699997	1
187.316668	1
188.183332	1
189.157714	65
190.200002	1
191.120338	22
192.000000	1
192.199997	1
192.500000	1
193.097223	13
195.300003	1
197.000000	1
198.899994	1
199.100006	1
199.399994	1
200.199997	1
200.699997	1
201.100006	1
201.300003	1
201.500000	1
201.899994	1
202.199997	1
203.212430	33
204.199997	1
205.111365	16
206.300003	1
207.195349	8
207.500000	2
212.000000	1
212.899994	1
213.100006	1
213.550003	1
214.500000	1
214.874996	1
215.125004	1
215.449997	1
216.100006	2
216.330000	2
217.167998	9
219.147619	8
219.427268	4
220.300003	1
220.800003	1
221.342104	4
227.050003	1
227.500000	1
228.899994	1
229.299998	1
229.899994	1
230.250000	1
230.916662	3
231.294447	3
231.600006	1
232.100006	1
233.210417	9
234.100006	1
234.849998	1
235.375000	1
237.300003	1
239.399994	1
240.699997	1
241.500000	1
242.600006	1
242.800003	1
243.050003	1
243.550003	1
243.949997	1
244.500000	1
244.966665	2
245.312500	3
246.150002	1
246.399994	1
247.267567	14
249.050003	1
249.399994	1
249.750000	1
251.199997	1
254.699997	1
255.899994	1
257.399994	1
257.799988	1
258.100006	1
258.550003	1
258.899994	2
259.322857	6
260.349991	1
260.600006	1
261.297297	14
262.500000	1
263.300003	1
263.600006	1
264.899994	1
265.100006	1
265.299988	1
266.700012	1
267.100006	1
267.299988	1
267.600006	1
268.799988	1
269.000000	1
269.399994	1
271.200012	1
272.250000	1
273.128579	3
273.500000	2
273.899994	1
274.600006	1
275.319997	6
276.500000	1
277.399994	1
281.500000	1
283.100006	1
283.600006	1
283.899994	1
284.799988	1
285.000000	1
285.200012	1
285.399994	1
286.200012	1
287.083338	2
287.399994	1
288.799988	1
289.000000	1
289.200012	1
292.899994	1
293.100006	1
293.600006	1
294.299988	1
295.200012	1
297.000000	1
299.700012	1
300.100006	1
300.799988	1
301.000000	1
301.333323	2
303.100006	1
303.299988	1
303.600006	1
303.799988	1
311.399994	1
312.200012	1
312.899994	1
314.000000	1
314.550003	1
315.600006	2
316.100006	1
327.399994	1
328.299998	1
328.600006	1
329.100006	1
329.500000	1
329.700012	1
341.799988	1
342.100006	1
352.899994	1
353.100006	1
353.500000	1
356.100006	1
356.299988	1
356.600006	1
370.250000	1
371.515127	22
