Mass spectrum: Genistein; LC-APPI-QQ; MS2; CE:50 V; [M+H]+
Name: Genistein
Class: Natural Product; Isoflavone
Formula: C15H10O5
Exact mass: 270.05282
SMILES: Oc(c3)ccc(c3)C(=C1)C(=O)c(c(O)2)c(cc(O)c2)O1
InChI: InChI=1S/C15H10O5/c16-9-3-1-8(2-4-9)11-7-20-13-6-10(17)5-12(18)14(13)15(11)19/h1-7,16-18H
Instrument: API2000
Instrument type: LC-APPI-QQ
Ms type: MS2
Ion mode: POSITIVE
Retention time: 0.820833 min
Base peak: 91.000000
Precursor m/z: 271.200000
Precursor type: [M+H]+
m/z	relative intensity
31.349999	1
36.599998	1
38.483334	1
39.055883	1
40.299999	1
41.107730	3
43.052921	8
43.799999	1
44.000000	1
44.599998	1
44.900002	1
47.200001	1
49.500000	1
49.850000	1
51.144000	1
52.000000	1
53.097794	4
55.080157	13
55.900002	1
56.299999	1
56.728571	1
57.233334	1
58.200001	1
58.500000	1
59.049999	1
59.299999	1
60.500000	1
61.000000	1
61.700001	1
63.101198	5
65.092941	143
67.089419	86
69.049032	199
71.057534	4
72.199997	1
72.599998	1
72.800003	1
73.300003	1
73.699997	1
73.900002	1
74.333333	1
75.040506	1
75.893752	1
77.050301	24
79.039639	21
81.084984	31
83.064815	11
84.037499	1
85.047742	4
86.149998	1
86.400002	1
89.102484	52
91.064081	999
93.066816	22
95.031446	31
97.067584	24
98.124998	1
98.500000	1
98.699997	1
98.900002	1
101.061777	3
103.062026	37
105.039798	31
107.039128	103
109.054393	21
111.026797	18
111.900002	1
115.062987	169
117.090764	33
119.056655	135
121.023286	100
123.034250	5
124.039744	3
125.047479	7
127.079047	44
128.090608	32
129.104258	25
131.114539	87
133.083284	10
135.052128	38
137.051467	24
139.095402	10
141.124505	223
145.042536	90
147.105134	43
149.041054	90
150.083080	27
153.035049	529
155.065631	46
157.114524	15
159.080310	61
161.049431	3
163.095954	14
165.036596	32
166.230000	1
169.064195	162
171.056720	11
173.116147	21
174.128572	4
175.093651	13
175.955553	1
177.085720	1
178.088917	5
179.130448	9
180.182225	1
181.140996	8
183.095902	22
184.097955	7
185.112064	14
187.095528	34
188.178574	1
188.923529	1
189.399994	1
191.071057	16
191.899994	1
192.150002	1
192.399994	1
192.883329	1
193.300003	1
194.000000	1
194.275002	1
197.128201	157
200.084816	42
201.060406	17
203.113907	5
204.100001	1
205.058974	1
207.097261	2
207.941379	1
208.319232	1
209.110344	1
209.800003	1
211.039407	7
213.094690	29
215.102885	139
217.158335	1
218.300003	1
219.100006	1
220.500000	1
221.000000	1
221.199997	1
221.500000	1
221.699997	1
222.739999	1
223.276921	1
225.121244	19
226.091631	7
227.135547	4
228.076898	9
229.143434	6
230.000000	1
230.399994	1
230.600006	1
230.800003	1
231.000000	1
233.899994	1
234.199997	1
234.399994	1
235.058948	1
235.699997	1
236.212502	1
236.899994	1
237.500000	1
238.000000	1
238.600006	1
239.000000	1
239.399994	1
239.600006	1
240.162500	1
241.178454	6
242.204176	13
243.181278	58
244.500000	1
245.000000	1
245.300003	1
246.899994	1
247.199997	1
247.399994	1
248.600006	1
249.199997	1
250.500000	1
251.186666	1
253.123928	54
254.250002	1
255.000000	1
255.366664	1
255.600006	1
256.075001	1
259.500000	1
261.200012	1
264.000000	1
266.000000	1
267.500000	1
267.899994	1
269.053490	1
271.118409	60
272.550003	1
274.799988	1
279.299988	1
284.299988	1
