Mass spectrum: Brassicasterol; LC-APPI-QQ; MS2; CE:60 V; [M-H2O+H]+
Name: Brassicasterol
Class: Natural Product; Sterol
Formula: C28H46O
Exact mass: 398.35487
SMILES: C(C(C=CC(C)C(C4)C(C3C4)(C)CCC(C13)C(C2)(C(CC(C2)O)=CC1)C)C)(C)C
InChI: InChI=1S/C28H46O/c1-18(2)19(3)7-8-20(4)24-11-12-25-23-10-9-21-17-22(29)13-15-27(21,5)26(23)14-16-28(24,25)6/h7-9,18-20,22-26,29H,10-17H2,1-6H3/b8-7+/t19?,20?,22-,23?,24?,25?,26?,27?,28?/m0/s1
Instrument: API2000
Instrument type: LC-APPI-QQ
Ms type: MS2
Ion mode: POSITIVE
Retention time: 0.820850 min
Base peak: 93.099998
Precursor m/z: 381.400000
Precursor type: [M-H2O+H]+
m/z	relative intensity
37.299999	1
38.000000	1
38.250000	1
38.799999	1
39.000000	1
39.900002	1
40.099998	1
41.076000	40
41.880001	1
43.077829	125
43.799999	1
44.000000	1
44.350000	1
49.700001	1
50.700001	1
51.099998	1
51.400002	1
51.700001	1
52.150000	1
52.400002	1
53.091666	3
53.799999	2
55.070454	359
57.124025	277
57.900002	1
58.400002	1
58.599998	1
59.099998	1
61.099998	1
62.099998	1
63.299999	1
63.599998	1
64.099998	1
64.400002	1
64.786666	2
67.128445	457
69.091958	795
71.121733	98
72.300003	1
72.549999	1
72.800003	1
75.300003	1
75.500000	1
75.918183	2
77.071562	46
79.034685	412
81.103748	999
83.106997	268
84.300003	1
85.133332	7
87.300003	1
88.000000	1
88.199997	1
88.699997	1
88.977778	1
89.400002	2
91.054396	428
93.094112	714
95.055600	861
97.181868	52
100.099998	1
100.699997	1
101.099998	1
101.300003	1
101.840001	1
102.099998	1
105.042887	700
107.034050	442
109.095308	374
110.128569	1
110.976471	2
111.800003	1
113.750000	1
115.000000	14
117.060087	133
119.065876	437
121.076389	187
123.093820	51
123.900002	1
125.000000	1
125.199997	1
125.400002	1
125.900002	1
126.599998	1
126.968750	2
129.061003	75
131.125119	243
133.129275	234
135.112312	105
136.000000	1
136.300003	1
136.843749	2
137.208004	4
139.000000	1
139.199997	1
139.874996	1
140.100006	1
140.578576	2
141.153846	7
143.081250	120
145.087594	362
147.154435	250
147.899994	1
149.158447	43
149.800003	1
150.974998	1
151.199997	1
151.500000	1
152.100006	1
152.349998	1
153.374996	1
153.699997	1
154.025002	1
155.146835	11
157.113600	93
159.113467	274
161.122597	111
162.000000	1
162.199997	1
163.206603	15
163.899994	1
164.600006	1
165.399994	1
165.899994	1
166.199997	1
166.500000	1
167.199997	1
167.474998	1
167.929996	1
168.300003	1
169.125175	21
171.089601	72
173.201288	112
174.000000	1
175.174026	22
176.100006	1
176.800003	1
177.000000	1
178.899994	1
179.100006	1
180.000000	1
180.399994	1
180.800003	1
181.100006	1
181.349998	1
181.699997	1
182.000000	1
183.169181	23
185.122847	87
186.170078	18
187.152049	70
188.100006	1
189.216495	14
190.900004	1
191.399994	1
191.600006	1
191.800003	1
192.300003	1
192.899994	1
193.300003	1
194.100006	1
194.899994	1
195.399994	1
195.600006	1
196.228572	2
197.160346	17
199.181412	77
200.208476	8
201.171808	54
202.075005	1
202.300003	1
203.100006	2
203.699997	1
203.899994	1
204.800003	1
205.000000	1
205.500000	1
206.199997	1
206.949997	1
207.399994	1
208.899994	1
209.100006	1
209.300003	1
209.500000	1
210.199997	1
210.600006	1
211.120689	17
213.212534	53
214.199997	2
215.190375	27
215.899994	1
216.550003	1
217.300003	1
217.516668	1
218.000000	1
219.000000	1
219.300003	1
219.500000	1
222.399994	1
222.600006	1
222.800003	1
223.100006	1
223.500000	1
224.500000	1
225.134998	6
225.899994	1
226.100006	2
226.500000	1
227.254651	25
228.100006	1
229.250001	6
230.100006	1
230.399994	1
230.800003	1
231.166667	1
231.399994	1
231.699997	1
232.199997	1
232.899999	1
233.199997	1
233.600006	1
233.899994	1
235.199997	1
236.100006	1
236.399994	1
236.750000	1
237.199997	1
237.800003	1
238.100006	1
239.298718	22
240.333333	2
241.183622	17
242.125004	1
242.449997	1
243.184620	2
243.600006	2
243.800003	1
244.250000	1
244.699997	1
245.000000	1
245.199997	1
245.424995	1
245.800003	1
246.800003	1
247.199997	1
247.500000	1
250.500000	1
251.199997	1
251.800003	1
252.399998	1
253.319999	4
254.155557	3
255.112906	4
256.100006	1
256.349991	1
256.600006	1
256.899994	1
257.300001	1
258.200012	1
259.299988	1
259.600006	1
260.399994	1
261.500000	1
263.299988	1
263.899994	1
264.200012	1
265.000000	1
265.225006	1
265.700012	1
266.050003	1
266.500000	1
267.044447	3
267.562504	2
267.899994	1
268.200012	1
269.281819	3
270.974998	1
271.533335	1
272.600006	1
273.449997	1
278.000000	1
278.349991	1
279.150009	1
279.799988	1
280.500000	1
281.100006	2
281.399994	1
281.700012	1
281.899994	1
282.200012	1
282.600006	1
283.600006	1
284.799988	1
285.000000	1
285.600006	1
291.200012	1
292.000000	1
293.000000	1
293.299988	1
294.000000	1
294.299988	1
294.700012	1
295.100006	1
295.299988	1
295.500000	1
295.949997	1
296.500000	1
297.000000	1
297.374992	1
297.750000	1
298.100006	1
299.050003	1
299.600006	1
302.100006	1
304.200012	1
305.100006	1
307.200012	1
308.299988	1
309.000000	1
309.200012	1
309.399994	1
309.600006	1
310.050003	1
311.100006	1
311.299988	1
311.650002	1
314.899994	1
318.399994	1
320.700012	1
321.899994	1
322.899994	1
323.200012	1
323.500000	1
324.299988	1
324.700012	1
325.299988	1
326.600006	1
329.000000	1
333.399994	1
337.000000	1
337.250000	1
338.600006	1
339.349991	1
351.100006	1
351.550003	1
353.299988	1
353.700012	1
366.200012	1
366.700012	1
379.600006	1
381.200012	1
381.500000	1
381.899994	1
