Mass spectrum: Dihydrotestosterone; LC-APPI-QQ; MS2; CE:60 V; [M+H]+
Name: Dihydrotestosterone
Class: Natural Product; Steroid hormone
Formula: C19H30O2
Exact mass: 290.22458
SMILES: O=C(C4)CC([H])(C3)C(C)(C4)C(C2)C(C3)C(C1)C(C)(C2)C(O)C1
InChI: InChI=1S/C19H30O2/c1-18-9-7-13(20)11-12(18)3-4-14-15-5-6-17(21)19(15,2)10-8-16(14)18/h12,14-17,21H,3-11H2,1-2H3/t12-,14?,15?,16?,17-,18?,19?/m0/s1
Instrument: API2000
Instrument type: LC-APPI-QQ
Ms type: MS2
Ion mode: POSITIVE
Retention time: 0.820867 min
Base peak: 94.800003
Precursor m/z: 291.300000
Precursor type: [M+H]+
m/z	relative intensity
40.200001	7
40.599998	7
40.799999	7
41.049999	14
41.299999	29
41.799999	7
42.200001	14
42.900001	123
44.500000	7
45.150000	14
53.100000	29
53.599998	7
54.599998	29
55.189999	145
56.150000	29
56.950001	14
57.299999	29
57.700001	7
58.799999	14
59.099998	14
59.299999	14
61.500000	7
62.500000	7
64.000000	7
64.500000	7
64.800003	7
65.000000	22
65.400002	14
65.800003	7
66.422223	65
67.127587	420
68.049999	29
68.300003	22
68.900002	36
69.850002	29
70.099998	14
70.400002	7
71.038890	130
72.900002	7
73.199997	7
75.500000	7
75.699997	7
76.000000	7
77.059524	304
78.074999	29
79.135556	652
79.800003	29
80.383335	43
81.124999	405
81.800003	14
82.549999	14
82.900002	22
83.350002	29
84.000000	7
84.199997	7
85.300003	14
88.699997	7
89.400002	14
89.800003	36
91.049275	999
91.900002	29
92.283334	87
93.157892	275
93.400002	116
93.800003	7
94.000000	14
95.099998	145
96.500000	7
96.699997	14
97.174997	29
98.450001	14
100.599998	7
101.000000	14
101.300003	7
101.500000	7
101.900002	7
102.300003	7
102.942858	101
103.400002	22
103.900002	29
105.075555	652
105.800003	7
106.049999	29
106.400002	7
106.900002	58
107.250001	87
107.699997	7
108.000000	7
108.199997	7
108.900002	36
109.300003	7
109.500000	7
109.900002	7
110.099998	7
111.199997	14
113.599998	7
114.000000	7
114.599998	22
114.900002	43
115.263637	159
116.099998	29
116.500000	29
117.028573	203
117.900002	22
118.199997	22
119.111765	246
120.199997	7
120.400002	7
120.699997	14
121.000000	22
121.300003	36
123.000000	7
123.350002	14
124.599998	7
125.099998	7
126.000000	7
126.400002	7
127.000000	14
127.300003	14
127.637498	58
128.246155	94
129.100006	80
129.300003	36
129.699997	7
130.100001	65
130.500000	7
130.699997	7
131.243750	116
132.199997	14
132.800003	7
133.100006	14
134.899994	14
135.150002	29
138.849998	14
140.100006	14
140.399994	7
140.650002	14
141.000000	7
141.500000	7
142.100006	43
143.137503	58
143.924995	29
144.199997	36
144.881818	80
145.950001	29
146.399994	7
146.800003	7
147.125004	29
148.100006	7
148.500000	7
149.100006	14
149.300003	14
150.199997	7
150.699997	14
151.040002	36
152.100006	22
152.300003	7
152.500000	7
152.750000	14
153.000000	14
153.199997	7
153.399994	7
154.050003	14
154.300003	7
154.899994	22
155.100006	22
156.300003	14
156.800003	7
157.299999	58
157.899994	7
158.150002	14
158.399994	7
159.000000	36
159.300003	43
159.500000	7
160.899994	7
161.100006	7
161.300003	7
161.500000	7
162.300003	14
163.046152	94
163.666667	43
164.200001	58
164.550003	14
164.980005	72
165.399994	43
165.800003	7
166.399999	22
166.949997	14
167.500000	7
168.100006	7
168.399994	7
168.800003	14
169.550003	14
170.100006	7
170.399994	7
170.699997	7
170.899994	22
171.399994	14
171.800003	14
172.349998	14
172.849998	29
173.199997	7
173.699997	14
174.000000	7
174.399994	14
174.699997	22
175.122225	65
176.126667	109
176.849998	14
177.100006	51
177.600006	22
178.200001	101
178.800003	14
179.228572	51
180.399994	7
182.150002	14
182.699997	7
183.000000	7
183.500000	7
184.349998	14
184.899994	7
185.199997	14
185.500000	29
186.300003	7
186.899994	14
187.100006	14
187.399994	22
187.600006	7
187.899994	7
188.299998	43
188.800003	80
189.100006	87
189.391661	87
189.981817	80
190.600006	7
191.100006	36
191.699997	14
192.000000	22
192.300003	14
193.000000	7
193.800003	7
195.199997	7
199.100006	7
199.699997	7
200.150002	29
200.500000	14
200.699997	7
200.899994	14
201.199997	22
202.224998	290
202.874996	58
203.199997	43
203.399994	43
203.899994	29
204.100006	29
204.300003	36
204.600006	22
205.022218	130
205.800003	7
206.100006	7
206.449997	14
206.699997	7
207.100006	14
208.300003	7
211.899994	7
213.199997	7
213.399994	14
214.100006	14
214.399994	7
215.131250	232
215.500000	58
216.133331	43
216.399994	14
216.600006	7
216.899994	14
217.100006	7
217.399994	14
217.849998	29
218.199997	14
218.500000	14
218.999995	43
219.399994	29
219.699997	7
219.899994	7
220.300003	14
220.500000	14
221.199997	7
224.899994	7
225.199997	7
226.100006	7
226.300003	14
227.800003	7
228.000000	7
228.399994	14
228.899994	14
229.300003	14
229.600006	7
230.100006	14
230.300003	14
230.600006	7
230.899994	14
231.100006	43
232.199997	43
232.500000	14
233.133336	43
233.600006	7
234.100006	7
235.100006	7
235.300003	29
235.600006	7
239.399994	7
241.300003	7
242.150002	14
242.899994	7
243.399994	7
243.699997	7
244.300003	7
244.500000	7
244.699997	7
244.899994	7
245.100006	7
245.300003	14
245.600006	7
246.000000	14
246.300003	29
246.600006	7
246.800003	7
247.300003	7
248.300003	7
256.799988	7
257.100006	7
259.000000	7
259.200012	7
259.700012	7
260.299988	7
260.600006	7
260.799988	7
261.100006	7
261.299988	14
263.550003	14
276.200012	7
289.000000	7
