Mass spectrum: 24-Ethylepicoprostanol; LC-APPI-QQ; MS2; CE:40 V; [M-H2O+H]+
Name: 24-Ethylepicoprostanol
Class: Natural Product; Sterol
Formula: C29H52O
Exact mass: 416.40182
SMILES: [H]C(C([H])23)(CCC(C)(C4C(C)CCC(C(C)C)CC)C(CC4)3[H])C(C(CC2)1[H])(CCC(O)C1)C
InChI: InChI=1S/C29H52O/c1-7-21(19(2)3)9-8-20(4)25-12-13-26-24-11-10-22-18-23(30)14-16-28(22,5)27(24)15-17-29(25,26)6/h19-27,30H,7-18H2,1-6H3/t20-,21+,22-,23-,24+,25?,26+,27+,28+,29-/m1/s1
Instrument: API2000
Instrument type: LC-APPI-QQ
Ms type: MS2
Ion mode: POSITIVE
Retention time: 0.820833 min
Base peak: 95.000000
Precursor m/z: 399.500000
Precursor type: [M-H2O+H]+
m/z	relative intensity
30.500000	1
33.299999	1
33.599998	1
38.200001	1
40.549999	1
40.799999	1
41.000000	1
41.275000	2
42.099998	1
42.807693	15
44.200001	1
44.900002	1
50.900002	2
51.099998	1
52.900002	1
53.400002	1
53.700001	1
54.000000	1
54.918422	23
55.243104	35
56.074999	2
57.107843	152
59.750000	1
61.200001	1
64.800003	1
65.300003	1
65.599998	1
66.416217	22
67.093198	175
69.080258	417
71.090845	169
72.300003	1
75.199997	1
76.099998	1
76.300003	1
76.500000	1
76.933334	7
78.500000	6
78.955001	48
81.080017	686
83.106338	339
83.900002	2
85.106383	112
85.800003	1
86.000000	1
86.199997	1
86.699997	1
87.099998	1
90.099998	1
90.900002	5
91.257144	8
91.599998	1
91.900002	5
93.080456	183
95.026850	999
96.000000	1
97.049999	167
98.174997	2
98.599998	1
99.016666	4
99.300003	4
100.699997	1
101.099998	1
101.300003	1
102.500000	1
102.800003	1
103.400002	1
104.300003	2
104.885002	12
105.276925	15
107.050820	291
109.068295	744
111.096296	64
112.300003	1
113.000000	1
117.000000	1
117.300003	1
118.199997	1
119.072728	26
121.030795	360
123.043843	319
123.900002	1
124.199997	1
125.062162	22
126.699997	1
127.000000	1
127.199997	1
128.899994	1
129.100006	1
130.500000	1
130.950005	2
131.300003	1
131.500000	1
132.100006	1
133.188572	42
133.737499	5
135.076114	334
136.025002	5
137.046114	115
137.800003	1
138.899994	2
139.199997	2
142.800003	1
143.199997	1
143.500000	1
143.899994	1
144.399999	2
145.300003	4
145.600006	1
145.899994	2
147.154387	68
148.108339	7
149.164237	352
150.100006	1
151.178261	41
153.300003	1
153.699997	1
154.399994	1
155.449997	1
156.300003	1
157.199997	1
158.912495	5
159.399994	4
159.800003	2
161.096226	63
163.160115	206
164.299995	2
165.088237	20
167.199997	1
171.899994	1
172.800003	2
175.064384	44
175.899994	2
177.212717	103
178.100006	1
179.466665	7
179.899994	1
181.100006	1
185.300003	1
185.500000	2
186.100006	1
186.600006	1
187.050003	5
187.300003	2
187.500000	2
187.800003	2
188.000000	1
189.186153	77
190.050003	1
190.300003	1
191.173686	23
192.150002	1
192.625004	2
192.974998	2
193.199997	4
193.399994	3
194.500000	1
195.199997	1
197.699997	1
198.449997	1
199.100001	2
200.939999	3
201.300003	2
201.500000	2
202.100006	2
203.143689	61
204.600006	2
205.130002	12
206.500000	1
206.899994	6
207.300003	4
207.500000	2
214.399994	1
214.600006	1
214.800003	2
215.310002	6
216.100006	4
217.282539	38
218.100006	1
218.699997	1
219.218184	7
219.500000	5
221.237501	14
222.699997	1
222.899994	1
223.500000	1
227.600006	1
228.100006	1
228.849998	1
229.199997	3
229.449997	1
230.199997	1
230.399994	1
231.354168	14
233.237499	5
233.500000	4
234.199997	1
234.500000	1
235.199997	5
235.416662	7
235.800003	1
239.300003	1
242.100006	1
242.699997	1
243.100006	1
244.500000	1
245.184617	8
245.512501	5
247.199997	2
247.699997	1
248.199997	1
249.299998	4
249.600006	1
253.699997	1
254.600006	1
255.100006	1
255.399994	1
257.100006	1
257.299988	1
258.000000	1
258.200012	1
258.500000	1
259.224995	10
259.600006	5
259.899994	1
260.200012	1
261.366669	4
263.000000	1
263.349991	2
263.700012	2
264.500000	1
269.200012	1
272.100006	1
273.050003	4
273.383326	4
273.700012	2
274.000000	1
274.299988	1
274.899994	2
275.337490	5
275.600006	2
276.949997	1
277.200012	1
277.550003	1
278.700012	1
279.250000	1
284.600006	1
286.200012	2
286.600006	1
287.320001	12
288.000000	1
288.200012	1
288.799988	1
289.289990	6
289.500000	5
289.899994	2
291.399994	4
291.700012	1
293.100006	1
296.200012	1
301.099996	5
301.525002	2
301.799988	3
302.200012	1
302.399994	1
303.299988	4
304.500000	1
305.200012	1
305.700012	1
305.899994	1
311.399994	1
313.799988	1
314.799988	1
315.000000	1
315.250000	1
315.500000	1
316.100006	1
316.299988	1
316.750000	1
317.266663	4
317.650009	6
324.600006	1
329.000000	1
329.500000	2
330.600006	1
331.100006	1
331.399994	1
331.600006	1
341.399994	1
341.799988	1
342.200012	1
342.500000	1
343.100006	1
343.500000	5
345.100006	1
356.299988	1
356.799988	1
357.299988	1
367.299988	1
367.799988	1
370.399994	1
370.899994	1
371.299988	1
376.000000	1
381.500000	1
381.799988	1
384.000000	1
384.299988	2
384.700012	2
384.899994	1
398.899994	6
399.458020	78
