Mass spectrum: Estriol; LC-APPI-QQ; MS
Name: Estriol
Class: Natural Product; Steroid hormone
Formula: C18H24O3
Exact mass: 288.17254
SMILES: Oc(c4)cc(C3)c(c4)C(C2)C(C3)C(C1)C(C)(C2)C(O)C(O)1
InChI: InChI=1S/C18H24O3/c1-18-7-6-13-12-5-3-11(19)8-10(12)2-4-14(13)15(18)9-16(20)17(18)21/h3,5,8,13-17,19-21H,2,4,6-7,9H2,1H3/t13?,14?,15?,16-,17+,18?/m1/s1
Instrument: API2000
Instrument type: LC-APPI-QQ
Ms type: MS
Ion mode: POSITIVE
Retention time: 0.821100 min
Base peak: 253.100006
Ion type: [M-2H2O+H]+,[M-H2O+H]+
m/z	relative intensity
201.137552	60
202.102254	15
203.098759	24
205.111797	28
207.135950	28
208.133744	59
209.146278	80
210.171584	82
211.137325	137
213.121885	120
214.191268	25
215.154919	52
217.151197	21
219.123904	26
221.123335	50
223.130684	156
224.171642	45
225.174313	108
227.190949	365
229.153652	44
230.191721	13
231.145182	43
233.146650	50
235.110837	79
237.157614	104
238.134647	31
239.148525	81
240.202333	24
241.213865	64
243.202508	95
244.220206	22
245.146263	45
247.133058	100
249.138754	123
251.142378	157
253.190812	792
257.184468	70
259.156816	64
261.130004	74
263.114444	186
265.131244	115
267.131614	141
269.184832	230
271.190992	999
275.161136	52
277.124594	64
279.147095	119
281.174816	62
283.158147	77
285.204945	102
287.205051	269
288.259142	102
289.240833	52
291.193909	36
293.169005	40
295.160444	36
297.223497	28
299.193547	36
301.232919	61
303.226340	37
304.288948	15
305.242147	16
307.201314	20
309.197113	25
311.246177	21
313.243089	18
314.214034	13
315.258338	37
317.220471	17
319.235935	12
321.232608	12
323.211436	13
325.184467	17
327.206298	16
328.223771	5
329.220337	14
331.189785	14
333.229109	17
335.213204	10
337.229198	10
339.212558	14
341.232569	12
343.217572	14
345.240583	11
347.212917	10
349.260389	8
351.227676	11
353.269570	11
355.228116	12
357.247120	12
359.276785	28
361.244940	9
363.205047	8
365.235825	7
367.295346	10
369.431169	26
370.950336	18
373.270546	8
375.296927	9
377.289587	10
379.316806	4
381.392599	10
383.339478	7
385.377851	5
387.319903	4
389.293209	4
391.410989	16
395.355732	6
397.381801	5
399.366232	54
401.370555	6
402.406270	2
403.314056	3
405.297628	3
406.288507	1
407.331529	4
408.422157	1
409.377002	4
411.438557	11
412.488478	5
413.425446	4
415.358655	2
416.431721	1
417.384907	2
419.432686	3
421.396168	3
423.453062	3
425.390845	2
427.386240	4
429.364015	3
431.371664	2
433.416633	3
435.374143	1
437.413242	2
438.379238	1
439.439237	2
441.364863	2
443.353060	2
445.359876	2
446.380135	1
447.407311	1
449.440622	1
451.526344	2
452.535517	1
453.497266	1
455.388462	1
456.465514	1
457.378813	1
459.356449	2
461.303108	1
462.404440	1
463.385436	1
465.500639	2
467.512950	1
468.514960	1
469.439109	1
470.483999	1
471.403797	1
472.507695	1
473.356878	1
475.361903	1
477.429812	1
479.570387	2
481.545527	1
483.421154	1
484.299988	1
485.423683	1
486.589195	1
487.450633	1
489.494871	1
490.357353	1
491.463439	1
492.525002	1
493.564573	2
495.564045	3
496.566085	1
497.610913	1
498.574602	1
499.445947	1
