Mass spectrum: 102FTA; LC-ESI-QQ; MS2; CE30; [M-H]-
Name: 102FTA
Name: 102Fluorotelomer Acid
Name: 3,3,4,4,5,5,6,6,7,7,8,8,9,9,10,10,11,11,12,12,12-Heneicosafluorododecanoic acid
Class: Non-Natural Product
Formula: C12H3F21O2
Exact mass: 577.97977
SMILES: OC(=O)CC(F)(F)C(F)(F)C(F)(F)C(F)(F)C(F)(F)C(F)(F)C(F)(F)C(F)(F)C(F)(F)C(F)(F)F
InChI: InChI=1S/C12H3F21O2/c13-3(14,1-2(34)35)4(15,16)5(17,18)6(19,20)7(21,22)8(23,24)9(25,26)10(27,28)11(29,30)12(31,32)33/h1H2,(H,34,35)
Instrument: Xevo TQ MS (Waters)
Instrument type: LC-ESI-QQ
Ms type: MS2
Ion mode: NEGATIVE
Collision energy: 30
Retention time: 0.016817
Base peak: 493.042328
Precursor m/z: 577
Precursor type: [M-H]-
m/z	relative intensity
62.802593	455
150.540207	123
169.156281	58
192.880615	60
231.240707	91
234.699890	54
235.297607	62
242.417618	143
242.922760	377
292.870819	582
305.210876	61
343.212738	273
373.966675	191
392.780823	127
393.055206	144
492.967377	999
