Mass spectrum: Dihydrotestosterone; LC-APPI-QQ; MS2; CE:10 V; [M-H2O+H]+
Name: Dihydrotestosterone
Class: Natural Product; Steroid hormone
Formula: C19H30O2
Exact mass: 290.22458
SMILES: O=C(C4)CC([H])(C3)C(C)(C4)C(C2)C(C3)C(C1)C(C)(C2)C(O)C1
InChI: InChI=1S/C19H30O2/c1-18-9-7-13(20)11-12(18)3-4-14-15-5-6-17(21)19(15,2)10-8-16(14)18/h12,14-17,21H,3-11H2,1-2H3/t12-,14?,15?,16?,17-,18?,19?/m0/s1
Instrument: API2000
Instrument type: LC-APPI-QQ
Ms type: MS2
Ion mode: POSITIVE
Retention time: 0.820867 min
Base peak: 273.200012
Precursor m/z: 273.200000
Precursor type: [M-H2O+H]+
m/z	relative intensity
78.800003	1
80.599998	1
80.900002	1
81.149998	1
83.149998	1
83.500000	1
83.800003	1
84.599998	1
91.199997	1
93.099998	1
93.350002	1
94.599998	1
94.800003	1
95.000000	1
95.199997	1
95.400002	1
97.300003	1
98.900002	1
104.699997	1
105.099998	1
105.800003	1
106.400002	1
106.950001	1
107.300001	1
107.900002	1
108.199997	1
108.400002	1
108.599998	1
109.100001	1
110.000000	1
110.699997	1
111.300003	1
111.900002	1
113.099998	1
113.300003	1
117.099998	1
119.250000	1
120.599998	1
121.099998	1
121.300003	1
122.099998	1
123.011111	2
124.000000	1
125.099998	1
126.699997	1
127.500000	1
129.600006	1
129.800003	1
130.399994	1
131.124996	1
133.000000	1
133.399994	1
134.899994	1
135.250000	1
136.800003	1
137.000000	1
137.300003	1
138.500000	1
139.300003	1
144.000000	1
144.500000	1
144.899994	1
145.100006	1
146.600006	1
147.170000	1
147.399994	1
147.699997	1
148.000000	1
148.250000	1
149.033335	1
149.374996	1
151.025002	1
151.800003	1
153.300003	1
156.699997	1
157.000000	1
157.800003	1
158.000000	1
159.236844	2
159.600006	1
160.199997	1
161.024999	2
162.000000	1
162.199997	1
162.449997	1
163.025000	1
163.419995	1
165.150002	1
165.399994	1
168.600006	1
171.049999	1
171.399994	1
172.100006	1
172.399999	1
173.342102	1
174.500000	1
174.750000	1
175.000000	1
175.500000	1
176.199997	1
176.500000	1
177.000000	1
177.359998	1
179.199997	1
179.399994	1
181.000000	1
181.399994	1
182.300003	1
182.899994	1
184.600006	1
184.933329	1
185.199997	1
185.600006	1
186.250000	1
186.699997	1
186.899994	1
187.100006	1
187.399997	1
188.300003	1
188.800003	1
189.349998	1
191.199997	1
191.399994	1
191.600006	1
193.000000	1
193.500000	1
195.399994	1
197.250000	1
198.199997	1
198.399994	1
199.113044	4
200.199997	1
200.953843	1
201.300003	1
201.699997	1
202.199997	1
202.650002	1
203.208333	1
204.849998	1
205.399999	1
211.300003	1
213.114707	2
214.199997	1
215.308063	3
216.349998	1
216.849998	1
217.199997	1
217.412495	1
217.899994	1
218.899994	1
223.500000	1
226.100006	1
226.300003	1
226.699997	1
226.899994	1
227.150002	1
228.199997	1
228.500000	1
228.900000	1
229.300003	1
229.949997	1
230.300003	1
230.699997	1
231.199997	1
231.399994	1
237.100006	1
237.500000	1
240.300003	1
241.199999	1
242.100006	1
242.300003	1
242.949997	1
243.199997	1
244.399994	1
245.064708	1
245.543753	1
252.500000	1
252.899994	1
253.450001	1
255.313221	69
257.299988	1
258.185713	1
259.299988	1
265.700012	1
266.299988	1
267.100006	1
267.799988	1
269.100006	1
270.399994	1
270.899994	1
273.319230	999
274.899994	1
290.899994	1
291.299988	1
