Mass spectrum: Oseltamivir acid; LC-APPI-QQ; MS2; CE30; [M+H]+
Name: Oseltamivir acid
Class: Non-Natural Product
Formula: C14H24N2O4
Exact mass: 284.17361
SMILES: CCC(CC)OC(C=1)C(NC(C)=O)C(N)CC(C(O)=O)1
InChI: InChI=1S/C14H24N2O4/c1-4-10(5-2)20-12-7-9(14(18)19)6-11(15)13(12)16-8(3)17/h7,10-13H,4-6,15H2,1-3H3,(H,16,17)(H,18,19)/t11-,12+,13+/m0/s1
Instrument: API2000, Applied
Instrument type: LC-APPI-QQ
Ms type: MS2
Ion mode: POSITIVE
Collision energy: 30V
Retention time: 0.820833 min
Base peak: 138.100006
Precursor m/z: 285.2
Precursor type: [M+H]+
m/z	relative intensity
41.000000	1
41.200001	1
41.400002	1
41.799999	1
42.200001	1
43.126829	8
44.028572	1
45.225000	1
45.750000	1
46.049999	1
46.400002	1
46.900002	1
50.900002	1
51.299999	1
52.799999	1
53.200001	1
54.000000	1
54.200001	1
54.599998	1
55.000000	1
55.299999	1
55.900002	1
56.599998	1
56.900002	1
57.199999	1
57.500000	1
57.799999	1
58.400002	1
58.700001	1
60.069355	46
61.000000	1
61.200001	1
64.935715	1
66.199997	1
67.120000	17
68.082857	6
69.925001	1
71.080822	14
72.099998	1
73.500000	1
74.099998	1
75.000000	1
75.199997	1
75.599998	1
77.078082	14
77.900002	1
78.250000	1
78.724998	1
79.199997	1
79.500000	1
80.000000	2
80.962500	1
81.820001	1
83.084905	10
83.800003	1
84.199997	1
84.599998	1
84.900002	1
85.300002	1
85.900002	1
87.129310	5
87.800003	1
88.049999	1
88.400002	1
88.800003	1
89.099998	1
90.400002	1
90.799999	1
94.041326	453
95.925001	1
96.199997	1
96.800003	1
97.000000	1
97.400002	1
98.400002	1
100.099998	1
100.300003	1
100.699997	1
102.599998	1
103.300003	1
103.900002	1
104.199997	1
104.799998	1
105.259999	1
105.900000	2
107.122220	1
109.127858	26
111.017573	44
112.699997	1
113.049999	1
115.099998	1
116.300003	1
116.599998	1
116.900002	1
117.149998	1
117.599998	1
120.024907	348
121.013836	15
121.900002	1
122.099998	1
122.300003	1
122.800003	1
123.149998	1
123.400002	1
124.000000	1
124.750000	1
125.500000	1
126.218181	1
127.099998	1
127.300003	1
128.050003	1
129.899994	1
131.000000	1
131.300003	1
131.550003	1
132.000000	1
132.399994	1
133.133847	6
134.157999	9
138.048519	999
140.000000	1
140.699997	1
141.199997	1
143.100006	1
143.600006	1
144.849998	1
146.699997	1
147.250000	1
147.899994	1
148.100006	1
148.800003	1
149.100006	1
149.300003	1
149.899994	1
151.098000	9
152.175003	1
152.913333	1
153.255554	1
156.049639	38
156.800003	1
157.000000	1
157.199997	1
159.250000	1
159.899994	1
162.090692	70
162.899994	1
163.250000	1
164.399994	1
165.000000	1
165.199997	1
165.399994	1
166.399994	1
166.800003	1
167.199997	1
167.899994	1
168.100006	1
169.000000	1
169.500000	1
169.800003	1
170.100006	1
172.199997	1
172.699997	1
173.220001	1
174.950001	1
175.399994	1
176.500000	1
176.800003	1
177.300003	1
180.121358	186
181.050003	1
181.949997	1
182.399994	1
183.000000	1
183.600006	1
185.899994	1
189.100006	1
189.399999	1
189.899994	1
190.199997	1
191.300003	1
191.600006	1
192.800003	1
193.000000	1
193.199997	1
193.849998	1
194.600006	1
194.800003	1
195.000000	1
195.199997	1
195.699997	1
197.161721	63
198.126135	149
199.150002	1
200.300003	1
200.500000	1
200.699997	1
201.399994	1
206.000000	1
206.300003	1
207.100006	1
207.500000	1
207.899994	1
208.100006	1
208.300003	1
208.500000	1
208.800003	1
211.000000	1
211.199997	1
211.399994	1
213.100006	1
215.162226	8
220.500000	1
221.800003	1
222.899994	1
224.699997	1
225.200002	1
225.500000	1
225.974998	1
226.224998	1
226.899994	1
227.199997	1
228.250000	1
228.500000	1
229.000000	1
229.233332	1
234.000000	1
235.399994	1
239.100006	1
239.650002	1
240.199997	1
240.699997	1
241.399994	1
243.000000	1
243.199997	1
244.199997	1
248.899994	1
252.600006	1
252.899994	1
253.600006	1
256.250000	1
257.000000	1
257.200012	1
257.399994	1
266.799988	1
267.500000	1
267.799988	1
268.199998	3
269.100006	1
270.100006	1
283.700012	1
285.230437	2
