Mass spectrum: Estriol; LC-APPI-QQ; MS2; CE:50 V; [M-2H2O+H]+
Name: Estriol
Class: Natural Product; Steroid hormone
Formula: C18H24O3
Exact mass: 288.17254
SMILES: Oc(c4)cc(C3)c(c4)C(C2)C(C3)C(C1)C(C)(C2)C(O)C(O)1
InChI: InChI=1S/C18H24O3/c1-18-7-6-13-12-5-3-11(19)8-10(12)2-4-14(13)15(18)9-16(20)17(18)21/h3,5,8,13-17,19-21H,2,4,6-7,9H2,1H3/t13?,14?,15?,16-,17+,18?/m1/s1
Instrument: API2000
Instrument type: LC-APPI-QQ
Ms type: MS2
Ion mode: POSITIVE
Retention time: 0.820850 min
Base peak: 181.199997
Precursor m/z: 253.200000
Precursor type: [M-2H2O+H]+
m/z	relative intensity
38.900002	1
39.200001	1
39.700001	1
40.099998	1
41.035385	21
42.200001	1
42.500000	2
43.042105	12
44.049999	1
44.299999	1
44.900002	1
45.099998	1
45.599998	1
46.900002	1
49.400002	1
49.900002	1
50.400002	1
51.200001	1
51.500000	1
52.000000	1
52.200001	1
52.700001	4
53.122857	11
53.866667	2
55.025128	124
56.200001	1
57.200001	3
58.099998	1
58.400002	1
58.900002	1
59.299999	1
62.400002	1
62.799999	1
63.500000	1
65.090910	21
66.000000	4
67.056345	252
69.006523	29
69.800003	1
70.850000	1
71.300001	1
72.900002	1
73.199997	1
74.800002	2
75.099998	1
75.900002	2
77.044444	167
79.012447	303
81.110103	278
82.149998	1
82.450001	1
82.750000	1
83.099998	1
83.366669	2
83.599998	1
86.900002	1
87.900002	1
88.800003	1
89.000000	1
91.067140	315
93.095778	166
95.027274	98
96.800003	1
99.300003	1
99.900002	1
100.500000	1
100.699997	1
101.300003	1
103.057257	40
103.699997	2
105.007263	229
106.199997	6
107.036740	231
107.770001	3
108.400002	1
108.599998	1
109.011112	11
109.599998	1
111.199997	1
112.400002	1
112.975000	1
113.699997	2
115.040892	172
116.195238	40
117.055172	56
119.013636	14
119.900002	2
120.244445	3
120.995621	44
122.000000	1
122.900002	1
123.400002	1
124.699997	1
124.900002	1
125.300003	1
125.900002	5
127.068430	199
128.068369	313
129.053638	189
131.096206	193
133.061590	193
133.800003	1
134.399994	1
134.800003	1
135.300003	1
135.500000	1
136.600006	1
136.899994	1
137.199997	1
137.399994	1
138.300003	2
138.990163	19
141.101643	194
142.096666	19
144.046055	198
145.038587	235
146.963158	12
148.399994	1
148.849998	1
149.100006	1
149.300003	1
149.600003	2
150.166667	2
153.048471	271
154.051307	98
155.059479	172
157.080511	999
159.130118	109
159.800003	1
161.049999	3
162.050003	1
165.060575	555
167.079294	136
169.028927	128
170.013674	75
170.989105	164
172.325001	1
173.030771	8
173.600006	1
174.899994	1
175.100006	1
177.070148	43
178.144971	162
179.116436	299
181.079471	398
182.124848	313
183.066249	331
184.092729	18
185.051250	26
186.899994	1
187.100006	1
187.300003	1
187.600006	1
188.399994	1
189.060004	3
189.399994	2
189.600006	2
189.889995	3
190.174197	10
190.899994	9
191.939998	6
193.139695	42
194.145456	63
195.072974	130
196.070411	116
197.104042	268
198.100001	87
199.000000	1
199.500000	1
200.100006	1
200.399994	1
200.699997	1
201.000000	2
201.300003	1
201.500000	1
201.874996	3
202.384617	4
203.130002	6
203.500000	1
203.699997	1
203.899994	1
204.333333	2
205.027274	7
206.066666	4
207.210258	12
207.800003	3
208.209756	13
209.104425	72
210.145966	40
211.017073	52
211.899994	3
212.260001	6
214.800003	1
215.199997	1
216.000000	1
216.699997	1
217.100006	1
217.300003	1
218.099998	3
218.500000	1
219.171428	4
219.800003	2
220.325001	3
221.031819	21
222.399994	5
223.137037	34
224.299999	10
225.199997	6
229.199997	1
229.899994	1
233.050003	1
233.449997	1
234.000000	1
234.250000	1
234.500000	1
235.050003	3
235.399994	1
236.100006	1
236.500000	1
237.200002	8
238.099999	6
251.500000	1
252.000000	2
252.600006	1
253.256252	10
