Mass spectrum: Dihydrotestosterone; LC-APPI-QQ; MS2; CE:60 V; [M+CH3]+
Name: Dihydrotestosterone
Class: Natural Product; Steroid hormone
Formula: C19H30O2
Exact mass: 290.22458
SMILES: O=C(C4)CC([H])(C3)C(C)(C4)C(C2)C(C3)C(C1)C(C)(C2)C(O)C1
InChI: InChI=1S/C19H30O2/c1-18-9-7-13(20)11-12(18)3-4-14-15-5-6-17(21)19(15,2)10-8-16(14)18/h12,14-17,21H,3-11H2,1-2H3/t12-,14?,15?,16?,17-,18?,19?/m0/s1
Instrument: API2000
Instrument type: LC-APPI-QQ
Ms type: MS2
Ion mode: POSITIVE
Retention time: 0.820850 min
Base peak: 81.199997
Precursor m/z: 305.400000
Precursor type: [M+CH3]+
m/z	relative intensity
39.000000	1
40.050000	1
40.599998	1
41.129032	22
41.799999	1
43.020588	24
43.799999	1
44.350000	1
44.933334	4
45.300000	9
51.049999	1
51.400002	1
51.599998	1
52.099998	1
52.700001	4
53.177419	22
55.091935	401
57.100000	21
58.299999	1
59.076785	20
62.500000	1
63.200001	1
63.900002	1
64.099998	1
64.400002	2
64.699997	4
64.900002	5
67.127317	368
69.165266	94
71.073964	61
72.099998	1
72.300003	1
72.500000	1
72.699997	2
73.074999	6
73.400002	1
73.699997	1
74.400002	1
74.599998	1
75.099998	1
75.500000	1
77.069296	255
79.047967	999
81.116359	857
82.500000	3
83.133333	37
85.093554	402
87.000000	1
87.400002	1
87.800003	1
88.599998	1
88.850002	1
89.300003	1
91.073377	554
93.125379	426
95.075242	186
96.199997	1
97.140385	37
97.800003	1
98.199997	1
98.400002	1
98.699999	1
99.049999	1
99.500000	1
100.300003	1
101.049999	1
101.699997	1
101.900002	1
102.199997	1
103.051613	22
105.084585	541
107.033862	136
108.290002	4
109.137210	62
109.800003	1
110.199997	1
111.133332	13
111.900002	1
112.599998	1
113.099998	1
113.599998	1
115.030337	32
117.096026	163
119.052016	178
121.108163	35
122.000000	1
122.699997	2
122.988889	6
124.450001	1
124.800003	1
125.000000	1
125.400002	1
126.000000	1
126.199997	1
126.450001	1
127.211763	6
128.125288	63
129.075188	96
131.134299	161
132.170000	4
132.399994	3
133.124244	59
133.800003	1
134.100006	1
134.300003	1
135.219051	15
135.899994	1
136.300003	1
136.699997	1
137.000000	2
137.300003	1
138.100006	1
138.399994	1
138.650002	1
139.300003	1
139.600006	1
140.000000	1
140.199997	1
140.399994	1
140.699997	4
141.226926	19
142.070129	55
143.070731	88
145.074045	141
146.060004	4
146.399994	2
147.053064	18
147.899994	1
148.150002	1
148.399994	1
149.120001	4
150.800003	1
151.349998	1
152.000000	1
152.500000	1
152.899994	2
153.500000	1
154.025005	3
154.449997	2
155.147366	14
157.230768	42
158.138891	6
159.148750	58
160.280002	4
161.082142	10
162.050003	1
162.300003	1
162.600006	1
162.949997	1
163.300003	1
163.899994	1
164.199997	1
164.600006	1
165.050003	2
165.699997	1
166.100006	1
166.500000	2
166.916662	2
167.800003	1
168.025002	1
168.399994	2
169.170587	18
169.800003	2
170.033335	4
171.107620	38
172.100002	3
173.162498	17
173.974998	1
174.199997	1
174.399994	1
174.899994	1
175.100006	1
175.300003	2
176.199997	1
177.199997	1
177.399994	1
177.699997	1
178.100006	1
178.300003	1
178.500000	1
178.800003	1
179.899994	1
180.100006	1
180.300003	1
181.100006	1
181.500000	1
181.699997	1
182.174999	1
182.600006	2
183.199997	4
183.399994	3
183.800003	1
184.199997	2
184.424995	3
185.144734	14
185.699997	1
186.275002	1
186.899994	1
187.257894	7
188.100006	1
188.699997	1
189.109999	7
190.699997	1
191.000000	1
193.100006	1
193.300003	1
194.800003	1
195.300003	1
195.600006	1
196.000000	1
196.199997	1
196.399994	1
197.000000	2
198.374996	1
198.959998	4
199.216665	4
199.699997	1
200.475002	3
201.075005	1
201.300003	1
201.500000	1
201.924995	1
202.199997	2
202.949997	1
203.399994	1
203.699997	1
204.100006	1
204.349998	1
204.899994	1
205.300003	1
205.800003	1
206.899994	1
207.199997	1
208.199997	1
210.000000	1
211.140002	4
211.699997	1
212.500000	2
212.800003	1
213.199997	1
213.500000	2
213.949997	1
214.199997	1
214.600006	1
215.236361	4
215.699997	1
216.050003	1
216.399994	1
216.699997	1
217.449997	1
218.199997	1
218.449997	1
218.800003	1
219.250000	1
219.500000	1
221.000000	1
225.299997	4
225.950001	1
227.000000	1
227.199997	1
227.399994	1
227.849998	1
228.899994	1
229.199997	1
229.800003	1
230.300003	1
230.699997	1
230.899994	1
231.300003	1
231.699997	1
232.199997	1
234.300003	1
238.300003	1
239.399994	1
240.300003	1
241.800003	1
242.800003	1
243.399994	1
243.800003	1
244.399994	1
244.600006	1
247.000000	1
251.899994	1
255.199997	1
255.550003	1
261.200012	1
261.600006	1
273.299988	1
274.700012	1
276.000000	1
288.000000	1
303.100006	1
303.700012	1
