Mass spectrum: Brassicasterol; LC-APPI-QQ; MS2; CE:40 V; [M-H2O+H]+
Name: Brassicasterol
Class: Natural Product; Sterol
Formula: C28H46O
Exact mass: 398.35487
SMILES: C(C(C=CC(C)C(C4)C(C3C4)(C)CCC(C13)C(C2)(C(CC(C2)O)=CC1)C)C)(C)C
InChI: InChI=1S/C28H46O/c1-18(2)19(3)7-8-20(4)24-11-12-25-23-10-9-21-17-22(29)13-15-27(21,5)26(23)14-16-28(24,25)6/h7-9,18-20,22-26,29H,10-17H2,1-6H3/b8-7+/t19?,20?,22-,23?,24?,25?,26?,27?,28?/m0/s1
Instrument: API2000
Instrument type: LC-APPI-QQ
Ms type: MS2
Ion mode: POSITIVE
Retention time: 0.820850 min
Base peak: 159.100006
Precursor m/z: 381.400000
Precursor type: [M-H2O+H]+
m/z	relative intensity
38.900002	1
39.099998	1
39.299999	1
40.599998	1
40.956251	4
41.299999	1
41.700001	1
42.299999	1
43.046315	22
43.700001	1
51.000000	1
51.900002	1
52.700001	1
52.900002	1
53.275000	1
53.500000	1
55.073054	78
57.123848	257
58.299999	1
58.700001	1
61.299999	1
62.000000	1
63.299999	1
64.199997	1
64.599998	1
64.900002	2
65.099998	1
65.333336	2
67.104382	149
69.073247	965
71.120257	126
73.000000	1
75.699997	1
76.911766	8
78.030000	2
79.017195	103
81.084361	732
83.090438	462
85.117705	71
86.000000	1
88.599998	1
88.900002	1
89.574999	1
90.027272	3
91.032204	110
93.092499	403
95.055494	999
97.105587	208
98.099998	1
98.350002	1
99.099998	1
99.800003	1
100.199997	1
101.099998	1
102.000000	1
103.066666	3
103.400002	2
103.738096	5
105.051693	357
107.023035	515
109.077940	799
111.090361	77
112.099998	1
113.000000	1
113.400002	1
115.099998	1
115.300003	1
115.800003	1
117.010526	27
119.043694	310
121.095207	388
123.061218	267
124.099998	1
125.024444	21
125.900002	1
126.099998	1
126.750000	1
127.099998	1
127.840001	1
128.162500	2
129.140788	18
131.100000	171
133.109930	398
135.084558	557
137.044031	62
137.899994	1
138.399994	1
138.912495	2
139.300003	1
139.600006	1
140.625004	1
140.899994	1
141.100006	1
141.374996	1
142.112505	2
143.029670	42
145.086427	428
147.126111	848
149.126212	422
150.300003	1
151.122132	28
152.000000	1
152.199997	1
152.849998	1
153.100006	1
153.899994	1
154.399994	1
155.199997	1
155.399994	1
155.766668	1
156.208694	5
157.142424	92
159.121768	694
161.108773	811
162.084619	3
163.170623	198
164.940537	9
166.899994	1
167.100006	1
167.849998	1
168.100006	1
168.300003	1
168.674999	1
169.100006	2
169.349998	3
169.800003	1
171.079167	78
173.155490	555
174.199997	4
175.107460	262
176.199997	2
176.399994	1
177.196375	77
178.240002	1
179.240985	14
180.449997	1
180.699997	1
181.100006	1
181.300003	1
182.000000	1
182.349998	1
183.190908	5
185.149685	148
187.118545	396
189.195903	250
190.100006	1
190.300003	1
191.155197	36
192.000000	1
193.124998	7
193.800003	1
194.949997	1
195.300003	1
195.800003	1
196.299995	1
197.090000	9
197.423072	3
197.800003	2
198.038891	4
199.193124	223
201.140931	469
203.189433	180
204.399994	1
205.314703	16
205.899994	1
206.399994	1
207.300000	7
207.699997	1
208.399994	1
208.899994	1
209.399994	1
209.899994	1
210.399994	1
211.231252	7
213.168766	362
215.212304	401
216.399994	1
217.282269	66
218.000000	1
219.183167	23
220.000000	1
220.899994	2
221.146158	6
221.800003	1
222.399994	1
222.899994	1
223.899994	1
225.053575	7
227.227168	223
229.206100	145
230.150002	2
231.245497	49
232.199997	1
232.600006	1
233.274604	29
235.199997	1
237.000000	1
237.500000	1
238.000000	1
239.263157	22
241.242663	307
242.100006	2
243.316000	70
244.300003	1
245.280000	58
247.283869	14
248.100006	1
248.800003	1
249.300003	1
249.500000	1
250.699997	1
251.399994	1
251.699997	1
252.150002	1
252.500000	1
252.987499	4
253.326085	11
255.284177	294
256.337490	4
257.243444	57
258.100006	1
258.324989	1
259.428072	27
260.399994	1
260.750000	1
261.000000	1
261.337490	2
261.799988	1
265.600006	1
266.000000	1
266.600006	1
267.292855	7
269.284588	127
270.216675	1
271.252578	113
272.399994	1
273.299998	42
275.349991	1
277.600006	1
279.200012	1
279.600006	1
280.600006	1
281.000000	2
281.323528	4
282.276473	8
283.298411	88
284.100006	1
285.306297	59
286.100006	1
287.437039	6
288.899994	1
289.200012	1
293.000000	1
294.000000	1
294.600006	1
295.000000	1
295.428567	3
296.000000	3
297.317392	246
298.100006	1
298.399994	1
299.305032	74
300.100006	1
300.299988	1
301.050003	1
301.299988	1
301.700012	1
304.600006	1
307.200012	1
309.299988	1
309.733337	1
310.000000	1
310.216675	1
311.325542	86
312.100006	1
312.466665	1
313.313047	5
315.399994	1
315.600006	1
316.700012	1
319.100006	1
319.299988	1
320.899994	1
321.100006	1
321.500000	1
322.799988	1
323.150005	2
323.500000	1
323.750000	1
324.000000	1
324.762497	2
325.464208	22
326.399994	1
326.600006	1
327.100006	1
327.299988	1
327.500000	1
328.500000	3
332.899994	1
334.899994	1
335.500000	1
337.000000	1
337.399994	1
337.600006	1
338.200012	2
339.368419	9
340.200012	1
340.500000	1
340.700012	1
351.299988	1
351.500000	1
352.100006	1
352.299988	1
352.550003	1
353.366662	2
362.799988	1
363.000000	1
365.399994	1
366.381254	7
379.300003	1
380.000000	1
381.408154	593
382.299988	1
382.600006	1
