Mass spectrum: beta-Estradiol; LC-APPI-QQ; MS2; CE:30 V; [M-H2O+H]+
Name: beta-Estradiol
Class: Natural Product; Steroid hormone
Formula: C18H24O2
Exact mass: 272.17763
SMILES: Oc(c4)cc(C3)c(c4)C(C2)C(C3)C(C1)C(C)(C2)C(O)C1
InChI: InChI=1S/C18H24O2/c1-18-9-8-14-13-5-3-12(19)10-11(13)2-4-15(14)16(18)6-7-17(18)20/h3,5,10,14-17,19-20H,2,4,6-9H2,1H3/t14?,15?,16?,17-,18?/m0/s1
Instrument: API2000
Instrument type: LC-APPI-QQ
Ms type: MS2
Ion mode: POSITIVE
Retention time: 0.820850 min
Base peak: 159.199997
Precursor m/z: 255.000000
Precursor type: [M-H2O+H]+
m/z	relative intensity
38.799999	1
39.299999	1
40.799999	1
41.000000	1
42.200001	1
42.400002	1
43.020000	1
51.099998	1
52.900002	1
53.300000	1
53.700001	1
54.099998	1
54.564285	1
55.023457	3
55.900002	1
56.500000	1
56.700001	1
57.074999	1
57.400002	1
58.700001	1
59.400002	1
59.799999	1
63.799999	1
64.000000	1
64.400002	1
65.112498	1
65.500000	1
67.103034	31
69.108421	19
70.300003	1
70.599998	1
70.800003	1
71.000000	1
71.300003	1
73.300003	1
75.099998	1
75.500000	1
76.000000	1
77.063636	1
77.900002	1
79.066101	2
81.096222	30
82.100000	1
83.142157	2
85.000000	1
85.199997	1
89.049999	1
89.300003	1
90.199997	1
91.096986	4
91.800003	1
93.094118	5
95.073437	100
96.500000	1
97.096226	1
98.199997	1
98.800003	1
99.099998	1
99.500000	1
102.350000	1
103.026667	1
105.053372	9
107.041558	25
109.101266	114
111.113792	2
113.500000	1
113.800003	1
114.099998	1
115.113008	2
116.139131	1
117.084159	2
118.270001	1
119.009756	1
121.073485	10
121.950001	1
123.091975	6
124.000000	1
124.699997	1
125.149998	1
127.084483	2
128.018184	1
129.073426	3
131.128283	33
133.096065	344
134.300003	1
135.091340	13
136.100006	1
136.849998	1
137.300003	1
137.800003	1
138.199997	1
139.000000	1
139.199997	1
139.500000	1
141.115843	23
145.069451	81
147.122056	31
149.065384	1
149.800003	1
150.750000	1
151.199997	1
151.600006	1
151.899994	1
152.399994	1
152.939996	1
153.299996	1
154.300003	1
154.699997	1
155.059999	1
155.600006	1
159.106485	999
161.088168	9
161.800003	1
162.000000	1
162.199997	1
162.600006	1
163.100006	1
163.300003	1
163.949997	1
164.300003	1
164.874996	1
165.100006	1
165.899994	1
166.199997	1
167.094447	1
168.000000	1
168.271426	1
169.081819	3
171.019872	3
173.127630	28
173.899994	1
174.199997	1
175.160001	1
175.399994	1
176.699997	1
176.899994	1
177.250000	1
177.600006	1
178.349998	1
179.300003	1
179.500000	1
179.699997	1
180.000000	1
181.057143	1
181.900002	1
182.300003	1
182.729999	1
183.150000	1
183.500000	1
183.800003	1
184.152941	1
185.082646	8
186.180002	1
187.153032	1
188.600006	1
189.349998	1
190.199997	1
190.600006	1
192.966665	1
193.600006	1
193.849998	1
194.199997	1
194.575005	1
194.849998	1
195.266665	1
196.067857	1
196.800003	1
197.088894	1
197.354544	1
197.899994	1
199.160705	14
200.000000	1
200.316668	1
200.899994	1
201.150002	1
201.399994	1
201.700002	1
204.100006	1
205.399994	1
205.600006	1
207.699997	1
208.199997	1
208.399994	1
209.177779	1
209.800003	1
210.199997	1
210.600006	1
211.061905	1
212.055261	1
213.193458	4
213.899999	1
214.300003	1
214.699997	1
215.000000	1
218.600006	1
219.000000	1
219.300003	1
219.899994	1
221.100006	1
221.899994	1
222.399994	1
223.161476	2
224.050003	1
224.699997	1
225.266668	1
226.186047	1
226.800003	1
227.205556	1
236.899997	1
237.346151	1
238.300003	1
238.800003	1
239.200002	1
240.300003	1
240.699997	1
251.699997	1
252.199997	1
252.399994	1
252.750000	1
253.000000	1
253.400000	1
255.268391	64
256.200012	1
256.399994	1
269.399994	1
