Mass spectrum: Androsterone; LC-APPI-QQ; MS2; CE:40 V; [M-2H2O+H]+
Name: Androsterone
Class: Natural Product; Steroid hormone
Formula: C19H30O2
Exact mass: 290.22458
SMILES: OC(C4)CC([H])(C3)C(C)(C4)C(C2)C(C3)C(C1)C(C)(C2)C(=O)C1
InChI: InChI=1S/C19H30O2/c1-18-9-7-13(20)11-12(18)3-4-14-15-5-6-17(21)19(15,2)10-8-16(14)18/h12-16,20H,3-11H2,1-2H3/t12-,13+,14?,15?,16?,18?,19?/m0/s1
Instrument: API2000
Instrument type: LC-APPI-QQ
Ms type: MS2
Ion mode: POSITIVE
Retention time: 0.820833 min
Base peak: 91.199997
Precursor m/z: 255.300000
Precursor type: [M-H2O+H]+
m/z	relative intensity
39.000000	1
39.500000	1
40.366667	1
41.020833	6
41.799999	1
42.099998	1
42.400002	1
43.061842	10
44.099998	1
44.900002	1
49.900002	1
50.299999	1
51.030000	1
51.549999	1
51.799999	1
52.200001	1
52.599998	1
53.150000	2
53.442858	2
55.089967	118
56.049999	1
56.299999	1
56.958334	3
57.400002	2
57.900002	1
58.500000	1
59.000000	1
59.299999	1
62.099998	1
63.099998	1
63.599998	1
63.900002	1
64.973685	5
67.105175	402
69.121566	103
70.000000	1
70.500000	1
71.057896	3
71.699997	1
72.699997	1
73.500000	1
74.199997	1
74.850002	1
75.500000	1
75.699997	1
77.089884	91
79.051398	537
81.099286	923
83.127244	82
84.099998	1
84.599998	1
85.250000	1
86.599998	1
86.900002	1
87.099998	1
87.599998	1
87.900002	1
88.300001	1
91.059380	696
93.099791	629
95.070025	544
96.300003	1
97.052380	6
97.483334	2
99.900002	1
100.866666	1
101.699997	1
103.154500	26
105.039942	999
107.055495	387
109.106406	148
110.099998	1
110.300003	1
110.699997	1
111.049999	1
111.500000	1
112.000000	1
113.500000	1
115.078103	36
117.105272	245
119.079553	430
121.106008	136
122.099998	1
123.096907	26
124.699997	1
125.350002	1
125.800003	1
127.009524	6
129.095016	166
131.132795	432
133.138966	229
135.123860	75
135.949997	1
136.500000	1
137.187498	1
137.399994	1
139.250000	1
139.550003	1
139.800003	1
140.050003	1
141.190624	21
143.085920	311
145.106602	710
147.141240	293
149.161413	48
149.800003	1
150.000000	1
150.500000	1
150.699997	1
151.175003	1
151.500000	1
151.899994	1
152.800003	1
153.399994	1
153.964284	2
155.090961	23
157.152414	245
159.136535	334
161.120851	248
163.181482	7
164.300003	1
164.800003	1
165.100006	1
165.800003	1
166.300000	1
167.067859	4
168.194870	5
169.113120	37
171.106028	197
173.188120	268
174.139999	3
175.182287	46
176.199997	1
176.399994	1
176.849998	1
177.342854	2
177.899994	1
178.800003	1
179.166667	1
179.399994	1
179.600006	1
180.100006	1
180.699997	1
181.037500	2
182.106250	4
183.187136	23
185.151855	188
187.187168	89
187.899994	1
189.208334	21
192.100006	1
192.500000	1
192.899994	1
193.300003	1
193.800003	1
194.349998	1
194.862497	2
197.218750	29
199.215593	339
200.173831	28
201.210611	41
202.699997	1
203.000000	1
204.300003	1
207.399994	1
208.050003	1
208.500000	1
209.300003	1
209.899994	1
210.166667	1
211.131034	23
212.247825	6
213.219713	73
214.202940	9
214.899994	1
215.199997	1
219.100006	1
221.000000	1
221.899994	1
222.500000	1
223.087500	2
224.199997	1
225.250944	14
226.169468	17
227.217297	24
236.800003	1
237.500000	1
238.000000	1
238.199997	1
239.200003	2
239.500000	1
240.326924	14
241.000000	1
251.000000	1
251.600006	1
252.299998	1
253.257894	5
253.600006	2
253.899994	1
255.329167	215
256.299988	1
256.600006	1
257.100006	1
278.200012	1
279.299988	1
