Mass spectrum: Dihydrotestosterone; LC-APPI-QQ; MS2; CE:20 V; [M+H]+
Name: Dihydrotestosterone
Class: Natural Product; Steroid hormone
Formula: C19H30O2
Exact mass: 290.22458
SMILES: O=C(C4)CC([H])(C3)C(C)(C4)C(C2)C(C3)C(C1)C(C)(C2)C(O)C1
InChI: InChI=1S/C19H30O2/c1-18-9-7-13(20)11-12(18)3-4-14-15-5-6-17(21)19(15,2)10-8-16(14)18/h12,14-17,21H,3-11H2,1-2H3/t12-,14?,15?,16?,17-,18?,19?/m0/s1
Instrument: API2000
Instrument type: LC-APPI-QQ
Ms type: MS2
Ion mode: POSITIVE
Retention time: 0.820850 min
Base peak: 291.200012
Precursor m/z: 291.300000
Precursor type: [M+H]+
m/z	relative intensity
43.299999	1
54.900002	1
55.500000	1
55.700001	1
57.200001	1
57.400002	1
67.149998	2
68.800003	1
70.199997	1
71.099998	2
72.599998	1
73.800003	1
74.000000	1
78.900002	1
79.800003	2
80.699997	3
81.160000	20
83.099998	1
83.350002	2
84.599998	1
84.900002	1
85.099998	3
89.800003	1
90.199997	1
90.599998	3
90.800003	3
91.000000	3
91.300003	5
92.199997	1
92.599998	2
92.800003	4
93.099998	7
93.316669	6
93.900002	2
94.816669	6
95.199998	5
96.199997	1
96.599998	1
96.900002	1
97.300003	1
98.000000	2
98.880002	10
99.337502	8
101.300003	3
104.450001	2
104.888237	17
106.500000	3
106.900002	16
107.219998	10
107.599998	1
108.599998	3
109.119998	10
109.400002	2
110.400002	1
111.300003	4
111.500000	2
116.599998	1
118.199997	1
118.699997	3
119.199997	9
120.400002	2
120.599998	1
121.099998	7
121.316669	6
122.599998	4
123.033333	6
123.400002	2
123.599998	1
124.800003	1
125.049999	2
127.099998	1
129.100006	2
129.300003	4
130.899994	1
131.100006	5
131.399994	2
131.600006	1
133.000000	7
134.000000	1
134.899999	6
135.199997	5
136.750000	2
137.100001	6
139.100006	1
141.250000	2
142.000000	1
142.699997	1
143.349998	4
144.399994	2
145.105556	36
146.199997	1
146.699997	2
147.219998	10
148.699997	3
149.075005	4
149.500000	1
150.199997	1
150.500000	1
150.899994	2
151.300003	2
156.600006	1
156.800003	1
157.100006	1
157.300003	2
159.141379	29
160.500000	5
160.859998	10
161.138465	13
163.000000	5
163.399994	2
164.300003	1
165.000000	2
165.199997	1
166.899994	1
167.449997	2
168.199997	1
168.500000	1
168.899994	1
169.250000	2
170.600006	3
170.800003	3
171.333333	6
171.699997	1
172.250000	2
173.162500	32
174.000000	1
174.199997	1
174.399994	1
175.171430	14
176.699997	1
177.000000	7
177.300003	3
177.849998	2
178.100006	1
178.399994	2
178.849998	4
179.100006	4
179.500000	1
180.800003	2
181.100001	3
181.399994	1
182.150002	2
182.399994	1
182.699997	2
183.050003	6
183.300003	3
185.218182	33
186.833333	6
187.399994	3
187.699997	1
188.100006	1
188.399994	1
188.699997	2
189.199997	6
189.500000	4
191.100006	6
191.500000	2
191.699997	1
193.100006	1
193.300003	2
194.800003	2
195.100006	1
195.399994	1
195.899994	2
196.800003	1
197.357138	7
197.800003	1
198.199997	1
198.399994	1
199.273333	60
200.100006	1
201.147619	42
202.300003	1
202.600006	1
203.183332	6
203.500000	3
204.399994	1
204.874996	4
205.200002	3
206.300003	1
206.699997	1
206.899994	1
207.199997	1
207.449997	2
209.050003	2
209.500000	1
211.699997	1
212.699997	6
212.899994	7
213.257141	14
214.500000	1
215.266668	36
216.000000	2
216.199997	1
216.800003	1
217.000000	5
217.550003	2
218.899994	3
219.500000	1
219.800003	1
220.100006	1
220.399994	2
220.899994	2
221.300003	1
221.500000	1
225.300003	1
226.100006	1
226.300003	1
226.600006	1
226.800003	2
227.200001	8
227.699997	1
228.150002	2
229.000000	3
229.262501	8
229.500000	1
230.300003	1
231.100006	6
231.399994	6
231.600006	1
231.899994	1
232.199997	4
232.800003	1
233.012501	8
233.560001	5
233.949997	2
234.899994	1
235.100006	1
235.300003	2
237.100006	1
237.300003	1
240.000000	1
241.150002	2
241.500000	1
243.000000	1
243.199997	1
244.000000	1
244.924995	4
245.300003	1
245.500000	2
245.800003	1
247.299998	3
247.600006	3
248.150002	2
248.399994	2
249.000000	2
249.575005	4
253.300003	1
254.328570	7
255.355024	400
256.449997	2
258.399994	1
259.100006	4
259.349991	14
260.899994	1
261.100006	1
262.000000	1
262.299988	1
262.500000	1
262.750000	2
263.233337	6
272.200012	1
273.353604	97
274.000000	2
274.200012	1
274.399994	1
274.650009	2
275.150009	2
275.600006	1
276.100006	2
276.399994	1
276.600006	1
291.314989	999
292.299988	1
