Mass spectrum: Epiandrosterone; LC-APPI-QQ; MS2; CE:10 V; [M-H2O+H]+
Name: Epiandrosterone
Name: 3-beta-Hydroxy-5alpha-androstan-17-one
Class: Natural Product; Steroid hormone
Formula: C19H30O2
Exact mass: 290.22458
SMILES: OC(C4)CC([H])(C3)C(C)(C4)C(C2)C(C3)C(C1)C(C)(C2)C(=O)C1
InChI: InChI=1S/C19H30O2/c1-18-9-7-13(20)11-12(18)3-4-14-15-5-6-17(21)19(15,2)10-8-16(14)18/h12-16,20H,3-11H2,1-2H3/t12-,13-,14?,15?,16?,18?,19?/m0/s1
Instrument: API2000
Instrument type: LC-APPI-QQ
Ms type: MS2
Ion mode: POSITIVE
Retention time: 0.820850 min
Base peak: 273.299988
Precursor m/z: 273.300000
Precursor type: [M-H2O+H]+
m/z	relative intensity
66.800003	1
69.300003	1
71.099998	1
78.800003	1
79.099998	1
79.400002	1
80.866667	1
81.350002	1
83.099998	1
83.400002	1
84.400002	1
85.037500	1
89.500000	1
90.800001	1
92.699997	1
92.960001	1
93.350002	1
94.000000	1
94.599998	1
95.099998	1
96.300003	1
97.099998	1
97.300003	1
98.599998	1
99.099998	1
103.000000	1
104.400002	1
104.699997	1
105.160001	1
105.900002	1
106.976787	1
109.057142	1
110.199997	1
110.500000	1
111.000000	1
111.300003	1
112.400002	1
113.300003	1
116.400002	1
116.699997	1
116.900002	1
117.199997	1
118.000000	1
118.599998	1
119.019047	1
119.400002	1
120.099998	1
120.300003	1
120.579999	1
121.141176	1
121.674997	1
122.713334	1
123.169230	1
123.800003	1
124.300003	1
124.850002	1
125.300003	1
125.800003	1
129.199997	1
129.399994	1
129.600006	1
130.000000	1
130.600006	1
130.899994	1
131.266668	1
132.300003	1
133.113044	1
133.699997	1
134.000000	1
135.127779	3
135.800003	1
137.130000	1
137.899994	1
139.000000	1
142.300003	1
142.600006	1
142.899994	1
143.199997	1
143.550003	1
143.949997	1
145.137804	3
146.171428	1
147.181093	9
148.000000	1
149.243332	1
150.399994	1
151.254545	1
153.600006	1
153.899994	1
154.199997	1
156.699997	1
157.000000	1
157.399994	1
157.700005	1
158.199997	1
159.100770	5
160.000000	1
161.158871	18
162.033330	1
163.120370	2
165.000003	1
165.362497	1
167.100006	1
170.000000	1
171.022224	1
171.316668	1
172.100006	1
173.147961	2
173.949997	1
175.149607	5
175.899994	1
176.100006	1
177.061110	1
177.439996	1
179.000000	1
179.300003	1
179.500000	1
180.800003	1
181.300003	1
182.050003	1
182.500000	1
183.100006	1
183.300003	1
184.100006	1
185.167504	1
186.000000	1
187.189474	2
187.899994	1
188.100006	1
188.699997	1
189.113335	1
189.399994	1
189.899994	1
190.300003	1
190.800003	1
191.220588	1
195.300003	1
196.899994	1
198.275002	1
199.194797	6
200.100006	1
200.500000	1
201.178001	2
201.899994	1
202.199997	1
203.144576	1
204.899994	1
205.199997	1
205.399994	1
207.399994	1
208.899994	1
209.199997	1
211.300003	1
212.150002	1
213.124052	3
214.199997	1
215.233500	4
216.000000	1
216.300003	1
217.000000	1
217.285713	1
223.399994	1
223.899994	1
225.100006	1
225.300003	1
225.800003	1
226.100006	1
226.300003	1
227.240351	2
228.199997	1
228.899994	1
229.399994	1
229.699997	1
231.000000	1
231.300003	1
237.699997	1
238.300003	1
239.399994	1
239.899994	1
240.100006	1
240.300003	1
240.533335	1
240.924995	1
241.299999	1
241.800003	1
242.899994	1
243.300003	1
244.300003	1
245.000000	1
245.800003	1
250.899994	1
251.650002	1
252.000000	1
252.500000	1
252.800003	1
253.150002	1
253.399994	1
253.600006	1
255.312282	174
258.424995	1
258.700012	1
265.299988	1
266.399994	1
267.600006	1
269.100006	1
269.399994	1
269.600006	1
269.799988	1
270.000000	1
270.200012	1
273.322515	999
274.799994	1
275.100006	1
275.399994	1
