Mass spectrum: Estriol; LC-APPI-QQ; MS2; CE:60 V; [M-2H2O+H]+
Name: Estriol
Class: Natural Product; Steroid hormone
Formula: C18H24O3
Exact mass: 288.17254
SMILES: Oc(c4)cc(C3)c(c4)C(C2)C(C3)C(C1)C(C)(C2)C(O)C(O)1
InChI: InChI=1S/C18H24O3/c1-18-7-6-13-12-5-3-11(19)8-10(12)2-4-14(13)15(18)9-16(20)17(18)21/h3,5,8,13-17,19-21H,2,4,6-7,9H2,1H3/t13?,14?,15?,16-,17+,18?/m1/s1
Instrument: API2000
Instrument type: LC-APPI-QQ
Ms type: MS2
Ion mode: POSITIVE
Retention time: 0.820833 min
Base peak: 152.800003
Precursor m/z: 253.200000
Precursor type: [M-2H2O+H]+
m/z	relative intensity
31.299999	1
38.875001	2
39.500000	1
39.900002	1
41.111905	68
42.000000	2
42.400002	1
43.143333	32
44.500000	1
44.900002	1
45.299999	1
50.799999	1
51.200001	1
51.450001	2
51.700001	1
52.000000	1
52.299999	1
52.500000	1
52.921430	15
53.203572	15
55.094264	281
56.000000	1
56.400002	1
56.700001	2
57.299999	1
57.799999	1
58.200001	1
58.400002	1
58.599998	1
58.850000	1
59.099998	1
59.299999	1
59.599998	1
59.900002	1
62.400002	1
62.799999	2
63.074999	2
63.299999	2
63.500000	1
63.875001	2
64.266668	3
65.081133	57
67.091954	468
68.199997	1
68.895002	22
71.300003	1
73.199997	2
73.950001	1
74.250000	1
74.549999	3
75.059999	5
75.699997	3
77.029179	708
79.006997	630
81.103210	335
82.300003	1
82.599998	2
82.900002	2
83.450001	1
84.900002	1
85.599998	1
86.099998	1
86.500000	1
87.000000	1
88.099998	1
88.836364	6
91.025418	643
92.377779	19
93.065547	128
94.400002	8
95.059757	88
96.800003	1
98.500000	1
98.699997	1
99.300003	1
100.099998	1
100.900002	5
101.300003	3
102.261539	14
103.041026	210
105.013268	438
107.006312	273
108.199997	1
108.400002	1
109.099998	2
109.599998	1
111.500000	1
111.699997	1
111.900002	1
113.233332	3
115.029611	636
116.079399	125
117.011047	92
117.900002	3
118.199997	2
118.599998	2
118.858335	6
119.108332	6
119.899999	8
121.000000	14
121.900002	2
122.099998	1
122.699997	1
123.199999	2
124.300003	1
124.800003	3
127.066584	650
128.050163	999
129.068423	286
131.077381	361
131.772729	12
132.073534	18
133.019644	90
135.000000	1
135.600006	1
136.300003	1
137.100001	3
137.800000	3
138.100006	2
138.300003	3
139.061111	77
141.098592	382
142.065385	28
144.051047	386
145.034337	179
146.066666	3
146.399994	2
147.259998	3
148.100006	1
148.399994	2
148.699997	2
149.100006	1
149.300003	1
151.147736	131
152.064015	568
153.047464	594
154.092763	163
155.065608	203
157.091602	832
159.019232	28
161.100006	1
161.349998	1
161.600006	1
162.199997	3
163.256248	17
165.075258	939
167.104459	169
168.071738	74
169.038151	186
170.061074	80
171.004294	88
172.000000	1
172.449997	1
172.899994	2
173.100006	1
173.500000	1
174.000000	1
174.300003	1
174.699997	1
175.100006	2
176.071430	34
177.097598	112
178.135389	401
179.118975	283
181.041677	859
182.087075	316
183.093219	222
184.280002	5
184.916662	3
185.374996	4
187.500000	1
188.000000	1
189.131580	20
190.145835	26
191.121052	41
192.300003	4
192.699997	5
192.899994	16
194.169865	79
195.109815	175
196.064585	52
197.135714	90
198.142857	15
199.800003	2
200.000000	1
200.449997	1
200.874996	2
201.374996	2
201.699997	1
202.275002	9
203.181081	20
203.800003	3
205.069231	14
206.199997	2
207.100006	9
208.044184	23
209.300003	17
210.100006	5
210.300003	6
211.358334	13
211.899994	2
214.800003	1
215.000000	1
215.300003	1
215.500000	1
216.100006	1
217.000000	2
217.474998	2
218.000000	1
218.349998	2
218.783335	3
219.120001	5
219.399994	1
219.800003	1
220.000000	1
220.300003	1
221.177777	10
222.000000	4
223.110005	11
223.800003	1
224.199997	1
224.849998	1
225.275002	2
225.899994	1
231.399994	1
233.100006	1
234.000000	1
235.250000	1
236.100006	1
236.600006	1
236.899999	2
237.300003	2
237.699997	1
238.100006	1
249.699997	1
250.000000	1
252.000000	1
252.800003	1
253.300003	1
