Mass spectrum: Coprostanol; LC-APPI-QQ; MS2; CE:10 V; [M-H2O+H]+
Name: Coprostanol
Class: Natural Product; Sterol
Formula: C27H48O
Exact mass: 388.37052
SMILES: C(C)(C1)(C(C(C)CCCC(C)C)4)C(CC4)C(C2)C(C(C)(C3)C([H])(CC(C3)O)C2)C1
InChI: InChI=1S/C27H48O/c1-18(2)7-6-8-19(3)23-11-12-24-22-10-9-20-17-21(28)13-15-26(20,4)25(22)14-16-27(23,24)5/h18-25,28H,6-17H2,1-5H3/t19?,20-,21+,22?,23?,24?,25?,26?,27?/m1/s1
Instrument: API2000, Applied
Instrument type: LC-APPI-QQ
Ms type: MS2
Ion mode: POSITIVE
Retention time: 0.820833 min
Base peak: 371.299988
Precursor m/z: 371.466000
Precursor type: [M-H2O+H]+
m/z	relative intensity
67.000000	1
70.900002	1
71.199997	1
72.900002	1
80.875002	1
81.149998	1
82.699997	1
82.900002	1
83.199997	1
93.850002	1
95.046667	2
96.500000	1
97.033334	1
105.900002	1
106.649998	1
106.900002	1
108.000000	1
108.941668	2
109.300003	1
109.800003	1
110.957144	1
111.277779	1
113.000000	1
119.599998	1
120.500000	1
120.966667	1
121.375002	1
122.000000	1
122.199997	1
122.450001	1
122.800003	1
123.144442	1
125.066666	1
125.316669	1
127.099998	1
127.300003	1
128.699997	1
129.300003	1
133.899994	1
134.399994	1
135.037502	2
135.699997	1
135.899994	1
136.500000	1
137.110002	1
138.600006	1
139.050003	1
139.300003	1
140.800003	1
146.799998	1
148.399994	1
149.114287	3
150.891661	1
151.250000	1
152.000000	1
153.100006	1
153.500000	1
161.000000	1
161.300003	1
162.399994	1
163.026087	3
165.239998	1
167.000000	1
174.300003	1
174.500000	1
175.075005	1
175.325001	1
176.199997	1
177.088000	3
178.399994	1
179.291304	2
181.133336	1
181.699997	1
189.116671	1
191.157894	3
192.000000	1
193.318182	2
194.199997	1
195.199997	1
201.399994	1
203.056252	2
203.500000	1
203.699997	1
204.936361	2
205.288884	1
206.100006	1
207.173338	2
214.600006	1
215.000000	1
215.250000	1
215.899999	1
216.300003	1
217.182353	2
218.199997	1
219.129630	2
221.139999	1
221.444441	1
223.300003	1
230.500000	1
231.328571	2
231.899994	1
232.449997	1
233.208333	2
234.500000	1
234.800003	1
235.266666	1
235.600006	1
241.100006	1
241.349998	1
241.600006	1
243.300003	1
243.899994	1
244.500000	1
245.168888	3
245.800003	1
246.600006	1
247.231818	3
249.500000	1
249.800003	1
257.399994	1
257.650009	1
258.299988	1
259.279999	2
259.700012	1
261.321051	3
262.799988	1
263.000000	1
263.200012	1
263.399994	1
273.274994	1
273.500000	1
274.449997	1
275.381248	2
277.200012	1
278.000000	1
279.000000	1
279.200012	1
285.100006	1
286.000000	1
286.924995	1
287.339990	1
289.291667	2
289.899994	1
291.299988	1
293.000000	1
297.100006	1
300.200012	1
301.163644	1
301.600006	1
302.500000	1
302.899994	1
303.399994	1
303.750000	1
314.200012	1
314.600006	1
315.000000	1
315.200012	1
315.600006	1
317.000000	1
328.200012	1
329.299988	1
329.600006	1
330.000000	1
338.200012	1
343.600006	1
353.600006	1
353.799988	1
355.000000	1
355.349991	1
355.799988	1
356.100006	1
356.399994	1
359.100006	1
366.500000	1
367.600006	1
368.100006	1
368.299988	1
368.500000	1
368.949997	1
369.399994	1
369.700012	1
371.414638	999
372.525002	1
372.899994	1
