Mass spectrum: beta-Sitosterol; LC-APPI-QQ; MS2; CE:30 V; [M-H2O+H]+
Name: beta-Sitosterol
Class: Natural Product; Sterol
Formula: C29H50O
Exact mass: 414.38617
SMILES: C(C4)C(C(CC4O)=3)(C(C(CC3)2)CCC(C21)(C(CC1)C(C)CCC(C(C)C)CC)C)C
InChI: InChI=1S/C29H50O/c1-7-21(19(2)3)9-8-20(4)25-12-13-26-24-11-10-22-18-23(30)14-16-28(22,5)27(24)15-17-29(25,26)6/h10,19-21,23-27,30H,7-9,11-18H2,1-6H3/t20?,21?,23-,24?,25?,26?,27?,28?,29?/m0/s1
Instrument: API2000
Instrument type: LC-APPI-QQ
Ms type: MS2
Ion mode: POSITIVE
Retention time: 0.820867 min
Base peak: 91.099998
Precursor m/z: 397.600000
Precursor type: [M-H2O+H]+
m/z	relative intensity
45.049999	4
54.700001	6
54.900002	4
55.299999	2
56.000000	2
56.500000	2
56.900002	6
57.099998	8
57.400002	8
66.400002	4
66.800003	4
67.124998	8
67.450001	4
69.340001	20
70.500000	8
70.900002	18
71.341669	25
76.900002	2
77.099998	2
78.500000	2
78.699997	2
79.000000	2
79.300003	4
79.699997	4
79.900002	4
80.099998	2
81.103449	118
81.800003	4
82.099998	2
82.936364	45
83.800003	4
84.199997	4
84.699997	12
84.921430	29
85.300003	14
89.000000	2
90.000000	2
90.699997	4
91.099998	6
93.020000	20
94.199997	4
95.015386	106
95.800003	4
96.400002	6
97.142857	57
97.900002	4
98.900002	6
99.300003	2
99.500000	4
103.000000	2
103.400002	2
104.875000	33
105.300003	12
106.049999	4
106.500000	8
107.099998	27
108.487500	16
109.072972	151
111.049999	33
111.800003	2
112.450001	4
112.950001	8
113.199997	8
117.300003	2
118.300003	2
118.699997	10
119.099999	51
119.900002	2
120.400002	6
120.984210	78
121.400002	20
121.900002	2
122.224998	8
122.821431	29
123.245833	49
125.124998	16
125.400002	12
127.000000	2
127.300003	2
128.899994	2
129.100006	2
129.500000	2
130.600006	2
131.100006	4
131.300003	4
131.500000	4
132.100006	2
133.121433	29
133.899994	6
135.075000	261
136.199997	4
136.977776	55
138.800003	10
139.300003	4
141.300003	2
144.349998	8
144.833333	12
145.250000	4
145.700005	8
146.100006	10
147.131405	247
147.800003	6
148.150002	8
148.891110	92
149.899994	2
151.107142	29
151.525002	8
153.150002	4
157.500000	4
158.100006	4
158.699997	6
159.066666	12
159.399994	4
159.699997	10
161.084417	315
161.800003	4
162.150002	4
162.500000	4
163.035715	86
164.000000	2
164.500000	4
164.899994	8
165.116671	12
172.000000	4
172.500000	2
172.899994	2
173.150002	4
173.399994	2
173.650002	4
174.049999	8
174.500000	10
175.045003	82
175.949997	8
176.399994	2
176.899994	12
177.360001	20
178.000000	2
178.300003	4
178.949997	4
179.339996	10
182.899994	2
186.300003	2
186.600006	2
187.000002	16
188.349998	8
189.033334	49
190.100006	2
190.600006	6
191.000000	6
191.199997	8
191.399994	4
193.050003	4
193.300003	2
193.500000	2
197.300003	2
199.100006	2
199.300003	2
200.100001	6
201.303225	63
202.100006	2
202.300003	2
203.110527	78
203.520001	20
204.600006	2
204.899994	6
207.250000	8
211.349998	4
213.600006	2
213.800003	8
214.399994	6
215.257143	57
216.100006	4
216.500000	2
217.061903	43
217.525002	16
218.199997	2
218.399994	2
218.600006	4
219.099998	8
219.500000	4
219.699997	2
220.300003	2
220.800003	4
221.133336	12
221.699997	4
223.300003	2
225.000000	2
225.399994	2
227.100006	2
227.600006	2
227.800003	2
229.371425	29
231.200000	10
232.800003	4
233.100006	8
233.500000	6
234.300003	2
235.000000	6
235.600006	4
239.100006	2
239.399994	4
240.899994	2
241.150002	4
242.500000	4
243.276189	86
244.000000	2
245.100006	4
245.699997	2
246.800003	2
247.283335	12
247.525002	8
249.050003	4
249.500000	4
254.300003	2
254.500000	4
255.000000	4
255.300003	10
255.500000	2
255.833328	12
256.399994	6
257.271423	57
257.899994	4
258.200012	2
259.600006	4
259.899994	2
261.308696	47
262.899994	4
263.100006	4
269.200012	2
270.399994	2
270.899994	2
271.299988	8
271.525002	8
272.700012	2
273.100006	2
273.316655	12
273.675011	8
273.899994	4
274.600006	2
274.899994	2
275.299988	12
275.577783	18
276.000000	2
283.200012	4
284.000000	4
284.299988	2
285.100006	10
285.433329	12
286.100006	2
287.235718	57
288.600006	4
289.000000	2
289.399994	6
289.700012	4
295.200012	2
297.399994	2
298.200012	2
299.000000	10
299.283325	12
299.583338	12
301.050003	20
301.437496	16
302.899994	2
303.299988	4
311.299988	2
311.899994	2
313.399994	4
313.600006	4
315.000000	16
315.255554	37
315.500000	14
316.100006	2
317.200012	2
318.000000	2
324.600006	2
327.000000	2
327.200012	4
327.500000	8
329.100006	4
329.299988	2
329.500000	4
337.799988	2
339.500000	2
340.299988	2
341.200012	4
341.583338	12
341.799988	2
353.299988	2
354.500000	6
355.200012	2
355.500000	2
355.799988	2
361.600006	2
369.200012	2
369.500000	2
379.299988	2
379.700012	2
382.374992	8
382.650009	4
382.899994	2
396.200012	4
397.402456	999
398.500000	4
399.399994	2
