Mass spectrum: Dihydrotestosterone; LC-APPI-QQ; MS2; CE:30 V; [M+H]+
Name: Dihydrotestosterone
Class: Natural Product; Steroid hormone
Formula: C19H30O2
Exact mass: 290.22458
SMILES: O=C(C4)CC([H])(C3)C(C)(C4)C(C2)C(C3)C(C1)C(C)(C2)C(O)C1
InChI: InChI=1S/C19H30O2/c1-18-9-7-13(20)11-12(18)3-4-14-15-5-6-17(21)19(15,2)10-8-16(14)18/h12,14-17,21H,3-11H2,1-2H3/t12-,14?,15?,16?,17-,18?,19?/m0/s1
Instrument: API2000
Instrument type: LC-APPI-QQ
Ms type: MS2
Ion mode: POSITIVE
Retention time: 0.820850 min
Base peak: 145.100006
Precursor m/z: 291.300000
Precursor type: [M+H]+
m/z	relative intensity
41.099998	4
42.000000	9
43.000000	9
45.400002	4
53.900002	4
54.500000	4
55.000000	9
55.400002	9
56.900002	4
57.400002	4
59.099998	4
66.800003	4
67.000000	9
67.300003	9
68.699997	9
69.000000	13
69.199997	18
70.300003	13
71.100000	76
73.300003	4
74.000000	4
78.099998	4
79.100000	45
80.300003	9
81.079311	259
82.099998	4
83.000000	18
84.099998	4
85.333333	27
86.900002	4
89.000000	9
89.199997	4
90.500000	13
90.800003	22
91.187501	71
91.500000	9
92.599998	18
93.255554	80
93.699997	4
93.900002	4
94.099998	4
94.300003	13
94.840912	98
95.400002	31
96.099998	4
96.599998	13
97.181250	71
98.099998	9
98.574999	18
98.982609	103
99.300003	40
99.800003	4
100.500000	4
100.850002	9
101.099998	4
101.350002	9
103.250000	9
105.021877	143
105.800003	9
107.154053	165
108.099998	13
108.400002	9
109.057142	62
109.370002	45
109.599998	13
109.800003	13
110.000000	9
110.500000	13
111.088888	80
113.000000	4
114.800003	4
115.099998	4
115.300003	4
116.750000	18
117.300003	13
118.000000	9
118.599998	13
119.153844	116
119.900002	4
121.110525	85
122.000000	13
122.199997	9
122.899999	62
124.099998	4
124.300003	4
124.800003	4
125.099998	4
125.400002	9
128.300003	4
128.874996	18
129.100006	13
129.300003	9
129.500000	4
129.899994	4
130.399994	4
130.988890	80
131.300003	31
131.699997	4
131.899994	4
133.165521	129
133.899994	4
134.800003	49
135.177778	161
135.800003	4
136.199997	9
137.349998	27
139.050003	18
139.300003	4
141.000000	4
141.800003	4
142.600006	9
143.040001	45
144.199997	9
145.071429	375
146.199997	4
146.399994	4
147.003704	241
149.080005	45
149.600006	13
149.899994	4
150.699997	4
150.899994	4
151.299998	13
152.899994	4
153.500000	4
154.800003	4
155.000000	4
155.199997	4
156.199997	13
156.699997	9
156.949997	27
157.199997	27
158.199997	13
158.874996	125
159.190911	294
160.600006	18
161.135002	178
161.600006	18
162.300003	9
162.699997	13
163.074999	36
164.349998	9
164.949997	27
166.000000	4
166.699997	4
166.899994	4
168.199997	4
168.800003	4
169.000000	9
169.199997	4
170.000000	4
170.600001	27
170.949997	54
171.241666	54
171.899994	9
172.399994	9
173.124324	165
174.100006	9
174.300003	4
174.699997	18
175.399994	31
175.899994	4
176.100006	9
176.500000	4
176.699997	13
177.300003	27
178.300003	4
178.500000	4
178.800003	9
179.000000	9
179.250000	9
181.100006	4
181.300003	4
182.300003	4
182.800003	4
183.800003	4
184.000000	4
184.300003	4
184.600006	4
185.158333	161
186.050003	9
186.600006	13
187.100006	31
187.699997	4
188.600006	13
189.289999	89
189.699997	18
190.100006	4
190.300003	4
191.299999	49
191.800003	4
192.300003	9
192.699997	4
192.899994	9
193.125004	18
193.800003	4
194.300003	4
194.899994	4
195.100006	4
195.399994	9
196.949997	9
197.199997	4
197.500000	9
197.899994	4
198.150002	9
199.278261	308
199.899994	13
200.500000	13
201.215791	169
201.899994	4
202.100006	4
202.300003	13
203.080002	89
204.140002	45
204.550003	9
205.033333	27
205.500000	13
206.000000	4
206.199997	4
206.449997	9
206.899994	22
207.300003	13
207.899994	4
209.000000	4
209.300003	4
211.399994	9
213.214284	125
214.150002	9
214.449997	9
215.317390	410
215.899994	13
216.133336	27
217.312502	36
218.100006	4
218.300003	4
219.000000	36
219.650002	9
219.899994	4
220.233332	27
220.800003	13
221.000000	13
221.600006	9
222.150002	9
222.600006	4
222.800003	4
223.100006	4
225.100006	4
226.899994	13
227.133336	27
227.474998	18
228.199997	4
229.199997	22
229.474998	18
229.800003	4
230.200000	22
231.288891	80
232.000000	27
232.399994	18
232.600006	4
233.000000	13
233.300003	36
233.899994	9
234.100006	13
235.083333	54
235.520001	45
236.199997	4
237.199997	4
239.100006	4
239.399994	4
240.000000	4
241.199997	4
241.899994	4
242.800003	4
243.699997	4
244.000000	4
244.600006	9
245.180002	45
245.800003	4
246.000000	4
247.566671	27
248.166664	54
249.699997	13
253.199997	4
253.500000	4
254.100006	4
255.350000	999
256.899994	4
258.299988	9
259.170595	152
261.185717	62
262.000000	13
262.299988	4
262.550003	9
263.180003	178
264.600006	4
273.250000	268
274.500000	9
274.799988	4
275.250000	9
275.575005	18
276.299988	40
288.849991	9
289.100006	9
289.500000	9
291.231861	910
