Mass spectrum: Progesterone; LC-APPI-QQ; MS
Name: Progesterone
Class: Natural Product; Steroid hormone
Formula: C21H30O2
Exact mass: 314.22458
SMILES: O=C(C4)C=C(C3)C(C)(C4)C(C2)C(C3)C(C1)C(C)(C2)C(C(C)=O)C1
InChI: InChI=1S/C21H30O2/c1-13(22)17-6-7-18-16-5-4-14-12-15(23)8-10-20(14,2)19(16)9-11-21(17,18)3/h12,16-19H,4-11H2,1-3H3
Instrument: API2000
Instrument type: LC-APPI-QQ
Ms type: MS
Ion mode: POSITIVE
Retention time: 0.821133 min
Base peak: 315.299988
Ion type: [M+H]+
m/z	relative intensity
201.142838	14
202.104489	4
203.123282	10
205.099713	9
207.136461	7
209.146087	17
211.134794	21
213.121779	18
214.173341	6
215.145553	16
216.177639	4
217.139398	7
219.127339	8
221.110025	13
222.116928	3
223.145624	15
225.168707	15
227.173952	17
228.160341	5
229.148486	12
231.140256	15
233.127214	13
235.118776	15
237.145147	52
239.158109	18
240.183873	4
241.211404	11
243.187045	11
244.207902	3
245.159530	12
247.133739	16
249.111065	18
251.130708	12
253.173184	13
255.160948	17
257.147960	24
259.156067	19
261.153168	32
263.139607	26
265.145003	20
267.169842	22
269.187640	37
271.165507	46
273.173442	20
275.169230	16
277.168581	18
279.145102	45
281.198646	11
283.186241	15
285.189751	21
287.166067	19
289.226591	16
291.226188	17
293.235765	28
295.254587	43
297.277910	52
299.242433	23
301.207399	14
303.233403	17
305.277135	20
307.277491	25
309.275879	67
311.300442	196
313.306761	417
315.305231	999
319.264011	9
321.269421	8
323.258397	12
325.280119	18
327.286101	31
329.292447	171
333.183982	6
335.254775	6
337.266960	9
339.245342	7
341.261599	7
343.284728	11
345.247109	6
347.207230	4
349.221226	4
351.241959	5
353.248122	5
355.257959	4
357.264877	3
359.222233	3
361.270057	6
363.217274	4
365.268940	4
367.290074	4
369.352265	4
371.311885	3
373.307834	3
375.327356	5
377.266796	3
379.270732	3
381.315340	3
383.329904	3
385.339101	2
387.321799	2
389.341289	2
391.361232	5
393.281757	2
395.291632	2
397.311735	2
399.318796	5
