Mass spectrum: Estriol; LC-APPI-QQ; MS2; CE:10 V; [M-H2O+H]+
Name: Estriol
Class: Natural Product; Steroid hormone
Formula: C18H24O3
Exact mass: 288.17254
SMILES: Oc(c4)cc(C3)c(c4)C(C2)C(C3)C(C1)C(C)(C2)C(O)C(O)1
InChI: InChI=1S/C18H24O3/c1-18-7-6-13-12-5-3-11(19)8-10(12)2-4-14(13)15(18)9-16(20)17(18)21/h3,5,8,13-17,19-21H,2,4,6-7,9H2,1H3/t13?,14?,15?,16-,17+,18?/m1/s1
Instrument: API2000
Instrument type: LC-APPI-QQ
Ms type: MS2
Ion mode: POSITIVE
Retention time: 0.820850 min
Base peak: 271.100006
Precursor m/z: 271.200000
Precursor type: [M-H2O+H]+
m/z	relative intensity
64.199997	1
75.000000	1
80.000000	1
80.699997	1
81.099998	1
83.800003	1
84.000000	1
84.699997	1
85.250000	1
91.900002	1
92.300003	1
92.599998	1
92.825003	1
93.199999	1
93.500000	1
94.799999	1
95.099998	1
97.400002	1
98.599998	1
99.049999	1
99.300003	1
104.500000	1
104.900002	1
105.300003	1
105.800003	1
106.400002	1
106.983332	1
107.400002	1
108.500000	1
108.800003	1
109.200000	1
110.800003	1
111.124998	1
113.400002	1
120.599998	1
120.800003	1
121.000000	1
121.450001	1
122.850002	1
124.900002	1
125.549999	1
130.550003	1
130.899994	1
131.100006	1
131.400002	1
133.014367	10
133.849998	1
134.699997	1
139.050003	1
139.300003	1
144.000000	1
144.300003	1
144.645458	1
145.147368	1
146.000000	1
146.699997	1
147.000000	1
147.300003	1
147.800003	1
149.100006	1
149.399994	1
151.199997	1
152.699997	1
153.899994	1
154.500000	1
154.899994	1
155.199997	1
155.399994	1
155.650002	1
155.899994	1
157.072960	11
159.055862	8
160.716665	1
161.120001	1
162.899994	1
163.199997	1
164.699997	1
165.100006	1
167.000000	1
169.199997	1
171.100006	1
172.908328	1
173.256250	1
174.000000	1
174.600006	1
175.100006	1
175.399994	1
176.899994	1
179.300003	1
180.500000	1
181.100006	1
182.899997	1
184.299998	1
184.800003	1
185.249997	1
185.899994	1
186.100006	1
187.100006	1
187.300003	1
188.699997	1
189.000000	1
189.600006	1
193.100006	1
193.399994	1
193.699997	1
194.600006	1
194.899994	1
195.100006	1
195.300003	1
195.899994	1
196.224998	1
197.136641	7
198.650002	1
198.899994	1
200.299998	1
201.112381	6
202.500000	1
202.699997	1
203.100006	1
208.750000	1
209.050003	1
209.399994	1
211.129410	1
212.199997	1
213.104930	4
214.100006	1
214.849998	1
215.100006	1
215.399994	1
218.800003	1
222.300003	1
222.800003	1
223.600006	1
223.949997	1
224.300003	1
224.899994	1
225.150002	1
226.000000	1
226.199997	1
227.201300	2
228.199997	1
229.100006	1
234.399994	1
235.000000	1
235.399994	1
235.600006	1
237.600006	1
237.899994	1
238.100006	1
239.171930	2
239.899994	1
240.300003	1
241.100006	1
242.199997	1
242.600006	1
243.217393	1
243.500000	1
244.899994	1
250.899994	1
251.150002	1
253.185389	152
254.300003	1
255.800003	1
256.200012	1
256.500000	1
257.600006	1
265.399994	1
266.500000	1
268.000000	1
268.299988	1
268.650009	1
271.197352	999
272.750000	1
273.000000	1
289.299988	1
289.500000	1
