Mass spectrum: Testosterone; LC-APPI-QQ; MS2; CE:40 V; [M+H]+
Name: Testosterone
Class: Natural Product; Steroid hormone
Formula: C19H28O2
Exact mass: 288.20893
SMILES: O=C(C4)C=C(C3)C(C)(C4)C(C2)C(C3)C(C1)C(C)(C2)C(O)C1
InChI: InChI=1S/C19H28O2/c1-18-9-7-13(20)11-12(18)3-4-14-15-5-6-17(21)19(15,2)10-8-16(14)18/h11,14-17,21H,3-10H2,1-2H3/t14?,15?,16?,17-,18?,19?/m0/s1
Instrument: API2000
Instrument type: LC-APPI-QQ
Ms type: MS2
Ion mode: POSITIVE
Retention time: 0.820850 min
Base peak: 97.000000
Precursor m/z: 289.300000
Precursor type: [M+H]+
m/z	relative intensity
38.799999	1
39.100000	1
40.980000	1
41.218750	1
41.850000	1
42.099998	1
43.013462	1
44.900002	1
45.200001	1
50.400002	1
51.099998	1
51.400002	1
51.700001	1
52.700001	1
53.166667	1
55.060307	6
55.900002	1
57.043889	2
57.799999	1
58.000000	1
58.450001	1
58.900002	1
59.099998	1
59.400002	1
62.450001	1
63.299999	1
63.799999	1
64.000000	1
64.500000	1
65.065000	1
65.699997	1
67.098552	11
69.098564	15
70.000000	1
71.057547	1
71.750000	1
72.099998	1
72.300003	1
73.225002	1
74.099998	1
74.850002	1
75.099998	1
76.000000	1
77.072289	4
79.024447	59
81.081248	74
83.050952	48
85.095455	2
86.300003	1
86.800003	1
87.400002	1
87.800003	1
88.300003	1
88.500000	1
88.699997	1
91.034717	26
93.077923	55
95.075128	56
97.070447	999
99.000000	1
99.500000	1
99.699997	1
100.549999	1
101.199997	1
101.500000	1
101.699997	1
101.900002	1
102.400002	1
102.599998	1
103.129412	1
105.003554	45
107.067698	46
109.055411	923
111.032894	4
111.950001	1
112.600000	1
113.199997	1
113.599998	1
113.900002	1
114.873334	1
117.083468	7
119.053713	32
121.068338	33
123.034409	88
124.340001	1
124.974194	1
126.199997	1
126.400002	1
126.900002	1
127.284616	1
129.044133	5
131.121148	17
133.132468	19
135.085888	11
137.101255	4
139.150002	1
139.399994	1
139.699997	1
140.050003	1
140.399994	1
141.154902	2
143.097644	10
145.068110	27
147.114955	23
149.097491	12
150.300003	1
151.079069	1
151.899994	1
152.800003	1
153.326664	1
155.075448	4
155.990667	1
157.135972	15
159.098919	24
161.103426	16
163.124262	8
164.300003	1
165.052944	1
166.199997	1
167.132257	1
169.092908	6
171.078160	14
173.139319	8
175.142322	14
177.165705	8
178.000000	1
178.399994	1
179.199997	1
180.200000	1
180.943479	1
182.247916	1
183.118436	7
184.254284	1
185.108112	8
187.139696	14
189.178067	7
191.188636	1
192.550003	1
193.021430	1
193.374996	1
193.800003	1
194.000000	1
195.328571	1
195.977273	1
196.300003	1
197.163401	10
198.326316	1
199.159023	10
201.131669	9
202.212858	1
203.099999	1
203.899994	1
204.899994	1
205.264705	1
205.899994	1
206.199997	1
206.500000	1
207.000000	1
207.325001	1
208.050003	1
208.911106	1
209.899994	1
210.199997	1
211.100342	8
213.222615	13
214.121433	1
215.151369	4
217.132502	1
218.053999	1
219.139393	1
220.000000	1
220.349998	1
220.600006	1
221.000000	1
221.399994	1
221.600006	1
222.000000	1
222.500000	1
222.914280	1
223.199997	1
223.699997	1
224.111116	1
225.213761	3
226.300003	1
226.600006	1
227.181902	3
227.800003	1
228.282353	1
229.201026	3
229.899994	1
230.100006	1
230.316668	1
231.122827	1
231.962498	1
233.086667	1
235.325001	1
235.899994	1
236.199997	1
236.899994	1
237.399994	1
238.071433	1
239.899994	1
240.600001	1
241.042858	1
241.600006	1
242.600006	1
243.296555	1
245.227359	1
246.122035	2
247.100006	1
247.399994	1
249.500000	1
251.325001	1
253.256421	18
254.500000	1
254.924995	1
255.199997	1
256.929410	1
258.299988	1
259.176000	1
260.150009	1
261.182760	1
269.000000	1
269.399994	1
270.299988	1
271.254734	9
272.299988	1
273.099998	1
274.193750	1
279.100006	1
279.399994	1
286.299988	1
286.849991	1
287.200002	1
287.899994	1
289.309920	15
290.100006	1
290.299988	1
290.799988	1
