Mass spectrum: Epicholestanol; LC-APPI-QQ; MS2; CE:40 V; [M-H2O+H]+
Name: Epicholestanol
Class: Natural Product; Sterol
Formula: C27H48O
Exact mass: 388.37052
SMILES: C(C)(C1)(C(C(C)CCCC(C)C)4)C(CC4)C(C2)C(C(C)(C3)C([H])(CC(C3)O)C2)C1
InChI: InChI=1S/C27H48O/c1-18(2)7-6-8-19(3)23-11-12-24-22-10-9-20-17-21(28)13-15-26(20,4)25(22)14-16-27(23,24)5/h18-25,28H,6-17H2,1-5H3/t19?,20-,21+,22?,23?,24?,25?,26?,27?/m0/s1
Instrument: API2000
Instrument type: LC-APPI-QQ
Ms type: MS2
Ion mode: POSITIVE
Retention time: 0.820850 min
Base peak: 95.099998
Precursor m/z: 371.300000
Precursor type: [M-H2O+H]+
m/z	relative intensity
38.599998	1
38.900002	1
39.099998	1
40.299999	1
40.599998	1
40.900002	1
41.199999	1
42.299999	1
42.950001	3
43.366667	4
43.900002	1
45.200001	1
52.400002	1
52.900002	1
53.200001	1
53.400002	1
53.599998	1
53.799999	1
55.105236	42
55.700001	1
57.121778	98
58.099998	1
58.549999	1
63.500000	1
64.199997	1
64.400002	1
64.850002	1
65.250000	1
67.111189	187
69.145026	250
70.400002	3
71.154724	55
71.800003	1
72.400002	1
72.900002	1
73.099998	1
73.300003	1
75.800003	1
76.500000	1
77.018182	2
79.046875	49
81.120388	688
83.123917	242
85.085294	15
85.950001	1
86.900002	1
88.400002	1
88.875002	1
89.199999	1
89.699997	1
90.387502	2
90.599998	1
90.800003	6
92.000000	3
93.094848	229
95.081981	999
97.157280	114
97.950001	1
98.699997	1
99.000000	1
99.199997	1
99.599998	1
100.699997	1
102.800003	1
103.199997	1
103.566666	1
104.199997	1
105.058823	15
107.050951	230
109.111612	606
111.081538	43
111.800003	1
113.099998	1
114.300003	1
117.099998	1
117.800003	1
118.000000	1
118.224998	1
119.103704	24
121.113421	199
123.100873	175
124.000000	1
124.400002	1
124.599998	1
124.911112	4
125.199997	3
127.800003	1
131.399994	1
132.150002	2
133.182761	25
135.146399	261
136.187498	2
137.184471	70
137.800003	1
138.199997	1
138.399994	1
138.699997	1
138.949997	1
139.300003	1
141.100006	1
141.399994	1
141.800003	1
144.800003	1
145.399994	1
147.196602	45
149.180808	216
150.125000	2
151.133332	30
151.800003	1
154.600006	1
156.600006	1
158.150002	1
158.699997	1
159.100001	1
159.575005	1
161.180630	48
161.899994	1
163.231163	94
164.250000	1
165.181395	9
165.800003	1
166.750000	1
169.300003	1
171.100006	1
171.399994	1
172.100006	1
172.800003	1
173.199997	1
173.600006	1
174.000000	1
175.144232	23
176.199997	1
176.399994	1
177.280000	35
178.250000	1
179.233335	14
181.000000	1
181.500000	1
185.199997	1
186.199997	1
187.200002	2
187.849998	1
189.231654	61
190.100006	1
190.500000	1
191.208335	10
192.100006	1
192.399994	1
192.600006	1
192.800003	2
193.268604	19
198.100006	1
199.300003	1
200.000000	1
200.399994	1
200.800003	1
201.275002	1
201.500000	1
201.899994	1
203.231928	36
204.250000	1
205.241667	10
206.199997	1
206.399994	1
207.180000	9
209.399994	1
211.399994	1
214.899994	1
215.474998	1
216.199997	2
217.281428	15
218.000000	1
218.250000	1
218.683332	1
219.185184	12
221.199997	3
222.000000	1
227.000000	1
227.399994	1
227.600006	1
228.000000	1
229.399994	1
229.699997	1
230.250000	1
230.500000	1
231.334782	10
231.899994	1
232.199997	1
232.399994	1
232.600006	1
233.166668	8
233.500000	3
235.000000	1
235.325001	1
235.600006	1
238.600006	1
239.199997	2
240.399994	1
240.800003	1
243.100006	1
244.399994	1
245.108339	3
245.443747	3
246.300003	1
246.600006	1
247.276002	11
247.800003	1
248.299998	1
248.600006	1
249.100001	1
249.399994	1
250.899994	1
251.199997	1
252.300003	1
254.700002	1
255.000000	1
255.399994	1
257.399994	1
257.700012	1
257.974998	1
258.399994	1
258.600006	1
259.100006	3
260.000000	1
260.200012	1
260.500000	1
261.335286	7
263.474998	1
263.700012	1
265.100006	1
265.399994	1
266.899994	1
267.100006	1
267.299988	1
267.500000	1
268.799988	1
269.050003	1
270.899994	1
271.200012	1
271.650009	1
272.100006	1
272.399994	1
272.799988	1
273.000000	1
273.262497	2
273.650009	1
273.899994	1
274.600006	1
274.799988	1
275.175011	3
275.488235	4
276.399994	1
277.100006	1
279.150009	1
283.000000	1
283.899994	1
284.899994	1
285.299988	1
285.500000	1
286.000000	1
286.200012	1
286.449997	1
286.799988	1
287.000000	1
287.500000	2
287.783325	1
288.700012	1
288.899994	1
289.418180	5
293.100006	1
296.899994	1
299.100006	1
300.100006	1
300.899994	1
301.200012	1
301.500000	1
303.449997	1
308.600006	1
309.200012	1
311.000000	1
313.050003	1
314.399994	1
314.650009	1
315.369998	4
324.799988	1
327.500000	1
328.600006	1
329.299988	1
334.100006	1
339.500000	1
341.299988	1
342.000000	1
342.750000	1
343.000000	1
343.399994	1
352.700012	1
353.299988	1
355.600006	1
356.100006	1
356.600006	1
356.799988	1
370.500000	1
371.502247	19
387.700012	1
394.600006	1
