Mass spectrum: Stigmastanol; LC-APPI-QQ; MS2; CE:40 V; [M-H2O+H]+
Name: Stigmastanol
Class: Natural Product; Sterol
Formula: C29H52O
Exact mass: 416.40182
SMILES: C(C4)C(C(CC4O)3)(C(C(CC3)2)CCC(C21)(C(CC1)C(C)CCC(C(C)C)CC)C)C
InChI: InChI=1S/C29H52O/c1-7-21(19(2)3)9-8-20(4)25-12-13-26-24-11-10-22-18-23(30)14-16-28(22,5)27(24)15-17-29(25,26)6/h19-27,30H,7-18H2,1-6H3/t20?,21?,22?,23-,24?,25?,26?,27?,28?,29?/m0/s1
Instrument: API2000
Instrument type: LC-APPI-QQ
Ms type: MS2
Ion mode: POSITIVE
Retention time: 0.820833 min
Base peak: 94.800003
Precursor m/z: 399.500000
Precursor type: [M-H2O+H]+
m/z	relative intensity
38.900002	1
41.269231	10
41.599998	1
43.080434	17
43.712501	3
45.079467	440
51.200001	1
52.799999	1
53.000000	1
53.200001	1
53.936364	4
55.075524	108
57.132429	529
58.000000	2
59.299999	5
61.799999	1
62.900002	1
63.500000	1
64.699997	1
65.199997	1
65.500000	1
67.116954	131
69.076862	330
71.141631	176
72.199997	1
72.599998	1
73.099998	1
73.400002	1
76.599998	1
77.042856	11
77.699997	1
78.000000	1
79.081443	37
79.836366	8
81.115267	737
83.075605	359
84.500000	6
85.098165	82
86.350002	1
87.000000	1
88.599998	1
89.025000	3
89.500000	1
89.750000	1
90.099998	1
90.300003	1
90.928573	16
91.762501	3
92.074999	5
93.064215	154
95.067335	999
97.112800	189
98.025000	2
99.014719	87
99.900002	2
100.199997	2
101.154687	73
102.800003	1
103.649998	1
104.099998	1
104.300003	2
105.129851	25
105.966667	5
107.051873	262
109.114105	686
110.000000	4
111.109424	72
112.149998	1
113.099998	2
113.300003	1
114.800003	1
115.099998	1
115.500000	1
116.300003	1
116.649998	1
116.900002	1
117.149998	1
117.800003	1
119.164815	20
121.111058	314
123.072000	302
125.097369	29
126.599998	1
126.900002	1
127.549999	1
128.800003	1
130.300003	1
130.800003	2
131.250000	3
131.899994	1
132.250000	2
133.119781	34
134.000000	3
134.199997	6
135.103876	390
136.099998	3
137.144000	132
137.899994	1
138.300003	1
138.600006	1
138.800003	1
139.166667	2
139.600006	1
140.800003	1
141.000000	1
141.600006	1
142.100006	1
142.886955	17
144.500000	1
144.699997	1
144.974998	2
145.199997	1
145.399994	1
145.833333	2
146.320001	4
147.129255	71
149.163838	356
149.800003	2
150.100006	1
151.164000	57
158.100006	1
158.300003	1
158.899994	2
159.325001	2
159.800003	2
160.000000	2
161.210001	53
163.167984	191
164.399994	1
164.951512	12
169.300003	1
169.600006	1
170.300003	1
170.849998	1
173.050003	3
173.399997	2
173.899994	1
174.300003	2
175.135819	51
176.100006	1
177.207586	110
179.255000	8
181.199997	1
183.250000	1
184.800003	1
185.000000	1
186.150002	1
187.200005	2
188.000000	1
188.300003	1
189.232886	113
190.300003	2
191.116002	19
192.625004	2
193.177778	7
195.199997	1
198.199997	1
198.845456	8
200.399994	1
201.000000	2
201.300003	1
201.500000	1
201.699997	2
203.186956	87
204.300003	1
205.300003	5
205.500000	3
206.449997	1
206.800003	1
207.247367	7
209.050003	1
209.300003	1
210.100006	1
213.199997	1
213.399994	1
214.500000	1
215.216665	5
216.210528	7
217.275556	34
219.129630	10
219.800003	1
220.100006	1
221.222226	7
223.000000	1
223.199997	1
225.000000	1
226.699997	1
229.300003	1
229.600006	1
230.150002	1
230.500000	1
231.000000	6
232.849998	2
233.271428	8
233.699997	3
234.399994	1
235.035716	5
235.475000	9
238.800003	1
243.600006	1
244.100006	1
245.433334	9
246.600006	1
247.083338	2
247.415999	9
248.300003	1
249.437496	3
257.100006	1
257.299988	1
257.500000	1
258.200012	1
258.600006	1
259.411763	13
261.339996	6
263.000000	1
263.399994	1
263.700012	1
269.100006	1
269.399994	1
271.299998	1
272.600006	1
272.799988	1
273.342848	5
274.299988	1
275.184617	10
277.200012	1
277.399994	1
277.700012	1
283.200012	1
283.399994	1
284.700012	1
285.250000	1
286.500000	1
286.899994	2
287.449997	5
288.100006	1
289.325003	14
291.150009	2
291.449997	2
291.799988	1
295.500000	1
299.000000	1
299.299988	1
299.799988	1
300.449997	1
300.799988	1
301.207698	5
301.737503	3
303.266663	5
305.600006	1
311.000000	1
313.399994	1
314.974998	2
315.299988	2
315.799988	2
317.212509	3
317.600006	5
324.200012	1
324.399994	1
324.600006	1
326.500000	1
327.100006	1
327.799988	1
328.200012	1
329.000000	1
329.299988	2
329.500000	1
331.000000	1
331.299988	2
331.650009	1
341.799988	1
343.299988	1
343.600006	1
344.100006	1
356.250000	2
357.250000	2
357.799988	1
371.000000	1
371.600006	1
381.449997	1
381.750000	1
383.200012	1
384.299988	1
384.625008	2
384.899994	1
398.399994	1
398.700012	1
399.492560	81
400.399994	1
