Mass spectrum: 24-Ethylepicoprostanol; LC-APPI-QQ; MS2; CE:50 V; [M-H2O+H]+
Name: 24-Ethylepicoprostanol
Class: Natural Product; Sterol
Formula: C29H52O
Exact mass: 416.40182
SMILES: [H]C(C([H])23)(CCC(C)(C4C(C)CCC(C(C)C)CC)C(CC4)3[H])C(C(CC2)1[H])(CCC(O)C1)C
InChI: InChI=1S/C29H52O/c1-7-21(19(2)3)9-8-20(4)25-12-13-26-24-11-10-22-18-23(30)14-16-28(22,5)27(24)15-17-29(25,26)6/h19-27,30H,7-18H2,1-6H3/t20-,21+,22-,23-,24+,25?,26+,27+,28+,29-/m1/s1
Instrument: API2000
Instrument type: LC-APPI-QQ
Ms type: MS2
Ion mode: POSITIVE
Retention time: 0.820900 min
Base peak: 95.000000
Precursor m/z: 399.500000
Precursor type: [M-H2O+H]+
m/z	relative intensity
40.940000	2
41.200001	2
41.450001	1
41.799999	1
42.275000	2
43.023256	40
44.933333	3
51.000000	1
52.599998	1
53.000000	1
53.200001	2
54.000000	2
55.057241	136
55.700001	2
57.123881	157
57.799999	1
58.400002	1
60.099998	1
64.500000	1
64.850002	1
65.099998	1
65.400002	1
65.599998	1
65.850002	4
67.097138	262
68.000000	3
69.079707	416
69.900002	4
71.089071	172
71.900002	1
72.199997	1
72.400002	1
76.500000	2
76.800003	2
77.000000	3
77.357144	3
78.099998	2
79.067485	153
81.081185	808
82.062499	8
83.100403	233
84.400002	2
85.131068	48
86.000000	1
90.992857	26
93.096593	275
95.035493	999
97.071296	101
98.400002	1
98.699997	1
99.300003	1
100.199997	1
100.900002	1
101.149998	1
101.400002	1
102.000000	1
105.100000	42
107.021081	269
109.064592	482
110.500000	2
111.159999	19
112.500000	1
115.000000	1
116.300003	1
116.599998	1
117.099998	1
117.400002	1
119.057533	34
119.760001	5
121.081590	224
123.026033	114
124.000000	1
124.699997	1
125.000000	1
125.400002	1
127.199997	1
128.000000	1
129.100006	1
129.899994	1
130.100006	1
130.500000	1
130.799998	1
131.199997	2
131.800003	1
133.197826	43
134.000000	3
135.102760	153
135.800003	2
136.000000	2
136.250000	2
137.213334	28
138.899994	1
141.100006	1
142.699997	1
143.199997	1
143.800003	1
144.000000	1
144.199997	1
145.123077	6
146.200001	5
147.118487	56
147.800003	1
148.100006	1
149.115441	128
151.086363	10
151.600006	1
154.800003	1
155.300003	1
157.100006	1
157.349998	1
158.100006	1
158.399994	1
158.600006	2
158.874996	2
159.199997	3
159.833333	3
160.299995	2
161.240000	23
161.899994	1
162.100006	1
162.300003	1
163.200000	30
163.800003	1
164.250000	1
164.600006	1
164.899994	1
165.300003	1
165.500000	1
167.899994	1
170.800003	1
171.899994	1
172.100006	1
172.500000	1
173.099998	2
174.083338	3
174.399994	1
175.052939	16
176.399994	1
176.899994	5
177.276926	6
178.949997	1
179.199997	1
179.600006	1
181.199997	1
182.300003	1
184.899994	1
185.300003	1
187.100006	1
187.300003	1
187.699997	1
187.899994	1
188.199997	1
189.173334	28
190.000000	1
190.800003	1
191.399994	1
193.000000	1
193.399994	1
199.399994	1
201.050003	1
201.500000	1
201.899994	1
202.100006	1
202.500000	1
203.011112	8
204.199997	1
205.100006	1
205.550003	1
207.199997	1
207.399994	1
207.600006	1
212.500000	1
213.000000	1
214.924995	4
215.759998	2
216.199997	2
216.399994	2
216.924995	2
217.325001	2
217.600006	1
218.699997	1
219.500000	1
221.000000	2
221.399994	1
223.600006	1
224.899994	1
226.600006	1
228.300003	1
228.800003	1
229.000000	1
229.199997	1
230.349998	2
230.899994	1
231.225002	4
232.899994	1
233.100006	1
233.300003	1
233.600006	1
235.199997	1
237.300003	1
239.800003	1
242.300003	1
243.300003	1
244.050003	1
244.899994	1
247.000000	1
249.100006	1
249.300003	1
249.600006	1
255.600006	1
256.799988	1
259.200012	1
261.500000	1
268.299988	1
269.399994	1
271.100006	2
273.299988	1
273.500000	1
275.600006	1
285.600006	1
289.449997	1
290.100006	1
294.000000	1
296.600006	1
301.050003	2
301.500000	1
302.600006	1
303.299988	2
303.799988	1
308.000000	1
310.500000	1
315.399994	1
326.200012	1
328.100006	1
329.700012	1
330.200012	1
331.399994	1
333.200012	1
335.849991	1
348.899994	1
353.600006	1
356.299988	1
357.600006	1
359.100006	1
361.799988	1
373.100006	1
384.799988	1
397.700012	1
399.250000	2
