Mass spectrum: beta-Sitosterol; LC-APPI-QQ; MS2; CE:20 V; [M-H2O+H]+
Name: beta-Sitosterol
Class: Natural Product; Sterol
Formula: C29H50O
Exact mass: 414.38617
SMILES: C(C4)C(C(CC4O)=3)(C(C(CC3)2)CCC(C21)(C(CC1)C(C)CCC(C(C)C)CC)C)C
InChI: InChI=1S/C29H50O/c1-7-21(19(2)3)9-8-20(4)25-12-13-26-24-11-10-22-18-23(30)14-16-28(22,5)27(24)15-17-29(25,26)6/h10,19-21,23-27,30H,7-9,11-18H2,1-6H3/t20?,21?,23-,24?,25?,26?,27?,28?,29?/m0/s1
Instrument: API2000
Instrument type: LC-APPI-QQ
Ms type: MS2
Ion mode: POSITIVE
Retention time: 0.820850 min
Base peak: 397.299988
Precursor m/z: 397.600000
Precursor type: [M-H2O+H]+
m/z	relative intensity
53.700001	1
55.799999	1
57.000000	1
57.200001	1
65.000000	1
68.300003	1
68.900002	1
69.800003	1
70.800003	1
71.199997	2
71.400002	1
79.000000	1
79.500000	1
80.199997	1
80.450001	1
80.980000	6
81.300003	1
81.599998	1
82.199997	1
82.599998	1
82.850002	1
83.500000	1
84.149998	1
84.699997	1
85.099998	1
85.300003	1
85.500000	1
89.000000	1
90.900002	1
94.599998	2
94.900002	3
95.174997	2
95.500000	1
96.500000	1
96.900002	2
97.400002	1
99.000000	1
99.400002	1
100.900002	1
106.000000	1
106.599998	1
107.099998	2
108.759999	3
109.300003	6
110.549999	1
111.000000	2
111.450001	2
111.699997	1
112.599998	1
113.099998	1
113.300003	1
113.500000	1
117.199997	1
118.199997	1
118.800003	1
119.049999	1
121.000000	4
121.400002	2
122.149998	1
122.699997	1
122.900002	1
123.228571	4
123.500000	1
124.300003	1
124.900002	1
125.099998	2
125.400002	1
127.099998	1
132.199997	1
132.949997	2
133.199997	1
133.399994	1
134.948145	15
136.860001	3
137.224998	2
137.800003	1
138.699997	3
139.000000	1
139.300003	1
139.699997	1
144.300003	1
144.899994	1
145.300003	1
146.000000	1
146.399994	2
146.893750	18
148.550003	3
149.185715	8
150.050003	1
150.300003	1
151.075005	2
151.300003	2
151.600006	1
152.600006	1
152.800003	1
153.199997	1
154.600006	1
156.899994	1
157.399994	1
158.300003	1
158.699997	1
159.000000	1
159.699997	1
160.100006	1
160.826924	15
161.276744	24
161.899994	1
162.550003	1
163.137503	5
163.474998	2
163.800003	1
164.600006	1
164.899994	1
165.233332	3
165.600006	1
170.600006	1
172.800003	2
173.000000	2
173.399994	1
174.000000	1
174.250000	1
175.069998	11
175.699997	2
176.699997	1
177.500000	1
177.899994	1
179.100006	1
179.500000	2
181.300003	1
187.250000	1
188.250000	1
188.699997	3
189.000000	6
189.259999	11
191.000000	1
191.199997	1
191.399994	2
192.500000	1
193.199997	1
193.500000	1
199.199997	1
200.199997	1
200.849998	5
201.339996	3
202.800003	4
203.100006	3
204.300003	1
205.100006	1
205.300003	1
207.300003	2
207.500000	1
212.600006	1
212.899994	2
213.500000	1
214.100006	1
214.500000	1
214.899994	5
215.412498	9
216.399994	1
217.000000	1
217.300001	4
217.600006	2
219.000000	1
219.199997	1
219.699997	1
220.650002	1
220.899994	1
221.300003	2
223.000000	1
226.899994	1
228.399994	1
228.983332	3
229.357143	8
230.224998	2
231.000000	1
231.300003	1
231.550003	1
232.100006	1
233.000000	1
233.449999	5
234.800003	1
235.000000	1
235.300003	1
235.600006	1
235.899994	1
241.250000	1
242.399994	1
243.276190	12
245.100006	2
247.115386	7
247.600006	2
248.199997	1
249.100006	1
252.300003	1
253.399994	1
254.800003	1
255.000000	1
255.300003	1
255.800003	1
256.200012	1
257.399994	8
259.500000	1
259.899994	1
261.083338	7
261.474998	5
262.899994	1
263.600006	1
269.399994	1
269.899994	1
271.050003	1
271.399994	2
273.250000	1
273.500000	2
273.700012	1
274.600006	1
275.562504	5
281.399994	1
283.299988	1
284.000000	1
284.399994	1
284.700012	1
285.000000	1
285.299988	3
285.700012	1
286.500000	1
287.100006	4
287.458331	7
289.500000	2
290.899994	1
298.200012	1
299.000000	1
299.299988	3
299.500000	2
299.799988	1
300.899994	1
301.200012	1
301.600006	4
301.899994	2
303.250000	1
306.600006	1
313.299998	2
313.600006	3
313.899994	1
314.899994	1
315.337498	9
315.799988	1
317.600006	1
322.899994	1
325.100006	1
327.299988	1
327.799988	1
329.200012	1
329.399994	1
337.200012	1
341.100006	1
341.299988	1
341.600006	1
341.799988	1
355.500000	1
366.100006	1
368.100006	1
369.299988	1
369.799988	1
373.600006	1
378.299988	1
379.299988	1
379.500000	1
382.899994	1
393.899994	1
394.399994	1
397.434995	999
