Mass spectrum: Campesterol; LC-APPI-QQ; MS2; CE:50 V; [M-H2O+H]+
Name: Campesterol
Class: Natural Product; Sterol
Formula: C28H48O
Exact mass: 400.37052
SMILES: C(C(CCC(C)C(C4)C(C3C4)(C)CCC(C13)C(C2)(C(CC(C2)O)=CC1)C)C)(C)C
InChI: InChI=1S/C28H48O/c1-18(2)19(3)7-8-20(4)24-11-12-25-23-10-9-21-17-22(29)13-15-27(21,5)26(23)14-16-28(24,25)6/h9,18-20,22-26,29H,7-8,10-17H2,1-6H3/t19?,20?,22-,23?,24?,25?,26?,27?,28?/m0/s1
Instrument: API2000
Instrument type: LC-APPI-QQ
Ms type: MS2
Ion mode: POSITIVE
Retention time: 0.820833 min
Base peak: 81.000000
Precursor m/z: 383.400000
Precursor type: [M-H2O+H]+
m/z	relative intensity
37.900002	1
39.040000	2
40.200001	1
41.192856	5
41.650000	1
43.061916	73
43.799999	1
44.000000	1
51.200001	1
52.299999	1
53.549999	2
55.094797	209
57.156363	302
58.500000	1
58.799999	1
59.099998	1
62.099998	1
62.750000	1
63.200001	1
63.900002	1
64.199997	1
64.787502	1
65.091665	2
65.385716	2
67.132187	371
69.118473	446
70.000000	4
71.144089	213
72.800003	1
74.199997	1
75.400002	1
75.699997	1
76.000000	1
76.199997	1
77.100000	20
77.699997	2
79.050833	235
81.118294	938
83.132765	340
84.199997	2
85.121784	82
86.000000	1
86.800003	1
87.099998	1
87.649998	1
87.900002	1
88.300003	1
91.081333	255
93.098588	579
95.071570	999
97.136539	195
98.099998	1
98.300003	1
99.099998	1
99.400002	1
102.049999	1
102.599998	1
102.900002	1
105.077911	540
107.052772	467
109.122645	618
111.080107	32
113.000000	1
113.599998	1
113.900002	1
114.716665	1
115.000000	1
115.800003	1
117.137902	21
119.091271	359
121.119311	203
123.090625	125
124.000000	1
125.139998	2
127.250000	1
127.900002	1
128.300003	1
129.100006	2
130.234786	4
131.189674	63
133.151140	299
135.131672	328
137.202117	32
140.699997	1
141.550003	1
142.000000	1
142.416662	1
143.192858	5
145.100991	103
147.163142	510
149.174439	137
150.100001	1
150.500000	1
150.699997	1
151.071430	5
153.000000	1
154.600006	1
155.100006	1
155.750000	1
156.942856	2
157.399998	2
159.134258	104
161.143356	351
162.000000	1
163.262758	49
163.899999	1
164.199997	1
164.674999	1
165.228572	2
165.600006	1
166.300003	1
167.800003	1
168.199997	1
168.699997	1
169.349998	1
170.300003	1
170.550003	1
171.052635	3
173.177359	54
175.158909	94
176.000000	1
176.683332	1
177.321053	16
178.100006	1
178.399994	1
179.199997	1
179.399994	1
182.699997	1
183.300003	1
184.000000	1
185.296001	9
186.280002	3
187.161049	29
189.206926	39
189.949997	1
190.500000	1
190.800003	1
191.039999	2
191.699997	1
192.500000	1
192.800003	1
193.000000	1
193.300003	1
193.699997	1
196.500000	1
196.899994	1
198.399994	1
198.600006	1
199.168185	7
201.194920	54
202.200000	1
202.600006	1
203.269445	25
204.399994	1
205.228572	2
205.600006	1
206.000000	1
207.199997	1
208.600006	1
209.100006	1
210.899994	1
211.300003	1
212.000000	1
212.600006	1
213.099998	4
214.399994	2
215.207418	62
215.899994	1
216.150002	1
216.500000	1
217.332353	12
217.899994	1
218.300003	1
218.699997	1
219.100006	1
219.316668	2
220.949997	1
221.300003	1
221.600006	1
225.500000	1
227.199997	1
227.849998	1
229.281443	17
230.199997	1
230.500000	1
231.100006	1
231.349998	1
231.600006	1
231.899994	1
232.800003	1
233.300003	1
233.600006	1
235.500000	1
238.800003	1
239.000000	1
239.300003	1
239.500000	1
240.300003	1
241.150005	1
241.600006	1
242.000000	1
242.575005	1
243.314999	7
245.250000	1
245.600006	1
245.800003	1
246.399994	1
247.016668	1
247.337500	1
247.674999	1
248.899994	1
252.500000	1
253.449997	1
254.100006	1
254.300003	1
255.399994	1
255.949997	1
256.299988	2
257.419995	5
258.299988	1
258.500000	1
258.799988	1
259.075005	1
259.725006	1
261.250000	1
261.566671	1
262.399994	1
268.100006	1
268.799988	1
269.200012	1
269.700012	1
270.000000	1
271.224998	2
272.250000	1
273.407690	9
275.000000	1
275.299988	1
275.500000	1
277.200012	1
279.299988	1
280.200012	1
280.899994	1
283.250000	1
284.050003	1
284.399994	1
284.700012	1
285.000000	1
285.299988	1
285.500000	1
285.700012	1
286.600006	1
287.376463	3
288.700012	1
289.000000	1
293.299988	1
296.500000	1
296.949997	1
297.299988	1
297.500000	1
298.200012	1
298.899994	1
299.533335	1
300.000000	1
300.500000	1
301.500000	2
303.700012	1
305.700012	1
308.100006	1
310.500000	1
311.600006	1
312.600006	1
312.899994	1
313.250000	1
314.949997	1
315.200012	1
315.399994	1
315.600006	1
321.100006	1
323.399994	1
325.100006	1
326.000000	1
326.200012	1
326.700012	1
327.339996	1
327.600006	1
338.399994	1
339.250000	1
340.250000	1
340.500000	1
341.299988	1
341.600006	1
343.000000	1
351.600006	1
353.799988	1
354.200012	1
354.550003	1
355.700012	1
365.200012	1
367.100006	1
368.100006	1
368.500000	1
381.050003	1
381.500000	1
382.799988	1
383.533335	5
