Mass spectrum: Campesterol; LC-APPI-QQ; MS2; CE:40 V; [M-H2O+H]+
Name: Campesterol
Class: Natural Product; Sterol
Formula: C28H48O
Exact mass: 400.37052
SMILES: C(C(CCC(C)C(C4)C(C3C4)(C)CCC(C13)C(C2)(C(CC(C2)O)=CC1)C)C)(C)C
InChI: InChI=1S/C28H48O/c1-18(2)19(3)7-8-20(4)24-11-12-25-23-10-9-21-17-22(29)13-15-27(21,5)26(23)14-16-28(24,25)6/h9,18-20,22-26,29H,7-8,10-17H2,1-6H3/t19?,20?,22-,23?,24?,25?,26?,27?,28?/m0/s1
Instrument: API2000
Instrument type: LC-APPI-QQ
Ms type: MS2
Ion mode: POSITIVE
Retention time: 0.820850 min
Base peak: 147.300003
Precursor m/z: 383.400000
Precursor type: [M-H2O+H]+
m/z	relative intensity
38.700001	1
39.200001	1
39.599998	1
41.183334	1
43.132558	18
50.799999	1
52.900001	1
53.550000	1
55.060102	81
57.122484	264
58.400002	1
58.599998	1
59.299999	1
62.200001	1
64.099998	1
64.842860	1
65.416668	1
65.758334	2
66.000000	1
67.134371	166
69.088956	308
71.135855	274
72.400002	1
75.500000	1
76.000000	1
77.032143	12
79.043028	104
81.112131	752
83.124197	336
85.079585	120
86.300003	1
89.099998	1
89.850002	2
91.053069	115
93.102430	375
95.062290	999
97.152465	294
98.300003	1
98.599998	1
98.800003	1
99.099998	2
101.199997	1
101.649998	1
101.900002	1
102.199997	1
102.880002	2
103.800003	2
105.074286	334
107.045734	452
109.114308	794
111.131439	109
112.000000	1
112.599998	1
113.025000	1
113.300003	1
114.699997	1
114.966667	1
115.400002	1
115.800003	1
116.199997	1
117.189855	14
117.699997	2
119.091124	306
121.106580	334
123.078424	271
125.110000	25
125.900002	1
126.500000	1
127.000000	1
128.199997	1
128.449997	1
128.775002	1
129.050003	3
129.766668	1
130.100006	1
131.189247	39
131.791669	2
133.167729	332
135.125031	684
137.146544	90
138.000000	1
138.300003	1
138.500000	1
139.000000	1
139.300003	2
139.699997	1
140.500000	1
140.924995	1
141.199997	1
142.399994	1
143.100001	3
145.137866	99
147.161756	968
149.161922	287
150.000000	1
151.183609	25
151.899994	1
152.199997	1
152.500000	1
153.200000	1
154.800003	1
155.000000	1
155.199997	1
155.899994	1
156.199997	1
157.228572	3
159.174368	115
161.157255	891
162.500000	6
163.173577	131
165.186957	19
166.500000	1
167.600006	1
168.600006	1
169.000000	1
169.500000	1
170.699997	1
171.140002	2
171.399994	1
171.750000	1
172.050003	2
173.200515	80
175.173504	301
176.199997	1
177.235294	56
178.050003	1
178.399994	1
179.337837	15
180.899994	1
181.399994	1
182.949997	1
184.966666	5
185.349998	5
186.208331	2
187.191956	95
187.899994	1
188.125004	2
189.221589	167
190.199997	1
191.231580	16
192.399994	1
193.222916	10
194.300003	1
196.600006	1
197.100006	1
198.100006	1
199.100000	5
201.186580	161
203.257828	147
204.100006	1
204.600006	1
205.185716	12
206.250000	1
207.195654	10
212.500000	1
212.924995	2
213.224998	3
215.223299	244
217.262353	70
217.899994	1
218.100006	1
219.200000	17
220.600006	1
221.299999	6
223.800003	1
225.100006	1
225.449997	1
226.100006	1
226.966667	1
227.399994	1
227.699997	1
227.974998	1
228.300003	1
229.249468	78
230.150002	1
230.500000	1
231.210872	10
232.100006	1
232.399994	1
232.600006	1
233.375758	14
234.000000	1
234.600006	1
235.066671	2
235.410525	4
237.199997	1
240.399994	1
241.199997	1
241.399994	1
241.699997	1
242.199997	1
242.500000	3
243.366976	89
244.100006	1
244.450001	1
245.000000	2
245.513638	9
245.800003	1
246.100006	1
247.336110	30
248.600006	1
248.899994	1
249.233332	1
249.750000	1
253.300003	1
253.899994	1
254.300003	1
254.842858	1
255.386665	6
255.899994	1
256.100006	1
256.299988	1
257.358974	81
258.200012	1
258.399994	1
259.377691	27
260.500000	1
261.387259	33
262.299988	1
263.250000	1
263.600006	1
267.899994	1
268.200012	1
268.899994	1
269.100006	1
270.500000	2
271.261903	9
272.250000	1
272.500000	1
273.385615	89
274.200012	1
274.600006	1
275.377358	11
276.200012	1
276.600006	1
279.000000	1
281.650009	1
282.899994	1
283.199997	1
283.700012	1
284.000000	1
284.349991	1
284.899994	2
285.441663	5
286.299988	1
286.500000	1
287.422217	21
288.200012	1
288.600006	1
289.000000	1
289.625008	1
290.200012	1
293.600006	1
294.000000	1
294.500000	1
295.200012	1
295.500000	1
297.100006	1
297.500000	1
297.899994	1
298.500000	1
299.421426	6
300.600006	1
301.424390	34
302.399994	1
303.000000	1
303.200012	1
303.399994	1
305.299988	1
305.700012	1
311.799988	1
312.150009	1
312.399994	1
313.100006	2
313.533335	4
314.399994	1
315.000000	1
315.513334	3
316.299988	1
323.100006	1
325.150009	1
326.500000	1
327.342648	14
328.299988	1
336.299988	1
339.100006	1
340.150009	1
340.500000	1
340.799988	1
341.525002	2
341.899994	1
342.399994	1
350.399994	1
350.799988	1
351.000000	1
351.299988	1
351.500000	1
353.000000	1
353.600006	1
353.799988	1
354.050003	1
354.299988	1
354.899994	1
355.349998	2
356.100006	1
359.500000	1
365.349991	1
367.500000	1
367.700012	1
368.140009	1
368.542860	1
369.100006	1
381.799988	1
382.100006	1
382.700012	2
383.458317	202
384.399994	1
