Mass spectrum: 102FTA; LC-ESI-QQ; MS2; CE60; [M-H]-
Name: 102FTA
Name: 102Fluorotelomer Acid
Name: 3,3,4,4,5,5,6,6,7,7,8,8,9,9,10,10,11,11,12,12,12-Heneicosafluorododecanoic acid
Class: Non-Natural Product
Formula: C12H3F21O2
Exact mass: 577.97977
SMILES: OC(=O)CC(F)(F)C(F)(F)C(F)(F)C(F)(F)C(F)(F)C(F)(F)C(F)(F)C(F)(F)C(F)(F)C(F)(F)F
InChI: InChI=1S/C12H3F21O2/c13-3(14,1-2(34)35)4(15,16)5(17,18)6(19,20)7(21,22)8(23,24)9(25,26)10(27,28)11(29,30)12(31,32)33/h1H2,(H,34,35)
Instrument: Xevo TQ MS (Waters)
Instrument type: LC-ESI-QQ
Ms type: MS2
Ion mode: NEGATIVE
Collision energy: 60
Retention time: 0.016833
Base peak: 192.988571
Precursor m/z: 577
Precursor type: [M-H]-
m/z	relative intensity
62.969707	437
63.242565	144
92.720810	830
94.968239	114
98.972244	153
119.139198	298
131.067383	532
131.360855	191
168.874313	87
170.560791	82
184.989532	135
192.979370	999
204.777283	301
205.003494	289
242.753311	597
246.799866	88
255.123795	175
308.003967	172
492.551636	87
519.370422	93
