Mass spectrum: 62FTA; LC-ESI-QQ; MS
Name: 62FTA
Name: 62Fluorotelomer Acid
Name: 3,3,4,4,5,5,6,6,7,7,8,8,8-Tridecafluorooctanoic acid
Class: Non-Natural Product
Formula: C8H3F13O2
Exact mass: 377.99255
SMILES: OC(=O)CC(F)(F)C(F)(F)C(F)(F)C(F)(F)C(F)(F)C(F)(F)F
InChI: InChI=1S/C8H3F13O2/c9-3(10,1-2(22)23)4(11,12)5(13,14)6(15,16)7(17,18)8(19,20)21/h1H2,(H,22,23)
Instrument: Xevo TQ MS (Waters)
Instrument type: LC-ESI-QQ
Ms type: MS
Ion mode: NEGATIVE
Retention time: 0.016817
Base peak: 292.895752
Ion type: [M-H]-
m/z	relative intensity
58.322071	92
58.972687	365
59.564167	62
61.929348	54
62.886238	132
88.278664	68
88.945313	285
92.857071	104
94.837990	69
102.916893	73
113.020416	68
116.933922	75
126.991470	65
146.970779	55
156.958618	52
292.937378	844
293.595276	82
313.020050	96
377.025574	106
431.038025	103
435.015564	999
436.994354	342
445.001129	663
446.023834	67
