Mass spectrum: 24-Ethylcoprostanol; LC-APPI-QQ; MS2; CE:60 V; [M-H2O+H]+
Name: 24-Ethylcoprostanol
Class: Natural Product; Sterol
Formula: C29H52O
Exact mass: 416.40182
SMILES: C(C34[H])(CCC(O)C4)(C([H])(C([H])2CC3)CCC(C([H])12)(C)C(CC1)([H])C(CCC(C(C)C)CC)C)C
InChI: InChI=1S/C29H52O/c1-7-21(19(2)3)9-8-20(4)25-12-13-26-24-11-10-22-18-23(30)14-16-28(22,5)27(24)15-17-29(25,26)6/h19-27,30H,7-18H2,1-6H3/t20-,21+,22-,23+,24+,25-,26+,27+,28+,29-/m1/s1
Instrument: API2000
Instrument type: LC-APPI-QQ
Ms type: MS2
Ion mode: POSITIVE
Retention time: 0.820833 min
Base peak: 95.099998
Precursor m/z: 399.500000
Precursor type: [M-H2O+H]+
m/z	relative intensity
38.200001	1
38.799999	1
39.150000	1
39.400002	1
39.599998	1
39.900002	1
40.200001	1
40.500000	2
41.083334	14
42.225000	5
43.120000	102
43.900002	2
45.129762	64
45.900002	1
46.799999	1
51.549999	1
51.900002	1
52.200001	1
52.599998	1
52.799999	1
53.099998	2
53.442858	3
55.063247	336
55.964706	6
57.133553	286
57.937501	3
58.950001	2
59.299999	1
62.299999	1
63.250000	1
63.799999	1
64.199997	1
64.500000	1
64.699997	1
67.081283	424
69.111272	470
71.121017	112
74.300003	1
75.599998	1
76.049999	1
76.350002	2
77.176666	23
79.035572	265
81.110148	999
83.078135	235
84.199997	2
85.079999	23
86.099998	1
89.500000	1
89.699997	1
91.061594	104
91.981818	8
93.093950	463
95.060529	945
97.035849	40
98.000000	1
98.440001	2
99.069444	14
99.900002	1
102.900002	1
103.400002	2
103.699997	1
104.000000	2
105.051352	84
106.099998	8
107.047436	354
109.082991	405
110.300003	1
110.883335	5
111.300000	4
115.099998	1
116.199997	1
117.000000	2
117.400002	1
117.599998	1
117.900002	2
118.300003	2
118.990000	15
120.099998	3
121.097190	162
121.925001	2
123.089312	50
124.199999	1
125.000000	1
125.199997	1
125.500000	1
127.900002	1
128.300003	1
128.800003	1
129.100006	1
129.300003	1
129.800003	1
130.000000	1
130.349998	2
130.933329	2
131.399994	2
132.100006	1
133.056607	20
134.000000	3
135.056349	95
135.899997	2
136.899994	3
137.171428	5
137.399994	2
137.600006	1
141.699997	1
142.000000	1
143.199997	1
143.699997	1
144.550003	2
144.800003	2
145.110005	4
145.966670	2
146.399994	2
147.082221	34
148.000000	2
149.124763	40
150.600006	1
150.800003	1
151.000000	2
151.500000	1
155.300003	1
155.899994	1
156.399994	1
157.000000	1
157.500000	1
158.300003	1
158.800003	1
159.183332	2
160.125004	2
160.500000	2
160.885709	5
162.100006	1
163.339999	8
165.000000	1
165.250000	1
165.800003	1
169.399994	1
170.100006	1
170.600006	1
171.000000	1
171.399994	1
172.000000	1
172.699997	1
172.899994	1
173.100006	2
173.399997	2
174.050003	1
174.349998	1
175.124998	6
176.600006	1
177.199997	1
180.800003	1
182.800003	1
183.399994	1
185.399994	1
186.000000	1
186.800003	1
187.000000	1
187.250000	1
188.100006	1
188.600006	1
189.374999	6
190.199997	1
190.500000	1
191.000000	1
193.000000	1
193.349998	2
197.349998	1
198.100006	1
199.300003	1
200.300003	1
200.699997	1
200.899994	1
201.550003	1
202.050003	1
202.399994	1
202.750000	2
203.424995	2
204.699997	1
204.899994	1
205.899994	1
206.600006	1
209.300003	1
215.000000	1
215.199997	1
215.399994	1
215.849998	1
216.150002	2
216.500000	1
216.699997	1
217.100006	1
217.399994	1
219.199997	1
220.899994	1
226.899994	1
229.000000	1
229.399994	1
230.199997	1
230.899994	1
231.349998	1
233.349998	1
239.399994	1
239.600006	1
242.000000	1
242.300003	1
242.800003	1
243.399994	1
244.399994	1
247.300003	1
252.399994	1
255.899994	1
257.050003	1
257.500000	1
258.449997	1
259.200012	1
259.399994	1
265.799988	1
267.299988	1
271.000000	1
271.299988	1
271.500000	1
273.000000	1
273.399994	1
276.500000	1
277.700012	1
283.299988	1
284.250000	1
285.000000	1
285.299988	1
287.000000	1
287.299988	1
295.000000	1
299.399994	1
301.299988	1
337.600006	1
340.399994	1
369.100006	1
