Mass spectrum: 62FTA; LC-ESI-QQ; MS2; CE30; [M-H]-
Name: 62FTA
Name: 62Fluorotelomer Acid
Name: 3,3,4,4,5,5,6,6,7,7,8,8,8-Tridecafluorooctanoic acid
Class: Non-Natural Product
Formula: C8H3F13O2
Exact mass: 377.99255
SMILES: OC(=O)CC(F)(F)C(F)(F)C(F)(F)C(F)(F)C(F)(F)C(F)(F)F
InChI: InChI=1S/C8H3F13O2/c9-3(10,1-2(22)23)4(11,12)5(13,14)6(15,16)7(17,18)8(19,20)21/h1H2,(H,22,23)
Instrument: Xevo TQ MS (Waters)
Instrument type: LC-ESI-QQ
Ms type: MS2
Ion mode: NEGATIVE
Collision energy: 30
Retention time: 0.016833
Base peak: 292.930450
Precursor m/z: 377
Precursor type: [M-H]-
m/z	relative intensity
59.139542	31
63.013359	308
68.802338	59
89.058716	74
92.965904	294
103.091072	43
115.162148	39
118.954109	55
131.096756	151
143.011658	275
158.905807	32
159.196915	43
192.926819	35
205.337387	34
219.283829	42
242.995407	434
293.036041	999
