Mass spectrum: Estriol; LC-APPI-QQ; MS2; CE:30 V; [M-2H2O+H]+
Name: Estriol
Class: Natural Product; Steroid hormone
Formula: C18H24O3
Exact mass: 288.17254
SMILES: Oc(c4)cc(C3)c(c4)C(C2)C(C3)C(C1)C(C)(C2)C(O)C(O)1
InChI: InChI=1S/C18H24O3/c1-18-7-6-13-12-5-3-11(19)8-10(12)2-4-14(13)15(18)9-16(20)17(18)21/h3,5,8,13-17,19-21H,2,4,6-7,9H2,1H3/t13?,14?,15?,16-,17+,18?/m1/s1
Instrument: API2000
Instrument type: LC-APPI-QQ
Ms type: MS2
Ion mode: POSITIVE
Retention time: 0.820850 min
Base peak: 253.100006
Precursor m/z: 253.200000
Precursor type: [M-2H2O+H]+
m/z	relative intensity
37.900002	1
40.200001	1
40.900002	1
41.200001	1
41.400002	1
42.400002	1
42.599998	1
42.900002	1
43.250000	1
43.500000	1
45.400002	1
47.500000	1
53.700001	1
54.000000	1
54.981818	3
56.500000	1
56.799999	1
57.074999	1
60.400002	1
65.000000	1
65.300003	1
65.500000	1
65.800003	1
67.122472	20
67.850002	1
68.300003	1
69.139584	11
70.000000	1
70.400002	1
70.850002	1
71.099998	1
71.300003	1
72.900002	1
76.885716	2
77.433334	1
77.775002	1
78.292860	2
79.071034	33
81.080698	111
82.000000	1
82.400002	1
83.000000	1
84.699997	1
84.950001	1
85.199997	1
87.300003	1
89.199997	1
89.500000	1
89.750000	1
91.046212	15
93.063808	79
93.825003	1
95.048454	66
96.699997	1
96.900002	1
97.099998	1
97.300003	1
98.800003	1
99.199997	1
99.400002	1
102.975000	1
103.325003	1
103.699999	1
104.000000	1
105.054396	21
105.599998	1
107.032530	194
109.056277	53
110.099998	1
110.300003	1
111.000000	1
111.300003	1
112.800003	1
113.300003	1
113.900002	1
114.099998	1
114.991304	3
115.800003	1
116.000000	1
116.300003	1
116.908573	4
117.599998	1
117.950001	1
118.599998	1
119.064516	7
120.199997	1
121.039732	51
121.800003	1
122.500000	1
122.900002	1
123.350002	1
124.800003	1
126.199997	1
126.400002	1
126.599998	1
126.900002	2
127.599998	1
128.000003	3
129.066665	5
130.100006	1
130.984508	16
133.063945	115
134.835714	2
135.324997	1
136.699997	1
136.899994	1
137.199997	1
138.800003	1
139.199997	1
139.500000	1
139.849998	1
141.033333	8
141.600006	1
142.000000	1
142.300003	1
143.090163	7
145.033193	163
145.800003	1
146.165713	4
147.106370	18
148.199997	1
148.699997	1
148.899994	1
149.300003	1
149.800003	1
150.550003	1
150.949997	1
151.199997	1
152.030002	1
153.086335	18
155.106251	15
157.072645	659
159.051706	214
160.283335	1
161.094048	19
161.800003	1
162.750000	1
163.100006	1
163.300003	1
164.000000	1
165.011727	35
166.093756	2
167.112370	11
169.075282	20
171.015984	117
172.000000	1
173.088015	30
174.000000	1
174.874996	1
175.399994	1
175.699997	1
176.000000	1
176.199997	1
176.600006	1
176.800003	1
177.100006	1
179.074717	60
180.199997	1
181.134461	17
183.099021	257
185.035283	64
186.050003	1
186.699997	1
187.000000	1
187.399994	1
187.800003	1
188.699997	1
189.033333	1
189.424995	1
190.000000	1
190.199997	1
190.466665	1
190.699997	1
191.169232	3
191.899994	1
193.131406	14
194.080881	8
195.094144	25
197.099258	431
198.120578	99
199.122585	4
201.199997	1
201.800003	1
202.133336	1
202.500000	1
202.899994	1
203.299998	1
204.100006	1
204.859998	1
205.740002	1
206.000000	1
206.259998	1
207.039999	10
207.937496	1
208.199997	1
209.117445	37
210.182433	34
211.075341	118
212.088156	17
213.399994	1
214.899994	1
215.199997	1
216.199997	1
217.050001	1
217.550003	1
218.000000	1
218.399994	1
218.650002	1
218.983332	1
219.743750	2
220.225638	4
221.013497	19
222.108888	5
223.150002	11
224.136441	27
225.147074	90
225.899994	1
226.100006	1
233.150002	1
233.449997	1
233.699997	1
234.000000	1
234.299998	1
235.092681	9
236.059999	1
236.550003	1
236.800003	1
237.040002	1
237.300003	1
238.172565	26
238.800003	1
239.000000	1
247.899994	1
248.800003	1
249.050003	1
249.399994	1
249.800003	1
250.199997	1
250.983332	7
253.192368	999
254.399994	1
254.600006	1
263.399994	1
272.500000	1
