Mass spectrum: Androsterone; LC-APPI-QQ; MS2; CE:30 V; [M-H2O+H]+
Name: Androsterone
Class: Natural Product; Steroid hormone
Formula: C19H30O2
Exact mass: 290.22458
SMILES: OC(C4)CC([H])(C3)C(C)(C4)C(C2)C(C3)C(C1)C(C)(C2)C(=O)C1
InChI: InChI=1S/C19H30O2/c1-18-9-7-13(20)11-12(18)3-4-14-15-5-6-17(21)19(15,2)10-8-16(14)18/h12-16,20H,3-11H2,1-2H3/t12-,13+,14?,15?,16?,18?,19?/m0/s1
Instrument: API2000
Instrument type: LC-APPI-QQ
Ms type: MS2
Ion mode: POSITIVE
Retention time: 0.820850 min
Base peak: 147.199997
Precursor m/z: 273.300000
Precursor type: [M-H2O+H]+
m/z	relative intensity
38.900002	1
39.099998	1
40.980000	1
41.400002	1
42.299999	1
43.035294	3
51.250000	1
52.750000	1
53.074999	1
53.400002	1
53.799999	1
54.049999	1
55.091666	8
55.599998	1
55.900002	1
56.400002	1
56.887501	1
57.299999	1
59.000000	1
59.200001	1
59.400002	1
60.700001	1
63.500000	1
63.850000	1
64.099998	1
64.350002	1
65.112499	1
65.500000	1
67.106872	33
69.132966	14
69.800003	1
71.111428	6
71.900002	1
72.750000	1
73.099998	1
73.350002	1
74.599998	1
75.000000	1
75.599998	1
76.000000	1
76.994854	11
79.041923	82
81.101042	196
83.084806	45
84.000000	1
84.300003	1
84.907144	1
88.099998	1
89.149998	1
89.400002	1
91.040351	81
93.120210	172
95.062993	136
97.087984	20
98.199997	1
98.988890	2
101.049999	1
101.900002	1
102.099998	1
102.300003	1
102.853335	1
103.370002	1
105.037482	212
107.050022	358
109.112316	91
110.000000	1
111.137929	5
112.000000	1
112.599998	1
112.900002	1
113.149998	1
113.400002	1
114.500000	1
115.055556	1
115.787502	1
117.076087	33
119.074240	119
121.102630	132
123.074653	40
125.071429	7
126.699997	1
127.099998	1
127.466667	1
129.105715	11
131.135035	100
133.136925	136
135.113540	167
135.800003	1
136.228572	1
137.131539	10
138.000000	1
138.199997	1
139.075000	3
140.800003	1
141.133334	1
143.084830	42
145.100749	420
147.142055	722
149.131432	70
151.162163	12
151.699997	1
152.100006	1
152.300003	1
153.216665	1
154.199997	1
155.050002	2
157.142410	53
159.130835	367
161.138936	727
163.155315	40
164.199997	1
164.399994	1
165.169767	3
166.100006	1
166.699997	1
167.250000	1
169.073334	2
169.800003	1
171.119118	53
173.184027	306
175.153186	57
176.000000	1
176.199997	1
177.173529	11
178.399994	1
179.000000	1
179.315380	1
179.600006	1
180.000000	1
180.899994	1
181.950005	1
182.300003	1
183.150000	3
185.154011	169
187.182408	68
187.899994	1
188.199997	1
189.174276	24
190.000000	1
191.159574	7
192.250000	1
193.100006	1
193.399994	1
194.950001	1
195.300003	1
195.949997	1
196.300003	1
197.163635	6
199.193906	428
200.201697	9
201.171052	30
203.244341	8
204.199997	1
204.600006	1
205.080002	1
207.000000	1
207.399994	1
207.899994	1
208.500000	1
209.050003	1
209.300003	1
209.500000	1
211.173912	4
211.699997	1
213.215016	118
215.285282	42
216.041669	1
217.213837	25
218.000000	1
218.199997	1
219.100006	1
219.300003	1
220.399994	1
221.100006	1
221.699997	1
222.000000	1
222.300003	1
223.199997	1
224.100006	1
224.300003	1
227.221331	34
228.100006	1
228.374996	1
229.142426	5
230.135293	1
231.180001	2
234.100006	1
237.100006	1
237.399994	1
239.100001	1
240.259493	12
241.069234	1
241.600006	1
242.000000	1
242.399994	1
242.899994	1
243.166667	1
244.133336	1
244.399994	1
244.600006	1
245.116666	8
248.949997	1
249.899994	1
251.300003	1
251.500000	1
252.250000	1
252.899994	1
253.304651	3
255.315520	999
257.150009	1
257.500000	1
258.220340	5
270.200012	1
270.899994	1
271.474998	1
271.824989	1
272.100006	1
273.320607	192
278.700012	1
