Mass spectrum: Ethinyl estradiol; LC-APPI-QQ; MS2; CE:60 V; [M-H2O+H]+
Name: Ethinyl estradiol
Class: Non-Natural Product; Steroid hormone
Formula: C20H24O2
Exact mass: 296.17763
SMILES: Oc(c4)cc(C3)c(c4)C(C2)C(C3)C(C1)C(C)(C2)C(O)(C#C)C1
InChI: InChI=1S/C20H24O2/c1-3-20(22)11-9-18-17-6-4-13-12-14(21)5-7-15(13)16(17)8-10-19(18,20)2/h1,5,7,12,16-18,21-22H,4,6,8-11H2,2H3
Instrument: API2000
Instrument type: LC-APPI-QQ
Ms type: MS2
Ion mode: POSITIVE
Retention time: 0.820867 min
Base peak: 105.000000
Precursor m/z: 279.400000
Precursor type: [M-H2O+H]+
m/z	relative intensity
38.099998	1
38.299999	1
39.035715	3
39.799999	1
41.125000	27
43.078846	9
43.900002	1
45.200001	1
47.200001	1
47.400002	1
49.799999	1
50.799999	1
51.149999	4
52.037499	1
53.115979	17
55.063688	125
56.000000	1
56.299999	1
56.700001	1
56.912501	1
58.299999	1
59.099998	1
59.900002	1
61.200001	1
61.850000	1
62.400002	1
62.789999	1
63.123077	2
65.098700	69
67.129234	100
69.112346	7
69.800003	1
70.900002	1
71.099998	1
73.199997	1
73.900002	1
74.099998	1
74.968750	1
77.066014	421
79.060644	500
81.102956	70
82.400002	1
83.049999	1
83.300003	1
85.000000	1
86.199997	1
86.400002	1
86.699997	1
86.900002	1
87.099998	1
87.300003	1
87.599998	1
88.000000	1
88.410001	1
89.176191	8
91.067337	908
93.130128	70
94.091411	29
95.086737	34
96.000000	1
96.699997	1
97.400002	1
98.000000	1
98.599998	1
99.199997	1
99.900002	1
101.049999	2
103.078208	229
105.063474	999
107.046383	198
108.074999	1
108.500000	1
108.880001	1
109.500000	1
111.699997	1
111.975000	1
112.250000	1
112.500000	1
112.900002	1
115.071024	449
116.137438	198
117.091265	71
118.184848	15
119.079785	42
120.300003	1
121.083186	20
121.699997	1
121.900002	1
122.099998	1
122.400002	1
123.000000	1
123.199997	1
123.599998	1
124.700001	1
127.103784	132
128.092063	185
129.123717	119
131.123416	268
133.105992	362
134.300003	1
134.500000	1
135.199997	1
135.500000	1
135.800003	1
136.399994	1
137.199997	1
137.600006	1
137.800003	1
138.050003	1
139.136560	8
141.134267	249
142.144044	25
144.076457	547
145.108840	32
146.228572	2
147.118518	10
148.150002	1
148.399994	1
148.966665	1
149.300003	1
149.899994	1
150.257143	1
151.130509	16
152.122428	68
153.128473	52
154.132875	13
155.059092	28
157.122338	155
159.132779	124
160.100006	1
160.899994	1
161.199997	1
161.500000	1
162.000000	1
163.000000	2
163.300003	2
165.108434	149
166.122951	33
167.150534	25
168.063282	11
169.081915	34
170.081296	12
171.057536	13
172.009089	1
173.130771	2
173.699997	1
174.000000	1
174.525002	1
174.899994	1
176.132222	16
177.173171	22
178.147071	43
179.148572	31
181.102397	82
182.141525	21
183.163348	20
184.424995	1
185.090002	4
185.510001	1
186.500000	1
187.500000	1
189.183052	21
190.111921	14
191.122222	22
192.100006	2
194.135954	64
195.156940	32
196.168919	7
196.800003	1
197.166667	5
197.800003	1
198.200003	1
198.600006	1
198.874996	1
199.250000	1
200.259998	1
200.904254	4
202.187692	12
203.155224	12
203.904994	2
205.128675	12
206.157830	7
207.136627	46
208.108081	18
209.097980	18
209.899996	1
210.320001	1
210.900000	1
211.300003	1
211.500000	1
212.000000	1
213.300003	1
213.550003	1
214.399994	1
214.699997	1
215.036366	2
215.300003	1
216.033333	1
216.399994	1
217.137838	3
218.083337	3
219.102027	13
220.197368	7
221.077273	16
222.105555	3
223.152831	5
223.949997	1
224.199997	1
224.424995	1
224.899994	1
225.199997	1
225.399994	1
225.800003	1
226.250000	1
227.300003	1
227.949997	1
228.300003	1
228.600006	1
228.800003	1
229.100006	1
229.300003	1
230.000000	1
230.449997	1
230.927268	1
231.899994	1
232.100006	1
233.015790	3
234.266668	2
235.233332	8
236.233332	3
236.924995	1
237.199997	1
237.474998	1
238.399994	1
241.000000	1
242.899994	1
243.800003	1
244.699997	1
245.100006	1
245.399994	1
246.000000	1
246.250000	1
247.222222	1
248.100000	1
248.399994	1
249.121433	1
249.399994	1
250.100001	1
250.800003	1
251.000000	1
251.199997	1
257.299988	1
259.399994	1
259.600006	1
260.000000	1
260.299988	1
260.899994	1
261.100006	1
261.371421	1
262.650009	1
263.200008	1
264.000000	1
264.250000	1
264.500000	1
265.399994	1
276.200012	1
277.700012	1
279.000000	1
279.500000	1
