Mass spectrum: Dehydroepiandrosterone; LC-APPI-QQ; MS2; CE:60 V; [M-2H2O+H]+
Name: Dehydroepiandrosterone
Class: Natural Product; Steroid hormone
Formula: C19H28O2
Exact mass: 288.20893
SMILES: OC(C4)CC(=C3)C(C)(C4)C(C2)C(C3)C(C1)C(C)(C2)C(=O)C1
InChI: InChI=1S/C19H28O2/c1-18-9-7-13(20)11-12(18)3-4-14-15-5-6-17(21)19(15,2)10-8-16(14)18/h3,13-16,20H,4-11H2,1-2H3/t13-,14?,15?,16?,18?,19?/m0/s1
Instrument: API2000
Instrument type: LC-APPI-QQ
Ms type: MS2
Ion mode: POSITIVE
Retention time: 0.820850 min
Base peak: 140.899994
Precursor m/z: 253.300000
Precursor type: [M-2H2O+H]+
m/z	relative intensity
37.500000	1
38.000000	1
39.090698	4
41.093201	66
43.041327	18
45.299999	1
49.500000	1
50.099998	1
51.000000	2
51.350000	1
52.000000	1
53.125606	27
55.069989	245
56.033333	1
56.900002	1
57.799999	1
58.000000	1
58.900002	1
59.250000	1
61.799999	1
62.000000	1
62.799999	1
63.275001	1
65.063859	84
67.106638	350
68.099998	1
69.110000	32
70.800001	1
71.199997	1
71.800003	1
72.099998	1
72.350002	1
72.699997	1
73.000000	1
74.300003	1
75.044444	1
77.050461	396
79.046220	589
81.094621	327
83.008333	2
83.800003	1
84.800003	1
86.699997	1
87.300003	1
87.500000	1
87.699997	1
88.199997	1
91.057703	999
93.092566	179
95.051057	53
96.199997	1
96.450001	1
97.099998	1
97.350002	1
99.300003	1
100.400002	1
101.233333	2
103.069343	77
105.045391	508
107.026860	23
108.199997	1
108.425001	1
109.124999	3
109.699997	1
110.800003	1
111.000000	1
111.300003	1
112.381818	1
112.900002	1
113.099998	1
115.052637	380
117.076184	146
118.134210	7
119.062323	66
120.300003	1
120.965385	2
122.500000	1
123.400002	1
123.750000	1
124.199997	1
124.400002	1
125.000000	1
128.074035	777
129.072753	460
131.135968	79
132.155558	4
133.047423	9
133.899999	1
134.600006	1
134.924995	1
135.199997	1
136.000000	1
136.399994	1
137.100006	1
137.300003	1
138.066671	1
141.111755	672
142.084519	434
143.077840	166
144.130272	28
145.074760	39
145.800003	1
146.040002	1
146.325001	1
146.887095	3
147.388237	2
147.800003	1
148.100006	1
148.899994	1
150.100006	1
153.092869	454
154.088936	220
155.075180	404
157.148526	83
158.181248	3
159.084618	6
159.699997	1
160.000000	1
160.199997	1
160.750000	1
161.100006	1
161.399994	1
161.800003	1
162.025002	1
162.399994	1
162.960004	1
165.084423	284
167.111597	756
168.129203	153
169.089060	200
170.125396	12
171.097223	17
172.199997	1
172.474998	1
172.977776	2
173.399994	1
174.000000	1
174.800003	1
175.733332	1
176.100006	1
176.961538	1
178.172999	19
179.150308	61
181.111351	256
182.189442	184
183.136012	63
184.144444	3
184.922217	2
185.354544	2
186.200002	1
186.974998	1
187.399994	1
189.199997	1
189.600006	1
190.211110	2
190.699997	1
191.212499	4
192.209524	4
193.171341	15
195.208202	59
196.124300	20
197.194699	53
198.000000	1
198.262501	1
198.550003	1
199.030002	1
201.899994	1
202.300003	1
202.600006	1
202.800003	1
203.033335	1
203.899994	1
204.300003	1
204.940002	1
205.300003	1
205.500000	1
205.800003	1
206.162500	1
207.206002	5
207.825001	2
208.315790	7
209.135644	19
210.439996	2
211.184213	4
211.600006	1
212.199997	1
212.399994	1
212.899994	1
217.100006	1
218.399994	1
218.800003	1
219.800003	1
220.100006	1
221.013334	3
221.449997	1
223.179013	30
224.250000	1
224.899994	1
225.399997	1
235.150002	1
236.000000	1
236.399994	1
237.077777	3
238.213334	1
239.100006	1
249.500000	1
249.800003	1
250.300003	1
250.699997	1
251.399994	1
251.600006	1
251.899994	1
252.300003	1
252.699997	1
253.000000	1
253.299996	1
253.699997	1
281.600006	1
283.799988	1
