Mass spectrum: 102FTA; LC-ESI-QQ; MS2; CE10; [M-H]-
Name: 102FTA
Name: 102Fluorotelomer Acid
Name: 3,3,4,4,5,5,6,6,7,7,8,8,9,9,10,10,11,11,12,12,12-Heneicosafluorododecanoic acid
Class: Non-Natural Product
Formula: C12H3F21O2
Exact mass: 577.97977
SMILES: OC(=O)CC(F)(F)C(F)(F)C(F)(F)C(F)(F)C(F)(F)C(F)(F)C(F)(F)C(F)(F)C(F)(F)C(F)(F)F
InChI: InChI=1S/C12H3F21O2/c13-3(14,1-2(34)35)4(15,16)5(17,18)6(19,20)7(21,22)8(23,24)9(25,26)10(27,28)11(29,30)12(31,32)33/h1H2,(H,34,35)
Instrument: Xevo TQ MS (Waters)
Instrument type: LC-ESI-QQ
Ms type: MS2
Ion mode: NEGATIVE
Collision energy: 10
Retention time: 0.016817
Base peak: 492.789337
Precursor m/z: 577
Precursor type: [M-H]-
m/z	relative intensity
62.842400	596
169.013229	79
342.851013	56
392.933075	56
464.803833	52
465.085022	82
492.363922	359
492.886871	999
512.887024	752
530.660156	56
532.873596	203
577.152466	530
577.626953	71
