Mass spectrum: Epiandrosterone; LC-APPI-QQ; MS2; CE:60 V; [M-H2O+H]+
Name: Epiandrosterone
Name: 3-beta-Hydroxy-5alpha-androstan-17-one
Class: Natural Product; Steroid hormone
Formula: C19H30O2
Exact mass: 290.22458
SMILES: OC(C4)CC([H])(C3)C(C)(C4)C(C2)C(C3)C(C1)C(C)(C2)C(=O)C1
InChI: InChI=1S/C19H30O2/c1-18-9-7-13(20)11-12(18)3-4-14-15-5-6-17(21)19(15,2)10-8-16(14)18/h12-16,20H,3-11H2,1-2H3/t12-,13-,14?,15?,16?,18?,19?/m0/s1
Instrument: API2000
Instrument type: LC-APPI-QQ
Ms type: MS2
Ion mode: POSITIVE
Retention time: 0.820850 min
Base peak: 91.000000
Precursor m/z: 273.300000
Precursor type: [M-H2O+H]+
m/z	relative intensity
37.400002	1
38.400002	1
38.700001	1
38.950001	1
39.333333	1
40.000000	1
41.100000	35
43.059333	40
43.799999	1
44.049999	1
45.250000	1
49.099998	1
50.200001	1
50.700001	1
51.212501	2
52.000000	1
53.157895	20
55.086450	247
57.155814	12
58.599998	1
59.000000	1
59.400002	1
61.200001	1
61.900002	1
62.200001	1
62.900002	1
63.099998	1
63.425001	1
65.133600	50
67.105431	365
69.097956	65
69.900002	1
71.109091	6
71.699997	1
72.699997	1
73.400002	1
73.599998	1
73.900002	1
74.124998	1
75.037499	1
77.060190	451
79.058015	701
81.110349	429
83.124432	24
84.599998	1
85.300003	1
86.099998	1
86.450001	1
86.900002	1
88.537499	1
91.064224	999
93.118087	360
95.067872	133
96.350002	1
97.070000	8
98.099998	1
99.199997	1
99.699997	1
100.750000	1
102.090908	3
103.092785	67
105.063842	749
107.052414	116
108.099998	1
109.155422	22
109.950001	1
110.300001	1
111.000000	1
111.400002	1
111.800003	1
112.500000	1
112.699997	1
113.149998	1
115.056903	80
117.095771	142
119.105642	223
119.833336	2
121.147619	14
121.900002	1
122.099998	1
123.110170	8
124.199997	1
124.400002	1
124.599998	1
125.400002	1
125.800003	1
126.000000	1
128.103594	112
129.099823	151
130.128078	54
131.144195	101
133.130928	39
133.800003	1
134.100006	1
135.080555	10
136.800003	1
137.100006	1
137.300003	1
137.500000	1
138.000000	1
138.899994	1
139.300003	1
140.116671	1
141.107985	39
142.130132	61
143.073957	80
145.116449	61
146.238461	3
147.199999	21
147.899999	1
148.600006	1
149.218180	3
150.899994	1
151.100006	1
151.474998	1
152.216667	2
153.175001	4
153.929162	3
154.280000	4
155.097478	32
156.151852	14
157.116266	44
158.260001	4
159.168750	21
160.000000	1
160.300003	1
161.166668	8
162.000000	1
162.399994	1
162.800003	1
163.025002	1
163.325001	1
164.100006	1
164.300003	1
164.924995	1
165.199997	1
166.000000	1
166.199997	1
166.500000	1
166.800003	1
167.233331	4
168.242857	5
169.118237	21
170.114291	4
171.120931	23
172.277778	2
173.241667	6
174.199997	1
175.100006	1
175.300003	1
175.500000	1
176.100006	1
176.449997	1
177.050003	1
177.799998	1
178.449997	1
179.100006	1
179.300003	1
179.600006	1
180.600006	1
181.016668	2
181.775002	1
182.199997	1
182.500000	1
183.237499	10
184.240744	4
185.229630	11
186.000000	1
186.199997	1
186.399994	1
186.800003	1
187.362499	2
187.899994	1
188.166667	1
189.152382	6
190.199997	1
190.600006	1
191.000000	1
195.349998	1
196.099998	1
196.399994	1
196.600006	1
197.100006	2
197.800003	1
198.000000	1
198.300003	1
198.500000	1
199.306247	4
200.253333	2
201.100006	1
201.449997	2
202.155883	9
203.199997	1
205.150002	1
205.399994	1
207.500000	1
208.899994	1
209.399994	1
210.800003	1
211.083336	2
211.800003	1
212.000000	1
212.349998	1
213.325001	1
214.233337	1
214.600006	1
214.942496	5
215.899999	1
216.199997	1
216.600006	1
217.399994	1
217.899994	1
218.300003	1
223.299998	1
224.000000	1
225.144001	3
226.244445	4
226.600006	1
226.899994	1
227.199997	1
227.899999	1
228.199997	1
228.399994	1
228.699997	1
229.224998	1
230.100006	1
230.600006	1
230.800003	1
231.199997	1
231.500000	1
238.100006	1
238.500000	1
238.699997	1
238.899994	1
239.399994	1
239.600006	1
239.899994	1
242.000000	1
242.199997	1
243.000000	1
243.300003	1
243.500000	1
243.699997	1
243.899994	1
244.399994	1
245.000000	1
245.399994	1
245.600006	1
247.199997	1
252.399994	1
254.199997	1
255.349998	1
256.399994	1
257.000000	1
257.200012	1
271.799988	1
273.250000	1
