Mass spectrum: Estrone; LC-APPI-QQ; MS2; CE:20 V; [M+H]+
Name: Estrone
Class: Natural Product; Steroid hormone
Formula: C18H22O2
Exact mass: 270.16198
SMILES: Oc(c4)cc(C3)c(c4)C(C2)C(C3)C(C1)C(C)(C2)C(=O)C1
InChI: InChI=1S/C18H22O2/c1-18-9-8-14-13-5-3-12(19)10-11(13)2-4-15(14)16(18)6-7-17(18)20/h3,5,10,14-16,19H,2,4,6-9H2,1H3
Instrument: API2000
Instrument type: LC-APPI-QQ
Ms type: MS2
Ion mode: POSITIVE
Retention time: 0.820850 min
Base peak: 271.100006
Precursor m/z: 271.100000
Precursor type: [M+H]+
m/z	relative intensity
39.000000	1
39.200001	1
40.950001	1
42.000000	1
43.000000	1
43.599998	1
51.299999	1
53.099998	1
53.299999	1
54.700001	1
55.099998	1
55.400002	1
56.799999	1
57.400002	1
57.599998	1
59.400002	1
65.099998	1
66.300003	1
66.500000	1
67.039999	1
67.599998	1
67.800003	1
68.300003	1
68.599998	1
68.860002	1
69.199997	1
69.925001	1
71.088823	8
73.400002	1
75.000000	1
76.400002	1
76.975000	1
77.450001	1
77.699997	1
77.900002	1
79.131250	1
79.760001	1
81.077753	21
82.199997	1
82.988889	1
83.699997	1
85.073928	14
87.199997	1
88.900002	1
89.900002	1
90.099998	1
90.300003	1
91.171429	1
93.072938	19
95.047190	4
96.099998	1
97.052632	1
98.099998	1
98.375002	1
98.992593	2
102.400002	1
103.099998	1
103.975000	1
104.199997	1
105.042857	2
107.054501	29
109.064638	8
111.066011	9
111.800003	1
112.300003	1
112.800003	1
113.599998	1
114.500000	1
114.942858	1
116.066666	1
116.699997	1
117.083332	1
117.599998	1
117.800003	1
118.199997	1
119.268751	1
119.500000	1
121.058983	13
122.500000	1
122.966667	1
123.300003	1
123.800003	1
125.128261	3
125.800003	1
126.000000	1
126.983334	1
127.825003	1
128.199997	1
129.050003	1
130.133334	1
133.096959	325
134.955556	1
136.699997	1
136.899994	1
137.399994	1
138.100006	1
138.500000	1
138.949999	1
139.300003	1
139.899994	1
141.134374	2
142.200002	1
145.065488	22
147.163636	6
148.000000	1
148.199997	1
148.449997	1
149.042860	1
149.339999	1
149.699997	1
150.399994	1
150.946155	1
151.362497	1
151.600006	1
152.150002	1
153.212498	1
153.924999	1
154.199997	1
157.112039	362
159.100845	325
161.093877	7
162.150002	1
163.183332	1
163.800003	1
164.000000	1
164.399994	1
165.083335	1
165.849998	1
167.133334	1
167.949997	1
168.250000	1
169.041072	1
169.899994	1
171.063554	16
173.144373	22
175.114414	5
175.800003	1
176.100006	1
176.300003	1
176.949997	1
177.250000	1
177.500000	1
178.000000	1
178.374996	1
179.193444	1
180.000000	1
180.299998	1
180.899994	1
181.270000	1
182.100006	1
183.129655	35
184.004546	1
185.126517	15
186.100000	1
187.117242	1
187.699997	1
187.899994	1
189.000001	1
189.381818	1
189.699997	1
190.300003	1
190.800003	1
191.199997	1
191.500000	1
193.000000	1
194.325001	1
194.600006	1
195.161904	1
197.163189	214
198.106763	10
199.166218	2
201.137905	138
202.300003	1
202.500000	1
202.899994	1
203.224998	1
203.500000	1
204.000000	1
204.500000	1
204.874996	1
205.300003	1
207.000000	1
207.275002	1
207.500000	1
208.100006	1
209.130646	3
210.199997	1
211.136397	40
213.188170	117
214.199997	1
215.300003	1
218.899994	1
220.000000	1
220.349998	1
220.699997	1
221.500000	1
222.199997	1
222.699997	1
223.500000	1
225.189708	14
226.100006	1
227.212307	2
228.199997	1
229.100006	1
229.300003	1
233.000000	1
233.199997	1
234.600006	1
235.000000	1
235.557146	1
235.849998	1
237.050003	1
237.399994	1
238.222222	2
239.092499	2
239.600006	1
240.500000	1
240.799998	1
241.100006	1
241.300003	1
241.500000	1
242.000000	1
242.199997	1
243.199998	1
243.500000	1
244.100006	1
248.399994	1
249.000000	1
250.000000	1
250.500000	1
251.115307	2
253.250158	959
254.600006	1
255.200002	1
255.600006	1
256.000000	1
256.299994	1
266.000000	1
266.500000	1
266.849991	1
267.200012	1
268.150009	1
268.399994	1
268.799988	1
269.083338	1
269.473332	1
271.251547	999
272.824989	1
