Mass spectrum: Ethinyl estradiol; LC-APPI-QQ; MS
Name: Ethinyl estradiol
Class: Non-Natural Product; Steroid hormone
Formula: C20H24O2
Exact mass: 296.17763
SMILES: Oc(c4)cc(C3)c(c4)C(C2)C(C3)C(C1)C(C)(C2)C(O)(C#C)C1
InChI: InChI=1S/C20H24O2/c1-3-20(22)11-9-18-17-6-4-13-12-14(21)5-7-15(13)16(17)8-10-19(18,20)2/h1,5,7,12,16-18,21-22H,4,6,8-11H2,2H3
Instrument: API2000
Instrument type: LC-APPI-QQ
Ms type: MS
Ion mode: POSITIVE
Retention time: 0.821050 min
Base peak: 279.100006
Ion type: [M-H2O+H]+
m/z	relative intensity
151.135262	4
153.118149	5
154.108182	1
155.115889	5
157.130687	24
158.123873	6
159.138050	48
160.166488	7
161.154856	23
163.120061	14
164.162364	2
165.130486	4
167.123362	4
169.104099	6
170.106880	3
171.118305	15
173.124557	17
174.109332	4
175.121141	9
176.176984	2
177.147829	7
178.147030	2
179.155318	8
181.123870	19
182.166895	3
183.122842	23
184.154589	4
185.135956	19
186.103577	4
187.105472	13
188.105511	3
189.128936	9
191.132719	6
193.159356	9
195.146679	16
197.130165	44
199.136532	23
200.136974	4
201.124304	11
203.111261	7
205.097348	9
206.078948	2
207.121515	7
209.152699	30
211.140883	30
213.145142	24
214.183203	5
215.135471	11
216.180636	2
217.123987	5
219.100845	9
221.125248	13
223.136009	32
224.165044	8
225.148337	14
227.153481	11
228.191208	3
229.132105	7
230.169664	4
231.134007	14
233.112176	25
235.102280	21
237.145080	38
238.130651	10
239.145380	25
241.186323	9
242.199729	2
243.173090	6
245.140265	19
247.128634	54
249.122037	53
251.134783	46
253.168398	44
255.111116	16
257.139768	12
259.137323	34
261.113714	38
263.105057	46
265.116397	23
267.136150	42
269.161664	34
271.185546	94
273.176573	29
275.163346	41
277.165840	62
279.204082	999
283.148072	21
285.153967	21
287.163913	38
289.191965	26
291.187433	21
293.200888	30
295.213496	74
296.255412	32
297.238206	32
299.161950	15
301.198865	25
303.203528	11
305.243594	12
307.214098	15
309.214596	13
311.269805	47
312.281025	14
313.210377	10
314.188647	6
315.200192	12
317.185910	11
319.195055	7
321.217200	8
323.189666	8
325.187899	12
327.191884	8
328.226111	2
329.159174	6
331.140526	6
333.179829	6
335.186387	7
337.213398	8
338.238158	6
339.182302	9
341.199950	6
343.195916	5
345.192555	4
347.168515	6
349.214775	7
350.226771	8
351.222733	9
353.232723	7
355.211251	7
357.224540	4
359.214967	5
361.202888	6
363.227371	5
364.220615	3
365.215248	6
367.233153	5
369.327499	10
371.368032	19
373.251696	5
374.262525	3
375.235211	5
376.275152	4
377.234087	5
378.272311	5
379.244706	4
381.258735	4
383.304021	4
385.336668	9
387.366019	10
388.348838	5
389.292865	3
391.341060	5
393.265425	2
395.247999	2
397.272140	2
399.317403	7
