Mass spectrum: beta-Sitosterol; LC-APPI-QQ; MS2; CE:50 V; [M-H2O+H]+
Name: beta-Sitosterol
Class: Natural Product; Sterol
Formula: C29H50O
Exact mass: 414.38617
SMILES: C(C4)C(C(CC4O)=3)(C(C(CC3)2)CCC(C21)(C(CC1)C(C)CCC(C(C)C)CC)C)C
InChI: InChI=1S/C29H50O/c1-7-21(19(2)3)9-8-20(4)25-12-13-26-24-11-10-22-18-23(30)14-16-28(22,5)27(24)15-17-29(25,26)6/h10,19-21,23-27,30H,7-9,11-18H2,1-6H3/t20?,21?,23-,24?,25?,26?,27?,28?,29?/m0/s1
Instrument: API2000
Instrument type: LC-APPI-QQ
Ms type: MS2
Ion mode: POSITIVE
Retention time: 0.820833 min
Base peak: 118.900002
Precursor m/z: 397.600000
Precursor type: [M-H2O+H]+
m/z	relative intensity
40.500000	5
40.700001	5
41.099998	5
41.299999	5
42.000000	5
43.069999	52
43.299999	36
45.200001	5
53.900002	5
54.099998	5
54.911765	88
55.200001	62
56.000000	5
56.987501	167
65.400002	5
65.900002	10
66.199997	5
67.069230	135
67.900002	10
68.099998	10
69.162195	427
69.800003	10
70.199997	16
70.400002	21
70.699997	47
71.248148	140
71.800003	5
73.400002	5
73.699997	5
76.699997	5
76.900002	10
77.250000	21
77.599998	5
78.000000	16
78.400002	21
79.099998	78
79.330003	52
81.135075	697
82.224998	21
83.152000	260
84.400002	10
84.956251	83
85.800003	10
89.599998	5
90.000000	5
90.433334	31
90.946155	135
91.400002	57
91.599998	5
92.300003	52
93.068293	427
93.900002	10
94.099998	16
95.062500	999
96.099998	10
97.218183	114
98.099998	5
99.199997	5
101.800003	5
102.850002	10
103.199997	10
103.450001	10
103.800003	16
105.065910	458
105.800003	10
107.020910	572
108.932912	411
110.000000	16
110.599998	26
111.016666	31
112.300003	5
114.699997	5
114.900002	5
116.300003	5
116.599998	5
117.266668	31
117.928573	36
119.075825	473
119.833336	31
120.099998	21
121.144068	307
122.099998	5
122.350002	21
123.137499	83
124.250000	10
124.500000	5
125.400002	5
126.099998	10
127.900002	5
128.199997	5
128.500000	5
129.000000	16
129.199997	5
129.500000	5
129.699997	10
130.100006	5
130.300003	16
130.500000	5
131.150002	52
131.800003	10
132.955880	177
133.285002	104
133.899994	16
134.250000	31
135.061538	406
137.000000	47
139.500000	10
141.300003	5
142.899994	5
143.300003	21
143.699997	5
144.240002	26
145.065626	167
145.699997	26
147.141177	531
147.750000	10
148.000000	10
148.300003	5
149.060715	146
150.949997	10
154.800003	5
156.600006	5
156.899994	10
157.199997	10
157.500000	16
157.899994	5
158.300003	10
158.736364	57
159.080005	52
160.300003	21
161.144898	510
162.349998	10
163.299999	42
164.500000	5
164.899994	5
167.899994	5
170.500000	5
170.750000	10
171.060001	26
171.449997	10
172.100006	5
172.899994	21
173.242855	36
173.800003	10
174.000000	5
174.300003	5
174.800003	21
175.286666	78
176.199997	5
176.500000	5
176.699997	5
176.899994	5
177.299998	16
180.399994	5
182.800003	5
183.300003	10
184.550003	10
185.000000	5
185.550003	10
185.899994	5
186.600006	5
186.899994	10
187.100006	16
187.399994	5
188.100006	5
188.600006	5
189.199997	31
194.800003	10
196.800003	5
198.699997	5
198.899994	5
199.500000	5
200.300003	5
200.600006	5
200.800003	10
201.100006	10
201.399994	21
202.000000	5
202.199997	5
202.900000	36
203.300003	16
203.500000	5
205.199997	5
205.800003	5
207.699997	5
212.399994	5
212.899994	5
213.300003	26
213.600006	10
213.899994	10
214.300003	5
214.500000	5
214.899994	16
215.166667	31
215.466665	31
215.849998	10
217.500000	5
219.000000	16
219.500000	5
220.699997	5
228.000000	10
228.199997	5
228.399994	5
229.000000	10
229.399994	10
230.199997	5
231.100006	5
231.300003	5
236.699997	5
238.800003	5
239.199997	10
241.500000	10
242.199997	5
243.000000	5
243.199997	16
243.699997	5
245.500000	5
253.899994	10
255.500000	5
255.899994	5
256.200012	5
257.100006	5
257.299988	5
257.500000	16
258.899994	5
269.000000	10
269.200012	5
269.700012	5
270.500000	10
271.000000	10
271.299988	5
271.500000	5
271.700012	5
273.000000	5
273.200012	16
273.899994	5
275.399994	5
283.000000	5
283.899994	16
284.150009	10
284.500000	10
285.299988	5
285.700012	5
286.899994	5
287.399994	5
292.100006	5
293.899994	5
297.100006	5
297.299988	10
297.500000	5
298.299988	5
299.100006	10
300.899994	5
301.600006	5
304.000000	5
311.299988	10
311.899994	5
315.100006	5
315.600006	5
323.500000	5
324.200012	5
325.899994	5
326.100006	5
338.200012	5
339.399994	10
339.700012	5
352.100006	5
353.299988	10
354.200012	5
354.500000	10
390.799988	5
397.100006	16
397.299988	5
397.500000	21
