Mass spectrum: nPFOS; LC-ESI-QQ; MS2; CE20eV; [M-H]-
Name: nPFOS
Class: Non-Natural Product
Formula: C8HF17O3S
Exact mass: 499.93749
SMILES: FC(F)(F)C(F)(F)C(F)(F)C(F)(F)C(F)(F)C(F)(F)C(F)(F)C(F)(F)S(O)(=O)=O
InChI: InChI=1S/C8HF17O3S/c9-1(10,3(13,14)5(17,18)7(21,22)23)2(11,12)4(15,16)6(19,20)8(24,25)29(26,27)28/h(H,26,27,28)
Instrument: Xevo TQ, Waters
Instrument type: LC-ESI-QQ
Ms type: MS2
Ion mode: NEGATIVE
Collision energy: 20eV
Retention time: 21.596466 min
Base peak: 498.794922
Precursor m/z: 498.9
Precursor type: [M-H]-
m/z	relative intensity
79.875640	19
83.038467	14
98.548433	17
119.062666	30
170.833581	5
279.663988	4
329.991314	9
498.955136	999
