Mass spectrum: alpha-Estradiol; LC-APPI-QQ; MS2; CE:40 V; [M-H2O+H]+
Name: alpha-Estradiol
Class: Natural Product; Steroid hormone
Formula: C18H24O2
Exact mass: 272.17763
SMILES: Oc(c4)cc(C3)c(c4)C(C2)C(C3)C(C1)C(C)(C2)C(O)C1
InChI: InChI=1S/C18H24O2/c1-18-9-8-14-13-5-3-12(19)10-11(13)2-4-15(14)16(18)6-7-17(18)20/h3,5,10,14-17,19-20H,2,4,6-9H2,1H3/t14?,15?,16?,17-,18?/m1/s1
Instrument: API2000
Instrument type: LC-APPI-QQ
Ms type: MS2
Ion mode: POSITIVE
Retention time: 0.820850 min
Base peak: 159.000000
Precursor m/z: 255.200000
Precursor type: [M-H2O+H]+
m/z	relative intensity
38.850000	1
39.799999	1
40.000000	1
40.500000	1
40.879413	1
41.900002	1
42.257142	1
43.088439	3
43.700001	1
45.000000	1
50.500000	1
51.400002	1
52.200001	1
52.770000	1
53.158333	1
53.760000	1
55.040341	18
57.072413	1
57.900002	1
58.650000	1
59.000000	1
59.200001	1
59.400002	1
61.299999	1
62.400002	1
63.099998	1
63.500000	1
63.700001	1
64.287502	1
65.024370	2
67.092127	132
69.094924	30
70.000000	1
70.199997	1
70.849998	1
71.300003	1
71.599998	1
72.199997	1
72.500000	1
73.099998	1
74.300003	1
74.699997	1
74.900002	1
75.440001	1
75.875002	1
77.056061	7
79.018393	19
81.083308	76
82.055555	1
83.084999	2
83.699997	1
84.199997	1
84.500000	1
86.300003	1
86.500000	1
88.300003	1
89.287502	1
91.041895	48
93.070446	22
95.048296	134
97.000000	1
98.500000	1
99.000000	1
99.500000	1
99.900002	1
100.199997	1
100.500000	1
103.056279	7
105.020933	96
107.020757	59
109.074868	89
110.500000	1
110.966667	1
111.320003	1
112.400002	1
112.599998	1
115.024233	32
116.100794	17
117.070142	13
117.816669	1
119.014353	7
121.033516	15
121.900002	1
123.040910	2
124.549999	1
125.400002	1
127.039951	14
129.097969	22
131.092211	179
133.053846	453
135.097273	7
135.949997	1
136.199997	1
136.800003	1
137.199997	1
137.525002	1
138.000000	1
138.600006	1
141.086484	145
144.027444	206
145.020469	98
147.076099	35
148.075005	1
149.157142	1
149.899994	1
150.300003	1
150.700005	1
151.174999	1
152.100006	1
152.699997	1
153.114583	1
153.699997	1
155.034326	2
157.114353	29
159.072593	999
161.021964	6
161.800003	1
162.000000	1
162.199997	1
163.449997	1
163.899994	1
164.100006	1
164.449997	1
165.062499	1
165.699997	1
166.103999	1
167.030929	2
167.899994	1
169.047118	13
170.115625	1
171.068604	6
173.099798	17
174.628573	1
174.899994	1
175.199997	1
175.399994	1
176.000000	1
176.199997	1
177.000000	1
177.500000	1
177.724998	1
178.266668	1
179.168965	1
179.899994	1
181.103124	1
181.825001	1
183.000000	1
185.093304	8
185.959998	1
186.990478	1
187.336363	1
188.899999	1
189.600006	1
189.899994	1
190.600006	1
190.899994	1
191.949997	1
192.650002	1
192.933329	1
193.399994	1
193.800003	1
194.242855	1
195.021051	1
196.154549	1
197.158623	1
197.932556	1
199.145918	10
200.300003	1
200.849998	1
201.100006	1
201.300003	1
201.600006	1
202.100006	1
203.199997	1
204.899994	1
205.100006	1
206.966665	1
207.600006	1
207.899994	1
208.100006	1
208.300003	1
209.036363	1
209.800003	1
210.216665	1
211.141665	1
212.192683	1
213.155737	2
214.000000	1
214.500000	1
219.600006	1
220.650002	1
221.100006	1
221.600006	1
222.000000	1
222.300003	1
223.142857	1
223.500000	1
224.300003	1
224.800003	1
225.000000	1
225.199997	1
225.500000	1
226.247618	1
227.221431	1
234.699997	1
236.899994	1
237.374996	1
237.799998	1
238.150002	1
238.699997	1
239.000000	1
239.199997	1
239.575005	1
239.899994	1
240.285710	1
240.899994	1
241.399994	1
251.399994	1
252.250000	1
253.000000	1
253.600006	1
253.899994	1
254.275002	1
255.265934	3
294.100006	1
