Mass spectrum: Androstenedione; LC-APPI-QQ; MS
Name: Androstenedione
Class: Natural Product; Steroid hormone
Formula: C19H26O2
Exact mass: 286.19328
SMILES: O=C(C4)C=C(C3)C(C)(C4)C(C2)C(C3)C(C1)C(C)(C2)C(=O)C1
InChI: InChI=1S/C19H26O2/c1-18-9-7-13(20)11-12(18)3-4-14-15-5-6-17(21)19(15,2)10-8-16(14)18/h11,14-16H,3-10H2,1-2H3/t14?,15?,16?,18-,19-/m0/s1
Instrument: API2000
Instrument type: LC-APPI-QQ
Ms type: MS
Ion mode: POSITIVE
Retention time: 0.821083 min
Base peak: 287.200012
Ion type: [M+H]+
m/z	relative intensity
151.155306	5
153.156388	7
154.143033	1
155.108810	5
156.117084	1
157.145578	8
158.117086	5
159.144508	9
161.166810	21
163.127358	14
164.190263	2
165.139204	3
166.164601	1
167.136589	4
168.111181	3
169.095781	6
170.104231	3
171.117707	15
172.135058	5
173.127146	14
174.118362	3
175.107845	9
176.156451	1
177.161464	8
178.153749	2
179.161966	7
181.129872	17
183.116725	17
184.167361	5
185.129786	14
186.113158	5
187.112093	18
189.123052	7
191.160058	7
192.168177	2
193.156833	9
195.152161	12
197.130913	41
198.179566	12
199.144138	20
201.138509	10
202.118894	3
203.124707	8
205.124097	8
206.111490	1
207.129661	8
209.159822	18
211.150878	21
213.139893	15
214.188655	5
215.144151	14
216.182092	3
217.142889	5
219.128860	7
221.144862	13
222.120621	4
223.134456	14
225.183731	16
227.186486	18
228.185813	5
229.163941	15
231.144865	15
233.129466	14
235.115070	15
237.148780	50
239.154746	20
241.208279	10
243.209850	10
245.148138	16
247.134916	21
249.135241	23
251.151272	18
253.162953	14
255.153601	17
257.147190	35
259.159441	31
261.149110	83
263.155062	72
265.175879	67
267.179847	93
269.208623	95
271.187968	25
273.193568	24
275.162240	21
277.150830	21
279.158916	35
281.211412	25
283.199409	120
285.225151	360
287.261032	999
291.203149	10
293.187172	7
295.180137	7
297.237019	11
299.228742	17
301.298378	114
303.283030	11
304.301319	3
305.252285	5
307.223120	5
309.234606	7
311.230554	5
313.233167	6
315.258590	11
317.218402	5
319.233291	4
321.222486	4
322.221841	1
323.207281	4
325.194139	4
327.182805	3
328.213621	1
329.221601	3
331.194628	3
333.276398	6
334.259198	2
335.209343	3
337.231565	4
339.188480	3
341.212396	3
343.184322	2
345.226098	3
347.259964	5
349.234280	4
350.242036	3
351.214560	4
353.246089	3
355.196789	3
357.259946	2
359.248105	3
361.225531	2
363.229074	2
365.221650	3
367.272360	3
369.276708	2
371.310642	3
373.306634	3
375.314079	7
377.274744	3
379.273734	2
380.253572	1
381.285379	2
382.300430	1
383.274045	2
385.344126	2
387.355904	2
389.338003	2
391.365430	5
393.349102	5
394.307700	2
397.292893	1
399.307975	1
