Mass spectrum: alpha-Estradiol; LC-APPI-QQ; MS2; CE:30 V; [M-H2O+H]+
Name: alpha-Estradiol
Class: Natural Product; Steroid hormone
Formula: C18H24O2
Exact mass: 272.17763
SMILES: Oc(c4)cc(C3)c(c4)C(C2)C(C3)C(C1)C(C)(C2)C(O)C1
InChI: InChI=1S/C18H24O2/c1-18-9-8-14-13-5-3-12(19)10-11(13)2-4-15(14)16(18)6-7-17(18)20/h3,5,10,14-17,19-20H,2,4,6-9H2,1H3/t14?,15?,16?,17-,18?/m1/s1
Instrument: API2000
Instrument type: LC-APPI-QQ
Ms type: MS2
Ion mode: POSITIVE
Retention time: 0.820850 min
Base peak: 159.000000
Precursor m/z: 255.200000
Precursor type: [M-H2O+H]+
m/z	relative intensity
41.000001	1
42.599998	1
43.076923	1
44.200001	1
44.900002	1
45.200001	1
51.200001	1
52.799999	1
53.400002	1
53.983334	1
55.028571	2
56.700001	1
57.325000	1
58.500000	1
58.799999	1
59.500000	1
63.350000	1
64.049999	1
64.400002	1
64.744445	1
65.300003	1
65.537499	1
65.800003	1
67.076417	25
69.079487	18
70.300003	1
70.599998	1
70.900002	1
71.300003	1
71.699997	1
74.300003	1
75.099998	1
75.900002	1
77.000000	1
77.900002	1
78.967876	3
81.048331	20
82.056249	1
83.046153	1
83.800003	1
84.300003	1
84.500000	1
84.800003	1
85.099998	1
87.900002	1
88.800003	1
91.029730	5
91.900002	1
93.089421	6
95.050117	83
96.099998	1
96.300003	1
97.083784	1
98.900002	1
101.500000	1
101.850002	1
102.099998	1
103.000000	1
103.254546	1
103.699997	1
104.062499	1
105.018374	11
107.006517	27
109.071048	103
109.900002	1
111.089222	3
113.099998	1
113.300003	1
113.599998	1
115.054455	2
116.084126	1
117.090910	1
117.699997	1
118.000000	1
118.400002	1
119.107693	1
120.046153	1
121.026909	9
122.037499	1
123.020513	6
124.000000	1
125.000000	1
125.549999	1
125.900002	1
127.113333	1
127.883335	1
129.124817	2
131.119844	33
133.047971	362
135.078713	14
136.000000	1
136.199997	1
136.700002	1
137.000000	1
137.399994	1
141.107603	21
145.021572	74
147.102338	29
148.000000	1
148.285714	1
149.177779	1
150.600006	1
151.000000	1
151.199997	1
151.600006	1
151.800003	1
152.000000	1
152.199997	1
153.199997	1
153.500000	1
154.000000	1
154.474998	1
154.859998	1
155.300003	1
159.071741	999
161.063306	8
162.000000	1
162.300003	1
162.899994	1
163.275002	1
164.399994	1
165.199997	1
166.000000	1
166.300003	1
166.974998	1
167.500000	1
167.899994	1
168.244444	1
169.018391	3
169.800003	1
170.050003	1
171.056251	2
173.106123	22
174.699997	1
175.033335	1
175.899994	1
176.800003	1
177.150002	1
178.500000	1
178.900002	1
179.199997	1
179.899994	1
180.199997	1
180.525002	1
181.159091	1
182.399994	1
182.674999	1
182.966665	1
185.084504	9
186.000000	1
186.399994	1
187.152563	1
188.699997	1
189.500000	1
190.399994	1
190.800003	1
191.300003	1
192.000000	1
192.399994	1
192.699997	1
193.000000	1
193.300003	1
193.800003	1
194.992857	1
196.286668	1
196.954836	1
199.112319	11
200.054170	1
200.775002	1
201.133336	1
201.399994	1
202.100006	1
203.300003	1
203.899994	1
205.100006	1
206.899994	1
207.399994	1
207.899994	1
208.100006	1
208.349998	1
208.873333	1
209.399994	1
209.600006	1
209.928569	1
210.300003	1
211.000000	1
211.199997	1
212.221877	1
213.156757	4
213.983332	1
214.237499	1
218.899994	1
219.399994	1
221.699997	1
221.899994	1
222.275002	1
222.500000	1
223.057142	1
223.399994	1
224.199997	1
225.000000	1
225.415383	1
226.154053	1
227.207408	2
233.699997	1
235.300003	1
235.899994	1
237.144445	1
237.899994	1
238.250000	1
238.600006	1
238.800003	1
239.000000	1
239.250000	1
239.699997	1
240.300000	1
244.300003	1
251.800003	1
252.100006	1
252.800003	1
253.199997	1
253.500000	1
253.889995	1
255.249392	67
256.600006	1
