Mass spectrum: Estrone; LC-APPI-QQ; MS2; CE:50 V; [M-H2O+H]+
Name: Estrone
Class: Natural Product; Steroid hormone
Formula: C18H22O2
Exact mass: 270.16198
SMILES: Oc(c4)cc(C3)c(c4)C(C2)C(C3)C(C1)C(C)(C2)C(=O)C1
InChI: InChI=1S/C18H22O2/c1-18-9-8-14-13-5-3-12(19)10-11(13)2-4-15(14)16(18)6-7-17(18)20/h3,5,10,14-16,19H,2,4,6-9H2,1H3
Instrument: API2000
Instrument type: LC-APPI-QQ
Ms type: MS2
Ion mode: POSITIVE
Retention time: 0.820883 min
Base peak: 157.100006
Precursor m/z: 253.200000
Precursor type: [M-H2O+H]+
m/z	relative intensity
38.599998	1
39.049999	1
39.900000	1
41.109524	13
42.200001	1
42.400002	1
43.152857	11
44.099998	1
44.500000	1
45.000000	1
45.200001	1
50.900002	1
51.250000	1
52.400002	1
53.120512	6
54.099998	1
55.084375	78
56.299999	1
56.900002	1
57.350000	1
58.200001	1
58.400002	1
58.966666	1
62.099998	1
62.599998	1
63.000000	1
63.700001	1
65.113793	13
65.742857	2
67.120588	145
67.900002	1
68.400002	1
69.105797	10
70.000000	1
70.300003	1
70.500000	1
72.300003	1
72.599998	1
72.900002	1
73.266668	1
74.250000	1
74.699997	1
75.000000	1
75.199997	1
75.500000	1
77.067542	127
79.061539	285
81.108591	280
82.250000	1
82.500000	1
82.699997	1
83.300003	1
84.400002	1
86.699997	1
86.900002	1
87.250000	1
88.000000	1
88.400002	1
88.699997	1
91.071267	243
93.089121	109
94.161539	6
94.994570	34
96.000000	1
96.450001	1
97.300003	1
98.800003	1
100.500000	1
100.699997	1
101.199997	1
101.500000	1
101.966667	2
103.034983	46
105.060130	188
107.022687	138
108.437501	1
109.139345	9
110.300003	1
112.099998	1
112.900002	1
113.300003	1
115.063685	114
116.134762	32
117.144715	37
118.174997	1
119.054545	7
119.985715	2
121.038926	23
122.800003	1
123.950001	1
124.300003	1
125.200000	1
125.599998	1
127.103030	151
128.072006	264
129.086019	164
131.125705	151
133.096025	153
134.650002	1
135.100006	1
137.150002	1
137.399994	1
137.899994	1
138.100006	1
138.399994	1
139.057896	6
139.871425	2
141.117073	162
142.111540	8
144.078979	152
145.098988	120
147.068421	9
148.800003	1
149.000000	1
149.849998	1
150.275002	1
153.131633	119
154.105217	52
155.076438	111
157.115900	999
159.103991	130
160.000000	1
160.349998	1
160.600006	1
160.849998	1
161.399994	1
162.199997	1
162.959998	2
163.199997	1
165.104348	217
166.145081	37
167.134354	89
169.067213	93
170.061151	63
171.086538	32
172.161112	3
173.130769	6
174.199997	1
174.899994	1
175.399994	1
177.193750	27
178.170102	105
179.156982	216
181.108079	249
182.181250	273
183.130039	279
184.185716	9
185.200901	17
186.100006	1
187.000000	1
187.199997	1
187.600006	1
187.899994	1
188.100006	1
188.800003	1
189.135294	3
190.118181	7
191.129788	14
192.147619	3
193.156351	19
194.134328	41
195.144771	93
197.167802	228
198.158289	116
198.937496	1
199.266668	1
202.050003	1
202.500000	1
203.259998	2
203.750000	1
204.174999	1
204.987499	1
205.324999	2
205.800003	1
206.100006	1
207.199997	3
207.699997	1
209.148511	51
210.152033	19
211.129860	54
212.126089	7
215.699997	1
216.300003	1
217.699997	1
218.150002	1
218.399994	1
218.899994	1
219.500000	1
220.000000	1
220.199997	1
221.100006	2
221.412495	1
221.800003	1
222.066671	1
223.203448	18
224.654545	2
225.366664	4
232.800003	1
233.500000	1
233.899994	1
234.449997	1
234.800003	1
235.125004	1
235.399994	1
235.600006	1
235.899994	1
236.100006	1
236.300003	1
237.258620	4
238.225001	6
249.500000	1
250.300003	1
250.800003	1
251.050003	1
251.300003	1
251.899994	1
252.300003	1
253.300001	5
