Mass spectrum: 1mPFOS; LC-ESI-QQ; MS2; CE60eV
Name: 1mPFOS
Class: Non-Natural Product
Formula: C8HF17O3S
Exact mass: 499.93749
SMILES: FC(F)(F)C(F)(F)C(F)(F)C(F)(F)C(F)(F)C(F)(F)C(F)(C(F)(F)F)S(O)(=O)=O
InChI: InChI=1S/C8HF17O3S/c9-1(10,3(13,14)5(17,18)7(20,21)22)2(11,12)4(15,16)6(19,8(23,24)25)29(26,27)28/h(H,26,27,28)
Instrument: Xevo TQ, Waters
Instrument type: LC-ESI-QQ
Ms type: MS2
Ion mode: NEGATIVE
Collision energy: 60eV
Retention time: 14.920517 min
Base peak: 98.589272
Precursor m/z: 498.9
Precursor type: [M-H]-
m/z	relative intensity
68.538013	44
79.662639	46
98.793147	999
168.946518	85
252.659838	54
