Mass spectrum: Campesterol; LC-APPI-QQ; MS2; CE:30 V; [M-H2O+H]+
Name: Campesterol
Class: Natural Product; Sterol
Formula: C28H48O
Exact mass: 400.37052
SMILES: C(C(CCC(C)C(C4)C(C3C4)(C)CCC(C13)C(C2)(C(CC(C2)O)=CC1)C)C)(C)C
InChI: InChI=1S/C28H48O/c1-18(2)19(3)7-8-20(4)24-11-12-25-23-10-9-21-17-22(29)13-15-27(21,5)26(23)14-16-28(24,25)6/h9,18-20,22-26,29H,7-8,10-17H2,1-6H3/t19?,20?,22-,23?,24?,25?,26?,27?,28?/m0/s1
Instrument: API2000
Instrument type: LC-APPI-QQ
Ms type: MS2
Ion mode: POSITIVE
Retention time: 0.820833 min
Base peak: 383.600006
Precursor m/z: 383.400000
Precursor type: [M-H2O+H]+
m/z	relative intensity
39.299999	1
40.400002	1
40.900000	1
41.400002	1
42.500000	1
42.971429	2
51.000000	1
52.400002	1
53.100000	1
53.599998	1
54.099998	1
55.100000	8
55.799999	1
57.177202	51
58.099998	1
64.350002	1
65.000000	1
65.500000	1
65.900002	1
66.370002	1
67.143709	20
69.104830	27
71.123512	91
72.199997	1
73.099998	1
76.500000	1
77.215385	2
77.800003	1
79.026088	12
81.112260	186
83.109547	105
85.092636	68
86.300003	1
86.500000	1
88.599998	1
88.950001	1
89.300003	1
89.800003	1
90.133331	1
91.060000	15
93.116915	53
95.049118	270
97.149151	125
98.000000	1
98.300003	1
99.110001	5
102.500000	1
102.800003	1
103.000000	1
103.199997	1
103.400002	1
105.072574	63
107.057875	106
109.091866	316
111.096027	80
112.049999	1
112.300003	1
113.235713	2
115.450001	1
116.400002	1
116.666664	1
116.900002	1
117.199997	1
117.400002	1
117.716665	1
118.099998	2
119.066867	66
121.123493	130
123.074429	145
125.100000	38
126.149998	1
126.400002	1
126.699997	1
127.000000	1
127.199997	1
127.400002	1
128.100006	1
128.800003	1
129.199997	1
129.399994	1
129.699997	1
130.600006	1
131.152831	7
133.148460	95
135.117593	445
137.149268	72
138.300003	1
139.190242	5
140.000000	1
140.500000	1
140.750000	1
141.257141	1
143.000000	1
143.199997	1
143.500000	1
144.100006	1
145.122728	23
147.155556	493
149.167587	235
150.300003	1
151.183384	45
151.949997	1
152.500000	1
152.983332	1
153.199997	1
153.416662	1
154.899994	1
155.399994	1
156.150002	1
156.699997	1
157.000000	1
157.300003	1
157.699997	1
159.158001	40
161.142195	666
163.192735	124
164.320001	1
165.181435	53
166.899994	1
167.100006	1
168.000000	1
170.600006	1
170.899994	1
171.150002	1
171.550003	1
171.800003	1
172.300003	1
173.200001	26
175.172783	281
176.199997	1
177.273023	57
178.000000	1
179.251210	33
180.899994	1
181.100006	1
181.399994	1
182.699997	1
183.399994	1
184.199997	1
185.399994	1
185.899997	1
187.181335	40
189.234211	181
190.000000	1
190.199997	1
191.229093	22
192.100006	1
193.270886	21
195.050003	1
195.399994	1
197.199997	1
198.000000	1
199.033335	1
199.399994	1
199.757145	1
200.238095	3
201.203137	101
203.245111	185
205.255226	18
206.199997	1
207.277689	33
208.199997	1
208.500000	1
211.300003	1
213.300003	1
213.899994	1
215.232221	210
216.100006	1
217.281285	95
218.000000	1
218.250000	1
219.261082	49
220.399994	1
221.302051	26
222.100006	1
222.399994	1
223.199997	1
223.949997	1
225.800003	1
227.199997	1
227.800003	1
229.263858	119
230.166672	1
230.500000	1
231.200000	19
232.199997	1
233.314284	35
234.500000	1
235.292592	7
240.000000	1
240.899994	1
241.292307	3
242.000000	1
242.500000	1
243.351619	147
244.000000	1
244.300003	1
245.293547	8
246.199997	1
247.362136	82
248.399994	1
249.362902	8
255.285077	9
257.332523	158
258.200012	1
258.399994	1
259.417790	43
260.583338	1
261.338716	60
262.299988	1
262.700012	1
263.050003	1
263.424995	1
267.399994	1
269.500000	1
270.100006	1
270.399994	1
271.282837	18
272.550003	1
273.368009	132
274.299988	1
274.600006	1
275.327514	25
276.200012	1
277.600006	1
277.799988	1
280.200012	1
281.299988	1
283.299988	1
283.500000	1
283.899994	1
284.100006	1
284.439996	1
285.242245	15
286.587505	1
287.377432	64
288.899994	1
289.500000	2
290.000000	1
292.100006	1
297.500000	1
298.299988	1
299.311464	21
300.050003	1
300.349991	1
301.418182	93
302.299988	1
303.299988	1
303.550003	1
303.799988	1
309.100006	1
310.100006	1
311.200012	1
312.374992	1
312.700012	1
313.366300	12
315.395121	5
319.000000	1
320.200012	1
323.299988	1
325.100006	1
325.700012	1
326.100006	1
326.500000	1
327.385818	19
339.700012	1
340.349991	1
340.600006	1
341.537502	3
342.399994	1
350.899994	1
351.100006	1
353.600006	1
354.000000	1
354.299988	1
354.500000	1
354.700012	1
355.000000	1
355.583338	1
355.899994	1
365.500000	1
365.899994	1
367.299988	1
368.000000	1
368.200012	1
368.500000	1
368.899994	1
375.399994	1
380.349991	1
381.000000	1
381.200012	1
381.799998	1
383.469052	999
384.449997	1
385.000000	1
