Mass spectrum: 62FTA; LC-ESI-QQ; MS2; CE30; [M-H-CO2-2HF]-
Name: 62FTA
Name: 62Fluorotelomer Acid
Name: 3,3,4,4,5,5,6,6,7,7,8,8,8-Tridecafluorooctanoic acid
Class: Non-Natural Product
Formula: C8H3F13O2
Exact mass: 377.99255
SMILES: OC(=O)CC(F)(F)C(F)(F)C(F)(F)C(F)(F)C(F)(F)C(F)(F)F
InChI: InChI=1S/C8H3F13O2/c9-3(10,1-2(22)23)4(11,12)5(13,14)6(15,16)7(17,18)8(19,20)21/h1H2,(H,22,23)
Instrument: Xevo TQ MS (Waters)
Instrument type: LC-ESI-QQ
Ms type: MS2
Ion mode: NEGATIVE
Collision energy: 30
Retention time: 0.016833
Base peak: 143.111465
Ion type: [M-H]-
Precursor m/z: 293
Precursor type: [M-H-CO2-2HF]-
m/z	relative intensity
55.011520	56
69.028175	322
73.932556	259
74.579689	40
85.043495	131
89.159729	91
92.941505	992
96.872635	66
102.751358	34
103.048660	63
119.103096	259
122.947052	36
123.875565	165
130.325073	127
130.943771	425
136.908890	55
142.952469	693
152.919373	33
154.947098	67
168.993164	257
193.009216	372
243.009323	999
275.235413	87
292.504944	203
293.060089	485
