Mass spectrum: 4mPFOA; LC-ESI-QQ; MS2; CE50eV
Name: 4mPFOA
Class: Non-Natural Product
Formula: C8HF15O2
Exact mass: 413.97370
SMILES: OC(=O)C(F)(F)C(F)(F)C(F)(C(F)(F)F)C(F)(F)C(F)(F)C(F)(F)F
InChI: InChI=1S/C8HF15O2/c9-2(10,1(24)25)4(12,13)3(11,7(18,19)20)5(14,15)6(16,17)8(21,22)23/h(H,24,25)
Instrument: Xevo TQ, Waters
Instrument type: LC-ESI-QQ
Ms type: MS2
Ion mode: NEGATIVE
Collision energy: 50eV
Retention time: 15.825417 min
Base peak: 118.936272
Precursor m/z: 413
Precursor type: [M-H]-
m/z	relative intensity
68.758002	252
118.623517	999
363.961560	121
