Mass spectrum: 24-Ethylcoprostanol; LC-APPI-QQ; MS2; CE:10 V; [M-H2O+H]+
Name: 24-Ethylcoprostanol
Class: Natural Product; Sterol
Formula: C29H52O
Exact mass: 416.40182
SMILES: C(C34[H])(CCC(O)C4)(C([H])(C([H])2CC3)CCC(C([H])12)(C)C(CC1)([H])C(CCC(C(C)C)CC)C)C
InChI: InChI=1S/C29H52O/c1-7-21(19(2)3)9-8-20(4)25-12-13-26-24-11-10-22-18-23(30)14-16-28(22,5)27(24)15-17-29(25,26)6/h19-27,30H,7-18H2,1-6H3/t20-,21+,22-,23+,24+,25-,26+,27+,28+,29-/m1/s1
Instrument: API2000
Instrument type: LC-APPI-QQ
Ms type: MS2
Ion mode: POSITIVE
Retention time: 0.820867 min
Base peak: 399.500000
Precursor m/z: 399.500000
Precursor type: [M-H2O+H]+
m/z	relative intensity
44.500000	1
55.299999	1
56.799999	1
68.900002	1
71.000000	1
71.199997	1
80.300003	1
80.699997	1
80.900002	1
82.599998	1
83.000000	1
83.199997	1
84.900002	1
93.300003	1
94.500000	1
94.699997	1
95.000000	1
96.599998	1
97.099998	1
97.400002	1
98.800003	1
99.000000	1
99.199997	1
99.400002	1
100.199997	1
100.599998	1
100.800003	1
101.000000	1
101.250000	1
105.000000	1
106.850002	1
107.300003	1
108.699997	1
109.000000	1
109.350002	1
110.300003	1
110.875002	1
111.300003	1
112.699997	1
113.099998	1
113.400002	1
119.500000	1
120.500000	1
120.800003	1
121.199997	1
121.599998	1
122.716665	1
123.225000	1
123.699997	1
124.699997	1
125.000000	1
133.199997	1
134.399994	1
134.922224	2
135.300003	1
135.899994	1
136.100006	1
136.300003	1
136.899994	1
137.316666	1
138.399994	1
138.699997	1
139.100006	1
141.199997	1
142.800003	1
143.250000	1
147.100006	1
148.449997	1
149.185715	1
149.899994	1
150.300003	1
150.500000	1
150.800003	1
151.000000	1
151.309090	2
153.000000	1
160.600006	1
161.000000	1
162.922217	2
163.300003	1
165.083337	1
167.199997	1
169.300003	1
174.000000	1
174.849998	1
175.199997	1
176.300003	1
177.193748	3
179.333333	1
181.100006	1
181.500000	1
188.800003	1
189.012501	1
189.339999	1
191.080005	1
192.600006	1
193.399994	1
195.399994	1
195.600006	1
198.199997	1
198.500000	1
199.056898	5
199.500000	1
201.000000	1
202.650002	1
203.000000	1
203.281816	1
205.174999	1
207.199997	1
207.500000	1
209.000000	1
209.399994	1
215.800003	1
216.199997	1
217.500000	1
217.899994	1
218.399994	1
218.874996	1
219.339996	1
220.899994	1
221.333333	1
221.699997	1
224.800003	1
225.250000	1
228.800003	1
230.199997	1
230.399994	1
230.841666	1
231.183332	1
231.899994	1
232.500000	1
233.277774	1
233.750000	1
234.800003	1
235.140002	2
235.500000	1
243.100006	1
244.399994	1
245.333332	2
246.800003	1
247.000000	1
247.500000	1
249.449999	1
255.000000	1
257.100006	1
257.799988	1
258.100006	1
258.299988	1
258.700012	1
259.000000	1
259.445451	1
261.000000	1
261.287491	1
262.000000	1
263.100006	1
263.600006	1
273.000000	1
273.550003	1
273.799988	1
275.000000	1
275.399994	1
277.200012	1
277.449997	1
277.700012	1
287.077783	1
287.600006	1
288.700012	1
288.899994	1
289.100006	1
289.309988	1
289.700012	1
291.200012	1
297.299988	1
298.399994	1
298.600006	1
299.126956	10
300.000000	1
301.013334	1
301.419995	2
301.750000	1
302.600006	1
302.899994	1
303.100006	1
303.554549	1
313.700012	1
314.899994	1
315.100006	1
315.466665	1
317.466665	1
317.799988	1
319.500000	1
327.000000	1
328.000000	1
329.100006	1
329.660004	1
331.600006	1
343.500000	1
343.700012	1
355.399994	1
367.299988	1
380.799988	1
381.000000	1
381.200012	1
381.500000	1
381.799988	1
384.000000	1
384.200012	1
397.000000	1
399.416036	999
400.799998	1
