Mass spectrum: 33FTA; LC-ESI-QQ; MS
Name: 33FTA
Name: 33Fluorotelomer Acid
Name: 4,4,5,5,6,6,6-Heptafluorohexanoic acid
Class: Non-Natural Product
Formula: C6H5F7O2
Exact mass: 242.01778
SMILES: OC(=O)CCC(F)(F)C(F)(F)C(F)(F)F
InChI: InChI=1S/C6H5F7O2/c7-4(8,2-1-3(14)15)5(9,10)6(11,12)13/h1-2H2,(H,14,15)
Instrument: Xevo TQ MS (Waters)
Instrument type: LC-ESI-QQ
Ms type: MS
Ion mode: NEGATIVE
Retention time: 0.016833
Base peak: 241.078537
Ion type: [M-H]-
m/z	relative intensity
58.966076	86
62.251858	33
62.929279	139
63.524323	23
74.920525	83
88.970627	38
135.042191	66
177.028152	97
221.002090	32
239.037460	29
241.052475	999
241.713028	121
