Mass spectrum: Estrone; LC-APPI-QQ; MS2; CE:20 V; [M-H2O+H]+
Name: Estrone
Class: Natural Product; Steroid hormone
Formula: C18H22O2
Exact mass: 270.16198
SMILES: Oc(c4)cc(C3)c(c4)C(C2)C(C3)C(C1)C(C)(C2)C(=O)C1
InChI: InChI=1S/C18H22O2/c1-18-9-8-14-13-5-3-12(19)10-11(13)2-4-15(14)16(18)6-7-17(18)20/h3,5,10,14-16,19H,2,4,6-9H2,1H3
Instrument: API2000
Instrument type: LC-APPI-QQ
Ms type: MS2
Ion mode: POSITIVE
Retention time: 0.820867 min
Base peak: 253.300003
Precursor m/z: 253.200000
Precursor type: [M-H2O+H]+
m/z	relative intensity
31.900000	1
38.400002	1
41.000000	1
43.099998	1
43.299999	1
55.299999	1
56.900002	1
64.300003	1
65.199997	1
66.000000	1
66.400002	1
66.599998	1
67.020835	1
68.950001	1
69.400002	1
71.300003	1
72.900002	1
77.099998	1
77.900002	1
79.034616	2
81.095492	24
81.975000	1
82.400002	1
83.039999	1
83.350002	1
85.000000	1
90.199997	1
90.800003	1
93.109268	12
95.082400	4
97.300003	1
98.850002	1
102.199997	1
102.800001	1
103.149998	1
103.699997	1
104.199997	1
104.500000	1
105.013044	1
105.599998	1
105.800003	1
107.041154	15
108.300003	1
109.038824	5
110.500000	1
110.900002	1
111.199997	1
114.099998	1
115.033333	1
116.000000	1
116.500000	1
116.699997	1
116.900002	1
117.300003	1
118.649998	1
119.000000	1
119.400002	1
119.599998	1
119.800003	1
121.096250	9
125.599998	1
126.300003	1
127.099998	1
127.975000	1
128.300003	1
128.849998	1
129.199997	1
129.399994	1
129.899994	1
130.199997	1
131.132353	1
131.600006	1
133.094147	12
134.500000	1
134.899994	1
135.222226	1
138.500000	1
139.000000	1
140.500000	1
140.800003	1
141.025002	1
141.399994	1
142.899994	1
143.275002	1
145.047408	12
146.000000	1
147.122339	3
149.000000	1
149.899994	1
150.899994	1
151.199997	1
151.800003	1
152.300003	1
152.800003	1
153.162500	1
153.600006	1
153.800003	1
154.000000	1
154.199997	1
155.361537	1
157.120487	258
158.054544	2
159.113436	56
160.300003	1
160.500000	1
161.070270	2
162.399994	1
163.250000	1
164.866664	1
165.199997	1
166.199997	1
166.500000	1
167.050003	1
167.316668	1
167.899994	1
168.100006	1
168.399994	1
169.115385	1
169.800003	1
171.075290	7
172.300003	1
172.500000	1
173.158282	5
173.899994	1
174.699997	1
175.000000	1
175.300003	1
176.800003	1
177.199997	1
178.100002	1
178.500000	1
179.136606	3
180.199997	1
180.500000	1
181.075002	1
183.115502	19
185.145259	7
186.100006	1
186.600006	1
187.079997	1
189.000000	1
190.849998	1
191.150002	1
191.399994	1
191.800003	1
192.899994	1
193.180955	1
194.000000	1
195.092003	1
197.167225	107
198.195295	10
198.962498	1
199.331575	1
201.800003	1
202.100006	1
203.199997	1
203.600006	1
203.899994	1
204.100006	1
204.899994	1
205.100006	1
205.300003	1
207.500000	1
208.000000	1
209.123470	3
210.314998	1
211.123340	17
212.286792	3
217.600006	1
218.000000	1
219.300003	1
219.699997	1
220.000000	1
220.199997	1
220.399994	1
220.983333	2
222.100006	1
222.300003	1
223.246874	1
223.699997	1
225.174251	10
225.899994	1
233.199997	1
234.500000	1
235.223079	1
236.100006	1
236.399994	1
236.699997	1
237.000000	1
237.300003	1
238.191891	2
243.399994	1
246.899994	1
248.899994	1
250.199997	1
253.250516	999
254.471427	1
254.800003	1
255.100006	1
