Mass spectrum: Daidzein; LC-APPI-QQ; MS2; CE:20 V; [M+H]+
Name: Daidzein
Class: Natural Product; Isoflavone
Formula: C15H10O4
Exact mass: 254.05791
SMILES: Oc(c3)ccc(c3)C(=C1)C(=O)c(c2)c(cc(O)c2)O1
InChI: InChI=1S/C15H10O4/c16-10-3-1-9(2-4-10)13-8-19-14-7-11(17)5-6-12(14)15(13)18/h1-8,16-17H
Instrument: API2000
Instrument type: LC-APPI-QQ
Ms type: MS2
Ion mode: POSITIVE
Retention time: 0.820850 min
Base peak: 255.000000
Precursor m/z: 255.400000
Precursor type: [M+H]+
m/z	relative intensity
38.700001	1
38.900002	1
39.099998	1
39.450001	1
41.000000	1
42.500000	1
42.799999	1
43.350000	1
49.900002	1
50.599998	1
51.000000	1
51.299999	1
51.500000	1
52.000000	1
52.799999	1
53.174999	1
53.599998	1
54.823076	1
55.210001	1
61.599998	1
62.799999	1
63.200001	1
65.070536	1
66.300001	1
68.099998	1
68.500000	1
68.938889	1
69.699997	1
70.699997	1
71.699997	1
73.900002	1
74.199997	1
74.500000	1
74.910001	1
75.500000	1
76.000000	1
76.250000	1
77.099998	1
77.750000	1
78.078570	1
79.849998	1
81.084883	1
82.699997	1
85.199997	1
85.400002	1
88.000000	1
88.300003	1
88.777779	1
89.230000	1
91.038641	1
91.900002	1
92.300003	1
92.549999	1
92.956251	1
93.209998	1
94.000000	1
94.300003	1
94.875002	1
95.099998	1
96.800003	1
97.000000	1
97.199997	1
98.000000	1
100.199997	1
100.800003	1
101.000000	1
101.199997	1
102.099998	1
102.699997	1
103.074999	1
103.400002	1
103.699997	1
105.121667	1
105.599998	1
105.957144	1
106.740001	1
107.400002	1
107.900002	1
108.099998	1
108.800003	1
109.141667	1
111.199997	1
111.400002	1
112.199997	1
112.800003	1
113.199997	1
115.217645	1
116.049999	1
116.400002	1
116.900002	1
119.015273	1
119.800003	1
120.128569	1
121.085567	1
121.699997	1
121.900002	1
122.199997	1
123.000000	1
123.199997	1
125.800001	1
126.099998	1
126.400002	1
126.800003	1
127.000000	1
128.151430	1
129.090790	1
130.300003	1
131.026261	1
133.056539	1
134.600006	1
135.072730	1
137.001333	7
138.100006	1
138.800003	1
139.050003	1
140.000000	1
140.399994	1
140.664286	1
141.149999	1
141.833333	1
142.150002	1
143.125439	1
144.100006	1
145.002544	1
145.800003	1
146.100006	1
146.399994	1
146.968747	1
148.075005	1
149.052144	1
149.699997	1
150.174999	1
152.147297	1
153.078572	1
153.874996	1
155.043548	1
155.849998	1
157.070599	1
158.600006	1
159.080001	1
159.424995	1
159.800003	1
160.000000	1
160.300003	1
161.083338	1
161.699997	1
162.199997	1
163.000000	1
163.300003	1
163.500000	1
164.000000	1
164.399994	1
165.007938	1
165.899994	1
166.325001	1
166.699997	1
166.966665	1
167.349998	1
167.771426	1
168.880551	1
171.052381	1
171.800003	1
172.100001	1
172.899994	1
173.300003	1
173.849998	1
174.500000	1
175.050000	1
175.899994	1
176.750000	1
177.100006	1
177.300003	1
178.100006	1
178.399994	1
178.800003	1
179.233332	1
181.074569	4
182.205173	1
183.042858	1
184.093332	1
185.102499	1
187.040002	1
187.384995	1
187.699997	1
188.916662	1
189.275002	1
190.899994	1
191.199997	1
191.899994	1
192.250000	1
193.000000	1
193.949997	1
194.349998	1
194.800003	1
195.100006	1
195.399994	1
195.600006	1
195.899994	1
197.175302	1
199.105811	27
201.000000	1
201.424995	1
203.100006	1
205.500000	1
206.699997	1
207.300003	1
207.699997	1
208.100006	1
209.102315	2
210.156570	1
211.062729	1
211.929629	1
213.125862	1
214.199997	1
215.199997	1
218.399994	1
218.800003	1
219.150002	1
219.500000	1
220.100006	1
220.300003	1
222.839999	1
223.185713	1
224.000000	1
224.399994	1
225.172222	1
227.136528	17
228.899994	1
233.100006	1
235.100006	1
235.349998	1
235.825001	1
237.112378	7
238.399994	1
238.800003	1
239.050003	1
239.899994	1
240.200004	1
241.000000	1
244.100006	1
245.800003	1
246.100006	1
246.300003	1
247.100006	1
247.500000	1
247.800003	1
248.100006	1
248.449997	1
249.075005	1
249.650002	1
250.000000	1
250.300003	1
250.600006	1
250.974998	1
255.139379	999
257.299988	1
257.799988	1
264.799988	1
278.500000	1
279.000000	1
282.299988	1
