Mass spectrum: Epicholestanol; LC-APPI-QQ; MS2; CE:10 V; [M-H2O+H]+
Name: Epicholestanol
Class: Natural Product; Sterol
Formula: C27H48O
Exact mass: 388.37052
SMILES: C(C)(C1)(C(C(C)CCCC(C)C)4)C(CC4)C(C2)C(C(C)(C3)C([H])(CC(C3)O)C2)C1
InChI: InChI=1S/C27H48O/c1-18(2)7-6-8-19(3)23-11-12-24-22-10-9-20-17-21(28)13-15-26(20,4)25(22)14-16-27(23,24)5/h18-25,28H,6-17H2,1-5H3/t19?,20-,21+,22?,23?,24?,25?,26?,27?/m0/s1
Instrument: API2000
Instrument type: LC-APPI-QQ
Ms type: MS2
Ion mode: POSITIVE
Retention time: 0.820850 min
Base peak: 371.299988
Precursor m/z: 371.300000
Precursor type: [M-H2O+H]+
m/z	relative intensity
81.199997	1
95.400002	2
97.099998	1
97.450001	2
107.000000	1
109.099998	2
109.350002	2
110.699997	1
111.300003	1
122.599998	1
122.900002	1
123.149998	2
125.400002	1
130.600006	1
134.699997	1
135.000000	3
135.300003	1
137.199997	1
137.500000	1
139.000000	1
139.199997	1
147.000000	1
147.399994	1
149.100006	2
149.349998	2
151.000000	3
151.300003	1
162.899994	3
163.100006	1
163.399999	3
164.800003	1
165.100006	2
165.399994	4
176.699997	1
176.899994	1
177.100006	1
177.399994	2
179.100006	1
179.300003	3
181.399994	1
189.000000	1
189.300003	1
189.500000	2
191.300003	2
193.399994	1
202.899994	1
203.199997	4
203.399994	1
204.699997	1
205.000000	3
205.199997	5
205.399994	4
205.699997	1
207.259998	5
207.699997	2
217.600006	3
218.699997	1
218.899994	2
219.399999	3
220.000000	1
221.100006	2
221.300003	1
221.600006	1
231.000000	1
231.300003	2
232.949997	2
233.199997	1
234.899999	3
235.199997	2
235.399994	1
237.199997	1
239.000000	1
241.100006	1
245.000000	1
247.259998	5
247.600006	1
247.899994	1
249.199997	2
251.000000	1
259.100006	1
259.349991	2
259.700012	1
261.100006	1
261.324989	4
265.100006	1
267.100006	1
273.100006	1
275.200012	1
275.799988	1
279.000000	1
280.100006	1
287.100006	1
287.799988	1
298.100006	1
314.899994	1
315.100006	1
315.299988	3
329.500000	1
339.700012	1
341.200012	1
343.299988	1
354.000000	1
354.500000	1
355.100006	3
355.299988	1
369.600006	1
370.000000	4
371.500274	999
372.299988	1
