Mass spectrum: 1mPFOS; LC-ESI-QQ; MS2; CE20eV
Name: 1mPFOS
Class: Non-Natural Product
Formula: C8HF17O3S
Exact mass: 499.93749
SMILES: FC(F)(F)C(F)(F)C(F)(F)C(F)(F)C(F)(F)C(F)(F)C(F)(C(F)(F)F)S(O)(=O)=O
InChI: InChI=1S/C8HF17O3S/c9-1(10,3(13,14)5(17,18)7(20,21)22)2(11,12)4(15,16)6(19,8(23,24)25)29(26,27)28/h(H,26,27,28)
Instrument: Xevo TQ, Waters
Instrument type: LC-ESI-QQ
Ms type: MS2
Ion mode: NEGATIVE
Collision energy: 20eV
Retention time: 14.679200 min
Base peak: 499.049835
Precursor m/z: 498.9
Precursor type: [M-H]-
m/z	relative intensity
98.701778	205
118.615081	7
169.058700	128
219.185242	79
268.848915	37
341.847503	9
367.165538	49
384.697806	63
418.785068	182
452.774036	36
498.896255	999
