Mass spectrum: 1,4-Androstadiene-3,17-dione; LC-APPI-QQ; MS
Name: 1,4-Androstadiene-3,17-dione
Class: Natural Product; Anabolic hormone
Formula: C19H24O2
Exact mass: 284.17763
SMILES: O=C(C=4)C=C(C3)C(C)(C4)C([H])(C2)C([H])(C3)C([H])(C1)C(C)(C2)C(=O)C1
InChI: InChI=1S/C19H24O2/c1-18-9-7-13(20)11-12(18)3-4-14-15-5-6-17(21)19(15,2)10-8-16(14)18/h7,9,11,14-16H,3-6,8,10H2,1-2H3/t14-,15-,16-,18-,19-/m0/s1
Instrument: API2000
Instrument type: LC-APPI-QQ
Ms type: MS
Ion mode: POSITIVE
Retention time: 0.821067 min
Base peak: 285.200012
Ion type: [M-H2O+H]+,[M-2H2O+H]+
m/z	relative intensity
201.171437	204
202.132485	60
203.146706	99
205.144253	72
206.114052	22
207.157522	48
209.194675	219
211.176005	277
212.206404	83
213.151938	186
214.205651	97
215.177940	169
216.212943	30
217.193865	46
218.149649	18
219.159381	46
220.157081	26
221.174457	57
222.164345	21
223.182804	84
224.201490	36
225.202926	120
226.236476	73
227.209464	105
228.225266	60
229.187316	68
230.223768	24
231.188834	58
232.224099	17
233.212390	44
234.192509	20
235.151643	47
237.194247	101
238.170650	35
239.208415	63
240.278699	33
241.279548	67
243.257817	70
244.267531	21
245.204288	49
246.219016	18
247.197224	49
249.190526	67
251.170742	50
252.164754	18
253.218993	38
255.199671	62
257.224876	73
258.219945	34
259.231448	85
260.231716	34
261.200853	99
263.211128	206
265.200659	81
267.236230	999
268.222644	235
271.197897	38
273.232463	48
274.237600	24
275.221508	62
277.216205	133
279.229984	132
280.273166	67
281.262973	95
283.236673	88
285.296245	946
289.287522	35
291.260587	44
293.259760	38
295.263198	33
297.310936	46
299.266001	35
301.282717	40
303.304634	38
304.364680	25
305.336468	32
306.332151	15
307.324079	28
309.279648	23
310.306241	7
311.296353	13
312.315107	7
313.311169	18
315.330282	45
317.293140	29
318.310132	15
319.318739	27
320.342427	20
321.351747	25
322.350050	9
323.298858	14
325.302201	11
327.279523	18
328.323442	7
329.289174	16
331.282290	18
332.303310	17
333.309783	18
334.305232	9
335.318294	16
337.338401	16
339.298543	13
341.314256	9
343.322000	13
345.334187	12
346.306546	8
347.285315	13
349.331073	14
351.341079	13
353.366176	12
355.259127	18
356.305470	6
357.339511	10
359.308001	9
361.341298	11
363.299587	13
365.318146	14
367.359082	17
369.393339	26
371.341273	40
373.393253	38
375.352974	10
377.342857	8
378.366965	2
379.373913	8
381.363965	12
383.400230	16
385.449342	10
387.458854	19
389.453209	19
391.466134	61
394.343174	2
395.392784	7
397.446409	12
399.450539	19
401.459495	6
403.446526	7
404.432336	3
405.462598	6
407.426471	7
408.510594	4
409.422111	6
410.407868	7
411.414741	7
412.456234	3
413.450685	5
414.451299	3
415.484424	3
416.561961	1
417.474544	2
419.522023	5
421.460189	3
422.463501	1
423.475455	3
424.440227	2
425.421934	4
426.455669	2
427.492574	8
429.437178	3
431.440913	2
433.493283	4
434.576101	1
435.523302	2
437.518362	3
438.490871	2
439.439180	3
440.494285	1
441.403330	2
442.470511	1
443.408185	2
445.386127	3
446.384993	1
447.438887	2
449.539751	1
450.000000	1
451.544574	2
452.475248	1
453.588612	1
454.545457	1
455.493513	2
456.510973	2
457.481689	1
458.532073	1
459.411764	1
460.655885	1
461.463636	1
462.496610	1
463.435414	1
464.535593	1
465.498712	1
466.568627	1
467.537036	1
469.440422	1
470.396963	1
471.519049	1
473.430990	2
474.410372	1
474.979999	1
475.442232	2
476.447873	1
477.456754	1
478.436620	1
479.529016	2
481.476469	1
482.656755	1
483.500000	1
484.520003	1
485.533335	1
486.000000	1
487.584275	1
489.490907	1
490.546513	1
491.558621	1
492.538166	1
493.461617	2
495.585383	2
496.549998	1
497.556999	1
498.604080	1
499.570593	1
500.000000	1
