Mass spectrum: nPFOS; LC-ESI-QQ; MS2; CE10eV; [M-H]-
Name: nPFOS
Class: Non-Natural Product
Formula: C8HF17O3S
Exact mass: 499.93749
SMILES: FC(F)(F)C(F)(F)C(F)(F)C(F)(F)C(F)(F)C(F)(F)C(F)(F)C(F)(F)S(O)(=O)=O
InChI: InChI=1S/C8HF17O3S/c9-1(10,3(13,14)5(17,18)7(21,22)23)2(11,12)4(15,16)6(19,20)8(24,25)29(26,27)28/h(H,26,27,28)
Instrument: Xevo TQ, Waters
Instrument type: LC-ESI-QQ
Ms type: MS2
Ion mode: NEGATIVE
Collision energy: 10eV
Retention time: 21.636700 min
Base peak: 498.731171
Precursor m/z: 498.9
Precursor type: [M-H]-
m/z	relative intensity
79.809967	64
83.034583	33
84.834284	7
98.732131	28
118.942935	7
134.888485	6
168.861255	20
179.928220	3
218.668428	5
229.877946	4
278.097760	3
358.337939	3
499.018601	999
