Mass spectrum: 3mPFOS; LC-ESI-QQ; MS2; CE20eV
Name: 3mPFOS
Class: Non-Natural Product
Formula: C8HF17O3S
Exact mass: 499.93749
SMILES: FC(F)(F)C(F)(F)C(F)(F)C(F)(F)C(F)(C(F)(F)F)C(F)(F)C(F)(F)S(O)(=O)=O
InChI: InChI=1S/C8HF17O3S/c9-1(6(18,19)20,3(12,13)8(24,25)29(26,27)28)2(10,11)4(14,15)5(16,17)7(21,22)23/h(H,26,27,28)
Instrument: Xevo TQ, Waters
Instrument type: LC-ESI-QQ
Ms type: MS2
Ion mode: NEGATIVE
Collision energy: 20eV
Retention time: 15.000950 min
Base peak: 499.177307
Precursor m/z: 498.9
Precursor type: [M-H]-
m/z	relative intensity
80.150479	19
103.951382	26
129.633741	27
168.928355	42
242.912244	16
279.911256	83
350.529781	22
422.752620	168
499.137793	999
