Mass spectrum: 102FTA; LC-ESI-QQ; MS2; CE40; [M-H]-
Name: 102FTA
Name: 102Fluorotelomer Acid
Name: 3,3,4,4,5,5,6,6,7,7,8,8,9,9,10,10,11,11,12,12,12-Heneicosafluorododecanoic acid
Class: Non-Natural Product
Formula: C12H3F21O2
Exact mass: 577.97977
SMILES: OC(=O)CC(F)(F)C(F)(F)C(F)(F)C(F)(F)C(F)(F)C(F)(F)C(F)(F)C(F)(F)C(F)(F)C(F)(F)F
InChI: InChI=1S/C12H3F21O2/c13-3(14,1-2(34)35)4(15,16)5(17,18)6(19,20)7(21,22)8(23,24)9(25,26)10(27,28)11(29,30)12(31,32)33/h1H2,(H,34,35)
Instrument: Xevo TQ MS (Waters)
Instrument type: LC-ESI-QQ
Ms type: MS2
Ion mode: NEGATIVE
Collision energy: 40
Retention time: 0.016833
Base peak: 492.979034
Precursor m/z: 577
Precursor type: [M-H]-
m/z	relative intensity
63.028034	627
92.745934	57
119.207054	121
154.097961	53
169.275360	93
181.029541	270
192.969711	209
204.830582	123
211.097305	87
218.799194	85
224.004730	57
242.988922	552
255.057327	68
259.844910	51
293.024384	641
304.786377	70
323.616638	158
342.829254	161
443.163879	120
493.051544	999
493.811035	178
