Mass spectrum: Estriol; LC-APPI-QQ; MS2; CE:40 V; [M-2H2O+H]+
Name: Estriol
Class: Natural Product; Steroid hormone
Formula: C18H24O3
Exact mass: 288.17254
SMILES: Oc(c4)cc(C3)c(c4)C(C2)C(C3)C(C1)C(C)(C2)C(O)C(O)1
InChI: InChI=1S/C18H24O3/c1-18-7-6-13-12-5-3-11(19)8-10(12)2-4-14(13)15(18)9-16(20)17(18)21/h3,5,8,13-17,19-21H,2,4,6-7,9H2,1H3/t13?,14?,15?,16-,17+,18?/m1/s1
Instrument: API2000
Instrument type: LC-APPI-QQ
Ms type: MS2
Ion mode: POSITIVE
Retention time: 0.820833 min
Base peak: 157.199997
Precursor m/z: 253.200000
Precursor type: [M-2H2O+H]+
m/z	relative intensity
39.400002	1
39.900002	1
40.400002	1
40.900002	2
41.099998	1
41.599998	1
42.099998	1
42.299999	1
42.980000	6
43.900002	1
44.099998	1
44.900002	1
45.400002	1
50.599998	1
50.900002	1
53.175000	1
53.500000	1
53.700001	1
54.100000	1
55.042858	31
55.925001	1
56.200001	1
56.799999	1
57.139999	2
57.900002	1
58.799999	1
59.099998	1
59.400002	1
64.400002	1
65.177778	2
65.500000	1
66.000000	1
67.077686	103
69.083920	43
70.199997	1
70.500000	1
70.933334	1
71.800003	1
72.250000	1
73.150002	1
73.699997	1
74.000000	1
75.000000	1
75.500000	1
75.750000	1
76.300003	2
77.050000	33
79.018560	154
81.095371	222
82.099998	1
83.016667	6
83.599998	1
84.699997	1
87.300003	1
87.900002	1
88.599998	1
89.900002	2
91.038716	116
93.049592	157
94.099998	3
94.300003	5
95.051780	132
97.099998	1
101.500000	1
101.900000	1
102.886364	9
103.381252	3
104.983562	78
105.750000	3
107.008150	262
109.109890	39
109.800003	1
110.699997	1
111.000000	1
111.599998	1
112.950001	1
113.300003	1
113.850002	1
114.099998	1
115.071187	25
116.057142	4
117.010606	28
118.340001	2
118.890910	9
120.187497	2
121.022069	62
121.800003	1
122.199997	1
122.750000	1
123.099998	1
125.000000	1
125.500000	1
126.000000	1
127.020732	35
128.039562	58
129.008771	49
131.086854	91
133.024401	196
133.899994	1
134.100006	1
134.699997	1
134.899994	1
135.349998	1
137.000000	1
137.300003	1
137.949997	1
138.199997	1
138.500000	1
138.899999	3
139.208331	3
139.500000	1
139.922219	2
141.095067	95
141.699997	1
142.119997	4
145.023394	279
145.983332	3
147.105506	23
148.600006	1
148.800003	1
149.500000	1
150.300003	1
150.699997	1
151.199998	5
153.083510	101
154.074390	35
155.060000	77
157.072113	999
159.074367	278
159.800003	1
160.100006	1
160.449997	1
160.800003	3
161.800003	1
162.349998	1
163.199997	1
163.449997	2
164.023812	4
165.042534	226
167.038889	77
168.017021	10
169.014622	91
171.012959	221
171.699997	1
172.000000	1
172.493750	3
173.060872	20
174.000000	1
174.300003	1
175.000000	1
175.399999	1
175.699997	1
175.899994	1
176.399994	1
177.202272	19
178.180459	37
179.094066	245
179.984999	4
181.148288	125
182.122418	194
183.057448	361
184.074078	12
185.053917	93
186.000000	1
186.199997	1
186.699997	1
186.899994	1
187.100006	1
187.500000	1
188.000000	1
188.899994	1
189.100006	1
189.699997	1
190.160001	2
190.818182	5
191.192309	6
192.121054	8
193.107559	37
194.104595	37
195.082057	98
197.121743	505
198.125180	207
199.699997	1
200.199997	1
200.500000	1
200.849998	1
201.199997	1
201.500000	1
201.699997	1
202.000000	1
203.062504	2
203.849998	1
204.199997	1
204.972001	5
206.000000	1
207.056607	11
209.105421	71
210.117332	64
211.081683	173
212.161539	28
213.100006	1
213.800003	1
214.300003	1
214.699997	1
215.300003	1
215.800003	1
216.000000	1
216.199997	1
216.800003	1
217.000000	1
217.449997	1
217.800003	1
218.300003	1
219.100006	1
219.687498	2
221.065790	16
222.199998	14
223.114354	45
224.094153	37
225.104580	56
226.899994	1
232.899994	1
233.100006	1
233.300003	1
233.600006	1
234.000000	1
235.177779	8
236.028570	4
236.820001	2
237.331250	3
238.273769	13
239.500000	1
248.899994	1
249.349998	1
250.399994	1
250.600006	1
251.125004	3
251.750000	1
253.182366	184
286.200012	1
