Mass spectrum: Dehydroepiandrosterone; LC-APPI-QQ; MS2; CE:50 V; [M-2H2O+H]+
Name: Dehydroepiandrosterone
Class: Natural Product; Steroid hormone
Formula: C19H28O2
Exact mass: 288.20893
SMILES: OC(C4)CC(=C3)C(C)(C4)C(C2)C(C3)C(C1)C(C)(C2)C(=O)C1
InChI: InChI=1S/C19H28O2/c1-18-9-7-13(20)11-12(18)3-4-14-15-5-6-17(21)19(15,2)10-8-16(14)18/h3,13-16,20H,4-11H2,1-2H3/t13-,14?,15?,16?,18?,19?/m0/s1
Instrument: API2000
Instrument type: LC-APPI-QQ
Ms type: MS2
Ion mode: POSITIVE
Retention time: 0.820850 min
Base peak: 90.900002
Precursor m/z: 253.300000
Precursor type: [M-2H2O+H]+
m/z	relative intensity
38.000000	1
39.100000	1
39.599998	1
41.085126	38
43.111979	23
44.299999	1
45.200001	1
47.200001	1
48.299999	1
49.799999	1
50.299999	1
50.900002	1
51.700001	1
52.514285	2
53.073437	15
55.071288	266
55.900002	1
56.350000	1
56.948001	3
57.220000	2
57.799999	1
58.099998	1
58.500000	1
58.700001	1
59.099998	1
61.799999	1
62.099998	1
62.799999	1
63.099998	1
63.400002	1
64.500000	2
65.070858	42
67.079720	417
69.122071	87
70.500000	1
71.099998	1
72.000000	1
72.900002	1
73.199997	1
73.500000	1
73.900002	1
74.500000	1
75.039999	1
75.300003	1
77.054936	205
79.026076	575
81.093781	700
83.025962	25
83.900002	1
87.000000	1
87.400002	1
88.099998	1
88.900002	1
91.059543	999
93.091674	423
95.043735	143
96.000000	1
96.933334	1
97.250000	1
97.699997	1
98.900002	1
99.599998	1
100.500000	1
100.800001	1
101.199997	1
103.067460	60
105.030332	753
107.025151	99
108.059999	1
109.028187	18
111.000000	1
111.199997	1
112.599998	1
112.800003	1
113.099998	1
115.069239	219
117.071405	281
119.075266	134
120.141665	1
121.101878	25
122.000000	1
122.913333	2
123.416668	1
124.049999	1
124.400002	1
125.500000	2
128.078849	632
129.072076	636
131.121842	216
133.176792	42
134.075005	1
134.316668	1
135.010001	2
136.100006	1
136.349998	1
137.100006	1
137.399994	1
137.600006	1
137.800003	1
138.199997	1
138.399994	1
141.114515	592
142.095999	660
143.084106	467
145.109109	180
146.150002	4
147.131666	36
148.300003	1
148.500000	1
148.699997	1
148.933329	1
149.233332	1
149.699997	1
150.000000	1
153.083112	296
155.079027	729
156.069899	225
157.134071	371
159.123166	62
160.150002	1
160.399994	1
160.950001	2
161.899994	1
162.100006	1
162.349998	1
162.799998	1
163.100006	1
165.082154	123
167.105717	729
168.123652	340
169.095408	534
170.090566	50
171.098993	94
172.300003	2
173.129511	7
174.200002	1
174.500000	1
174.800003	1
176.200002	1
176.600001	1
177.174999	1
178.182191	9
179.177285	43
181.127180	328
182.169643	634
183.145616	255
185.174317	44
186.266667	2
187.080001	6
188.000000	1
188.500000	1
188.699997	1
189.199997	1
189.600006	1
189.849998	1
190.300003	1
190.881819	3
191.199997	1
192.178124	4
193.177194	14
195.154785	144
197.197646	506
198.184706	10
199.144067	14
199.899994	1
201.000000	1
201.899994	1
202.800003	1
203.000000	1
203.699997	1
204.399994	1
204.783335	1
205.170000	1
206.199997	1
206.399994	1
207.142423	8
209.140307	77
210.202970	24
211.139444	38
212.277779	2
215.300003	1
218.399994	1
218.849998	1
219.100006	1
219.300003	1
219.699997	1
220.250000	1
221.082497	5
223.229572	122
223.980554	4
225.186362	13
233.399994	1
235.000000	1
235.362497	1
235.800003	1
236.199997	1
236.424995	1
237.241573	21
238.254545	31
250.800003	1
251.000000	1
251.199997	1
251.419995	1
252.200000	1
253.284127	22
268.399994	1
