Mass spectrum: Androsterone; LC-APPI-QQ; MS
Name: Androsterone
Class: Natural Product; Steroid hormone
Formula: C19H30O2
Exact mass: 290.22458
SMILES: OC(C4)CC([H])(C3)C(C)(C4)C(C2)C(C3)C(C1)C(C)(C2)C(=O)C1
InChI: InChI=1S/C19H30O2/c1-18-9-7-13(20)11-12(18)3-4-14-15-5-6-17(21)19(15,2)10-8-16(14)18/h12-16,20H,3-11H2,1-2H3/t12-,13+,14?,15?,16?,18?,19?/m0/s1
Instrument: API2000
Instrument type: LC-APPI-QQ
Ms type: MS
Ion mode: POSITIVE
Retention time: 0.821083 min
Base peak: 255.300003
Ion type: [M+H]+,[M-H2O+H]+
m/z	relative intensity
151.205037	8
152.210043	1
153.116016	3
155.117778	3
156.114840	1
157.154273	6
158.111570	2
159.172595	20
161.192002	45
163.175373	12
164.198989	2
165.125778	2
166.194355	1
167.133660	4
169.101551	3
170.125040	2
171.140524	11
173.168143	21
174.141704	4
175.153030	16
176.188520	2
177.205658	7
178.191076	1
179.161892	4
181.142004	7
183.133904	6
184.180266	2
185.161835	14
186.125448	3
187.127776	11
189.183091	15
191.173111	9
192.174320	2
193.176007	6
194.183304	2
195.168599	7
197.147224	18
199.178375	40
200.213893	7
201.192256	20
202.154577	4
203.150937	6
205.124536	5
207.139513	6
209.164842	8
211.157020	10
213.180031	24
214.206224	5
215.189069	25
217.196571	10
219.133541	6
221.146050	6
222.137934	2
223.141898	8
225.205108	9
227.210541	11
228.209138	4
229.180324	14
231.159320	19
233.159420	12
235.120977	9
237.146203	19
238.139941	5
239.194189	14
241.265247	14
242.214653	5
243.213297	17
245.164285	25
247.162901	28
249.182496	47
251.185669	45
253.231722	81
255.247484	999
259.169911	16
261.132165	15
263.141067	16
265.164667	19
267.184063	26
269.206702	39
271.220154	74
273.295516	559
277.153697	8
279.129810	25
281.192023	7
283.193023	13
285.217305	19
287.240643	21
289.268507	9
291.288069	14
293.190303	3
295.208489	4
297.232083	4
299.206469	10
301.260679	6
303.294096	4
305.348427	7
307.246385	2
309.237032	2
311.230972	2
313.240951	3
315.308559	12
319.274863	2
321.277515	2
323.229585	2
325.198145	2
327.222042	2
329.208243	1
331.210287	1
333.214747	2
335.232800	3
336.261620	1
337.258466	3
339.232765	3
340.242327	2
341.283790	2
342.300527	1
343.277063	2
345.271002	2
347.237672	2
348.211541	1
349.271570	3
351.260983	3
353.298449	2
355.274499	3
357.272285	2
359.289948	3
361.291584	7
363.280460	2
365.250272	1
367.276251	1
369.333908	2
371.332143	2
373.321998	2
375.324005	2
377.299607	2
379.341081	3
380.354465	1
381.299667	1
382.946434	1
385.309897	1
387.331715	1
389.316535	1
391.398070	2
393.327827	1
395.319174	1
396.321673	1
397.279389	1
399.340069	49
