Mass spectrum: Ergosterol; LC-APPI-QQ; MS2; CE:20 V; [M-H2O+H]+
Name: Ergosterol
Class: Natural Product; Sterol
Formula: C28H44O
Exact mass: 396.33922
SMILES: C(C(C=CC(C)C(C4)C(C3C4)(C)CCC(C=13)C(C2)(C(CC(C2)O)=CC1)C)C)(C)C
InChI: InChI=1S/C28H44O/c1-18(2)19(3)7-8-20(4)24-11-12-25-23-10-9-21-17-22(29)13-15-27(21,5)26(23)14-16-28(24,25)6/h7-10,18-20,22,24-26,29H,11-17H2,1-6H3/b8-7+/t19?,20?,22-,24?,25?,26?,27?,28?/m0/s1
Instrument: API2000
Instrument type: LC-APPI-QQ
Ms type: MS2
Ion mode: POSITIVE
Retention time: 0.820850 min
Base peak: 379.299988
Precursor m/z: 379.300000
m/z	relative intensity
40.799999	1
41.000000	1
43.299999	1
54.450001	1
54.799999	1
55.000000	1
55.299999	1
55.700001	1
55.900002	1
57.145690	10
57.799999	1
58.000000	1
66.450001	1
67.140625	3
68.099998	1
69.127465	47
69.900002	1
70.350002	1
70.985715	1
77.300003	1
78.900002	1
79.199997	1
79.400002	1
81.027660	4
83.090722	16
83.800003	1
84.350002	1
84.599998	1
84.800003	1
85.099998	1
85.350002	1
87.099998	1
90.599998	1
90.866669	1
91.149998	1
92.099998	1
92.599998	1
93.074999	1
93.775002	1
94.350002	1
95.071223	11
96.000000	1
96.400002	1
97.140678	5
97.699997	1
98.199997	1
98.950001	1
99.300003	1
99.500000	1
104.000000	1
105.073914	2
105.724998	1
106.000000	1
107.002083	8
109.119607	8
110.887880	3
112.900002	1
113.350002	1
114.500000	1
116.000000	1
116.599998	1
117.300003	1
118.000000	1
118.199997	1
118.400002	1
119.104346	4
119.699997	1
120.199997	1
121.015094	4
121.330558	3
121.800003	1
123.107000	8
124.000000	1
125.127206	67
125.900002	1
126.199999	1
126.699997	1
127.149998	1
128.000000	1
129.300003	1
129.699997	1
131.154548	4
132.399994	1
133.141838	8
133.899994	1
134.100006	1
134.349998	1
135.049091	5
135.800003	1
136.150002	1
137.154166	4
138.899994	1
139.300003	1
140.600006	1
140.899994	1
141.600006	1
142.000000	1
142.972726	2
145.113032	33
146.000000	1
146.199997	1
147.135716	9
147.899994	1
148.500000	1
149.310528	3
150.100006	1
150.600006	1
151.242424	3
153.100006	1
153.399999	1
154.500000	1
155.100006	1
155.699997	1
156.150002	1
156.500000	1
157.202778	6
157.877775	1
159.135336	34
159.899994	1
160.100006	1
160.600006	1
161.135515	9
162.399994	1
163.183333	8
164.000000	1
164.300003	1
165.216666	3
166.899994	1
167.100006	1
167.899994	1
168.899994	1
169.300003	1
169.600006	1
170.000000	1
170.580005	1
171.089284	5
171.800003	1
173.171249	13
173.800003	1
174.150002	1
175.216668	5
176.100006	1
176.800003	1
177.196295	4
178.300003	1
179.199997	1
180.600006	1
181.250000	1
181.699997	1
182.399994	1
182.766668	1
183.155557	1
183.800003	1
184.174999	1
185.166893	12
187.157898	8
189.162500	4
191.181133	4
192.000000	1
192.300003	1
192.500000	1
193.369997	2
195.300003	1
195.500000	1
195.899994	1
196.100006	1
196.699997	1
197.166666	4
198.000000	1
198.262501	1
199.205883	22
201.241256	18
203.265625	3
205.279999	3
206.500000	1
206.699997	1
207.199997	1
207.399994	1
208.399994	1
210.349998	1
211.227275	5
212.259998	1
213.166667	13
214.199997	1
215.260000	10
217.195240	3
218.699997	1
219.000000	1
220.399994	1
221.100006	1
221.400002	1
222.500000	1
222.800003	1
223.000000	1
223.199997	1
223.800003	1
224.000000	1
224.449997	1
225.180555	6
226.299998	1
227.238236	6
228.233332	1
229.378723	4
230.199997	1
230.600006	1
231.330000	3
232.600006	1
233.378572	2
235.050003	1
235.500000	1
236.000000	1
236.300003	1
237.100006	1
237.449997	1
238.300003	1
239.270412	22
240.525002	1
241.300003	3
242.971427	1
243.300003	1
243.545457	2
244.500000	1
245.352631	3
247.446154	2
249.349998	1
249.699997	1
250.399994	1
251.362497	1
252.199997	1
253.281889	63
254.000000	1
254.432788	5
255.284809	13
255.899994	1
256.299988	1
256.500000	1
256.700012	1
257.308334	2
258.600006	1
259.200012	1
259.518183	1
260.550003	1
260.899994	1
261.600006	1
265.000000	1
265.250000	1
265.500000	1
265.700012	1
266.000000	1
267.283053	10
268.000000	1
268.399994	1
269.302779	12
270.449997	1
271.324804	11
272.500000	1
273.344445	1
274.399994	1
277.200012	1
277.500000	1
278.000000	1
279.200002	1
279.550003	1
280.025002	1
280.500000	1
281.299999	11
281.899994	1
282.200012	1
283.327274	11
284.299988	1
284.500000	1
285.331945	6
286.250000	1
287.299988	1
287.500000	1
288.899994	1
291.000000	1
291.399994	1
292.899994	1
293.200012	1
293.899994	1
294.333323	1
295.345820	57
296.200012	1
296.600006	1
297.600006	2
299.000000	1
299.399994	1
299.700012	1
300.799988	1
301.500000	1
303.250000	1
306.600006	1
307.200012	1
307.399994	1
307.600006	1
307.799988	1
308.100006	1
308.399994	1
309.349670	50
310.600006	1
311.200012	1
311.437496	1
312.700012	1
313.533335	1
317.899994	1
318.200012	1
319.000000	1
319.349991	1
320.399994	1
320.799988	1
321.000000	1
321.374992	1
321.600006	1
322.700012	1
323.385184	9
324.100006	1
324.600006	1
325.399994	1
325.600006	1
333.000000	1
333.399994	1
335.399994	1
335.600006	1
335.799988	1
336.266673	1
336.799988	1
337.409995	2
338.299988	1
338.500000	1
347.150009	1
347.600006	1
349.000000	1
349.399994	1
349.650009	1
350.100006	1
350.399994	1
351.399994	2
360.799988	1
361.425001	1
363.974998	1
364.466665	1
364.750000	1
375.600006	1
376.000000	1
376.299988	1
376.799998	1
377.675011	1
379.422849	999
380.700012	1
381.000000	1
