Mass spectrum: Androsterone; LC-APPI-QQ; MS2; CE:50 V; [M-H2O+H]+
Name: Androsterone
Class: Natural Product; Steroid hormone
Formula: C19H30O2
Exact mass: 290.22458
SMILES: OC(C4)CC([H])(C3)C(C)(C4)C(C2)C(C3)C(C1)C(C)(C2)C(=O)C1
InChI: InChI=1S/C19H30O2/c1-18-9-7-13(20)11-12(18)3-4-14-15-5-6-17(21)19(15,2)10-8-16(14)18/h12-16,20H,3-11H2,1-2H3/t12-,13+,14?,15?,16?,18?,19?/m0/s1
Instrument: API2000
Instrument type: LC-APPI-QQ
Ms type: MS2
Ion mode: POSITIVE
Retention time: 0.820850 min
Base peak: 105.000000
Precursor m/z: 273.300000
Precursor type: [M-H2O+H]+
m/z	relative intensity
38.799999	1
39.099998	1
39.299999	1
39.599998	1
40.074999	1
41.071428	14
43.082832	24
43.900002	1
44.099998	1
44.750000	1
45.150000	1
45.400002	1
50.200001	1
50.400002	1
51.000000	1
51.799999	1
52.099998	1
52.450001	1
53.128169	7
55.085089	165
57.090244	8
57.700001	1
58.099998	1
58.599998	1
58.975000	1
59.200001	1
63.000000	1
63.200001	1
63.599998	1
63.900002	1
65.098649	15
67.108951	336
69.137369	97
71.058139	9
71.800003	1
72.199997	1
72.450001	1
73.000000	1
73.450001	1
73.800001	1
74.300001	1
74.599998	1
74.950001	1
75.470000	1
77.064752	209
79.043841	681
81.117631	553
83.042857	32
84.300003	1
84.500000	1
84.985715	1
86.199997	1
86.599998	1
87.000000	1
87.199997	1
87.500000	1
88.000000	1
88.199997	1
88.500000	1
89.199997	2
91.063400	928
93.102149	595
95.071418	266
97.021349	18
98.000000	1
98.199997	1
99.174997	1
99.500000	1
100.500000	1
100.800003	1
101.025000	1
101.599998	1
103.144818	36
105.057037	999
107.065151	281
109.116487	57
109.900002	1
110.400002	1
110.972728	2
111.800003	1
113.000000	1
113.450001	1
113.800003	1
115.080225	45
117.086732	185
119.082347	405
121.091289	58
122.300003	1
123.150550	9
124.300003	1
124.866669	1
125.099998	1
125.450001	1
126.300003	1
128.132298	85
129.086890	146
130.125024	105
131.140114	232
133.151550	124
135.117611	32
136.739999	1
137.283333	1
137.899994	1
138.699997	1
138.899994	1
139.250000	1
141.145877	20
143.092537	177
145.117728	236
147.144035	187
148.300003	1
149.124577	12
150.199997	1
150.500000	1
150.899994	1
151.220001	1
151.500000	1
152.016668	1
152.800003	1
153.815384	3
155.053029	27
157.149529	129
159.153185	128
160.000000	2
161.128792	131
163.200002	3
164.199997	1
164.899994	1
165.399994	1
165.899994	1
166.199997	1
166.500000	1
167.366664	1
167.800003	1
168.050003	2
168.366664	2
169.138609	26
171.087310	80
173.206107	53
174.374996	1
175.215386	4
176.000000	1
176.199997	1
176.750000	1
177.000000	1
177.600006	1
178.150002	1
178.899994	1
179.100006	1
179.399994	1
180.050003	1
180.399994	1
181.012501	2
181.822218	1
183.184314	21
184.267796	18
185.191736	74
186.219176	7
187.176271	12
189.207143	6
189.800003	1
190.000000	1
190.250000	1
191.049999	1
191.399994	1
191.650002	1
194.899994	1
195.100006	1
195.699997	1
196.100006	1
197.248350	9
198.167351	5
199.223706	75
200.276471	9
201.188463	5
202.155716	14
203.000000	1
203.300003	1
203.500000	1
203.800003	1
204.199997	1
208.550003	1
209.399994	1
209.699997	1
210.000000	1
210.300003	1
211.100006	3
211.800003	1
212.242859	1
212.500000	1
213.158888	18
214.188894	2
215.093024	9
216.199997	1
216.399994	1
217.137501	2
217.899994	1
218.300003	1
222.800003	1
223.000000	1
223.300003	1
223.600006	1
224.300003	1
225.221875	6
226.100006	2
227.305128	4
227.899994	1
228.199997	1
229.075005	1
229.337500	2
230.283335	1
230.699997	1
237.899994	1
238.199997	1
238.500000	1
239.279996	1
239.600006	1
239.800003	1
240.383329	1
241.000000	1
241.399994	1
241.600006	1
241.899994	1
242.100006	1
242.399994	1
242.600006	1
243.166667	1
243.500000	1
243.949997	1
244.199997	1
244.500000	1
245.155555	1
251.600006	1
253.199997	1
253.550003	1
254.399999	1
255.374193	6
256.000000	1
256.399994	1
257.000000	1
258.299988	1
269.200012	1
271.050003	1
271.299988	1
271.500000	1
272.349991	1
272.700012	1
272.924995	1
273.500000	1
