Mass spectrum: 4mPFOS; LC-ESI-QQ; MS2; CE40eV
Name: 4mPFOS
Class: Non-Natural Product
Formula: C8HF17O3S
Exact mass: 499.93749
SMILES: FC(F)(F)C(F)(F)C(F)(F)C(F)(C(F)(F)F)C(F)(F)C(F)(F)C(F)(F)S(O)(=O)=O
InChI: InChI=1S/C8HF17O3S/c9-1(6(18,19)20,2(10,11)4(14,15)7(21,22)23)3(12,13)5(16,17)8(24,25)29(26,27)28/h(H,26,27,28)
Instrument: Xevo TQ, Waters
Instrument type: LC-ESI-QQ
Ms type: MS2
Ion mode: NEGATIVE
Collision energy: 40eV
Retention time: 15.443334 min
Base peak: 79.963341
Precursor m/z: 498.9
Precursor type: [M-H]-
m/z	relative intensity
63.671086	69
80.040991	999
82.897209	72
99.105975	294
118.898890	242
129.922024	350
169.291483	17
180.033321	286
230.086958	290
279.697282	70
310.778979	74
329.743587	233
394.769693	27
444.548474	37
462.652264	131
486.697002	21
498.952397	181
