Mass spectrum: 1,4-Androstadiene-3,17-dione; LC-APPI-QQ; MS2; CE:60V; [M+H]+
Name: 1,4-Androstadiene-3,17-dione
Class: Natural Product; Anabolic Steroid
Formula: C19H24O2
Exact mass: 284.17763
SMILES: O=C(C=4)C=C(C3)C(C)(C4)C([H])(C2)C([H])(C3)C([H])(C1)C(C)(C2)C(=O)C1
InChI: InChI=1S/C19H24O2/c1-18-9-7-13(20)11-12(18)3-4-14-15-5-6-17(21)19(15,2)10-8-16(14)18/h7,9,11,14-16H,3-6,8,10H2,1-2H3/t14-,15-,16-,18-,19-/m0/s1
Instrument: API2000
Instrument type: LC-APPI-QQ
Ms type: MS2
Ion mode: POSITIVE
Retention time: 0.820833 min
Base peak: 91.099998
Precursor m/z: 285.500000
Precursor type: [M+H]+
m/z	relative intensity
39.050000	1
41.037288	13
43.047554	42
44.400002	1
44.700001	1
45.057143	2
49.299999	1
50.250000	1
51.077777	3
51.900002	1
52.150000	1
52.568749	2
53.007547	6
53.799999	1
55.087710	67
56.000000	1
56.299999	1
56.500000	1
56.856251	2
57.214286	2
58.799999	1
59.100000	1
59.400002	1
61.900002	1
62.799999	1
63.450001	1
63.900002	1
65.122143	32
67.084701	142
68.099998	1
69.082927	19
70.000000	1
70.400002	1
71.220832	3
73.800003	1
74.199997	1
74.500000	1
74.699997	1
77.066485	766
79.037154	237
81.125731	116
82.883335	2
83.121738	3
84.000000	1
84.400002	1
84.699997	1
85.000000	1
85.199997	1
85.599998	1
86.400002	1
86.800003	1
87.899998	1
88.699997	1
91.063013	999
93.107635	272
95.050700	65
97.159783	10
99.450001	1
100.699997	1
100.900002	1
103.103890	99
105.075766	236
105.900002	2
107.046927	151
109.148358	38
109.900002	1
110.199997	1
110.400002	1
110.750000	1
111.000000	1
112.900002	1
115.089748	134
117.105601	125
119.100871	285
121.100636	817
122.983333	3
124.400002	1
124.900002	1
125.199999	1
125.500000	1
126.045454	2
128.095837	152
129.087522	127
130.160593	53
132.125923	257
133.800003	1
134.100006	1
134.300003	1
135.138638	10
136.199997	1
137.199997	1
138.399994	1
139.063637	2
139.839999	2
141.143132	41
142.088136	13
143.129134	29
145.088754	102
147.104768	251
149.100002	1
149.899994	1
150.199997	1
150.899994	2
151.293023	10
152.191539	15
153.150285	40
154.153901	16
155.105986	32
158.101173	173
159.800003	1
160.083338	1
160.500000	1
161.045830	5
162.300003	1
162.500000	1
162.800003	1
163.224998	1
164.399994	1
165.114665	17
166.189472	4
167.150822	7
168.992500	9
170.199997	3
171.093000	45
173.129366	28
174.199997	1
174.550003	1
175.100006	1
175.500000	1
175.949997	1
176.266668	1
177.030000	5
178.169672	28
179.216867	19
180.071433	2
181.117765	39
182.153623	16
183.130234	10
184.377779	2
184.993748	4
185.899994	1
186.474998	1
187.300003	1
187.600006	1
188.000000	1
188.399994	1
188.911112	2
190.229629	3
191.115003	5
191.500000	2
192.100006	2
193.287501	4
195.122900	15
196.063492	14
197.142859	5
198.042855	2
198.699997	1
199.233332	1
200.000000	2
200.575005	1
200.899994	1
201.200003	1
201.825001	1
202.318182	1
202.920001	1
203.300003	1
204.100006	1
204.399999	1
204.800003	1
205.025002	1
205.300003	1
205.500000	1
205.699997	1
205.899994	1
206.200002	1
206.600001	1
207.087505	1
207.500000	1
207.699997	1
207.899994	1
208.116671	1
209.300003	2
210.191667	3
210.500000	1
211.169567	5
211.974998	1
212.300003	1
212.575005	1
213.178379	4
213.933329	1
214.259998	2
214.849998	1
215.300003	1
215.500000	1
217.250000	1
218.100006	1
218.500000	1
219.000000	1
219.250000	1
219.500000	1
219.699997	1
220.000000	1
220.199997	1
220.399994	1
220.899994	1
221.600006	1
221.933329	1
222.525002	1
223.199997	1
223.500000	1
224.000000	1
225.075005	1
225.300003	1
226.205406	4
227.174998	2
228.079999	1
228.449997	1
228.699997	1
229.100006	1
229.449997	1
232.899994	1
233.100006	1
234.300003	1
234.600006	1
234.800003	1
235.100006	1
235.300003	1
235.500000	1
236.050003	1
236.300003	1
236.699997	1
237.200001	1
237.699997	1
238.399994	1
238.600006	1
239.033335	1
239.300003	1
240.000000	1
240.199997	1
240.800003	1
241.233332	1
242.300003	1
242.516668	1
249.300003	1
250.100006	1
250.300003	1
250.800003	1
251.000000	1
251.199997	1
252.100006	1
252.399994	1
253.199997	1
255.100006	1
255.300003	1
256.600006	1
257.100006	1
265.949997	1
267.000000	1
267.849991	1
268.150009	1
269.200012	1
269.799988	1
270.050003	1
270.349991	1
283.000000	1
283.600006	1
285.500000	1
