Mass spectrum: alpha-Estradiol; LC-APPI-QQ; MS2; CE:20 V; [M-H2O+H]+
Name: alpha-Estradiol
Class: Natural Product; Steroid hormone
Formula: C18H24O2
Exact mass: 272.17763
SMILES: Oc(c4)cc(C3)c(c4)C(C2)C(C3)C(C1)C(C)(C2)C(O)C1
InChI: InChI=1S/C18H24O2/c1-18-9-8-14-13-5-3-12(19)10-11(13)2-4-15(14)16(18)6-7-17(18)20/h3,5,10,14-17,19-20H,2,4,6-9H2,1H3/t14?,15?,16?,17-,18?/m1/s1
Instrument: API2000
Instrument type: LC-APPI-QQ
Ms type: MS2
Ion mode: POSITIVE
Retention time: 0.820850 min
Base peak: 255.199997
Precursor m/z: 255.200000
Precursor type: [M-H2O+H]+
m/z	relative intensity
38.799999	1
39.200001	1
41.049999	1
41.350000	1
43.000000	1
52.799999	1
53.000000	1
53.400002	1
55.068182	1
55.700001	1
56.549999	1
56.799999	1
57.299999	1
61.799999	1
64.300003	1
64.500000	1
64.699997	1
65.000000	1
65.500000	1
67.094513	3
67.912501	1
69.071079	4
70.400002	1
71.000000	1
74.900002	1
76.599998	1
76.866669	1
77.300001	1
78.000000	1
78.199997	1
79.089285	1
79.599998	1
81.101953	5
82.930001	1
83.333336	1
84.800003	1
89.099998	1
89.300003	1
89.750000	1
90.149998	1
90.925001	1
91.316669	1
92.000000	1
92.599998	1
93.160527	1
95.055050	38
96.337502	1
97.172222	1
98.400002	1
99.199997	1
100.800003	1
101.099998	1
101.699997	1
102.099998	1
103.124998	1
103.400002	1
104.099998	1
105.060000	1
107.019632	8
109.073362	56
111.071642	5
112.699997	1
113.699997	1
114.946667	1
116.099998	1
116.300003	1
117.016666	1
117.400002	1
117.649998	1
118.000000	1
118.300003	1
118.900002	1
119.199997	1
121.045749	3
123.026380	6
123.900002	1
124.900002	1
125.300003	1
126.250000	1
126.740001	1
127.000000	1
127.900002	1
128.299998	1
128.812502	1
129.290002	1
131.159893	4
133.047363	249
135.044325	13
135.849998	1
137.100006	1
137.300003	1
138.699997	1
139.300003	1
139.750000	1
141.040828	2
141.899994	1
142.971427	1
145.021889	43
147.090375	19
149.126154	1
150.100006	1
150.600006	1
150.899994	1
152.000000	1
152.699997	1
153.300003	1
153.699997	1
153.899994	1
154.199997	1
154.833328	1
155.140002	1
159.059082	790
161.083226	6
161.800003	1
162.000000	1
162.199997	1
162.600006	1
163.199997	1
164.600006	1
164.899994	1
165.100006	1
165.500000	1
166.600006	1
167.100006	1
167.300003	1
167.699997	1
168.100006	1
168.300003	1
169.002325	1
169.800003	1
170.224998	1
170.810002	1
173.095470	27
174.000000	1
174.300003	1
174.500000	1
174.812502	1
175.116671	1
177.199997	1
178.899994	1
179.100006	1
179.600006	1
179.949997	1
180.800003	1
181.399994	1
181.899994	1
182.100006	1
182.949997	1
183.199997	1
184.000000	1
185.095416	5
186.075005	1
186.399994	1
187.080488	1
188.699997	1
191.399994	1
192.100006	1
193.000000	1
193.899994	1
194.600006	1
195.108339	1
195.699997	1
195.899994	1
196.550003	1
197.111765	1
197.399994	1
197.699997	1
197.972726	1
199.104671	14
200.199997	1
200.399994	1
201.100006	1
201.449997	1
202.199997	1
203.000000	1
203.899994	1
204.699997	1
205.399994	1
207.899994	1
208.250000	1
209.099998	1
209.800003	1
210.300003	1
210.946153	1
211.981249	1
212.341375	1
213.157067	4
214.000000	1
214.550003	1
219.000000	1
219.500000	1
221.000000	1
221.600006	1
221.899994	1
222.300003	1
223.074607	1
223.899994	1
224.783335	1
225.229999	1
225.973338	1
227.218520	1
228.000000	1
236.300003	1
237.257692	1
238.100006	1
239.000000	1
239.955553	1
240.428567	1
240.899994	1
245.349998	1
246.000000	1
248.699997	1
248.949997	1
249.800003	1
251.299998	1
252.125004	1
252.739999	1
255.231214	999
257.100006	1
258.100006	1
