Mass spectrum: 82FTA; LC-ESI-QQ; MS2; CE20; [M-H]-
Name: 82FTA
Name: 82Fluorotelomer Acid
Name: 3,3,4,4,5,5,6,6,7,7,8,8,9,9,10,10,10-Heptadecafluorodecanoic acid
Class: Non-Natural Product
Formula: C10H3F17O2
Exact mass: 477.98616
SMILES: OC(=O)CC(F)(F)C(F)(F)C(F)(F)C(F)(F)C(F)(F)C(F)(F)C(F)(F)C(F)(F)F
InChI: InChI=1S/C10H3F17O2/c11-3(12,1-2(28)29)4(13,14)5(15,16)6(17,18)7(19,20)8(21,22)9(23,24)10(25,26)27/h1H2,(H,28,29)
Instrument: Xevo TQ MS (Waters)
Instrument type: LC-ESI-QQ
Ms type: MS2
Ion mode: NEGATIVE
Collision energy: 20
Retention time: 0.016833
Base peak: 392.853455
Precursor m/z: 477
Precursor type: [M-H]-
m/z	relative intensity
62.991707	378
130.905441	38
147.012146	71
168.833069	81
180.718201	31
192.917572	205
243.009613	347
283.244537	31
296.960144	50
313.039642	63
317.007324	77
321.103119	35
323.870758	111
343.091614	77
393.014801	999
394.784241	35
