Mass spectrum: Androstenedione; LC-APPI-QQ; MS2; CE:20 V; [M+H]+
Name: Androstenedione
Class: Natural Product; Steroid hormone
Formula: C19H26O2
Exact mass: 286.19328
SMILES: O=C(C4)C=C(C3)C(C)(C4)C(C2)C(C3)C(C1)C(C)(C2)C(=O)C1
InChI: InChI=1S/C19H26O2/c1-18-9-7-13(20)11-12(18)3-4-14-15-5-6-17(21)19(15,2)10-8-16(14)18/h11,14-16H,3-10H2,1-2H3/t14?,15?,16?,18-,19-/m0/s1
Instrument: API2000
Instrument type: LC-APPI-QQ
Ms type: MS2
Ion mode: POSITIVE
Retention time: 0.820900 min
Base peak: 287.399994
Precursor m/z: 287.300000
Precursor type: [M+H]+
m/z	relative intensity
38.799999	1
40.500000	1
40.900002	1
41.200001	1
43.000000	1
43.200001	1
43.400002	1
44.700001	1
52.850000	1
53.300001	1
54.933334	1
55.299999	1
56.799999	1
57.400002	1
63.400002	1
64.900002	1
65.300003	1
66.100000	1
66.943751	1
67.241666	1
67.699997	1
68.049999	1
68.549999	1
68.975000	1
71.074999	1
71.300003	1
71.500000	1
76.099998	1
77.199997	1
77.800003	1
78.199997	1
79.026315	1
81.041666	1
83.089785	7
83.900002	1
84.149998	1
85.099998	1
85.375002	1
87.400002	1
89.099998	1
90.300003	1
91.257144	1
92.000000	1
92.224998	1
92.500000	1
93.015790	1
97.083589	250
98.500000	1
99.183333	1
101.000000	1
103.199997	1
104.199997	1
105.086885	1
105.937501	1
106.199997	1
109.066284	132
110.025000	1
111.099998	1
111.400002	1
112.199997	1
112.950001	1
113.350002	1
114.699997	1
115.099998	1
115.900002	1
116.400002	1
116.699997	1
117.122220	1
117.599998	1
117.900002	1
118.400002	1
119.114035	1
121.027368	2
123.041621	10
124.300003	1
124.500000	1
125.383335	1
126.000000	1
126.549999	1
127.000000	1
127.300003	1
127.500000	1
128.399994	1
129.000000	1
129.199997	1
129.500000	1
130.000000	1
131.169768	1
132.199997	1
132.399994	1
133.149774	3
135.058930	1
136.339996	1
137.089131	1
137.800003	1
138.199997	1
138.500000	1
138.800003	1
139.062504	1
139.600006	1
140.500000	1
141.139999	1
141.424995	1
141.699997	1
142.000000	1
142.300003	1
143.064998	1
144.000000	1
144.199997	1
145.062880	5
147.154688	4
147.883329	1
148.279999	1
149.180263	2
150.131147	1
151.176317	1
152.000000	1
153.087998	1
153.899994	1
155.236840	1
155.849998	1
156.125004	1
156.459998	1
157.141378	2
158.125000	1
159.143605	5
161.093683	2
162.300003	1
163.130306	1
163.800003	1
164.450005	1
165.126831	1
166.050003	1
166.899994	1
167.199997	1
167.550003	1
169.106493	2
170.100006	1
171.121698	3
173.166342	11
174.300003	1
175.130001	1
176.199997	1
176.399994	1
177.178873	2
178.399994	1
179.399994	1
179.849998	1
180.199997	1
180.424995	1
181.105063	1
182.000000	1
182.300003	1
183.149046	2
184.100006	1
184.300003	1
185.150173	8
186.139999	1
187.188132	7
188.300003	1
189.100006	1
189.899994	1
190.100006	1
191.148422	2
193.113748	1
194.000000	1
195.184361	3
196.500003	1
197.158824	1
199.226120	4
200.000000	1
200.449997	1
201.126362	1
202.000000	1
202.600006	1
203.195064	1
203.899994	1
204.300003	1
205.219535	3
206.000000	1
206.800003	1
207.075005	1
207.399994	1
208.000000	1
209.142980	3
210.066671	1
211.150424	17
212.150002	1
213.184506	3
214.013334	1
215.090001	1
215.899994	1
216.199997	1
217.220312	5
218.199997	1
218.600006	1
219.000000	1
219.199997	1
219.699997	1
220.600006	1
221.349998	1
222.300003	1
222.699997	1
223.218748	1
224.199997	1
225.223111	3
226.000000	1
226.374996	1
227.224145	7
229.204109	31
230.349998	1
231.134146	1
232.050003	1
233.199997	1
234.800003	1
235.300003	1
235.699997	1
235.949997	1
236.500000	1
236.849998	1
237.199997	1
238.100006	1
239.000000	1
239.199997	1
239.399994	1
239.600006	1
240.424995	1
241.255140	3
242.200002	1
243.282350	1
244.040002	1
245.316126	1
248.699997	1
248.899994	1
249.100006	1
249.349998	1
249.600006	1
249.849998	1
251.236661	14
252.000000	1
252.500000	1
253.199997	1
253.949999	1
254.300003	1
254.500000	1
255.080001	1
255.800003	1
256.000000	1
256.349991	1
257.175003	1
257.600006	1
258.000000	1
258.500000	1
259.187753	1
260.399994	1
264.899994	1
265.100006	1
266.700012	1
267.100006	1
267.299988	1
267.883326	1
269.269435	39
270.399994	1
271.100006	1
271.500000	1
272.299988	1
273.299988	1
276.399994	1
277.700012	1
280.100006	1
281.100006	1
281.299988	1
282.000000	1
282.299988	1
283.200012	1
283.500000	1
287.262866	999
288.600006	1
288.799988	1
289.299988	1
289.700012	1
