Mass spectrum: Estrone; LC-APPI-QQ; MS2; CE:30 V; [M-H2O+H]+
Name: Estrone
Class: Natural Product; Steroid hormone
Formula: C18H22O2
Exact mass: 270.16198
SMILES: Oc(c4)cc(C3)c(c4)C(C2)C(C3)C(C1)C(C)(C2)C(=O)C1
InChI: InChI=1S/C18H22O2/c1-18-9-8-14-13-5-3-12(19)10-11(13)2-4-15(14)16(18)6-7-17(18)20/h3,5,10,14-16,19H,2,4,6-9H2,1H3
Instrument: API2000
Instrument type: LC-APPI-QQ
Ms type: MS2
Ion mode: POSITIVE
Retention time: 0.820850 min
Base peak: 253.399994
Precursor m/z: 253.200000
Precursor type: [M-H2O+H]+
m/z	relative intensity
38.700001	1
39.299999	1
41.299999	1
42.500000	1
42.800001	1
43.150000	1
43.500000	1
53.099998	1
53.299999	1
53.900002	1
54.099998	1
54.799999	1
55.074999	2
56.799999	1
57.000000	1
57.371429	1
58.799999	1
59.049999	1
59.500000	1
62.900002	1
64.500000	1
65.133331	1
66.000000	1
67.112121	19
69.159999	6
70.099998	1
70.699997	1
70.900002	1
71.199997	1
73.300003	1
77.106558	5
79.017007	25
81.084156	176
82.149998	1
83.136000	4
84.099998	1
85.000000	1
88.400002	1
88.900002	1
89.149998	1
89.500000	1
91.024359	20
93.086640	84
94.000000	1
95.052747	46
96.900002	1
97.400002	1
99.300003	1
102.099998	1
103.000000	2
103.649998	1
103.900002	1
105.079275	16
107.051939	138
109.128807	41
110.199997	1
113.599998	1
113.900002	1
114.199997	1
114.900002	1
115.300003	1
116.099998	1
117.119353	5
118.199997	1
119.195652	4
121.069512	55
122.149998	1
122.549999	1
123.000000	1
123.300003	1
125.099998	1
126.300001	1
126.906251	1
128.029093	5
128.600006	1
129.119514	3
131.174509	17
133.108197	111
134.000000	1
134.300003	1
134.742857	1
135.000000	1
135.328572	1
136.899994	1
137.300003	1
138.699997	1
138.949997	1
139.199997	1
139.800003	1
140.000000	1
141.062791	7
142.250000	1
142.839998	1
145.059836	102
147.144445	21
148.600006	1
149.049995	1
149.500000	1
149.699997	1
150.899994	1
151.300003	1
152.199997	1
153.092940	7
154.119356	3
157.112328	999
159.112460	259
161.119046	11
161.899994	1
163.199997	1
164.199997	1
165.080090	18
166.177779	3
167.117990	16
169.117321	21
170.196299	5
171.064072	56
172.000000	1
173.137909	26
175.139999	1
175.899994	1
176.822222	1
177.200002	1
179.126161	68
180.040002	1
181.093588	13
182.187786	44
183.109495	139
185.118944	54
185.899994	1
186.399994	1
187.100006	1
187.699997	1
188.800003	1
189.800003	1
190.100006	1
190.349998	1
190.924995	1
191.399994	1
191.899994	1
193.110556	15
194.119233	4
195.266664	8
197.172668	554
198.153957	174
199.800003	1
202.399994	1
202.899994	1
204.199997	1
204.500000	1
204.699997	1
205.100003	1
205.600006	1
206.199997	1
207.050000	4
207.724998	1
209.185802	27
211.119851	157
212.170217	31
212.899994	1
213.399994	1
216.199997	1
217.100006	1
217.699997	1
219.000000	1
219.299995	1
219.600006	1
219.874996	1
221.048149	5
222.262501	1
223.241430	6
225.174576	49
226.199997	1
232.699997	1
233.000000	1
233.300003	1
234.100006	1
234.887497	1
235.287500	1
235.899994	1
236.100006	1
236.424995	1
236.862497	1
237.300003	1
238.262810	20
238.899994	1
248.800003	1
249.000000	1
249.250000	1
249.500000	1
249.899994	1
251.166325	8
253.264406	813
