Mass spectrum: Epicoprostanol; LC-APPI-QQ; MS2; CE:40 V; [M-H2O+H]+
Name: Epicoprostanol
Class: Natural Product; Sterol
Formula: C27H48O
Exact mass: 388.37052
SMILES: CC(C4)(C(CC(O)C4)3)C(C2)C(CC3)C(C1)C(C)(C2)C(C(C)CCCC(C)C)C1
InChI: InChI=1S/C27H48O/c1-18(2)7-6-8-19(3)23-11-12-24-22-10-9-20-17-21(28)13-15-26(20,4)25(22)14-16-27(23,24)5/h18-25,28H,6-17H2,1-5H3
Instrument: API2000, Applied
Instrument type: LC-APPI-QQ
Ms type: MS2
Ion mode: POSITIVE
Retention time: 0.820833 min
Base peak: 95.099998
Precursor m/z: 371.471000
Precursor type: [M-H2O+H]+
m/z	relative intensity
37.799999	1
40.299999	1
41.299999	2
41.900002	1
42.846154	5
43.599998	1
44.000000	1
45.250000	1
52.099998	1
52.799999	1
53.099998	1
53.299999	1
53.775000	1
54.000000	1
55.079839	48
57.107059	99
58.000000	1
58.250000	1
58.599998	1
58.799999	1
63.799999	1
64.500000	1
64.766668	1
65.199997	1
65.400002	1
67.075433	135
69.062085	246
71.046939	67
72.099998	1
72.300003	1
72.599998	1
72.850002	1
73.149998	1
73.500000	1
75.900002	1
76.400002	1
77.025000	2
79.007165	65
81.081792	673
83.078764	289
84.000000	2
85.085088	22
85.800003	1
86.199997	1
88.800003	1
89.099998	1
89.300003	1
89.900002	1
90.320003	2
91.066991	20
93.069548	245
95.025818	999
97.076116	148
99.000000	3
99.900002	1
100.450001	1
101.099998	1
102.500000	1
102.800003	1
103.099998	1
103.400002	1
104.174997	2
105.005107	46
107.022325	254
109.065085	664
110.000000	1
111.011765	40
112.099998	1
112.400002	1
112.750000	1
113.000000	1
114.800003	1
117.300003	1
117.800003	1
118.100000	1
118.998572	27
121.082711	281
123.037879	231
124.800003	2
125.063635	4
125.300003	2
125.800003	1
126.900002	1
127.300003	1
128.000000	1
128.800003	1
129.300003	1
129.600006	1
130.100006	1
130.300003	1
130.971427	3
131.699997	1
132.991968	48
133.699997	3
135.041118	313
135.800003	1
137.055813	50
138.150002	1
138.750000	1
139.349998	1
141.300003	1
141.500000	1
142.899994	1
143.199997	1
144.100006	1
145.079309	6
147.080221	35
149.101142	238
149.899994	1
151.108622	23
152.300003	1
152.899994	1
153.100006	1
153.300003	1
157.100006	1
157.500000	1
157.899994	1
158.300003	1
159.200003	4
161.156025	32
163.106306	130
163.899994	1
165.025715	14
165.600006	1
166.300003	1
166.500000	1
166.800003	1
168.100006	1
169.199997	1
170.300003	1
171.199997	1
172.050003	1
172.775002	2
173.000000	2
174.000000	2
174.199997	3
175.051110	26
176.071431	3
177.161906	33
178.050003	1
178.399994	1
179.183333	14
180.199997	1
181.100006	1
181.399994	1
184.199997	1
184.500000	1
184.899999	1
185.399994	1
185.949997	1
186.349998	1
187.328570	3
187.899994	1
189.130088	88
191.161647	14
192.100006	1
192.500000	1
193.188635	17
193.699997	1
195.300003	1
197.399994	1
198.699997	1
199.000000	1
199.500000	1
199.849998	1
201.100006	1
201.449997	2
202.100002	3
203.172602	28
204.600006	1
205.070968	12
206.100006	1
206.399994	1
207.070004	4
207.300003	3
207.500000	2
208.300003	1
209.100006	1
209.399994	1
209.600006	1
212.699997	1
213.050003	1
213.300003	1
213.800003	1
214.399994	1
215.036363	9
215.399994	1
216.061539	10
217.062000	19
218.300003	1
219.222414	11
220.000000	1
220.800003	1
221.353844	3
227.199997	1
229.350002	2
230.233332	4
230.945830	5
231.357145	3
232.100006	1
232.300003	1
233.125001	8
234.899994	1
235.400002	1
236.500000	1
237.000000	1
238.699997	1
241.100006	1
241.600006	1
242.199997	1
243.349998	1
243.699997	1
244.050003	1
244.969998	2
245.345451	4
246.907137	3
249.025002	1
249.699997	1
250.199997	1
250.800003	1
251.100006	1
251.899994	1
252.100006	1
252.800003	1
253.800003	1
255.199997	1
256.100006	1
257.000000	1
257.200012	1
257.399994	1
257.750000	1
258.299988	1
258.600006	1
259.091301	4
259.525002	2
260.250000	1
261.195455	9
262.299988	1
262.899994	1
263.100006	1
263.399994	1
266.899994	1
267.200002	1
268.000000	1
269.000000	1
270.899994	1
271.100006	1
271.399994	1
272.299988	1
273.299988	2
273.774994	1
274.500000	1
275.100006	5
275.500000	4
275.899994	1
277.399994	1
280.100006	1
281.799988	1
283.299988	1
283.500000	1
284.799988	1
285.600006	1
286.000000	1
286.200012	1
286.550003	1
287.000000	1
287.500000	1
287.700012	1
288.200012	1
289.149998	4
289.537502	2
289.899994	1
291.100006	1
292.299988	1
292.700012	1
292.899994	1
293.299988	1
293.600006	1
295.700012	1
296.550003	1
297.399994	1
298.600006	1
299.100006	1
300.949997	1
301.299988	1
301.700012	1
301.949997	1
302.899994	1
303.100006	1
303.299988	1
303.600006	1
303.799988	1
310.500000	1
310.899994	1
311.500000	1
311.799988	1
312.799988	1
313.200002	1
314.100006	1
314.299988	1
315.166677	2
315.399994	1
315.899994	1
317.299988	1
327.399994	1
327.899994	1
328.200012	1
328.500000	1
329.150009	1
329.399994	1
329.600006	1
330.700012	1
338.650009	1
339.000000	1
341.299988	1
341.700012	1
342.100006	1
343.299988	1
345.799988	1
353.000000	1
353.500000	1
355.250000	1
355.550003	1
356.224998	2
358.200012	1
371.319406	26
