Mass spectrum: 5mPFOS; LC-ESI-QQ; MS2; 50eV
Name: 5mPFOS
Class: Non-Natural Product
Formula: C8HF17O3S
Exact mass: 499.93749
SMILES: FC(F)(F)C(F)(F)C(F)(C(F)(F)F)C(F)(F)C(F)(F)C(F)(F)C(F)(F)S(O)(=O)=O
InChI: InChI=1S/C8HF17O3S/c9-1(6(18,19)20,3(12,13)7(21,22)23)2(10,11)4(14,15)5(16,17)8(24,25)29(26,27)28/h(H,26,27,28)
Instrument: Xevo TQ, Waters
Instrument type: LC-ESI-QQ
Ms type: MS2
Ion mode: NEGATIVE
Collision energy: 50eV
Retention time: 15.805250 min
Base peak: 80.027122
Precursor m/z: 498.9
Precursor type: [M-H]-
m/z	relative intensity
63.763590	103
79.862596	999
82.696249	72
98.808973	437
119.269238	48
129.942202	878
180.217486	291
229.655357	383
280.075213	66
365.125580	73
413.197399	97
498.731412	67
