Mass spectrum: 3mPFOS; LC-ESI-QQ; MS2; CE60eV
Name: 3mPFOS
Class: Non-Natural Product
Formula: C8HF17O3S
Exact mass: 499.93749
SMILES: FC(F)(F)C(F)(F)C(F)(F)C(F)(F)C(F)(C(F)(F)F)C(F)(F)C(F)(F)S(O)(=O)=O
InChI: InChI=1S/C8HF17O3S/c9-1(6(18,19)20,3(12,13)8(24,25)29(26,27)28)2(10,11)4(14,15)5(16,17)7(21,22)23/h(H,26,27,28)
Instrument: Xevo TQ, Waters
Instrument type: LC-ESI-QQ
Ms type: MS2
Ion mode: NEGATIVE
Collision energy: 60eV
Retention time: 15.000916 min
Base peak: 80.027122
Precursor m/z: 498.9
Precursor type: [M-H]-
m/z	relative intensity
64.031501	54
76.771224	164
80.044099	999
83.088989	136
98.931055	435
118.874894	435
129.812889	480
168.876774	233
213.828077	38
244.185140	192
432.813908	63
498.564396	155
