Mass spectrum: Daidzein; LC-APPI-QQ; MS2; CE:40 V; [M+H]+
Name: Daidzein
Class: Natural Product; Isoflavone
Formula: C15H10O4
Exact mass: 254.05791
SMILES: Oc(c3)ccc(c3)C(=C1)C(=O)c(c2)c(cc(O)c2)O1
InChI: InChI=1S/C15H10O4/c16-10-3-1-9(2-4-10)13-8-19-14-7-11(17)5-6-12(14)15(13)18/h1-8,16-17H
Instrument: API2000
Instrument type: LC-APPI-QQ
Ms type: MS2
Ion mode: POSITIVE
Retention time: 0.820850 min
Base peak: 199.000000
Precursor m/z: 255.400000
Precursor type: [M+H]+
m/z	relative intensity
36.900002	1
38.099998	1
38.900002	1
39.200001	1
39.700001	1
40.099998	1
40.799999	1
41.025000	1
41.599998	1
41.799999	1
43.128846	1
44.400002	1
49.500000	1
49.799999	1
50.099998	1
51.161111	1
51.599998	1
51.900002	1
53.147619	2
55.050652	24
56.400002	1
56.700001	1
57.000000	1
57.299999	1
59.000000	1
60.599998	1
60.799999	1
61.099998	1
62.100000	1
63.029167	1
65.080118	46
66.500000	1
66.719998	1
67.211111	1
69.042771	36
69.916668	1
70.283335	1
71.023611	1
72.300003	1
73.300003	1
73.833336	1
74.240001	1
74.500000	1
74.841669	1
75.159998	1
75.699997	1
77.066077	13
78.990540	1
79.405557	1
81.057264	44
82.300003	1
83.155554	1
83.699997	1
84.000000	1
84.300003	1
84.599998	1
84.800003	1
85.049999	1
85.400002	1
85.950001	1
86.500000	1
86.900002	1
87.199997	1
87.400002	1
89.081866	22
91.049038	461
93.070029	27
94.982469	3
96.025000	1
96.925001	1
97.199997	1
97.800003	1
98.000000	1
98.199997	1
98.699997	1
98.950001	1
99.350002	1
99.599998	1
100.300003	1
101.059090	1
101.599998	1
101.800003	1
103.034761	4
105.024074	50
106.021905	20
106.979691	9
109.049760	24
111.042106	1
111.800003	1
112.099998	1
112.350002	1
112.599998	1
112.981818	1
113.300003	1
115.045646	29
119.031328	129
121.020440	57
123.100000	1
123.599998	1
124.199997	1
124.450001	1
128.077791	176
129.072519	113
131.093611	82
133.052583	58
134.096866	45
137.009677	763
139.128738	2
141.130841	33
143.084444	70
145.015406	113
147.073723	11
149.025447	70
152.101538	238
153.087542	385
155.046753	21
157.095829	126
159.032812	6
159.868747	1
161.023286	1
161.800003	1
163.143478	3
165.078696	27
166.046153	1
167.155738	2
169.060934	33
171.051318	167
172.853847	1
173.724998	1
175.036385	17
175.900002	1
176.250000	1
176.550003	1
177.257141	1
177.799998	1
181.087606	709
182.104945	50
184.091394	93
185.076598	22
187.081517	8
187.800003	1
188.199997	1
188.944896	1
189.314813	1
190.399994	1
190.715384	1
191.214813	1
192.099997	1
193.035296	1
194.000001	1
194.399994	1
197.111777	94
199.113240	912
201.094118	1
202.600006	1
204.199997	1
205.699997	1
205.899994	1
206.100006	1
206.600006	1
206.899994	1
207.362497	1
209.098905	85
210.151051	33
211.070687	25
212.072046	22
213.102603	7
214.100006	1
214.899994	1
215.166672	1
215.500000	1
215.899994	1
217.000000	1
219.114660	4
219.959998	1
220.439997	1
220.800003	1
221.250000	1
221.899994	1
223.000000	1
223.199997	1
223.937496	1
224.256250	1
227.139722	373
228.949997	1
229.449997	1
231.600006	1
232.500000	1
233.800003	1
234.000000	1
234.199997	1
234.399994	1
234.600006	1
234.899994	1
235.100006	1
235.300003	1
237.108245	221
239.075005	1
239.399994	1
240.107142	1
241.100006	1
244.399994	1
245.800003	1
247.800003	1
248.699997	1
248.899994	1
249.100006	1
249.600006	1
249.800003	1
250.399994	1
250.699997	1
250.899994	1
251.199997	1
251.449997	1
251.799995	1
252.360001	1
255.148785	999
257.050003	1
