Mass spectrum: Epiandrosterone; LC-APPI-QQ; MS
Name: Epiandrosterone
Name: 3-beta-Hydroxy-5alpha-androstan-17-one
Class: Natural Product; Steroid hormone
Formula: C19H30O2
Exact mass: 290.22458
SMILES: OC(C4)CC([H])(C3)C(C)(C4)C(C2)C(C3)C(C1)C(C)(C2)C(=O)C1
InChI: InChI=1S/C19H30O2/c1-18-9-7-13(20)11-12(18)3-4-14-15-5-6-17(21)19(15,2)10-8-16(14)18/h12-16,20H,3-11H2,1-2H3/t12-,13-,14?,15?,16?,18?,19?/m0/s1
Instrument: API2000
Instrument type: LC-APPI-QQ
Ms type: MS
Ion mode: POSITIVE
Retention time: 0.821050 min
Base peak: 255.199997
Ion type: [M-2H2O+H]+,[M-H2O+H]+
m/z	relative intensity
151.184748	10
152.209332	2
153.136466	5
154.098700	1
155.111229	5
156.101663	1
157.144038	7
158.127851	3
159.167574	23
161.202702	69
162.213421	11
163.160409	17
164.206624	3
165.128668	3
166.194872	2
167.150801	5
169.130504	6
170.098324	2
171.136619	12
173.166209	25
175.165497	57
176.203564	9
177.202278	10
178.196973	2
179.166737	7
181.141051	9
182.176299	2
183.124915	10
184.164753	3
185.151439	16
186.112529	4
187.141280	15
188.130079	4
189.165048	17
190.114425	3
191.173112	8
192.164265	3
193.172468	8
194.205403	3
195.179074	10
197.133770	29
198.196358	7
199.182758	33
200.215848	7
201.182456	21
203.145211	10
205.134635	6
206.128814	2
207.141764	6
209.152575	11
211.149113	12
213.165742	23
214.205307	6
215.190861	21
216.212460	5
217.191497	11
218.156683	4
219.126989	6
221.160407	7
222.109146	2
223.136710	9
224.189926	2
225.181735	9
227.195574	12
228.216320	5
229.174564	15
231.161409	15
233.159843	12
235.126225	10
237.157351	27
238.125067	8
239.172625	14
241.252098	10
243.222039	14
244.227127	5
245.169045	19
247.170235	25
249.179224	36
251.195068	40
253.228372	71
255.246811	999
259.171236	14
261.140031	17
263.156206	20
265.189605	22
267.187527	30
269.208387	39
271.233015	83
273.306079	543
274.290590	141
277.154881	8
279.172647	15
281.224069	9
283.205655	19
285.235391	30
287.251569	41
288.306950	9
289.291187	10
291.303467	24
293.211931	4
295.209626	4
297.250912	5
299.233620	6
301.267309	6
302.244621	2
303.335036	9
305.367797	11
306.355306	3
307.267563	3
309.263016	3
311.249089	4
313.275662	5
315.265979	5
317.240390	3
319.294395	3
320.279205	1
321.271819	3
323.253969	3
325.240802	3
327.250211	3
328.312466	2
329.230877	2
331.240469	2
333.247208	2
335.263283	4
337.293140	3
339.280785	4
341.312101	4
343.279893	3
345.283639	3
347.289054	4
349.285974	3
351.297274	3
353.316028	4
355.272673	5
357.308423	4
359.319595	5
361.317388	8
363.309524	3
365.321808	3
367.403176	6
369.461607	16
373.343242	3
375.346801	4
377.334655	4
379.361959	5
381.369671	3
383.425878	5
385.436462	5
386.975919	4
389.352616	2
391.398813	4
393.337521	2
394.372579	1
395.363167	2
397.370087	2
399.383127	4
