Mass spectrum: Estriol; LC-APPI-QQ; MS2; CE:60 V; [M-H2O+H]+
Name: Estriol
Class: Natural Product; Steroid hormone
Formula: C18H24O3
Exact mass: 288.17254
SMILES: Oc(c4)cc(C3)c(c4)C(C2)C(C3)C(C1)C(C)(C2)C(O)C(O)1
InChI: InChI=1S/C18H24O3/c1-18-7-6-13-12-5-3-11(19)8-10(12)2-4-14(13)15(18)9-16(20)17(18)21/h3,5,8,13-17,19-21H,2,4,6-7,9H2,1H3/t13?,14?,15?,16-,17+,18?/m1/s1
Instrument: API2000
Instrument type: LC-APPI-QQ
Ms type: MS2
Ion mode: POSITIVE
Retention time: 0.820850 min
Base peak: 105.000000
Precursor m/z: 271.200000
Precursor type: [M-H2O+H]+
m/z	relative intensity
36.799999	1
37.799999	1
38.299999	1
38.900002	1
39.099998	1
39.700001	1
39.900002	1
40.099998	1
40.299999	1
41.082192	21
43.077073	119
43.950001	1
44.400000	2
44.975000	1
45.299999	1
45.500000	1
46.400002	1
49.500000	1
50.925001	1
51.250000	1
51.500000	1
52.099998	1
53.198077	15
53.964286	4
55.092798	141
55.700001	3
56.099998	1
56.299999	1
56.885714	4
58.500000	1
59.049999	2
62.299999	1
62.975000	1
63.299999	1
63.875001	1
64.199997	2
65.095714	41
67.082585	213
69.122973	21
69.800003	1
70.099998	1
71.035294	30
71.800003	1
73.300003	1
73.500000	1
74.000000	1
74.250000	1
74.500000	1
74.900002	1
75.224998	1
75.729999	3
77.044751	315
79.012360	545
81.077654	208
81.975000	1
82.599998	2
83.000000	3
83.233332	3
84.199997	1
84.500000	1
84.800003	1
85.175000	2
87.000000	1
87.850002	1
89.043749	5
89.325003	5
91.043770	464
93.134890	118
95.062817	103
96.099998	1
97.099998	6
97.599998	1
97.950001	1
98.599998	1
99.099998	1
99.699997	1
99.900002	1
100.099998	1
100.350002	1
100.900002	1
103.044512	191
105.031105	999
107.018845	231
108.099998	1
109.110000	6
109.800003	1
110.900002	1
111.199999	2
111.900002	1
112.099998	1
112.500000	1
112.964999	6
115.053441	452
116.091573	179
117.044828	67
119.300003	6
120.216665	2
121.091209	26
122.599998	1
122.800003	1
123.099998	1
123.300003	1
124.099998	1
124.549999	1
125.249998	2
125.706247	5
127.054310	269
128.048738	299
129.052836	195
131.094848	372
133.083593	522
133.899994	1
134.250000	1
135.075005	1
135.300003	1
136.600006	1
136.800003	1
137.100006	1
137.899994	1
138.199997	1
139.008107	21
141.098228	262
142.107500	23
144.039682	511
145.833333	2
146.954836	9
148.000000	1
148.899994	1
149.250000	1
149.500000	1
149.799995	1
150.250000	2
152.062093	89
153.082892	143
154.057576	38
155.047100	85
157.071736	512
159.093518	125
160.000000	1
160.199997	1
160.399994	1
160.699997	1
160.899994	1
161.199997	1
161.399994	1
161.699997	1
162.100006	1
162.500000	1
162.699997	1
163.100006	1
165.056451	180
166.007405	16
167.027723	59
169.053364	60
170.082813	37
170.963580	47
172.007693	8
172.366669	2
172.899994	2
173.500000	1
174.600006	1
175.125004	1
175.500000	1
175.929999	6
178.152159	81
179.109195	76
181.022102	160
182.134921	110
183.086785	81
184.006670	9
185.116666	10
185.899994	1
186.500000	1
186.924995	1
188.100006	1
189.300003	2
189.600006	1
190.000000	1
190.857141	4
191.231249	5
191.800003	1
192.399999	2
192.990907	6
193.399994	3
194.050769	19
195.111110	37
196.100006	8
197.111819	32
198.133331	7
198.899994	1
199.100006	1
199.799998	1
200.100006	1
200.500000	1
201.500000	1
202.250000	1
202.799998	1
204.000000	1
204.300003	1
204.600006	1
205.066671	2
205.300003	1
205.500000	1
206.800003	2
207.000000	2
208.106249	5
208.699997	2
209.025002	7
209.800003	2
210.000000	1
210.300003	2
211.030000	6
211.800003	1
212.100006	1
212.300003	1
212.857141	4
213.121433	4
213.750000	2
214.199997	1
214.399994	1
215.160004	3
216.399994	1
216.600006	1
217.100006	1
219.000000	1
220.399994	1
221.100006	1
221.449997	1
222.199997	1
222.600006	1
222.800003	1
223.253333	4
224.000000	1
224.300003	1
224.800003	1
225.100006	1
225.399994	2
225.699997	1
226.000000	2
226.349998	2
227.100006	1
227.500000	1
227.800003	1
228.474998	1
233.699997	1
236.399994	1
236.699997	1
237.000000	1
237.300003	1
237.600006	1
238.199997	1
239.000000	1
239.199997	1
239.800003	1
240.300003	1
240.949997	1
241.199997	1
241.399994	1
242.000000	2
242.199997	1
242.449997	2
243.300003	1
249.800003	1
250.100006	1
250.399994	1
251.899994	1
252.199997	1
253.300003	1
253.600006	1
254.000000	1
254.699997	1
255.100006	1
255.550003	1
271.100006	1
271.299988	1
288.799988	1
