Mass spectrum: 1,4-Androstadiene-3,17-dione; LC-APPI-QQ; MS2; CE:60 V; [M-H2O+H]+
Name: 1,4-Androstadiene-3,17-dione
Class: Natural Product; Anabolic Steroid
Formula: C19H24O2
Exact mass: 284.17763
SMILES: O=C(C=4)C=C(C3)C(C)(C4)C([H])(C2)C([H])(C3)C([H])(C1)C(C)(C2)C(=O)C1
InChI: InChI=1S/C19H24O2/c1-18-9-7-13(20)11-12(18)3-4-14-15-5-6-17(21)19(15,2)10-8-16(14)18/h7,9,11,14-16H,3-6,8,10H2,1-2H3/t14-,15-,16-,18-,19-/m0/s1
Instrument: API2000
Instrument type: LC-APPI-QQ
Ms type: MS2
Ion mode: POSITIVE
Retention time: 0.820850 min
Base peak: 128.100006
Precursor m/z: 267.300000
Precursor type: [M-H2O+H]+
m/z	relative intensity
37.400002	1
39.069565	2
39.700001	1
41.126827	29
43.061957	25
44.199999	1
45.084615	1
47.400002	1
49.400002	1
49.700001	1
51.164473	3
53.101166	12
53.926472	1
55.089907	90
56.175000	1
57.016666	1
57.400002	1
58.799999	1
60.799999	1
61.000000	1
61.850000	1
62.099998	1
65.105810	87
67.108358	190
69.053175	25
70.400002	1
70.900002	1
71.099998	1
71.300003	1
71.699997	1
72.199997	1
73.350002	1
73.740001	1
74.800003	1
77.057205	407
79.035910	499
81.104012	154
82.400002	1
83.191667	1
84.000000	1
84.400002	1
85.199997	1
86.099998	1
86.699997	1
86.950001	1
87.224998	1
91.061621	999
93.101766	144
95.044373	58
96.400002	1
97.199997	1
97.400002	1
98.699997	1
98.950001	1
99.599998	1
99.850002	1
100.881252	1
101.268420	1
103.081028	55
105.062122	242
107.034223	128
109.059809	7
110.800003	1
111.099998	1
111.599998	1
111.850002	1
112.149998	1
112.425001	1
115.078870	271
116.141086	74
117.099730	100
119.080576	128
121.079042	108
122.699997	1
123.000000	1
123.199997	1
123.549999	1
123.900002	1
124.199997	1
124.400002	1
128.087774	715
129.094040	175
130.139496	88
131.127728	101
132.135942	146
134.142857	1
135.192502	3
136.399994	1
136.800003	1
137.050003	1
137.500000	1
137.979999	1
139.066303	6
141.127450	143
142.106894	52
143.119836	94
144.080636	120
145.089051	115
147.118176	107
148.300003	1
148.699997	1
149.233332	1
152.115678	79
153.122484	108
155.091216	99
158.111189	187
159.113501	59
160.993752	2
161.399994	1
161.600006	1
162.050003	1
165.117909	72
167.156642	36
168.146595	37
169.092797	63
171.060145	148
173.164159	30
174.100006	1
175.250000	1
178.184412	124
179.160297	63
181.100856	157
182.186876	51
183.137581	36
184.135484	14
185.157547	7
186.100006	1
186.500000	1
187.199997	1
187.416662	1
189.066918	9
191.135952	25
192.183898	16
193.204228	21
195.151766	82
196.153154	57
197.164912	36
199.151112	2
199.899994	1
200.100006	1
200.750000	1
201.199997	1
201.399994	1
202.132855	2
203.042501	3
204.146668	3
205.123039	7
207.115322	8
208.191707	14
209.170854	20
211.180232	23
213.300003	1
213.500000	1
214.100006	1
214.949997	1
215.199997	1
215.500000	1
215.800003	1
216.300003	1
217.146155	1
218.264287	1
219.231251	2
220.033335	1
220.300003	1
221.188236	2
222.164104	3
223.168033	8
224.318183	1
225.230952	3
226.000000	1
226.474998	1
227.300003	1
228.899994	1
229.300003	1
230.699997	1
231.050003	1
231.600006	1
232.000000	1
232.349998	1
233.216665	1
233.800003	1
234.100006	1
234.600006	1
235.206668	1
236.199997	1
236.449997	1
237.177612	4
238.100001	1
238.800003	1
239.335293	1
243.100006	1
245.100006	1
246.899994	1
247.150002	1
248.800003	1
249.000000	1
249.300003	1
249.550003	1
249.899994	1
250.100006	1
250.399999	1
250.825001	1
251.210002	1
251.899997	1
252.450005	1
263.500000	1
265.399994	1
266.100006	1
266.899994	1
267.200012	1
267.500000	1
355.200012	1
