Mass spectrum: 24-Ethylcoprostanol; LC-APPI-QQ; MS2; CE:30 V; [M-H2O+H]+
Name: 24-Ethylcoprostanol
Class: Natural Product; Sterol
Formula: C29H52O
Exact mass: 416.40182
SMILES: C(C34[H])(CCC(O)C4)(C([H])(C([H])2CC3)CCC(C([H])12)(C)C(CC1)([H])C(CCC(C(C)C)CC)C)C
InChI: InChI=1S/C29H52O/c1-7-21(19(2)3)9-8-20(4)25-12-13-26-24-11-10-22-18-23(30)14-16-28(22,5)27(24)15-17-29(25,26)6/h19-27,30H,7-18H2,1-6H3/t20-,21+,22-,23+,24+,25-,26+,27+,28+,29-/m1/s1
Instrument: API2000
Instrument type: LC-APPI-QQ
Ms type: MS2
Ion mode: POSITIVE
Retention time: 0.820867 min
Base peak: 399.500000
Precursor m/z: 399.500000
Precursor type: [M-H2O+H]+
m/z	relative intensity
40.549999	1
40.850000	1
41.200001	2
42.200001	1
43.199999	5
43.900002	2
45.084314	104
52.900002	1
54.099998	1
54.539999	3
55.006667	15
55.700001	2
57.052054	74
58.900002	1
64.599998	1
64.900002	1
65.300003	1
66.500000	3
67.131579	19
68.033333	3
69.052174	94
70.000000	2
70.475000	6
71.133334	92
72.099998	1
72.900002	1
76.699997	1
77.000000	2
78.099998	1
78.400002	1
78.900002	5
79.145453	6
81.088768	327
83.107100	172
84.464286	7
85.013207	54
86.199997	1
88.699997	1
88.950001	1
89.300003	3
90.400002	1
90.599998	2
92.000000	1
92.375002	4
93.046364	56
95.037748	539
95.970000	5
96.300003	6
97.087713	149
98.400002	1
99.050000	22
99.800003	1
100.049999	2
101.086364	67
101.699997	1
102.149998	1
103.699997	1
104.971429	7
105.350002	2
105.800003	1
106.099998	2
107.096250	82
107.800003	4
108.000000	7
109.055580	484
111.071831	145
111.900002	1
112.199999	2
112.800003	2
113.099998	2
113.699997	1
114.800003	1
115.000000	1
116.800003	1
117.149998	1
118.099998	1
118.400002	1
119.157140	7
119.737499	4
121.102500	285
123.059348	360
125.169422	62
126.199997	1
126.599998	1
127.233335	3
128.899994	1
130.300003	1
130.600006	1
130.899994	1
131.250000	1
131.500000	1
131.800003	1
132.399994	1
133.180000	20
135.082206	347
135.929996	5
137.195556	183
137.800003	1
138.500000	2
139.022224	14
140.300003	1
140.600006	1
140.899994	1
141.199997	2
141.699997	1
142.100006	1
142.300003	2
142.873683	19
144.600006	1
144.800003	1
145.224998	2
145.600006	1
145.874996	2
146.250000	2
147.073331	31
149.116891	380
150.239999	5
151.072726	90
152.399994	1
153.100000	5
154.300003	1
155.199997	1
159.000000	2
159.199997	2
159.399994	1
159.699997	1
160.100006	1
161.112499	41
161.800003	4
163.145981	317
163.800003	1
165.343420	39
166.000000	1
166.699997	1
167.000000	1
167.399994	1
167.699997	1
168.849998	1
169.899994	1
171.100006	1
172.899994	1
173.250000	2
173.699997	1
174.050003	2
174.300003	1
175.113725	52
175.899994	1
176.100006	3
176.300003	3
177.217989	167
178.100006	1
179.199997	14
180.000000	1
180.699997	1
181.100006	1
181.300003	1
184.899994	1
185.600006	1
186.699997	1
187.160004	3
187.800003	1
188.100006	1
189.169230	199
189.899994	1
190.399994	1
191.122730	45
192.000000	1
192.399994	1
193.144444	14
193.399994	10
194.899994	1
195.300003	1
196.399994	1
196.699997	1
197.100006	1
198.000000	1
198.199997	2
199.057361	100
199.899994	1
201.199997	1
201.650002	1
201.899994	2
202.600006	6
203.204050	126
203.899994	2
204.100006	1
204.399994	2
204.600006	3
205.276468	35
206.450001	2
207.380949	21
209.000000	1
209.300003	1
210.199997	1
212.899994	1
213.399994	1
214.988235	9
215.424995	4
216.022223	9
217.230666	76
218.199997	1
218.399994	1
218.600006	1
219.231580	19
220.250000	1
221.235899	40
222.300003	2
225.075005	2
227.000000	1
227.500000	1
228.899994	1
229.500000	1
230.166667	3
231.179011	83
232.224998	2
232.628573	4
233.163042	23
234.399994	2
235.243878	100
236.899994	1
240.899994	1
241.100006	1
241.399994	2
241.600006	1
242.300003	1
242.600006	1
243.000000	3
243.600006	1
244.399999	2
245.483332	24
246.349998	1
247.314282	14
248.000000	1
248.199997	1
248.500000	1
249.507408	14
254.800003	1
255.399994	1
257.200012	2
257.525002	2
257.799988	1
258.000000	1
259.121546	33
260.500000	2
261.262497	16
262.600006	1
263.428567	7
267.100006	1
270.799988	1
271.399994	1
272.100006	1
272.600006	1
273.200005	17
273.605562	18
274.100006	1
274.299988	1
274.500000	1
274.700012	1
275.199999	25
275.665395	13
276.000000	1
276.399994	2
276.700012	2
276.899994	2
277.100006	3
277.412495	4
277.700012	1
279.500000	1
282.899994	1
284.899994	1
286.100006	1
286.449997	1
287.100006	19
288.250000	3
289.382606	35
290.700012	1
291.299988	2
291.500000	1
291.750000	1
293.200012	1
293.399994	1
298.600006	1
299.005000	10
300.250000	1
301.399994	14
301.614293	7
302.500000	1
303.359999	36
304.299988	1
305.500000	2
311.399994	1
313.550003	1
314.299988	1
315.140009	5
315.442854	7
316.250000	2
316.934996	10
317.216675	6
317.637508	8
318.200012	1
327.000000	1
327.399994	1
329.474998	8
329.774994	4
330.600006	1
331.371427	7
331.725006	2
332.100006	1
339.799988	1
341.500000	1
342.000000	1
342.250000	1
342.799998	2
343.416664	6
344.200012	1
347.500000	1
354.600006	1
356.250000	1
356.550003	1
357.399994	3
370.200012	1
370.449997	1
371.200012	1
371.600006	1
374.600006	1
380.100006	1
380.799988	1
381.050003	1
381.299988	5
381.733337	3
382.000000	1
383.399994	1
384.500000	5
396.600006	1
398.399994	2
399.433980	999
400.700012	1
