Mass spectrum: 102FTA; LC-ESI-QQ; MS2; CE50; [M-H]-
Name: 102FTA
Name: 102Fluorotelomer Acid
Name: 3,3,4,4,5,5,6,6,7,7,8,8,9,9,10,10,11,11,12,12,12-Heneicosafluorododecanoic acid
Class: Non-Natural Product
Formula: C12H3F21O2
Exact mass: 577.97977
SMILES: OC(=O)CC(F)(F)C(F)(F)C(F)(F)C(F)(F)C(F)(F)C(F)(F)C(F)(F)C(F)(F)C(F)(F)C(F)(F)F
InChI: InChI=1S/C12H3F21O2/c13-3(14,1-2(34)35)4(15,16)5(17,18)6(19,20)7(21,22)8(23,24)9(25,26)10(27,28)11(29,30)12(31,32)33/h1H2,(H,34,35)
Instrument: Xevo TQ MS (Waters)
Instrument type: LC-ESI-QQ
Ms type: MS2
Ion mode: NEGATIVE
Collision energy: 50
Retention time: 0.016833
Base peak: 305.399078
Precursor m/z: 577
Precursor type: [M-H]-
m/z	relative intensity
62.846260	454
68.960320	174
92.982376	277
118.969833	464
141.050415	251
143.132126	236
147.131058	208
147.398499	82
168.775558	181
170.670761	207
180.688416	109
192.860062	485
205.024979	134
218.797089	92
243.016724	999
245.114258	298
246.813217	240
292.711212	417
305.060944	230
305.393219	360
337.630219	80
342.724609	221
355.118866	156
442.858459	337
457.836914	85
488.180634	88
492.565277	111
493.062775	362
506.442413	81
533.491943	80
564.541687	73
