Mass spectrum: Androsterone; LC-APPI-QQ; MS2; CE:40 V; [M-H2O+H]+
Name: Androsterone
Class: Natural Product; Steroid hormone
Formula: C19H30O2
Exact mass: 290.22458
SMILES: OC(C4)CC([H])(C3)C(C)(C4)C(C2)C(C3)C(C1)C(C)(C2)C(=O)C1
InChI: InChI=1S/C19H30O2/c1-18-9-7-13(20)11-12(18)3-4-14-15-5-6-17(21)19(15,2)10-8-16(14)18/h12-16,20H,3-11H2,1-2H3/t12-,13+,14?,15?,16?,18?,19?/m0/s1
Instrument: API2000
Instrument type: LC-APPI-QQ
Ms type: MS2
Ion mode: POSITIVE
Retention time: 0.820867 min
Base peak: 147.000000
Precursor m/z: 273.300000
Precursor type: [M-H2O+H]+
m/z	relative intensity
38.200001	1
39.099998	1
39.400002	1
39.599998	1
40.433334	1
41.285714	2
43.065079	15
43.799999	1
45.074999	1
45.450001	1
50.400002	1
51.083332	1
51.400002	1
51.900002	1
52.299999	1
52.966667	1
53.245455	1
55.087773	84
57.055262	5
57.799999	1
58.200001	1
58.500000	1
58.799999	1
61.299999	1
63.599998	1
64.250000	1
64.583332	1
65.129165	3
67.120408	203
69.121024	69
70.000000	1
71.300003	3
73.000000	1
73.199997	1
75.000000	1
75.500000	1
77.057017	69
79.055346	479
81.106242	543
83.112852	78
83.950001	1
84.300003	1
85.000000	2
85.300003	1
85.699997	1
87.400002	1
88.400002	1
91.056906	507
93.099779	663
95.045249	313
97.045923	28
97.850002	1
98.099998	1
98.400002	1
99.100000	2
99.500000	1
100.450001	1
100.900002	1
101.099998	1
101.500000	1
102.049999	1
105.055098	999
107.042163	542
109.105652	155
110.562499	1
111.203843	3
112.099998	1
113.099998	1
113.699997	1
115.089188	9
117.109177	141
119.064792	457
121.136019	154
122.199997	1
123.038492	31
124.074999	1
125.000000	1
125.800003	1
126.250000	1
127.268889	5
129.095225	87
131.136210	295
133.127426	219
135.136710	147
136.000000	1
136.199997	1
137.161292	8
137.949997	1
138.750000	1
139.250000	1
139.699997	1
140.050003	1
140.300003	1
143.090120	183
145.100749	586
147.156484	710
149.161429	60
150.300003	1
150.600006	1
151.092592	3
152.050003	1
152.800003	1
153.299998	1
154.000000	1
155.125410	15
157.151715	192
159.144703	439
161.134267	670
162.000000	1
163.189506	20
164.500000	1
165.084615	3
166.050003	1
166.449997	1
166.899994	1
167.100006	1
167.450005	1
168.240002	1
169.125424	14
171.129942	127
173.179827	295
173.899994	1
174.500000	2
175.150000	32
175.899994	1
177.283334	3
177.750000	1
178.300003	1
179.000000	1
179.399994	1
179.800003	1
180.100006	1
181.150002	1
181.533330	1
181.899994	1
182.189998	1
183.179999	13
185.166267	183
186.172998	12
187.164822	68
188.000000	1
189.201786	14
190.100006	1
190.399994	1
191.344442	2
192.100006	1
192.899994	1
193.150002	1
193.949997	1
194.600006	1
195.000000	1
195.374996	1
196.199997	1
197.215650	14
199.213117	338
200.189848	24
201.168854	15
202.062588	17
202.968748	2
204.699997	1
205.000000	1
205.399994	1
206.000000	1
207.199997	1
207.800003	1
209.150002	1
210.000000	1
211.158620	14
213.263825	106
215.218248	33
215.981252	2
216.500000	1
217.169865	9
218.349998	1
219.500000	1
220.600006	1
220.800003	1
221.100006	1
223.399994	1
223.800003	1
225.075680	5
225.355222	8
226.143480	11
227.242574	25
228.364286	2
228.962498	2
229.260000	3
230.042104	5
230.409995	1
231.000000	1
231.300003	1
237.399994	1
238.199997	1
238.399994	1
238.800003	1
239.071431	1
239.399994	1
239.699997	1
240.284166	15
241.100006	1
241.800003	1
242.100006	1
242.399999	1
243.100006	1
243.699997	1
244.118182	1
244.600006	1
245.183332	6
246.000000	1
251.100006	1
252.000000	1
252.399994	1
252.949997	2
253.299999	3
254.500000	1
255.348790	206
256.299988	1
256.600006	1
257.200012	1
258.200001	3
258.700012	1
270.700012	1
271.100006	1
271.399994	1
271.899994	1
272.100006	1
272.299988	1
272.600006	1
273.225896	14
288.500000	1
