Mass spectrum: Dihydrotestosterone; LC-APPI-QQ; MS
Name: Dihydrotestosterone
Class: Natural Product; Steroid hormone
Formula: C19H30O2
Exact mass: 290.22458
SMILES: O=C(C4)CC([H])(C3)C(C)(C4)C(C2)C(C3)C(C1)C(C)(C2)C(O)C1
InChI: InChI=1S/C19H30O2/c1-18-9-7-13(20)11-12(18)3-4-14-15-5-6-17(21)19(15,2)10-8-16(14)18/h12,14-17,21H,3-11H2,1-2H3/t12-,14?,15?,16?,17-,18?,19?/m0/s1
Instrument: API2000
Instrument type: LC-APPI-QQ
Ms type: MS
Ion mode: POSITIVE
Retention time: 0.821067 min
Base peak: 305.299988
Ion type: [M+CH3]+
m/z	relative intensity
201.142732	108
202.099494	28
203.142203	69
205.121677	40
206.117187	13
207.134146	46
209.145853	123
211.159443	148
213.138451	141
214.166581	56
215.153362	114
216.158342	24
217.152011	42
219.136905	37
221.126120	65
223.139944	83
225.176145	109
227.189060	115
228.170133	34
229.177529	76
230.203504	27
231.160601	98
233.137712	54
235.120612	60
237.146524	222
238.124157	59
239.165604	74
240.206143	19
241.226526	63
243.220274	77
245.183830	61
247.156603	74
249.123963	82
250.090789	25
251.157624	55
253.198408	73
255.211464	330
257.177459	108
259.186750	98
261.164546	111
263.159583	130
265.152013	81
267.183812	106
269.209757	145
271.232195	326
273.284864	260
275.190228	70
277.179340	72
279.170596	116
281.205446	46
283.213390	83
285.249740	176
287.278905	420
289.299496	142
291.317215	241
293.212753	33
295.200843	23
297.221718	28
299.219371	42
301.270177	60
303.329835	139
305.391317	999
309.227402	20
311.249645	19
313.239229	25
315.275978	37
317.239651	26
319.272467	25
320.272883	10
321.285924	22
323.263176	18
325.191785	14
326.221743	6
327.199405	14
328.199361	6
329.198673	15
331.194501	15
333.220667	19
335.241142	16
337.255448	18
338.232293	8
339.235367	15
341.211759	11
343.240610	10
345.221108	11
347.255359	16
349.275811	17
351.324687	33
353.255698	16
355.245812	14
357.274799	10
358.227355	5
359.234005	10
361.240019	13
363.241836	15
364.265755	5
365.277410	14
367.285352	11
369.326996	13
371.314083	13
373.336464	11
375.303337	15
377.308143	20
379.325916	11
380.312796	5
381.298134	9
383.314001	8
385.365501	6
387.324955	7
389.331655	7
391.378576	18
393.329400	9
394.335852	3
395.334532	8
397.295283	6
399.330744	7
