Mass spectrum: Dihydrotestosterone; LC-APPI-QQ; MS2; CE:50 V; [M+CH3]+
Name: Dihydrotestosterone
Class: Natural Product; Steroid hormone
Formula: C19H30O2
Exact mass: 290.22458
SMILES: O=C(C4)CC([H])(C3)C(C)(C4)C(C2)C(C3)C(C1)C(C)(C2)C(O)C1
InChI: InChI=1S/C19H30O2/c1-18-9-7-13(20)11-12(18)3-4-14-15-5-6-17(21)19(15,2)10-8-16(14)18/h12,14-17,21H,3-11H2,1-2H3/t12-,14?,15?,16?,17-,18?,19?/m0/s1
Instrument: API2000
Instrument type: LC-APPI-QQ
Ms type: MS2
Ion mode: POSITIVE
Retention time: 0.820900 min
Base peak: 81.199997
Precursor m/z: 305.400000
Precursor type: [M+CH3]+
m/z	relative intensity
39.000000	1
39.200001	1
40.200001	1
40.400002	1
41.142105	9
41.700001	1
42.000000	1
43.035555	21
44.049999	1
44.299999	1
44.650000	1
45.050000	8
50.099998	1
51.000000	1
51.799999	1
52.150000	1
52.700001	2
52.900002	1
53.200001	3
55.118480	316
57.025715	16
58.099998	1
59.135714	13
62.700001	1
63.099998	1
63.900002	1
64.599998	1
65.220001	5
67.122417	214
68.000000	2
69.075141	83
69.900002	1
71.103334	57
71.699997	1
72.149998	1
72.450001	1
72.699997	1
72.900002	2
73.228571	3
74.900002	1
75.400002	1
75.800003	1
77.072789	69
79.055252	552
81.131415	999
83.150667	71
85.102140	925
86.300003	1
86.500000	1
87.699997	1
89.599998	4
89.900002	2
91.080783	397
93.102939	513
95.059546	415
96.500000	4
97.079797	47
98.300003	1
98.966667	3
99.800003	1
101.300003	1
102.000000	1
102.300003	1
103.105263	18
105.061185	779
107.053439	356
108.000000	3
109.107432	139
110.000000	1
110.300003	1
110.512500	4
111.025926	25
112.000000	1
112.199997	1
112.599998	1
112.800003	1
113.300002	5
113.699997	1
114.099998	1
114.300003	1
114.599998	3
114.985715	13
115.400002	6
117.081176	160
119.084152	297
121.096838	119
121.800003	1
122.940910	10
123.207140	7
123.950001	1
124.199997	1
124.699997	1
124.950001	1
125.199997	1
125.599998	1
126.599998	1
127.089473	9
128.175532	44
129.100001	76
131.173695	253
133.122704	174
133.899994	2
135.144938	74
136.199997	1
136.500000	1
137.041669	6
137.300003	3
137.800003	1
138.150002	1
138.399994	1
138.600006	1
138.899994	1
139.300003	1
139.500000	1
140.000000	1
140.199997	1
141.060004	9
141.469998	5
143.098955	90
145.139398	329
145.949997	7
147.215726	117
148.199997	1
149.057893	18
149.899994	1
150.199997	1
150.949997	3
151.500000	1
152.000000	1
152.199997	1
152.600006	1
152.959998	2
153.349998	1
154.100006	1
155.095998	24
157.184426	115
159.142856	218
160.100003	5
160.399994	5
161.178261	65
162.100006	1
162.600006	1
163.100000	6
164.300003	1
164.600001	1
165.100006	2
165.600006	1
165.849998	1
166.399994	1
166.800003	1
167.100006	1
167.399994	1
167.899994	2
168.699997	2
169.186663	14
169.954544	5
170.199997	3
171.126397	93
171.966667	6
173.261251	113
174.125004	2
175.399994	5
176.600006	1
176.800003	1
177.125000	4
177.500000	1
177.699997	1
178.000000	1
178.199997	2
178.699997	1
179.000000	1
179.399994	2
180.500000	1
180.800003	1
181.000000	1
181.300003	1
181.849998	1
182.199997	1
182.500000	1
183.108698	11
184.221054	18
185.201291	73
186.188889	8
187.178789	31
189.300003	8
190.275002	2
190.800003	1
191.000000	1
191.371427	3
192.800003	1
193.100006	1
194.199997	1
194.800003	1
195.000000	1
195.224998	2
195.899999	1
196.300003	1
197.239998	9
199.184456	91
200.104001	12
201.029168	11
201.506250	8
201.800003	1
202.100006	1
202.360001	2
203.025002	2
203.300003	1
203.600006	1
204.800003	1
205.199997	1
205.399994	1
205.699997	1
206.000000	1
206.600006	1
207.250000	1
209.000000	1
209.449997	1
210.100006	1
210.500000	1
211.174999	8
211.899994	1
213.251613	29
214.500004	4
215.288888	25
216.100006	1
216.399994	1
216.974998	2
217.399994	1
217.800003	1
218.000000	1
218.300003	2
218.899999	1
219.199997	1
219.399994	1
219.600006	1
220.800003	1
221.600006	1
222.199997	1
223.100006	1
223.300003	1
225.483332	3
226.349998	3
227.300003	4
228.949997	1
229.399994	3
230.100006	1
230.500000	1
230.849998	2
231.100006	2
232.200002	1
232.924995	2
233.500000	1
234.000000	1
234.449997	1
236.300003	1
238.849998	1
239.300003	1
239.600006	1
240.100006	2
240.300003	1
241.500000	1
241.899994	1
242.199997	1
242.399994	1
242.650002	1
243.300003	2
243.600006	1
244.199997	1
244.399994	1
244.600006	1
245.174999	2
245.399994	1
245.899994	1
247.000000	1
247.300003	2
247.500000	1
248.899994	1
249.699997	1
252.699997	1
254.000000	1
254.349998	1
255.323809	20
257.200012	1
259.000000	1
259.299988	1
260.899994	1
261.899994	1
262.200012	1
269.100006	1
270.949997	1
272.200012	1
272.899994	1
273.299988	1
273.899994	1
274.799988	1
275.799988	1
276.000000	1
276.349991	2
277.100006	1
277.349991	1
289.299988	1
302.299988	1
305.100006	1
305.600006	1
