Mass spectrum: Cholesterol; LC-APPI-QQ; MS2; CE:20 V; [M-H2O+H]+
Name: Cholesterol
Class: Natural Product; Sterol
Formula: C27H46O
Exact mass: 386.35487
SMILES: CC(C4)(C(CC(O)C4)=3)C(C2)C(CC3)C(C1)C(C)(C2)C(C(C)CCCC(C)C)C1
InChI: InChI=1S/C27H46O/c1-18(2)7-6-8-19(3)23-11-12-24-22-10-9-20-17-21(28)13-15-26(20,4)25(22)14-16-27(23,24)5/h9,18-19,21-25,28H,6-8,10-17H2,1-5H3/t19?,21-,22?,23?,24?,25?,26?,27?/m0/s1
Instrument: API2000, Applied
Instrument type: LC-APPI-QQ
Ms type: MS2
Ion mode: POSITIVE
Retention time: 0.820833 min
Base peak: 369.299988
Precursor m/z: 369.420000
Precursor type: [M-H2O+H]+
m/z	relative intensity
39.000000	1
40.099998	1
40.799999	1
41.200001	1
42.933334	1
43.350000	1
50.700001	1
51.000000	1
52.599998	1
53.100000	1
54.099998	1
54.400002	1
54.887501	1
55.099998	1
55.500000	1
55.900002	1
57.041667	2
57.700001	1
61.500000	1
65.000000	1
65.199997	1
65.500000	1
65.800003	1
66.587499	1
66.892859	1
67.849998	1
68.500000	1
69.139759	2
70.000000	1
71.136904	4
71.900002	1
72.199997	1
76.199997	1
76.800003	1
77.099998	1
78.000000	1
79.099998	1
79.700001	1
81.083334	10
82.099998	1
83.088612	6
85.051145	3
86.000000	1
87.199997	1
90.099998	1
90.300003	1
91.020000	1
91.900002	1
93.062963	4
95.050758	17
96.000000	1
97.105752	10
97.900002	1
98.099998	1
99.006667	1
99.800003	1
102.599998	1
103.099998	1
103.650000	1
104.996667	4
106.970284	5
109.077126	22
111.053876	12
112.400002	1
113.041666	1
113.800003	1
114.400002	1
116.099998	1
116.599998	1
116.900002	1
118.099998	1
119.067347	2
120.116665	1
121.062939	13
123.050505	13
123.942858	1
125.069893	8
125.900002	1
126.300003	1
127.178571	1
127.800003	1
129.000000	1
129.250000	1
129.800003	1
130.699997	1
131.100006	1
131.800003	1
133.039345	8
135.036957	44
137.062143	6
138.000000	1
138.325001	1
139.050962	2
140.300003	1
140.550003	1
141.050003	1
142.500000	1
143.050003	1
143.600006	1
144.050003	1
144.795238	1
145.386488	2
147.086921	51
149.051803	23
149.800003	1
150.230769	1
151.108696	8
152.100006	1
152.399994	1
153.125925	1
154.199997	1
154.799998	1
155.100006	1
156.300003	1
156.800003	1
157.100006	1
157.600006	1
158.000000	1
159.070887	3
161.077728	78
163.086364	9
165.097711	10
166.300003	1
166.500000	1
166.699997	1
167.300003	1
168.899994	1
169.100006	1
170.199997	1
170.399994	1
170.699997	1
171.300000	1
171.699997	1
173.216131	1
175.114576	24
176.300003	1
177.136065	5
177.924995	1
179.123690	11
180.050003	1
180.300003	1
180.500000	1
180.699997	1
181.000000	1
181.449997	1
183.150002	1
183.899994	1
185.000000	1
185.300003	1
185.899994	1
187.159997	3
189.137807	23
191.105102	4
191.899994	1
193.169191	8
194.000000	1
195.349998	1
198.000000	1
198.600006	1
199.033335	1
199.300003	1
199.500000	1
200.012499	1
201.119185	9
201.966665	1
203.150001	20
205.126830	9
206.000000	1
207.046053	3
208.199997	1
208.699997	1
209.600006	1
211.399994	1
213.040002	1
213.359998	1
215.126383	24
217.115870	10
219.152333	13
220.366664	1
221.203175	3
223.500000	1
224.000000	1
225.100006	1
226.800003	1
227.000000	1
227.299997	1
228.066671	1
229.149733	12
231.180283	3
231.849998	1
233.167621	28
234.300003	1
235.136956	4
238.100006	1
238.399994	1
240.399994	1
241.146667	2
243.197114	30
244.000000	1
245.207961	7
247.235112	16
248.457144	1
249.100006	1
249.386665	1
249.724998	1
250.300003	1
250.600006	1
251.100006	1
251.600006	1
253.699997	1
253.899994	1
254.300003	1
255.147725	1
256.212503	1
257.241948	23
259.241667	27
260.200012	1
261.255446	4
262.799988	1
263.200012	1
269.050003	1
269.449997	1
270.200012	1
270.500000	1
271.274579	3
272.200012	1
272.424995	1
273.272883	14
274.500000	1
275.226664	1
276.200012	1
276.700012	1
278.700012	1
279.299988	1
282.100006	1
282.500000	1
282.799988	1
283.100006	1
283.299988	1
283.799988	1
284.000000	1
284.299988	1
285.173868	4
286.500000	1
287.268202	24
288.299988	1
288.500000	1
289.439996	1
289.700012	1
290.299988	1
290.700012	1
291.100006	1
291.349991	1
297.100006	1
297.899994	1
298.125008	1
299.203173	3
300.100006	1
300.449997	1
301.270585	1
303.299988	1
309.449997	1
311.500000	1
312.000000	1
313.311848	6
314.650009	1
315.000000	1
315.299988	1
322.399994	1
325.200012	1
326.299988	1
327.366666	1
328.500000	1
337.299988	1
339.924995	1
340.533335	1
341.299992	1
351.500000	1
351.799988	1
354.372220	1
355.100006	1
359.200012	1
365.799988	1
366.500000	1
367.299988	1
369.372568	999
370.849991	1
371.849991	1
