Mass spectrum: Brassicasterol; LC-APPI-QQ; MS2; CE:10 V; [M-H2O+H]+
Name: Brassicasterol
Class: Natural Product; Sterol
Formula: C28H46O
Exact mass: 398.35487
SMILES: C(C(C=CC(C)C(C4)C(C3C4)(C)CCC(C13)C(C2)(C(CC(C2)O)=CC1)C)C)(C)C
InChI: InChI=1S/C28H46O/c1-18(2)19(3)7-8-20(4)24-11-12-25-23-10-9-21-17-22(29)13-15-27(21,5)26(23)14-16-28(24,25)6/h7-9,18-20,22-26,29H,10-17H2,1-6H3/b8-7+/t19?,20?,22-,23?,24?,25?,26?,27?,28?/m0/s1
Instrument: API2000
Instrument type: LC-APPI-QQ
Ms type: MS2
Ion mode: POSITIVE
Retention time: 0.820833 min
Base peak: 381.500000
Precursor m/z: 381.400000
Precursor type: [M-H2O+H]+
m/z	relative intensity
56.599998	1
56.900002	1
57.350000	1
66.800003	1
67.300003	1
68.000000	1
68.199997	1
69.199997	1
69.400002	1
70.800003	1
78.800003	1
80.800003	1
81.199999	1
82.699997	1
83.000000	1
83.300003	1
84.500000	1
84.699997	1
85.099998	1
91.199997	1
92.800003	1
93.000000	1
94.300003	1
95.000000	1
95.283335	1
96.699997	1
97.275002	1
99.300003	1
104.450001	1
105.099998	1
106.966667	1
107.425001	1
108.500000	1
108.830003	1
109.387502	1
110.000000	1
110.199997	1
110.599998	1
111.199997	1
113.000000	1
118.599998	1
118.800003	1
119.350002	1
120.500000	1
120.900002	1
121.099998	1
121.300003	1
122.500000	1
122.833336	1
123.400002	1
124.000000	1
124.199997	1
125.152565	1
126.800003	1
130.000000	1
130.699997	1
131.299998	1
132.500000	1
132.800003	1
133.025002	1
133.300003	1
133.500000	1
134.100006	1
134.855554	1
135.255554	1
135.899994	1
136.800003	1
137.060001	1
137.500000	1
138.500000	1
139.199997	1
139.399994	1
143.100006	1
144.733332	1
145.000000	1
145.300003	1
146.300003	1
146.500000	1
147.065517	1
148.300003	1
148.985713	1
150.700002	1
151.133336	1
152.899994	1
153.199997	1
153.500000	1
156.399994	1
156.899994	1
157.399994	1
158.399994	1
158.962498	1
159.800003	1
160.300003	1
161.081397	1
162.100006	1
162.909088	1
163.399994	1
163.800003	1
164.857141	1
165.180003	1
169.100006	1
169.300003	1
171.100006	1
172.150002	1
173.009524	1
173.410526	1
173.800003	1
174.300003	1
174.800003	1
175.066668	1
176.399994	1
177.412495	1
178.899994	1
179.100006	1
179.300003	1
180.399994	1
184.399994	1
184.899994	1
185.100006	1
185.300003	1
185.600006	1
186.199997	1
186.924998	1
187.305553	1
189.245832	1
190.699997	1
191.112505	1
192.199997	1
192.983332	1
193.399994	1
197.199997	1
198.399994	1
198.800003	1
199.199997	1
199.600006	1
200.050003	1
201.104411	1
202.150002	1
203.068750	1
204.300003	1
204.500000	1
204.799997	1
205.100006	1
205.459998	1
206.899994	1
207.699997	1
209.300003	1
210.399994	1
213.262501	1
214.399994	1
215.213461	2
216.100006	1
216.399994	1
217.438092	1
218.600006	1
219.089475	1
220.800003	1
221.000000	1
221.500000	1
223.500000	1
225.399994	1
226.300003	1
227.158695	1
228.399994	1
229.178788	1
229.800003	1
230.199997	1
230.500000	1
231.253333	1
231.699997	1
232.500000	1
233.050003	1
233.391665	1
235.199997	1
240.199997	1
241.336363	1
243.354998	1
245.186843	1
245.600006	1
246.600006	1
247.333332	1
249.500000	1
252.500000	1
252.699997	1
252.899994	1
253.199997	1
253.600006	1
253.849998	1
254.100006	1
255.305142	5
257.421424	1
259.400004	1
260.000000	1
260.500000	1
261.225006	1
263.399994	1
266.799988	1
268.000000	1
268.399994	1
269.335997	1
271.284899	1
273.207153	1
275.100006	1
279.000000	1
279.299988	1
281.600006	1
283.151163	1
284.100006	1
284.600006	1
285.250822	1
287.000000	1
287.333323	1
295.050003	1
295.349991	1
295.700012	1
296.000000	1
296.200012	1
297.318149	8
298.200012	1
299.250001	1
300.899994	1
301.200012	1
301.500000	1
301.899994	1
309.399994	1
309.600006	1
310.250000	1
311.342224	4
312.200012	1
313.150009	1
313.600006	1
313.899994	1
315.000000	1
315.500000	1
319.299988	1
321.200012	1
323.000000	1
323.200012	1
323.799988	1
325.396549	1
328.000000	1
335.600006	1
337.700012	1
337.899994	1
338.500000	1
339.300000	1
339.899994	1
349.200012	1
349.399994	1
352.299988	1
352.700012	1
353.399994	1
363.200012	1
363.500000	1
365.600006	1
366.100006	1
366.349991	1
367.000000	1
377.000000	1
377.600006	1
377.799988	1
378.100006	1
378.299988	1
378.500000	1
378.700012	1
381.403514	999
