Mass spectrum: Coprostanone; LC-APPI-QQ; MS2; CE:10 V; [M-H2O+H]+
Name: Coprostanone
Class: Natural Product; Sterol
Formula: C27H46O
Exact mass: 386.35487
SMILES: C(C)(C1)(C(C(C)CCCC(C)C)4)C(CC4)C(C2)C(C(C)(C3)C([H])(CC(C3)=O)C2)C1
InChI: InChI=1S/C27H46O/c1-18(2)7-6-8-19(3)23-11-12-24-22-10-9-20-17-21(28)13-15-26(20,4)25(22)14-16-27(23,24)5/h18-20,22-25H,6-17H2,1-5H3/t19?,20-,22?,23?,24?,25?,26?,27?/m1/s1
Instrument: API2000, Applied
Instrument type: LC-APPI-QQ
Ms type: MS2
Ion mode: POSITIVE
Retention time: 0.820850 min
Base peak: 369.399994
Precursor m/z: 369.431000
Precursor type: [M-H2O+H]+
m/z	relative intensity
56.900002	1
66.850002	1
69.000000	1
70.800003	1
71.099998	1
71.400002	1
79.300003	1
79.500000	1
80.500000	1
81.099998	1
81.900002	1
83.099998	1
83.500000	1
85.049999	1
85.450001	1
91.199997	1
93.099998	1
93.599998	1
94.941177	1
95.599998	1
96.300003	1
96.500000	1
96.699997	1
97.150000	1
98.699997	1
99.300001	1
102.900002	1
104.699997	1
104.900002	1
105.099998	1
105.400002	1
106.400002	1
107.000000	1
107.300003	1
108.500000	1
109.000000	1
110.199997	1
110.916667	1
111.315386	1
113.300003	1
117.800003	1
118.800003	1
119.016666	1
119.900002	1
120.199997	1
121.300003	1
122.800003	1
123.000000	1
123.270001	1
123.599998	1
124.000000	1
124.987500	1
126.599998	1
126.800003	1
127.199997	1
127.400002	1
130.800003	1
131.199997	1
132.000000	1
133.000000	1
135.085716	2
136.199997	1
136.399994	1
136.783335	1
137.145458	1
138.399994	1
139.200002	1
141.349998	1
144.399994	1
144.899994	1
145.199997	1
147.130356	3
148.399994	1
149.171642	2
151.127777	1
152.150002	1
153.100006	1
153.399994	1
153.600006	1
158.775002	1
159.000000	1
159.500000	1
159.699997	1
160.199997	1
161.110679	5
162.300003	1
162.858331	1
163.219048	1
163.500000	1
164.100006	1
165.020000	1
166.800003	1
167.250000	1
171.399994	1
172.825002	1
173.428569	1
174.199997	1
175.180164	3
176.500000	1
176.899994	1
177.400001	1
179.255554	1
179.899994	1
180.800003	1
181.100006	1
181.300003	1
181.500000	1
185.500000	1
185.899994	1
186.777778	1
187.189998	1
187.466665	1
188.199997	1
189.179166	5
190.199997	1
191.299995	1
192.500000	1
193.000000	1
195.000000	1
195.600006	1
199.100006	1
199.300003	1
200.250000	1
201.103124	2
202.399994	1
203.173685	3
203.800003	1
204.100006	1
204.300003	1
205.160001	1
206.199997	1
206.728572	1
207.268749	1
208.699997	1
213.300003	1
214.399994	1
215.220224	2
215.800003	1
216.000000	1
216.500000	1
216.966667	1
217.358333	1
217.899994	1
218.300003	1
219.166668	2
219.800003	1
221.100006	1
221.330000	1
221.600006	1
223.399994	1
224.500000	1
228.100006	1
229.185858	3
230.887495	1
231.256250	1
231.899994	1
233.129410	2
234.399994	1
235.214286	1
235.600006	1
237.399994	1
240.300003	1
241.166672	1
241.500000	1
242.199997	1
242.500000	1
243.246249	4
245.159261	1
246.399994	1
247.267443	2
249.200002	1
249.600006	1
250.600006	1
255.050003	1
255.500000	1
255.949997	1
256.399994	1
257.066671	1
257.390691	2
257.899994	1
258.550003	1
259.258462	3
261.203570	1
262.100006	1
263.200012	1
263.399994	1
263.600006	1
269.700012	1
270.399994	1
271.228577	1
271.510001	1
272.100006	1
272.349991	1
273.319999	3
275.250000	1
275.600006	1
281.700012	1
284.600006	1
284.799988	1
285.343474	1
286.299988	1
287.373807	2
289.700012	1
290.000000	1
297.899994	1
299.426668	1
300.399994	1
300.899994	1
301.100006	1
301.449997	1
301.799988	1
309.299988	1
311.100006	1
312.399994	1
312.700012	1
313.368423	2
314.000000	1
324.899994	1
325.899994	1
326.500000	1
326.849991	1
327.200012	1
327.462498	1
327.849991	1
337.299988	1
339.200012	1
339.600006	1
340.250000	1
341.100006	1
341.600006	1
341.799988	1
351.000000	1
351.200012	1
351.600006	1
361.899994	1
363.000000	1
365.200012	1
365.399994	1
365.899994	1
366.500000	1
366.700012	1
369.427401	999
