Mass spectrum: Dihydrotestosterone; LC-APPI-QQ; MS2; CE:60 V; [M-2H2O+H]+
Name: Dihydrotestosterone
Class: Natural Product; Steroid hormone
Formula: C19H30O2
Exact mass: 290.22458
SMILES: O=C(C4)CC([H])(C3)C(C)(C4)C(C2)C(C3)C(C1)C(C)(C2)C(O)C1
InChI: InChI=1S/C19H30O2/c1-18-9-7-13(20)11-12(18)3-4-14-15-5-6-17(21)19(15,2)10-8-16(14)18/h12,14-17,21H,3-11H2,1-2H3/t12-,14?,15?,16?,17-,18?,19?/m0/s1
Instrument: API2000
Instrument type: LC-APPI-QQ
Ms type: MS2
Ion mode: POSITIVE
Retention time: 0.820833 min
Base peak: 79.000000
Precursor m/z: 255.200000
Precursor type: [M-2H2O+H]+
m/z	relative intensity
36.599998	1
39.099998	2
39.700001	1
41.121118	46
41.950001	1
43.116666	20
43.700001	1
44.400002	1
45.199999	1
49.799999	1
50.549999	1
50.900002	1
51.099998	1
51.299999	1
51.599998	1
52.099998	1
53.098387	35
55.102548	267
56.250000	1
57.077778	5
58.800001	1
59.250000	1
62.700001	1
63.049999	1
63.400002	1
64.000000	2
64.199997	2
65.073057	55
67.123629	470
68.266666	3
69.099999	42
70.199997	1
70.599998	1
71.049999	1
73.300001	1
73.900002	1
74.300003	1
74.699999	1
75.000000	1
75.283335	2
77.059439	444
79.063612	618
81.121640	411
82.300003	1
83.400002	2
85.099998	1
86.900002	1
87.800003	1
88.000000	1
88.199997	1
88.500000	1
91.081411	999
93.087368	215
95.081160	156
95.900002	1
96.149998	1
96.699997	1
97.000000	1
97.300003	1
98.900002	1
99.500000	1
99.900002	1
100.649998	1
100.900002	1
102.300003	3
103.073745	73
105.044121	602
107.047369	75
108.199997	1
108.400002	1
108.991429	10
111.199997	1
111.900002	1
112.199997	1
112.500000	1
112.900002	1
113.149998	2
115.064128	178
117.097590	188
117.864288	8
118.176664	8
118.400002	6
119.058608	155
120.900002	4
121.168747	5
121.500000	1
122.800003	1
123.099998	1
123.300003	1
124.900002	1
125.149998	1
126.209998	3
128.108422	323
129.096182	311
130.148128	106
131.156970	140
131.699997	1
132.109998	6
133.189132	26
134.000000	1
134.199997	1
135.133331	2
135.399994	1
136.899994	1
137.300003	1
137.600006	1
138.199997	1
139.085714	16
140.150000	6
141.107290	109
142.101871	106
143.113468	153
144.132383	30
145.136575	61
145.800003	1
146.133331	2
146.683332	2
147.222856	10
149.000000	1
149.399994	1
150.300003	1
150.699997	1
150.989999	3
151.199997	1
151.399994	1
152.000000	5
153.031371	29
155.086171	80
156.103030	28
157.182906	66
159.119567	26
160.174999	1
160.399994	1
160.699997	1
160.924995	1
161.199997	2
161.399994	1
162.100006	1
163.250000	1
163.750000	1
164.000000	1
164.300003	1
164.699997	5
165.068421	16
165.750000	3
166.300003	1
167.155771	15
168.165116	12
169.123359	39
171.125640	33
172.100006	2
173.266666	5
173.899994	1
175.100006	1
175.300003	1
175.600006	1
176.199997	1
177.100006	1
177.300003	1
177.600006	1
178.066671	3
178.899994	2
179.200000	1
179.550003	1
179.899994	1
180.374996	1
181.024999	7
181.899994	1
182.100006	1
182.411111	5
183.096160	7
184.125004	5
185.162745	29
186.000000	1
186.949997	1
187.375000	2
188.949997	1
189.199997	1
189.399994	1
189.949997	1
190.399994	1
190.899994	1
191.399994	1
191.699997	1
191.899994	1
192.100006	1
192.600006	1
192.849998	1
193.100006	1
193.300003	1
194.199997	1
195.033335	2
195.400002	1
196.075005	1
196.399994	1
197.200000	8
198.133336	2
198.500000	1
199.287502	5
199.512501	2
200.016665	7
201.333333	2
203.050003	1
203.800003	1
204.100006	1
206.000000	1
207.250000	1
207.500000	1
208.300003	1
209.300003	1
210.199997	1
210.399994	1
211.250004	2
211.600006	1
212.000000	1
212.199997	1
212.500000	1
212.800003	1
213.166667	2
213.500000	1
213.899994	1
216.800003	1
221.300003	1
223.174999	1
224.195744	13
226.157771	84
227.150002	1
227.550003	1
229.050003	1
239.199997	1
251.800003	1
252.300003	1
252.699997	1
253.199997	1
253.600006	1
255.150002	1
255.500000	1
