Mass spectrum: Stigmastanol; LC-APPI-QQ; MS2; CE:50 V; [M-H2O+H]+
Name: Stigmastanol
Class: Natural Product; Sterol
Formula: C29H52O
Exact mass: 416.40182
SMILES: C(C4)C(C(CC4O)3)(C(C(CC3)2)CCC(C21)(C(CC1)C(C)CCC(C(C)C)CC)C)C
InChI: InChI=1S/C29H52O/c1-7-21(19(2)3)9-8-20(4)25-12-13-26-24-11-10-22-18-23(30)14-16-28(22,5)27(24)15-17-29(25,26)6/h19-27,30H,7-18H2,1-6H3/t20?,21?,22?,23-,24?,25?,26?,27?,28?,29?/m0/s1
Instrument: API2000
Instrument type: LC-APPI-QQ
Ms type: MS2
Ion mode: POSITIVE
Retention time: 0.820867 min
Base peak: 81.000000
Precursor m/z: 399.500000
Precursor type: [M-H2O+H]+
m/z	relative intensity
39.099998	1
40.000000	1
40.400002	1
41.312500	5
41.750000	1
42.000000	1
43.049198	54
45.126733	234
51.000000	1
51.450001	1
52.400002	1
52.900002	1
53.099998	1
55.095745	191
57.117708	362
57.950001	2
58.350000	1
58.941667	7
63.099998	1
64.400002	1
65.199997	2
65.525000	1
67.115876	300
69.111623	409
70.012500	2
71.127212	131
72.099998	1
72.950001	1
73.300003	1
76.000000	1
76.800003	3
77.099998	4
77.400002	3
79.003216	99
81.096286	796
82.042856	6
83.101447	240
85.125396	37
86.400002	1
87.400002	1
88.900002	1
89.149998	1
89.599998	1
91.148889	39
93.083256	312
95.059536	999
96.350002	6
97.110216	108
98.000000	1
98.199997	1
98.980645	45
100.400002	1
100.599998	1
100.900002	4
101.300003	2
102.800003	1
103.199997	1
105.058417	59
107.030935	310
109.095645	519
111.084270	26
115.099998	1
117.000000	1
117.850002	1
119.073584	31
120.099998	3
121.120432	202
121.800003	2
123.091324	127
124.000000	1
124.500000	1
124.800001	2
125.149998	5
128.699997	1
129.199997	1
129.899994	1
131.000000	1
131.699997	1
132.300003	1
133.139218	30
135.129484	191
135.800003	1
136.075005	1
136.300003	1
137.151923	30
139.300003	1
141.000000	1
142.000000	1
142.500000	1
142.899994	2
143.125004	1
143.449997	2
144.500000	1
145.075000	5
145.500000	1
145.800003	1
146.300003	2
147.156579	44
149.157843	118
150.100006	1
151.490476	6
156.300003	1
157.449997	1
157.800003	1
158.699997	1
159.071431	2
159.399994	1
161.150685	21
162.100006	1
163.269938	47
164.050003	1
164.300003	1
164.775002	1
165.000000	1
165.199997	1
170.699997	1
171.399999	1
172.100006	1
172.399994	1
172.600006	1
172.874996	1
173.125004	1
174.100006	1
174.300003	1
175.118751	9
175.500000	3
176.300003	1
177.311595	20
178.050003	1
179.100006	1
183.399994	1
184.500000	1
185.000000	1
185.300003	1
186.300003	1
187.133336	2
188.000000	1
189.229465	32
191.250000	3
191.500000	1
193.299995	1
194.199997	1
197.300003	1
198.199997	1
198.399994	1
198.899994	1
199.300003	1
200.899994	1
201.500000	1
202.150002	1
202.500000	1
203.194999	23
204.000000	1
204.399994	1
204.699997	1
205.100006	1
205.575005	1
206.100006	1
207.300003	1
214.800003	1
215.000000	1
215.199997	1
215.399994	1
215.600006	1
215.800003	1
216.299995	2
217.050001	3
217.500000	3
218.449997	1
219.199997	1
219.399994	1
220.600006	1
220.899994	1
221.300003	1
221.500000	1
221.800003	1
222.000000	1
223.199997	1
226.000000	1
227.199997	1
228.199997	1
228.899994	1
229.199997	1
229.600006	1
229.800003	1
230.100006	1
230.399994	1
230.600006	1
231.150002	2
231.471427	2
232.300003	1
232.500000	1
233.000000	1
235.250000	2
235.650002	1
239.899994	1
240.100006	1
241.050003	1
242.199997	1
242.699997	1
243.199997	1
244.000000	1
244.500000	1
245.199997	1
245.500000	1
247.000000	1
247.199997	1
247.500000	1
254.899994	1
255.199997	1
257.399994	1
258.000000	1
258.200012	1
258.424995	1
259.200012	1
259.399994	1
259.650009	1
260.200012	1
260.799988	1
261.100006	1
261.600006	1
265.700012	1
268.200012	1
269.100006	1
271.075005	1
271.799988	1
272.000000	1
273.000000	1
273.200012	1
273.399994	1
274.000000	1
275.200012	1
275.600006	1
285.000000	1
285.299988	1
285.799988	1
286.600006	1
286.799988	1
287.200012	1
289.000000	1
289.299988	1
289.700012	1
291.600006	1
300.000000	1
301.100006	1
301.399994	1
301.899994	1
313.500000	1
314.600006	1
314.949997	1
315.299988	1
316.600006	1
317.449997	1
318.000000	1
323.899994	1
326.399994	1
329.100006	1
329.299988	1
329.700012	1
337.500000	1
342.399994	1
343.000000	1
343.500000	1
343.700012	1
344.000000	1
356.299988	1
356.500000	1
357.600006	1
367.399994	1
369.100006	1
371.700012	1
384.799988	1
399.233337	2
399.799988	1
