Mass spectrum: Coprostanone; LC-APPI-QQ; MS2; CE:50 V; [M+H]+
Name: Coprostanone
Class: Natural Product; Sterol
Formula: C27H46O
Exact mass: 386.35487
SMILES: C(C)(C1)(C(C(C)CCCC(C)C)4)C(CC4)C(C2)C(C(C)(C3)C([H])(CC(C3)=O)C2)C1
InChI: InChI=1S/C27H46O/c1-18(2)7-6-8-19(3)23-11-12-24-22-10-9-20-17-21(28)13-15-26(20,4)25(22)14-16-27(23,24)5/h18-20,22-25H,6-17H2,1-5H3/t19?,20-,22?,23?,24?,25?,26?,27?/m1/s1
Instrument: API2000, Applied
Instrument type: LC-APPI-QQ
Ms type: MS2
Ion mode: POSITIVE
Retention time: 0.820850 min
Base peak: 95.000000
Precursor m/z: 387.449000
Precursor type: [M+H]+
m/z	relative intensity
39.000000	1
40.299999	1
40.500000	1
41.071429	4
43.121428	26
44.049999	1
50.500000	1
51.049999	1
51.299999	1
52.200001	1
52.599998	1
52.900002	1
53.150000	1
53.400002	1
53.599998	1
54.099998	2
54.299999	4
55.113354	100
57.068077	162
58.900002	1
59.099998	1
63.599998	1
64.900002	1
65.316669	2
67.080854	240
69.070282	353
71.109045	124
72.000000	1
72.500000	1
75.950001	1
76.400002	1
77.050000	10
77.840002	3
79.019341	151
81.103231	770
83.055878	193
83.742857	4
84.099998	2
84.300003	2
85.082433	23
86.199997	1
86.400002	1
86.599998	1
87.199997	1
87.649998	1
89.500000	1
89.991667	4
91.053930	142
93.045546	370
95.032379	999
97.087180	121
98.020689	9
98.400002	1
98.900002	2
99.099998	1
102.599998	1
102.925001	2
103.700001	5
105.035499	268
107.041950	274
109.094081	441
111.074391	26
113.199997	1
114.199997	1
114.649998	1
115.099998	1
115.400002	1
116.099998	1
117.069387	30
118.300003	6
119.052034	184
119.699997	2
119.961112	6
121.089632	186
121.800003	2
123.057174	143
123.699997	1
123.933334	2
124.199997	1
124.733332	2
125.062499	2
125.400002	2
125.900002	1
126.800003	1
127.400002	1
127.599998	1
127.900002	1
128.100006	1
128.300003	1
129.199997	1
129.800003	2
131.097183	66
133.107733	121
135.074346	119
136.000000	1
136.199997	1
136.500000	1
137.103670	34
138.000000	1
139.349998	1
141.349998	1
141.699997	1
141.899994	1
142.150002	1
143.161539	8
143.941663	4
145.048421	118
146.199997	3
147.129824	177
148.000000	2
149.127468	72
150.199997	1
151.126315	12
153.500000	1
153.899994	1
154.399994	1
155.000000	1
155.199997	1
155.399994	1
155.800003	1
156.100006	1
156.500000	1
156.825001	2
158.044447	3
159.114659	59
161.154650	107
162.133336	2
163.136762	21
164.100006	1
164.773334	5
165.300003	1
165.600006	1
166.650002	1
166.899994	1
167.300003	1
168.800003	1
169.100006	1
169.899994	1
170.800003	2
171.000000	2
171.199997	2
171.700002	1
172.744445	11
173.140002	25
174.100006	2
174.399994	1
175.144444	22
176.399994	1
176.600006	1
177.446152	4
178.250000	1
178.600006	1
179.055555	6
179.500000	2
182.699997	1
182.899994	1
183.100006	1
183.600006	1
184.000000	1
185.092306	8
185.899994	2
186.188236	5
187.112500	80
187.800003	1
188.300003	1
188.989999	3
190.399994	1
191.000000	1
191.374996	1
191.800003	1
192.100006	1
192.349998	1
192.899994	2
193.140002	3
193.500000	2
197.500000	1
198.250000	1
198.892852	4
199.235296	11
199.699997	1
200.100006	2
201.183696	29
201.899994	1
202.349998	1
202.775002	1
203.075005	1
203.433329	2
204.500000	1
204.699997	1
205.000000	1
205.199997	2
205.600006	1
206.000000	1
206.800003	1
207.199997	1
208.399994	1
211.100006	1
212.449997	1
212.924995	1
213.339996	2
214.033335	2
214.440000	6
215.133334	15
215.899994	1
216.500000	1
217.199998	3
217.800003	1
218.000000	1
219.180001	6
219.899994	1
220.500000	1
220.699997	1
221.000000	1
221.199997	1
221.500000	1
224.899994	1
225.899994	1
226.300003	1
226.899994	1
227.699997	1
227.899994	1
228.500000	1
228.899994	2
229.424995	2
230.199997	1
230.500000	1
230.949997	1
231.300003	1
232.100006	1
232.399994	1
232.849998	1
233.100006	1
233.300003	1
233.500000	1
233.699997	1
235.300003	1
236.199997	1
237.199997	1
238.699997	1
241.000000	1
241.300003	1
241.600006	1
242.100006	1
243.200001	2
243.580002	3
244.199997	1
245.000000	1
245.300003	1
245.600006	1
245.949997	1
246.399994	1
246.849998	1
247.199997	1
248.899994	1
249.300003	1
249.500000	1
249.800003	1
250.899994	1
251.800003	1
252.100006	1
254.100006	1
254.899994	1
255.199997	1
255.699997	1
256.299988	1
256.550003	1
256.949997	1
257.299988	1
257.500000	1
257.700012	1
258.799988	1
259.200012	1
259.449997	2
260.100006	1
260.700012	1
261.100006	1
261.299988	1
261.500000	1
264.899994	1
265.299988	1
267.100006	1
268.200012	1
268.899994	1
269.200012	1
270.100006	1
270.299988	1
271.000000	1
271.399994	1
272.799988	1
273.100006	1
273.399994	1
273.650009	2
274.000000	1
274.200012	1
275.000000	1
275.200012	1
275.449997	1
276.000000	1
279.399994	1
281.200012	1
283.000000	1
283.799988	1
285.150009	1
285.399994	1
286.899994	1
287.600006	1
288.299988	1
288.500000	1
289.299988	1
289.500000	1
291.399994	1
295.100006	1
296.050003	1
296.500000	1
299.000000	1
300.000000	1
300.500000	1
301.100006	1
301.600006	1
302.100006	1
302.899994	1
303.299988	1
303.700012	1
304.899994	1
309.299988	1
312.949997	1
313.299988	1
313.700012	1
315.299988	1
315.500000	1
316.200012	1
317.000000	1
317.500000	1
317.899994	1
327.250000	1
327.650009	1
328.299988	1
328.500000	1
329.000000	1
330.799988	1
331.000000	1
331.399994	1
339.200012	1
340.899994	1
341.299988	1
341.500000	1
341.799988	1
344.500000	1
353.299988	1
353.600006	1
354.349991	1
354.600006	1
355.200012	1
357.600006	1
359.200012	1
359.500000	1
367.200012	1
369.100006	1
369.399994	2
369.677785	3
370.050003	1
372.550003	1
387.000000	1
387.200012	1
387.399994	1
387.849991	1
