Mass spectrum: 5mPFOS; LC-ESI-QQ; MS2; CE40eV
Name: 5mPFOS
Class: Non-Natural Product
Formula: C8HF17O3S
Exact mass: 499.93749
SMILES: FC(F)(F)C(F)(F)C(F)(C(F)(F)F)C(F)(F)C(F)(F)C(F)(F)C(F)(F)S(O)(=O)=O
InChI: InChI=1S/C8HF17O3S/c9-1(6(18,19)20,3(12,13)7(21,22)23)2(10,11)4(14,15)5(16,17)8(24,25)29(26,27)28/h(H,26,27,28)
Instrument: Xevo TQ, Waters
Instrument type: LC-ESI-QQ
Ms type: MS2
Ion mode: NEGATIVE
Collision energy: 40eV
Retention time: 15.805300 min
Base peak: 79.708176
Precursor m/z: 498.9
Precursor type: [M-H]-
m/z	relative intensity
63.662003	142
64.179127	185
77.099003	123
79.864730	909
98.996196	596
118.737986	196
129.867278	870
180.353886	999
219.000957	93
229.916435	642
279.810172	436
316.939200	84
499.080798	429
