Mass spectrum: Peridinin; FAB-EBEB; MS2; m/z: 630.36; [M]+*
Name: Peridinin
Formula: C39H50O7
Exact mass: 630.35565
SMILES: C/C(=C\C=C\C=C\C=C(/C)\C=C/1\C=C(C(=O)O1)/C=C/[C@]23[C@](O2)(C[C@H](CC3(C)C)O)C)/C=C=C4[C@](C[C@H](CC4(C)C)OC(=O)C)(C)O
InChI: InChI=1S/C39H50O7/c1-26(16-17-33-35(4,5)24-32(44-28(3)40)25-37(33,8)43)14-12-10-11-13-15-27(2)20-31-21-29(34(42)45-31)18-19-39-36(6,7)22-30(41)23-38(39,9)46-39/h10-16,18-21,30,32,41,43H,22-25H2,1-9H3/b12-10+,13-11+,19-18+,26-14+,27-15+,31-20-/t17?,30-,32-,37+,38+,39-/m0/s1
Instrument: JMS-HX/HX 110A, JEOL
Instrument type: FAB-EBEB
Ms type: MS2
Ion mode: POSITIVE
Collision energy: 3 kV
Ionization: FAB
Base peak: 612.2860
Precursor m/z: 630.36
Precursor type: [M]+*
m/z	relative intensity
11.9800	0
12.9910	0
14.0105	0
15.0119	2
15.9940	0
24.9655	0
25.9936	1
27.0024	10
28.0131	1
29.0093	8
31.0000	1
34.9097	0
35.8389	0
36.9948	1
37.9803	3
38.9986	26
39.9963	3
41.0135	45
41.9955	2
42.9908	357
44.0027	1
44.9961	2
45.4281	0
45.9748	0
46.9913	0
48.9785	1
49.9788	7
50.4311	0
50.9912	17
52.0038	6
53.0009	23
54.0060	1
55.0119	46
56.0244	2
57.0362	57
57.4662	0
58.0127	1
58.4953	0
59.0187	9
60.0246	0
60.9903	2
61.3899	0
61.9893	4
63.0054	18
64.0167	4
65.0071	23
66.0130	4
67.0129	31
68.0104	2
69.0105	54
70.0131	2
71.0052	14
71.9098	0
72.9755	1
73.9743	5
74.9923	9
75.4532	0
76.0006	5
76.4379	0
77.0043	61
78.0139	14
79.0107	59
79.5670	0
80.0240	7
80.5954	0
81.0176	44
82.0007	4
82.6011	0
83.0150	70
84.0105	2
85.0116	35
85.5980	0
85.9963	3
86.4209	0
87.0001	21
87.9627	2
88.2239	0
89.0073	13
90.0065	5
91.0138	128
92.0208	12
93.0317	64
94.0283	5
94.5087	1
95.0230	94
96.0283	6
97.0297	33
98.0039	3
98.4337	0
99.0236	5
99.2915	0
100.0063	1
100.6109	0
101.0050	4
102.0100	13
103.0199	37
103.4570	1
104.0233	14
105.0344	130
106.0333	14
107.0411	81
108.0238	13
109.0425	55
110.0227	4
111.0387	13
112.0092	1
113.0460	15
114.0011	5
115.0168	111
116.0198	28
117.0230	69
118.0206	17
118.4931	1
119.0212	116
120.0175	17
121.0212	138
122.0264	14
123.0053	34
124.0134	2
125.0055	256
125.9842	9
127.0069	50
128.0031	136
129.0006	112
130.0098	43
131.0056	88
132.0027	22
133.0129	79
133.4482	1
133.9992	15
134.9986	53
135.9993	11
136.9996	27
137.9982	4
138.9952	31
139.9998	6
140.9965	106
142.0049	69
143.0144	122
144.0055	36
145.0143	134
146.0091	26
147.0170	68
148.0019	12
149.0179	109
150.0063	15
151.0124	27
152.0028	60
153.0093	75
154.0305	35
155.0329	125
156.0394	53
157.0392	119
158.0414	55
159.0461	97
160.0380	16
161.0323	50
162.0214	10
162.3528	2
163.0511	64
164.0312	11
165.0366	146
166.0506	42
167.0546	94
168.0565	37
169.0668	103
170.0795	47
171.0777	110
172.0766	27
173.0720	81
174.0585	12
175.0766	48
176.0493	18
177.0474	29
178.0539	74
179.0642	111
180.0753	48
181.0747	225
182.0655	42
183.0679	104
184.0679	25
185.0670	79
186.0528	18
187.0502	45
188.0559	12
189.0421	61
190.0523	23
191.0429	59
192.0591	39
193.0572	85
194.0637	51
195.0536	104
196.0536	41
197.0682	85
198.0522	22
199.0601	58
200.0890	43
201.0466	44
202.0500	46
203.0462	54
204.0336	20
205.0497	53
206.0633	29
207.0617	70
208.0638	36
209.0649	98
210.0665	32
211.0670	79
212.0634	16
213.0571	47
214.0671	15
215.0649	81
216.0570	28
217.0606	45
218.0615	21
219.0835	62
220.0933	24
221.0956	62
222.0969	28
223.1050	59
224.1151	19
225.1067	47
226.0924	25
227.0976	40
228.1175	24
229.0966	49
230.0999	19
231.1052	39
232.1206	23
233.1252	51
234.1191	49
235.1310	51
236.1321	19
237.1251	60
238.1259	13
239.1208	41
240.1081	12
241.1229	39
242.1079	13
243.1123	38
244.0996	14
245.1159	39
246.1343	18
247.1195	39
248.1067	14
249.1341	35
250.1205	15
251.1231	42
252.1166	25
253.1247	60
254.1349	12
255.1182	27
256.1418	13
257.1242	27
258.1197	14
259.1188	29
260.1294	13
261.1308	34
262.1276	12
263.1393	40
264.1133	8
265.1342	30
266.1345	11
267.1175	26
268.1104	11
269.1389	19
270.1421	10
271.1199	25
272.1172	11
273.1278	26
274.1354	9
275.1304	32
276.1000	11
277.1246	29
278.1205	11
279.1361	22
280.1277	9
281.1197	15
282.1472	8
283.1126	20
284.1346	8
285.1296	25
286.1200	8
287.1397	22
288.1387	9
289.1267	20
290.1294	10
291.1421	19
292.1260	7
293.1377	22
294.1205	8
295.1487	17
296.1272	8
297.1463	19
298.1447	8
299.1172	16
300.1503	7
301.1191	20
302.1463	9
303.1301	21
304.1529	6
305.1275	14
306.1266	9
306.5000	1
307.1210	21
308.1205	6
308.5249	1
309.1284	14
310.0927	5
311.1286	14
312.1355	6
313.1183	14
314.1192	6
315.1154	15
316.1038	4
317.1248	15
317.6241	1
318.1266	5
319.1480	14
320.1129	5
321.1348	16
322.1423	4
323.1256	11
324.1384	4
325.1384	15
326.1305	5
327.1439	16
328.1299	7
329.1356	13
330.1577	4
331.1361	18
332.1294	7
333.1408	11
334.1605	7
335.1527	17
336.1711	5
337.1817	8
338.0719	3
339.1642	10
340.1688	5
341.1572	12
342.1165	4
342.5922	1
343.1640	12
344.1889	4
345.1571	9
346.1939	5
347.1674	9
348.1590	4
349.1752	8
350.2062	3
351.1739	8
352.2151	4
353.1602	13
354.1822	5
355.1847	13
356.1842	5
357.2083	11
358.0972	3
359.2032	10
360.1429	4
361.2085	7
362.1730	3
363.1916	7
364.1287	2
365.1884	6
366.1797	2
367.2021	8
368.2395	3
368.6120	1
369.2231	8
370.1954	6
371.2136	30
372.1600	3
372.6141	1
373.2599	6
374.1667	3
374.4391	1
375.2401	6
376.1505	1
376.5012	1
377.2274	6
378.2261	3
379.2021	6
380.1816	2
380.6485	1
381.2069	5
382.1654	2
383.1812	6
384.1742	3
384.5565	1
385.2230	7
386.3062	4
387.2016	7
387.7095	1
388.2467	2
389.2494	6
390.2326	3
391.2045	5
391.6227	1
392.2451	2
393.2483	4
393.7663	1
394.2762	2
395.2094	6
396.2130	6
397.1921	6
398.2189	1
399.2229	6
400.1976	2
401.1985	8
402.2798	3
403.1910	4
404.2333	1
405.2462	4
406.2151	3
407.2021	7
407.6866	0
408.2890	2
409.2386	6
410.2309	2
411.2101	4
412.2010	2
413.1838	6
413.6261	1
414.2142	3
415.1972	6
415.6773	1
416.3163	2
417.2521	5
417.6847	1
418.2715	2
419.2271	2
420.1697	3
420.5353	1
421.2527	4
422.2779	3
423.2638	4
423.7142	1
424.3006	2
425.2032	5
426.2092	2
427.2545	11
428.2722	3
429.2571	7
430.2602	4
431.2765	6
432.2454	3
433.2570	18
433.8621	1
435.2592	4
436.0809	1
436.5648	0
437.2848	2
438.3886	2
439.2831	4
440.1810	2
441.2510	3
442.2802	4
443.2964	5
445.2028	50
446.2061	3
447.1998	3
448.1918	2
449.2201	6
450.2353	2
451.2899	3
452.3530	2
453.2684	4
454.3217	2
455.2341	4
456.2499	3
457.2527	5
458.2719	1
459.2847	7
460.2549	3
461.1267	3
462.1989	2
463.2350	2
464.2992	2
465.2682	3
466.2521	2
466.6677	1
467.3297	4
468.3072	4
469.3225	8
470.2657	4
471.3190	7
472.3280	4
473.3026	3
474.2083	2
474.6817	1
475.2967	6
475.8542	1
476.2854	3
477.2774	4
478.2614	9
479.1798	2
479.7916	1
480.4148	1
481.2645	3
482.4784	2
483.3643	3
484.3668	2
485.3250	11
486.3162	18
487.3091	129
488.2807	14
489.2097	3
490.2077	2
491.3535	2
492.4223	2
492.7572	1
493.3220	2
494.3187	2
495.2958	7
496.2746	4
497.2436	4
498.3818	2
499.3000	3
500.3333	2
501.3059	5
502.2079	3
503.1789	2
503.8178	1
504.8386	1
506.1335	1
506.6210	1
507.2989	2
508.4397	2
509.2802	4
510.2603	2
511.2849	7
511.6658	2
512.2897	5
513.3062	7
514.2915	6
515.2933	3
515.6481	2
517.0195	4
519.3850	3
522.1518	3
523.2987	4
523.8755	2
524.6495	1
525.3020	3
526.3440	5
527.3400	7
528.3674	4
529.3175	8
530.3565	11
531.2819	13
535.0339	6
537.1894	12
538.2631	8
539.8278	5
541.3139	7
541.8016	3
542.3534	4
543.3798	5
544.3932	5
545.4017	2
546.2098	2
546.6090	1
547.1840	1
548.6986	1
551.3208	15
552.3281	28
553.3519	25
554.1998	5
555.3338	16
556.2574	8
558.7132	5
561.7118	4
562.9465	2
564.5497	2
565.2321	1
565.8389	1
566.6513	1
569.3749	21
570.3618	72
571.3735	48
572.3720	7
573.3015	4
574.3132	2
575.2626	2
576.2037	1
576.6924	2
577.1027	1
577.9224	1
579.1711	2
579.9662	1
580.7960	2
581.3948	1
582.1553	2
582.6173	2
583.4455	4
584.5131	3
585.3677	6
586.4453	16
587.4618	45
588.4124	17
589.7310	1
590.6058	1
591.0894	1
591.3865	1
592.1210	2
594.2834	7
595.3366	3
596.3239	2
597.5803	6
598.6106	2
599.3387	2
599.8275	1
600.5260	5
601.6522	12
612.2860	999
613.4819	33
615.4704	74
630.2463	999
634.2979	16
