Mass spectrum: 6-Epiheteroxanthin; FAB-EBEB; MS2; m/z: 600.42; [M]+*
Name: 6-Epiheteroxanthin
Formula: C40H56O4
Exact mass: 600.41786
SMILES: CC(C)(C=1C#CC(C)=CC=CC(=CC=CC=C(C=CC=C(C)C=CC(C(C)(O)2)(C(C)(C)CC(O)C2)O)C)C)CC(CC(C)1)O
InChI: InChI=1S/C40H56O4/c1-29(17-13-19-31(3)21-22-36-33(5)25-34(41)26-37(36,6)7)15-11-12-16-30(2)18-14-20-32(4)23-24-40(44)38(8,9)27-35(42)28-39(40,10)43/h11-20,23-24,34-35,41-44H,25-28H2,1-10H3/b12-11+,17-13+,18-14+,24-23+,29-15+,30-16+,31-19+,32-20+/t34-,35+,39-,40+/m1/s1
Instrument: JMS-HX/HX 110A, JEOL
Instrument type: FAB-EBEB
Ms type: MS2
Ion mode: POSITIVE
Collision energy: 3 kV
Ionization: FAB
Base peak: 42.9601
Precursor m/z: 600.42
Precursor type: [M]+*
m/z	relative intensity
12.9574	1
13.1086	0
13.9765	3
14.9751	13
22.9399	4
24.9488	4
25.9579	13
26.9680	51
27.9751	6
28.9721	83
29.9867	1
30.9628	20
35.9073	3
36.9532	5
37.9431	26
38.4281	3
38.9637	152
39.7294	1
39.9624	17
40.8073	1
40.9763	302
41.9751	16
42.9601	999
43.9620	8
44.9697	18
46.9430	4
48.9073	2
48.9805	1
49.9570	42
50.1998	2
50.9536	104
51.6964	1
51.9630	50
52.9707	150
53.3626	2
53.9383	10
54.1112	0
54.9759	375
55.9828	17
56.9900	178
57.6962	1
57.9626	16
58.1903	1
58.9741	67
59.9239	4
59.9982	1
60.9492	17
61.6251	0
61.9522	34
62.9535	91
63.3121	1
63.4640	3
63.5417	2
63.9688	22
64.9657	113
65.3187	3
65.9621	20
66.9700	176
67.9657	16
68.9664	278
69.4720	4
69.9697	27
70.6559	2
70.9524	138
71.9524	2
72.9274	9
73.9149	27
74.3255	1
74.9445	57
75.5324	3
75.9440	19
76.1792	4
76.4488	1
76.5739	1
76.9491	343
77.1968	2
77.3649	3
77.5514	0
77.9561	98
78.3554	1
78.5793	4
78.9609	292
79.2358	1
79.5371	1
79.9777	41
80.2152	3
80.9760	353
81.4891	3
81.9178	13
82.9866	438
83.1966	2
83.9741	8
84.1099	3
84.2125	1
84.6891	1
84.9631	273
85.5667	2
85.6855	2
85.9486	12
86.3843	2
86.9525	177
87.4734	4
87.9333	11
88.2181	1
88.4836	1
88.6338	4
88.9466	49
89.2284	7
89.3636	4
89.5411	6
89.7706	3
89.9581	18
90.2602	5
90.3596	4
90.5424	4
90.9598	556
91.2104	4
91.5860	3
91.9719	60
92.1732	3
92.9777	404
93.1752	7
93.4871	4
93.9797	24
94.5274	1
94.9838	251
95.3615	1
95.4817	3
95.7506	4
95.9807	20
96.6088	4
96.9716	98
97.9666	23
98.9511	28
99.9401	4
100.3268	0
100.5465	3
100.9530	22
101.1442	6
101.2746	6
101.4038	1
101.5632	3
101.9517	49
102.1803	2
102.2633	1
102.4908	1
102.9599	102
103.3205	6
103.4842	7
103.9744	74
104.9701	645
105.3555	7
105.6811	3
105.9784	75
106.9797	300
107.2472	7
107.4121	1
107.9853	30
108.1141	5
108.6111	1
108.9847	211
109.6244	2
109.7612	1
109.9311	18
110.1934	2
110.4087	5
110.6974	4
110.9734	102
111.5227	0
111.7628	3
112.0093	6
112.1383	4
112.5327	4
112.9638	86
113.1692	4
113.3830	2
113.4950	2
113.7454	4
113.9229	10
114.1799	4
114.3704	6
114.5275	4
114.9439	330
115.2643	2
115.3677	1
115.4936	7
115.9556	125
116.1543	4
116.4560	5
116.6625	5
116.9580	290
117.3425	1
117.4797	3
117.6196	3
117.9542	53
118.1535	4
118.2683	1
118.3767	4
118.5567	2
118.9661	570
119.2199	4
119.3214	6
119.4248	4
119.9672	69
120.1794	5
120.6059	0
120.9653	247
121.2432	1
121.4079	2
121.6827	2
121.9454	30
122.1173	2
122.2341	2
122.3490	4
122.5456	2
122.9645	155
123.2595	3
123.9636	15
124.1002	4
124.9602	223
125.2534	5
125.5447	3
125.9529	49
126.2224	5
126.4749	6
126.6577	7
126.9457	166
127.1619	13
127.2547	7
127.4801	2
127.9313	330
128.2433	5
128.3434	3
128.4415	4
128.5764	5
128.9430	414
129.3439	4
129.5306	1
129.9521	181
130.2610	4
130.3692	3
130.4335	1
130.5713	3
130.9507	384
131.2705	3
131.4393	6
131.9643	99
132.3898	7
132.5509	4
132.9654	322
133.2577	3
133.4315	4
133.5165	2
133.7569	5
133.9691	41
134.1371	2
134.4924	2
134.5960	5
134.9515	115
135.2266	5
135.5157	2
135.9377	39
136.3076	1
136.5918	1
136.9290	52
137.3532	3
137.5683	4
137.6961	7
137.9498	27
138.3280	0
138.5938	3
138.9531	95
139.3477	3
139.6709	5
139.8999	33
140.0233	16
140.2471	9
140.4895	4
140.9466	310
141.4299	4
141.9454	313
142.2588	2
142.4032	2
142.9492	472
143.2836	10
143.9654	136
144.2715	5
144.4489	5
144.5856	5
144.9700	476
145.4500	5
145.7458	9
145.9857	59
146.4388	3
146.9810	214
147.5303	6
147.6460	3
147.9365	17
148.1186	3
148.5138	7
148.9720	90
149.3152	4
149.4654	2
149.9643	23
150.0924	6
150.2192	1
150.4360	6
150.5709	4
150.9528	56
151.2973	11
151.4176	4
151.9450	160
152.2589	10
152.3537	5
152.4519	4
152.5823	4
152.9522	180
153.3929	6
153.9557	77
154.3025	8
154.4595	5
154.6265	3
154.9830	382
155.2998	10
155.4434	2
155.9802	201
156.3432	6
156.5896	4
156.9986	503
157.4248	3
157.6517	1
158.0186	102
158.2052	9
158.4931	4
158.9915	232
159.3548	5
159.4982	3
159.7344	5
159.9944	53
160.2516	4
160.3607	6
161.0177	73
161.3348	3
161.4338	2
161.5802	2
162.0087	25
162.1308	10
162.2786	2
162.4116	3
162.6280	7
163.0059	46
163.3243	3
163.6943	13
164.0421	35
164.1555	19
164.3457	8
164.5156	10
164.6739	6
164.9988	364
165.2708	5
165.4299	1
165.6196	4
166.0006	113
166.2482	8
166.3524	3
167.0058	269
167.4907	12
168.0310	114
168.3329	6
168.5401	6
169.0399	351
169.3932	4
169.7473	6
170.0509	121
170.4668	1
171.0343	253
171.2854	6
171.4767	1
171.5877	2
171.7599	1
172.0603	53
172.2783	9
172.4329	6
172.5133	2
173.0291	153
173.3434	2
173.6107	4
173.8139	2
174.0621	23
174.4387	2
174.5411	3
174.6393	2
175.0358	80
175.3738	6
175.5151	7
175.7357	7
176.0287	44
176.3374	5
176.6962	8
177.0516	48
177.3968	14
177.5869	8
177.9932	179
178.3776	3
178.5815	4
179.0107	307
179.4604	4
179.6398	9
180.0090	139
180.3741	7
180.4481	3
180.5831	4
181.0231	365
181.3069	9
181.3926	4
181.5448	5
182.0050	132
182.3713	8
182.5277	4
182.6663	9
183.0348	296
183.2826	10
183.6053	8
184.0482	59
184.3752	6
184.5469	3
184.6706	9
185.0389	139
185.4603	3
185.6404	2
186.0172	26
186.2152	5
186.4161	4
186.6589	2
187.0098	50
187.4909	9
187.6113	9
187.8977	21
188.0981	23
188.3488	3
188.4776	4
188.6022	6
188.9859	118
189.3890	5
189.6151	4
190.0101	59
190.2396	9
190.3486	8
190.5458	9
191.0072	215
191.4088	7
192.0009	121
192.3978	5
192.9992	277
193.3992	7
193.5636	2
193.7024	4
194.0168	127
194.2594	9
195.0095	301
195.4507	7
195.6174	12
196.0290	81
196.4234	7
196.5597	10
197.0318	212
197.5926	6
198.0407	63
198.2492	9
198.7612	6
199.0467	68
199.3759	2
199.7516	8
200.0144	25
200.1823	9
200.4194	2
200.5873	5
201.0236	76
201.3518	4
201.5427	4
201.9848	104
202.2875	9
202.4117	6
202.9999	143
203.3430	4
203.4417	3
203.9920	80
204.2887	7
204.3520	3
204.5389	5
205.0124	162
205.4685	13
206.0110	151
206.2204	8
206.4702	6
206.6254	7
207.0186	233
207.3708	8
207.5629	3
208.0260	102
208.2676	9
208.4139	3
208.6110	6
209.0380	229
209.5104	9
210.0109	37
210.4096	3
210.5979	3
211.0351	87
211.3455	11
211.4571	3
211.7270	4
212.0159	34
212.3124	1
212.4771	5
212.6237	3
213.0439	51
213.3490	6
213.6234	2
213.8231	11
214.0096	21
214.2261	8
214.4727	5
214.6515	10
215.0169	132
215.3433	4
215.9828	79
216.2086	6
216.4659	10
217.0177	127
217.4584	2
218.0111	83
218.3722	7
219.0336	192
219.5384	5
220.0391	95
220.3270	7
220.4958	2
220.6359	11
221.0493	233
221.2981	16
221.4053	7
222.0312	53
222.5437	3
223.0689	103
223.4940	10
223.6616	8
223.8545	11
224.0952	38
224.2369	11
224.4860	7
225.0517	86
225.4736	6
225.6260	4
226.0318	39
226.2418	7
226.3359	3
226.6239	4
227.0460	53
227.9996	45
228.4374	5
229.0456	114
229.3971	3
229.5575	3
230.0667	84
230.2988	6
231.0566	156
231.3620	4
231.5415	7
231.6611	4
232.0793	49
232.2954	6
232.4552	3
233.0767	228
233.4238	4
233.5179	2
233.7863	9
234.1314	56
234.5271	4
234.6367	4
235.0839	128
235.4678	10
235.6654	5
235.7870	6
235.9024	6
236.1380	26
236.4981	1
237.0708	57
237.4360	8
237.6338	3
238.0589	18
238.3693	7
238.5038	5
239.0551	54
239.3396	6
239.7987	11
240.0889	18
240.2418	10
240.4081	9
240.5750	5
240.6737	7
241.0591	62
241.5031	3
241.8132	14
242.0691	34
242.2813	10
242.6719	5
243.0640	126
243.3736	3
243.8215	11
244.0811	69
244.2631	5
244.3929	3
244.5009	3
245.0724	130
245.4451	6
245.5580	4
245.6723	7
246.0797	78
246.4200	5
246.5774	6
247.1014	173
247.5082	7
248.0493	35
248.3545	6
248.6562	5
249.1092	109
249.3756	4
249.5269	3
250.0422	34
250.3788	6
250.5852	4
250.7252	2
251.1078	58
251.5024	6
251.9707	29
252.3202	4
252.6386	5
253.0964	57
253.4991	1
254.0739	33
254.3585	1
254.5787	2
255.0864	71
255.3116	8
255.5538	2
255.7203	12
256.0468	26
256.3535	3
256.5718	6
256.7744	9
257.0940	110
257.3973	6
257.5482	3
258.0742	53
258.3584	4
258.5378	3
258.6094	2
259.1191	105
259.4783	7
259.6633	8
260.0602	28
260.4911	5
260.6378	4
261.0944	110
261.6234	13
262.0070	29
262.1694	22
262.5921	3
263.1419	52
263.5250	2
263.7883	6
264.0927	35
264.3340	5
264.6115	5
265.0629	44
265.4860	4
265.6685	6
266.1144	36
266.3615	7
266.4971	1
267.1094	73
267.4816	7
267.7409	5
268.1060	27
268.2645	11
268.3831	4
268.6013	5
269.1144	63
269.2899	23
269.6773	5
270.0897	45
270.4309	5
270.5596	4
271.0716	55
271.5516	2
271.8020	8
272.1128	32
272.3184	4
272.5090	10
273.0882	81
273.3984	3
273.7108	8
274.0795	29
274.2162	24
274.3998	3
275.1202	71
275.5054	3
275.8151	6
276.1235	31
276.2801	14
276.4867	7
277.0857	44
277.5058	4
277.6417	4
277.7455	6
277.8651	5
278.1183	12
278.3019	11
278.4834	4
278.6079	5
279.1061	48
279.2335	24
279.4157	3
279.5887	3
279.8976	4
280.1254	17
280.2607	9
281.0995	78
282.0980	34
282.3252	8
282.5489	8
282.6907	4
283.1452	85
283.6340	16
284.0481	27
284.2797	19
284.4208	5
284.6182	4
285.1136	76
285.4159	5
285.5357	2
285.6840	6
286.0768	32
286.4227	6
286.5353	3
286.6416	3
286.8399	5
287.1551	56
287.5360	6
287.7357	3
287.9091	10
288.1702	16
288.4534	1
288.5626	2
289.1113	35
289.5773	3
289.9184	7
290.0940	18
290.2603	8
290.6272	18
290.8250	12
291.1748	43
291.5254	4
291.6510	5
292.0816	18
292.7008	3
293.1108	70
293.2672	22
293.6830	8
293.8380	6
294.1205	44
294.4522	4
295.1364	60
295.3019	16
295.4539	1
296.1382	26
296.6813	9
297.0932	33
297.3016	9
297.6500	3
298.1147	33
298.2397	15
298.7324	7
299.1594	58
299.3722	14
299.5036	10
299.7357	7
300.0807	23
300.1972	13
300.3607	3
300.6551	5
301.1223	48
301.5124	2
301.7718	5
301.9419	9
302.2048	10
302.4700	4
303.1168	27
303.5228	5
303.6923	3
303.8045	4
304.0125	6
304.2449	4
304.5545	3
305.0922	26
305.2660	13
305.4805	2
306.1815	15
306.4304	1
306.6865	6
307.1393	40
307.4992	7
307.7267	2
307.8863	7
308.0466	10
308.1868	10
308.3929	4
308.7422	6
308.9411	11
309.1365	28
309.2947	13
309.6655	3
309.7872	4
310.0449	16
310.3978	4
310.6226	5
311.0300	22
311.1983	20
311.3214	10
311.5750	2
312.1371	23
312.3921	3
312.5203	3
312.7975	5
313.1392	27
313.3090	19
313.4458	1
313.6199	3
313.7911	5
313.9788	8
314.1651	5
314.3170	6
314.6409	4
314.9240	13
315.1826	28
315.3769	12
315.8191	1
315.9431	3
316.1775	10
316.3230	4
316.7316	8
317.0764	18
317.3818	4
317.7382	5
317.9913	6
318.2380	9
318.5671	4
319.1007	26
319.5132	4
319.8302	3
320.1258	11
320.5691	5
320.6638	2
321.1137	17
321.6999	3
321.8148	5
322.1441	9
322.6630	7
323.0872	20
323.4720	7
323.7433	5
323.9084	6
324.0973	8
324.3184	4
324.7751	4
325.1649	33
325.6016	2
325.7603	0
325.9018	3
326.1309	4
326.3384	5
326.7600	3
326.8786	5
327.1918	22
327.4583	3
327.8850	5
327.9878	7
328.2278	9
328.4915	5
328.6064	5
328.8967	6
329.2151	23
329.8015	3
330.1875	13
330.9012	10
331.1629	25
332.0278	11
332.1659	5
332.2924	4
333.1755	45
333.6739	3
333.8501	2
334.1162	31
334.2788	17
334.8413	5
335.1693	15
335.4456	9
335.6118	7
335.7226	4
335.8989	4
336.1622	10
336.3400	4
336.4278	3
336.9373	4
337.1646	17
337.4749	4
337.6850	5
337.8419	0
338.0895	5
338.3247	3
338.4490	4
338.6086	1
339.1591	14
339.6371	3
339.9174	2
340.2553	10
341.1590	18
341.4423	4
341.5833	6
341.9665	2
342.0931	4
342.3527	3
342.9518	1
343.1546	14
343.4071	9
343.5272	4
343.9530	7
344.2350	4
344.4005	4
344.5746	1
345.1825	39
345.8258	4
346.1582	13
346.3907	3
346.5375	5
346.8052	3
347.2263	43
347.8388	1
348.0943	14
348.2239	16
348.4571	7
348.6688	5
349.2217	83
349.4478	16
349.6487	3
349.9396	4
350.2240	11
350.3493	2
350.8448	4
350.9744	7
351.2164	10
351.5808	4
352.0267	6
352.2154	14
352.3515	5
352.7910	5
352.9350	9
353.2009	11
353.7455	2
354.2103	3
354.3177	4
354.5994	3
354.7421	3
355.1471	15
356.2001	3
356.6592	3
357.1119	15
357.3145	12
357.4911	8
358.1970	10
358.2986	5
358.4399	2
358.5712	2
358.8055	2
359.2252	27
359.5338	4
359.9168	7
360.0668	7
360.2637	14
360.7816	3
361.1646	22
361.3146	28
361.4560	9
361.8282	2
362.2063	14
362.3693	12
362.4818	6
363.0656	5
363.1695	6
363.2986	10
363.3888	5
364.1429	8
364.4402	3
364.6351	4
365.0558	4
365.1807	12
365.3092	9
365.5019	3
366.1480	3
366.6220	4
367.0564	5
367.2812	4
367.4116	6
368.1932	4
368.4361	4
369.0349	3
369.2381	15
369.3620	5
369.5458	1
370.2347	3
370.4690	0
370.8084	2
371.1119	15
371.3000	14
371.4233	5
371.5213	5
372.1961	10
372.3359	8
372.6697	2
372.8788	4
373.2429	15
373.5039	5
374.2380	13
374.5149	4
375.2390	16
375.3897	7
376.0410	6
376.1838	3
376.3995	1
376.8648	2
377.1360	12
377.4023	6
377.9708	1
378.1374	4
378.8503	4
379.0668	4
379.3352	6
379.5820	4
380.2214	4
380.3088	3
381.1758	16
381.5047	3
381.6858	4
381.9173	1
382.1150	2
382.2953	7
382.7758	2
382.9735	4
383.1538	21
383.3407	14
384.0536	3
384.2982	11
384.6749	4
385.2154	10
385.4276	7
385.9307	5
386.2107	12
386.3883	13
387.0899	6
387.2220	10
387.3447	4
387.5562	5
387.8760	4
388.3143	4
388.5099	3
389.1468	4
389.2435	4
389.3706	3
389.5020	5
390.3505	5
390.5332	3
391.4013	4
391.7993	3
392.1121	3
392.2399	1
392.7528	0
393.0114	3
393.1971	4
393.3177	3
393.8119	4
394.0619	7
394.3299	12
394.8899	5
395.1399	6
395.2447	4
395.3769	4
395.6558	4
396.1667	6
396.2860	7
396.3742	5
396.9820	7
397.2632	13
397.8139	4
398.0676	7
398.1746	4
398.3401	12
398.8881	3
399.2554	35
399.3862	14
399.5012	4
399.6487	8
399.9169	1
400.3109	17
400.4678	8
400.7368	3
401.2206	18
401.4397	6
401.6053	1
401.7499	4
402.0052	3
402.2583	11
402.4044	4
403.0308	7
403.1956	6
403.3613	2
403.5291	2
404.0304	4
404.5903	3
405.0388	3
405.3217	5
406.0987	4
406.4786	4
407.1754	5
407.3918	5
407.9844	1
408.1140	4
408.9687	3
409.2380	5
409.3379	4
409.4305	4
409.6426	1
409.7642	4
409.9835	6
410.1681	8
410.3324	3
410.5025	3
410.6509	8
411.1019	13
411.3025	8
411.4494	11
411.5819	5
412.0706	3
412.3429	9
412.5898	4
412.7114	4
412.8939	7
413.0589	10
413.3011	26
413.4991	6
414.2865	26
414.5359	11
414.7557	4
415.2177	13
415.3653	6
415.5670	4
415.9199	5
416.3567	3
416.6532	1
417.1797	5
417.3807	2
418.0570	4
419.0364	3
419.1463	4
419.2924	7
419.5153	4
420.2040	8
420.3559	3
420.4615	4
421.1677	4
421.3855	4
422.3088	4
423.0483	5
423.2951	2
423.4500	4
423.5767	2
424.0587	7
424.2664	4
424.6971	3
425.3116	16
425.4636	1
425.7929	5
426.0869	13
426.3308	18
426.5067	10
426.7521	5
426.8607	3
427.2444	14
427.4689	13
427.6723	3
428.3167	16
428.6288	6
429.1958	12
429.4710	4
430.1119	4
430.5211	6
431.2029	2
431.4704	3
432.0459	9
432.3561	7
432.4747	1
433.4329	3
434.1264	4
434.3687	4
434.6891	5
434.8605	4
435.2142	4
435.3632	7
435.5592	6
436.2602	5
436.4953	5
437.1413	6
437.3011	5
437.5045	9
437.6151	4
437.9610	3
438.2561	3
438.6968	4
438.9052	2
439.1063	6
439.3654	14
439.7156	6
439.9522	4
440.2728	4
440.4660	3
440.6252	5
440.8097	4
441.2997	32
441.6152	7
441.8367	4
442.0408	5
442.3108	4
443.0476	6
443.8460	3
444.0437	4
444.3998	11
445.0109	7
445.2701	4
445.5147	1
445.8065	5
446.2381	17
447.2163	57
447.8231	3
448.1599	3
448.3568	8
448.9297	4
449.1629	4
449.3193	6
449.8220	3
450.2066	5
450.3145	3
450.4130	4
451.0541	2
451.3257	3
452.1103	4
452.3290	7
453.1021	5
453.2810	7
453.7722	1
454.0563	7
454.2700	2
454.4207	7
454.5200	4
454.8975	5
455.2758	10
455.4214	5
455.5895	3
455.7156	2
455.8482	2
456.0606	7
456.2360	15
456.3534	7
456.5773	6
456.9839	3
457.3064	27
457.5021	15
458.1319	4
458.3842	5
458.5509	4
458.8082	3
458.9075	4
459.1525	4
459.2866	5
459.3693	3
460.0347	6
460.3987	4
460.5777	5
460.7343	1
460.9823	2
461.1331	4
461.2875	3
461.4398	9
462.2061	5
462.3932	7
462.4838	4
462.6753	3
462.9675	0
463.3859	5
463.7035	4
464.3351	4
464.6506	5
464.8631	1
465.0429	4
465.2373	4
465.4186	10
465.5797	4
466.2684	1
466.4320	4
466.7968	1
467.0907	7
467.3028	6
467.6538	3
469.0590	7
469.1748	5
469.2971	7
469.7902	7
470.1522	7
470.5156	5
470.6481	4
470.9327	4
471.0898	7
471.3215	7
471.7552	4
472.0188	3
472.1340	7
472.3121	10
472.5098	6
472.8016	12
473.1195	11
473.3325	15
473.6352	13
473.8488	8
474.0444	4
474.3319	4
474.4644	4
474.7505	4
475.2959	4
475.4060	3
475.8464	4
476.0449	4
476.1869	5
476.7106	4
476.9902	4
477.1735	4
477.2807	4
477.3778	3
477.5574	4
478.0848	4
478.1645	2
478.4384	7
478.7912	6
479.0136	4
479.2332	7
479.3882	7
479.6288	4
479.9077	1
480.2976	4
480.5208	5
480.8620	3
481.2946	8
482.2708	3
482.3708	5
482.9499	4
483.2130	6
483.3905	2
483.6630	9
483.8109	3
484.0182	4
484.1754	5
484.3951	7
484.7850	7
484.9518	9
485.1620	9
485.3395	8
485.5570	2
486.2725	10
486.5262	4
486.7096	4
486.9735	6
487.1272	8
487.3636	10
487.6238	7
488.2908	8
488.4532	11
489.1913	2
489.2936	5
489.4430	4
489.5800	0
489.8389	3
489.9571	1
490.1978	6
490.5089	3
491.3036	6
491.4066	7
491.5995	4
491.6888	3
491.9244	5
492.4662	5
492.6823	1
493.0399	8
493.3967	7
494.1834	4
494.3138	5
494.7072	0
494.9607	7
495.0803	6
495.3099	12
495.4961	8
495.9359	5
496.2416	3
496.4973	7
496.6220	3
496.9299	4
497.3422	7
497.4617	3
497.6660	4
497.8407	2
497.9595	5
498.3493	36
498.5812	11
498.8827	8
499.0841	14
499.2964	12
499.4790	4
500.2603	17
500.4146	7
500.8589	4
501.3271	5
501.4169	5
501.5206	2
502.1866	13
502.2888	4
502.4164	14
502.5382	5
503.4928	8
503.8023	5
504.1242	1
504.3996	4
504.6613	1
504.7969	1
505.5131	4
505.6820	4
505.7843	4
506.0076	2
506.1787	3
506.3150	2
506.5187	6
506.7297	4
507.0596	4
507.3518	10
507.5802	7
507.7970	5
507.9130	2
508.3930	39
508.6308	13
509.2080	8
509.5140	4
510.0275	6
510.1689	4
510.8926	4
511.2792	7
511.4257	6
512.3947	5
512.5796	3
512.8618	6
513.2448	7
513.3484	5
513.4797	9
513.8424	6
514.0912	9
514.1985	5
514.3582	3
514.4728	1
515.2098	2
515.3846	5
515.5152	4
516.0861	6
517.0895	2
517.3623	4
517.4551	5
518.8011	4
518.9084	3
519.3990	4
520.3401	15
520.5564	16
520.7495	5
520.8793	5
521.1141	3
521.2321	4
521.5015	6
521.9779	4
522.2675	2
523.2357	1
523.4739	4
523.6224	3
523.7861	5
524.3654	4
524.5190	4
524.6609	4
524.9955	3
525.2374	8
525.3272	7
525.5018	2
526.0580	4
526.2659	8
526.5570	9
526.7026	5
527.1430	5
527.2864	4
527.4725	9
527.5725	4
527.8753	1
528.0375	7
528.2266	5
528.3896	4
528.6062	2
528.7431	3
528.8822	4
528.9938	5
529.1227	2
529.2676	4
529.5660	4
529.7399	4
529.9283	5
530.0290	4
530.9084	6
531.1751	3
531.7330	4
532.2430	4
532.4626	2
532.5916	4
533.0328	4
533.3336	2
533.7495	3
534.0197	4
534.1487	1
534.4139	4
534.5270	3
534.6763	5
534.9379	3
535.1495	5
535.5560	4
535.6495	2
535.9923	3
536.3786	2
536.4800	1
536.7308	4
537.0453	0
537.3454	6
537.4708	4
537.6223	4
537.7237	2
537.9636	2
538.2021	4
538.4348	8
538.9762	7
539.1574	4
539.2973	9
539.4756	4
539.8533	4
539.9801	6
540.0743	3
540.3969	10
540.6485	4
541.0247	10
541.4611	18
541.8410	4
542.0918	9
542.2513	12
542.3340	6
542.5377	12
543.2098	13
543.4200	5
543.5534	6
543.6774	1
543.9109	4
544.2125	4
544.4329	5
544.5315	4
544.6221	4
544.8056	5
545.0782	7
545.2646	4
545.6307	3
545.9636	4
546.4893	3
546.8207	4
547.2384	4
547.7758	2
548.1166	4
548.7004	4
548.9042	3
549.0790	5
549.2480	11
549.4946	15
550.2184	4
550.4462	3
550.7515	3
550.9445	5
551.2258	4
551.3593	6
551.4863	4
551.7858	5
552.3371	7
552.4684	3
552.6019	4
552.7912	2
553.1053	5
553.2359	5
553.3998	11
553.5601	10
553.8315	4
554.0593	7
554.4416	5
554.6063	8
554.7397	4
555.0510	6
555.2004	2
555.3194	4
555.5537	7
555.8367	8
556.1174	9
556.3010	12
556.4541	12
556.8162	9
557.0868	11
557.2515	8
557.5178	7
557.6861	4
557.8225	5
558.1592	6
558.2862	4
558.5997	8
559.0517	8
559.1714	4
559.3035	16
559.5713	7
559.9022	5
560.3754	11
560.5212	9
560.8528	5
560.9356	4
561.1257	7
561.4327	8
561.6874	8
561.9269	10
562.0648	8
562.2753	9
562.4633	10
562.5518	4
562.7507	8
562.8871	11
563.0446	6
563.2812	9
563.5571	13
563.9526	10
564.1108	13
564.5224	24
564.6298	10
564.8389	7
565.0798	12
565.3528	5
565.6278	22
565.7292	7
565.8624	8
566.1449	4
566.3817	12
566.5316	14
566.7489	7
567.4341	49
567.8390	6
568.0548	5
568.2228	9
568.4177	7
568.7161	5
568.9291	9
569.2210	8
569.3680	9
569.4825	7
569.6042	9
569.8773	8
570.1156	4
570.3633	12
570.6046	9
570.7640	4
570.8878	3
571.0697	10
571.2645	8
571.4565	10
571.6934	10
571.9658	8
572.3114	16
572.5352	16
572.8257	15
573.0475	9
573.2525	16
573.3996	13
573.5350	8
573.6793	14
573.8807	19
574.2357	16
574.4632	21
574.6689	23
574.9001	17
575.1131	23
575.5095	28
575.8399	23
576.2036	34
576.4014	26
576.7355	34
576.9899	24
577.3036	26
577.5333	37
577.7826	41
578.4508	44
579.3502	49
581.4838	115
582.5073	702
583.4960	57
583.7830	51
584.4478	74
585.4670	397
585.9766	42
586.2231	37
586.7103	32
587.0322	25
587.2845	19
587.6093	13
587.8528	21
588.0646	21
588.2900	11
588.8186	23
589.1108	37
589.4320	18
589.6227	28
590.2177	30
590.6385	24
590.9472	24
591.3058	20
591.5666	30
591.8766	24
592.3954	29
592.6758	34
592.9149	38
593.3547	46
593.7510	34
593.9705	38
595.6935	69
600.4627	999
601.2114	808
602.0029	409
602.7806	187
604.0027	94
604.6979	54
605.0814	47
605.7229	28
606.1956	18
606.6907	18
606.8270	17
607.0923	9
607.3294	15
607.4650	5
607.6513	16
607.8521	10
608.0928	9
608.2929	9
608.4372	8
608.6663	1
608.7802	3
608.9744	6
609.2311	4
609.4385	6
609.9445	5
610.3615	4
610.5819	2
611.0706	3
611.2004	4
611.3904	4
