Mass spectrum: Anhydrolutein-II; FAB-EBEB; MS2; m/z: 550.42; [M]+*
Name: Anhydrolutein-II
Formula: C40H54O
Exact mass: 550.41747
SMILES: C(=CC=CC=C(C=CC=C(C)C=CC(=C(C)2)C(C)(C)CC(C2)O)C)(C)C=CC=C(C=CC(C(C)(C)1)C(C)=CC=C1)C
InChI: InChI=1S/C40H54O/c1-30(18-13-20-32(3)23-25-37-34(5)22-15-27-39(37,7)8)16-11-12-17-31(2)19-14-21-33(4)24-26-38-35(6)28-36(41)29-40(38,9)10/h11-27,36-37,41H,28-29H2,1-10H3/b12-11+,18-13+,19-14+,25-23+,26-24+,30-16+,31-17+,32-20+,33-21+/t36-,37+/m1/s1
Instrument: JMS-HX/HX 110A, JEOL
Instrument type: FAB-EBEB
Ms type: MS2
Ion mode: POSITIVE
Collision energy: 3 kV
Ionization: FAB
Base peak: 104.9618
Precursor m/z: 550.42
Precursor type: [M]+*
m/z	relative intensity
11.9639	0
12.9693	1
13.9366	1
14.9777	3
16.8063	0
18.9841	0
22.9225	0
23.9465	0
24.9486	1
25.0264	0
25.9523	7
26.9572	59
27.9607	4
28.9690	63
29.9263	1
30.9398	4
33.2760	0
35.0173	0
35.8037	0
35.8980	0
36.1935	0
36.3106	0
36.4352	0
36.9291	6
37.6103	0
37.9382	17
38.2877	0
38.6958	0
38.9433	144
39.2291	0
39.5458	0
39.6891	0
39.9577	15
40.1708	0
40.9611	290
41.1731	0
41.5792	0
41.9478	4
42.4141	0
42.9624	169
43.9427	3
44.9457	5
47.9240	0
48.0071	0
48.2054	0
48.9161	3
49.0205	0
49.1536	0
49.2403	0
49.3618	0
49.4903	0
49.5632	0
49.9315	43
50.0988	0
50.7299	0
50.9380	88
51.1222	0
51.3804	0
51.4431	0
51.6093	0
51.9462	29
52.0776	0
52.9503	167
53.8124	0
53.9579	5
54.4886	0
54.5605	0
54.9609	359
55.1569	0
55.2828	0
55.4734	0
55.5892	0
55.9702	5
56.9746	110
57.1931	0
57.4180	1
57.4977	0
57.6588	0
57.9719	2
58.9618	20
59.9081	0
60.4446	0
60.6367	0
60.9209	4
61.1052	0
61.2524	0
61.5075	0
61.9257	23
62.3268	0
62.9349	68
63.1187	1
63.2718	0
63.3646	0
63.5524	0
63.7064	0
63.9423	16
64.3184	0
64.6807	0
64.9410	125
65.1941	1
65.3128	1
65.4256	1
65.5791	0
65.6465	0
65.9479	21
66.2079	0
66.4928	0
66.9517	204
67.7353	0
67.9501	4
68.5801	0
68.9602	234
69.1927	1
69.2615	0
69.4422	0
69.9674	2
70.9454	27
71.3296	0
71.7023	0
71.9534	0
72.3450	0
72.5824	0
72.8930	1
73.0665	0
73.2445	0
73.4815	0
73.9102	19
74.2486	0
74.9208	24
75.0568	2
75.2791	1
75.4462	1
75.9197	18
76.1736	2
76.2984	0
76.9277	375
77.1428	3
77.2769	2
77.6622	2
77.9359	74
78.1244	1
78.2990	1
78.5374	1
78.9414	416
79.2648	0
79.3571	0
79.4881	0
79.9527	36
80.1013	0
80.3656	0
80.6273	1
80.9528	358
81.3443	1
81.4637	0
81.9465	8
82.1101	0
82.4001	0
82.4966	1
82.9588	71
83.2053	0
83.3989	0
83.9528	2
84.3378	0
84.6545	0
84.9453	93
85.2392	0
85.3569	0
85.9061	8
86.1129	0
86.3683	1
86.9138	12
87.6001	0
87.7019	0
87.9159	6
88.0842	1
88.3213	0
88.5070	2
88.9365	34
89.2217	3
89.4365	3
89.9290	11
90.1263	3
90.3564	2
90.5182	2
90.9410	814
91.2328	1
91.4543	1
91.5755	2
91.9491	76
92.1686	1
92.4958	2
92.9634	548
93.3316	2
93.4097	1
93.5180	1
93.6437	0
93.9619	24
94.2594	0
94.4712	1
94.9729	238
95.4100	1
95.5600	1
95.9546	5
96.2300	0
96.5062	1
96.9645	18
97.2562	0
97.4273	1
97.5009	0
97.9233	4
98.9360	3
99.9419	1
100.1255	0
100.4332	0
100.5771	0
100.9268	12
101.2119	2
101.3672	1
101.4690	1
101.9453	39
102.2133	1
102.4933	2
102.9515	125
103.1368	2
103.3116	2
103.4633	1
103.5755	1
103.9561	61
104.1589	1
104.2890	1
104.9618	999
105.3575	1
105.5264	1
105.6201	1
105.9732	82
106.2598	1
106.4084	1
106.9745	402
107.3755	1
107.5458	1
107.9638	17
108.2044	0
108.3149	0
108.9857	179
109.4047	1
109.6167	1
109.9557	3
110.2555	0
110.5042	1
110.9654	17
111.3511	0
111.9521	2
112.2152	1
112.5927	2
112.9446	8
113.3848	3
113.9338	12
114.1563	2
114.9329	353
115.4417	2
115.9407	137
116.9440	371
117.3386	2
117.9462	62
118.2587	1
118.9542	844
119.1988	3
119.4290	2
119.5300	1
119.9605	75
120.2962	1
120.4869	3
120.9652	399
121.3068	2
121.5704	1
121.9518	12
122.3315	0
122.4310	0
122.5973	1
122.9634	36
123.1772	0
123.2981	0
123.4858	1
123.7374	1
123.9679	2
124.1576	1
124.5427	0
124.9584	9
125.2214	1
125.4474	1
125.5613	0
125.9172	13
126.1428	1
126.3941	2
126.9206	125
127.9215	397
128.2638	4
128.9242	495
129.3710	2
129.9306	193
130.2186	1
130.9376	558
131.3799	2
131.9403	75
132.9484	355
133.2527	1
133.4230	2
133.6463	2
133.9638	24
134.2976	1
134.4257	1
134.9543	123
135.3624	1
135.5795	1
135.9564	3
136.1082	1
136.3396	0
136.4223	0
136.9447	26
137.1479	1
137.2493	0
137.4872	0
137.7783	1
137.9644	4
138.3280	0
138.5087	1
138.9208	45
139.2080	1
139.2903	0
139.5027	2
139.9035	14
140.0981	6
140.9251	340
141.2700	3
141.9335	316
142.1824	3
142.9409	570
143.2679	4
143.5191	3
143.9464	159
144.2288	3
144.4914	3
144.9558	588
145.2784	3
145.4809	3
145.9644	45
146.2175	1
146.9727	134
147.2604	2
147.4969	1
147.9558	10
148.3399	2
148.4405	1
148.9697	48
149.4242	1
149.9145	7
150.2117	1
150.9465	32
151.9231	120
152.3925	5
152.9425	170
153.3151	2
153.9590	96
154.2120	2
154.9613	351
155.2925	2
155.5125	1
155.9740	214
156.3633	3
156.9805	475
157.9797	86
158.9955	237
159.4053	2
159.6664	1
160.0108	24
160.2253	1
160.4071	1
161.0137	53
161.3490	1
161.9630	7
162.3409	2
162.4610	1
162.9933	22
163.9821	13
164.2029	4
164.9728	257
165.2185	4
165.3231	2
165.9763	87
166.2269	3
166.3305	1
166.9827	223
167.3519	2
167.9869	85
168.2305	2
168.9950	310
169.2919	2
169.4901	2
169.9988	108
170.2864	2
171.0077	232
171.2657	2
171.4946	3
172.0154	31
172.2222	3
172.4760	3
173.0130	218
173.5025	2
173.9909	12
175.0159	66
175.2702	2
175.4425	2
175.9601	18
176.3457	1
176.9731	27
177.9555	129
178.5256	3
178.9666	222
179.3592	2
179.4886	2
179.9693	97
180.5096	4
180.9734	236
181.3359	3
181.9851	95
182.9852	240
183.4127	2
183.9886	47
184.2769	2
184.4323	3
184.9957	106
185.2215	3
185.3284	2
185.9766	21
186.3350	1
186.9977	48
187.2961	1
187.5921	2
187.9650	7
188.2379	3
188.3552	2
188.9475	57
189.2841	2
189.9453	27
190.1884	3
190.4746	2
190.9469	98
191.9645	87
192.2406	2
192.9633	180
193.3161	2
193.9647	84
194.2636	3
194.4707	2
194.9730	218
195.2708	2
195.4747	2
195.9799	66
196.2296	2
196.5334	3
196.9899	167
197.6506	3
197.9978	20
198.3065	2
198.9979	78
199.2596	2
199.5336	2
199.9786	11
200.2578	2
200.9977	27
201.9400	55
202.2459	2
202.9491	65
203.2818	1
203.3741	0
203.9627	31
204.1688	2
204.3808	2
204.9606	87
205.2592	2
205.4746	2
205.9699	64
206.2422	2
206.5029	3
206.9804	151
207.9959	57
208.2193	2
208.9950	153
209.3428	2
209.5553	2
209.9927	21
211.0109	68
211.3687	2
211.6320	1
212.0178	14
212.9974	23
213.3887	1
213.6171	2
214.0078	8
214.9661	58
215.4110	1
215.9710	33
216.4518	2
216.9977	72
217.4033	1
217.6133	1
217.9962	26
218.3253	1
218.4859	1
218.9971	78
219.3894	2
220.0128	40
220.3915	2
221.0243	103
221.3856	2
222.0277	34
222.4622	2
223.0472	73
223.4193	1
223.5855	1
224.0333	16
224.3814	1
225.0484	35
226.0175	15
226.3465	2
226.5776	3
227.0241	18
227.3535	1
227.5612	2
227.9975	22
228.2398	2
228.5036	1
229.0032	46
229.2977	1
229.6319	1
230.0105	25
230.3142	1
230.5254	3
231.0170	51
231.3234	1
232.0296	26
232.5051	0
233.0329	62
233.3604	1
234.0280	18
234.3707	2
235.0398	57
235.3820	2
235.5413	2
236.0272	13
236.3571	1
237.0495	42
237.3436	1
237.4841	1
238.0193	6
238.2703	2
238.4866	2
239.0214	28
239.4863	1
240.0291	9
240.3496	1
240.5112	1
241.0117	23
241.5331	1
241.7046	2
242.0227	14
242.3479	1
243.0189	34
243.3934	1
243.4733	1
243.7326	3
244.0221	18
244.2762	2
244.4013	1
244.5467	1
244.6437	1
245.0387	40
245.4685	2
245.5615	0
246.0405	18
246.3420	1
247.0316	41
247.4151	2
247.5082	1
248.0623	13
248.2511	1
249.0631	33
249.3551	2
249.4725	1
249.5853	1
250.0512	9
250.2789	1
251.0671	28
251.7083	2
252.0515	13
252.2680	1
252.4780	1
253.0228	16
253.5177	1
253.7376	0
254.0094	7
254.1460	3
254.3121	2
254.4467	2
255.0345	23
255.3517	1
255.5843	1
255.7596	1
256.0316	11
256.3516	0
256.5034	2
256.5842	1
256.7800	2
257.0501	30
257.4385	1
257.7001	1
258.0320	16
258.3462	0
258.4830	1
258.6802	1
259.0543	29
259.3358	1
260.0263	11
260.3289	0
260.6440	3
261.0571	29
261.5374	1
262.0731	7
262.3995	1
262.5726	1
263.0610	23
263.4659	1
264.0862	7
264.2837	1
264.5115	2
265.0832	24
265.3783	1
265.5937	1
266.0469	9
266.2519	2
266.3876	1
266.5839	1
267.0531	20
268.0477	8
268.2982	0
268.4465	0
268.5494	0
269.0676	19
269.4700	1
269.6286	0
270.0691	9
270.3963	1
271.0760	21
271.4079	1
271.5423	1
271.6918	0
272.0640	9
272.2307	1
272.3928	1
272.6141	1
273.0688	20
273.5815	1
274.0626	9
274.1885	4
274.3875	2
274.5569	2
275.0646	19
275.6395	1
276.0925	8
276.3748	1
276.6069	1
277.0811	13
277.4255	0
277.5693	1
278.0648	5
278.2693	1
278.5629	0
279.0578	12
279.4888	0
279.6974	0
280.0531	5
280.5027	1
281.0361	16
281.5241	1
281.7763	0
282.0649	8
282.2842	1
282.4566	1
282.6237	1
283.0834	19
283.5756	1
283.7520	1
284.0909	8
284.4900	2
284.7662	1
285.0992	19
285.4404	1
285.5869	0
286.0509	4
286.3407	0
286.5209	1
286.6140	1
287.0656	11
287.4413	1
287.6288	1
287.8058	1
288.0924	6
288.3876	1
288.5560	1
288.6821	0
289.0619	12
289.5626	1
290.0587	4
290.4274	1
290.7102	1
291.0882	8
291.3723	1
291.6156	0
292.0835	5
292.2805	1
292.5779	2
293.0605	10
293.3514	0
293.4255	0
293.6073	0
293.7898	0
294.0239	3
294.1488	2
294.3274	0
294.5793	1
294.6475	1
295.0621	8
295.3994	0
295.6277	0
295.8268	1
296.0596	6
296.2323	2
296.5638	0
297.0818	15
297.3445	0
297.4921	1
297.6277	0
297.7303	0
298.0936	4
298.3438	1
298.5721	0
298.7025	0
299.0567	7
299.4525	0
300.0080	3
300.1556	2
300.5907	0
301.0767	9
301.3562	1
301.5794	0
302.0430	4
302.2305	1
302.4782	1
302.6326	1
303.0844	9
303.4004	0
303.5475	0
304.0550	5
304.3638	0
304.5567	0
305.0902	5
305.7126	1
305.8405	1
306.0440	3
306.1640	1
306.3416	0
306.5180	1
306.6797	1
307.0676	6
307.3322	2
307.4681	1
307.7267	0
308.1021	2
308.6956	1
309.0724	7
309.3615	0
309.4697	1
309.5685	1
310.0793	5
311.0646	6
311.2265	3
311.5530	1
311.8085	1
312.0819	3
312.3786	0
312.4994	1
313.0848	7
313.4539	0
313.6457	0
313.9385	2
314.1291	2
314.5746	0
314.7658	0
315.1204	7
315.3913	1
315.5999	1
316.1278	2
316.3205	1
316.4015	0
316.6413	1
317.0936	9
317.5553	1
317.7500	1
318.1088	3
318.5745	1
319.0942	7
319.3573	1
319.4856	0
319.6989	1
319.8631	1
320.1210	2
320.3144	1
320.4314	0
321.0808	5
321.2423	2
321.3534	1
321.6339	1
322.0687	1
322.2622	1
322.3719	1
323.1027	3
323.3308	1
323.5423	0
323.6939	0
324.0391	2
324.2061	1
324.4495	0
324.6198	0
325.1147	4
326.1133	2
326.2803	1
326.4287	1
326.5504	0
326.9597	4
327.1587	6
327.4089	1
327.6039	0
327.7368	1
327.8510	1
328.0695	3
328.2767	2
328.3876	0
328.5504	1
328.7516	0
329.1296	6
329.4272	1
329.6438	0
329.8012	1
330.0477	2
330.1866	3
330.3959	1
330.6968	2
331.1553	9
331.7122	1
332.1436	3
332.3290	1
332.5889	1
333.1073	3
333.3280	1
333.8651	1
334.0533	2
334.1470	1
334.3119	1
334.4735	0
334.6756	0
335.1011	5
335.4257	1
335.6584	0
336.1485	5
336.4817	0
336.7271	0
337.1322	6
337.6271	1
337.7488	1
338.0934	3
338.2917	1
338.4473	1
338.5671	0
338.9164	1
339.1432	4
339.4560	1
339.6190	1
339.8819	1
340.1068	2
340.2718	1
340.7357	0
341.0904	4
341.2581	2
341.6961	0
341.8645	1
342.0755	3
342.2419	2
342.3318	0
342.4483	0
343.1340	7
343.3810	0
343.5275	1
344.1361	6
344.4384	1
344.5296	1
344.6801	0
345.1569	6
345.3214	1
345.5785	0
346.1420	3
346.3931	1
346.5663	0
346.8680	1
347.1651	6
347.5775	1
347.7127	0
347.8653	1
348.1358	4
348.2664	2
348.4563	1
348.7661	0
348.8714	1
349.1526	6
349.3592	1
349.7684	0
350.1669	4
350.7907	0
351.2140	3
351.8733	2
351.9906	1
352.2479	2
352.5406	0
352.6659	0
352.9513	2
353.1293	1
353.3627	1
353.8481	1
354.0141	2
354.1635	1
354.3427	1
354.4500	0
354.6638	1
354.7597	1
355.1388	3
355.3280	1
355.4785	0
355.6318	0
356.0089	1
356.1388	1
356.2967	0
356.7372	0
357.1543	5
357.3582	2
357.5874	1
358.1719	5
358.3279	1
358.4625	2
358.8871	0
359.2697	3
359.4470	1
359.7449	0
360.1682	2
360.2856	1
360.5489	1
360.8176	1
361.1483	4
361.4397	0
361.7464	1
361.8511	1
362.1618	7
362.6019	1
362.7967	0
363.1614	3
363.3989	1
363.6370	0
363.8611	0
364.1932	4
364.3273	2
364.4574	0
365.1671	2
365.4520	1
365.5814	1
365.6695	0
365.7515	0
366.1271	1
366.3460	1
366.6356	0
366.7803	0
367.0085	2
367.1833	2
367.3088	1
367.4329	2
367.6338	0
367.8200	0
368.1003	1
368.2736	1
368.3609	0
368.5868	1
369.1686	3
369.2659	2
369.3565	0
369.5031	1
369.6664	1
369.8217	0
370.0130	0
370.1730	1
370.2863	1
370.8682	0
371.0149	1
371.2082	2
371.4655	1
371.6702	1
371.7589	0
371.9629	1
372.1182	1
372.2482	1
372.5036	1
372.7096	1
373.1503	4
373.5824	0
373.6965	0
374.1386	4
374.3173	3
374.4527	1
374.6915	0
375.1790	5
375.4391	1
375.6072	0
375.8080	0
376.1815	6
376.4103	0
376.5497	1
376.7712	0
377.1555	4
377.5964	0
377.7679	0
377.9887	1
378.1349	1
378.3090	0
378.4371	1
378.5499	0
378.9976	1
379.1671	1
379.3326	2
379.6822	1
379.9698	0
380.2341	1
380.5905	1
380.8301	0
381.1758	5
381.2653	2
381.3727	1
381.5243	0
381.9675	1
382.1010	1
382.2118	1
382.2845	0
382.5602	1
382.7125	0
382.9294	2
383.2091	4
383.4955	0
383.6438	0
384.1038	4
384.2854	3
384.7448	0
385.0005	3
385.1841	4
385.3691	2
385.6382	1
385.7885	0
385.8860	0
386.0817	2
386.2733	1
387.0861	1
387.3299	1
387.6198	0
388.1682	2
388.3265	1
388.8970	0
389.0827	0
389.2524	1
389.3794	0
389.7455	0
390.0622	2
390.2339	1
390.4577	1
390.6682	0
391.0270	2
391.1954	2
391.5388	0
392.2205	3
392.3655	2
392.5520	0
392.8400	0
392.9576	0
393.1354	1
393.6868	0
393.8887	0
394.1293	0
394.3332	1
394.4749	1
394.8727	0
395.1407	3
395.2350	1
395.3841	2
395.6388	0
396.1389	2
396.3374	2
396.5554	0
396.7480	1
396.9158	2
397.1338	7
397.2862	6
397.6519	1
397.7804	0
397.8960	0
398.1375	2
398.2766	1
398.8604	1
399.1125	2
399.3064	1
399.5711	0
399.6899	0
399.8334	0
400.0751	0
400.2801	0
400.4289	1
400.5444	0
400.9797	0
401.1700	2
401.3636	1
401.5620	0
401.9071	1
402.1823	4
402.4039	1
402.6537	0
403.1665	4
403.4597	0
403.6808	1
404.2164	4
404.7313	0
404.9097	1
405.1534	4
405.2690	2
405.5389	0
405.7018	0
406.0045	0
406.1487	0
406.3004	1
406.4260	1
406.6010	1
406.8749	0
407.1181	1
407.2924	1
407.5363	1
407.6993	0
408.0100	0
408.1503	1
408.2766	1
408.4777	1
408.6454	0
408.9608	1
409.2040	1
409.4339	1
409.7486	1
409.9464	1
410.2071	6
410.4710	1
410.7464	0
410.9034	0
411.2129	1
411.4140	0
411.6687	0
412.1352	2
412.3565	1
412.5102	1
412.6853	0
412.8017	0
413.1506	3
413.3358	2
413.8198	0
414.1614	4
414.3171	2
414.7531	1
414.9102	1
415.2485	2
415.6517	0
416.1281	3
416.4152	3
416.7958	0
416.9902	1
417.1097	0
417.2953	1
417.4182	1
417.5364	0
417.6834	0
417.8564	0
417.9652	0
418.3011	1
418.5830	1
419.1133	1
419.2877	1
419.4840	2
419.6664	1
419.8474	1
419.9870	1
420.0832	0
420.2195	1
420.4106	0
420.5315	1
420.6430	0
420.7746	1
420.9229	0
421.1120	1
421.3612	1
421.5075	1
421.7894	2
421.9311	0
422.3005	1
422.4783	1
422.5705	0
422.7195	1
423.0582	2
423.3536	1
423.6529	0
423.8013	0
423.9810	1
424.1862	1
424.3058	1
424.4936	1
424.7729	1
425.1846	1
425.5448	0
425.7313	0
425.8429	0
425.9933	1
426.1851	1
426.3328	1
426.5013	1
426.5895	1
426.7359	0
427.2278	5
427.4845	1
427.6075	1
428.1964	24
428.6864	1
429.1645	9
429.7047	0
429.8264	0
430.0236	3
430.1907	2
430.3873	1
430.5672	1
430.6554	1
430.7464	0
430.9182	1
431.0252	1
431.1556	0
431.3094	1
431.4404	0
431.9861	1
432.1285	0
432.3098	1
432.6903	1
433.1123	1
433.2862	0
433.6360	0
433.8667	0
433.9677	1
434.1128	0
434.3001	0
434.5463	1
434.7382	0
435.0706	1
435.2586	1
435.4098	2
435.6018	1
435.7951	1
436.1182	2
436.4634	2
436.6193	2
436.8367	1
436.9792	1
437.1029	2
437.3826	3
437.9988	2
438.1741	1
438.3728	1
438.6505	2
438.8874	1
439.0868	1
439.3624	2
439.5217	2
439.6722	2
439.8804	0
440.1507	1
440.4144	1
440.6573	1
440.8935	1
441.1740	2
441.3279	1
441.6705	1
441.8332	1
442.2287	3
442.5252	1
442.7093	0
443.2287	13
443.5828	1
444.1625	5
444.3279	4
444.6298	0
444.8239	0
444.9725	0
445.1600	1
445.3333	0
445.6186	1
445.8502	0
446.0263	1
446.1408	0
446.4996	1
446.7715	0
446.9636	0
447.1839	1
447.4243	0
448.1234	1
448.2774	1
448.4990	0
448.7187	0
448.9135	0
449.1084	0
449.2946	3
449.5035	0
449.8779	1
450.1049	2
450.3383	2
450.6512	0
450.8585	1
451.0129	0
451.2349	1
451.4208	0
451.6789	1
452.0152	0
452.2586	1
452.3917	0
452.5549	1
452.7555	1
453.1273	1
453.4015	1
453.7171	1
453.9666	0
454.1137	1
454.3551	2
454.5972	1
454.8179	1
454.9698	1
455.2279	2
455.4279	2
455.5543	2
455.7917	1
456.0326	2
456.3389	2
456.5944	1
457.2827	4
458.2588	186
458.7251	3
459.2248	2
459.5553	2
459.7199	1
460.1354	1
460.4532	1
461.0949	1
461.1752	1
461.4228	1
461.7018	0
461.8899	0
462.0103	0
462.1174	0
462.3884	1
463.1908	2
463.3856	1
463.6492	1
463.7623	0
464.1465	0
464.3252	1
465.2033	2
465.4222	1
465.5996	0
465.7181	0
465.8091	0
465.9303	0
466.1425	1
466.4082	0
466.7931	0
467.0495	1
467.2925	1
467.4786	1
467.6774	1
467.8461	0
467.9753	1
468.1521	2
468.3442	1
468.4868	0
468.6750	1
469.1550	3
469.3324	2
469.5708	0
469.7971	0
470.1071	3
470.3073	4
470.5685	2
470.7687	0
471.2568	7
471.4939	2
471.6820	0
471.8401	1
472.5144	0
472.9631	0
473.1118	0
473.2652	1
474.0575	2
474.1693	0
474.4660	0
474.7688	0
475.2176	1
475.3401	2
475.4573	1
475.9108	0
476.3087	1
476.4059	0
476.5485	0
476.8279	0
477.1808	1
477.5072	0
478.1038	0
478.2549	1
478.3532	1
478.4522	0
478.5599	0
478.7866	0
479.2602	1
479.4669	0
479.5638	0
479.7157	1
479.8588	0
480.1551	1
480.4467	2
481.1063	1
481.3003	2
481.5732	0
481.7485	0
481.9057	0
482.0341	0
482.2496	1
482.4329	1
482.5566	0
482.8195	0
482.9641	1
483.2678	1
483.4277	1
483.5575	1
483.7375	1
483.8740	2
484.3135	17
484.8702	0
484.9826	0
485.2663	1
485.5253	0
485.7642	0
486.0278	0
486.3470	0
486.6320	1
487.1145	0
487.2624	1
487.5268	1
487.9390	0
488.5032	0
488.8586	0
489.2119	0
489.4301	1
489.6758	1
490.3103	1
490.5426	0
491.1751	2
491.4543	1
491.9456	0
492.2107	2
492.4035	1
492.6806	0
492.9832	0
493.2530	3
493.5081	2
493.7196	0
494.3275	2
494.7031	1
495.3419	1
495.5903	0
495.7838	0
495.9418	0
496.3040	1
496.4895	1
496.6040	1
496.8069	0
496.9810	1
497.3239	0
498.0163	0
498.2580	1
498.4188	1
498.5935	0
499.0088	0
499.8292	1
500.2169	1
500.9711	1
501.4005	1
502.0602	1
502.2926	1
502.8634	0
503.0622	0
503.3288	1
503.6136	0
503.7760	1
503.8956	1
504.2244	1
504.3788	1
504.5479	0
504.6669	0
504.7839	1
505.2110	1
505.2992	1
505.4857	2
505.8600	1
505.9917	0
506.1394	1
506.3313	2
506.5605	1
506.6474	0
507.1093	1
507.3012	1
507.4369	1
507.5586	1
507.9403	1
508.1175	1
508.3387	0
508.4818	0
508.7111	1
508.9953	0
509.2480	2
509.3784	1
509.5154	1
509.6097	0
509.7140	0
509.8731	0
510.0255	1
510.1185	1
510.3077	0
510.9569	1
511.3822	1
511.5921	0
511.9245	0
512.0308	1
512.1117	0
512.2842	0
512.5323	0
513.0913	1
513.5795	1
513.6558	0
514.1098	1
514.4355	1
514.5399	1
514.9144	0
515.0682	0
515.2802	2
515.5677	0
515.6995	1
516.0400	1
516.5222	0
516.8586	0
517.2151	2
517.4238	1
517.9041	1
518.2532	2
518.4305	2
519.0801	2
519.2667	3
519.5737	2
519.7316	1
519.9343	1
520.1009	5
520.3310	6
520.5150	3
520.6060	1
520.8314	1
520.9606	1
521.2502	2
521.5419	2
521.7620	1
521.9307	0
522.0758	1
522.3026	1
522.4365	0
522.6927	1
522.8439	0
523.0547	0
523.6636	1
523.8897	1
524.0269	1
524.2310	1
524.5314	1
524.6706	1
524.7790	1
524.8928	1
525.0327	1
525.2481	2
525.3913	1
525.5740	1
525.8216	1
526.0625	1
526.4346	2
526.5804	1
526.7477	2
526.8943	2
527.0549	1
527.4156	2
527.7269	3
528.0629	2
528.2570	2
528.4711	2
528.6378	2
528.7455	1
529.0487	4
529.2836	2
529.7214	4
530.1611	4
530.4697	3
530.9061	5
531.4282	5
532.3507	31
532.6613	9
533.3569	17
534.3189	22
535.3593	96
535.8795	7
536.3301	9
536.8136	4
537.2147	4
537.4718	5
537.5769	2
537.7263	3
537.9914	4
539.0997	4
539.6234	6
539.8818	3
540.5127	4
540.8549	4
541.1014	6
541.5534	8
541.7403	4
543.2767	9
550.2919	999
550.8843	614
551.6098	268
552.4758	120
553.3063	62
554.0352	33
554.7855	16
555.3005	11
