Mass spectrum: 3,4-Didehydrorhodopin; FAB-EBEB; MS2; m/z: 552.43; [M]*+
Name: 3,4-Didehydrorhodopin
Class: Natural Product; Carotenoid
Formula: C40H56O
Exact mass: 552.43312
SMILES: C(C=CC(=CC=CC(C)=CC=CC(=CC=CC=C(C=CC=C(C)C=CC=C(CCC=C(C)C)C)C)C)C)C(C)(C)O
InChI: InChI=1S/C40H56O/c1-33(2)19-13-22-36(5)25-16-28-37(6)26-14-23-34(3)20-11-12-21-35(4)24-15-27-38(7)29-17-30-39(8)31-18-32-40(9,10)41/h11-12,14-21,23-31,41H,13,22,32H2,1-10H3/b12-11+,23-14+,24-15+,28-16+,29-17+,31-18+,34-20+,35-21+,36-25+,37-26+,38-27+,39-30+
Instrument: JMS-HX/HX 110A, JEOL
Instrument type: FAB-EBEB
Ms type: MS2
Ion mode: POSITIVE
Collision energy: 3 kV
Ionization: FAB
Base peak: 552.4752
Precursor m/z: 552.43
Precursor type: [M]+*
m/z	relative intensity
0.0862	0
1.1507	0
1.5009	0
2.4166	0
2.7195	0
3.0015	0
3.9264	0
4.3897	0
6.1085	0
6.3678	0
6.6308	0
8.8159	0
9.5504	0
10.3100	0
11.4322	0
12.9905	0
13.9638	1
15.4789	0
17.1885	0
19.3458	0
22.9400	1
24.5088	0
25.8591	0
26.9606	7
28.9782	2
29.2930	0
29.9809	0
30.9503	3
31.2207	0
32.1055	0
34.2801	0
34.9357	0
36.9516	1
37.9729	2
38.9494	10
39.9985	2
40.5005	0
40.9802	27
41.9671	1
42.5518	0
42.9766	12
43.2806	0
47.1157	0
48.7893	0
49.8718	1
49.9589	2
50.9511	4
51.9882	4
52.5082	0
52.9816	8
53.9477	1
54.0164	1
54.9841	17
55.9468	1
57.0256	2
58.0083	1
58.9881	121
59.2579	0
59.9781	0
61.8616	0
62.9506	3
63.7132	0
63.8573	0
63.9887	1
64.3337	0
64.9808	8
65.9505	1
66.9959	8
67.9833	4
69.0035	74
69.3458	0
70.0116	1
70.1248	0
71.0025	1
71.2860	1
72.0597	1
72.9789	1
73.9415	2
74.9459	3
75.4816	0
75.9733	1
76.9683	28
77.6378	1
77.7337	0
77.9914	7
78.6495	1
78.9756	24
79.9962	4
80.6945	1
80.9967	33
81.2083	1
81.3553	1
81.9400	1
82.1545	1
82.6975	0
83.0069	6
83.9887	1
85.0533	2
85.8853	0
86.0341	0
86.9680	2
87.9964	1
88.9795	3
89.4616	1
89.9615	3
90.7202	0
90.9809	64
91.2267	0
91.9812	7
92.7515	2
93.0046	46
93.4039	1
94.0273	2
94.3576	0
94.8357	0
95.0235	31
95.5128	0
96.0113	0
96.1174	0
96.4549	0
97.0052	4
97.3580	0
97.9672	0
98.2434	0
98.9239	1
99.8408	1
99.9412	1
100.9563	5
101.0640	1
101.6050	1
101.9804	2
102.1072	1
102.7053	1
102.9870	10
104.0137	5
104.6530	1
105.0032	92
105.9948	5
106.7138	0
107.0157	34
107.2751	1
107.9475	0
108.0378	1
109.0336	6
109.8808	1
109.9679	2
110.9967	4
111.9608	1
112.7599	1
112.8641	1
112.9773	2
113.1906	1
113.6348	1
113.7392	1
113.8886	1
114.0290	2
114.3963	1
114.9681	40
115.9658	15
116.9805	27
117.9370	4
118.3155	1
118.9939	60
119.4220	1
119.9707	8
120.1511	0
120.3642	0
121.0076	18
121.9378	0
122.9981	5
123.9771	1
124.3331	0
125.9540	4
126.3055	0
126.6125	1
126.7437	1
126.9532	14
127.0967	1
127.5831	1
127.9530	39
128.3084	1
128.3903	0
128.5659	1
128.9534	43
129.2498	2
129.5499	0
129.9605	14
130.1500	1
130.9707	47
131.2752	0
131.5515	1
131.9612	15
132.3865	1
132.9872	57
133.9652	3
134.1298	1
134.9998	9
135.4456	1
135.9738	4
136.1425	1
136.4584	0
136.6377	0
136.9507	2
137.1413	1
137.9317	2
138.9534	7
139.1915	2
139.3224	0
139.6859	0
139.9663	4
140.6188	1
140.9616	27
141.1977	1
141.3145	1
141.6029	1
141.6887	1
141.9716	34
142.6590	0
142.9863	57
143.2086	1
143.5673	1
143.6837	1
143.9984	22
144.2177	2
144.4695	1
144.9977	86
145.3476	0
145.5853	1
145.7027	0
145.9935	7
147.0260	15
147.3053	2
147.7198	0
148.0019	1
148.5099	1
148.9486	1
149.0644	1
149.7514	1
149.9463	2
150.7925	1
150.9888	2
151.2892	0
151.5477	0
151.7717	1
151.9801	11
152.2268	3
152.9761	18
153.9905	8
154.6365	1
155.0153	38
155.2532	0
156.0246	28
156.2539	1
156.4063	0
156.5758	0
156.7000	0
157.0271	50
157.3234	2
158.0456	9
158.3681	2
158.7089	1
159.0505	31
159.7187	1
159.8672	0
160.0941	2
160.4366	2
161.0613	6
161.7427	1
161.9768	2
162.0813	1
162.4661	1
163.0228	4
163.3782	1
163.7387	1
163.8401	2
164.0246	2
164.1266	1
164.2712	1
164.4918	1
164.7626	2
165.0405	21
165.7543	1
166.0406	10
166.2419	1
166.7272	1
167.0431	19
167.4330	1
167.8237	0
168.0384	14
168.3241	1
168.4021	0
169.0529	32
169.3528	1
170.0408	15
170.6436	1
171.0726	26
171.6567	2
172.0568	5
172.6445	1
173.0672	8
173.3253	1
174.0197	3
174.1316	1
174.2309	1
174.9015	2
175.0975	6
175.8577	1
176.0214	4
176.9777	3
177.1357	2
177.2179	2
177.3990	0
177.5494	1
177.7471	1
177.8421	1
178.0289	17
178.4180	1
178.7427	0
179.0209	21
179.6298	0
179.8724	1
180.0320	12
180.4848	1
180.7397	1
181.0316	30
181.2380	1
181.4285	2
182.0395	17
182.6905	1
183.0647	35
183.2573	1
183.3539	1
183.8108	2
184.0515	8
184.6116	0
185.0490	16
185.7127	1
185.8793	2
186.0728	5
186.9094	1
187.0838	8
187.8926	2
188.0774	1
188.6074	1
188.7595	1
188.9906	8
189.2102	1
189.5871	1
189.9692	6
190.0463	3
190.5358	0
190.8295	0
191.0313	14
191.3848	0
191.9055	2
192.0669	7
193.0221	16
193.5974	1
193.7358	0
194.0467	11
194.5321	1
194.8110	1
195.0518	26
195.2856	1
195.7791	1
196.0756	8
196.8168	1
197.0631	20
197.3739	1
197.7325	1
198.0311	6
198.2821	1
199.0855	7
199.5335	1
199.6865	0
200.0481	4
200.6894	1
200.9052	2
201.0951	3
201.2922	1
201.6172	2
202.0141	7
202.3767	3
202.4563	1
202.5894	2
203.0453	7
203.3215	1
203.4987	2
204.0745	3
204.1599	1
204.6789	1
205.0388	10
206.0282	5
206.3035	1
206.3928	0
207.0342	17
207.8028	2
208.0764	4
208.2423	1
209.0827	28
209.4304	0
209.6178	1
209.7586	0
210.0298	3
210.5340	1
210.8417	1
211.1078	11
211.6175	1
211.7246	0
212.1149	3
212.5416	2
212.8164	1
213.1504	4
213.3459	0
213.5188	1
213.9035	1
214.1168	1
214.2175	0
214.7389	1
214.8781	2
215.0179	8
215.1232	2
215.6858	2
215.8257	1
216.0319	3
216.2160	1
216.6220	1
217.0340	8
218.0625	4
219.0883	4
220.0891	5
220.2428	1
221.1254	10
221.4091	1
221.7592	1
221.8623	2
222.0723	4
222.2281	3
222.8361	1
223.1264	12
223.4468	1
223.5689	0
224.1067	5
224.4115	1
224.9227	0
225.1349	6
225.5979	2
225.8174	1
226.1048	4
226.6296	0
226.7690	1
227.0616	3
227.4612	1
228.0824	6
228.1945	2
228.2878	0
228.7221	0
229.0755	3
230.0195	4
230.3131	1
231.0975	7
231.9298	1
232.0278	1
232.1910	2
232.6886	1
233.0955	10
233.3359	1
233.7272	1
233.8357	0
234.1317	3
234.2963	1
234.8983	0
235.1192	7
235.4519	1
235.8187	0
236.1430	3
236.2784	1
237.0226	3
237.1665	10
237.8705	1
238.0923	3
239.0609	4
239.2376	1
239.5322	0
239.9657	1
240.1254	4
241.0436	2
242.0584	2
242.2150	2
242.6757	1
242.8042	1
243.0853	6
243.6091	0
243.9356	1
244.0897	5
244.1782	2
244.3998	1
244.6785	1
245.0963	7
245.2052	5
245.5928	2
246.0882	8
246.2141	2
246.7220	3
247.1283	9
247.2346	4
247.5057	1
248.0656	3
248.2061	1
248.6303	1
249.1149	5
249.3671	1
249.9373	1
250.1311	2
250.4129	1
251.1725	3
251.8475	2
252.0085	1
252.1852	1
253.1880	4
254.1234	2
254.5554	1
255.0893	3
255.5773	2
255.6891	1
255.9956	1
256.1272	2
256.6963	2
256.9614	1
257.1635	4
258.0164	2
258.1645	2
259.1006	3
259.2500	1
259.4857	1
259.9434	0
260.1832	3
260.4506	1
260.8965	1
261.1060	5
261.2918	2
261.9961	3
262.1918	2
263.1020	5
263.3400	2
264.1166	2
264.4667	1
264.9877	1
265.1321	2
265.2323	1
265.4322	0
265.9513	0
266.0661	1
266.2845	0
266.4784	0
267.1574	5
268.1559	2
268.8603	2
268.9494	2
269.1494	5
269.2703	3
269.4512	1
270.1204	3
270.2470	1
270.6703	1
271.1220	4
272.0255	1
272.1938	1
272.3521	1
272.7446	1
273.1028	5
274.1277	4
274.7692	1
274.8887	1
275.1653	2
275.8023	1
276.1523	3
276.5102	1
276.9778	2
277.2023	3
277.3258	1
278.1040	3
278.2401	1
278.6642	1
278.9642	1
279.1532	4
279.6819	1
280.0725	1
280.2152	2
281.1182	1
282.0174	1
282.3904	1
282.9717	1
283.1913	4
284.1598	2
284.3953	1
284.9571	2
285.1013	2
285.1940	2
286.1817	1
286.8620	1
287.0041	1
287.1522	3
287.9907	1
288.1090	1
288.3689	2
288.9761	1
289.1547	2
289.2585	1
290.1318	1
290.3461	0
290.9999	1
291.1872	2
291.9628	0
292.1568	2
293.0432	3
294.1436	1
295.1887	1
295.2787	0
296.0273	0
296.1544	2
296.2604	0
296.4247	0
297.0091	1
297.1788	3
297.9766	3
298.0509	1
298.2815	2
299.1028	4
300.0627	1
300.8047	1
301.0090	1
301.1323	3
301.2371	2
301.3452	1
301.7146	0
301.8546	2
302.1046	1
302.3501	1
303.1156	3
303.2444	2
304.1208	2
305.1382	1
306.1319	0
307.0275	2
307.1132	1
307.2433	1
307.4146	1
308.1431	2
308.2627	2
308.8013	1
309.0211	2
309.2118	1
310.1837	2
311.0189	1
311.1305	1
312.1705	1
312.2390	1
312.3666	0
312.5374	2
313.0060	1
313.1317	1
313.2713	1
314.2938	2
315.1176	3
315.2207	3
316.0301	1
316.2050	3
317.0811	1
317.2341	2
317.6319	1
318.1396	1
318.2267	1
319.1510	2
319.3001	1
320.0868	0
320.4249	2
320.8416	0
321.2903	3
321.4534	1
323.0928	1
323.2586	1
324.1244	4
324.3036	1
324.5121	1
325.8878	0
326.1730	2
326.5015	1
327.1346	2
327.2785	0
327.8830	1
328.1721	0
328.4016	1
328.9207	1
329.0445	1
329.2687	1
329.6301	2
330.0561	1
330.1566	1
330.2618	1
330.3490	1
330.7217	0
331.2443	1
331.3395	2
331.8735	1
332.1631	1
332.3955	1
332.6665	1
333.0234	1
333.2112	2
333.9092	1
334.1942	1
334.7011	1
335.1754	1
335.9156	0
336.7951	1
336.9690	0
338.1805	1
338.2645	1
339.0764	2
339.2497	3
340.1696	1
340.2683	2
340.4177	1
340.5323	1
341.2451	3
342.2100	1
343.0637	1
343.2651	0
344.1877	1
345.2511	0
346.1666	1
346.6905	1
347.4266	1
348.0827	1
348.3056	1
349.3237	3
351.2447	1
352.0968	2
352.2905	1
352.3713	1
353.1228	1
353.3566	1
353.5904	0
354.1388	1
354.2972	2
354.9633	2
355.2046	2
356.2357	2
356.7357	1
357.2604	2
358.2325	1
358.4793	1
359.1341	1
360.1412	1
361.2225	1
361.8889	1
362.1858	2
362.2685	1
362.3906	1
363.1506	1
364.3297	1
365.2520	2
366.4208	0
367.2106	3
367.3414	1
367.5263	0
368.1219	1
368.2474	1
369.1733	3
369.4176	2
370.1218	2
371.0030	1
371.1205	3
372.1567	2
372.3030	0
372.4272	0
373.3126	1
374.2135	1
374.3064	1
375.0885	1
377.1808	1
377.3512	2
377.5890	0
378.2946	1
379.1794	1
380.0388	1
380.1852	1
380.3383	1
381.0829	1
381.2072	3
381.4291	1
382.0468	3
382.1598	1
382.3042	1
382.4413	1
382.7702	0
383.2536	2
383.7477	1
383.9610	1
384.4257	0
386.1745	1
387.1397	1
387.3792	3
388.1217	0
389.0630	1
390.1490	2
391.3341	2
392.3132	2
393.2021	1
393.3962	2
393.6667	1
394.1005	2
394.2504	3
394.3408	2
394.4211	2
395.1904	2
395.3048	2
395.3618	1
396.1538	1
396.2857	1
397.1670	1
397.3062	3
397.4596	2
397.7670	1
398.0262	1
398.2961	5
398.8888	2
399.2612	15
399.5164	5
400.3620	2
400.6817	1
401.3353	3
401.6544	0
402.0411	2
402.1495	1
402.3355	1
402.5850	1
402.9517	0
403.0260	0
403.1752	1
403.2943	2
403.4796	1
404.1896	2
404.2793	1
404.5496	1
405.1734	1
405.4571	0
406.3333	2
408.2745	1
408.5021	2
409.2961	2
409.7327	0
411.2695	2
411.7496	1
412.1856	1
412.2820	1
412.3618	1
412.7783	2
412.9042	2
413.3008	1
413.4354	3
414.3799	2
414.5755	1
415.0169	1
415.2460	3
415.4249	1
415.6058	1
416.3970	3
416.6940	2
417.1353	0
417.2870	0
417.4636	0
418.2292	2
418.8316	1
419.3292	1
420.0547	0
420.9710	1
421.4439	1
422.1816	3
422.3522	1
422.7536	2
423.1215	2
423.3168	2
423.5476	1
424.0956	2
424.2722	4
424.4019	2
424.5284	2
425.1065	1
425.3674	2
425.7348	1
425.9248	2
426.0573	1
426.2179	2
426.4474	1
426.8563	0
427.1561	1
428.2396	2
429.1893	2
430.4384	1
431.4023	1
432.2486	1
432.5860	0
433.8662	1
434.1930	2
434.3397	1
434.8513	1
435.1741	0
435.3837	1
436.1806	1
436.5550	2
437.0326	1
438.0373	1
438.3474	2
438.5645	1
439.0830	1
439.1975	1
439.3221	1
439.6571	1
440.0879	0
440.3492	1
441.2785	1
441.4487	1
443.3397	1
444.4555	1
444.6050	2
445.5118	1
446.1439	1
446.3095	2
446.4656	2
447.1025	1
447.1963	1
447.3941	2
447.7614	1
447.8526	1
448.0464	1
448.3119	1
448.5177	1
448.8113	1
449.4027	2
449.5542	1
450.1865	1
450.2897	2
451.2484	1
451.3695	2
451.5329	1
452.4157	2
453.0884	2
453.9507	1
454.2713	1
454.4989	2
455.0928	2
456.4700	1
457.3525	2
457.8521	0
458.3778	2
458.5465	1
458.7903	1
459.1111	1
459.3850	2
460.3300	12
460.5028	11
460.8538	1
461.0252	1
461.1866	1
461.3193	1
462.2263	1
462.4259	2
463.9412	1
464.0538	1
464.2561	2
464.4001	2
464.6018	2
464.9207	2
465.2524	2
465.4132	2
465.9110	1
466.0658	2
466.1817	1
466.2889	1
466.3928	1
466.5040	1
466.9067	0
467.0977	1
467.2726	2
467.4596	2
468.0319	1
468.2396	3
468.3448	1
468.4521	2
468.6994	0
469.3608	2
469.4614	1
469.9507	0
470.2851	1
470.4560	2
471.2041	1
472.4810	1
472.6091	0
473.1521	2
473.4491	2
474.2798	1
474.8054	1
475.2513	1
475.3773	1
475.5811	1
475.7334	1
476.0760	2
476.9987	0
477.4641	1
477.5311	1
477.8349	1
478.2885	3
478.4278	2
478.5437	2
478.7534	1
478.8874	1
479.2578	2
479.4226	1
479.8119	1
479.9378	0
480.4477	1
480.9710	2
481.1425	1
481.2209	1
481.3268	1
481.4862	2
481.9646	1
482.2112	4
482.4558	4
483.4335	16
483.6613	4
484.1908	1
484.6096	2
485.2275	0
485.6324	1
486.3602	1
486.5017	0
488.0909	1
488.2840	2
489.9439	0
490.0813	1
490.3441	0
491.4852	2
492.0518	1
492.2047	2
492.5715	1
492.7485	1
493.4345	17
493.7195	2
493.8053	1
493.9052	1
494.0407	2
494.4437	4
494.6375	1
494.7750	0
495.1150	1
495.2518	1
495.4195	3
495.5972	1
496.2867	1
496.4523	2
497.4195	3
498.6691	1
499.0246	1
499.5371	0
503.7946	2
504.2171	3
504.5297	1
505.3224	1
506.0174	1
506.2551	2
506.4881	2
506.7225	1
507.2160	0
507.5756	1
507.9171	2
508.1715	1
508.3235	6
508.5492	1
509.0629	1
509.1533	1
510.0748	1
510.3413	2
510.6139	1
510.8302	1
511.3848	2
512.1859	1
512.5690	1
513.8068	0
514.3200	2
515.5191	1
516.1703	1
516.3244	2
517.3280	1
518.1414	1
519.0795	1
519.5050	2
520.2180	1
520.3091	2
520.6750	1
521.0396	0
521.2305	2
522.1439	2
522.2900	3
522.5239	1
522.9810	1
523.1224	1
523.4260	1
523.7947	1
523.9374	1
524.1901	1
524.2933	2
524.4482	0
526.1614	2
526.7352	2
527.6556	2
527.9614	0
528.0934	1
528.1752	1
528.3240	1
528.4487	1
528.8906	1
529.1098	2
529.2633	1
529.4866	2
529.7997	1
530.1396	0
530.3454	1
530.7081	1
530.8047	1
530.9268	1
531.4732	0
531.8038	0
531.9513	1
532.3187	3
532.4361	2
532.6453	1
532.7626	3
533.0477	2
533.2689	4
533.4158	3
533.6847	3
533.9650	4
534.3989	21
534.9301	1
535.1721	5
535.4357	7
535.6014	5
535.6892	2
535.8656	2
536.0272	2
536.3901	11
536.6121	3
537.4028	9
537.7161	6
538.1293	3
538.2581	2
538.7504	1
538.9563	2
539.1481	1
539.3809	1
539.6398	1
539.8076	2
539.9330	0
540.1114	1
540.2389	2
540.5689	0
540.7641	1
540.8735	1
541.0358	1
541.3317	2
541.7543	2
541.8596	1
542.0341	1
542.5030	1
542.6285	2
542.8251	2
542.9915	2
543.2363	3
543.5738	2
543.8704	2
543.9971	0
544.1582	1
544.2427	1
544.3696	1
544.4501	0
544.5782	1
544.8399	2
545.1083	1
545.3981	1
545.4780	1
545.6108	2
545.8068	3
545.9484	2
546.0900	2
546.3496	3
546.5905	1
546.9587	3
547.2291	3
547.4907	3
547.7557	4
547.9492	2
548.1801	5
548.4725	4
548.7570	5
549.0816	7
550.0615	14
552.4752	999
553.1948	67
553.5938	33
554.1916	21
554.7117	15
554.8657	10
555.5446	8
555.6510	4
555.8666	4
555.9971	8
556.1853	3
556.3393	3
556.6104	3
556.8682	4
557.0142	3
557.1467	3
557.3242	1
557.4728	2
557.6911	2
558.0406	2
558.1879	1
558.3586	4
558.5703	2
558.7062	1
558.8755	1
559.0892	1
559.3303	0
559.5519	1
559.8425	3
559.9851	0
560.2965	0
560.7499	1
561.2220	1
561.5300	2
562.1348	0
562.3966	2
562.5741	0
