Mass spectrum: alpha-Tocomonoenol; EI-EBEB; MS; POS
Name: alpha-Tocomonoenol
Class: Natural Product; Lipid
Formula: C29H48O2
Exact mass: 428.36543
SMILES: O(C(CCCC(C)CCCC(C)CCC=C(C)C)1C)c(c(C)2)c(c(C)c(O)c2C)CC1
InChI: InChI=1S/C29H48O2/c1-20(2)12-9-13-21(3)14-10-15-22(4)16-11-18-29(8)19-17-26-25(7)27(30)23(5)24(6)28(26)31-29/h12,21-22,30H,9-11,13-19H2,1-8H3
Instrument: JMS-HX/HX 110A, JEOL
Instrument type: EI-EBEB
Ms type: MS
Ion mode: POSITIVE
Ionization: EI
Base peak: 428.5503
m/z	relative intensity
13.3863	0
13.9871	0
15.0013	0
24.9866	0
25.9894	1
26.9934	8
28.0018	2
29.0046	8
29.9828	0
30.9896	0
36.9845	1
37.1477	0
37.9855	2
38.9950	18
40.0025	3
41.0079	50
42.0142	4
43.0090	33
44.0259	0
44.9990	0
48.9893	0
49.9917	3
51.0011	7
51.5342	0
52.0100	4
53.0127	17
54.0248	4
55.0303	63
56.0393	6
57.0489	14
58.0015	0
59.0084	0
59.9772	0
61.0057	0
62.0067	1
63.0123	3
63.4381	0
64.0156	1
65.0204	8
66.0151	3
66.3997	0
67.0246	22
67.6498	0
68.0374	6
69.0464	98
70.0488	2
71.0580	4
72.0347	0
72.5220	0
73.0012	0
73.9970	1
75.0173	1
75.4827	0
76.0194	1
77.0240	14
77.4338	0
78.0302	3
79.0389	11
80.0429	1
81.0493	17
82.0458	3
82.5525	0
83.0568	16
83.6244	0
84.0638	0
84.5606	0
85.0842	1
86.0243	0
87.0029	0
88.0498	0
88.4775	0
89.0460	1
89.4304	0
90.0585	1
91.0564	24
91.6504	0
92.0604	2
92.5790	0
93.0692	8
94.0665	1
94.5445	0
95.0830	13
96.0484	1
97.0975	5
98.0296	0
99.0623	0
100.0578	0
101.0396	0
101.5493	0
102.0468	1
102.5385	0
103.0609	4
103.4254	0
104.0617	1
104.3670	0
105.0682	8
106.0687	1
107.0654	10
108.0445	1
108.5276	0
109.0787	9
109.5710	0
110.0699	1
111.0708	2
112.1048	0
112.7316	0
113.0606	0
114.0620	0
115.0477	7
116.0559	2
116.5204	0
117.0534	5
118.0511	1
119.0606	6
119.6037	0
120.0551	1
121.0529	34
122.0582	6
123.0699	5
123.5896	0
124.0462	0
124.2665	0
125.0450	3
126.0440	0
127.0559	2
128.0569	4
129.0492	3
129.6068	0
130.0781	1
130.5745	0
131.0560	4
131.6081	0
132.0467	1
133.0633	5
133.7118	0
134.0775	2
135.0763	24
136.0847	23
136.5740	0
137.0841	10
137.5891	0
138.0659	3
139.0811	1
139.5542	0
140.0863	0
140.6067	0
141.0836	2
142.1002	1
143.1013	1
143.6108	0
144.1118	2
145.0958	6
146.1002	3
147.1010	6
148.1046	3
149.1156	29
149.5890	0
150.1010	5
150.6351	0
151.1057	33
152.1122	10
153.1039	1
154.1377	0
155.1147	1
156.0681	0
156.6655	0
157.1344	2
158.0747	2
159.1269	9
160.1389	3
161.1163	12
162.1131	14
163.1170	20
164.1149	237
165.1200	829
166.1201	7
166.6869	0
167.1187	1
167.4221	0
168.0889	0
169.1040	0
170.1141	0
170.4114	0
171.1237	2
171.6309	0
172.1260	3
173.1333	5
174.1189	4
175.1150	22
176.1182	21
177.1231	35
178.1273	10
178.6675	0
179.1399	4
179.4686	0
180.0637	0
180.3558	0
181.1062	0
182.1458	0
183.1447	0
184.1540	0
184.4801	0
185.1426	2
186.1327	2
187.1512	6
188.1422	7
189.1403	40
190.1456	19
191.1490	23
191.6442	0
192.1372	1
193.1875	0
194.2382	0
195.1188	0
196.0569	0
197.2088	0
198.1712	0
199.1689	1
200.1591	1
201.1913	4
201.5130	0
202.1913	5
203.1950	58
204.2024	14
205.2125	110
206.1947	1
206.5203	0
207.2021	0
207.4557	0
209.1594	0
210.1252	0
211.2139	0
211.8575	0
212.2401	0
212.7318	0
213.2113	0
214.2133	0
215.2022	4
216.2026	1
217.2101	7
217.6992	0
218.2201	4
219.2203	4
219.6072	0
220.2276	1
221.2160	0
223.2581	0
224.1616	0
224.7365	0
225.2121	0
226.2359	0
227.1820	0
228.1848	0
228.5840	0
229.2287	2
230.2016	0
231.2291	2
232.2297	2
233.2192	1
233.5634	0
234.2147	0
237.1165	0
240.2371	0
241.2287	0
242.2409	0
243.2023	1
244.2525	0
245.2462	1
246.2662	5
247.2624	1
248.2056	0
249.3658	0
252.9370	0
253.8700	0
255.2705	0
257.2457	0
258.2603	0
259.3150	0
260.2960	2
261.3341	0
261.7465	0
262.3815	0
263.4143	0
265.1430	0
271.2736	0
272.2866	0
273.2929	0
274.2892	9
274.8677	0
275.3301	1
276.3427	0
283.2570	0
283.6584	0
284.3690	0
285.2943	0
286.3257	0
287.3482	1
288.3093	7
288.7693	0
289.3401	0
290.2387	0
294.3072	0
297.2648	0
299.3165	0
300.2755	0
301.3387	0
302.3438	9
302.9777	0
303.3684	0
303.7385	0
304.3543	0
310.9886	0
313.3700	0
314.3424	0
314.6559	0
315.3847	0
316.3780	10
316.8942	0
317.3909	0
318.3661	0
327.3964	0
328.3735	0
329.3863	0
330.4095	1
330.7723	0
331.4374	0
332.4723	0
333.4615	0
337.1416	0
339.3688	0
341.3870	0
342.4415	0
343.3598	0
344.4203	15
345.3972	0
346.0249	0
346.4361	0
346.7889	0
348.0251	0
348.6140	0
353.4743	0
355.3430	0
356.4575	1
357.4436	0
358.4574	26
359.4289	0
360.4818	0
361.1885	0
361.6302	0
362.8855	0
364.4938	0
367.4032	0
368.5586	0
369.3832	0
369.6237	0
369.8058	0
370.4770	1
371.5309	0
372.4794	7
373.4624	0
373.8943	0
374.5085	0
374.9851	0
376.1505	0
376.9777	0
378.4760	0
379.3534	0
380.7580	0
381.1429	0
381.4936	0
381.7708	0
383.5653	0
384.4557	1
385.4998	0
386.4764	1
387.5666	0
388.5421	0
390.1037	0
393.4991	0
393.8593	0
395.4272	0
396.4400	0
397.5115	0
397.9394	0
398.5131	1
399.5158	1
400.5256	0
402.6566	0
405.6982	0
406.0782	0
406.6246	0
407.0285	0
407.4063	0
407.9376	0
408.2799	0
408.8455	0
409.5967	0
410.5895	1
411.5480	3
412.5455	7
413.5511	6
414.5499	0
414.8798	0
415.2979	0
415.8638	0
416.6428	0
428.5503	999
430.0833	9
431.2193	3
432.4979	1
433.2083	1
