Mass spectrum: Lycopene 1,2,1',2'-diepoxide; FAB-EBEB; MS2; m/z: 568.43; [M]+*
Name: Lycopene 1,2,1',2'-diepoxide
Formula: C40H56O2
Exact mass: 568.42803
SMILES: CC(CCC(O2)C2(C)C)=CC=CC(C)=CC=CC(=CC=CC=C(C=CC=C(C=CC=C(C)CCC(O1)C1(C)C)C)C)C
InChI: InChI=1S/C40H56O2/c1-31(19-13-21-33(3)23-15-25-35(5)27-29-37-39(7,8)41-37)17-11-12-18-32(2)20-14-22-34(4)24-16-26-36(6)28-30-38-40(9,10)42-38/h11-26,37-38H,27-30H2,1-10H3/b12-11+,19-13+,20-14+,23-15+,24-16+,31-17+,32-18+,33-21+,34-22+,35-25+,36-26+
Instrument: JMS-HX/HX 110A, JEOL
Instrument type: FAB-EBEB
Ms type: MS2
Ion mode: POSITIVE
Collision energy: 3 kV
Ionization: FAB
Base peak: 104.9913
Precursor m/z: 568.43
Precursor type: [M]+*
m/z	relative intensity
0.0081	0
2.9697	0
7.0454	0
11.9529	2
12.9736	0
13.9699	2
14.9750	7
22.9273	10
24.9204	1
25.9620	6
26.9622	45
27.9634	5
28.9679	43
30.9447	13
35.6636	0
35.8993	1
36.9402	4
37.1938	1
37.9485	12
38.3721	0
38.9508	94
39.3790	2
39.6486	1
39.9461	13
40.6046	1
40.9660	229
41.4905	0
41.9684	16
42.9715	875
43.1859	1
43.4152	0
43.9614	2
44.9549	8
48.5124	1
48.9314	3
49.1115	1
49.9454	26
50.9392	41
51.9604	18
52.9672	112
53.9647	5
54.6472	1
54.9813	345
55.2335	0
55.9931	7
56.9888	44
57.9731	5
58.5010	0
58.9800	342
59.4081	2
59.9757	0
60.3673	0
60.9032	4
61.0458	1
61.5226	2
61.9499	10
62.2585	1
62.4183	0
62.8078	1
62.9569	39
63.1792	2
63.3384	0
63.4933	1
63.6150	1
63.7189	0
63.9620	10
64.4215	1
64.4962	0
64.9628	94
65.9660	15
66.4117	1
66.7394	1
66.9815	165
67.2203	1
67.9980	12
68.9895	234
69.9675	3
70.0785	3
70.9745	497
71.1562	2
71.8642	1
71.9845	8
72.9842	26
73.1464	1
73.4193	1
73.9104	10
74.9395	19
75.2875	1
75.5663	1
75.6887	1
75.9446	13
76.0375	2
76.2966	1
76.5798	2
76.9512	330
77.1947	3
77.3288	2
77.4244	2
77.5819	1
77.9585	70
78.1466	3
78.3173	3
78.3881	2
78.4998	0
78.9693	383
79.1956	3
79.4724	2
79.6132	2
79.7488	2
79.9720	43
80.5854	0
80.6766	1
80.9853	480
81.1727	2
81.5396	1
81.9777	7
82.3543	0
82.9900	49
83.9534	1
84.0277	0
84.9723	99
85.5188	2
85.7335	0
85.9347	6
86.9491	10
87.9523	7
88.3358	1
88.6494	6
88.9561	43
89.1666	2
89.3309	2
89.5104	3
89.6266	4
89.9195	11
90.1359	2
90.2910	3
90.5227	2
90.9624	761
91.3602	2
91.5859	1
91.7051	0
91.9763	65
92.1344	2
92.2350	1
92.5466	1
92.9817	545
93.2719	1
93.4815	2
93.5769	1
93.9812	28
94.3968	1
94.6014	2
95.0041	180
95.5438	2
95.7360	0
95.9687	2
96.0420	1
96.4575	1
96.6770	1
96.9909	30
97.9478	4
98.9773	18
99.9682	2
100.5312	2
100.6237	0
100.7217	1
100.8444	4
100.9850	15
101.2954	0
101.4226	2
101.4874	1
101.7833	4
101.9687	25
102.2902	2
102.3743	0
102.5865	2
102.7226	4
102.9733	139
103.2446	3
103.4900	2
103.6462	1
103.9799	68
104.3000	1
104.4764	2
104.9913	999
105.4315	3
105.6685	1
105.9997	90
106.3179	1
106.5154	2
107.0113	452
107.2521	4
107.4008	2
107.5447	1
107.6331	1
107.9920	13
108.2413	2
108.5331	1
108.7103	1
109.0092	97
109.2040	1
109.5969	1
109.9332	4
110.0395	5
110.6238	0
110.9976	26
111.4945	0
111.7540	2
111.9629	1
112.1768	1
112.3946	3
112.5572	3
112.7493	4
112.9485	9
113.1508	2
113.3758	0
113.5022	3
113.5839	2
113.9400	15
114.2056	2
114.5084	4
114.9551	338
115.1555	6
115.2507	3
115.3528	3
115.9660	121
116.2154	7
116.3556	2
116.9653	389
117.3244	0
117.5047	2
117.6458	1
117.9913	70
118.3465	1
118.4884	1
118.6481	3
118.9865	760
119.2180	3
119.4552	2
119.5484	2
119.9794	88
120.2600	1
120.3928	2
120.5084	2
120.6437	1
120.9971	189
121.3055	1
121.5065	2
121.7731	1
121.9889	6
122.2226	1
122.3207	1
122.4353	0
122.7240	2
122.9936	26
123.2269	2
123.3991	1
123.5292	1
123.7896	2
124.0110	3
124.4612	1
124.9845	170
125.3105	1
125.4941	1
125.7090	3
125.9631	12
126.1519	2
126.4163	2
126.9447	144
127.1902	7
127.4203	5
127.9456	437
128.2100	5
128.3878	4
128.5104	5
128.9536	493
129.3886	4
129.5686	4
129.9602	200
130.2818	4
130.4903	4
130.9693	541
131.2585	2
131.9758	124
132.3840	4
132.5007	4
132.9841	519
133.2862	5
133.5775	3
133.9671	29
134.3284	3
134.5987	1
134.9848	43
135.2172	1
135.3105	0
135.5151	1
135.7030	4
135.9427	10
136.3186	1
136.6617	2
136.7635	1
136.9704	15
137.1443	1
137.9785	7
138.0675	2
138.2617	2
138.3878	2
138.5067	3
138.9435	48
139.1626	2
139.3415	2
139.4924	1
139.9544	12
140.9409	308
141.3547	3
141.5562	2
141.9617	387
142.3571	5
142.9628	657
143.2814	7
143.5642	2
143.9759	205
144.2785	3
144.4439	3
144.9861	667
145.2079	9
145.4442	5
145.6150	4
145.7970	5
145.9967	41
146.2783	4
146.4146	1
146.6105	1
147.0090	128
147.2981	1
147.4967	3
147.5807	2
147.7368	1
147.8227	1
148.0222	8
148.3687	2
148.5039	2
148.9760	13
149.1704	1
149.3241	1
149.4305	0
149.5783	1
149.9326	9
150.4579	1
150.6519	1
150.9677	26
151.4132	4
151.9543	128
152.2441	7
152.4358	3
152.9551	192
153.3078	3
153.4423	2
153.6144	3
153.9752	98
154.4272	3
154.9869	408
155.3753	6
156.0003	264
156.2204	2
156.3354	1
156.5311	2
157.0039	585
157.2744	8
157.6476	4
158.0150	91
158.3977	3
158.5348	2
158.6169	1
159.0243	199
159.2906	4
159.4961	1
159.8229	4
160.0371	11
160.3183	4
160.4370	2
160.5949	2
161.0275	30
161.3427	1
161.6548	2
161.7397	0
162.0273	7
162.3362	0
162.6152	2
163.0386	17
163.2180	3
163.5697	4
164.0087	13
164.3813	6
164.6188	4
165.0022	257
165.5043	7
166.0098	91
166.2550	5
166.4163	5
166.6275	6
167.0089	257
167.4803	4
167.6863	1
168.0209	110
168.4567	3
169.0311	410
169.2935	6
169.6205	5
170.0388	123
170.2747	3
170.4266	4
170.6105	4
171.0425	261
171.3846	5
171.6254	5
172.0463	37
172.2271	3
172.5842	3
172.6816	2
173.0428	80
173.2885	4
173.4641	4
173.6304	2
174.0359	11
174.2691	2
174.3914	3
174.6019	1
174.8218	4
175.0605	15
175.2912	1
175.5641	1
175.9895	16
176.1915	2
176.3970	0
176.6192	2
177.0074	21
177.3007	3
177.5136	10
177.9979	149
178.2927	3
178.4588	3
178.6190	3
179.0064	242
179.2994	3
179.4757	3
179.6186	1
180.0156	112
181.0060	310
181.4867	4
181.6405	2
182.0192	135
182.4196	6
183.0230	319
183.2851	5
183.4370	1
184.0260	52
184.2339	3
184.4296	3
184.5816	2
185.0412	139
185.2800	2
185.4544	3
185.5829	5
185.7310	4
186.0367	19
186.2777	1
186.3895	0
187.0166	20
187.3454	1
187.5415	1
187.7822	4
188.0033	8
188.1347	5
188.2486	1
188.5069	4
188.9803	54
189.2029	3
189.3358	1
189.6327	1
189.9748	25
190.3555	4
190.5357	3
190.9888	92
191.3703	3
191.5075	1
191.7378	3
192.0087	106
192.3006	0
192.4824	1
193.0083	262
193.4755	3
193.6304	3
194.0179	124
194.2872	4
194.6525	8
195.0173	293
195.2887	6
195.4458	4
195.6184	2
196.0104	80
196.3077	4
196.4500	4
197.0387	251
197.3226	4
197.4689	4
197.7014	3
198.0153	41
198.1088	20
198.4831	3
198.6377	4
199.0547	80
199.3749	1
199.5730	1
199.9170	7
200.0439	10
200.1898	3
200.3167	1
200.4369	4
200.5719	1
200.9935	19
201.2359	4
201.4770	1
201.6529	4
201.9857	48
202.2948	3
202.4321	2
202.9832	67
203.4338	2
203.6487	1
204.0002	35
204.3232	2
205.0102	104
205.3429	1
205.4994	3
206.0065	81
206.3277	2
206.5122	2
207.0257	174
207.3975	3
207.4908	2
207.6400	3
208.0344	82
208.6028	6
209.0499	218
209.3975	4
209.5325	3
210.0644	35
210.3372	4
210.5528	2
210.7908	4
211.0733	69
211.3292	3
211.3926	1
211.5264	0
211.7229	4
212.1038	9
212.4158	3
212.5701	3
212.7388	1
213.0652	23
213.9149	8
214.1082	8
214.2422	3
214.4191	3
215.0014	55
215.4574	5
215.7240	3
216.0311	41
216.2889	2
216.4346	2
216.5570	2
217.0304	71
217.3184	3
217.6722	3
218.0609	43
218.3710	3
218.5873	2
219.0542	93
219.3651	0
219.6370	2
220.0645	61
220.4920	2
220.5598	1
221.0792	126
221.4198	5
221.5946	2
221.8037	3
222.1150	36
222.4743	2
222.6094	2
223.1032	80
223.3769	3
223.4887	2
223.7014	3
224.1021	18
224.4397	2
224.6627	3
225.1206	32
225.3396	2
225.4597	3
225.5764	1
226.0475	12
226.2604	2
226.4863	1
226.6945	2
227.0579	14
227.3478	2
227.5450	2
227.8721	2
228.0989	17
228.2975	4
228.3910	1
228.6335	3
229.0660	50
229.5206	2
230.0788	35
230.2866	3
230.6145	1
231.0645	79
231.3219	2
231.7411	2
232.0994	46
232.3691	3
232.5277	5
232.7096	2
233.1010	95
233.3413	2
233.4594	2
233.6380	3
233.7918	3
234.0927	43
234.4059	3
234.6299	2
234.7109	1
235.1108	72
235.4771	4
235.6008	3
235.7238	3
236.0764	17
236.3026	3
236.5123	1
236.6903	2
237.1297	36
237.3773	3
237.4873	3
237.6304	1
237.8931	5
238.1215	5
238.3973	2
238.5810	2
239.0613	26
239.2602	4
239.8032	6
240.0331	8
240.2961	5
240.5370	2
240.8042	3
241.0831	29
241.6071	11
241.8358	4
242.0459	12
242.2767	5
242.4716	4
242.5619	2
243.0580	47
243.6845	1
244.0739	26
244.5227	2
245.0667	65
245.3591	1
245.4756	1
245.6474	3
246.0826	33
246.1923	17
246.4055	2
246.6035	0
247.0823	65
247.4915	3
247.6703	1
247.8083	3
248.1237	19
248.4392	5
248.6698	5
248.8072	3
249.1144	41
249.3568	4
249.6731	1
249.8022	3
250.0764	22
250.5303	2
251.0912	15
251.5742	1
252.0476	15
252.2536	2
252.4658	2
252.7900	2
253.0921	16
253.3106	2
253.4288	2
253.6847	3
254.1024	6
254.5643	2
255.0773	24
255.3747	2
255.6313	3
256.0995	12
256.2310	6
256.4503	2
256.7574	2
257.1048	47
257.4888	1
257.7954	3
258.1013	19
258.3816	5
258.6239	3
258.7617	2
259.1078	59
259.4734	1
259.5911	1
259.7199	1
260.1043	20
260.4520	1
260.7235	3
261.1135	52
261.3830	3
261.5493	3
261.9546	3
262.1861	12
262.3441	3
262.4557	1
262.7398	2
263.1418	28
263.4517	3
263.5904	1
263.8212	2
264.0521	5
264.2483	5
264.4099	2
264.6179	1
264.8142	2
265.1270	14
265.3302	3
265.5882	1
265.8477	1
266.1147	11
266.6136	2
266.7857	2
267.1223	14
267.6025	1
267.7733	1
267.8649	1
268.1196	11
268.4063	2
269.1318	27
269.6387	0
269.8658	3
270.1575	14
270.4388	3
270.6250	1
270.8202	5
271.1523	34
271.6650	2
272.1361	15
272.6230	2
272.7464	1
273.1216	34
273.7041	1
274.0503	4
274.1924	6
274.7370	2
275.1499	27
275.5620	3
276.1256	9
276.4677	5
276.7551	3
277.1237	10
277.4570	2
277.6507	3
277.8694	0
278.0576	5
278.1534	4
278.5499	1
278.6721	0
278.9409	4
279.1264	14
279.6105	0
279.8954	0
280.1600	5
280.3706	2
280.7576	3
281.0765	12
281.5199	0
281.6645	1
281.9397	3
282.1406	6
282.3547	4
282.5730	0
282.7475	2
283.1326	23
283.5679	1
283.8196	2
283.9010	0
284.1312	9
284.3391	4
284.4539	1
285.1682	29
285.8534	2
286.1992	14
286.4970	1
287.1157	24
287.8924	5
288.0330	2
288.1075	1
288.2419	4
289.1143	13
289.7773	1
289.9255	4
290.2025	2
290.3444	2
290.5073	0
290.7856	1
290.8935	1
291.1664	8
291.8444	1
291.9801	2
292.1207	3
292.3122	5
293.0670	9
293.1860	5
293.3803	1
293.6603	1
293.8964	5
294.1053	9
294.2404	7
294.3944	2
294.5532	2
294.8569	2
295.0784	11
295.2387	7
295.4965	2
295.7048	2
295.8539	2
296.0608	6
296.2037	6
296.6636	4
296.7695	3
296.8985	4
297.1772	29
297.3620	3
298.1245	9
298.2905	3
298.4424	1
298.8566	2
299.1076	13
300.0978	5
300.2248	3
300.3950	1
300.5582	2
301.0632	10
301.2257	6
301.4120	2
302.0727	6
302.6197	2
302.7844	1
303.0063	7
303.1975	9
303.4802	1
304.0853	4
304.2521	2
304.4930	1
304.6619	2
305.0780	9
305.1876	5
305.3768	1
306.0464	1
306.1777	1
307.0661	6
307.2211	6
307.4502	3
307.7701	1
307.9525	3
308.0943	2
308.2249	6
308.3150	2
309.1046	10
309.2471	5
309.4442	0
309.8578	3
309.9536	1
310.1723	5
310.4582	1
310.6762	1
311.1390	9
311.9814	3
312.2352	3
312.7120	2
312.9393	2
313.1106	17
313.2533	12
313.4680	3
313.8918	2
314.0666	2
314.2065	3
314.9144	2
315.1235	14
315.2809	5
315.5818	1
316.2290	3
317.0988	6
317.2527	3
317.4186	1
318.0507	4
318.2144	6
318.3201	4
319.0657	4
319.1742	4
319.2960	2
319.5039	2
320.0536	2
320.1642	1
320.3778	2
320.6943	1
320.7966	2
321.1264	9
321.2903	3
321.9788	2
322.1519	3
322.3942	2
322.9512	2
323.1950	11
323.6238	0
324.0176	2
324.1851	1
324.6952	3
324.9174	2
325.1522	6
326.2022	6
326.4545	2
326.8752	2
327.1528	4
327.3708	2
327.4732	0
327.9115	3
328.2088	8
329.2018	8
329.9846	1
330.1719	5
330.4687	2
330.8342	3
330.9822	2
331.2173	6
331.5666	0
331.7437	3
331.9006	2
332.0560	2
332.2031	1
332.3641	2
332.9202	2
333.1737	11
333.6780	1
333.9232	2
334.0646	4
334.2118	3
334.3645	1
334.5081	1
335.1834	9
335.7558	1
336.2821	3
336.4706	1
336.6415	0
336.8076	1
336.9667	2
337.2099	9
337.3143	4
337.9690	5
338.2528	7
338.6300	1
339.1789	5
339.2995	1
339.8989	1
340.1030	3
340.3014	3
341.0125	3
341.2242	3
342.0126	2
342.0890	1
342.2279	5
342.4026	1
342.5912	2
343.2394	8
343.5018	2
344.1087	6
344.2862	4
344.5079	1
344.7570	0
344.9556	3
345.2110	8
345.9247	1
346.2623	2
346.5080	2
346.7164	1
346.9965	5
347.2190	6
347.3643	1
347.5237	2
348.0607	3
348.1499	2
348.2861	2
348.3942	1
349.2599	12
350.2332	7
350.3962	3
350.5388	0
350.9854	3
351.1744	5
351.3430	8
351.6162	1
352.2365	1
352.4739	0
352.8940	2
353.1610	3
353.2812	7
353.5229	2
353.9044	2
354.2803	2
355.2565	3
356.1871	3
356.8689	1
357.0974	3
357.3034	3
357.4236	1
358.0936	1
358.3341	1
359.0972	5
359.2082	2
359.3839	3
360.2924	2
360.4132	1
360.5580	1
361.0352	3
361.2727	9
362.2082	13
362.3755	15
363.0314	1
363.2001	6
363.3119	5
363.5200	5
364.2040	2
364.8164	2
365.1955	0
365.3973	4
365.8361	3
366.4107	0
367.1949	3
367.3630	5
368.1832	2
368.4984	1
369.1196	2
369.2997	3
370.0688	3
370.3108	3
370.8935	1
371.3235	4
372.1645	3
372.4341	1
372.7218	2
373.0471	1
373.2959	6
373.5355	2
373.8924	0
374.1658	2
374.2536	1
374.7013	0
374.9444	2
375.0442	0
375.2635	11
375.5833	0
375.7098	2
375.8890	0
376.1716	3
376.4429	2
376.8520	2
376.9989	1
377.3568	1
378.2138	3
378.4071	2
379.2333	2
380.2178	4
380.4034	3
380.6102	1
380.9176	2
381.1616	4
381.3206	3
382.3468	2
382.4910	1
382.8188	1
382.9856	2
383.0960	3
383.1819	2
383.3957	2
383.5772	2
383.9002	2
384.0817	2
384.3125	1
384.4265	1
385.1463	5
385.3553	8
385.8556	1
386.2392	2
386.3616	3
386.4820	1
386.6727	2
387.1147	3
387.2309	6
387.4357	1
387.8960	2
388.0143	2
388.1684	2
388.3951	3
388.7126	2
389.1681	3
391.0304	1
391.1966	1
391.7248	2
392.0938	3
392.9474	2
393.0995	2
393.3982	2
393.9391	3
394.2308	0
394.4703	2
395.1621	3
395.5150	3
396.3429	1
396.8545	1
397.1631	8
397.4020	5
397.5810	4
397.9531	0
398.2829	8
399.3739	9
399.5713	1
399.6996	1
399.8948	3
400.2451	3
400.6096	1
401.0022	2
401.2962	6
401.4633	1
401.6628	1
401.9138	1
402.3016	8
403.0010	2
403.2852	7
403.8839	2
404.0651	6
404.3585	17
405.2096	2
405.3996	2
405.4933	2
406.3696	3
406.5406	2
407.4551	2
408.3281	2
408.6647	2
409.4554	3
409.6406	1
409.7237	1
410.2772	12
410.7202	1
411.0603	3
411.1540	2
411.3589	3
411.4872	1
411.7421	1
412.1774	2
412.4619	1
413.0297	3
413.2312	4
413.3847	11
413.7151	5
413.9293	1
414.2731	8
414.5619	2
414.6655	1
415.2623	29
415.8753	0
416.2910	13
416.4496	4
416.6095	2
416.8970	2
417.1669	5
417.2550	3
417.4016	1
417.8456	1
417.9971	1
418.1402	1
418.5067	1
418.6237	1
419.1290	2
419.3130	2
419.9418	0
420.3245	5
420.6982	1
421.0584	0
421.2105	3
421.3584	1
421.7020	1
422.2745	3
422.4886	1
422.8280	2
423.1499	4
423.3710	4
423.6098	2
424.1732	3
424.3190	3
424.9043	0
425.2586	3
426.2997	4
426.4089	2
426.9641	2
427.2311	9
427.3481	5
428.3591	11
428.7607	3
428.9059	1
429.1504	7
429.3230	4
429.4132	2
429.7839	2
429.9897	2
430.2983	4
431.1870	1
431.3724	2
431.8855	1
432.2449	4
432.4515	2
432.7299	2
433.0823	1
433.2438	0
434.1849	4
434.3195	1
434.4288	1
434.9216	1
435.0696	2
435.1902	1
435.3827	4
435.7549	2
435.9975	1
436.1054	2
436.2527	2
436.5440	2
436.9226	1
437.7307	1
437.8605	3
438.3690	0
438.5100	1
438.8824	1
438.9910	3
439.1906	6
439.3479	7
439.4692	4
439.6921	0
440.0264	3
440.1647	3
440.3241	4
440.4623	2
440.6422	1
441.2601	13
441.5479	1
441.7934	3
442.0982	4
442.2816	8
442.4517	4
442.8813	1
443.3159	8
443.6285	1
443.8267	2
444.1316	2
444.2910	2
444.5069	5
445.0383	4
445.2986	3
445.5372	1
445.9077	4
446.7821	1
447.1540	4
447.4914	5
448.5699	3
448.6574	2
449.2016	5
449.4381	3
450.1222	2
450.2436	1
451.1635	1
451.3626	5
451.9070	3
452.1032	3
452.8969	3
453.0289	4
453.1652	3
453.3431	4
453.5232	4
453.7308	4
453.8812	5
453.9631	3
454.3840	7
454.7188	3
455.0726	7
455.4625	6
455.8608	5
456.0674	6
456.3015	6
456.5674	0
456.7817	4
456.9496	5
457.3021	4
457.5807	3
457.8903	1
458.1258	2
458.2774	1
458.3867	4
458.5412	1
458.8557	2
459.2549	3
459.4834	3
459.9560	1
460.0646	1
460.2191	3
460.4187	3
460.7827	1
460.9082	0
461.1438	1
461.7617	2
461.8387	1
462.0122	1
462.3776	19
462.7762	2
462.9420	2
463.2834	1
463.7752	3
464.3241	4
464.7347	2
464.8977	3
465.4016	3
465.5652	1
466.0966	2
466.2384	1
466.5412	6
466.6498	3
466.7458	0
467.2307	9
467.3908	6
467.5793	3
467.9435	2
468.3817	11
468.6407	1
468.9838	5
469.4143	12
469.8774	3
470.0284	1
470.2726	5
470.3941	4
470.5741	1
470.6800	2
471.2037	3
471.4890	2
471.8808	3
472.4434	1
472.6305	1
473.0351	1
473.1600	2
473.4255	3
473.5554	3
473.9833	3
474.2339	2
474.4557	5
474.6788	2
475.0763	2
475.3178	4
475.5911	5
475.7055	3
476.3849	274
476.7683	5
476.9025	4
477.1786	6
477.4449	4
477.7097	3
477.8298	2
477.9499	3
478.2741	2
478.3885	1
478.6265	2
478.8674	3
478.9903	1
479.3519	6
479.6373	5
479.8902	1
480.0244	2
480.2540	2
480.4412	1
480.6185	3
480.7753	1
481.2564	4
481.4697	6
482.0137	2
482.3860	15
482.6637	4
482.8198	6
483.3998	139
483.8159	10
483.9725	5
484.2271	6
484.4380	6
484.6235	2
484.7667	4
485.0439	1
485.2251	7
485.3528	7
485.5305	3
485.6737	3
485.7944	1
485.9411	2
486.1675	1
486.2896	2
486.5576	2
486.9837	3
487.1601	3
487.4331	4
487.8077	2
488.2507	5
488.4469	12
488.6261	5
489.4029	23
491.0370	1
491.6926	0
491.9332	3
492.2430	1
492.3524	3
493.3679	3
493.6149	1
494.0144	0
494.2572	2
494.4181	3
494.5981	1
494.8021	2
495.0491	1
495.4126	10
495.6568	1
495.8488	0
496.2900	13
496.4876	14
496.6895	4
496.9359	4
497.4025	61
497.8698	2
498.1692	3
498.4205	8
498.6273	2
498.8801	3
499.0580	2
499.3164	4
499.5063	3
499.6207	1
499.7365	3
499.8290	2
500.2992	2
500.8168	1
501.0477	3
502.2361	0
502.5750	1
502.8384	1
503.4472	1
505.0214	3
505.4084	2
506.0915	2
506.5922	2
506.8719	2
507.1799	1
507.8764	1
508.1597	6
508.4281	2
508.5567	1
509.0251	3
509.2526	3
509.3607	2
509.5486	6
509.7567	2
509.9456	5
510.1191	3
510.4223	11
510.6388	5
510.8214	2
511.0562	4
511.3030	3
511.5371	6
511.6754	2
512.1514	0
512.2720	3
512.4067	2
512.5809	4
513.4328	2
514.4703	1
515.4817	0
515.8280	1
515.9995	2
516.5687	1
516.9948	2
517.1873	2
517.8300	3
518.3323	0
518.4889	1
518.6172	1
519.0272	0
519.4850	1
519.7997	2
520.1736	2
520.4206	5
521.1085	2
521.2983	1
521.4437	6
522.0540	1
522.2050	2
522.3878	6
522.5515	6
522.6312	3
522.7892	3
522.9233	2
523.2818	2
523.4794	3
523.5775	2
523.7793	2
524.0419	3
524.3763	6
524.7208	5
524.9995	2
525.3058	10
525.5542	18
525.7942	7
526.3983	552
526.9728	11
527.1747	12
527.3653	9
527.6603	4
527.8340	3
528.0570	7
528.2469	8
528.5102	5
528.7241	3
528.8215	0
528.9542	2
529.0919	2
529.2782	2
529.3735	2
529.5676	6
529.7653	3
529.9912	1
530.1225	2
530.3089	3
530.3971	1
530.7021	4
530.8835	2
531.1334	3
531.3092	5
531.4215	3
531.6276	3
531.9150	1
532.1642	3
532.4678	3
532.5779	3
533.3073	3
533.4196	2
533.9174	3
534.0430	4
534.3650	1
534.5662	1
534.7562	1
535.3289	6
535.5110	9
535.6050	6
536.1508	1
536.3492	2
536.5201	2
537.2949	3
537.5039	4
537.6734	3
537.8027	1
537.9142	1
538.0901	2
538.2737	6
538.4079	5
538.6028	1
538.8536	1
539.0789	2
539.3190	6
539.6022	6
539.9250	2
540.1475	5
540.4463	5
540.6772	1
540.8602	1
541.0071	2
541.2261	2
541.4387	1
541.5913	0
541.7269	1
541.8449	1
542.3535	2
542.5605	2
542.6785	1
543.0274	2
543.2782	3
543.5021	3
543.6576	3
543.7982	1
543.9938	4
544.1351	2
544.3824	4
544.6290	3
544.9257	5
545.1348	5
545.3192	3
545.5849	2
545.7693	3
546.0109	3
546.3105	6
546.4348	3
546.7372	4
546.8305	1
546.9789	5
547.3138	11
547.4664	9
547.5865	4
547.8409	6
548.2169	9
548.3871	12
548.6295	7
548.7758	5
548.9482	7
549.2457	10
549.4677	10
549.7913	10
550.4902	68
550.9390	6
551.1545	15
551.5051	44
551.8959	14
552.4726	51
552.7758	20
552.8663	10
553.4971	170
554.0033	12
554.3861	16
554.7217	9
554.8740	6
555.2646	18
555.4803	8
555.8548	12
556.1650	9
556.5422	8
556.7982	14
557.0338	7
557.6197	11
558.0322	8
558.2579	7
558.4885	14
558.5886	9
558.8608	15
559.2903	16
560.0674	17
560.3735	12
560.7762	21
561.3898	18
561.9717	22
563.0339	41
568.4637	999
569.0732	874
569.9150	382
570.9021	193
571.9323	105
572.8030	64
573.0543	42
573.4544	53
573.6365	34
574.1968	24
574.5673	17
