Mass spectrum: 3-Hydroxy-4-ketotorulene; FAB-EBEB; MS2; m/z: 564.40; [M]*+
Name: 3-Hydroxy-4-ketotorulene
Class: Natural Product; Carotenoid
Formula: C40H52O2
Exact mass: 564.39673
SMILES: CC(=C1C=CC(=CC=CC(C)=CC=CC=C(C)C=CC=C(C=CC=C(C=CC=C(C)C)C)C)C)C(=O)C(O)CC1(C)C
InChI: InChI=1S/C40H52O2/c1-30(2)17-13-20-33(5)23-15-25-34(6)24-14-21-31(3)18-11-12-19-32(4)22-16-26-35(7)27-28-37-36(8)39(42)38(41)29-40(37,9)10/h11-28,38,41H,29H2,1-10H3/b12-11+,20-13+,21-14+,22-16+,25-15+,28-27+,31-18+,32-19+,33-23+,34-24+,35-26+/t38-/m0/s1
Instrument: JMS-HX/HX 110A, JEOL
Instrument type: FAB-EBEB
Ms type: MS2
Ion mode: POSITIVE
Collision energy: 3 kV
Ionization: FAB
Base peak: 564.3002
Precursor m/z: 564.40
Precursor type: [M]+*
m/z	relative intensity
0.1384	0
1.5158	0
8.2489	0
11.9648	0
12.9779	0
13.9782	2
14.9749	3
19.8363	0
22.9288	1
23.9703	0
24.9445	1
25.9617	5
26.9638	27
27.8489	0
27.9501	2
28.9692	15
29.9587	0
30.9578	1
35.9401	1
36.3283	0
36.9489	4
37.9556	9
38.9553	33
39.6113	0
39.9789	3
40.9692	45
41.9681	2
42.9759	22
43.4666	0
43.9922	0
44.9751	2
48.9353	0
48.9880	0
49.8116	2
49.9521	5
50.7789	0
50.9548	18
51.9654	4
52.9638	9
54.0004	1
54.9819	35
56.8196	0
57.0044	3
58.0075	1
58.9770	0
59.9462	1
60.9407	2
61.8345	1
61.9559	7
62.9416	13
63.1494	0
63.5889	0
63.9666	2
64.3160	0
64.5143	0
64.9492	17
65.1426	0
65.2871	0
65.5512	0
65.7503	0
65.9626	4
66.9669	30
67.6793	0
67.9545	0
68.9848	48
69.9375	1
70.9615	2
71.9538	1
72.0380	0
72.7854	0
72.9610	2
73.7028	1
73.7976	1
73.9211	7
74.1773	0
74.6725	1
74.9159	9
75.1239	2
75.2358	1
75.6173	1
75.7176	1
75.9378	5
76.1967	0
76.2866	1
76.9227	69
77.1527	1
77.2742	1
77.4753	0
77.7124	1
77.9346	17
78.2928	0
78.9456	61
79.1995	1
79.6436	0
79.9753	9
80.9566	60
81.9621	3
82.9732	14
84.6719	1
84.9612	10
85.6088	1
85.9166	4
86.6215	1
86.9008	7
87.3903	0
87.5607	0
87.7427	1
87.9466	5
88.1184	1
88.3936	1
88.4640	1
88.5436	1
88.8993	14
89.2142	2
89.4102	0
89.5959	1
89.6694	1
89.9484	7
90.2201	2
90.3807	1
90.4537	0
90.9265	227
91.3201	1
91.5020	0
91.9486	22
92.1708	0
92.4020	1
92.9584	130
93.1508	1
93.3393	1
93.6656	1
93.9703	6
94.4290	2
94.9700	38
95.1948	0
95.6922	0
95.9009	1
96.0563	1
96.1548	0
96.6585	0
96.9910	5
97.2997	0
97.4761	0
97.8522	3
98.8800	2
99.8437	0
100.6345	1
100.7582	0
100.9335	6
101.0941	0
101.2416	1
101.5694	2
101.9111	18
102.1099	2
102.2584	0
102.9107	52
103.2271	1
103.5252	1
103.6918	3
103.9592	28
104.3107	1
104.4931	1
104.9470	333
105.1989	1
105.3607	1
105.9528	25
106.3283	1
106.9745	141
107.1836	1
107.3659	1
107.4891	1
107.6207	1
107.9622	6
108.1286	1
108.5615	2
108.9870	127
109.3659	0
109.4895	1
109.6791	2
109.9546	5
110.1756	1
110.5271	0
110.6094	0
110.9425	13
111.1680	0
111.2727	0
111.4839	0
111.9102	1
112.0294	0
112.1722	1
112.3024	0
112.6556	4
112.9150	7
113.0960	3
113.2951	2
113.4322	1
113.9165	11
114.1993	3
114.3130	2
114.8936	212
115.1762	1
115.3706	1
115.9182	73
116.1388	2
116.3431	3
116.9115	178
117.1737	1
117.2940	0
117.5065	0
117.6450	3
117.9276	30
118.1537	2
118.3763	1
118.9415	318
119.1929	1
119.3720	1
119.6540	2
119.7930	3
119.9667	33
120.2526	1
120.3557	0
120.9481	74
121.2442	0
121.9504	9
122.0806	1
122.2035	1
122.2861	1
122.5851	0
122.9413	20
123.3110	1
123.6264	2
123.9144	9
124.3270	2
124.5698	0
124.9324	16
125.1804	1
125.3903	1
125.5254	1
125.8970	14
126.0980	2
126.3451	2
126.8912	93
127.1570	4
127.3792	3
127.8791	261
128.3782	4
128.8967	282
129.1416	2
129.2563	2
129.9106	102
130.1366	2
130.2472	1
130.9159	248
131.3438	3
131.9335	56
132.4201	1
132.6313	7
132.9473	163
133.2702	3
133.4624	1
133.6454	1
133.9487	29
134.1739	2
134.2738	1
134.9452	105
135.4320	1
135.6404	1
135.9247	5
136.1886	0
136.2633	0
136.3847	1
136.5528	1
136.9246	18
137.1863	0
137.5141	1
137.7142	1
137.9269	8
138.2312	1
138.3136	1
138.5232	4
138.8821	35
139.1106	1
139.2287	0
139.3230	1
139.5678	3
139.7178	5
139.9077	14
140.1215	7
140.8913	223
141.1722	3
141.3687	2
141.9109	206
142.1915	2
142.2792	1
142.9140	309
143.3078	2
143.4608	3
143.9320	99
144.1698	2
144.2941	1
144.9359	291
145.4423	3
145.6007	3
145.9540	31
146.2835	1
146.9611	96
147.3508	1
147.5938	1
147.9630	10
148.1772	1
148.2414	0
148.4217	2
148.5395	1
148.9619	18
149.1026	2
149.4633	2
149.8975	10
150.2011	1
150.5572	4
150.9197	37
151.8961	91
152.1693	5
152.8974	139
153.2215	1
153.8882	70
154.2677	1
154.9401	224
155.1633	4
155.9581	150
156.2189	3
156.9559	305
157.2595	1
157.4857	4
157.9788	53
158.2794	3
158.9815	156
159.2945	4
159.5401	2
159.7603	4
159.9895	22
160.2671	1
160.3977	1
160.5690	1
160.7072	2
160.9939	52
161.1959	3
161.2889	1
161.4718	2
161.6127	1
161.9812	10
162.3958	1
162.5941	2
162.9610	30
163.2214	2
163.3816	2
163.5674	4
163.9793	10
164.9254	222
165.2495	2
165.9388	76
166.4608	3
166.9594	177
167.2308	1
167.3172	1
167.5419	4
167.9850	66
168.2251	4
168.9801	208
169.3240	2
169.4192	1
169.9850	97
170.3937	1
170.9919	151
171.2978	3
171.4515	1
171.5814	3
171.9925	30
172.2653	2
172.9828	95
173.3591	2
173.5789	5
173.9662	14
174.3055	2
175.0003	50
175.3520	2
175.4650	2
175.9066	29
176.2830	2
176.5714	3
176.9838	26
177.2737	2
177.9126	119
178.3345	3
178.9436	204
179.3452	3
179.5183	4
179.6586	6
179.9650	92
180.9503	196
181.3505	3
181.9615	91
182.2245	3
182.3354	1
182.9758	160
183.3867	2
183.6061	2
183.9849	39
184.1818	2
184.5323	4
184.9915	80
185.2724	1
185.4358	4
185.9779	18
186.1712	1
186.9798	45
187.5399	2
187.7314	3
188.0083	16
188.3331	2
188.9097	77
189.4232	3
189.9264	36
190.2094	5
190.9040	85
191.3564	2
191.9302	81
192.3777	4
192.9512	165
193.2023	2
193.3931	2
193.9610	88
194.2084	2
194.9604	185
195.4346	3
195.9869	61
196.2397	1
196.9822	134
197.3964	1
197.5311	1
197.6833	2
197.9910	19
198.2681	1
198.4510	3
198.9918	58
199.3668	1
199.4957	3
199.6487	3
199.9685	13
200.2348	2
200.3795	1
200.5058	3
200.5977	1
200.9984	45
201.2890	4
201.9108	67
202.3053	2
202.4820	4
202.9326	78
203.2555	2
203.4525	2
203.9530	33
204.3159	3
204.9393	95
205.5746	7
205.9652	61
206.2533	1
206.9734	127
207.4479	2
207.9846	57
208.9754	126
209.3045	3
209.4746	2
209.6474	4
210.0079	22
210.3562	2
210.4419	1
210.5643	1
211.0089	61
211.9120	12
212.2729	1
212.4001	1
212.5311	1
212.6844	3
212.9898	31
213.2238	3
213.3437	1
213.8013	2
214.0137	6
214.9273	64
215.2165	1
215.3648	3
215.4868	2
215.9737	30
216.2881	3
216.9793	77
217.2189	2
217.5269	4
217.6228	3
217.9801	28
218.1942	3
218.4497	3
219.0095	77
219.2178	4
219.9711	43
220.4806	2
221.0139	86
221.3151	2
221.4466	1
221.5920	3
222.0190	34
222.5217	4
223.0403	58
223.3648	2
223.6183	1
223.7401	3
224.0449	14
224.3722	3
224.5843	4
225.0342	31
225.2885	3
225.4934	3
225.9955	20
226.6532	4
227.0395	20
227.2815	3
227.5888	5
227.9937	23
228.3121	0
228.9823	46
229.3488	1
229.4646	2
229.5521	1
229.8048	5
230.0351	19
230.3234	2
230.4103	1
230.6090	5
231.0126	52
231.3582	1
231.6170	4
231.7197	2
232.0280	34
232.3678	3
233.0325	71
233.2901	3
234.0355	30
234.2530	2
234.3895	2
234.6525	4
235.0395	64
235.3870	1
236.0504	20
236.3051	1
236.4984	2
236.6316	3
236.7530	2
237.0565	45
237.3383	2
237.4683	1
237.5521	0
237.9870	8
238.9515	36
239.5822	4
240.0121	15
240.2189	4
240.9496	24
241.4260	1
241.5046	1
241.9904	14
242.2845	1
242.5146	2
242.9966	40
243.3378	0
243.5183	2
244.0090	22
244.6295	4
245.0245	48
245.4778	1
245.6545	2
246.0344	25
246.3806	2
247.0049	51
247.4194	1
247.6001	2
248.0339	12
248.3505	0
249.0289	37
249.4854	2
249.6630	2
250.0480	10
250.3105	1
250.4901	1
250.7188	2
251.0675	33
251.3314	2
251.9745	21
252.3771	2
252.5363	1
253.0006	26
253.4803	1
253.6203	2
253.9885	12
254.1564	3
254.3136	1
254.4384	2
254.9786	26
255.4824	2
256.0188	15
256.4331	1
256.5958	2
257.0121	34
257.3974	1
257.5249	0
257.7674	3
258.0370	22
258.2224	3
258.3998	1
258.5400	2
259.0397	39
259.5746	3
259.7761	3
260.0419	18
260.5332	2
261.0518	32
261.3018	1
261.4381	1
261.5911	1
261.7520	1
262.0520	14
262.2642	2
262.4477	1
263.0345	21
263.5322	2
263.7151	2
264.0771	10
264.4086	2
264.6861	5
265.0383	27
265.6075	2
266.0050	8
266.4424	3
266.6595	1
266.7688	1
267.0399	17
267.5627	0
267.7133	2
267.8479	2
268.0604	9
268.3002	0
268.4402	1
268.6587	3
269.0426	24
269.3098	1
269.5591	2
269.7017	2
270.0503	10
270.5516	1
271.0350	33
271.4211	3
271.6156	2
272.0727	14
272.2943	1
272.4720	2
273.0663	30
273.3878	2
273.5449	1
273.7232	5
273.8477	2
274.0641	13
274.2545	1
274.4056	1
274.6254	4
274.7452	2
275.0715	20
275.3945	1
275.5350	1
275.7268	1
276.0692	9
276.3576	2
276.4942	1
277.0698	19
277.3097	2
277.4343	1
277.7295	2
278.0747	14
278.4619	1
278.5819	1
278.9911	14
279.4491	1
280.0378	7
280.2485	1
280.4352	2
281.0454	12
281.2862	3
281.3883	0
281.6344	5
282.0893	22
282.5684	3
283.0354	22
283.3323	2
283.6367	1
284.0538	8
284.2206	1
284.3261	1
284.5070	1
284.7874	1
285.0811	21
285.2840	2
285.7187	2
286.0726	9
286.2375	3
286.4138	1
286.6642	1
287.0469	20
287.7895	1
287.8715	1
288.1231	7
288.4200	2
288.5208	1
289.0166	15
289.5186	1
289.6994	2
289.9711	4
290.1086	3
290.3276	2
290.6207	1
291.0747	12
291.4587	1
291.6350	2
291.8093	1
292.0757	5
292.2300	2
292.3456	0
292.6635	2
293.0516	8
293.3402	0
293.5399	1
293.7524	1
294.0096	6
294.2028	2
294.3057	1
294.4781	1
294.6872	1
295.0481	12
295.3161	2
295.4464	1
295.5915	2
296.0741	6
296.1991	2
296.3802	1
296.5735	2
296.6724	1
296.7780	3
297.0468	19
297.3196	1
297.3925	0
297.5048	1
297.6633	1
297.8378	3
298.0144	11
298.1782	2
298.3200	2
298.5414	0
298.6537	0
299.0571	24
299.5139	1
299.7234	1
300.0639	9
300.3489	1
300.5122	1
300.7557	1
301.0207	10
301.1545	7
301.3386	1
301.5246	2
301.6966	1
302.0594	4
302.2408	3
302.3619	1
302.5420	1
303.0073	16
303.3126	2
303.4652	1
303.6366	1
303.8796	3
304.0999	3
304.2948	1
304.3658	0
304.5721	1
305.0221	7
305.2914	1
305.4441	1
305.7267	2
305.8265	1
305.9384	3
306.0750	2
306.3531	1
306.5400	0
307.0063	9
307.1215	6
307.4076	1
307.5336	1
307.8291	1
308.0831	4
308.5348	1
309.0382	8
309.4216	1
309.5295	2
309.7776	1
310.0665	6
310.2784	1
310.4976	2
310.6149	2
310.7437	1
311.0629	13
311.3043	2
311.5255	1
311.6396	1
311.8374	1
312.0809	10
312.3404	1
312.5168	1
312.6000	1
312.8120	3
313.0327	11
313.2104	3
313.4828	1
313.5606	1
313.7290	0
314.1068	3
314.5670	0
315.0294	9
315.3253	1
315.5508	2
315.7233	1
315.8851	1
316.1562	3
316.2408	1
316.6456	1
317.0430	7
317.4411	2
317.5942	1
317.8560	1
318.1441	4
318.4503	1
318.6296	2
318.7780	2
319.0305	8
319.1729	4
319.3952	1
319.6443	1
319.8076	2
320.0380	3
320.2281	1
320.4571	2
320.6781	0
321.0046	6
321.1276	3
321.6100	1
322.0138	2
322.3411	1
322.7557	1
323.0910	5
323.7961	1
324.0388	3
324.1987	1
324.5221	1
325.0115	8
325.6065	1
325.8593	1
326.0275	3
326.1714	2
326.3502	1
326.4921	1
326.6515	1
327.0718	7
327.4364	2
327.5272	1
327.9469	1
328.1702	3
328.5429	1
328.8140	3
329.0892	8
329.5588	1
330.1207	7
330.3427	1
330.5917	1
331.0678	12
331.2481	4
332.0396	3
332.2407	1
332.5084	2
332.7922	1
332.9530	2
333.1205	2
333.2469	1
333.3869	1
333.7804	1
334.0536	3
334.5454	1
335.0722	5
335.6166	1
335.7216	2
335.9215	1
336.1355	4
336.7116	1
337.0912	6
337.2629	2
337.8122	1
338.0040	1
338.1488	4
338.5191	1
338.7056	1
338.9621	3
339.1311	7
339.5822	1
339.6705	0
339.8132	0
340.0893	4
340.2159	4
340.6012	2
341.1023	8
341.3145	1
341.5408	1
341.7610	1
342.0237	2
342.3997	1
342.7520	2
342.9481	1
343.1273	7
343.2674	1
343.3988	1
343.5862	2
343.7431	1
344.1043	7
344.6596	1
345.1583	6
345.6322	1
345.8297	1
345.9591	1
346.0797	2
346.2233	2
346.3130	1
346.8631	0
347.1078	5
347.2419	3
348.0976	3
348.2951	1
348.5594	1
348.6437	1
348.7253	1
348.8420	1
349.0686	6
349.2379	3
349.3701	2
349.5157	1
349.7592	1
349.8577	1
350.1511	3
350.2428	2
350.6387	1
350.8371	2
351.1055	7
351.5872	0
351.9704	2
352.1404	3
352.2781	2
352.9562	2
353.1998	4
353.4859	1
353.7740	0
353.9124	0
354.1756	3
354.3092	2
354.8721	1
355.1333	5
355.2623	3
355.4668	1
355.7672	0
356.1459	4
356.3214	0
357.0776	2
357.2383	4
357.3402	2
357.5259	1
357.6995	2
357.8817	3
357.9933	1
358.2536	3
358.5737	1
358.7963	1
359.0061	1
359.2166	3
359.5597	1
359.8657	1
360.1873	2
360.3009	0
360.4489	0
360.7402	1
360.9171	2
361.0706	3
361.2610	2
362.0502	1
362.2359	1
362.4619	1
362.6430	1
362.8482	0
363.0151	4
363.2008	4
363.3549	1
363.9364	1
364.1040	3
364.2507	1
364.3490	0
364.5637	1
364.7151	3
364.9178	1
365.1661	16
365.5337	1
365.6750	1
366.0823	5
366.3065	1
366.4398	1
366.5125	0
366.7529	2
367.1475	3
367.5292	1
368.0841	2
368.2592	1
368.7919	2
369.0175	2
369.1738	1
369.7139	1
370.1356	3
370.3255	1
370.6906	1
370.8624	1
371.0531	3
372.1772	2
372.6937	1
372.7685	0
372.9081	1
373.1165	1
373.2453	1
373.7861	1
374.0700	2
374.2103	2
374.3250	1
374.5199	1
374.7040	1
375.1127	4
375.2787	1
375.5451	1
376.0854	6
376.4962	0
376.7148	1
377.1122	5
377.5939	1
378.0797	2
378.3024	2
378.4508	1
378.6188	1
378.7052	1
379.1040	4
379.9847	1
380.1325	2
380.2297	1
380.3613	1
381.1187	3
381.2584	2
381.4420	1
381.5648	1
381.9773	1
382.1414	1
382.2359	2
382.7091	1
383.1135	3
383.4572	1
383.6186	1
384.0041	1
384.1135	2
384.2675	3
384.7017	0
384.8516	1
385.1494	5
385.3385	3
385.5769	0
385.7268	1
385.7977	1
386.0166	0
386.1760	1
386.5096	0
386.6521	1
386.8183	1
387.1277	2
387.4654	1
387.5863	0
387.7235	1
387.8944	1
388.0984	2
388.5666	1
388.8497	1
389.1496	7
389.5584	1
389.8152	2
390.1091	3
390.2206	1
390.5071	1
390.6862	1
390.8261	1
390.9241	1
391.1491	4
391.7715	1
392.1217	3
392.2386	3
392.5143	0
392.6536	1
392.8726	1
393.0957	1
393.2586	1
393.3836	1
393.9981	1
394.1921	1
394.5734	1
395.1116	2
395.3212	2
395.8682	1
396.1853	5
396.3611	0
396.6938	1
396.9873	1
397.1361	2
397.3058	1
397.5479	1
398.0099	2
398.2588	2
398.4164	2
398.9203	1
399.0312	3
399.1387	3
399.2612	2
399.7949	1
400.0479	1
400.1940	0
400.3090	1
400.4464	1
401.1472	2
401.3827	2
401.6324	1
401.7034	0
401.8631	1
402.0924	4
402.2826	4
402.7996	1
402.9789	1
403.1589	2
403.3307	1
403.5442	0
403.9278	1
404.0372	1
404.2061	2
405.0572	2
405.1787	1
405.9806	5
406.2001	11
406.3103	5
406.5954	1
406.9433	1
407.1622	1
407.3088	1
407.5432	1
407.7662	2
407.8872	1
408.2230	0
408.4352	1
408.7595	1
408.9075	2
409.0663	4
409.2670	2
410.1584	9
410.3456	4
410.4477	1
410.5335	1
410.8208	3
411.1810	6
412.0199	1
412.2328	1
412.5580	1
413.1765	2
413.5416	0
413.7856	1
414.0514	1
414.2150	3
414.5875	1
415.1447	5
415.4395	3
415.5761	1
415.9588	1
416.2402	4
416.7629	0
417.0287	2
417.2424	6
417.4846	1
417.5860	1
417.7199	1
417.8173	2
418.1210	2
418.3232	2
418.5478	1
418.8082	1
418.9090	1
419.1674	5
419.3474	2
419.4773	1
419.5807	1
419.6457	1
419.9285	1
420.0123	0
420.2865	1
420.6696	1
420.7999	1
420.9992	0
421.1046	1
421.3127	1
421.5464	1
421.8302	0
422.2193	1
422.4653	1
422.7828	1
422.9774	1
423.0862	0
423.2876	1
423.5504	1
424.0464	1
424.2532	1
424.3836	1
425.0797	2
425.2061	1
425.3345	2
425.4487	1
425.6109	2
425.9245	2
426.2158	1
426.4220	0
426.8370	1
426.9586	1
427.1479	5
427.2797	4
427.7502	1
427.9226	2
428.1632	3
428.6710	0
428.8129	1
429.1564	7
429.4998	1
429.6222	1
429.7094	1
430.0840	4
430.2273	3
430.3538	1
430.5721	1
430.7263	0
430.8589	1
431.0746	3
431.2815	2
431.4749	0
431.5878	1
431.6663	0
431.8671	1
431.9719	1
432.2201	3
432.8450	1
433.0655	0
433.2000	1
434.1118	1
434.4540	1
434.8991	1
435.1467	2
435.2590	1
435.5451	1
435.8441	1
436.0613	1
436.2751	0
436.5842	1
437.0612	1
437.2899	0
437.4320	1
437.5544	1
438.1661	0
438.3386	2
438.6309	0
438.8475	1
438.9645	1
439.3096	1
439.6771	1
439.8165	1
439.9485	1
440.0818	2
440.2828	1
440.4181	0
440.5961	1
440.7477	1
440.9264	3
441.1964	3
441.4387	1
441.6113	1
441.6932	0
441.8570	1
442.0804	9
442.2442	5
442.5264	0
442.7776	2
442.9982	3
443.2778	4
443.6251	1
444.0387	1
444.1984	1
444.3839	2
445.2187	2
445.4204	0
445.8585	1
446.2072	2
446.3507	1
447.1856	1
447.3184	1
447.5161	1
447.6996	1
448.0904	1
448.3524	1
448.6199	1
448.9796	1
449.1963	1
449.2823	1
449.7090	1
449.8776	1
450.2617	6
450.6234	1
450.9553	0
451.1585	2
451.2912	1
451.6367	1
452.2145	1
452.4232	1
452.6041	1
452.7362	1
452.8568	1
453.0674	2
453.1345	1
453.3032	0
453.9353	1
454.0979	2
454.3737	2
454.7305	1
455.0914	2
455.3205	3
455.4225	2
455.5996	1
456.0160	1
456.1788	3
456.3600	1
456.4566	1
456.7689	1
456.9392	1
457.1346	2
457.3103	2
457.4266	1
457.5746	2
457.8565	1
458.2405	27
458.5291	1
458.9199	2
459.1166	2
459.2106	1
459.5797	1
460.8265	1
460.9550	1
461.1659	2
461.4148	1
461.6839	1
461.8401	0
462.0883	2
462.2816	1
462.6123	1
462.8964	0
463.2960	1
463.7403	2
463.8553	1
464.4850	1
465.1038	2
465.2797	2
465.4907	1
465.5983	1
465.7728	1
465.9081	1
466.1069	0
466.2591	1
466.4458	0
466.6318	0
466.9586	2
467.2555	1
467.4294	1
468.1208	2
468.3041	2
468.5639	1
468.7980	1
468.9184	1
469.0125	1
469.1917	1
469.3088	2
469.6383	2
470.1106	2
470.3488	2
470.6674	2
470.8346	1
470.9334	1
471.1046	3
471.2650	3
471.6466	5
472.2184	105
472.5967	1
472.7618	2
472.9568	2
473.2031	3
473.4014	2
473.6193	1
473.9807	3
474.1675	1
474.4389	2
474.8268	1
474.9730	1
475.2545	2
475.6458	0
475.9348	2
476.2022	1
476.5068	1
476.7146	1
477.1222	1
477.6990	1
477.9921	1
478.3563	2
478.4653	1
478.7118	1
478.9007	1
479.2263	2
479.3590	2
479.4911	0
480.1871	2
480.3524	1
480.4390	1
480.8500	0
481.0498	1
481.2089	1
481.3701	3
482.1575	3
482.4986	1
482.8526	1
483.0488	2
483.2512	5
483.3920	1
483.5524	1
484.1500	6
484.3131	3
484.4011	2
484.5521	1
484.7294	2
485.2336	11
485.7941	1
486.1231	2
486.4406	1
486.6058	1
486.8197	0
487.0208	1
487.1189	1
487.3856	1
487.7147	2
487.9252	1
488.2644	1
488.7444	1
488.9753	1
489.1967	2
489.3246	1
490.1974	1
490.5996	1
490.7012	1
491.0120	1
491.3052	0
491.5077	1
491.7955	1
492.0054	2
492.2404	3
492.3325	1
492.4354	1
492.7686	2
492.9210	1
493.2549	2
493.4567	1
493.9423	1
494.1902	5
494.3988	2
495.1127	5
495.3328	7
495.4521	3
495.5740	1
496.3069	3
496.4437	1
496.5358	1
498.0031	1
498.2396	1
498.5566	1
498.9828	1
499.1691	1
499.2477	1
499.4625	1
500.1163	2
500.3209	0
500.6156	0
500.7552	1
501.4003	1
501.8834	1
502.1552	1
502.4506	1
502.5814	1
502.8491	1
503.0368	1
503.1534	1
503.2455	1
503.4474	1
504.0750	1
504.3224	1
504.4084	1
504.5928	1
505.0049	1
505.2217	3
505.4054	1
505.7104	1
505.9361	1
506.2588	3
506.6255	1
506.7746	1
507.3141	5
507.6544	1
507.7724	1
507.9947	4
508.3318	8
508.7187	1
509.2935	5
509.7473	2
509.8988	1
509.9962	1
510.1694	2
510.3669	3
510.4737	1
510.6104	1
510.7125	1
510.8789	0
511.1048	1
511.2394	1
511.7467	1
511.9543	2
512.1843	1
512.3135	2
512.5381	1
513.3851	1
513.6475	1
514.7110	1
515.3314	1
515.4146	1
515.7624	1
516.2901	1
516.4829	1
516.7123	1
516.8997	1
517.0344	0
517.1711	1
517.4762	0
517.5892	1
518.2449	5
518.5927	1
518.9182	3
519.2708	11
519.6843	0
520.0801	2
520.2635	2
521.0262	4
521.3152	9
522.2932	5
522.8401	0
523.1515	1
523.4466	1
523.7586	1
523.8777	1
524.1614	0
524.5289	1
524.6535	1
525.1097	0
525.4821	0
526.1685	1
526.4901	1
526.6464	1
526.7954	0
526.9687	1
527.1237	1
527.4365	1
527.6484	3
527.8286	1
528.1522	2
528.4656	1
528.7771	1
529.1522	2
529.7122	1
529.7947	1
530.0223	1
530.8626	1
531.0217	4
531.2817	2
531.3651	1
531.9169	1
532.1465	2
532.2400	1
532.4709	2
532.6856	2
532.9646	1
533.0601	1
533.2321	1
533.3859	1
533.6845	3
533.9277	0
534.1782	6
534.3584	5
534.5582	0
534.8210	1
535.0201	1
535.1921	2
535.3202	1
535.4529	1
536.1140	0
536.2400	1
536.4574	1
536.6600	1
536.8733	1
537.2744	1
537.4620	1
537.6672	2
537.9646	1
538.1198	1
538.2477	1
538.3941	1
538.5167	2
538.6536	2
538.7430	1
538.9205	4
538.9882	2
539.1454	3
539.2260	1
539.3933	3
539.5992	1
539.7856	1
539.9001	1
540.0430	1
540.2002	1
540.3838	1
540.6304	4
540.7693	1
540.9807	2
541.2070	2
541.3594	2
541.4725	1
541.6595	2
541.8195	3
541.9827	4
542.0884	3
542.5668	2
542.7830	4
543.1454	4
543.5676	5
543.7092	2
543.8448	3
543.9654	4
544.4086	7
544.8165	7
545.0428	3
545.2102	5
545.3918	5
546.0939	20
546.4449	11
547.1329	17
547.6276	12
548.2342	20
549.1716	82
549.7545	4
550.0731	5
550.3300	4
550.6201	6
550.8763	4
551.0994	4
551.3888	4
551.5323	3
551.7649	5
551.9042	5
552.0171	3
552.2409	7
552.4194	5
552.6710	7
552.8772	2
553.0388	4
553.2349	3
553.4499	3
553.6555	5
554.1072	5
554.4196	5
554.7104	5
554.8828	3
555.2561	5
555.5233	4
555.8005	9
556.3320	8
556.4612	6
556.7919	9
557.2187	11
557.6901	9
558.4963	15
564.3002	999
564.8286	354
565.7325	140
566.5370	74
