Mass spectrum: Oscillaxanthin; FAB-EBEB; MS2; m/z: 892.53; [M]+*
Name: Oscillaxanthin
Formula: C52H76O12
Exact mass: 892.53368
SMILES: C(=CC(C(C)(C)O)OC(C2O)OC(C)C(C2O)O)C(C)=CC=CC(C)=CC=CC(C)=CC=CC=C(C)C=CC=C(C)C=CC=C(C=CC(C(C)(C)O)OC(C1O)OC(C)C(C1O)O)C
InChI: InChI=1S/C52H76O12/c1-33(21-15-23-35(3)25-17-27-37(5)29-31-41(51(9,10)59)63-49-47(57)45(55)43(53)39(7)61-49)19-13-14-20-34(2)22-16-24-36(4)26-18-28-38(6)30-32-42(52(11,12)60)64-50-48(58)46(56)44(54)40(8)62-50/h13-32,39-50,53-60H,1-12H3/b14-13+,21-15+,22-16+,25-17+,26-18+,31-29+,32-30+,33-19+,34-20+,35-23+,36-24+,37-27+,38-28+/t39-,40-,41+,42+,43-,44-,45+,46+,47-,48-,49?,50?/m1/s1
Instrument: JMS-HX/HX 110A, JEOL
Instrument type: FAB-EBEB
Ms type: MS2
Ion mode: POSITIVE
Collision energy: 3 kV
Ionization: FAB
Base peak: 85.0774
Precursor m/z: 892.53
Precursor type: [M]+*
m/z	relative intensity
15.0372	5
19.0520	5
23.0177	99
27.0592	9
28.0467	5
29.0559	50
29.9693	5
31.0343	32
39.0417	63
40.0185	5
41.0754	72
42.0495	5
43.0643	190
45.0768	81
46.0315	9
50.0754	5
51.0798	9
52.1245	5
52.3800	5
53.0771	36
54.1156	9
55.0913	122
57.0759	357
58.1102	18
59.0887	746
60.0345	14
61.0812	131
62.0823	5
63.0741	41
65.0483	36
66.0492	14
67.1006	54
68.1059	5
69.0841	86
70.1035	14
71.0855	583
72.1190	41
73.0672	651
74.0973	9
75.0874	800
76.0386	5
77.0949	59
77.5531	5
78.0276	18
79.0816	63
80.0683	32
81.1249	158
82.0699	18
83.1024	118
83.6975	5
84.1350	18
85.0774	999
86.0921	45
86.6950	5
87.0798	253
87.5097	14
89.1005	27
89.5871	5
90.1085	14
90.4470	5
91.1070	244
92.0794	45
93.1219	199
94.1584	23
95.1104	217
96.0282	9
97.1247	86
98.1434	36
99.1298	45
100.1244	5
101.0881	104
102.1082	23
103.0986	118
104.1230	27
105.1237	217
106.1136	27
107.1511	131
108.1044	14
109.1221	104
110.0512	18
110.6919	9
111.0867	149
112.0579	32
113.1323	32
113.9034	14
115.1084	118
116.0919	36
117.1389	104
118.1268	54
118.5366	5
119.1491	389
120.1465	18
121.1246	154
122.0812	27
123.1541	63
124.0794	23
124.3693	5
125.0939	59
126.0166	32
127.0641	23
128.1292	108
129.1059	606
130.1473	99
131.1452	176
132.1526	23
133.1499	203
134.1251	32
135.1197	63
135.5858	5
136.0820	54
136.4694	18
137.0797	59
138.0809	18
139.0398	68
140.1340	59
140.4198	9
141.1159	99
141.5843	14
142.1433	104
143.1141	339
143.5156	18
144.1103	63
144.4360	14
145.1523	335
146.1313	50
146.5245	14
147.1197	362
148.0691	32
149.1067	81
150.0465	9
150.5188	14
151.1458	45
152.1737	36
153.0666	32
153.4044	5
154.1174	63
154.5903	9
155.1471	108
155.6084	9
156.1537	54
156.5502	18
157.1391	267
158.0909	50
159.1442	208
159.5257	14
160.2462	18
160.6261	5
161.1316	136
162.0838	18
163.1319	36
164.0389	27
165.0914	86
166.1245	27
167.1423	68
168.1280	59
169.1770	158
170.0964	50
171.1830	158
172.1773	45
172.6727	5
173.1850	154
174.1584	27
175.1891	77
176.2292	32
177.1826	50
178.1328	41
179.1613	108
180.1972	72
181.1816	104
181.6774	14
182.1397	77
183.2017	149
183.6478	18
184.2900	23
185.2256	90
186.2231	27
187.2279	45
187.6060	14
188.1068	27
188.5465	9
189.1577	59
190.1732	63
191.2165	27
192.2037	41
192.6457	5
193.2086	108
194.2377	118
195.1766	181
195.5095	23
196.2710	68
197.2157	167
197.6512	5
198.1356	5
199.2072	63
200.2713	18
201.2041	36
202.1632	54
203.1316	36
204.1114	23
205.2479	72
206.1801	41
207.2393	127
208.1172	68
209.1735	185
210.1750	68
211.2243	81
212.1650	27
213.2137	54
213.5255	9
214.1062	41
215.1607	41
216.1255	36
217.2311	23
218.2296	32
219.2116	63
220.1056	36
221.1666	86
222.1462	36
223.2346	122
224.2306	23
225.1905	50
225.5460	18
226.3873	18
227.1488	36
228.1257	45
229.1900	50
230.1529	41
231.1924	63
232.2065	32
233.1668	63
234.1865	41
235.1741	36
236.0379	32
237.1946	86
238.2626	9
239.1979	81
240.0834	59
241.1706	59
242.2476	41
243.2244	59
244.1995	36
245.1555	32
246.2019	50
247.2050	18
247.9099	23
248.2547	27
249.1578	45
250.3912	45
251.2183	59
252.2703	18
253.1488	41
254.1644	23
255.2180	41
256.1287	27
256.4155	23
257.2230	50
258.2252	41
258.6249	9
259.2323	27
260.2775	50
261.2170	63
262.2300	32
263.3149	54
264.0790	14
265.3605	36
266.1453	14
266.7865	9
267.3019	45
268.3064	9
269.2826	27
270.3722	5
271.3737	18
272.3912	5
273.1895	27
274.2278	63
275.1932	18
276.3546	18
276.8499	5
277.4276	32
278.2076	54
279.2614	32
280.1778	23
280.6250	14
281.2192	32
282.2031	23
283.3656	36
284.2991	14
285.2174	50
286.3367	27
287.3026	23
288.3559	18
289.1931	27
290.2471	41
291.2190	27
292.3387	9
293.2398	45
294.2283	36
295.3735	27
296.1433	5
296.6021	5
297.2088	18
298.2501	14
299.2806	27
300.1568	18
301.1925	23
302.1994	18
302.5336	14
303.1124	23
304.0033	9
304.3288	14
305.3009	59
306.2913	50
307.3831	27
308.1922	23
309.2151	27
310.1618	5
311.1696	59
312.3264	45
313.2764	59
314.2560	45
315.1277	36
316.1543	14
317.1329	23
317.4749	14
318.2828	23
319.3634	23
320.2686	23
321.0818	14
321.4580	14
322.2399	32
322.6095	9
323.2113	18
323.5811	9
324.1740	14
324.4695	9
325.2724	18
326.1793	18
327.3167	23
328.2897	36
329.2155	14
330.3471	18
331.4159	5
332.3991	27
333.4210	32
334.2487	32
335.2893	14
336.3040	27
336.7447	9
337.1810	14
337.7529	14
339.2747	63
339.6932	9
340.6932	9
341.3404	18
343.3370	32
345.2395	23
346.1232	9
347.3674	23
348.3378	27
349.1201	27
350.1227	9
351.2570	23
352.4122	36
353.3430	54
354.2898	14
354.6532	9
355.4686	32
356.2661	32
356.5546	9
357.2136	32
358.2978	32
359.2254	86
359.6006	9
360.3784	23
361.3065	18
362.3326	5
363.2292	18
364.2968	45
365.2622	45
367.3942	14
368.2486	27
368.9255	18
369.3950	32
369.7392	9
370.3046	32
371.3625	23
372.3683	27
372.9455	36
373.3789	45
374.2186	63
374.9009	14
375.3711	36
376.1975	45
377.1815	41
378.2001	18
379.3034	18
381.2205	27
382.2560	27
383.3854	27
384.3527	23
385.2402	9
386.3429	18
387.0408	23
387.3612	14
388.0409	14
388.3339	9
389.1586	18
390.4153	36
391.2380	18
392.1386	18
392.4198	14
393.1033	23
394.2947	5
394.9625	32
396.1864	5
397.4677	14
398.5434	14
399.3011	41
399.8665	27
400.3084	32
401.0733	14
401.5130	9
402.3398	14
403.4097	36
405.4308	45
406.4371	14
407.4665	9
409.5374	23
410.2715	36
411.1525	18
412.1782	18
413.2408	36
414.3932	32
415.3300	18
417.4659	23
418.3481	41
419.4464	14
420.0991	32
420.3358	14
421.4552	5
422.5256	18
423.2861	27
424.2466	23
425.4209	23
426.1266	18
427.3634	36
428.2970	18
429.3641	32
430.2864	27
430.7603	9
431.3769	27
432.4100	27
433.3535	41
434.2927	23
435.2342	18
436.4222	14
437.3388	27
438.4604	9
439.4296	32
440.4097	18
441.3347	41
442.3358	9
443.4661	32
444.3478	23
445.4047	45
446.0955	18
446.3604	9
447.3139	23
448.2929	32
449.5002	18
450.3920	36
451.2285	27
451.6826	14
452.4940	27
453.3101	23
453.6674	23
455.3761	14
456.3633	9
457.1106	9
457.5743	9
460.4794	18
460.9294	9
462.2313	9
463.3672	18
464.4040	9
465.1984	45
466.1846	23
466.9469	18
467.4760	9
468.4625	14
469.4815	23
470.4845	14
472.9810	9
473.5382	5
474.1394	23
475.6195	14
476.8222	18
477.2548	9
477.6967	9
478.3995	23
478.8566	14
479.5884	27
480.5351	36
481.4865	68
482.2925	27
482.7545	18
483.4914	18
483.8425	9
484.5263	41
485.4413	32
486.0559	23
487.3893	45
488.3185	23
489.3009	32
489.8026	18
490.4291	32
491.3077	5
492.3321	18
493.6111	41
494.5618	23
496.3038	36
497.4561	36
498.4559	45
499.2538	23
500.2780	9
500.9324	9
501.5613	23
502.2574	9
502.6483	14
503.1987	18
503.5387	27
504.4247	18
505.4773	127
506.5508	86
507.2219	14
508.4206	50
509.4436	45
510.2746	14
511.1589	27
511.4900	5
512.2471	32
513.2474	9
513.5878	5
514.2964	18
515.3502	9
517.0064	23
519.4832	36
520.3476	41
520.8435	5
521.3650	14
522.5239	72
523.4767	86
524.5431	194
525.5563	9
526.1616	9
527.4232	18
527.7409	9
528.4529	18
528.6640	9
529.4736	32
530.6219	27
531.4223	9
532.0767	5
532.6962	14
533.3877	36
534.4460	32
535.4000	9
536.3911	32
537.0179	23
537.4869	23
538.6315	18
539.5603	23
541.4786	14
542.4668	23
545.5466	18
546.6530	5
547.5160	32
548.3860	18
549.2700	27
550.2585	5
550.5718	5
551.4258	18
552.3541	32
552.8903	9
553.5983	14
554.3829	9
555.3719	27
556.4213	36
557.4058	27
557.7634	5
558.3788	23
559.3845	27
560.4319	23
561.2705	9
561.7932	14
562.0510	5
563.2753	23
564.3279	32
565.5502	41
566.8492	14
568.3553	36
569.5944	41
570.1592	14
570.5801	27
571.4171	18
572.2657	18
573.4307	23
573.8237	9
574.3679	27
575.5936	18
576.4485	14
577.4194	36
578.4531	54
579.4125	27
580.2768	9
580.6044	18
581.4757	32
581.7522	23
582.5678	14
583.5857	45
584.3736	41
585.4427	32
586.4586	50
586.8142	23
587.5325	5
588.4834	32
589.4297	18
590.4365	23
590.9691	9
591.5923	18
592.0923	18
593.5668	27
594.3298	27
594.7391	9
595.4696	32
597.5890	23
598.3010	18
599.1759	9
600.4209	27
600.9747	18
601.6078	32
602.6785	27
603.5862	36
604.2660	36
606.3915	5
607.8328	9
608.6027	18
609.4854	27
610.4147	9
611.3881	18
612.3012	23
613.3352	5
614.3763	18
615.3453	36
616.4656	27
617.6440	9
618.2879	23
619.2084	27
619.8036	18
620.1035	18
620.5499	23
621.4962	14
622.4448	27
623.3237	14
623.6888	9
624.0563	9
624.5516	9
624.9981	18
625.3400	23
625.9493	14
626.6192	14
628.4243	41
628.7406	27
629.4338	36
630.0015	9
630.4645	18
631.0554	14
631.5999	14
632.3445	45
633.5010	41
634.6459	45
635.2114	23
635.7607	18
636.5474	14
637.4412	18
638.3676	18
639.1964	27
640.0530	14
640.5419	14
641.6199	14
642.4535	27
643.3872	23
643.8599	18
644.5027	14
645.4575	36
646.7734	23
647.2299	32
647.7307	14
649.2401	5
650.2698	14
651.2087	27
652.6206	50
653.1542	9
653.5549	18
654.5779	23
655.6429	90
656.4166	32
656.6823	18
657.1880	9
657.5936	23
658.5376	18
659.8126	14
660.6821	18
661.7056	14
663.5891	5
664.4409	32
665.5790	41
666.6939	32
667.7088	14
668.4258	9
668.8123	18
669.6038	50
670.5560	158
671.4966	27
672.3930	23
672.7050	14
674.5563	41
675.4017	14
676.5708	23
677.6329	18
678.1476	9
679.1166	27
680.1136	18
681.3180	14
681.5510	5
682.6693	14
683.5803	32
684.3026	18
685.4420	41
686.5746	249
687.5930	81
688.5298	23
689.5856	18
690.5203	54
691.1124	14
691.7951	9
692.1443	9
693.5577	23
694.4659	23
694.9409	14
695.3787	14
696.7946	27
697.8916	45
698.5717	18
699.3799	18
701.7862	18
702.3359	18
703.4985	36
704.1531	9
704.5981	9
705.4486	23
705.9519	32
706.3293	27
706.7255	27
707.2568	5
708.7738	32
709.4030	32
709.7666	14
710.5916	18
711.3514	9
711.7756	9
712.4259	9
713.1718	23
713.5215	50
714.0110	23
714.7033	9
715.9109	5
716.6522	36
717.6967	32
718.7296	9
719.2706	18
719.6459	18
720.7380	27
721.3011	18
721.5989	14
722.5880	41
723.3116	23
724.3287	18
724.9478	23
725.5948	23
726.6561	18
727.4987	23
728.5206	72
729.6589	258
730.5342	50
731.6051	36
732.7250	27
733.5911	18
734.5178	36
735.6355	36
736.5995	23
737.3587	18
738.4509	50
739.5526	90
740.2606	23
740.7147	32
741.5530	9
741.8627	9
742.9152	23
744.6639	72
745.0226	27
745.3160	9
746.6854	68
747.8196	14
748.2948	18
748.8491	5
749.5176	27
750.1279	18
751.3369	14
752.4224	18
753.4661	32
754.4796	32
755.3929	32
755.7820	27
757.2662	36
758.0095	5
758.5687	23
759.5219	32
760.0065	18
760.7033	5
761.5167	27
762.0876	14
762.5281	14
763.1342	9
763.5513	14
764.5116	32
765.5978	23
766.5279	18
766.9008	14
768.6799	27
769.6246	32
770.2273	14
770.7067	18
771.0417	14
771.7399	27
772.8685	36
773.5923	50
774.7071	176
775.6683	9
776.2805	41
776.8530	23
778.4661	32
779.2482	27
779.7184	45
780.6589	9
781.1594	23
781.5948	9
782.4562	5
783.1802	23
783.7227	9
784.3397	18
785.6669	41
786.4539	9
786.9127	14
788.3890	18
788.8594	27
789.5394	14
790.4104	23
790.9321	41
791.5609	23
792.3224	27
793.0445	23
793.7549	18
794.7425	9
795.3458	14
795.9211	9
796.3008	14
796.7527	9
797.2676	27
797.5774	18
798.4254	36
798.8447	18
800.4289	95
800.7830	36
801.2350	23
801.6078	14
802.5165	32
803.0920	9
803.8936	5
804.2944	18
805.0237	18
805.4291	54
806.1492	45
806.4009	23
806.7574	23
807.6826	54
808.9434	27
809.5564	27
810.5306	23
812.0293	14
812.8638	9
813.5677	23
814.3882	18
815.5794	18
816.5701	27
817.5237	50
818.5192	14
819.7936	59
821.3105	41
821.8316	14
822.3830	32
823.2415	36
824.2676	41
824.9888	5
825.5054	32
826.7828	45
827.7532	36
828.4048	63
828.9563	68
829.3426	50
830.2548	63
831.4254	45
832.6799	50
834.4744	506
835.4124	77
835.8686	45
836.7648	23
837.6121	36
838.1219	9
839.3400	32
840.8835	18
841.4600	14
841.7854	23
842.6246	9
843.3221	27
844.0172	18
844.4845	14
845.2308	18
845.7748	27
846.6816	72
847.5024	45
849.1393	90
850.2136	41
850.9252	27
851.2554	18
852.3530	18
852.6879	14
853.7158	23
854.4763	27
855.0438	18
855.3857	5
856.1392	14
856.9346	41
858.7396	18
859.4118	27
860.6121	104
861.6077	45
862.6592	77
863.7060	131
864.8064	127
865.6998	77
866.8677	41
867.7542	41
868.6942	18
869.8297	36
871.3585	59
874.6605	787
875.6799	371
876.6061	181
877.6279	122
878.8893	45
879.7971	45
881.3287	68
882.4622	72
883.3771	72
885.0392	104
892.6477	999
894.1380	949
895.0578	411
896.7903	194
897.9710	54
899.1448	45
899.7107	32
900.2347	27
900.5887	14
900.9288	9
901.9652	18
902.2587	5
